# Generated by pormake.
# Topology eea, (3,6)-cn, num edge types: 1
# Building blocks:
#     Node 0, Type 0, BuildingBlock: BETDAH_clean_linker_0, # of connection points: 3
#     Node 1, Type 0, BuildingBlock: BETDAH_clean_linker_0, # of connection points: 3
#     Node 2, Type 0, BuildingBlock: BETDAH_clean_linker_0, # of connection points: 3
#     Node 3, Type 0, BuildingBlock: BETDAH_clean_linker_0, # of connection points: 3
#     Node 4, Type 0, BuildingBlock: BETDAH_clean_linker_0, # of connection points: 3
#     Node 5, Type 0, BuildingBlock: BETDAH_clean_linker_0, # of connection points: 3
#     Node 6, Type 0, BuildingBlock: BETDAH_clean_linker_0, # of connection points: 3
#     Node 7, Type 0, BuildingBlock: BETDAH_clean_linker_0, # of connection points: 3
#     Node 8, Type 0, BuildingBlock: BETDAH_clean_linker_0, # of connection points: 3
#     Node 9, Type 0, BuildingBlock: BETDAH_clean_linker_0, # of connection points: 3
#     Node 10, Type 0, BuildingBlock: BETDAH_clean_linker_0, # of connection points: 3
#     Node 11, Type 0, BuildingBlock: BETDAH_clean_linker_0, # of connection points: 3
#     Node 12, Type 0, BuildingBlock: BETDAH_clean_linker_0, # of connection points: 3
#     Node 13, Type 0, BuildingBlock: BETDAH_clean_linker_0, # of connection points: 3
#     Node 14, Type 0, BuildingBlock: BETDAH_clean_linker_0, # of connection points: 3
#     Node 15, Type 0, BuildingBlock: BETDAH_clean_linker_0, # of connection points: 3
#     Node 16, Type 0, BuildingBlock: BETDAH_clean_linker_0, # of connection points: 3
#     Node 17, Type 0, BuildingBlock: BETDAH_clean_linker_0, # of connection points: 3
#     Node 18, Type 1, BuildingBlock: KUMJIN_clean_sbu_0, # of connection points: 6
#     Node 19, Type 1, BuildingBlock: KUMJIN_clean_sbu_0, # of connection points: 6
#     Node 20, Type 1, BuildingBlock: KUMJIN_clean_sbu_0, # of connection points: 6
#     Node 21, Type 1, BuildingBlock: KUMJIN_clean_sbu_0, # of connection points: 6
#     Node 22, Type 1, BuildingBlock: KUMJIN_clean_sbu_0, # of connection points: 6
#     Node 23, Type 1, BuildingBlock: KUMJIN_clean_sbu_0, # of connection points: 6
#     Node 24, Type 1, BuildingBlock: KUMJIN_clean_sbu_0, # of connection points: 6
#     Node 25, Type 1, BuildingBlock: KUMJIN_clean_sbu_0, # of connection points: 6
#     Node 26, Type 1, BuildingBlock: KUMJIN_clean_sbu_0, # of connection points: 6
#     Edge 27, Type (0, 1), BuildingBlock: CIFDUS_clean_linker_0, # of connection points: 2
#     Edge 28, Type (0, 1), BuildingBlock: CIFDUS_clean_linker_0, # of connection points: 2
#     Edge 29, Type (0, 1), BuildingBlock: CIFDUS_clean_linker_0, # of connection points: 2
#     Edge 30, Type (0, 1), BuildingBlock: CIFDUS_clean_linker_0, # of connection points: 2
#     Edge 31, Type (0, 1), BuildingBlock: CIFDUS_clean_linker_0, # of connection points: 2
#     Edge 32, Type (0, 1), BuildingBlock: CIFDUS_clean_linker_0, # of connection points: 2
#     Edge 33, Type (0, 1), BuildingBlock: CIFDUS_clean_linker_0, # of connection points: 2
#     Edge 34, Type (0, 1), BuildingBlock: CIFDUS_clean_linker_0, # of connection points: 2
#     Edge 35, Type (0, 1), BuildingBlock: CIFDUS_clean_linker_0, # of connection points: 2
#     Edge 36, Type (0, 1), BuildingBlock: CIFDUS_clean_linker_0, # of connection points: 2
#     Edge 37, Type (0, 1), BuildingBlock: CIFDUS_clean_linker_0, # of connection points: 2
#     Edge 38, Type (0, 1), BuildingBlock: CIFDUS_clean_linker_0, # of connection points: 2
#     Edge 39, Type (0, 1), BuildingBlock: CIFDUS_clean_linker_0, # of connection points: 2
#     Edge 40, Type (0, 1), BuildingBlock: CIFDUS_clean_linker_0, # of connection points: 2
#     Edge 41, Type (0, 1), BuildingBlock: CIFDUS_clean_linker_0, # of connection points: 2
#     Edge 42, Type (0, 1), BuildingBlock: CIFDUS_clean_linker_0, # of connection points: 2
#     Edge 43, Type (0, 1), BuildingBlock: CIFDUS_clean_linker_0, # of connection points: 2
#     Edge 44, Type (0, 1), BuildingBlock: CIFDUS_clean_linker_0, # of connection points: 2
#     Edge 45, Type (0, 1), BuildingBlock: CIFDUS_clean_linker_0, # of connection points: 2
#     Edge 46, Type (0, 1), BuildingBlock: CIFDUS_clean_linker_0, # of connection points: 2
#     Edge 47, Type (0, 1), BuildingBlock: CIFDUS_clean_linker_0, # of connection points: 2
#     Edge 48, Type (0, 1), BuildingBlock: CIFDUS_clean_linker_0, # of connection points: 2
#     Edge 49, Type (0, 1), BuildingBlock: CIFDUS_clean_linker_0, # of connection points: 2
#     Edge 50, Type (0, 1), BuildingBlock: CIFDUS_clean_linker_0, # of connection points: 2
#     Edge 51, Type (0, 1), BuildingBlock: CIFDUS_clean_linker_0, # of connection points: 2
#     Edge 52, Type (0, 1), BuildingBlock: CIFDUS_clean_linker_0, # of connection points: 2
#     Edge 53, Type (0, 1), BuildingBlock: CIFDUS_clean_linker_0, # of connection points: 2
#     Edge 54, Type (0, 1), BuildingBlock: CIFDUS_clean_linker_0, # of connection points: 2
#     Edge 55, Type (0, 1), BuildingBlock: CIFDUS_clean_linker_0, # of connection points: 2
#     Edge 56, Type (0, 1), BuildingBlock: CIFDUS_clean_linker_0, # of connection points: 2
#     Edge 57, Type (0, 1), BuildingBlock: CIFDUS_clean_linker_0, # of connection points: 2
#     Edge 58, Type (0, 1), BuildingBlock: CIFDUS_clean_linker_0, # of connection points: 2
#     Edge 59, Type (0, 1), BuildingBlock: CIFDUS_clean_linker_0, # of connection points: 2
#     Edge 60, Type (0, 1), BuildingBlock: CIFDUS_clean_linker_0, # of connection points: 2
#     Edge 61, Type (0, 1), BuildingBlock: CIFDUS_clean_linker_0, # of connection points: 2
#     Edge 62, Type (0, 1), BuildingBlock: CIFDUS_clean_linker_0, # of connection points: 2
#     Edge 63, Type (0, 1), BuildingBlock: CIFDUS_clean_linker_0, # of connection points: 2
#     Edge 64, Type (0, 1), BuildingBlock: CIFDUS_clean_linker_0, # of connection points: 2
#     Edge 65, Type (0, 1), BuildingBlock: CIFDUS_clean_linker_0, # of connection points: 2
#     Edge 66, Type (0, 1), BuildingBlock: CIFDUS_clean_linker_0, # of connection points: 2
#     Edge 67, Type (0, 1), BuildingBlock: CIFDUS_clean_linker_0, # of connection points: 2
#     Edge 68, Type (0, 1), BuildingBlock: CIFDUS_clean_linker_0, # of connection points: 2
#     Edge 69, Type (0, 1), BuildingBlock: CIFDUS_clean_linker_0, # of connection points: 2
#     Edge 70, Type (0, 1), BuildingBlock: CIFDUS_clean_linker_0, # of connection points: 2
#     Edge 71, Type (0, 1), BuildingBlock: CIFDUS_clean_linker_0, # of connection points: 2
#     Edge 72, Type (0, 1), BuildingBlock: CIFDUS_clean_linker_0, # of connection points: 2
#     Edge 73, Type (0, 1), BuildingBlock: CIFDUS_clean_linker_0, # of connection points: 2
#     Edge 74, Type (0, 1), BuildingBlock: CIFDUS_clean_linker_0, # of connection points: 2
#     Edge 75, Type (0, 1), BuildingBlock: CIFDUS_clean_linker_0, # of connection points: 2
#     Edge 76, Type (0, 1), BuildingBlock: CIFDUS_clean_linker_0, # of connection points: 2
#     Edge 77, Type (0, 1), BuildingBlock: CIFDUS_clean_linker_0, # of connection points: 2
#     Edge 78, Type (0, 1), BuildingBlock: CIFDUS_clean_linker_0, # of connection points: 2
#     Edge 79, Type (0, 1), BuildingBlock: CIFDUS_clean_linker_0, # of connection points: 2
#     Edge 80, Type (0, 1), BuildingBlock: CIFDUS_clean_linker_0, # of connection points: 2
# Relax obj value: 0.023
# Max RMSD: 0.171
# Mean RMSD: 0.123
data_MOF--net-eea--node1-KUMJIN_clean_sbu_0--node2-BETDAH_clean_linker_0--edge1-CIFDUS_clean_linker_0
_symmetry_space_group_name_H-M    P1
_symmetry_Int_Tables_number       1
_symmetry_cell_setting            triclinic
loop_
_symmetry_equiv_pos_as_xyz
'x, y, z'
_cell_length_a     47.693938
_cell_length_b     48.910863
_cell_length_c     59.573416
_cell_angle_alpha  89.919771
_cell_angle_beta   90.023748
_cell_angle_gamma 119.96823
loop_
_atom_site_label
_atom_site_type_symbol
_atom_site_fract_x
_atom_site_fract_y
_atom_site_fract_z
_atom_type_partial_charge
H0 H 0.24898 0.05973 0.44734 0.0
H1 H 0.231 0.13677 0.43523 0.0
H2 H 0.19475 0.05874 0.38952 0.0
C3 C 0.23859 0.07083 0.4372 0.0
C4 C 0.22193 0.05582 0.41747 0.0
C5 C 0.2422 0.10012 0.44388 0.0
C6 C 0.22823 0.11417 0.43053 0.0
C7 C 0.21133 0.09909 0.41077 0.0
C8 C 0.2083 0.0702 0.40458 0.0
N9 N 0.19711 0.11171 0.39614 0.0
C10 C 0.19589 0.13935 0.3986 0.0
H11 H 0.95246 0.19505 0.43285 0.0
H12 H 0.86808 0.10405 0.42064 0.0
H13 H 0.94942 0.13926 0.37609 0.0
C14 C 0.93985 0.17369 0.42297 0.0
C15 C 0.95512 0.1699 0.40389 0.0
C16 C 0.90829 0.15007 0.42921 0.0
C17 C 0.89215 0.1225 0.41602 0.0
C18 C 0.90701 0.1187 0.39685 0.0
C19 C 0.9383 0.14232 0.39103 0.0
N20 N 0.89133 0.09186 0.38263 0.0
C21 C 0.86156 0.06478 0.38643 0.0
H22 H 0.82693 0.7578 0.44267 0.0
H23 H 0.92346 0.77432 0.43006 0.0
H24 H 0.87489 0.80043 0.38085 0.0
C25 C 0.84782 0.76591 0.43182 0.0
C26 C 0.84727 0.77876 0.4108 0.0
C27 C 0.87487 0.76377 0.43914 0.0
C28 C 0.90253 0.77592 0.42499 0.0
C29 C 0.90258 0.78942 0.40394 0.0
C30 C 0.87496 0.79069 0.39719 0.0
N31 N 0.92908 0.80149 0.38851 0.0
C32 C 0.95919 0.8033 0.39061 0.0
H33 H 0.05914 0.23992 0.59875 0.0
H34 H 0.14311 0.22869 0.6057 0.0
H35 H 0.06793 0.1905 0.65549 0.0
C36 C 0.07271 0.23116 0.60787 0.0
C37 C 0.0598 0.21445 0.62803 0.0
C38 C 0.10264 0.23624 0.59929 0.0
C39 C 0.12027 0.22532 0.61194 0.0
C40 C 0.10778 0.20896 0.63231 0.0
C41 C 0.07749 0.20329 0.6399 0.0
N42 N 0.1242 0.19704 0.64559 0.0
C43 C 0.15601 0.20343 0.64307 0.0
H44 H 0.76927 0.827 0.59123 0.0
H45 H 0.77228 0.91508 0.60512 0.0
H46 H 0.79187 0.86674 0.65748 0.0
C47 C 0.77342 0.8458 0.6027 0.0
C48 C 0.78217 0.84422 0.62502 0.0
C49 C 0.76944 0.87106 0.5952 0.0
C50 C 0.77502 0.89538 0.61048 0.0
C51 C 0.78321 0.89368 0.63294 0.0
C52 C 0.78632 0.86805 0.64 0.0
N53 N 0.7867 0.91611 0.64942 0.0
C54 C 0.79628 0.94764 0.64556 0.0
H55 H 0.19074 0.94831 0.59823 0.0
H56 H 0.1204 0.84994 0.60672 0.0
H57 H 0.13939 0.9148 0.66075 0.0
C58 C 0.17265 0.92934 0.60844 0.0
C59 C 0.16686 0.93577 0.63044 0.0
C60 C 0.1562 0.89852 0.59962 0.0
C61 C 0.13227 0.87403 0.6128 0.0
C62 C 0.12572 0.88007 0.63471 0.0
C63 C 0.14316 0.91082 0.6434 0.0
N64 N 0.10729 0.85464 0.64962 0.0
C65 C 0.07366 0.83888 0.65115 0.0
H66 H 0.91805 0.39805 0.78265 0.0
H67 H 0.93643 0.49187 0.76783 0.0
H68 H 0.89573 0.42015 0.7174 0.0
C69 C 0.91679 0.41455 0.77114 0.0
C70 C 0.90493 0.40467 0.74924 0.0
C71 C 0.9281 0.44586 0.7782 0.0
C72 C 0.92675 0.46741 0.76307 0.0
C73 C 0.91533 0.45794 0.74108 0.0
C74 C 0.90448 0.42683 0.73441 0.0
N75 N 0.91895 0.48008 0.72432 0.0
C76 C 0.90604 0.49999 0.72546 0.0
H77 H 0.61628 0.52718 0.77675 0.0
H78 H 0.54241 0.4304 0.76518 0.0
H79 H 0.61997 0.47824 0.71794 0.0
C80 C 0.60575 0.50618 0.7664 0.0
C81 C 0.62133 0.50645 0.74621 0.0
C82 C 0.5774 0.47882 0.77369 0.0
C83 C 0.56435 0.45152 0.76011 0.0
C84 C 0.57989 0.45132 0.74009 0.0
C85 C 0.60841 0.47859 0.7335 0.0
N86 N 0.56845 0.42398 0.7264 0.0
C87 C 0.53669 0.39897 0.72504 0.0
H88 H 0.48979 0.1 0.7763 0.0
H89 H 0.58543 0.11306 0.76711 0.0
H90 H 0.54095 0.13927 0.71466 0.0
C91 C 0.51123 0.10777 0.76602 0.0
C92 C 0.51202 0.11965 0.74441 0.0
C93 C 0.53759 0.10555 0.77454 0.0
C94 C 0.5651 0.11485 0.7608 0.0
C95 C 0.56647 0.12742 0.73916 0.0
C96 C 0.54001 0.12999 0.73136 0.0
N97 N 0.59373 0.13826 0.72458 0.0
C98 C 0.62078 0.13457 0.727 0.0
H99 H 0.72844 0.58 0.93349 0.0
H100 H 0.81042 0.56597 0.94154 0.0
H101 H 0.73728 0.53522 0.99291 0.0
C102 C 0.74157 0.57117 0.9431 0.0
C103 C 0.72928 0.55706 0.96407 0.0
C104 C 0.77059 0.57417 0.93449 0.0
C105 C 0.78806 0.56374 0.9478 0.0
C106 C 0.77605 0.54964 0.96895 0.0
C107 C 0.74648 0.546 0.97666 0.0
N108 N 0.79244 0.5385 0.98306 0.0
C109 C 0.82338 0.54253 0.98013 0.0
H110 H 0.42837 0.1546 0.92541 0.0
H111 H 0.41492 0.23317 0.94164 0.0
H112 H 0.4522 0.19645 0.99119 0.0
C113 C 0.43099 0.17268 0.93706 0.0
C114 C 0.44271 0.17319 0.95887 0.0
C115 C 0.42123 0.19437 0.93037 0.0
C116 C 0.4227 0.21654 0.94617 0.0
C117 C 0.43321 0.2165 0.96821 0.0
C118 C 0.44335 0.19521 0.97427 0.0
N119 N 0.43127 0.23555 0.98534 0.0
C120 C 0.44138 0.26742 0.98315 0.0
H121 H 0.8555 0.27198 0.92496 0.0
H122 H 0.76813 0.18318 0.93669 0.0
H123 H 0.80711 0.25303 0.98871 0.0
C124 C 0.83606 0.25622 0.93602 0.0
C125 C 0.83454 0.26641 0.95783 0.0
C126 C 0.81259 0.22611 0.92815 0.0
C127 C 0.78628 0.20643 0.94231 0.0
C128 C 0.78425 0.21652 0.96412 0.0
C129 C 0.80851 0.24612 0.97166 0.0
N130 N 0.75905 0.19771 0.97954 0.0
C131 C 0.73116 0.16887 0.97554 0.0
H132 H 0.57678 0.72383 0.11003 0.0
H133 H 0.59301 0.81715 0.09592 0.0
H134 H 0.55267 0.74506 0.04534 0.0
C135 C 0.57533 0.74043 0.09869 0.0
C136 C 0.5631 0.73054 0.07698 0.0
C137 C 0.58675 0.77173 0.10568 0.0
C138 C 0.58403 0.79288 0.09093 0.0
C139 C 0.5717 0.78309 0.06911 0.0
C140 C 0.56188 0.75225 0.06223 0.0
N141 N 0.57063 0.80395 0.05303 0.0
C142 C 0.56686 0.82972 0.05783 0.0
H143 H 0.29328 0.85483 0.10324 0.0
H144 H 0.20723 0.76365 0.09449 0.0
H145 H 0.27818 0.80319 0.04198 0.0
C146 C 0.27864 0.8339 0.0933 0.0
C147 C 0.28971 0.83159 0.07185 0.0
C148 C 0.24889 0.8095 0.10189 0.0
C149 C 0.23007 0.78265 0.08834 0.0
C150 C 0.24064 0.78056 0.06666 0.0
C151 C 0.27032 0.80495 0.05873 0.0
N152 N 0.22185 0.75528 0.05167 0.0
C153 C 0.19658 0.72527 0.05707 0.0
H154 H 0.15391 0.44037 0.11346 0.0
H155 H 0.2434 0.44028 0.10129 0.0
H156 H 0.20433 0.47497 0.05106 0.0
C157 C 0.17421 0.44513 0.10276 0.0
C158 C 0.17634 0.45864 0.08148 0.0
C159 C 0.19831 0.43846 0.11044 0.0
C160 C 0.22509 0.44594 0.09619 0.0
C161 C 0.2272 0.45908 0.07471 0.0
C162 C 0.20283 0.4653 0.06769 0.0
N163 N 0.25164 0.46414 0.05875 0.0
C164 C 0.28302 0.46994 0.06277 0.0
H165 H 0.40392 0.91214 0.2631 0.0
H166 H 0.4829 0.89388 0.27175 0.0
H167 H 0.41134 0.86866 0.32374 0.0
C168 C 0.41638 0.9029 0.27303 0.0
C169 C 0.40399 0.89013 0.29433 0.0
C170 C 0.44456 0.90412 0.26443 0.0
C171 C 0.46121 0.8931 0.27801 0.0
C172 C 0.44929 0.88028 0.29947 0.0
C173 C 0.42043 0.87842 0.30724 0.0
N174 N 0.46519 0.86876 0.31378 0.0
C175 C 0.49575 0.87183 0.31068 0.0
H176 H 0.08568 0.4833 0.26356 0.0
H177 H 0.07999 0.56518 0.28323 0.0
H178 H 0.10864 0.51854 0.33124 0.0
C179 C 0.08828 0.50024 0.27627 0.0
C180 C 0.09921 0.49849 0.29789 0.0
C181 C 0.08109 0.52411 0.27082 0.0
C182 C 0.08577 0.5469 0.28709 0.0
C183 C 0.09572 0.54465 0.30888 0.0
C184 C 0.10178 0.5203 0.31418 0.0
N185 N 0.09784 0.56515 0.32637 0.0
C186 C 0.11094 0.59745 0.32378 0.0
H187 H 0.5331 0.59675 0.26028 0.0
H188 H 0.44181 0.51164 0.27099 0.0
H189 H 0.47757 0.5861 0.31981 0.0
C190 C 0.51198 0.58292 0.27065 0.0
C191 C 0.50872 0.59558 0.29106 0.0
C192 C 0.48842 0.55252 0.26332 0.0
C193 C 0.46006 0.53504 0.27629 0.0
C194 C 0.45615 0.54763 0.29661 0.0
C195 C 0.48054 0.57747 0.30377 0.0
N196 N 0.4288 0.53138 0.31099 0.0
C197 C 0.40182 0.50145 0.3083 0.0
Eu198 Eu 0.49013 0.98817 0.99201 0.0
C199 C 0.56919 0.09451 0.06213 0.0
C200 C 0.62377 0.1046 0.05648 0.0
C201 C 0.6149 0.14695 0.06897 0.0
C202 C 0.58999 0.08397 0.05591 0.0
C203 C 0.58138 0.12588 0.06937 0.0
C204 C 0.63608 0.13633 0.06249 0.0
C205 C 0.52674 0.11228 0.0791 0.0
N206 N 0.53707 0.07344 0.0626 0.0
C207 C 0.51593 0.08139 0.07191 0.0
C208 C 0.55958 0.13478 0.07752 0.0
Eu209 Eu 0.51979 0.02194 0.04893 0.0
N210 N 0.57722 0.05313 0.05034 0.0
C211 C 0.59707 0.04087 0.04678 0.0
C212 C 0.64416 0.09252 0.05151 0.0
C213 C 0.63073 0.0604 0.04699 0.0
H214 H 0.49051 0.064 0.07314 0.0
H215 H 0.64627 0.05067 0.04354 0.0
H216 H 0.66193 0.15261 0.06277 0.0
H217 H 0.50976 0.11868 0.0859 0.0
H218 H 0.58724 0.01619 0.04311 0.0
H219 H 0.36261 0.95599 0.99274 0.0
H220 H 0.67023 0.1076 0.05165 0.0
H221 H 0.52361 0.94714 0.9721 0.0
H222 H 0.4215 0.99207 0.99453 0.0
H223 H 0.50656 0.8924 0.96048 0.0
H224 H 0.62473 0.17125 0.07421 0.0
H225 H 0.34088 0.89907 0.98571 0.0
H226 H 0.35162 0.85495 0.97668 0.0
H227 H 0.56795 0.15865 0.08324 0.0
H228 H 0.39075 0.83766 0.96774 0.0
N229 N 0.43324 0.95594 0.9891 0.0
C230 C 0.41247 0.96737 0.99132 0.0
C231 C 0.36682 0.91483 0.98644 0.0
C232 C 0.38828 0.9036 0.98285 0.0
C233 C 0.37899 0.94695 0.99035 0.0
C234 C 0.42182 0.92508 0.98412 0.0
H235 H 0.44853 0.85157 0.96126 0.0
N236 N 0.4758 0.93692 0.97968 0.0
C237 C 0.48867 0.89849 0.9658 0.0
C238 C 0.44377 0.91528 0.97919 0.0
C239 C 0.49824 0.92941 0.97229 0.0
C240 C 0.45589 0.87549 0.96631 0.0
C241 C 0.43292 0.88384 0.97274 0.0
O242 O 0.51585 1.00012 0.9599 0.0
O243 O 0.53035 0.02541 0.01224 0.0
O244 O 0.51057 0.05719 0.03013 0.0
O245 O 0.47925 0.02756 0.99937 0.0
O246 O 0.54368 0.00448 0.98773 0.0
O247 O 0.47429 0.00619 0.96393 0.0
O248 O 0.49652 0.01084 0.08202 0.0
O249 O 0.47839 0.98578 0.02866 0.0
O250 O 0.49209 0.95093 0.01318 0.0
O251 O 0.5301 0.9821 0.04012 0.0
O252 O 0.46728 0.00788 0.05381 0.0
O253 O 0.53364 0.9993 0.07501 0.0
C254 C 0.55446 0.0266 1.00258 0.0
C255 C 0.48567 0.99521 0.92722 0.0
C256 C 0.49185 0.00142 0.88627 0.0
C257 C 0.5008 0.01416 0.90813 0.0
C258 C 0.4673 0.96972 0.88396 0.0
C259 C 0.4612 0.96378 0.9243 0.0
C260 C 0.45207 0.95119 0.9028 0.0
C261 C 0.49174 0.05279 0.0125 0.0
C262 C 0.49635 0.00784 0.9501 0.0
C263 C 0.39957 0.86202 0.9724 0.0
C264 C 0.3773 0.87187 0.97749 0.0
C265 C 0.45522 0.98665 0.03835 0.0
C266 C 0.52872 0.01202 0.11258 0.0
C267 C 0.51753 0.99234 0.13174 0.0
C268 C 0.5314 0.00401 0.15311 0.0
C269 C 0.55617 0.03578 0.15479 0.0
C270 C 0.5537 0.04334 0.11487 0.0
C271 C 0.56721 0.05513 0.13585 0.0
C272 C 0.51296 0.95504 0.02924 0.0
C273 C 0.5144 1.00004 0.09022 0.0
H274 H 0.51986 0.03843 0.91029 0.0
H275 H 0.45957 0.9593 0.86747 0.0
H276 H 0.44926 0.94892 0.93866 0.0
H277 H 0.43315 0.92688 0.90072 0.0
H278 H 0.49847 0.968 0.12992 0.0
H279 H 0.56687 0.04593 0.17087 0.0
H280 H 0.56274 0.05874 0.10045 0.0
H281 H 0.58631 0.07945 0.13746 0.0
Eu282 Eu 0.01993 0.50079 0.9996 0.0
C283 C 0.90035 0.45697 0.06343 0.0
C284 C 0.8847 0.49667 0.05856 0.0
C285 C 0.8441 0.44294 0.0683 0.0
C286 C 0.90852 0.48761 0.05835 0.0
C287 C 0.86817 0.43441 0.06894 0.0
C288 C 0.85235 0.47402 0.0631 0.0
C289 C 0.88643 0.3974 0.07702 0.0
N290 N 0.92421 0.44959 0.06404 0.0
C291 C 0.91799 0.42064 0.07151 0.0
C292 C 0.86132 0.40418 0.07547 0.0
Eu293 Eu 0.97682 0.48951 0.05341 0.0
N294 N 0.94001 0.50887 0.05408 0.0
C295 C 0.94962 0.54009 0.05139 0.0
C296 C 0.8942 0.52833 0.05463 0.0
C297 C 0.92688 0.5502 0.05133 0.0
H298 H 0.93728 0.4152 0.07265 0.0
H299 H 0.93458 0.57484 0.04861 0.0
H300 H 0.83366 0.48047 0.0631 0.0
H301 H 0.8815 0.37429 0.08243 0.0
H302 H 0.9747 0.55731 0.04865 0.0
H303 H 0.06229 0.41559 1.00133 0.0
H304 H 0.87663 0.53621 0.05453 0.0
H305 H 0.06021 0.57657 0.98331 0.0
H306 H 0.02178 0.43284 1.00079 0.0
H307 H 0.11689 0.61882 0.97694 0.0
H308 H 0.81918 0.42587 0.07227 0.0
H309 H 0.12065 0.45509 0.99932 0.0
H310 H 0.16411 0.51184 0.99489 0.0
H311 H 0.8369 0.38618 0.07982 0.0
H312 H 0.179 0.56718 0.98831 0.0
N313 N 0.05679 0.48172 0.99894 0.0
C314 C 0.04712 0.45034 0.99974 0.0
C315 C 0.10296 0.46282 0.99899 0.0
C316 C 0.1126 0.49483 0.99688 0.0
C317 C 0.07004 0.44044 1.00008 0.0
C318 C 0.08859 0.50363 0.99667 0.0
H319 H 0.16153 0.60723 0.98126 0.0
N320 N 0.07306 0.54198 0.99161 0.0
C321 C 0.11164 0.5953 0.98151 0.0
C322 C 0.09701 0.53474 0.99296 0.0
C323 C 0.07964 0.57139 0.98501 0.0
C324 C 0.13678 0.58868 0.98403 0.0
C325 C 0.1296 0.55797 0.98941 0.0
O326 O 0.01378 0.51515 0.96604 0.0
O327 O 0.97778 0.49898 0.01687 0.0
O328 O 0.94395 0.44853 0.03093 0.0
O329 O 0.98073 0.44889 1.00476 0.0
O330 O 0.99903 0.53332 0.99284 0.0
O331 O 0.00627 0.46815 0.97128 0.0
O332 O 0.98868 0.4781 0.08629 0.0
O333 O 0.01881 0.48986 0.03619 0.0
O334 O 0.05288 0.53972 0.02342 0.0
O335 O 0.01471 0.54137 0.04672 0.0
O336 O 0.99328 0.45391 0.05893 0.0
O337 O 0.99137 0.52307 0.08119 0.0
C338 C 0.9752 0.52028 1.00677 0.0
C339 C 0.02506 0.4914 0.93556 0.0
C340 C 0.02482 0.48444 0.89487 0.0
C341 C 0.00825 0.48239 0.91498 0.0
C342 C 0.05842 0.49619 0.89567 0.0
C343 C 0.0585 0.50292 0.93587 0.0
C344 C 0.07508 0.50542 0.91602 0.0
C345 C 0.95179 0.43517 0.01458 0.0
C346 C 0.00764 0.48866 0.95661 0.0
C347 C 0.15377 0.54961 0.99073 0.0
C348 C 0.14529 0.51809 0.99446 0.0
C349 C 0.01776 0.46607 0.04553 0.0
C350 C 0.97765 0.50048 0.11753 0.0
C351 C 0.99445 0.50222 0.13738 0.0
C352 C 0.97885 0.4964 0.15833 0.0
C353 C 0.94646 0.48929 0.15922 0.0
C354 C 0.94541 0.49365 0.11877 0.0
C355 C 0.92997 0.48819 0.13955 0.0
C356 C 0.04435 0.55428 0.03827 0.0
C357 C 0.99342 0.50409 0.09565 0.0
H358 H 0.98233 0.47318 0.91469 0.0
H359 H 0.07187 0.49833 0.88049 0.0
H360 H 0.0718 0.50994 0.95144 0.0
H361 H 0.10092 0.51441 0.91641 0.0
H362 H 0.01926 0.50715 0.13649 0.0
H363 H 0.93396 0.48466 0.17516 0.0
H364 H 0.93212 0.49227 0.10371 0.0
H365 H 0.90505 0.48278 0.14039 0.0
Eu366 Eu 0.51662 0.50021 0.04553 0.0
C367 C 0.4611 0.55229 0.97506 0.0
C368 C 0.40308 0.5221 0.98005 0.0
C369 C 0.42846 0.57691 0.96818 0.0
C370 C 0.43382 0.52459 0.98108 0.0
C371 C 0.45871 0.57855 0.96792 0.0
C372 C 0.40065 0.5487 0.97426 0.0
C373 C 0.5155 0.60462 0.95838 0.0
N374 N 0.4898 0.55284 0.97482 0.0
C375 C 0.51655 0.57789 0.96553 0.0
C376 C 0.48658 0.60518 0.95994 0.0
Eu377 Eu 0.49046 0.50743 0.98853 0.0
N378 N 0.43709 0.49928 0.98606 0.0
C379 C 0.41032 0.47005 0.98803 0.0
C380 C 0.37565 0.49262 0.98382 0.0
C381 C 0.37927 0.46634 0.98729 0.0
H382 H 0.539 0.57768 0.96422 0.0
H383 H 0.35819 0.44321 0.98949 0.0
H384 H 0.37729 0.54737 0.97365 0.0
H385 H 0.53699 0.62475 0.95165 0.0
H386 H 0.41271 0.4495 0.99068 0.0
H387 H 0.573 0.60415 0.09983 0.0
H388 H 0.35159 0.48968 0.98321 0.0
H389 H 0.54629 0.45106 0.03681 0.0
H390 H 0.52776 0.55636 0.08257 0.0
H391 H 0.59881 0.4532 0.03562 0.0
H392 H 0.42616 0.59694 0.963 0.0
H393 H 0.62955 0.61694 0.09319 0.0
H394 H 0.66764 0.59991 0.07768 0.0
H395 H 0.48578 0.62585 0.95428 0.0
H396 H 0.67469 0.55819 0.06007 0.0
N397 N 0.55862 0.54403 0.06502 0.0
C398 C 0.55243 0.56213 0.07945 0.0
C399 C 0.60982 0.59628 0.08539 0.0
C400 C 0.61566 0.57555 0.07271 0.0
C401 C 0.57794 0.58908 0.08925 0.0
C402 C 0.58909 0.54905 0.06292 0.0
H403 H 0.64893 0.50272 0.04514 0.0
N404 N 0.56606 0.49922 0.04624 0.0
C405 C 0.5976 0.47393 0.04037 0.0
C406 C 0.59296 0.52571 0.05316 0.0
C407 C 0.56775 0.47291 0.04093 0.0
C408 C 0.62583 0.50194 0.04566 0.0
C409 C 0.62367 0.52807 0.05275 0.0
O410 O 0.50749 0.45998 0.0668 0.0
O411 O 0.474 0.49109 0.02382 0.0
O412 O 0.5042 0.55246 1.00769 0.0
O413 O 0.53778 0.55208 0.0363 0.0
O414 O 0.47942 0.51443 0.05389 0.0
O415 O 0.49066 0.49104 0.07757 0.0
O416 O 0.51596 0.50914 0.95735 0.0
O417 O 0.5273 0.5019 1.0089 0.0
O418 O 0.50026 0.45463 0.02562 0.0
O419 O 0.46559 0.45587 0.99882 0.0
O420 O 0.5449 0.53706 0.98484 0.0
O421 O 0.46575 0.47476 0.96078 0.0
C422 C 0.4612 0.50259 0.03656 0.0
C423 C 0.5068 0.46811 0.10643 0.0
C424 C 0.50794 0.47951 0.14689 0.0
C425 C 0.49734 0.48022 0.12476 0.0
C426 C 0.52762 0.46593 0.15026 0.0
C427 C 0.52677 0.45514 0.11058 0.0
C428 C 0.537 0.45407 0.1323 0.0
C429 C 0.52579 0.5663 0.02384 0.0
C430 C 0.49493 0.4678 0.08323 0.0
C431 C 0.6508 0.55567 0.06062 0.0
C432 C 0.6468 0.57943 0.07063 0.0
C433 C 0.55297 0.52328 0.99978 0.0
C434 C 0.48419 0.49634 0.92453 0.0
C435 C 0.50141 0.49511 0.9056 0.0
C436 C 0.49657 0.5048 0.88426 0.0
C437 C 0.47387 0.51504 0.88218 0.0
C438 C 0.46188 0.50689 0.92186 0.0
C439 C 0.45669 0.516 0.90081 0.0
C440 C 0.47754 0.44075 1.0101 0.0
C441 C 0.49029 0.48784 0.94715 0.0
H442 H 0.48206 0.4904 0.12175 0.0
H443 H 0.53553 0.46401 0.16693 0.0
H444 H 0.53433 0.44548 0.09706 0.0
H445 H 0.55214 0.44375 0.13527 0.0
H446 H 0.51901 0.48743 0.90757 0.0
H447 H 0.46931 0.52228 0.86603 0.0
H448 H 0.44849 0.5082 0.93608 0.0
H449 H 0.43938 0.52403 0.89895 0.0
Eu450 Eu 0.16122 0.32108 0.32933 0.0
C451 C 0.23459 0.43266 0.39797 0.0
C452 C 0.29064 0.44613 0.39482 0.0
C453 C 0.27746 0.48648 0.40507 0.0
C454 C 0.25732 0.42386 0.39336 0.0
C455 C 0.24434 0.46391 0.40434 0.0
C456 C 0.30057 0.47761 0.40029 0.0
C457 C 0.18805 0.44765 0.41039 0.0
N458 N 0.20288 0.41025 0.39721 0.0
C459 C 0.17962 0.41697 0.40404 0.0
C460 C 0.22054 0.47134 0.41029 0.0
Eu461 Eu 0.19003 0.35911 0.38527 0.0
N462 N 0.24685 0.39324 0.3882 0.0
C463 C 0.26853 0.38293 0.38569 0.0
C464 C 0.31296 0.43598 0.39113 0.0
C465 C 0.30182 0.40415 0.3868 0.0
H466 H 0.15445 0.3988 0.40404 0.0
H467 H 0.31886 0.39594 0.38423 0.0
H468 H 0.32605 0.49511 0.4013 0.0
H469 H 0.16948 0.45301 0.41532 0.0
H470 H 0.26044 0.3585 0.3822 0.0
H471 H 0.0321 0.28212 0.32632 0.0
H472 H 0.33876 0.45237 0.39198 0.0
H473 H 0.19882 0.28195 0.31317 0.0
H474 H 0.09043 0.3207 0.32843 0.0
H475 H 0.18514 0.22711 0.30479 0.0
H476 H 0.28544 0.51068 0.40974 0.0
H477 H 0.01346 0.22525 0.32208 0.0
H478 H 0.02755 0.18255 0.31655 0.0
H479 H 0.22703 0.49508 0.41528 0.0
H480 H 0.0692 0.16757 0.31059 0.0
N481 N 0.10483 0.28607 0.32587 0.0
C482 C 0.08272 0.29603 0.3264 0.0
C483 C 0.03914 0.24212 0.32291 0.0
C484 C 0.06202 0.2323 0.32102 0.0
C485 C 0.04957 0.2742 0.32524 0.0
C486 C 0.09515 0.25522 0.32232 0.0
H487 H 0.12802 0.18409 0.30585 0.0
N488 N 0.15002 0.26979 0.31924 0.0
C489 C 0.16616 0.23231 0.30881 0.0
C490 C 0.11848 0.24679 0.31891 0.0
C491 C 0.17382 0.26331 0.31344 0.0
C492 C 0.13389 0.20808 0.30948 0.0
C493 C 0.10951 0.21522 0.31422 0.0
O494 O 0.18537 0.33163 0.29661 0.0
O495 O 0.20121 0.35973 0.34881 0.0
O496 O 0.18374 0.39326 0.363 0.0
O497 O 0.14754 0.35891 0.33609 0.0
O498 O 0.21508 0.33873 0.3248 0.0
O499 O 0.14477 0.3389 0.30142 0.0
O500 O 0.16447 0.34668 0.4175 0.0
O501 O 0.14916 0.32102 0.36567 0.0
O502 O 0.16502 0.28649 0.35278 0.0
O503 O 0.20386 0.32154 0.37779 0.0
O504 O 0.13716 0.34434 0.38935 0.0
O505 O 0.20535 0.33988 0.41289 0.0
C506 C 0.22561 0.36111 0.33942 0.0
C507 C 0.15397 0.3269 0.26447 0.0
C508 C 0.14866 0.33428 0.22411 0.0
C509 C 0.16084 0.34705 0.24562 0.0
C510 C 0.13028 0.30125 0.22185 0.0
C511 C 0.13544 0.29414 0.26155 0.0
C512 C 0.12385 0.28146 0.24037 0.0
C513 C 0.16265 0.38661 0.34646 0.0
C514 C 0.16598 0.33982 0.28715 0.0
C515 C 0.07659 0.19203 0.31393 0.0
C516 C 0.05288 0.20056 0.31733 0.0
C517 C 0.12567 0.32207 0.37466 0.0
C518 C 0.19497 0.35065 0.44983 0.0
C519 C 0.18246 0.33076 0.46885 0.0
C520 C 0.19348 0.34271 0.4907 0.0
C521 C 0.21667 0.37494 0.49301 0.0
C522 C 0.21819 0.38251 0.45278 0.0
C523 C 0.22885 0.39455 0.47424 0.0
C524 C 0.18705 0.29321 0.36859 0.0
C525 C 0.18365 0.33833 0.42697 0.0
H526 H 0.17491 0.37241 0.24777 0.0
H527 H 0.12081 0.29064 0.20563 0.0
H528 H 0.12995 0.27834 0.27568 0.0
H529 H 0.10963 0.25613 0.23829 0.0
H530 H 0.16466 0.30605 0.46659 0.0
H531 H 0.22526 0.38518 0.50944 0.0
H532 H 0.22804 0.39812 0.43848 0.0
H533 H 0.24666 0.41924 0.47636 0.0
Eu534 Eu 0.69387 0.83109 0.32293 0.0
C535 C 0.58297 0.79546 0.39137 0.0
C536 C 0.56847 0.83597 0.38623 0.0
C537 C 0.52755 0.78322 0.39783 0.0
C538 C 0.59162 0.82606 0.38559 0.0
C539 C 0.55104 0.7739 0.3981 0.0
C540 C 0.53625 0.8142 0.39189 0.0
C541 C 0.56863 0.73655 0.40693 0.0
N542 N 0.6063 0.78734 0.39173 0.0
C543 C 0.6 0.75885 0.40026 0.0
C544 C 0.54392 0.74395 0.40557 0.0
Eu545 Eu 0.65842 0.8257 0.37913 0.0
N546 N 0.62296 0.84651 0.38022 0.0
C547 C 0.6332 0.87772 0.37675 0.0
C548 C 0.57852 0.8676 0.38158 0.0
C549 C 0.61112 0.88864 0.37712 0.0
H550 H 0.61909 0.75307 0.40119 0.0
H551 H 0.61924 0.91325 0.37382 0.0
H552 H 0.51805 0.82129 0.39222 0.0
H553 H 0.56353 0.7137 0.41312 0.0
H554 H 0.65823 0.89424 0.3731 0.0
H555 H 0.73972 0.74871 0.32809 0.0
H556 H 0.56146 0.87611 0.38179 0.0
H557 H 0.72997 0.90414 0.30135 0.0
H558 H 0.69826 0.76465 0.32848 0.0
H559 H 0.78476 0.94564 0.28964 0.0
H560 H 0.5028 0.7669 0.40272 0.0
H561 H 0.79694 0.78827 0.32052 0.0
H562 H 0.83819 0.844 0.31025 0.0
H563 H 0.51967 0.72669 0.41086 0.0
H564 H 0.85048 0.89758 0.2998 0.0
N565 N 0.73163 0.81305 0.32174 0.0
C566 C 0.72305 0.7822 0.32506 0.0
C567 C 0.77881 0.79545 0.32066 0.0
C568 C 0.78718 0.82669 0.31608 0.0
C569 C 0.74653 0.77304 0.32488 0.0
C570 C 0.76269 0.83484 0.31663 0.0
H571 H 0.83065 0.93557 0.29177 0.0
N572 N 0.74514 0.87151 0.31048 0.0
C573 C 0.78087 0.92311 0.29565 0.0
C574 C 0.76967 0.86501 0.31081 0.0
C575 C 0.74992 0.89961 0.30219 0.0
C576 C 0.80672 0.91736 0.29693 0.0
C577 C 0.80123 0.88785 0.30422 0.0
O578 O 0.68191 0.84055 0.28946 0.0
O579 O 0.65398 0.83104 0.3424 0.0
O580 O 0.6232 0.78232 0.35911 0.0
O581 O 0.65714 0.77989 0.33193 0.0
O582 O 0.67198 0.86276 0.31647 0.0
O583 O 0.67782 0.79531 0.29659 0.0
O584 O 0.66907 0.81516 0.41271 0.0
O585 O 0.69798 0.82498 0.35976 0.0
O586 O 0.72982 0.87265 0.34314 0.0
O587 O 0.69759 0.87701 0.37069 0.0
O588 O 0.67846 0.79271 0.38541 0.0
O589 O 0.67704 0.8618 0.40534 0.0
C590 C 0.65017 0.8514 0.33194 0.0
C591 C 0.69239 0.81533 0.25966 0.0
C592 C 0.69007 0.80876 0.21892 0.0
C593 C 0.6747 0.80729 0.23947 0.0
C594 C 0.72342 0.81915 0.21885 0.0
C595 C 0.72547 0.82515 0.25912 0.0
C596 C 0.74092 0.82727 0.23883 0.0
C597 C 0.62936 0.76719 0.34311 0.0
C598 C 0.67642 0.81365 0.2812 0.0
C599 C 0.826 0.88025 0.30458 0.0
C600 C 0.81899 0.84974 0.31052 0.0
C601 C 0.70066 0.80387 0.37018 0.0
C602 C 0.66292 0.84332 0.44264 0.0
C603 C 0.6822 0.8532 0.46214 0.0
C604 C 0.66847 0.85298 0.48323 0.0
C605 C 0.63506 0.84245 0.48426 0.0
C606 C 0.62991 0.83349 0.44421 0.0
C607 C 0.6161 0.833 0.4649 0.0
C608 C 0.72512 0.88848 0.35922 0.0
C609 C 0.67719 0.84292 0.42078 0.0
H610 H 0.64901 0.79925 0.23983 0.0
H611 H 0.73598 0.82094 0.2033 0.0
H612 H 0.73937 0.83108 0.27435 0.0
H613 H 0.76653 0.83505 0.23861 0.0
H614 H 0.70782 0.86123 0.4608 0.0
H615 H 0.62332 0.84101 0.50012 0.0
H616 H 0.61478 0.82606 0.42948 0.0
H617 H 0.59049 0.82504 0.46597 0.0
Eu618 Eu 0.1895 0.83041 0.37446 0.0
C619 C 0.12825 0.8815 0.30551 0.0
C620 C 0.07088 0.84486 0.30914 0.0
C621 C 0.08974 0.89948 0.29899 0.0
C622 C 0.10327 0.85169 0.31053 0.0
C623 C 0.12178 0.90547 0.29887 0.0
C624 C 0.0643 0.86919 0.30417 0.0
C625 C 0.17843 0.93789 0.28959 0.0
N626 N 0.15876 0.88621 0.30517 0.0
C627 C 0.18356 0.91331 0.29633 0.0
C628 C 0.14752 0.9342 0.29131 0.0
Eu629 Eu 0.16627 0.84446 0.318 0.0
N630 N 0.11056 0.82868 0.31467 0.0
C631 C 0.08657 0.79781 0.31522 0.0
C632 C 0.04612 0.81353 0.31162 0.0
C633 C 0.05403 0.78981 0.31413 0.0
H634 H 0.20756 0.91633 0.29521 0.0
H635 H 0.0351 0.76536 0.31535 0.0
H636 H 0.03959 0.86451 0.30334 0.0
H637 H 0.19834 0.95968 0.28319 0.0
H638 H 0.09226 0.77923 0.31731 0.0
H639 H 0.31855 0.91834 0.37726 0.0
H640 H 0.02092 0.80728 0.31071 0.0
H641 H 0.15244 0.75522 0.39151 0.0
H642 H 0.26037 0.89956 0.37398 0.0
H643 H 0.16649 0.71452 0.40192 0.0
H644 H 0.08429 0.91771 0.29425 0.0
H645 H 0.33757 0.88038 0.38411 0.0
H646 H 0.32393 0.82453 0.39169 0.0
H647 H 0.14357 0.95321 0.286 0.0
H648 H 0.28259 0.76904 0.39831 0.0
N649 N 0.24608 0.85108 0.37847 0.0
C650 C 0.26806 0.8826 0.37711 0.0
C651 C 0.31187 0.87193 0.38275 0.0
C652 C 0.28917 0.83988 0.38531 0.0
C653 C 0.30122 0.89343 0.37893 0.0
C654 C 0.256 0.8301 0.38324 0.0
H655 H 0.22384 0.72787 0.40241 0.0
N656 N 0.20125 0.79078 0.38569 0.0
C657 C 0.18539 0.73815 0.39766 0.0
C658 C 0.23285 0.79893 0.38685 0.0
C659 C 0.17753 0.76122 0.39183 0.0
C660 C 0.21778 0.74575 0.39784 0.0
C661 C 0.24204 0.77659 0.39277 0.0
O662 O 0.16377 0.81479 0.40652 0.0
O663 O 0.1511 0.83326 0.35432 0.0
O664 O 0.17685 0.88735 0.33865 0.0
O665 O 0.20397 0.88215 0.36977 0.0
O666 O 0.13594 0.79589 0.37671 0.0
O667 O 0.20334 0.86259 0.40304 0.0
O668 O 0.19259 0.85488 0.28609 0.0
O669 O 0.20355 0.8409 0.33849 0.0
O670 O 0.18195 0.7901 0.35179 0.0
O671 O 0.14781 0.79228 0.3247 0.0
O672 O 0.22092 0.87656 0.31515 0.0
O673 O 0.14793 0.81104 0.28997 0.0
C674 C 0.12634 0.80951 0.36263 0.0
C675 C 0.19351 0.83986 0.4393 0.0
C676 C 0.19233 0.84622 0.48007 0.0
C677 C 0.18084 0.84706 0.45835 0.0
C678 C 0.21628 0.83759 0.4823 0.0
C679 C 0.21742 0.83146 0.44205 0.0
C680 C 0.22863 0.83025 0.46344 0.0
C681 C 0.19422 0.89823 0.35723 0.0
C682 C 0.18201 0.84156 0.41664 0.0
C683 C 0.27503 0.78592 0.394 0.0
C684 C 0.29856 0.81751 0.39026 0.0
C685 C 0.2293 0.86283 0.33002 0.0
C686 C 0.16116 0.83306 0.25342 0.0
C687 C 0.17279 0.82497 0.23416 0.0
C688 C 0.16288 0.82838 0.21243 0.0
C689 C 0.14181 0.84064 0.21046 0.0
C690 C 0.13999 0.84492 0.25082 0.0
C691 C 0.13054 0.8488 0.22947 0.0
C692 C 0.16062 0.7773 0.33531 0.0
C693 C 0.17104 0.82922 0.27619 0.0
H694 H 0.16258 0.85386 0.45622 0.0
H695 H 0.22531 0.83622 0.4987 0.0
H696 H 0.22748 0.82594 0.42767 0.0
H697 H 0.24703 0.82365 0.46543 0.0
H698 H 0.18895 0.81555 0.23612 0.0
H699 H 0.13417 0.84419 0.19412 0.0
H700 H 0.13072 0.85114 0.2653 0.0
H701 H 0.11432 0.85814 0.22764 0.0
Eu702 Eu 0.83069 0.65899 0.66083 0.0
C703 C 0.88719 0.76758 0.73134 0.0
C704 C 0.94524 0.78944 0.73165 0.0
C705 C 0.92263 0.82341 0.73898 0.0
C706 C 0.91369 0.7637 0.72864 0.0
C707 C 0.89127 0.79734 0.73702 0.0
C708 C 0.94961 0.81949 0.73628 0.0
C709 C 0.83313 0.77281 0.73994 0.0
N710 N 0.85729 0.74184 0.72933 0.0
C711 C 0.83034 0.74379 0.73434 0.0
C712 C 0.8637 0.79979 0.74103 0.0
Eu713 Eu 0.8543 0.69357 0.7187 0.0
N714 N 0.90851 0.73428 0.72452 0.0
C715 C 0.93366 0.72848 0.7252 0.0
C716 C 0.97134 0.78398 0.73074 0.0
C717 C 0.96545 0.75322 0.72794 0.0
H718 H 0.80661 0.72319 0.73345 0.0
H719 H 0.98536 0.74856 0.72782 0.0
H720 H 0.97365 0.8396 0.73843 0.0
H721 H 0.81167 0.77435 0.7434 0.0
H722 H 0.92941 0.70479 0.72309 0.0
H723 H 0.70189 0.62377 0.65984 0.0
H724 H 0.99595 0.8031 0.7329 0.0
H725 H 0.86539 0.617 0.64272 0.0
H726 H 0.76001 0.6611 0.66102 0.0
H727 H 0.8488 0.56154 0.6341 0.0
H728 H 0.92629 0.84656 0.74312 0.0
H729 H 0.68175 0.56672 0.65554 0.0
H730 H 0.6938 0.52307 0.64965 0.0
H731 H 0.86579 0.82224 0.74542 0.0
H732 H 0.73363 0.50609 0.64299 0.0
N733 N 0.77376 0.62583 0.65808 0.0
C734 C 0.75213 0.63645 0.65916 0.0
C735 C 0.70758 0.58308 0.65604 0.0
C736 C 0.72974 0.57245 0.6537 0.0
C737 C 0.71885 0.61525 0.65845 0.0
C738 C 0.76319 0.59468 0.65462 0.0
H739 H 0.79122 0.52022 0.63691 0.0
N740 N 0.81776 0.60682 0.65135 0.0
C741 C 0.83087 0.56773 0.63911 0.0
C742 C 0.78573 0.58492 0.65127 0.0
C743 C 0.84013 0.59905 0.64395 0.0
C744 C 0.79836 0.54448 0.64076 0.0
C745 C 0.77525 0.553 0.64637 0.0
O746 O 0.85767 0.66461 0.62992 0.0
O747 O 0.871 0.68941 0.68466 0.0
O748 O 0.85041 0.72828 0.69541 0.0
O749 O 0.81469 0.69492 0.66803 0.0
O750 O 0.87809 0.70287 0.65176 0.0
O751 O 0.81564 0.67092 0.62921 0.0
O752 O 0.82645 0.67551 0.74989 0.0
O753 O 0.81711 0.65477 0.69715 0.0
O754 O 0.84726 0.62966 0.68101 0.0
O755 O 0.87553 0.66175 0.71157 0.0
O756 O 0.79982 0.67253 0.72114 0.0
O757 O 0.87309 0.67923 0.74722 0.0
C758 C 0.89027 0.71059 0.67139 0.0
C759 C 0.83087 0.65662 0.59479 0.0
C760 C 0.83061 0.6618 0.55367 0.0
C761 C 0.83817 0.67572 0.57529 0.0
C762 C 0.8167 0.62885 0.552 0.0
C763 C 0.8164 0.62383 0.5924 0.0
C764 C 0.80971 0.61013 0.57116 0.0
C765 C 0.83019 0.7225 0.67847 0.0
C766 C 0.83894 0.67094 0.6175 0.0
C767 C 0.74205 0.53075 0.64641 0.0
C768 C 0.71937 0.54044 0.65013 0.0
C769 C 0.79141 0.6513 0.70586 0.0
C770 C 0.85668 0.68563 0.78337 0.0
C771 C 0.84607 0.66556 0.80238 0.0
C772 C 0.85464 0.67827 0.82428 0.0
C773 C 0.87336 0.71126 0.82671 0.0
C774 C 0.87529 0.71836 0.78642 0.0
C775 C 0.88347 0.73103 0.80796 0.0
C776 C 0.86594 0.63617 0.69903 0.0
C777 C 0.84873 0.67259 0.76038 0.0
H778 H 0.84888 0.70105 0.57695 0.0
H779 H 0.81085 0.61743 0.53573 0.0
H780 H 0.81023 0.6087 0.60691 0.0
H781 H 0.79873 0.58478 0.56953 0.0
H782 H 0.83179 0.64023 0.8001 0.0
H783 H 0.87995 0.72187 0.84322 0.0
H784 H 0.8836 0.73412 0.77214 0.0
H785 H 0.8978 0.75635 0.81013 0.0
Eu786 Eu 0.36303 0.17942 0.65714 0.0
C787 C 0.24348 0.12385 0.72015 0.0
C788 C 0.22591 0.16249 0.71818 0.0
C789 C 0.18646 0.1072 0.72446 0.0
C790 C 0.25068 0.15475 0.71719 0.0
C791 C 0.21141 0.09985 0.72442 0.0
C792 C 0.1937 0.13846 0.72132 0.0
C793 C 0.23152 0.06381 0.73055 0.0
N794 N 0.26816 0.11761 0.72026 0.0
C795 C 0.26293 0.08848 0.72639 0.0
C796 C 0.20556 0.06941 0.72924 0.0
Eu797 Eu 0.32041 0.16019 0.71201 0.0
N798 N 0.28205 0.1774 0.71414 0.0
C799 C 0.29059 0.20852 0.71347 0.0
C800 C 0.23435 0.19422 0.71636 0.0
C801 C 0.26688 0.21736 0.7143 0.0
H802 H 0.28302 0.08412 0.72728 0.0
H803 H 0.2737 0.24201 0.7132 0.0
H804 H 0.1743 0.14391 0.72186 0.0
H805 H 0.22734 0.04054 0.73475 0.0
H806 H 0.31559 0.22664 0.71167 0.0
H807 H 0.41997 0.10612 0.65687 0.0
H808 H 0.21603 0.20114 0.71692 0.0
H809 H 0.39323 0.25268 0.63729 0.0
H810 H 0.37481 0.11681 0.65818 0.0
H811 H 0.44633 0.29838 0.62702 0.0
H812 H 0.16161 0.08903 0.72746 0.0
H813 H 0.47607 0.15009 0.652 0.0
H814 H 0.51371 0.2079 0.64499 0.0
H815 H 0.18125 0.05031 0.73257 0.0
H816 H 0.52099 0.26044 0.63695 0.0
N817 N 0.40484 0.1666 0.65485 0.0
C818 C 0.39904 0.1363 0.65599 0.0
C819 C 0.45629 0.15497 0.65261 0.0
C820 C 0.46187 0.18572 0.64997 0.0
C821 C 0.42465 0.13009 0.65527 0.0
C822 C 0.43526 0.19079 0.65103 0.0
H823 H 0.4959 0.29431 0.62977 0.0
N824 N 0.41288 0.22366 0.64642 0.0
C825 C 0.44478 0.27663 0.63268 0.0
C826 C 0.43943 0.22033 0.64672 0.0
C827 C 0.41479 0.25075 0.63846 0.0
C828 C 0.47271 0.27428 0.63434 0.0
C829 C 0.47018 0.24565 0.64096 0.0
O830 O 0.34842 0.1899 0.62491 0.0
O831 O 0.31958 0.17203 0.67606 0.0
O832 O 0.29046 0.11959 0.68816 0.0
O833 O 0.32997 0.12627 0.66221 0.0
O834 O 0.33805 0.20861 0.65339 0.0
O835 O 0.35168 0.1477 0.62842 0.0
O836 O 0.32885 0.14429 0.74434 0.0
O837 O 0.36434 0.1676 0.69342 0.0
O838 O 0.39312 0.22162 0.67939 0.0
O839 O 0.35815 0.21303 0.70968 0.0
O840 O 0.34344 0.12958 0.71521 0.0
O841 O 0.33259 0.19011 0.74179 0.0
C842 C 0.31489 0.19301 0.66746 0.0
C843 C 0.36222 0.17156 0.59252 0.0
C844 C 0.35848 0.16528 0.55166 0.0
C845 C 0.34343 0.15971 0.57289 0.0
C846 C 0.39245 0.18348 0.55044 0.0
C847 C 0.39601 0.18925 0.59079 0.0
C848 C 0.41099 0.19532 0.56986 0.0
C849 C 0.30104 0.10911 0.67157 0.0
C850 C 0.34652 0.16552 0.6147 0.0
C851 C 0.49708 0.24118 0.64106 0.0
C852 C 0.49293 0.21126 0.64561 0.0
C853 C 0.36753 0.14552 0.70186 0.0
C854 C 0.31645 0.1639 0.77681 0.0
C855 C 0.3342 0.1738 0.79698 0.0
C856 C 0.31817 0.16823 0.81787 0.0
C857 C 0.28407 0.1524 0.81804 0.0
C858 C 0.2826 0.14864 0.77754 0.0
C859 C 0.26655 0.14288 0.79803 0.0
C860 C 0.38509 0.23082 0.69804 0.0
C861 C 0.33339 0.16935 0.75516 0.0
H862 H 0.31731 0.14564 0.57421 0.0
H863 H 0.40475 0.18858 0.53439 0.0
H864 H 0.41085 0.19834 0.6056 0.0
H865 H 0.4371 0.20915 0.56869 0.0
H866 H 0.36041 0.18605 0.79631 0.0
H867 H 0.27077 0.14689 0.83367 0.0
H868 H 0.26855 0.14104 0.7623 0.0
H869 H 0.24036 0.13079 0.79844 0.0
Eu870 Eu 0.85615 0.17257 0.70612 0.0
C871 C 0.7906 0.2217 0.63716 0.0
C872 C 0.73366 0.18339 0.64079 0.0
C873 C 0.75035 0.23724 0.62976 0.0
C874 C 0.76646 0.19151 0.64223 0.0
C875 C 0.78287 0.24476 0.6303 0.0
C876 C 0.72576 0.20659 0.63504 0.0
C877 C 0.8397 0.27992 0.623 0.0
N878 N 0.82166 0.22803 0.63767 0.0
C879 C 0.84606 0.25618 0.62982 0.0
C880 C 0.80799 0.27435 0.62354 0.0
Eu881 Eu 0.83134 0.18764 0.65056 0.0
N882 N 0.775 0.16969 0.64757 0.0
C883 C 0.75175 0.1387 0.65004 0.0
C884 C 0.70979 0.15204 0.64465 0.0
C885 C 0.7189 0.12952 0.64899 0.0
H886 H 0.87061 0.2606 0.62931 0.0
H887 H 0.70064 0.10508 0.65161 0.0
H888 H 0.70073 0.20088 0.63408 0.0
H889 H 0.85923 0.30246 0.61731 0.0
H890 H 0.75819 0.12094 0.65355 0.0
H891 H 0.98552 0.25808 0.71092 0.0
H892 H 0.68433 0.14486 0.64383 0.0
H893 H 0.81759 0.09602 0.72053 0.0
H894 H 0.92733 0.24065 0.70882 0.0
H895 H 0.8306 0.05357 0.7273 0.0
H896 H 0.74392 0.25471 0.62476 0.0
H897 H 1.00341 0.2186 0.7132 0.0
H898 H 0.98858 0.16168 0.71648 0.0
H899 H 0.80308 0.29271 0.61814 0.0
H900 H 0.94642 0.10597 0.7209 0.0
N901 N 0.91236 0.19175 0.70947 0.0
C902 C 0.93476 0.22317 0.70999 0.0
C903 C 0.97781 0.2108 0.71236 0.0
C904 C 0.95461 0.17867 0.71317 0.0
C905 C 0.9678 0.23315 0.71114 0.0
C906 C 0.9216 0.16977 0.71191 0.0
H907 H 0.88745 0.06549 0.72534 0.0
N908 N 0.86647 0.13104 0.71428 0.0
C909 C 0.84975 0.07731 0.72358 0.0
C910 C 0.89793 0.13844 0.71432 0.0
C911 C 0.84246 0.10132 0.71985 0.0
C912 C 0.88187 0.08412 0.72238 0.0
C913 C 0.90651 0.11511 0.71814 0.0
O914 O 0.83109 0.15596 0.73826 0.0
O915 O 0.81849 0.17684 0.68686 0.0
O916 O 0.84201 0.23004 0.67184 0.0
O917 O 0.87006 0.2245 0.70244 0.0
O918 O 0.80166 0.14005 0.7094 0.0
O919 O 0.87302 0.20266 0.73598 0.0
O920 O 0.85975 0.19852 0.61962 0.0
O921 O 0.87035 0.1855 0.67022 0.0
O922 O 0.85054 0.13446 0.68193 0.0
O923 O 0.81369 0.13541 0.65692 0.0
O924 O 0.88478 0.22299 0.64829 0.0
O925 O 0.81382 0.15554 0.62177 0.0
C926 C 0.79303 0.15483 0.69559 0.0
C927 C 0.86268 0.17643 0.77107 0.0
C928 C 0.86678 0.18235 0.81201 0.0
C929 C 0.85522 0.18666 0.79122 0.0
C930 C 0.88517 0.16708 0.81228 0.0
C931 C 0.88121 0.16148 0.77191 0.0
C932 C 0.89221 0.15671 0.7924 0.0
C933 C 0.85996 0.24071 0.69024 0.0
C934 C 0.85121 0.18137 0.74923 0.0
C935 C 0.93933 0.12361 0.71828 0.0
C936 C 0.96334 0.15534 0.71578 0.0
C937 C 0.89486 0.20974 0.66233 0.0
C938 C 0.83116 0.17885 0.58578 0.0
C939 C 0.84749 0.17451 0.56762 0.0
C940 C 0.84153 0.18015 0.54532 0.0
C941 C 0.81903 0.19038 0.54169 0.0
C942 C 0.80881 0.18891 0.58164 0.0
C943 C 0.80283 0.19463 0.5597 0.0
C944 C 0.82848 0.12129 0.66601 0.0
C945 C 0.83834 0.17365 0.60895 0.0
H946 H 0.84117 0.19853 0.79066 0.0
H947 H 0.89413 0.16316 0.82796 0.0
H948 H 0.88721 0.1535 0.75675 0.0
H949 H 0.90644 0.14506 0.79287 0.0
H950 H 0.86456 0.16649 0.5709 0.0
H951 H 0.81424 0.1956 0.52492 0.0
H952 H 0.7961 0.19246 0.59536 0.0
H953 H 0.78567 0.20259 0.55663 0.0
H954 H 0.31202 0.89485 0.06948 0.0
H955 H 0.33844 0.82474 0.05369 0.0
H956 H 0.39109 0.8659 0.03964 0.0
H957 H 0.43139 0.92264 0.03443 0.0
H958 H 0.40376 0.99217 0.04932 0.0
H959 H 0.35007 0.95069 0.06094 0.0
C960 C 0.32936 0.88864 0.063 0.0
C961 C 0.32149 0.85683 0.06296 0.0
C962 C 0.35943 0.91239 0.05468 0.0
C963 C 0.34397 0.84908 0.05404 0.0
C964 C 0.3741 0.87261 0.04601 0.0
C965 C 0.41329 0.92857 0.03964 0.0
C966 C 0.42141 0.96045 0.04076 0.0
C967 C 0.38232 0.90445 0.04649 0.0
C968 C 0.39795 0.96778 0.04812 0.0
C969 C 0.3673 0.94409 0.0549 0.0
H970 H 0.11155 0.41766 0.07803 0.0
H971 H 0.1838 0.51456 0.06588 0.0
H972 H 0.14192 0.52582 0.05249 0.0
H973 H 0.08375 0.50837 0.04587 0.0
H974 H 0.01261 0.41041 0.05594 0.0
H975 H 0.05468 0.39938 0.06844 0.0
C976 C 0.11806 0.44125 0.07253 0.0
C977 C 0.15069 0.46533 0.0733 0.0
C978 C 0.09394 0.44737 0.06438 0.0
C979 C 0.15883 0.49565 0.06563 0.0
C980 C 0.13487 0.5021 0.05797 0.0
C981 C 0.07765 0.48451 0.05028 0.0
C982 C 0.04505 0.46011 0.04961 0.0
C983 C 0.10222 0.47819 0.05739 0.0
C984 C 0.0375 0.42952 0.05605 0.0
C985 C 0.06156 0.42319 0.06331 0.0
H986 H 0.57679 0.71138 0.03756 0.0
H987 H 0.52548 0.67607 0.10011 0.0
H988 H 0.50923 0.62214 0.08894 0.0
H989 H 0.50943 0.58499 0.06138 0.0
H990 H 0.56161 0.61971 0.99932 0.0
H991 H 0.57685 0.67392 1.00984 0.0
C992 C 0.56176 0.69183 0.04862 0.0
C993 C 0.5524 0.69774 0.06966 0.0
C994 C 0.55257 0.66086 0.04211 0.0
C995 C 0.5333 0.67219 0.08395 0.0
C996 C 0.52388 0.64135 0.07754 0.0
C997 C 0.5246 0.60457 0.0504 0.0
C998 C 0.53487 0.59876 0.02983 0.0
C999 C 0.53353 0.63545 0.05675 0.0
C1000 C 0.55347 0.6239 0.01523 0.0
C1001 C 0.56226 0.65479 0.02131 0.0
H1002 H 0.82785 0.30745 0.98569 0.0
H1003 H 0.89999 0.29637 0.94951 0.0
H1004 H 0.94224 0.34725 0.96354 0.0
H1005 H 0.95909 0.39486 0.98647 0.0
H1006 H 0.88697 0.40465 0.02377 0.0
H1007 H 0.84478 0.35406 1.00944 0.0
C1008 C 0.85282 0.31586 0.98103 0.0
C1009 C 0.86043 0.29783 0.9664 0.0
C1010 C 0.87723 0.34495 0.98955 0.0
C1011 C 0.89306 0.30975 0.96035 0.0
C1012 C 0.9174 0.33882 0.96855 0.0
C1013 C 0.93417 0.38593 0.99153 0.0
C1014 C 0.92643 0.40368 1.00633 0.0
C1015 C 0.9098 0.35664 0.98319 0.0
C1016 C 0.89389 0.39154 0.01265 0.0
C1017 C 0.8696 0.36259 1.00434 0.0
H1018 H 0.6708 0.5044 0.97296 0.0
H1019 H 0.72042 0.60595 0.97529 0.0
H1020 H 0.67123 0.60431 0.98912 0.0
H1021 H 0.61306 0.57411 0.99849 0.0
H1022 H 0.56167 0.47297 0.99223 0.0
H1023 H 0.61211 0.47406 0.98219 0.0
C1024 C 0.67078 0.52609 0.97668 0.0
C1025 C 0.69924 0.5553 0.97317 0.0
C1026 C 0.64201 0.52495 0.98403 0.0
C1027 C 0.69883 0.58325 0.97781 0.0
C1028 C 0.6707 0.58229 0.98574 0.0
C1029 C 0.61316 0.5523 0.99542 0.0
C1030 C 0.58399 0.52336 0.9972 0.0
C1031 C 0.64204 0.55331 0.98871 0.0
C1032 C 0.58408 0.49539 0.99205 0.0
C1033 C 0.61287 0.49608 0.98599 0.0
H1034 H 0.44004 0.14761 1.00064 0.0
H1035 H 0.47147 0.14788 0.93247 0.0
H1036 H 0.4887 0.11054 0.94307 0.0
H1037 H 0.49503 0.07763 0.97162 0.0
H1038 H 0.4695 0.08193 0.04035 0.0
H1039 H 0.4512 0.11892 0.02977 0.0
C1040 C 0.4513 0.14026 0.98807 0.0
C1041 C 0.45397 0.15069 0.96562 0.0
C1042 C 0.46264 0.11982 0.99446 0.0
C1043 C 0.46803 0.13983 0.94971 0.0
C1044 C 0.47835 0.11869 0.9558 0.0
C1045 C 0.48569 0.08695 0.98427 0.0
C1046 C 0.48363 0.07729 1.00672 0.0
C1047 C 0.4757 0.10847 0.97809 0.0
C1048 C 0.47171 0.08948 0.02304 0.0
C1049 C 0.46099 0.11036 0.01694 0.0
H1050 H 0.67543 0.16346 0.98953 0.0
H1051 H 0.71836 0.10953 0.96595 0.0
H1052 H 0.66724 0.06022 0.97269 0.0
H1053 H 0.6105 0.03253 0.98632 0.0
H1054 H 0.56787 0.08721 1.00914 0.0
H1055 H 0.6185 0.13601 1.00194 0.0
C1056 C 0.67333 0.14086 0.98557 0.0
C1057 C 0.70024 0.1399 0.97697 0.0
C1058 C 0.64404 0.11277 0.98971 0.0
C1059 C 0.69766 0.11066 0.97227 0.0
C1060 C 0.66854 0.08255 0.97627 0.0
C1061 C 0.61244 0.05518 0.98977 0.0
C1062 C 0.58573 0.05618 0.99893 0.0
C1063 C 0.64162 0.08329 0.98519 0.0
C1064 C 0.58829 0.08569 1.00279 0.0
C1065 C 0.6172 0.11366 0.99846 0.0
H1066 H 0.8322 0.49438 0.99163 0.0
H1067 H 0.88363 0.59282 0.97373 0.0
H1068 H 0.93555 0.5949 0.98047 0.0
H1069 H 0.96633 0.56861 0.99253 0.0
H1070 H 0.91378 0.46981 1.00969 0.0
H1071 H 0.86268 0.46791 1.00236 0.0
C1072 C 0.85485 0.51617 0.98893 0.0
C1073 C 0.85425 0.54333 0.98194 0.0
C1074 C 0.88447 0.51715 0.99302 0.0
C1075 C 0.88361 0.57154 0.97884 0.0
C1076 C 0.91325 0.57273 0.98282 0.0
C1077 C 0.94364 0.54673 0.99469 0.0
C1078 C 0.94403 0.51963 1.00243 0.0
C1079 C 0.91402 0.54572 0.9901 0.0
C1080 C 0.91441 0.49129 1.00459 0.0
C1081 C 0.88503 0.49009 1.00015 0.0
H1082 H 0.40733 0.2976 0.9804 0.0
H1083 H 0.50222 0.31101 0.99337 0.0
H1084 H 0.52196 0.36615 1.0037 0.0
H1085 H 0.51158 0.40996 1.01022 0.0
H1086 H 0.41708 0.3972 0.99626 0.0
H1087 H 0.39764 0.34244 0.98525 0.0
C1088 C 0.43242 0.31289 0.98513 0.0
C1089 C 0.45353 0.30075 0.98595 0.0
C1090 C 0.44345 0.34445 0.99118 0.0
C1091 C 0.48582 0.32028 0.99238 0.0
C1092 C 0.49699 0.35164 0.99845 0.0
C1093 C 0.48666 0.39506 1.00501 0.0
C1094 C 0.46563 0.40737 1.0044 0.0
C1095 C 0.4759 0.36385 0.99823 0.0
C1096 C 0.43364 0.38812 0.99699 0.0
C1097 C 0.42254 0.35685 0.99064 0.0
H1098 H 0.13215 0.69819 0.06564 0.0
H1099 H 0.20706 0.67838 0.04588 0.0
H1100 H 0.16656 0.62324 0.03862 0.0
H1101 H 0.10979 0.58141 0.03595 0.0
H1102 H 0.03426 0.60027 0.05616 0.0
H1103 H 0.07483 0.65471 0.06541 0.0
C1104 C 0.13948 0.68153 0.06021 0.0
C1105 C 0.17243 0.69202 0.0565 0.0
C1106 C 0.11593 0.64977 0.05596 0.0
C1107 C 0.18179 0.67055 0.04911 0.0
C1108 C 0.15865 0.63912 0.04482 0.0
C1109 C 0.10216 0.5974 0.04239 0.0
C1110 C 0.06895 0.58682 0.04508 0.0
C1111 C 0.12562 0.62858 0.04783 0.0
C1112 C 0.05961 0.60776 0.05385 0.0
C1113 C 0.08283 0.63895 0.05912 0.0
H1114 H 0.30959 0.43352 0.05312 0.0
H1115 H 0.33289 0.52906 0.06664 0.0
H1116 H 0.38997 0.54806 0.05809 0.0
H1117 H 0.43342 0.53764 0.04622 0.0
H1118 H 0.41102 0.442 0.03454 0.0
H1119 H 0.35373 0.42284 0.04271 0.0
C1120 C 0.32735 0.4584 0.05456 0.0
C1121 C 0.31725 0.47987 0.06088 0.0
C1122 C 0.36022 0.46916 0.04949 0.0
C1123 C 0.34027 0.51209 0.06223 0.0
C1124 C 0.37285 0.52298 0.05713 0.0
C1125 C 0.4158 0.51266 0.0451 0.0
C1126 C 0.4261 0.49139 0.03871 0.0
C1127 C 0.38309 0.5018 0.05052 0.0
C1128 C 0.4034 0.45894 0.03843 0.0
C1129 C 0.37071 0.44797 0.04338 0.0
H1130 H 0.51507 0.82771 0.03985 0.0
H1131 H 0.6038 0.88875 0.07471 0.0
H1132 H 0.59425 0.93341 0.06989 0.0
H1133 H 0.562 0.95543 0.05351 0.0
H1134 H 0.4736 0.89341 0.01807 0.0
H1135 H 0.48169 0.8489 0.02524 0.0
C1136 C 0.53199 0.85075 0.04667 0.0
C1137 C 0.55987 0.8552 0.05773 0.0
C1138 C 0.52658 0.87616 0.04344 0.0
C1139 C 0.582 0.88499 0.06631 0.0
C1140 C 0.57661 0.91045 0.06343 0.0
C1141 C 0.54441 0.93215 0.04749 0.0
C1142 C 0.51752 0.92798 0.0349 0.0
C1143 C 0.5492 0.90642 0.05168 0.0
C1144 C 0.49489 0.89755 0.02735 0.0
C1145 C 0.49936 0.87195 0.03156 0.0
H1146 H 0.97904 0.23329 0.39966 0.0
H1147 H 0.00584 0.16173 0.39195 0.0
H1148 H 0.06025 0.20173 0.38 0.0
H1149 H 0.10151 0.25793 0.3738 0.0
H1150 H 0.07396 0.32899 0.38125 0.0
H1151 H 0.01887 0.28859 0.3911 0.0
C1152 C 0.99687 0.2265 0.39551 0.0
C1153 C 0.98843 0.19459 0.39698 0.0
C1154 C 0.02806 0.24961 0.38846 0.0
C1155 C 0.01167 0.18613 0.39103 0.0
C1156 C 0.04283 0.20901 0.3842 0.0
C1157 C 0.08318 0.26437 0.37705 0.0
C1158 C 0.09161 0.29635 0.37645 0.0
C1159 C 0.05145 0.24092 0.38301 0.0
C1160 C 0.06788 0.30447 0.38134 0.0
C1161 C 0.03642 0.28141 0.38712 0.0
H1162 H 0.84158 0.826 0.38969 0.0
H1163 H 0.78489 0.73038 0.41388 0.0
H1164 H 0.73523 0.72919 0.40228 0.0
H1165 H 0.70729 0.7557 0.38642 0.0
H1166 H 0.76328 0.85204 0.36403 0.0
H1167 H 0.81341 0.85241 0.37322 0.0
C1168 C 0.81839 0.80482 0.39225 0.0
C1169 C 0.81717 0.77839 0.40286 0.0
C1170 C 0.78962 0.80435 0.38567 0.0
C1171 C 0.78671 0.75126 0.40614 0.0
C1172 C 0.75821 0.75048 0.39938 0.0
C1173 C 0.73052 0.77665 0.38332 0.0
C1174 C 0.73143 0.8035 0.37386 0.0
C1175 C 0.75929 0.77694 0.38932 0.0
C1176 C 0.76173 0.83071 0.37053 0.0
C1177 C 0.7905 0.83102 0.37606 0.0
H1178 H 0.22631 0.03797 0.37493 0.0
H1179 H 0.21 0.00461 0.44343 0.0
H1180 H 0.20195 0.95359 0.43094 0.0
H1181 H 0.19668 0.91746 0.40025 0.0
H1182 H 0.21103 0.95065 0.33191 0.0
H1183 H 0.2218 0.00239 0.34453 0.0
C1184 C 0.2207 0.01949 0.38717 0.0
C1185 C 0.21856 0.02518 0.4101 0.0
C1186 C 0.21537 0.99001 0.37983 0.0
C1187 C 0.21211 0.00111 0.4257 0.0
C1188 C 0.20725 0.9718 0.41855 0.0
C1189 C 0.20242 0.93613 0.38816 0.0
C1190 C 0.2025 0.93007 0.36508 0.0
C1191 C 0.20849 0.96588 0.39563 0.0
C1192 C 0.20983 0.9544 0.34963 0.0
C1193 C 0.21633 0.98412 0.3569 0.0
H1194 H 0.50315 0.63994 0.31633 0.0
H1195 H 0.57461 0.62245 0.28532 0.0
H1196 H 0.61754 0.67337 0.29839 0.0
H1197 H 0.63535 0.72313 0.31868 0.0
H1198 H 0.56447 0.73908 0.35205 0.0
H1199 H 0.52119 0.68815 0.3387 0.0
C1200 C 0.52807 0.64686 0.31264 0.0
C1201 C 0.53515 0.62702 0.29947 0.0
C1202 C 0.55301 0.67598 0.32086 0.0
C1203 C 0.56789 0.63719 0.29476 0.0
C1204 C 0.59269 0.66632 0.30249 0.0
C1205 C 0.61046 0.71545 0.32314 0.0
C1206 C 0.60333 0.7351 0.33637 0.0
C1207 C 0.58558 0.68596 0.3155 0.0
C1208 C 0.57085 0.7245 0.34205 0.0
C1209 C 0.54598 0.69538 0.33429 0.0
H1210 H 0.34865 0.84128 0.31317 0.0
H1211 H 0.39293 0.93955 0.29485 0.0
H1212 H 0.34394 0.94018 0.30576 0.0
H1213 H 0.28726 0.91231 0.31836 0.0
H1214 H 0.24125 0.81347 0.33481 0.0
H1215 H 0.29179 0.81359 0.32721 0.0
C1216 C 0.34766 0.8629 0.31184 0.0
C1217 C 0.37452 0.8903 0.303 0.0
C1218 C 0.31895 0.86299 0.31785 0.0
C1219 C 0.37262 0.91803 0.30129 0.0
C1220 C 0.34457 0.91844 0.30758 0.0
C1221 C 0.28843 0.89088 0.32053 0.0
C1222 C 0.26063 0.86313 0.3277 0.0
C1223 C 0.3174 0.89098 0.31553 0.0
C1224 C 0.26241 0.8354 0.32995 0.0
C1225 C 0.29132 0.83541 0.32538 0.0
H1226 H 0.14951 0.50569 0.32368 0.0
H1227 H 0.06811 0.43608 0.28552 0.0
H1228 H 0.08104 0.39558 0.29683 0.0
H1229 H 0.11428 0.37969 0.31854 0.0
H1230 H 0.19456 0.44917 0.35771 0.0
H1231 H 0.18254 0.48982 0.34549 0.0
C1232 C 0.13434 0.4816 0.31799 0.0
C1233 C 0.10774 0.47397 0.30385 0.0
C1234 C 0.14149 0.45835 0.32493 0.0
C1235 C 0.08892 0.44275 0.2962 0.0
C1236 C 0.09613 0.41951 0.30283 0.0
C1237 C 0.12921 0.4037 0.32444 0.0
C1238 C 0.15516 0.41123 0.3392 0.0
C1239 C 0.1222 0.42701 0.31732 0.0
C1240 C 0.17419 0.44254 0.3466 0.0
C1241 C 0.16746 0.46588 0.33951 0.0
H1242 H 0.34709 0.49692 0.32353 0.0
H1243 H 0.3886 0.44134 0.30083 0.0
H1244 H 0.33778 0.39258 0.30952 0.0
H1245 H 0.28145 0.36593 0.32396 0.0
H1246 H 0.24008 0.42231 0.3454 0.0
H1247 H 0.29082 0.47045 0.3373 0.0
C1248 C 0.34477 0.47406 0.32026 0.0
C1249 C 0.37116 0.47249 0.31127 0.0
C1250 C 0.31566 0.44633 0.32547 0.0
C1251 C 0.3683 0.44294 0.30743 0.0
C1252 C 0.33936 0.41515 0.31254 0.0
C1253 C 0.28371 0.3888 0.32701 0.0
C1254 C 0.25724 0.39043 0.33599 0.0
C1255 C 0.3129 0.41655 0.32169 0.0
C1256 C 0.26026 0.42023 0.33929 0.0
C1257 C 0.28924 0.44786 0.33437 0.0
H1258 H 0.50571 0.8244 0.3229 0.0
H1259 H 0.5553 0.92153 0.30163 0.0
H1260 H 0.60774 0.92405 0.30643 0.0
H1261 H 0.63967 0.89861 0.31755 0.0
H1262 H 0.58923 0.80108 0.33807 0.0
H1263 H 0.53736 0.79863 0.3328 0.0
C1264 C 0.52805 0.84599 0.31908 0.0
C1265 C 0.52674 0.87267 0.3117 0.0
C1266 C 0.55805 0.84723 0.322 0.0
C1267 C 0.55576 0.90062 0.3071 0.0
C1268 C 0.58573 0.90207 0.30995 0.0
C1269 C 0.61728 0.87689 0.32092 0.0
C1270 C 0.61853 0.85037 0.32898 0.0
C1271 C 0.58723 0.87557 0.31755 0.0
C1272 C 0.58923 0.82217 0.33267 0.0
C1273 C 0.5594 0.82066 0.32943 0.0
H1274 H 0.0879 0.63353 0.30734 0.0
H1275 H 0.16734 0.63629 0.34367 0.0
H1276 H 0.19096 0.69314 0.34986 0.0
H1277 H 0.18749 0.74135 0.34634 0.0
H1278 H 0.10735 0.73833 0.31039 0.0
H1279 H 0.08584 0.68257 0.30231 0.0
C1280 C 0.11061 0.64684 0.31631 0.0
C1281 C 0.12613 0.63126 0.32499 0.0
C1282 C 0.1238 0.67936 0.31993 0.0
C1283 C 0.1553 0.64823 0.33676 0.0
C1284 C 0.16868 0.68059 0.34036 0.0
C1285 C 0.16526 0.72848 0.33683 0.0
C1286 C 0.14883 0.74395 0.32934 0.0
C1287 C 0.15288 0.69631 0.3323 0.0
C1288 C 0.12046 0.72706 0.31652 0.0
C1289 C 0.10805 0.69509 0.31189 0.0
H1290 H 0.85947 0.01353 0.37043 0.0
H1291 H 0.80011 0.04696 0.40033 0.0
H1292 H 0.75179 0.99439 0.39562 0.0
H1293 H 0.72634 0.93908 0.38106 0.0
H1294 H 0.78801 0.90827 0.35049 0.0
H1295 H 0.83512 0.95927 0.3573 0.0
C1296 C 0.83594 0.00912 0.37613 0.0
C1297 C 0.83311 0.03367 0.3858 0.0
C1298 C 0.80857 0.97927 0.37303 0.0
C1299 C 0.80267 0.02809 0.39296 0.0
C1300 C 0.77512 0.99812 0.39017 0.0
C1301 C 0.75012 0.94356 0.37606 0.0
C1302 C 0.75332 0.91978 0.36497 0.0
C1303 C 0.77769 0.97351 0.37996 0.0
C1304 C 0.78445 0.92606 0.35865 0.0
C1305 C 0.81165 0.95531 0.36263 0.0
H1306 H 0.97886 0.76059 0.38429 0.0
H1307 H 0.01293 0.86026 0.38669 0.0
H1308 H 0.06745 0.87184 0.3759 0.0
H1309 H 0.10615 0.85339 0.36631 0.0
H1310 H 0.07182 0.7535 0.36561 0.0
H1311 H 0.01717 0.74224 0.37481 0.0
C1312 C 0.9984 0.78481 0.38277 0.0
C1313 C 0.99212 0.80956 0.38675 0.0
C1314 C 0.02971 0.79126 0.37648 0.0
C1315 C 0.01741 0.84083 0.38419 0.0
C1316 C 0.04853 0.84745 0.37782 0.0
C1317 C 0.08652 0.82922 0.36779 0.0
C1318 C 0.09292 0.80426 0.3648 0.0
C1319 C 0.05507 0.82287 0.37386 0.0
C1320 C 0.06741 0.77307 0.36749 0.0
C1321 C 0.03616 0.76661 0.37291 0.0
H1322 H 0.23529 0.20212 0.40557 0.0
H1323 H 0.14092 0.13225 0.382 0.0
H1324 H 0.12966 0.17372 0.37011 0.0
H1325 H 0.14737 0.2298 0.36518 0.0
H1326 H 0.24118 0.3002 0.38966 0.0
H1327 H 0.25196 0.25884 0.40241 0.0
C1328 C 0.21213 0.19618 0.39819 0.0
C1329 C 0.18876 0.16441 0.39481 0.0
C1330 C 0.20586 0.22022 0.39134 0.0
C1331 C 0.159 0.1567 0.38497 0.0
C1332 C 0.15266 0.18035 0.37804 0.0
C1333 C 0.17022 0.23611 0.37325 0.0
C1334 C 0.19353 0.26806 0.37626 0.0
C1335 C 0.17606 0.2122 0.38088 0.0
C1336 C 0.2228 0.27579 0.38707 0.0
C1337 C 0.22901 0.25213 0.3944 0.0
H1338 H 0.67735 0.51328 0.72763 0.0
H1339 H 0.63092 0.56633 0.74631 0.0
H1340 H 0.67817 0.61501 0.73362 0.0
H1341 H 0.73356 0.64312 0.71858 0.0
H1342 H 0.78168 0.59119 0.70185 0.0
H1343 H 0.73283 0.54156 0.71171 0.0
C1344 C 0.67745 0.53545 0.72875 0.0
C1345 C 0.65052 0.53601 0.73813 0.0
C1346 C 0.70497 0.56359 0.72151 0.0
C1347 C 0.65137 0.56512 0.73958 0.0
C1348 C 0.67834 0.59301 0.73216 0.0
C1349 C 0.73312 0.62084 0.71678 0.0
C1350 C 0.76086 0.62076 0.70882 0.0
C1351 C 0.70537 0.59259 0.72328 0.0
C1352 C 0.76031 0.59183 0.7072 0.0
C1353 C 0.73248 0.56348 0.71312 0.0
H1354 H 0.50771 0.16879 0.72548 0.0
H1355 H 0.45068 0.07025 0.74289 0.0
H1356 H 0.40177 0.0692 0.72946 0.0
H1357 H 0.37456 0.09654 0.71444 0.0
H1358 H 0.42983 0.19598 0.69982 0.0
H1359 H 0.47995 0.19646 0.71002 0.0
C1360 C 0.48458 0.14709 0.72614 0.0
C1361 C 0.48284 0.11963 0.73528 0.0
C1362 C 0.45623 0.14682 0.71879 0.0
C1363 C 0.45264 0.09174 0.73618 0.0
C1364 C 0.42467 0.0911 0.72843 0.0
C1365 C 0.39766 0.11825 0.71326 0.0
C1366 C 0.39856 0.14598 0.70579 0.0
C1367 C 0.42609 0.11853 0.71996 0.0
C1368 C 0.42856 0.17411 0.70486 0.0
C1369 C 0.45718 0.17443 0.71093 0.0
H1370 H 0.91121 0.38497 0.70737 0.0
H1371 H 0.87455 0.34956 0.77382 0.0
H1372 H 0.85906 0.2963 0.76173 0.0
H1373 H 0.8552 0.25931 0.73209 0.0
H1374 H 0.88686 0.29414 0.66505 0.0
H1375 H 0.90401 0.34792 0.67738 0.0
C1376 C 0.89922 0.36569 0.71921 0.0
C1377 C 0.89432 0.37173 0.74161 0.0
C1378 C 0.88924 0.33483 0.71196 0.0
C1379 C 0.87943 0.34609 0.75664 0.0
C1380 C 0.87023 0.31544 0.74969 0.0
C1381 C 0.86584 0.27877 0.72025 0.0
C1382 C 0.86969 0.27294 0.6977 0.0
C1383 C 0.87505 0.30953 0.72741 0.0
C1384 C 0.88323 0.29811 0.6824 0.0
C1385 C 0.89323 0.32885 0.68949 0.0
H1386 H 0.23184 0.97496 0.62529 0.0
H1387 H 0.14844 0.96879 0.65843 0.0
H1388 H 0.18248 0.02119 0.67476 0.0
H1389 H 0.23596 0.06959 0.67875 0.0
H1390 H 0.31855 0.07516 0.6446 0.0
H1391 H 0.28464 0.0226 0.62926 0.0
C1392 C 0.22089 0.98516 0.63582 0.0
C1393 C 0.18743 0.96789 0.64038 0.0
C1394 C 0.24052 0.01537 0.64498 0.0
C1395 C 0.17408 0.98136 0.65465 0.0
C1396 C 0.19354 0.01143 0.66393 0.0
C1397 C 0.24662 0.0592 0.66814 0.0
C1398 C 0.27994 0.07648 0.66299 0.0
C1399 C 0.22682 0.02874 0.65916 0.0
C1400 C 0.29309 0.06265 0.64891 0.0
C1401 C 0.27368 0.03247 0.64008 0.0
H1402 H 0.03938 0.25693 0.63438 0.0
H1403 H 0.00826 0.15817 0.64157 0.0
H1404 H 0.95504 0.14764 0.6547 0.0
H1405 H 0.9158 0.16623 0.66167 0.0
H1406 H 0.94849 0.26553 0.65567 0.0
H1407 H 1.00225 0.27607 0.64465 0.0
C1408 C 0.02092 0.2331 0.6388 0.0
C1409 C 0.0277 0.20834 0.63668 0.0
C1410 C 0.99051 0.22729 0.64661 0.0
C1411 C 1.00368 0.17767 0.64294 0.0
C1412 C 0.97319 0.17162 0.65042 0.0
C1413 C 0.93497 0.19021 0.6585 0.0
C1414 C 0.92825 0.21515 0.65979 0.0
C1415 C 0.96611 0.19619 0.65208 0.0
C1416 C 0.95314 0.246 0.65502 0.0
C1417 C 0.98388 0.25205 0.6486 0.0
H1418 H 0.82845 0.84722 0.65343 0.0
H1419 H 0.74601 0.78125 0.61432 0.0
H1420 H 0.75367 0.73799 0.62719 0.0
H1421 H 0.78353 0.71875 0.64981 0.0
H1422 H 0.86529 0.78497 0.68938 0.0
H1423 H 0.85748 0.82796 0.67655 0.0
C1424 C 0.81186 0.82334 0.6479 0.0
C1425 C 0.7867 0.81766 0.63286 0.0
C1426 C 0.8161 0.79848 0.65561 0.0
C1427 C 0.76591 0.78654 0.62559 0.0
C1428 C 0.77011 0.76169 0.63309 0.0
C1429 C 0.79962 0.74255 0.65569 0.0
C1430 C 0.82477 0.7484 0.67079 0.0
C1431 C 0.79514 0.76737 0.6481 0.0
C1432 C 0.84539 0.77952 0.6781 0.0
C1433 C 0.84109 0.80425 0.67064 0.0
H1434 H 0.04161 0.77822 0.6638 0.0
H1435 H 0.02905 0.85762 0.64896 0.0
H1436 H 0.97088 0.82558 0.65706 0.0
H1437 H 0.92304 0.7738 0.6662 0.0
H1438 H 0.93556 0.69394 0.67914 0.0
H1439 H 0.99421 0.72713 0.67432 0.0
C1440 C 0.02601 0.78839 0.66235 0.0
C1441 C 0.03923 0.81998 0.65557 0.0
C1442 C 0.9927 0.76978 0.66699 0.0
C1443 C 0.01913 0.83318 0.65392 0.0
C1444 C 0.98597 0.81492 0.65865 0.0
C1445 C 0.93886 0.76404 0.66863 0.0
C1446 C 0.92534 0.73188 0.674 0.0
C1447 C 0.97243 0.7831 0.66504 0.0
C1448 C 0.9457 0.71895 0.67595 0.0
C1449 C 0.97913 0.73783 0.67288 0.0
H1450 H 0.16891 0.15716 0.652 0.0
H1451 H 0.21419 0.25698 0.63927 0.0
H1452 H 0.26774 0.26278 0.64606 0.0
H1453 H 0.30158 0.2393 0.6565 0.0
H1454 H 0.25568 0.13914 0.66836 0.0
H1455 H 0.20271 0.13352 0.6612 0.0
C1456 C 0.19062 0.18009 0.65045 0.0
C1457 C 0.18787 0.20659 0.6449 0.0
C1458 C 0.22117 0.18317 0.65452 0.0
C1459 C 0.21592 0.23625 0.64325 0.0
C1460 C 0.24646 0.23955 0.64725 0.0
C1461 C 0.2799 0.2163 0.6576 0.0
C1462 C 0.28254 0.18985 0.66377 0.0
C1463 C 0.24938 0.2132 0.65308 0.0
C1464 C 0.25435 0.16006 0.66448 0.0
C1465 C 0.22399 0.15678 0.66015 0.0
H1466 H 0.76492 0.97894 0.63452 0.0
H1467 H 0.85419 0.99072 0.66127 0.0
H1468 H 0.87274 0.0462 0.66965 0.0
H1469 H 0.86233 0.09048 0.67113 0.0
H1470 H 0.77304 0.07906 0.64428 0.0
H1471 H 0.75591 0.02462 0.63395 0.0
C1472 C 0.78866 0.99396 0.64177 0.0
C1473 C 0.80842 0.98118 0.64711 0.0
C1474 C 0.79902 0.02578 0.64668 0.0
C1475 C 0.83888 1.00042 0.65681 0.0
C1476 C 0.84937 0.03201 0.66172 0.0
C1477 C 0.83909 0.07608 0.66305 0.0
C1478 C 0.81883 0.08875 0.65879 0.0
C1479 C 0.82942 0.04481 0.65707 0.0
C1480 C 0.78909 0.06992 0.64787 0.0
C1481 C 0.77922 0.03873 0.64196 0.0
H1482 H 0.49321 0.34951 0.75052 0.0
H1483 H 0.51337 0.38748 0.68339 0.0
H1484 H 0.46678 0.33939 0.66907 0.0
H1485 H 0.42222 0.28545 0.67528 0.0
H1486 H 0.40138 0.24645 0.742 0.0
H1487 H 0.44544 0.29606 0.75702 0.0
C1488 C 0.48693 0.34731 0.73285 0.0
C1489 C 0.50645 0.37189 0.71797 0.0
C1490 C 0.46002 0.31938 0.7247 0.0
C1491 C 0.49844 0.36885 0.69511 0.0
C1492 C 0.4719 0.34133 0.68691 0.0
C1493 C 0.42746 0.28773 0.69303 0.0
C1494 C 0.40897 0.26208 0.70737 0.0
C1495 C 0.45288 0.31623 0.70146 0.0
C1496 C 0.41525 0.26586 0.73056 0.0
C1497 C 0.44059 0.29417 0.73914 0.0
H1498 H 0.67754 0.1818 0.71214 0.0
H1499 H 0.63035 0.08508 0.7343 0.0
H1500 H 0.67934 0.08243 0.72573 0.0
H1501 H 0.73557 0.10764 0.71131 0.0
H1502 H 0.78302 0.205 0.69035 0.0
H1503 H 0.73413 0.20738 0.69867 0.0
C1504 C 0.67823 0.1603 0.71534 0.0
C1505 C 0.65066 0.13377 0.72412 0.0
C1506 C 0.70641 0.15898 0.71021 0.0
C1507 C 0.6515 0.10588 0.72786 0.0
C1508 C 0.67943 0.10435 0.72281 0.0
C1509 C 0.73509 0.12931 0.70846 0.0
C1510 C 0.76269 0.15584 0.69956 0.0
C1511 C 0.70699 0.1307 0.71384 0.0
C1512 C 0.76192 0.18395 0.69649 0.0
C1513 C 0.734 0.18542 0.70148 0.0
H1514 H 0.93443 0.56206 0.73443 0.0
H1515 H 0.84881 0.48366 0.70641 0.0
H1516 H 0.82887 0.51907 0.69486 0.0
H1517 H 0.83656 0.57274 0.69203 0.0
H1518 H 0.92205 0.651 0.72069 0.0
H1519 H 0.94131 0.6155 0.73262 0.0
C1520 C 0.91118 0.55282 0.72612 0.0
C1521 C 0.89279 0.52046 0.72148 0.0
C1522 C 0.90007 0.57336 0.71942 0.0
C1523 C 0.86302 0.50856 0.7104 0.0
C1524 C 0.85177 0.5288 0.70366 0.0
C1525 C 0.85954 0.58201 0.70069 0.0
C1526 C 0.87796 0.61451 0.70528 0.0
C1527 C 0.87026 0.56133 0.70786 0.0
C1528 C 0.90737 0.6261 0.71694 0.0
C1529 C 0.91842 0.6058 0.72381 0.0
H1530 H 0.50718 0.94167 0.24975 0.0
H1531 H 0.40819 0.89605 0.22671 0.0
H1532 H 0.42601 0.92154 0.19023 0.0
H1533 H 0.46944 0.95954 0.16538 0.0
H1534 H 0.5686 0.00293 0.18778 0.0
H1535 H 0.55095 0.9754 0.22358 0.0
C1536 C 0.48948 0.93682 0.23667 0.0
C1537 C 0.45626 0.9173 0.24135 0.0
C1538 C 0.49991 0.9514 0.21548 0.0
C1539 C 0.43385 0.91159 0.224 0.0
C1540 C 0.44404 0.92603 0.20297 0.0
C1541 C 0.48727 0.96259 0.1779 0.0
C1542 C 0.52033 0.98388 0.17384 0.0
C1543 C 0.47697 0.94644 0.19861 0.0
C1544 C 0.54293 0.98743 0.19049 0.0
C1545 C 0.53288 0.97152 0.21103 0.0
H1546 H 0.0296 0.4751 0.25088 0.0
H1547 H 0.10053 0.57318 0.24124 0.0
H1548 H 0.07626 0.573 0.20489 0.0
H1549 H 0.03379 0.54491 0.17613 0.0
H1550 H 0.961 0.44786 0.18739 0.0
H1551 H 0.98706 0.44745 0.22268 0.0
C1552 C 0.03988 0.49634 0.24069 0.0
C1553 C 0.06693 0.52405 0.24859 0.0
C1554 C 0.0254 0.49619 0.22012 0.0
C1555 C 0.07968 0.5516 0.23548 0.0
C1556 C 0.06585 0.55146 0.2147 0.0
C1557 C 0.0239 0.5237 0.18631 0.0
C1558 C 0.99567 0.4964 0.17924 0.0
C1559 C 0.03859 0.52392 0.20688 0.0
C1560 C 0.9827 0.46911 0.19261 0.0
C1561 C 0.99758 0.46888 0.21274 0.0
H1562 H 0.44861 0.5213 0.22716 0.0
H1563 H 0.54433 0.55335 0.25359 0.0
H1564 H 0.55895 0.53538 0.21988 0.0
H1565 H 0.54555 0.51156 0.18276 0.0
H1566 H 0.4497 0.47695 0.15583 0.0
H1567 H 0.43459 0.49563 0.18938 0.0
C1568 C 0.47253 0.52406 0.22557 0.0
C1569 C 0.49541 0.53901 0.24292 0.0
C1570 C 0.481 0.5136 0.20587 0.0
C1571 C 0.52637 0.54246 0.24046 0.0
C1572 C 0.5348 0.53212 0.22116 0.0
C1573 C 0.52115 0.50766 0.18422 0.0
C1574 C 0.49881 0.49251 0.16667 0.0
C1575 C 0.51244 0.51785 0.20371 0.0
C1576 C 0.46764 0.48871 0.16884 0.0
C1577 C 0.45885 0.49916 0.18818 0.0
H1578 H 0.97007 0.43135 0.79843 0.0
H1579 H 0.9207 0.48394 0.80878 0.0
H1580 H 0.94521 0.49977 0.84614 0.0
H1581 H 0.98113 0.49865 0.87596 0.0
H1582 H 0.02991 0.44566 0.8647 0.0
H1583 H 1.00467 0.4295 0.82786 0.0
C1584 C 0.96427 0.44595 0.80893 0.0
C1585 C 0.94327 0.45616 0.80084 0.0
C1586 C 0.97831 0.45481 0.83033 0.0
C1587 C 0.93686 0.47582 0.81452 0.0
C1588 C 0.95073 0.48473 0.83594 0.0
C1589 C 0.98592 0.48333 0.86549 0.0
C1590 C 0.00747 0.47346 0.87306 0.0
C1591 C 0.97149 0.47432 0.84407 0.0
C1592 C 0.0137 0.45385 0.8592 0.0
C1593 C 0.99924 0.44456 0.83813 0.0
H1594 H 0.56986 0.52616 0.7918 0.0
H1595 H 0.54987 0.43135 0.80515 0.0
H1596 H 0.52455 0.43127 0.84083 0.0
H1597 H 0.50707 0.45797 0.86827 0.0
H1598 H 0.52796 0.55293 0.85457 0.0
H1599 H 0.55448 0.55331 0.81948 0.0
C1600 C 0.56035 0.50556 0.80259 0.0
C1601 C 0.56183 0.47879 0.79558 0.0
C1602 C 0.54603 0.50574 0.82322 0.0
C1603 C 0.54871 0.45217 0.80978 0.0
C1604 C 0.53442 0.45218 0.83035 0.0
C1605 C 0.51782 0.47885 0.85772 0.0
C1606 C 0.51536 0.50533 0.86404 0.0
C1607 C 0.53284 0.47881 0.83727 0.0
C1608 C 0.52918 0.53211 0.85004 0.0
C1609 C 0.54438 0.53236 0.82993 0.0
H1610 H 0.54278 0.05496 0.78865 0.0
H1611 H 0.52599 0.12857 0.81271 0.0
H1612 H 0.51355 0.10482 0.85015 0.0
H1613 H 0.50207 0.06011 0.87523 0.0
H1614 H 0.51621 0.98504 0.85062 0.0
H1615 H 0.53511 0.01218 0.81462 0.0
C1616 C 0.53709 0.0661 0.80225 0.0
C1617 C 0.53537 0.09352 0.7979 0.0
C1618 C 0.52905 0.05177 0.82369 0.0
C1619 C 0.52746 0.10744 0.81563 0.0
C1620 C 0.52022 0.0938 0.83704 0.0
C1621 C 0.50989 0.05004 0.86213 0.0
C1622 C 0.50752 0.02047 0.86564 0.0
C1623 C 0.52014 0.06552 0.84118 0.0
C1624 C 0.51746 0.00761 0.84833 0.0
C1625 C 0.5283 0.02313 0.82769 0.0
H1626 H 0.16541 0.27763 0.58656 0.0
H1627 H 0.06752 0.23098 0.56128 0.0
H1628 H 0.08662 0.25847 0.52553 0.0
H1629 H 0.13109 0.29732 0.50147 0.0
H1630 H 0.229 0.34222 0.52651 0.0
H1631 H 0.20997 0.31355 0.56183 0.0
C1632 C 0.1482 0.27306 0.57319 0.0
C1633 C 0.1149 0.25237 0.57699 0.0
C1634 C 0.15939 0.28874 0.55241 0.0
C1635 C 0.09318 0.24726 0.55929 0.0
C1636 C 0.10412 0.26282 0.53864 0.0
C1637 C 0.14831 0.3005 0.51452 0.0
C1638 C 0.18147 0.32231 0.51127 0.0
C1639 C 0.13717 0.28385 0.53502 0.0
C1640 C 0.2033 0.32612 0.52857 0.0
C1641 C 0.19245 0.30963 0.54883 0.0
H1642 H 0.7267 0.88947 0.58112 0.0
H1643 H 0.78543 0.85159 0.55639 0.0
H1644 H 0.76039 0.84366 0.51951 0.0
H1645 H 0.71875 0.84358 0.49504 0.0
H1646 H 0.66307 0.88519 0.51908 0.0
H1647 H 0.69024 0.8957 0.55525 0.0
C1648 C 0.73466 0.88016 0.56759 0.0
C1649 C 0.75759 0.87064 0.57185 0.0
C1650 C 0.72042 0.87595 0.54624 0.0
C1651 C 0.76722 0.85836 0.55394 0.0
C1652 C 0.75302 0.85395 0.53273 0.0
C1653 C 0.71295 0.85553 0.50797 0.0
C1654 C 0.68823 0.86286 0.50429 0.0
C1655 C 0.72906 0.86202 0.52879 0.0
C1656 C 0.68118 0.87827 0.52149 0.0
C1657 C 0.6969 0.88456 0.54222 0.0
H1658 H 0.11942 0.86305 0.5638 0.0
H1659 H 0.21805 0.91858 0.58678 0.0
H1660 H 0.23767 0.90831 0.55188 0.0
H1661 H 0.2273 0.88318 0.51502 0.0
H1662 H 0.12929 0.82767 0.4911 0.0
H1663 H 0.10907 0.83862 0.52583 0.0
C1664 C 0.14517 0.87283 0.56112 0.0
C1665 C 0.1672 0.89175 0.5779 0.0
C1666 C 0.15647 0.86695 0.54076 0.0
C1667 C 0.20054 0.90435 0.57409 0.0
C1668 C 0.21183 0.89838 0.55414 0.0
C1669 C 0.20148 0.87335 0.51741 0.0
C1670 C 0.17987 0.85441 0.5005 0.0
C1671 C 0.19008 0.87969 0.53738 0.0
C1672 C 0.14652 0.84246 0.50375 0.0
C1673 C 0.13493 0.84855 0.52369 0.0
H1674 H 0.63004 0.75751 0.12354 0.0
H1675 H 0.58147 0.81006 0.1373 0.0
H1676 H 0.60846 0.82572 0.17394 0.0
H1677 H 0.64604 0.82408 0.20218 0.0
H1678 H 0.69292 0.77009 0.18762 0.0
H1679 H 0.66582 0.75483 0.15138 0.0
C1680 C 0.62492 0.77204 0.13464 0.0
C1681 C 0.60343 0.78227 0.12776 0.0
C1682 C 0.64017 0.7806 0.15561 0.0
C1683 C 0.59797 0.80192 0.14213 0.0
C1684 C 0.61324 0.81071 0.16314 0.0
C1685 C 0.65001 0.80875 0.19112 0.0
C1686 C 0.67165 0.79841 0.19753 0.0
C1687 C 0.63434 0.80008 0.17011 0.0
C1688 C 0.67677 0.77874 0.18296 0.0
C1689 C 0.66123 0.76993 0.16225 0.0
H1690 H 0.18702 0.79152 0.11538 0.0
H1691 H 0.28497 0.83454 0.14023 0.0
H1692 H 0.26719 0.84289 0.1767 0.0
H1693 H 0.224 0.84018 0.20135 0.0
H1694 H 0.12606 0.79581 0.17642 0.0
H1695 H 0.14359 0.78539 0.14061 0.0
C1696 C 0.2045 0.80226 0.12883 0.0
C1697 C 0.23744 0.8126 0.12475 0.0
C1698 C 0.19408 0.80686 0.14993 0.0
C1699 C 0.25958 0.82687 0.14253 0.0
C1700 C 0.24939 0.83149 0.16354 0.0
C1701 C 0.20643 0.82781 0.1882 0.0
C1702 C 0.17377 0.81918 0.19161 0.0
C1703 C 0.21673 0.82192 0.16741 0.0
C1704 C 0.15144 0.80329 0.17423 0.0
C1705 C 0.16142 0.79721 0.15369 0.0
H1706 H 0.14267 0.39375 0.13114 0.0
H1707 H 0.24604 0.44792 0.141 0.0
H1708 H 0.24013 0.42223 0.17734 0.0
H1709 H 0.20534 0.38297 0.20637 0.0
H1710 H 0.10212 0.3302 0.19592 0.0
H1711 H 0.10824 0.35737 0.16037 0.0
C1712 C 0.16401 0.40051 0.14129 0.0
C1713 C 0.19481 0.423 0.13302 0.0
C1714 C 0.16043 0.38588 0.16236 0.0
C1715 C 0.22201 0.43048 0.14652 0.0
C1716 C 0.21863 0.41593 0.1675 0.0
C1717 C 0.18421 0.37784 0.19645 0.0
C1718 C 0.15328 0.3544 0.20388 0.0
C1719 C 0.18794 0.39344 0.17563 0.0
C1720 C 0.1262 0.34788 0.19062 0.0
C1721 C 0.12968 0.3634 0.17021 0.0
H1722 H 0.83252 0.61653 0.92097 0.0
H1723 H 0.73459 0.56342 0.89631 0.0
H1724 H 0.75194 0.58901 0.85974 0.0
H1725 H 0.79451 0.62901 0.83513 0.0
H1726 H 0.89227 0.68221 0.85998 0.0
H1727 H 0.87558 0.65391 0.89566 0.0
C1728 C 0.81503 0.6102 0.90752 0.0
C1729 C 0.78218 0.58824 0.91163 0.0
C1730 C 0.82517 0.62517 0.88641 0.0
C1731 C 0.75992 0.58063 0.89389 0.0
C1732 C 0.76986 0.59517 0.87286 0.0
C1733 C 0.81222 0.63401 0.84823 0.0
C1734 C 0.84458 0.65793 0.84485 0.0
C1735 C 0.80235 0.61786 0.86897 0.0
C1736 C 0.86714 0.66424 0.86216 0.0
C1737 C 0.85762 0.64802 0.88262 0.0
H1738 H 0.37063 0.20245 0.91743 0.0
H1739 H 0.44236 0.18194 0.89091 0.0
H1740 H 0.41763 0.17294 0.85385 0.0
H1741 H 0.37362 0.16763 0.82939 0.0
H1742 H 0.30409 0.19154 0.85539 0.0
H1743 H 0.33017 0.20262 0.89201 0.0
C1744 C 0.38134 0.19665 0.9035 0.0
C1745 C 0.40814 0.19246 0.90722 0.0
C1746 C 0.36718 0.1918 0.88206 0.0
C1747 C 0.42129 0.18461 0.88882 0.0
C1748 C 0.40726 0.1796 0.86751 0.0
C1749 C 0.36446 0.17583 0.8429 0.0
C1750 C 0.33645 0.17814 0.83954 0.0
C1751 C 0.37985 0.1826 0.864 0.0
C1752 C 0.325 0.18863 0.85749 0.0
C1753 C 0.34005 0.19522 0.87848 0.0
H1754 H 0.86843 0.23572 0.90868 0.0
H1755 H 0.76584 0.19208 0.89634 0.0
H1756 H 0.77334 0.17577 0.85898 0.0
H1757 H 0.80952 0.17369 0.82964 0.0
H1758 H 0.91196 0.21826 0.84286 0.0
H1759 H 0.90412 0.23511 0.87967 0.0
C1760 C 0.84765 0.22302 0.89777 0.0
C1761 C 0.81661 0.2154 0.90541 0.0
C1762 C 0.85219 0.21402 0.87628 0.0
C1763 C 0.78999 0.19812 0.89109 0.0
C1764 C 0.79431 0.18897 0.86961 0.0
C1765 C 0.83009 0.18741 0.84052 0.0
C1766 C 0.8613 0.19461 0.83351 0.0
C1767 C 0.82535 0.19682 0.86197 0.0
C1768 C 0.88769 0.21216 0.84789 0.0
C1769 C 0.88323 0.22181 0.86897 0.0
H1770 H 0.29853 0.10436 0.45777 0.0
H1771 H 0.22814 0.13089 0.47684 0.0
H1772 H 0.25742 0.15311 0.51201 0.0
H1773 H 0.30276 0.16392 0.53786 0.0
H1774 H 0.37155 0.13545 0.51836 0.0
H1775 H 0.34278 0.11453 0.48316 0.0
C1776 C 0.28933 0.11473 0.46967 0.0
C1777 C 0.26094 0.11564 0.46467 0.0
C1778 C 0.30594 0.12696 0.48994 0.0
C1779 C 0.25002 0.13001 0.48012 0.0
C1780 C 0.26662 0.1425 0.50034 0.0
C1781 C 0.31124 0.1529 0.52596 0.0
C1782 C 0.33942 0.15143 0.53074 0.0
C1783 C 0.2945 0.14086 0.50554 0.0
C1784 C 0.35024 0.13732 0.51502 0.0
C1785 C 0.33375 0.12525 0.49488 0.0
H1786 H 0.93354 0.17342 0.47091 0.0
H1787 H 0.84537 0.13607 0.43233 0.0
H1788 H 0.81706 0.14103 0.46473 0.0
H1789 H 0.81694 0.15574 0.50399 0.0
H1790 H 0.90515 0.19479 0.54263 0.0
H1791 H 0.93354 0.18904 0.51043 0.0
C1792 C 0.90821 0.16663 0.46953 0.0
C1793 C 0.89166 0.15421 0.44913 0.0
C1794 C 0.89193 0.16963 0.48833 0.0
C1795 C 0.85869 0.14522 0.44783 0.0
C1796 C 0.84245 0.14818 0.46636 0.0
C1797 C 0.84247 0.16332 0.50538 0.0
C1798 C 0.85877 0.17578 0.52584 0.0
C1799 C 0.85878 0.1603 0.4867 0.0
C1800 C 0.89174 0.18476 0.52729 0.0
C1801 C 0.90812 0.18171 0.50877 0.0
H1802 H 0.82264 0.71264 0.4578 0.0
H1803 H 0.92313 0.77934 0.4709 0.0
H1804 H 0.91857 0.75507 0.50779 0.0
H1805 H 0.88527 0.71445 0.53684 0.0
H1806 H 0.78448 0.64996 0.52284 0.0
H1807 H 0.78971 0.67457 0.48638 0.0
C1808 C 0.84358 0.72241 0.46876 0.0
C1809 C 0.87314 0.74821 0.46139 0.0
C1810 C 0.8406 0.70883 0.4901 0.0
C1811 C 0.90008 0.75945 0.47582 0.0
C1812 C 0.8974 0.74572 0.4971 0.0
C1813 C 0.86444 0.70616 0.5259 0.0
C1814 C 0.83447 0.68024 0.53265 0.0
C1815 C 0.86767 0.72043 0.50454 0.0
C1816 C 0.80781 0.66965 0.5181 0.0
C1817 C 0.8108 0.68368 0.49717 0.0
loop_
_geom_bond_atom_site_label_1
_geom_bond_atom_site_label_2
_geom_bond_distance
_geom_bond_site_symmetry_2
_ccdc_geom_bond_type
H0 C3 0.929 . S
H1 C6 0.929 . S
H2 C8 0.930 . S
C3 H0 0.929 . S
C3 C4 1.398 . S
C3 C5 1.396 . S
C4 C3 1.398 . S
C4 C8 1.407 . S
C5 C3 1.396 . S
C5 C6 1.394 . S
C6 H1 0.929 . S
C6 C5 1.394 . S
C6 C7 1.382 . S
C7 C6 1.382 . S
C7 C8 1.392 . S
C7 N9 1.420 . S
C8 H2 0.930 . S
C8 C4 1.407 . S
C8 C7 1.392 . S
N9 C7 1.420 . S
N9 C10 1.244 . S
C10 N9 1.244 . S
H11 C14 0.929 . S
H12 C17 0.929 . S
H13 C19 0.930 . S
C14 H11 0.929 . S
C14 C15 1.398 . S
C14 C16 1.396 . S
C15 C14 1.398 . S
C15 C19 1.407 . S
C16 C14 1.396 . S
C16 C17 1.394 . S
C17 H12 0.929 . S
C17 C16 1.394 . S
C17 C18 1.382 . S
C18 C17 1.382 . S
C18 C19 1.392 . S
C18 N20 1.420 . S
C19 H13 0.930 . S
C19 C15 1.407 . S
C19 C18 1.392 . S
N20 C18 1.420 . S
N20 C21 1.244 . S
C21 N20 1.244 . S
H22 C25 0.929 . S
H23 C28 0.929 . S
H24 C30 0.930 . S
C25 H22 0.929 . S
C25 C26 1.398 . S
C25 C27 1.396 . S
C26 C25 1.398 . S
C26 C30 1.407 . S
C27 C25 1.396 . S
C27 C28 1.394 . S
C28 H23 0.929 . S
C28 C27 1.394 . S
C28 C29 1.382 . S
C29 C28 1.382 . S
C29 C30 1.392 . S
C29 N31 1.420 . S
C30 H24 0.930 . S
C30 C26 1.407 . S
C30 C29 1.392 . S
N31 C29 1.420 . S
N31 C32 1.244 . S
C32 N31 1.244 . S
H33 C36 0.929 . S
H34 C39 0.929 . S
H35 C41 0.930 . S
C36 H33 0.929 . S
C36 C37 1.398 . S
C36 C38 1.396 . S
C37 C36 1.398 . S
C37 C41 1.407 . S
C38 C36 1.396 . S
C38 C39 1.394 . S
C39 H34 0.929 . S
C39 C38 1.394 . S
C39 C40 1.382 . S
C40 C39 1.382 . S
C40 C41 1.392 . S
C40 N42 1.420 . S
C41 H35 0.930 . S
C41 C37 1.407 . S
C41 C40 1.392 . S
N42 C40 1.420 . S
N42 C43 1.244 . S
C43 N42 1.244 . S
H44 C47 0.929 . S
H45 C50 0.929 . S
H46 C52 0.930 . S
C47 H44 0.929 . S
C47 C48 1.398 . S
C47 C49 1.396 . S
C48 C47 1.398 . S
C48 C52 1.407 . S
C49 C47 1.396 . S
C49 C50 1.394 . S
C50 H45 0.929 . S
C50 C49 1.394 . S
C50 C51 1.382 . S
C51 C50 1.382 . S
C51 C52 1.392 . S
C51 N53 1.420 . S
C52 H46 0.930 . S
C52 C48 1.407 . S
C52 C51 1.392 . S
N53 C51 1.420 . S
N53 C54 1.244 . S
C54 N53 1.244 . S
H55 C58 0.929 . S
H56 C61 0.929 . S
H57 C63 0.930 . S
C58 H55 0.929 . S
C58 C59 1.398 . S
C58 C60 1.396 . S
C59 C58 1.398 . S
C59 C63 1.407 . S
C60 C58 1.396 . S
C60 C61 1.394 . S
C61 H56 0.929 . S
C61 C60 1.394 . S
C61 C62 1.382 . S
C62 C61 1.382 . S
C62 C63 1.392 . S
C62 N64 1.420 . S
C63 H57 0.930 . S
C63 C59 1.407 . S
C63 C62 1.392 . S
N64 C62 1.420 . S
N64 C65 1.244 . S
C65 N64 1.244 . S
H66 C69 0.929 . S
H67 C72 0.929 . S
H68 C74 0.930 . S
C69 H66 0.929 . S
C69 C70 1.398 . S
C69 C71 1.396 . S
C70 C69 1.398 . S
C70 C74 1.407 . S
C71 C69 1.396 . S
C71 C72 1.394 . S
C72 H67 0.929 . S
C72 C71 1.394 . S
C72 C73 1.382 . S
C73 C72 1.382 . S
C73 C74 1.392 . S
C73 N75 1.420 . S
C74 H68 0.930 . S
C74 C70 1.407 . S
C74 C73 1.392 . S
N75 C73 1.420 . S
N75 C76 1.244 . S
C76 N75 1.244 . S
H77 C80 0.929 . S
H78 C83 0.929 . S
H79 C85 0.930 . S
C80 H77 0.929 . S
C80 C81 1.398 . S
C80 C82 1.396 . S
C81 C80 1.398 . S
C81 C85 1.407 . S
C82 C80 1.396 . S
C82 C83 1.394 . S
C83 H78 0.929 . S
C83 C82 1.394 . S
C83 C84 1.382 . S
C84 C83 1.382 . S
C84 C85 1.392 . S
C84 N86 1.420 . S
C85 H79 0.930 . S
C85 C81 1.407 . S
C85 C84 1.392 . S
N86 C84 1.420 . S
N86 C87 1.244 . S
C87 N86 1.244 . S
H88 C91 0.929 . S
H89 C94 0.929 . S
H90 C96 0.930 . S
C91 H88 0.929 . S
C91 C92 1.398 . S
C91 C93 1.396 . S
C92 C91 1.398 . S
C92 C96 1.407 . S
C93 C91 1.396 . S
C93 C94 1.394 . S
C94 H89 0.929 . S
C94 C93 1.394 . S
C94 C95 1.382 . S
C95 C94 1.382 . S
C95 C96 1.392 . S
C95 N97 1.420 . S
C96 H90 0.930 . S
C96 C92 1.407 . S
C96 C95 1.392 . S
N97 C95 1.420 . S
N97 C98 1.244 . S
C98 N97 1.244 . S
H99 C102 0.929 . S
H100 C105 0.929 . S
H101 C107 0.930 . S
C102 H99 0.929 . S
C102 C103 1.398 . S
C102 C104 1.396 . S
C103 C102 1.398 . S
C103 C107 1.407 . S
C104 C102 1.396 . S
C104 C105 1.394 . S
C105 H100 0.929 . S
C105 C104 1.394 . S
C105 C106 1.382 . S
C106 C105 1.382 . S
C106 C107 1.392 . S
C106 N108 1.420 . S
C107 H101 0.930 . S
C107 C103 1.407 . S
C107 C106 1.392 . S
N108 C106 1.420 . S
N108 C109 1.244 . S
C109 N108 1.244 . S
H110 C113 0.929 . S
H111 C116 0.929 . S
H112 C118 0.930 . S
C113 H110 0.929 . S
C113 C114 1.398 . S
C113 C115 1.396 . S
C114 C113 1.398 . S
C114 C118 1.407 . S
C115 C113 1.396 . S
C115 C116 1.394 . S
C116 H111 0.929 . S
C116 C115 1.394 . S
C116 C117 1.382 . S
C117 C116 1.382 . S
C117 C118 1.392 . S
C117 N119 1.420 . S
C118 H112 0.930 . S
C118 C114 1.407 . S
C118 C117 1.392 . S
N119 C117 1.420 . S
N119 C120 1.244 . S
C120 N119 1.244 . S
H121 C124 0.929 . S
H122 C127 0.929 . S
H123 C129 0.930 . S
C124 H121 0.929 . S
C124 C125 1.398 . S
C124 C126 1.396 . S
C125 C124 1.398 . S
C125 C129 1.407 . S
C126 C124 1.396 . S
C126 C127 1.394 . S
C127 H122 0.929 . S
C127 C126 1.394 . S
C127 C128 1.382 . S
C128 C127 1.382 . S
C128 C129 1.392 . S
C128 N130 1.420 . S
C129 H123 0.930 . S
C129 C125 1.407 . S
C129 C128 1.392 . S
N130 C128 1.420 . S
N130 C131 1.244 . S
C131 N130 1.244 . S
H132 C135 0.929 . S
H133 C138 0.929 . S
H134 C140 0.930 . S
C135 H132 0.929 . S
C135 C136 1.398 . S
C135 C137 1.396 . S
C136 C135 1.398 . S
C136 C140 1.407 . S
C137 C135 1.396 . S
C137 C138 1.394 . S
C138 H133 0.929 . S
C138 C137 1.394 . S
C138 C139 1.382 . S
C139 C138 1.382 . S
C139 C140 1.392 . S
C139 N141 1.420 . S
C140 H134 0.930 . S
C140 C136 1.407 . S
C140 C139 1.392 . S
N141 C139 1.420 . S
N141 C142 1.244 . S
C142 N141 1.244 . S
H143 C146 0.929 . S
H144 C149 0.929 . S
H145 C151 0.930 . S
C146 H143 0.929 . S
C146 C147 1.398 . S
C146 C148 1.396 . S
C147 C146 1.398 . S
C147 C151 1.407 . S
C148 C146 1.396 . S
C148 C149 1.394 . S
C149 H144 0.929 . S
C149 C148 1.394 . S
C149 C150 1.382 . S
C150 C149 1.382 . S
C150 C151 1.392 . S
C150 N152 1.420 . S
C151 H145 0.930 . S
C151 C147 1.407 . S
C151 C150 1.392 . S
N152 C150 1.420 . S
N152 C153 1.244 . S
C153 N152 1.244 . S
H154 C157 0.929 . S
H155 C160 0.929 . S
H156 C162 0.930 . S
C157 H154 0.929 . S
C157 C158 1.398 . S
C157 C159 1.396 . S
C158 C157 1.398 . S
C158 C162 1.407 . S
C159 C157 1.396 . S
C159 C160 1.394 . S
C160 H155 0.929 . S
C160 C159 1.394 . S
C160 C161 1.382 . S
C161 C160 1.382 . S
C161 C162 1.392 . S
C161 N163 1.420 . S
C162 H156 0.930 . S
C162 C158 1.407 . S
C162 C161 1.392 . S
N163 C161 1.420 . S
N163 C164 1.244 . S
C164 N163 1.244 . S
H165 C168 0.929 . S
H166 C171 0.929 . S
H167 C173 0.930 . S
C168 H165 0.929 . S
C168 C169 1.398 . S
C168 C170 1.396 . S
C169 C168 1.398 . S
C169 C173 1.407 . S
C170 C168 1.396 . S
C170 C171 1.394 . S
C171 H166 0.929 . S
C171 C170 1.394 . S
C171 C172 1.382 . S
C172 C171 1.382 . S
C172 C173 1.392 . S
C172 N174 1.420 . S
C173 H167 0.930 . S
C173 C169 1.407 . S
C173 C172 1.392 . S
N174 C172 1.420 . S
N174 C175 1.244 . S
C175 N174 1.244 . S
H176 C179 0.929 . S
H177 C182 0.929 . S
H178 C184 0.930 . S
C179 H176 0.929 . S
C179 C180 1.398 . S
C179 C181 1.396 . S
C180 C179 1.398 . S
C180 C184 1.407 . S
C181 C179 1.396 . S
C181 C182 1.394 . S
C182 H177 0.929 . S
C182 C181 1.394 . S
C182 C183 1.382 . S
C183 C182 1.382 . S
C183 C184 1.392 . S
C183 N185 1.420 . S
C184 H178 0.930 . S
C184 C180 1.407 . S
C184 C183 1.392 . S
N185 C183 1.420 . S
N185 C186 1.244 . S
C186 N185 1.244 . S
H187 C190 0.929 . S
H188 C193 0.929 . S
H189 C195 0.930 . S
C190 H187 0.929 . S
C190 C191 1.398 . S
C190 C192 1.396 . S
C191 C190 1.398 . S
C191 C195 1.407 . S
C192 C190 1.396 . S
C192 C193 1.394 . S
C193 H188 0.929 . S
C193 C192 1.394 . S
C193 C194 1.382 . S
C194 C193 1.382 . S
C194 C195 1.392 . S
C194 N196 1.420 . S
C195 H189 0.930 . S
C195 C191 1.407 . S
C195 C194 1.392 . S
N196 C194 1.420 . S
N196 C197 1.244 . S
C197 N196 1.244 . S
Eu198 N229 2.657 . S
Eu198 N236 2.609 . S
Eu198 O242 2.558 . S
Eu198 O243 2.612 1_566 S
Eu198 O245 2.339 1_565 S
Eu198 O246 2.563 1_565 S
Eu198 O247 2.419 1_565 S
Eu198 O249 2.380 1_556 S
Eu198 O250 2.432 . S
Eu198 C262 2.848 . S
C199 C202 1.429 . S
C199 C203 1.411 . S
C199 N206 1.377 . S
C200 C202 1.420 . S
C200 C204 1.423 . S
C200 C212 1.392 . S
C201 C203 1.420 . S
C201 C204 1.351 . S
C201 H224 0.931 . S
C202 C199 1.429 . S
C202 C200 1.420 . S
C202 N210 1.362 . S
C203 C199 1.411 . S
C203 C201 1.420 . S
C203 C208 1.395 . S
C204 C200 1.423 . S
C204 C201 1.351 . S
C204 H216 0.930 . S
C205 C207 1.400 . S
C205 C208 1.386 . S
C205 H217 0.930 . S
N206 C199 1.377 . S
N206 C207 1.321 . S
N206 Eu209 2.609 . S
C207 C205 1.400 . S
C207 N206 1.321 . S
C207 H214 0.930 . S
C208 C203 1.395 . S
C208 C205 1.386 . S
C208 H227 0.930 . S
Eu209 N206 2.609 . S
Eu209 N210 2.657 . S
Eu209 O243 2.380 . S
Eu209 O244 2.432 . S
Eu209 O248 2.558 . S
Eu209 O249 2.612 1_545 S
Eu209 O251 2.339 1_545 S
Eu209 O252 2.563 1_545 S
Eu209 O253 2.419 1_545 S
Eu209 C273 2.848 . S
N210 C202 1.362 . S
N210 Eu209 2.657 . S
N210 C211 1.334 . S
C211 N210 1.334 . S
C211 C213 1.413 . S
C211 H218 0.929 . S
C212 C200 1.392 . S
C212 C213 1.367 . S
C212 H220 0.930 . S
C213 C211 1.413 . S
C213 C212 1.367 . S
C213 H215 0.930 . S
H214 C207 0.930 . S
H215 C213 0.930 . S
H216 C204 0.930 . S
H217 C205 0.930 . S
H218 C211 0.929 . S
H219 C233 0.930 . S
H220 C212 0.930 . S
H221 C239 0.930 . S
H222 C230 0.929 . S
H223 C237 0.930 . S
H224 C201 0.931 . S
H225 C231 0.930 . S
H226 C264 0.930 . S
H227 C208 0.930 . S
H228 C263 0.931 . S
N229 Eu198 2.657 . S
N229 C230 1.334 . S
N229 C234 1.362 . S
C230 H222 0.929 . S
C230 N229 1.334 . S
C230 C233 1.413 . S
C231 H225 0.930 . S
C231 C232 1.392 . S
C231 C233 1.367 . S
C232 C231 1.392 . S
C232 C234 1.420 . S
C232 C264 1.423 . S
C233 H219 0.930 . S
C233 C230 1.413 . S
C233 C231 1.367 . S
C234 N229 1.362 . S
C234 C232 1.420 . S
C234 C238 1.429 . S
H235 C240 0.930 . S
N236 Eu198 2.609 . S
N236 C238 1.377 . S
N236 C239 1.321 . S
C237 H223 0.930 . S
C237 C239 1.400 . S
C237 C240 1.386 . S
C238 C234 1.429 . S
C238 N236 1.377 . S
C238 C241 1.411 . S
C239 H221 0.930 . S
C239 N236 1.321 . S
C239 C237 1.400 . S
C240 H235 0.930 . S
C240 C237 1.386 . S
C240 C241 1.395 . S
C241 C238 1.411 . S
C241 C240 1.395 . S
C241 C263 1.420 . S
O242 Eu198 2.558 . S
O242 C262 1.257 . S
O243 Eu198 2.612 1_544 S
O243 Eu209 2.380 . S
O243 C254 1.276 1_554 S
O244 Eu209 2.432 . S
O244 C261 1.218 1_554 S
O245 Eu198 2.339 1_545 S
O245 C261 1.286 . S
O246 Eu198 2.563 1_545 S
O246 C254 1.235 . S
O247 Eu198 2.419 1_545 S
O247 C262 1.249 1_545 S
O248 Eu209 2.558 . S
O248 C273 1.257 . S
O249 Eu198 2.380 1_554 S
O249 Eu209 2.612 1_565 S
O249 C265 1.276 . S
O250 Eu198 2.432 . S
O250 C272 1.264 1_556 S
O251 Eu209 2.339 1_565 S
O251 C272 1.254 . S
O252 Eu209 2.563 1_565 S
O252 C265 1.235 . S
O253 Eu209 2.419 1_565 S
O253 C273 1.249 1_565 S
C254 O243 1.276 1_556 S
C254 O246 1.235 . S
C255 C257 1.393 . S
C255 C259 1.395 1_545 S
C255 C262 1.492 1_545 S
C256 C257 1.392 . S
C256 C258 1.386 . S
C257 C255 1.393 . S
C257 C256 1.392 . S
C257 H274 0.930 . S
C258 C256 1.386 . S
C258 C260 1.395 1_545 S
C258 H275 0.930 . S
C259 C255 1.395 1_565 S
C259 C260 1.379 . S
C259 H276 0.930 . S
C260 C258 1.395 1_565 S
C260 C259 1.379 . S
C260 H277 0.930 . S
C261 O244 1.218 1_556 S
C261 O245 1.286 . S
C262 Eu198 2.848 . S
C262 O242 1.257 . S
C262 O247 1.249 1_565 S
C262 C255 1.492 1_565 S
C263 H228 0.931 . S
C263 C241 1.420 . S
C263 C264 1.351 . S
C264 H226 0.930 . S
C264 C232 1.423 . S
C264 C263 1.351 . S
C265 O249 1.276 . S
C265 O252 1.235 . S
C266 C267 1.390 . S
C266 C270 1.397 1_565 S
C266 C273 1.492 1_565 S
C267 C266 1.390 . S
C267 C268 1.392 . S
C267 H278 0.930 . S
C268 C267 1.392 . S
C268 C269 1.386 . S
C269 C268 1.386 . S
C269 C271 1.395 1_565 S
C269 H279 0.930 . S
C270 C266 1.397 1_545 S
C270 C271 1.379 . S
C270 H280 0.930 . S
C271 C269 1.395 1_545 S
C271 C270 1.379 . S
C271 H281 0.930 . S
C272 O250 1.264 1_554 S
C272 O251 1.254 . S
C273 Eu209 2.848 . S
C273 O248 1.257 . S
C273 O253 1.249 1_545 S
C273 C266 1.492 1_545 S
H274 C257 0.930 . S
H275 C258 0.930 . S
H276 C259 0.930 . S
H277 C260 0.930 . S
H278 C267 0.930 . S
H279 C269 0.930 . S
H280 C270 0.930 . S
H281 C271 0.930 . S
Eu282 N313 2.657 . S
Eu282 N320 2.609 . S
Eu282 O326 2.558 . S
Eu282 O327 2.612 1_456 S
Eu282 O329 2.339 1_455 S
Eu282 O330 2.563 1_455 S
Eu282 O331 2.412 1_455 S
Eu282 O333 2.380 1_556 S
Eu282 O334 2.432 . S
Eu282 C346 2.848 . S
C283 C286 1.429 . S
C283 C287 1.411 . S
C283 N290 1.377 . S
C284 C286 1.420 . S
C284 C288 1.423 . S
C284 C296 1.392 . S
C285 C287 1.420 . S
C285 C288 1.351 . S
C285 H308 0.931 . S
C286 C283 1.429 . S
C286 C284 1.420 . S
C286 N294 1.362 . S
C287 C283 1.411 . S
C287 C285 1.420 . S
C287 C292 1.395 . S
C288 C284 1.423 . S
C288 C285 1.351 . S
C288 H300 0.930 . S
C289 C291 1.400 . S
C289 C292 1.386 . S
C289 H301 0.930 . S
N290 C283 1.377 . S
N290 C291 1.321 . S
N290 Eu293 2.609 . S
C291 C289 1.400 . S
C291 N290 1.321 . S
C291 H298 0.930 . S
C292 C287 1.395 . S
C292 C289 1.386 . S
C292 H311 0.930 . S
Eu293 N290 2.609 . S
Eu293 N294 2.657 . S
Eu293 O327 2.380 . S
Eu293 O328 2.432 . S
Eu293 O332 2.558 . S
Eu293 O333 2.612 1_655 S
Eu293 O335 2.339 1_655 S
Eu293 O336 2.563 1_655 S
Eu293 O337 2.419 1_655 S
Eu293 C357 2.848 . S
N294 C286 1.362 . S
N294 Eu293 2.657 . S
N294 C295 1.334 . S
C295 N294 1.334 . S
C295 C297 1.413 . S
C295 H302 0.929 . S
C296 C284 1.392 . S
C296 C297 1.367 . S
C296 H304 0.930 . S
C297 C295 1.413 . S
C297 C296 1.367 . S
C297 H299 0.930 . S
H298 C291 0.930 . S
H299 C297 0.930 . S
H300 C288 0.930 . S
H301 C289 0.930 . S
H302 C295 0.929 . S
H303 C317 0.930 . S
H304 C296 0.930 . S
H305 C323 0.930 . S
H306 C314 0.929 . S
H307 C321 0.930 . S
H308 C285 0.931 . S
H309 C315 0.930 . S
H310 C348 0.930 . S
H311 C292 0.930 . S
H312 C347 0.931 . S
N313 Eu282 2.657 . S
N313 C314 1.334 . S
N313 C318 1.362 . S
C314 H306 0.929 . S
C314 N313 1.334 . S
C314 C317 1.413 . S
C315 H309 0.930 . S
C315 C316 1.392 . S
C315 C317 1.367 . S
C316 C315 1.392 . S
C316 C318 1.420 . S
C316 C348 1.423 . S
C317 H303 0.930 . S
C317 C314 1.413 . S
C317 C315 1.367 . S
C318 N313 1.362 . S
C318 C316 1.420 . S
C318 C322 1.429 . S
H319 C324 0.930 . S
N320 Eu282 2.609 . S
N320 C322 1.377 . S
N320 C323 1.321 . S
C321 H307 0.930 . S
C321 C323 1.400 . S
C321 C324 1.386 . S
C322 C318 1.429 . S
C322 N320 1.377 . S
C322 C325 1.411 . S
C323 H305 0.930 . S
C323 N320 1.321 . S
C323 C321 1.400 . S
C324 H319 0.930 . S
C324 C321 1.386 . S
C324 C325 1.395 . S
C325 C322 1.411 . S
C325 C324 1.395 . S
C325 C347 1.420 . S
O326 Eu282 2.558 . S
O326 C346 1.257 . S
O327 Eu282 2.612 1_654 S
O327 Eu293 2.380 . S
O327 C338 1.276 1_554 S
O328 Eu293 2.432 . S
O328 C345 1.264 1_554 S
O329 Eu282 2.339 1_655 S
O329 C345 1.254 . S
O330 Eu282 2.563 1_655 S
O330 C338 1.235 . S
O331 Eu282 2.412 1_655 S
O331 C346 1.252 1_655 S
O332 Eu293 2.558 . S
O332 C357 1.257 . S
O333 Eu282 2.380 1_554 S
O333 Eu293 2.612 1_455 S
O333 C349 1.276 . S
O334 Eu282 2.432 . S
O334 C356 1.264 1_556 S
O335 Eu293 2.339 1_455 S
O335 C356 1.254 . S
O336 Eu293 2.563 1_455 S
O336 C349 1.235 . S
O337 Eu293 2.419 1_455 S
O337 C357 1.249 1_455 S
C338 O327 1.276 1_556 S
C338 O330 1.235 . S
C339 C341 1.393 1_455 S
C339 C343 1.395 . S
C339 C346 1.492 . S
C340 C341 1.392 . S
C340 C342 1.386 . S
C341 C339 1.393 1_655 S
C341 C340 1.392 . S
C341 H358 0.930 . S
C342 C340 1.386 . S
C342 C344 1.395 1_655 S
C342 H359 0.930 . S
C343 C339 1.395 . S
C343 C344 1.379 . S
C343 H360 0.930 . S
C344 C342 1.395 1_455 S
C344 C343 1.379 . S
C344 H361 0.930 . S
C345 O328 1.264 1_556 S
C345 O329 1.254 . S
C346 Eu282 2.848 . S
C346 O326 1.257 . S
C346 O331 1.252 1_455 S
C346 C339 1.492 . S
C347 H312 0.931 . S
C347 C325 1.420 . S
C347 C348 1.351 . S
C348 H310 0.930 . S
C348 C316 1.423 . S
C348 C347 1.351 . S
C349 O333 1.276 . S
C349 O336 1.235 . S
C350 C351 1.393 . S
C350 C354 1.395 1_455 S
C350 C357 1.492 1_455 S
C351 C350 1.393 . S
C351 C352 1.392 . S
C351 H362 0.930 . S
C352 C351 1.392 . S
C352 C353 1.386 . S
C353 C352 1.386 . S
C353 C355 1.395 1_455 S
C353 H363 0.930 . S
C354 C350 1.395 1_655 S
C354 C355 1.379 . S
C354 H364 0.930 . S
C355 C353 1.395 1_655 S
C355 C354 1.379 . S
C355 H365 0.930 . S
C356 O334 1.264 1_554 S
C356 O335 1.254 . S
C357 Eu293 2.848 . S
C357 O332 1.257 . S
C357 O337 1.249 1_655 S
C357 C350 1.492 1_655 S
H358 C341 0.930 . S
H359 C342 0.930 . S
H360 C343 0.930 . S
H361 C344 0.930 . S
H362 C351 0.930 . S
H363 C353 0.930 . S
H364 C354 0.930 . S
H365 C355 0.930 . S
Eu366 N397 2.657 . S
Eu366 N404 2.609 . S
Eu366 O410 2.558 . S
Eu366 O411 2.612 . S
Eu366 O413 2.339 . S
Eu366 O414 2.563 . S
Eu366 O415 2.419 . S
Eu366 O417 2.380 . S
Eu366 O418 2.432 . S
Eu366 C430 2.848 . S
C367 C370 1.429 . S
C367 C371 1.411 . S
C367 N374 1.377 . S
C368 C370 1.420 . S
C368 C372 1.423 . S
C368 C380 1.392 . S
C369 C371 1.420 . S
C369 C372 1.351 . S
C369 H392 0.931 . S
C370 C367 1.429 . S
C370 C368 1.420 . S
C370 N378 1.362 . S
C371 C367 1.411 . S
C371 C369 1.420 . S
C371 C376 1.395 . S
C372 C368 1.423 . S
C372 C369 1.351 . S
C372 H384 0.930 . S
C373 C375 1.400 . S
C373 C376 1.386 . S
C373 H385 0.930 . S
N374 C367 1.377 . S
N374 C375 1.321 . S
N374 Eu377 2.609 . S
C375 C373 1.400 . S
C375 N374 1.321 . S
C375 H382 0.930 . S
C376 C371 1.395 . S
C376 C373 1.386 . S
C376 H395 0.930 . S
Eu377 N374 2.609 . S
Eu377 N378 2.657 . S
Eu377 O411 2.380 1_556 S
Eu377 O412 2.432 . S
Eu377 O416 2.558 . S
Eu377 O417 2.612 1_556 S
Eu377 O419 2.339 . S
Eu377 O420 2.563 . S
Eu377 O421 2.419 . S
Eu377 C441 2.848 . S
N378 C370 1.362 . S
N378 Eu377 2.657 . S
N378 C379 1.334 . S
C379 N378 1.334 . S
C379 C381 1.413 . S
C379 H386 0.929 . S
C380 C368 1.392 . S
C380 C381 1.367 . S
C380 H388 0.930 . S
C381 C379 1.413 . S
C381 C380 1.367 . S
C381 H383 0.930 . S
H382 C375 0.930 . S
H383 C381 0.930 . S
H384 C372 0.930 . S
H385 C373 0.930 . S
H386 C379 0.929 . S
H387 C401 0.930 . S
H388 C380 0.930 . S
H389 C407 0.930 . S
H390 C398 0.929 . S
H391 C405 0.930 . S
H392 C369 0.931 . S
H393 C399 0.930 . S
H394 C432 0.930 . S
H395 C376 0.930 . S
H396 C431 0.931 . S
N397 Eu366 2.657 . S
N397 C398 1.334 . S
N397 C402 1.362 . S
C398 H390 0.929 . S
C398 N397 1.334 . S
C398 C401 1.413 . S
C399 H393 0.930 . S
C399 C400 1.392 . S
C399 C401 1.367 . S
C400 C399 1.392 . S
C400 C402 1.420 . S
C400 C432 1.423 . S
C401 H387 0.930 . S
C401 C398 1.413 . S
C401 C399 1.367 . S
C402 N397 1.362 . S
C402 C400 1.420 . S
C402 C406 1.429 . S
H403 C408 0.930 . S
N404 Eu366 2.609 . S
N404 C406 1.377 . S
N404 C407 1.321 . S
C405 H391 0.930 . S
C405 C407 1.400 . S
C405 C408 1.386 . S
C406 C402 1.429 . S
C406 N404 1.377 . S
C406 C409 1.411 . S
C407 H389 0.930 . S
C407 N404 1.321 . S
C407 C405 1.400 . S
C408 H403 0.930 . S
C408 C405 1.386 . S
C408 C409 1.395 . S
C409 C406 1.411 . S
C409 C408 1.395 . S
C409 C431 1.420 . S
O410 Eu366 2.558 . S
O410 C430 1.257 . S
O411 Eu366 2.612 . S
O411 Eu377 2.380 1_554 S
O411 C422 1.276 . S
O412 Eu377 2.432 . S
O412 C429 1.264 1_556 S
O413 Eu366 2.339 . S
O413 C429 1.254 . S
O414 Eu366 2.563 . S
O414 C422 1.235 . S
O415 Eu366 2.419 . S
O415 C430 1.249 . S
O416 Eu377 2.558 . S
O416 C441 1.257 . S
O417 Eu366 2.380 . S
O417 Eu377 2.612 1_554 S
O417 C433 1.276 1_554 S
O418 Eu366 2.432 . S
O418 C440 1.245 1_554 S
O419 Eu377 2.339 . S
O419 C440 1.267 . S
O420 Eu377 2.563 . S
O420 C433 1.235 . S
O421 Eu377 2.419 . S
O421 C441 1.249 . S
C422 O411 1.276 . S
C422 O414 1.235 . S
C423 C425 1.393 . S
C423 C427 1.395 . S
C423 C430 1.492 . S
C424 C425 1.392 . S
C424 C426 1.386 . S
C425 C423 1.393 . S
C425 C424 1.392 . S
C425 H442 0.930 . S
C426 C424 1.386 . S
C426 C428 1.395 . S
C426 H443 0.930 . S
C427 C423 1.395 . S
C427 C428 1.379 . S
C427 H444 0.930 . S
C428 C426 1.395 . S
C428 C427 1.379 . S
C428 H445 0.930 . S
C429 O412 1.264 1_554 S
C429 O413 1.254 . S
C430 Eu366 2.848 . S
C430 O410 1.257 . S
C430 O415 1.249 . S
C430 C423 1.492 . S
C431 H396 0.931 . S
C431 C409 1.420 . S
C431 C432 1.351 . S
C432 H394 0.930 . S
C432 C400 1.423 . S
C432 C431 1.351 . S
C433 O417 1.276 1_556 S
C433 O420 1.235 . S
C434 C435 1.393 . S
C434 C438 1.395 . S
C434 C441 1.492 . S
C435 C434 1.393 . S
C435 C436 1.392 . S
C435 H446 0.930 . S
C436 C435 1.392 . S
C436 C437 1.386 . S
C437 C436 1.386 . S
C437 C439 1.395 . S
C437 H447 0.930 . S
C438 C434 1.395 . S
C438 C439 1.379 . S
C438 H448 0.930 . S
C439 C437 1.395 . S
C439 C438 1.379 . S
C439 H449 0.930 . S
C440 O418 1.245 1_556 S
C440 O419 1.267 . S
C441 Eu377 2.848 . S
C441 O416 1.257 . S
C441 O421 1.249 . S
C441 C434 1.492 . S
H442 C425 0.930 . S
H443 C426 0.930 . S
H444 C427 0.930 . S
H445 C428 0.930 . S
H446 C435 0.930 . S
H447 C437 0.930 . S
H448 C438 0.930 . S
H449 C439 0.930 . S
Eu450 N481 2.657 . S
Eu450 N488 2.609 . S
Eu450 O494 2.558 . S
Eu450 O495 2.612 . S
Eu450 O497 2.339 . S
Eu450 O498 2.563 . S
Eu450 O499 2.419 . S
Eu450 O501 2.380 . S
Eu450 O502 2.432 . S
Eu450 C514 2.848 . S
C451 C454 1.429 . S
C451 C455 1.411 . S
C451 N458 1.377 . S
C452 C454 1.420 . S
C452 C456 1.423 . S
C452 C464 1.392 . S
C453 C455 1.420 . S
C453 C456 1.351 . S
C453 H476 0.931 . S
C454 C451 1.429 . S
C454 C452 1.420 . S
C454 N462 1.362 . S
C455 C451 1.411 . S
C455 C453 1.420 . S
C455 C460 1.395 . S
C456 C452 1.423 . S
C456 C453 1.351 . S
C456 H468 0.930 . S
C457 C459 1.400 . S
C457 C460 1.386 . S
C457 H469 0.930 . S
N458 C451 1.377 . S
N458 C459 1.321 . S
N458 Eu461 2.609 . S
C459 C457 1.400 . S
C459 N458 1.321 . S
C459 H466 0.930 . S
C460 C455 1.395 . S
C460 C457 1.386 . S
C460 H479 0.930 . S
Eu461 N458 2.609 . S
Eu461 N462 2.657 . S
Eu461 O495 2.380 . S
Eu461 O496 2.432 . S
Eu461 O500 2.558 . S
Eu461 O501 2.612 . S
Eu461 O503 2.339 . S
Eu461 O504 2.563 . S
Eu461 O505 2.419 . S
Eu461 C525 2.848 . S
N462 C454 1.362 . S
N462 Eu461 2.657 . S
N462 C463 1.334 . S
C463 N462 1.334 . S
C463 C465 1.413 . S
C463 H470 0.929 . S
C464 C452 1.392 . S
C464 C465 1.367 . S
C464 H472 0.930 . S
C465 C463 1.413 . S
C465 C464 1.367 . S
C465 H467 0.930 . S
H466 C459 0.930 . S
H467 C465 0.930 . S
H468 C456 0.930 . S
H469 C457 0.930 . S
H470 C463 0.929 . S
H471 C485 0.930 . S
H472 C464 0.930 . S
H473 C491 0.930 . S
H474 C482 0.929 . S
H475 C489 0.930 . S
H476 C453 0.931 . S
H477 C483 0.963 . S
H478 C516 0.913 1_655 S
H479 C460 0.930 . S
H480 C515 0.931 . S
N481 Eu450 2.657 . S
N481 C482 1.334 . S
N481 C486 1.362 . S
C482 H474 0.929 . S
C482 N481 1.334 . S
C482 C485 1.413 . S
C483 H477 0.963 . S
C483 C484 1.360 1_655 S
C483 C485 1.366 1_655 S
C484 C483 1.360 1_455 S
C484 C486 1.420 . S
C484 C516 1.423 . S
C485 H471 0.930 . S
C485 C482 1.413 . S
C485 C483 1.366 1_455 S
C486 N481 1.362 . S
C486 C484 1.420 . S
C486 C490 1.429 . S
H487 C492 0.930 . S
N488 Eu450 2.609 . S
N488 C490 1.377 . S
N488 C491 1.321 . S
C489 H475 0.930 . S
C489 C491 1.400 . S
C489 C492 1.386 . S
C490 C486 1.429 . S
C490 N488 1.377 . S
C490 C493 1.411 . S
C491 H473 0.930 . S
C491 N488 1.321 . S
C491 C489 1.400 . S
C492 H487 0.930 . S
C492 C489 1.386 . S
C492 C493 1.395 . S
C493 C490 1.411 . S
C493 C492 1.395 . S
C493 C515 1.420 . S
O494 Eu450 2.558 . S
O494 C514 1.257 . S
O495 Eu450 2.612 . S
O495 Eu461 2.380 . S
O495 C506 1.276 . S
O496 Eu461 2.432 . S
O496 C513 1.264 . S
O497 Eu450 2.339 . S
O497 C513 1.254 . S
O498 Eu450 2.563 . S
O498 C506 1.235 . S
O499 Eu450 2.419 . S
O499 C514 1.249 . S
O500 Eu461 2.558 . S
O500 C525 1.257 . S
O501 Eu450 2.380 . S
O501 Eu461 2.612 . S
O501 C517 1.276 . S
O502 Eu450 2.432 . S
O502 C524 1.264 . S
O503 Eu461 2.339 . S
O503 C524 1.254 . S
O504 Eu461 2.563 . S
O504 C517 1.235 . S
O505 Eu461 2.419 . S
O505 C525 1.249 . S
C506 O495 1.276 . S
C506 O498 1.235 . S
C507 C509 1.393 . S
C507 C511 1.395 . S
C507 C514 1.492 . S
C508 C509 1.392 . S
C508 C510 1.386 . S
C509 C507 1.393 . S
C509 C508 1.392 . S
C509 H526 0.930 . S
C510 C508 1.386 . S
C510 C512 1.395 . S
C510 H527 0.930 . S
C511 C507 1.395 . S
C511 C512 1.379 . S
C511 H528 0.930 . S
C512 C510 1.395 . S
C512 C511 1.379 . S
C512 H529 0.930 . S
C513 O496 1.264 . S
C513 O497 1.254 . S
C514 Eu450 2.848 . S
C514 O494 1.257 . S
C514 O499 1.249 . S
C514 C507 1.492 . S
C515 H480 0.931 . S
C515 C493 1.420 . S
C515 C516 1.367 . S
C516 H478 0.913 1_455 S
C516 C484 1.423 . S
C516 C515 1.367 . S
C517 O501 1.276 . S
C517 O504 1.235 . S
C518 C519 1.393 . S
C518 C522 1.395 . S
C518 C525 1.492 . S
C519 C518 1.393 . S
C519 C520 1.392 . S
C519 H530 0.930 . S
C520 C519 1.392 . S
C520 C521 1.386 . S
C521 C520 1.386 . S
C521 C523 1.395 . S
C521 H531 0.930 . S
C522 C518 1.395 . S
C522 C523 1.379 . S
C522 H532 0.930 . S
C523 C521 1.395 . S
C523 C522 1.379 . S
C523 H533 0.930 . S
C524 O502 1.264 . S
C524 O503 1.254 . S
C525 Eu461 2.848 . S
C525 O500 1.257 . S
C525 O505 1.249 . S
C525 C518 1.492 . S
H526 C509 0.930 . S
H527 C510 0.930 . S
H528 C511 0.930 . S
H529 C512 0.930 . S
H530 C519 0.930 . S
H531 C521 0.930 . S
H532 C522 0.930 . S
H533 C523 0.930 . S
Eu534 N565 2.657 . S
Eu534 N572 2.609 . S
Eu534 O578 2.558 . S
Eu534 O579 2.612 . S
Eu534 O581 2.339 . S
Eu534 O582 2.563 . S
Eu534 O583 2.419 . S
Eu534 O585 2.380 . S
Eu534 O586 2.432 . S
Eu534 C598 2.848 . S
C535 C538 1.429 . S
C535 C539 1.411 . S
C535 N542 1.377 . S
C536 C538 1.420 . S
C536 C540 1.423 . S
C536 C548 1.392 . S
C537 C539 1.420 . S
C537 C540 1.351 . S
C537 H560 0.931 . S
C538 C535 1.429 . S
C538 C536 1.420 . S
C538 N546 1.362 . S
C539 C535 1.411 . S
C539 C537 1.420 . S
C539 C544 1.395 . S
C540 C536 1.423 . S
C540 C537 1.351 . S
C540 H552 0.930 . S
C541 C543 1.400 . S
C541 C544 1.386 . S
C541 H553 0.930 . S
N542 C535 1.377 . S
N542 C543 1.321 . S
N542 Eu545 2.609 . S
C543 C541 1.400 . S
C543 N542 1.321 . S
C543 H550 0.930 . S
C544 C539 1.395 . S
C544 C541 1.386 . S
C544 H563 0.930 . S
Eu545 N542 2.609 . S
Eu545 N546 2.657 . S
Eu545 O579 2.380 . S
Eu545 O580 2.432 . S
Eu545 O584 2.558 . S
Eu545 O585 2.612 . S
Eu545 O587 2.339 . S
Eu545 O588 2.563 . S
Eu545 O589 2.419 . S
Eu545 C609 2.848 . S
N546 C538 1.362 . S
N546 Eu545 2.657 . S
N546 C547 1.334 . S
C547 N546 1.334 . S
C547 C549 1.413 . S
C547 H554 0.929 . S
C548 C536 1.392 . S
C548 C549 1.367 . S
C548 H556 0.930 . S
C549 C547 1.413 . S
C549 C548 1.367 . S
C549 H551 0.930 . S
H550 C543 0.930 . S
H551 C549 0.930 . S
H552 C540 0.930 . S
H553 C541 0.930 . S
H554 C547 0.929 . S
H555 C569 0.930 . S
H556 C548 0.930 . S
H557 C575 0.930 . S
H558 C566 0.929 . S
H559 C573 0.930 . S
H560 C537 0.931 . S
H561 C567 0.930 . S
H562 C600 0.930 . S
H563 C544 0.930 . S
H564 C599 0.931 . S
N565 Eu534 2.657 . S
N565 C566 1.334 . S
N565 C570 1.362 . S
C566 H558 0.929 . S
C566 N565 1.334 . S
C566 C569 1.413 . S
C567 H561 0.930 . S
C567 C568 1.392 . S
C567 C569 1.367 . S
C568 C567 1.392 . S
C568 C570 1.420 . S
C568 C600 1.423 . S
C569 H555 0.930 . S
C569 C566 1.413 . S
C569 C567 1.367 . S
C570 N565 1.362 . S
C570 C568 1.420 . S
C570 C574 1.429 . S
H571 C576 0.930 . S
N572 Eu534 2.609 . S
N572 C574 1.377 . S
N572 C575 1.321 . S
C573 H559 0.930 . S
C573 C575 1.400 . S
C573 C576 1.386 . S
C574 C570 1.429 . S
C574 N572 1.377 . S
C574 C577 1.411 . S
C575 H557 0.930 . S
C575 N572 1.321 . S
C575 C573 1.400 . S
C576 H571 0.930 . S
C576 C573 1.386 . S
C576 C577 1.395 . S
C577 C574 1.411 . S
C577 C576 1.395 . S
C577 C599 1.420 . S
O578 Eu534 2.558 . S
O578 C598 1.257 . S
O579 Eu534 2.612 . S
O579 Eu545 2.380 . S
O579 C590 1.276 . S
O580 Eu545 2.432 . S
O580 C597 1.264 . S
O581 Eu534 2.339 . S
O581 C597 1.254 . S
O582 Eu534 2.563 . S
O582 C590 1.235 . S
O583 Eu534 2.419 . S
O583 C598 1.249 . S
O584 Eu545 2.558 . S
O584 C609 1.257 . S
O585 Eu534 2.380 . S
O585 Eu545 2.612 . S
O585 C601 1.276 . S
O586 Eu534 2.432 . S
O586 C608 1.264 . S
O587 Eu545 2.339 . S
O587 C608 1.254 . S
O588 Eu545 2.563 . S
O588 C601 1.235 . S
O589 Eu545 2.419 . S
O589 C609 1.249 . S
C590 O579 1.276 . S
C590 O582 1.235 . S
C591 C593 1.393 . S
C591 C595 1.395 . S
C591 C598 1.492 . S
C592 C593 1.392 . S
C592 C594 1.386 . S
C593 C591 1.393 . S
C593 C592 1.392 . S
C593 H610 0.930 . S
C594 C592 1.386 . S
C594 C596 1.395 . S
C594 H611 0.930 . S
C595 C591 1.395 . S
C595 C596 1.379 . S
C595 H612 0.930 . S
C596 C594 1.395 . S
C596 C595 1.379 . S
C596 H613 0.930 . S
C597 O580 1.264 . S
C597 O581 1.254 . S
C598 Eu534 2.848 . S
C598 O578 1.257 . S
C598 O583 1.249 . S
C598 C591 1.492 . S
C599 H564 0.931 . S
C599 C577 1.420 . S
C599 C600 1.351 . S
C600 H562 0.930 . S
C600 C568 1.423 . S
C600 C599 1.351 . S
C601 O585 1.276 . S
C601 O588 1.235 . S
C602 C603 1.393 . S
C602 C606 1.395 . S
C602 C609 1.492 . S
C603 C602 1.393 . S
C603 C604 1.392 . S
C603 H614 0.930 . S
C604 C603 1.392 . S
C604 C605 1.386 . S
C605 C604 1.386 . S
C605 C607 1.395 . S
C605 H615 0.930 . S
C606 C602 1.395 . S
C606 C607 1.379 . S
C606 H616 0.930 . S
C607 C605 1.395 . S
C607 C606 1.379 . S
C607 H617 0.930 . S
C608 O586 1.264 . S
C608 O587 1.254 . S
C609 Eu545 2.848 . S
C609 O584 1.257 . S
C609 O589 1.249 . S
C609 C602 1.492 . S
H610 C593 0.930 . S
H611 C594 0.930 . S
H612 C595 0.930 . S
H613 C596 0.930 . S
H614 C603 0.930 . S
H615 C605 0.930 . S
H616 C606 0.930 . S
H617 C607 0.930 . S
Eu618 N649 2.657 . S
Eu618 N656 2.609 . S
Eu618 O662 2.558 . S
Eu618 O663 2.612 . S
Eu618 O665 2.339 . S
Eu618 O666 2.563 . S
Eu618 O667 2.419 . S
Eu618 O669 2.380 . S
Eu618 O670 2.432 . S
Eu618 C682 2.848 . S
C619 C622 1.429 . S
C619 C623 1.411 . S
C619 N626 1.377 . S
C620 C622 1.420 . S
C620 C624 1.423 . S
C620 C632 1.392 . S
C621 C623 1.420 . S
C621 C624 1.351 . S
C621 H644 0.931 . S
C622 C619 1.429 . S
C622 C620 1.420 . S
C622 N630 1.362 . S
C623 C619 1.411 . S
C623 C621 1.420 . S
C623 C628 1.395 . S
C624 C620 1.423 . S
C624 C621 1.351 . S
C624 H636 0.930 . S
C625 C627 1.400 . S
C625 C628 1.386 . S
C625 H637 0.930 . S
N626 C619 1.377 . S
N626 C627 1.321 . S
N626 Eu629 2.609 . S
C627 C625 1.400 . S
C627 N626 1.321 . S
C627 H634 0.930 . S
C628 C623 1.395 . S
C628 C625 1.386 . S
C628 H647 0.930 . S
Eu629 N626 2.609 . S
Eu629 N630 2.657 . S
Eu629 O663 2.380 . S
Eu629 O664 2.432 . S
Eu629 O668 2.558 . S
Eu629 O669 2.612 . S
Eu629 O671 2.339 . S
Eu629 O672 2.563 . S
Eu629 O673 2.419 . S
Eu629 C693 2.848 . S
N630 C622 1.362 . S
N630 Eu629 2.657 . S
N630 C631 1.334 . S
C631 N630 1.334 . S
C631 C633 1.413 . S
C631 H638 0.929 . S
C632 C620 1.392 . S
C632 C633 1.367 . S
C632 H640 0.930 . S
C633 C631 1.413 . S
C633 C632 1.367 . S
C633 H635 0.930 . S
H634 C627 0.930 . S
H635 C633 0.930 . S
H636 C624 0.930 . S
H637 C625 0.930 . S
H638 C631 0.929 . S
H639 C653 0.930 . S
H640 C632 0.930 . S
H641 C659 0.930 . S
H642 C650 0.929 . S
H643 C657 0.930 . S
H644 C621 0.931 . S
H645 C651 0.930 . S
H646 C684 0.930 . S
H647 C628 0.930 . S
H648 C683 0.931 . S
N649 Eu618 2.657 . S
N649 C650 1.334 . S
N649 C654 1.362 . S
C650 H642 0.929 . S
C650 N649 1.334 . S
C650 C653 1.413 . S
C651 H645 0.930 . S
C651 C652 1.392 . S
C651 C653 1.367 . S
C652 C651 1.392 . S
C652 C654 1.420 . S
C652 C684 1.423 . S
C653 H639 0.930 . S
C653 C650 1.413 . S
C653 C651 1.367 . S
C654 N649 1.362 . S
C654 C652 1.420 . S
C654 C658 1.429 . S
H655 C660 0.930 . S
N656 Eu618 2.609 . S
N656 C658 1.377 . S
N656 C659 1.321 . S
C657 H643 0.930 . S
C657 C659 1.400 . S
C657 C660 1.386 . S
C658 C654 1.429 . S
C658 N656 1.377 . S
C658 C661 1.411 . S
C659 H641 0.930 . S
C659 N656 1.321 . S
C659 C657 1.400 . S
C660 H655 0.930 . S
C660 C657 1.386 . S
C660 C661 1.395 . S
C661 C658 1.411 . S
C661 C660 1.395 . S
C661 C683 1.420 . S
O662 Eu618 2.558 . S
O662 C682 1.257 . S
O663 Eu618 2.612 . S
O663 Eu629 2.380 . S
O663 C674 1.276 . S
O664 Eu629 2.432 . S
O664 C681 1.264 . S
O665 Eu618 2.339 . S
O665 C681 1.254 . S
O666 Eu618 2.563 . S
O666 C674 1.235 . S
O667 Eu618 2.419 . S
O667 C682 1.249 . S
O668 Eu629 2.558 . S
O668 C693 1.257 . S
O669 Eu618 2.380 . S
O669 Eu629 2.612 . S
O669 C685 1.276 . S
O670 Eu618 2.432 . S
O670 C692 1.264 . S
O671 Eu629 2.339 . S
O671 C692 1.254 . S
O672 Eu629 2.563 . S
O672 C685 1.235 . S
O673 Eu629 2.419 . S
O673 C693 1.249 . S
C674 O663 1.276 . S
C674 O666 1.235 . S
C675 C677 1.393 . S
C675 C679 1.395 . S
C675 C682 1.492 . S
C676 C677 1.392 . S
C676 C678 1.386 . S
C677 C675 1.393 . S
C677 C676 1.392 . S
C677 H694 0.930 . S
C678 C676 1.386 . S
C678 C680 1.395 . S
C678 H695 0.930 . S
C679 C675 1.395 . S
C679 C680 1.379 . S
C679 H696 0.930 . S
C680 C678 1.395 . S
C680 C679 1.379 . S
C680 H697 0.930 . S
C681 O664 1.264 . S
C681 O665 1.254 . S
C682 Eu618 2.848 . S
C682 O662 1.257 . S
C682 O667 1.249 . S
C682 C675 1.492 . S
C683 H648 0.931 . S
C683 C661 1.420 . S
C683 C684 1.351 . S
C684 H646 0.930 . S
C684 C652 1.423 . S
C684 C683 1.351 . S
C685 O669 1.276 . S
C685 O672 1.235 . S
C686 C687 1.393 . S
C686 C690 1.395 . S
C686 C693 1.492 . S
C687 C686 1.393 . S
C687 C688 1.392 . S
C687 H698 0.930 . S
C688 C687 1.392 . S
C688 C689 1.386 . S
C689 C688 1.386 . S
C689 C691 1.395 . S
C689 H699 0.930 . S
C690 C686 1.395 . S
C690 C691 1.379 . S
C690 H700 0.930 . S
C691 C689 1.395 . S
C691 C690 1.379 . S
C691 H701 0.930 . S
C692 O670 1.264 . S
C692 O671 1.254 . S
C693 Eu629 2.848 . S
C693 O668 1.257 . S
C693 O673 1.249 . S
C693 C686 1.492 . S
H694 C677 0.930 . S
H695 C678 0.930 . S
H696 C679 0.930 . S
H697 C680 0.930 . S
H698 C687 0.930 . S
H699 C689 0.930 . S
H700 C690 0.930 . S
H701 C691 0.930 . S
Eu702 N733 2.657 . S
Eu702 N740 2.609 . S
Eu702 O746 2.558 . S
Eu702 O747 2.612 . S
Eu702 O749 2.339 . S
Eu702 O750 2.563 . S
Eu702 O751 2.419 . S
Eu702 O753 2.380 . S
Eu702 O754 2.432 . S
Eu702 C766 2.848 . S
C703 C706 1.429 . S
C703 C707 1.411 . S
C703 N710 1.377 . S
C704 C706 1.420 . S
C704 C708 1.423 . S
C704 C716 1.392 . S
C705 C707 1.420 . S
C705 C708 1.351 . S
C705 H728 0.931 . S
C706 C703 1.429 . S
C706 C704 1.420 . S
C706 N714 1.362 . S
C707 C703 1.411 . S
C707 C705 1.420 . S
C707 C712 1.395 . S
C708 C704 1.423 . S
C708 C705 1.351 . S
C708 H720 0.930 . S
C709 C711 1.400 . S
C709 C712 1.386 . S
C709 H721 0.930 . S
N710 C703 1.377 . S
N710 C711 1.321 . S
N710 Eu713 2.609 . S
C711 C709 1.400 . S
C711 N710 1.321 . S
C711 H718 0.930 . S
C712 C707 1.395 . S
C712 C709 1.386 . S
C712 H731 0.930 . S
Eu713 N710 2.609 . S
Eu713 N714 2.657 . S
Eu713 O747 2.380 . S
Eu713 O748 2.432 . S
Eu713 O752 2.558 . S
Eu713 O753 2.612 . S
Eu713 O755 2.339 . S
Eu713 O756 2.563 . S
Eu713 O757 2.419 . S
Eu713 C777 2.848 . S
N714 C706 1.362 . S
N714 Eu713 2.657 . S
N714 C715 1.334 . S
C715 N714 1.334 . S
C715 C717 1.413 . S
C715 H722 0.929 . S
C716 C704 1.392 . S
C716 C717 1.367 . S
C716 H724 0.930 . S
C717 C715 1.413 . S
C717 C716 1.367 . S
C717 H719 0.930 . S
H718 C711 0.930 . S
H719 C717 0.930 . S
H720 C708 0.930 . S
H721 C709 0.930 . S
H722 C715 0.929 . S
H723 C737 0.930 . S
H724 C716 0.930 . S
H725 C743 0.930 . S
H726 C734 0.929 . S
H727 C741 0.930 . S
H728 C705 0.931 . S
H729 C735 0.930 . S
H730 C768 0.930 . S
H731 C712 0.930 . S
H732 C767 0.931 . S
N733 Eu702 2.657 . S
N733 C734 1.334 . S
N733 C738 1.362 . S
C734 H726 0.929 . S
C734 N733 1.334 . S
C734 C737 1.413 . S
C735 H729 0.930 . S
C735 C736 1.392 . S
C735 C737 1.367 . S
C736 C735 1.392 . S
C736 C738 1.420 . S
C736 C768 1.423 . S
C737 H723 0.930 . S
C737 C734 1.413 . S
C737 C735 1.367 . S
C738 N733 1.362 . S
C738 C736 1.420 . S
C738 C742 1.429 . S
H739 C744 0.930 . S
N740 Eu702 2.609 . S
N740 C742 1.377 . S
N740 C743 1.321 . S
C741 H727 0.930 . S
C741 C743 1.400 . S
C741 C744 1.386 . S
C742 C738 1.429 . S
C742 N740 1.377 . S
C742 C745 1.411 . S
C743 H725 0.930 . S
C743 N740 1.321 . S
C743 C741 1.400 . S
C744 H739 0.930 . S
C744 C741 1.386 . S
C744 C745 1.395 . S
C745 C742 1.411 . S
C745 C744 1.395 . S
C745 C767 1.420 . S
O746 Eu702 2.558 . S
O746 C766 1.257 . S
O747 Eu702 2.612 . S
O747 Eu713 2.380 . S
O747 C758 1.276 . S
O748 Eu713 2.432 . S
O748 C765 1.264 . S
O749 Eu702 2.339 . S
O749 C765 1.254 . S
O750 Eu702 2.563 . S
O750 C758 1.235 . S
O751 Eu702 2.419 . S
O751 C766 1.249 . S
O752 Eu713 2.558 . S
O752 C777 1.257 . S
O753 Eu702 2.380 . S
O753 Eu713 2.612 . S
O753 C769 1.276 . S
O754 Eu702 2.432 . S
O754 C776 1.264 . S
O755 Eu713 2.339 . S
O755 C776 1.254 . S
O756 Eu713 2.563 . S
O756 C769 1.235 . S
O757 Eu713 2.419 . S
O757 C777 1.249 . S
C758 O747 1.276 . S
C758 O750 1.235 . S
C759 C761 1.393 . S
C759 C763 1.395 . S
C759 C766 1.492 . S
C760 C761 1.392 . S
C760 C762 1.386 . S
C761 C759 1.393 . S
C761 C760 1.392 . S
C761 H778 0.930 . S
C762 C760 1.386 . S
C762 C764 1.395 . S
C762 H779 0.930 . S
C763 C759 1.395 . S
C763 C764 1.379 . S
C763 H780 0.930 . S
C764 C762 1.395 . S
C764 C763 1.379 . S
C764 H781 0.930 . S
C765 O748 1.264 . S
C765 O749 1.254 . S
C766 Eu702 2.848 . S
C766 O746 1.257 . S
C766 O751 1.249 . S
C766 C759 1.492 . S
C767 H732 0.931 . S
C767 C745 1.420 . S
C767 C768 1.351 . S
C768 H730 0.930 . S
C768 C736 1.423 . S
C768 C767 1.351 . S
C769 O753 1.276 . S
C769 O756 1.235 . S
C770 C771 1.393 . S
C770 C774 1.395 . S
C770 C777 1.492 . S
C771 C770 1.393 . S
C771 C772 1.392 . S
C771 H782 0.930 . S
C772 C771 1.392 . S
C772 C773 1.386 . S
C773 C772 1.386 . S
C773 C775 1.395 . S
C773 H783 0.930 . S
C774 C770 1.395 . S
C774 C775 1.379 . S
C774 H784 0.930 . S
C775 C773 1.395 . S
C775 C774 1.379 . S
C775 H785 0.930 . S
C776 O754 1.264 . S
C776 O755 1.254 . S
C777 Eu713 2.848 . S
C777 O752 1.257 . S
C777 O757 1.249 . S
C777 C770 1.492 . S
H778 C761 0.930 . S
H779 C762 0.930 . S
H780 C763 0.930 . S
H781 C764 0.930 . S
H782 C771 0.930 . S
H783 C773 0.930 . S
H784 C774 0.930 . S
H785 C775 0.930 . S
Eu786 N817 2.657 . S
Eu786 N824 2.609 . S
Eu786 O830 2.558 . S
Eu786 O831 2.612 . S
Eu786 O833 2.339 . S
Eu786 O834 2.563 . S
Eu786 O835 2.419 . S
Eu786 O837 2.380 . S
Eu786 O838 2.432 . S
Eu786 C850 2.848 . S
C787 C790 1.429 . S
C787 C791 1.411 . S
C787 N794 1.377 . S
C788 C790 1.420 . S
C788 C792 1.423 . S
C788 C800 1.392 . S
C789 C791 1.420 . S
C789 C792 1.351 . S
C789 H812 0.931 . S
C790 C787 1.429 . S
C790 C788 1.420 . S
C790 N798 1.362 . S
C791 C787 1.411 . S
C791 C789 1.420 . S
C791 C796 1.395 . S
C792 C788 1.423 . S
C792 C789 1.351 . S
C792 H804 0.930 . S
C793 C795 1.400 . S
C793 C796 1.386 . S
C793 H805 0.930 . S
N794 C787 1.377 . S
N794 C795 1.321 . S
N794 Eu797 2.609 . S
C795 C793 1.400 . S
C795 N794 1.321 . S
C795 H802 0.930 . S
C796 C791 1.395 . S
C796 C793 1.386 . S
C796 H815 0.930 . S
Eu797 N794 2.609 . S
Eu797 N798 2.657 . S
Eu797 O831 2.380 . S
Eu797 O832 2.432 . S
Eu797 O836 2.558 . S
Eu797 O837 2.612 . S
Eu797 O839 2.339 . S
Eu797 O840 2.563 . S
Eu797 O841 2.419 . S
Eu797 C861 2.848 . S
N798 C790 1.362 . S
N798 Eu797 2.657 . S
N798 C799 1.334 . S
C799 N798 1.334 . S
C799 C801 1.413 . S
C799 H806 0.929 . S
C800 C788 1.392 . S
C800 C801 1.367 . S
C800 H808 0.930 . S
C801 C799 1.413 . S
C801 C800 1.367 . S
C801 H803 0.930 . S
H802 C795 0.930 . S
H803 C801 0.930 . S
H804 C792 0.930 . S
H805 C793 0.930 . S
H806 C799 0.929 . S
H807 C821 0.930 . S
H808 C800 0.930 . S
H809 C827 0.930 . S
H810 C818 0.929 . S
H811 C825 0.930 . S
H812 C789 0.931 . S
H813 C819 0.930 . S
H814 C852 0.930 . S
H815 C796 0.930 . S
H816 C851 0.931 . S
N817 Eu786 2.657 . S
N817 C818 1.334 . S
N817 C822 1.362 . S
C818 H810 0.929 . S
C818 N817 1.334 . S
C818 C821 1.413 . S
C819 H813 0.930 . S
C819 C820 1.392 . S
C819 C821 1.367 . S
C820 C819 1.392 . S
C820 C822 1.420 . S
C820 C852 1.423 . S
C821 H807 0.930 . S
C821 C818 1.413 . S
C821 C819 1.367 . S
C822 N817 1.362 . S
C822 C820 1.420 . S
C822 C826 1.429 . S
H823 C828 0.930 . S
N824 Eu786 2.609 . S
N824 C826 1.377 . S
N824 C827 1.321 . S
C825 H811 0.930 . S
C825 C827 1.400 . S
C825 C828 1.386 . S
C826 C822 1.429 . S
C826 N824 1.377 . S
C826 C829 1.411 . S
C827 H809 0.930 . S
C827 N824 1.321 . S
C827 C825 1.400 . S
C828 H823 0.930 . S
C828 C825 1.386 . S
C828 C829 1.395 . S
C829 C826 1.411 . S
C829 C828 1.395 . S
C829 C851 1.420 . S
O830 Eu786 2.558 . S
O830 C850 1.257 . S
O831 Eu786 2.612 . S
O831 Eu797 2.380 . S
O831 C842 1.276 . S
O832 Eu797 2.432 . S
O832 C849 1.264 . S
O833 Eu786 2.339 . S
O833 C849 1.254 . S
O834 Eu786 2.563 . S
O834 C842 1.235 . S
O835 Eu786 2.419 . S
O835 C850 1.249 . S
O836 Eu797 2.558 . S
O836 C861 1.257 . S
O837 Eu786 2.380 . S
O837 Eu797 2.612 . S
O837 C853 1.276 . S
O838 Eu786 2.432 . S
O838 C860 1.264 . S
O839 Eu797 2.339 . S
O839 C860 1.254 . S
O840 Eu797 2.563 . S
O840 C853 1.235 . S
O841 Eu797 2.419 . S
O841 C861 1.249 . S
C842 O831 1.276 . S
C842 O834 1.235 . S
C843 C845 1.393 . S
C843 C847 1.395 . S
C843 C850 1.492 . S
C844 C845 1.392 . S
C844 C846 1.386 . S
C845 C843 1.393 . S
C845 C844 1.392 . S
C845 H862 0.930 . S
C846 C844 1.386 . S
C846 C848 1.395 . S
C846 H863 0.930 . S
C847 C843 1.395 . S
C847 C848 1.379 . S
C847 H864 0.930 . S
C848 C846 1.395 . S
C848 C847 1.379 . S
C848 H865 0.930 . S
C849 O832 1.264 . S
C849 O833 1.254 . S
C850 Eu786 2.848 . S
C850 O830 1.257 . S
C850 O835 1.249 . S
C850 C843 1.492 . S
C851 H816 0.931 . S
C851 C829 1.420 . S
C851 C852 1.351 . S
C852 H814 0.930 . S
C852 C820 1.423 . S
C852 C851 1.351 . S
C853 O837 1.276 . S
C853 O840 1.235 . S
C854 C855 1.393 . S
C854 C858 1.395 . S
C854 C861 1.492 . S
C855 C854 1.393 . S
C855 C856 1.392 . S
C855 H866 0.930 . S
C856 C855 1.392 . S
C856 C857 1.386 . S
C857 C856 1.386 . S
C857 C859 1.395 . S
C857 H867 0.930 . S
C858 C854 1.395 . S
C858 C859 1.379 . S
C858 H868 0.930 . S
C859 C857 1.395 . S
C859 C858 1.379 . S
C859 H869 0.930 . S
C860 O838 1.264 . S
C860 O839 1.254 . S
C861 Eu797 2.848 . S
C861 O836 1.257 . S
C861 O841 1.249 . S
C861 C854 1.492 . S
H862 C845 0.930 . S
H863 C846 0.930 . S
H864 C847 0.930 . S
H865 C848 0.930 . S
H866 C855 0.930 . S
H867 C857 0.930 . S
H868 C858 0.930 . S
H869 C859 0.930 . S
Eu870 N901 2.657 . S
Eu870 N908 2.609 . S
Eu870 O914 2.558 . S
Eu870 O915 2.612 . S
Eu870 O917 2.339 . S
Eu870 O918 2.563 . S
Eu870 O919 2.419 . S
Eu870 O921 2.380 . S
Eu870 O922 2.432 . S
Eu870 C934 2.848 . S
C871 C874 1.429 . S
C871 C875 1.411 . S
C871 N878 1.377 . S
C872 C874 1.420 . S
C872 C876 1.423 . S
C872 C884 1.392 . S
C873 C875 1.420 . S
C873 C876 1.351 . S
C873 H896 0.931 . S
C874 C871 1.429 . S
C874 C872 1.420 . S
C874 N882 1.362 . S
C875 C871 1.411 . S
C875 C873 1.420 . S
C875 C880 1.395 . S
C876 C872 1.423 . S
C876 C873 1.351 . S
C876 H888 0.930 . S
C877 C879 1.400 . S
C877 C880 1.386 . S
C877 H889 0.930 . S
N878 C871 1.377 . S
N878 C879 1.321 . S
N878 Eu881 2.609 . S
C879 C877 1.400 . S
C879 N878 1.321 . S
C879 H886 0.930 . S
C880 C875 1.395 . S
C880 C877 1.386 . S
C880 H899 0.930 . S
Eu881 N878 2.609 . S
Eu881 N882 2.657 . S
Eu881 O915 2.380 . S
Eu881 O916 2.432 . S
Eu881 O920 2.558 . S
Eu881 O921 2.612 . S
Eu881 O923 2.339 . S
Eu881 O924 2.563 . S
Eu881 O925 2.419 . S
Eu881 C945 2.848 . S
N882 C874 1.362 . S
N882 Eu881 2.657 . S
N882 C883 1.334 . S
C883 N882 1.334 . S
C883 C885 1.413 . S
C883 H890 0.929 . S
C884 C872 1.392 . S
C884 C885 1.367 . S
C884 H892 0.930 . S
C885 C883 1.413 . S
C885 C884 1.367 . S
C885 H887 0.930 . S
H886 C879 0.930 . S
H887 C885 0.930 . S
H888 C876 0.930 . S
H889 C877 0.930 . S
H890 C883 0.929 . S
H891 C905 0.930 1_455 S
H892 C884 0.930 . S
H893 C911 0.930 . S
H894 C902 0.929 . S
H895 C909 0.930 . S
H896 C873 0.931 . S
H897 C903 0.930 . S
H898 C936 0.930 . S
H899 C880 0.930 . S
H900 C935 0.930 1_455 S
N901 Eu870 2.657 . S
N901 C902 1.334 . S
N901 C906 1.362 . S
C902 H894 0.929 . S
C902 N901 1.334 . S
C902 C905 1.413 . S
C903 H897 0.930 . S
C903 C904 1.392 1_455 S
C903 C905 1.367 1_455 S
C904 C903 1.392 1_655 S
C904 C906 1.420 . S
C904 C936 1.423 1_655 S
C905 H891 0.930 1_655 S
C905 C902 1.413 . S
C905 C903 1.367 1_655 S
C906 N901 1.362 . S
C906 C904 1.420 . S
C906 C910 1.429 . S
H907 C912 0.930 . S
N908 Eu870 2.609 . S
N908 C910 1.377 . S
N908 C911 1.321 . S
C909 H895 0.930 . S
C909 C911 1.400 . S
C909 C912 1.386 . S
C910 C906 1.429 . S
C910 N908 1.377 . S
C910 C913 1.411 . S
C911 H893 0.930 . S
C911 N908 1.321 . S
C911 C909 1.400 . S
C912 H907 0.930 . S
C912 C909 1.386 . S
C912 C913 1.395 . S
C913 C910 1.411 . S
C913 C912 1.395 . S
C913 C935 1.420 . S
O914 Eu870 2.558 . S
O914 C934 1.257 . S
O915 Eu870 2.612 . S
O915 Eu881 2.380 . S
O915 C926 1.276 . S
O916 Eu881 2.432 . S
O916 C933 1.264 . S
O917 Eu870 2.339 . S
O917 C933 1.254 . S
O918 Eu870 2.563 . S
O918 C926 1.235 . S
O919 Eu870 2.419 . S
O919 C934 1.249 . S
O920 Eu881 2.558 . S
O920 C945 1.257 . S
O921 Eu870 2.380 . S
O921 Eu881 2.612 . S
O921 C937 1.276 . S
O922 Eu870 2.432 . S
O922 C944 1.264 . S
O923 Eu881 2.339 . S
O923 C944 1.254 . S
O924 Eu881 2.563 . S
O924 C937 1.235 . S
O925 Eu881 2.419 . S
O925 C945 1.249 . S
C926 O915 1.276 . S
C926 O918 1.235 . S
C927 C929 1.393 . S
C927 C931 1.395 . S
C927 C934 1.492 . S
C928 C929 1.392 . S
C928 C930 1.386 . S
C929 C927 1.393 . S
C929 C928 1.392 . S
C929 H946 0.930 . S
C930 C928 1.386 . S
C930 C932 1.395 . S
C930 H947 0.930 . S
C931 C927 1.395 . S
C931 C932 1.379 . S
C931 H948 0.930 . S
C932 C930 1.395 . S
C932 C931 1.379 . S
C932 H949 0.930 . S
C933 O916 1.264 . S
C933 O917 1.254 . S
C934 Eu870 2.848 . S
C934 O914 1.257 . S
C934 O919 1.249 . S
C934 C927 1.492 . S
C935 H900 0.930 1_655 S
C935 C913 1.420 . S
C935 C936 1.351 1_655 S
C936 H898 0.930 . S
C936 C904 1.423 1_455 S
C936 C935 1.351 1_455 S
C937 O921 1.276 . S
C937 O924 1.235 . S
C938 C939 1.393 . S
C938 C942 1.395 . S
C938 C945 1.492 . S
C939 C938 1.393 . S
C939 C940 1.392 . S
C939 H950 0.930 . S
C940 C939 1.392 . S
C940 C941 1.386 . S
C941 C940 1.386 . S
C941 C943 1.395 . S
C941 H951 0.930 . S
C942 C938 1.395 . S
C942 C943 1.379 . S
C942 H952 0.930 . S
C943 C941 1.395 . S
C943 C942 1.379 . S
C943 H953 0.930 . S
C944 O922 1.264 . S
C944 O923 1.254 . S
C945 Eu881 2.848 . S
C945 O920 1.257 . S
C945 O925 1.249 . S
C945 C938 1.492 . S
H946 C929 0.930 . S
H947 C930 0.930 . S
H948 C931 0.930 . S
H949 C932 0.930 . S
H950 C939 0.930 . S
H951 C941 0.930 . S
H952 C942 0.930 . S
H953 C943 0.930 . S
H954 C960 0.930 . S
H955 C963 0.930 . S
H956 C964 0.930 . S
H957 C965 0.930 . S
H958 C968 0.930 1_556 S
H959 C969 0.930 . S
C960 H954 0.930 . S
C960 C961 1.355 . S
C960 C962 1.415 . S
C961 C960 1.355 . S
C961 C963 1.419 . S
C962 C960 1.415 . S
C962 C967 1.425 . S
C962 C969 1.409 . S
C963 H955 0.930 . S
C963 C961 1.419 . S
C963 C964 1.362 . S
C964 H956 0.930 . S
C964 C963 1.362 . S
C964 C967 1.409 . S
C965 H957 0.930 . S
C965 C966 1.355 . S
C965 C967 1.415 . S
C966 C965 1.355 . S
C966 C968 1.419 . S
C967 C962 1.425 . S
C967 C964 1.409 . S
C967 C965 1.415 . S
C968 H958 0.930 1_554 S
C968 C966 1.419 . S
C968 C969 1.362 . S
C969 H959 0.930 . S
C969 C962 1.409 . S
C969 C968 1.362 . S
H970 C976 0.930 . S
H971 C979 0.930 . S
H972 C980 0.930 . S
H973 C981 0.930 . S
H974 C984 0.930 1_556 S
H975 C985 0.929 1_556 S
C976 H970 0.930 . S
C976 C977 1.355 . S
C976 C978 1.415 . S
C977 C976 1.355 . S
C977 C979 1.419 . S
C978 C976 1.415 . S
C978 C983 1.425 . S
C978 C985 1.409 . S
C979 H971 0.930 . S
C979 C977 1.419 . S
C979 C980 1.362 . S
C980 H972 0.930 . S
C980 C979 1.362 . S
C980 C983 1.409 . S
C981 H973 0.930 . S
C981 C982 1.355 . S
C981 C983 1.415 . S
C982 C981 1.355 . S
C982 C984 1.419 . S
C983 C978 1.425 . S
C983 C980 1.409 . S
C983 C981 1.415 . S
C984 H974 0.930 1_554 S
C984 C982 1.419 . S
C984 C985 1.362 . S
C985 H975 0.929 1_554 S
C985 C978 1.409 . S
C985 C984 1.362 . S
H986 C992 0.930 . S
H987 C995 0.930 . S
H988 C996 0.930 . S
H989 C997 0.930 . S
H990 C1000 0.930 . S
H991 C1001 0.930 . S
C992 H986 0.930 . S
C992 C993 1.355 . S
C992 C994 1.415 . S
C993 C992 1.355 . S
C993 C995 1.419 . S
C994 C992 1.415 . S
C994 C999 1.425 . S
C994 C1001 1.409 . S
C995 H987 0.930 . S
C995 C993 1.419 . S
C995 C996 1.362 . S
C996 H988 0.930 . S
C996 C995 1.362 . S
C996 C999 1.409 . S
C997 H989 0.930 . S
C997 C998 1.355 . S
C997 C999 1.415 . S
C998 C997 1.355 . S
C998 C1000 1.419 . S
C999 C994 1.425 . S
C999 C996 1.409 . S
C999 C997 1.415 . S
C1000 H990 0.930 . S
C1000 C998 1.419 . S
C1000 C1001 1.362 . S
C1001 H991 0.930 . S
C1001 C994 1.409 . S
C1001 C1000 1.362 . S
H1002 C1008 0.930 . S
H1003 C1011 0.930 . S
H1004 C1012 0.930 . S
H1005 C1013 0.930 . S
H1006 C1016 0.930 . S
H1007 C1017 0.930 . S
C1008 H1002 0.930 . S
C1008 C1009 1.355 . S
C1008 C1010 1.415 . S
C1009 C1008 1.355 . S
C1009 C1011 1.419 . S
C1010 C1008 1.415 . S
C1010 C1015 1.425 . S
C1010 C1017 1.409 1_556 S
C1011 H1003 0.930 . S
C1011 C1009 1.419 . S
C1011 C1012 1.362 . S
C1012 H1004 0.930 . S
C1012 C1011 1.362 . S
C1012 C1015 1.409 . S
C1013 H1005 0.930 . S
C1013 C1014 1.355 . S
C1013 C1015 1.415 . S
C1014 C1013 1.355 . S
C1014 C1016 1.419 1_556 S
C1015 C1010 1.425 . S
C1015 C1012 1.409 . S
C1015 C1013 1.415 . S
C1016 H1006 0.930 . S
C1016 C1014 1.419 1_554 S
C1016 C1017 1.362 . S
C1017 H1007 0.930 . S
C1017 C1010 1.409 1_554 S
C1017 C1016 1.362 . S
H1018 C1024 0.930 . S
H1019 C1027 0.930 . S
H1020 C1028 0.956 . S
H1021 C1029 0.930 1_554 S
H1022 C1032 0.930 . S
H1023 C1033 0.930 . S
C1024 H1018 0.930 . S
C1024 C1025 1.355 . S
C1024 C1026 1.415 . S
C1025 C1024 1.355 . S
C1025 C1027 1.419 . S
C1026 C1024 1.415 . S
C1026 C1031 1.425 . S
C1026 C1033 1.409 . S
C1027 H1019 0.930 . S
C1027 C1025 1.419 . S
C1027 C1028 1.362 . S
C1028 H1020 0.956 . S
C1028 C1027 1.362 . S
C1028 C1031 1.409 . S
C1029 H1021 0.930 1_556 S
C1029 C1030 1.355 . S
C1029 C1031 1.415 . S
C1030 C1029 1.355 . S
C1030 C1032 1.419 . S
C1031 C1026 1.425 . S
C1031 C1028 1.409 . S
C1031 C1029 1.415 . S
C1032 H1022 0.930 . S
C1032 C1030 1.419 . S
C1032 C1033 1.362 . S
C1033 H1023 0.930 . S
C1033 C1026 1.409 . S
C1033 C1032 1.362 . S
H1034 C1040 0.930 . S
H1035 C1043 0.930 . S
H1036 C1044 0.930 . S
H1037 C1045 0.930 . S
H1038 C1048 0.930 . S
H1039 C1049 0.956 . S
C1040 H1034 0.930 . S
C1040 C1041 1.355 . S
C1040 C1042 1.415 . S
C1041 C1040 1.355 . S
C1041 C1043 1.419 . S
C1042 C1040 1.415 . S
C1042 C1047 1.425 . S
C1042 C1049 1.377 1_556 S
C1043 H1035 0.930 . S
C1043 C1041 1.419 . S
C1043 C1044 1.362 . S
C1044 H1036 0.930 . S
C1044 C1043 1.362 . S
C1044 C1047 1.409 . S
C1045 H1037 0.930 . S
C1045 C1046 1.355 . S
C1045 C1047 1.415 . S
C1046 C1045 1.355 . S
C1046 C1048 1.419 1_556 S
C1047 C1042 1.425 . S
C1047 C1044 1.409 . S
C1047 C1045 1.415 . S
C1048 H1038 0.930 . S
C1048 C1046 1.419 1_554 S
C1048 C1049 1.371 . S
C1049 H1039 0.956 . S
C1049 C1042 1.377 1_554 S
C1049 C1048 1.371 . S
H1050 C1056 0.930 . S
H1051 C1059 0.930 . S
H1052 C1060 0.930 . S
H1053 C1061 0.930 . S
H1054 C1064 0.930 . S
H1055 C1065 0.930 . S
C1056 H1050 0.930 . S
C1056 C1057 1.355 . S
C1056 C1058 1.415 . S
C1057 C1056 1.355 . S
C1057 C1059 1.419 . S
C1058 C1056 1.415 . S
C1058 C1063 1.425 . S
C1058 C1065 1.409 . S
C1059 H1051 0.930 . S
C1059 C1057 1.419 . S
C1059 C1060 1.362 . S
C1060 H1052 0.930 . S
C1060 C1059 1.362 . S
C1060 C1063 1.409 . S
C1061 H1053 0.930 . S
C1061 C1062 1.355 . S
C1061 C1063 1.415 . S
C1062 C1061 1.355 . S
C1062 C1064 1.419 . S
C1063 C1058 1.425 . S
C1063 C1060 1.409 . S
C1063 C1061 1.415 . S
C1064 H1054 0.930 . S
C1064 C1062 1.419 . S
C1064 C1065 1.362 . S
C1065 H1055 0.930 . S
C1065 C1058 1.409 . S
C1065 C1064 1.362 . S
H1066 C1072 0.930 . S
H1067 C1075 0.930 . S
H1068 C1076 0.930 . S
H1069 C1077 0.930 . S
H1070 C1080 0.930 . S
H1071 C1081 0.930 . S
C1072 H1066 0.930 . S
C1072 C1073 1.355 . S
C1072 C1074 1.415 . S
C1073 C1072 1.355 . S
C1073 C1075 1.419 . S
C1074 C1072 1.415 . S
C1074 C1079 1.425 . S
C1074 C1081 1.409 1_556 S
C1075 H1067 0.930 . S
C1075 C1073 1.419 . S
C1075 C1076 1.362 . S
C1076 H1068 0.930 . S
C1076 C1075 1.362 . S
C1076 C1079 1.409 . S
C1077 H1069 0.930 . S
C1077 C1078 1.355 . S
C1077 C1079 1.415 . S
C1078 C1077 1.355 . S
C1078 C1080 1.419 1_556 S
C1079 C1074 1.425 . S
C1079 C1076 1.409 . S
C1079 C1077 1.415 . S
C1080 H1070 0.930 . S
C1080 C1078 1.419 1_554 S
C1080 C1081 1.362 . S
C1081 H1071 0.930 . S
C1081 C1074 1.409 1_554 S
C1081 C1080 1.362 . S
H1082 C1088 0.930 . S
H1083 C1091 0.930 . S
H1084 C1092 0.930 1_554 S
H1085 C1093 0.930 1_554 S
H1086 C1096 0.930 . S
H1087 C1097 0.930 . S
C1088 H1082 0.930 . S
C1088 C1089 1.355 . S
C1088 C1090 1.415 . S
C1089 C1088 1.355 . S
C1089 C1091 1.419 . S
C1090 C1088 1.415 . S
C1090 C1095 1.425 . S
C1090 C1097 1.409 . S
C1091 H1083 0.930 . S
C1091 C1089 1.419 . S
C1091 C1092 1.362 . S
C1092 H1084 0.930 1_556 S
C1092 C1091 1.362 . S
C1092 C1095 1.409 . S
C1093 H1085 0.930 1_556 S
C1093 C1094 1.355 . S
C1093 C1095 1.415 . S
C1094 C1093 1.355 . S
C1094 C1096 1.419 . S
C1095 C1090 1.425 . S
C1095 C1092 1.409 . S
C1095 C1093 1.415 . S
C1096 H1086 0.930 . S
C1096 C1094 1.419 . S
C1096 C1097 1.362 . S
C1097 H1087 0.930 . S
C1097 C1090 1.409 . S
C1097 C1096 1.362 . S
H1098 C1104 0.930 . S
H1099 C1107 0.930 . S
H1100 C1108 0.930 . S
H1101 C1109 0.930 . S
H1102 C1112 0.930 . S
H1103 C1113 0.930 . S
C1104 H1098 0.930 . S
C1104 C1105 1.355 . S
C1104 C1106 1.415 . S
C1105 C1104 1.355 . S
C1105 C1107 1.419 . S
C1106 C1104 1.415 . S
C1106 C1111 1.425 . S
C1106 C1113 1.409 . S
C1107 H1099 0.930 . S
C1107 C1105 1.419 . S
C1107 C1108 1.362 . S
C1108 H1100 0.930 . S
C1108 C1107 1.362 . S
C1108 C1111 1.409 . S
C1109 H1101 0.930 . S
C1109 C1110 1.355 . S
C1109 C1111 1.415 . S
C1110 C1109 1.355 . S
C1110 C1112 1.419 . S
C1111 C1106 1.425 . S
C1111 C1108 1.409 . S
C1111 C1109 1.415 . S
C1112 H1102 0.930 . S
C1112 C1110 1.419 . S
C1112 C1113 1.362 . S
C1113 H1103 0.930 . S
C1113 C1106 1.409 . S
C1113 C1112 1.362 . S
H1114 C1120 0.930 . S
H1115 C1123 0.930 . S
H1116 C1124 0.930 . S
H1117 C1125 0.930 . S
H1118 C1128 0.930 . S
H1119 C1129 0.930 . S
C1120 H1114 0.930 . S
C1120 C1121 1.355 . S
C1120 C1122 1.415 . S
C1121 C1120 1.355 . S
C1121 C1123 1.419 . S
C1122 C1120 1.415 . S
C1122 C1127 1.425 . S
C1122 C1129 1.409 . S
C1123 H1115 0.930 . S
C1123 C1121 1.419 . S
C1123 C1124 1.362 . S
C1124 H1116 0.930 . S
C1124 C1123 1.362 . S
C1124 C1127 1.409 . S
C1125 H1117 0.930 . S
C1125 C1126 1.355 . S
C1125 C1127 1.415 . S
C1126 C1125 1.355 . S
C1126 C1128 1.419 . S
C1127 C1122 1.425 . S
C1127 C1124 1.409 . S
C1127 C1125 1.415 . S
C1128 H1118 0.930 . S
C1128 C1126 1.419 . S
C1128 C1129 1.362 . S
C1129 H1119 0.930 . S
C1129 C1122 1.409 . S
C1129 C1128 1.362 . S
H1130 C1136 0.930 . S
H1131 C1139 0.930 . S
H1132 C1140 0.930 . S
H1133 C1141 0.930 . S
H1134 C1144 0.930 . S
H1135 C1145 0.930 . S
C1136 H1130 0.930 . S
C1136 C1137 1.355 . S
C1136 C1138 1.415 . S
C1137 C1136 1.355 . S
C1137 C1139 1.419 . S
C1138 C1136 1.415 . S
C1138 C1143 1.425 . S
C1138 C1145 1.409 . S
C1139 H1131 0.930 . S
C1139 C1137 1.419 . S
C1139 C1140 1.362 . S
C1140 H1132 0.930 . S
C1140 C1139 1.362 . S
C1140 C1143 1.409 . S
C1141 H1133 0.930 . S
C1141 C1142 1.355 . S
C1141 C1143 1.415 . S
C1142 C1141 1.355 . S
C1142 C1144 1.419 . S
C1143 C1138 1.425 . S
C1143 C1140 1.409 . S
C1143 C1141 1.415 . S
C1144 H1134 0.930 . S
C1144 C1142 1.419 . S
C1144 C1145 1.362 . S
C1145 H1135 0.930 . S
C1145 C1138 1.409 . S
C1145 C1144 1.362 . S
H1146 C1152 0.930 . S
H1147 C1155 0.930 . S
H1148 C1156 0.930 . S
H1149 C1157 0.930 . S
H1150 C1160 0.930 . S
H1151 C1161 0.930 . S
C1152 H1146 0.930 . S
C1152 C1153 1.355 . S
C1152 C1154 1.415 . S
C1153 C1152 1.355 . S
C1153 C1155 1.419 . S
C1154 C1152 1.415 . S
C1154 C1159 1.425 1_655 S
C1154 C1161 1.409 . S
C1155 H1147 0.930 . S
C1155 C1153 1.419 . S
C1155 C1156 1.362 1_655 S
C1156 H1148 0.930 . S
C1156 C1155 1.362 1_455 S
C1156 C1159 1.409 . S
C1157 H1149 0.930 . S
C1157 C1158 1.355 . S
C1157 C1159 1.415 . S
C1158 C1157 1.355 . S
C1158 C1160 1.419 . S
C1159 C1154 1.425 1_455 S
C1159 C1156 1.409 . S
C1159 C1157 1.415 . S
C1160 H1150 0.930 . S
C1160 C1158 1.419 . S
C1160 C1161 1.362 1_455 S
C1161 H1151 0.930 . S
C1161 C1154 1.409 . S
C1161 C1160 1.362 1_655 S
H1162 C1168 0.930 . S
H1163 C1171 0.930 . S
H1164 C1172 0.930 . S
H1165 C1173 0.930 . S
H1166 C1176 0.930 . S
H1167 C1177 0.930 . S
C1168 H1162 0.930 . S
C1168 C1169 1.355 . S
C1168 C1170 1.415 . S
C1169 C1168 1.355 . S
C1169 C1171 1.419 . S
C1170 C1168 1.415 . S
C1170 C1175 1.425 . S
C1170 C1177 1.409 . S
C1171 H1163 0.930 . S
C1171 C1169 1.419 . S
C1171 C1172 1.362 . S
C1172 H1164 0.930 . S
C1172 C1171 1.362 . S
C1172 C1175 1.409 . S
C1173 H1165 0.930 . S
C1173 C1174 1.355 . S
C1173 C1175 1.415 . S
C1174 C1173 1.355 . S
C1174 C1176 1.419 . S
C1175 C1170 1.425 . S
C1175 C1172 1.409 . S
C1175 C1173 1.415 . S
C1176 H1166 0.930 . S
C1176 C1174 1.419 . S
C1176 C1177 1.362 . S
C1177 H1167 0.930 . S
C1177 C1170 1.409 . S
C1177 C1176 1.362 . S
H1178 C1184 0.930 . S
H1179 C1187 0.930 . S
H1180 C1188 0.933 . S
H1181 C1189 0.930 . S
H1182 C1192 0.930 . S
H1183 C1193 0.930 . S
C1184 H1178 0.930 . S
C1184 C1185 1.355 . S
C1184 C1186 1.415 . S
C1185 C1184 1.355 . S
C1185 C1187 1.419 . S
C1186 C1184 1.415 . S
C1186 C1191 1.425 1_545 S
C1186 C1193 1.409 . S
C1187 H1179 0.930 . S
C1187 C1185 1.419 . S
C1187 C1188 1.356 1_545 S
C1188 H1180 0.933 . S
C1188 C1187 1.356 1_565 S
C1188 C1191 1.413 . S
C1189 H1181 0.930 . S
C1189 C1190 1.355 . S
C1189 C1191 1.415 . S
C1190 C1189 1.355 . S
C1190 C1192 1.419 . S
C1191 C1186 1.425 1_565 S
C1191 C1188 1.413 . S
C1191 C1189 1.415 . S
C1192 H1182 0.930 . S
C1192 C1190 1.419 . S
C1192 C1193 1.362 1_565 S
C1193 H1183 0.930 . S
C1193 C1186 1.409 . S
C1193 C1192 1.362 1_545 S
H1194 C1200 0.930 . S
H1195 C1203 0.930 . S
H1196 C1204 0.930 . S
H1197 C1205 0.930 . S
H1198 C1208 0.930 . S
H1199 C1209 0.930 . S
C1200 H1194 0.930 . S
C1200 C1201 1.355 . S
C1200 C1202 1.415 . S
C1201 C1200 1.355 . S
C1201 C1203 1.419 . S
C1202 C1200 1.415 . S
C1202 C1207 1.425 . S
C1202 C1209 1.409 . S
C1203 H1195 0.930 . S
C1203 C1201 1.419 . S
C1203 C1204 1.362 . S
C1204 H1196 0.930 . S
C1204 C1203 1.362 . S
C1204 C1207 1.409 . S
C1205 H1197 0.930 . S
C1205 C1206 1.355 . S
C1205 C1207 1.415 . S
C1206 C1205 1.355 . S
C1206 C1208 1.419 . S
C1207 C1202 1.425 . S
C1207 C1204 1.409 . S
C1207 C1205 1.415 . S
C1208 H1198 0.930 . S
C1208 C1206 1.419 . S
C1208 C1209 1.362 . S
C1209 H1199 0.930 . S
C1209 C1202 1.409 . S
C1209 C1208 1.362 . S
H1210 C1216 0.930 . S
H1211 C1219 0.930 . S
H1212 C1220 0.930 . S
H1213 C1221 0.930 . S
H1214 C1224 0.930 . S
H1215 C1225 0.930 . S
C1216 H1210 0.930 . S
C1216 C1217 1.355 . S
C1216 C1218 1.415 . S
C1217 C1216 1.355 . S
C1217 C1219 1.419 . S
C1218 C1216 1.415 . S
C1218 C1223 1.425 . S
C1218 C1225 1.409 . S
C1219 H1211 0.930 . S
C1219 C1217 1.419 . S
C1219 C1220 1.362 . S
C1220 H1212 0.930 . S
C1220 C1219 1.362 . S
C1220 C1223 1.409 . S
C1221 H1213 0.930 . S
C1221 C1222 1.355 . S
C1221 C1223 1.415 . S
C1222 C1221 1.355 . S
C1222 C1224 1.419 . S
C1223 C1218 1.425 . S
C1223 C1220 1.409 . S
C1223 C1221 1.415 . S
C1224 H1214 0.930 . S
C1224 C1222 1.419 . S
C1224 C1225 1.362 . S
C1225 H1215 0.930 . S
C1225 C1218 1.409 . S
C1225 C1224 1.362 . S
H1226 C1232 0.930 . S
H1227 C1235 0.930 . S
H1228 C1236 0.930 . S
H1229 C1237 0.930 . S
H1230 C1240 0.930 . S
H1231 C1241 0.930 . S
C1232 H1226 0.930 . S
C1232 C1233 1.355 . S
C1232 C1234 1.415 . S
C1233 C1232 1.355 . S
C1233 C1235 1.419 . S
C1234 C1232 1.415 . S
C1234 C1239 1.425 . S
C1234 C1241 1.409 . S
C1235 H1227 0.930 . S
C1235 C1233 1.419 . S
C1235 C1236 1.362 . S
C1236 H1228 0.930 . S
C1236 C1235 1.362 . S
C1236 C1239 1.409 . S
C1237 H1229 0.930 . S
C1237 C1238 1.355 . S
C1237 C1239 1.415 . S
C1238 C1237 1.355 . S
C1238 C1240 1.419 . S
C1239 C1234 1.425 . S
C1239 C1236 1.409 . S
C1239 C1237 1.415 . S
C1240 H1230 0.930 . S
C1240 C1238 1.419 . S
C1240 C1241 1.362 . S
C1241 H1231 0.930 . S
C1241 C1234 1.409 . S
C1241 C1240 1.362 . S
H1242 C1248 0.930 . S
H1243 C1251 0.930 . S
H1244 C1252 0.930 . S
H1245 C1253 0.930 . S
H1246 C1256 0.930 . S
H1247 C1257 0.930 . S
C1248 H1242 0.930 . S
C1248 C1249 1.355 . S
C1248 C1250 1.415 . S
C1249 C1248 1.355 . S
C1249 C1251 1.419 . S
C1250 C1248 1.415 . S
C1250 C1255 1.425 . S
C1250 C1257 1.409 . S
C1251 H1243 0.930 . S
C1251 C1249 1.419 . S
C1251 C1252 1.362 . S
C1252 H1244 0.930 . S
C1252 C1251 1.362 . S
C1252 C1255 1.409 . S
C1253 H1245 0.930 . S
C1253 C1254 1.355 . S
C1253 C1255 1.415 . S
C1254 C1253 1.355 . S
C1254 C1256 1.419 . S
C1255 C1250 1.425 . S
C1255 C1252 1.409 . S
C1255 C1253 1.415 . S
C1256 H1246 0.930 . S
C1256 C1254 1.419 . S
C1256 C1257 1.362 . S
C1257 H1247 0.930 . S
C1257 C1250 1.409 . S
C1257 C1256 1.362 . S
H1258 C1264 0.930 . S
H1259 C1267 0.930 . S
H1260 C1268 0.930 . S
H1261 C1269 0.930 . S
H1262 C1272 0.930 . S
H1263 C1273 0.930 . S
C1264 H1258 0.930 . S
C1264 C1265 1.355 . S
C1264 C1266 1.415 . S
C1265 C1264 1.355 . S
C1265 C1267 1.419 . S
C1266 C1264 1.415 . S
C1266 C1271 1.425 . S
C1266 C1273 1.409 . S
C1267 H1259 0.930 . S
C1267 C1265 1.419 . S
C1267 C1268 1.362 . S
C1268 H1260 0.930 . S
C1268 C1267 1.362 . S
C1268 C1271 1.409 . S
C1269 H1261 0.930 . S
C1269 C1270 1.355 . S
C1269 C1271 1.415 . S
C1270 C1269 1.355 . S
C1270 C1272 1.419 . S
C1271 C1266 1.425 . S
C1271 C1268 1.409 . S
C1271 C1269 1.415 . S
C1272 H1262 0.930 . S
C1272 C1270 1.419 . S
C1272 C1273 1.362 . S
C1273 H1263 0.930 . S
C1273 C1266 1.409 . S
C1273 C1272 1.362 . S
H1274 C1280 0.930 . S
H1275 C1283 0.930 . S
H1276 C1284 0.930 . S
H1277 C1285 0.930 . S
H1278 C1288 0.930 . S
H1279 C1289 0.930 . S
C1280 H1274 0.930 . S
C1280 C1281 1.355 . S
C1280 C1282 1.415 . S
C1281 C1280 1.355 . S
C1281 C1283 1.419 . S
C1282 C1280 1.415 . S
C1282 C1287 1.425 . S
C1282 C1289 1.409 . S
C1283 H1275 0.930 . S
C1283 C1281 1.419 . S
C1283 C1284 1.362 . S
C1284 H1276 0.930 . S
C1284 C1283 1.362 . S
C1284 C1287 1.409 . S
C1285 H1277 0.930 . S
C1285 C1286 1.355 . S
C1285 C1287 1.415 . S
C1286 C1285 1.355 . S
C1286 C1288 1.419 . S
C1287 C1282 1.425 . S
C1287 C1284 1.409 . S
C1287 C1285 1.415 . S
C1288 H1278 0.930 . S
C1288 C1286 1.419 . S
C1288 C1289 1.362 . S
C1289 H1279 0.930 . S
C1289 C1282 1.409 . S
C1289 C1288 1.362 . S
H1290 C1296 0.922 1_545 S
H1291 C1299 0.930 1_545 S
H1292 C1300 0.930 . S
H1293 C1301 0.930 . S
H1294 C1304 0.930 . S
H1295 C1305 0.930 . S
C1296 H1290 0.922 1_565 S
C1296 C1297 1.355 1_565 S
C1296 C1298 1.415 . S
C1297 C1296 1.355 1_545 S
C1297 C1299 1.419 1_545 S
C1298 C1296 1.415 . S
C1298 C1303 1.425 . S
C1298 C1305 1.409 . S
C1299 H1291 0.930 1_565 S
C1299 C1297 1.419 1_565 S
C1299 C1300 1.362 . S
C1300 H1292 0.930 . S
C1300 C1299 1.362 . S
C1300 C1303 1.409 . S
C1301 H1293 0.930 . S
C1301 C1302 1.355 . S
C1301 C1303 1.415 . S
C1302 C1301 1.355 . S
C1302 C1304 1.419 . S
C1303 C1298 1.425 . S
C1303 C1300 1.409 . S
C1303 C1301 1.415 . S
C1304 H1294 0.930 . S
C1304 C1302 1.419 . S
C1304 C1305 1.362 . S
C1305 H1295 0.930 . S
C1305 C1298 1.409 . S
C1305 C1304 1.362 . S
H1306 C1312 0.930 . S
H1307 C1315 0.930 . S
H1308 C1316 0.930 . S
H1309 C1317 0.930 . S
H1310 C1320 0.930 . S
H1311 C1321 0.930 . S
C1312 H1306 0.930 . S
C1312 C1313 1.355 . S
C1312 C1314 1.415 . S
C1313 C1312 1.355 . S
C1313 C1315 1.419 . S
C1314 C1312 1.415 . S
C1314 C1319 1.425 . S
C1314 C1321 1.409 . S
C1315 H1307 0.930 . S
C1315 C1313 1.419 . S
C1315 C1316 1.362 . S
C1316 H1308 0.930 . S
C1316 C1315 1.362 . S
C1316 C1319 1.409 . S
C1317 H1309 0.930 . S
C1317 C1318 1.355 . S
C1317 C1319 1.415 . S
C1318 C1317 1.355 . S
C1318 C1320 1.419 . S
C1319 C1314 1.425 . S
C1319 C1316 1.409 . S
C1319 C1317 1.415 . S
C1320 H1310 0.930 . S
C1320 C1318 1.419 . S
C1320 C1321 1.362 . S
C1321 H1311 0.930 . S
C1321 C1314 1.409 . S
C1321 C1320 1.362 . S
H1322 C1328 0.930 . S
H1323 C1331 0.930 . S
H1324 C1332 0.930 . S
H1325 C1333 0.930 . S
H1326 C1336 0.930 . S
H1327 C1337 0.930 . S
C1328 H1322 0.930 . S
C1328 C1329 1.355 . S
C1328 C1330 1.415 . S
C1329 C1328 1.355 . S
C1329 C1331 1.419 . S
C1330 C1328 1.415 . S
C1330 C1335 1.425 . S
C1330 C1337 1.409 . S
C1331 H1323 0.930 . S
C1331 C1329 1.419 . S
C1331 C1332 1.362 . S
C1332 H1324 0.930 . S
C1332 C1331 1.362 . S
C1332 C1335 1.409 . S
C1333 H1325 0.930 . S
C1333 C1334 1.355 . S
C1333 C1335 1.415 . S
C1334 C1333 1.355 . S
C1334 C1336 1.419 . S
C1335 C1330 1.425 . S
C1335 C1332 1.409 . S
C1335 C1333 1.415 . S
C1336 H1326 0.930 . S
C1336 C1334 1.419 . S
C1336 C1337 1.362 . S
C1337 H1327 0.930 . S
C1337 C1330 1.409 . S
C1337 C1336 1.362 . S
H1338 C1344 0.930 . S
H1339 C1347 0.930 . S
H1340 C1348 0.930 . S
H1341 C1349 0.930 . S
H1342 C1352 0.930 . S
H1343 C1353 0.930 . S
C1344 H1338 0.930 . S
C1344 C1345 1.355 . S
C1344 C1346 1.415 . S
C1345 C1344 1.355 . S
C1345 C1347 1.419 . S
C1346 C1344 1.415 . S
C1346 C1351 1.425 . S
C1346 C1353 1.409 . S
C1347 H1339 0.930 . S
C1347 C1345 1.419 . S
C1347 C1348 1.362 . S
C1348 H1340 0.930 . S
C1348 C1347 1.362 . S
C1348 C1351 1.409 . S
C1349 H1341 0.930 . S
C1349 C1350 1.355 . S
C1349 C1351 1.415 . S
C1350 C1349 1.355 . S
C1350 C1352 1.419 . S
C1351 C1346 1.425 . S
C1351 C1348 1.409 . S
C1351 C1349 1.415 . S
C1352 H1342 0.930 . S
C1352 C1350 1.419 . S
C1352 C1353 1.362 . S
C1353 H1343 0.930 . S
C1353 C1346 1.409 . S
C1353 C1352 1.362 . S
H1354 C1360 0.930 . S
H1355 C1363 0.930 . S
H1356 C1364 0.930 . S
H1357 C1365 0.930 . S
H1358 C1368 0.930 . S
H1359 C1369 0.930 . S
C1360 H1354 0.930 . S
C1360 C1361 1.355 . S
C1360 C1362 1.415 . S
C1361 C1360 1.355 . S
C1361 C1363 1.419 . S
C1362 C1360 1.415 . S
C1362 C1367 1.425 . S
C1362 C1369 1.409 . S
C1363 H1355 0.930 . S
C1363 C1361 1.419 . S
C1363 C1364 1.362 . S
C1364 H1356 0.930 . S
C1364 C1363 1.362 . S
C1364 C1367 1.409 . S
C1365 H1357 0.930 . S
C1365 C1366 1.355 . S
C1365 C1367 1.415 . S
C1366 C1365 1.355 . S
C1366 C1368 1.419 . S
C1367 C1362 1.425 . S
C1367 C1364 1.409 . S
C1367 C1365 1.415 . S
C1368 H1358 0.930 . S
C1368 C1366 1.419 . S
C1368 C1369 1.362 . S
C1369 H1359 0.930 . S
C1369 C1362 1.409 . S
C1369 C1368 1.362 . S
H1370 C1376 0.930 . S
H1371 C1379 0.930 . S
H1372 C1380 0.930 . S
H1373 C1381 0.930 . S
H1374 C1384 0.930 . S
H1375 C1385 0.930 . S
C1376 H1370 0.930 . S
C1376 C1377 1.355 . S
C1376 C1378 1.415 . S
C1377 C1376 1.355 . S
C1377 C1379 1.419 . S
C1378 C1376 1.415 . S
C1378 C1383 1.425 . S
C1378 C1385 1.409 . S
C1379 H1371 0.930 . S
C1379 C1377 1.419 . S
C1379 C1380 1.362 . S
C1380 H1372 0.930 . S
C1380 C1379 1.362 . S
C1380 C1383 1.409 . S
C1381 H1373 0.930 . S
C1381 C1382 1.355 . S
C1381 C1383 1.415 . S
C1382 C1381 1.355 . S
C1382 C1384 1.419 . S
C1383 C1378 1.425 . S
C1383 C1380 1.409 . S
C1383 C1381 1.415 . S
C1384 H1374 0.930 . S
C1384 C1382 1.419 . S
C1384 C1385 1.362 . S
C1385 H1375 0.930 . S
C1385 C1378 1.409 . S
C1385 C1384 1.362 . S
H1386 C1392 0.930 . S
H1387 C1395 0.930 . S
H1388 C1396 0.930 1_545 S
H1389 C1397 0.930 . S
H1390 C1400 0.930 . S
H1391 C1401 0.949 . S
C1392 H1386 0.930 . S
C1392 C1393 1.355 . S
C1392 C1394 1.415 . S
C1393 C1392 1.355 . S
C1393 C1395 1.419 . S
C1394 C1392 1.415 . S
C1394 C1399 1.425 1_565 S
C1394 C1401 1.409 1_565 S
C1395 H1387 0.930 . S
C1395 C1393 1.419 . S
C1395 C1396 1.362 . S
C1396 H1388 0.930 1_565 S
C1396 C1395 1.362 . S
C1396 C1399 1.409 1_565 S
C1397 H1389 0.930 . S
C1397 C1398 1.355 . S
C1397 C1399 1.415 . S
C1398 C1397 1.355 . S
C1398 C1400 1.419 . S
C1399 C1394 1.425 1_545 S
C1399 C1396 1.409 1_545 S
C1399 C1397 1.415 . S
C1400 H1390 0.930 . S
C1400 C1398 1.419 . S
C1400 C1401 1.362 . S
C1401 H1391 0.949 . S
C1401 C1394 1.409 1_545 S
C1401 C1400 1.362 . S
H1402 C1408 0.930 . S
H1403 C1411 0.930 . S
H1404 C1412 0.930 . S
H1405 C1413 0.930 . S
H1406 C1416 0.930 . S
H1407 C1417 0.917 1_455 S
C1408 H1402 0.930 . S
C1408 C1409 1.355 . S
C1408 C1410 1.415 . S
C1409 C1408 1.355 . S
C1409 C1411 1.419 . S
C1410 C1408 1.415 . S
C1410 C1415 1.425 1_455 S
C1410 C1417 1.401 1_455 S
C1411 H1403 0.930 . S
C1411 C1409 1.419 . S
C1411 C1412 1.362 1_455 S
C1412 H1404 0.930 . S
C1412 C1411 1.362 1_655 S
C1412 C1415 1.409 . S
C1413 H1405 0.930 . S
C1413 C1414 1.355 . S
C1413 C1415 1.415 . S
C1414 C1413 1.355 . S
C1414 C1416 1.419 . S
C1415 C1410 1.425 1_655 S
C1415 C1412 1.409 . S
C1415 C1413 1.415 . S
C1416 H1406 0.930 . S
C1416 C1414 1.419 . S
C1416 C1417 1.384 . S
C1417 H1407 0.917 1_655 S
C1417 C1410 1.401 1_655 S
C1417 C1416 1.384 . S
H1418 C1424 0.930 . S
H1419 C1427 0.930 . S
H1420 C1428 0.930 . S
H1421 C1429 0.930 . S
H1422 C1432 0.930 . S
H1423 C1433 0.930 . S
C1424 H1418 0.930 . S
C1424 C1425 1.355 . S
C1424 C1426 1.415 . S
C1425 C1424 1.355 . S
C1425 C1427 1.419 . S
C1426 C1424 1.415 . S
C1426 C1431 1.425 . S
C1426 C1433 1.409 . S
C1427 H1419 0.930 . S
C1427 C1425 1.419 . S
C1427 C1428 1.362 . S
C1428 H1420 0.930 . S
C1428 C1427 1.362 . S
C1428 C1431 1.409 . S
C1429 H1421 0.930 . S
C1429 C1430 1.355 . S
C1429 C1431 1.415 . S
C1430 C1429 1.355 . S
C1430 C1432 1.419 . S
C1431 C1426 1.425 . S
C1431 C1428 1.409 . S
C1431 C1429 1.415 . S
C1432 H1422 0.930 . S
C1432 C1430 1.419 . S
C1432 C1433 1.362 . S
C1433 H1423 0.930 . S
C1433 C1426 1.409 . S
C1433 C1432 1.362 . S
H1434 C1440 0.930 . S
H1435 C1443 0.930 . S
H1436 C1444 0.930 . S
H1437 C1445 0.930 . S
H1438 C1448 0.930 . S
H1439 C1449 0.930 . S
C1440 H1434 0.930 . S
C1440 C1441 1.355 1_655 S
C1440 C1442 1.415 . S
C1441 C1440 1.355 1_455 S
C1441 C1443 1.396 1_455 S
C1442 C1440 1.415 . S
C1442 C1447 1.425 . S
C1442 C1449 1.409 . S
C1443 H1435 0.930 . S
C1443 C1441 1.396 1_655 S
C1443 C1444 1.362 . S
C1444 H1436 0.930 . S
C1444 C1443 1.362 . S
C1444 C1447 1.409 . S
C1445 H1437 0.930 . S
C1445 C1446 1.355 . S
C1445 C1447 1.415 . S
C1446 C1445 1.355 . S
C1446 C1448 1.419 . S
C1447 C1442 1.425 . S
C1447 C1444 1.409 . S
C1447 C1445 1.415 . S
C1448 H1438 0.930 . S
C1448 C1446 1.419 . S
C1448 C1449 1.362 . S
C1449 H1439 0.930 . S
C1449 C1442 1.409 . S
C1449 C1448 1.362 . S
H1450 C1456 0.930 . S
H1451 C1459 0.930 . S
H1452 C1460 0.930 . S
H1453 C1461 0.930 . S
H1454 C1464 0.930 . S
H1455 C1465 0.930 . S
C1456 H1450 0.930 . S
C1456 C1457 1.355 . S
C1456 C1458 1.415 . S
C1457 C1456 1.355 . S
C1457 C1459 1.419 . S
C1458 C1456 1.415 . S
C1458 C1463 1.425 . S
C1458 C1465 1.409 . S
C1459 H1451 0.930 . S
C1459 C1457 1.419 . S
C1459 C1460 1.362 . S
C1460 H1452 0.930 . S
C1460 C1459 1.362 . S
C1460 C1463 1.409 . S
C1461 H1453 0.930 . S
C1461 C1462 1.355 . S
C1461 C1463 1.415 . S
C1462 C1461 1.355 . S
C1462 C1464 1.419 . S
C1463 C1458 1.425 . S
C1463 C1460 1.409 . S
C1463 C1461 1.415 . S
C1464 H1454 0.930 . S
C1464 C1462 1.419 . S
C1464 C1465 1.362 . S
C1465 H1455 0.930 . S
C1465 C1458 1.409 . S
C1465 C1464 1.362 . S
H1466 C1472 0.930 . S
H1467 C1475 0.930 1_565 S
H1468 C1476 0.930 . S
H1469 C1477 0.930 . S
H1470 C1480 0.930 . S
H1471 C1481 0.930 . S
C1472 H1466 0.930 . S
C1472 C1473 1.355 1_545 S
C1472 C1474 1.415 . S
C1473 C1472 1.355 1_565 S
C1473 C1475 1.419 1_565 S
C1474 C1472 1.415 . S
C1474 C1479 1.425 . S
C1474 C1481 1.409 . S
C1475 H1467 0.930 1_545 S
C1475 C1473 1.419 1_545 S
C1475 C1476 1.362 . S
C1476 H1468 0.930 . S
C1476 C1475 1.362 . S
C1476 C1479 1.409 . S
C1477 H1469 0.930 . S
C1477 C1478 1.355 . S
C1477 C1479 1.415 . S
C1478 C1477 1.355 . S
C1478 C1480 1.419 . S
C1479 C1474 1.425 . S
C1479 C1476 1.409 . S
C1479 C1477 1.415 . S
C1480 H1470 0.930 . S
C1480 C1478 1.419 . S
C1480 C1481 1.362 . S
C1481 H1471 0.930 . S
C1481 C1474 1.409 . S
C1481 C1480 1.362 . S
H1482 C1488 0.930 . S
H1483 C1491 0.930 . S
H1484 C1492 0.930 . S
H1485 C1493 0.930 . S
H1486 C1496 0.930 . S
H1487 C1497 0.930 . S
C1488 H1482 0.930 . S
C1488 C1489 1.355 . S
C1488 C1490 1.415 . S
C1489 C1488 1.355 . S
C1489 C1491 1.419 . S
C1490 C1488 1.415 . S
C1490 C1495 1.425 . S
C1490 C1497 1.409 . S
C1491 H1483 0.930 . S
C1491 C1489 1.419 . S
C1491 C1492 1.362 . S
C1492 H1484 0.930 . S
C1492 C1491 1.362 . S
C1492 C1495 1.409 . S
C1493 H1485 0.930 . S
C1493 C1494 1.355 . S
C1493 C1495 1.415 . S
C1494 C1493 1.355 . S
C1494 C1496 1.419 . S
C1495 C1490 1.425 . S
C1495 C1492 1.409 . S
C1495 C1493 1.415 . S
C1496 H1486 0.930 . S
C1496 C1494 1.419 . S
C1496 C1497 1.362 . S
C1497 H1487 0.930 . S
C1497 C1490 1.409 . S
C1497 C1496 1.362 . S
H1498 C1504 0.930 . S
H1499 C1507 0.930 . S
H1500 C1508 0.930 . S
H1501 C1509 0.930 . S
H1502 C1512 0.930 . S
H1503 C1513 0.930 . S
C1504 H1498 0.930 . S
C1504 C1505 1.355 . S
C1504 C1506 1.415 . S
C1505 C1504 1.355 . S
C1505 C1507 1.419 . S
C1506 C1504 1.415 . S
C1506 C1511 1.425 . S
C1506 C1513 1.409 . S
C1507 H1499 0.930 . S
C1507 C1505 1.419 . S
C1507 C1508 1.362 . S
C1508 H1500 0.930 . S
C1508 C1507 1.362 . S
C1508 C1511 1.409 . S
C1509 H1501 0.930 . S
C1509 C1510 1.355 . S
C1509 C1511 1.415 . S
C1510 C1509 1.355 . S
C1510 C1512 1.419 . S
C1511 C1506 1.425 . S
C1511 C1508 1.409 . S
C1511 C1509 1.415 . S
C1512 H1502 0.930 . S
C1512 C1510 1.419 . S
C1512 C1513 1.362 . S
C1513 H1503 0.930 . S
C1513 C1506 1.409 . S
C1513 C1512 1.362 . S
H1514 C1520 0.930 . S
H1515 C1523 0.930 . S
H1516 C1524 0.930 . S
H1517 C1525 0.930 . S
H1518 C1528 0.930 . S
H1519 C1529 0.930 . S
C1520 H1514 0.930 . S
C1520 C1521 1.355 . S
C1520 C1522 1.415 . S
C1521 C1520 1.355 . S
C1521 C1523 1.419 . S
C1522 C1520 1.415 . S
C1522 C1527 1.425 . S
C1522 C1529 1.409 . S
C1523 H1515 0.930 . S
C1523 C1521 1.419 . S
C1523 C1524 1.362 . S
C1524 H1516 0.930 . S
C1524 C1523 1.362 . S
C1524 C1527 1.409 . S
C1525 H1517 0.930 . S
C1525 C1526 1.355 . S
C1525 C1527 1.415 . S
C1526 C1525 1.355 . S
C1526 C1528 1.419 . S
C1527 C1522 1.425 . S
C1527 C1524 1.409 . S
C1527 C1525 1.415 . S
C1528 H1518 0.930 . S
C1528 C1526 1.419 . S
C1528 C1529 1.362 . S
C1529 H1519 0.930 . S
C1529 C1522 1.409 . S
C1529 C1528 1.362 . S
H1530 C1536 0.930 . S
H1531 C1539 0.930 . S
H1532 C1540 0.930 . S
H1533 C1541 0.930 . S
H1534 C1544 0.930 . S
H1535 C1545 0.930 . S
C1536 H1530 0.930 . S
C1536 C1537 1.355 . S
C1536 C1538 1.415 . S
C1537 C1536 1.355 . S
C1537 C1539 1.419 . S
C1538 C1536 1.415 . S
C1538 C1543 1.425 . S
C1538 C1545 1.409 . S
C1539 H1531 0.930 . S
C1539 C1537 1.419 . S
C1539 C1540 1.362 . S
C1540 H1532 0.930 . S
C1540 C1539 1.362 . S
C1540 C1543 1.409 . S
C1541 H1533 0.930 . S
C1541 C1542 1.355 . S
C1541 C1543 1.415 . S
C1542 C1541 1.355 . S
C1542 C1544 1.419 . S
C1543 C1538 1.425 . S
C1543 C1540 1.409 . S
C1543 C1541 1.415 . S
C1544 H1534 0.930 . S
C1544 C1542 1.419 . S
C1544 C1545 1.362 . S
C1545 H1535 0.930 . S
C1545 C1538 1.409 . S
C1545 C1544 1.362 . S
H1546 C1552 0.930 . S
H1547 C1555 0.930 . S
H1548 C1556 0.930 . S
H1549 C1557 0.930 . S
H1550 C1560 0.930 . S
H1551 C1561 0.930 . S
C1552 H1546 0.930 . S
C1552 C1553 1.355 . S
C1552 C1554 1.415 . S
C1553 C1552 1.355 . S
C1553 C1555 1.419 . S
C1554 C1552 1.415 . S
C1554 C1559 1.425 . S
C1554 C1561 1.409 . S
C1555 H1547 0.930 . S
C1555 C1553 1.419 . S
C1555 C1556 1.362 . S
C1556 H1548 0.930 . S
C1556 C1555 1.362 . S
C1556 C1559 1.409 . S
C1557 H1549 0.930 . S
C1557 C1558 1.355 . S
C1557 C1559 1.415 . S
C1558 C1557 1.355 . S
C1558 C1560 1.419 . S
C1559 C1554 1.425 . S
C1559 C1556 1.409 . S
C1559 C1557 1.415 . S
C1560 H1550 0.930 . S
C1560 C1558 1.419 . S
C1560 C1561 1.362 . S
C1561 H1551 0.930 . S
C1561 C1554 1.409 . S
C1561 C1560 1.362 . S
H1562 C1568 0.930 . S
H1563 C1571 0.930 . S
H1564 C1572 0.930 . S
H1565 C1573 0.930 . S
H1566 C1576 0.930 . S
H1567 C1577 0.930 . S
C1568 H1562 0.930 . S
C1568 C1569 1.355 . S
C1568 C1570 1.415 . S
C1569 C1568 1.355 . S
C1569 C1571 1.419 . S
C1570 C1568 1.415 . S
C1570 C1575 1.425 . S
C1570 C1577 1.409 . S
C1571 H1563 0.930 . S
C1571 C1569 1.419 . S
C1571 C1572 1.362 . S
C1572 H1564 0.930 . S
C1572 C1571 1.362 . S
C1572 C1575 1.409 . S
C1573 H1565 0.930 . S
C1573 C1574 1.355 . S
C1573 C1575 1.415 . S
C1574 C1573 1.355 . S
C1574 C1576 1.419 . S
C1575 C1570 1.425 . S
C1575 C1572 1.409 . S
C1575 C1573 1.415 . S
C1576 H1566 0.930 . S
C1576 C1574 1.419 . S
C1576 C1577 1.362 . S
C1577 H1567 0.930 . S
C1577 C1570 1.409 . S
C1577 C1576 1.362 . S
H1578 C1584 0.930 . S
H1579 C1587 0.930 . S
H1580 C1588 0.930 . S
H1581 C1589 0.930 . S
H1582 C1592 0.930 . S
H1583 C1593 0.930 . S
C1584 H1578 0.930 . S
C1584 C1585 1.355 . S
C1584 C1586 1.415 . S
C1585 C1584 1.355 . S
C1585 C1587 1.419 . S
C1586 C1584 1.415 . S
C1586 C1591 1.425 . S
C1586 C1593 1.409 . S
C1587 H1579 0.930 . S
C1587 C1585 1.419 . S
C1587 C1588 1.362 . S
C1588 H1580 0.930 . S
C1588 C1587 1.362 . S
C1588 C1591 1.409 . S
C1589 H1581 0.930 . S
C1589 C1590 1.355 . S
C1589 C1591 1.415 . S
C1590 C1589 1.355 . S
C1590 C1592 1.419 . S
C1591 C1586 1.425 . S
C1591 C1588 1.409 . S
C1591 C1589 1.415 . S
C1592 H1582 0.930 . S
C1592 C1590 1.419 . S
C1592 C1593 1.362 . S
C1593 H1583 0.930 . S
C1593 C1586 1.409 . S
C1593 C1592 1.362 . S
H1594 C1600 0.930 . S
H1595 C1603 0.930 . S
H1596 C1604 0.930 . S
H1597 C1605 0.930 . S
H1598 C1608 0.930 . S
H1599 C1609 0.930 . S
C1600 H1594 0.930 . S
C1600 C1601 1.355 . S
C1600 C1602 1.415 . S
C1601 C1600 1.355 . S
C1601 C1603 1.419 . S
C1602 C1600 1.415 . S
C1602 C1607 1.425 . S
C1602 C1609 1.409 . S
C1603 H1595 0.930 . S
C1603 C1601 1.419 . S
C1603 C1604 1.362 . S
C1604 H1596 0.930 . S
C1604 C1603 1.362 . S
C1604 C1607 1.409 . S
C1605 H1597 0.930 . S
C1605 C1606 1.355 . S
C1605 C1607 1.415 . S
C1606 C1605 1.355 . S
C1606 C1608 1.419 . S
C1607 C1602 1.425 . S
C1607 C1604 1.409 . S
C1607 C1605 1.415 . S
C1608 H1598 0.930 . S
C1608 C1606 1.419 . S
C1608 C1609 1.362 . S
C1609 H1599 0.930 . S
C1609 C1602 1.409 . S
C1609 C1608 1.362 . S
H1610 C1616 0.930 . S
H1611 C1619 0.930 . S
H1612 C1620 0.930 . S
H1613 C1621 0.930 . S
H1614 C1624 0.930 . S
H1615 C1625 0.930 . S
C1616 H1610 0.930 . S
C1616 C1617 1.355 . S
C1616 C1618 1.415 . S
C1617 C1616 1.355 . S
C1617 C1619 1.419 . S
C1618 C1616 1.415 . S
C1618 C1623 1.425 . S
C1618 C1625 1.409 . S
C1619 H1611 0.930 . S
C1619 C1617 1.419 . S
C1619 C1620 1.362 . S
C1620 H1612 0.930 . S
C1620 C1619 1.362 . S
C1620 C1623 1.409 . S
C1621 H1613 0.930 . S
C1621 C1622 1.355 . S
C1621 C1623 1.415 . S
C1622 C1621 1.355 . S
C1622 C1624 1.419 . S
C1623 C1618 1.425 . S
C1623 C1620 1.409 . S
C1623 C1621 1.415 . S
C1624 H1614 0.930 . S
C1624 C1622 1.419 . S
C1624 C1625 1.362 . S
C1625 H1615 0.930 . S
C1625 C1618 1.409 . S
C1625 C1624 1.362 . S
H1626 C1632 0.930 . S
H1627 C1635 0.930 . S
H1628 C1636 0.930 . S
H1629 C1637 0.930 . S
H1630 C1640 0.930 . S
H1631 C1641 0.930 . S
C1632 H1626 0.930 . S
C1632 C1633 1.355 . S
C1632 C1634 1.415 . S
C1633 C1632 1.355 . S
C1633 C1635 1.419 . S
C1634 C1632 1.415 . S
C1634 C1639 1.425 . S
C1634 C1641 1.409 . S
C1635 H1627 0.930 . S
C1635 C1633 1.419 . S
C1635 C1636 1.362 . S
C1636 H1628 0.930 . S
C1636 C1635 1.362 . S
C1636 C1639 1.409 . S
C1637 H1629 0.930 . S
C1637 C1638 1.355 . S
C1637 C1639 1.415 . S
C1638 C1637 1.355 . S
C1638 C1640 1.419 . S
C1639 C1634 1.425 . S
C1639 C1636 1.409 . S
C1639 C1637 1.415 . S
C1640 H1630 0.930 . S
C1640 C1638 1.419 . S
C1640 C1641 1.362 . S
C1641 H1631 0.930 . S
C1641 C1634 1.409 . S
C1641 C1640 1.362 . S
H1642 C1648 0.930 . S
H1643 C1651 0.930 . S
H1644 C1652 0.930 . S
H1645 C1653 0.930 . S
H1646 C1656 0.930 . S
H1647 C1657 0.930 . S
C1648 H1642 0.930 . S
C1648 C1649 1.355 . S
C1648 C1650 1.415 . S
C1649 C1648 1.355 . S
C1649 C1651 1.419 . S
C1650 C1648 1.415 . S
C1650 C1655 1.425 . S
C1650 C1657 1.409 . S
C1651 H1643 0.930 . S
C1651 C1649 1.419 . S
C1651 C1652 1.362 . S
C1652 H1644 0.930 . S
C1652 C1651 1.362 . S
C1652 C1655 1.409 . S
C1653 H1645 0.930 . S
C1653 C1654 1.355 . S
C1653 C1655 1.415 . S
C1654 C1653 1.355 . S
C1654 C1656 1.419 . S
C1655 C1650 1.425 . S
C1655 C1652 1.409 . S
C1655 C1653 1.415 . S
C1656 H1646 0.930 . S
C1656 C1654 1.419 . S
C1656 C1657 1.362 . S
C1657 H1647 0.930 . S
C1657 C1650 1.409 . S
C1657 C1656 1.362 . S
H1658 C1664 0.930 . S
H1659 C1667 0.930 . S
H1660 C1668 0.930 . S
H1661 C1669 0.930 . S
H1662 C1672 0.930 . S
H1663 C1673 0.930 . S
C1664 H1658 0.930 . S
C1664 C1665 1.355 . S
C1664 C1666 1.415 . S
C1665 C1664 1.355 . S
C1665 C1667 1.419 . S
C1666 C1664 1.415 . S
C1666 C1671 1.425 . S
C1666 C1673 1.409 . S
C1667 H1659 0.930 . S
C1667 C1665 1.419 . S
C1667 C1668 1.362 . S
C1668 H1660 0.930 . S
C1668 C1667 1.362 . S
C1668 C1671 1.409 . S
C1669 H1661 0.930 . S
C1669 C1670 1.355 . S
C1669 C1671 1.415 . S
C1670 C1669 1.355 . S
C1670 C1672 1.419 . S
C1671 C1666 1.425 . S
C1671 C1668 1.409 . S
C1671 C1669 1.415 . S
C1672 H1662 0.930 . S
C1672 C1670 1.419 . S
C1672 C1673 1.362 . S
C1673 H1663 0.930 . S
C1673 C1666 1.409 . S
C1673 C1672 1.362 . S
H1674 C1680 0.930 . S
H1675 C1683 0.930 . S
H1676 C1684 0.930 . S
H1677 C1685 0.930 . S
H1678 C1688 0.930 . S
H1679 C1689 0.930 . S
C1680 H1674 0.930 . S
C1680 C1681 1.355 . S
C1680 C1682 1.415 . S
C1681 C1680 1.355 . S
C1681 C1683 1.419 . S
C1682 C1680 1.415 . S
C1682 C1687 1.425 . S
C1682 C1689 1.409 . S
C1683 H1675 0.930 . S
C1683 C1681 1.419 . S
C1683 C1684 1.362 . S
C1684 H1676 0.930 . S
C1684 C1683 1.362 . S
C1684 C1687 1.409 . S
C1685 H1677 0.930 . S
C1685 C1686 1.355 . S
C1685 C1687 1.415 . S
C1686 C1685 1.355 . S
C1686 C1688 1.419 . S
C1687 C1682 1.425 . S
C1687 C1684 1.409 . S
C1687 C1685 1.415 . S
C1688 H1678 0.930 . S
C1688 C1686 1.419 . S
C1688 C1689 1.362 . S
C1689 H1679 0.930 . S
C1689 C1682 1.409 . S
C1689 C1688 1.362 . S
H1690 C1696 0.930 . S
H1691 C1699 0.930 . S
H1692 C1700 0.930 . S
H1693 C1701 0.930 . S
H1694 C1704 0.930 . S
H1695 C1705 0.930 . S
C1696 H1690 0.930 . S
C1696 C1697 1.355 . S
C1696 C1698 1.415 . S
C1697 C1696 1.355 . S
C1697 C1699 1.419 . S
C1698 C1696 1.415 . S
C1698 C1703 1.425 . S
C1698 C1705 1.409 . S
C1699 H1691 0.930 . S
C1699 C1697 1.419 . S
C1699 C1700 1.362 . S
C1700 H1692 0.930 . S
C1700 C1699 1.362 . S
C1700 C1703 1.409 . S
C1701 H1693 0.930 . S
C1701 C1702 1.355 . S
C1701 C1703 1.415 . S
C1702 C1701 1.355 . S
C1702 C1704 1.419 . S
C1703 C1698 1.425 . S
C1703 C1700 1.409 . S
C1703 C1701 1.415 . S
C1704 H1694 0.930 . S
C1704 C1702 1.419 . S
C1704 C1705 1.362 . S
C1705 H1695 0.930 . S
C1705 C1698 1.409 . S
C1705 C1704 1.362 . S
H1706 C1712 0.930 . S
H1707 C1715 0.930 . S
H1708 C1716 0.930 . S
H1709 C1717 0.930 . S
H1710 C1720 0.930 . S
H1711 C1721 0.930 . S
C1712 H1706 0.930 . S
C1712 C1713 1.355 . S
C1712 C1714 1.415 . S
C1713 C1712 1.355 . S
C1713 C1715 1.419 . S
C1714 C1712 1.415 . S
C1714 C1719 1.425 . S
C1714 C1721 1.409 . S
C1715 H1707 0.930 . S
C1715 C1713 1.419 . S
C1715 C1716 1.362 . S
C1716 H1708 0.930 . S
C1716 C1715 1.362 . S
C1716 C1719 1.409 . S
C1717 H1709 0.930 . S
C1717 C1718 1.355 . S
C1717 C1719 1.415 . S
C1718 C1717 1.355 . S
C1718 C1720 1.419 . S
C1719 C1714 1.425 . S
C1719 C1716 1.409 . S
C1719 C1717 1.415 . S
C1720 H1710 0.930 . S
C1720 C1718 1.419 . S
C1720 C1721 1.362 . S
C1721 H1711 0.930 . S
C1721 C1714 1.409 . S
C1721 C1720 1.362 . S
H1722 C1728 0.930 . S
H1723 C1731 0.930 . S
H1724 C1732 0.930 . S
H1725 C1733 0.930 . S
H1726 C1736 0.930 . S
H1727 C1737 0.930 . S
C1728 H1722 0.930 . S
C1728 C1729 1.355 . S
C1728 C1730 1.415 . S
C1729 C1728 1.355 . S
C1729 C1731 1.419 . S
C1730 C1728 1.415 . S
C1730 C1735 1.425 . S
C1730 C1737 1.409 . S
C1731 H1723 0.930 . S
C1731 C1729 1.419 . S
C1731 C1732 1.362 . S
C1732 H1724 0.930 . S
C1732 C1731 1.362 . S
C1732 C1735 1.409 . S
C1733 H1725 0.930 . S
C1733 C1734 1.355 . S
C1733 C1735 1.415 . S
C1734 C1733 1.355 . S
C1734 C1736 1.419 . S
C1735 C1730 1.425 . S
C1735 C1732 1.409 . S
C1735 C1733 1.415 . S
C1736 H1726 0.930 . S
C1736 C1734 1.419 . S
C1736 C1737 1.362 . S
C1737 H1727 0.930 . S
C1737 C1730 1.409 . S
C1737 C1736 1.362 . S
H1738 C1744 0.930 . S
H1739 C1747 0.930 . S
H1740 C1748 0.930 . S
H1741 C1749 0.930 . S
H1742 C1752 0.930 . S
H1743 C1753 0.930 . S
C1744 H1738 0.930 . S
C1744 C1745 1.355 . S
C1744 C1746 1.415 . S
C1745 C1744 1.355 . S
C1745 C1747 1.419 . S
C1746 C1744 1.415 . S
C1746 C1751 1.425 . S
C1746 C1753 1.409 . S
C1747 H1739 0.930 . S
C1747 C1745 1.419 . S
C1747 C1748 1.362 . S
C1748 H1740 0.930 . S
C1748 C1747 1.362 . S
C1748 C1751 1.409 . S
C1749 H1741 0.930 . S
C1749 C1750 1.355 . S
C1749 C1751 1.415 . S
C1750 C1749 1.355 . S
C1750 C1752 1.419 . S
C1751 C1746 1.425 . S
C1751 C1748 1.409 . S
C1751 C1749 1.415 . S
C1752 H1742 0.930 . S
C1752 C1750 1.419 . S
C1752 C1753 1.362 . S
C1753 H1743 0.930 . S
C1753 C1746 1.409 . S
C1753 C1752 1.362 . S
H1754 C1760 0.930 . S
H1755 C1763 0.930 . S
H1756 C1764 0.930 . S
H1757 C1765 0.930 . S
H1758 C1768 0.930 . S
H1759 C1769 0.930 . S
C1760 H1754 0.930 . S
C1760 C1761 1.355 . S
C1760 C1762 1.415 . S
C1761 C1760 1.355 . S
C1761 C1763 1.419 . S
C1762 C1760 1.415 . S
C1762 C1767 1.425 . S
C1762 C1769 1.409 . S
C1763 H1755 0.930 . S
C1763 C1761 1.419 . S
C1763 C1764 1.362 . S
C1764 H1756 0.930 . S
C1764 C1763 1.362 . S
C1764 C1767 1.409 . S
C1765 H1757 0.930 . S
C1765 C1766 1.355 . S
C1765 C1767 1.415 . S
C1766 C1765 1.355 . S
C1766 C1768 1.419 . S
C1767 C1762 1.425 . S
C1767 C1764 1.409 . S
C1767 C1765 1.415 . S
C1768 H1758 0.930 . S
C1768 C1766 1.419 . S
C1768 C1769 1.362 . S
C1769 H1759 0.930 . S
C1769 C1762 1.409 . S
C1769 C1768 1.362 . S
H1770 C1776 0.930 . S
H1771 C1779 0.930 . S
H1772 C1780 0.930 . S
H1773 C1781 0.930 . S
H1774 C1784 0.930 . S
H1775 C1785 0.930 . S
C1776 H1770 0.930 . S
C1776 C1777 1.355 . S
C1776 C1778 1.415 . S
C1777 C1776 1.355 . S
C1777 C1779 1.419 . S
C1778 C1776 1.415 . S
C1778 C1783 1.425 . S
C1778 C1785 1.409 . S
C1779 H1771 0.930 . S
C1779 C1777 1.419 . S
C1779 C1780 1.362 . S
C1780 H1772 0.930 . S
C1780 C1779 1.362 . S
C1780 C1783 1.409 . S
C1781 H1773 0.930 . S
C1781 C1782 1.355 . S
C1781 C1783 1.415 . S
C1782 C1781 1.355 . S
C1782 C1784 1.419 . S
C1783 C1778 1.425 . S
C1783 C1780 1.409 . S
C1783 C1781 1.415 . S
C1784 H1774 0.930 . S
C1784 C1782 1.419 . S
C1784 C1785 1.362 . S
C1785 H1775 0.930 . S
C1785 C1778 1.409 . S
C1785 C1784 1.362 . S
H1786 C1792 0.930 . S
H1787 C1795 0.930 . S
H1788 C1796 0.930 . S
H1789 C1797 0.930 . S
H1790 C1800 0.930 . S
H1791 C1801 0.930 . S
C1792 H1786 0.930 . S
C1792 C1793 1.355 . S
C1792 C1794 1.415 . S
C1793 C1792 1.355 . S
C1793 C1795 1.419 . S
C1794 C1792 1.415 . S
C1794 C1799 1.425 . S
C1794 C1801 1.409 . S
C1795 H1787 0.930 . S
C1795 C1793 1.419 . S
C1795 C1796 1.362 . S
C1796 H1788 0.930 . S
C1796 C1795 1.362 . S
C1796 C1799 1.409 . S
C1797 H1789 0.930 . S
C1797 C1798 1.355 . S
C1797 C1799 1.415 . S
C1798 C1797 1.355 . S
C1798 C1800 1.419 . S
C1799 C1794 1.425 . S
C1799 C1796 1.409 . S
C1799 C1797 1.415 . S
C1800 H1790 0.930 . S
C1800 C1798 1.419 . S
C1800 C1801 1.362 . S
C1801 H1791 0.930 . S
C1801 C1794 1.409 . S
C1801 C1800 1.362 . S
H1802 C1808 0.930 . S
H1803 C1811 0.930 . S
H1804 C1812 0.930 . S
H1805 C1813 0.930 . S
H1806 C1816 0.930 . S
H1807 C1817 0.930 . S
C1808 H1802 0.930 . S
C1808 C1809 1.355 . S
C1808 C1810 1.415 . S
C1809 C1808 1.355 . S
C1809 C1811 1.419 . S
C1810 C1808 1.415 . S
C1810 C1815 1.425 . S
C1810 C1817 1.409 . S
C1811 H1803 0.930 . S
C1811 C1809 1.419 . S
C1811 C1812 1.362 . S
C1812 H1804 0.930 . S
C1812 C1811 1.362 . S
C1812 C1815 1.409 . S
C1813 H1805 0.930 . S
C1813 C1814 1.355 . S
C1813 C1815 1.415 . S
C1814 C1813 1.355 . S
C1814 C1816 1.419 . S
C1815 C1810 1.425 . S
C1815 C1812 1.409 . S
C1815 C1813 1.415 . S
C1816 H1806 0.930 . S
C1816 C1814 1.419 . S
C1816 C1817 1.362 . S
C1817 H1807 0.930 . S
C1817 C1810 1.409 . S
C1817 C1816 1.362 . S
C961 C147 1.453 . S
C966 C265 1.422 . S
C977 C158 1.476 . S
C982 C349 1.461 . S
C993 C136 1.455 . S
C998 C429 1.430 . S
C1009 C125 1.423 . S
C1014 C345 1.427 . S
C1030 C433 1.377 . S
C1025 C103 1.437 . S
C1041 C114 1.414 . S
C1046 C261 1.406 . S
C1062 C254 1.459 . S
C1057 C131 1.512 . S
C1078 C338 1.505 . S
C1073 C109 1.505 . S
C1089 C120 1.519 . S
C1094 C440 1.456 . S
C1105 C153 1.487 . S
C1110 C356 1.418 . S
C1121 C164 1.473 . S
C1126 C422 1.403 . S
C1142 C272 1.466 . S
C1137 C142 1.474 . S
C1158 C517 1.399 . S
C1153 C15 1.461 . S
C1169 C26 1.487 . S
C1174 C601 1.395 . S
C1185 C4 1.452 . S
C1190 C681 1.430 . S
C1201 C191 1.427 . S
C1206 C597 1.448 . S
C1217 C169 1.432 . S
C1222 C685 1.395 . S
C1233 C180 1.402 . S
C1238 C513 1.417 . S
C1249 C197 1.484 . S
C1254 C506 1.485 . S
C1265 C175 1.539 . S
C1270 C590 1.457 . S
C1286 C692 1.445 . S
C1281 C186 1.514 . S
C1297 C21 1.475 . S
C1302 C608 1.461 . S
C1318 C674 1.423 . S
C1313 C32 1.465 1_455 S
C1329 C10 1.462 . S
C1334 C524 1.394 . S
C1350 C769 1.437 . S
C1345 C81 1.446 . S
C1361 C92 1.467 . S
C1366 C853 1.464 . S
C1382 C933 1.430 . S
C1377 C70 1.452 . S
C1398 C849 1.434 . S
C1393 C59 1.449 . S
C1414 C937 1.422 . S
C1409 C37 1.437 . S
C1425 C48 1.405 . S
C1430 C765 1.423 . S
C1441 C65 1.516 . S
C1446 C758 1.424 . S
C1457 C43 1.536 . S
C1462 C842 1.468 . S
C1478 C944 1.472 . S
C1473 C54 1.533 . S
C1489 C87 1.511 . S
C1494 C860 1.471 . S
C1505 C98 1.472 . S
C1510 C926 1.457 . S
C1521 C76 1.474 . S
C1526 C776 1.403 . S
C1537 C170 1.537 . S
C1542 C268 1.448 . S
C1558 C352 1.418 . S
C1553 C181 1.617 . S
C1569 C192 1.555 . S
C1574 C424 1.434 . S
C1585 C71 1.592 . S
C1590 C340 1.377 . S
C1601 C82 1.588 . S
C1606 C436 1.405 . S
C1622 C256 1.331 . S
C1617 C93 1.507 . S
C1633 C38 1.540 . S
C1638 C520 1.431 . S
C1649 C49 1.589 . S
C1654 C604 1.456 . S
C1665 C60 1.557 . S
C1670 C676 1.436 . S
C1681 C137 1.584 . S
C1686 C592 1.341 . S
C1702 C688 1.455 . S
C1697 C148 1.551 . S
C1713 C159 1.543 . S
C1718 C508 1.347 . S
C1729 C104 1.546 . S
C1734 C772 1.415 . S
C1745 C115 1.589 . S
C1750 C856 1.455 . S
C1766 C928 1.316 . S
C1761 C126 1.553 . S
C1777 C5 1.581 . S
C1782 C844 1.334 . S
C1793 C16 1.587 . S
C1798 C940 1.457 . S
C1809 C27 1.540 . S
C1814 C760 1.330 . S
