# Generated by pormake.
# Topology rtl, (3,6)-cn, num edge types: 1
# Building blocks:
#     Node 0, Type 0, BuildingBlock: CUQRIR_clean_linker_1, # of connection points: 3
#     Node 1, Type 0, BuildingBlock: CUQRIR_clean_linker_1, # of connection points: 3
#     Node 2, Type 0, BuildingBlock: CUQRIR_clean_linker_1, # of connection points: 3
#     Node 3, Type 0, BuildingBlock: CUQRIR_clean_linker_1, # of connection points: 3
#     Node 4, Type 1, BuildingBlock: FUNLAD_clean_sbu_0, # of connection points: 6
#     Node 5, Type 1, BuildingBlock: FUNLAD_clean_sbu_0, # of connection points: 6
#     Edge 6, Type (0, 1), BuildingBlock: MIFKUJ_clean_linker_0, # of connection points: 2
#     Edge 7, Type (0, 1), BuildingBlock: MIFKUJ_clean_linker_0, # of connection points: 2
#     Edge 8, Type (0, 1), BuildingBlock: MIFKUJ_clean_linker_0, # of connection points: 2
#     Edge 9, Type (0, 1), BuildingBlock: MIFKUJ_clean_linker_0, # of connection points: 2
#     Edge 10, Type (0, 1), BuildingBlock: MIFKUJ_clean_linker_0, # of connection points: 2
#     Edge 11, Type (0, 1), BuildingBlock: MIFKUJ_clean_linker_0, # of connection points: 2
#     Edge 12, Type (0, 1), BuildingBlock: MIFKUJ_clean_linker_0, # of connection points: 2
#     Edge 13, Type (0, 1), BuildingBlock: MIFKUJ_clean_linker_0, # of connection points: 2
#     Edge 14, Type (0, 1), BuildingBlock: MIFKUJ_clean_linker_0, # of connection points: 2
#     Edge 15, Type (0, 1), BuildingBlock: MIFKUJ_clean_linker_0, # of connection points: 2
#     Edge 16, Type (0, 1), BuildingBlock: MIFKUJ_clean_linker_0, # of connection points: 2
#     Edge 17, Type (0, 1), BuildingBlock: MIFKUJ_clean_linker_0, # of connection points: 2
# Relax obj value: 0.003
# Max RMSD: 0.054
# Mean RMSD: 0.042
data_MOF--net-rtl--node1-FUNLAD_clean_sbu_0--node2-CUQRIR_clean_linker_1--edge1-MIFKUJ_clean_linker_0
_symmetry_space_group_name_H-M    P1
_symmetry_Int_Tables_number       1
_symmetry_cell_setting            triclinic
loop_
_symmetry_equiv_pos_as_xyz
'x, y, z'
_cell_length_a     48.606716
_cell_length_b     48.648758
_cell_length_c     25.649276
_cell_angle_alpha  89.97864
_cell_angle_beta   91.022384
_cell_angle_gamma 90.015571
loop_
_atom_site_label
_atom_site_type_symbol
_atom_site_fract_x
_atom_site_fract_y
_atom_site_fract_z
_atom_type_partial_charge
C0 C 0.19765 0.81228 0.9743 0.0
N1 N 0.1786 0.83058 0.99023 0.0
N2 N 0.20739 0.79734 0.01522 0.0
C3 C 0.20508 0.80748 0.91833 0.0
C4 C 0.19341 0.8071 0.05653 0.0
N5 N 0.17571 0.82713 0.04119 0.0
C6 C 0.19862 0.79862 0.11229 0.0
H7 H 0.21213 0.78605 0.91226 0.0
H8 H 0.222 0.82166 0.90792 0.0
H9 H 0.18726 0.81169 0.89188 0.0
H10 H 0.19524 0.8161 0.13921 0.0
H11 H 0.21991 0.79084 0.11802 0.0
H12 H 0.18405 0.78197 0.12238 0.0
C13 C 0.69563 0.69423 0.55952 0.0
N14 N 0.67629 0.67592 0.54358 0.0
N15 N 0.70558 0.70822 0.51825 0.0
C16 C 0.70347 0.69972 0.61554 0.0
C17 C 0.6915 0.6978 0.47669 0.0
N18 N 0.67355 0.6783 0.4922 0.0
C19 C 0.6967 0.70524 0.42078 0.0
H20 H 0.71095 0.72111 0.62078 0.0
H21 H 0.7202 0.68541 0.62747 0.0
H22 H 0.68573 0.69618 0.64134 0.0
H23 H 0.71806 0.71274 0.41589 0.0
H24 H 0.68228 0.72184 0.40877 0.0
H25 H 0.69308 0.68733 0.39477 0.0
C26 C 0.80576 0.19057 0.04518 0.0
N27 N 0.82447 0.17176 0.02979 0.0
N28 N 0.79643 0.20549 0.00391 0.0
C29 C 0.79835 0.19603 0.10097 0.0
C30 C 0.81032 0.19524 0.96294 0.0
N31 N 0.82751 0.17488 0.97876 0.0
C32 C 0.80568 0.20376 0.90709 0.0
H33 H 0.78112 0.18232 0.11179 0.0
H34 H 0.79172 0.21765 0.10631 0.0
H35 H 0.81606 0.19175 0.12762 0.0
H36 H 0.82046 0.22033 0.89756 0.0
H37 H 0.78449 0.21172 0.90075 0.0
H38 H 0.80919 0.18628 0.88025 0.0
C39 C 0.31285 0.30513 0.46766 0.0
N40 N 0.33022 0.3257 0.48162 0.0
N41 N 0.29763 0.29729 0.50875 0.0
C42 C 0.30951 0.29382 0.41336 0.0
C43 C 0.30623 0.31386 0.54813 0.0
N44 N 0.32593 0.33129 0.53151 0.0
C45 C 0.29657 0.31186 0.60338 0.0
H46 H 0.28897 0.28425 0.40743 0.0
H47 H 0.32546 0.27789 0.40723 0.0
H48 H 0.31234 0.31027 0.38396 0.0
H49 H 0.3139 0.31551 0.6313 0.0
H50 H 0.2873 0.29146 0.61125 0.0
H51 H 0.28078 0.32791 0.60982 0.0
C52 C 0.02999 0.97496 0.43141 0.0
N53 N 0.04801 0.04842 0.51087 0.0
C54 C 0.07487 0.04134 0.5053 0.0
C55 C 0.09534 0.06149 0.50541 0.0
C56 C 0.08829 0.08928 0.51244 0.0
C57 C 0.06035 0.09589 0.51864 0.0
C58 C 0.04049 0.07513 0.51722 0.0
Zn59 Zn 0.01848 0.01832 0.51002 0.0
C60 C 0.97272 0.03063 0.43441 0.0
N61 N 0.95672 0.95572 0.50861 0.0
C62 C 0.96417 0.92886 0.50452 0.0
C63 C 0.92984 0.96309 0.51259 0.0
C64 C 0.90924 0.94309 0.51287 0.0
C65 C 0.91626 0.91516 0.50863 0.0
C66 C 0.94421 0.90819 0.50427 0.0
Zn67 Zn 0.98627 0.98569 0.50925 0.0
O68 O 0.03986 0.99676 0.45155 0.0
C69 C 0.03186 0.97332 0.58498 0.0
O70 O 0.00725 0.96556 0.44755 0.0
H71 H 0.92434 0.98455 0.51582 0.0
H72 H 0.0805 0.02 0.50056 0.0
H73 H 0.98565 0.92345 0.50139 0.0
O74 O 0.04062 0.99632 0.56851 0.0
O75 O 0.0096 0.9635 0.56598 0.0
H76 H 0.01904 0.08038 0.52145 0.0
O77 O 0.96591 0.00619 0.57043 0.0
O78 O 0.99652 0.03927 0.5693 0.0
O79 O 0.96332 0.00844 0.45326 0.0
O80 O 0.99584 0.03976 0.45079 0.0
C81 C 0.97489 0.02889 0.58834 0.0
H82 H 0.11642 0.05525 0.49945 0.0
H83 H 0.05378 0.11684 0.52514 0.0
H84 H 0.88806 0.94948 0.51714 0.0
H85 H 0.95062 0.887 0.50017 0.0
C86 C 0.47414 0.47452 0.93325 0.0
N87 N 0.54854 0.45595 0.01137 0.0
C88 C 0.54109 0.4291 0.00654 0.0
C89 C 0.5611 0.40851 0.00555 0.0
C90 C 0.58911 0.41554 0.00998 0.0
C91 C 0.59614 0.44345 0.0152 0.0
C92 C 0.57547 0.46339 0.0156 0.0
Zn93 Zn 0.51869 0.48561 0.012 0.0
C94 C 0.53034 0.53088 0.93705 0.0
N95 N 0.45638 0.54758 0.01302 0.0
C96 C 0.42943 0.54006 0.01027 0.0
C97 C 0.46382 0.57449 0.01628 0.0
C98 C 0.4438 0.59507 0.01708 0.0
C99 C 0.41577 0.58797 0.01406 0.0
C100 C 0.40874 0.55998 0.01052 0.0
Zn101 Zn 0.48623 0.51791 0.0124 0.0
O102 O 0.49698 0.46525 0.95061 0.0
C103 C 0.47451 0.47257 0.08705 0.0
O104 O 0.46435 0.49633 0.95289 0.0
H105 H 0.48536 0.58004 0.01843 0.0
H106 H 0.51957 0.42361 0.00324 0.0
H107 H 0.42394 0.51856 0.00772 0.0
O108 O 0.49654 0.46297 0.06822 0.0
O109 O 0.46534 0.49553 0.07063 0.0
H110 H 0.58095 0.48485 0.01939 0.0
O111 O 0.50859 0.53901 0.07194 0.0
O112 O 0.53982 0.50647 0.07355 0.0
O113 O 0.50759 0.53975 0.95406 0.0
O114 O 0.54036 0.50872 0.95559 0.0
C115 C 0.53065 0.529 0.09136 0.0
H116 H 0.55464 0.38736 1.00065 0.0
H117 H 0.61739 0.44988 0.01955 0.0
H118 H 0.45028 0.61629 0.02066 0.0
H119 H 0.38747 0.55348 0.00729 0.0
H120 H 0.24362 0.30501 0.52225 0.0
H121 H 0.20774 0.2695 0.52315 0.0
H122 H 0.26965 0.20705 0.50107 0.0
H123 H 0.30513 0.243 0.49752 0.0
H124 H 0.22822 0.19461 0.44426 0.0
H125 H 0.23838 0.22041 0.62251 0.0
H126 H 0.24094 0.25178 0.69791 0.0
H127 H 0.15753 0.2772 0.66827 0.0
H128 H 0.15461 0.2463 0.59212 0.0
H129 H 0.14178 0.08579 0.5493 0.0
H130 H 0.17733 0.12124 0.54768 0.0
H131 H 0.11939 0.17838 0.47947 0.0
H132 H 0.08406 0.1427 0.47735 0.0
H133 H 0.15871 0.19203 0.5836 0.0
H134 H 0.15299 0.16586 0.39814 0.0
H135 H 0.15292 0.1311 0.32814 0.0
H136 H 0.23198 0.10206 0.38138 0.0
H137 H 0.23227 0.1364 0.45224 0.0
C138 C 0.24931 0.28364 0.51764 0.0
C139 C 0.27683 0.27642 0.51006 0.0
C140 C 0.22897 0.26336 0.51847 0.0
C141 C 0.23599 0.23545 0.51319 0.0
C142 C 0.26366 0.22837 0.50531 0.0
C143 C 0.2839 0.24875 0.50346 0.0
C144 C 0.21447 0.21373 0.51515 0.0
C145 C 0.21326 0.19401 0.47514 0.0
C146 C 0.19478 0.21275 0.55528 0.0
C147 C 0.19636 0.23122 0.6013 0.0
C148 C 0.22064 0.23283 0.63184 0.0
C149 C 0.22215 0.25051 0.67474 0.0
C150 C 0.19943 0.26652 0.6878 0.0
C151 C 0.17513 0.26482 0.65806 0.0
C152 C 0.17352 0.24721 0.61504 0.0
C153 C 0.13656 0.10568 0.53302 0.0
C154 C 0.10988 0.11115 0.51319 0.0
C155 C 0.1569 0.12599 0.5327 0.0
C156 C 0.15087 0.15228 0.51347 0.0
C157 C 0.1243 0.15814 0.49465 0.0
C158 C 0.10408 0.13771 0.49389 0.0
C159 C 0.17249 0.17358 0.51254 0.0
C160 C 0.17375 0.19296 0.55289 0.0
C161 C 0.19259 0.1739 0.47353 0.0
C162 C 0.19248 0.15342 0.43082 0.0
C163 C 0.1702 0.15185 0.39526 0.0
C164 C 0.17016 0.13228 0.35535 0.0
C165 C 0.19239 0.11432 0.35042 0.0
C166 C 0.21475 0.11595 0.38531 0.0
C167 C 0.21487 0.13546 0.42532 0.0
H168 H 0.19233 0.09919 0.31949 0.0
H169 H 0.20064 0.2802 0.72103 0.0
H170 H 0.2029 0.74598 0.0534 0.0
H171 H 0.23831 0.70997 0.0535 0.0
H172 H 0.29372 0.76519 0.9758 0.0
H173 H 0.25829 0.80117 0.97613 0.0
H174 H 0.29356 0.71395 0.93217 0.0
H175 H 0.30119 0.75293 0.10423 0.0
H176 H 0.28355 0.76768 0.1893 0.0
H177 H 0.25936 0.68475 0.22299 0.0
H178 H 0.27645 0.66958 0.13769 0.0
H179 H 0.41681 0.63896 0.96822 0.0
H180 H 0.3814 0.67441 0.96961 0.0
H181 H 0.3295 0.62114 0.05964 0.0
H182 H 0.36548 0.58614 0.06107 0.0
H183 H 0.32726 0.67115 0.09691 0.0
H184 H 0.31883 0.63171 0.92619 0.0
H185 H 0.3349 0.61634 0.84033 0.0
H186 H 0.35901 0.6989 0.80336 0.0
H187 H 0.34341 0.7147 0.88932 0.0
C188 C 0.22274 0.75033 0.03673 0.0
C189 C 0.22807 0.7762 0.01492 0.0
C190 C 0.24289 0.72985 0.03671 0.0
C191 C 0.26874 0.735 0.01505 0.0
C192 C 0.27392 0.76078 0.99265 0.0
C193 C 0.25377 0.78125 0.99278 0.0
C194 C 0.2904 0.71353 0.01577 0.0
C195 C 0.30121 0.70482 0.96821 0.0
C196 C 0.29981 0.70114 0.06273 0.0
C197 C 0.28987 0.71017 0.11435 0.0
C198 C 0.29194 0.73787 0.12961 0.0
C199 C 0.28205 0.74631 0.17789 0.0
C200 C 0.27028 0.72717 0.21148 0.0
C201 C 0.26845 0.69955 0.19691 0.0
C202 C 0.27825 0.69102 0.14861 0.0
C203 C 0.39804 0.63485 0.98894 0.0
C204 C 0.39405 0.60957 0.01443 0.0
C205 C 0.37762 0.65506 0.98911 0.0
C206 C 0.35255 0.6503 0.01397 0.0
C207 C 0.3486 0.62525 0.03993 0.0
C208 C 0.36911 0.60511 0.04021 0.0
C209 C 0.33054 0.67152 0.01321 0.0
C210 C 0.31964 0.68021 0.0608 0.0
C211 C 0.3209 0.68377 0.96621 0.0
C212 C 0.33019 0.67434 0.91439 0.0
C213 C 0.32774 0.64655 0.8999 0.0
C214 C 0.33673 0.63776 0.85119 0.0
C215 C 0.34803 0.65662 0.81647 0.0
C216 C 0.35028 0.68431 0.83033 0.0
C217 C 0.34135 0.6932 0.87901 0.0
H218 H 0.35498 0.64977 0.77878 0.0
H219 H 0.26264 0.73374 0.24884 0.0
H220 H 0.70127 0.75914 0.47794 0.0
H221 H 0.73725 0.79457 0.47657 0.0
H222 H 0.79298 0.73949 0.55759 0.0
H223 H 0.75684 0.70419 0.55896 0.0
H224 H 0.79557 0.79079 0.59778 0.0
H225 H 0.7977 0.75006 0.4271 0.0
H226 H 0.77759 0.73478 0.34307 0.0
H227 H 0.75407 0.81779 0.30685 0.0
H228 H 0.77365 0.83351 0.3911 0.0
H229 H 0.91871 0.86424 0.55464 0.0
H230 H 0.8831 0.8289 0.55543 0.0
H231 H 0.82868 0.88196 0.46683 0.0
H232 H 0.8647 0.91686 0.4634 0.0
H233 H 0.82531 0.83155 0.4306 0.0
H234 H 0.82224 0.87252 0.60059 0.0
H235 H 0.84112 0.88826 0.68532 0.0
H236 H 0.86532 0.80567 0.72331 0.0
H237 H 0.84691 0.78948 0.63847 0.0
C238 C 0.72128 0.75473 0.4952 0.0
C239 C 0.72651 0.7291 0.51836 0.0
C240 C 0.74177 0.77486 0.49444 0.0
C241 C 0.76791 0.76954 0.51645 0.0
C242 C 0.77297 0.74403 0.54039 0.0
C243 C 0.75243 0.72394 0.54121 0.0
C244 C 0.79002 0.79052 0.51431 0.0
C245 C 0.80235 0.79945 0.56119 0.0
C246 C 0.79837 0.80229 0.46664 0.0
C247 C 0.78693 0.79292 0.41563 0.0
C248 C 0.78808 0.76503 0.40138 0.0
C249 C 0.77679 0.75629 0.35369 0.0
C250 C 0.76451 0.77529 0.31969 0.0
C251 C 0.76357 0.80309 0.33325 0.0
C252 C 0.77477 0.81193 0.38095 0.0
C253 C 0.89932 0.86831 0.53469 0.0
C254 C 0.8946 0.89351 0.5091 0.0
C255 C 0.87882 0.84817 0.53575 0.0
C256 C 0.85302 0.85293 0.51194 0.0
C257 C 0.84836 0.87788 0.48575 0.0
C258 C 0.86892 0.89794 0.4843 0.0
C259 C 0.83091 0.83188 0.51413 0.0
C260 C 0.81857 0.82291 0.46723 0.0
C261 C 0.82246 0.82017 0.56182 0.0
C262 C 0.83343 0.82984 0.61296 0.0
C263 C 0.83177 0.85775 0.62685 0.0
C264 C 0.84235 0.86674 0.67493 0.0
C265 C 0.85447 0.84799 0.70962 0.0
C266 C 0.85596 0.82018 0.69637 0.0
C267 C 0.84543 0.81108 0.64832 0.0
H268 H 0.86266 0.85499 0.74682 0.0
H269 H 0.75577 0.76849 0.2828 0.0
H270 H 0.74524 0.20198 0.04148 0.0
H271 H 0.71018 0.23824 0.04162 0.0
H272 H 0.76628 0.29306 0.96461 0.0
H273 H 0.80156 0.25685 0.96586 0.0
H274 H 0.74041 0.31879 0.04261 0.0
H275 H 0.71401 0.26277 0.89709 0.0
H276 H 0.70224 0.21975 0.85108 0.0
H277 H 0.63321 0.20793 0.95083 0.0
H278 H 0.64482 0.2507 0.99799 0.0
H279 H 0.63977 0.418 0.96452 0.0
H280 H 0.6754 0.38261 0.96386 0.0
H281 H 0.62314 0.32841 0.05091 0.0
H282 H 0.58766 0.36393 0.05323 0.0
H283 H 0.64728 0.30285 0.96607 0.0
H284 H 0.67462 0.35901 0.11213 0.0
H285 H 0.68662 0.40232 0.15694 0.0
H286 H 0.75419 0.41428 0.05375 0.0
H287 H 0.74233 0.3712 0.0078 0.0
C288 C 0.74999 0.22185 0.02491 0.0
C289 C 0.7759 0.22678 0.00357 0.0
C290 C 0.72998 0.24245 0.02461 0.0
C291 C 0.73551 0.26827 1.00255 0.0
C292 C 0.76156 0.27328 0.98167 0.0
C293 C 0.78158 0.25264 0.98205 0.0
C294 C 0.71413 0.29006 1.00165 0.0
C295 C 0.72019 0.31544 0.02518 0.0
C296 C 0.68756 0.2855 0.9798 0.0
C297 C 0.68045 0.25981 0.95141 0.0
C298 C 0.69645 0.25089 0.9095 0.0
C299 C 0.68979 0.22656 0.88317 0.0
C300 C 0.66703 0.21108 0.89811 0.0
C301 C 0.65086 0.21993 0.93935 0.0
C302 C 0.65746 0.24422 0.96587 0.0
C303 C 0.63593 0.39872 0.98418 0.0
C304 C 0.6108 0.39392 0.00909 0.0
C305 C 0.6563 0.37845 0.9835 0.0
C306 C 0.65195 0.35296 0.00757 0.0
C307 C 0.62685 0.34793 0.03195 0.0
C308 C 0.60654 0.36825 0.033 0.0
C309 C 0.67357 0.33148 0.00718 0.0
C310 C 0.66755 0.30617 0.98338 0.0
C311 C 0.7002 0.33615 0.02854 0.0
C312 C 0.7074 0.36203 0.05617 0.0
C313 C 0.69189 0.371 0.09869 0.0
C314 C 0.69869 0.39548 0.12435 0.0
C315 C 0.7211 0.41108 0.10811 0.0
C316 C 0.7368 0.40219 0.06624 0.0
C317 C 0.73006 0.37773 0.04039 0.0
H318 H 0.72635 0.43003 0.12804 0.0
H319 H 0.6619 0.19226 0.87766 0.0
H320 H 0.17721 0.88201 0.05332 0.0
H321 H 0.15184 0.90907 0.11754 0.0
H322 H 0.11006 0.83547 0.16712 0.0
H323 H 0.136 0.80855 0.10369 0.0
H324 H 0.10019 0.92058 0.13686 0.0
H325 H 0.10202 0.83667 0.29783 0.0
H326 H 0.13039 0.79678 0.32407 0.0
H327 H 0.20077 0.83307 0.25219 0.0
H328 H 0.17297 0.87338 0.22638 0.0
H329 H 0.00844 0.94373 0.35216 0.0
H330 H 0.03356 0.92105 0.28187 0.0
H331 H 0.11028 0.95073 0.34731 0.0
H332 H 0.08528 0.97434 0.41642 0.0
H333 H 0.10544 0.89014 0.32149 0.0
H334 H 0.09625 0.98078 0.25514 0.0
H335 H 0.07382 0.0238 0.22702 0.0
H336 H 0.02759 0.97982 0.10979 0.0
H337 H 0.04886 0.93628 0.13873 0.0
C338 C 0.1623 0.87187 0.07762 0.0
C339 C 0.15856 0.84335 0.07434 0.0
C340 C 0.14785 0.88723 0.11419 0.0
C341 C 0.12942 0.87422 0.14786 0.0
C342 C 0.12462 0.84587 0.14242 0.0
C343 C 0.13928 0.83052 0.10624 0.0
C344 C 0.11615 0.89003 0.19011 0.0
C345 C 0.10122 0.91384 0.17717 0.0
C346 C 0.11818 0.8817 0.243 0.0
C347 C 0.13531 0.85792 0.25975 0.0
C348 C 0.12359 0.83622 0.28793 0.0
C349 C 0.13957 0.81352 0.30269 0.0
C350 C 0.16734 0.81235 0.28967 0.0
C351 C 0.17924 0.83396 0.26214 0.0
C352 C 0.16338 0.85674 0.24744 0.0
C353 C 0.03066 0.94543 0.35144 0.0
C354 C 0.04495 0.96078 0.38963 0.0
C355 C 0.04492 0.93259 0.31127 0.0
C356 C 0.0737 0.93436 0.30947 0.0
C357 C 0.08805 0.94925 0.34807 0.0
C358 C 0.07376 0.96272 0.38736 0.0
C359 C 0.08888 0.92016 0.26788 0.0
C360 C 0.10422 0.89669 0.28107 0.0
C361 C 0.0878 0.92922 0.21549 0.0
C362 C 0.07377 0.95512 0.19988 0.0
C363 C 0.08078 0.98012 0.22429 0.0
C364 C 0.06834 0.00464 0.20806 0.0
C365 C 0.04916 0.00452 0.16687 0.0
C366 C 0.0423 0.97986 0.14196 0.0
C367 C 0.05445 0.95522 0.15843 0.0
H368 H 0.03979 0.02358 0.15404 0.0
H369 H 0.17965 0.79473 0.301 0.0
H370 H 0.69421 0.63612 0.60839 0.0
H371 H 0.66637 0.60963 0.66988 0.0
H372 H 0.59339 0.65173 0.61455 0.0
H373 H 0.62135 0.67788 0.55252 0.0
H374 H 0.60316 0.65182 0.72746 0.0
H375 H 0.59741 0.59062 0.58203 0.0
H376 H 0.61605 0.56292 0.5104 0.0
H377 H 0.66164 0.51375 0.62086 0.0
H378 H 0.64371 0.54153 0.69318 0.0
H379 H 0.51062 0.57356 0.87798 0.0
H380 H 0.53325 0.59685 0.80613 0.0
H381 H 0.60467 0.54523 0.82847 0.0
H382 H 0.58181 0.52127 0.89949 0.0
H383 H 0.59333 0.55029 0.72788 0.0
H384 H 0.60293 0.61283 0.87196 0.0
H385 H 0.58692 0.64145 0.94473 0.0
H386 H 0.53656 0.68858 0.83847 0.0
H387 H 0.552 0.65999 0.76512 0.0
C388 C 0.67218 0.63934 0.60923 0.0
C389 C 0.65972 0.65886 0.57627 0.0
C390 C 0.65634 0.6243 0.64407 0.0
C391 C 0.62787 0.62882 0.64671 0.0
C392 C 0.61534 0.64803 0.61308 0.0
C393 C 0.63116 0.66277 0.57767 0.0
C394 C 0.61155 0.6143 0.68633 0.0
C395 C 0.60053 0.62967 0.72717 0.0
C396 C 0.60888 0.58537 0.68639 0.0
C397 C 0.6194 0.56834 0.64304 0.0
C398 C 0.61159 0.57406 0.59106 0.0
C399 C 0.62201 0.55832 0.55032 0.0
C400 C 0.64005 0.53662 0.56107 0.0
C401 C 0.64767 0.53058 0.6126 0.0
C402 C 0.63738 0.54631 0.65349 0.0
C403 C 0.53119 0.56721 0.86778 0.0
C404 C 0.54448 0.54566 0.8947 0.0
C405 C 0.54413 0.5806 0.8267 0.0
C406 C 0.57083 0.57304 0.81223 0.0
C407 C 0.58408 0.55142 0.83887 0.0
C408 C 0.57103 0.53783 0.87965 0.0
C409 C 0.585 0.58778 0.76956 0.0
C410 C 0.5957 0.57246 0.72812 0.0
C411 C 0.58761 0.61679 0.76915 0.0
C412 C 0.5784 0.63408 0.81315 0.0
C413 C 0.58828 0.62917 0.86417 0.0
C414 C 0.57934 0.6454 0.90551 0.0
C415 C 0.56068 0.66677 0.89625 0.0
C416 C 0.55098 0.67199 0.84559 0.0
C417 C 0.55984 0.6558 0.80412 0.0
H418 H 0.55377 0.67932 0.9283 0.0
H419 H 0.64809 0.52446 0.52948 0.0
H420 H 0.80364 0.13506 0.09683 0.0
H421 H 0.82939 0.10841 0.16262 0.0
H422 H 0.90563 0.13992 0.10294 0.0
H423 H 0.87969 0.16687 0.03754 0.0
H424 H 0.90835 0.08397 0.13181 0.0
H425 H 0.8789 0.17037 0.20414 0.0
H426 H 0.84449 0.20584 0.22448 0.0
H427 H 0.79992 0.14759 0.31627 0.0
H428 H 0.83385 0.11163 0.29575 0.0
H429 H 0.99291 0.0655 0.36085 0.0
H430 H 0.96748 0.08714 0.28829 0.0
H431 H 0.89226 0.05028 0.34111 0.0
H432 H 0.91763 0.02796 0.4129 0.0
H433 H 0.88891 0.10838 0.31547 0.0
H434 H 0.91669 0.02253 0.24644 0.0
H435 H 0.94796 0.98482 0.22331 0.0
H436 H 0.99265 0.03922 0.12376 0.0
H437 H 0.96213 0.07755 0.14756 0.0
C438 C 0.8259 0.13599 0.09765 0.0
C439 C 0.83978 0.15316 0.06292 0.0
C440 C 0.84057 0.12082 0.13502 0.0
C441 C 0.86937 0.12261 0.13821 0.0
C442 C 0.88339 0.13837 0.10126 0.0
C443 C 0.86865 0.15365 0.06394 0.0
C444 C 0.88459 0.10965 0.18236 0.0
C445 C 0.90444 0.08957 0.17194 0.0
C446 C 0.87888 0.1165 0.23473 0.0
C447 C 0.85879 0.13825 0.24804 0.0
C448 C 0.86168 0.16508 0.22841 0.0
C449 C 0.84227 0.18528 0.24 0.0
C450 C 0.82 0.17896 0.27155 0.0
C451 C 0.81717 0.15245 0.29177 0.0
C452 C 0.83649 0.13216 0.28022 0.0
C453 C 0.97093 0.06213 0.35713 0.0
C454 C 0.95724 0.04503 0.39246 0.0
C455 C 0.95648 0.07439 0.3156 0.0
C456 C 0.92805 0.07017 0.30933 0.0
C457 C 0.91421 0.05373 0.34534 0.0
C458 C 0.92873 0.04098 0.38619 0.0
C459 C 0.9128 0.08279 0.26494 0.0
C460 C 0.89295 0.10286 0.27535 0.0
C461 C 0.91836 0.07575 0.21264 0.0
C462 C 0.93738 0.05305 0.1995 0.0
C463 C 0.93351 0.02662 0.22041 0.0
C464 C 0.95105 0.0051 0.20708 0.0
C465 C 0.97236 0.00965 0.17233 0.0
C466 C 0.97624 0.03577 0.15096 0.0
C467 C 0.95884 0.05742 0.16443 0.0
H468 H 0.98568 0.99286 0.16172 0.0
H469 H 0.80498 0.19461 0.28042 0.0
H470 H 0.3806 0.32923 0.54733 0.0
H471 H 0.40767 0.3564 0.61076 0.0
H472 H 0.33466 0.40155 0.65088 0.0
H473 H 0.30763 0.37406 0.58775 0.0
H474 H 0.38623 0.43414 0.64208 0.0
H475 H 0.34831 0.35345 0.72465 0.0
H476 H 0.33962 0.30368 0.73167 0.0
H477 H 0.42657 0.28839 0.74156 0.0
H478 H 0.43579 0.3381 0.73356 0.0
H479 H 0.42396 0.48753 0.88996 0.0
H480 H 0.40025 0.46491 0.817 0.0
H481 H 0.46745 0.40751 0.80428 0.0
H482 H 0.49107 0.42968 0.87796 0.0
H483 H 0.4201 0.38133 0.79595 0.0
H484 H 0.45905 0.46098 0.71763 0.0
H485 H 0.46924 0.51031 0.70739 0.0
H486 H 0.3831 0.52745 0.68646 0.0
H487 H 0.37234 0.47823 0.69735 0.0
C488 C 0.37061 0.34534 0.56912 0.0
C489 C 0.34219 0.34962 0.56338 0.0
C490 C 0.38595 0.36075 0.60524 0.0
C491 C 0.37307 0.38081 0.63563 0.0
C492 C 0.34493 0.38617 0.6277 0.0
C493 C 0.32953 0.37048 0.59206 0.0
C494 C 0.38836 0.39443 0.67882 0.0
C495 C 0.39344 0.42274 0.67603 0.0
C496 C 0.39826 0.3793 0.72233 0.0
C497 C 0.39275 0.34946 0.7279 0.0
C498 C 0.36559 0.33946 0.72783 0.0
C499 C 0.36056 0.31127 0.73206 0.0
C500 C 0.38253 0.29287 0.73692 0.0
C501 C 0.40957 0.30266 0.7377 0.0
C502 C 0.41471 0.33084 0.73332 0.0
C503 C 0.43371 0.47008 0.8717 0.0
C504 C 0.45946 0.46047 0.88972 0.0
C505 C 0.42019 0.45726 0.82976 0.0
C506 C 0.43225 0.43476 0.80459 0.0
C507 C 0.45778 0.42489 0.82297 0.0
C508 C 0.47127 0.43762 0.86507 0.0
C509 C 0.41805 0.42127 0.75963 0.0
C510 C 0.41309 0.39287 0.76204 0.0
C511 C 0.4085 0.43633 0.71556 0.0
C512 C 0.41487 0.46594 0.70882 0.0
C513 C 0.44226 0.47529 0.71126 0.0
C514 C 0.44814 0.50323 0.70527 0.0
C515 C 0.42682 0.52201 0.69641 0.0
C516 C 0.39958 0.51288 0.69339 0.0
C517 C 0.39358 0.48496 0.69943 0.0
H518 H 0.43142 0.54364 0.69178 0.0
H519 H 0.3786 0.27105 0.74021 0.0
H520 H 0.63306 0.69488 0.42686 0.0
H521 H 0.60693 0.66607 0.36462 0.0
H522 H 0.65092 0.59448 0.42007 0.0
H523 H 0.67669 0.6234 0.48285 0.0
H524 H 0.65043 0.60357 0.30727 0.0
H525 H 0.58977 0.59718 0.4512 0.0
H526 H 0.56183 0.61544 0.52254 0.0
H527 H 0.51119 0.65932 0.41176 0.0
H528 H 0.53921 0.64177 0.33975 0.0
H529 H 0.57352 0.50964 0.15136 0.0
H530 H 0.59647 0.53243 0.22502 0.0
H531 H 0.54365 0.60298 0.20397 0.0
H532 H 0.52007 0.58 0.13117 0.0
H533 H 0.54903 0.59162 0.30425 0.0
H534 H 0.61119 0.60226 0.16197 0.0
H535 H 0.63999 0.58669 0.08951 0.0
H536 H 0.68822 0.53733 0.19562 0.0
H537 H 0.65946 0.55235 0.26865 0.0
C538 C 0.63676 0.67294 0.4259 0.0
C539 C 0.65669 0.66115 0.45911 0.0
C540 C 0.62193 0.65655 0.39063 0.0
C541 C 0.62709 0.6282 0.3878 0.0
C542 C 0.64672 0.61633 0.42169 0.0
C543 C 0.66125 0.6327 0.45753 0.0
C544 C 0.61281 0.61133 0.34767 0.0
C545 C 0.62832 0.60047 0.307 0.0
C546 C 0.58392 0.60803 0.34691 0.0
C547 C 0.56677 0.61833 0.39006 0.0
C548 C 0.57283 0.61091 0.44204 0.0
C549 C 0.55696 0.62111 0.48262 0.0
C550 C 0.53478 0.63856 0.4717 0.0
C551 C 0.5284 0.64581 0.42016 0.0
C552 C 0.54427 0.63573 0.37943 0.0
C553 C 0.56682 0.53004 0.1623 0.0
C554 C 0.54506 0.54306 0.13519 0.0
C555 C 0.58 0.54307 0.20441 0.0
C556 C 0.57202 0.56958 0.21973 0.0
C557 C 0.55016 0.58253 0.19295 0.0
C558 C 0.53679 0.56941 0.15115 0.0
C559 C 0.58661 0.58396 0.26327 0.0
C560 C 0.57117 0.59444 0.30461 0.0
C561 C 0.6156 0.58716 0.26446 0.0
C562 C 0.63299 0.5782 0.22066 0.0
C563 C 0.62781 0.58793 0.16978 0.0
C564 C 0.64414 0.57923 0.12862 0.0
C565 C 0.66587 0.56097 0.13793 0.0
C566 C 0.67135 0.55144 0.18846 0.0
C567 C 0.65506 0.56005 0.22975 0.0
H568 H 0.67849 0.55426 0.10602 0.0
H569 H 0.52251 0.64644 0.50316 0.0
H570 H 0.82307 0.12043 0.96306 0.0
H571 H 0.84952 0.09259 0.90125 0.0
H572 H 0.89623 0.16447 0.85933 0.0
H573 H 0.86943 0.19219 0.92047 0.0
H574 H 0.85306 0.10305 0.79098 0.0
H575 H 0.96366 0.14047 0.84057 0.0
H576 H 0.9903 0.15683 0.91724 0.0
H577 H 0.93742 0.11156 0.01856 0.0
H578 H 0.91084 0.09448 0.94253 0.0
H579 H 0.98565 0.07965 0.63023 0.0
H580 H 0.96145 0.10255 0.70092 0.0
H581 H 0.90826 0.03209 0.71597 0.0
H582 H 0.93184 0.00939 0.64462 0.0
H583 H 0.95436 0.09073 0.80131 0.0
H584 H 0.84454 0.05231 0.74991 0.0
H585 H 0.8172 0.03779 0.67274 0.0
H586 H 0.86772 0.0874 0.57433 0.0
H587 H 0.89511 0.1025 0.65096 0.0
C588 C 0.83922 0.13001 0.94087 0.0
C589 C 0.84443 0.15823 0.94603 0.0
C590 C 0.85415 0.11426 0.90559 0.0
C591 C 0.87483 0.1265 0.87589 0.0
C592 C 0.88047 0.15463 0.88213 0.0
C593 C 0.86525 0.17041 0.91678 0.0
C594 C 0.88987 0.11025 0.83678 0.0
C595 C 0.87514 0.0999 0.7936 0.0
C596 C 0.91874 0.10684 0.83979 0.0
C597 C 0.93507 0.11644 0.88577 0.0
C598 C 0.95781 0.13388 0.87917 0.0
C599 C 0.9729 0.14328 0.92254 0.0
C600 C 0.9655 0.13531 0.97273 0.0
C601 C 0.94308 0.1178 0.97967 0.0
C602 C 0.92798 0.10827 0.93644 0.0
C603 C 0.96875 0.06906 0.64851 0.0
C604 C 0.96052 0.04279 0.63145 0.0
C605 C 0.95502 0.08213 0.68909 0.0
C606 C 0.93282 0.0692 0.7134 0.0
C607 C 0.92499 0.04271 0.6972 0.0
C608 C 0.93854 0.02973 0.65642 0.0
C609 C 0.91757 0.08358 0.7551 0.0
C610 C 0.93225 0.09367 0.79875 0.0
C611 C 0.88861 0.08691 0.75243 0.0
C612 C 0.87205 0.07827 0.70613 0.0
C613 C 0.84974 0.06019 0.71182 0.0
C614 C 0.83425 0.05185 0.66817 0.0
C615 C 0.84078 0.06159 0.61865 0.0
C616 C 0.86275 0.07978 0.61269 0.0
C617 C 0.87828 0.08821 0.65621 0.0
H618 H 0.82878 0.05508 0.5849 0.0
H619 H 0.97718 0.14267 0.00624 0.0
H620 H 0.37112 0.3065 0.42222 0.0
H621 H 0.39755 0.33275 0.35819 0.0
H622 H 0.35362 0.40637 0.4 0.0
H623 H 0.3273 0.37998 0.46392 0.0
H624 H 0.35443 0.39654 0.29247 0.0
H625 H 0.41752 0.40018 0.43792 0.0
H626 H 0.44578 0.38062 0.5095 0.0
H627 H 0.49253 0.33453 0.39915 0.0
H628 H 0.46416 0.35341 0.3269 0.0
H629 H 0.43235 0.49105 0.14674 0.0
H630 H 0.40938 0.46678 0.21699 0.0
H631 H 0.46064 0.3958 0.19163 0.0
H632 H 0.48433 0.4203 0.12224 0.0
H633 H 0.45619 0.40468 0.29247 0.0
H634 H 0.39258 0.39865 0.14779 0.0
H635 H 0.36361 0.41629 0.07531 0.0
H636 H 0.31749 0.46487 0.18278 0.0
H637 H 0.34644 0.4478 0.25586 0.0
C638 C 0.36743 0.32832 0.41779 0.0
C639 C 0.34734 0.34139 0.44752 0.0
C640 C 0.38248 0.34329 0.38154 0.0
C641 C 0.37752 0.3715 0.37446 0.0
C642 C 0.35772 0.38463 0.40489 0.0
C643 C 0.34288 0.36969 0.44146 0.0
C644 C 0.39218 0.38706 0.33378 0.0
C645 C 0.37666 0.39871 0.29281 0.0
C646 C 0.4212 0.38914 0.33366 0.0
C647 C 0.43853 0.37802 0.37699 0.0
C648 C 0.43367 0.3857 0.42891 0.0
C649 C 0.44973 0.37475 0.46962 0.0
C650 C 0.47091 0.3563 0.45889 0.0
C651 C 0.4761 0.34881 0.4074 0.0
C652 C 0.46004 0.35963 0.36655 0.0
C653 C 0.4387 0.47024 0.15596 0.0
C654 C 0.46008 0.45755 0.12868 0.0
C655 C 0.42548 0.45635 0.19609 0.0
C656 C 0.433 0.4293 0.20918 0.0
C657 C 0.45447 0.41664 0.18223 0.0
C658 C 0.46791 0.43063 0.14242 0.0
C659 C 0.41844 0.41422 0.25091 0.0
C660 C 0.43397 0.4026 0.29209 0.0
C661 C 0.38939 0.41195 0.25106 0.0
C662 C 0.37185 0.42214 0.20722 0.0
C663 C 0.37638 0.41325 0.15592 0.0
C664 C 0.35995 0.42312 0.11474 0.0
C665 C 0.33877 0.44174 0.12442 0.0
C666 C 0.33393 0.45047 0.17533 0.0
C667 C 0.35033 0.44069 0.21665 0.0
H668 H 0.32607 0.44937 0.09248 0.0
H669 H 0.48333 0.34785 0.49045 0.0
H670 H 0.12354 0.83112 0.9782 0.0
H671 H 0.0968 0.85794 0.91366 0.0
H672 H 0.1714 0.89727 0.86359 0.0
H673 H 0.19797 0.87038 0.92816 0.0
H674 H 0.12554 0.93343 0.86928 0.0
H675 H 0.14954 0.84483 0.79811 0.0
H676 H 0.15135 0.79419 0.79866 0.0
H677 H 0.06308 0.79058 0.79898 0.0
H678 H 0.06076 0.84126 0.79941 0.0
H679 H 0.08448 0.98225 0.62042 0.0
H680 H 0.10843 0.95931 0.69281 0.0
H681 H 0.03661 0.90939 0.71946 0.0
H682 H 0.01296 0.9315 0.64578 0.0
H683 H 0.07977 0.87895 0.72902 0.0
H684 H 0.05458 0.96672 0.79774 0.0
H685 H 0.05165 0.01731 0.8001 0.0
H686 H 0.1398 0.02284 0.80747 0.0
H687 H 0.14327 0.97227 0.80443 0.0
C688 C 0.13397 0.84593 0.95399 0.0
C689 C 0.16264 0.84877 0.95749 0.0
C690 C 0.11882 0.8611 0.91715 0.0
C691 C 0.1322 0.87937 0.88356 0.0
C692 C 0.16071 0.88328 0.88911 0.0
C693 C 0.17584 0.86793 0.92564 0.0
C694 C 0.11691 0.89283 0.84008 0.0
C695 C 0.11569 0.9216 0.83832 0.0
C696 C 0.10362 0.87729 0.80041 0.0
C697 C 0.10499 0.84683 0.79933 0.0
C698 C 0.13052 0.83324 0.7987 0.0
C699 C 0.13164 0.80453 0.79879 0.0
C700 C 0.10735 0.78917 0.79897 0.0
C701 C 0.08188 0.80251 0.79892 0.0
C702 C 0.08065 0.83122 0.79899 0.0
C703 C 0.07383 0.96631 0.6416 0.0
C704 C 0.04679 0.95875 0.6275 0.0
C705 C 0.08747 0.95334 0.68325 0.0
C706 C 0.07415 0.93299 0.71242 0.0
C707 C 0.04732 0.92508 0.69774 0.0
C708 C 0.03381 0.93775 0.65559 0.0
C709 C 0.08824 0.91977 0.75791 0.0
C710 C 0.08936 0.89094 0.76003 0.0
C711 C 0.10121 0.9353 0.79817 0.0
C712 C 0.09918 0.96571 0.80039 0.0
C713 C 0.07334 0.97873 0.79952 0.0
C714 C 0.07158 0.0074 0.80103 0.0
C715 C 0.09552 0.02328 0.80381 0.0
C716 C 0.12127 0.01051 0.80525 0.0
C717 C 0.12315 0.98185 0.8037 0.0
H718 H 0.09412 0.04547 0.80496 0.0
H719 H 0.10825 0.76695 0.79904 0.0
loop_
_geom_bond_atom_site_label_1
_geom_bond_atom_site_label_2
_geom_bond_distance
_geom_bond_site_symmetry_2
_ccdc_geom_bond_type
C0 N1 1.317 . S
C0 N2 1.348 1_556 S
C0 C3 1.485 . S
N1 C0 1.317 . S
N1 N5 1.370 1_556 S
N2 C0 1.348 1_554 S
N2 C4 1.346 . S
C3 C0 1.485 . S
C3 H7 0.960 . S
C3 H8 0.961 . S
C3 H9 0.960 . S
C4 N2 1.346 . S
C4 N5 1.307 . S
C4 C6 1.486 . S
N5 N1 1.370 1_554 S
N5 C4 1.307 . S
C6 C4 1.486 . S
C6 H10 0.960 . S
C6 H11 0.960 . S
C6 H12 0.959 . S
H7 C3 0.960 . S
H8 C3 0.961 . S
H9 C3 0.960 . S
H10 C6 0.960 . S
H11 C6 0.960 . S
H12 C6 0.959 . S
C13 N14 1.317 . S
C13 N15 1.348 . S
C13 C16 1.485 . S
N14 C13 1.317 . S
N14 N18 1.370 . S
N15 C13 1.348 . S
N15 C17 1.346 . S
C16 C13 1.485 . S
C16 H20 0.960 . S
C16 H21 0.961 . S
C16 H22 0.960 . S
C17 N15 1.346 . S
C17 N18 1.307 . S
C17 C19 1.486 . S
N18 N14 1.370 . S
N18 C17 1.307 . S
C19 C17 1.486 . S
C19 H23 0.960 . S
C19 H24 0.960 . S
C19 H25 0.959 . S
H20 C16 0.960 . S
H21 C16 0.961 . S
H22 C16 0.960 . S
H23 C19 0.960 . S
H24 C19 0.960 . S
H25 C19 0.959 . S
C26 N27 1.317 . S
C26 N28 1.348 . S
C26 C29 1.485 . S
N27 C26 1.317 . S
N27 N31 1.370 1_554 S
N28 C26 1.348 . S
N28 C30 1.346 1_554 S
C29 C26 1.485 . S
C29 H33 0.960 . S
C29 H34 0.961 . S
C29 H35 0.960 . S
C30 N28 1.346 1_556 S
C30 N31 1.307 . S
C30 C32 1.486 . S
N31 N27 1.370 1_556 S
N31 C30 1.307 . S
C32 C30 1.486 . S
C32 H36 0.960 . S
C32 H37 0.960 . S
C32 H38 0.959 . S
H33 C29 0.960 . S
H34 C29 0.961 . S
H35 C29 0.960 . S
H36 C32 0.960 . S
H37 C32 0.960 . S
H38 C32 0.959 . S
C39 N40 1.317 . S
C39 N41 1.348 . S
C39 C42 1.485 . S
N40 C39 1.317 . S
N40 N44 1.370 . S
N41 C39 1.348 . S
N41 C43 1.346 . S
C42 C39 1.485 . S
C42 H46 0.960 . S
C42 H47 0.961 . S
C42 H48 0.960 . S
C43 N41 1.346 . S
C43 N44 1.307 . S
C43 C45 1.486 . S
N44 N40 1.370 . S
N44 C43 1.307 . S
C45 C43 1.486 . S
C45 H49 0.960 . S
C45 H50 0.960 . S
C45 H51 0.959 . S
H46 C42 0.960 . S
H47 C42 0.961 . S
H48 C42 0.960 . S
H49 C45 0.960 . S
H50 C45 0.960 . S
H51 C45 0.959 . S
C52 O68 1.251 . S
C52 O70 1.254 . S
N53 C54 1.333 . S
N53 C58 1.307 . S
N53 Zn59 2.020 . S
C54 N53 1.333 . S
C54 C55 1.379 . S
C54 H72 0.952 . S
C55 C54 1.379 . S
C55 C56 1.390 . S
C55 H82 0.949 . S
C56 C55 1.390 . S
C56 C57 1.357 . S
C57 C56 1.357 . S
C57 C58 1.370 . S
C57 H83 0.950 . S
C58 N53 1.307 . S
C58 C57 1.370 . S
C58 H76 0.948 . S
Zn59 N53 2.020 . S
Zn59 O68 2.039 1_545 S
Zn59 O74 2.034 1_545 S
Zn59 O78 2.025 1_455 S
Zn59 O80 2.024 1_455 S
C60 O79 1.246 . S
C60 O80 1.249 . S
N61 C62 1.307 . S
N61 C63 1.333 . S
N61 Zn67 2.020 . S
C62 N61 1.307 . S
C62 C66 1.370 . S
C62 H73 0.948 . S
C63 N61 1.333 . S
C63 C64 1.379 . S
C63 H71 0.952 . S
C64 C63 1.379 . S
C64 C65 1.390 . S
C64 H84 0.949 . S
C65 C64 1.390 . S
C65 C66 1.357 . S
C66 C62 1.370 . S
C66 C65 1.357 . S
C66 H85 0.950 . S
Zn67 N61 2.020 . S
Zn67 O70 2.025 1_655 S
Zn67 O75 2.024 1_655 S
Zn67 O77 2.039 1_565 S
Zn67 O79 2.034 1_565 S
O68 C52 1.251 . S
O68 Zn59 2.039 1_565 S
C69 O74 1.246 . S
C69 O75 1.249 . S
O70 C52 1.254 . S
O70 Zn67 2.025 1_455 S
H71 C63 0.952 . S
H72 C54 0.952 . S
H73 C62 0.948 . S
O74 Zn59 2.034 1_565 S
O74 C69 1.246 . S
O75 Zn67 2.024 1_455 S
O75 C69 1.249 . S
H76 C58 0.948 . S
O77 Zn67 2.039 1_545 S
O77 C81 1.251 . S
O78 Zn59 2.025 1_655 S
O78 C81 1.254 . S
O79 C60 1.246 . S
O79 Zn67 2.034 1_545 S
O80 Zn59 2.024 1_655 S
O80 C60 1.249 . S
C81 O77 1.251 . S
C81 O78 1.254 . S
H82 C55 0.949 . S
H83 C57 0.950 . S
H84 C64 0.949 . S
H85 C66 0.950 . S
C86 O102 1.251 . S
C86 O104 1.254 . S
N87 C88 1.333 1_554 S
N87 C92 1.307 . S
N87 Zn93 2.020 . S
C88 N87 1.333 1_556 S
C88 C89 1.379 . S
C88 H106 0.952 . S
C89 C88 1.379 . S
C89 C90 1.390 1_556 S
C89 H116 0.949 . S
C90 C89 1.390 1_554 S
C90 C91 1.357 . S
C91 C90 1.357 . S
C91 C92 1.370 . S
C91 H117 0.950 . S
C92 N87 1.307 . S
C92 C91 1.370 . S
C92 H110 0.948 . S
Zn93 N87 2.020 . S
Zn93 O102 2.039 1_554 S
Zn93 O108 2.034 . S
Zn93 O112 2.025 . S
Zn93 O114 2.024 1_554 S
C94 O113 1.246 . S
C94 O114 1.249 . S
N95 C96 1.307 1_554 S
N95 C97 1.333 . S
N95 Zn101 2.020 . S
C96 N95 1.307 1_556 S
C96 C100 1.370 . S
C96 H107 0.948 . S
C97 N95 1.333 . S
C97 C98 1.379 . S
C97 H105 0.952 . S
C98 C97 1.379 . S
C98 C99 1.390 . S
C98 H118 0.949 . S
C99 C98 1.390 . S
C99 C100 1.357 1_554 S
C100 C96 1.370 . S
C100 C99 1.357 1_556 S
C100 H119 0.950 . S
Zn101 N95 2.020 . S
Zn101 O104 2.025 1_554 S
Zn101 O109 2.024 . S
Zn101 O111 2.039 . S
Zn101 O113 2.034 1_554 S
O102 C86 1.251 . S
O102 Zn93 2.039 1_556 S
C103 O108 1.246 . S
C103 O109 1.249 . S
O104 C86 1.254 . S
O104 Zn101 2.025 1_556 S
H105 C97 0.952 . S
H106 C88 0.952 . S
H107 C96 0.948 . S
O108 Zn93 2.034 . S
O108 C103 1.246 . S
O109 Zn101 2.024 . S
O109 C103 1.249 . S
H110 C92 0.948 . S
O111 Zn101 2.039 . S
O111 C115 1.251 . S
O112 Zn93 2.025 . S
O112 C115 1.254 . S
O113 C94 1.246 . S
O113 Zn101 2.034 1_556 S
O114 Zn93 2.024 1_556 S
O114 C94 1.249 . S
C115 O111 1.251 . S
C115 O112 1.254 . S
H116 C89 0.949 . S
H117 C91 0.950 . S
H118 C98 0.949 . S
H119 C100 0.950 . S
H120 C138 0.951 . S
H121 C140 0.951 . S
H122 C142 0.950 . S
H123 C143 0.950 . S
H124 C145 0.950 . S
H125 C148 0.950 . S
H126 C149 0.950 . S
H127 C151 0.950 . S
H128 C152 0.950 . S
H129 C153 0.951 . S
H130 C155 0.951 . S
H131 C157 0.950 . S
H132 C158 0.950 . S
H133 C160 0.950 . S
H134 C163 0.950 . S
H135 C164 0.950 . S
H136 C166 0.950 . S
H137 C167 0.950 . S
C138 H120 0.951 . S
C138 C139 1.366 . S
C138 C140 1.388 . S
C139 C138 1.366 . S
C139 C143 1.385 . S
C140 H121 0.951 . S
C140 C138 1.388 . S
C140 C141 1.366 . S
C141 C140 1.366 . S
C141 C142 1.414 . S
C141 C144 1.499 . S
C142 H122 0.950 . S
C142 C141 1.414 . S
C142 C143 1.374 . S
C143 H123 0.950 . S
C143 C139 1.385 . S
C143 C142 1.374 . S
C144 C141 1.499 . S
C144 C145 1.373 . S
C144 C146 1.389 . S
C145 H124 0.950 . S
C145 C144 1.373 . S
C145 C161 1.377 . S
C146 C144 1.389 . S
C146 C147 1.524 . S
C146 C160 1.377 . S
C147 C146 1.524 . S
C147 C148 1.397 . S
C147 C152 1.363 . S
C148 H125 0.950 . S
C148 C147 1.397 . S
C148 C149 1.334 . S
C149 H126 0.950 . S
C149 C148 1.334 . S
C149 C150 1.287 . S
C150 C149 1.287 . S
C150 C151 1.524 . S
C150 H169 0.913 . S
C151 H127 0.950 . S
C151 C150 1.524 . S
C151 C152 1.415 . S
C152 H128 0.950 . S
C152 C147 1.363 . S
C152 C151 1.415 . S
C153 H129 0.951 . S
C153 C154 1.366 . S
C153 C155 1.388 . S
C154 C153 1.366 . S
C154 C158 1.385 . S
C155 H130 0.951 . S
C155 C153 1.388 . S
C155 C156 1.366 . S
C156 C155 1.366 . S
C156 C157 1.414 . S
C156 C159 1.499 . S
C157 H131 0.950 . S
C157 C156 1.414 . S
C157 C158 1.374 . S
C158 H132 0.950 . S
C158 C154 1.385 . S
C158 C157 1.374 . S
C159 C156 1.499 . S
C159 C160 1.373 . S
C159 C161 1.389 . S
C160 H133 0.950 . S
C160 C146 1.377 . S
C160 C159 1.373 . S
C161 C145 1.377 . S
C161 C159 1.389 . S
C161 C162 1.524 . S
C162 C161 1.524 . S
C162 C163 1.397 . S
C162 C167 1.363 . S
C163 H134 0.950 . S
C163 C162 1.397 . S
C163 C164 1.334 . S
C164 H135 0.950 . S
C164 C163 1.334 . S
C164 C165 1.287 . S
C165 C164 1.287 . S
C165 C166 1.524 . S
C165 H168 0.999 . S
C166 H136 0.950 . S
C166 C165 1.524 . S
C166 C167 1.415 . S
C167 H137 0.950 . S
C167 C162 1.363 . S
C167 C166 1.415 . S
H168 C165 0.999 . S
H169 C150 0.913 . S
H170 C188 0.951 . S
H171 C190 0.951 . S
H172 C192 0.950 . S
H173 C193 0.950 . S
H174 C195 0.950 . S
H175 C198 0.950 . S
H176 C199 0.950 . S
H177 C201 0.950 . S
H178 C202 0.950 . S
H179 C203 0.951 . S
H180 C205 0.951 . S
H181 C207 0.950 . S
H182 C208 0.950 . S
H183 C210 0.950 . S
H184 C213 0.950 . S
H185 C214 0.950 . S
H186 C216 0.950 . S
H187 C217 0.950 . S
C188 H170 0.951 . S
C188 C189 1.366 . S
C188 C190 1.388 . S
C189 C188 1.366 . S
C189 C193 1.385 . S
C190 H171 0.951 . S
C190 C188 1.388 . S
C190 C191 1.366 . S
C191 C190 1.366 . S
C191 C192 1.414 . S
C191 C194 1.499 . S
C192 H172 0.950 . S
C192 C191 1.414 . S
C192 C193 1.374 . S
C193 H173 0.950 . S
C193 C189 1.385 . S
C193 C192 1.374 . S
C194 C191 1.499 . S
C194 C195 1.373 1_554 S
C194 C196 1.389 . S
C195 H174 0.950 . S
C195 C194 1.373 1_556 S
C195 C211 1.377 . S
C196 C194 1.389 . S
C196 C197 1.524 . S
C196 C210 1.377 . S
C197 C196 1.524 . S
C197 C198 1.397 . S
C197 C202 1.363 . S
C198 H175 0.950 . S
C198 C197 1.397 . S
C198 C199 1.334 . S
C199 H176 0.950 . S
C199 C198 1.334 . S
C199 C200 1.287 . S
C200 C199 1.287 . S
C200 C201 1.524 . S
C200 H219 0.913 . S
C201 H177 0.950 . S
C201 C200 1.524 . S
C201 C202 1.415 . S
C202 H178 0.950 . S
C202 C197 1.363 . S
C202 C201 1.415 . S
C203 H179 0.951 . S
C203 C204 1.366 . S
C203 C205 1.388 . S
C204 C203 1.366 . S
C204 C208 1.385 . S
C205 H180 0.951 . S
C205 C203 1.388 . S
C205 C206 1.366 . S
C206 C205 1.366 . S
C206 C207 1.414 . S
C206 C209 1.499 . S
C207 H181 0.950 . S
C207 C206 1.414 . S
C207 C208 1.374 . S
C208 H182 0.950 . S
C208 C204 1.385 . S
C208 C207 1.374 . S
C209 C206 1.499 . S
C209 C210 1.373 . S
C209 C211 1.389 1_554 S
C210 H183 0.950 . S
C210 C196 1.377 . S
C210 C209 1.373 . S
C211 C195 1.377 . S
C211 C209 1.389 1_556 S
C211 C212 1.524 . S
C212 C211 1.524 . S
C212 C213 1.397 . S
C212 C217 1.363 . S
C213 H184 0.950 . S
C213 C212 1.397 . S
C213 C214 1.334 . S
C214 H185 0.950 . S
C214 C213 1.334 . S
C214 C215 1.287 . S
C215 C214 1.287 . S
C215 C216 1.524 . S
C215 H218 0.999 . S
C216 H186 0.950 . S
C216 C215 1.524 . S
C216 C217 1.415 . S
C217 H187 0.950 . S
C217 C212 1.363 . S
C217 C216 1.415 . S
H218 C215 0.999 . S
H219 C200 0.913 . S
H220 C238 0.951 . S
H221 C240 0.951 . S
H222 C242 0.950 . S
H223 C243 0.950 . S
H224 C245 0.950 . S
H225 C248 0.950 . S
H226 C249 0.950 . S
H227 C251 0.950 . S
H228 C252 0.950 . S
H229 C253 0.951 . S
H230 C255 0.951 . S
H231 C257 0.950 . S
H232 C258 0.950 . S
H233 C260 0.950 . S
H234 C263 0.950 . S
H235 C264 0.950 . S
H236 C266 0.950 . S
H237 C267 0.950 . S
C238 H220 0.951 . S
C238 C239 1.366 . S
C238 C240 1.388 . S
C239 C238 1.366 . S
C239 C243 1.385 . S
C240 H221 0.951 . S
C240 C238 1.388 . S
C240 C241 1.366 . S
C241 C240 1.366 . S
C241 C242 1.414 . S
C241 C244 1.499 . S
C242 H222 0.950 . S
C242 C241 1.414 . S
C242 C243 1.374 . S
C243 H223 0.950 . S
C243 C239 1.385 . S
C243 C242 1.374 . S
C244 C241 1.499 . S
C244 C245 1.373 . S
C244 C246 1.389 . S
C245 H224 0.950 . S
C245 C244 1.373 . S
C245 C261 1.377 . S
C246 C244 1.389 . S
C246 C247 1.524 . S
C246 C260 1.377 . S
C247 C246 1.524 . S
C247 C248 1.397 . S
C247 C252 1.363 . S
C248 H225 0.950 . S
C248 C247 1.397 . S
C248 C249 1.334 . S
C249 H226 0.950 . S
C249 C248 1.334 . S
C249 C250 1.287 . S
C250 C249 1.287 . S
C250 C251 1.524 . S
C250 H269 0.913 . S
C251 H227 0.950 . S
C251 C250 1.524 . S
C251 C252 1.415 . S
C252 H228 0.950 . S
C252 C247 1.363 . S
C252 C251 1.415 . S
C253 H229 0.951 . S
C253 C254 1.366 . S
C253 C255 1.388 . S
C254 C253 1.366 . S
C254 C258 1.385 . S
C255 H230 0.951 . S
C255 C253 1.388 . S
C255 C256 1.366 . S
C256 C255 1.366 . S
C256 C257 1.414 . S
C256 C259 1.499 . S
C257 H231 0.950 . S
C257 C256 1.414 . S
C257 C258 1.374 . S
C258 H232 0.950 . S
C258 C254 1.385 . S
C258 C257 1.374 . S
C259 C256 1.499 . S
C259 C260 1.373 . S
C259 C261 1.389 . S
C260 H233 0.950 . S
C260 C246 1.377 . S
C260 C259 1.373 . S
C261 C245 1.377 . S
C261 C259 1.389 . S
C261 C262 1.524 . S
C262 C261 1.524 . S
C262 C263 1.397 . S
C262 C267 1.363 . S
C263 H234 0.950 . S
C263 C262 1.397 . S
C263 C264 1.334 . S
C264 H235 0.950 . S
C264 C263 1.334 . S
C264 C265 1.287 . S
C265 C264 1.287 . S
C265 C266 1.524 . S
C265 H268 0.999 . S
C266 H236 0.950 . S
C266 C265 1.524 . S
C266 C267 1.415 . S
C267 H237 0.950 . S
C267 C262 1.363 . S
C267 C266 1.415 . S
H268 C265 0.999 . S
H269 C250 0.913 . S
H270 C288 0.951 . S
H271 C290 0.951 . S
H272 C292 0.950 . S
H273 C293 0.950 . S
H274 C295 0.950 . S
H275 C298 0.950 . S
H276 C299 0.950 . S
H277 C301 0.950 . S
H278 C302 0.950 . S
H279 C303 0.951 . S
H280 C305 0.951 . S
H281 C307 0.950 1_556 S
H282 C308 0.950 1_556 S
H283 C310 0.950 . S
H284 C313 0.950 . S
H285 C314 0.950 . S
H286 C316 0.950 . S
H287 C317 0.950 . S
C288 H270 0.951 . S
C288 C289 1.366 1_556 S
C288 C290 1.388 . S
C289 C288 1.366 1_554 S
C289 C293 1.385 . S
C290 H271 0.951 . S
C290 C288 1.388 . S
C290 C291 1.366 1_556 S
C291 C290 1.366 1_554 S
C291 C292 1.414 . S
C291 C294 1.499 . S
C292 H272 0.950 . S
C292 C291 1.414 . S
C292 C293 1.374 . S
C293 H273 0.950 . S
C293 C289 1.385 . S
C293 C292 1.374 . S
C294 C291 1.499 . S
C294 C295 1.379 . S
C294 C296 1.385 1_554 S
C295 H274 0.950 . S
C295 C294 1.379 . S
C295 C311 1.377 . S
C296 C294 1.385 1_556 S
C296 C297 1.524 . S
C296 C310 1.377 . S
C297 C296 1.524 . S
C297 C298 1.397 . S
C297 C302 1.363 . S
C298 H275 0.950 . S
C298 C297 1.397 . S
C298 C299 1.334 . S
C299 H276 0.950 . S
C299 C298 1.334 . S
C299 C300 1.287 . S
C300 C299 1.287 . S
C300 C301 1.524 . S
C300 H319 0.913 . S
C301 H277 0.950 . S
C301 C300 1.524 . S
C301 C302 1.415 . S
C302 H278 0.950 . S
C302 C297 1.363 . S
C302 C301 1.415 . S
C303 H279 0.951 . S
C303 C304 1.366 . S
C303 C305 1.388 . S
C304 C303 1.366 . S
C304 C308 1.385 . S
C305 H280 0.951 . S
C305 C303 1.388 . S
C305 C306 1.366 . S
C306 C305 1.366 . S
C306 C307 1.414 . S
C306 C309 1.499 . S
C307 H281 0.950 1_554 S
C307 C306 1.414 . S
C307 C308 1.374 . S
C308 H282 0.950 1_554 S
C308 C304 1.385 . S
C308 C307 1.374 . S
C309 C306 1.499 . S
C309 C310 1.373 1_554 S
C309 C311 1.389 . S
C310 H283 0.950 . S
C310 C296 1.377 . S
C310 C309 1.373 1_556 S
C311 C295 1.377 . S
C311 C309 1.389 . S
C311 C312 1.524 . S
C312 C311 1.524 . S
C312 C313 1.397 . S
C312 C317 1.363 . S
C313 H284 0.950 . S
C313 C312 1.397 . S
C313 C314 1.334 . S
C314 H285 0.950 . S
C314 C313 1.334 . S
C314 C315 1.287 . S
C315 C314 1.287 . S
C315 C316 1.524 . S
C315 H318 0.999 . S
C316 H286 0.950 . S
C316 C315 1.524 . S
C316 C317 1.415 . S
C317 H287 0.950 . S
C317 C312 1.363 . S
C317 C316 1.415 . S
H318 C315 0.999 . S
H319 C300 0.913 . S
H320 C338 0.951 . S
H321 C340 0.951 . S
H322 C342 0.950 . S
H323 C343 0.950 . S
H324 C345 0.950 . S
H325 C348 0.950 . S
H326 C349 0.950 . S
H327 C351 0.950 . S
H328 C352 0.950 . S
H329 C353 0.951 . S
H330 C355 0.951 . S
H331 C357 0.950 . S
H332 C358 0.950 . S
H333 C360 0.950 . S
H334 C363 0.950 . S
H335 C364 0.950 . S
H336 C366 0.950 . S
H337 C367 0.950 . S
C338 H320 0.951 . S
C338 C339 1.366 . S
C338 C340 1.388 . S
C339 C338 1.366 . S
C339 C343 1.385 . S
C340 H321 0.951 . S
C340 C338 1.388 . S
C340 C341 1.366 . S
C341 C340 1.366 . S
C341 C342 1.414 . S
C341 C344 1.499 . S
C342 H322 0.950 . S
C342 C341 1.414 . S
C342 C343 1.374 . S
C343 H323 0.950 . S
C343 C339 1.385 . S
C343 C342 1.374 . S
C344 C341 1.499 . S
C344 C345 1.373 . S
C344 C346 1.389 . S
C345 H324 0.950 . S
C345 C344 1.373 . S
C345 C361 1.377 . S
C346 C344 1.389 . S
C346 C347 1.524 . S
C346 C360 1.377 . S
C347 C346 1.524 . S
C347 C348 1.397 . S
C347 C352 1.363 . S
C348 H325 0.950 . S
C348 C347 1.397 . S
C348 C349 1.334 . S
C349 H326 0.950 . S
C349 C348 1.334 . S
C349 C350 1.287 . S
C350 C349 1.287 . S
C350 C351 1.524 . S
C350 H369 0.913 . S
C351 H327 0.950 . S
C351 C350 1.524 . S
C351 C352 1.415 . S
C352 H328 0.950 . S
C352 C347 1.363 . S
C352 C351 1.415 . S
C353 H329 0.951 . S
C353 C354 1.366 . S
C353 C355 1.388 . S
C354 C353 1.366 . S
C354 C358 1.385 . S
C355 H330 0.951 . S
C355 C353 1.388 . S
C355 C356 1.366 . S
C356 C355 1.366 . S
C356 C357 1.414 . S
C356 C359 1.499 . S
C357 H331 0.950 . S
C357 C356 1.414 . S
C357 C358 1.374 . S
C358 H332 0.950 . S
C358 C354 1.385 . S
C358 C357 1.374 . S
C359 C356 1.499 . S
C359 C360 1.373 . S
C359 C361 1.389 . S
C360 H333 0.950 . S
C360 C346 1.377 . S
C360 C359 1.373 . S
C361 C345 1.377 . S
C361 C359 1.389 . S
C361 C362 1.524 . S
C362 C361 1.524 . S
C362 C363 1.397 . S
C362 C367 1.363 . S
C363 H334 0.950 . S
C363 C362 1.397 . S
C363 C364 1.334 1_565 S
C364 H335 0.950 . S
C364 C363 1.334 1_545 S
C364 C365 1.287 . S
C365 C364 1.287 . S
C365 C366 1.524 1_545 S
C365 H368 0.999 . S
C366 H336 0.950 . S
C366 C365 1.524 1_565 S
C366 C367 1.415 . S
C367 H337 0.950 . S
C367 C362 1.363 . S
C367 C366 1.415 . S
H368 C365 0.999 . S
H369 C350 0.913 . S
H370 C388 0.951 . S
H371 C390 0.951 . S
H372 C392 0.950 . S
H373 C393 0.950 . S
H374 C395 0.950 . S
H375 C398 0.950 . S
H376 C399 0.950 . S
H377 C401 0.950 . S
H378 C402 0.950 . S
H379 C403 0.951 . S
H380 C405 0.951 . S
H381 C407 0.950 . S
H382 C408 0.950 . S
H383 C410 0.950 . S
H384 C413 0.950 . S
H385 C414 0.950 . S
H386 C416 0.950 . S
H387 C417 0.950 . S
C388 H370 0.951 . S
C388 C389 1.366 . S
C388 C390 1.388 . S
C389 C388 1.366 . S
C389 C393 1.385 . S
C390 H371 0.951 . S
C390 C388 1.388 . S
C390 C391 1.366 . S
C391 C390 1.366 . S
C391 C392 1.414 . S
C391 C394 1.499 . S
C392 H372 0.950 . S
C392 C391 1.414 . S
C392 C393 1.374 . S
C393 H373 0.950 . S
C393 C389 1.385 . S
C393 C392 1.374 . S
C394 C391 1.499 . S
C394 C395 1.373 . S
C394 C396 1.389 . S
C395 H374 0.950 . S
C395 C394 1.373 . S
C395 C411 1.377 . S
C396 C394 1.389 . S
C396 C397 1.524 . S
C396 C410 1.377 . S
C397 C396 1.524 . S
C397 C398 1.397 . S
C397 C402 1.363 . S
C398 H375 0.950 . S
C398 C397 1.397 . S
C398 C399 1.334 . S
C399 H376 0.950 . S
C399 C398 1.334 . S
C399 C400 1.287 . S
C400 C399 1.287 . S
C400 C401 1.524 . S
C400 H419 0.913 . S
C401 H377 0.950 . S
C401 C400 1.524 . S
C401 C402 1.415 . S
C402 H378 0.950 . S
C402 C397 1.363 . S
C402 C401 1.415 . S
C403 H379 0.951 . S
C403 C404 1.366 . S
C403 C405 1.388 . S
C404 C403 1.366 . S
C404 C408 1.385 . S
C405 H380 0.951 . S
C405 C403 1.388 . S
C405 C406 1.366 . S
C406 C405 1.366 . S
C406 C407 1.414 . S
C406 C409 1.499 . S
C407 H381 0.950 . S
C407 C406 1.414 . S
C407 C408 1.374 . S
C408 H382 0.950 . S
C408 C404 1.385 . S
C408 C407 1.374 . S
C409 C406 1.499 . S
C409 C410 1.373 . S
C409 C411 1.389 . S
C410 H383 0.950 . S
C410 C396 1.377 . S
C410 C409 1.373 . S
C411 C395 1.377 . S
C411 C409 1.389 . S
C411 C412 1.524 . S
C412 C411 1.524 . S
C412 C413 1.397 . S
C412 C417 1.363 . S
C413 H384 0.950 . S
C413 C412 1.397 . S
C413 C414 1.334 . S
C414 H385 0.950 . S
C414 C413 1.334 . S
C414 C415 1.287 . S
C415 C414 1.287 . S
C415 C416 1.524 . S
C415 H418 0.999 . S
C416 H386 0.950 . S
C416 C415 1.524 . S
C416 C417 1.415 . S
C417 H387 0.950 . S
C417 C412 1.363 . S
C417 C416 1.415 . S
H418 C415 0.999 . S
H419 C400 0.913 . S
H420 C438 0.951 . S
H421 C440 0.951 . S
H422 C442 0.950 . S
H423 C443 0.950 . S
H424 C445 0.950 . S
H425 C448 0.950 . S
H426 C449 0.950 . S
H427 C451 0.950 . S
H428 C452 0.950 . S
H429 C453 0.951 . S
H430 C455 0.951 . S
H431 C457 0.950 . S
H432 C458 0.950 . S
H433 C460 0.950 . S
H434 C463 0.950 . S
H435 C464 0.950 . S
H436 C466 0.950 1_455 S
H437 C467 0.950 . S
C438 H420 0.951 . S
C438 C439 1.366 . S
C438 C440 1.388 . S
C439 C438 1.366 . S
C439 C443 1.385 . S
C440 H421 0.951 . S
C440 C438 1.388 . S
C440 C441 1.366 . S
C441 C440 1.366 . S
C441 C442 1.414 . S
C441 C444 1.499 . S
C442 H422 0.950 . S
C442 C441 1.414 . S
C442 C443 1.374 . S
C443 H423 0.950 . S
C443 C439 1.385 . S
C443 C442 1.374 . S
C444 C441 1.499 . S
C444 C445 1.373 . S
C444 C446 1.389 . S
C445 H424 0.950 . S
C445 C444 1.373 . S
C445 C461 1.377 . S
C446 C444 1.389 . S
C446 C447 1.524 . S
C446 C460 1.377 . S
C447 C446 1.524 . S
C447 C448 1.397 . S
C447 C452 1.363 . S
C448 H425 0.950 . S
C448 C447 1.397 . S
C448 C449 1.334 . S
C449 H426 0.950 . S
C449 C448 1.334 . S
C449 C450 1.287 . S
C450 C449 1.287 . S
C450 C451 1.524 . S
C450 H469 0.913 . S
C451 H427 0.950 . S
C451 C450 1.524 . S
C451 C452 1.415 . S
C452 H428 0.950 . S
C452 C447 1.363 . S
C452 C451 1.415 . S
C453 H429 0.951 . S
C453 C454 1.366 . S
C453 C455 1.388 . S
C454 C453 1.366 . S
C454 C458 1.385 . S
C455 H430 0.951 . S
C455 C453 1.388 . S
C455 C456 1.366 . S
C456 C455 1.366 . S
C456 C457 1.414 . S
C456 C459 1.499 . S
C457 H431 0.950 . S
C457 C456 1.414 . S
C457 C458 1.374 . S
C458 H432 0.950 . S
C458 C454 1.385 . S
C458 C457 1.374 . S
C459 C456 1.499 . S
C459 C460 1.373 . S
C459 C461 1.389 . S
C460 H433 0.950 . S
C460 C446 1.377 . S
C460 C459 1.373 . S
C461 C445 1.377 . S
C461 C459 1.389 . S
C461 C462 1.524 . S
C462 C461 1.524 . S
C462 C463 1.397 . S
C462 C467 1.363 . S
C463 H434 0.950 . S
C463 C462 1.397 . S
C463 C464 1.334 . S
C464 H435 0.950 . S
C464 C463 1.334 . S
C464 C465 1.287 . S
C465 C464 1.287 . S
C465 C466 1.524 . S
C465 H468 0.999 1_655 S
C466 H436 0.950 1_655 S
C466 C465 1.524 . S
C466 C467 1.415 . S
C467 H437 0.950 . S
C467 C462 1.363 . S
C467 C466 1.415 . S
H468 C465 0.999 1_455 S
H469 C450 0.913 . S
H470 C488 0.951 . S
H471 C490 0.951 . S
H472 C492 0.950 . S
H473 C493 0.950 . S
H474 C495 0.950 . S
H475 C498 0.950 . S
H476 C499 0.950 . S
H477 C501 0.950 . S
H478 C502 0.950 . S
H479 C503 0.951 . S
H480 C505 0.951 . S
H481 C507 0.950 . S
H482 C508 0.950 . S
H483 C510 0.950 . S
H484 C513 0.950 . S
H485 C514 0.950 . S
H486 C516 0.950 . S
H487 C517 0.950 . S
C488 H470 0.951 . S
C488 C489 1.366 . S
C488 C490 1.388 . S
C489 C488 1.366 . S
C489 C493 1.385 . S
C490 H471 0.951 . S
C490 C488 1.388 . S
C490 C491 1.366 . S
C491 C490 1.366 . S
C491 C492 1.414 . S
C491 C494 1.499 . S
C492 H472 0.950 . S
C492 C491 1.414 . S
C492 C493 1.374 . S
C493 H473 0.950 . S
C493 C489 1.385 . S
C493 C492 1.374 . S
C494 C491 1.499 . S
C494 C495 1.373 . S
C494 C496 1.389 . S
C495 H474 0.950 . S
C495 C494 1.373 . S
C495 C511 1.377 . S
C496 C494 1.389 . S
C496 C497 1.524 . S
C496 C510 1.377 . S
C497 C496 1.524 . S
C497 C498 1.397 . S
C497 C502 1.363 . S
C498 H475 0.950 . S
C498 C497 1.397 . S
C498 C499 1.334 . S
C499 H476 0.950 . S
C499 C498 1.334 . S
C499 C500 1.287 . S
C500 C499 1.287 . S
C500 C501 1.524 . S
C500 H519 0.913 . S
C501 H477 0.950 . S
C501 C500 1.524 . S
C501 C502 1.415 . S
C502 H478 0.950 . S
C502 C497 1.363 . S
C502 C501 1.415 . S
C503 H479 0.951 . S
C503 C504 1.366 . S
C503 C505 1.388 . S
C504 C503 1.366 . S
C504 C508 1.385 . S
C505 H480 0.951 . S
C505 C503 1.388 . S
C505 C506 1.366 . S
C506 C505 1.366 . S
C506 C507 1.414 . S
C506 C509 1.499 . S
C507 H481 0.950 . S
C507 C506 1.414 . S
C507 C508 1.374 . S
C508 H482 0.950 . S
C508 C504 1.385 . S
C508 C507 1.374 . S
C509 C506 1.499 . S
C509 C510 1.373 . S
C509 C511 1.389 . S
C510 H483 0.950 . S
C510 C496 1.377 . S
C510 C509 1.373 . S
C511 C495 1.377 . S
C511 C509 1.389 . S
C511 C512 1.524 . S
C512 C511 1.524 . S
C512 C513 1.397 . S
C512 C517 1.363 . S
C513 H484 0.950 . S
C513 C512 1.397 . S
C513 C514 1.334 . S
C514 H485 0.950 . S
C514 C513 1.334 . S
C514 C515 1.287 . S
C515 C514 1.287 . S
C515 C516 1.524 . S
C515 H518 0.999 . S
C516 H486 0.950 . S
C516 C515 1.524 . S
C516 C517 1.415 . S
C517 H487 0.950 . S
C517 C512 1.363 . S
C517 C516 1.415 . S
H518 C515 0.999 . S
H519 C500 0.913 . S
H520 C538 0.951 . S
H521 C540 0.951 . S
H522 C542 0.950 . S
H523 C543 0.950 . S
H524 C545 0.950 . S
H525 C548 0.950 . S
H526 C549 0.950 . S
H527 C551 0.950 . S
H528 C552 0.950 . S
H529 C553 0.951 . S
H530 C555 0.951 . S
H531 C557 0.950 . S
H532 C558 0.950 . S
H533 C560 0.950 . S
H534 C563 0.950 . S
H535 C564 0.950 . S
H536 C566 0.950 . S
H537 C567 0.950 . S
C538 H520 0.951 . S
C538 C539 1.366 . S
C538 C540 1.388 . S
C539 C538 1.366 . S
C539 C543 1.385 . S
C540 H521 0.951 . S
C540 C538 1.388 . S
C540 C541 1.366 . S
C541 C540 1.366 . S
C541 C542 1.414 . S
C541 C544 1.499 . S
C542 H522 0.950 . S
C542 C541 1.414 . S
C542 C543 1.374 . S
C543 H523 0.950 . S
C543 C539 1.385 . S
C543 C542 1.374 . S
C544 C541 1.499 . S
C544 C545 1.373 . S
C544 C546 1.389 . S
C545 H524 0.950 . S
C545 C544 1.373 . S
C545 C561 1.377 . S
C546 C544 1.389 . S
C546 C547 1.524 . S
C546 C560 1.377 . S
C547 C546 1.524 . S
C547 C548 1.397 . S
C547 C552 1.363 . S
C548 H525 0.950 . S
C548 C547 1.397 . S
C548 C549 1.334 . S
C549 H526 0.950 . S
C549 C548 1.334 . S
C549 C550 1.287 . S
C550 C549 1.287 . S
C550 C551 1.524 . S
C550 H569 0.913 . S
C551 H527 0.950 . S
C551 C550 1.524 . S
C551 C552 1.415 . S
C552 H528 0.950 . S
C552 C547 1.363 . S
C552 C551 1.415 . S
C553 H529 0.951 . S
C553 C554 1.366 . S
C553 C555 1.388 . S
C554 C553 1.366 . S
C554 C558 1.385 . S
C555 H530 0.951 . S
C555 C553 1.388 . S
C555 C556 1.366 . S
C556 C555 1.366 . S
C556 C557 1.414 . S
C556 C559 1.499 . S
C557 H531 0.950 . S
C557 C556 1.414 . S
C557 C558 1.374 . S
C558 H532 0.950 . S
C558 C554 1.385 . S
C558 C557 1.374 . S
C559 C556 1.499 . S
C559 C560 1.373 . S
C559 C561 1.389 . S
C560 H533 0.950 . S
C560 C546 1.377 . S
C560 C559 1.373 . S
C561 C545 1.377 . S
C561 C559 1.389 . S
C561 C562 1.524 . S
C562 C561 1.524 . S
C562 C563 1.397 . S
C562 C567 1.363 . S
C563 H534 0.950 . S
C563 C562 1.397 . S
C563 C564 1.334 . S
C564 H535 0.950 . S
C564 C563 1.334 . S
C564 C565 1.287 . S
C565 C564 1.287 . S
C565 C566 1.524 . S
C565 H568 0.999 . S
C566 H536 0.950 . S
C566 C565 1.524 . S
C566 C567 1.415 . S
C567 H537 0.950 . S
C567 C562 1.363 . S
C567 C566 1.415 . S
H568 C565 0.999 . S
H569 C550 0.913 . S
H570 C588 0.951 . S
H571 C590 0.951 . S
H572 C592 0.950 . S
H573 C593 0.950 . S
H574 C595 0.950 . S
H575 C598 0.950 . S
H576 C599 0.950 . S
H577 C601 0.950 . S
H578 C602 0.950 . S
H579 C603 0.951 . S
H580 C605 0.951 . S
H581 C607 0.950 . S
H582 C608 0.950 . S
H583 C610 0.950 . S
H584 C613 0.950 . S
H585 C614 0.950 . S
H586 C616 0.950 . S
H587 C617 0.950 . S
C588 H570 0.951 . S
C588 C589 1.366 . S
C588 C590 1.388 . S
C589 C588 1.366 . S
C589 C593 1.385 . S
C590 H571 0.951 . S
C590 C588 1.388 . S
C590 C591 1.366 . S
C591 C590 1.366 . S
C591 C592 1.414 . S
C591 C594 1.499 . S
C592 H572 0.950 . S
C592 C591 1.414 . S
C592 C593 1.374 . S
C593 H573 0.950 . S
C593 C589 1.385 . S
C593 C592 1.374 . S
C594 C591 1.499 . S
C594 C595 1.373 . S
C594 C596 1.389 . S
C595 H574 0.950 . S
C595 C594 1.373 . S
C595 C611 1.377 . S
C596 C594 1.389 . S
C596 C597 1.524 . S
C596 C610 1.377 . S
C597 C596 1.524 . S
C597 C598 1.397 . S
C597 C602 1.363 . S
C598 H575 0.950 . S
C598 C597 1.397 . S
C598 C599 1.334 . S
C599 H576 0.950 . S
C599 C598 1.334 . S
C599 C600 1.287 . S
C600 C599 1.287 . S
C600 C601 1.524 . S
C600 H619 0.913 . S
C601 H577 0.950 . S
C601 C600 1.524 . S
C601 C602 1.415 . S
C602 H578 0.950 . S
C602 C597 1.363 . S
C602 C601 1.415 . S
C603 H579 0.951 . S
C603 C604 1.366 . S
C603 C605 1.388 . S
C604 C603 1.366 . S
C604 C608 1.385 . S
C605 H580 0.951 . S
C605 C603 1.388 . S
C605 C606 1.366 . S
C606 C605 1.366 . S
C606 C607 1.414 . S
C606 C609 1.499 . S
C607 H581 0.950 . S
C607 C606 1.414 . S
C607 C608 1.374 . S
C608 H582 0.950 . S
C608 C604 1.385 . S
C608 C607 1.374 . S
C609 C606 1.499 . S
C609 C610 1.373 . S
C609 C611 1.389 . S
C610 H583 0.950 . S
C610 C596 1.377 . S
C610 C609 1.373 . S
C611 C595 1.377 . S
C611 C609 1.389 . S
C611 C612 1.524 . S
C612 C611 1.524 . S
C612 C613 1.397 . S
C612 C617 1.363 . S
C613 H584 0.950 . S
C613 C612 1.397 . S
C613 C614 1.334 . S
C614 H585 0.950 . S
C614 C613 1.334 . S
C614 C615 1.287 . S
C615 C614 1.287 . S
C615 C616 1.524 . S
C615 H618 0.999 . S
C616 H586 0.950 . S
C616 C615 1.524 . S
C616 C617 1.415 . S
C617 H587 0.950 . S
C617 C612 1.363 . S
C617 C616 1.415 . S
H618 C615 0.999 . S
H619 C600 0.913 . S
H620 C638 0.951 . S
H621 C640 0.951 . S
H622 C642 0.950 . S
H623 C643 0.950 . S
H624 C645 0.950 . S
H625 C648 0.950 . S
H626 C649 0.950 . S
H627 C651 0.950 . S
H628 C652 0.950 . S
H629 C653 0.951 . S
H630 C655 0.951 . S
H631 C657 0.950 . S
H632 C658 0.950 . S
H633 C660 0.950 . S
H634 C663 0.950 . S
H635 C664 0.950 . S
H636 C666 0.950 . S
H637 C667 0.950 . S
C638 H620 0.951 . S
C638 C639 1.366 . S
C638 C640 1.388 . S
C639 C638 1.366 . S
C639 C643 1.385 . S
C640 H621 0.951 . S
C640 C638 1.388 . S
C640 C641 1.366 . S
C641 C640 1.366 . S
C641 C642 1.414 . S
C641 C644 1.499 . S
C642 H622 0.950 . S
C642 C641 1.414 . S
C642 C643 1.374 . S
C643 H623 0.950 . S
C643 C639 1.385 . S
C643 C642 1.374 . S
C644 C641 1.499 . S
C644 C645 1.373 . S
C644 C646 1.389 . S
C645 H624 0.950 . S
C645 C644 1.373 . S
C645 C661 1.377 . S
C646 C644 1.389 . S
C646 C647 1.524 . S
C646 C660 1.377 . S
C647 C646 1.524 . S
C647 C648 1.397 . S
C647 C652 1.363 . S
C648 H625 0.950 . S
C648 C647 1.397 . S
C648 C649 1.334 . S
C649 H626 0.950 . S
C649 C648 1.334 . S
C649 C650 1.287 . S
C650 C649 1.287 . S
C650 C651 1.524 . S
C650 H669 0.913 . S
C651 H627 0.950 . S
C651 C650 1.524 . S
C651 C652 1.415 . S
C652 H628 0.950 . S
C652 C647 1.363 . S
C652 C651 1.415 . S
C653 H629 0.951 . S
C653 C654 1.366 . S
C653 C655 1.388 . S
C654 C653 1.366 . S
C654 C658 1.385 . S
C655 H630 0.951 . S
C655 C653 1.388 . S
C655 C656 1.366 . S
C656 C655 1.366 . S
C656 C657 1.414 . S
C656 C659 1.499 . S
C657 H631 0.950 . S
C657 C656 1.414 . S
C657 C658 1.374 . S
C658 H632 0.950 . S
C658 C654 1.385 . S
C658 C657 1.374 . S
C659 C656 1.499 . S
C659 C660 1.373 . S
C659 C661 1.389 . S
C660 H633 0.950 . S
C660 C646 1.377 . S
C660 C659 1.373 . S
C661 C645 1.377 . S
C661 C659 1.389 . S
C661 C662 1.524 . S
C662 C661 1.524 . S
C662 C663 1.397 . S
C662 C667 1.363 . S
C663 H634 0.950 . S
C663 C662 1.397 . S
C663 C664 1.334 . S
C664 H635 0.950 . S
C664 C663 1.334 . S
C664 C665 1.287 . S
C665 C664 1.287 . S
C665 C666 1.524 . S
C665 H668 0.999 . S
C666 H636 0.950 . S
C666 C665 1.524 . S
C666 C667 1.415 . S
C667 H637 0.950 . S
C667 C662 1.363 . S
C667 C666 1.415 . S
H668 C665 0.999 . S
H669 C650 0.913 . S
H670 C688 0.951 . S
H671 C690 0.951 . S
H672 C692 0.950 . S
H673 C693 0.950 . S
H674 C695 0.950 . S
H675 C698 0.950 . S
H676 C699 0.950 . S
H677 C701 0.950 . S
H678 C702 0.950 . S
H679 C703 0.951 . S
H680 C705 0.951 . S
H681 C707 0.950 . S
H682 C708 0.950 . S
H683 C710 0.950 . S
H684 C713 0.950 . S
H685 C714 0.980 . S
H686 C716 0.950 . S
H687 C717 0.950 . S
C688 H670 0.951 . S
C688 C689 1.366 . S
C688 C690 1.388 . S
C689 C688 1.366 . S
C689 C693 1.385 . S
C690 H671 0.951 . S
C690 C688 1.388 . S
C690 C691 1.366 . S
C691 C690 1.366 . S
C691 C692 1.414 . S
C691 C694 1.499 . S
C692 H672 0.950 . S
C692 C691 1.414 . S
C692 C693 1.374 . S
C693 H673 0.950 . S
C693 C689 1.385 . S
C693 C692 1.374 . S
C694 C691 1.499 . S
C694 C695 1.373 . S
C694 C696 1.389 . S
C695 H674 0.950 . S
C695 C694 1.373 . S
C695 C711 1.377 . S
C696 C694 1.389 . S
C696 C697 1.524 . S
C696 C710 1.377 . S
C697 C696 1.524 . S
C697 C698 1.397 . S
C697 C702 1.363 . S
C698 H675 0.950 . S
C698 C697 1.397 . S
C698 C699 1.334 . S
C699 H676 0.950 . S
C699 C698 1.334 . S
C699 C700 1.287 . S
C700 C699 1.287 . S
C700 C701 1.524 . S
C700 H719 0.913 . S
C701 H677 0.950 . S
C701 C700 1.524 . S
C701 C702 1.415 . S
C702 H678 0.950 . S
C702 C697 1.363 . S
C702 C701 1.415 . S
C703 H679 0.951 . S
C703 C704 1.366 . S
C703 C705 1.388 . S
C704 C703 1.366 . S
C704 C708 1.385 . S
C705 H680 0.951 . S
C705 C703 1.388 . S
C705 C706 1.366 . S
C706 C705 1.366 . S
C706 C707 1.414 . S
C706 C709 1.499 . S
C707 H681 0.950 . S
C707 C706 1.414 . S
C707 C708 1.374 . S
C708 H682 0.950 . S
C708 C704 1.385 . S
C708 C707 1.374 . S
C709 C706 1.499 . S
C709 C710 1.373 . S
C709 C711 1.389 . S
C710 H683 0.950 . S
C710 C696 1.377 . S
C710 C709 1.373 . S
C711 C695 1.377 . S
C711 C709 1.389 . S
C711 C712 1.524 . S
C712 C711 1.524 . S
C712 C713 1.397 . S
C712 C717 1.363 . S
C713 H684 0.950 . S
C713 C712 1.397 . S
C713 C714 1.307 1_565 S
C714 H685 0.980 . S
C714 C713 1.307 1_545 S
C714 C715 1.284 1_545 S
C715 C714 1.284 1_565 S
C715 C716 1.524 . S
C715 H718 0.999 1_565 S
C716 H686 0.950 . S
C716 C715 1.524 . S
C716 C717 1.415 . S
C717 H687 0.950 . S
C717 C712 1.363 . S
C717 C716 1.415 . S
H718 C715 0.999 1_545 S
H719 C700 0.913 . S
C154 C56 1.519 . S
C139 N41 1.521 . S
C189 N2 1.521 . S
C204 C99 1.520 . S
C239 N15 1.520 . S
C254 C65 1.519 . S
C289 N28 1.520 . S
C304 C90 1.520 . S
C354 C52 1.522 . S
C339 N5 1.518 . S
C404 C94 1.520 . S
C389 N14 1.515 . S
C439 N27 1.513 . S
C454 C60 1.518 . S
C489 N44 1.516 . S
C504 C86 1.521 . S
C554 C115 1.522 . S
C539 N18 1.515 . S
C604 C81 1.523 . S
C589 N31 1.518 . S
C654 C103 1.520 . S
C639 N40 1.517 . S
C689 N1 1.515 . S
C704 C69 1.518 . S
