# Generated by pormake.
# Topology ptr, (4,4)-cn, num edge types: 1
# Building blocks:
#     Node 0, Type 0, BuildingBlock: NAHDIM_clean_sbu_0, # of connection points: 4
#     Node 1, Type 0, BuildingBlock: NAHDIM_clean_sbu_0, # of connection points: 4
#     Node 2, Type 0, BuildingBlock: NAHDIM_clean_sbu_0, # of connection points: 4
#     Node 3, Type 0, BuildingBlock: NAHDIM_clean_sbu_0, # of connection points: 4
#     Node 4, Type 0, BuildingBlock: NAHDIM_clean_sbu_0, # of connection points: 4
#     Node 5, Type 0, BuildingBlock: NAHDIM_clean_sbu_0, # of connection points: 4
#     Node 6, Type 0, BuildingBlock: NAHDIM_clean_sbu_0, # of connection points: 4
#     Node 7, Type 0, BuildingBlock: NAHDIM_clean_sbu_0, # of connection points: 4
#     Node 8, Type 0, BuildingBlock: NAHDIM_clean_sbu_0, # of connection points: 4
#     Node 9, Type 0, BuildingBlock: NAHDIM_clean_sbu_0, # of connection points: 4
#     Node 10, Type 0, BuildingBlock: NAHDIM_clean_sbu_0, # of connection points: 4
#     Node 11, Type 0, BuildingBlock: NAHDIM_clean_sbu_0, # of connection points: 4
#     Node 12, Type 0, BuildingBlock: NAHDIM_clean_sbu_0, # of connection points: 4
#     Node 13, Type 0, BuildingBlock: NAHDIM_clean_sbu_0, # of connection points: 4
#     Node 14, Type 0, BuildingBlock: NAHDIM_clean_sbu_0, # of connection points: 4
#     Node 15, Type 0, BuildingBlock: NAHDIM_clean_sbu_0, # of connection points: 4
#     Node 16, Type 0, BuildingBlock: NAHDIM_clean_sbu_0, # of connection points: 4
#     Node 17, Type 0, BuildingBlock: NAHDIM_clean_sbu_0, # of connection points: 4
#     Node 18, Type 1, BuildingBlock: MUDLON_clean_linker_0, # of connection points: 4
#     Node 19, Type 1, BuildingBlock: MUDLON_clean_linker_0, # of connection points: 4
#     Node 20, Type 1, BuildingBlock: MUDLON_clean_linker_0, # of connection points: 4
#     Node 21, Type 1, BuildingBlock: MUDLON_clean_linker_0, # of connection points: 4
#     Node 22, Type 1, BuildingBlock: MUDLON_clean_linker_0, # of connection points: 4
#     Node 23, Type 1, BuildingBlock: MUDLON_clean_linker_0, # of connection points: 4
#     Node 24, Type 1, BuildingBlock: MUDLON_clean_linker_0, # of connection points: 4
#     Node 25, Type 1, BuildingBlock: MUDLON_clean_linker_0, # of connection points: 4
#     Node 26, Type 1, BuildingBlock: MUDLON_clean_linker_0, # of connection points: 4
#     Node 27, Type 1, BuildingBlock: MUDLON_clean_linker_0, # of connection points: 4
#     Node 28, Type 1, BuildingBlock: MUDLON_clean_linker_0, # of connection points: 4
#     Node 29, Type 1, BuildingBlock: MUDLON_clean_linker_0, # of connection points: 4
#     Node 30, Type 1, BuildingBlock: MUDLON_clean_linker_0, # of connection points: 4
#     Node 31, Type 1, BuildingBlock: MUDLON_clean_linker_0, # of connection points: 4
#     Node 32, Type 1, BuildingBlock: MUDLON_clean_linker_0, # of connection points: 4
#     Node 33, Type 1, BuildingBlock: MUDLON_clean_linker_0, # of connection points: 4
#     Node 34, Type 1, BuildingBlock: MUDLON_clean_linker_0, # of connection points: 4
#     Node 35, Type 1, BuildingBlock: MUDLON_clean_linker_0, # of connection points: 4
#     Edge 36, Type (0, 1), BuildingBlock: UVAHIK_clean_linker_0, # of connection points: 2
#     Edge 37, Type (0, 1), BuildingBlock: UVAHIK_clean_linker_0, # of connection points: 2
#     Edge 38, Type (0, 1), BuildingBlock: UVAHIK_clean_linker_0, # of connection points: 2
#     Edge 39, Type (0, 1), BuildingBlock: UVAHIK_clean_linker_0, # of connection points: 2
#     Edge 40, Type (0, 1), BuildingBlock: UVAHIK_clean_linker_0, # of connection points: 2
#     Edge 41, Type (0, 1), BuildingBlock: UVAHIK_clean_linker_0, # of connection points: 2
#     Edge 42, Type (0, 1), BuildingBlock: UVAHIK_clean_linker_0, # of connection points: 2
#     Edge 43, Type (0, 1), BuildingBlock: UVAHIK_clean_linker_0, # of connection points: 2
#     Edge 44, Type (0, 1), BuildingBlock: UVAHIK_clean_linker_0, # of connection points: 2
#     Edge 45, Type (0, 1), BuildingBlock: UVAHIK_clean_linker_0, # of connection points: 2
#     Edge 46, Type (0, 1), BuildingBlock: UVAHIK_clean_linker_0, # of connection points: 2
#     Edge 47, Type (0, 1), BuildingBlock: UVAHIK_clean_linker_0, # of connection points: 2
#     Edge 48, Type (0, 1), BuildingBlock: UVAHIK_clean_linker_0, # of connection points: 2
#     Edge 49, Type (0, 1), BuildingBlock: UVAHIK_clean_linker_0, # of connection points: 2
#     Edge 50, Type (0, 1), BuildingBlock: UVAHIK_clean_linker_0, # of connection points: 2
#     Edge 51, Type (0, 1), BuildingBlock: UVAHIK_clean_linker_0, # of connection points: 2
#     Edge 52, Type (0, 1), BuildingBlock: UVAHIK_clean_linker_0, # of connection points: 2
#     Edge 53, Type (0, 1), BuildingBlock: UVAHIK_clean_linker_0, # of connection points: 2
#     Edge 54, Type (0, 1), BuildingBlock: UVAHIK_clean_linker_0, # of connection points: 2
#     Edge 55, Type (0, 1), BuildingBlock: UVAHIK_clean_linker_0, # of connection points: 2
#     Edge 56, Type (0, 1), BuildingBlock: UVAHIK_clean_linker_0, # of connection points: 2
#     Edge 57, Type (0, 1), BuildingBlock: UVAHIK_clean_linker_0, # of connection points: 2
#     Edge 58, Type (0, 1), BuildingBlock: UVAHIK_clean_linker_0, # of connection points: 2
#     Edge 59, Type (0, 1), BuildingBlock: UVAHIK_clean_linker_0, # of connection points: 2
#     Edge 60, Type (0, 1), BuildingBlock: UVAHIK_clean_linker_0, # of connection points: 2
#     Edge 61, Type (0, 1), BuildingBlock: UVAHIK_clean_linker_0, # of connection points: 2
#     Edge 62, Type (0, 1), BuildingBlock: UVAHIK_clean_linker_0, # of connection points: 2
#     Edge 63, Type (0, 1), BuildingBlock: UVAHIK_clean_linker_0, # of connection points: 2
#     Edge 64, Type (0, 1), BuildingBlock: UVAHIK_clean_linker_0, # of connection points: 2
#     Edge 65, Type (0, 1), BuildingBlock: UVAHIK_clean_linker_0, # of connection points: 2
#     Edge 66, Type (0, 1), BuildingBlock: UVAHIK_clean_linker_0, # of connection points: 2
#     Edge 67, Type (0, 1), BuildingBlock: UVAHIK_clean_linker_0, # of connection points: 2
#     Edge 68, Type (0, 1), BuildingBlock: UVAHIK_clean_linker_0, # of connection points: 2
#     Edge 69, Type (0, 1), BuildingBlock: UVAHIK_clean_linker_0, # of connection points: 2
#     Edge 70, Type (0, 1), BuildingBlock: UVAHIK_clean_linker_0, # of connection points: 2
#     Edge 71, Type (0, 1), BuildingBlock: UVAHIK_clean_linker_0, # of connection points: 2
#     Edge 72, Type (0, 1), BuildingBlock: UVAHIK_clean_linker_0, # of connection points: 2
#     Edge 73, Type (0, 1), BuildingBlock: UVAHIK_clean_linker_0, # of connection points: 2
#     Edge 74, Type (0, 1), BuildingBlock: UVAHIK_clean_linker_0, # of connection points: 2
#     Edge 75, Type (0, 1), BuildingBlock: UVAHIK_clean_linker_0, # of connection points: 2
#     Edge 76, Type (0, 1), BuildingBlock: UVAHIK_clean_linker_0, # of connection points: 2
#     Edge 77, Type (0, 1), BuildingBlock: UVAHIK_clean_linker_0, # of connection points: 2
#     Edge 78, Type (0, 1), BuildingBlock: UVAHIK_clean_linker_0, # of connection points: 2
#     Edge 79, Type (0, 1), BuildingBlock: UVAHIK_clean_linker_0, # of connection points: 2
#     Edge 80, Type (0, 1), BuildingBlock: UVAHIK_clean_linker_0, # of connection points: 2
#     Edge 81, Type (0, 1), BuildingBlock: UVAHIK_clean_linker_0, # of connection points: 2
#     Edge 82, Type (0, 1), BuildingBlock: UVAHIK_clean_linker_0, # of connection points: 2
#     Edge 83, Type (0, 1), BuildingBlock: UVAHIK_clean_linker_0, # of connection points: 2
#     Edge 84, Type (0, 1), BuildingBlock: UVAHIK_clean_linker_0, # of connection points: 2
#     Edge 85, Type (0, 1), BuildingBlock: UVAHIK_clean_linker_0, # of connection points: 2
#     Edge 86, Type (0, 1), BuildingBlock: UVAHIK_clean_linker_0, # of connection points: 2
#     Edge 87, Type (0, 1), BuildingBlock: UVAHIK_clean_linker_0, # of connection points: 2
#     Edge 88, Type (0, 1), BuildingBlock: UVAHIK_clean_linker_0, # of connection points: 2
#     Edge 89, Type (0, 1), BuildingBlock: UVAHIK_clean_linker_0, # of connection points: 2
#     Edge 90, Type (0, 1), BuildingBlock: UVAHIK_clean_linker_0, # of connection points: 2
#     Edge 91, Type (0, 1), BuildingBlock: UVAHIK_clean_linker_0, # of connection points: 2
#     Edge 92, Type (0, 1), BuildingBlock: UVAHIK_clean_linker_0, # of connection points: 2
#     Edge 93, Type (0, 1), BuildingBlock: UVAHIK_clean_linker_0, # of connection points: 2
#     Edge 94, Type (0, 1), BuildingBlock: UVAHIK_clean_linker_0, # of connection points: 2
#     Edge 95, Type (0, 1), BuildingBlock: UVAHIK_clean_linker_0, # of connection points: 2
#     Edge 96, Type (0, 1), BuildingBlock: UVAHIK_clean_linker_0, # of connection points: 2
#     Edge 97, Type (0, 1), BuildingBlock: UVAHIK_clean_linker_0, # of connection points: 2
#     Edge 98, Type (0, 1), BuildingBlock: UVAHIK_clean_linker_0, # of connection points: 2
#     Edge 99, Type (0, 1), BuildingBlock: UVAHIK_clean_linker_0, # of connection points: 2
#     Edge 100, Type (0, 1), BuildingBlock: UVAHIK_clean_linker_0, # of connection points: 2
#     Edge 101, Type (0, 1), BuildingBlock: UVAHIK_clean_linker_0, # of connection points: 2
#     Edge 102, Type (0, 1), BuildingBlock: UVAHIK_clean_linker_0, # of connection points: 2
#     Edge 103, Type (0, 1), BuildingBlock: UVAHIK_clean_linker_0, # of connection points: 2
#     Edge 104, Type (0, 1), BuildingBlock: UVAHIK_clean_linker_0, # of connection points: 2
#     Edge 105, Type (0, 1), BuildingBlock: UVAHIK_clean_linker_0, # of connection points: 2
#     Edge 106, Type (0, 1), BuildingBlock: UVAHIK_clean_linker_0, # of connection points: 2
#     Edge 107, Type (0, 1), BuildingBlock: UVAHIK_clean_linker_0, # of connection points: 2
# Relax obj value: 0.063
# Max RMSD: 0.199
# Mean RMSD: 0.101
data_MOF--net-ptr--node1-NAHDIM_clean_sbu_0--node2-MUDLON_clean_linker_0--edge1-UVAHIK_clean_linker_0
_symmetry_space_group_name_H-M    P1
_symmetry_Int_Tables_number       1
_symmetry_cell_setting            triclinic
loop_
_symmetry_equiv_pos_as_xyz
'x, y, z'
_cell_length_a     129.64564
_cell_length_b     127.50562
_cell_length_c     74.625128
_cell_angle_alpha  91.424819
_cell_angle_beta   89.289769
_cell_angle_gamma 121.54387
loop_
_atom_site_label
_atom_site_type_symbol
_atom_site_fract_x
_atom_site_fract_y
_atom_site_fract_z
_atom_type_partial_charge
C0 C 0.01658 0.36253 0.02713 0.0
O1 O 0.00662 0.35763 0.03674 0.0
O2 O 0.98894 0.35343 0.00776 0.0
Zn3 Zn 0.00313 0.3708 0.0105 0.0
O4 O 0.00134 0.37955 0.03218 0.0
C5 C 0.99488 0.37716 0.9798 0.0
O6 O 0.98451 0.36837 0.9862 0.0
O7 O 0.0177 0.36936 0.0142 0.0
C8 C 0.99579 0.38533 0.03176 0.0
O9 O 0.99066 0.38544 0.01677 0.0
C10 C 0.9791 0.3484 0.01655 0.0
O11 O 0.97738 0.35479 0.02902 0.0
O12 O 0.00461 0.38001 0.98793 0.0
C13 C 0.66578 0.64868 0.00336 0.0
O14 O 0.6622 0.65606 0.99827 0.0
O15 O 0.64374 0.65225 0.02255 0.0
Zn16 Zn 0.64158 0.63579 0.01588 0.0
O17 O 0.63146 0.62842 0.99355 0.0
C18 C 0.6268 0.62531 0.04717 0.0
O19 O 0.62465 0.63416 0.04467 0.0
O20 O 0.65827 0.63879 0.0112 0.0
C21 C 0.61996 0.62213 0.99407 0.0
O22 O 0.61445 0.62064 0.00953 0.0
C23 C 0.63743 0.6566 0.01746 0.0
O24 O 0.62806 0.64994 0.00692 0.0
O25 O 0.63388 0.62416 0.03648 0.0
C26 C 0.36121 0.02805 -0.00041 0.0
O27 O 0.35563 0.01809 0.98931 0.0
O28 O 0.35061 0.99857 0.01656 0.0
Zn29 Zn 0.36797 0.01289 0.01604 0.0
O30 O 0.37706 0.01104 0.99519 0.0
C31 C 0.37369 0.00466 0.04815 0.0
O32 O 0.3646 0.99393 0.04266 0.0
O33 O 0.36753 0.02826 0.01263 0.0
C34 C 0.38202 0.00471 0.99625 0.0
O35 O 0.38117 0.99911 0.01122 0.0
C36 C 0.3471 0.98779 0.01056 0.0
O37 O 0.35504 0.98544 0.0036 0.0
O38 O 0.37661 0.01417 0.03916 0.0
C39 C 0.97894 0.64115 0.99165 0.0
O40 O 0.98885 0.64535 0.98204 0.0
O41 O 0.00625 0.65214 0.01697 0.0
Zn42 Zn 0.99267 0.63478 0.01206 0.0
O43 O 0.99653 0.62721 0.99102 0.0
C44 C 0.99642 0.62002 0.03596 0.0
O45 O 0.00492 0.62238 0.02412 0.0
O46 O 0.97803 0.6356 0.00604 0.0
C47 C 0.98907 0.61586 0.98771 0.0
O48 O 0.97942 0.60991 0.99787 0.0
C49 C 0.01742 0.65623 0.01449 0.0
O50 O 0.02082 0.64876 0.00833 0.0
O51 O 0.98979 0.62452 0.03386 0.0
C52 C 0.33673 0.36411 0.99842 0.0
O53 O 0.33873 0.35828 0.98537 0.0
O54 O 0.35746 0.35474 0.0036 0.0
Zn55 Zn 0.3613 0.37227 0.00561 0.0
O56 O 0.37204 0.38118 0.027 0.0
C57 C 0.37595 0.37925 0.97327 0.0
O58 O 0.37746 0.37021 0.97755 0.0
O59 O 0.34536 0.37118 0.00897 0.0
C60 C 0.38347 0.38623 0.02604 0.0
O61 O 0.38837 0.38557 0.01088 0.0
C62 C 0.36423 0.35083 0.00831 0.0
O63 O 0.375 0.3586 0.01497 0.0
O64 O 0.3693 0.38162 0.9831 0.0
C65 C 0.64233 0.98076 0.01806 0.0
O66 O 0.64934 0.99189 0.02489 0.0
O67 O 0.64644 0.00782 0.00366 0.0
Zn68 Zn 0.63002 0.99232 0.00636 0.0
O69 O 0.62152 0.99368 0.02827 0.0
C70 C 0.62221 0.99668 0.97229 0.0
O71 O 0.63257 0.00722 0.97322 0.0
O72 O 0.63291 0.97836 0.00944 0.0
C73 C 0.61472 0.99807 0.02731 0.0
O74 O 0.61347 0.002 0.01185 0.0
C75 C 0.64904 0.01884 0.00617 0.0
O76 O 0.64045 0.021 0.01043 0.0
O77 O 0.61944 0.98892 0.9846 0.0
C78 C 0.67639 0.68822 0.35353 0.0
O79 O 0.66499 0.68123 0.35819 0.0
O80 O 0.65167 0.68813 0.33355 0.0
Zn81 Zn 0.66737 0.70315 0.34192 0.0
O82 O 0.66459 0.70989 0.36491 0.0
C83 C 0.67804 0.71561 0.30866 0.0
O84 O 0.67945 0.70624 0.30561 0.0
O85 O 0.67982 0.69841 0.34612 0.0
C86 C 0.65832 0.71491 0.36488 0.0
O87 O 0.65376 0.71566 0.34968 0.0
C88 C 0.64308 0.68169 0.34436 0.0
O89 O 0.6443 0.68501 0.36138 0.0
O90 O 0.67321 0.7162 0.32327 0.0
C91 C 0.32733 0.97615 0.35758 0.0
O92 O 0.32722 0.98406 0.36906 0.0
O93 O 0.30699 0.98627 0.35726 0.0
Zn94 Zn 0.30232 0.96874 0.35227 0.0
O95 O 0.29299 0.9622 0.32919 0.0
C96 C 0.28591 0.95958 0.3828 0.0
O97 O 0.28507 0.96927 0.38033 0.0
O98 O 0.31768 0.96858 0.34918 0.0
C99 C 0.28151 0.95624 0.32819 0.0
O100 O 0.27512 0.95454 0.34282 0.0
C101 C 0.30102 0.99116 0.35286 0.0
O102 O 0.29059 0.98444 0.34457 0.0
O103 O 0.29272 0.95768 0.3726 0.0
C104 C 0.03443 0.3582 0.32839 0.0
O105 O 0.03176 0.34941 0.31641 0.0
O106 O 0.02298 0.32825 0.35363 0.0
Zn107 Zn 0.03961 0.34277 0.34813 0.0
O108 O 0.04741 0.33983 0.32651 0.0
C109 C 0.05257 0.33751 0.37267 0.0
O110 O 0.04761 0.32752 0.36243 0.0
O111 O 0.03828 0.35758 0.34367 0.0
C112 C 0.04483 0.32948 0.31976 0.0
O113 O 0.03607 0.31928 0.32674 0.0
C114 C 0.01459 0.3217 0.34241 0.0
O115 O 0.01651 0.32402 0.32524 0.0
O116 O 0.05039 0.3459 0.36939 0.0
C117 C 0.64574 0.96918 0.32487 0.0
O118 O 0.65392 0.97222 0.31226 0.0
O119 O 0.67604 0.98225 0.34976 0.0
Zn120 Zn 0.66242 0.96506 0.34321 0.0
O121 O 0.66603 0.9585 0.32056 0.0
C122 C 0.66897 0.95239 0.36683 0.0
O123 O 0.67875 0.95799 0.35689 0.0
O124 O 0.64719 0.96543 0.33971 0.0
C125 C 0.67665 0.96201 0.31501 0.0
O126 O 0.68603 0.97059 0.32407 0.0
C127 C 0.68139 0.99106 0.33888 0.0
O128 O 0.67828 0.98911 0.32189 0.0
O129 O 0.66027 0.95395 0.3636 0.0
C130 C 0.99898 0.69993 0.33713 0.0
O131 O 0.00062 0.69294 0.32568 0.0
O132 O 0.02285 0.69495 0.33412 0.0
Zn133 Zn 0.02467 0.7112 0.34124 0.0
O134 O 0.03467 0.71785 0.36378 0.0
C135 C 0.04108 0.72286 0.31198 0.0
O136 O 0.04332 0.71411 0.31477 0.0
O137 O 0.00807 0.70863 0.34541 0.0
C138 C 0.04367 0.71658 0.36604 0.0
O139 O 0.04619 0.71075 0.35367 0.0
C140 C 0.01885 0.68613 0.34497 0.0
O141 O 0.01599 0.68767 0.36136 0.0
O142 O 0.03322 0.72342 0.32162 0.0
C143 C 0.29346 0.30445 0.35338 0.0
O144 O 0.28652 0.30595 0.3648 0.0
O145 O 0.31178 0.34029 0.32916 0.0
Zn146 Zn 0.29563 0.32577 0.33607 0.0
O147 O 0.28927 0.3298 0.35838 0.0
C148 C 0.28037 0.32878 0.31233 0.0
O149 O 0.28463 0.33901 0.32192 0.0
O150 O 0.29801 0.31163 0.34023 0.0
C151 C 0.29349 0.34077 0.36421 0.0
O152 O 0.30245 0.34994 0.35562 0.0
C153 C 0.32105 0.34332 0.33862 0.0
O154 O 0.31983 0.33699 0.35296 0.0
O155 O 0.28382 0.3214 0.3159 0.0
C156 C 0.35751 0.04053 0.69322 0.0
O157 O 0.35433 0.04585 0.7055 0.0
O158 O 0.32322 0.01987 0.66787 0.0
Zn159 Zn 0.33671 0.03728 0.67306 0.0
O160 O 0.33251 0.04499 0.69361 0.0
C161 C 0.33183 0.04835 0.64379 0.0
O162 O 0.32076 0.04202 0.65016 0.0
O163 O 0.35148 0.03653 0.67874 0.0
C164 C 0.33815 0.05668 0.69469 0.0
O165 O 0.34644 0.0631 0.68264 0.0
C166 C 0.3122 0.01508 0.67242 0.0
O167 O 0.30875 0.02181 0.68111 0.0
O168 O 0.34014 0.04754 0.65121 0.0
C169 C 0.00381 0.3118 0.68752 0.0
O170 O 0.00349 0.32053 0.69676 0.0
O171 O 0.98117 0.31895 0.68719 0.0
Zn172 Zn 0.97809 0.30183 0.68348 0.0
O173 O 0.96853 0.29399 0.66091 0.0
C174 C 0.96891 0.29517 0.71983 0.0
O175 O 0.97589 0.30704 0.72323 0.0
O176 O 0.99405 0.30285 0.68101 0.0
C177 C 0.95718 0.28951 0.66035 0.0
O178 O 0.95165 0.29035 0.6747 0.0
C179 C 0.98127 0.32536 0.67433 0.0
O180 O 0.97884 0.32058 0.65801 0.0
O181 O 0.96863 0.29104 0.70406 0.0
C182 C 0.69861 0.69595 0.68569 0.0
O183 O 0.6935 0.68859 0.69927 0.0
O184 O 0.69153 0.66543 0.68597 0.0
Zn185 Zn 0.7078 0.68014 0.67973 0.0
O186 O 0.71472 0.67659 0.6577 0.0
C187 C 0.71805 0.67608 0.71083 0.0
O188 O 0.7089 0.66476 0.70833 0.0
O189 O 0.70551 0.69429 0.6753 0.0
C190 C 0.71538 0.66699 0.65666 0.0
O191 O 0.71128 0.65929 0.66999 0.0
C192 C 0.68414 0.65748 0.67469 0.0
O193 O 0.68709 0.65851 0.65764 0.0
O194 O 0.71938 0.68439 0.70031 0.0
C195 C 0.31257 0.30931 0.68314 0.0
O196 O 0.32004 0.31479 0.69667 0.0
O197 O 0.34315 0.31861 0.68021 0.0
Zn198 Zn 0.32904 0.30138 0.67645 0.0
O199 O 0.33248 0.29388 0.655 0.0
C200 C 0.31658 0.2831 0.70374 0.0
O201 O 0.30684 0.28126 0.69555 0.0
O202 O 0.31435 0.30252 0.67239 0.0
C203 C 0.32428 0.28424 0.64698 0.0
O204 O 0.31304 0.27903 0.65261 0.0
C205 C 0.35371 0.32097 0.68385 0.0
O206 O 0.35557 0.31184 0.68539 0.0
O207 O 0.32694 0.29128 0.69803 0.0
C208 C 0.66786 0.02476 0.68077 0.0
O209 O 0.67136 0.01708 0.68452 0.0
O210 O 0.69211 0.02338 0.66225 0.0
Zn211 Zn 0.69255 0.03892 0.66995 0.0
O212 O 0.70198 0.04582 0.69285 0.0
C213 C 0.69597 0.05073 0.63583 0.0
O214 O 0.68497 0.0414 0.6326 0.0
O215 O 0.67548 0.03508 0.67409 0.0
C216 C 0.71346 0.05128 0.69277 0.0
O217 O 0.71907 0.05225 0.67755 0.0
C218 C 0.69421 0.01713 0.67303 0.0
O219 O 0.69701 0.02098 0.68976 0.0
O220 O 0.70085 0.05156 0.65088 0.0
C221 C 0.9697 0.65118 0.68219 0.0
O222 O 0.97679 0.66204 0.68979 0.0
O223 O 0.97746 0.67851 0.66116 0.0
Zn224 Zn 0.96045 0.66459 0.66623 0.0
O225 O 0.9536 0.66858 0.68797 0.0
C226 C 0.9512 0.66882 0.63373 0.0
O227 O 0.96036 0.68016 0.63606 0.0
O228 O 0.96155 0.64979 0.6714 0.0
C229 C 0.94816 0.67445 0.68699 0.0
O230 O 0.947 0.67819 0.67133 0.0
C231 C 0.98193 0.68972 0.66588 0.0
O232 O 0.97509 0.69306 0.67424 0.0
O233 O 0.94955 0.6607 0.64486 0.0
H234 H 0.21219 0.32973 0.12277 0.0
N235 N 0.19181 0.31023 0.10725 0.0
H236 H 0.22115 0.32997 0.15121 0.0
H237 H 0.18413 0.29176 0.13002 0.0
H238 H 0.19316 0.292 0.15897 0.0
H239 H 0.19912 0.29773 0.08742 0.0
H240 H 0.21576 0.30596 0.06577 0.0
H241 H 0.20408 0.33377 0.09438 0.0
H242 H 0.2205 0.34198 0.07262 0.0
H243 H 0.19296 0.32926 0.12761 0.0
H244 H 0.17149 0.30079 0.0883 0.0
H245 H 0.17827 0.33539 0.12847 0.0
H246 H 0.15692 0.30751 0.0882 0.0
H247 H 0.133 0.35527 0.13717 0.0
H248 H 0.12276 0.35287 0.16582 0.0
H249 H 0.11032 0.31408 0.16442 0.0
H250 H 0.12005 0.31649 0.13548 0.0
H251 H 0.11075 0.31747 0.10646 0.0
H252 H 0.09577 0.31728 0.08677 0.0
H253 H 0.12067 0.35575 0.07596 0.0
H254 H 0.13571 0.35568 0.09525 0.0
H255 H 0.15623 0.35187 0.11661 0.0
H256 H 0.17092 0.34552 0.11263 0.0
H257 H 0.14157 0.30778 0.10494 0.0
N258 N 0.13238 0.3378 0.11639 0.0
H259 H 0.12708 0.31442 0.10763 0.0
C260 C 0.1974 0.31066 0.12415 0.0
C261 C 0.20794 0.3214 0.13041 0.0
C262 C 0.21303 0.32158 0.14683 0.0
C263 C 0.2078 0.31104 0.15738 0.0
C264 C 0.19739 0.30025 0.15107 0.0
C265 C 0.19222 0.3001 0.13463 0.0
C266 C 0.20033 0.31505 0.09257 0.0
C267 C 0.2036 0.30734 0.08394 0.0
C268 C 0.21308 0.31205 0.07154 0.0
C269 C 0.2195 0.32465 0.06759 0.0
C270 C 0.21582 0.33227 0.07557 0.0
C271 C 0.20634 0.32754 0.08793 0.0
C272 C 0.18328 0.31431 0.10805 0.0
C273 C 0.18511 0.32427 0.11909 0.0
C274 C 0.1767 0.32795 0.11937 0.0
C275 C 0.16638 0.32203 0.10833 0.0
C276 C 0.16464 0.31219 0.09711 0.0
C277 C 0.17299 0.30837 0.09706 0.0
C278 C 0.12742 0.33616 0.13421 0.0
C279 C 0.12818 0.3463 0.14322 0.0
C280 C 0.12237 0.3449 0.15964 0.0
C281 C 0.11569 0.33326 0.1675 0.0
C282 C 0.11522 0.32314 0.15866 0.0
C283 C 0.12094 0.32454 0.14212 0.0
C284 C 0.12437 0.33663 0.10228 0.0
C285 C 0.11315 0.32573 0.09936 0.0
C286 C 0.10453 0.32568 0.08824 0.0
C287 C 0.10694 0.33655 0.07995 0.0
C288 C 0.11851 0.34719 0.08194 0.0
C289 C 0.12712 0.34719 0.093 0.0
C290 C 0.14061 0.33365 0.11276 0.0
C291 C 0.15303 0.34226 0.11386 0.0
C292 C 0.16138 0.33856 0.11176 0.0
C293 C 0.15747 0.32607 0.10883 0.0
C294 C 0.14496 0.31748 0.1071 0.0
C295 C 0.13661 0.32125 0.10887 0.0
H296 H 0.71616 0.81006 0.12723 0.0
N297 N 0.69804 0.81173 0.11468 0.0
H298 H 0.71692 0.8012 0.15559 0.0
H299 H 0.68151 0.8047 0.14207 0.0
H300 H 0.68209 0.79573 0.17011 0.0
H301 H 0.67384 0.79421 0.1138 0.0
H302 H 0.66435 0.7754 0.09538 0.0
H303 H 0.70788 0.80661 0.08716 0.0
H304 H 0.69839 0.78783 0.0684 0.0
H305 H 0.71612 0.83352 0.10498 0.0
H306 H 0.6784 0.8143 0.11947 0.0
H307 H 0.71605 0.85248 0.10181 0.0
H308 H 0.67839 0.83331 0.11768 0.0
H309 H 0.71276 0.91255 0.12325 0.0
H310 H 0.71014 0.92074 0.15178 0.0
H311 H 0.6782 0.88536 0.16253 0.0
H312 H 0.68078 0.87737 0.13378 0.0
H313 H 0.67452 0.88318 0.10615 0.0
H314 H 0.66613 0.89113 0.08518 0.0
H315 H 0.7008 0.91125 0.05861 0.0
H316 H 0.70921 0.90346 0.08008 0.0
H317 H 0.71616 0.88702 0.11785 0.0
H318 H 0.71582 0.86777 0.11902 0.0
H319 H 0.67903 0.84811 0.09911 0.0
N320 N 0.6984 0.89031 0.10889 0.0
H321 H 0.67924 0.8673 0.09911 0.0
C322 C 0.69886 0.80811 0.13248 0.0
C323 C 0.70883 0.80718 0.13674 0.0
C324 C 0.70919 0.80202 0.15285 0.0
C325 C 0.69953 0.79769 0.16506 0.0
C326 C 0.68975 0.7991 0.1611 0.0
C327 C 0.68939 0.80423 0.14496 0.0
C328 C 0.69163 0.80179 0.10188 0.0
C329 C 0.6792 0.79307 0.10364 0.0
C330 C 0.67376 0.7823 0.09303 0.0
C331 C 0.68066 0.78007 0.08058 0.0
C332 C 0.69289 0.78921 0.07806 0.0
C333 C 0.6983 0.79996 0.08864 0.0
C334 C 0.6974 0.82257 0.11277 0.0
C335 C 0.70786 0.83345 0.10767 0.0
C336 C 0.7078 0.8443 0.10602 0.0
C337 C 0.69725 0.84454 0.10974 0.0
C338 C 0.68667 0.83351 0.11456 0.0
C339 C 0.6867 0.8226 0.11588 0.0
C340 C 0.69703 0.8944 0.12644 0.0
C341 C 0.70528 0.90657 0.13189 0.0
C342 C 0.70378 0.91119 0.14822 0.0
C343 C 0.69395 0.9037 0.15945 0.0
C344 C 0.68578 0.89141 0.1541 0.0
C345 C 0.68729 0.8868 0.13773 0.0
C346 C 0.69258 0.89284 0.09475 0.0
C347 C 0.68026 0.88909 0.09561 0.0
C348 C 0.67545 0.8936 0.08351 0.0
C349 C 0.68283 0.90195 0.07034 0.0
C350 C 0.69492 0.90501 0.06879 0.0
C351 C 0.69973 0.9005 0.08092 0.0
C352 C 0.69785 0.87871 0.10822 0.0
C353 C 0.70805 0.87854 0.11367 0.0
C354 C 0.70784 0.86751 0.11419 0.0
C355 C 0.69742 0.85631 0.10901 0.0
C356 C 0.68717 0.85649 0.10342 0.0
C357 C 0.68733 0.86755 0.1032 0.0
H358 H 0.13117 0.8069 0.14301 0.0
N359 N 0.12163 0.8114 0.11364 0.0
H360 H 0.12139 0.80005 0.17206 0.0
H361 H 0.10184 0.81076 0.12521 0.0
H362 H 0.09203 0.80407 0.15448 0.0
H363 H 0.10967 0.80749 0.08299 0.0
H364 H 0.09771 0.7879 0.06635 0.0
H365 H 0.12068 0.78982 0.12022 0.0
H366 H 0.10912 0.7705 0.10357 0.0
H367 H 0.13915 0.80556 0.10649 0.0
H368 H 0.1337 0.83575 0.1173 0.0
H369 H 0.16073 0.81973 0.10532 0.0
H370 H 0.15561 0.85008 0.11704 0.0
H371 H 0.22964 0.87063 0.13451 0.0
H372 H 0.23801 0.88202 0.1628 0.0
H373 H 0.21136 0.89266 0.16318 0.0
H374 H 0.20302 0.8812 0.13503 0.0
H375 H 0.21672 0.89212 0.10837 0.0
H376 H 0.23053 0.90559 0.08566 0.0
H377 H 0.23431 0.87583 0.06467 0.0
H378 H 0.22102 0.86261 0.08842 0.0
H379 H 0.19884 0.84581 0.12605 0.0
H380 H 0.17694 0.83183 0.12494 0.0
H381 H 0.17339 0.85982 0.0992 0.0
N382 N 0.21162 0.86886 0.11546 0.0
H383 H 0.19525 0.87391 0.10123 0.0
C384 C 0.1172 0.80934 0.13186 0.0
C385 C 0.12278 0.80658 0.14549 0.0
C386 C 0.11718 0.80268 0.16216 0.0
C387 C 0.10589 0.80142 0.16554 0.0
C388 C 0.10065 0.80479 0.15221 0.0
C389 C 0.10626 0.8087 0.13556 0.0
C390 C 0.11604 0.80019 0.10286 0.0
C391 C 0.10971 0.79947 0.08734 0.0
C392 C 0.10292 0.78829 0.07785 0.0
C393 C 0.10236 0.77761 0.08377 0.0
C394 C 0.10916 0.77849 0.09886 0.0
C395 C 0.11585 0.7896 0.10836 0.0
C396 C 0.1346 0.81955 0.11193 0.0
C397 C 0.14248 0.81521 0.10862 0.0
C398 C 0.15498 0.82339 0.10812 0.0
C399 C 0.15998 0.83608 0.11123 0.0
C400 C 0.15211 0.84041 0.11433 0.0
C401 C 0.13958 0.83223 0.11459 0.0
C402 C 0.2157 0.87498 0.13271 0.0
C403 C 0.22555 0.87533 0.14083 0.0
C404 C 0.23036 0.8819 0.15688 0.0
C405 C 0.22537 0.88828 0.16517 0.0
C406 C 0.21532 0.88773 0.15721 0.0
C407 C 0.21055 0.88119 0.1411 0.0
C408 C 0.21807 0.8764 0.10037 0.0
C409 C 0.22046 0.88844 0.09886 0.0
C410 C 0.22829 0.89614 0.08564 0.0
C411 C 0.23373 0.8919 0.07339 0.0
C412 C 0.23058 0.87954 0.07414 0.0
C413 C 0.22289 0.87192 0.08758 0.0
C414 C 0.19871 0.8608 0.11357 0.0
C415 C 0.19331 0.84887 0.12009 0.0
C416 C 0.18079 0.84088 0.11932 0.0
C417 C 0.17335 0.84463 0.11182 0.0
C418 C 0.1788 0.85664 0.10521 0.0
C419 C 0.19135 0.86469 0.10618 0.0
H420 H 0.32745 0.2206 0.89547 0.0
N421 N 0.30892 0.19896 0.90872 0.0
H422 H 0.32793 0.22944 0.86672 0.0
H423 H 0.29243 0.18889 0.88267 0.0
H424 H 0.29295 0.19755 0.85347 0.0
H425 H 0.29925 0.21288 0.91404 0.0
H426 H 0.30558 0.22992 0.93519 0.0
H427 H 0.32428 0.20464 0.93828 0.0
H428 H 0.33032 0.22143 0.95962 0.0
H429 H 0.33306 0.20699 0.90587 0.0
H430 H 0.29748 0.17462 0.91083 0.0
H431 H 0.34191 0.19426 0.90426 0.0
H432 H 0.30616 0.16163 0.90813 0.0
H433 H 0.36118 0.14732 0.87214 0.0
H434 H 0.35669 0.13538 0.84406 0.0
H435 H 0.31841 0.11912 0.8538 0.0
H436 H 0.32302 0.13114 0.88188 0.0
H437 H 0.3279 0.12437 0.90874 0.0
H438 H 0.33062 0.11214 0.93051 0.0
H439 H 0.3678 0.14154 0.93822 0.0
H440 H 0.36501 0.15373 0.91604 0.0
H441 H 0.35298 0.16831 0.88174 0.0
H442 H 0.34414 0.18105 0.88512 0.0
H443 H 0.31752 0.15468 0.92164 0.0
N444 N 0.34557 0.14672 0.89599 0.0
H445 H 0.32591 0.14167 0.91719 0.0
C446 C 0.30983 0.20406 0.89125 0.0
C447 C 0.31995 0.21542 0.88631 0.0
C448 C 0.32022 0.22046 0.86979 0.0
C449 C 0.31047 0.21423 0.85776 0.0
C450 C 0.30053 0.20269 0.86253 0.0
C451 C 0.30024 0.19768 0.87912 0.0
C452 C 0.3118 0.20785 0.92339 0.0
C453 C 0.30608 0.21467 0.9239 0.0
C454 C 0.30962 0.22437 0.93621 0.0
C455 C 0.31872 0.22729 0.94888 0.0
C456 C 0.32363 0.21975 0.94959 0.0
C457 C 0.32017 0.21009 0.93713 0.0
C458 C 0.31457 0.19174 0.90874 0.0
C459 C 0.32713 0.19711 0.90654 0.0
C460 C 0.33218 0.18977 0.90547 0.0
C461 C 0.32478 0.17685 0.90596 0.0
C462 C 0.31221 0.17153 0.90807 0.0
C463 C 0.3072 0.17892 0.90952 0.0
C464 C 0.34248 0.14011 0.87905 0.0
C465 C 0.35184 0.14127 0.86808 0.0
C466 C 0.34925 0.13448 0.85205 0.0
C467 C 0.33719 0.12632 0.84673 0.0
C468 C 0.32778 0.12526 0.85765 0.0
C469 C 0.3304 0.13214 0.87365 0.0
C470 C 0.34631 0.14002 0.91072 0.0
C471 C 0.33658 0.12832 0.91531 0.0
C472 C 0.33813 0.12133 0.92788 0.0
C473 C 0.34945 0.12584 0.93605 0.0
C474 C 0.35901 0.13776 0.93201 0.0
C475 C 0.35742 0.14476 0.91947 0.0
C476 C 0.34028 0.15412 0.89929 0.0
C477 C 0.34525 0.16533 0.8905 0.0
C478 C 0.34022 0.17264 0.89259 0.0
C479 C 0.33014 0.169 0.90381 0.0
C480 C 0.32518 0.15775 0.91271 0.0
C481 C 0.33009 0.15031 0.91032 0.0
H482 H 0.77654 0.11956 0.89526 0.0
N483 N 0.79659 0.12004 0.90763 0.0
H484 H 0.76657 0.11125 0.86647 0.0
H485 H 0.80326 0.11031 0.88136 0.0
H486 H 0.79309 0.10162 0.85254 0.0
H487 H 0.78593 0.09724 0.91934 0.0
H488 H 0.76903 0.08717 0.94012 0.0
H489 H 0.7881 0.1318 0.92983 0.0
H490 H 0.77175 0.12199 0.95116 0.0
H491 H 0.79405 0.1395 0.89974 0.0
H492 H 0.81981 0.12984 0.91575 0.0
H493 H 0.80992 0.16105 0.89938 0.0
H494 H 0.83606 0.1515 0.91443 0.0
H495 H 0.86461 0.22737 0.88108 0.0
H496 H 0.87786 0.23538 0.85495 0.0
H497 H 0.88718 0.20766 0.86055 0.0
H498 H 0.87395 0.19979 0.88685 0.0
H499 H 0.88045 0.20901 0.91664 0.0
H500 H 0.89441 0.22324 0.93938 0.0
H501 H 0.87298 0.24014 0.94449 0.0
H502 H 0.85879 0.22547 0.92218 0.0
H503 H 0.84208 0.19677 0.88148 0.0
H504 H 0.82653 0.17501 0.88261 0.0
H505 H 0.84454 0.17114 0.92808 0.0
N506 N 0.86139 0.20949 0.90222 0.0
H507 H 0.86034 0.1926 0.92625 0.0
C508 C 0.79069 0.11555 0.89046 0.0
C509 C 0.7803 0.11578 0.88597 0.0
C510 C 0.77453 0.11092 0.86955 0.0
C511 C 0.77898 0.1057 0.85725 0.0
C512 C 0.7895 0.10568 0.86163 0.0
C513 C 0.79528 0.11057 0.87809 0.0
C514 C 0.78832 0.11524 0.92265 0.0
C515 C 0.78301 0.10274 0.9265 0.0
C516 C 0.77336 0.09701 0.93849 0.0
C517 C 0.76886 0.10372 0.94721 0.0
C518 C 0.77473 0.11644 0.94433 0.0
C519 C 0.78426 0.12213 0.9321 0.0
C520 C 0.80572 0.133 0.90799 0.0
C521 C 0.80314 0.14199 0.90315 0.0
C522 C 0.81231 0.15438 0.90276 0.0
C523 C 0.82435 0.15808 0.90673 0.0
C524 C 0.8269 0.14906 0.91156 0.0
C525 C 0.81765 0.13667 0.91225 0.0
C526 C 0.86831 0.21304 0.88585 0.0
C527 C 0.86939 0.22294 0.87647 0.0
C528 C 0.87693 0.22746 0.86153 0.0
C529 C 0.88358 0.22216 0.85567 0.0
C530 C 0.88228 0.21202 0.86486 0.0
C531 C 0.87469 0.20748 0.87982 0.0
C532 C 0.86853 0.21618 0.91776 0.0
C533 C 0.87858 0.21556 0.92299 0.0
C534 C 0.88662 0.22378 0.93592 0.0
C535 C 0.88493 0.23297 0.94362 0.0
C536 C 0.87451 0.23312 0.93904 0.0
C537 C 0.8664 0.22478 0.92625 0.0
C538 C 0.85247 0.19649 0.90362 0.0
C539 C 0.84271 0.1912 0.89161 0.0
C540 C 0.83375 0.17876 0.89241 0.0
C541 C 0.83417 0.17127 0.90556 0.0
C542 C 0.84398 0.17654 0.91761 0.0
C543 C 0.85307 0.18898 0.91661 0.0
H544 H 0.80914 0.71976 0.8949 0.0
N545 N 0.81491 0.70473 0.90948 0.0
H546 H 0.79889 0.717 0.86629 0.0
H547 H 0.80944 0.68654 0.88423 0.0
H548 H 0.79943 0.68383 0.85551 0.0
H549 H 0.79633 0.68062 0.91122 0.0
H550 H 0.77932 0.67242 0.93187 0.0
H551 H 0.81277 0.71596 0.93844 0.0
H552 H 0.7958 0.70772 0.95955 0.0
H553 H 0.83751 0.72299 0.90513 0.0
H554 H 0.81614 0.68422 0.91598 0.0
H555 H 0.85584 0.72204 0.90475 0.0
H556 H 0.83441 0.68326 0.91633 0.0
H557 H 0.90278 0.71927 0.87641 0.0
H558 H 0.90885 0.71592 0.84657 0.0
H559 H 0.88934 0.67678 0.85547 0.0
H560 H 0.88347 0.68018 0.88511 0.0
H561 H 0.87832 0.68009 0.9175 0.0
H562 H 0.88752 0.67096 0.93467 0.0
H563 H 0.92211 0.70501 0.93189 0.0
H564 H 0.91287 0.714 0.91449 0.0
H565 H 0.88803 0.71947 0.91831 0.0
H566 H 0.86939 0.71963 0.92284 0.0
H567 H 0.84914 0.68406 0.89599 0.0
N568 N 0.89066 0.70255 0.90128 0.0
H569 H 0.86765 0.68376 0.89229 0.0
C570 C 0.81007 0.70342 0.89171 0.0
C571 C 0.80718 0.712 0.88621 0.0
C572 C 0.80138 0.71043 0.86985 0.0
C573 C 0.79831 0.70017 0.85864 0.0
C574 C 0.80153 0.69174 0.86394 0.0
C575 C 0.80734 0.69334 0.88032 0.0
C576 C 0.80583 0.69899 0.92323 0.0
C577 C 0.79646 0.68655 0.92193 0.0
C578 C 0.78671 0.68183 0.93384 0.0
C579 C 0.78614 0.68944 0.94727 0.0
C580 C 0.79588 0.70167 0.94918 0.0
C581 C 0.80562 0.70637 0.93726 0.0
C582 C 0.82547 0.70377 0.91069 0.0
C583 C 0.83682 0.71432 0.90773 0.0
C584 C 0.84728 0.71376 0.90764 0.0
C585 C 0.84663 0.70257 0.9106 0.0
C586 C 0.83524 0.692 0.91382 0.0
C587 C 0.82475 0.69256 0.91379 0.0
C588 C 0.89274 0.70006 0.88305 0.0
C589 C 0.89967 0.70997 0.87175 0.0
C590 C 0.9031 0.70803 0.85473 0.0
C591 C 0.89967 0.69609 0.84877 0.0
C592 C 0.89228 0.6861 0.85982 0.0
C593 C 0.88884 0.68805 0.87677 0.0
C594 C 0.89498 0.69775 0.9146 0.0
C595 C 0.8878 0.6857 0.92097 0.0
C596 C 0.89307 0.68049 0.93083 0.0
C597 C 0.90557 0.68722 0.93438 0.0
C598 C 0.9125 0.69954 0.9291 0.0
C599 C 0.90723 0.70473 0.91931 0.0
C600 C 0.87932 0.70174 0.90479 0.0
C601 C 0.87952 0.71166 0.91362 0.0
C602 C 0.86888 0.71176 0.91605 0.0
C603 C 0.85776 0.70193 0.90956 0.0
C604 C 0.85751 0.69175 0.90129 0.0
C605 C 0.86816 0.69162 0.899 0.0
H606 H 0.75251 0.62101 0.46348 0.0
N607 N 0.77226 0.63561 0.4447 0.0
H608 H 0.74707 0.62508 0.49329 0.0
H609 H 0.78658 0.65551 0.46653 0.0
H610 H 0.78124 0.65969 0.49635 0.0
H611 H 0.77855 0.65954 0.44016 0.0
H612 H 0.76813 0.66636 0.42123 0.0
H613 H 0.75619 0.62251 0.4192 0.0
H614 H 0.74587 0.62935 0.39968 0.0
H615 H 0.77739 0.6191 0.45464 0.0
H616 H 0.79319 0.65425 0.42924 0.0
H617 H 0.79665 0.62016 0.45258 0.0
H618 H 0.81224 0.65501 0.42593 0.0
H619 H 0.85859 0.62432 0.4496 0.0
H620 H 0.86948 0.62639 0.47735 0.0
H621 H 0.86516 0.65643 0.49477 0.0
H622 H 0.85454 0.65447 0.46713 0.0
H623 H 0.86955 0.66306 0.44133 0.0
H624 H 0.88683 0.6734 0.42147 0.0
H625 H 0.87022 0.64174 0.38529 0.0
H626 H 0.85333 0.63109 0.40615 0.0
H627 H 0.82912 0.61929 0.43434 0.0
H628 H 0.80992 0.6185 0.43372 0.0
H629 H 0.82917 0.6581 0.44108 0.0
N630 N 0.85111 0.63888 0.43849 0.0
H631 H 0.8483 0.65878 0.44021 0.0
C632 C 0.76987 0.63794 0.46281 0.0
C633 C 0.75885 0.62939 0.47072 0.0
C634 C 0.7558 0.63172 0.48773 0.0
C635 C 0.76372 0.64272 0.49713 0.0
C636 C 0.7749 0.65119 0.48934 0.0
C637 C 0.77798 0.64881 0.47234 0.0
C638 C 0.76806 0.64043 0.4312 0.0
C639 C 0.77161 0.65292 0.43114 0.0
C640 C 0.76567 0.65684 0.42018 0.0
C641 C 0.75606 0.64838 0.40907 0.0
C642 C 0.75309 0.63606 0.4083 0.0
C643 C 0.75903 0.63215 0.4193 0.0
C644 C 0.78371 0.63646 0.442 0.0
C645 C 0.78498 0.62694 0.44831 0.0
C646 C 0.79601 0.62754 0.44695 0.0
C647 C 0.80608 0.63762 0.4389 0.0
C648 C 0.80478 0.64716 0.43242 0.0
C649 C 0.79377 0.64667 0.43413 0.0
C650 C 0.85572 0.63917 0.45615 0.0
C651 C 0.85979 0.63117 0.4596 0.0
C652 C 0.86598 0.63236 0.47545 0.0
C653 C 0.86827 0.64166 0.48817 0.0
C654 C 0.86368 0.6493 0.4851 0.0
C655 C 0.85748 0.64809 0.46927 0.0
C656 C 0.86027 0.64612 0.42544 0.0
C657 C 0.86956 0.65834 0.4291 0.0
C658 C 0.87944 0.66433 0.41753 0.0
C659 C 0.88011 0.65836 0.40182 0.0
C660 C 0.87026 0.64651 0.3975 0.0
C661 C 0.86051 0.64044 0.40928 0.0
C662 C 0.84009 0.639 0.43764 0.0
C663 C 0.82914 0.62778 0.43567 0.0
C664 C 0.81817 0.62737 0.4355 0.0
C665 C 0.81788 0.63822 0.43768 0.0
C666 C 0.82896 0.64954 0.43923 0.0
C667 C 0.83995 0.64995 0.43898 0.0
H668 H 0.37965 0.1403 0.46163 0.0
N669 N 0.366 0.14753 0.4467 0.0
H670 H 0.37615 0.12973 0.48996 0.0
H671 H 0.34913 0.14436 0.4723 0.0
H672 H 0.34588 0.13431 0.5008 0.0
H673 H 0.3421 0.12903 0.44537 0.0
H674 H 0.33339 0.11084 0.42582 0.0
H675 H 0.37642 0.14381 0.41844 0.0
H676 H 0.36768 0.12559 0.39851 0.0
H677 H 0.38465 0.17047 0.44577 0.0
H678 H 0.34572 0.14895 0.44242 0.0
H679 H 0.38427 0.18934 0.44311 0.0
H680 H 0.34517 0.16766 0.44071 0.0
H681 H 0.37457 0.24654 0.45889 0.0
H682 H 0.37035 0.25307 0.48772 0.0
H683 H 0.34207 0.21547 0.49763 0.0
H684 H 0.34618 0.20912 0.46859 0.0
H685 H 0.33787 0.21199 0.44118 0.0
H686 H 0.32625 0.21776 0.42285 0.0
H687 H 0.35947 0.24674 0.39963 0.0
H688 H 0.37101 0.24066 0.41777 0.0
H689 H 0.37841 0.22045 0.4601 0.0
H690 H 0.37929 0.20185 0.46006 0.0
H691 H 0.34934 0.18443 0.42279 0.0
N692 N 0.36261 0.22423 0.44363 0.0
H693 H 0.34813 0.2027 0.42341 0.0
C694 C 0.36475 0.14319 0.46475 0.0
C695 C 0.37241 0.13921 0.47032 0.0
C696 C 0.3704 0.1332 0.48654 0.0
C697 C 0.36067 0.13108 0.49764 0.0
C698 C 0.35333 0.13559 0.49244 0.0
C699 C 0.35529 0.1415 0.47614 0.0
C700 C 0.35999 0.13781 0.43338 0.0
C701 C 0.34769 0.12856 0.43489 0.0
C702 C 0.34269 0.11813 0.42364 0.0
C703 C 0.34988 0.11671 0.41071 0.0
C704 C 0.36196 0.12633 0.40851 0.0
C705 C 0.36694 0.13677 0.41976 0.0
C706 C 0.36528 0.15832 0.44442 0.0
C707 C 0.37602 0.16984 0.44451 0.0
C708 C 0.37577 0.18061 0.44313 0.0
C709 C 0.36468 0.18007 0.44184 0.0
C710 C 0.35389 0.16846 0.44144 0.0
C711 C 0.35418 0.15769 0.44258 0.0
C712 C 0.36074 0.2274 0.4616 0.0
C713 C 0.36759 0.23972 0.46744 0.0
C714 C 0.36518 0.2434 0.48393 0.0
C715 C 0.35584 0.23479 0.49498 0.0
C716 C 0.3492 0.22236 0.48934 0.0
C717 C 0.3516 0.21869 0.4728 0.0
C718 C 0.35536 0.22592 0.4308 0.0
C719 C 0.34264 0.21942 0.43189 0.0
C720 C 0.33601 0.22279 0.42147 0.0
C721 C 0.34193 0.23281 0.40992 0.0
C722 C 0.3546 0.23889 0.40822 0.0
C723 C 0.36122 0.23546 0.41858 0.0
C724 C 0.36305 0.21309 0.44224 0.0
C725 C 0.37199 0.2126 0.45197 0.0
C726 C 0.37255 0.20197 0.45179 0.0
C727 C 0.36433 0.19156 0.4415 0.0
C728 C 0.35563 0.19215 0.43123 0.0
C729 C 0.35496 0.20275 0.43159 0.0
H730 H 0.79505 0.13663 0.47469 0.0
N731 N 0.78764 0.14322 0.44502 0.0
H732 H 0.78336 0.1282 0.50206 0.0
H733 H 0.7678 0.14307 0.45484 0.0
H734 H 0.75616 0.13494 0.48246 0.0
H735 H 0.77593 0.14019 0.41442 0.0
H736 H 0.76385 0.12101 0.39697 0.0
H737 H 0.78705 0.12162 0.4497 0.0
H738 H 0.77542 0.1027 0.43218 0.0
H739 H 0.80544 0.13783 0.43696 0.0
H740 H 0.79962 0.16716 0.45281 0.0
H741 H 0.82702 0.152 0.43788 0.0
H742 H 0.82151 0.18142 0.45455 0.0
H743 H 0.89461 0.19973 0.47183 0.0
H744 H 0.90354 0.21013 0.50049 0.0
H745 H 0.87896 0.22343 0.50303 0.0
H746 H 0.86991 0.21274 0.47462 0.0
H747 H 0.88135 0.2233 0.44762 0.0
H748 H 0.89631 0.23861 0.42751 0.0
H749 H 0.90491 0.21204 0.40731 0.0
H750 H 0.88983 0.19667 0.42757 0.0
H751 H 0.86473 0.17676 0.46081 0.0
H752 H 0.84285 0.16284 0.45858 0.0
H753 H 0.83963 0.19237 0.4378 0.0
N754 N 0.87766 0.20039 0.45328 0.0
H755 H 0.8614 0.20631 0.44095 0.0
C756 C 0.78223 0.14043 0.46264 0.0
C757 C 0.7867 0.13653 0.47643 0.0
C758 C 0.78001 0.13174 0.49213 0.0
C759 C 0.76874 0.13076 0.49436 0.0
C760 C 0.76469 0.13536 0.48102 0.0
C761 C 0.77137 0.14012 0.46533 0.0
C762 C 0.78241 0.13243 0.43334 0.0
C763 C 0.77603 0.13208 0.4181 0.0
C764 C 0.76916 0.12112 0.40815 0.0
C765 C 0.76856 0.11028 0.41333 0.0
C766 C 0.77548 0.11081 0.42805 0.0
C767 C 0.78224 0.1217 0.43802 0.0
C768 C 0.80068 0.15136 0.44486 0.0
C769 C 0.80867 0.14727 0.44076 0.0
C770 C 0.82118 0.15545 0.4414 0.0
C771 C 0.82608 0.16788 0.44642 0.0
C772 C 0.8181 0.17197 0.45039 0.0
C773 C 0.80558 0.16381 0.44952 0.0
C774 C 0.88165 0.20545 0.4711 0.0
C775 C 0.89104 0.20473 0.47877 0.0
C776 C 0.89619 0.21076 0.49503 0.0
C777 C 0.89206 0.21773 0.50394 0.0
C778 C 0.8823 0.21808 0.49657 0.0
C779 C 0.87714 0.212 0.48029 0.0
C780 C 0.88452 0.2088 0.43919 0.0
C781 C 0.8862 0.22062 0.4386 0.0
C782 C 0.89482 0.22941 0.42714 0.0
C783 C 0.90188 0.22656 0.41601 0.0
C784 C 0.89956 0.21448 0.41567 0.0
C785 C 0.89097 0.2057 0.42722 0.0
C786 C 0.86476 0.1925 0.45089 0.0
C787 C 0.85927 0.18018 0.45572 0.0
C788 C 0.84677 0.17223 0.45431 0.0
C789 C 0.83943 0.17642 0.44786 0.0
C790 C 0.84496 0.18883 0.443 0.0
C791 C 0.85749 0.19682 0.44461 0.0
H792 H 0.0044 0.54603 0.21648 0.0
N793 N 0.98718 0.5381 0.24288 0.0
H794 H 0.00334 0.55355 0.18732 0.0
H795 H 0.96795 0.53673 0.2281 0.0
H796 H 0.96658 0.54377 0.1985 0.0
H797 H 0.97549 0.54004 0.27108 0.0
H798 H 0.98079 0.55877 0.28847 0.0
H799 H 0.00873 0.56028 0.24126 0.0
H800 H 0.01425 0.57873 0.25884 0.0
H801 H 0.01052 0.54414 0.25094 0.0
H802 H 0.97443 0.51381 0.23916 0.0
H803 H 0.01775 0.53009 0.25181 0.0
H804 H 0.98176 0.49963 0.23933 0.0
H805 H 0.03316 0.48015 0.21271 0.0
H806 H 0.0285 0.46868 0.18418 0.0
H807 H 0.99073 0.45657 0.19093 0.0
H808 H 0.99547 0.46794 0.21949 0.0
H809 H 0.99808 0.45852 0.24584 0.0
H810 H 0.99861 0.44358 0.26484 0.0
H811 H 0.03655 0.46931 0.2754 0.0
H812 H 0.03588 0.4844 0.25654 0.0
H813 H 0.02903 0.50413 0.22744 0.0
H814 H 0.02181 0.51831 0.231 0.0
H815 H 0.9895 0.48987 0.25694 0.0
N816 N 0.0177 0.48065 0.23582 0.0
H817 H 0.99659 0.47568 0.25271 0.0
C818 C 0.98624 0.54088 0.22456 0.0
C819 C 0.99606 0.54537 0.21261 0.0
C820 C 0.99541 0.54961 0.19583 0.0
C821 C 0.9849 0.54937 0.19057 0.0
C822 C 0.97489 0.54432 0.20223 0.0
C823 C 0.9756 0.54017 0.21906 0.0
C824 C 0.99165 0.54865 0.2549 0.0
C825 C 0.98408 0.54841 0.26866 0.0
C826 C 0.98714 0.55911 0.27858 0.0
C827 C 0.99788 0.57029 0.27489 0.0
C828 C 0.00579 0.57034 0.2618 0.0
C829 C 0.00268 0.55969 0.25182 0.0
C830 C 0.9918 0.53005 0.24503 0.0
C831 C 0.00406 0.53448 0.24864 0.0
C832 C 0.00826 0.52638 0.24899 0.0
C833 C 0.00038 0.51371 0.24553 0.0
C834 C 0.98808 0.50929 0.24232 0.0
C835 C 0.98387 0.51738 0.24212 0.0
C836 C 0.01472 0.47492 0.21821 0.0
C837 C 0.02392 0.47517 0.20785 0.0
C838 C 0.02123 0.46864 0.19156 0.0
C839 C 0.00923 0.46168 0.18532 0.0
C840 C 4e-05 0.46172 0.19548 0.0
C841 C 0.00275 0.46829 0.21177 0.0
C842 C 0.017 0.47265 0.24973 0.0
C843 C 0.00644 0.46115 0.25264 0.0
C844 C 0.00677 0.45253 0.26341 0.0
C845 C 0.01766 0.45519 0.27142 0.0
C846 C 0.028 0.467 0.26953 0.0
C847 C 0.02764 0.47563 0.25875 0.0
C848 C 0.01346 0.48889 0.23985 0.0
C849 C 0.02046 0.50103 0.23407 0.0
C850 C 0.01632 0.50913 0.23622 0.0
C851 C 0.00506 0.50526 0.24431 0.0
C852 C 0.99815 0.49313 0.25046 0.0
C853 C 0.00227 0.48499 0.24818 0.0
H854 H 0.57079 0.53671 0.23308 0.0
N855 N 0.5484 0.52944 0.24343 0.0
H856 H 0.58049 0.54617 0.20468 0.0
H857 H 0.53684 0.53048 0.21336 0.0
H858 H 0.54636 0.53965 0.18508 0.0
H859 H 0.54195 0.54646 0.23764 0.0
H860 H 0.54896 0.56552 0.25477 0.0
H861 H 0.55992 0.53576 0.27466 0.0
H862 H 0.56705 0.55496 0.29191 0.0
H863 H 0.5449 0.50752 0.25011 0.0
H864 H 0.52568 0.52602 0.24055 0.0
H865 H 0.52571 0.48785 0.25139 0.0
H866 H 0.50658 0.50644 0.24057 0.0
H867 H 0.46496 0.42947 0.21798 0.0
H868 H 0.45601 0.42395 0.18789 0.0
H869 H 0.45558 0.45758 0.18722 0.0
H870 H 0.46482 0.46318 0.21712 0.0
H871 H 0.45328 0.4562 0.24361 0.0
H872 H 0.43533 0.44605 0.26231 0.0
H873 H 0.44573 0.4208 0.27983 0.0
H874 H 0.46404 0.43142 0.2615 0.0
H875 H 0.49159 0.45388 0.22964 0.0
H876 H 0.51068 0.47352 0.23218 0.0
H877 H 0.49189 0.48988 0.25695 0.0
N878 N 0.46966 0.44894 0.23807 0.0
H879 H 0.47285 0.47048 0.25338 0.0
C880 C 0.55312 0.53289 0.2255 0.0
C881 C 0.56536 0.53708 0.22247 0.0
C882 C 0.57087 0.54245 0.20624 0.0
C883 C 0.5642 0.54376 0.19272 0.0
C884 C 0.55178 0.53894 0.19537 0.0
C885 C 0.54628 0.53357 0.21158 0.0
C886 C 0.55049 0.53967 0.25484 0.0
C887 C 0.54717 0.54804 0.24967 0.0
C888 C 0.55125 0.55901 0.25942 0.0
C889 C 0.55865 0.56179 0.27456 0.0
C890 C 0.56129 0.55304 0.28037 0.0
C891 C 0.55726 0.54209 0.27054 0.0
C892 C 0.53679 0.51821 0.24503 0.0
C893 C 0.53653 0.50731 0.24823 0.0
C894 C 0.52554 0.49607 0.24878 0.0
C895 C 0.51453 0.49546 0.24584 0.0
C896 C 0.51481 0.5065 0.2431 0.0
C897 C 0.52581 0.51776 0.24288 0.0
C898 C 0.46543 0.44662 0.21981 0.0
C899 C 0.46309 0.43571 0.21119 0.0
C900 C 0.45802 0.43261 0.19405 0.0
C901 C 0.45507 0.44032 0.18531 0.0
C902 C 0.45768 0.45142 0.19377 0.0
C903 C 0.46293 0.45462 0.21082 0.0
C904 C 0.46011 0.4446 0.25121 0.0
C905 C 0.45195 0.44873 0.25183 0.0
C906 C 0.44156 0.4428 0.26242 0.0
C907 C 0.43898 0.43249 0.2724 0.0
C908 C 0.44747 0.42878 0.27248 0.0
C909 C 0.45793 0.43481 0.26199 0.0
C910 C 0.48075 0.46056 0.24134 0.0
C911 C 0.49164 0.46171 0.23572 0.0
C912 C 0.50256 0.47295 0.23732 0.0
C913 C 0.5029 0.48335 0.24485 0.0
C914 C 0.49199 0.48214 0.25082 0.0
C915 C 0.48101 0.47092 0.24893 0.0
H916 H 0.52272 0.96019 0.2075 0.0
N917 N 0.52096 0.97589 0.22949 0.0
H918 H 0.53441 0.96478 0.17972 0.0
H919 H 0.53332 0.99826 0.21331 0.0
H920 H 0.54491 0.00294 0.18544 0.0
H921 H 0.54104 0.99706 0.24195 0.0
H922 H 0.55618 0.99831 0.26246 0.0
H923 H 0.51915 0.95786 0.24905 0.0
H924 H 0.53435 0.95899 0.26948 0.0
H925 H 0.50273 0.97144 0.20817 0.0
H926 H 0.52057 0.99068 0.25741 0.0
H927 H 0.48918 0.97921 0.211 0.0
H928 H 0.50673 0.99791 0.26065 0.0
H929 H 0.44274 0.98907 0.22928 0.0
H930 H 0.4324 0.98932 0.20255 0.0
H931 H 0.46312 0.0251 0.18972 0.0
H932 H 0.47324 0.02497 0.21716 0.0
H933 H 0.45951 0.0226 0.25962 0.0
H934 H 0.44365 0.017 0.28201 0.0
H935 H 0.43664 0.97992 0.28177 0.0
H936 H 0.45209 0.98542 0.25912 0.0
H937 H 0.45919 0.98492 0.22911 0.0
H938 H 0.47273 0.97713 0.22728 0.0
H939 H 0.50178 0.01179 0.24896 0.0
N940 N 0.46476 0.00769 0.24188 0.0
H941 H 0.48785 0.01927 0.25162 0.0
C942 C 0.52714 0.97883 0.21244 0.0
C943 C 0.52745 0.9695 0.20261 0.0
C944 C 0.53409 0.97215 0.18674 0.0
C945 C 0.5406 0.98424 0.18038 0.0
C946 C 0.54012 0.99357 0.1901 0.0
C947 C 0.53345 0.9909 0.20598 0.0
C948 C 0.52895 0.97731 0.24392 0.0
C949 C 0.53941 0.98874 0.24812 0.0
C950 C 0.54808 0.98944 0.25982 0.0
C951 C 0.54653 0.97873 0.26744 0.0
C952 C 0.53577 0.96742 0.26398 0.0
C953 C 0.52708 0.96675 0.2523 0.0
C954 C 0.513 0.98064 0.23216 0.0
C955 C 0.50376 0.97733 0.21959 0.0
C956 C 0.49591 0.98168 0.22134 0.0
C957 C 0.49685 0.98924 0.23604 0.0
C958 C 0.5059 0.99234 0.24892 0.0
C959 C 0.51389 0.98812 0.24704 0.0
C960 C 0.45877 0.00711 0.22536 0.0
C961 C 0.4473 0.99697 0.22075 0.0
C962 C 0.44141 0.99708 0.2053 0.0
C963 C 0.44689 0.00725 0.19394 0.0
C964 C 0.45853 0.01721 0.1983 0.0
C965 C 0.46437 0.01713 0.21387 0.0
C966 C 0.45706 0.00453 0.25751 0.0
C967 C 0.45474 0.01334 0.26473 0.0
C968 C 0.44569 0.01012 0.27758 0.0
C969 C 0.43877 0.99796 0.28355 0.0
C970 C 0.44164 0.98931 0.2772 0.0
C971 C 0.45063 0.99252 0.26426 0.0
C972 C 0.47251 0.00271 0.24065 0.0
C973 C 0.46843 0.99083 0.2336 0.0
C974 C 0.47626 0.98642 0.23241 0.0
C975 C 0.48841 0.99384 0.23789 0.0
C976 C 0.49245 0.00573 0.24488 0.0
C977 C 0.48455 0.01007 0.24631 0.0
H978 H 0.42651 0.96825 0.80256 0.0
N979 N 0.4473 0.98303 0.78612 0.0
H980 H 0.42019 0.97116 0.83247 0.0
H981 H 0.46139 0.00132 0.81043 0.0
H982 H 0.45501 0.00452 0.84012 0.0
H983 H 0.45755 0.00802 0.7837 0.0
H984 H 0.45037 0.01836 0.76517 0.0
H985 H 0.43105 0.97302 0.75994 0.0
H986 H 0.42359 0.9833 0.7415 0.0
H987 H 0.45008 0.96518 0.79746 0.0
H988 H 0.46934 -0.0 0.77076 0.0
H989 H 0.46817 0.96394 0.7965 0.0
H990 H 0.48715 0.99843 0.76867 0.0
H991 H 0.52421 0.95951 0.79677 0.0
H992 H 0.53516 0.96091 0.82412 0.0
H993 H 0.54026 0.99663 0.83631 0.0
H994 H 0.52951 0.99523 0.80903 0.0
H995 H 0.54028 0.00055 0.78058 0.0
H996 H 0.55725 0.00768 0.76 0.0
H997 H 0.53924 0.97195 0.7334 0.0
H998 H 0.5224 0.96477 0.75457 0.0
H999 H 0.49843 0.95875 0.77932 0.0
H1000 H 0.48046 0.96028 0.7782 0.0
H1001 H 0.5031 -0.00015 0.78474 0.0
N1002 N 0.52122 0.97678 0.78325 0.0
H1003 H 0.52097 0.99821 0.78435 0.0
C1004 C 0.44431 0.98461 0.80425 0.0
C1005 C 0.4328 0.97608 0.81083 0.0
C1006 C 0.42924 0.97775 0.82786 0.0
C1007 C 0.43711 0.98809 0.8385 0.0
C1008 C 0.44875 0.99653 0.83207 0.0
C1009 C 0.45238 0.99473 0.81513 0.0
C1010 C 0.44481 0.98967 0.77321 0.0
C1011 C 0.45031 0.00255 0.77429 0.0
C1012 C 0.44614 0.00847 0.76374 0.0
C1013 C 0.43631 0.00165 0.75201 0.0
C1014 C 0.43126 0.98886 0.75026 0.0
C1015 C 0.43548 0.98295 0.76079 0.0
C1016 C 0.45819 0.98261 0.78426 0.0
C1017 C 0.45816 0.97248 0.79117 0.0
C1018 C 0.46852 0.97174 0.79043 0.0
C1019 C 0.47919 0.98105 0.78238 0.0
C1020 C 0.4792 0.99117 0.77524 0.0
C1021 C 0.46887 0.99202 0.77631 0.0
C1022 C 0.52601 0.9772 0.80076 0.0
C1023 C 0.52748 0.96751 0.80558 0.0
C1024 C 0.53371 0.96833 0.8212 0.0
C1025 C 0.53866 0.97893 0.8323 0.0
C1026 C 0.5367 0.98841 0.82789 0.0
C1027 C 0.53045 0.98757 0.81228 0.0
C1028 C 0.53011 0.98203 0.76922 0.0
C1029 C 0.53982 0.99432 0.77011 0.0
C1030 C 0.54954 0.99842 0.75822 0.0
C1031 C 0.54969 0.99033 0.7452 0.0
C1032 C 0.53951 0.97834 0.7435 0.0
C1033 C 0.52985 0.97424 0.75545 0.0
C1034 C 0.51099 0.97828 0.78227 0.0
C1035 C 0.49946 0.96774 0.78039 0.0
C1036 C 0.4892 0.96865 0.77994 0.0
C1037 C 0.49023 0.98019 0.7817 0.0
C1038 C 0.50189 0.99081 0.78321 0.0
C1039 C 0.51217 0.98988 0.78329 0.0
H1040 H 0.9634 0.52987 0.807 0.0
N1041 N 0.97799 0.52798 0.78385 0.0
H1042 H 0.96877 0.54103 0.83582 0.0
H1043 H 0.00044 0.54 0.79918 0.0
H1044 H 0.00598 0.55129 0.82807 0.0
H1045 H 0.99895 0.54711 0.77022 0.0
H1046 H 0.00041 0.56177 0.74838 0.0
H1047 H 0.96016 0.52619 0.76445 0.0
H1048 H 0.96144 0.54098 0.74295 0.0
H1049 H 0.96288 0.5055 0.79502 0.0
H1050 H 0.99671 0.52733 0.7673 0.0
H1051 H 0.96499 0.48764 0.79255 0.0
H1052 H 0.99861 0.50931 0.76369 0.0
H1053 H 0.96852 0.43285 0.79246 0.0
H1054 H 0.97063 0.42448 0.82034 0.0
H1055 H 0.00606 0.45709 0.82837 0.0
H1056 H 0.004 0.46507 0.80013 0.0
H1057 H 0.00783 0.45929 0.76971 0.0
H1058 H 0.01351 0.44877 0.74731 0.0
H1059 H 0.97663 0.42836 0.728 0.0
H1060 H 0.97107 0.43878 0.75055 0.0
H1061 H 0.96516 0.45457 0.77296 0.0
H1062 H 0.96371 0.47287 0.77245 0.0
H1063 H 0.00257 0.49578 0.7788 0.0
N1064 N 0.98483 0.45355 0.777 0.0
H1065 H 0.0039 0.47731 0.77783 0.0
C1066 C 0.9815 0.53417 0.80103 0.0
C1067 C 0.97268 0.53446 0.81164 0.0
C1068 C 0.97577 0.54078 0.82809 0.0
C1069 C 0.98779 0.547 0.83422 0.0
C1070 C 0.99666 0.54665 0.82361 0.0
C1071 C 0.99352 0.54021 0.80715 0.0
C1072 C 0.97939 0.53553 0.76892 0.0
C1073 C 0.99075 0.54551 0.76397 0.0
C1074 C 0.99156 0.55396 0.75158 0.0
C1075 C 0.98104 0.55263 0.74403 0.0
C1076 C 0.96975 0.54223 0.74831 0.0
C1077 C 0.96897 0.53378 0.76063 0.0
C1078 C 0.97949 0.51765 0.78116 0.0
C1079 C 0.97067 0.50634 0.7881 0.0
C1080 C 0.97187 0.49612 0.78652 0.0
C1081 C 0.9819 0.49692 0.77765 0.0
C1082 C 0.99081 0.50834 0.7707 0.0
C1083 C 0.98967 0.51865 0.77258 0.0
C1084 C 0.98601 0.44958 0.79431 0.0
C1085 C 0.97666 0.43821 0.8004 0.0
C1086 C 0.97789 0.4335 0.81637 0.0
C1087 C 0.98852 0.44013 0.82668 0.0
C1088 C 0.99781 0.45167 0.82069 0.0
C1089 C 0.99659 0.45633 0.80461 0.0
C1090 C 0.98898 0.44963 0.76183 0.0
C1091 C 0.00107 0.45276 0.76037 0.0
C1092 C 0.00429 0.44674 0.74761 0.0
C1093 C 0.99549 0.43768 0.736 0.0
C1094 C 0.98364 0.43536 0.73662 0.0
C1095 C 0.98042 0.44126 0.7495 0.0
C1096 C 0.98456 0.46461 0.77586 0.0
C1097 C 0.97334 0.46357 0.77407 0.0
C1098 C 0.97255 0.47406 0.77397 0.0
C1099 C 0.983 0.48586 0.77602 0.0
C1100 C 0.99433 0.48688 0.77717 0.0
C1101 C 0.99511 0.47632 0.7769 0.0
H1102 H 0.45569 0.45185 0.78678 0.0
N1103 N 0.45882 0.4737 0.77585 0.0
H1104 H 0.44627 0.4414 0.81446 0.0
H1105 H 0.45142 0.48204 0.80311 0.0
H1106 H 0.44233 0.47181 0.83138 0.0
H1107 H 0.43624 0.46399 0.76449 0.0
H1108 H 0.42504 0.44641 0.74406 0.0
H1109 H 0.46903 0.46421 0.75236 0.0
H1110 H 0.45804 0.44711 0.7316 0.0
H1111 H 0.47642 0.4686 0.78318 0.0
H1112 H 0.47049 0.4976 0.76907 0.0
H1113 H 0.49809 0.48303 0.78357 0.0
H1114 H 0.49227 0.51247 0.77073 0.0
H1115 H 0.56567 0.5355 0.80545 0.0
H1116 H 0.57266 0.54672 0.83414 0.0
H1117 H 0.54558 0.55666 0.83079 0.0
H1118 H 0.53875 0.54549 0.80202 0.0
H1119 H 0.54961 0.55476 0.77444 0.0
H1120 H 0.56445 0.57009 0.75415 0.0
H1121 H 0.57804 0.54622 0.74167 0.0
H1122 H 0.5631 0.53088 0.76208 0.0
H1123 H 0.53498 0.51309 0.8022 0.0
H1124 H 0.51328 0.49869 0.80024 0.0
H1125 H 0.51114 0.51992 0.7577 0.0
N1126 N 0.54844 0.53359 0.78428 0.0
H1127 H 0.53263 0.53473 0.76067 0.0
C1128 C 0.45417 0.46774 0.79279 0.0
C1129 C 0.45289 0.45633 0.79646 0.0
C1130 C 0.44755 0.45038 0.81241 0.0
C1131 C 0.44349 0.45573 0.82518 0.0
C1132 C 0.44516 0.46732 0.82172 0.0
C1133 C 0.45042 0.47323 0.80567 0.0
C1134 C 0.45344 0.46538 0.76053 0.0
C1135 C 0.44111 0.46052 0.75705 0.0
C1136 C 0.43472 0.45047 0.74528 0.0
C1137 C 0.44059 0.44515 0.73643 0.0
C1138 C 0.45316 0.45073 0.73862 0.0
C1139 C 0.45951 0.46066 0.75059 0.0
C1140 C 0.47179 0.482 0.77583 0.0
C1141 C 0.47978 0.47812 0.78025 0.0
C1142 C 0.49225 0.48648 0.78066 0.0
C1143 C 0.49705 0.49902 0.77731 0.0
C1144 C 0.489 0.50288 0.77304 0.0
C1145 C 0.47653 0.49442 0.7722 0.0
C1146 C 0.55174 0.53966 0.80165 0.0
C1147 C 0.56121 0.54002 0.81103 0.0
C1148 C 0.56513 0.54639 0.82742 0.0
C1149 C 0.55966 0.55258 0.83473 0.0
C1150 C 0.55006 0.5521 0.8254 0.0
C1151 C 0.54611 0.54568 0.80901 0.0
C1152 C 0.55533 0.54168 0.76989 0.0
C1153 C 0.55561 0.5527 0.76711 0.0
C1154 C 0.56412 0.56148 0.75553 0.0
C1155 C 0.57249 0.55941 0.74649 0.0
C1156 C 0.57165 0.54804 0.74835 0.0
C1157 C 0.56315 0.53928 0.76 0.0
C1158 C 0.53558 0.52506 0.78174 0.0
C1159 C 0.52981 0.51465 0.79249 0.0
C1160 C 0.51737 0.50634 0.79119 0.0
C1161 C 0.51035 0.50802 0.7787 0.0
C1162 C 0.51616 0.51839 0.7677 0.0
C1163 C 0.5286 0.52688 0.76931 0.0
H1164 H 0.69384 0.89172 0.54908 0.0
N1165 N 0.67645 0.87591 0.57051 0.0
H1166 H 0.69158 0.89914 0.52036 0.0
H1167 H 0.65513 0.86743 0.5523 0.0
H1168 H 0.65279 0.87448 0.52347 0.0
H1169 H 0.65804 0.87944 0.58019 0.0
H1170 H 0.65995 0.89587 0.6 0.0
H1171 H 0.6945 0.88968 0.59295 0.0
H1172 H 0.69637 0.90584 0.61349 0.0
H1173 H 0.68914 0.86512 0.56951 0.0
H1174 H 0.65329 0.85805 0.57952 0.0
H1175 H 0.6818 0.84334 0.57301 0.0
H1176 H 0.64559 0.83607 0.58173 0.0
H1177 H 0.66385 0.78412 0.56375 0.0
H1178 H 0.66324 0.77354 0.53602 0.0
H1179 H 0.62623 0.76344 0.52749 0.0
H1180 H 0.62691 0.77426 0.55562 0.0
H1181 H 0.63288 0.76589 0.59843 0.0
H1182 H 0.64097 0.75772 0.61977 0.0
H1183 H 0.67661 0.79004 0.61349 0.0
H1184 H 0.66855 0.798 0.592 0.0
H1185 H 0.66372 0.8034 0.55775 0.0
H1186 H 0.67065 0.82498 0.55694 0.0
H1187 H 0.64477 0.82006 0.59805 0.0
N1188 N 0.64529 0.78585 0.57875 0.0
H1189 H 0.63723 0.79799 0.59794 0.0
C1190 C 0.67473 0.879 0.55281 0.0
C1191 C 0.68488 0.88782 0.54339 0.0
C1192 C 0.68355 0.892 0.52697 0.0
C1193 C 0.67199 0.88741 0.5196 0.0
C1194 C 0.66181 0.87832 0.52887 0.0
C1195 C 0.66316 0.87418 0.54534 0.0
C1196 C 0.67624 0.8835 0.58491 0.0
C1197 C 0.66634 0.88499 0.58767 0.0
C1198 C 0.66743 0.89438 0.59911 0.0
C1199 C 0.6784 0.90234 0.6081 0.0
C1200 C 0.6879 0.90008 0.60644 0.0
C1201 C 0.68682 0.89079 0.59488 0.0
C1202 C 0.67176 0.86314 0.57391 0.0
C1203 C 0.67965 0.8588 0.57238 0.0
C1204 C 0.67539 0.84632 0.57419 0.0
C1205 C 0.66302 0.83783 0.57725 0.0
C1206 C 0.65517 0.8423 0.57942 0.0
C1207 C 0.65953 0.85487 0.57793 0.0
C1208 C 0.64532 0.7799 0.56198 0.0
C1209 C 0.65553 0.77959 0.55611 0.0
C1210 C 0.65518 0.77349 0.54018 0.0
C1211 C 0.64464 0.76752 0.52966 0.0
C1212 C 0.63449 0.76799 0.5353 0.0
C1213 C 0.63485 0.77411 0.55135 0.0
C1214 C 0.65002 0.78251 0.59355 0.0
C1215 C 0.64238 0.77133 0.60201 0.0
C1216 C 0.64702 0.7667 0.61422 0.0
C1217 C 0.65946 0.77319 0.61819 0.0
C1218 C 0.66701 0.78474 0.61051 0.0
C1219 C 0.66237 0.78937 0.59831 0.0
C1220 C 0.64972 0.79887 0.57778 0.0
C1221 C 0.65934 0.80678 0.56647 0.0
C1222 C 0.66347 0.8193 0.5662 0.0
C1223 C 0.65837 0.82438 0.57753 0.0
C1224 C 0.64882 0.81649 0.58894 0.0
C1225 C 0.64454 0.80388 0.58898 0.0
H1226 H 0.23574 0.86651 0.56054 0.0
N1227 N 0.21529 0.85943 0.57816 0.0
H1228 H 0.24222 0.87729 0.53212 0.0
H1229 H 0.20146 0.86414 0.55625 0.0
H1230 H 0.20777 0.87477 0.52767 0.0
H1231 H 0.20921 0.87686 0.58382 0.0
H1232 H 0.21965 0.89484 0.60366 0.0
H1233 H 0.2309 0.86317 0.60391 0.0
H1234 H 0.24126 0.88109 0.62431 0.0
H1235 H 0.20921 0.83751 0.56494 0.0
H1236 H 0.19459 0.85625 0.59472 0.0
H1237 H 0.18945 0.81858 0.56509 0.0
H1238 H 0.17507 0.83723 0.59604 0.0
H1239 H 0.128 0.76002 0.55876 0.0
H1240 H 0.11799 0.75244 0.52961 0.0
H1241 H 0.12024 0.78705 0.52199 0.0
H1242 H 0.12999 0.79443 0.55104 0.0
H1243 H 0.11783 0.78854 0.57825 0.0
H1244 H 0.1003 0.77979 0.59797 0.0
H1245 H 0.11239 0.75774 0.62263 0.0
H1246 H 0.12981 0.76635 0.60236 0.0
H1247 H 0.15561 0.7835 0.57899 0.0
H1248 H 0.17536 0.80243 0.582 0.0
H1249 H 0.1581 0.82365 0.5793 0.0
N1250 N 0.13426 0.7812 0.57527 0.0
H1251 H 0.13844 0.80466 0.57782 0.0
C1252 C 0.21818 0.86454 0.56048 0.0
C1253 C 0.22955 0.86814 0.55326 0.0
C1254 C 0.2332 0.87425 0.53701 0.0
C1255 C 0.22551 0.8769 0.52765 0.0
C1256 C 0.21395 0.87298 0.53467 0.0
C1257 C 0.2103 0.86685 0.55094 0.0
C1258 C 0.21935 0.86867 0.5923 0.0
C1259 C 0.21599 0.87754 0.59287 0.0
C1260 C 0.22194 0.88782 0.60435 0.0
C1261 C 0.23139 0.88948 0.61544 0.0
C1262 C 0.23415 0.88018 0.61572 0.0
C1263 C 0.22818 0.86989 0.60422 0.0
C1264 C 0.20353 0.84833 0.57982 0.0
C1265 C 0.20178 0.83747 0.57179 0.0
C1266 C 0.19046 0.82662 0.57205 0.0
C1267 C 0.18058 0.82627 0.58069 0.0
C1268 C 0.18238 0.83714 0.589 0.0
C1269 C 0.19368 0.84809 0.58841 0.0
C1270 C 0.12978 0.77776 0.55716 0.0
C1271 C 0.12649 0.76601 0.55063 0.0
C1272 C 0.12081 0.76172 0.53398 0.0
C1273 C 0.11826 0.76913 0.52355 0.0
C1274 C 0.12193 0.78106 0.52983 0.0
C1275 C 0.12762 0.78534 0.54647 0.0
C1276 C 0.12509 0.77798 0.58874 0.0
C1277 C 0.11688 0.78203 0.58811 0.0
C1278 C 0.10685 0.77703 0.5995 0.0
C1279 C 0.10485 0.76794 0.61174 0.0
C1280 C 0.11354 0.76455 0.61312 0.0
C1281 C 0.12353 0.76952 0.60168 0.0
C1282 C 0.14559 0.79263 0.57783 0.0
C1283 C 0.15614 0.79227 0.57924 0.0
C1284 C 0.16743 0.80313 0.58077 0.0
C1285 C 0.16844 0.81467 0.58057 0.0
C1286 C 0.15775 0.81499 0.57964 0.0
C1287 C 0.14644 0.80408 0.57851 0.0
H1288 H 0.22617 0.34307 0.55875 0.0
N1289 N 0.22521 0.36284 0.57226 0.0
H1290 H 0.23504 0.3419 0.53067 0.0
H1291 H 0.23589 0.38021 0.54762 0.0
H1292 H 0.24452 0.3789 0.51875 0.0
H1293 H 0.24535 0.37549 0.59159 0.0
H1294 H 0.25312 0.36747 0.61375 0.0
H1295 H 0.21274 0.33971 0.5865 0.0
H1296 H 0.22034 0.33173 0.60874 0.0
H1297 H 0.20725 0.34448 0.55075 0.0
H1298 H 0.21408 0.37153 0.59231 0.0
H1299 H 0.18617 0.33799 0.55045 0.0
H1300 H 0.1925 0.36435 0.59303 0.0
H1301 H 0.12007 0.31519 0.54725 0.0
H1302 H 0.11128 0.31779 0.52015 0.0
H1303 H 0.13514 0.35725 0.52549 0.0
H1304 H 0.14358 0.35456 0.55274 0.0
H1305 H 0.13308 0.3507 0.58182 0.0
H1306 H 0.11856 0.34817 0.605 0.0
H1307 H 0.11131 0.31162 0.61485 0.0
H1308 H 0.12542 0.31408 0.59093 0.0
H1309 H 0.14704 0.31962 0.56447 0.0
H1310 H 0.16852 0.32684 0.56642 0.0
H1311 H 0.17639 0.36374 0.57822 0.0
N1312 N 0.13665 0.33263 0.56865 0.0
H1313 H 0.15474 0.35609 0.57768 0.0
C1314 C 0.23045 0.36185 0.55551 0.0
C1315 C 0.23026 0.35104 0.55034 0.0
C1316 C 0.23521 0.3503 0.53405 0.0
C1317 C 0.24041 0.36026 0.52237 0.0
C1318 C 0.24066 0.37109 0.52751 0.0
C1319 C 0.2357 0.37185 0.54393 0.0
C1320 C 0.22852 0.35828 0.58733 0.0
C1321 C 0.23975 0.36601 0.5956 0.0
C1322 C 0.24415 0.36141 0.60828 0.0
C1323 C 0.23737 0.34894 0.61287 0.0
C1324 C 0.22582 0.34134 0.6053 0.0
C1325 C 0.22142 0.34594 0.59268 0.0
C1326 C 0.21247 0.35873 0.57146 0.0
C1327 C 0.2043 0.34909 0.55989 0.0
C1328 C 0.19206 0.34519 0.55992 0.0
C1329 C 0.1875 0.35053 0.57184 0.0
C1330 C 0.19565 0.36012 0.58346 0.0
C1331 C 0.20799 0.3642 0.58316 0.0
C1332 C 0.1325 0.33461 0.55197 0.0
C1333 C 0.12347 0.32438 0.54241 0.0
C1334 C 0.1185 0.3259 0.52691 0.0
C1335 C 0.12251 0.33774 0.52063 0.0
C1336 C 0.13175 0.34801 0.53008 0.0
C1337 C 0.13668 0.34647 0.54562 0.0
C1338 C 0.13009 0.33243 0.58443 0.0
C1339 C 0.12849 0.34222 0.58913 0.0
C1340 C 0.12023 0.34078 0.60253 0.0
C1341 C 0.11358 0.32959 0.61158 0.0
C1342 C 0.11603 0.32024 0.60783 0.0
C1343 C 0.12416 0.32164 0.59431 0.0
C1344 C 0.14936 0.33734 0.57051 0.0
C1345 C 0.15345 0.32924 0.56758 0.0
C1346 C 0.16575 0.33345 0.56853 0.0
C1347 C 0.17431 0.34597 0.57209 0.0
C1348 C 0.17012 0.35404 0.5755 0.0
C1349 C 0.15773 0.34973 0.57492 0.0
C1350 C 0.99013 0.39935 0.04696 0.0
C1351 C 0.99561 0.39234 0.04774 0.0
C1352 C 0.99046 0.40645 0.06177 0.0
C1353 C 0.99542 0.41032 0.11077 0.0
H1354 H 0.00336 0.44367 0.10261 0.0
C1355 C 0.01381 0.45833 0.15363 0.0
C1356 C 0.00629 0.45392 0.16878 0.0
C1357 C 0.01151 0.4507 0.13854 0.0
C1358 C 0.00116 0.43439 0.10511 0.0
H1359 H 0.00553 0.38709 0.06483 0.0
H1360 H 0.00616 0.39953 0.0906 0.0
H1361 H 0.00129 0.43034 0.07713 0.0
H1362 H 0.99035 0.43807 0.17986 0.0
H1363 H 0.98624 0.42483 0.15341 0.0
H1364 H 0.99562 0.41448 0.13876 0.0
C1365 C 0.00152 0.39947 0.07859 0.0
C1366 C -0.00015 0.42671 0.09051 0.0
C1367 C 0.00121 0.39239 0.06377 0.0
C1368 C 0.99626 0.44179 0.16834 0.0
C1369 C 0.99398 0.43416 0.15328 0.0
C1370 C 0.9967 0.41799 0.12536 0.0
C1371 C 0.99624 0.40667 0.0777 0.0
C1372 C 0.99707 0.41462 0.09318 0.0
C1373 C 0.00166 0.43848 0.13829 0.0
C1374 C -0.00031 0.43015 0.12271 0.0
H1375 H 0.9857 0.39949 0.03484 0.0
H1376 H 0.98618 0.41178 0.06074 0.0
H1377 H 0.99316 0.40102 0.11326 0.0
H1378 H 0.02154 0.46766 0.15349 0.0
H1379 H 0.01766 0.45428 0.12727 0.0
C1380 C 0.62343 0.60751 0.06545 0.0
C1381 C 0.62078 0.61663 0.06197 0.0
C1382 C 0.61766 0.59934 0.07947 0.0
C1383 C 0.60077 0.59583 0.12151 0.0
H1384 H 0.58958 0.56118 0.11525 0.0
C1385 C 0.56775 0.55987 0.17085 0.0
C1386 C 0.57039 0.55112 0.17667 0.0
C1387 C 0.5741 0.56749 0.15662 0.0
C1388 C 0.59276 0.57085 0.11724 0.0
H1389 H 0.60988 0.62424 0.07033 0.0
H1390 H 0.59972 0.60992 0.09448 0.0
H1391 H 0.60043 0.57533 0.0909 0.0
H1392 H 0.58156 0.54331 0.1718 0.0
H1393 H 0.59273 0.55673 0.1468 0.0
H1394 H 0.59297 0.59135 0.1477 0.0
C1395 C 0.60642 0.6092 0.08666 0.0
C1396 C 0.599 0.57896 0.10332 0.0
C1397 C 0.6122 0.61738 0.07272 0.0
C1398 C 0.57938 0.55001 0.16766 0.0
C1399 C 0.5857 0.55762 0.1533 0.0
C1400 C 0.5945 0.58773 0.13533 0.0
C1401 C 0.60911 0.60012 0.09026 0.0
C1402 C 0.60296 0.59153 0.10524 0.0
C1403 C 0.58324 0.56656 0.14782 0.0
C1404 C 0.59032 0.57514 0.13329 0.0
H1405 H 0.63001 0.60671 0.05742 0.0
H1406 H 0.62003 0.59253 0.082 0.0
H1407 H 0.60393 0.60549 0.1236 0.0
H1408 H 0.561 0.56108 0.17765 0.0
H1409 H 0.5719 0.57419 0.15255 0.0
C1410 C 0.39004 0.01688 0.07088 0.0
C1411 C 0.3811 0.00542 0.06361 0.0
C1412 C 0.39742 0.01752 0.08491 0.0
C1413 C 0.40957 0.00023 0.10475 0.0
H1414 H 0.41513 0.0208 0.14705 0.0
C1415 C 0.4328 0.99682 0.16779 0.0
C1416 C 0.44029 0.00759 0.17799 0.0
C1417 C 0.42605 0.99697 0.15347 0.0
C1418 C 0.41385 0.01516 0.13521 0.0
H1419 H 0.37282 0.98564 0.06551 0.0
H1420 H 0.38576 0.9868 0.08985 0.0
H1421 H 0.40238 0.02039 0.12292 0.0
H1422 H 0.44662 0.02703 0.18084 0.0
H1423 H 0.43526 0.0274 0.15542 0.0
H1424 H 0.42115 0.99511 0.11676 0.0
C1425 C 0.38707 0.99527 0.08466 0.0
C1426 C 0.4065 0.0149 0.12143 0.0
C1427 C 0.37961 0.99462 0.0708 0.0
C1428 C 0.44106 0.01858 0.17319 0.0
C1429 C 0.43439 0.01876 0.15876 0.0
C1430 C 0.41702 0.00058 0.11842 0.0
C1431 C 0.3961 0.00672 0.09178 0.0
C1432 C 0.4042 0.00734 0.10616 0.0
C1433 C 0.42669 0.00793 0.14882 0.0
C1434 C 0.41917 0.00796 0.13391 0.0
H1435 H 0.39141 0.02536 0.06563 0.0
H1436 H 0.40435 0.02647 0.09011 0.0
H1437 H 0.40809 0.99446 0.09299 0.0
H1438 H 0.4321 0.98822 0.17091 0.0
H1439 H 0.42013 0.98841 0.14629 0.0
C1440 C 0.39082 0.99383 0.97993 0.0
C1441 C 0.38839 0.00335 0.98065 0.0
C1442 C 0.39663 0.99236 0.96506 0.0
C1443 C 0.41713 0.00877 0.92828 0.0
H1444 H 0.40228 0.97675 0.90446 0.0
C1445 C 0.43391 0.00163 0.85967 0.0
C1446 C 0.43292 0.9903 0.85592 0.0
C1447 C 0.42907 0.00341 0.87547 0.0
C1448 C 0.40671 0.9857 0.91111 0.0
H1449 H 0.39032 0.01894 0.96651 0.0
H1450 H 0.40073 0.01651 0.94063 0.0
H1451 H 0.39279 0.97952 0.93103 0.0
H1452 H 0.42657 0.97212 0.86592 0.0
H1453 H 0.41855 0.97533 0.89386 0.0
H1454 H 0.43121 0.01494 0.90873 0.0
C1455 C 0.39804 0.01015 0.95156 0.0
C1456 C 0.4012 0.98728 0.92628 0.0
C1457 C 0.39204 0.0115 0.9663 0.0
C1458 C 0.42734 0.9809 0.86846 0.0
C1459 C 0.42267 0.98274 0.8844 0.0
C1460 C 0.42275 0.00715 0.91327 0.0
C1461 C 0.40031 0.00052 0.95076 0.0
C1462 C 0.40632 0.99884 0.93492 0.0
C1463 C 0.42328 0.99394 0.88799 0.0
C1464 C 0.41757 0.99561 0.9044 0.0
H1465 H 0.38809 0.98739 0.99075 0.0
H1466 H 0.39834 0.9849 0.96479 0.0
H1467 H 0.42131 0.01774 0.93485 0.0
H1468 H 0.43805 0.00897 0.85009 0.0
H1469 H 0.42955 0.01209 0.87756 0.0
C1470 C 0.9841 0.38206 0.95717 0.0
C1471 C 0.99502 0.38394 0.96391 0.0
C1472 C 0.98404 0.38846 0.94233 0.0
C1473 C 0.00363 0.41596 0.91526 0.0
H1474 H 0.97716 0.39907 0.88131 0.0
C1475 C 0.00125 0.43615 0.84739 0.0
C1476 C 0.99003 0.43475 0.84321 0.0
C1477 C 0.00243 0.43044 0.86232 0.0
C1478 C 0.98456 0.40393 0.89075 0.0
H1479 H 0.01449 0.39402 0.9603 0.0
H1480 H 0.01438 0.40503 0.93401 0.0
H1481 H 0.97833 0.38792 0.90641 0.0
H1482 H 0.97141 0.42669 0.85201 0.0
H1483 H 0.97344 0.41653 0.87778 0.0
H1484 H 0.00991 0.43194 0.89923 0.0
C1485 C 0.00586 0.39875 0.94044 0.0
C1486 C 0.98523 0.39756 0.90518 0.0
C1487 C 0.00592 0.39239 0.95544 0.0
C1488 C 0.98011 0.42775 0.85457 0.0
C1489 C 0.98127 0.42195 0.86937 0.0
C1490 C 0.00302 0.42231 0.90068 0.0
C1491 C 0.9949 0.39684 0.93369 0.0
C1492 C 0.99467 0.40353 0.91778 0.0
C1493 C 0.9924 0.42312 0.87328 0.0
C1494 C 0.99338 0.41639 0.88843 0.0
H1495 H 0.97554 0.37571 0.96346 0.0
H1496 H 0.97545 0.38695 0.93779 0.0
H1497 H 0.01095 0.42089 0.92479 0.0
H1498 H 0.00904 0.44133 0.83882 0.0
H1499 H 0.01109 0.43141 0.86496 0.0
C1500 C 0.60019 0.60854 0.97834 0.0
C1501 C 0.61287 0.61604 0.97761 0.0
C1502 C 0.59355 0.60223 0.96301 0.0
C1503 C 0.59531 0.60128 0.9135 0.0
H1504 H 0.57011 0.56698 0.91847 0.0
C1505 C 0.5674 0.55508 0.86615 0.0
C1506 C 0.56423 0.55977 0.85178 0.0
C1507 C 0.57234 0.56212 0.88183 0.0
C1508 C 0.57713 0.57654 0.91686 0.0
H1509 H 0.6285 0.62302 0.9601 0.0
H1510 H 0.61691 0.61194 0.93341 0.0
H1511 H 0.58088 0.57925 0.94499 0.0
H1512 H 0.56362 0.57546 0.8427 0.0
H1513 H 0.57211 0.5877 0.87021 0.0
H1514 H 0.59183 0.59845 0.88529 0.0
C1515 C 0.61209 0.61102 0.94579 0.0
C1516 C 0.58321 0.58361 0.93208 0.0
C1517 C 0.61874 0.61732 0.96112 0.0
C1518 C 0.56588 0.57155 0.85359 0.0
C1519 C 0.57086 0.57861 0.86926 0.0
C1520 C 0.58921 0.59421 0.89828 0.0
C1521 C 0.59943 0.6033 0.9466 0.0
C1522 C 0.59247 0.59603 0.93055 0.0
C1523 C 0.57425 0.57401 0.88349 0.0
C1524 C 0.58016 0.58172 0.89977 0.0
H1525 H 0.59539 0.6074 0.99081 0.0
H1526 H 0.58379 0.59648 0.96401 0.0
H1527 H 0.60231 0.61086 0.9119 0.0
H1528 H 0.56612 0.54598 0.86524 0.0
H1529 H 0.57496 0.55835 0.89247 0.0
C1530 C 0.98336 0.5966 0.97024 0.0
C1531 C 0.99124 0.60934 0.97288 0.0
C1532 C 0.98525 0.59037 0.95619 0.0
C1533 C 0.99928 0.59515 0.91187 0.0
H1534 H 0.99313 0.56226 0.91841 0.0
C1535 C 0.00108 0.56615 0.85261 0.0
C1536 C 0.99099 0.55409 0.85142 0.0
C1537 C 0.00328 0.57327 0.86829 0.0
C1538 C 0.99486 0.57143 0.91637 0.0
H1539 H 0.00739 0.62552 0.96294 0.0
H1540 H 0.01068 0.61459 0.93831 0.0
H1541 H 0.99288 0.5742 0.9443 0.0
H1542 H 0.9757 0.53979 0.86598 0.0
H1543 H 0.97942 0.5522 0.89318 0.0
H1544 H 0.00091 0.59225 0.88387 0.0
C1545 C 0.003 0.60946 0.9471 0.0
C1546 C 0.99471 0.57826 0.93118 0.0
C1547 C 0.00113 0.6157 0.96123 0.0
C1548 C 0.98347 0.54911 0.86645 0.0
C1549 C 0.98569 0.55618 0.8821 0.0
C1550 C 0.99942 0.58831 0.89704 0.0
C1551 C 0.99506 0.59672 0.94442 0.0
C1552 C 0.99663 0.59007 0.92903 0.0
C1553 C 0.99547 0.56842 0.88309 0.0
C1554 C 0.99693 0.57626 0.89907 0.0
H1555 H 0.97565 0.59141 0.97896 0.0
H1556 H 0.97886 0.58059 0.95432 0.0
H1557 H 0.00069 0.60418 0.90975 0.0
H1558 H 0.007 0.57025 0.84121 0.0
H1559 H 0.01096 0.58263 0.86871 0.0
C1560 C 0.39189 0.38629 0.94953 0.0
C1561 C 0.38257 0.38713 0.95793 0.0
C1562 C 0.39855 0.39412 0.93559 0.0
C1563 C 0.39738 0.41321 0.90077 0.0
H1564 H 0.4324 0.42976 0.90182 0.0
C1565 C 0.42706 0.44921 0.84827 0.0
C1566 C 0.43714 0.44897 0.84165 0.0
C1567 C 0.42064 0.44227 0.86309 0.0
C1568 C 0.42263 0.42511 0.90119 0.0
H1569 H 0.37278 0.39667 0.95805 0.0
H1570 H 0.38434 0.41024 0.93351 0.0
H1571 H 0.42051 0.41611 0.92601 0.0
H1572 H 0.44859 0.44152 0.8459 0.0
H1573 H 0.43716 0.42909 0.87123 0.0
H1574 H 0.39941 0.42192 0.87577 0.0
C1575 C 0.38649 0.40355 0.93778 0.0
C1576 C 0.41583 0.41731 0.91508 0.0
C1577 C 0.37991 0.39581 0.95187 0.0
C1578 C 0.44077 0.4418 0.85045 0.0
C1579 C 0.4343 0.43478 0.86517 0.0
C1580 C 0.40417 0.42091 0.88678 0.0
C1581 C 0.39595 0.40285 0.92962 0.0
C1582 C 0.40314 0.41125 0.91498 0.0
C1583 C 0.42408 0.43484 0.87159 0.0
C1584 C 0.41688 0.42694 0.88677 0.0
H1585 H 0.39417 0.37971 0.95389 0.0
H1586 H 0.4057 0.39329 0.9294 0.0
H1587 H 0.38761 0.40856 0.90027 0.0
H1588 H 0.42391 0.45452 0.84174 0.0
H1589 H 0.41294 0.4427 0.86783 0.0
C1590 C 0.61624 0.00321 0.94492 0.0
C1591 C 0.6136 0.99417 0.95759 0.0
C1592 C 0.60795 0.00109 0.93143 0.0
C1593 C 0.57549 0.98166 0.91982 0.0
H1594 H 0.58701 0.99377 0.87208 0.0
C1595 C 0.54361 0.97066 0.859 0.0
C1596 C 0.54658 0.98048 0.84763 0.0
C1597 C 0.5515 0.97201 0.87272 0.0
C1598 C 0.58366 0.99043 0.88539 0.0
H1599 H 0.6002 0.97571 0.96588 0.0
H1600 H 0.58581 0.97192 0.94213 0.0
H1601 H 0.60141 0.99648 0.8951 0.0
H1602 H 0.56016 0.99942 0.84177 0.0
H1603 H 0.57382 0.00181 0.8658 0.0
H1604 H 0.55771 0.97557 0.90998 0.0
C1605 C 0.59422 0.98074 0.94281 0.0
C1606 C 0.59191 0.99199 0.89859 0.0
C1607 C 0.60251 0.98288 0.95635 0.0
C1608 C 0.55753 0.99172 0.85042 0.0
C1609 C 0.56543 0.99304 0.86405 0.0
C1610 C 0.56722 0.98005 0.90656 0.0
C1611 C 0.59683 0.98984 0.93023 0.0
C1612 C 0.58795 0.98772 0.91602 0.0
C1613 C 0.56256 0.98318 0.87524 0.0
C1614 C 0.57124 0.98453 0.88925 0.0
H1615 H 0.62467 0.01204 0.94554 0.0
H1616 H 0.61018 0.00837 0.92215 0.0
H1617 H 0.57215 0.97841 0.93316 0.0
H1618 H 0.5352 0.96191 0.85723 0.0
H1619 H 0.54907 0.96422 0.88108 0.0
C1620 C 0.60875 0.99357 0.05957 0.0
C1621 C 0.60788 0.99828 0.04321 0.0
C1622 C 0.60187 0.99327 0.07434 0.0
C1623 C 0.57407 0.99307 0.0859 0.0
H1624 H 0.58721 -0.0003 0.13407 0.0
C1625 C 0.55984 0.99771 0.1635 0.0
C1626 C 0.54817 0.98712 0.16401 0.0
C1627 C 0.56724 6e-05 0.1485 0.0
C1628 C 0.58344 0.99795 0.12069 0.0
H1629 H 0.59933 0.00665 0.02966 0.0
H1630 H 0.58743 0.00623 0.05549 0.0
H1631 H 0.60026 0.00236 0.10859 0.0
H1632 H 0.53499 0.97089 0.14891 0.0
H1633 H 0.54797 0.97486 0.12288 0.0
H1634 H 0.55727 0.98873 0.09799 0.0
C1635 C 0.59329 0.0026 0.05681 0.0
C1636 C 0.59088 0.99934 0.10611 0.0
C1637 C 0.60017 0.0029 0.04204 0.0
C1638 C 0.54398 0.97907 0.14902 0.0
C1639 C 0.55137 0.98141 0.13402 0.0
C1640 C 0.56663 0.99167 0.10049 0.0
C1641 C 0.59399 0.99768 0.07309 0.0
C1642 C 0.58625 0.9968 0.08855 0.0
C1643 C 0.56313 0.99187 0.13365 0.0
C1644 C 0.57119 0.99398 0.11807 0.0
H1645 H 0.61459 0.98993 0.06093 0.0
H1646 H 0.60251 0.98929 0.08662 0.0
H1647 H 0.57019 0.99093 0.07257 0.0
H1648 H 0.56338 0.00405 0.17489 0.0
H1649 H 0.5762 0.00826 0.14856 0.0
C1650 C 0.98677 0.61087 0.06544 0.0
C1651 C 0.99455 0.61208 0.05129 0.0
C1652 C 0.98517 0.60343 0.07997 0.0
C1653 C -0.00035 0.58887 0.10284 0.0
H1654 H 0.96825 0.56967 0.12554 0.0
C1655 C 0.99053 0.55419 0.1581 0.0
C1656 C 0.98467 0.55508 0.17353 0.0
C1657 C 0.99111 0.56038 0.14257 0.0
C1658 C 0.97708 0.57503 0.11937 0.0
H1659 H 0.00655 0.60623 0.04112 0.0
H1660 H 0.00354 0.59308 0.06616 0.0
H1661 H 0.97052 0.58202 0.09963 0.0
H1662 H 0.97472 0.56314 0.18457 0.0
H1663 H 0.97554 0.57371 0.15738 0.0
H1664 H 0.00616 0.58179 0.12253 0.0
C1665 C 0.9989 0.59809 0.06631 0.0
C1666 C 0.97841 0.58215 0.10457 0.0
C1667 C 0.00057 0.60559 0.05188 0.0
C1668 C 0.97912 0.56204 0.17286 0.0
C1669 C 0.97962 0.56815 0.15729 0.0
C1670 C 0.9983 0.58168 0.11753 0.0
C1671 C 0.99123 0.59697 0.0806 0.0
C1672 C 0.98972 0.58921 0.09617 0.0
C1673 C 0.98577 0.56753 0.14207 0.0
C1674 C 0.98702 0.57473 0.12601 0.0
H1675 H 0.98203 0.61578 0.06541 0.0
H1676 H 0.97933 0.60293 0.09085 0.0
H1677 H 0.00855 0.59436 0.09695 0.0
H1678 H 0.99473 0.54875 0.15802 0.0
H1679 H 0.99577 0.55961 0.13093 0.0
C1680 C 0.40326 0.39554 0.04211 0.0
C1681 C 0.39118 0.39255 0.04188 0.0
C1682 C 0.41054 0.40134 0.05715 0.0
C1683 C 0.41434 0.42079 0.09635 0.0
H1684 H 0.43201 0.40694 0.11632 0.0
C1685 C 0.43809 0.43657 0.16527 0.0
C1686 C 0.44873 0.43644 0.16783 0.0
C1687 C 0.4315 0.43191 0.14935 0.0
C1688 C 0.42734 0.41109 0.11076 0.0
H1689 H 0.37731 0.39348 0.0571 0.0
H1690 H 0.39013 0.4038 0.08331 0.0
H1691 H 0.41972 0.39753 0.08956 0.0
H1692 H 0.46113 0.43186 0.15556 0.0
H1693 H 0.44991 0.42412 0.12749 0.0
H1694 H 0.4221 0.4345 0.11729 0.0
C1695 C 0.39392 0.4016 0.07185 0.0
C1696 C 0.42024 0.40564 0.09547 0.0
C1697 C 0.38657 0.39563 0.05691 0.0
C1698 C 0.45288 0.43194 0.15397 0.0
C1699 C 0.44639 0.42743 0.13795 0.0
C1700 C 0.42158 0.42636 0.11152 0.0
C1701 C 0.40594 0.40442 0.07215 0.0
C1702 C 0.41362 0.41039 0.08818 0.0
C1703 C 0.43549 0.42716 0.13554 0.0
C1704 C 0.42812 0.42154 0.119 0.0
H1705 H 0.40708 0.39328 0.03076 0.0
H1706 H 0.41981 0.40349 0.057 0.0
H1707 H 0.40943 0.42471 0.09086 0.0
H1708 H 0.43462 0.43986 0.17585 0.0
H1709 H 0.42307 0.43169 0.14814 0.0
C1710 C 0.64971 0.72589 0.38168 0.0
C1711 C 0.65615 0.7198 0.38176 0.0
C1712 C 0.64781 0.73064 0.39762 0.0
C1713 C 0.66004 0.74064 0.44343 0.0
H1714 H 0.6293 0.73792 0.45338 0.0
C1715 C 0.6497 0.75368 0.51248 0.0
C1716 C 0.6444 0.76089 0.51288 0.0
C1717 C 0.65041 0.7482 0.49648 0.0
C1718 C 0.63797 0.73884 0.4507 0.0
H1719 H 0.66546 0.71375 0.39868 0.0
H1720 H 0.66203 0.7219 0.42645 0.0
H1721 H 0.63202 0.72929 0.42537 0.0
H1722 H 0.63534 0.76767 0.4969 0.0
H1723 H 0.63656 0.75804 0.46884 0.0
H1724 H 0.666 0.75016 0.4687 0.0
C1725 C 0.65862 0.72319 0.41405 0.0
C1726 C 0.63953 0.73391 0.43466 0.0
C1727 C 0.66054 0.71846 0.39813 0.0
C1728 C 0.63941 0.76211 0.49703 0.0
C1729 C 0.64011 0.7566 0.48097 0.0
C1730 C 0.65847 0.74552 0.45944 0.0
C1731 C 0.6523 0.7294 0.41398 0.0
C1732 C 0.65058 0.73471 0.43089 0.0
C1733 C 0.64582 0.74977 0.48048 0.0
C1734 C 0.6474 0.74463 0.46331 0.0
H1735 H 0.64622 0.72708 0.36929 0.0
H1736 H 0.64302 0.73548 0.39707 0.0
H1737 H 0.66875 0.74164 0.44079 0.0
H1738 H 0.65339 0.75234 0.52455 0.0
H1739 H 0.65461 0.74276 0.49663 0.0
C1740 C 0.27114 0.9527 0.40828 0.0
C1741 C 0.27881 0.95078 0.39705 0.0
C1742 C 0.26441 0.94435 0.42168 0.0
C1743 C 0.25265 0.91235 0.43548 0.0
H1744 H 0.25098 0.92488 0.48261 0.0
C1745 C 0.23677 0.88236 0.49842 0.0
C1746 C 0.22985 0.88432 0.51118 0.0
C1747 C 0.24169 0.89001 0.48368 0.0
C1748 C 0.2512 0.92121 0.46945 0.0
H1749 H 0.28543 0.93857 0.39111 0.0
H1750 H 0.27381 0.92411 0.41458 0.0
H1751 H 0.26168 0.93922 0.45857 0.0
H1752 H 0.22248 0.89571 0.51826 0.0
H1753 H 0.23088 0.90891 0.49237 0.0
H1754 H 0.24228 0.89435 0.44645 0.0
C1755 C 0.27286 0.93197 0.41288 0.0
C1756 C 0.25734 0.92944 0.45567 0.0
C1757 C 0.27959 0.94032 0.3995 0.0
C1758 C 0.22768 0.89388 0.5086 0.0
C1759 C 0.23261 0.90154 0.49388 0.0
C1760 C 0.2465 0.90412 0.44926 0.0
C1761 C 0.2652 0.93389 0.42413 0.0
C1762 C 0.25823 0.92511 0.43856 0.0
C1763 C 0.23982 0.8998 0.48139 0.0
C1764 C 0.24579 0.90847 0.46645 0.0
H1765 H 0.27029 0.96064 0.40671 0.0
H1766 H 0.25849 0.94602 0.43001 0.0
H1767 H 0.253 0.90871 0.42236 0.0
H1768 H 0.2385 0.87499 0.49993 0.0
H1769 H 0.24728 0.88847 0.47439 0.0
C1770 C 0.06508 0.34885 0.39985 0.0
C1771 C 0.06068 0.33891 0.38753 0.0
C1772 C 0.07269 0.34999 0.4139 0.0
C1773 C 0.09344 0.34006 0.42768 0.0
H1774 H 0.08665 0.34659 0.47604 0.0
C1775 C 0.11356 0.33125 0.48974 0.0
C1776 C 0.1168 0.33935 0.50461 0.0
C1777 C 0.10764 0.33236 0.47508 0.0
C1778 C 0.08881 0.34496 0.46259 0.0
H1779 H 0.06087 0.32243 0.38023 0.0
H1780 H 0.07409 0.32444 0.40464 0.0
H1781 H 0.07463 0.34655 0.45111 0.0
H1782 H 0.11644 0.35507 0.51561 0.0
H1783 H 0.10639 0.35721 0.4898 0.0
H1784 H 0.10757 0.3384 0.43908 0.0
C1785 C 0.07175 0.33139 0.4034 0.0
C1786 C 0.08191 0.34493 0.44831 0.0
C1787 C 0.0641 0.3302 0.38948 0.0
C1788 C 0.11419 0.34875 0.5043 0.0
C1789 C 0.10828 0.34988 0.4896 0.0
C1790 C 0.10038 0.34015 0.44192 0.0
C1791 C 0.07612 0.34128 0.41578 0.0
C1792 C 0.08403 0.34228 0.43075 0.0
C1793 C 0.10484 0.34164 0.47487 0.0
C1794 C 0.09803 0.34241 0.45959 0.0
H1795 H 0.06262 0.35572 0.3987 0.0
H1796 H 0.07597 0.35775 0.4232 0.0
H1797 H 0.09542 0.33819 0.41424 0.0
H1798 H 0.11557 0.324 0.48944 0.0
H1799 H 0.105 0.32576 0.46406 0.0
C1800 C 0.06306 0.33954 0.29993 0.0
C1801 C 0.052 0.32899 0.30455 0.0
C1802 C 0.06999 0.3391 0.2858 0.0
C1803 C 0.06782 0.3228 0.24392 0.0
H1804 H 0.10233 0.33697 0.25009 0.0
C1805 C 0.09726 0.32107 0.18677 0.0
C1806 C 0.10879 0.33164 0.18437 0.0
C1807 C 0.09046 0.31987 0.2021 0.0
C1808 C 0.09273 0.3331 0.24805 0.0
H1809 H 0.0395 0.30972 0.29786 0.0
H1810 H 0.05155 0.30903 0.27287 0.0
H1811 H 0.09011 0.33669 0.27541 0.0
H1812 H 0.12234 0.34904 0.19665 0.0
H1813 H 0.1103 0.34721 0.22293 0.0
H1814 H 0.07042 0.3196 0.21646 0.0
C1815 C 0.05484 0.31761 0.28031 0.0
C1816 C 0.08574 0.3329 0.26259 0.0
C1817 C 0.04798 0.318 0.29464 0.0
C1818 C 0.11343 0.34086 0.19789 0.0
C1819 C 0.10658 0.33972 0.21313 0.0
C1820 C 0.07483 0.32314 0.22931 0.0
C1821 C 0.06594 0.32815 0.27582 0.0
C1822 C 0.07324 0.32783 0.26063 0.0
C1823 C 0.09495 0.32926 0.21537 0.0
C1824 C 0.0874 0.32837 0.23115 0.0
H1825 H 0.06643 0.34814 0.30733 0.0
H1826 H 0.07844 0.34739 0.2825 0.0
H1827 H 0.05822 0.31896 0.242 0.0
H1828 H 0.09331 0.31383 0.17658 0.0
H1829 H 0.08164 0.31159 0.20348 0.0
C1830 C 0.67963 0.7349 0.29804 0.0
C1831 C 0.68162 0.72517 0.29502 0.0
C1832 C 0.68259 0.74368 0.28494 0.0
C1833 C 0.70094 0.75681 0.24405 0.0
H1834 H 0.67754 0.76612 0.23399 0.0
C1835 C 0.70261 0.78213 0.17999 0.0
C1836 C 0.69921 0.79094 0.18121 0.0
C1837 C 0.70144 0.77505 0.19475 0.0
C1838 C 0.68427 0.76379 0.23681 0.0
H1839 H 0.6885 0.71717 0.27596 0.0
H1840 H 0.69359 0.73246 0.25304 0.0
H1841 H 0.67367 0.75196 0.25806 0.0
H1842 H 0.69235 0.79956 0.1991 0.0
H1843 H 0.69038 0.78725 0.22494 0.0
H1844 H 0.7115 0.76857 0.22267 0.0
C1845 C 0.68983 0.73335 0.26562 0.0
C1846 C 0.68204 0.75565 0.2506 0.0
C1847 C 0.68684 0.72454 0.27872 0.0
C1848 C 0.6949 0.79273 0.19767 0.0
C1849 C 0.69375 0.78567 0.21245 0.0
C1850 C 0.70319 0.76498 0.23027 0.0
C1851 C 0.68765 0.74296 0.26853 0.0
C1852 C 0.6903 0.75199 0.2543 0.0
C1853 C 0.69685 0.77663 0.2111 0.0
C1854 C 0.69483 0.76849 0.22638 0.0
H1855 H 0.67567 0.7357 0.31048 0.0
H1856 H 0.68095 0.75106 0.28769 0.0
H1857 H 0.70756 0.75432 0.24674 0.0
H1858 H 0.70577 0.78037 0.16743 0.0
H1859 H 0.70374 0.76805 0.19314 0.0
C1860 C 0.26275 0.94327 0.30978 0.0
C1861 C 0.27545 0.95048 0.31093 0.0
C1862 C 0.25711 0.9371 0.29376 0.0
C1863 C 0.26305 0.92462 0.25271 0.0
H1864 H 0.23424 0.92277 0.23451 0.0
C1865 C 0.24349 0.90324 0.18339 0.0
C1866 C 0.23086 0.89573 0.18178 0.0
C1867 C 0.24874 0.91021 0.19901 0.0
C1868 C 0.2422 0.92308 0.23953 0.0
H1869 H 0.29214 0.95724 0.29596 0.0
H1870 H 0.2823 0.94655 0.26807 0.0
H1871 H 0.24375 0.93463 0.262 0.0
H1872 H 0.2138 0.88965 0.19528 0.0
H1873 H 0.22296 0.90175 0.22272 0.0
H1874 H 0.26149 0.913 0.23046 0.0
C1875 C 0.27672 0.94551 0.27962 0.0
C1876 C 0.24765 0.9299 0.25525 0.0
C1877 C 0.28235 0.95169 0.29558 0.0
C1878 C 0.22356 0.89543 0.19608 0.0
C1879 C 0.22881 0.90238 0.21177 0.0
C1880 C 0.25759 0.91779 0.23707 0.0
C1881 C 0.26405 0.93799 0.27859 0.0
C1882 C 0.25817 0.93078 0.26195 0.0
C1883 C 0.24147 0.90981 0.21344 0.0
C1884 C 0.24714 0.91698 0.23023 0.0
H1885 H 0.25717 0.94216 0.32135 0.0
H1886 H 0.24733 0.93132 0.29341 0.0
H1887 H 0.27101 0.92492 0.25772 0.0
H1888 H 0.24935 0.90385 0.17246 0.0
H1889 H 0.2585 0.91602 0.1997 0.0
C1890 C 0.69008 0.95909 0.29372 0.0
C1891 C 0.67841 0.9561 0.29891 0.0
C1892 C 0.69172 0.95326 0.27884 0.0
C1893 C 0.67549 0.92536 0.24978 0.0
H1894 H 0.70234 0.94413 0.21743 0.0
C1895 C 0.68039 0.90603 0.18137 0.0
C1896 C 0.69205 0.90888 0.17635 0.0
C1897 C 0.67868 0.91146 0.19672 0.0
C1898 C 0.69488 0.93873 0.22645 0.0
H1899 H 0.65931 0.94475 0.29239 0.0
H1900 H 0.6622 0.93471 0.26626 0.0
H1901 H 0.69941 0.95445 0.24314 0.0
H1902 H 0.71101 0.91931 0.18391 0.0
H1903 H 0.70803 0.92882 0.21064 0.0
H1904 H 0.67093 0.90966 0.23295 0.0
C1905 C 0.67007 0.94141 0.27388 0.0
C1906 C 0.6932 0.94464 0.2412 0.0
C1907 C 0.66842 0.94723 0.28879 0.0
C1908 C 0.70194 0.91709 0.18723 0.0
C1909 C 0.70024 0.92253 0.20254 0.0
C1910 C 0.67716 0.91945 0.235 0.0
C1911 C 0.68174 0.94432 0.26877 0.0
C1912 C 0.68349 0.93803 0.25305 0.0
C1913 C 0.68861 0.91987 0.20736 0.0
C1914 C 0.68688 0.92608 0.22318 0.0
H1915 H 0.69796 0.96585 0.30127 0.0
H1916 H 0.70082 0.9556 0.27542 0.0
H1917 H 0.66804 0.91995 0.2588 0.0
H1918 H 0.6726 0.89989 0.17315 0.0
H1919 H 0.66963 0.90933 0.19996 0.0
C1920 C 0.05619 0.73113 0.28704 0.0
C1921 C 0.0478 0.73206 0.29799 0.0
C1922 C 0.06265 0.73983 0.27393 0.0
C1923 C 0.06194 0.76316 0.24661 0.0
H1924 H 0.09549 0.77366 0.23766 0.0
C1925 C 0.08675 0.78658 0.18146 0.0
C1926 C 0.09915 0.79561 0.18224 0.0
C1927 C 0.08059 0.78018 0.19676 0.0
C1928 C 0.08619 0.77097 0.24013 0.0
H1929 H 0.03963 0.74289 0.3038 0.0
H1930 H 0.051 0.75816 0.281 0.0
H1931 H 0.08473 0.75998 0.26231 0.0
H1932 H 0.11468 0.80538 0.19988 0.0
H1933 H 0.10389 0.79425 0.22669 0.0
H1934 H 0.06344 0.77424 0.22448 0.0
C1935 C 0.05248 0.75061 0.28242 0.0
C1936 C 0.07996 0.76299 0.25412 0.0
C1937 C 0.046 0.74189 0.29553 0.0
C1938 C 0.10517 0.79836 0.19881 0.0
C1939 C 0.09899 0.79197 0.21415 0.0
C1940 C 0.06818 0.77117 0.23262 0.0
C1941 C 0.0609 0.74969 0.27148 0.0
C1942 C 0.06772 0.75883 0.25736 0.0
C1943 C 0.08667 0.78266 0.21323 0.0
C1944 C 0.08033 0.77503 0.22905 0.0
H1945 H 0.05777 0.72365 0.28852 0.0
H1946 H 0.06889 0.73871 0.26553 0.0
H1947 H 0.0525 0.76009 0.24866 0.0
H1948 H 0.08189 0.78408 0.16885 0.0
H1949 H 0.07116 0.77293 0.19548 0.0
C1950 C 0.2683 0.33442 0.29333 0.0
C1951 C 0.27187 0.32607 0.29738 0.0
C1952 C 0.26057 0.3321 0.27892 0.0
C1953 C 0.23835 0.30753 0.24843 0.0
H1954 H 0.24646 0.33488 0.21767 0.0
C1955 C 0.21544 0.30212 0.17951 0.0
C1956 C 0.21337 0.31147 0.17483 0.0
C1957 C 0.22178 0.30323 0.1952 0.0
C1958 C 0.24396 0.32717 0.22626 0.0
H1959 H 0.26995 0.30862 0.28964 0.0
H1960 H 0.25652 0.30462 0.26434 0.0
H1961 H 0.25907 0.33811 0.24355 0.0
H1962 H 0.21559 0.3289 0.18342 0.0
H1963 H 0.2265 0.33078 0.21082 0.0
H1964 H 0.22322 0.29659 0.23099 0.0
C1965 C 0.25963 0.31291 0.27244 0.0
C1966 C 0.2512 0.32903 0.24109 0.0
C1967 C 0.26738 0.31524 0.28686 0.0
C1968 C 0.21727 0.32167 0.18651 0.0
C1969 C 0.22355 0.32275 0.20218 0.0
C1970 C 0.23107 0.30567 0.23355 0.0
C1971 C 0.25623 0.32138 0.2682 0.0
C1972 C 0.24847 0.31926 0.2524 0.0
C1973 C 0.22612 0.31369 0.20651 0.0
C1974 C 0.23376 0.3155 0.22235 0.0
H1975 H 0.27152 0.34281 0.30122 0.0
H1976 H 0.25797 0.33871 0.27618 0.0
H1977 H 0.23595 0.29984 0.25699 0.0
H1978 H 0.21259 0.29419 0.1707 0.0
H1979 H 0.22368 0.29612 0.19811 0.0
C1980 C 0.27761 0.33363 0.38807 0.0
C1981 C 0.2882 0.34319 0.3803 0.0
C1982 C 0.27253 0.33593 0.40313 0.0
C1983 C 0.27245 0.36113 0.42899 0.0
H1984 H 0.25836 0.3366 0.46591 0.0
C1985 C 0.25659 0.36901 0.49863 0.0
C1986 C 0.24553 0.35922 0.50496 0.0
C1987 C 0.2618 0.36757 0.48294 0.0
C1988 C 0.26217 0.34349 0.45563 0.0
H1989 H 0.30184 0.36266 0.38232 0.0
H1990 H 0.29313 0.36661 0.40886 0.0
H1991 H 0.26767 0.33307 0.4398 0.0
H1992 H 0.23093 0.34049 0.49918 0.0
H1993 H 0.24009 0.33795 0.47204 0.0
H1994 H 0.26705 0.37161 0.44512 0.0
C1995 C 0.2886 0.35738 0.4031 0.0
C1996 C 0.26748 0.34146 0.44064 0.0
C1997 C 0.29364 0.35509 0.38795 0.0
C1998 C 0.23961 0.34812 0.49493 0.0
C1999 C 0.24483 0.34666 0.47936 0.0
C2000 C 0.2672 0.3632 0.4441 0.0
C2001 C 0.27798 0.34783 0.41088 0.0
C2002 C 0.2726 0.3502 0.42704 0.0
C2003 C 0.25607 0.35629 0.47336 0.0
C2004 C 0.26191 0.35434 0.45749 0.0
H2005 H 0.27315 0.32436 0.38243 0.0
H2006 H 0.26423 0.32839 0.40856 0.0
H2007 H 0.27617 0.36799 0.41868 0.0
H2008 H 0.26143 0.37765 0.50611 0.0
H2009 H 0.27051 0.37513 0.47865 0.0
C2010 C 0.67749 0.94197 0.38375 0.0
C2011 C 0.66834 0.94463 0.38172 0.0
C2012 C 0.67724 0.93501 0.39806 0.0
C2013 C 0.65727 0.91349 0.43286 0.0
H2014 H 0.68782 0.92388 0.45624 0.0
C2015 C 0.66121 0.89494 0.501 0.0
C2016 C 0.67056 0.89251 0.50275 0.0
C2017 C 0.66036 0.90052 0.48567 0.0
C2018 C 0.67924 0.92077 0.44973 0.0
H2019 H 0.65164 0.94192 0.39302 0.0
H2020 H 0.65133 0.92993 0.41828 0.0
H2021 H 0.6874 0.93523 0.43082 0.0
H2022 H 0.68602 0.89356 0.48938 0.0
H2023 H 0.6846 0.90341 0.46271 0.0
H2024 H 0.64912 0.89912 0.45209 0.0
C2025 C 0.65861 0.93309 0.40862 0.0
C2026 C 0.67899 0.92727 0.43513 0.0
C2027 C 0.65882 0.94001 0.3942 0.0
C2028 C 0.67885 0.89551 0.48861 0.0
C2029 C 0.67803 0.90114 0.47333 0.0
C2030 C 0.65752 0.90701 0.44756 0.0
C2031 C 0.66789 0.9306 0.4108 0.0
C2032 C 0.66802 0.92368 0.42646 0.0
C2033 C 0.66887 0.90385 0.47179 0.0
C2034 C 0.66852 0.91057 0.45609 0.0
H2035 H 0.6849 0.94528 0.37428 0.0
H2036 H 0.6844 0.93306 0.3991 0.0
H2037 H 0.64869 0.91039 0.42637 0.0
H2038 H 0.65478 0.89291 0.51174 0.0
H2039 H 0.65329 0.90261 0.48495 0.0
C2040 C 0.06107 0.72008 0.38493 0.0
C2041 C 0.05139 0.72185 0.38219 0.0
C2042 C 0.06852 0.72524 0.39998 0.0
C2043 C 0.07842 0.7501 0.434 0.0
H2044 H 0.08821 0.73101 0.46068 0.0
C2045 C 0.10191 0.76634 0.50281 0.0
C2046 C 0.11123 0.7642 0.50664 0.0
C2047 C 0.09496 0.76136 0.48728 0.0
C2048 C 0.0857 0.73653 0.45323 0.0
H2049 H 0.04187 0.73037 0.39319 0.0
H2050 H 0.05485 0.73934 0.41949 0.0
H2051 H 0.07528 0.72183 0.43437 0.0
H2052 H 0.12071 0.75533 0.497 0.0
H2053 H 0.10861 0.74669 0.46976 0.0
H2054 H 0.08885 0.76481 0.4528 0.0
C2055 C 0.05675 0.73405 0.4099 0.0
C2056 C 0.07827 0.73125 0.43818 0.0
C2057 C 0.04927 0.72885 0.39488 0.0
C2058 C 0.11351 0.75703 0.49451 0.0
C2059 C 0.10656 0.75207 0.47893 0.0
C2060 C 0.08588 0.75539 0.44901 0.0
C2061 C 0.06648 0.73233 0.41259 0.0
C2062 C 0.0745 0.73796 0.42845 0.0
C2063 C 0.09717 0.75414 0.47518 0.0
C2064 C 0.08956 0.74864 0.45886 0.0
H2065 H 0.06296 0.71474 0.37541 0.0
H2066 H 0.07601 0.72385 0.40159 0.0
H2067 H 0.07584 0.75558 0.4266 0.0
H2068 H 0.09977 0.77162 0.51205 0.0
H2069 H 0.08766 0.76296 0.48498 0.0
C2070 C 0.34216 0.07595 0.71055 0.0
C2071 C 0.33576 0.06303 0.70955 0.0
C2072 C 0.34025 0.08206 0.72477 0.0
C2073 C 0.3296 0.07783 0.77141 0.0
H2074 H 0.3305 0.10828 0.76384 0.0
C2075 C 0.32576 0.10603 0.8301 0.0
C2076 C 0.33454 0.11868 0.83013 0.0
C2077 C 0.32403 0.09864 0.81489 0.0
C2078 C 0.33026 0.09981 0.76617 0.0
H2079 H 0.32216 0.04637 0.72256 0.0
H2080 H 0.31878 0.05706 0.74741 0.0
H2081 H 0.33084 0.0963 0.7381 0.0
H2082 H 0.348 0.1336 0.81402 0.0
H2083 H 0.34507 0.12073 0.78757 0.0
H2084 H 0.32925 0.08147 0.79949 0.0
C2085 C 0.32537 0.06246 0.73725 0.0
C2086 C 0.33047 0.09295 0.75143 0.0
C2087 C 0.32727 0.05633 0.72298 0.0
C2088 C 0.34126 0.12386 0.81445 0.0
C2089 C 0.33948 0.1165 0.79925 0.0
C2090 C 0.32936 0.08468 0.78615 0.0
C2091 C 0.33189 0.0754 0.73835 0.0
C2092 C 0.3304 0.08201 0.75389 0.0
C2093 C 0.33099 0.10378 0.79938 0.0
C2094 C 0.32993 0.09587 0.7837 0.0
H2095 H 0.34877 0.0814 0.70045 0.0
H2096 H 0.34557 0.09202 0.72534 0.0
H2097 H 0.32967 0.06952 0.77379 0.0
H2098 H 0.32051 0.10176 0.84202 0.0
H2099 H 0.31734 0.08889 0.81534 0.0
C2100 C 0.96051 0.2913 0.75105 0.0
C2101 C 0.96098 0.28674 0.73392 0.0
C2102 C 0.95258 0.28339 0.76405 0.0
C2103 C 0.92424 0.25333 0.76852 0.0
H2104 H 0.93331 0.25779 0.8187 0.0
C2105 C 0.90387 0.22938 0.84164 0.0
C2106 C 0.89225 0.22763 0.84057 0.0
C2107 C 0.9124 0.23553 0.82815 0.0
C2108 C 0.93067 0.25631 0.80472 0.0
H2109 H 0.95369 0.27021 0.71717 0.0
H2110 H 0.93998 0.25642 0.73989 0.0
H2111 H 0.94828 0.27057 0.79638 0.0
H2112 H 0.88031 0.2305 0.8241 0.0
H2113 H 0.89523 0.24141 0.80076 0.0
H2114 H 0.90666 0.23902 0.77684 0.0
C2115 C 0.9456 0.26614 0.74319 0.0
C2116 C 0.93921 0.26375 0.79195 0.0
C2117 C 0.95351 0.27405 0.7302 0.0
C2118 C 0.88923 0.23182 0.82543 0.0
C2119 C 0.89775 0.23796 0.81195 0.0
C2120 C 0.9157 0.24589 0.78129 0.0
C2121 C 0.94494 0.27073 0.76021 0.0
C2122 C 0.93606 0.26243 0.77372 0.0
C2123 C 0.90949 0.24005 0.81328 0.0
C2124 C 0.91877 0.24738 0.79956 0.0
H2125 H 0.96612 0.30103 0.75435 0.0
H2126 H 0.9522 0.28726 0.77695 0.0
H2127 H 0.92147 0.25214 0.75462 0.0
H2128 H 0.90652 0.22635 0.85319 0.0
H2129 H 0.92132 0.23686 0.82947 0.0
C2130 C 0.72547 0.66966 0.73667 0.0
C2131 C 0.72683 0.67899 0.72543 0.0
C2132 C 0.73384 0.67229 0.75027 0.0
C2133 C 0.75709 0.69773 0.77831 0.0
H2134 H 0.76737 0.6747 0.78706 0.0
C2135 C 0.79368 0.70774 0.83087 0.0
C2136 C 0.79123 0.69795 0.84198 0.0
C2137 C 0.78653 0.70572 0.81578 0.0
C2138 C 0.76452 0.68117 0.78487 0.0
H2139 H 0.73807 0.69843 0.71971 0.0
H2140 H 0.75273 0.70301 0.74344 0.0
H2141 H 0.75346 0.67067 0.7625 0.0
H2142 H 0.77931 0.67835 0.84594 0.0
H2143 H 0.76688 0.67482 0.81966 0.0
H2144 H 0.76805 0.70817 0.80081 0.0
C2145 C 0.74511 0.69367 0.7418 0.0
C2146 C 0.75654 0.67886 0.77081 0.0
C2147 C 0.73674 0.69103 0.72816 0.0
C2148 C 0.78159 0.68606 0.8375 0.0
C2149 C 0.77444 0.68403 0.82243 0.0
C2150 C 0.76507 0.70004 0.79239 0.0
C2151 C 0.74377 0.68432 0.75297 0.0
C2152 C 0.75264 0.68705 0.76747 0.0
C2153 C 0.77677 0.69385 0.81147 0.0
C2154 C 0.76879 0.69173 0.79594 0.0
H2155 H 0.71793 0.66028 0.73497 0.0
H2156 H 0.73244 0.66491 0.75881 0.0
H2157 H 0.75414 0.70414 0.77623 0.0
H2158 H 0.80115 0.71699 0.83382 0.0
H2159 H 0.78866 0.71344 0.80746 0.0
C2160 C 0.72046 0.65339 0.6388 0.0
C2161 C 0.72074 0.66454 0.64069 0.0
C2162 C 0.72556 0.65108 0.62377 0.0
C2163 C 0.74781 0.66653 0.58777 0.0
H2164 H 0.72998 0.63473 0.56336 0.0
C2165 C 0.76173 0.65719 0.51818 0.0
C2166 C 0.76005 0.64552 0.51464 0.0
C2167 C 0.7575 0.65959 0.53413 0.0
C2168 C 0.73518 0.6436 0.57016 0.0
H2169 H 0.72665 0.68201 0.62828 0.0
H2170 H 0.73555 0.67795 0.60204 0.0
H2171 H 0.72143 0.63872 0.59003 0.0
H2172 H 0.75304 0.62736 0.52533 0.0
H2173 H 0.74582 0.63158 0.55332 0.0
H2174 H 0.76159 0.67141 0.56797 0.0
C2175 C 0.73144 0.67104 0.61226 0.0
C2176 C 0.73025 0.64588 0.58543 0.0
C2177 C 0.72627 0.67333 0.62724 0.0
C2178 C 0.75432 0.63639 0.52759 0.0
C2179 C 0.75015 0.63881 0.54359 0.0
C2180 C 0.75278 0.66422 0.57256 0.0
C2181 C 0.73112 0.65988 0.61035 0.0
C2182 C 0.73648 0.65739 0.59434 0.0
C2183 C 0.75155 0.65039 0.54696 0.0
C2184 C 0.74649 0.65274 0.56351 0.0
H2185 H 0.71628 0.64643 0.64893 0.0
H2186 H 0.72527 0.64244 0.62275 0.0
H2187 H 0.7529 0.67543 0.59451 0.0
H2188 H 0.76596 0.66436 0.50834 0.0
H2189 H 0.75858 0.66855 0.53615 0.0
C2190 C 0.32544 0.05698 0.61947 0.0
C2191 C 0.33472 0.05679 0.62874 0.0
C2192 C 0.32821 0.06519 0.60556 0.0
C2193 C 0.35267 0.0946 0.58809 0.0
H2194 H 0.33444 0.08319 0.54371 0.0
C2195 C 0.36691 0.12432 0.52474 0.0
C2196 C 0.3577 0.12347 0.51389 0.0
C2197 C 0.36407 0.11651 0.53923 0.0
C2198 C 0.33951 0.08659 0.55611 0.0
H2199 H 0.35417 0.06507 0.63063 0.0
H2200 H 0.35897 0.07938 0.60635 0.0
H2201 H 0.32949 0.06883 0.56792 0.0
H2202 H 0.33825 0.11378 0.50996 0.0
H2203 H 0.33331 0.10054 0.53552 0.0
H2204 H 0.36262 0.11238 0.57638 0.0
C2205 C 0.34957 0.07323 0.60993 0.0
C2206 C 0.33668 0.07834 0.56995 0.0
C2207 C 0.34681 0.06496 0.62375 0.0
C2208 C 0.34558 0.11482 0.51814 0.0
C2209 C 0.34274 0.10708 0.53266 0.0
C2210 C 0.35545 0.10288 0.57428 0.0
C2211 C 0.3403 0.07344 0.60071 0.0
C2212 C 0.34325 0.08224 0.58607 0.0
C2213 C 0.35195 0.1077 0.54324 0.0
C2214 C 0.34891 0.09897 0.5581 0.0
H2215 H 0.31604 0.05082 0.623 0.0
H2216 H 0.32088 0.06521 0.59878 0.0
H2217 H 0.35778 0.09791 0.60047 0.0
H2218 H 0.37634 0.13096 0.52198 0.0
H2219 H 0.3714 0.11719 0.547 0.0
C2220 C 0.93753 0.27699 0.64377 0.0
C2221 C 0.95021 0.28284 0.64405 0.0
C2222 C 0.93093 0.27012 0.62869 0.0
C2223 C 0.93327 0.2535 0.58922 0.0
H2224 H 0.90592 0.25468 0.57143 0.0
C2225 C 0.91102 0.23157 0.52137 0.0
C2226 C 0.89832 0.22507 0.52035 0.0
C2227 C 0.91701 0.23855 0.53666 0.0
C2228 C 0.91345 0.25415 0.57637 0.0
H2229 H 0.96593 0.28636 0.62851 0.0
H2230 H 0.95445 0.27451 0.6022 0.0
H2231 H 0.9171 0.26726 0.59762 0.0
H2232 H 0.88196 0.22086 0.53462 0.0
H2233 H 0.89247 0.23311 0.56142 0.0
H2234 H 0.92968 0.24043 0.56803 0.0
C2235 C 0.94958 0.27504 0.61374 0.0
C2236 C 0.91986 0.26136 0.59136 0.0
C2237 C 0.95617 0.2819 0.62879 0.0
C2238 C 0.89175 0.22583 0.53494 0.0
C2239 C 0.89777 0.23285 0.55027 0.0
C2240 C 0.92688 0.24631 0.57427 0.0
C2241 C 0.93688 0.26895 0.61359 0.0
C2242 C 0.92989 0.26118 0.59786 0.0
C2243 C 0.91047 0.23925 0.55131 0.0
C2244 C 0.91696 0.24662 0.56759 0.0
H2245 H 0.93267 0.27752 0.65531 0.0
H2246 H 0.92115 0.26546 0.62904 0.0
H2247 H 0.9408 0.25295 0.59411 0.0
H2248 H 0.91636 0.23141 0.51022 0.0
H2249 H 0.92681 0.24357 0.53688 0.0
C2250 C 0.33962 0.2838 0.62681 0.0
C2251 C 0.32745 0.27884 0.63168 0.0
C2252 C 0.34269 0.27868 0.6125 0.0
C2253 C 0.33084 0.25038 0.58432 0.0
H2254 H 0.35658 0.27214 0.55214 0.0
C2255 C 0.34048 0.23406 0.51659 0.0
C2256 C 0.35267 0.23892 0.51184 0.0
C2257 C 0.33746 0.2385 0.53181 0.0
C2258 C 0.34947 0.26594 0.56113 0.0
H2259 H 0.30894 0.26466 0.62527 0.0
H2260 H 0.31428 0.25587 0.60005 0.0
H2261 H 0.35106 0.28082 0.57722 0.0
H2262 H 0.37124 0.25194 0.51979 0.0
H2263 H 0.36594 0.25975 0.54628 0.0
H2264 H 0.32917 0.23551 0.568 0.0
C2265 C 0.32147 0.26358 0.60751 0.0
C2266 C 0.3463 0.27091 0.57552 0.0
C2267 C 0.3184 0.26867 0.62189 0.0
C2268 C 0.36176 0.24814 0.52289 0.0
C2269 C 0.35874 0.25261 0.53807 0.0
C2270 C 0.33398 0.24541 0.56987 0.0
C2271 C 0.33365 0.26853 0.60264 0.0
C2272 C 0.33696 0.2632 0.5873 0.0
C2273 C 0.34655 0.24793 0.54258 0.0
C2274 C 0.34333 0.25314 0.55813 0.0
H2275 H 0.34683 0.29159 0.63414 0.0
H2276 H 0.35217 0.28261 0.60931 0.0
H2277 H 0.32373 0.24417 0.59329 0.0
H2278 H 0.33325 0.2271 0.50824 0.0
H2279 H 0.32799 0.23481 0.53482 0.0
C2280 C 0.7149 0.06941 0.625 0.0
C2281 C 0.70286 0.05989 0.62187 0.0
C2282 C 0.7216 0.07775 0.61159 0.0
C2283 C 0.72276 0.08083 0.56251 0.0
H2284 H 0.74526 0.11541 0.57352 0.0
C2285 C 0.74837 0.11562 0.50697 0.0
C2286 C 0.76081 0.124 0.50974 0.0
C2287 C 0.74099 0.10847 0.52097 0.0
C2288 C 0.73908 0.10576 0.57027 0.0
H2289 H 0.68832 0.05186 0.60232 0.0
H2290 H 0.69996 0.06652 0.57899 0.0
H2291 H 0.7328 0.10166 0.59735 0.0
H2292 H 0.77515 0.1317 0.52959 0.0
H2293 H 0.76226 0.11906 0.55405 0.0
H2294 H 0.72907 0.08489 0.53549 0.0
C2295 C 0.70429 0.06741 0.59173 0.0
C2296 C 0.73194 0.09788 0.58391 0.0
C2297 C 0.69759 0.05904 0.60514 0.0
C2298 C 0.76562 0.12526 0.52699 0.0
C2299 C 0.75822 0.11811 0.54103 0.0
C2300 C 0.72987 0.08871 0.54889 0.0
C2301 C 0.71641 0.07679 0.59474 0.0
C2302 C 0.72373 0.08531 0.58019 0.0
C2303 C 0.74586 0.1095 0.5381 0.0
C2304 C 0.73813 0.10125 0.55261 0.0
H2305 H 0.71925 0.07032 0.63773 0.0
H2306 H 0.73095 0.08477 0.61429 0.0
H2307 H 0.7167 0.07117 0.55923 0.0
H2308 H 0.74438 0.11429 0.49381 0.0
H2309 H 0.73148 0.10204 0.51832 0.0
C2310 C 0.94377 0.67482 0.60739 0.0
C2311 C 0.94266 0.66563 0.61866 0.0
C2312 C 0.93559 0.67186 0.59335 0.0
C2313 C 0.90503 0.64783 0.57753 0.0
H2314 H 0.91667 0.66429 0.5322 0.0
C2315 C 0.87507 0.63421 0.51377 0.0
C2316 C 0.87617 0.64399 0.50387 0.0
C2317 C 0.88296 0.63651 0.528 0.0
C2318 C 0.91327 0.65969 0.54484 0.0
H2319 H 0.93216 0.64607 0.62393 0.0
H2320 H 0.91803 0.64088 0.59925 0.0
H2321 H 0.93098 0.66888 0.55638 0.0
H2322 H 0.88644 0.66382 0.5011 0.0
H2323 H 0.90008 0.66782 0.52599 0.0
H2324 H 0.88731 0.6386 0.56584 0.0
C2325 C 0.92509 0.65041 0.60144 0.0
C2326 C 0.92146 0.66233 0.55871 0.0
C2327 C 0.93324 0.65339 0.61553 0.0
C2328 C 0.88525 0.6561 0.5086 0.0
C2329 C 0.89317 0.65838 0.52272 0.0
C2330 C 0.89684 0.64515 0.5636 0.0
C2331 C 0.92615 0.65962 0.5902 0.0
C2332 C 0.91744 0.65651 0.57528 0.0
C2333 C 0.89217 0.64862 0.5325 0.0
C2334 C 0.90086 0.65113 0.54716 0.0
H2335 H 0.95088 0.68435 0.60948 0.0
H2336 H 0.93657 0.67921 0.58513 0.0
H2337 H 0.9016 0.6433 0.59019 0.0
H2338 H 0.86812 0.62479 0.51049 0.0
H2339 H 0.88202 0.6288 0.53525 0.0
C2340 C 0.94365 0.67227 0.71988 0.0
C2341 C 0.94328 0.6771 0.70335 0.0
C2342 C 0.93901 0.67474 0.73532 0.0
C2343 C 0.91827 0.68493 0.75053 0.0
H2344 H 0.93502 0.69065 0.79576 0.0
C2345 C 0.90471 0.70025 0.81606 0.0
C2346 C 0.90438 0.69409 0.83162 0.0
C2347 C 0.90946 0.69851 0.80009 0.0
C2348 C 0.93019 0.68898 0.78325 0.0
H2349 H 0.93782 0.68839 0.69009 0.0
H2350 H 0.9299 0.69286 0.71709 0.0
H2351 H 0.94342 0.68712 0.76852 0.0
H2352 H 0.90889 0.68142 0.84272 0.0
H2353 H 0.91707 0.67833 0.8149 0.0
H2354 H 0.90508 0.68686 0.76537 0.0
C2355 C 0.93359 0.68699 0.71807 0.0
C2356 C 0.93499 0.68693 0.76763 0.0
C2357 C 0.93819 0.68448 0.7026 0.0
C2358 C 0.90888 0.68618 0.83089 0.0
C2359 C 0.9137 0.68452 0.81502 0.0
C2360 C 0.91351 0.68704 0.76616 0.0
C2361 C 0.93395 0.68215 0.73462 0.0
C2362 C 0.92903 0.68476 0.75111 0.0
C2363 C 0.91408 0.69069 0.79946 0.0
C2364 C 0.91936 0.68897 0.78271 0.0
H2365 H 0.94745 0.6665 0.72091 0.0
H2366 H 0.93925 0.67069 0.74778 0.0
H2367 H 0.91337 0.68314 0.73807 0.0
H2368 H 0.90125 0.70636 0.8162 0.0
H2369 H 0.90971 0.70345 0.78833 0.0
C2370 C 0.30419 0.26735 0.72673 0.0
C2371 C 0.31555 0.27554 0.71918 0.0
C2372 C 0.30322 0.26014 0.74121 0.0
C2373 C 0.31906 0.24722 0.76378 0.0
H2374 H 0.29926 0.24483 0.80467 0.0
C2375 C 0.32123 0.22682 0.83079 0.0
C2376 C 0.31049 0.22 0.84066 0.0
C2377 C 0.32143 0.23291 0.81536 0.0
C2378 C 0.30468 0.24522 0.79325 0.0
H2379 H 0.3348 0.28257 0.72091 0.0
H2380 H 0.33309 0.26997 0.74615 0.0
H2381 H 0.30035 0.25679 0.77896 0.0
H2382 H 0.29147 0.2141 0.84181 0.0
H2383 H 0.29173 0.22436 0.8146 0.0
H2384 H 0.32336 0.23561 0.77796 0.0
C2385 C 0.32493 0.26908 0.74079 0.0
C2386 C 0.30532 0.25211 0.77854 0.0
C2387 C 0.32591 0.27635 0.72641 0.0
C2388 C 0.29988 0.21916 0.83446 0.0
C2389 C 0.30006 0.2252 0.81898 0.0
C2390 C 0.31836 0.24026 0.77843 0.0
C2391 C 0.31358 0.2609 0.74835 0.0
C2392 C 0.31259 0.25326 0.76371 0.0
C2393 C 0.31087 0.23227 0.80935 0.0
C2394 C 0.31123 0.23925 0.79342 0.0
H2395 H 0.29603 0.26649 0.72146 0.0
H2396 H 0.29435 0.25384 0.74668 0.0
H2397 H 0.32461 0.24779 0.75241 0.0
H2398 H 0.32954 0.22754 0.83504 0.0
H2399 H 0.32994 0.23837 0.80841 0.0
C2400 C 0.73312 0.06328 0.70939 0.0
C2401 C 0.7204 0.05665 0.70955 0.0
C2402 C 0.73967 0.06857 0.72521 0.0
C2403 C 0.73669 0.07894 0.77057 0.0
H2404 H 0.76531 0.07778 0.78094 0.0
C2405 C 0.7598 0.09294 0.8397 0.0
C2406 C 0.77251 0.10007 0.8401 0.0
C2407 C 0.75365 0.08771 0.82362 0.0
C2408 C 0.75741 0.07829 0.77813 0.0
H2409 H 0.70458 0.05019 0.72651 0.0
H2410 H 0.71598 0.05928 0.75409 0.0
H2411 H 0.75414 0.06841 0.75316 0.0
H2412 H 0.78874 0.1073 0.82387 0.0
H2413 H 0.77797 0.0981 0.79575 0.0
H2414 H 0.73991 0.08877 0.79555 0.0
C2415 C 0.72091 0.06058 0.74169 0.0
C2416 C 0.75101 0.07293 0.76223 0.0
C2417 C 0.71437 0.0553 0.72589 0.0
C2418 C 0.77894 0.10175 0.82405 0.0
C2419 C 0.77278 0.09648 0.80795 0.0
C2420 C 0.74306 0.08427 0.78647 0.0
C2421 C 0.73363 0.06733 0.74153 0.0
C2422 C 0.74055 0.07314 0.75831 0.0
C2423 C 0.76007 0.08945 0.80755 0.0
C2424 C 0.75346 0.08397 0.79047 0.0
H2425 H 0.73805 0.0645 0.69702 0.0
H2426 H 0.74946 0.07382 0.72459 0.0
H2427 H 0.7288 0.07947 0.7678 0.0
H2428 H 0.75458 0.09126 0.85188 0.0
H2429 H 0.74386 0.08215 0.82382 0.0
C2430 C 0.03678 0.36478 0.02105 0.0
C2431 C 0.02607 0.35979 0.03118 0.0
C2432 C 0.04561 0.362 0.02502 0.0
C2433 C 0.05598 0.351 0.06196 0.0
H2434 H 0.07236 0.34351 0.02458 0.0
C2435 C 0.08559 0.33172 0.07933 0.0
C2436 C 0.09708 0.33728 0.07129 0.0
C2437 C 0.07679 0.33386 0.07298 0.0
C2438 C 0.06791 0.34567 0.03514 0.0
H2439 H 0.01618 0.34783 0.05328 0.0
H2440 H 0.03144 0.34294 0.06005 0.0
H2441 H 0.05748 0.34891 0.01647 0.0
H2442 H 0.10805 0.34885 0.04952 0.0
H2443 H 0.09268 0.35273 0.03855 0.0
H2444 H 0.06633 0.34779 0.08063 0.0
C2445 C 0.03314 0.34916 0.04922 0.0
C2446 C 0.05943 0.34879 0.03051 0.0
C2447 C 0.02435 0.35192 0.04527 0.0
C2448 C 0.09934 0.34455 0.05614 0.0
C2449 C 0.0905 0.34669 0.04977 0.0
C2450 C 0.0644 0.34787 0.06657 0.0
C2451 C 0.0439 0.3542 0.03923 0.0
C2452 C 0.05329 0.35138 0.0439 0.0
C2453 C 0.07926 0.34164 0.05846 0.0
C2454 C 0.07039 0.34505 0.05324 0.0
H2455 H 0.03835 0.37086 0.01009 0.0
H2456 H 0.05384 0.36611 0.01717 0.0
H2457 H 0.05161 0.3532 0.0726 0.0
H2458 H 0.08355 0.32619 0.09113 0.0
H2459 H 0.06813 0.32966 0.07976 0.0
C2460 C 0.63333 0.67382 0.01979 0.0
C2461 C 0.64082 0.66918 0.02335 0.0
C2462 C 0.63665 0.68571 0.02561 0.0
C2463 C 0.6568 0.71013 0.05832 0.0
H2464 H 0.65271 0.73192 0.02788 0.0
C2465 C 0.68231 0.762 0.07172 0.0
C2466 C 0.67555 0.76774 0.07188 0.0
C2467 C 0.67726 0.74996 0.06523 0.0
C2468 C 0.65378 0.72587 0.03657 0.0
H2469 H 0.65778 0.67349 0.03544 0.0
H2470 H 0.66363 0.69416 0.04521 0.0
H2471 H 0.64523 0.71069 0.01779 0.0
H2472 H 0.65832 0.76549 0.06481 0.0
H2473 H 0.64948 0.74429 0.05325 0.0
H2474 H 0.66561 0.72534 0.07686 0.0
C2475 C 0.65505 0.68856 0.03835 0.0
C2476 C 0.64948 0.71372 0.03084 0.0
C2477 C 0.65173 0.67671 0.03264 0.0
C2478 C 0.66372 0.76127 0.0649 0.0
C2479 C 0.65869 0.7492 0.05822 0.0
C2480 C 0.66116 0.72224 0.06395 0.0
C2481 C 0.64753 0.69319 0.03505 0.0
C2482 C 0.65115 0.70578 0.04153 0.0
C2483 C 0.66535 0.74336 0.05867 0.0
C2484 C 0.65989 0.7303 0.05301 0.0
H2485 H 0.62486 0.66823 0.01266 0.0
H2486 H 0.63061 0.68897 0.02296 0.0
H2487 H 0.65795 0.70418 0.06711 0.0
H2488 H 0.69138 0.76666 0.07722 0.0
H2489 H 0.68265 0.74573 0.06554 0.0
C2490 C 0.32526 0.98058 0.01551 0.0
C2491 C 0.33431 0.97783 0.01246 0.0
C2492 C 0.31326 0.97117 0.01822 0.0
C2493 C 0.29241 0.93691 0.01514 0.0
H2494 H 0.27474 0.94314 0.05188 0.0
C2495 C 0.25362 0.89965 0.05764 0.0
C2496 C 0.24346 0.90064 0.0611 0.0
C2497 C 0.26348 0.90867 0.04806 0.0
C2498 C 0.27948 0.94132 0.04138 0.0
H2499 H 0.33788 0.96305 0.0096 0.0
H2500 H 0.31711 0.94668 0.01508 0.0
H2501 H 0.29446 0.95984 0.04238 0.0
H2502 H 0.23549 0.91162 0.05605 0.0
H2503 H 0.25298 0.92764 0.03994 0.0
H2504 H 0.2776 0.91815 0.0151 0.0
C2505 C 0.31913 0.95605 0.01484 0.0
C2506 C 0.29079 0.95091 0.03586 0.0
C2507 C 0.33109 0.96546 0.01183 0.0
C2508 C 0.24324 0.91067 0.05403 0.0
C2509 C 0.25321 0.91981 0.0447 0.0
C2510 C 0.28117 0.92728 0.0209 0.0
C2511 C 0.31006 0.95878 0.01826 0.0
C2512 C 0.29752 0.9488 0.02287 0.0
C2513 C 0.26351 0.919 0.04194 0.0
C2514 C 0.27469 0.92937 0.03424 0.0
H2515 H 0.32746 0.99004 0.01585 0.0
H2516 H 0.30651 0.97363 0.0204 0.0
H2517 H 0.29717 0.93498 0.00483 0.0
H2518 H 0.25428 0.89223 0.06309 0.0
H2519 H 0.27137 0.90791 0.04629 0.0
C2520 C 0.35286 0.03823 0.98164 0.0
C2521 C 0.36004 0.03874 0.99598 0.0
C2522 C 0.3517 0.04826 0.97807 0.0
C2523 C 0.3668 0.08178 0.98492 0.0
H2524 H 0.33588 0.07606 0.96898 0.0
C2525 C 0.34262 0.10976 0.95962 0.0
C2526 C 0.35149 0.11769 0.94743 0.0
C2527 C 0.34393 0.10105 0.96865 0.0
C2528 C 0.34455 0.07787 0.97368 0.0
H2529 H 0.3716 0.0502 0.0179 0.0
H2530 H 0.36952 0.06774 0.01167 0.0
H2531 H 0.33733 0.05886 0.97899 0.0
H2532 H 0.36885 0.12292 0.93557 0.0
H2533 H 0.37111 0.10773 0.95121 0.0
H2534 H 0.37401 0.10081 0.97956 0.0
C2535 C 0.36487 0.05959 0.00312 0.0
C2536 C 0.34541 0.06797 0.97919 0.0
C2537 C 0.36602 0.04952 0.00672 0.0
C2538 C 0.36193 0.11707 0.94506 0.0
C2539 C 0.36322 0.10835 0.95405 0.0
C2540 C 0.36594 0.0917 0.97941 0.0
C2541 C 0.35768 0.05906 0.98875 0.0
C2542 C 0.35659 0.06977 0.98453 0.0
C2543 C 0.35412 0.10005 0.96565 0.0
C2544 C 0.35484 0.08982 0.97341 0.0
H2545 H 0.34815 0.03009 0.97306 0.0
H2546 H 0.34627 0.04762 0.9667 0.0
H2547 H 0.37556 0.08347 0.98888 0.0
H2548 H 0.33455 0.11014 0.96193 0.0
H2549 H 0.33684 0.09493 0.97774 0.0
C2550 C 0.95783 0.3303 0.01938 0.0
C2551 C 0.96949 0.3356 0.01195 0.0
C2552 C 0.94863 0.31847 0.01395 0.0
C2553 C 0.94031 0.297 0.97547 0.0
H2554 H 0.91676 0.27253 0.00764 0.0
C2555 C 0.90682 0.24827 0.94981 0.0
C2556 C 0.89462 0.24316 0.95469 0.0
C2557 C 0.91592 0.25881 0.95859 0.0
C2558 C 0.92323 0.27932 0.9985 0.0
H2559 H 0.98076 0.33241 0.99365 0.0
H2560 H 0.96483 0.31185 0.98439 0.0
H2561 H 0.93275 0.29251 0.01973 0.0
H2562 H 0.88253 0.24476 0.97336 0.0
H2563 H 0.89847 0.2634 0.98845 0.0
H2564 H 0.93085 0.28399 0.95424 0.0
C2565 C 0.9627 0.3169 0.99411 0.0
C2566 C 0.93236 0.29074 0.00541 0.0
C2567 C 0.97185 0.32868 -0.00052 0.0
C2568 C 0.89182 0.24855 0.96912 0.0
C2569 C 0.90096 0.25916 0.97788 0.0
C2570 C 0.93123 0.28564 0.9686 0.0
C2571 C 0.95093 0.31175 0.001 0.0
C2572 C 0.94106 0.29966 0.99395 0.0
C2573 C 0.91307 0.26458 0.97238 0.0
C2574 C 0.92264 0.27662 0.98002 0.0
H2575 H 0.95574 0.3354 0.02905 0.0
H2576 H 0.93963 0.31477 0.01944 0.0
H2577 H 0.94668 0.30377 0.96622 0.0
H2578 H 0.90935 0.24449 0.93865 0.0
H2579 H 0.92519 0.26263 0.95424 0.0
C2580 C 0.68709 0.66399 0.99477 0.0
C2581 C 0.67847 0.65211 0.00046 0.0
C2582 C 0.69912 0.66742 0.99215 0.0
C2583 C 0.71827 0.65504 0.9814 0.0
H2584 H 0.74412 0.68738 0.99734 0.0
C2585 C 0.76831 0.67291 0.9642 0.0
C2586 C 0.77489 0.68501 0.95792 0.0
C2587 C 0.75705 0.66842 0.97248 0.0
C2588 C 0.73701 0.67834 0.99274 0.0
H2589 H 0.67572 0.63447 0.00783 0.0
H2590 H 0.69682 0.64045 0.00298 0.0
H2591 H 0.72326 0.68028 0.00571 0.0
H2592 H 0.77486 0.70193 0.95563 0.0
H2593 H 0.75535 0.69415 0.96993 0.0
H2594 H 0.73194 0.65327 0.96782 0.0
C2595 C 0.6942 0.6471 0.00062 0.0
C2596 C 0.72508 0.67427 0.99756 0.0
C2597 C 0.68215 0.64369 0.00344 0.0
C2598 C 0.77016 0.69264 0.96061 0.0
C2599 C 0.75893 0.68816 0.96883 0.0
C2600 C 0.73022 0.65914 0.97646 0.0
C2601 C 0.70281 0.65902 0.99502 0.0
C2602 C 0.71556 0.6627 0.9916 0.0
C2603 C 0.75215 0.67595 0.97461 0.0
C2604 C 0.7397 0.67096 0.98174 0.0
H2605 H 0.68457 0.67071 0.99238 0.0
H2606 H 0.70551 0.67661 0.98757 0.0
H2607 H 0.7111 0.64611 0.97651 0.0
H2608 H 0.77178 0.66685 0.9625 0.0
H2609 H 0.75214 0.65902 0.97701 0.0
C2610 C 0.97063 0.64953 0.97006 0.0
C2611 C 0.96939 0.64347 0.98613 0.0
C2612 C 0.96204 0.65234 0.96507 0.0
C2613 C 0.93883 0.6578 0.98364 0.0
H2614 H 0.93069 0.65633 0.93343 0.0
C2615 C 0.90684 0.67323 0.95636 0.0
C2616 C 0.91164 0.6811 0.94168 0.0
C2617 C 0.91252 0.66721 0.96257 0.0
C2618 C 0.93288 0.65679 0.94751 0.0
H2619 H 0.95801 0.63543 0.00948 0.0
H2620 H 0.94288 0.6403 0.00065 0.0
H2621 H 0.94283 0.64792 0.9427 0.0
H2622 H 0.92597 0.68864 0.92184 0.0
H2623 H 0.93584 0.67823 0.93266 0.0
H2624 H 0.92896 0.66685 0.9883 0.0
C2625 C 0.9506 0.64296 0.99201 0.0
C2626 C 0.93985 0.652 0.95282 0.0
C2627 C 0.95923 0.64011 0.997 0.0
C2628 C 0.92216 0.68279 0.93334 0.0
C2629 C 0.92773 0.6767 0.93939 0.0
C2630 C 0.93177 0.66254 0.97831 0.0
C2631 C 0.95195 0.64916 0.97601 0.0
C2632 C 0.94321 0.65276 0.97086 0.0
C2633 C 0.92295 0.6688 0.954 0.0
C2634 C 0.92903 0.66239 0.96012 0.0
H2635 H 0.97836 0.65228 0.96138 0.0
H2636 H 0.96349 0.65731 0.95282 0.0
H2637 H 0.94131 0.65859 0.99763 0.0
H2638 H 0.89874 0.67178 0.96304 0.0
H2639 H 0.90866 0.66115 0.97386 0.0
C2640 C 0.36819 0.33357 0.00678 0.0
C2641 C 0.36001 0.33764 0.00588 0.0
C2642 C 0.36422 0.32115 0.0037 0.0
C2643 C 0.33715 0.28993 0.00313 0.0
H2644 H 0.35454 0.28262 0.9673 0.0
C2645 C 0.31606 0.24279 0.96659 0.0
C2646 C 0.32363 0.23866 0.96029 0.0
C2647 C 0.32094 0.25432 0.97509 0.0
C2648 C 0.3497 0.28443 0.97763 0.0
H2649 H 0.34122 0.33183 0.00155 0.0
H2650 H 0.33431 0.31017 0.99637 0.0
H2651 H 0.36236 0.30385 0.97686 0.0
H2652 H 0.34228 0.24325 0.95893 0.0
H2653 H 0.35069 0.26301 0.97449 0.0
H2654 H 0.32446 0.27053 0.00393 0.0
C2655 C 0.34377 0.31657 -0.00056 0.0
C2656 C 0.35418 0.29663 0.98305 0.0
C2657 C 0.34775 0.32899 0.00228 0.0
C2658 C 0.33614 0.24605 0.96368 0.0
C2659 C 0.341 0.25751 0.97237 0.0
C2660 C 0.33273 0.2777 0.99787 0.0
C2661 C 0.35198 0.31255 -7e-05 0.0
C2662 C 0.34783 0.29952 0.99559 0.0
C2663 C 0.33351 0.26196 0.97772 0.0
C2664 C 0.33882 0.2748 0.98479 0.0
H2665 H 0.37769 0.34 0.00953 0.0
H2666 H 0.37073 0.31827 0.00423 0.0
H2667 H 0.33216 0.2919 0.01299 0.0
H2668 H 0.30637 0.23727 0.96454 0.0
H2669 H 0.31487 0.25742 0.9789 0.0
C2670 C 0.66432 0.04113 0.00104 0.0
C2671 C 0.66166 0.02909 0.00371 0.0
C2672 C 0.67622 0.05063 0.99775 0.0
C2673 C 0.7081 0.05986 0.00262 0.0
H2674 H 0.71329 0.07835 0.95952 0.0
C2675 C 0.75462 0.08683 0.96789 0.0
C2676 C 0.7575 0.09726 0.95795 0.0
C2677 C 0.74328 0.07988 0.976 0.0
C2678 C 0.71205 0.07351 0.97184 0.0
H2679 H 0.66941 0.01765 0.00569 0.0
H2680 H 0.69016 0.03426 0.00017 0.0
H2681 H 0.69276 0.06384 0.96937 0.0
H2682 H 0.75078 0.1088 0.94955 0.0
H2683 H 0.73139 0.09712 0.96448 0.0
H2684 H 0.72738 0.06949 0.00516 0.0
C2685 C 0.68306 0.03634 0.00056 0.0
C2686 C 0.70025 0.06515 0.97742 0.0
C2687 C 0.67117 0.02682 0.00358 0.0
C2688 C 0.74899 0.10092 0.9572 0.0
C2689 C 0.73773 0.09407 0.96553 0.0
C2690 C 0.71992 0.06835 0.99718 0.0
C2691 C 0.68568 0.0483 0.99738 0.0
C2692 C 0.69817 0.05808 0.99266 0.0
C2693 C 0.73459 0.08326 0.97461 0.0
C2694 C 0.72206 0.07512 0.98151 0.0
H2695 H 0.65718 0.04316 0.00107 0.0
H2696 H 0.67803 0.0598 0.99539 0.0
H2697 H 0.70673 0.05459 0.01454 0.0
H2698 H 0.76101 0.08385 0.96907 0.0
H2699 H 0.7412 0.07157 0.98276 0.0
C2700 C 0.6374 0.95889 0.01588 0.0
C2701 C 0.64566 0.97138 0.02001 0.0
C2702 C 0.64069 0.95013 0.01798 0.0
C2703 C 0.66727 0.94699 0.02089 0.0
H2704 H 0.64676 0.91828 0.04931 0.0
C2705 C 0.68571 0.92119 0.0573 0.0
C2706 C 0.67833 0.90843 0.05966 0.0
C2707 C 0.68119 0.92768 0.0491 0.0
C2708 C 0.65249 0.92609 0.04101 0.0
H2709 H 0.66389 0.98449 0.02931 0.0
H2710 H 0.66961 0.96928 0.0328 0.0
H2711 H 0.63964 0.93186 0.04115 0.0
H2712 H 0.66052 0.89239 0.05452 0.0
H2713 H 0.6526 0.90376 0.04004 0.0
H2714 H 0.68021 0.94139 0.02092 0.0
C2715 C 0.66061 0.96625 0.02791 0.0
C2716 C 0.64841 0.93388 0.03638 0.0
C2717 C 0.65729 0.97495 0.02605 0.0
C2718 C 0.6664 0.90224 0.05307 0.0
C2719 C 0.66186 0.90875 0.04481 0.0
C2720 C 0.67131 0.93916 0.02538 0.0
C2721 C 0.65235 0.95375 0.02396 0.0
C2722 C 0.65591 0.94459 0.02672 0.0
C2723 C 0.66915 0.92159 0.043 0.0
C2724 C 0.66412 0.92882 0.03595 0.0
H2725 H 0.62836 0.95587 0.0112 0.0
H2726 H 0.63415 0.94055 0.01481 0.0
H2727 H 0.67316 0.95507 0.01315 0.0
H2728 H 0.69485 0.9263 0.06254 0.0
H2729 H 0.687 0.93758 0.04828 0.0
C2730 C 0.02263 0.67737 0.02405 0.0
C2731 C 0.02646 0.66924 0.01906 0.0
C2732 C 0.03101 0.6895 0.02926 0.0
C2733 C 0.06357 0.71375 0.02863 0.0
H2734 H 0.0549 0.72603 0.07061 0.0
C2735 C 0.09286 0.76405 0.05634 0.0
C2736 C 0.09412 0.76543 0.07508 0.0
C2737 C 0.08481 0.75254 0.04843 0.0
C2738 C 0.05749 0.72273 0.05893 0.0
H2739 H 0.04216 0.66758 0.01516 0.0
H2740 H 0.05683 0.68876 0.0246 0.0
H2741 H 0.04063 0.70558 0.05861 0.0
H2742 H 0.08779 0.75582 0.1002 0.0
H2743 H 0.07403 0.73582 0.08646 0.0
H2744 H 0.08061 0.73087 0.02935 0.0
C2745 C 0.04732 0.68577 0.02425 0.0
C2746 C 0.04925 0.71105 0.05191 0.0
C2747 C 0.03891 0.67361 0.01895 0.0
C2748 C 0.08719 0.75506 0.08571 0.0
C2749 C 0.07917 0.74361 0.07784 0.0
C2750 C 0.07184 0.72548 0.03568 0.0
C2751 C 0.04344 0.69379 0.02973 0.0
C2752 C 0.05219 0.70639 0.03673 0.0
C2753 C 0.0778 0.74222 0.05914 0.0
C2754 C 0.06892 0.73003 0.05102 0.0
H2755 H 0.01311 0.67436 0.02408 0.0
H2756 H 0.02773 0.6955 0.03306 0.0
H2757 H 0.06606 0.71046 0.01683 0.0
H2758 H 0.09813 0.77185 0.04779 0.0
H2759 H 0.0839 0.75176 0.03398 0.0
C2760 C 0.32214 0.36778 0.01564 0.0
C2761 C 0.32436 0.3616 0.00171 0.0
C2762 C 0.31032 0.36467 0.01967 0.0
C2763 C 0.27916 0.33855 0.01653 0.0
H2764 H 0.2709 0.36272 0.03079 0.0
C2765 C 0.23116 0.32378 0.04098 0.0
C2766 C 0.23064 0.32998 0.05648 0.0
C2767 C 0.24203 0.32829 0.03158 0.0
C2768 C 0.27307 0.35586 0.02692 0.0
H2769 H 0.31594 0.34759 0.98066 0.0
H2770 H 0.29532 0.34217 0.98774 0.0
H2771 H 0.29114 0.36956 0.01935 0.0
H2772 H 0.24107 0.34585 0.07412 0.0
H2773 H 0.25998 0.35363 0.05788 0.0
H2774 H 0.26129 0.32486 0.02464 0.0
C2775 C 0.30272 0.34935 0.99563 0.0
C2776 C 0.28466 0.35978 0.02035 0.0
C2777 C 0.31454 0.3525 0.99154 0.0
C2778 C 0.24112 0.34096 0.06206 0.0
C2779 C 0.25197 0.34544 0.05272 0.0
C2780 C 0.2676 0.33463 0.02318 0.0
C2781 C 0.30047 0.35527 0.00991 0.0
C2782 C 0.28788 0.35117 0.01535 0.0
C2783 C 0.25262 0.33906 0.03753 0.0
C2784 C 0.26448 0.34324 0.02874 0.0
H2785 H 0.3295 0.37485 0.02372 0.0
H2786 H 0.30887 0.36932 0.03087 0.0
H2787 H 0.28141 0.3317 0.01301 0.0
H2788 H 0.2232 0.31537 0.03624 0.0
H2789 H 0.24218 0.32325 0.01977 0.0
C2790 C 0.69751 0.69207 0.35412 0.0
C2791 C 0.68504 0.68427 0.35726 0.0
C2792 C 0.7056 0.68834 0.35835 0.0
C2793 C 0.70795 0.6665 0.38714 0.0
H2794 H 0.73504 0.67307 0.3566 0.0
C2795 C 0.73571 0.64437 0.40026 0.0
C2796 C 0.74838 0.6521 0.39991 0.0
C2797 C 0.72832 0.64833 0.39363 0.0
C2798 C 0.72756 0.67126 0.36532 0.0
H2799 H 0.67126 0.6663 0.36676 0.0
H2800 H 0.68526 0.65978 0.37384 0.0
H2801 H 0.72152 0.6801 0.34786 0.0
H2802 H 0.76321 0.66986 0.39151 0.0
H2803 H 0.75024 0.67684 0.38007 0.0
H2804 H 0.71391 0.65767 0.40457 0.0
C2805 C 0.68886 0.66887 0.3685 0.0
C2806 C 0.71984 0.6753 0.36034 0.0
C2807 C 0.68081 0.6726 0.36434 0.0
C2808 C 0.75348 0.66373 0.39213 0.0
C2809 C 0.74606 0.66769 0.38544 0.0
C2810 C 0.71562 0.66245 0.39206 0.0
C2811 C 0.70137 0.67674 0.36578 0.0
C2812 C 0.70988 0.67286 0.37113 0.0
C2813 C 0.7334 0.66013 0.38651 0.0
C2814 C 0.72544 0.66468 0.38115 0.0
H2815 H 0.70105 0.70112 0.34867 0.0
H2816 H 0.71519 0.69465 0.35621 0.0
H2817 H 0.70055 0.66472 0.39599 0.0
H2818 H 0.73144 0.63542 0.40634 0.0
H2819 H 0.71859 0.64221 0.39439 0.0
C2820 C 0.29882 0.00959 0.35483 0.0
C2821 C 0.30588 0.00432 0.35716 0.0
C2822 C 0.30345 0.022 0.35932 0.0
C2823 C 0.32739 0.04743 0.38702 0.0
H2824 H 0.32089 0.06824 0.3582 0.0
C2825 C 0.35238 0.09948 0.39973 0.0
C2826 C 0.34517 0.10472 0.4011 0.0
C2827 C 0.34758 0.08754 0.39286 0.0
C2828 C 0.32271 0.0625 0.36641 0.0
H2829 H 0.32347 0.00803 0.36556 0.0
H2830 H 0.3316 0.0296 0.373 0.0
H2831 H 0.31239 0.04664 0.3493 0.0
H2832 H 0.32746 0.10176 0.39545 0.0
H2833 H 0.31904 0.08079 0.38344 0.0
H2834 H 0.33776 0.06325 0.40403 0.0
C2835 C 0.32238 0.02413 0.36814 0.0
C2836 C 0.31782 0.05013 0.36136 0.0
C2837 C 0.31773 0.01175 0.36378 0.0
C2838 C 0.3332 0.09793 0.3947 0.0
C2839 C 0.32841 0.08597 0.38771 0.0
C2840 C 0.33232 0.05976 0.39197 0.0
C2841 C 0.31527 0.02939 0.36616 0.0
C2842 C 0.32017 0.04247 0.37156 0.0
C2843 C 0.33547 0.08056 0.38715 0.0
C2844 C 0.3301 0.06746 0.38168 0.0
H2845 H 0.28965 0.0041 0.34977 0.0
H2846 H 0.29769 0.02573 0.35779 0.0
H2847 H 0.32915 0.04174 0.39544 0.0
H2848 H 0.36158 0.10439 0.40472 0.0
H2849 H 0.35328 0.08366 0.39236 0.0
C2850 C -0.00019 0.31085 0.36709 0.0
C2851 C 0.00274 0.31161 0.3488 0.0
C2852 C 0.98864 0.3014 0.37325 0.0
C2853 C 0.9576 0.27764 0.35817 0.0
H2854 H 0.95636 0.26442 0.40492 0.0
C2855 C 0.91519 0.23471 0.38873 0.0
C2856 C 0.91252 0.23645 0.40648 0.0
C2857 C 0.92585 0.24375 0.38052 0.0
C2858 C 0.95657 0.26806 0.39187 0.0
H2859 H 0.99625 0.30301 0.3226 0.0
H2860 H 0.97684 0.28624 0.33343 0.0
H2861 H 0.97576 0.28009 0.39278 0.0
H2862 H 0.91887 0.24899 0.42949 0.0
H2863 H 0.93745 0.26467 0.4152 0.0
H2864 H 0.93832 0.2653 0.3573 0.0
C2865 C 0.98308 0.29312 0.34298 0.0
C2866 C 0.96768 0.2771 0.38493 0.0
C2867 C 0.99423 0.30269 0.33678 0.0
C2868 C 0.9206 0.24745 0.41573 0.0
C2869 C 0.93129 0.25638 0.40763 0.0
C2870 C 0.94648 0.26846 0.36506 0.0
C2871 C 0.98015 0.29234 0.36132 0.0
C2872 C 0.96834 0.28218 0.36812 0.0
C2873 C 0.9341 0.25455 0.39005 0.0
C2874 C 0.94586 0.26374 0.3821 0.0
H2875 H 0.00611 0.31765 0.37668 0.0
H2876 H 0.98662 0.30129 0.38739 0.0
H2877 H 0.95773 0.28141 0.34527 0.0
H2878 H 0.9091 0.22632 0.38131 0.0
H2879 H 0.92784 0.24213 0.36695 0.0
C2880 C 0.02722 0.36822 0.30789 0.0
C2881 C 0.03287 0.36854 0.324 0.0
C2882 C 0.02577 0.37793 0.30345 0.0
C2883 C 0.02551 0.40489 0.32248 0.0
H2884 H 0.02959 0.41414 0.27261 0.0
C2885 C 0.02539 0.44748 0.2955 0.0
C2886 C 0.01861 0.44527 0.27978 0.0
C2887 C 0.02713 0.43836 0.3022 0.0
C2888 C 0.02834 0.41161 0.28657 0.0
H2889 H 0.04137 0.37931 0.3482 0.0
H2890 H 0.03904 0.39646 0.34026 0.0
H2891 H 0.03303 0.39804 0.28174 0.0
H2892 H 0.00827 0.43172 0.25888 0.0
H2893 H 0.01123 0.41586 0.27061 0.0
H2894 H 0.02094 0.41867 0.32719 0.0
C2895 C 0.03558 0.38858 0.33118 0.0
C2896 C 0.03028 0.40236 0.29181 0.0
C2897 C 0.03697 0.37879 0.33568 0.0
C2898 C 0.0134 0.43368 0.27115 0.0
C2899 C 0.01522 0.42463 0.27774 0.0
C2900 C 0.02365 0.41426 0.31723 0.0
C2901 C 0.03002 0.38829 0.31494 0.0
C2902 C 0.02868 0.39872 0.30977 0.0
C2903 C 0.02226 0.42693 0.29315 0.0
C2904 C 0.02486 0.41755 0.29916 0.0
H2905 H 0.02384 0.36041 0.29866 0.0
H2906 H 0.0212 0.37725 0.29103 0.0
H2907 H 0.02412 0.40226 0.3364 0.0
H2908 H 0.02947 0.45632 0.30247 0.0
H2909 H 0.03262 0.44037 0.3141 0.0
C2910 C 0.62437 0.6614 0.35067 0.0
C2911 C 0.63235 0.66997 0.33818 0.0
C2912 C 0.61476 0.64992 0.34492 0.0
C2913 C 0.59565 0.63279 0.30604 0.0
H2914 H 0.59327 0.60432 0.32788 0.0
C2915 C 0.57025 0.5847 0.27242 0.0
C2916 C 0.56462 0.57423 0.28312 0.0
C2917 C 0.57697 0.59645 0.28023 0.0
C2918 C 0.5936 0.61212 0.32186 0.0
H2919 H 0.63623 0.6734 0.30985 0.0
H2920 H 0.61936 0.65339 0.29982 0.0
H2921 H 0.60777 0.62486 0.33953 0.0
H2922 H 0.56119 0.56785 0.31042 0.0
H2923 H 0.5727 0.58843 0.32418 0.0
H2924 H 0.5815 0.62011 0.28836 0.0
C2925 C 0.62057 0.65556 0.31405 0.0
C2926 C 0.60196 0.62391 0.32852 0.0
C2927 C 0.63027 0.66699 0.3198 0.0
C2928 C 0.56552 0.57577 0.30185 0.0
C2929 C 0.57216 0.58756 0.3097 0.0
C2930 C 0.58719 0.62099 0.2995 0.0
C2931 C 0.61284 0.64684 0.32656 0.0
C2932 C 0.60322 0.63436 0.32047 0.0
C2933 C 0.57816 0.59804 0.29897 0.0
C2934 C 0.58622 0.61051 0.3071 0.0
H2935 H 0.62572 0.66342 0.36493 0.0
H2936 H 0.60888 0.6434 0.35484 0.0
H2937 H 0.59634 0.64069 0.29975 0.0
H2938 H 0.5699 0.5838 0.25793 0.0
H2939 H 0.58163 0.60425 0.2715 0.0
C2940 C 0.33876 0.96781 0.34174 0.0
C2941 C 0.33877 0.97669 0.3533 0.0
C2942 C 0.34963 0.96889 0.33643 0.0
C2943 C 0.38255 0.98508 0.34637 0.0
H2944 H 0.38473 0.97902 0.29569 0.0
C2945 C 0.42777 0.0018 0.30847 0.0
C2946 C 0.42785 0.99403 0.29481 0.0
C2947 C 0.41703 0.99866 0.31748 0.0
C2948 C 0.38423 0.98057 0.30993 0.0
H2949 H 0.3502 0.9934 0.36889 0.0
H2950 H 0.36919 0.99539 0.35936 0.0
H2951 H 0.36572 0.97534 0.30801 0.0
H2952 H 0.41674 0.97669 0.28037 0.0
H2953 H 0.39819 0.97112 0.29636 0.0
H2954 H 0.40124 0.99058 0.34809 0.0
C2955 C 0.36077 0.98752 0.35457 0.0
C2956 C 0.37332 0.97844 0.31701 0.0
C2957 C 0.34988 0.98641 0.35996 0.0
C2958 C 0.41707 0.98283 0.29093 0.0
C2959 C 0.40637 0.97971 0.29994 0.0
C2960 C 0.39352 0.98724 0.33925 0.0
C2961 C 0.36078 0.97889 0.34246 0.0
C2962 C 0.37233 0.9807 0.33529 0.0
C2963 C 0.40616 0.98771 0.313 0.0
C2964 C 0.39448 0.98503 0.32093 0.0
H2965 H 0.33036 0.96013 0.33651 0.0
H2966 H 0.3493 0.96194 0.32737 0.0
H2967 H 0.38206 0.9868 0.36054 0.0
H2968 H 0.43594 0.01043 0.31192 0.0
H2969 H 0.41715 0.00505 0.32744 0.0
C2970 C 0.62534 0.96546 0.33376 0.0
C2971 C 0.63526 0.97057 0.32195 0.0
C2972 C 0.6155 0.96689 0.33082 0.0
C2973 C 0.60709 0.98664 0.30817 0.0
H2974 H 0.57459 0.95789 0.30676 0.0
C2975 C 0.56849 0.98614 0.27094 0.0
C2976 C 0.55659 0.97916 0.27745 0.0
C2977 C 0.57789 0.98581 0.27923 0.0
C2978 C 0.58356 0.96607 0.30746 0.0
H2979 H 0.64267 0.98128 0.29792 0.0
H2980 H 0.62561 0.98384 0.29292 0.0
H2981 H 0.59144 0.95586 0.31612 0.0
H2982 H 0.5453 0.96666 0.29817 0.0
H2983 H 0.56181 0.96616 0.31283 0.0
H2984 H 0.59933 0.99685 0.29939 0.0
C2985 C 0.62544 0.97876 0.30445 0.0
C2986 C 0.59321 0.96488 0.31277 0.0
C2987 C 0.63517 0.9772 0.30725 0.0
C2988 C 0.55436 0.97205 0.29275 0.0
C2989 C 0.56381 0.97175 0.30111 0.0
C2990 C 0.59746 0.98785 0.30301 0.0
C2991 C 0.6155 0.97362 0.31618 0.0
C2992 C 0.6051 0.9751 0.31271 0.0
C2993 C 0.57566 0.97851 0.29431 0.0
C2994 C 0.58562 0.97752 0.30211 0.0
H2995 H 0.62514 0.9603 0.3452 0.0
H2996 H 0.60795 0.96286 0.34007 0.0
H2997 H 0.61615 0.99471 0.30831 0.0
H2998 H 0.57049 0.9915 0.25896 0.0
H2999 H 0.58684 0.99093 0.27336 0.0
C3000 C 0.01245 0.66422 0.35069 0.0
C3001 C 0.01702 0.67412 0.33892 0.0
C3002 C 0.01034 0.65277 0.3447 0.0
C3003 C 0.00466 0.63422 0.30327 0.0
H3004 H 0.01374 0.61518 0.33157 0.0
C3005 C 0.00492 0.59263 0.2731 0.0
C3006 C 0.00037 0.58204 0.28346 0.0
C3007 C 0.00682 0.60361 0.28069 0.0
C3008 C 0.01102 0.62032 0.32362 0.0
H3009 H 0.02316 0.67983 0.31172 0.0
H3010 H 0.01955 0.65994 0.30136 0.0
H3011 H 0.01737 0.63491 0.34335 0.0
H3012 H 0.9944 0.57476 0.31005 0.0
H3013 H 0.99757 0.59398 0.32332 0.0
H3014 H 0.99832 0.61972 0.28355 0.0
C3015 C 0.01744 0.66096 0.31514 0.0
C3016 C 0.0131 0.63162 0.33035 0.0
C3017 C 0.01958 0.67238 0.32112 0.0
C3018 C 0.99785 0.58273 0.30169 0.0
C3019 C -0.00023 0.59376 0.30932 0.0
C3020 C 0.00256 0.62296 0.29657 0.0
C3021 C 0.01271 0.65099 0.32681 0.0
C3022 C 0.01008 0.63876 0.32014 0.0
C3023 C 0.00417 0.60429 0.29883 0.0
C3024 C 0.00586 0.61595 0.30654 0.0
H3025 H 0.01039 0.66525 0.36449 0.0
H3026 H 0.00661 0.64524 0.35398 0.0
H3027 H 0.00198 0.63937 0.29524 0.0
H3028 H 0.00679 0.5924 0.25896 0.0
H3029 H 0.01039 0.61158 0.2723 0.0
C3030 C 0.33443 0.3603 0.31786 0.0
C3031 C 0.33312 0.35359 0.33326 0.0
C3032 C 0.34587 0.36964 0.31232 0.0
C3033 C 0.3775 0.3903 0.32748 0.0
H3034 H 0.38457 0.39112 0.27672 0.0
C3035 C 0.42588 0.41936 0.29771 0.0
C3036 C 0.427 0.42494 0.28119 0.0
C3037 C 0.41444 0.41138 0.30502 0.0
C3038 C 0.3827 0.39114 0.2909 0.0
H3039 H 0.34278 0.35162 0.35517 0.0
H3040 H 0.36278 0.36784 0.34538 0.0
H3041 H 0.36458 0.37592 0.28766 0.0
H3042 H 0.41692 0.42661 0.25956 0.0
H3043 H 0.39712 0.41306 0.27252 0.0
H3044 H 0.39571 0.40551 0.33067 0.0
C3045 C 0.35494 0.36595 0.33768 0.0
C3046 C 0.37123 0.38242 0.29717 0.0
C3047 C 0.34348 0.3566 0.34323 0.0
C3048 C 0.41644 0.42263 0.27242 0.0
C3049 C 0.40506 0.4147 0.27972 0.0
C3050 C 0.389 0.39906 0.32118 0.0
C3051 C 0.35627 0.37247 0.32205 0.0
C3052 C 0.36848 0.3819 0.31552 0.0
C3053 C 0.4039 0.4088 0.29593 0.0
C3054 C 0.39171 0.39959 0.30281 0.0
H3055 H 0.32662 0.35828 0.30994 0.0
H3056 H 0.34658 0.37462 0.30037 0.0
H3057 H 0.37561 0.3902 0.34167 0.0
H3058 H 0.43383 0.42103 0.30488 0.0
H3059 H 0.41386 0.40693 0.31749 0.0
C3060 C 0.29262 0.28783 0.37177 0.0
C3061 C 0.29665 0.29504 0.35638 0.0
C3062 C 0.29632 0.27955 0.37518 0.0
C3063 C 0.32104 0.27424 0.36468 0.0
H3064 H 0.29992 0.24285 0.38697 0.0
C3065 C 0.33808 0.24226 0.38355 0.0
C3066 C 0.33509 0.23761 0.40097 0.0
C3067 C 0.33237 0.24784 0.37594 0.0
C3068 C 0.30593 0.2516 0.38078 0.0
H3069 H 0.30738 0.2989 0.33215 0.0
H3070 H 0.31371 0.28438 0.33802 0.0
H3071 H 0.29173 0.25529 0.37764 0.0
H3072 H 0.32361 0.23506 0.42393 0.0
H3073 H 0.31365 0.24467 0.41066 0.0
H3074 H 0.33529 0.27069 0.36814 0.0
C3075 C 0.30785 0.28526 0.34761 0.0
C3076 C 0.30125 0.25874 0.37547 0.0
C3077 C 0.30417 0.29354 0.34421 0.0
C3078 C 0.32599 0.23832 0.41036 0.0
C3079 C 0.32028 0.24385 0.40275 0.0
C3080 C 0.32572 0.2671 0.36997 0.0
C3081 C 0.30411 0.2783 0.36326 0.0
C3082 C 0.3088 0.27022 0.36761 0.0
C3083 C 0.32353 0.24886 0.38557 0.0
C3084 C 0.31826 0.2558 0.37834 0.0
H3085 H 0.28683 0.28876 0.38143 0.0
H3086 H 0.29338 0.27444 0.38747 0.0
H3087 H 0.32715 0.28312 0.35891 0.0
H3088 H 0.34493 0.24171 0.37586 0.0
H3089 H 0.33496 0.25146 0.36258 0.0
C3090 C 0.69367 0.00566 0.36381 0.0
C3091 C 0.69083 0.00346 0.34546 0.0
C3092 C 0.70223 0.01744 0.37019 0.0
C3093 C 0.72807 0.04742 0.35666 0.0
H3094 H 0.72044 0.05906 0.40037 0.0
C3095 C 0.75839 0.09719 0.38571 0.0
C3096 C 0.76005 0.09825 0.40441 0.0
C3097 C 0.75003 0.08585 0.37763 0.0
C3098 C 0.72276 0.05591 0.38824 0.0
H3099 H 0.69495 0.01188 0.31936 0.0
H3100 H 0.70992 0.03249 0.33057 0.0
H3101 H 0.70581 0.03882 0.38796 0.0
H3102 H 0.7541 0.08824 0.42925 0.0
H3103 H 0.73985 0.06854 0.41519 0.0
H3104 H 0.7451 0.06453 0.35709 0.0
C3105 C 0.70554 0.02506 0.33997 0.0
C3106 C 0.71438 0.04431 0.38113 0.0
C3107 C 0.69692 0.01327 0.33358 0.0
C3108 C 0.75321 0.08773 0.41479 0.0
C3109 C 0.74489 0.07645 0.40675 0.0
C3110 C 0.7365 0.05905 0.36381 0.0
C3111 C 0.70819 0.02729 0.35838 0.0
C3112 C 0.71698 0.03986 0.36539 0.0
C3113 C 0.74312 0.07538 0.38811 0.0
C3114 C 0.73399 0.06336 0.37982 0.0
H3115 H 0.6892 0.99831 0.37332 0.0
H3116 H 0.70422 0.01882 0.38441 0.0
H3117 H 0.73036 0.0442 0.34456 0.0
H3118 H 0.76357 0.10511 0.37734 0.0
H3119 H 0.74882 0.08534 0.36324 0.0
C3120 C 0.97653 0.68577 0.33604 0.0
C3121 C 0.98662 0.69725 0.34097 0.0
C3122 C 0.96485 0.68292 0.34036 0.0
C3123 C 0.94842 0.69241 0.37137 0.0
H3124 H 0.92107 0.66961 0.34161 0.0
C3125 C 0.89894 0.67686 0.38952 0.0
C3126 C 0.89146 0.66399 0.39096 0.0
C3127 C 0.91027 0.6821 0.38124 0.0
C3128 C 0.92864 0.67603 0.34998 0.0
H3129 H 0.99238 0.71492 0.35376 0.0
H3130 H 0.97195 0.71015 0.36073 0.0
H3131 H 0.94159 0.67696 0.33109 0.0
H3132 H 0.89008 0.64661 0.38418 0.0
H3133 H 0.90952 0.65576 0.36913 0.0
H3134 H 0.93535 0.6915 0.39016 0.0
C3135 C 0.97305 0.70317 0.354 0.0
C3136 C 0.94041 0.68018 0.34406 0.0
C3137 C 0.98477 0.70595 0.34992 0.0
C3138 C 0.89538 0.65652 0.38308 0.0
C3139 C 0.90659 0.66176 0.37452 0.0
C3140 C 0.93665 0.68842 0.37713 0.0
C3141 C 0.96292 0.69155 0.34947 0.0
C3142 C 0.95046 0.68819 0.35487 0.0
C3143 C 0.91425 0.67458 0.37388 0.0
C3144 C 0.92666 0.67999 0.36668 0.0
H3145 H 0.97766 0.67883 0.32925 0.0
H3146 H 0.95735 0.67379 0.33697 0.0
H3147 H 0.95586 0.69842 0.38022 0.0
H3148 H 0.89616 0.68293 0.39506 0.0
H3149 H 0.916 0.69203 0.38076 0.0
C3150 C 0.37035 0.03193 0.68404 0.0
C3151 C 0.36753 0.03846 0.69662 0.0
C3152 C 0.37926 0.02926 0.68774 0.0
C3153 C 0.40532 0.03781 0.71739 0.0
H3154 H 0.39686 0.00415 0.70817 0.0
C3155 C 0.42892 0.01629 0.75242 0.0
C3156 C 0.43064 0.00765 0.74295 0.0
C3157 C 0.42262 0.02116 0.74468 0.0
C3158 C 0.39949 0.01365 0.71053 0.0
H3159 H 0.37215 0.04762 0.72274 0.0
H3160 H 0.38764 0.04289 0.72924 0.0
H3161 H 0.38326 0.0107 0.69849 0.0
H3162 H 0.4275 0.99773 0.71762 0.0
H3163 H 0.41649 0.00628 0.70403 0.0
H3164 H 0.42145 0.04069 0.72973 0.0
C3165 C 0.38302 0.03992 0.71644 0.0
C3166 C 0.39168 0.0174 0.705 0.0
C3167 C 0.37408 0.04256 0.71276 0.0
C3168 C 0.4262 0.00425 0.72534 0.0
C3169 C 0.41989 0.00915 0.71757 0.0
C3170 C 0.41315 0.03407 0.72288 0.0
C3171 C 0.38559 0.03309 0.70408 0.0
C3172 C 0.39441 0.02946 0.70863 0.0
C3173 C 0.41787 0.01752 0.72726 0.0
C3174 C 0.41022 0.02188 0.7198 0.0
H3175 H 0.36552 0.02868 0.67142 0.0
H3176 H 0.38114 0.02412 0.67785 0.0
H3177 H 0.40777 0.04722 0.72012 0.0
H3178 H 0.43201 0.01893 0.76613 0.0
H3179 H 0.42106 0.02741 0.75265 0.0
C3180 C 0.98968 0.34418 0.69413 0.0
C3181 C 0.98449 0.3382 0.67769 0.0
C3182 C 0.99282 0.35634 0.69732 0.0
C3183 C 0.98475 0.37851 0.68479 0.0
H3184 H 0.01501 0.40226 0.70803 0.0
C3185 C 0.99351 0.42579 0.70759 0.0
C3186 C 0.99809 0.42945 0.72508 0.0
C3187 C 0.99397 0.41627 0.69866 0.0
C3188 C 0.00649 0.39573 0.70161 0.0
H3189 H 0.97856 0.3403 0.65169 0.0
H3190 H 0.98384 0.36152 0.65746 0.0
H3191 H 0.01136 0.38209 0.69878 0.0
H3192 H 0.00723 0.42641 0.74661 0.0
H3193 H 0.00787 0.40975 0.73129 0.0
H3194 H 0.97956 0.39178 0.68838 0.0
C3195 C 0.98553 0.35678 0.66779 0.0
C3196 C 0.00443 0.3842 0.69629 0.0
C3197 C 0.98253 0.34465 0.6645 0.0
C3198 C 0.00378 0.42391 0.73304 0.0
C3199 C 0.00414 0.41433 0.72421 0.0
C3200 C 0.98675 0.38998 0.69029 0.0
C3201 C 0.99071 0.36274 0.68423 0.0
C3202 C 0.99344 0.37539 0.68815 0.0
C3203 C 0.9989 0.41012 0.70712 0.0
C3204 C 0.99754 0.39865 0.69911 0.0
H3205 H 0.99136 0.33949 0.70454 0.0
H3206 H 0.99665 0.36065 0.7102 0.0
H3207 H 0.97615 0.37185 0.67869 0.0
H3208 H 0.98918 0.43 0.70106 0.0
H3209 H 0.9901 0.41346 0.68535 0.0
C3210 C 0.66503 0.63703 0.66953 0.0
C3211 C 0.6723 0.64723 0.68083 0.0
C3212 C 0.65394 0.62728 0.6756 0.0
C3213 C 0.63713 0.61366 0.71776 0.0
H3214 H 0.60918 0.59669 0.68639 0.0
C3215 C 0.58949 0.5813 0.74502 0.0
C3216 C 0.58288 0.56955 0.73687 0.0
C3217 C 0.60004 0.59061 0.7371 0.0
C3218 C 0.61695 0.60131 0.69523 0.0
H3219 H 0.67351 0.65538 0.70718 0.0
H3220 H 0.65411 0.63865 0.71755 0.0
H3221 H 0.62842 0.61335 0.6747 0.0
H3222 H 0.58189 0.55845 0.71371 0.0
H3223 H 0.60038 0.57489 0.6997 0.0
H3224 H 0.62559 0.60182 0.73836 0.0
C3225 C 0.65708 0.63793 0.70418 0.0
C3226 C 0.62798 0.61081 0.68855 0.0
C3227 C 0.66819 0.64758 0.6982 0.0
C3228 C 0.58684 0.56742 0.7203 0.0
C3229 C 0.59735 0.57682 0.71226 0.0
C3230 C 0.62611 0.60429 0.72445 0.0
C3231 C 0.64985 0.62759 0.69305 0.0
C3232 C 0.63818 0.61718 0.6998 0.0
C3233 C 0.60418 0.58842 0.7208 0.0
C3234 C 0.61589 0.59809 0.71331 0.0
H3235 H 0.66798 0.63648 0.65608 0.0
H3236 H 0.64869 0.61941 0.66672 0.0
H3237 H 0.64485 0.6181 0.7267 0.0
H3238 H 0.58677 0.58319 0.75788 0.0
H3239 H 0.60507 0.59951 0.74388 0.0
C3240 C 0.68694 0.70625 0.692 0.0
C3241 C 0.69578 0.70552 0.68193 0.0
C3242 C 0.6837 0.71478 0.68777 0.0
C3243 C 0.69383 0.74343 0.66333 0.0
H3244 H 0.6595 0.73101 0.65927 0.0
C3245 C 0.67528 0.76792 0.62305 0.0
C3246 C 0.66468 0.76741 0.62889 0.0
C3247 C 0.67964 0.76151 0.63195 0.0
C3248 C 0.66912 0.73472 0.66067 0.0
H3249 H 0.70842 0.7134 0.65984 0.0
H3250 H 0.70277 0.72827 0.65245 0.0
H3251 H 0.66616 0.71772 0.67041 0.0
H3252 H 0.65062 0.76017 0.64914 0.0
H3253 H 0.65831 0.74905 0.66486 0.0
H3254 H 0.6968 0.76039 0.65338 0.0
C3255 C 0.69838 0.72229 0.66368 0.0
C3256 C 0.67293 0.72708 0.66702 0.0
C3257 C 0.70156 0.71372 0.66785 0.0
C3258 C 0.65874 0.76063 0.6442 0.0
C3259 C 0.66313 0.75425 0.65317 0.0
C3260 C 0.69001 0.7511 0.65706 0.0
C3261 C 0.68931 0.7228 0.67345 0.0
C3262 C 0.68532 0.73128 0.66814 0.0
C3263 C 0.67353 0.75445 0.64697 0.0
C3264 C 0.67761 0.74677 0.65535 0.0
H3265 H 0.68233 0.70009 0.70298 0.0
H3266 H 0.67677 0.71504 0.69565 0.0
H3267 H 0.70344 0.74698 0.6643 0.0
H3268 H 0.67995 0.77286 0.61111 0.0
H3269 H 0.68754 0.76171 0.62659 0.0
C3270 C 0.29101 0.99659 0.67153 0.0
C3271 C 0.30344 0.00195 0.66799 0.0
C3272 C 0.28283 0.9842 0.66708 0.0
C3273 C 0.27993 0.95906 0.63752 0.0
H3274 H 0.25338 0.93774 0.66889 0.0
C3275 C 0.25187 0.90706 0.62443 0.0
C3276 C 0.23922 0.90147 0.62496 0.0
C3277 C 0.25939 0.91901 0.63116 0.0
C3278 C 0.26071 0.94362 0.65996 0.0
H3279 H 0.31702 0.99841 0.65737 0.0
H3280 H 0.30285 0.97689 0.64991 0.0
H3281 H 0.26707 0.95939 0.67751 0.0
H3282 H 0.22456 0.90383 0.63387 0.0
H3283 H 0.23777 0.92484 0.64555 0.0
H3284 H 0.27367 0.94337 0.62002 0.0
C3285 C 0.29936 0.98228 0.65576 0.0
C3286 C 0.26853 0.95602 0.66485 0.0
C3287 C 0.3075 0.99463 0.66013 0.0
C3288 C 0.23427 0.90793 0.63312 0.0
C3289 C 0.24183 0.91992 0.63992 0.0
C3290 C 0.27218 0.94672 0.63269 0.0
C3291 C 0.28691 0.97692 0.65902 0.0
C3292 C 0.27829 0.96385 0.65374 0.0
C3293 C 0.25447 0.92568 0.63858 0.0
C3294 C 0.26255 0.93883 0.6439 0.0
H3295 H 0.28759 0.00199 0.67757 0.0
H3296 H 0.27328 0.98039 0.66963 0.0
H3297 H 0.28718 0.96489 0.62843 0.0
H3298 H 0.256 0.90242 0.61806 0.0
H3299 H 0.26911 0.92314 0.63019 0.0
C3300 C 0.01575 0.30324 0.6742 0.0
C3301 C 0.0155 0.31286 0.68336 0.0
C3302 C 0.02673 0.30462 0.66879 0.0
C3303 C 0.06002 0.32362 0.67489 0.0
H3304 H 0.06013 0.31212 0.62634 0.0
C3305 C 0.10365 0.33644 0.63442 0.0
C3306 C 0.1032 0.32715 0.62326 0.0
C3307 C 0.09332 0.3344 0.64369 0.0
C3308 C 0.06024 0.31523 0.64001 0.0
H3309 H 0.02663 0.33132 0.69465 0.0
H3310 H 0.04582 0.33379 0.68493 0.0
H3311 H 0.04144 0.30901 0.63905 0.0
H3312 H 0.09156 0.30831 0.61356 0.0
H3313 H 0.07381 0.30469 0.63006 0.0
H3314 H 0.07896 0.33001 0.67562 0.0
C3315 C 0.03752 0.32513 0.6821 0.0
C3316 C 0.0495 0.31343 0.64732 0.0
C3317 C 0.02651 0.32373 0.68759 0.0
C3318 C 0.09233 0.31564 0.62218 0.0
C3319 C 0.08207 0.31361 0.63145 0.0
C3320 C 0.07081 0.32544 0.66754 0.0
C3321 C 0.03772 0.31568 0.67231 0.0
C3322 C 0.04923 0.31755 0.66486 0.0
C3323 C 0.08235 0.32305 0.64195 0.0
C3324 C 0.07101 0.3212 0.65004 0.0
H3325 H 0.00744 0.29469 0.67089 0.0
H3326 H 0.02659 0.29706 0.66159 0.0
H3327 H 0.06008 0.32683 0.68848 0.0
H3328 H 0.1119 0.34537 0.6357 0.0
H3329 H 0.09381 0.34187 0.65166 0.0
C3330 C 0.29461 0.30574 0.66556 0.0
C3331 C 0.30288 0.31185 0.67965 0.0
C3332 C 0.28609 0.30887 0.66141 0.0
C3333 C 0.28181 0.33498 0.66432 0.0
H3334 H 0.24881 0.31088 0.65033 0.0
C3335 C 0.24966 0.34999 0.63943 0.0
C3336 C 0.24281 0.34363 0.62413 0.0
C3337 C 0.25571 0.34547 0.64894 0.0
C3338 C 0.25802 0.31773 0.65411 0.0
H3339 H 0.3084 0.32575 0.70083 0.0
H3340 H 0.29355 0.33123 0.6935 0.0
H3341 H 0.2618 0.304 0.66183 0.0
H3342 H 0.23682 0.3275 0.60694 0.0
H3343 H 0.24743 0.31972 0.62331 0.0
H3344 H 0.27825 0.3487 0.65601 0.0
C3345 C 0.29373 0.32408 0.68561 0.0
C3346 C 0.26544 0.31378 0.66071 0.0
C3347 C 0.3022 0.32089 0.68984 0.0
C3348 C 0.24186 0.3325 0.61885 0.0
C3349 C 0.24794 0.32803 0.62827 0.0
C3350 C 0.27442 0.33893 0.6576 0.0
C3351 C 0.2857 0.31823 0.67119 0.0
C3352 C 0.27746 0.32236 0.66564 0.0
C3353 C 0.2551 0.33455 0.64327 0.0
C3354 C 0.26249 0.33035 0.65213 0.0
H3355 H 0.29489 0.29872 0.65748 0.0
H3356 H 0.28009 0.30428 0.65011 0.0
H3357 H 0.29109 0.34181 0.6678 0.0
H3358 H 0.25045 0.35852 0.64392 0.0
H3359 H 0.26098 0.35062 0.6606 0.0
C3360 C 0.68931 0.00089 0.64938 0.0
C3361 C 0.69282 0.0053 0.66706 0.0
C3362 C 0.68774 0.9896 0.64385 0.0
C3363 C 0.6824 0.96019 0.66093 0.0
H3364 H 0.69407 0.95754 0.61398 0.0
C3365 C 0.67112 0.91373 0.6274 0.0
C3366 C 0.6804 0.9137 0.61746 0.0
C3367 C 0.67275 0.92474 0.63459 0.0
C3368 C 0.69085 0.95814 0.6272 0.0
H3369 H 0.69747 0.0013 0.6928 0.0
H3370 H 0.69486 0.98165 0.68306 0.0
H3371 H 0.69684 0.97712 0.62416 0.0
H3372 H 0.69875 0.92528 0.60757 0.0
H3373 H 0.70167 0.9443 0.62049 0.0
H3374 H 0.67657 0.9412 0.66402 0.0
C3375 C 0.69317 0.98686 0.67354 0.0
C3376 C 0.6923 0.96934 0.63294 0.0
C3377 C 0.69475 0.99817 0.67908 0.0
C3378 C 0.69145 0.92488 0.61535 0.0
C3379 C 0.69308 0.93585 0.62254 0.0
C3380 C 0.68092 0.94896 0.65516 0.0
C3381 C 0.68965 0.98245 0.65586 0.0
C3382 C 0.6881 0.9705 0.64987 0.0
C3383 C 0.68368 0.93596 0.63194 0.0
C3384 C 0.68517 0.94782 0.63824 0.0
H3385 H 0.68769 0.00612 0.6398 0.0
H3386 H 0.68487 0.98639 0.6302 0.0
H3387 H 0.67895 0.96076 0.67398 0.0
H3388 H 0.66254 0.90526 0.62941 0.0
H3389 H 0.66532 0.92452 0.64172 0.0
C3390 C 0.00254 0.6948 0.65619 0.0
C3391 C 0.99488 0.69878 0.66255 0.0
C3392 C 0.01482 0.70323 0.65339 0.0
C3393 C 0.03654 0.73558 0.64408 0.0
H3394 H 0.06009 0.72736 0.65836 0.0
C3395 C 0.08758 0.76723 0.62873 0.0
C3396 C 0.09321 0.76115 0.62164 0.0
C3397 C 0.07607 0.76055 0.63648 0.0
C3398 C 0.05363 0.72977 0.65422 0.0
H3399 H 0.9941 0.71478 0.67085 0.0
H3400 H 0.01562 0.72957 0.66576 0.0
H3401 H 0.03887 0.71387 0.66634 0.0
H3402 H 0.09116 0.74326 0.61724 0.0
H3403 H 0.07123 0.73169 0.6307 0.0
H3404 H 0.05123 0.75127 0.63145 0.0
C3405 C 0.01207 0.71989 0.66298 0.0
C3406 C 0.04148 0.72205 0.6588 0.0
C3407 C -0.00023 0.71142 0.66593 0.0
C3408 C 0.08722 0.74829 0.6229 0.0
C3409 C 0.07575 0.74163 0.63062 0.0
C3410 C 0.0487 0.74329 0.63941 0.0
C3411 C 0.01973 0.71586 0.65677 0.0
C3412 C 0.03277 0.72473 0.65345 0.0
C3413 C 0.06996 0.74765 0.6373 0.0
C3414 C 0.05735 0.74032 0.6441 0.0
H3415 H 0.99908 0.68513 0.65345 0.0
H3416 H 0.02046 0.69987 0.64833 0.0
H3417 H 0.03001 0.73783 0.63967 0.0
H3418 H 0.09201 0.77715 0.62813 0.0
H3419 H 0.07191 0.76547 0.6417 0.0
C3420 C 0.9641 0.62925 0.67748 0.0
C3421 C 0.97138 0.64082 0.68593 0.0
C3422 C 0.96576 0.61951 0.68105 0.0
C3423 C 0.98792 0.61265 0.69978 0.0
H3424 H 0.95959 0.58044 0.70807 0.0
C3425 C 0.98935 0.57499 0.73858 0.0
C3426 C 0.98163 0.5626 0.73328 0.0
C3427 C 0.98888 0.58434 0.73002 0.0
C3428 C 0.9676 0.58932 0.70547 0.0
H3429 H 0.98614 0.65123 0.70473 0.0
H3430 H 0.98891 0.63424 0.71114 0.0
H3431 H 0.95708 0.59713 0.69863 0.0
H3432 H 0.96784 0.55042 0.7141 0.0
H3433 H 0.96697 0.56678 0.69919 0.0
H3434 H 0.99843 0.60489 0.70707 0.0
C3435 C 0.98204 0.63273 0.70153 0.0
C3436 C 0.96616 0.59889 0.70008 0.0
C3437 C 0.98039 0.64245 0.69796 0.0
C3438 C 0.97378 0.55984 0.7187 0.0
C3439 C 0.97327 0.56921 0.71016 0.0
C3440 C 0.98936 0.60308 0.7052 0.0
C3441 C 0.97474 0.62114 0.69315 0.0
C3442 C 0.9763 0.61073 0.69747 0.0
C3443 C 0.98065 0.58153 0.71597 0.0
C3444 C 0.97921 0.59136 0.70839 0.0
H3445 H 0.95711 0.6277 0.66808 0.0
H3446 H 0.96006 0.61073 0.67424 0.0
H3447 H 0.99593 0.6216 0.69754 0.0
H3448 H 0.99537 0.57745 0.74994 0.0
H3449 H 0.99457 0.59371 0.73499 0.0
C3450 C 0.36183 0.34362 0.68376 0.0
C3451 C 0.36371 0.33388 0.68657 0.0
C3452 C 0.37113 0.35581 0.6868 0.0
C3453 C 0.39885 0.37424 0.71304 0.0
H3454 H 0.40447 0.40049 0.68156 0.0
C3455 C 0.43644 0.42408 0.72837 0.0
C3456 C 0.43344 0.43313 0.72666 0.0
C3457 C 0.42896 0.41224 0.7212 0.0
C3458 C 0.40296 0.39327 0.69055 0.0
H3459 H 0.37694 0.32933 0.69447 0.0
H3460 H 0.39319 0.35064 0.69985 0.0
H3461 H 0.38938 0.37916 0.67344 0.0
H3462 H 0.42048 0.43694 0.71512 0.0
H3463 H 0.4072 0.41615 0.70312 0.0
H3464 H 0.41211 0.38826 0.73041 0.0
C3465 C 0.38447 0.34881 0.69539 0.0
C3466 C 0.39433 0.38107 0.68588 0.0
C3467 C 0.37517 0.33661 0.69224 0.0
C3468 C 0.42299 0.43016 0.71692 0.0
C3469 C 0.41544 0.41826 0.70985 0.0
C3470 C 0.40741 0.38642 0.71775 0.0
C3471 C 0.38252 0.35853 0.69282 0.0
C3472 C 0.39213 0.37143 0.69715 0.0
C3473 C 0.4182 0.40908 0.71228 0.0
C3474 C 0.40953 0.3961 0.70662 0.0
H3475 H 0.35311 0.34184 0.67936 0.0
H3476 H 0.36931 0.36308 0.6849 0.0
H3477 H 0.39722 0.36704 0.72215 0.0
H3478 H 0.44431 0.42593 0.73595 0.0
H3479 H 0.43148 0.40547 0.72303 0.0
C3480 C 0.65182 0.03016 0.68363 0.0
C3481 C 0.65535 0.0215 0.68497 0.0
C3482 C 0.64014 0.02711 0.68865 0.0
C3483 C 0.61474 0.00521 0.71701 0.0
H3484 H 0.59587 0.0153 0.69065 0.0
C3485 C 0.56483 0.98549 0.733 0.0
C3486 C 0.56095 0.99389 0.73501 0.0
C3487 C 0.57606 0.98911 0.72543 0.0
C3488 C 0.60109 0.01251 0.6982 0.0
H3489 H 0.64925 0.00269 0.69191 0.0
H3490 H 0.62894 0.99735 0.70033 0.0
H3491 H 0.61618 0.02124 0.68019 0.0
H3492 H 0.56564 0.01255 0.72985 0.0
H3493 H 0.58543 0.01892 0.71671 0.0
H3494 H 0.59974 0.99646 0.73496 0.0
C3495 C 0.63524 0.00659 0.69583 0.0
C3496 C 0.61271 0.01592 0.69225 0.0
C3497 C 0.64688 0.00964 0.69091 0.0
C3498 C 0.56841 0.00589 0.72862 0.0
C3499 C 0.57969 0.00951 0.72098 0.0
C3500 C 0.60317 0.00178 0.7229 0.0
C3501 C 0.63178 0.01534 0.69506 0.0
C3502 C 0.61961 0.01218 0.7015 0.0
C3503 C 0.58374 0.00123 0.71972 0.0
C3504 C 0.59616 0.00526 0.71347 0.0
H3505 H 0.65815 0.03938 0.67909 0.0
H3506 H 0.63777 0.03408 0.68799 0.0
H3507 H 0.61992 0.00245 0.72473 0.0
H3508 H 0.55942 0.97623 0.73797 0.0
H3509 H 0.57886 0.98246 0.72439 0.0
loop_
_geom_bond_atom_site_label_1
_geom_bond_atom_site_label_2
_geom_bond_distance
_geom_bond_site_symmetry_2
_ccdc_geom_bond_type
C0 O1 1.160 . S
C0 O7 1.185 . S
O1 C0 1.160 . S
O2 Zn3 1.883 1_656 S
O2 C10 1.270 1_556 S
Zn3 O2 1.883 1_454 S
Zn3 O4 2.032 . S
Zn3 O7 2.086 . S
Zn3 O12 1.977 1_554 S
O4 Zn3 2.032 . S
O4 C8 1.278 1_455 S
C5 O6 1.203 1_455 S
C5 O12 1.267 . S
O6 C5 1.203 1_655 S
O7 C0 1.185 . S
O7 Zn3 2.086 . S
C8 O4 1.278 1_655 S
C8 O9 1.211 . S
O9 C8 1.211 . S
C10 O2 1.270 1_554 S
C10 O11 1.273 . S
O11 C10 1.273 . S
O12 Zn3 1.977 1_556 S
O12 C5 1.267 . S
C13 O14 1.140 1_554 S
C13 O20 1.185 . S
O14 C13 1.140 1_556 S
O15 Zn16 1.899 . S
O15 C23 1.284 . S
Zn16 O15 1.899 . S
Zn16 O17 2.032 1_554 S
Zn16 O20 2.086 . S
Zn16 O25 1.977 . S
O17 Zn16 2.032 1_556 S
O17 C21 1.278 . S
C18 O19 1.203 . S
C18 O25 1.267 . S
O19 C18 1.203 . S
O20 C13 1.185 . S
O20 Zn16 2.086 . S
C21 O17 1.278 . S
C21 O22 1.186 1_556 S
O22 C21 1.186 1_554 S
C23 O15 1.284 . S
C23 O24 1.273 . S
O24 C23 1.273 . S
O25 Zn16 1.977 . S
O25 C18 1.267 . S
C26 O27 1.159 . S
C26 O33 1.185 . S
O27 C26 1.159 . S
O28 Zn29 1.899 1_565 S
O28 C36 1.284 . S
Zn29 O28 1.899 1_545 S
Zn29 O30 2.032 1_554 S
Zn29 O33 2.086 . S
Zn29 O38 1.977 . S
O30 Zn29 2.032 1_556 S
O30 C34 1.278 . S
C31 O32 1.203 1_545 S
C31 O38 1.267 . S
O32 C31 1.203 1_565 S
O33 C26 1.185 . S
O33 Zn29 2.086 . S
C34 O30 1.278 . S
C34 O35 1.176 1_546 S
O35 C34 1.176 1_564 S
C36 O28 1.284 . S
C36 O37 1.273 . S
O37 C36 1.273 . S
O38 Zn29 1.977 . S
O38 C31 1.267 . S
C39 O40 1.169 . S
C39 O46 1.172 1_556 S
O40 C39 1.169 . S
O41 Zn42 1.899 1_455 S
O41 C49 1.284 . S
Zn42 O41 1.899 1_655 S
Zn42 O43 2.032 1_554 S
Zn42 O46 2.086 . S
Zn42 O51 1.977 . S
O43 Zn42 2.032 1_556 S
O43 C47 1.278 1_655 S
C44 O45 1.150 1_655 S
C44 O51 1.322 . S
O45 C44 1.150 1_455 S
O46 C39 1.172 1_554 S
O46 Zn42 2.086 . S
C47 O43 1.278 1_455 S
C47 O48 1.211 . S
O48 C47 1.211 . S
C49 O41 1.284 . S
C49 O50 1.273 . S
O50 C49 1.273 . S
O51 Zn42 1.977 . S
O51 C44 1.322 . S
C52 O53 1.160 . S
C52 O59 1.185 . S
O53 C52 1.160 . S
O54 Zn55 1.899 1_556 S
O54 C62 1.283 . S
Zn55 O54 1.899 1_554 S
Zn55 O56 2.032 . S
Zn55 O59 2.086 . S
Zn55 O64 1.977 1_554 S
O56 Zn55 2.032 . S
O56 C60 1.278 . S
C57 O58 1.203 . S
C57 O64 1.267 . S
O58 C57 1.203 . S
O59 C52 1.185 . S
O59 Zn55 2.086 . S
C60 O56 1.278 . S
C60 O61 1.211 . S
O61 C60 1.211 . S
C62 O54 1.283 . S
C62 O63 1.276 1_556 S
O63 C62 1.276 1_554 S
O64 Zn55 1.977 1_556 S
O64 C57 1.267 . S
C65 O66 1.160 . S
C65 O72 1.185 . S
O66 C65 1.160 . S
O67 Zn68 1.899 1_546 S
O67 C75 1.284 1_556 S
Zn68 O67 1.899 1_564 S
Zn68 O69 2.058 . S
Zn68 O72 2.086 . S
Zn68 O77 1.977 1_554 S
O69 Zn68 2.058 . S
O69 C73 1.195 1_565 S
C70 O71 1.147 1_565 S
C70 O77 1.326 . S
O71 C70 1.147 1_545 S
O72 C65 1.185 . S
O72 Zn68 2.086 . S
C73 O69 1.195 1_545 S
C73 O74 1.211 . S
O74 C73 1.211 . S
C75 O67 1.284 1_554 S
C75 O76 1.273 . S
O76 C75 1.273 . S
O77 Zn68 1.977 1_556 S
O77 C70 1.326 . S
C78 O79 1.160 . S
C78 O85 1.185 . S
O79 C78 1.160 . S
O80 Zn81 1.899 . S
O80 C88 1.284 . S
Zn81 O80 1.899 . S
Zn81 O82 2.032 . S
Zn81 O85 2.086 . S
Zn81 O90 1.977 . S
O82 Zn81 2.032 . S
O82 C86 1.278 . S
C83 O84 1.203 . S
C83 O90 1.267 . S
O84 C83 1.203 . S
O85 C78 1.185 . S
O85 Zn81 2.086 . S
C86 O82 1.278 . S
C86 O87 1.211 . S
O87 C86 1.211 . S
C88 O80 1.284 . S
C88 O89 1.273 . S
O89 C88 1.273 . S
O90 Zn81 1.977 . S
O90 C83 1.267 . S
C91 O92 1.160 . S
C91 O98 1.185 . S
O92 C91 1.160 . S
O93 Zn94 1.899 . S
O93 C101 1.284 . S
Zn94 O93 1.899 . S
Zn94 O95 2.032 . S
Zn94 O98 2.086 . S
Zn94 O103 1.977 . S
O95 Zn94 2.032 . S
O95 C99 1.278 . S
C96 O97 1.203 . S
C96 O103 1.267 . S
O97 C96 1.203 . S
O98 C91 1.185 . S
O98 Zn94 2.086 . S
C99 O95 1.278 . S
C99 O100 1.211 . S
O100 C99 1.211 . S
C101 O93 1.284 . S
C101 O102 1.273 . S
O102 C101 1.273 . S
O103 Zn94 1.977 . S
O103 C96 1.267 . S
C104 O105 1.160 . S
C104 O111 1.185 . S
O105 C104 1.160 . S
O106 Zn107 1.899 . S
O106 C114 1.284 . S
Zn107 O106 1.899 . S
Zn107 O108 2.032 . S
Zn107 O111 2.086 . S
Zn107 O116 1.977 . S
O108 Zn107 2.032 . S
O108 C112 1.278 . S
C109 O110 1.203 . S
C109 O116 1.267 . S
O110 C109 1.203 . S
O111 C104 1.185 . S
O111 Zn107 2.086 . S
C112 O108 1.278 . S
C112 O113 1.211 . S
O113 C112 1.211 . S
C114 O106 1.284 . S
C114 O115 1.273 . S
O115 C114 1.273 . S
O116 Zn107 1.977 . S
O116 C109 1.267 . S
C117 O118 1.160 . S
C117 O124 1.185 . S
O118 C117 1.160 . S
O119 Zn120 1.899 . S
O119 C127 1.284 . S
Zn120 O119 1.899 . S
Zn120 O121 2.032 . S
Zn120 O124 2.086 . S
Zn120 O129 1.977 . S
O121 Zn120 2.032 . S
O121 C125 1.278 . S
C122 O123 1.203 . S
C122 O129 1.267 . S
O123 C122 1.203 . S
O124 C117 1.185 . S
O124 Zn120 2.086 . S
C125 O121 1.278 . S
C125 O126 1.211 . S
O126 C125 1.211 . S
C127 O119 1.284 . S
C127 O128 1.273 . S
O128 C127 1.273 . S
O129 Zn120 1.977 . S
O129 C122 1.267 . S
C130 O131 1.160 . S
C130 O137 1.185 1_655 S
O131 C130 1.160 . S
O132 Zn133 1.899 . S
O132 C140 1.284 . S
Zn133 O132 1.899 . S
Zn133 O134 2.032 . S
Zn133 O137 2.086 . S
Zn133 O142 1.977 . S
O134 Zn133 2.032 . S
O134 C138 1.278 . S
C135 O136 1.203 . S
C135 O142 1.267 . S
O136 C135 1.203 . S
O137 C130 1.185 1_455 S
O137 Zn133 2.086 . S
C138 O134 1.278 . S
C138 O139 1.211 . S
O139 C138 1.211 . S
C140 O132 1.284 . S
C140 O141 1.273 . S
O141 C140 1.273 . S
O142 Zn133 1.977 . S
O142 C135 1.267 . S
C143 O144 1.160 . S
C143 O150 1.185 . S
O144 C143 1.160 . S
O145 Zn146 1.899 . S
O145 C153 1.284 . S
Zn146 O145 1.899 . S
Zn146 O147 2.032 . S
Zn146 O150 2.086 . S
Zn146 O155 1.977 . S
O147 Zn146 2.032 . S
O147 C151 1.278 . S
C148 O149 1.203 . S
C148 O155 1.267 . S
O149 C148 1.203 . S
O150 C143 1.185 . S
O150 Zn146 2.086 . S
C151 O147 1.278 . S
C151 O152 1.211 . S
O152 C151 1.211 . S
C153 O145 1.284 . S
C153 O154 1.273 . S
O154 C153 1.273 . S
O155 Zn146 1.977 . S
O155 C148 1.267 . S
C156 O157 1.160 . S
C156 O163 1.185 . S
O157 C156 1.160 . S
O158 Zn159 1.899 . S
O158 C166 1.284 . S
Zn159 O158 1.899 . S
Zn159 O160 2.032 . S
Zn159 O163 2.086 . S
Zn159 O168 1.977 . S
O160 Zn159 2.032 . S
O160 C164 1.278 . S
C161 O162 1.203 . S
C161 O168 1.267 . S
O162 C161 1.203 . S
O163 C156 1.185 . S
O163 Zn159 2.086 . S
C164 O160 1.278 . S
C164 O165 1.211 . S
O165 C164 1.211 . S
C166 O158 1.284 . S
C166 O167 1.273 . S
O167 C166 1.273 . S
O168 Zn159 1.977 . S
O168 C161 1.267 . S
C169 O170 1.160 . S
C169 O176 1.185 1_455 S
O170 C169 1.160 . S
O171 Zn172 1.899 . S
O171 C179 1.284 . S
Zn172 O171 1.899 . S
Zn172 O173 2.032 . S
Zn172 O176 2.086 . S
Zn172 O181 1.977 . S
O173 Zn172 2.032 . S
O173 C177 1.278 . S
C174 O175 1.203 . S
C174 O181 1.267 . S
O175 C174 1.203 . S
O176 C169 1.185 1_655 S
O176 Zn172 2.086 . S
C177 O173 1.278 . S
C177 O178 1.211 . S
O178 C177 1.211 . S
C179 O171 1.284 . S
C179 O180 1.273 . S
O180 C179 1.273 . S
O181 Zn172 1.977 . S
O181 C174 1.267 . S
C182 O183 1.160 . S
C182 O189 1.185 . S
O183 C182 1.160 . S
O184 Zn185 1.899 . S
O184 C192 1.284 . S
Zn185 O184 1.899 . S
Zn185 O186 2.032 . S
Zn185 O189 2.086 . S
Zn185 O194 1.977 . S
O186 Zn185 2.032 . S
O186 C190 1.278 . S
C187 O188 1.203 . S
C187 O194 1.267 . S
O188 C187 1.203 . S
O189 C182 1.185 . S
O189 Zn185 2.086 . S
C190 O186 1.278 . S
C190 O191 1.211 . S
O191 C190 1.211 . S
C192 O184 1.284 . S
C192 O193 1.273 . S
O193 C192 1.273 . S
O194 Zn185 1.977 . S
O194 C187 1.267 . S
C195 O196 1.160 . S
C195 O202 1.185 . S
O196 C195 1.160 . S
O197 Zn198 1.899 . S
O197 C205 1.284 . S
Zn198 O197 1.899 . S
Zn198 O199 2.032 . S
Zn198 O202 2.086 . S
Zn198 O207 1.977 . S
O199 Zn198 2.032 . S
O199 C203 1.278 . S
C200 O201 1.203 . S
C200 O207 1.267 . S
O201 C200 1.203 . S
O202 C195 1.185 . S
O202 Zn198 2.086 . S
C203 O199 1.278 . S
C203 O204 1.211 . S
O204 C203 1.211 . S
C205 O197 1.284 . S
C205 O206 1.273 . S
O206 C205 1.273 . S
O207 Zn198 1.977 . S
O207 C200 1.267 . S
C208 O209 1.160 . S
C208 O215 1.185 . S
O209 C208 1.160 . S
O210 Zn211 1.899 . S
O210 C218 1.284 . S
Zn211 O210 1.899 . S
Zn211 O212 2.032 . S
Zn211 O215 2.086 . S
Zn211 O220 1.977 . S
O212 Zn211 2.032 . S
O212 C216 1.278 . S
C213 O214 1.203 . S
C213 O220 1.267 . S
O214 C213 1.203 . S
O215 C208 1.185 . S
O215 Zn211 2.086 . S
C216 O212 1.278 . S
C216 O217 1.211 . S
O217 C216 1.211 . S
C218 O210 1.284 . S
C218 O219 1.273 . S
O219 C218 1.273 . S
O220 Zn211 1.977 . S
O220 C213 1.267 . S
C221 O222 1.160 . S
C221 O228 1.185 . S
O222 C221 1.160 . S
O223 Zn224 1.899 . S
O223 C231 1.284 . S
Zn224 O223 1.899 . S
Zn224 O225 2.032 . S
Zn224 O228 2.086 . S
Zn224 O233 1.977 . S
O225 Zn224 2.032 . S
O225 C229 1.278 . S
C226 O227 1.203 . S
C226 O233 1.267 . S
O227 C226 1.203 . S
O228 C221 1.185 . S
O228 Zn224 2.086 . S
C229 O225 1.278 . S
C229 O230 1.211 . S
O230 C229 1.211 . S
C231 O223 1.284 . S
C231 O232 1.273 . S
O232 C231 1.273 . S
O233 Zn224 1.977 . S
O233 C226 1.267 . S
H234 C261 0.929 . S
N235 C260 1.433 . S
N235 C266 1.435 . S
N235 C272 1.423 . S
H236 C262 0.930 . S
H237 C265 0.931 . S
H238 C264 0.929 . S
H239 C267 0.930 . S
H240 C268 0.932 . S
H241 C271 0.929 . S
H242 C270 0.931 . S
H243 C273 0.929 . S
H244 C277 0.932 . S
H245 C274 0.931 . S
H246 C276 0.929 . S
H247 C279 0.929 . S
H248 C280 0.930 . S
H249 C282 0.929 . S
H250 C283 0.931 . S
H251 C285 0.930 . S
H252 C286 0.932 . S
H253 C288 0.931 . S
H254 C289 0.929 . S
H255 C291 0.929 . S
H256 C292 0.931 . S
H257 C294 0.929 . S
N258 C278 1.433 . S
N258 C284 1.435 . S
N258 C290 1.423 . S
H259 C295 0.932 . S
C260 N235 1.433 . S
C260 C261 1.363 . S
C260 C265 1.370 . S
C261 H234 0.929 . S
C261 C260 1.363 . S
C261 C262 1.385 . S
C262 H236 0.930 . S
C262 C261 1.385 . S
C262 C263 1.357 . S
C263 C262 1.357 . S
C263 C264 1.406 . S
C264 H238 0.929 . S
C264 C263 1.406 . S
C264 C265 1.391 . S
C265 H237 0.931 . S
C265 C260 1.370 . S
C265 C264 1.391 . S
C266 N235 1.435 . S
C266 C267 1.358 . S
C266 C271 1.371 . S
C267 H239 0.930 . S
C267 C266 1.358 . S
C267 C268 1.405 . S
C268 H240 0.932 . S
C268 C267 1.405 . S
C268 C269 1.383 . S
C269 C268 1.383 . S
C269 C270 1.393 . S
C270 H242 0.931 . S
C270 C269 1.393 . S
C270 C271 1.382 . S
C271 H241 0.929 . S
C271 C266 1.371 . S
C271 C270 1.382 . S
C272 N235 1.423 . S
C272 C273 1.362 . S
C272 C277 1.388 . S
C273 H243 0.929 . S
C273 C272 1.362 . S
C273 C274 1.376 . S
C274 H245 0.931 . S
C274 C273 1.376 . S
C274 C275 1.396 . S
C275 C274 1.396 . S
C275 C276 1.348 . S
C275 C293 1.472 . S
C276 H246 0.929 . S
C276 C275 1.348 . S
C276 C277 1.443 . S
C277 H244 0.932 . S
C277 C272 1.388 . S
C277 C276 1.443 . S
C278 N258 1.433 . S
C278 C279 1.363 . S
C278 C283 1.370 . S
C279 H247 0.929 . S
C279 C278 1.363 . S
C279 C280 1.385 . S
C280 H248 0.930 . S
C280 C279 1.385 . S
C280 C281 1.357 . S
C281 C280 1.357 . S
C281 C282 1.406 . S
C282 H249 0.929 . S
C282 C281 1.406 . S
C282 C283 1.391 . S
C283 H250 0.931 . S
C283 C278 1.370 . S
C283 C282 1.391 . S
C284 N258 1.435 . S
C284 C285 1.358 . S
C284 C289 1.371 . S
C285 H251 0.930 . S
C285 C284 1.358 . S
C285 C286 1.405 . S
C286 H252 0.932 . S
C286 C285 1.405 . S
C286 C287 1.383 . S
C287 C286 1.383 . S
C287 C288 1.393 . S
C288 H253 0.931 . S
C288 C287 1.393 . S
C288 C289 1.382 . S
C289 H254 0.929 . S
C289 C284 1.371 . S
C289 C288 1.382 . S
C290 N258 1.423 . S
C290 C291 1.362 . S
C290 C295 1.388 . S
C291 H255 0.929 . S
C291 C290 1.362 . S
C291 C292 1.376 . S
C292 H256 0.931 . S
C292 C291 1.376 . S
C292 C293 1.396 . S
C293 C275 1.472 . S
C293 C292 1.396 . S
C293 C294 1.348 . S
C294 H257 0.929 . S
C294 C293 1.348 . S
C294 C295 1.443 . S
C295 H259 0.932 . S
C295 C290 1.388 . S
C295 C294 1.443 . S
H296 C323 0.929 . S
N297 C322 1.433 . S
N297 C328 1.435 . S
N297 C334 1.423 . S
H298 C324 0.930 . S
H299 C327 0.931 . S
H300 C326 0.929 . S
H301 C329 0.930 . S
H302 C330 0.932 . S
H303 C333 0.929 . S
H304 C332 0.931 . S
H305 C335 0.929 . S
H306 C339 0.932 . S
H307 C336 0.931 . S
H308 C338 0.929 . S
H309 C341 0.929 . S
H310 C342 0.930 . S
H311 C344 0.929 . S
H312 C345 0.931 . S
H313 C347 0.930 . S
H314 C348 0.932 . S
H315 C350 0.931 . S
H316 C351 0.929 . S
H317 C353 0.929 . S
H318 C354 0.931 . S
H319 C356 0.929 . S
N320 C340 1.433 . S
N320 C346 1.435 . S
N320 C352 1.423 . S
H321 C357 0.932 . S
C322 N297 1.433 . S
C322 C323 1.363 . S
C322 C327 1.370 . S
C323 H296 0.929 . S
C323 C322 1.363 . S
C323 C324 1.385 . S
C324 H298 0.930 . S
C324 C323 1.385 . S
C324 C325 1.357 . S
C325 C324 1.357 . S
C325 C326 1.406 . S
C326 H300 0.929 . S
C326 C325 1.406 . S
C326 C327 1.391 . S
C327 H299 0.931 . S
C327 C322 1.370 . S
C327 C326 1.391 . S
C328 N297 1.435 . S
C328 C329 1.358 . S
C328 C333 1.371 . S
C329 H301 0.930 . S
C329 C328 1.358 . S
C329 C330 1.405 . S
C330 H302 0.932 . S
C330 C329 1.405 . S
C330 C331 1.383 . S
C331 C330 1.383 . S
C331 C332 1.393 . S
C332 H304 0.931 . S
C332 C331 1.393 . S
C332 C333 1.382 . S
C333 H303 0.929 . S
C333 C328 1.371 . S
C333 C332 1.382 . S
C334 N297 1.423 . S
C334 C335 1.362 . S
C334 C339 1.388 . S
C335 H305 0.929 . S
C335 C334 1.362 . S
C335 C336 1.376 . S
C336 H307 0.931 . S
C336 C335 1.376 . S
C336 C337 1.396 . S
C337 C336 1.396 . S
C337 C338 1.348 . S
C337 C355 1.472 . S
C338 H308 0.929 . S
C338 C337 1.348 . S
C338 C339 1.443 . S
C339 H306 0.932 . S
C339 C334 1.388 . S
C339 C338 1.443 . S
C340 N320 1.433 . S
C340 C341 1.363 . S
C340 C345 1.370 . S
C341 H309 0.929 . S
C341 C340 1.363 . S
C341 C342 1.385 . S
C342 H310 0.930 . S
C342 C341 1.385 . S
C342 C343 1.357 . S
C343 C342 1.357 . S
C343 C344 1.406 . S
C344 H311 0.929 . S
C344 C343 1.406 . S
C344 C345 1.391 . S
C345 H312 0.931 . S
C345 C340 1.370 . S
C345 C344 1.391 . S
C346 N320 1.435 . S
C346 C347 1.358 . S
C346 C351 1.371 . S
C347 H313 0.930 . S
C347 C346 1.358 . S
C347 C348 1.405 . S
C348 H314 0.932 . S
C348 C347 1.405 . S
C348 C349 1.383 . S
C349 C348 1.383 . S
C349 C350 1.393 . S
C350 H315 0.931 . S
C350 C349 1.393 . S
C350 C351 1.382 . S
C351 H316 0.929 . S
C351 C346 1.371 . S
C351 C350 1.382 . S
C352 N320 1.423 . S
C352 C353 1.362 . S
C352 C357 1.388 . S
C353 H317 0.929 . S
C353 C352 1.362 . S
C353 C354 1.376 . S
C354 H318 0.931 . S
C354 C353 1.376 . S
C354 C355 1.396 . S
C355 C337 1.472 . S
C355 C354 1.396 . S
C355 C356 1.348 . S
C356 H319 0.929 . S
C356 C355 1.348 . S
C356 C357 1.443 . S
C357 H321 0.932 . S
C357 C352 1.388 . S
C357 C356 1.443 . S
H358 C385 0.929 . S
N359 C384 1.433 . S
N359 C390 1.435 . S
N359 C396 1.423 . S
H360 C386 0.930 . S
H361 C389 0.931 . S
H362 C388 0.929 . S
H363 C391 0.930 . S
H364 C392 0.932 . S
H365 C395 0.929 . S
H366 C394 0.931 . S
H367 C397 0.929 . S
H368 C401 0.932 . S
H369 C398 0.931 . S
H370 C400 0.929 . S
H371 C403 0.929 . S
H372 C404 0.930 . S
H373 C406 0.929 . S
H374 C407 0.931 . S
H375 C409 0.930 . S
H376 C410 0.932 . S
H377 C412 0.931 . S
H378 C413 0.929 . S
H379 C415 0.929 . S
H380 C416 0.931 . S
H381 C418 0.929 . S
N382 C402 1.433 . S
N382 C408 1.435 . S
N382 C414 1.423 . S
H383 C419 0.932 . S
C384 N359 1.433 . S
C384 C385 1.363 . S
C384 C389 1.370 . S
C385 H358 0.929 . S
C385 C384 1.363 . S
C385 C386 1.385 . S
C386 H360 0.930 . S
C386 C385 1.385 . S
C386 C387 1.357 . S
C387 C386 1.357 . S
C387 C388 1.406 . S
C388 H362 0.929 . S
C388 C387 1.406 . S
C388 C389 1.391 . S
C389 H361 0.931 . S
C389 C384 1.370 . S
C389 C388 1.391 . S
C390 N359 1.435 . S
C390 C391 1.358 . S
C390 C395 1.371 . S
C391 H363 0.930 . S
C391 C390 1.358 . S
C391 C392 1.405 . S
C392 H364 0.932 . S
C392 C391 1.405 . S
C392 C393 1.383 . S
C393 C392 1.383 . S
C393 C394 1.393 . S
C394 H366 0.931 . S
C394 C393 1.393 . S
C394 C395 1.382 . S
C395 H365 0.929 . S
C395 C390 1.371 . S
C395 C394 1.382 . S
C396 N359 1.423 . S
C396 C397 1.362 . S
C396 C401 1.388 . S
C397 H367 0.929 . S
C397 C396 1.362 . S
C397 C398 1.376 . S
C398 H369 0.931 . S
C398 C397 1.376 . S
C398 C399 1.396 . S
C399 C398 1.396 . S
C399 C400 1.348 . S
C399 C417 1.472 . S
C400 H370 0.929 . S
C400 C399 1.348 . S
C400 C401 1.443 . S
C401 H368 0.932 . S
C401 C396 1.388 . S
C401 C400 1.443 . S
C402 N382 1.433 . S
C402 C403 1.363 . S
C402 C407 1.370 . S
C403 H371 0.929 . S
C403 C402 1.363 . S
C403 C404 1.385 . S
C404 H372 0.930 . S
C404 C403 1.385 . S
C404 C405 1.357 . S
C405 C404 1.357 . S
C405 C406 1.406 . S
C406 H373 0.929 . S
C406 C405 1.406 . S
C406 C407 1.391 . S
C407 H374 0.931 . S
C407 C402 1.370 . S
C407 C406 1.391 . S
C408 N382 1.435 . S
C408 C409 1.358 . S
C408 C413 1.371 . S
C409 H375 0.930 . S
C409 C408 1.358 . S
C409 C410 1.405 . S
C410 H376 0.932 . S
C410 C409 1.405 . S
C410 C411 1.383 . S
C411 C410 1.383 . S
C411 C412 1.393 . S
C412 H377 0.931 . S
C412 C411 1.393 . S
C412 C413 1.382 . S
C413 H378 0.929 . S
C413 C408 1.371 . S
C413 C412 1.382 . S
C414 N382 1.423 . S
C414 C415 1.362 . S
C414 C419 1.388 . S
C415 H379 0.929 . S
C415 C414 1.362 . S
C415 C416 1.376 . S
C416 H380 0.931 . S
C416 C415 1.376 . S
C416 C417 1.396 . S
C417 C399 1.472 . S
C417 C416 1.396 . S
C417 C418 1.348 . S
C418 H381 0.929 . S
C418 C417 1.348 . S
C418 C419 1.443 . S
C419 H383 0.932 . S
C419 C414 1.388 . S
C419 C418 1.443 . S
H420 C447 0.929 . S
N421 C446 1.433 . S
N421 C452 1.435 . S
N421 C458 1.423 . S
H422 C448 0.930 . S
H423 C451 0.931 . S
H424 C450 0.929 . S
H425 C453 0.930 . S
H426 C454 0.932 . S
H427 C457 0.929 . S
H428 C456 0.931 . S
H429 C459 0.929 . S
H430 C463 0.932 . S
H431 C460 0.931 . S
H432 C462 0.929 . S
H433 C465 0.929 . S
H434 C466 0.930 . S
H435 C468 0.929 . S
H436 C469 0.931 . S
H437 C471 0.930 . S
H438 C472 0.932 . S
H439 C474 0.931 . S
H440 C475 0.929 . S
H441 C477 0.929 . S
H442 C478 0.931 . S
H443 C480 0.929 . S
N444 C464 1.433 . S
N444 C470 1.435 . S
N444 C476 1.423 . S
H445 C481 0.932 . S
C446 N421 1.433 . S
C446 C447 1.363 . S
C446 C451 1.370 . S
C447 H420 0.929 . S
C447 C446 1.363 . S
C447 C448 1.385 . S
C448 H422 0.930 . S
C448 C447 1.385 . S
C448 C449 1.357 . S
C449 C448 1.357 . S
C449 C450 1.406 . S
C450 H424 0.929 . S
C450 C449 1.406 . S
C450 C451 1.391 . S
C451 H423 0.931 . S
C451 C446 1.370 . S
C451 C450 1.391 . S
C452 N421 1.435 . S
C452 C453 1.358 . S
C452 C457 1.371 . S
C453 H425 0.930 . S
C453 C452 1.358 . S
C453 C454 1.405 . S
C454 H426 0.932 . S
C454 C453 1.405 . S
C454 C455 1.383 . S
C455 C454 1.383 . S
C455 C456 1.393 . S
C456 H428 0.931 . S
C456 C455 1.393 . S
C456 C457 1.382 . S
C457 H427 0.929 . S
C457 C452 1.371 . S
C457 C456 1.382 . S
C458 N421 1.423 . S
C458 C459 1.362 . S
C458 C463 1.388 . S
C459 H429 0.929 . S
C459 C458 1.362 . S
C459 C460 1.376 . S
C460 H431 0.931 . S
C460 C459 1.376 . S
C460 C461 1.396 . S
C461 C460 1.396 . S
C461 C462 1.348 . S
C461 C479 1.472 . S
C462 H432 0.929 . S
C462 C461 1.348 . S
C462 C463 1.443 . S
C463 H430 0.932 . S
C463 C458 1.388 . S
C463 C462 1.443 . S
C464 N444 1.433 . S
C464 C465 1.363 . S
C464 C469 1.370 . S
C465 H433 0.929 . S
C465 C464 1.363 . S
C465 C466 1.385 . S
C466 H434 0.930 . S
C466 C465 1.385 . S
C466 C467 1.357 . S
C467 C466 1.357 . S
C467 C468 1.406 . S
C468 H435 0.929 . S
C468 C467 1.406 . S
C468 C469 1.391 . S
C469 H436 0.931 . S
C469 C464 1.370 . S
C469 C468 1.391 . S
C470 N444 1.435 . S
C470 C471 1.358 . S
C470 C475 1.371 . S
C471 H437 0.930 . S
C471 C470 1.358 . S
C471 C472 1.405 . S
C472 H438 0.932 . S
C472 C471 1.405 . S
C472 C473 1.383 . S
C473 C472 1.383 . S
C473 C474 1.393 . S
C474 H439 0.931 . S
C474 C473 1.393 . S
C474 C475 1.382 . S
C475 H440 0.929 . S
C475 C470 1.371 . S
C475 C474 1.382 . S
C476 N444 1.423 . S
C476 C477 1.362 . S
C476 C481 1.388 . S
C477 H441 0.929 . S
C477 C476 1.362 . S
C477 C478 1.376 . S
C478 H442 0.931 . S
C478 C477 1.376 . S
C478 C479 1.396 . S
C479 C461 1.472 . S
C479 C478 1.396 . S
C479 C480 1.348 . S
C480 H443 0.929 . S
C480 C479 1.348 . S
C480 C481 1.443 . S
C481 H445 0.932 . S
C481 C476 1.388 . S
C481 C480 1.443 . S
H482 C509 0.929 . S
N483 C508 1.433 . S
N483 C514 1.435 . S
N483 C520 1.423 . S
H484 C510 0.930 . S
H485 C513 0.931 . S
H486 C512 0.929 . S
H487 C515 0.930 . S
H488 C516 0.932 . S
H489 C519 0.929 . S
H490 C518 0.931 . S
H491 C521 0.929 . S
H492 C525 0.932 . S
H493 C522 0.931 . S
H494 C524 0.929 . S
H495 C527 0.929 . S
H496 C528 0.930 . S
H497 C530 0.929 . S
H498 C531 0.931 . S
H499 C533 0.930 . S
H500 C534 0.932 . S
H501 C536 0.931 . S
H502 C537 0.929 . S
H503 C539 0.929 . S
H504 C540 0.931 . S
H505 C542 0.929 . S
N506 C526 1.433 . S
N506 C532 1.435 . S
N506 C538 1.423 . S
H507 C543 0.932 . S
C508 N483 1.433 . S
C508 C509 1.363 . S
C508 C513 1.370 . S
C509 H482 0.929 . S
C509 C508 1.363 . S
C509 C510 1.385 . S
C510 H484 0.930 . S
C510 C509 1.385 . S
C510 C511 1.357 . S
C511 C510 1.357 . S
C511 C512 1.406 . S
C512 H486 0.929 . S
C512 C511 1.406 . S
C512 C513 1.391 . S
C513 H485 0.931 . S
C513 C508 1.370 . S
C513 C512 1.391 . S
C514 N483 1.435 . S
C514 C515 1.358 . S
C514 C519 1.371 . S
C515 H487 0.930 . S
C515 C514 1.358 . S
C515 C516 1.405 . S
C516 H488 0.932 . S
C516 C515 1.405 . S
C516 C517 1.383 . S
C517 C516 1.383 . S
C517 C518 1.393 . S
C518 H490 0.931 . S
C518 C517 1.393 . S
C518 C519 1.382 . S
C519 H489 0.929 . S
C519 C514 1.371 . S
C519 C518 1.382 . S
C520 N483 1.423 . S
C520 C521 1.362 . S
C520 C525 1.388 . S
C521 H491 0.929 . S
C521 C520 1.362 . S
C521 C522 1.376 . S
C522 H493 0.931 . S
C522 C521 1.376 . S
C522 C523 1.396 . S
C523 C522 1.396 . S
C523 C524 1.348 . S
C523 C541 1.472 . S
C524 H494 0.929 . S
C524 C523 1.348 . S
C524 C525 1.443 . S
C525 H492 0.932 . S
C525 C520 1.388 . S
C525 C524 1.443 . S
C526 N506 1.433 . S
C526 C527 1.363 . S
C526 C531 1.370 . S
C527 H495 0.929 . S
C527 C526 1.363 . S
C527 C528 1.385 . S
C528 H496 0.930 . S
C528 C527 1.385 . S
C528 C529 1.357 . S
C529 C528 1.357 . S
C529 C530 1.406 . S
C530 H497 0.929 . S
C530 C529 1.406 . S
C530 C531 1.391 . S
C531 H498 0.931 . S
C531 C526 1.370 . S
C531 C530 1.391 . S
C532 N506 1.435 . S
C532 C533 1.358 . S
C532 C537 1.371 . S
C533 H499 0.930 . S
C533 C532 1.358 . S
C533 C534 1.405 . S
C534 H500 0.932 . S
C534 C533 1.405 . S
C534 C535 1.383 . S
C535 C534 1.383 . S
C535 C536 1.393 . S
C536 H501 0.931 . S
C536 C535 1.393 . S
C536 C537 1.382 . S
C537 H502 0.929 . S
C537 C532 1.371 . S
C537 C536 1.382 . S
C538 N506 1.423 . S
C538 C539 1.362 . S
C538 C543 1.388 . S
C539 H503 0.929 . S
C539 C538 1.362 . S
C539 C540 1.376 . S
C540 H504 0.931 . S
C540 C539 1.376 . S
C540 C541 1.396 . S
C541 C523 1.472 . S
C541 C540 1.396 . S
C541 C542 1.348 . S
C542 H505 0.929 . S
C542 C541 1.348 . S
C542 C543 1.443 . S
C543 H507 0.932 . S
C543 C538 1.388 . S
C543 C542 1.443 . S
H544 C571 0.929 . S
N545 C570 1.433 . S
N545 C576 1.435 . S
N545 C582 1.423 . S
H546 C572 0.930 . S
H547 C575 0.931 . S
H548 C574 0.929 . S
H549 C577 0.930 . S
H550 C578 0.932 . S
H551 C581 0.929 . S
H552 C580 0.931 . S
H553 C583 0.929 . S
H554 C587 0.932 . S
H555 C584 0.931 . S
H556 C586 0.929 . S
H557 C589 0.929 . S
H558 C590 0.930 . S
H559 C592 0.929 . S
H560 C593 0.931 . S
H561 C595 0.930 . S
H562 C596 0.932 . S
H563 C598 0.931 . S
H564 C599 0.929 . S
H565 C601 0.929 . S
H566 C602 0.931 . S
H567 C604 0.929 . S
N568 C588 1.433 . S
N568 C594 1.435 . S
N568 C600 1.423 . S
H569 C605 0.932 . S
C570 N545 1.433 . S
C570 C571 1.363 . S
C570 C575 1.370 . S
C571 H544 0.929 . S
C571 C570 1.363 . S
C571 C572 1.385 . S
C572 H546 0.930 . S
C572 C571 1.385 . S
C572 C573 1.357 . S
C573 C572 1.357 . S
C573 C574 1.406 . S
C574 H548 0.929 . S
C574 C573 1.406 . S
C574 C575 1.391 . S
C575 H547 0.931 . S
C575 C570 1.370 . S
C575 C574 1.391 . S
C576 N545 1.435 . S
C576 C577 1.358 . S
C576 C581 1.371 . S
C577 H549 0.930 . S
C577 C576 1.358 . S
C577 C578 1.405 . S
C578 H550 0.932 . S
C578 C577 1.405 . S
C578 C579 1.383 . S
C579 C578 1.383 . S
C579 C580 1.393 . S
C580 H552 0.931 . S
C580 C579 1.393 . S
C580 C581 1.382 . S
C581 H551 0.929 . S
C581 C576 1.371 . S
C581 C580 1.382 . S
C582 N545 1.423 . S
C582 C583 1.362 . S
C582 C587 1.388 . S
C583 H553 0.929 . S
C583 C582 1.362 . S
C583 C584 1.376 . S
C584 H555 0.931 . S
C584 C583 1.376 . S
C584 C585 1.396 . S
C585 C584 1.396 . S
C585 C586 1.348 . S
C585 C603 1.472 . S
C586 H556 0.929 . S
C586 C585 1.348 . S
C586 C587 1.443 . S
C587 H554 0.932 . S
C587 C582 1.388 . S
C587 C586 1.443 . S
C588 N568 1.433 . S
C588 C589 1.363 . S
C588 C593 1.370 . S
C589 H557 0.929 . S
C589 C588 1.363 . S
C589 C590 1.385 . S
C590 H558 0.930 . S
C590 C589 1.385 . S
C590 C591 1.357 . S
C591 C590 1.357 . S
C591 C592 1.406 . S
C592 H559 0.929 . S
C592 C591 1.406 . S
C592 C593 1.391 . S
C593 H560 0.931 . S
C593 C588 1.370 . S
C593 C592 1.391 . S
C594 N568 1.435 . S
C594 C595 1.358 . S
C594 C599 1.371 . S
C595 H561 0.930 . S
C595 C594 1.358 . S
C595 C596 1.405 . S
C596 H562 0.932 . S
C596 C595 1.405 . S
C596 C597 1.383 . S
C597 C596 1.383 . S
C597 C598 1.393 . S
C598 H563 0.931 . S
C598 C597 1.393 . S
C598 C599 1.382 . S
C599 H564 0.929 . S
C599 C594 1.371 . S
C599 C598 1.382 . S
C600 N568 1.423 . S
C600 C601 1.362 . S
C600 C605 1.388 . S
C601 H565 0.929 . S
C601 C600 1.362 . S
C601 C602 1.376 . S
C602 H566 0.931 . S
C602 C601 1.376 . S
C602 C603 1.396 . S
C603 C585 1.472 . S
C603 C602 1.396 . S
C603 C604 1.348 . S
C604 H567 0.929 . S
C604 C603 1.348 . S
C604 C605 1.443 . S
C605 H569 0.932 . S
C605 C600 1.388 . S
C605 C604 1.443 . S
H606 C633 0.929 . S
N607 C632 1.433 . S
N607 C638 1.435 . S
N607 C644 1.423 . S
H608 C634 0.930 . S
H609 C637 0.931 . S
H610 C636 0.929 . S
H611 C639 0.930 . S
H612 C640 0.932 . S
H613 C643 0.929 . S
H614 C642 0.931 . S
H615 C645 0.929 . S
H616 C649 0.932 . S
H617 C646 0.931 . S
H618 C648 0.929 . S
H619 C651 0.929 . S
H620 C652 0.930 . S
H621 C654 0.929 . S
H622 C655 0.931 . S
H623 C657 0.930 . S
H624 C658 0.932 . S
H625 C660 0.931 . S
H626 C661 0.929 . S
H627 C663 0.929 . S
H628 C664 0.931 . S
H629 C666 0.929 . S
N630 C650 1.433 . S
N630 C656 1.435 . S
N630 C662 1.423 . S
H631 C667 0.932 . S
C632 N607 1.433 . S
C632 C633 1.363 . S
C632 C637 1.370 . S
C633 H606 0.929 . S
C633 C632 1.363 . S
C633 C634 1.385 . S
C634 H608 0.930 . S
C634 C633 1.385 . S
C634 C635 1.357 . S
C635 C634 1.357 . S
C635 C636 1.406 . S
C636 H610 0.929 . S
C636 C635 1.406 . S
C636 C637 1.391 . S
C637 H609 0.931 . S
C637 C632 1.370 . S
C637 C636 1.391 . S
C638 N607 1.435 . S
C638 C639 1.358 . S
C638 C643 1.371 . S
C639 H611 0.930 . S
C639 C638 1.358 . S
C639 C640 1.405 . S
C640 H612 0.932 . S
C640 C639 1.405 . S
C640 C641 1.383 . S
C641 C640 1.383 . S
C641 C642 1.393 . S
C642 H614 0.931 . S
C642 C641 1.393 . S
C642 C643 1.382 . S
C643 H613 0.929 . S
C643 C638 1.371 . S
C643 C642 1.382 . S
C644 N607 1.423 . S
C644 C645 1.362 . S
C644 C649 1.388 . S
C645 H615 0.929 . S
C645 C644 1.362 . S
C645 C646 1.376 . S
C646 H617 0.931 . S
C646 C645 1.376 . S
C646 C647 1.396 . S
C647 C646 1.396 . S
C647 C648 1.348 . S
C647 C665 1.472 . S
C648 H618 0.929 . S
C648 C647 1.348 . S
C648 C649 1.443 . S
C649 H616 0.932 . S
C649 C644 1.388 . S
C649 C648 1.443 . S
C650 N630 1.433 . S
C650 C651 1.363 . S
C650 C655 1.370 . S
C651 H619 0.929 . S
C651 C650 1.363 . S
C651 C652 1.385 . S
C652 H620 0.930 . S
C652 C651 1.385 . S
C652 C653 1.357 . S
C653 C652 1.357 . S
C653 C654 1.406 . S
C654 H621 0.929 . S
C654 C653 1.406 . S
C654 C655 1.391 . S
C655 H622 0.931 . S
C655 C650 1.370 . S
C655 C654 1.391 . S
C656 N630 1.435 . S
C656 C657 1.358 . S
C656 C661 1.371 . S
C657 H623 0.930 . S
C657 C656 1.358 . S
C657 C658 1.405 . S
C658 H624 0.932 . S
C658 C657 1.405 . S
C658 C659 1.383 . S
C659 C658 1.383 . S
C659 C660 1.393 . S
C660 H625 0.931 . S
C660 C659 1.393 . S
C660 C661 1.382 . S
C661 H626 0.929 . S
C661 C656 1.371 . S
C661 C660 1.382 . S
C662 N630 1.423 . S
C662 C663 1.362 . S
C662 C667 1.388 . S
C663 H627 0.929 . S
C663 C662 1.362 . S
C663 C664 1.376 . S
C664 H628 0.931 . S
C664 C663 1.376 . S
C664 C665 1.396 . S
C665 C647 1.472 . S
C665 C664 1.396 . S
C665 C666 1.348 . S
C666 H629 0.929 . S
C666 C665 1.348 . S
C666 C667 1.443 . S
C667 H631 0.932 . S
C667 C662 1.388 . S
C667 C666 1.443 . S
H668 C695 0.929 . S
N669 C694 1.433 . S
N669 C700 1.435 . S
N669 C706 1.423 . S
H670 C696 0.930 . S
H671 C699 0.931 . S
H672 C698 0.929 . S
H673 C701 0.930 . S
H674 C702 0.932 . S
H675 C705 0.929 . S
H676 C704 0.931 . S
H677 C707 0.929 . S
H678 C711 0.932 . S
H679 C708 0.931 . S
H680 C710 0.929 . S
H681 C713 0.929 . S
H682 C714 0.930 . S
H683 C716 0.929 . S
H684 C717 0.931 . S
H685 C719 0.930 . S
H686 C720 0.932 . S
H687 C722 0.931 . S
H688 C723 0.929 . S
H689 C725 0.929 . S
H690 C726 0.931 . S
H691 C728 0.929 . S
N692 C712 1.433 . S
N692 C718 1.435 . S
N692 C724 1.423 . S
H693 C729 0.932 . S
C694 N669 1.433 . S
C694 C695 1.363 . S
C694 C699 1.370 . S
C695 H668 0.929 . S
C695 C694 1.363 . S
C695 C696 1.385 . S
C696 H670 0.930 . S
C696 C695 1.385 . S
C696 C697 1.357 . S
C697 C696 1.357 . S
C697 C698 1.406 . S
C698 H672 0.929 . S
C698 C697 1.406 . S
C698 C699 1.391 . S
C699 H671 0.931 . S
C699 C694 1.370 . S
C699 C698 1.391 . S
C700 N669 1.435 . S
C700 C701 1.358 . S
C700 C705 1.371 . S
C701 H673 0.930 . S
C701 C700 1.358 . S
C701 C702 1.405 . S
C702 H674 0.932 . S
C702 C701 1.405 . S
C702 C703 1.383 . S
C703 C702 1.383 . S
C703 C704 1.393 . S
C704 H676 0.931 . S
C704 C703 1.393 . S
C704 C705 1.382 . S
C705 H675 0.929 . S
C705 C700 1.371 . S
C705 C704 1.382 . S
C706 N669 1.423 . S
C706 C707 1.362 . S
C706 C711 1.388 . S
C707 H677 0.929 . S
C707 C706 1.362 . S
C707 C708 1.376 . S
C708 H679 0.931 . S
C708 C707 1.376 . S
C708 C709 1.396 . S
C709 C708 1.396 . S
C709 C710 1.348 . S
C709 C727 1.472 . S
C710 H680 0.929 . S
C710 C709 1.348 . S
C710 C711 1.443 . S
C711 H678 0.932 . S
C711 C706 1.388 . S
C711 C710 1.443 . S
C712 N692 1.433 . S
C712 C713 1.363 . S
C712 C717 1.370 . S
C713 H681 0.929 . S
C713 C712 1.363 . S
C713 C714 1.385 . S
C714 H682 0.930 . S
C714 C713 1.385 . S
C714 C715 1.357 . S
C715 C714 1.357 . S
C715 C716 1.406 . S
C716 H683 0.929 . S
C716 C715 1.406 . S
C716 C717 1.391 . S
C717 H684 0.931 . S
C717 C712 1.370 . S
C717 C716 1.391 . S
C718 N692 1.435 . S
C718 C719 1.358 . S
C718 C723 1.371 . S
C719 H685 0.930 . S
C719 C718 1.358 . S
C719 C720 1.405 . S
C720 H686 0.932 . S
C720 C719 1.405 . S
C720 C721 1.383 . S
C721 C720 1.383 . S
C721 C722 1.393 . S
C722 H687 0.931 . S
C722 C721 1.393 . S
C722 C723 1.382 . S
C723 H688 0.929 . S
C723 C718 1.371 . S
C723 C722 1.382 . S
C724 N692 1.423 . S
C724 C725 1.362 . S
C724 C729 1.388 . S
C725 H689 0.929 . S
C725 C724 1.362 . S
C725 C726 1.376 . S
C726 H690 0.931 . S
C726 C725 1.376 . S
C726 C727 1.396 . S
C727 C709 1.472 . S
C727 C726 1.396 . S
C727 C728 1.348 . S
C728 H691 0.929 . S
C728 C727 1.348 . S
C728 C729 1.443 . S
C729 H693 0.932 . S
C729 C724 1.388 . S
C729 C728 1.443 . S
H730 C757 0.929 . S
N731 C756 1.433 . S
N731 C762 1.435 . S
N731 C768 1.423 . S
H732 C758 0.930 . S
H733 C761 0.931 . S
H734 C760 0.929 . S
H735 C763 0.930 . S
H736 C764 0.932 . S
H737 C767 0.929 . S
H738 C766 0.931 . S
H739 C769 0.929 . S
H740 C773 0.932 . S
H741 C770 0.931 . S
H742 C772 0.929 . S
H743 C775 0.929 . S
H744 C776 0.930 . S
H745 C778 0.929 . S
H746 C779 0.931 . S
H747 C781 0.930 . S
H748 C782 0.932 . S
H749 C784 0.931 . S
H750 C785 0.929 . S
H751 C787 0.929 . S
H752 C788 0.931 . S
H753 C790 0.929 . S
N754 C774 1.433 . S
N754 C780 1.435 . S
N754 C786 1.423 . S
H755 C791 0.932 . S
C756 N731 1.433 . S
C756 C757 1.363 . S
C756 C761 1.370 . S
C757 H730 0.929 . S
C757 C756 1.363 . S
C757 C758 1.385 . S
C758 H732 0.930 . S
C758 C757 1.385 . S
C758 C759 1.357 . S
C759 C758 1.357 . S
C759 C760 1.406 . S
C760 H734 0.929 . S
C760 C759 1.406 . S
C760 C761 1.391 . S
C761 H733 0.931 . S
C761 C756 1.370 . S
C761 C760 1.391 . S
C762 N731 1.435 . S
C762 C763 1.358 . S
C762 C767 1.371 . S
C763 H735 0.930 . S
C763 C762 1.358 . S
C763 C764 1.405 . S
C764 H736 0.932 . S
C764 C763 1.405 . S
C764 C765 1.383 . S
C765 C764 1.383 . S
C765 C766 1.393 . S
C766 H738 0.931 . S
C766 C765 1.393 . S
C766 C767 1.382 . S
C767 H737 0.929 . S
C767 C762 1.371 . S
C767 C766 1.382 . S
C768 N731 1.423 . S
C768 C769 1.362 . S
C768 C773 1.388 . S
C769 H739 0.929 . S
C769 C768 1.362 . S
C769 C770 1.376 . S
C770 H741 0.931 . S
C770 C769 1.376 . S
C770 C771 1.396 . S
C771 C770 1.396 . S
C771 C772 1.348 . S
C771 C789 1.472 . S
C772 H742 0.929 . S
C772 C771 1.348 . S
C772 C773 1.443 . S
C773 H740 0.932 . S
C773 C768 1.388 . S
C773 C772 1.443 . S
C774 N754 1.433 . S
C774 C775 1.363 . S
C774 C779 1.370 . S
C775 H743 0.929 . S
C775 C774 1.363 . S
C775 C776 1.385 . S
C776 H744 0.930 . S
C776 C775 1.385 . S
C776 C777 1.357 . S
C777 C776 1.357 . S
C777 C778 1.406 . S
C778 H745 0.929 . S
C778 C777 1.406 . S
C778 C779 1.391 . S
C779 H746 0.931 . S
C779 C774 1.370 . S
C779 C778 1.391 . S
C780 N754 1.435 . S
C780 C781 1.358 . S
C780 C785 1.371 . S
C781 H747 0.930 . S
C781 C780 1.358 . S
C781 C782 1.405 . S
C782 H748 0.932 . S
C782 C781 1.405 . S
C782 C783 1.383 . S
C783 C782 1.383 . S
C783 C784 1.393 . S
C784 H749 0.931 . S
C784 C783 1.393 . S
C784 C785 1.382 . S
C785 H750 0.929 . S
C785 C780 1.371 . S
C785 C784 1.382 . S
C786 N754 1.423 . S
C786 C787 1.362 . S
C786 C791 1.388 . S
C787 H751 0.929 . S
C787 C786 1.362 . S
C787 C788 1.376 . S
C788 H752 0.931 . S
C788 C787 1.376 . S
C788 C789 1.396 . S
C789 C771 1.472 . S
C789 C788 1.396 . S
C789 C790 1.348 . S
C790 H753 0.929 . S
C790 C789 1.348 . S
C790 C791 1.443 . S
C791 H755 0.932 . S
C791 C786 1.388 . S
C791 C790 1.443 . S
H792 C819 0.929 . S
N793 C818 1.433 . S
N793 C824 1.435 . S
N793 C830 1.423 . S
H794 C820 0.930 . S
H795 C823 0.931 . S
H796 C822 0.929 . S
H797 C825 0.930 . S
H798 C826 0.932 . S
H799 C829 0.929 . S
H800 C828 0.931 . S
H801 C831 0.929 . S
H802 C835 0.932 1_655 S
H803 C832 0.931 . S
H804 C834 0.936 . S
H805 C837 0.929 . S
H806 C838 0.930 . S
H807 C840 0.929 . S
H808 C841 0.931 . S
H809 C843 0.930 . S
H810 C844 0.932 . S
H811 C846 0.931 . S
H812 C847 0.929 . S
H813 C849 0.929 . S
H814 C850 0.931 . S
H815 C852 0.991 . S
N816 C836 1.433 . S
N816 C842 1.435 . S
N816 C848 1.423 . S
H817 C853 0.932 1_655 S
C818 N793 1.433 . S
C818 C819 1.363 . S
C818 C823 1.370 1_455 S
C819 H792 0.929 . S
C819 C818 1.363 . S
C819 C820 1.385 . S
C820 H794 0.930 . S
C820 C819 1.385 . S
C820 C821 1.357 1_455 S
C821 C820 1.357 1_655 S
C821 C822 1.406 . S
C822 H796 0.929 . S
C822 C821 1.406 . S
C822 C823 1.391 . S
C823 H795 0.931 . S
C823 C818 1.370 1_655 S
C823 C822 1.391 . S
C824 N793 1.435 . S
C824 C825 1.358 1_455 S
C824 C829 1.371 . S
C825 H797 0.930 . S
C825 C824 1.358 1_655 S
C825 C826 1.405 . S
C826 H798 0.932 . S
C826 C825 1.405 . S
C826 C827 1.383 1_655 S
C827 C826 1.383 1_455 S
C827 C828 1.393 . S
C828 H800 0.931 . S
C828 C827 1.393 . S
C828 C829 1.382 . S
C829 H799 0.929 . S
C829 C824 1.371 . S
C829 C828 1.382 . S
C830 N793 1.423 . S
C830 C831 1.362 . S
C830 C835 1.388 . S
C831 H801 0.929 . S
C831 C830 1.362 . S
C831 C832 1.376 . S
C832 H803 0.931 . S
C832 C831 1.376 . S
C832 C833 1.396 . S
C833 C832 1.396 . S
C833 C834 1.348 . S
C833 C851 1.472 . S
C834 H804 0.936 . S
C834 C833 1.348 . S
C834 C835 1.443 . S
C835 H802 0.932 1_455 S
C835 C830 1.388 . S
C835 C834 1.443 . S
C836 N816 1.433 . S
C836 C837 1.363 . S
C836 C841 1.370 1_455 S
C837 H805 0.929 . S
C837 C836 1.363 . S
C837 C838 1.385 . S
C838 H806 0.930 . S
C838 C837 1.385 . S
C838 C839 1.357 1_455 S
C839 C838 1.357 1_655 S
C839 C840 1.406 . S
C840 H807 0.929 . S
C840 C839 1.406 . S
C840 C841 1.391 . S
C841 H808 0.931 . S
C841 C836 1.370 1_655 S
C841 C840 1.391 . S
C842 N816 1.435 . S
C842 C843 1.358 1_455 S
C842 C847 1.371 . S
C843 H809 0.930 . S
C843 C842 1.358 1_655 S
C843 C844 1.405 . S
C844 H810 0.932 . S
C844 C843 1.405 . S
C844 C845 1.383 1_655 S
C845 C844 1.383 1_455 S
C845 C846 1.393 . S
C846 H811 0.931 . S
C846 C845 1.393 . S
C846 C847 1.382 . S
C847 H812 0.929 . S
C847 C842 1.371 . S
C847 C846 1.382 . S
C848 N816 1.423 . S
C848 C849 1.362 . S
C848 C853 1.388 . S
C849 H813 0.929 . S
C849 C848 1.362 . S
C849 C850 1.376 . S
C850 H814 0.931 . S
C850 C849 1.376 . S
C850 C851 1.396 . S
C851 C833 1.472 . S
C851 C850 1.396 . S
C851 C852 1.348 . S
C852 H815 0.991 . S
C852 C851 1.348 . S
C852 C853 1.443 . S
C853 H817 0.932 1_455 S
C853 C848 1.388 . S
C853 C852 1.443 . S
H854 C881 0.929 . S
N855 C880 1.433 . S
N855 C886 1.435 . S
N855 C892 1.423 . S
H856 C882 0.930 . S
H857 C885 0.931 . S
H858 C884 0.929 . S
H859 C887 0.930 . S
H860 C888 0.932 . S
H861 C891 0.929 . S
H862 C890 0.931 . S
H863 C893 0.929 . S
H864 C897 0.932 . S
H865 C894 0.931 . S
H866 C896 0.929 . S
H867 C899 0.929 . S
H868 C900 0.930 . S
H869 C902 0.929 . S
H870 C903 0.931 . S
H871 C905 0.930 . S
H872 C906 0.932 . S
H873 C908 0.931 . S
H874 C909 0.929 . S
H875 C911 0.929 . S
H876 C912 0.931 . S
H877 C914 0.929 . S
N878 C898 1.433 . S
N878 C904 1.435 . S
N878 C910 1.423 . S
H879 C915 0.932 . S
C880 N855 1.433 . S
C880 C881 1.363 . S
C880 C885 1.370 . S
C881 H854 0.929 . S
C881 C880 1.363 . S
C881 C882 1.385 . S
C882 H856 0.930 . S
C882 C881 1.385 . S
C882 C883 1.357 . S
C883 C882 1.357 . S
C883 C884 1.406 . S
C884 H858 0.929 . S
C884 C883 1.406 . S
C884 C885 1.391 . S
C885 H857 0.931 . S
C885 C880 1.370 . S
C885 C884 1.391 . S
C886 N855 1.435 . S
C886 C887 1.358 . S
C886 C891 1.371 . S
C887 H859 0.930 . S
C887 C886 1.358 . S
C887 C888 1.405 . S
C888 H860 0.932 . S
C888 C887 1.405 . S
C888 C889 1.383 . S
C889 C888 1.383 . S
C889 C890 1.393 . S
C890 H862 0.931 . S
C890 C889 1.393 . S
C890 C891 1.382 . S
C891 H861 0.929 . S
C891 C886 1.371 . S
C891 C890 1.382 . S
C892 N855 1.423 . S
C892 C893 1.362 . S
C892 C897 1.388 . S
C893 H863 0.929 . S
C893 C892 1.362 . S
C893 C894 1.376 . S
C894 H865 0.931 . S
C894 C893 1.376 . S
C894 C895 1.396 . S
C895 C894 1.396 . S
C895 C896 1.348 . S
C895 C913 1.472 . S
C896 H866 0.929 . S
C896 C895 1.348 . S
C896 C897 1.443 . S
C897 H864 0.932 . S
C897 C892 1.388 . S
C897 C896 1.443 . S
C898 N878 1.433 . S
C898 C899 1.363 . S
C898 C903 1.370 . S
C899 H867 0.929 . S
C899 C898 1.363 . S
C899 C900 1.385 . S
C900 H868 0.930 . S
C900 C899 1.385 . S
C900 C901 1.357 . S
C901 C900 1.357 . S
C901 C902 1.406 . S
C902 H869 0.929 . S
C902 C901 1.406 . S
C902 C903 1.391 . S
C903 H870 0.931 . S
C903 C898 1.370 . S
C903 C902 1.391 . S
C904 N878 1.435 . S
C904 C905 1.358 . S
C904 C909 1.371 . S
C905 H871 0.930 . S
C905 C904 1.358 . S
C905 C906 1.405 . S
C906 H872 0.932 . S
C906 C905 1.405 . S
C906 C907 1.383 . S
C907 C906 1.383 . S
C907 C908 1.393 . S
C908 H873 0.931 . S
C908 C907 1.393 . S
C908 C909 1.382 . S
C909 H874 0.929 . S
C909 C904 1.371 . S
C909 C908 1.382 . S
C910 N878 1.423 . S
C910 C911 1.362 . S
C910 C915 1.388 . S
C911 H875 0.929 . S
C911 C910 1.362 . S
C911 C912 1.376 . S
C912 H876 0.931 . S
C912 C911 1.376 . S
C912 C913 1.396 . S
C913 C895 1.472 . S
C913 C912 1.396 . S
C913 C914 1.348 . S
C914 H877 0.929 . S
C914 C913 1.348 . S
C914 C915 1.443 . S
C915 H879 0.932 . S
C915 C910 1.388 . S
C915 C914 1.443 . S
H916 C943 0.929 . S
N917 C942 1.433 . S
N917 C948 1.435 . S
N917 C954 1.423 . S
H918 C944 0.930 . S
H919 C947 0.931 . S
H920 C946 0.929 . S
H921 C949 0.930 . S
H922 C950 0.932 . S
H923 C953 0.929 . S
H924 C952 0.931 . S
H925 C955 0.929 . S
H926 C959 0.932 1_545 S
H927 C956 0.931 . S
H928 C958 0.929 . S
H929 C961 0.929 . S
H930 C962 0.930 . S
H931 C964 0.929 . S
H932 C965 0.931 . S
H933 C967 0.930 . S
H934 C968 0.932 . S
H935 C970 0.931 . S
H936 C971 0.929 . S
H937 C973 0.929 . S
H938 C974 0.931 . S
H939 C976 0.939 . S
N940 C960 1.433 . S
N940 C966 1.435 . S
N940 C972 1.423 . S
H941 C977 0.932 1_545 S
C942 N917 1.433 . S
C942 C943 1.363 . S
C942 C947 1.370 1_565 S
C943 H916 0.929 . S
C943 C942 1.363 . S
C943 C944 1.385 . S
C944 H918 0.930 . S
C944 C943 1.385 . S
C944 C945 1.357 1_565 S
C945 C944 1.357 1_545 S
C945 C946 1.406 . S
C946 H920 0.929 . S
C946 C945 1.406 . S
C946 C947 1.391 . S
C947 H919 0.931 . S
C947 C942 1.370 1_545 S
C947 C946 1.391 . S
C948 N917 1.435 . S
C948 C949 1.358 1_565 S
C948 C953 1.371 . S
C949 H921 0.930 . S
C949 C948 1.358 1_545 S
C949 C950 1.405 . S
C950 H922 0.932 . S
C950 C949 1.405 . S
C950 C951 1.383 1_545 S
C951 C950 1.383 1_565 S
C951 C952 1.393 . S
C952 H924 0.931 . S
C952 C951 1.393 . S
C952 C953 1.382 . S
C953 H923 0.929 . S
C953 C948 1.371 . S
C953 C952 1.382 . S
C954 N917 1.423 . S
C954 C955 1.362 . S
C954 C959 1.388 . S
C955 H925 0.929 . S
C955 C954 1.362 . S
C955 C956 1.376 . S
C956 H927 0.931 . S
C956 C955 1.376 . S
C956 C957 1.396 . S
C957 C956 1.396 . S
C957 C958 1.348 . S
C957 C975 1.472 . S
C958 H928 0.929 . S
C958 C957 1.348 . S
C958 C959 1.443 . S
C959 H926 0.932 1_565 S
C959 C954 1.388 . S
C959 C958 1.443 . S
C960 N940 1.433 . S
C960 C961 1.363 . S
C960 C965 1.370 1_565 S
C961 H929 0.929 . S
C961 C960 1.363 . S
C961 C962 1.385 . S
C962 H930 0.930 . S
C962 C961 1.385 . S
C962 C963 1.357 1_565 S
C963 C962 1.357 1_545 S
C963 C964 1.406 . S
C964 H931 0.929 . S
C964 C963 1.406 . S
C964 C965 1.391 . S
C965 H932 0.931 . S
C965 C960 1.370 1_545 S
C965 C964 1.391 . S
C966 N940 1.435 . S
C966 C967 1.358 1_565 S
C966 C971 1.371 . S
C967 H933 0.930 . S
C967 C966 1.358 1_545 S
C967 C968 1.405 . S
C968 H934 0.932 . S
C968 C967 1.405 . S
C968 C969 1.383 1_545 S
C969 C968 1.383 1_565 S
C969 C970 1.393 . S
C970 H935 0.931 . S
C970 C969 1.393 . S
C970 C971 1.382 . S
C971 H936 0.929 . S
C971 C966 1.371 . S
C971 C970 1.382 . S
C972 N940 1.423 . S
C972 C973 1.362 . S
C972 C977 1.388 . S
C973 H937 0.929 . S
C973 C972 1.362 . S
C973 C974 1.376 . S
C974 H938 0.931 . S
C974 C973 1.376 . S
C974 C975 1.396 . S
C975 C957 1.472 . S
C975 C974 1.396 . S
C975 C976 1.348 . S
C976 H939 0.939 . S
C976 C975 1.348 . S
C976 C977 1.443 . S
C977 H941 0.932 1_565 S
C977 C972 1.388 . S
C977 C976 1.443 . S
H978 C1005 0.929 . S
N979 C1004 1.433 . S
N979 C1010 1.435 . S
N979 C1016 1.423 . S
H980 C1006 0.930 . S
H981 C1009 0.931 . S
H982 C1008 0.929 . S
H983 C1011 0.930 . S
H984 C1012 0.932 . S
H985 C1015 0.929 . S
H986 C1014 0.931 . S
H987 C1017 0.929 . S
H988 C1021 0.932 . S
H989 C1018 0.931 . S
H990 C1020 0.922 1_545 S
H991 C1023 0.929 . S
H992 C1024 0.930 . S
H993 C1026 0.972 . S
H994 C1027 0.958 . S
H995 C1029 0.930 . S
H996 C1030 0.932 . S
H997 C1032 0.931 . S
H998 C1033 0.929 . S
H999 C1035 0.929 . S
H1000 C1036 0.931 . S
H1001 C1038 0.879 1_545 S
N1002 C1022 1.433 . S
N1002 C1028 1.435 . S
N1002 C1034 1.423 . S
H1003 C1039 0.954 . S
C1004 N979 1.433 . S
C1004 C1005 1.363 . S
C1004 C1009 1.370 1_565 S
C1005 H978 0.929 . S
C1005 C1004 1.363 . S
C1005 C1006 1.385 . S
C1006 H980 0.930 . S
C1006 C1005 1.385 . S
C1006 C1007 1.357 . S
C1007 C1006 1.357 . S
C1007 C1008 1.406 1_565 S
C1008 H982 0.929 . S
C1008 C1007 1.406 1_545 S
C1008 C1009 1.391 . S
C1009 H981 0.931 . S
C1009 C1004 1.370 1_545 S
C1009 C1008 1.391 . S
C1010 N979 1.435 . S
C1010 C1011 1.358 1_565 S
C1010 C1015 1.371 . S
C1011 H983 0.930 . S
C1011 C1010 1.358 1_545 S
C1011 C1012 1.405 . S
C1012 H984 0.932 . S
C1012 C1011 1.405 . S
C1012 C1013 1.383 . S
C1013 C1012 1.383 . S
C1013 C1014 1.393 1_545 S
C1014 H986 0.931 . S
C1014 C1013 1.393 1_565 S
C1014 C1015 1.382 . S
C1015 H985 0.929 . S
C1015 C1010 1.371 . S
C1015 C1014 1.382 . S
C1016 N979 1.423 . S
C1016 C1017 1.362 . S
C1016 C1021 1.388 1_565 S
C1017 H987 0.929 . S
C1017 C1016 1.362 . S
C1017 C1018 1.376 . S
C1018 H989 0.931 . S
C1018 C1017 1.376 . S
C1018 C1019 1.396 . S
C1019 C1018 1.396 . S
C1019 C1020 1.380 . S
C1019 C1037 1.472 . S
C1020 H990 0.922 1_565 S
C1020 C1019 1.380 . S
C1020 C1021 1.419 1_565 S
C1021 H988 0.932 . S
C1021 C1016 1.388 1_545 S
C1021 C1020 1.419 1_545 S
C1022 N1002 1.433 . S
C1022 C1023 1.363 . S
C1022 C1027 1.350 1_565 S
C1023 H991 0.929 . S
C1023 C1022 1.363 . S
C1023 C1024 1.385 . S
C1024 H992 0.930 . S
C1024 C1023 1.385 . S
C1024 C1025 1.357 . S
C1025 C1024 1.357 . S
C1025 C1026 1.353 1_565 S
C1026 H993 0.972 . S
C1026 C1025 1.353 1_545 S
C1026 C1027 1.398 . S
C1027 H994 0.958 . S
C1027 C1022 1.350 1_545 S
C1027 C1026 1.398 . S
C1028 N1002 1.435 . S
C1028 C1029 1.358 1_565 S
C1028 C1033 1.371 . S
C1029 H995 0.930 . S
C1029 C1028 1.358 1_545 S
C1029 C1030 1.405 . S
C1030 H996 0.932 . S
C1030 C1029 1.405 . S
C1030 C1031 1.383 . S
C1031 C1030 1.383 . S
C1031 C1032 1.393 1_545 S
C1032 H997 0.931 . S
C1032 C1031 1.393 1_565 S
C1032 C1033 1.382 . S
C1033 H998 0.929 . S
C1033 C1028 1.371 . S
C1033 C1032 1.382 . S
C1034 N1002 1.423 . S
C1034 C1035 1.362 . S
C1034 C1039 1.340 1_565 S
C1035 H999 0.929 . S
C1035 C1034 1.362 . S
C1035 C1036 1.376 . S
C1036 H1000 0.931 . S
C1036 C1035 1.376 . S
C1036 C1037 1.396 . S
C1037 C1019 1.472 . S
C1037 C1036 1.396 . S
C1037 C1038 1.368 . S
C1038 H1001 0.879 1_565 S
C1038 C1037 1.368 . S
C1038 C1039 1.506 1_565 S
C1039 H1003 0.954 . S
C1039 C1034 1.340 1_545 S
C1039 C1038 1.506 1_545 S
H1040 C1067 0.929 . S
N1041 C1066 1.433 . S
N1041 C1072 1.435 . S
N1041 C1078 1.423 . S
H1042 C1068 0.930 . S
H1043 C1071 0.931 . S
H1044 C1070 0.929 . S
H1045 C1073 0.930 . S
H1046 C1074 0.932 . S
H1047 C1077 0.929 . S
H1048 C1076 0.931 . S
H1049 C1079 0.929 . S
H1050 C1083 0.932 1_455 S
H1051 C1080 0.931 . S
H1052 C1082 0.929 . S
H1053 C1085 0.929 . S
H1054 C1086 0.930 . S
H1055 C1088 0.929 . S
H1056 C1089 0.931 . S
H1057 C1091 0.930 . S
H1058 C1092 0.932 . S
H1059 C1094 0.931 . S
H1060 C1095 0.929 . S
H1061 C1097 0.929 . S
H1062 C1098 0.931 . S
H1063 C1100 0.938 . S
N1064 C1084 1.433 . S
N1064 C1090 1.435 . S
N1064 C1096 1.423 . S
H1065 C1101 0.932 1_455 S
C1066 N1041 1.433 . S
C1066 C1067 1.363 . S
C1066 C1071 1.370 1_655 S
C1067 H1040 0.929 . S
C1067 C1066 1.363 . S
C1067 C1068 1.385 . S
C1068 H1042 0.930 . S
C1068 C1067 1.385 . S
C1068 C1069 1.357 1_655 S
C1069 C1068 1.357 1_455 S
C1069 C1070 1.406 . S
C1070 H1044 0.929 . S
C1070 C1069 1.406 . S
C1070 C1071 1.391 . S
C1071 H1043 0.931 . S
C1071 C1066 1.370 1_455 S
C1071 C1070 1.391 . S
C1072 N1041 1.435 . S
C1072 C1073 1.358 1_655 S
C1072 C1077 1.371 . S
C1073 H1045 0.930 . S
C1073 C1072 1.358 1_455 S
C1073 C1074 1.405 . S
C1074 H1046 0.932 . S
C1074 C1073 1.405 . S
C1074 C1075 1.383 1_455 S
C1075 C1074 1.383 1_655 S
C1075 C1076 1.393 . S
C1076 H1048 0.931 . S
C1076 C1075 1.393 . S
C1076 C1077 1.382 . S
C1077 H1047 0.929 . S
C1077 C1072 1.371 . S
C1077 C1076 1.382 . S
C1078 N1041 1.423 . S
C1078 C1079 1.362 . S
C1078 C1083 1.388 . S
C1079 H1049 0.929 . S
C1079 C1078 1.362 . S
C1079 C1080 1.376 . S
C1080 H1051 0.931 . S
C1080 C1079 1.376 . S
C1080 C1081 1.396 . S
C1081 C1080 1.396 . S
C1081 C1082 1.348 . S
C1081 C1099 1.472 . S
C1082 H1052 0.929 . S
C1082 C1081 1.348 . S
C1082 C1083 1.443 . S
C1083 H1050 0.932 1_655 S
C1083 C1078 1.388 . S
C1083 C1082 1.443 . S
C1084 N1064 1.433 . S
C1084 C1085 1.363 . S
C1084 C1089 1.370 1_655 S
C1085 H1053 0.929 . S
C1085 C1084 1.363 . S
C1085 C1086 1.385 . S
C1086 H1054 0.930 . S
C1086 C1085 1.385 . S
C1086 C1087 1.357 1_655 S
C1087 C1086 1.357 1_455 S
C1087 C1088 1.406 . S
C1088 H1055 0.929 . S
C1088 C1087 1.406 . S
C1088 C1089 1.391 . S
C1089 H1056 0.931 . S
C1089 C1084 1.370 1_455 S
C1089 C1088 1.391 . S
C1090 N1064 1.435 . S
C1090 C1091 1.358 1_655 S
C1090 C1095 1.371 . S
C1091 H1057 0.930 . S
C1091 C1090 1.358 1_455 S
C1091 C1092 1.405 . S
C1092 H1058 0.932 . S
C1092 C1091 1.405 . S
C1092 C1093 1.383 1_455 S
C1093 C1092 1.383 1_655 S
C1093 C1094 1.393 . S
C1094 H1059 0.931 . S
C1094 C1093 1.393 . S
C1094 C1095 1.382 . S
C1095 H1060 0.929 . S
C1095 C1090 1.371 . S
C1095 C1094 1.382 . S
C1096 N1064 1.423 . S
C1096 C1097 1.362 . S
C1096 C1101 1.388 . S
C1097 H1061 0.929 . S
C1097 C1096 1.362 . S
C1097 C1098 1.376 . S
C1098 H1062 0.931 . S
C1098 C1097 1.376 . S
C1098 C1099 1.396 . S
C1099 C1081 1.472 . S
C1099 C1098 1.396 . S
C1099 C1100 1.348 . S
C1100 H1063 0.938 . S
C1100 C1099 1.348 . S
C1100 C1101 1.443 . S
C1101 H1065 0.932 1_655 S
C1101 C1096 1.388 . S
C1101 C1100 1.443 . S
H1102 C1129 0.929 . S
N1103 C1128 1.433 . S
N1103 C1134 1.435 . S
N1103 C1140 1.423 . S
H1104 C1130 0.930 . S
H1105 C1133 0.931 . S
H1106 C1132 0.929 . S
H1107 C1135 0.930 . S
H1108 C1136 0.932 . S
H1109 C1139 0.929 . S
H1110 C1138 0.931 . S
H1111 C1141 0.929 . S
H1112 C1145 0.932 . S
H1113 C1142 0.931 . S
H1114 C1144 0.929 . S
H1115 C1147 0.929 . S
H1116 C1148 0.930 . S
H1117 C1150 0.929 . S
H1118 C1151 0.931 . S
H1119 C1153 0.930 . S
H1120 C1154 0.932 . S
H1121 C1156 0.931 . S
H1122 C1157 0.929 . S
H1123 C1159 0.929 . S
H1124 C1160 0.931 . S
H1125 C1162 0.929 . S
N1126 C1146 1.433 . S
N1126 C1152 1.435 . S
N1126 C1158 1.423 . S
H1127 C1163 0.932 . S
C1128 N1103 1.433 . S
C1128 C1129 1.363 . S
C1128 C1133 1.370 . S
C1129 H1102 0.929 . S
C1129 C1128 1.363 . S
C1129 C1130 1.385 . S
C1130 H1104 0.930 . S
C1130 C1129 1.385 . S
C1130 C1131 1.357 . S
C1131 C1130 1.357 . S
C1131 C1132 1.406 . S
C1132 H1106 0.929 . S
C1132 C1131 1.406 . S
C1132 C1133 1.391 . S
C1133 H1105 0.931 . S
C1133 C1128 1.370 . S
C1133 C1132 1.391 . S
C1134 N1103 1.435 . S
C1134 C1135 1.358 . S
C1134 C1139 1.371 . S
C1135 H1107 0.930 . S
C1135 C1134 1.358 . S
C1135 C1136 1.405 . S
C1136 H1108 0.932 . S
C1136 C1135 1.405 . S
C1136 C1137 1.383 . S
C1137 C1136 1.383 . S
C1137 C1138 1.393 . S
C1138 H1110 0.931 . S
C1138 C1137 1.393 . S
C1138 C1139 1.382 . S
C1139 H1109 0.929 . S
C1139 C1134 1.371 . S
C1139 C1138 1.382 . S
C1140 N1103 1.423 . S
C1140 C1141 1.362 . S
C1140 C1145 1.388 . S
C1141 H1111 0.929 . S
C1141 C1140 1.362 . S
C1141 C1142 1.376 . S
C1142 H1113 0.931 . S
C1142 C1141 1.376 . S
C1142 C1143 1.396 . S
C1143 C1142 1.396 . S
C1143 C1144 1.348 . S
C1143 C1161 1.472 . S
C1144 H1114 0.929 . S
C1144 C1143 1.348 . S
C1144 C1145 1.443 . S
C1145 H1112 0.932 . S
C1145 C1140 1.388 . S
C1145 C1144 1.443 . S
C1146 N1126 1.433 . S
C1146 C1147 1.363 . S
C1146 C1151 1.370 . S
C1147 H1115 0.929 . S
C1147 C1146 1.363 . S
C1147 C1148 1.385 . S
C1148 H1116 0.930 . S
C1148 C1147 1.385 . S
C1148 C1149 1.357 . S
C1149 C1148 1.357 . S
C1149 C1150 1.406 . S
C1150 H1117 0.929 . S
C1150 C1149 1.406 . S
C1150 C1151 1.391 . S
C1151 H1118 0.931 . S
C1151 C1146 1.370 . S
C1151 C1150 1.391 . S
C1152 N1126 1.435 . S
C1152 C1153 1.358 . S
C1152 C1157 1.371 . S
C1153 H1119 0.930 . S
C1153 C1152 1.358 . S
C1153 C1154 1.405 . S
C1154 H1120 0.932 . S
C1154 C1153 1.405 . S
C1154 C1155 1.383 . S
C1155 C1154 1.383 . S
C1155 C1156 1.393 . S
C1156 H1121 0.931 . S
C1156 C1155 1.393 . S
C1156 C1157 1.382 . S
C1157 H1122 0.929 . S
C1157 C1152 1.371 . S
C1157 C1156 1.382 . S
C1158 N1126 1.423 . S
C1158 C1159 1.362 . S
C1158 C1163 1.388 . S
C1159 H1123 0.929 . S
C1159 C1158 1.362 . S
C1159 C1160 1.376 . S
C1160 H1124 0.931 . S
C1160 C1159 1.376 . S
C1160 C1161 1.396 . S
C1161 C1143 1.472 . S
C1161 C1160 1.396 . S
C1161 C1162 1.348 . S
C1162 H1125 0.929 . S
C1162 C1161 1.348 . S
C1162 C1163 1.443 . S
C1163 H1127 0.932 . S
C1163 C1158 1.388 . S
C1163 C1162 1.443 . S
H1164 C1191 0.929 . S
N1165 C1190 1.433 . S
N1165 C1196 1.435 . S
N1165 C1202 1.423 . S
H1166 C1192 0.930 . S
H1167 C1195 0.931 . S
H1168 C1194 0.929 . S
H1169 C1197 0.930 . S
H1170 C1198 0.932 . S
H1171 C1201 0.929 . S
H1172 C1200 0.931 . S
H1173 C1203 0.929 . S
H1174 C1207 0.932 . S
H1175 C1204 0.931 . S
H1176 C1206 0.929 . S
H1177 C1209 0.929 . S
H1178 C1210 0.930 . S
H1179 C1212 0.929 . S
H1180 C1213 0.931 . S
H1181 C1215 0.930 . S
H1182 C1216 0.932 . S
H1183 C1218 0.931 . S
H1184 C1219 0.929 . S
H1185 C1221 0.929 . S
H1186 C1222 0.931 . S
H1187 C1224 0.929 . S
N1188 C1208 1.433 . S
N1188 C1214 1.435 . S
N1188 C1220 1.423 . S
H1189 C1225 0.932 . S
C1190 N1165 1.433 . S
C1190 C1191 1.363 . S
C1190 C1195 1.370 . S
C1191 H1164 0.929 . S
C1191 C1190 1.363 . S
C1191 C1192 1.385 . S
C1192 H1166 0.930 . S
C1192 C1191 1.385 . S
C1192 C1193 1.357 . S
C1193 C1192 1.357 . S
C1193 C1194 1.406 . S
C1194 H1168 0.929 . S
C1194 C1193 1.406 . S
C1194 C1195 1.391 . S
C1195 H1167 0.931 . S
C1195 C1190 1.370 . S
C1195 C1194 1.391 . S
C1196 N1165 1.435 . S
C1196 C1197 1.358 . S
C1196 C1201 1.371 . S
C1197 H1169 0.930 . S
C1197 C1196 1.358 . S
C1197 C1198 1.405 . S
C1198 H1170 0.932 . S
C1198 C1197 1.405 . S
C1198 C1199 1.383 . S
C1199 C1198 1.383 . S
C1199 C1200 1.393 . S
C1200 H1172 0.931 . S
C1200 C1199 1.393 . S
C1200 C1201 1.382 . S
C1201 H1171 0.929 . S
C1201 C1196 1.371 . S
C1201 C1200 1.382 . S
C1202 N1165 1.423 . S
C1202 C1203 1.362 . S
C1202 C1207 1.388 . S
C1203 H1173 0.929 . S
C1203 C1202 1.362 . S
C1203 C1204 1.376 . S
C1204 H1175 0.931 . S
C1204 C1203 1.376 . S
C1204 C1205 1.396 . S
C1205 C1204 1.396 . S
C1205 C1206 1.348 . S
C1205 C1223 1.472 . S
C1206 H1176 0.929 . S
C1206 C1205 1.348 . S
C1206 C1207 1.443 . S
C1207 H1174 0.932 . S
C1207 C1202 1.388 . S
C1207 C1206 1.443 . S
C1208 N1188 1.433 . S
C1208 C1209 1.363 . S
C1208 C1213 1.370 . S
C1209 H1177 0.929 . S
C1209 C1208 1.363 . S
C1209 C1210 1.385 . S
C1210 H1178 0.930 . S
C1210 C1209 1.385 . S
C1210 C1211 1.357 . S
C1211 C1210 1.357 . S
C1211 C1212 1.406 . S
C1212 H1179 0.929 . S
C1212 C1211 1.406 . S
C1212 C1213 1.391 . S
C1213 H1180 0.931 . S
C1213 C1208 1.370 . S
C1213 C1212 1.391 . S
C1214 N1188 1.435 . S
C1214 C1215 1.358 . S
C1214 C1219 1.371 . S
C1215 H1181 0.930 . S
C1215 C1214 1.358 . S
C1215 C1216 1.405 . S
C1216 H1182 0.932 . S
C1216 C1215 1.405 . S
C1216 C1217 1.383 . S
C1217 C1216 1.383 . S
C1217 C1218 1.393 . S
C1218 H1183 0.931 . S
C1218 C1217 1.393 . S
C1218 C1219 1.382 . S
C1219 H1184 0.929 . S
C1219 C1214 1.371 . S
C1219 C1218 1.382 . S
C1220 N1188 1.423 . S
C1220 C1221 1.362 . S
C1220 C1225 1.388 . S
C1221 H1185 0.929 . S
C1221 C1220 1.362 . S
C1221 C1222 1.376 . S
C1222 H1186 0.931 . S
C1222 C1221 1.376 . S
C1222 C1223 1.396 . S
C1223 C1205 1.472 . S
C1223 C1222 1.396 . S
C1223 C1224 1.348 . S
C1224 H1187 0.929 . S
C1224 C1223 1.348 . S
C1224 C1225 1.443 . S
C1225 H1189 0.932 . S
C1225 C1220 1.388 . S
C1225 C1224 1.443 . S
H1226 C1253 0.929 . S
N1227 C1252 1.433 . S
N1227 C1258 1.435 . S
N1227 C1264 1.423 . S
H1228 C1254 0.930 . S
H1229 C1257 0.931 . S
H1230 C1256 0.929 . S
H1231 C1259 0.930 . S
H1232 C1260 0.932 . S
H1233 C1263 0.929 . S
H1234 C1262 0.931 . S
H1235 C1265 0.929 . S
H1236 C1269 0.932 . S
H1237 C1266 0.931 . S
H1238 C1268 0.929 . S
H1239 C1271 0.929 . S
H1240 C1272 0.930 . S
H1241 C1274 0.929 . S
H1242 C1275 0.931 . S
H1243 C1277 0.930 . S
H1244 C1278 0.932 . S
H1245 C1280 0.931 . S
H1246 C1281 0.929 . S
H1247 C1283 0.929 . S
H1248 C1284 0.931 . S
H1249 C1286 0.929 . S
N1250 C1270 1.433 . S
N1250 C1276 1.435 . S
N1250 C1282 1.423 . S
H1251 C1287 0.932 . S
C1252 N1227 1.433 . S
C1252 C1253 1.363 . S
C1252 C1257 1.370 . S
C1253 H1226 0.929 . S
C1253 C1252 1.363 . S
C1253 C1254 1.385 . S
C1254 H1228 0.930 . S
C1254 C1253 1.385 . S
C1254 C1255 1.357 . S
C1255 C1254 1.357 . S
C1255 C1256 1.406 . S
C1256 H1230 0.929 . S
C1256 C1255 1.406 . S
C1256 C1257 1.391 . S
C1257 H1229 0.931 . S
C1257 C1252 1.370 . S
C1257 C1256 1.391 . S
C1258 N1227 1.435 . S
C1258 C1259 1.358 . S
C1258 C1263 1.371 . S
C1259 H1231 0.930 . S
C1259 C1258 1.358 . S
C1259 C1260 1.405 . S
C1260 H1232 0.932 . S
C1260 C1259 1.405 . S
C1260 C1261 1.383 . S
C1261 C1260 1.383 . S
C1261 C1262 1.393 . S
C1262 H1234 0.931 . S
C1262 C1261 1.393 . S
C1262 C1263 1.382 . S
C1263 H1233 0.929 . S
C1263 C1258 1.371 . S
C1263 C1262 1.382 . S
C1264 N1227 1.423 . S
C1264 C1265 1.362 . S
C1264 C1269 1.388 . S
C1265 H1235 0.929 . S
C1265 C1264 1.362 . S
C1265 C1266 1.376 . S
C1266 H1237 0.931 . S
C1266 C1265 1.376 . S
C1266 C1267 1.396 . S
C1267 C1266 1.396 . S
C1267 C1268 1.348 . S
C1267 C1285 1.472 . S
C1268 H1238 0.929 . S
C1268 C1267 1.348 . S
C1268 C1269 1.443 . S
C1269 H1236 0.932 . S
C1269 C1264 1.388 . S
C1269 C1268 1.443 . S
C1270 N1250 1.433 . S
C1270 C1271 1.363 . S
C1270 C1275 1.370 . S
C1271 H1239 0.929 . S
C1271 C1270 1.363 . S
C1271 C1272 1.385 . S
C1272 H1240 0.930 . S
C1272 C1271 1.385 . S
C1272 C1273 1.357 . S
C1273 C1272 1.357 . S
C1273 C1274 1.406 . S
C1274 H1241 0.929 . S
C1274 C1273 1.406 . S
C1274 C1275 1.391 . S
C1275 H1242 0.931 . S
C1275 C1270 1.370 . S
C1275 C1274 1.391 . S
C1276 N1250 1.435 . S
C1276 C1277 1.358 . S
C1276 C1281 1.371 . S
C1277 H1243 0.930 . S
C1277 C1276 1.358 . S
C1277 C1278 1.405 . S
C1278 H1244 0.932 . S
C1278 C1277 1.405 . S
C1278 C1279 1.383 . S
C1279 C1278 1.383 . S
C1279 C1280 1.393 . S
C1280 H1245 0.931 . S
C1280 C1279 1.393 . S
C1280 C1281 1.382 . S
C1281 H1246 0.929 . S
C1281 C1276 1.371 . S
C1281 C1280 1.382 . S
C1282 N1250 1.423 . S
C1282 C1283 1.362 . S
C1282 C1287 1.388 . S
C1283 H1247 0.929 . S
C1283 C1282 1.362 . S
C1283 C1284 1.376 . S
C1284 H1248 0.931 . S
C1284 C1283 1.376 . S
C1284 C1285 1.396 . S
C1285 C1267 1.472 . S
C1285 C1284 1.396 . S
C1285 C1286 1.348 . S
C1286 H1249 0.929 . S
C1286 C1285 1.348 . S
C1286 C1287 1.443 . S
C1287 H1251 0.932 . S
C1287 C1282 1.388 . S
C1287 C1286 1.443 . S
H1288 C1315 0.929 . S
N1289 C1314 1.433 . S
N1289 C1320 1.435 . S
N1289 C1326 1.423 . S
H1290 C1316 0.930 . S
H1291 C1319 0.931 . S
H1292 C1318 0.929 . S
H1293 C1321 0.930 . S
H1294 C1322 0.932 . S
H1295 C1325 0.929 . S
H1296 C1324 0.931 . S
H1297 C1327 0.929 . S
H1298 C1331 0.932 . S
H1299 C1328 0.931 . S
H1300 C1330 0.929 . S
H1301 C1333 0.929 . S
H1302 C1334 0.930 . S
H1303 C1336 0.929 . S
H1304 C1337 0.931 . S
H1305 C1339 0.930 . S
H1306 C1340 0.932 . S
H1307 C1342 0.931 . S
H1308 C1343 0.929 . S
H1309 C1345 0.929 . S
H1310 C1346 0.931 . S
H1311 C1348 0.929 . S
N1312 C1332 1.433 . S
N1312 C1338 1.435 . S
N1312 C1344 1.423 . S
H1313 C1349 0.932 . S
C1314 N1289 1.433 . S
C1314 C1315 1.363 . S
C1314 C1319 1.370 . S
C1315 H1288 0.929 . S
C1315 C1314 1.363 . S
C1315 C1316 1.385 . S
C1316 H1290 0.930 . S
C1316 C1315 1.385 . S
C1316 C1317 1.357 . S
C1317 C1316 1.357 . S
C1317 C1318 1.406 . S
C1318 H1292 0.929 . S
C1318 C1317 1.406 . S
C1318 C1319 1.391 . S
C1319 H1291 0.931 . S
C1319 C1314 1.370 . S
C1319 C1318 1.391 . S
C1320 N1289 1.435 . S
C1320 C1321 1.358 . S
C1320 C1325 1.371 . S
C1321 H1293 0.930 . S
C1321 C1320 1.358 . S
C1321 C1322 1.405 . S
C1322 H1294 0.932 . S
C1322 C1321 1.405 . S
C1322 C1323 1.383 . S
C1323 C1322 1.383 . S
C1323 C1324 1.393 . S
C1324 H1296 0.931 . S
C1324 C1323 1.393 . S
C1324 C1325 1.382 . S
C1325 H1295 0.929 . S
C1325 C1320 1.371 . S
C1325 C1324 1.382 . S
C1326 N1289 1.423 . S
C1326 C1327 1.362 . S
C1326 C1331 1.388 . S
C1327 H1297 0.929 . S
C1327 C1326 1.362 . S
C1327 C1328 1.376 . S
C1328 H1299 0.931 . S
C1328 C1327 1.376 . S
C1328 C1329 1.396 . S
C1329 C1328 1.396 . S
C1329 C1330 1.348 . S
C1329 C1347 1.472 . S
C1330 H1300 0.929 . S
C1330 C1329 1.348 . S
C1330 C1331 1.443 . S
C1331 H1298 0.932 . S
C1331 C1326 1.388 . S
C1331 C1330 1.443 . S
C1332 N1312 1.433 . S
C1332 C1333 1.363 . S
C1332 C1337 1.370 . S
C1333 H1301 0.929 . S
C1333 C1332 1.363 . S
C1333 C1334 1.385 . S
C1334 H1302 0.930 . S
C1334 C1333 1.385 . S
C1334 C1335 1.357 . S
C1335 C1334 1.357 . S
C1335 C1336 1.406 . S
C1336 H1303 0.929 . S
C1336 C1335 1.406 . S
C1336 C1337 1.391 . S
C1337 H1304 0.931 . S
C1337 C1332 1.370 . S
C1337 C1336 1.391 . S
C1338 N1312 1.435 . S
C1338 C1339 1.358 . S
C1338 C1343 1.371 . S
C1339 H1305 0.930 . S
C1339 C1338 1.358 . S
C1339 C1340 1.405 . S
C1340 H1306 0.932 . S
C1340 C1339 1.405 . S
C1340 C1341 1.383 . S
C1341 C1340 1.383 . S
C1341 C1342 1.393 . S
C1342 H1307 0.931 . S
C1342 C1341 1.393 . S
C1342 C1343 1.382 . S
C1343 H1308 0.929 . S
C1343 C1338 1.371 . S
C1343 C1342 1.382 . S
C1344 N1312 1.423 . S
C1344 C1345 1.362 . S
C1344 C1349 1.388 . S
C1345 H1309 0.929 . S
C1345 C1344 1.362 . S
C1345 C1346 1.376 . S
C1346 H1310 0.931 . S
C1346 C1345 1.376 . S
C1346 C1347 1.396 . S
C1347 C1329 1.472 . S
C1347 C1346 1.396 . S
C1347 C1348 1.348 . S
C1348 H1311 0.929 . S
C1348 C1347 1.348 . S
C1348 C1349 1.443 . S
C1349 H1313 0.932 . S
C1349 C1344 1.388 . S
C1349 C1348 1.443 . S
C1350 C1351 1.349 . S
C1350 C1352 1.327 . S
C1350 H1375 0.950 . S
C1351 C1350 1.349 . S
C1351 C1367 1.349 1_655 S
C1352 C1350 1.327 . S
C1352 C1371 1.429 . S
C1352 H1376 0.950 . S
C1353 C1370 1.574 . S
C1353 C1372 1.368 1_455 S
C1353 H1377 0.949 . S
H1354 C1358 0.949 . S
C1355 C1356 1.349 1_455 S
C1355 C1357 1.327 . S
C1355 H1378 0.950 . S
C1356 C1355 1.349 1_655 S
C1356 C1368 1.349 . S
C1357 C1355 1.327 . S
C1357 C1373 1.429 1_455 S
C1357 H1379 0.950 . S
C1358 H1354 0.949 . S
C1358 C1366 1.574 . S
C1358 C1374 1.368 . S
H1359 C1367 0.950 . S
H1360 C1365 0.950 . S
H1361 C1366 0.949 . S
H1362 C1368 0.950 . S
H1363 C1369 0.950 . S
H1364 C1370 0.949 . S
C1365 H1360 0.950 . S
C1365 C1367 1.327 . S
C1365 C1371 1.429 1_455 S
C1366 C1358 1.574 . S
C1366 H1361 0.949 . S
C1366 C1372 1.368 . S
C1367 C1351 1.349 1_455 S
C1367 H1359 0.950 . S
C1367 C1365 1.327 . S
C1368 C1356 1.349 . S
C1368 H1362 0.950 . S
C1368 C1369 1.327 . S
C1369 H1363 0.950 . S
C1369 C1368 1.327 . S
C1369 C1373 1.429 . S
C1370 C1353 1.574 . S
C1370 H1364 0.949 . S
C1370 C1374 1.368 1_455 S
C1371 C1352 1.429 . S
C1371 C1365 1.429 1_655 S
C1371 C1372 1.523 . S
C1372 C1353 1.368 1_655 S
C1372 C1366 1.368 . S
C1372 C1371 1.523 . S
C1373 C1357 1.429 1_655 S
C1373 C1369 1.429 . S
C1373 C1374 1.523 . S
C1374 C1358 1.368 . S
C1374 C1370 1.368 1_655 S
C1374 C1373 1.523 . S
H1375 C1350 0.950 . S
H1376 C1352 0.950 . S
H1377 C1353 0.949 . S
H1378 C1355 0.950 . S
H1379 C1357 0.950 . S
C1380 C1381 1.349 . S
C1380 C1382 1.327 . S
C1380 H1405 0.950 . S
C1381 C1380 1.349 . S
C1381 C1397 1.349 . S
C1382 C1380 1.327 . S
C1382 C1401 1.429 . S
C1382 H1406 0.950 . S
C1383 C1400 1.574 . S
C1383 C1402 1.368 . S
C1383 H1407 0.949 . S
H1384 C1388 0.949 . S
C1385 C1386 1.349 . S
C1385 C1387 1.327 . S
C1385 H1408 0.950 . S
C1386 C1385 1.349 . S
C1386 C1398 1.349 . S
C1387 C1385 1.327 . S
C1387 C1403 1.429 . S
C1387 H1409 0.950 . S
C1388 H1384 0.949 . S
C1388 C1396 1.574 . S
C1388 C1404 1.368 . S
H1389 C1397 0.950 . S
H1390 C1395 0.950 . S
H1391 C1396 0.949 . S
H1392 C1398 0.950 . S
H1393 C1399 0.950 . S
H1394 C1400 0.949 . S
C1395 H1390 0.950 . S
C1395 C1397 1.327 . S
C1395 C1401 1.429 . S
C1396 C1388 1.574 . S
C1396 H1391 0.949 . S
C1396 C1402 1.368 . S
C1397 C1381 1.349 . S
C1397 H1389 0.950 . S
C1397 C1395 1.327 . S
C1398 C1386 1.349 . S
C1398 H1392 0.950 . S
C1398 C1399 1.327 . S
C1399 H1393 0.950 . S
C1399 C1398 1.327 . S
C1399 C1403 1.429 . S
C1400 C1383 1.574 . S
C1400 H1394 0.949 . S
C1400 C1404 1.368 . S
C1401 C1382 1.429 . S
C1401 C1395 1.429 . S
C1401 C1402 1.523 . S
C1402 C1383 1.368 . S
C1402 C1396 1.368 . S
C1402 C1401 1.523 . S
C1403 C1387 1.429 . S
C1403 C1399 1.429 . S
C1403 C1404 1.523 . S
C1404 C1388 1.368 . S
C1404 C1400 1.368 . S
C1404 C1403 1.523 . S
H1405 C1380 0.950 . S
H1406 C1382 0.950 . S
H1407 C1383 0.949 . S
H1408 C1385 0.950 . S
H1409 C1387 0.950 . S
C1410 C1411 1.349 . S
C1410 C1412 1.327 . S
C1410 H1435 0.950 . S
C1411 C1410 1.349 . S
C1411 C1427 1.349 . S
C1412 C1410 1.327 . S
C1412 C1431 1.429 . S
C1412 H1436 0.950 . S
C1413 C1430 1.574 . S
C1413 C1432 1.368 1_565 S
C1413 H1437 0.949 . S
H1414 C1418 0.949 . S
C1415 C1416 1.349 1_565 S
C1415 C1417 1.327 . S
C1415 H1438 0.950 . S
C1416 C1415 1.349 1_545 S
C1416 C1428 1.349 . S
C1417 C1415 1.327 . S
C1417 C1433 1.429 1_565 S
C1417 H1439 0.950 . S
C1418 H1414 0.949 . S
C1418 C1426 1.574 . S
C1418 C1434 1.368 . S
H1419 C1427 0.950 1_565 S
H1420 C1425 0.876 1_565 S
H1421 C1426 0.949 . S
H1422 C1428 0.950 . S
H1423 C1429 0.950 . S
H1424 C1430 0.949 . S
C1425 H1420 0.876 1_545 S
C1425 C1427 1.364 . S
C1425 C1431 1.467 . S
C1426 C1418 1.574 . S
C1426 H1421 0.949 . S
C1426 C1432 1.368 . S
C1427 C1411 1.349 . S
C1427 H1419 0.950 1_545 S
C1427 C1425 1.364 . S
C1428 C1416 1.349 . S
C1428 H1422 0.950 . S
C1428 C1429 1.327 . S
C1429 H1423 0.950 . S
C1429 C1428 1.327 . S
C1429 C1433 1.429 . S
C1430 C1413 1.574 . S
C1430 H1424 0.949 . S
C1430 C1434 1.368 1_565 S
C1431 C1412 1.429 . S
C1431 C1425 1.467 . S
C1431 C1432 1.523 . S
C1432 C1413 1.368 1_545 S
C1432 C1426 1.368 . S
C1432 C1431 1.523 . S
C1433 C1417 1.429 1_545 S
C1433 C1429 1.429 . S
C1433 C1434 1.523 . S
C1434 C1418 1.368 . S
C1434 C1430 1.368 1_545 S
C1434 C1433 1.523 . S
H1435 C1410 0.950 . S
H1436 C1412 0.950 . S
H1437 C1413 0.949 . S
H1438 C1415 0.950 . S
H1439 C1417 0.950 . S
C1440 C1441 1.349 1_565 S
C1440 C1442 1.327 . S
C1440 H1465 0.950 . S
C1441 C1440 1.349 1_545 S
C1441 C1457 1.349 . S
C1442 C1440 1.327 . S
C1442 C1461 1.423 1_565 S
C1442 H1466 0.950 . S
C1443 C1460 1.574 . S
C1443 C1462 1.357 1_545 S
C1443 H1467 0.949 . S
H1444 C1448 0.949 . S
C1445 C1446 1.349 1_545 S
C1445 C1447 1.327 . S
C1445 H1468 0.950 . S
C1446 C1445 1.349 1_565 S
C1446 C1458 1.349 . S
C1447 C1445 1.327 . S
C1447 C1463 1.429 1_545 S
C1447 H1469 0.950 . S
C1448 H1444 0.949 . S
C1448 C1456 1.574 . S
C1448 C1464 1.368 . S
H1449 C1457 0.950 . S
H1450 C1455 0.950 . S
H1451 C1456 0.949 . S
H1452 C1458 0.950 . S
H1453 C1459 0.950 . S
H1454 C1460 0.949 . S
C1455 H1450 0.950 . S
C1455 C1457 1.327 . S
C1455 C1461 1.446 . S
C1456 C1448 1.574 . S
C1456 H1451 0.949 . S
C1456 C1462 1.391 . S
C1457 C1441 1.349 . S
C1457 H1449 0.950 . S
C1457 C1455 1.327 . S
C1458 C1446 1.349 . S
C1458 H1452 0.950 . S
C1458 C1459 1.327 . S
C1459 H1453 0.950 . S
C1459 C1458 1.327 . S
C1459 C1463 1.429 . S
C1460 C1443 1.574 . S
C1460 H1454 0.949 . S
C1460 C1464 1.368 1_545 S
C1461 C1442 1.423 1_545 S
C1461 C1455 1.446 . S
C1461 C1462 1.500 1_545 S
C1462 C1443 1.357 1_565 S
C1462 C1456 1.391 . S
C1462 C1461 1.500 1_565 S
C1463 C1447 1.429 1_565 S
C1463 C1459 1.429 . S
C1463 C1464 1.523 . S
C1464 C1448 1.368 . S
C1464 C1460 1.368 1_565 S
C1464 C1463 1.523 . S
H1465 C1440 0.950 . S
H1466 C1442 0.950 . S
H1467 C1443 0.949 . S
H1468 C1445 0.950 . S
H1469 C1447 0.950 . S
C1470 C1471 1.349 1_655 S
C1470 C1472 1.327 . S
C1470 H1495 0.950 . S
C1471 C1470 1.349 1_455 S
C1471 C1487 1.349 . S
C1472 C1470 1.327 . S
C1472 C1491 1.429 1_655 S
C1472 H1496 0.950 . S
C1473 C1490 1.574 . S
C1473 C1492 1.368 . S
C1473 H1497 0.949 . S
H1474 C1478 0.949 . S
C1475 C1476 1.349 . S
C1475 C1477 1.327 . S
C1475 H1498 0.950 . S
C1476 C1475 1.349 . S
C1476 C1488 1.349 1_455 S
C1477 C1475 1.327 . S
C1477 C1493 1.429 . S
C1477 H1499 0.950 . S
C1478 H1474 0.949 . S
C1478 C1486 1.574 . S
C1478 C1494 1.368 1_655 S
H1479 C1487 0.950 . S
H1480 C1485 0.950 . S
H1481 C1486 0.949 . S
H1482 C1488 0.950 . S
H1483 C1489 0.950 . S
H1484 C1490 0.949 . S
C1485 H1480 0.950 . S
C1485 C1487 1.327 . S
C1485 C1491 1.429 . S
C1486 C1478 1.574 . S
C1486 H1481 0.949 . S
C1486 C1492 1.368 1_655 S
C1487 C1471 1.349 . S
C1487 H1479 0.950 . S
C1487 C1485 1.327 . S
C1488 C1476 1.349 1_655 S
C1488 H1482 0.950 . S
C1488 C1489 1.327 . S
C1489 H1483 0.950 . S
C1489 C1488 1.327 . S
C1489 C1493 1.429 1_655 S
C1490 C1473 1.574 . S
C1490 H1484 0.949 . S
C1490 C1494 1.368 . S
C1491 C1472 1.429 1_455 S
C1491 C1485 1.429 . S
C1491 C1492 1.523 . S
C1492 C1473 1.368 . S
C1492 C1486 1.368 1_455 S
C1492 C1491 1.523 . S
C1493 C1477 1.429 . S
C1493 C1489 1.429 1_455 S
C1493 C1494 1.523 . S
C1494 C1478 1.368 1_455 S
C1494 C1490 1.368 . S
C1494 C1493 1.523 . S
H1495 C1470 0.950 . S
H1496 C1472 0.950 . S
H1497 C1473 0.949 . S
H1498 C1475 0.950 . S
H1499 C1477 0.950 . S
C1500 C1501 1.349 . S
C1500 C1502 1.327 . S
C1500 H1525 0.950 . S
C1501 C1500 1.349 . S
C1501 C1517 1.349 . S
C1502 C1500 1.327 . S
C1502 C1521 1.429 . S
C1502 H1526 0.950 . S
C1503 C1520 1.574 . S
C1503 C1522 1.368 . S
C1503 H1527 0.949 . S
H1504 C1508 0.949 . S
C1505 C1506 1.349 . S
C1505 C1507 1.327 . S
C1505 H1528 0.950 . S
C1506 C1505 1.349 . S
C1506 C1518 1.349 . S
C1507 C1505 1.327 . S
C1507 C1523 1.429 . S
C1507 H1529 0.950 . S
C1508 H1504 0.949 . S
C1508 C1516 1.574 . S
C1508 C1524 1.368 . S
H1509 C1517 0.950 . S
H1510 C1515 0.950 . S
H1511 C1516 0.949 . S
H1512 C1518 0.950 . S
H1513 C1519 0.950 . S
H1514 C1520 0.949 . S
C1515 H1510 0.950 . S
C1515 C1517 1.327 . S
C1515 C1521 1.429 . S
C1516 C1508 1.574 . S
C1516 H1511 0.949 . S
C1516 C1522 1.368 . S
C1517 C1501 1.349 . S
C1517 H1509 0.950 . S
C1517 C1515 1.327 . S
C1518 C1506 1.349 . S
C1518 H1512 0.950 . S
C1518 C1519 1.327 . S
C1519 H1513 0.950 . S
C1519 C1518 1.327 . S
C1519 C1523 1.429 . S
C1520 C1503 1.574 . S
C1520 H1514 0.949 . S
C1520 C1524 1.368 . S
C1521 C1502 1.429 . S
C1521 C1515 1.429 . S
C1521 C1522 1.523 . S
C1522 C1503 1.368 . S
C1522 C1516 1.368 . S
C1522 C1521 1.523 . S
C1523 C1507 1.429 . S
C1523 C1519 1.429 . S
C1523 C1524 1.523 . S
C1524 C1508 1.368 . S
C1524 C1520 1.368 . S
C1524 C1523 1.523 . S
H1525 C1500 0.950 . S
H1526 C1502 0.950 . S
H1527 C1503 0.949 . S
H1528 C1505 0.950 . S
H1529 C1507 0.950 . S
C1530 C1531 1.350 . S
C1530 C1532 1.327 1_455 S
C1530 H1555 0.952 1_455 S
C1531 C1530 1.350 . S
C1531 C1547 1.349 . S
C1532 C1530 1.327 1_655 S
C1532 C1551 1.426 1_655 S
C1532 H1556 0.948 . S
C1533 C1550 1.574 . S
C1533 C1552 1.368 . S
C1533 H1557 0.949 . S
H1534 C1538 0.939 . S
C1535 C1536 1.349 . S
C1535 C1537 1.327 . S
C1535 H1558 0.950 . S
C1536 C1535 1.349 . S
C1536 C1548 1.336 1_455 S
C1537 C1535 1.327 . S
C1537 C1553 1.429 . S
C1537 H1559 0.950 . S
C1538 H1534 0.939 . S
C1538 C1546 1.579 . S
C1538 C1554 1.357 1_655 S
H1539 C1547 0.950 . S
H1540 C1545 0.950 . S
H1541 C1546 0.966 . S
H1542 C1548 0.942 . S
H1543 C1549 0.966 . S
H1544 C1550 0.949 . S
C1545 H1540 0.950 . S
C1545 C1547 1.327 . S
C1545 C1551 1.429 . S
C1546 C1538 1.579 . S
C1546 H1541 0.966 . S
C1546 C1552 1.377 1_655 S
C1547 C1531 1.349 . S
C1547 H1539 0.950 . S
C1547 C1545 1.327 . S
C1548 C1536 1.336 1_655 S
C1548 H1542 0.942 . S
C1548 C1549 1.326 . S
C1549 H1543 0.966 . S
C1549 C1548 1.326 . S
C1549 C1553 1.442 1_655 S
C1550 C1533 1.574 . S
C1550 H1544 0.949 . S
C1550 C1554 1.368 . S
C1551 C1532 1.426 1_455 S
C1551 C1545 1.429 . S
C1551 C1552 1.523 . S
C1552 C1533 1.368 . S
C1552 C1546 1.377 1_455 S
C1552 C1551 1.523 . S
C1553 C1537 1.429 . S
C1553 C1549 1.442 1_455 S
C1553 C1554 1.523 . S
C1554 C1538 1.357 1_455 S
C1554 C1550 1.368 . S
C1554 C1553 1.523 . S
H1555 C1530 0.952 1_655 S
H1556 C1532 0.948 . S
H1557 C1533 0.949 . S
H1558 C1535 0.950 . S
H1559 C1537 0.950 . S
C1560 C1561 1.349 . S
C1560 C1562 1.327 . S
C1560 H1585 0.950 . S
C1561 C1560 1.349 . S
C1561 C1577 1.349 . S
C1562 C1560 1.327 . S
C1562 C1581 1.429 . S
C1562 H1586 0.950 . S
C1563 C1580 1.574 . S
C1563 C1582 1.368 . S
C1563 H1587 0.949 . S
H1564 C1568 0.949 . S
C1565 C1566 1.349 . S
C1565 C1567 1.327 . S
C1565 H1588 0.950 . S
C1566 C1565 1.349 . S
C1566 C1578 1.349 . S
C1567 C1565 1.327 . S
C1567 C1583 1.429 . S
C1567 H1589 0.950 . S
C1568 H1564 0.949 . S
C1568 C1576 1.574 . S
C1568 C1584 1.368 . S
H1569 C1577 0.950 . S
H1570 C1575 0.950 . S
H1571 C1576 0.949 . S
H1572 C1578 0.950 . S
H1573 C1579 0.950 . S
H1574 C1580 0.949 . S
C1575 H1570 0.950 . S
C1575 C1577 1.327 . S
C1575 C1581 1.429 . S
C1576 C1568 1.574 . S
C1576 H1571 0.949 . S
C1576 C1582 1.368 . S
C1577 C1561 1.349 . S
C1577 H1569 0.950 . S
C1577 C1575 1.327 . S
C1578 C1566 1.349 . S
C1578 H1572 0.950 . S
C1578 C1579 1.327 . S
C1579 H1573 0.950 . S
C1579 C1578 1.327 . S
C1579 C1583 1.429 . S
C1580 C1563 1.574 . S
C1580 H1574 0.949 . S
C1580 C1584 1.368 . S
C1581 C1562 1.429 . S
C1581 C1575 1.429 . S
C1581 C1582 1.523 . S
C1582 C1563 1.368 . S
C1582 C1576 1.368 . S
C1582 C1581 1.523 . S
C1583 C1567 1.429 . S
C1583 C1579 1.429 . S
C1583 C1584 1.523 . S
C1584 C1568 1.368 . S
C1584 C1580 1.368 . S
C1584 C1583 1.523 . S
H1585 C1560 0.950 . S
H1586 C1562 0.950 . S
H1587 C1563 0.949 . S
H1588 C1565 0.950 . S
H1589 C1567 0.950 . S
C1590 C1591 1.349 1_545 S
C1590 C1592 1.327 . S
C1590 H1615 0.950 . S
C1591 C1590 1.349 1_565 S
C1591 C1607 1.349 . S
C1592 C1590 1.327 . S
C1592 C1611 1.429 1_545 S
C1592 H1616 0.950 . S
C1593 C1610 1.574 . S
C1593 C1612 1.368 . S
C1593 H1617 0.949 . S
H1594 C1598 0.949 . S
C1595 C1596 1.349 . S
C1595 C1597 1.327 . S
C1595 H1618 0.950 . S
C1596 C1595 1.349 . S
C1596 C1608 1.349 1_565 S
C1597 C1595 1.327 . S
C1597 C1613 1.429 . S
C1597 H1619 0.950 . S
C1598 H1594 0.949 . S
C1598 C1606 1.574 . S
C1598 C1614 1.368 1_545 S
H1599 C1607 0.950 . S
H1600 C1605 0.950 . S
H1601 C1606 0.949 . S
H1602 C1608 0.950 . S
H1603 C1609 0.950 . S
H1604 C1610 0.949 . S
C1605 H1600 0.950 . S
C1605 C1607 1.327 . S
C1605 C1611 1.429 . S
C1606 C1598 1.574 . S
C1606 H1601 0.949 . S
C1606 C1612 1.368 1_545 S
C1607 C1591 1.349 . S
C1607 H1599 0.950 . S
C1607 C1605 1.327 . S
C1608 C1596 1.349 1_545 S
C1608 H1602 0.950 . S
C1608 C1609 1.327 . S
C1609 H1603 0.950 . S
C1609 C1608 1.327 . S
C1609 C1613 1.429 1_545 S
C1610 C1593 1.574 . S
C1610 H1604 0.949 . S
C1610 C1614 1.368 . S
C1611 C1592 1.429 1_565 S
C1611 C1605 1.429 . S
C1611 C1612 1.523 . S
C1612 C1593 1.368 . S
C1612 C1606 1.368 1_565 S
C1612 C1611 1.523 . S
C1613 C1597 1.429 . S
C1613 C1609 1.429 1_565 S
C1613 C1614 1.523 . S
C1614 C1598 1.368 1_565 S
C1614 C1610 1.368 . S
C1614 C1613 1.523 . S
H1615 C1590 0.950 . S
H1616 C1592 0.950 . S
H1617 C1593 0.949 . S
H1618 C1595 0.950 . S
H1619 C1597 0.950 . S
C1620 C1621 1.349 1_565 S
C1620 C1622 1.327 . S
C1620 H1645 0.950 . S
C1621 C1620 1.349 1_545 S
C1621 C1637 1.349 . S
C1622 C1620 1.327 . S
C1622 C1641 1.429 1_565 S
C1622 H1646 0.950 . S
C1623 C1640 1.574 . S
C1623 C1642 1.368 . S
C1623 H1647 0.949 . S
H1624 C1628 0.949 . S
C1625 C1626 1.349 . S
C1625 C1627 1.327 . S
C1625 H1648 0.950 . S
C1626 C1625 1.349 . S
C1626 C1638 1.349 1_545 S
C1627 C1625 1.327 . S
C1627 C1643 1.429 . S
C1627 H1649 0.950 . S
C1628 H1624 0.949 . S
C1628 C1636 1.574 . S
C1628 C1644 1.368 1_565 S
H1629 C1637 0.950 . S
H1630 C1635 0.950 . S
H1631 C1636 0.949 . S
H1632 C1638 0.950 . S
H1633 C1639 0.950 . S
H1634 C1640 0.949 . S
C1635 H1630 0.950 . S
C1635 C1637 1.327 . S
C1635 C1641 1.429 . S
C1636 C1628 1.574 . S
C1636 H1631 0.949 . S
C1636 C1642 1.368 1_565 S
C1637 C1621 1.349 . S
C1637 H1629 0.950 . S
C1637 C1635 1.327 . S
C1638 C1626 1.349 1_565 S
C1638 H1632 0.950 . S
C1638 C1639 1.327 . S
C1639 H1633 0.950 . S
C1639 C1638 1.327 . S
C1639 C1643 1.429 1_565 S
C1640 C1623 1.574 . S
C1640 H1634 0.949 . S
C1640 C1644 1.368 . S
C1641 C1622 1.429 1_545 S
C1641 C1635 1.429 . S
C1641 C1642 1.523 . S
C1642 C1623 1.368 . S
C1642 C1636 1.368 1_545 S
C1642 C1641 1.523 . S
C1643 C1627 1.429 . S
C1643 C1639 1.429 1_545 S
C1643 C1644 1.523 . S
C1644 C1628 1.368 1_545 S
C1644 C1640 1.368 . S
C1644 C1643 1.523 . S
H1645 C1620 0.950 . S
H1646 C1622 0.950 . S
H1647 C1623 0.949 . S
H1648 C1625 0.950 . S
H1649 C1627 0.950 . S
C1650 C1651 1.349 . S
C1650 C1652 1.327 . S
C1650 H1675 0.950 . S
C1651 C1650 1.349 . S
C1651 C1667 1.349 1_655 S
C1652 C1650 1.327 . S
C1652 C1671 1.429 . S
C1652 H1676 0.950 . S
C1653 C1670 1.574 . S
C1653 C1672 1.368 1_455 S
C1653 H1677 0.949 . S
H1654 C1658 0.949 . S
C1655 C1656 1.349 1_455 S
C1655 C1657 1.327 . S
C1655 H1678 0.950 . S
C1656 C1655 1.349 1_655 S
C1656 C1668 1.349 . S
C1657 C1655 1.327 . S
C1657 C1673 1.429 1_455 S
C1657 H1679 0.950 . S
C1658 H1654 0.949 . S
C1658 C1666 1.574 . S
C1658 C1674 1.368 . S
H1659 C1667 0.950 . S
H1660 C1665 0.950 . S
H1661 C1666 0.949 . S
H1662 C1668 0.950 . S
H1663 C1669 0.950 . S
H1664 C1670 0.949 . S
C1665 H1660 0.950 . S
C1665 C1667 1.327 . S
C1665 C1671 1.429 1_455 S
C1666 C1658 1.574 . S
C1666 H1661 0.949 . S
C1666 C1672 1.368 . S
C1667 C1651 1.349 1_455 S
C1667 H1659 0.950 . S
C1667 C1665 1.327 . S
C1668 C1656 1.349 . S
C1668 H1662 0.950 . S
C1668 C1669 1.327 . S
C1669 H1663 0.950 . S
C1669 C1668 1.327 . S
C1669 C1673 1.429 . S
C1670 C1653 1.574 . S
C1670 H1664 0.949 . S
C1670 C1674 1.368 1_455 S
C1671 C1652 1.429 . S
C1671 C1665 1.429 1_655 S
C1671 C1672 1.523 . S
C1672 C1653 1.368 1_655 S
C1672 C1666 1.368 . S
C1672 C1671 1.523 . S
C1673 C1657 1.429 1_655 S
C1673 C1669 1.429 . S
C1673 C1674 1.523 . S
C1674 C1658 1.368 . S
C1674 C1670 1.368 1_655 S
C1674 C1673 1.523 . S
H1675 C1650 0.950 . S
H1676 C1652 0.950 . S
H1677 C1653 0.949 . S
H1678 C1655 0.950 . S
H1679 C1657 0.950 . S
C1680 C1681 1.349 . S
C1680 C1682 1.327 . S
C1680 H1705 0.950 . S
C1681 C1680 1.349 . S
C1681 C1697 1.349 . S
C1682 C1680 1.327 . S
C1682 C1701 1.429 . S
C1682 H1706 0.950 . S
C1683 C1700 1.574 . S
C1683 C1702 1.368 . S
C1683 H1707 0.949 . S
H1684 C1688 0.949 . S
C1685 C1686 1.349 . S
C1685 C1687 1.327 . S
C1685 H1708 0.950 . S
C1686 C1685 1.349 . S
C1686 C1698 1.349 . S
C1687 C1685 1.327 . S
C1687 C1703 1.429 . S
C1687 H1709 0.950 . S
C1688 H1684 0.949 . S
C1688 C1696 1.574 . S
C1688 C1704 1.368 . S
H1689 C1697 0.950 . S
H1690 C1695 0.950 . S
H1691 C1696 0.949 . S
H1692 C1698 0.950 . S
H1693 C1699 0.950 . S
H1694 C1700 0.949 . S
C1695 H1690 0.950 . S
C1695 C1697 1.327 . S
C1695 C1701 1.429 . S
C1696 C1688 1.574 . S
C1696 H1691 0.949 . S
C1696 C1702 1.368 . S
C1697 C1681 1.349 . S
C1697 H1689 0.950 . S
C1697 C1695 1.327 . S
C1698 C1686 1.349 . S
C1698 H1692 0.950 . S
C1698 C1699 1.327 . S
C1699 H1693 0.950 . S
C1699 C1698 1.327 . S
C1699 C1703 1.429 . S
C1700 C1683 1.574 . S
C1700 H1694 0.949 . S
C1700 C1704 1.368 . S
C1701 C1682 1.429 . S
C1701 C1695 1.429 . S
C1701 C1702 1.523 . S
C1702 C1683 1.368 . S
C1702 C1696 1.368 . S
C1702 C1701 1.523 . S
C1703 C1687 1.429 . S
C1703 C1699 1.429 . S
C1703 C1704 1.523 . S
C1704 C1688 1.368 . S
C1704 C1700 1.368 . S
C1704 C1703 1.523 . S
H1705 C1680 0.950 . S
H1706 C1682 0.950 . S
H1707 C1683 0.949 . S
H1708 C1685 0.950 . S
H1709 C1687 0.950 . S
C1710 C1711 1.349 . S
C1710 C1712 1.327 . S
C1710 H1735 0.950 . S
C1711 C1710 1.349 . S
C1711 C1727 1.349 . S
C1712 C1710 1.327 . S
C1712 C1731 1.429 . S
C1712 H1736 0.950 . S
C1713 C1730 1.574 . S
C1713 C1732 1.368 . S
C1713 H1737 0.949 . S
H1714 C1718 0.949 . S
C1715 C1716 1.349 . S
C1715 C1717 1.327 . S
C1715 H1738 0.950 . S
C1716 C1715 1.349 . S
C1716 C1728 1.349 . S
C1717 C1715 1.327 . S
C1717 C1733 1.429 . S
C1717 H1739 0.950 . S
C1718 H1714 0.949 . S
C1718 C1726 1.574 . S
C1718 C1734 1.368 . S
H1719 C1727 0.950 . S
H1720 C1725 0.950 . S
H1721 C1726 0.949 . S
H1722 C1728 0.950 . S
H1723 C1729 0.950 . S
H1724 C1730 0.949 . S
C1725 H1720 0.950 . S
C1725 C1727 1.327 . S
C1725 C1731 1.429 . S
C1726 C1718 1.574 . S
C1726 H1721 0.949 . S
C1726 C1732 1.368 . S
C1727 C1711 1.349 . S
C1727 H1719 0.950 . S
C1727 C1725 1.327 . S
C1728 C1716 1.349 . S
C1728 H1722 0.950 . S
C1728 C1729 1.327 . S
C1729 H1723 0.950 . S
C1729 C1728 1.327 . S
C1729 C1733 1.429 . S
C1730 C1713 1.574 . S
C1730 H1724 0.949 . S
C1730 C1734 1.368 . S
C1731 C1712 1.429 . S
C1731 C1725 1.429 . S
C1731 C1732 1.523 . S
C1732 C1713 1.368 . S
C1732 C1726 1.368 . S
C1732 C1731 1.523 . S
C1733 C1717 1.429 . S
C1733 C1729 1.429 . S
C1733 C1734 1.523 . S
C1734 C1718 1.368 . S
C1734 C1730 1.368 . S
C1734 C1733 1.523 . S
H1735 C1710 0.950 . S
H1736 C1712 0.950 . S
H1737 C1713 0.949 . S
H1738 C1715 0.950 . S
H1739 C1717 0.950 . S
C1740 C1741 1.349 . S
C1740 C1742 1.327 . S
C1740 H1765 0.950 . S
C1741 C1740 1.349 . S
C1741 C1757 1.349 . S
C1742 C1740 1.327 . S
C1742 C1761 1.429 . S
C1742 H1766 0.950 . S
C1743 C1760 1.574 . S
C1743 C1762 1.368 . S
C1743 H1767 0.949 . S
H1744 C1748 0.949 . S
C1745 C1746 1.349 . S
C1745 C1747 1.327 . S
C1745 H1768 0.950 . S
C1746 C1745 1.349 . S
C1746 C1758 1.349 . S
C1747 C1745 1.327 . S
C1747 C1763 1.429 . S
C1747 H1769 0.950 . S
C1748 H1744 0.949 . S
C1748 C1756 1.574 . S
C1748 C1764 1.368 . S
H1749 C1757 0.950 . S
H1750 C1755 0.950 . S
H1751 C1756 0.949 . S
H1752 C1758 0.950 . S
H1753 C1759 0.950 . S
H1754 C1760 0.949 . S
C1755 H1750 0.950 . S
C1755 C1757 1.327 . S
C1755 C1761 1.429 . S
C1756 C1748 1.574 . S
C1756 H1751 0.949 . S
C1756 C1762 1.368 . S
C1757 C1741 1.349 . S
C1757 H1749 0.950 . S
C1757 C1755 1.327 . S
C1758 C1746 1.349 . S
C1758 H1752 0.950 . S
C1758 C1759 1.327 . S
C1759 H1753 0.950 . S
C1759 C1758 1.327 . S
C1759 C1763 1.429 . S
C1760 C1743 1.574 . S
C1760 H1754 0.949 . S
C1760 C1764 1.368 . S
C1761 C1742 1.429 . S
C1761 C1755 1.429 . S
C1761 C1762 1.523 . S
C1762 C1743 1.368 . S
C1762 C1756 1.368 . S
C1762 C1761 1.523 . S
C1763 C1747 1.429 . S
C1763 C1759 1.429 . S
C1763 C1764 1.523 . S
C1764 C1748 1.368 . S
C1764 C1760 1.368 . S
C1764 C1763 1.523 . S
H1765 C1740 0.950 . S
H1766 C1742 0.950 . S
H1767 C1743 0.949 . S
H1768 C1745 0.950 . S
H1769 C1747 0.950 . S
C1770 C1771 1.349 . S
C1770 C1772 1.327 . S
C1770 H1795 0.950 . S
C1771 C1770 1.349 . S
C1771 C1787 1.349 . S
C1772 C1770 1.327 . S
C1772 C1791 1.429 . S
C1772 H1796 0.950 . S
C1773 C1790 1.574 . S
C1773 C1792 1.368 . S
C1773 H1797 0.949 . S
H1774 C1778 0.949 . S
C1775 C1776 1.349 . S
C1775 C1777 1.327 . S
C1775 H1798 0.950 . S
C1776 C1775 1.349 . S
C1776 C1788 1.349 . S
C1777 C1775 1.327 . S
C1777 C1793 1.429 . S
C1777 H1799 0.950 . S
C1778 H1774 0.949 . S
C1778 C1786 1.574 . S
C1778 C1794 1.368 . S
H1779 C1787 0.950 . S
H1780 C1785 0.950 . S
H1781 C1786 0.949 . S
H1782 C1788 0.950 . S
H1783 C1789 0.950 . S
H1784 C1790 0.949 . S
C1785 H1780 0.950 . S
C1785 C1787 1.327 . S
C1785 C1791 1.429 . S
C1786 C1778 1.574 . S
C1786 H1781 0.949 . S
C1786 C1792 1.368 . S
C1787 C1771 1.349 . S
C1787 H1779 0.950 . S
C1787 C1785 1.327 . S
C1788 C1776 1.349 . S
C1788 H1782 0.950 . S
C1788 C1789 1.327 . S
C1789 H1783 0.950 . S
C1789 C1788 1.327 . S
C1789 C1793 1.429 . S
C1790 C1773 1.574 . S
C1790 H1784 0.949 . S
C1790 C1794 1.368 . S
C1791 C1772 1.429 . S
C1791 C1785 1.429 . S
C1791 C1792 1.523 . S
C1792 C1773 1.368 . S
C1792 C1786 1.368 . S
C1792 C1791 1.523 . S
C1793 C1777 1.429 . S
C1793 C1789 1.429 . S
C1793 C1794 1.523 . S
C1794 C1778 1.368 . S
C1794 C1790 1.368 . S
C1794 C1793 1.523 . S
H1795 C1770 0.950 . S
H1796 C1772 0.950 . S
H1797 C1773 0.949 . S
H1798 C1775 0.950 . S
H1799 C1777 0.950 . S
C1800 C1801 1.349 . S
C1800 C1802 1.327 . S
C1800 H1825 0.950 . S
C1801 C1800 1.349 . S
C1801 C1817 1.349 . S
C1802 C1800 1.327 . S
C1802 C1821 1.429 . S
C1802 H1826 0.950 . S
C1803 C1820 1.574 . S
C1803 C1822 1.368 . S
C1803 H1827 0.949 . S
H1804 C1808 0.949 . S
C1805 C1806 1.349 . S
C1805 C1807 1.327 . S
C1805 H1828 0.950 . S
C1806 C1805 1.349 . S
C1806 C1818 1.349 . S
C1807 C1805 1.327 . S
C1807 C1823 1.429 . S
C1807 H1829 0.950 . S
C1808 H1804 0.949 . S
C1808 C1816 1.574 . S
C1808 C1824 1.368 . S
H1809 C1817 0.950 . S
H1810 C1815 0.950 . S
H1811 C1816 0.949 . S
H1812 C1818 0.950 . S
H1813 C1819 0.950 . S
H1814 C1820 0.949 . S
C1815 H1810 0.950 . S
C1815 C1817 1.327 . S
C1815 C1821 1.429 . S
C1816 C1808 1.574 . S
C1816 H1811 0.949 . S
C1816 C1822 1.368 . S
C1817 C1801 1.349 . S
C1817 H1809 0.950 . S
C1817 C1815 1.327 . S
C1818 C1806 1.349 . S
C1818 H1812 0.950 . S
C1818 C1819 1.327 . S
C1819 H1813 0.950 . S
C1819 C1818 1.327 . S
C1819 C1823 1.429 . S
C1820 C1803 1.574 . S
C1820 H1814 0.949 . S
C1820 C1824 1.368 . S
C1821 C1802 1.429 . S
C1821 C1815 1.429 . S
C1821 C1822 1.523 . S
C1822 C1803 1.368 . S
C1822 C1816 1.368 . S
C1822 C1821 1.523 . S
C1823 C1807 1.429 . S
C1823 C1819 1.429 . S
C1823 C1824 1.523 . S
C1824 C1808 1.368 . S
C1824 C1820 1.368 . S
C1824 C1823 1.523 . S
H1825 C1800 0.950 . S
H1826 C1802 0.950 . S
H1827 C1803 0.949 . S
H1828 C1805 0.950 . S
H1829 C1807 0.950 . S
C1830 C1831 1.349 . S
C1830 C1832 1.327 . S
C1830 H1855 0.950 . S
C1831 C1830 1.349 . S
C1831 C1847 1.349 . S
C1832 C1830 1.327 . S
C1832 C1851 1.429 . S
C1832 H1856 0.950 . S
C1833 C1850 1.574 . S
C1833 C1852 1.368 . S
C1833 H1857 0.949 . S
H1834 C1838 0.949 . S
C1835 C1836 1.349 . S
C1835 C1837 1.327 . S
C1835 H1858 0.950 . S
C1836 C1835 1.349 . S
C1836 C1848 1.349 . S
C1837 C1835 1.327 . S
C1837 C1853 1.429 . S
C1837 H1859 0.950 . S
C1838 H1834 0.949 . S
C1838 C1846 1.574 . S
C1838 C1854 1.368 . S
H1839 C1847 0.950 . S
H1840 C1845 0.950 . S
H1841 C1846 0.949 . S
H1842 C1848 0.950 . S
H1843 C1849 0.950 . S
H1844 C1850 0.949 . S
C1845 H1840 0.950 . S
C1845 C1847 1.327 . S
C1845 C1851 1.429 . S
C1846 C1838 1.574 . S
C1846 H1841 0.949 . S
C1846 C1852 1.368 . S
C1847 C1831 1.349 . S
C1847 H1839 0.950 . S
C1847 C1845 1.327 . S
C1848 C1836 1.349 . S
C1848 H1842 0.950 . S
C1848 C1849 1.327 . S
C1849 H1843 0.950 . S
C1849 C1848 1.327 . S
C1849 C1853 1.429 . S
C1850 C1833 1.574 . S
C1850 H1844 0.949 . S
C1850 C1854 1.368 . S
C1851 C1832 1.429 . S
C1851 C1845 1.429 . S
C1851 C1852 1.523 . S
C1852 C1833 1.368 . S
C1852 C1846 1.368 . S
C1852 C1851 1.523 . S
C1853 C1837 1.429 . S
C1853 C1849 1.429 . S
C1853 C1854 1.523 . S
C1854 C1838 1.368 . S
C1854 C1850 1.368 . S
C1854 C1853 1.523 . S
H1855 C1830 0.950 . S
H1856 C1832 0.950 . S
H1857 C1833 0.949 . S
H1858 C1835 0.950 . S
H1859 C1837 0.950 . S
C1860 C1861 1.349 . S
C1860 C1862 1.327 . S
C1860 H1885 0.950 . S
C1861 C1860 1.349 . S
C1861 C1877 1.349 . S
C1862 C1860 1.327 . S
C1862 C1881 1.429 . S
C1862 H1886 0.950 . S
C1863 C1880 1.574 . S
C1863 C1882 1.368 . S
C1863 H1887 0.949 . S
H1864 C1868 0.949 . S
C1865 C1866 1.349 . S
C1865 C1867 1.327 . S
C1865 H1888 0.950 . S
C1866 C1865 1.349 . S
C1866 C1878 1.349 . S
C1867 C1865 1.327 . S
C1867 C1883 1.429 . S
C1867 H1889 0.950 . S
C1868 H1864 0.949 . S
C1868 C1876 1.574 . S
C1868 C1884 1.368 . S
H1869 C1877 0.950 . S
H1870 C1875 0.950 . S
H1871 C1876 0.949 . S
H1872 C1878 0.950 . S
H1873 C1879 0.950 . S
H1874 C1880 0.949 . S
C1875 H1870 0.950 . S
C1875 C1877 1.327 . S
C1875 C1881 1.429 . S
C1876 C1868 1.574 . S
C1876 H1871 0.949 . S
C1876 C1882 1.368 . S
C1877 C1861 1.349 . S
C1877 H1869 0.950 . S
C1877 C1875 1.327 . S
C1878 C1866 1.349 . S
C1878 H1872 0.950 . S
C1878 C1879 1.327 . S
C1879 H1873 0.950 . S
C1879 C1878 1.327 . S
C1879 C1883 1.429 . S
C1880 C1863 1.574 . S
C1880 H1874 0.949 . S
C1880 C1884 1.368 . S
C1881 C1862 1.429 . S
C1881 C1875 1.429 . S
C1881 C1882 1.523 . S
C1882 C1863 1.368 . S
C1882 C1876 1.368 . S
C1882 C1881 1.523 . S
C1883 C1867 1.429 . S
C1883 C1879 1.429 . S
C1883 C1884 1.523 . S
C1884 C1868 1.368 . S
C1884 C1880 1.368 . S
C1884 C1883 1.523 . S
H1885 C1860 0.950 . S
H1886 C1862 0.950 . S
H1887 C1863 0.949 . S
H1888 C1865 0.950 . S
H1889 C1867 0.950 . S
C1890 C1891 1.349 . S
C1890 C1892 1.327 . S
C1890 H1915 0.950 . S
C1891 C1890 1.349 . S
C1891 C1907 1.349 . S
C1892 C1890 1.327 . S
C1892 C1911 1.429 . S
C1892 H1916 0.950 . S
C1893 C1910 1.574 . S
C1893 C1912 1.368 . S
C1893 H1917 0.949 . S
H1894 C1898 0.949 . S
C1895 C1896 1.349 . S
C1895 C1897 1.327 . S
C1895 H1918 0.950 . S
C1896 C1895 1.349 . S
C1896 C1908 1.349 . S
C1897 C1895 1.327 . S
C1897 C1913 1.429 . S
C1897 H1919 0.950 . S
C1898 H1894 0.949 . S
C1898 C1906 1.574 . S
C1898 C1914 1.368 . S
H1899 C1907 0.950 . S
H1900 C1905 0.950 . S
H1901 C1906 0.949 . S
H1902 C1908 0.950 . S
H1903 C1909 0.950 . S
H1904 C1910 0.949 . S
C1905 H1900 0.950 . S
C1905 C1907 1.327 . S
C1905 C1911 1.429 . S
C1906 C1898 1.574 . S
C1906 H1901 0.949 . S
C1906 C1912 1.368 . S
C1907 C1891 1.349 . S
C1907 H1899 0.950 . S
C1907 C1905 1.327 . S
C1908 C1896 1.349 . S
C1908 H1902 0.950 . S
C1908 C1909 1.327 . S
C1909 H1903 0.950 . S
C1909 C1908 1.327 . S
C1909 C1913 1.429 . S
C1910 C1893 1.574 . S
C1910 H1904 0.949 . S
C1910 C1914 1.368 . S
C1911 C1892 1.429 . S
C1911 C1905 1.429 . S
C1911 C1912 1.523 . S
C1912 C1893 1.368 . S
C1912 C1906 1.368 . S
C1912 C1911 1.523 . S
C1913 C1897 1.429 . S
C1913 C1909 1.429 . S
C1913 C1914 1.523 . S
C1914 C1898 1.368 . S
C1914 C1910 1.368 . S
C1914 C1913 1.523 . S
H1915 C1890 0.950 . S
H1916 C1892 0.950 . S
H1917 C1893 0.949 . S
H1918 C1895 0.950 . S
H1919 C1897 0.950 . S
C1920 C1921 1.349 . S
C1920 C1922 1.327 . S
C1920 H1945 0.950 . S
C1921 C1920 1.349 . S
C1921 C1937 1.349 . S
C1922 C1920 1.327 . S
C1922 C1941 1.429 . S
C1922 H1946 0.950 . S
C1923 C1940 1.574 . S
C1923 C1942 1.368 . S
C1923 H1947 0.949 . S
H1924 C1928 0.949 . S
C1925 C1926 1.349 . S
C1925 C1927 1.327 . S
C1925 H1948 0.950 . S
C1926 C1925 1.349 . S
C1926 C1938 1.349 . S
C1927 C1925 1.327 . S
C1927 C1943 1.429 . S
C1927 H1949 0.950 . S
C1928 H1924 0.949 . S
C1928 C1936 1.574 . S
C1928 C1944 1.368 . S
H1929 C1937 0.950 . S
H1930 C1935 0.950 . S
H1931 C1936 0.949 . S
H1932 C1938 0.950 . S
H1933 C1939 0.950 . S
H1934 C1940 0.949 . S
C1935 H1930 0.950 . S
C1935 C1937 1.327 . S
C1935 C1941 1.429 . S
C1936 C1928 1.574 . S
C1936 H1931 0.949 . S
C1936 C1942 1.368 . S
C1937 C1921 1.349 . S
C1937 H1929 0.950 . S
C1937 C1935 1.327 . S
C1938 C1926 1.349 . S
C1938 H1932 0.950 . S
C1938 C1939 1.327 . S
C1939 H1933 0.950 . S
C1939 C1938 1.327 . S
C1939 C1943 1.429 . S
C1940 C1923 1.574 . S
C1940 H1934 0.949 . S
C1940 C1944 1.368 . S
C1941 C1922 1.429 . S
C1941 C1935 1.429 . S
C1941 C1942 1.523 . S
C1942 C1923 1.368 . S
C1942 C1936 1.368 . S
C1942 C1941 1.523 . S
C1943 C1927 1.429 . S
C1943 C1939 1.429 . S
C1943 C1944 1.523 . S
C1944 C1928 1.368 . S
C1944 C1940 1.368 . S
C1944 C1943 1.523 . S
H1945 C1920 0.950 . S
H1946 C1922 0.950 . S
H1947 C1923 0.949 . S
H1948 C1925 0.950 . S
H1949 C1927 0.950 . S
C1950 C1951 1.349 . S
C1950 C1952 1.327 . S
C1950 H1975 0.950 . S
C1951 C1950 1.349 . S
C1951 C1967 1.349 . S
C1952 C1950 1.327 . S
C1952 C1971 1.429 . S
C1952 H1976 0.950 . S
C1953 C1970 1.574 . S
C1953 C1972 1.368 . S
C1953 H1977 0.949 . S
H1954 C1958 0.949 . S
C1955 C1956 1.349 . S
C1955 C1957 1.327 . S
C1955 H1978 0.950 . S
C1956 C1955 1.349 . S
C1956 C1968 1.349 . S
C1957 C1955 1.327 . S
C1957 C1973 1.429 . S
C1957 H1979 0.950 . S
C1958 H1954 0.949 . S
C1958 C1966 1.574 . S
C1958 C1974 1.368 . S
H1959 C1967 0.950 . S
H1960 C1965 0.950 . S
H1961 C1966 0.949 . S
H1962 C1968 0.950 . S
H1963 C1969 0.950 . S
H1964 C1970 0.949 . S
C1965 H1960 0.950 . S
C1965 C1967 1.327 . S
C1965 C1971 1.429 . S
C1966 C1958 1.574 . S
C1966 H1961 0.949 . S
C1966 C1972 1.368 . S
C1967 C1951 1.349 . S
C1967 H1959 0.950 . S
C1967 C1965 1.327 . S
C1968 C1956 1.349 . S
C1968 H1962 0.950 . S
C1968 C1969 1.327 . S
C1969 H1963 0.950 . S
C1969 C1968 1.327 . S
C1969 C1973 1.429 . S
C1970 C1953 1.574 . S
C1970 H1964 0.949 . S
C1970 C1974 1.368 . S
C1971 C1952 1.429 . S
C1971 C1965 1.429 . S
C1971 C1972 1.523 . S
C1972 C1953 1.368 . S
C1972 C1966 1.368 . S
C1972 C1971 1.523 . S
C1973 C1957 1.429 . S
C1973 C1969 1.429 . S
C1973 C1974 1.523 . S
C1974 C1958 1.368 . S
C1974 C1970 1.368 . S
C1974 C1973 1.523 . S
H1975 C1950 0.950 . S
H1976 C1952 0.950 . S
H1977 C1953 0.949 . S
H1978 C1955 0.950 . S
H1979 C1957 0.950 . S
C1980 C1981 1.349 . S
C1980 C1982 1.327 . S
C1980 H2005 0.950 . S
C1981 C1980 1.349 . S
C1981 C1997 1.349 . S
C1982 C1980 1.327 . S
C1982 C2001 1.429 . S
C1982 H2006 0.950 . S
C1983 C2000 1.574 . S
C1983 C2002 1.368 . S
C1983 H2007 0.949 . S
H1984 C1988 0.949 . S
C1985 C1986 1.349 . S
C1985 C1987 1.327 . S
C1985 H2008 0.950 . S
C1986 C1985 1.349 . S
C1986 C1998 1.349 . S
C1987 C1985 1.327 . S
C1987 C2003 1.429 . S
C1987 H2009 0.950 . S
C1988 H1984 0.949 . S
C1988 C1996 1.574 . S
C1988 C2004 1.368 . S
H1989 C1997 0.950 . S
H1990 C1995 0.950 . S
H1991 C1996 0.949 . S
H1992 C1998 0.950 . S
H1993 C1999 0.950 . S
H1994 C2000 0.949 . S
C1995 H1990 0.950 . S
C1995 C1997 1.327 . S
C1995 C2001 1.429 . S
C1996 C1988 1.574 . S
C1996 H1991 0.949 . S
C1996 C2002 1.368 . S
C1997 C1981 1.349 . S
C1997 H1989 0.950 . S
C1997 C1995 1.327 . S
C1998 C1986 1.349 . S
C1998 H1992 0.950 . S
C1998 C1999 1.327 . S
C1999 H1993 0.950 . S
C1999 C1998 1.327 . S
C1999 C2003 1.429 . S
C2000 C1983 1.574 . S
C2000 H1994 0.949 . S
C2000 C2004 1.368 . S
C2001 C1982 1.429 . S
C2001 C1995 1.429 . S
C2001 C2002 1.523 . S
C2002 C1983 1.368 . S
C2002 C1996 1.368 . S
C2002 C2001 1.523 . S
C2003 C1987 1.429 . S
C2003 C1999 1.429 . S
C2003 C2004 1.523 . S
C2004 C1988 1.368 . S
C2004 C2000 1.368 . S
C2004 C2003 1.523 . S
H2005 C1980 0.950 . S
H2006 C1982 0.950 . S
H2007 C1983 0.949 . S
H2008 C1985 0.950 . S
H2009 C1987 0.950 . S
C2010 C2011 1.349 . S
C2010 C2012 1.327 . S
C2010 H2035 0.950 . S
C2011 C2010 1.349 . S
C2011 C2027 1.349 . S
C2012 C2010 1.327 . S
C2012 C2031 1.429 . S
C2012 H2036 0.950 . S
C2013 C2030 1.574 . S
C2013 C2032 1.368 . S
C2013 H2037 0.949 . S
H2014 C2018 0.949 . S
C2015 C2016 1.349 . S
C2015 C2017 1.327 . S
C2015 H2038 0.950 . S
C2016 C2015 1.349 . S
C2016 C2028 1.349 . S
C2017 C2015 1.327 . S
C2017 C2033 1.429 . S
C2017 H2039 0.950 . S
C2018 H2014 0.949 . S
C2018 C2026 1.574 . S
C2018 C2034 1.368 . S
H2019 C2027 0.950 . S
H2020 C2025 0.950 . S
H2021 C2026 0.949 . S
H2022 C2028 0.950 . S
H2023 C2029 0.950 . S
H2024 C2030 0.949 . S
C2025 H2020 0.950 . S
C2025 C2027 1.327 . S
C2025 C2031 1.429 . S
C2026 C2018 1.574 . S
C2026 H2021 0.949 . S
C2026 C2032 1.368 . S
C2027 C2011 1.349 . S
C2027 H2019 0.950 . S
C2027 C2025 1.327 . S
C2028 C2016 1.349 . S
C2028 H2022 0.950 . S
C2028 C2029 1.327 . S
C2029 H2023 0.950 . S
C2029 C2028 1.327 . S
C2029 C2033 1.429 . S
C2030 C2013 1.574 . S
C2030 H2024 0.949 . S
C2030 C2034 1.368 . S
C2031 C2012 1.429 . S
C2031 C2025 1.429 . S
C2031 C2032 1.523 . S
C2032 C2013 1.368 . S
C2032 C2026 1.368 . S
C2032 C2031 1.523 . S
C2033 C2017 1.429 . S
C2033 C2029 1.429 . S
C2033 C2034 1.523 . S
C2034 C2018 1.368 . S
C2034 C2030 1.368 . S
C2034 C2033 1.523 . S
H2035 C2010 0.950 . S
H2036 C2012 0.950 . S
H2037 C2013 0.949 . S
H2038 C2015 0.950 . S
H2039 C2017 0.950 . S
C2040 C2041 1.349 . S
C2040 C2042 1.327 . S
C2040 H2065 0.950 . S
C2041 C2040 1.349 . S
C2041 C2057 1.349 . S
C2042 C2040 1.327 . S
C2042 C2061 1.429 . S
C2042 H2066 0.950 . S
C2043 C2060 1.574 . S
C2043 C2062 1.368 . S
C2043 H2067 0.949 . S
H2044 C2048 0.949 . S
C2045 C2046 1.349 . S
C2045 C2047 1.327 . S
C2045 H2068 0.950 . S
C2046 C2045 1.349 . S
C2046 C2058 1.349 . S
C2047 C2045 1.327 . S
C2047 C2063 1.429 . S
C2047 H2069 0.950 . S
C2048 H2044 0.949 . S
C2048 C2056 1.574 . S
C2048 C2064 1.368 . S
H2049 C2057 0.950 . S
H2050 C2055 0.950 . S
H2051 C2056 0.949 . S
H2052 C2058 0.950 . S
H2053 C2059 0.950 . S
H2054 C2060 0.949 . S
C2055 H2050 0.950 . S
C2055 C2057 1.327 . S
C2055 C2061 1.429 . S
C2056 C2048 1.574 . S
C2056 H2051 0.949 . S
C2056 C2062 1.368 . S
C2057 C2041 1.349 . S
C2057 H2049 0.950 . S
C2057 C2055 1.327 . S
C2058 C2046 1.349 . S
C2058 H2052 0.950 . S
C2058 C2059 1.327 . S
C2059 H2053 0.950 . S
C2059 C2058 1.327 . S
C2059 C2063 1.429 . S
C2060 C2043 1.574 . S
C2060 H2054 0.949 . S
C2060 C2064 1.368 . S
C2061 C2042 1.429 . S
C2061 C2055 1.429 . S
C2061 C2062 1.523 . S
C2062 C2043 1.368 . S
C2062 C2056 1.368 . S
C2062 C2061 1.523 . S
C2063 C2047 1.429 . S
C2063 C2059 1.429 . S
C2063 C2064 1.523 . S
C2064 C2048 1.368 . S
C2064 C2060 1.368 . S
C2064 C2063 1.523 . S
H2065 C2040 0.950 . S
H2066 C2042 0.950 . S
H2067 C2043 0.949 . S
H2068 C2045 0.950 . S
H2069 C2047 0.950 . S
C2070 C2071 1.349 . S
C2070 C2072 1.327 . S
C2070 H2095 0.950 . S
C2071 C2070 1.349 . S
C2071 C2087 1.349 . S
C2072 C2070 1.327 . S
C2072 C2091 1.429 . S
C2072 H2096 0.950 . S
C2073 C2090 1.574 . S
C2073 C2092 1.368 . S
C2073 H2097 0.949 . S
H2074 C2078 0.949 . S
C2075 C2076 1.349 . S
C2075 C2077 1.327 . S
C2075 H2098 0.950 . S
C2076 C2075 1.349 . S
C2076 C2088 1.349 . S
C2077 C2075 1.327 . S
C2077 C2093 1.429 . S
C2077 H2099 0.950 . S
C2078 H2074 0.949 . S
C2078 C2086 1.574 . S
C2078 C2094 1.368 . S
H2079 C2087 0.950 . S
H2080 C2085 0.950 . S
H2081 C2086 0.949 . S
H2082 C2088 0.950 . S
H2083 C2089 0.950 . S
H2084 C2090 0.949 . S
C2085 H2080 0.950 . S
C2085 C2087 1.327 . S
C2085 C2091 1.429 . S
C2086 C2078 1.574 . S
C2086 H2081 0.949 . S
C2086 C2092 1.368 . S
C2087 C2071 1.349 . S
C2087 H2079 0.950 . S
C2087 C2085 1.327 . S
C2088 C2076 1.349 . S
C2088 H2082 0.950 . S
C2088 C2089 1.327 . S
C2089 H2083 0.950 . S
C2089 C2088 1.327 . S
C2089 C2093 1.429 . S
C2090 C2073 1.574 . S
C2090 H2084 0.949 . S
C2090 C2094 1.368 . S
C2091 C2072 1.429 . S
C2091 C2085 1.429 . S
C2091 C2092 1.523 . S
C2092 C2073 1.368 . S
C2092 C2086 1.368 . S
C2092 C2091 1.523 . S
C2093 C2077 1.429 . S
C2093 C2089 1.429 . S
C2093 C2094 1.523 . S
C2094 C2078 1.368 . S
C2094 C2090 1.368 . S
C2094 C2093 1.523 . S
H2095 C2070 0.950 . S
H2096 C2072 0.950 . S
H2097 C2073 0.949 . S
H2098 C2075 0.950 . S
H2099 C2077 0.950 . S
C2100 C2101 1.349 . S
C2100 C2102 1.327 . S
C2100 H2125 0.950 . S
C2101 C2100 1.349 . S
C2101 C2117 1.349 . S
C2102 C2100 1.327 . S
C2102 C2121 1.429 . S
C2102 H2126 0.950 . S
C2103 C2120 1.574 . S
C2103 C2122 1.368 . S
C2103 H2127 0.949 . S
H2104 C2108 0.949 . S
C2105 C2106 1.349 . S
C2105 C2107 1.327 . S
C2105 H2128 0.950 . S
C2106 C2105 1.349 . S
C2106 C2118 1.349 . S
C2107 C2105 1.327 . S
C2107 C2123 1.429 . S
C2107 H2129 0.950 . S
C2108 H2104 0.949 . S
C2108 C2116 1.574 . S
C2108 C2124 1.368 . S
H2109 C2117 0.950 . S
H2110 C2115 0.950 . S
H2111 C2116 0.949 . S
H2112 C2118 0.950 . S
H2113 C2119 0.950 . S
H2114 C2120 0.949 . S
C2115 H2110 0.950 . S
C2115 C2117 1.327 . S
C2115 C2121 1.429 . S
C2116 C2108 1.574 . S
C2116 H2111 0.949 . S
C2116 C2122 1.368 . S
C2117 C2101 1.349 . S
C2117 H2109 0.950 . S
C2117 C2115 1.327 . S
C2118 C2106 1.349 . S
C2118 H2112 0.950 . S
C2118 C2119 1.327 . S
C2119 H2113 0.950 . S
C2119 C2118 1.327 . S
C2119 C2123 1.429 . S
C2120 C2103 1.574 . S
C2120 H2114 0.949 . S
C2120 C2124 1.368 . S
C2121 C2102 1.429 . S
C2121 C2115 1.429 . S
C2121 C2122 1.523 . S
C2122 C2103 1.368 . S
C2122 C2116 1.368 . S
C2122 C2121 1.523 . S
C2123 C2107 1.429 . S
C2123 C2119 1.429 . S
C2123 C2124 1.523 . S
C2124 C2108 1.368 . S
C2124 C2120 1.368 . S
C2124 C2123 1.523 . S
H2125 C2100 0.950 . S
H2126 C2102 0.950 . S
H2127 C2103 0.949 . S
H2128 C2105 0.950 . S
H2129 C2107 0.950 . S
C2130 C2131 1.349 . S
C2130 C2132 1.327 . S
C2130 H2155 0.950 . S
C2131 C2130 1.349 . S
C2131 C2147 1.349 . S
C2132 C2130 1.327 . S
C2132 C2151 1.429 . S
C2132 H2156 0.950 . S
C2133 C2150 1.574 . S
C2133 C2152 1.368 . S
C2133 H2157 0.949 . S
H2134 C2138 0.949 . S
C2135 C2136 1.349 . S
C2135 C2137 1.327 . S
C2135 H2158 0.950 . S
C2136 C2135 1.349 . S
C2136 C2148 1.349 . S
C2137 C2135 1.327 . S
C2137 C2153 1.429 . S
C2137 H2159 0.950 . S
C2138 H2134 0.949 . S
C2138 C2146 1.574 . S
C2138 C2154 1.368 . S
H2139 C2147 0.950 . S
H2140 C2145 0.950 . S
H2141 C2146 0.949 . S
H2142 C2148 0.950 . S
H2143 C2149 0.950 . S
H2144 C2150 0.949 . S
C2145 H2140 0.950 . S
C2145 C2147 1.327 . S
C2145 C2151 1.429 . S
C2146 C2138 1.574 . S
C2146 H2141 0.949 . S
C2146 C2152 1.368 . S
C2147 C2131 1.349 . S
C2147 H2139 0.950 . S
C2147 C2145 1.327 . S
C2148 C2136 1.349 . S
C2148 H2142 0.950 . S
C2148 C2149 1.327 . S
C2149 H2143 0.950 . S
C2149 C2148 1.327 . S
C2149 C2153 1.429 . S
C2150 C2133 1.574 . S
C2150 H2144 0.949 . S
C2150 C2154 1.368 . S
C2151 C2132 1.429 . S
C2151 C2145 1.429 . S
C2151 C2152 1.523 . S
C2152 C2133 1.368 . S
C2152 C2146 1.368 . S
C2152 C2151 1.523 . S
C2153 C2137 1.429 . S
C2153 C2149 1.429 . S
C2153 C2154 1.523 . S
C2154 C2138 1.368 . S
C2154 C2150 1.368 . S
C2154 C2153 1.523 . S
H2155 C2130 0.950 . S
H2156 C2132 0.950 . S
H2157 C2133 0.949 . S
H2158 C2135 0.950 . S
H2159 C2137 0.950 . S
C2160 C2161 1.349 . S
C2160 C2162 1.327 . S
C2160 H2185 0.950 . S
C2161 C2160 1.349 . S
C2161 C2177 1.349 . S
C2162 C2160 1.327 . S
C2162 C2181 1.429 . S
C2162 H2186 0.950 . S
C2163 C2180 1.574 . S
C2163 C2182 1.368 . S
C2163 H2187 0.949 . S
H2164 C2168 0.949 . S
C2165 C2166 1.349 . S
C2165 C2167 1.327 . S
C2165 H2188 0.950 . S
C2166 C2165 1.349 . S
C2166 C2178 1.349 . S
C2167 C2165 1.327 . S
C2167 C2183 1.429 . S
C2167 H2189 0.950 . S
C2168 H2164 0.949 . S
C2168 C2176 1.574 . S
C2168 C2184 1.368 . S
H2169 C2177 0.950 . S
H2170 C2175 0.950 . S
H2171 C2176 0.949 . S
H2172 C2178 0.950 . S
H2173 C2179 0.950 . S
H2174 C2180 0.949 . S
C2175 H2170 0.950 . S
C2175 C2177 1.327 . S
C2175 C2181 1.429 . S
C2176 C2168 1.574 . S
C2176 H2171 0.949 . S
C2176 C2182 1.368 . S
C2177 C2161 1.349 . S
C2177 H2169 0.950 . S
C2177 C2175 1.327 . S
C2178 C2166 1.349 . S
C2178 H2172 0.950 . S
C2178 C2179 1.327 . S
C2179 H2173 0.950 . S
C2179 C2178 1.327 . S
C2179 C2183 1.429 . S
C2180 C2163 1.574 . S
C2180 H2174 0.949 . S
C2180 C2184 1.368 . S
C2181 C2162 1.429 . S
C2181 C2175 1.429 . S
C2181 C2182 1.523 . S
C2182 C2163 1.368 . S
C2182 C2176 1.368 . S
C2182 C2181 1.523 . S
C2183 C2167 1.429 . S
C2183 C2179 1.429 . S
C2183 C2184 1.523 . S
C2184 C2168 1.368 . S
C2184 C2180 1.368 . S
C2184 C2183 1.523 . S
H2185 C2160 0.950 . S
H2186 C2162 0.950 . S
H2187 C2163 0.949 . S
H2188 C2165 0.950 . S
H2189 C2167 0.950 . S
C2190 C2191 1.349 . S
C2190 C2192 1.327 . S
C2190 H2215 0.950 . S
C2191 C2190 1.349 . S
C2191 C2207 1.349 . S
C2192 C2190 1.327 . S
C2192 C2211 1.429 . S
C2192 H2216 0.950 . S
C2193 C2210 1.574 . S
C2193 C2212 1.368 . S
C2193 H2217 0.949 . S
H2194 C2198 0.949 . S
C2195 C2196 1.349 . S
C2195 C2197 1.327 . S
C2195 H2218 0.950 . S
C2196 C2195 1.349 . S
C2196 C2208 1.349 . S
C2197 C2195 1.327 . S
C2197 C2213 1.429 . S
C2197 H2219 0.950 . S
C2198 H2194 0.949 . S
C2198 C2206 1.574 . S
C2198 C2214 1.368 . S
H2199 C2207 0.950 . S
H2200 C2205 0.950 . S
H2201 C2206 0.949 . S
H2202 C2208 0.950 . S
H2203 C2209 0.950 . S
H2204 C2210 0.949 . S
C2205 H2200 0.950 . S
C2205 C2207 1.327 . S
C2205 C2211 1.429 . S
C2206 C2198 1.574 . S
C2206 H2201 0.949 . S
C2206 C2212 1.368 . S
C2207 C2191 1.349 . S
C2207 H2199 0.950 . S
C2207 C2205 1.327 . S
C2208 C2196 1.349 . S
C2208 H2202 0.950 . S
C2208 C2209 1.327 . S
C2209 H2203 0.950 . S
C2209 C2208 1.327 . S
C2209 C2213 1.429 . S
C2210 C2193 1.574 . S
C2210 H2204 0.949 . S
C2210 C2214 1.368 . S
C2211 C2192 1.429 . S
C2211 C2205 1.429 . S
C2211 C2212 1.523 . S
C2212 C2193 1.368 . S
C2212 C2206 1.368 . S
C2212 C2211 1.523 . S
C2213 C2197 1.429 . S
C2213 C2209 1.429 . S
C2213 C2214 1.523 . S
C2214 C2198 1.368 . S
C2214 C2210 1.368 . S
C2214 C2213 1.523 . S
H2215 C2190 0.950 . S
H2216 C2192 0.950 . S
H2217 C2193 0.949 . S
H2218 C2195 0.950 . S
H2219 C2197 0.950 . S
C2220 C2221 1.349 . S
C2220 C2222 1.327 . S
C2220 H2245 0.950 . S
C2221 C2220 1.349 . S
C2221 C2237 1.349 . S
C2222 C2220 1.327 . S
C2222 C2241 1.429 . S
C2222 H2246 0.950 . S
C2223 C2240 1.574 . S
C2223 C2242 1.368 . S
C2223 H2247 0.949 . S
H2224 C2228 0.949 . S
C2225 C2226 1.349 . S
C2225 C2227 1.327 . S
C2225 H2248 0.950 . S
C2226 C2225 1.349 . S
C2226 C2238 1.349 . S
C2227 C2225 1.327 . S
C2227 C2243 1.429 . S
C2227 H2249 0.950 . S
C2228 H2224 0.949 . S
C2228 C2236 1.574 . S
C2228 C2244 1.368 . S
H2229 C2237 0.950 . S
H2230 C2235 0.950 . S
H2231 C2236 0.949 . S
H2232 C2238 0.950 . S
H2233 C2239 0.950 . S
H2234 C2240 0.949 . S
C2235 H2230 0.950 . S
C2235 C2237 1.327 . S
C2235 C2241 1.429 . S
C2236 C2228 1.574 . S
C2236 H2231 0.949 . S
C2236 C2242 1.368 . S
C2237 C2221 1.349 . S
C2237 H2229 0.950 . S
C2237 C2235 1.327 . S
C2238 C2226 1.349 . S
C2238 H2232 0.950 . S
C2238 C2239 1.327 . S
C2239 H2233 0.950 . S
C2239 C2238 1.327 . S
C2239 C2243 1.429 . S
C2240 C2223 1.574 . S
C2240 H2234 0.949 . S
C2240 C2244 1.368 . S
C2241 C2222 1.429 . S
C2241 C2235 1.429 . S
C2241 C2242 1.523 . S
C2242 C2223 1.368 . S
C2242 C2236 1.368 . S
C2242 C2241 1.523 . S
C2243 C2227 1.429 . S
C2243 C2239 1.429 . S
C2243 C2244 1.523 . S
C2244 C2228 1.368 . S
C2244 C2240 1.368 . S
C2244 C2243 1.523 . S
H2245 C2220 0.950 . S
H2246 C2222 0.950 . S
H2247 C2223 0.949 . S
H2248 C2225 0.950 . S
H2249 C2227 0.950 . S
C2250 C2251 1.349 . S
C2250 C2252 1.327 . S
C2250 H2275 0.950 . S
C2251 C2250 1.349 . S
C2251 C2267 1.349 . S
C2252 C2250 1.327 . S
C2252 C2271 1.429 . S
C2252 H2276 0.950 . S
C2253 C2270 1.574 . S
C2253 C2272 1.368 . S
C2253 H2277 0.949 . S
H2254 C2258 0.949 . S
C2255 C2256 1.349 . S
C2255 C2257 1.327 . S
C2255 H2278 0.950 . S
C2256 C2255 1.349 . S
C2256 C2268 1.349 . S
C2257 C2255 1.327 . S
C2257 C2273 1.429 . S
C2257 H2279 0.950 . S
C2258 H2254 0.949 . S
C2258 C2266 1.574 . S
C2258 C2274 1.368 . S
H2259 C2267 0.950 . S
H2260 C2265 0.950 . S
H2261 C2266 0.949 . S
H2262 C2268 0.950 . S
H2263 C2269 0.950 . S
H2264 C2270 0.949 . S
C2265 H2260 0.950 . S
C2265 C2267 1.327 . S
C2265 C2271 1.429 . S
C2266 C2258 1.574 . S
C2266 H2261 0.949 . S
C2266 C2272 1.368 . S
C2267 C2251 1.349 . S
C2267 H2259 0.950 . S
C2267 C2265 1.327 . S
C2268 C2256 1.349 . S
C2268 H2262 0.950 . S
C2268 C2269 1.327 . S
C2269 H2263 0.950 . S
C2269 C2268 1.327 . S
C2269 C2273 1.429 . S
C2270 C2253 1.574 . S
C2270 H2264 0.949 . S
C2270 C2274 1.368 . S
C2271 C2252 1.429 . S
C2271 C2265 1.429 . S
C2271 C2272 1.523 . S
C2272 C2253 1.368 . S
C2272 C2266 1.368 . S
C2272 C2271 1.523 . S
C2273 C2257 1.429 . S
C2273 C2269 1.429 . S
C2273 C2274 1.523 . S
C2274 C2258 1.368 . S
C2274 C2270 1.368 . S
C2274 C2273 1.523 . S
H2275 C2250 0.950 . S
H2276 C2252 0.950 . S
H2277 C2253 0.949 . S
H2278 C2255 0.950 . S
H2279 C2257 0.950 . S
C2280 C2281 1.349 . S
C2280 C2282 1.327 . S
C2280 H2305 0.950 . S
C2281 C2280 1.349 . S
C2281 C2297 1.349 . S
C2282 C2280 1.327 . S
C2282 C2301 1.429 . S
C2282 H2306 0.950 . S
C2283 C2300 1.574 . S
C2283 C2302 1.368 . S
C2283 H2307 0.949 . S
H2284 C2288 0.949 . S
C2285 C2286 1.349 . S
C2285 C2287 1.327 . S
C2285 H2308 0.950 . S
C2286 C2285 1.349 . S
C2286 C2298 1.349 . S
C2287 C2285 1.327 . S
C2287 C2303 1.429 . S
C2287 H2309 0.950 . S
C2288 H2284 0.949 . S
C2288 C2296 1.574 . S
C2288 C2304 1.368 . S
H2289 C2297 0.950 . S
H2290 C2295 0.950 . S
H2291 C2296 0.949 . S
H2292 C2298 0.950 . S
H2293 C2299 0.950 . S
H2294 C2300 0.949 . S
C2295 H2290 0.950 . S
C2295 C2297 1.327 . S
C2295 C2301 1.429 . S
C2296 C2288 1.574 . S
C2296 H2291 0.949 . S
C2296 C2302 1.368 . S
C2297 C2281 1.349 . S
C2297 H2289 0.950 . S
C2297 C2295 1.327 . S
C2298 C2286 1.349 . S
C2298 H2292 0.950 . S
C2298 C2299 1.327 . S
C2299 H2293 0.950 . S
C2299 C2298 1.327 . S
C2299 C2303 1.429 . S
C2300 C2283 1.574 . S
C2300 H2294 0.949 . S
C2300 C2304 1.368 . S
C2301 C2282 1.429 . S
C2301 C2295 1.429 . S
C2301 C2302 1.523 . S
C2302 C2283 1.368 . S
C2302 C2296 1.368 . S
C2302 C2301 1.523 . S
C2303 C2287 1.429 . S
C2303 C2299 1.429 . S
C2303 C2304 1.523 . S
C2304 C2288 1.368 . S
C2304 C2300 1.368 . S
C2304 C2303 1.523 . S
H2305 C2280 0.950 . S
H2306 C2282 0.950 . S
H2307 C2283 0.949 . S
H2308 C2285 0.950 . S
H2309 C2287 0.950 . S
C2310 C2311 1.349 . S
C2310 C2312 1.327 . S
C2310 H2335 0.950 . S
C2311 C2310 1.349 . S
C2311 C2327 1.349 . S
C2312 C2310 1.327 . S
C2312 C2331 1.429 . S
C2312 H2336 0.950 . S
C2313 C2330 1.574 . S
C2313 C2332 1.368 . S
C2313 H2337 0.949 . S
H2314 C2318 0.949 . S
C2315 C2316 1.349 . S
C2315 C2317 1.327 . S
C2315 H2338 0.950 . S
C2316 C2315 1.349 . S
C2316 C2328 1.349 . S
C2317 C2315 1.327 . S
C2317 C2333 1.429 . S
C2317 H2339 0.950 . S
C2318 H2314 0.949 . S
C2318 C2326 1.574 . S
C2318 C2334 1.368 . S
H2319 C2327 0.950 . S
H2320 C2325 0.950 . S
H2321 C2326 0.949 . S
H2322 C2328 0.950 . S
H2323 C2329 0.950 . S
H2324 C2330 0.949 . S
C2325 H2320 0.950 . S
C2325 C2327 1.327 . S
C2325 C2331 1.429 . S
C2326 C2318 1.574 . S
C2326 H2321 0.949 . S
C2326 C2332 1.368 . S
C2327 C2311 1.349 . S
C2327 H2319 0.950 . S
C2327 C2325 1.327 . S
C2328 C2316 1.349 . S
C2328 H2322 0.950 . S
C2328 C2329 1.327 . S
C2329 H2323 0.950 . S
C2329 C2328 1.327 . S
C2329 C2333 1.429 . S
C2330 C2313 1.574 . S
C2330 H2324 0.949 . S
C2330 C2334 1.368 . S
C2331 C2312 1.429 . S
C2331 C2325 1.429 . S
C2331 C2332 1.523 . S
C2332 C2313 1.368 . S
C2332 C2326 1.368 . S
C2332 C2331 1.523 . S
C2333 C2317 1.429 . S
C2333 C2329 1.429 . S
C2333 C2334 1.523 . S
C2334 C2318 1.368 . S
C2334 C2330 1.368 . S
C2334 C2333 1.523 . S
H2335 C2310 0.950 . S
H2336 C2312 0.950 . S
H2337 C2313 0.949 . S
H2338 C2315 0.950 . S
H2339 C2317 0.950 . S
C2340 C2341 1.349 . S
C2340 C2342 1.327 . S
C2340 H2365 0.950 . S
C2341 C2340 1.349 . S
C2341 C2357 1.349 . S
C2342 C2340 1.327 . S
C2342 C2361 1.429 . S
C2342 H2366 0.950 . S
C2343 C2360 1.574 . S
C2343 C2362 1.368 . S
C2343 H2367 0.949 . S
H2344 C2348 0.949 . S
C2345 C2346 1.349 . S
C2345 C2347 1.327 . S
C2345 H2368 0.950 . S
C2346 C2345 1.349 . S
C2346 C2358 1.349 . S
C2347 C2345 1.327 . S
C2347 C2363 1.429 . S
C2347 H2369 0.950 . S
C2348 H2344 0.949 . S
C2348 C2356 1.574 . S
C2348 C2364 1.368 . S
H2349 C2357 0.950 . S
H2350 C2355 0.950 . S
H2351 C2356 0.949 . S
H2352 C2358 0.950 . S
H2353 C2359 0.950 . S
H2354 C2360 0.949 . S
C2355 H2350 0.950 . S
C2355 C2357 1.327 . S
C2355 C2361 1.429 . S
C2356 C2348 1.574 . S
C2356 H2351 0.949 . S
C2356 C2362 1.368 . S
C2357 C2341 1.349 . S
C2357 H2349 0.950 . S
C2357 C2355 1.327 . S
C2358 C2346 1.349 . S
C2358 H2352 0.950 . S
C2358 C2359 1.327 . S
C2359 H2353 0.950 . S
C2359 C2358 1.327 . S
C2359 C2363 1.429 . S
C2360 C2343 1.574 . S
C2360 H2354 0.949 . S
C2360 C2364 1.368 . S
C2361 C2342 1.429 . S
C2361 C2355 1.429 . S
C2361 C2362 1.523 . S
C2362 C2343 1.368 . S
C2362 C2356 1.368 . S
C2362 C2361 1.523 . S
C2363 C2347 1.429 . S
C2363 C2359 1.429 . S
C2363 C2364 1.523 . S
C2364 C2348 1.368 . S
C2364 C2360 1.368 . S
C2364 C2363 1.523 . S
H2365 C2340 0.950 . S
H2366 C2342 0.950 . S
H2367 C2343 0.949 . S
H2368 C2345 0.950 . S
H2369 C2347 0.950 . S
C2370 C2371 1.349 . S
C2370 C2372 1.327 . S
C2370 H2395 0.950 . S
C2371 C2370 1.349 . S
C2371 C2387 1.349 . S
C2372 C2370 1.327 . S
C2372 C2391 1.429 . S
C2372 H2396 0.950 . S
C2373 C2390 1.574 . S
C2373 C2392 1.368 . S
C2373 H2397 0.949 . S
H2374 C2378 0.949 . S
C2375 C2376 1.349 . S
C2375 C2377 1.327 . S
C2375 H2398 0.950 . S
C2376 C2375 1.349 . S
C2376 C2388 1.349 . S
C2377 C2375 1.327 . S
C2377 C2393 1.429 . S
C2377 H2399 0.950 . S
C2378 H2374 0.949 . S
C2378 C2386 1.574 . S
C2378 C2394 1.368 . S
H2379 C2387 0.950 . S
H2380 C2385 0.950 . S
H2381 C2386 0.949 . S
H2382 C2388 0.950 . S
H2383 C2389 0.950 . S
H2384 C2390 0.949 . S
C2385 H2380 0.950 . S
C2385 C2387 1.327 . S
C2385 C2391 1.429 . S
C2386 C2378 1.574 . S
C2386 H2381 0.949 . S
C2386 C2392 1.368 . S
C2387 C2371 1.349 . S
C2387 H2379 0.950 . S
C2387 C2385 1.327 . S
C2388 C2376 1.349 . S
C2388 H2382 0.950 . S
C2388 C2389 1.327 . S
C2389 H2383 0.950 . S
C2389 C2388 1.327 . S
C2389 C2393 1.429 . S
C2390 C2373 1.574 . S
C2390 H2384 0.949 . S
C2390 C2394 1.368 . S
C2391 C2372 1.429 . S
C2391 C2385 1.429 . S
C2391 C2392 1.523 . S
C2392 C2373 1.368 . S
C2392 C2386 1.368 . S
C2392 C2391 1.523 . S
C2393 C2377 1.429 . S
C2393 C2389 1.429 . S
C2393 C2394 1.523 . S
C2394 C2378 1.368 . S
C2394 C2390 1.368 . S
C2394 C2393 1.523 . S
H2395 C2370 0.950 . S
H2396 C2372 0.950 . S
H2397 C2373 0.949 . S
H2398 C2375 0.950 . S
H2399 C2377 0.950 . S
C2400 C2401 1.349 . S
C2400 C2402 1.327 . S
C2400 H2425 0.950 . S
C2401 C2400 1.349 . S
C2401 C2417 1.349 . S
C2402 C2400 1.327 . S
C2402 C2421 1.429 . S
C2402 H2426 0.950 . S
C2403 C2420 1.574 . S
C2403 C2422 1.368 . S
C2403 H2427 0.949 . S
H2404 C2408 0.949 . S
C2405 C2406 1.349 . S
C2405 C2407 1.327 . S
C2405 H2428 0.950 . S
C2406 C2405 1.349 . S
C2406 C2418 1.349 . S
C2407 C2405 1.327 . S
C2407 C2423 1.429 . S
C2407 H2429 0.950 . S
C2408 H2404 0.949 . S
C2408 C2416 1.574 . S
C2408 C2424 1.368 . S
H2409 C2417 0.950 . S
H2410 C2415 0.950 . S
H2411 C2416 0.949 . S
H2412 C2418 0.950 . S
H2413 C2419 0.950 . S
H2414 C2420 0.949 . S
C2415 H2410 0.950 . S
C2415 C2417 1.327 . S
C2415 C2421 1.429 . S
C2416 C2408 1.574 . S
C2416 H2411 0.949 . S
C2416 C2422 1.368 . S
C2417 C2401 1.349 . S
C2417 H2409 0.950 . S
C2417 C2415 1.327 . S
C2418 C2406 1.349 . S
C2418 H2412 0.950 . S
C2418 C2419 1.327 . S
C2419 H2413 0.950 . S
C2419 C2418 1.327 . S
C2419 C2423 1.429 . S
C2420 C2403 1.574 . S
C2420 H2414 0.949 . S
C2420 C2424 1.368 . S
C2421 C2402 1.429 . S
C2421 C2415 1.429 . S
C2421 C2422 1.523 . S
C2422 C2403 1.368 . S
C2422 C2416 1.368 . S
C2422 C2421 1.523 . S
C2423 C2407 1.429 . S
C2423 C2419 1.429 . S
C2423 C2424 1.523 . S
C2424 C2408 1.368 . S
C2424 C2420 1.368 . S
C2424 C2423 1.523 . S
H2425 C2400 0.950 . S
H2426 C2402 0.950 . S
H2427 C2403 0.949 . S
H2428 C2405 0.950 . S
H2429 C2407 0.950 . S
C2430 C2431 1.349 . S
C2430 C2432 1.327 . S
C2430 H2455 0.950 . S
C2431 C2430 1.349 . S
C2431 C2447 1.349 . S
C2432 C2430 1.327 . S
C2432 C2451 1.429 . S
C2432 H2456 0.950 . S
C2433 C2450 1.574 . S
C2433 C2452 1.368 . S
C2433 H2457 0.949 . S
H2434 C2438 0.949 . S
C2435 C2436 1.349 . S
C2435 C2437 1.327 . S
C2435 H2458 0.950 . S
C2436 C2435 1.349 . S
C2436 C2448 1.349 . S
C2437 C2435 1.327 . S
C2437 C2453 1.429 . S
C2437 H2459 0.950 . S
C2438 H2434 0.949 . S
C2438 C2446 1.574 . S
C2438 C2454 1.368 . S
H2439 C2447 0.950 . S
H2440 C2445 0.950 . S
H2441 C2446 0.949 . S
H2442 C2448 0.950 . S
H2443 C2449 0.950 . S
H2444 C2450 0.949 . S
C2445 H2440 0.950 . S
C2445 C2447 1.327 . S
C2445 C2451 1.429 . S
C2446 C2438 1.574 . S
C2446 H2441 0.949 . S
C2446 C2452 1.368 . S
C2447 C2431 1.349 . S
C2447 H2439 0.950 . S
C2447 C2445 1.327 . S
C2448 C2436 1.349 . S
C2448 H2442 0.950 . S
C2448 C2449 1.327 . S
C2449 H2443 0.950 . S
C2449 C2448 1.327 . S
C2449 C2453 1.429 . S
C2450 C2433 1.574 . S
C2450 H2444 0.949 . S
C2450 C2454 1.368 . S
C2451 C2432 1.429 . S
C2451 C2445 1.429 . S
C2451 C2452 1.523 . S
C2452 C2433 1.368 . S
C2452 C2446 1.368 . S
C2452 C2451 1.523 . S
C2453 C2437 1.429 . S
C2453 C2449 1.429 . S
C2453 C2454 1.523 . S
C2454 C2438 1.368 . S
C2454 C2450 1.368 . S
C2454 C2453 1.523 . S
H2455 C2430 0.950 . S
H2456 C2432 0.950 . S
H2457 C2433 0.949 . S
H2458 C2435 0.950 . S
H2459 C2437 0.950 . S
C2460 C2461 1.349 . S
C2460 C2462 1.327 . S
C2460 H2485 0.950 . S
C2461 C2460 1.349 . S
C2461 C2477 1.349 . S
C2462 C2460 1.327 . S
C2462 C2481 1.429 . S
C2462 H2486 0.950 . S
C2463 C2480 1.574 . S
C2463 C2482 1.368 . S
C2463 H2487 0.949 . S
H2464 C2468 0.949 . S
C2465 C2466 1.349 . S
C2465 C2467 1.327 . S
C2465 H2488 0.950 . S
C2466 C2465 1.349 . S
C2466 C2478 1.349 . S
C2467 C2465 1.327 . S
C2467 C2483 1.429 . S
C2467 H2489 0.950 . S
C2468 H2464 0.949 . S
C2468 C2476 1.574 . S
C2468 C2484 1.368 . S
H2469 C2477 0.950 . S
H2470 C2475 0.950 . S
H2471 C2476 0.949 . S
H2472 C2478 0.950 . S
H2473 C2479 0.950 . S
H2474 C2480 0.949 . S
C2475 H2470 0.950 . S
C2475 C2477 1.327 . S
C2475 C2481 1.429 . S
C2476 C2468 1.574 . S
C2476 H2471 0.949 . S
C2476 C2482 1.368 . S
C2477 C2461 1.349 . S
C2477 H2469 0.950 . S
C2477 C2475 1.327 . S
C2478 C2466 1.349 . S
C2478 H2472 0.950 . S
C2478 C2479 1.327 . S
C2479 H2473 0.950 . S
C2479 C2478 1.327 . S
C2479 C2483 1.429 . S
C2480 C2463 1.574 . S
C2480 H2474 0.949 . S
C2480 C2484 1.368 . S
C2481 C2462 1.429 . S
C2481 C2475 1.429 . S
C2481 C2482 1.523 . S
C2482 C2463 1.368 . S
C2482 C2476 1.368 . S
C2482 C2481 1.523 . S
C2483 C2467 1.429 . S
C2483 C2479 1.429 . S
C2483 C2484 1.523 . S
C2484 C2468 1.368 . S
C2484 C2480 1.368 . S
C2484 C2483 1.523 . S
H2485 C2460 0.950 . S
H2486 C2462 0.950 . S
H2487 C2463 0.949 . S
H2488 C2465 0.950 . S
H2489 C2467 0.950 . S
C2490 C2491 1.349 . S
C2490 C2492 1.327 . S
C2490 H2515 0.950 . S
C2491 C2490 1.349 . S
C2491 C2507 1.349 . S
C2492 C2490 1.327 . S
C2492 C2511 1.429 . S
C2492 H2516 0.950 . S
C2493 C2510 1.574 . S
C2493 C2512 1.368 . S
C2493 H2517 0.949 . S
H2494 C2498 0.949 . S
C2495 C2496 1.349 . S
C2495 C2497 1.327 . S
C2495 H2518 0.950 . S
C2496 C2495 1.349 . S
C2496 C2508 1.349 . S
C2497 C2495 1.327 . S
C2497 C2513 1.429 . S
C2497 H2519 0.950 . S
C2498 H2494 0.949 . S
C2498 C2506 1.574 . S
C2498 C2514 1.368 . S
H2499 C2507 0.950 . S
H2500 C2505 0.950 . S
H2501 C2506 0.949 . S
H2502 C2508 0.950 . S
H2503 C2509 0.950 . S
H2504 C2510 0.949 . S
C2505 H2500 0.950 . S
C2505 C2507 1.327 . S
C2505 C2511 1.429 . S
C2506 C2498 1.574 . S
C2506 H2501 0.949 . S
C2506 C2512 1.368 . S
C2507 C2491 1.349 . S
C2507 H2499 0.950 . S
C2507 C2505 1.327 . S
C2508 C2496 1.349 . S
C2508 H2502 0.950 . S
C2508 C2509 1.327 . S
C2509 H2503 0.950 . S
C2509 C2508 1.327 . S
C2509 C2513 1.429 . S
C2510 C2493 1.574 . S
C2510 H2504 0.949 . S
C2510 C2514 1.368 . S
C2511 C2492 1.429 . S
C2511 C2505 1.429 . S
C2511 C2512 1.523 . S
C2512 C2493 1.368 . S
C2512 C2506 1.368 . S
C2512 C2511 1.523 . S
C2513 C2497 1.429 . S
C2513 C2509 1.429 . S
C2513 C2514 1.523 . S
C2514 C2498 1.368 . S
C2514 C2510 1.368 . S
C2514 C2513 1.523 . S
H2515 C2490 0.950 . S
H2516 C2492 0.950 . S
H2517 C2493 0.949 . S
H2518 C2495 0.950 . S
H2519 C2497 0.950 . S
C2520 C2521 1.353 . S
C2520 C2522 1.327 . S
C2520 H2545 0.950 . S
C2521 C2520 1.353 . S
C2521 C2537 1.346 1_556 S
C2522 C2520 1.327 . S
C2522 C2541 1.429 . S
C2522 H2546 0.950 . S
C2523 C2540 1.574 . S
C2523 C2542 1.368 . S
C2523 H2547 0.949 1_556 S
H2524 C2528 0.949 . S
C2525 C2526 1.349 . S
C2525 C2527 1.327 . S
C2525 H2548 0.950 . S
C2526 C2525 1.349 . S
C2526 C2538 1.349 . S
C2527 C2525 1.327 . S
C2527 C2543 1.429 . S
C2527 H2549 0.950 . S
C2528 H2524 0.949 . S
C2528 C2536 1.574 . S
C2528 C2544 1.368 . S
H2529 C2537 0.950 . S
H2530 C2535 0.950 . S
H2531 C2536 0.949 . S
H2532 C2538 0.950 . S
H2533 C2539 0.950 . S
H2534 C2540 0.949 . S
C2535 H2530 0.950 . S
C2535 C2537 1.327 . S
C2535 C2541 1.429 1_554 S
C2536 C2528 1.574 . S
C2536 H2531 0.949 . S
C2536 C2542 1.368 . S
C2537 C2521 1.346 1_554 S
C2537 H2529 0.950 . S
C2537 C2535 1.327 . S
C2538 C2526 1.349 . S
C2538 H2532 0.950 . S
C2538 C2539 1.327 . S
C2539 H2533 0.950 . S
C2539 C2538 1.327 . S
C2539 C2543 1.429 . S
C2540 C2523 1.574 . S
C2540 H2534 0.949 . S
C2540 C2544 1.368 . S
C2541 C2522 1.429 . S
C2541 C2535 1.429 1_556 S
C2541 C2542 1.523 . S
C2542 C2523 1.368 . S
C2542 C2536 1.368 . S
C2542 C2541 1.523 . S
C2543 C2527 1.429 . S
C2543 C2539 1.429 . S
C2543 C2544 1.523 . S
C2544 C2528 1.368 . S
C2544 C2540 1.368 . S
C2544 C2543 1.523 . S
H2545 C2520 0.950 . S
H2546 C2522 0.950 . S
H2547 C2523 0.949 1_554 S
H2548 C2525 0.950 . S
H2549 C2527 0.950 . S
C2550 C2551 1.349 1_554 S
C2550 C2552 1.339 . S
C2550 H2575 0.950 . S
C2551 C2550 1.349 1_556 S
C2551 C2567 1.349 . S
C2552 C2550 1.339 . S
C2552 C2571 1.399 1_554 S
C2552 H2576 0.970 . S
C2553 C2570 1.574 . S
C2553 C2572 1.368 . S
C2553 H2577 0.949 . S
H2554 C2558 0.949 . S
C2555 C2556 1.349 . S
C2555 C2557 1.327 . S
C2555 H2578 0.950 . S
C2556 C2555 1.349 . S
C2556 C2568 1.349 . S
C2557 C2555 1.327 . S
C2557 C2573 1.429 . S
C2557 H2579 0.950 . S
C2558 H2554 0.949 . S
C2558 C2566 1.574 . S
C2558 C2574 1.368 . S
H2559 C2567 0.950 . S
H2560 C2565 0.950 . S
H2561 C2566 0.992 . S
H2562 C2568 0.950 . S
H2563 C2569 0.950 . S
H2564 C2570 0.949 . S
C2565 H2560 0.950 . S
C2565 C2567 1.327 . S
C2565 C2571 1.429 . S
C2566 C2558 1.574 . S
C2566 H2561 0.992 . S
C2566 C2572 1.368 . S
C2567 C2551 1.349 . S
C2567 H2559 0.950 . S
C2567 C2565 1.327 . S
C2568 C2556 1.349 . S
C2568 H2562 0.950 . S
C2568 C2569 1.327 . S
C2569 H2563 0.950 . S
C2569 C2568 1.327 . S
C2569 C2573 1.429 . S
C2570 C2553 1.574 . S
C2570 H2564 0.949 . S
C2570 C2574 1.368 . S
C2571 C2552 1.399 1_556 S
C2571 C2565 1.429 . S
C2571 C2572 1.523 . S
C2572 C2553 1.368 . S
C2572 C2566 1.368 . S
C2572 C2571 1.523 . S
C2573 C2557 1.429 . S
C2573 C2569 1.429 . S
C2573 C2574 1.523 . S
C2574 C2558 1.368 . S
C2574 C2570 1.368 . S
C2574 C2573 1.523 . S
H2575 C2550 0.950 . S
H2576 C2552 0.970 . S
H2577 C2553 0.949 . S
H2578 C2555 0.950 . S
H2579 C2557 0.950 . S
C2580 C2581 1.349 1_554 S
C2580 C2582 1.327 1_554 S
C2580 H2605 0.950 . S
C2581 C2580 1.349 1_556 S
C2581 C2597 1.349 . S
C2582 C2580 1.327 1_556 S
C2582 C2601 1.429 . S
C2582 H2606 0.950 1_556 S
C2583 C2600 1.574 . S
C2583 C2602 1.368 . S
C2583 H2607 0.949 . S
H2584 C2588 0.949 . S
C2585 C2586 1.349 . S
C2585 C2587 1.327 . S
C2585 H2608 0.950 . S
C2586 C2585 1.349 . S
C2586 C2598 1.349 . S
C2587 C2585 1.327 . S
C2587 C2603 1.429 . S
C2587 H2609 0.950 . S
C2588 H2584 0.949 . S
C2588 C2596 1.574 . S
C2588 C2604 1.368 . S
H2589 C2597 0.950 . S
H2590 C2595 0.950 . S
H2591 C2596 0.949 . S
H2592 C2598 0.950 . S
H2593 C2599 0.950 . S
H2594 C2600 0.949 . S
C2595 H2590 0.950 . S
C2595 C2597 1.327 . S
C2595 C2601 1.429 . S
C2596 C2588 1.574 . S
C2596 H2591 0.949 . S
C2596 C2602 1.368 . S
C2597 C2581 1.349 . S
C2597 H2589 0.950 . S
C2597 C2595 1.327 . S
C2598 C2586 1.349 . S
C2598 H2592 0.950 . S
C2598 C2599 1.327 . S
C2599 H2593 0.950 . S
C2599 C2598 1.327 . S
C2599 C2603 1.429 . S
C2600 C2583 1.574 . S
C2600 H2594 0.949 . S
C2600 C2604 1.368 . S
C2601 C2582 1.429 . S
C2601 C2595 1.429 . S
C2601 C2602 1.523 . S
C2602 C2583 1.368 . S
C2602 C2596 1.368 . S
C2602 C2601 1.523 . S
C2603 C2587 1.429 . S
C2603 C2599 1.429 . S
C2603 C2604 1.523 . S
C2604 C2588 1.368 . S
C2604 C2600 1.368 . S
C2604 C2603 1.523 . S
H2605 C2580 0.950 . S
H2606 C2582 0.950 1_554 S
H2607 C2583 0.949 . S
H2608 C2585 0.950 . S
H2609 C2587 0.950 . S
C2610 C2611 1.349 . S
C2610 C2612 1.327 . S
C2610 H2635 0.950 . S
C2611 C2610 1.349 . S
C2611 C2627 1.349 . S
C2612 C2610 1.327 . S
C2612 C2631 1.429 . S
C2612 H2636 0.950 . S
C2613 C2630 1.574 . S
C2613 C2632 1.368 . S
C2613 H2637 0.949 . S
H2614 C2618 0.949 . S
C2615 C2616 1.349 . S
C2615 C2617 1.327 . S
C2615 H2638 0.950 . S
C2616 C2615 1.349 . S
C2616 C2628 1.349 . S
C2617 C2615 1.327 . S
C2617 C2633 1.429 . S
C2617 H2639 0.950 . S
C2618 H2614 0.949 . S
C2618 C2626 1.574 . S
C2618 C2634 1.368 . S
H2619 C2627 0.950 . S
H2620 C2625 0.950 . S
H2621 C2626 0.949 . S
H2622 C2628 0.950 . S
H2623 C2629 0.950 . S
H2624 C2630 0.949 . S
C2625 H2620 0.950 . S
C2625 C2627 1.327 . S
C2625 C2631 1.429 . S
C2626 C2618 1.574 . S
C2626 H2621 0.949 . S
C2626 C2632 1.368 . S
C2627 C2611 1.349 . S
C2627 H2619 0.950 . S
C2627 C2625 1.327 . S
C2628 C2616 1.349 . S
C2628 H2622 0.950 . S
C2628 C2629 1.327 . S
C2629 H2623 0.950 . S
C2629 C2628 1.327 . S
C2629 C2633 1.429 . S
C2630 C2613 1.574 . S
C2630 H2624 0.949 . S
C2630 C2634 1.368 . S
C2631 C2612 1.429 . S
C2631 C2625 1.429 . S
C2631 C2632 1.523 . S
C2632 C2613 1.368 . S
C2632 C2626 1.368 . S
C2632 C2631 1.523 . S
C2633 C2617 1.429 . S
C2633 C2629 1.429 . S
C2633 C2634 1.523 . S
C2634 C2618 1.368 . S
C2634 C2630 1.368 . S
C2634 C2633 1.523 . S
H2635 C2610 0.950 . S
H2636 C2612 0.950 . S
H2637 C2613 0.949 . S
H2638 C2615 0.950 . S
H2639 C2617 0.950 . S
C2640 C2641 1.349 . S
C2640 C2642 1.327 . S
C2640 H2665 0.950 . S
C2641 C2640 1.349 . S
C2641 C2657 1.349 . S
C2642 C2640 1.327 . S
C2642 C2661 1.429 . S
C2642 H2666 0.950 . S
C2643 C2660 1.574 . S
C2643 C2662 1.368 . S
C2643 H2667 0.949 . S
H2644 C2648 0.949 . S
C2645 C2646 1.349 . S
C2645 C2647 1.327 . S
C2645 H2668 0.950 . S
C2646 C2645 1.349 . S
C2646 C2658 1.349 . S
C2647 C2645 1.327 . S
C2647 C2663 1.429 . S
C2647 H2669 0.950 . S
C2648 H2644 0.949 . S
C2648 C2656 1.574 . S
C2648 C2664 1.368 . S
H2649 C2657 0.950 1_554 S
H2650 C2655 0.950 . S
H2651 C2656 0.949 . S
H2652 C2658 0.950 . S
H2653 C2659 0.950 . S
H2654 C2660 0.949 . S
C2655 H2650 0.950 . S
C2655 C2657 1.327 . S
C2655 C2661 1.429 . S
C2656 C2648 1.574 . S
C2656 H2651 0.949 . S
C2656 C2662 1.368 . S
C2657 C2641 1.349 . S
C2657 H2649 0.950 1_556 S
C2657 C2655 1.327 . S
C2658 C2646 1.349 . S
C2658 H2652 0.950 . S
C2658 C2659 1.327 . S
C2659 H2653 0.950 . S
C2659 C2658 1.327 . S
C2659 C2663 1.429 . S
C2660 C2643 1.574 . S
C2660 H2654 0.949 . S
C2660 C2664 1.368 . S
C2661 C2642 1.429 . S
C2661 C2655 1.429 . S
C2661 C2662 1.523 . S
C2662 C2643 1.368 . S
C2662 C2656 1.368 . S
C2662 C2661 1.523 . S
C2663 C2647 1.429 . S
C2663 C2659 1.429 . S
C2663 C2664 1.523 . S
C2664 C2648 1.368 . S
C2664 C2660 1.368 . S
C2664 C2663 1.523 . S
H2665 C2640 0.950 . S
H2666 C2642 0.950 . S
H2667 C2643 0.949 . S
H2668 C2645 0.950 . S
H2669 C2647 0.950 . S
C2670 C2671 1.349 . S
C2670 C2672 1.327 . S
C2670 H2695 0.950 . S
C2671 C2670 1.349 . S
C2671 C2687 1.349 1_556 S
C2672 C2670 1.327 . S
C2672 C2691 1.429 . S
C2672 H2696 0.950 . S
C2673 C2690 1.574 . S
C2673 C2692 1.368 . S
C2673 H2697 0.949 . S
H2674 C2678 0.949 . S
C2675 C2676 1.349 . S
C2675 C2677 1.327 . S
C2675 H2698 0.950 . S
C2676 C2675 1.349 . S
C2676 C2688 1.349 . S
C2677 C2675 1.327 . S
C2677 C2693 1.429 . S
C2677 H2699 0.950 . S
C2678 H2674 0.949 . S
C2678 C2686 1.574 . S
C2678 C2694 1.368 . S
H2679 C2687 0.950 . S
H2680 C2685 0.950 1_554 S
H2681 C2686 0.949 . S
H2682 C2688 0.950 . S
H2683 C2689 0.950 . S
H2684 C2690 0.949 . S
C2685 H2680 0.950 1_556 S
C2685 C2687 1.327 1_556 S
C2685 C2691 1.429 . S
C2686 C2678 1.574 . S
C2686 H2681 0.949 . S
C2686 C2692 1.368 . S
C2687 C2671 1.349 1_554 S
C2687 H2679 0.950 . S
C2687 C2685 1.327 1_554 S
C2688 C2676 1.349 . S
C2688 H2682 0.950 . S
C2688 C2689 1.327 . S
C2689 H2683 0.950 . S
C2689 C2688 1.327 . S
C2689 C2693 1.429 . S
C2690 C2673 1.574 . S
C2690 H2684 0.949 . S
C2690 C2694 1.368 . S
C2691 C2672 1.429 . S
C2691 C2685 1.429 . S
C2691 C2692 1.523 . S
C2692 C2673 1.368 . S
C2692 C2686 1.368 . S
C2692 C2691 1.523 . S
C2693 C2677 1.429 . S
C2693 C2689 1.429 . S
C2693 C2694 1.523 . S
C2694 C2678 1.368 . S
C2694 C2690 1.368 . S
C2694 C2693 1.523 . S
H2695 C2670 0.950 . S
H2696 C2672 0.950 . S
H2697 C2673 0.949 . S
H2698 C2675 0.950 . S
H2699 C2677 0.950 . S
C2700 C2701 1.349 . S
C2700 C2702 1.327 . S
C2700 H2725 0.950 . S
C2701 C2700 1.349 . S
C2701 C2717 1.349 . S
C2702 C2700 1.327 . S
C2702 C2721 1.429 . S
C2702 H2726 0.950 . S
C2703 C2720 1.574 . S
C2703 C2722 1.368 . S
C2703 H2727 0.949 . S
H2704 C2708 0.949 . S
C2705 C2706 1.349 . S
C2705 C2707 1.327 . S
C2705 H2728 0.950 . S
C2706 C2705 1.349 . S
C2706 C2718 1.349 . S
C2707 C2705 1.327 . S
C2707 C2723 1.429 . S
C2707 H2729 0.950 . S
C2708 H2704 0.949 . S
C2708 C2716 1.574 . S
C2708 C2724 1.368 . S
H2709 C2717 0.950 . S
H2710 C2715 0.950 . S
H2711 C2716 0.949 . S
H2712 C2718 0.950 . S
H2713 C2719 0.950 . S
H2714 C2720 0.949 . S
C2715 H2710 0.950 . S
C2715 C2717 1.327 . S
C2715 C2721 1.429 . S
C2716 C2708 1.574 . S
C2716 H2711 0.949 . S
C2716 C2722 1.368 . S
C2717 C2701 1.349 . S
C2717 H2709 0.950 . S
C2717 C2715 1.327 . S
C2718 C2706 1.349 . S
C2718 H2712 0.950 . S
C2718 C2719 1.327 . S
C2719 H2713 0.950 . S
C2719 C2718 1.327 . S
C2719 C2723 1.429 . S
C2720 C2703 1.574 . S
C2720 H2714 0.949 . S
C2720 C2724 1.368 . S
C2721 C2702 1.429 . S
C2721 C2715 1.429 . S
C2721 C2722 1.523 . S
C2722 C2703 1.368 . S
C2722 C2716 1.368 . S
C2722 C2721 1.523 . S
C2723 C2707 1.429 . S
C2723 C2719 1.429 . S
C2723 C2724 1.523 . S
C2724 C2708 1.368 . S
C2724 C2720 1.368 . S
C2724 C2723 1.523 . S
H2725 C2700 0.950 . S
H2726 C2702 0.950 . S
H2727 C2703 0.949 . S
H2728 C2705 0.950 . S
H2729 C2707 0.950 . S
C2730 C2731 1.349 . S
C2730 C2732 1.327 . S
C2730 H2755 0.950 . S
C2731 C2730 1.349 . S
C2731 C2747 1.349 . S
C2732 C2730 1.327 . S
C2732 C2751 1.429 . S
C2732 H2756 0.950 . S
C2733 C2750 1.574 . S
C2733 C2752 1.368 . S
C2733 H2757 0.949 . S
H2734 C2738 0.949 . S
C2735 C2736 1.349 . S
C2735 C2737 1.327 . S
C2735 H2758 0.950 . S
C2736 C2735 1.349 . S
C2736 C2748 1.349 . S
C2737 C2735 1.327 . S
C2737 C2753 1.429 . S
C2737 H2759 0.950 . S
C2738 H2734 0.949 . S
C2738 C2746 1.574 . S
C2738 C2754 1.368 . S
H2739 C2747 0.950 1_556 S
H2740 C2745 0.950 . S
H2741 C2746 0.949 . S
H2742 C2748 0.950 . S
H2743 C2749 0.950 . S
H2744 C2750 0.949 . S
C2745 H2740 0.950 . S
C2745 C2747 1.327 . S
C2745 C2751 1.429 . S
C2746 C2738 1.574 . S
C2746 H2741 0.949 . S
C2746 C2752 1.368 . S
C2747 C2731 1.349 . S
C2747 H2739 0.950 1_554 S
C2747 C2745 1.327 . S
C2748 C2736 1.349 . S
C2748 H2742 0.950 . S
C2748 C2749 1.327 . S
C2749 H2743 0.950 . S
C2749 C2748 1.327 . S
C2749 C2753 1.429 . S
C2750 C2733 1.574 . S
C2750 H2744 0.949 . S
C2750 C2754 1.368 . S
C2751 C2732 1.429 . S
C2751 C2745 1.429 . S
C2751 C2752 1.523 . S
C2752 C2733 1.368 . S
C2752 C2746 1.368 . S
C2752 C2751 1.523 . S
C2753 C2737 1.429 . S
C2753 C2749 1.429 . S
C2753 C2754 1.523 . S
C2754 C2738 1.368 . S
C2754 C2750 1.368 . S
C2754 C2753 1.523 . S
H2755 C2730 0.950 . S
H2756 C2732 0.950 . S
H2757 C2733 0.949 . S
H2758 C2735 0.950 . S
H2759 C2737 0.950 . S
C2760 C2761 1.349 . S
C2760 C2762 1.327 . S
C2760 H2785 0.950 . S
C2761 C2760 1.349 . S
C2761 C2777 1.349 . S
C2762 C2760 1.327 . S
C2762 C2781 1.429 . S
C2762 H2786 0.950 . S
C2763 C2780 1.574 . S
C2763 C2782 1.368 . S
C2763 H2787 0.949 . S
H2764 C2768 0.949 . S
C2765 C2766 1.349 . S
C2765 C2767 1.327 . S
C2765 H2788 0.950 . S
C2766 C2765 1.349 . S
C2766 C2778 1.349 . S
C2767 C2765 1.327 . S
C2767 C2783 1.429 . S
C2767 H2789 0.950 . S
C2768 H2764 0.949 . S
C2768 C2776 1.574 . S
C2768 C2784 1.368 . S
H2769 C2777 0.950 . S
H2770 C2775 0.950 . S
H2771 C2776 0.949 . S
H2772 C2778 0.950 . S
H2773 C2779 0.950 . S
H2774 C2780 0.949 . S
C2775 H2770 0.950 . S
C2775 C2777 1.327 . S
C2775 C2781 1.429 . S
C2776 C2768 1.574 . S
C2776 H2771 0.949 . S
C2776 C2782 1.368 . S
C2777 C2761 1.349 . S
C2777 H2769 0.950 . S
C2777 C2775 1.327 . S
C2778 C2766 1.349 . S
C2778 H2772 0.950 . S
C2778 C2779 1.327 . S
C2779 H2773 0.950 . S
C2779 C2778 1.327 . S
C2779 C2783 1.429 . S
C2780 C2763 1.574 . S
C2780 H2774 0.949 . S
C2780 C2784 1.368 . S
C2781 C2762 1.429 . S
C2781 C2775 1.429 . S
C2781 C2782 1.523 . S
C2782 C2763 1.368 . S
C2782 C2776 1.368 . S
C2782 C2781 1.523 . S
C2783 C2767 1.429 . S
C2783 C2779 1.429 . S
C2783 C2784 1.523 . S
C2784 C2768 1.368 . S
C2784 C2780 1.368 . S
C2784 C2783 1.523 . S
H2785 C2760 0.950 . S
H2786 C2762 0.950 . S
H2787 C2763 0.949 . S
H2788 C2765 0.950 . S
H2789 C2767 0.950 . S
C2790 C2791 1.349 . S
C2790 C2792 1.327 . S
C2790 H2815 0.950 . S
C2791 C2790 1.349 . S
C2791 C2807 1.349 . S
C2792 C2790 1.327 . S
C2792 C2811 1.429 . S
C2792 H2816 0.950 . S
C2793 C2810 1.574 . S
C2793 C2812 1.368 . S
C2793 H2817 0.949 . S
H2794 C2798 0.949 . S
C2795 C2796 1.349 . S
C2795 C2797 1.327 . S
C2795 H2818 0.950 . S
C2796 C2795 1.349 . S
C2796 C2808 1.349 . S
C2797 C2795 1.327 . S
C2797 C2813 1.429 . S
C2797 H2819 0.950 . S
C2798 H2794 0.949 . S
C2798 C2806 1.574 . S
C2798 C2814 1.368 . S
H2799 C2807 0.950 . S
H2800 C2805 0.950 . S
H2801 C2806 0.949 . S
H2802 C2808 0.950 . S
H2803 C2809 0.950 . S
H2804 C2810 0.949 . S
C2805 H2800 0.950 . S
C2805 C2807 1.327 . S
C2805 C2811 1.429 . S
C2806 C2798 1.574 . S
C2806 H2801 0.949 . S
C2806 C2812 1.368 . S
C2807 C2791 1.349 . S
C2807 H2799 0.950 . S
C2807 C2805 1.327 . S
C2808 C2796 1.349 . S
C2808 H2802 0.950 . S
C2808 C2809 1.327 . S
C2809 H2803 0.950 . S
C2809 C2808 1.327 . S
C2809 C2813 1.429 . S
C2810 C2793 1.574 . S
C2810 H2804 0.949 . S
C2810 C2814 1.368 . S
C2811 C2792 1.429 . S
C2811 C2805 1.429 . S
C2811 C2812 1.523 . S
C2812 C2793 1.368 . S
C2812 C2806 1.368 . S
C2812 C2811 1.523 . S
C2813 C2797 1.429 . S
C2813 C2809 1.429 . S
C2813 C2814 1.523 . S
C2814 C2798 1.368 . S
C2814 C2810 1.368 . S
C2814 C2813 1.523 . S
H2815 C2790 0.950 . S
H2816 C2792 0.950 . S
H2817 C2793 0.949 . S
H2818 C2795 0.950 . S
H2819 C2797 0.950 . S
C2820 C2821 1.349 . S
C2820 C2822 1.327 . S
C2820 H2845 0.950 . S
C2821 C2820 1.349 . S
C2821 C2837 1.349 . S
C2822 C2820 1.327 . S
C2822 C2841 1.429 . S
C2822 H2846 0.950 . S
C2823 C2840 1.574 . S
C2823 C2842 1.368 . S
C2823 H2847 0.949 . S
H2824 C2828 0.949 . S
C2825 C2826 1.349 . S
C2825 C2827 1.327 . S
C2825 H2848 0.950 . S
C2826 C2825 1.349 . S
C2826 C2838 1.349 . S
C2827 C2825 1.327 . S
C2827 C2843 1.429 . S
C2827 H2849 0.950 . S
C2828 H2824 0.949 . S
C2828 C2836 1.574 . S
C2828 C2844 1.368 . S
H2829 C2837 0.950 . S
H2830 C2835 0.950 . S
H2831 C2836 0.949 . S
H2832 C2838 0.950 . S
H2833 C2839 0.950 . S
H2834 C2840 0.949 . S
C2835 H2830 0.950 . S
C2835 C2837 1.327 . S
C2835 C2841 1.429 . S
C2836 C2828 1.574 . S
C2836 H2831 0.949 . S
C2836 C2842 1.368 . S
C2837 C2821 1.349 . S
C2837 H2829 0.950 . S
C2837 C2835 1.327 . S
C2838 C2826 1.349 . S
C2838 H2832 0.950 . S
C2838 C2839 1.327 . S
C2839 H2833 0.950 . S
C2839 C2838 1.327 . S
C2839 C2843 1.429 . S
C2840 C2823 1.574 . S
C2840 H2834 0.949 . S
C2840 C2844 1.368 . S
C2841 C2822 1.429 . S
C2841 C2835 1.429 . S
C2841 C2842 1.523 . S
C2842 C2823 1.368 . S
C2842 C2836 1.368 . S
C2842 C2841 1.523 . S
C2843 C2827 1.429 . S
C2843 C2839 1.429 . S
C2843 C2844 1.523 . S
C2844 C2828 1.368 . S
C2844 C2840 1.368 . S
C2844 C2843 1.523 . S
H2845 C2820 0.950 . S
H2846 C2822 0.950 . S
H2847 C2823 0.949 . S
H2848 C2825 0.950 . S
H2849 C2827 0.950 . S
C2850 C2851 1.349 . S
C2850 C2852 1.327 . S
C2850 H2875 0.950 . S
C2851 C2850 1.349 . S
C2851 C2867 1.349 . S
C2852 C2850 1.327 . S
C2852 C2871 1.429 . S
C2852 H2876 0.950 . S
C2853 C2870 1.574 . S
C2853 C2872 1.368 . S
C2853 H2877 0.949 . S
H2854 C2858 0.949 . S
C2855 C2856 1.349 . S
C2855 C2857 1.327 . S
C2855 H2878 0.950 . S
C2856 C2855 1.349 . S
C2856 C2868 1.349 . S
C2857 C2855 1.327 . S
C2857 C2873 1.429 . S
C2857 H2879 0.950 . S
C2858 H2854 0.949 . S
C2858 C2866 1.574 . S
C2858 C2874 1.368 . S
H2859 C2867 0.950 . S
H2860 C2865 0.950 . S
H2861 C2866 0.949 . S
H2862 C2868 0.950 . S
H2863 C2869 0.950 . S
H2864 C2870 0.949 . S
C2865 H2860 0.950 . S
C2865 C2867 1.327 . S
C2865 C2871 1.429 . S
C2866 C2858 1.574 . S
C2866 H2861 0.949 . S
C2866 C2872 1.368 . S
C2867 C2851 1.349 . S
C2867 H2859 0.950 . S
C2867 C2865 1.327 . S
C2868 C2856 1.349 . S
C2868 H2862 0.950 . S
C2868 C2869 1.327 . S
C2869 H2863 0.950 . S
C2869 C2868 1.327 . S
C2869 C2873 1.429 . S
C2870 C2853 1.574 . S
C2870 H2864 0.949 . S
C2870 C2874 1.368 . S
C2871 C2852 1.429 . S
C2871 C2865 1.429 . S
C2871 C2872 1.523 . S
C2872 C2853 1.368 . S
C2872 C2866 1.368 . S
C2872 C2871 1.523 . S
C2873 C2857 1.429 . S
C2873 C2869 1.429 . S
C2873 C2874 1.523 . S
C2874 C2858 1.368 . S
C2874 C2870 1.368 . S
C2874 C2873 1.523 . S
H2875 C2850 0.950 . S
H2876 C2852 0.950 . S
H2877 C2853 0.949 . S
H2878 C2855 0.950 . S
H2879 C2857 0.950 . S
C2880 C2881 1.349 . S
C2880 C2882 1.327 . S
C2880 H2905 0.950 . S
C2881 C2880 1.349 . S
C2881 C2897 1.349 . S
C2882 C2880 1.327 . S
C2882 C2901 1.429 . S
C2882 H2906 0.950 . S
C2883 C2900 1.574 . S
C2883 C2902 1.368 . S
C2883 H2907 0.949 . S
H2884 C2888 0.949 . S
C2885 C2886 1.349 . S
C2885 C2887 1.327 . S
C2885 H2908 0.950 . S
C2886 C2885 1.349 . S
C2886 C2898 1.349 . S
C2887 C2885 1.327 . S
C2887 C2903 1.429 . S
C2887 H2909 0.950 . S
C2888 H2884 0.949 . S
C2888 C2896 1.574 . S
C2888 C2904 1.368 . S
H2889 C2897 0.950 . S
H2890 C2895 0.950 . S
H2891 C2896 0.949 . S
H2892 C2898 0.939 1_655 S
H2893 C2899 0.950 1_655 S
H2894 C2900 0.949 . S
C2895 H2890 0.950 . S
C2895 C2897 1.327 . S
C2895 C2901 1.429 . S
C2896 C2888 1.574 . S
C2896 H2891 0.949 . S
C2896 C2902 1.368 . S
C2897 C2881 1.349 . S
C2897 H2889 0.950 . S
C2897 C2895 1.327 . S
C2898 C2886 1.349 . S
C2898 H2892 0.939 1_455 S
C2898 C2899 1.337 . S
C2899 H2893 0.950 1_455 S
C2899 C2898 1.337 . S
C2899 C2903 1.429 . S
C2900 C2883 1.574 . S
C2900 H2894 0.949 . S
C2900 C2904 1.368 . S
C2901 C2882 1.429 . S
C2901 C2895 1.429 . S
C2901 C2902 1.523 . S
C2902 C2883 1.368 . S
C2902 C2896 1.368 . S
C2902 C2901 1.523 . S
C2903 C2887 1.429 . S
C2903 C2899 1.429 . S
C2903 C2904 1.523 . S
C2904 C2888 1.368 . S
C2904 C2900 1.368 . S
C2904 C2903 1.523 . S
H2905 C2880 0.950 . S
H2906 C2882 0.950 . S
H2907 C2883 0.949 . S
H2908 C2885 0.950 . S
H2909 C2887 0.950 . S
C2910 C2911 1.349 . S
C2910 C2912 1.327 . S
C2910 H2935 0.950 . S
C2911 C2910 1.349 . S
C2911 C2927 1.349 . S
C2912 C2910 1.327 . S
C2912 C2931 1.429 . S
C2912 H2936 0.950 . S
C2913 C2930 1.574 . S
C2913 C2932 1.368 . S
C2913 H2937 0.949 . S
H2914 C2918 0.949 . S
C2915 C2916 1.349 . S
C2915 C2917 1.327 . S
C2915 H2938 0.950 . S
C2916 C2915 1.349 . S
C2916 C2928 1.349 . S
C2917 C2915 1.327 . S
C2917 C2933 1.429 . S
C2917 H2939 0.950 . S
C2918 H2914 0.949 . S
C2918 C2926 1.574 . S
C2918 C2934 1.368 . S
H2919 C2927 0.950 . S
H2920 C2925 0.950 . S
H2921 C2926 0.949 . S
H2922 C2928 0.950 . S
H2923 C2929 0.950 . S
H2924 C2930 0.949 . S
C2925 H2920 0.950 . S
C2925 C2927 1.327 . S
C2925 C2931 1.429 . S
C2926 C2918 1.574 . S
C2926 H2921 0.949 . S
C2926 C2932 1.368 . S
C2927 C2911 1.349 . S
C2927 H2919 0.950 . S
C2927 C2925 1.327 . S
C2928 C2916 1.349 . S
C2928 H2922 0.950 . S
C2928 C2929 1.327 . S
C2929 H2923 0.950 . S
C2929 C2928 1.327 . S
C2929 C2933 1.429 . S
C2930 C2913 1.574 . S
C2930 H2924 0.949 . S
C2930 C2934 1.368 . S
C2931 C2912 1.429 . S
C2931 C2925 1.429 . S
C2931 C2932 1.523 . S
C2932 C2913 1.368 . S
C2932 C2926 1.368 . S
C2932 C2931 1.523 . S
C2933 C2917 1.429 . S
C2933 C2929 1.429 . S
C2933 C2934 1.523 . S
C2934 C2918 1.368 . S
C2934 C2930 1.368 . S
C2934 C2933 1.523 . S
H2935 C2910 0.950 . S
H2936 C2912 0.950 . S
H2937 C2913 0.949 . S
H2938 C2915 0.950 . S
H2939 C2917 0.950 . S
C2940 C2941 1.349 . S
C2940 C2942 1.327 . S
C2940 H2965 0.950 . S
C2941 C2940 1.349 . S
C2941 C2957 1.349 . S
C2942 C2940 1.327 . S
C2942 C2961 1.429 . S
C2942 H2966 0.950 . S
C2943 C2960 1.574 . S
C2943 C2962 1.368 . S
C2943 H2967 0.949 . S
H2944 C2948 0.949 . S
C2945 C2946 1.349 1_545 S
C2945 C2947 1.324 . S
C2945 H2968 0.950 . S
C2946 C2945 1.349 1_565 S
C2946 C2958 1.349 . S
C2947 C2945 1.324 . S
C2947 C2963 1.426 1_545 S
C2947 H2969 0.955 . S
C2948 H2944 0.949 . S
C2948 C2956 1.574 . S
C2948 C2964 1.368 . S
H2949 C2957 0.950 . S
H2950 C2955 0.950 . S
H2951 C2956 0.949 . S
H2952 C2958 0.950 . S
H2953 C2959 0.950 . S
H2954 C2960 0.949 1_545 S
C2955 H2950 0.950 . S
C2955 C2957 1.327 . S
C2955 C2961 1.429 . S
C2956 C2948 1.574 . S
C2956 H2951 0.949 . S
C2956 C2962 1.368 . S
C2957 C2941 1.349 . S
C2957 H2949 0.950 . S
C2957 C2955 1.327 . S
C2958 C2946 1.349 . S
C2958 H2952 0.950 . S
C2958 C2959 1.327 . S
C2959 H2953 0.950 . S
C2959 C2958 1.327 . S
C2959 C2963 1.429 . S
C2960 C2943 1.574 . S
C2960 H2954 0.949 1_565 S
C2960 C2964 1.368 . S
C2961 C2942 1.429 . S
C2961 C2955 1.429 . S
C2961 C2962 1.523 . S
C2962 C2943 1.368 . S
C2962 C2956 1.368 . S
C2962 C2961 1.523 . S
C2963 C2947 1.426 1_565 S
C2963 C2959 1.429 . S
C2963 C2964 1.523 . S
C2964 C2948 1.368 . S
C2964 C2960 1.368 . S
C2964 C2963 1.523 . S
H2965 C2940 0.950 . S
H2966 C2942 0.950 . S
H2967 C2943 0.949 . S
H2968 C2945 0.950 . S
H2969 C2947 0.955 . S
C2970 C2971 1.349 . S
C2970 C2972 1.327 . S
C2970 H2995 0.950 . S
C2971 C2970 1.349 . S
C2971 C2987 1.349 . S
C2972 C2970 1.327 . S
C2972 C2991 1.429 . S
C2972 H2996 0.950 . S
C2973 C2990 1.574 . S
C2973 C2992 1.368 . S
C2973 H2997 0.949 . S
H2974 C2978 0.949 . S
C2975 C2976 1.350 . S
C2975 C2977 1.387 . S
C2975 H2998 0.896 1_565 S
C2976 C2975 1.350 . S
C2976 C2988 1.349 . S
C2977 C2975 1.387 . S
C2977 C2993 1.429 . S
C2977 H2999 0.950 1_565 S
C2978 H2974 0.949 . S
C2978 C2986 1.574 . S
C2978 C2994 1.368 . S
H2979 C2987 0.950 . S
H2980 C2985 0.950 . S
H2981 C2986 0.949 . S
H2982 C2988 0.950 . S
H2983 C2989 0.950 . S
H2984 C2990 1.009 . S
C2985 H2980 0.950 . S
C2985 C2987 1.327 . S
C2985 C2991 1.429 . S
C2986 C2978 1.574 . S
C2986 H2981 0.949 . S
C2986 C2992 1.368 . S
C2987 C2971 1.349 . S
C2987 H2979 0.950 . S
C2987 C2985 1.327 . S
C2988 C2976 1.349 . S
C2988 H2982 0.950 . S
C2988 C2989 1.327 . S
C2989 H2983 0.950 . S
C2989 C2988 1.327 . S
C2989 C2993 1.429 . S
C2990 C2973 1.574 . S
C2990 H2984 1.009 . S
C2990 C2994 1.368 . S
C2991 C2972 1.429 . S
C2991 C2985 1.429 . S
C2991 C2992 1.523 . S
C2992 C2973 1.368 . S
C2992 C2986 1.368 . S
C2992 C2991 1.523 . S
C2993 C2977 1.429 . S
C2993 C2989 1.429 . S
C2993 C2994 1.523 . S
C2994 C2978 1.368 . S
C2994 C2990 1.368 . S
C2994 C2993 1.523 . S
H2995 C2970 0.950 . S
H2996 C2972 0.950 . S
H2997 C2973 0.949 . S
H2998 C2975 0.896 1_545 S
H2999 C2977 0.950 1_545 S
C3000 C3001 1.349 . S
C3000 C3002 1.327 . S
C3000 H3025 0.950 . S
C3001 C3000 1.349 . S
C3001 C3017 1.349 . S
C3002 C3000 1.327 . S
C3002 C3021 1.429 . S
C3002 H3026 0.950 . S
C3003 C3020 1.574 . S
C3003 C3022 1.368 . S
C3003 H3027 0.949 . S
H3004 C3008 0.949 1_655 S
C3005 C3006 1.349 . S
C3005 C3007 1.327 . S
C3005 H3028 0.950 . S
C3006 C3005 1.349 . S
C3006 C3018 1.349 1_455 S
C3007 C3005 1.327 . S
C3007 C3023 1.429 . S
C3007 H3029 0.950 . S
C3008 H3004 0.949 1_455 S
C3008 C3016 1.574 . S
C3008 C3024 1.368 . S
H3009 C3017 0.950 . S
H3010 C3015 0.950 . S
H3011 C3016 0.949 . S
H3012 C3018 0.950 . S
H3013 C3019 0.956 1_655 S
H3014 C3020 0.949 . S
C3015 H3010 0.950 . S
C3015 C3017 1.327 . S
C3015 C3021 1.429 . S
C3016 C3008 1.574 . S
C3016 H3011 0.949 . S
C3016 C3022 1.368 . S
C3017 C3001 1.349 . S
C3017 H3009 0.950 . S
C3017 C3015 1.327 . S
C3018 C3006 1.349 1_655 S
C3018 H3012 0.950 . S
C3018 C3019 1.323 1_655 S
C3019 H3013 0.956 1_455 S
C3019 C3018 1.323 1_455 S
C3019 C3023 1.427 . S
C3020 C3003 1.574 . S
C3020 H3014 0.949 . S
C3020 C3024 1.368 . S
C3021 C3002 1.429 . S
C3021 C3015 1.429 . S
C3021 C3022 1.523 . S
C3022 C3003 1.368 . S
C3022 C3016 1.368 . S
C3022 C3021 1.523 . S
C3023 C3007 1.429 . S
C3023 C3019 1.427 . S
C3023 C3024 1.523 . S
C3024 C3008 1.368 . S
C3024 C3020 1.368 . S
C3024 C3023 1.523 . S
H3025 C3000 0.950 . S
H3026 C3002 0.950 . S
H3027 C3003 0.949 . S
H3028 C3005 0.950 . S
H3029 C3007 0.950 . S
C3030 C3031 1.349 . S
C3030 C3032 1.327 . S
C3030 H3055 0.950 . S
C3031 C3030 1.349 . S
C3031 C3047 1.349 . S
C3032 C3030 1.327 . S
C3032 C3051 1.429 . S
C3032 H3056 0.950 . S
C3033 C3050 1.574 . S
C3033 C3052 1.368 . S
C3033 H3057 0.949 . S
H3034 C3038 0.949 . S
C3035 C3036 1.349 . S
C3035 C3037 1.327 . S
C3035 H3058 0.950 . S
C3036 C3035 1.349 . S
C3036 C3048 1.349 . S
C3037 C3035 1.327 . S
C3037 C3053 1.429 . S
C3037 H3059 0.950 . S
C3038 H3034 0.949 . S
C3038 C3046 1.574 . S
C3038 C3054 1.368 . S
H3039 C3047 0.950 . S
H3040 C3045 0.950 . S
H3041 C3046 0.949 . S
H3042 C3048 0.950 . S
H3043 C3049 0.950 . S
H3044 C3050 0.949 . S
C3045 H3040 0.950 . S
C3045 C3047 1.327 . S
C3045 C3051 1.429 . S
C3046 C3038 1.574 . S
C3046 H3041 0.949 . S
C3046 C3052 1.368 . S
C3047 C3031 1.349 . S
C3047 H3039 0.950 . S
C3047 C3045 1.327 . S
C3048 C3036 1.349 . S
C3048 H3042 0.950 . S
C3048 C3049 1.327 . S
C3049 H3043 0.950 . S
C3049 C3048 1.327 . S
C3049 C3053 1.429 . S
C3050 C3033 1.574 . S
C3050 H3044 0.949 . S
C3050 C3054 1.368 . S
C3051 C3032 1.429 . S
C3051 C3045 1.429 . S
C3051 C3052 1.523 . S
C3052 C3033 1.368 . S
C3052 C3046 1.368 . S
C3052 C3051 1.523 . S
C3053 C3037 1.429 . S
C3053 C3049 1.429 . S
C3053 C3054 1.523 . S
C3054 C3038 1.368 . S
C3054 C3050 1.368 . S
C3054 C3053 1.523 . S
H3055 C3030 0.950 . S
H3056 C3032 0.950 . S
H3057 C3033 0.949 . S
H3058 C3035 0.950 . S
H3059 C3037 0.950 . S
C3060 C3061 1.349 . S
C3060 C3062 1.327 . S
C3060 H3085 0.950 . S
C3061 C3060 1.349 . S
C3061 C3077 1.349 . S
C3062 C3060 1.327 . S
C3062 C3081 1.429 . S
C3062 H3086 0.950 . S
C3063 C3080 1.574 . S
C3063 C3082 1.368 . S
C3063 H3087 0.949 . S
H3064 C3068 0.949 . S
C3065 C3066 1.349 . S
C3065 C3067 1.327 . S
C3065 H3088 0.950 . S
C3066 C3065 1.349 . S
C3066 C3078 1.349 . S
C3067 C3065 1.327 . S
C3067 C3083 1.429 . S
C3067 H3089 0.950 . S
C3068 H3064 0.949 . S
C3068 C3076 1.574 . S
C3068 C3084 1.368 . S
H3069 C3077 0.950 . S
H3070 C3075 0.950 . S
H3071 C3076 0.949 . S
H3072 C3078 0.950 . S
H3073 C3079 0.950 . S
H3074 C3080 0.949 . S
C3075 H3070 0.950 . S
C3075 C3077 1.327 . S
C3075 C3081 1.429 . S
C3076 C3068 1.574 . S
C3076 H3071 0.949 . S
C3076 C3082 1.368 . S
C3077 C3061 1.349 . S
C3077 H3069 0.950 . S
C3077 C3075 1.327 . S
C3078 C3066 1.349 . S
C3078 H3072 0.950 . S
C3078 C3079 1.327 . S
C3079 H3073 0.950 . S
C3079 C3078 1.327 . S
C3079 C3083 1.429 . S
C3080 C3063 1.574 . S
C3080 H3074 0.949 . S
C3080 C3084 1.368 . S
C3081 C3062 1.429 . S
C3081 C3075 1.429 . S
C3081 C3082 1.523 . S
C3082 C3063 1.368 . S
C3082 C3076 1.368 . S
C3082 C3081 1.523 . S
C3083 C3067 1.429 . S
C3083 C3079 1.429 . S
C3083 C3084 1.523 . S
C3084 C3068 1.368 . S
C3084 C3080 1.368 . S
C3084 C3083 1.523 . S
H3085 C3060 0.950 . S
H3086 C3062 0.950 . S
H3087 C3063 0.949 . S
H3088 C3065 0.950 . S
H3089 C3067 0.950 . S
C3090 C3091 1.349 . S
C3090 C3092 1.327 . S
C3090 H3115 0.950 . S
C3091 C3090 1.349 . S
C3091 C3107 1.349 . S
C3092 C3090 1.327 . S
C3092 C3111 1.429 . S
C3092 H3116 0.950 . S
C3093 C3110 1.574 . S
C3093 C3112 1.368 . S
C3093 H3117 0.949 . S
H3094 C3098 0.949 . S
C3095 C3096 1.349 . S
C3095 C3097 1.327 . S
C3095 H3118 0.950 . S
C3096 C3095 1.349 . S
C3096 C3108 1.349 . S
C3097 C3095 1.327 . S
C3097 C3113 1.429 . S
C3097 H3119 0.950 . S
C3098 H3094 0.949 . S
C3098 C3106 1.574 . S
C3098 C3114 1.368 . S
H3099 C3107 0.950 . S
H3100 C3105 0.950 . S
H3101 C3106 0.949 . S
H3102 C3108 0.950 . S
H3103 C3109 0.950 . S
H3104 C3110 0.949 . S
C3105 H3100 0.950 . S
C3105 C3107 1.327 . S
C3105 C3111 1.429 . S
C3106 C3098 1.574 . S
C3106 H3101 0.949 . S
C3106 C3112 1.368 . S
C3107 C3091 1.349 . S
C3107 H3099 0.950 . S
C3107 C3105 1.327 . S
C3108 C3096 1.349 . S
C3108 H3102 0.950 . S
C3108 C3109 1.327 . S
C3109 H3103 0.950 . S
C3109 C3108 1.327 . S
C3109 C3113 1.429 . S
C3110 C3093 1.574 . S
C3110 H3104 0.949 . S
C3110 C3114 1.368 . S
C3111 C3092 1.429 . S
C3111 C3105 1.429 . S
C3111 C3112 1.523 . S
C3112 C3093 1.368 . S
C3112 C3106 1.368 . S
C3112 C3111 1.523 . S
C3113 C3097 1.429 . S
C3113 C3109 1.429 . S
C3113 C3114 1.523 . S
C3114 C3098 1.368 . S
C3114 C3110 1.368 . S
C3114 C3113 1.523 . S
H3115 C3090 0.950 . S
H3116 C3092 0.950 . S
H3117 C3093 0.949 . S
H3118 C3095 0.950 . S
H3119 C3097 0.950 . S
C3120 C3121 1.349 . S
C3120 C3122 1.327 . S
C3120 H3145 0.950 . S
C3121 C3120 1.349 . S
C3121 C3137 1.349 . S
C3122 C3120 1.327 . S
C3122 C3141 1.429 . S
C3122 H3146 0.950 . S
C3123 C3140 1.574 . S
C3123 C3142 1.368 . S
C3123 H3147 0.949 . S
H3124 C3128 0.949 . S
C3125 C3126 1.349 . S
C3125 C3127 1.327 . S
C3125 H3148 0.950 . S
C3126 C3125 1.349 . S
C3126 C3138 1.349 . S
C3127 C3125 1.327 . S
C3127 C3143 1.429 . S
C3127 H3149 0.950 . S
C3128 H3124 0.949 . S
C3128 C3136 1.574 . S
C3128 C3144 1.368 . S
H3129 C3137 0.950 . S
H3130 C3135 0.950 . S
H3131 C3136 0.949 . S
H3132 C3138 0.950 . S
H3133 C3139 0.950 . S
H3134 C3140 0.949 . S
C3135 H3130 0.950 . S
C3135 C3137 1.327 . S
C3135 C3141 1.429 . S
C3136 C3128 1.574 . S
C3136 H3131 0.949 . S
C3136 C3142 1.368 . S
C3137 C3121 1.349 . S
C3137 H3129 0.950 . S
C3137 C3135 1.327 . S
C3138 C3126 1.349 . S
C3138 H3132 0.950 . S
C3138 C3139 1.327 . S
C3139 H3133 0.950 . S
C3139 C3138 1.327 . S
C3139 C3143 1.429 . S
C3140 C3123 1.574 . S
C3140 H3134 0.949 . S
C3140 C3144 1.368 . S
C3141 C3122 1.429 . S
C3141 C3135 1.429 . S
C3141 C3142 1.523 . S
C3142 C3123 1.368 . S
C3142 C3136 1.368 . S
C3142 C3141 1.523 . S
C3143 C3127 1.429 . S
C3143 C3139 1.429 . S
C3143 C3144 1.523 . S
C3144 C3128 1.368 . S
C3144 C3140 1.368 . S
C3144 C3143 1.523 . S
H3145 C3120 0.950 . S
H3146 C3122 0.950 . S
H3147 C3123 0.949 . S
H3148 C3125 0.950 . S
H3149 C3127 0.950 . S
C3150 C3151 1.349 . S
C3150 C3152 1.327 . S
C3150 H3175 0.950 . S
C3151 C3150 1.349 . S
C3151 C3167 1.349 . S
C3152 C3150 1.327 . S
C3152 C3171 1.429 . S
C3152 H3176 0.950 . S
C3153 C3170 1.574 . S
C3153 C3172 1.368 . S
C3153 H3177 0.949 . S
H3154 C3158 0.949 . S
C3155 C3156 1.349 . S
C3155 C3157 1.327 . S
C3155 H3178 0.950 . S
C3156 C3155 1.349 . S
C3156 C3168 1.349 . S
C3157 C3155 1.327 . S
C3157 C3173 1.429 . S
C3157 H3179 0.950 . S
C3158 H3154 0.949 . S
C3158 C3166 1.574 . S
C3158 C3174 1.368 . S
H3159 C3167 0.950 . S
H3160 C3165 0.950 . S
H3161 C3166 0.949 . S
H3162 C3168 0.927 1_565 S
H3163 C3169 0.950 . S
H3164 C3170 0.949 . S
C3165 H3160 0.950 . S
C3165 C3167 1.327 . S
C3165 C3171 1.429 . S
C3166 C3158 1.574 . S
C3166 H3161 0.949 . S
C3166 C3172 1.368 . S
C3167 C3151 1.349 . S
C3167 H3159 0.950 . S
C3167 C3165 1.327 . S
C3168 C3156 1.349 . S
C3168 H3162 0.927 1_545 S
C3168 C3169 1.327 . S
C3169 H3163 0.950 . S
C3169 C3168 1.327 . S
C3169 C3173 1.429 . S
C3170 C3153 1.574 . S
C3170 H3164 0.949 . S
C3170 C3174 1.368 . S
C3171 C3152 1.429 . S
C3171 C3165 1.429 . S
C3171 C3172 1.523 . S
C3172 C3153 1.368 . S
C3172 C3166 1.368 . S
C3172 C3171 1.523 . S
C3173 C3157 1.429 . S
C3173 C3169 1.429 . S
C3173 C3174 1.523 . S
C3174 C3158 1.368 . S
C3174 C3170 1.368 . S
C3174 C3173 1.523 . S
H3175 C3150 0.950 . S
H3176 C3152 0.950 . S
H3177 C3153 0.949 . S
H3178 C3155 0.950 . S
H3179 C3157 0.950 . S
C3180 C3181 1.349 . S
C3180 C3182 1.327 . S
C3180 H3205 0.950 . S
C3181 C3180 1.349 . S
C3181 C3197 1.349 . S
C3182 C3180 1.327 . S
C3182 C3201 1.429 . S
C3182 H3206 0.950 . S
C3183 C3200 1.574 . S
C3183 C3202 1.368 . S
C3183 H3207 0.949 . S
H3184 C3188 0.949 . S
C3185 C3186 1.349 . S
C3185 C3187 1.327 . S
C3185 H3208 0.950 . S
C3186 C3185 1.349 . S
C3186 C3198 1.394 . S
C3187 C3185 1.327 . S
C3187 C3203 1.429 . S
C3187 H3209 0.950 . S
C3188 H3184 0.949 . S
C3188 C3196 1.574 . S
C3188 C3204 1.368 . S
H3189 C3197 0.950 . S
H3190 C3195 0.950 . S
H3191 C3196 0.949 . S
H3192 C3198 0.934 1_455 S
H3193 C3199 0.925 1_455 S
H3194 C3200 0.949 . S
C3195 H3190 0.950 . S
C3195 C3197 1.327 . S
C3195 C3201 1.429 . S
C3196 C3188 1.574 . S
C3196 H3191 0.949 . S
C3196 C3202 1.368 . S
C3197 C3181 1.349 . S
C3197 H3189 0.950 . S
C3197 C3195 1.327 . S
C3198 C3186 1.394 . S
C3198 H3192 0.934 1_655 S
C3198 C3199 1.302 . S
C3199 H3193 0.925 1_655 S
C3199 C3198 1.302 . S
C3199 C3203 1.429 . S
C3200 C3183 1.574 . S
C3200 H3194 0.949 . S
C3200 C3204 1.368 . S
C3201 C3182 1.429 . S
C3201 C3195 1.429 . S
C3201 C3202 1.523 . S
C3202 C3183 1.368 . S
C3202 C3196 1.368 . S
C3202 C3201 1.523 . S
C3203 C3187 1.429 . S
C3203 C3199 1.429 . S
C3203 C3204 1.523 . S
C3204 C3188 1.368 . S
C3204 C3200 1.368 . S
C3204 C3203 1.523 . S
H3205 C3180 0.950 . S
H3206 C3182 0.950 . S
H3207 C3183 0.949 . S
H3208 C3185 0.950 . S
H3209 C3187 0.950 . S
C3210 C3211 1.349 . S
C3210 C3212 1.327 . S
C3210 H3235 0.950 . S
C3211 C3210 1.349 . S
C3211 C3227 1.349 . S
C3212 C3210 1.327 . S
C3212 C3231 1.429 . S
C3212 H3236 0.950 . S
C3213 C3230 1.574 . S
C3213 C3232 1.368 . S
C3213 H3237 0.949 . S
H3214 C3218 0.949 . S
C3215 C3216 1.349 . S
C3215 C3217 1.327 . S
C3215 H3238 0.950 . S
C3216 C3215 1.349 . S
C3216 C3228 1.349 . S
C3217 C3215 1.327 . S
C3217 C3233 1.429 . S
C3217 H3239 0.950 . S
C3218 H3214 0.949 . S
C3218 C3226 1.574 . S
C3218 C3234 1.368 . S
H3219 C3227 0.950 . S
H3220 C3225 0.950 . S
H3221 C3226 0.949 . S
H3222 C3228 0.950 . S
H3223 C3229 0.950 . S
H3224 C3230 0.949 . S
C3225 H3220 0.950 . S
C3225 C3227 1.327 . S
C3225 C3231 1.429 . S
C3226 C3218 1.574 . S
C3226 H3221 0.949 . S
C3226 C3232 1.368 . S
C3227 C3211 1.349 . S
C3227 H3219 0.950 . S
C3227 C3225 1.327 . S
C3228 C3216 1.349 . S
C3228 H3222 0.950 . S
C3228 C3229 1.327 . S
C3229 H3223 0.950 . S
C3229 C3228 1.327 . S
C3229 C3233 1.429 . S
C3230 C3213 1.574 . S
C3230 H3224 0.949 . S
C3230 C3234 1.368 . S
C3231 C3212 1.429 . S
C3231 C3225 1.429 . S
C3231 C3232 1.523 . S
C3232 C3213 1.368 . S
C3232 C3226 1.368 . S
C3232 C3231 1.523 . S
C3233 C3217 1.429 . S
C3233 C3229 1.429 . S
C3233 C3234 1.523 . S
C3234 C3218 1.368 . S
C3234 C3230 1.368 . S
C3234 C3233 1.523 . S
H3235 C3210 0.950 . S
H3236 C3212 0.950 . S
H3237 C3213 0.949 . S
H3238 C3215 0.950 . S
H3239 C3217 0.950 . S
C3240 C3241 1.349 . S
C3240 C3242 1.327 . S
C3240 H3265 0.950 . S
C3241 C3240 1.349 . S
C3241 C3257 1.349 . S
C3242 C3240 1.327 . S
C3242 C3261 1.429 . S
C3242 H3266 0.950 . S
C3243 C3260 1.574 . S
C3243 C3262 1.368 . S
C3243 H3267 0.949 . S
H3244 C3248 0.949 . S
C3245 C3246 1.349 . S
C3245 C3247 1.327 . S
C3245 H3268 0.950 . S
C3246 C3245 1.349 . S
C3246 C3258 1.349 . S
C3247 C3245 1.327 . S
C3247 C3263 1.429 . S
C3247 H3269 0.950 . S
C3248 H3244 0.949 . S
C3248 C3256 1.574 . S
C3248 C3264 1.368 . S
H3249 C3257 0.950 . S
H3250 C3255 0.950 . S
H3251 C3256 0.949 . S
H3252 C3258 0.950 . S
H3253 C3259 0.950 . S
H3254 C3260 0.949 . S
C3255 H3250 0.950 . S
C3255 C3257 1.327 . S
C3255 C3261 1.429 . S
C3256 C3248 1.574 . S
C3256 H3251 0.949 . S
C3256 C3262 1.368 . S
C3257 C3241 1.349 . S
C3257 H3249 0.950 . S
C3257 C3255 1.327 . S
C3258 C3246 1.349 . S
C3258 H3252 0.950 . S
C3258 C3259 1.327 . S
C3259 H3253 0.950 . S
C3259 C3258 1.327 . S
C3259 C3263 1.429 . S
C3260 C3243 1.574 . S
C3260 H3254 0.949 . S
C3260 C3264 1.368 . S
C3261 C3242 1.429 . S
C3261 C3255 1.429 . S
C3261 C3262 1.523 . S
C3262 C3243 1.368 . S
C3262 C3256 1.368 . S
C3262 C3261 1.523 . S
C3263 C3247 1.429 . S
C3263 C3259 1.429 . S
C3263 C3264 1.523 . S
C3264 C3248 1.368 . S
C3264 C3260 1.368 . S
C3264 C3263 1.523 . S
H3265 C3240 0.950 . S
H3266 C3242 0.950 . S
H3267 C3243 0.949 . S
H3268 C3245 0.950 . S
H3269 C3247 0.950 . S
C3270 C3271 1.349 . S
C3270 C3272 1.327 . S
C3270 H3295 0.950 . S
C3271 C3270 1.349 . S
C3271 C3287 1.349 . S
C3272 C3270 1.327 . S
C3272 C3291 1.429 . S
C3272 H3296 0.950 . S
C3273 C3290 1.574 . S
C3273 C3292 1.368 . S
C3273 H3297 0.949 . S
H3274 C3278 0.949 . S
C3275 C3276 1.349 . S
C3275 C3277 1.327 . S
C3275 H3298 0.950 . S
C3276 C3275 1.349 . S
C3276 C3288 1.349 . S
C3277 C3275 1.327 . S
C3277 C3293 1.429 . S
C3277 H3299 0.950 . S
C3278 H3274 0.949 . S
C3278 C3286 1.574 . S
C3278 C3294 1.368 . S
H3279 C3287 0.950 . S
H3280 C3285 0.950 . S
H3281 C3286 0.949 . S
H3282 C3288 0.950 . S
H3283 C3289 0.950 . S
H3284 C3290 0.949 . S
C3285 H3280 0.950 . S
C3285 C3287 1.327 . S
C3285 C3291 1.429 . S
C3286 C3278 1.574 . S
C3286 H3281 0.949 . S
C3286 C3292 1.368 . S
C3287 C3271 1.349 . S
C3287 H3279 0.950 . S
C3287 C3285 1.327 . S
C3288 C3276 1.349 . S
C3288 H3282 0.950 . S
C3288 C3289 1.327 . S
C3289 H3283 0.950 . S
C3289 C3288 1.327 . S
C3289 C3293 1.429 . S
C3290 C3273 1.574 . S
C3290 H3284 0.949 . S
C3290 C3294 1.368 . S
C3291 C3272 1.429 . S
C3291 C3285 1.429 . S
C3291 C3292 1.523 . S
C3292 C3273 1.368 . S
C3292 C3286 1.368 . S
C3292 C3291 1.523 . S
C3293 C3277 1.429 . S
C3293 C3289 1.429 . S
C3293 C3294 1.523 . S
C3294 C3278 1.368 . S
C3294 C3290 1.368 . S
C3294 C3293 1.523 . S
H3295 C3270 0.950 . S
H3296 C3272 0.950 . S
H3297 C3273 0.949 . S
H3298 C3275 0.950 . S
H3299 C3277 0.950 . S
C3300 C3301 1.349 . S
C3300 C3302 1.327 . S
C3300 H3325 0.950 . S
C3301 C3300 1.349 . S
C3301 C3317 1.349 . S
C3302 C3300 1.327 . S
C3302 C3321 1.429 . S
C3302 H3326 0.950 . S
C3303 C3320 1.574 . S
C3303 C3322 1.368 . S
C3303 H3327 0.949 . S
H3304 C3308 0.949 . S
C3305 C3306 1.349 . S
C3305 C3307 1.327 . S
C3305 H3328 0.950 . S
C3306 C3305 1.349 . S
C3306 C3318 1.349 . S
C3307 C3305 1.327 . S
C3307 C3323 1.429 . S
C3307 H3329 0.950 . S
C3308 H3304 0.949 . S
C3308 C3316 1.574 . S
C3308 C3324 1.368 . S
H3309 C3317 0.950 . S
H3310 C3315 0.950 . S
H3311 C3316 0.949 . S
H3312 C3318 0.950 . S
H3313 C3319 0.950 . S
H3314 C3320 0.949 . S
C3315 H3310 0.950 . S
C3315 C3317 1.327 . S
C3315 C3321 1.429 . S
C3316 C3308 1.574 . S
C3316 H3311 0.949 . S
C3316 C3322 1.368 . S
C3317 C3301 1.349 . S
C3317 H3309 0.950 . S
C3317 C3315 1.327 . S
C3318 C3306 1.349 . S
C3318 H3312 0.950 . S
C3318 C3319 1.327 . S
C3319 H3313 0.950 . S
C3319 C3318 1.327 . S
C3319 C3323 1.429 . S
C3320 C3303 1.574 . S
C3320 H3314 0.949 . S
C3320 C3324 1.368 . S
C3321 C3302 1.429 . S
C3321 C3315 1.429 . S
C3321 C3322 1.523 . S
C3322 C3303 1.368 . S
C3322 C3316 1.368 . S
C3322 C3321 1.523 . S
C3323 C3307 1.429 . S
C3323 C3319 1.429 . S
C3323 C3324 1.523 . S
C3324 C3308 1.368 . S
C3324 C3320 1.368 . S
C3324 C3323 1.523 . S
H3325 C3300 0.950 . S
H3326 C3302 0.950 . S
H3327 C3303 0.949 . S
H3328 C3305 0.950 . S
H3329 C3307 0.950 . S
C3330 C3331 1.349 . S
C3330 C3332 1.327 . S
C3330 H3355 0.950 . S
C3331 C3330 1.349 . S
C3331 C3347 1.349 . S
C3332 C3330 1.327 . S
C3332 C3351 1.429 . S
C3332 H3356 0.950 . S
C3333 C3350 1.574 . S
C3333 C3352 1.368 . S
C3333 H3357 0.949 . S
H3334 C3338 0.949 . S
C3335 C3336 1.349 . S
C3335 C3337 1.327 . S
C3335 H3358 0.950 . S
C3336 C3335 1.349 . S
C3336 C3348 1.349 . S
C3337 C3335 1.327 . S
C3337 C3353 1.429 . S
C3337 H3359 0.950 . S
C3338 H3334 0.949 . S
C3338 C3346 1.574 . S
C3338 C3354 1.368 . S
H3339 C3347 0.950 . S
H3340 C3345 0.950 . S
H3341 C3346 0.949 . S
H3342 C3348 0.950 . S
H3343 C3349 0.950 . S
H3344 C3350 0.949 . S
C3345 H3340 0.950 . S
C3345 C3347 1.327 . S
C3345 C3351 1.429 . S
C3346 C3338 1.574 . S
C3346 H3341 0.949 . S
C3346 C3352 1.368 . S
C3347 C3331 1.349 . S
C3347 H3339 0.950 . S
C3347 C3345 1.327 . S
C3348 C3336 1.349 . S
C3348 H3342 0.950 . S
C3348 C3349 1.327 . S
C3349 H3343 0.950 . S
C3349 C3348 1.327 . S
C3349 C3353 1.429 . S
C3350 C3333 1.574 . S
C3350 H3344 0.949 . S
C3350 C3354 1.368 . S
C3351 C3332 1.429 . S
C3351 C3345 1.429 . S
C3351 C3352 1.523 . S
C3352 C3333 1.368 . S
C3352 C3346 1.368 . S
C3352 C3351 1.523 . S
C3353 C3337 1.429 . S
C3353 C3349 1.429 . S
C3353 C3354 1.523 . S
C3354 C3338 1.368 . S
C3354 C3350 1.368 . S
C3354 C3353 1.523 . S
H3355 C3330 0.950 . S
H3356 C3332 0.950 . S
H3357 C3333 0.949 . S
H3358 C3335 0.950 . S
H3359 C3337 0.950 . S
C3360 C3361 1.349 . S
C3360 C3362 1.327 . S
C3360 H3385 0.950 1_565 S
C3361 C3360 1.349 . S
C3361 C3377 1.349 . S
C3362 C3360 1.327 . S
C3362 C3381 1.429 . S
C3362 H3386 0.950 . S
C3363 C3380 1.574 . S
C3363 C3382 1.368 . S
C3363 H3387 0.949 . S
H3364 C3368 0.949 . S
C3365 C3366 1.349 . S
C3365 C3367 1.327 . S
C3365 H3388 0.950 . S
C3366 C3365 1.349 . S
C3366 C3378 1.349 . S
C3367 C3365 1.327 . S
C3367 C3383 1.429 . S
C3367 H3389 0.950 . S
C3368 H3364 0.949 . S
C3368 C3376 1.574 . S
C3368 C3384 1.368 . S
H3369 C3377 0.950 . S
H3370 C3375 0.950 . S
H3371 C3376 0.949 . S
H3372 C3378 0.950 . S
H3373 C3379 0.950 . S
H3374 C3380 0.949 . S
C3375 H3370 0.950 . S
C3375 C3377 1.327 . S
C3375 C3381 1.429 . S
C3376 C3368 1.574 . S
C3376 H3371 0.949 . S
C3376 C3382 1.368 . S
C3377 C3361 1.349 . S
C3377 H3369 0.950 . S
C3377 C3375 1.327 . S
C3378 C3366 1.349 . S
C3378 H3372 0.950 . S
C3378 C3379 1.327 . S
C3379 H3373 0.950 . S
C3379 C3378 1.327 . S
C3379 C3383 1.429 . S
C3380 C3363 1.574 . S
C3380 H3374 0.949 . S
C3380 C3384 1.368 . S
C3381 C3362 1.429 . S
C3381 C3375 1.429 . S
C3381 C3382 1.523 . S
C3382 C3363 1.368 . S
C3382 C3376 1.368 . S
C3382 C3381 1.523 . S
C3383 C3367 1.429 . S
C3383 C3379 1.429 . S
C3383 C3384 1.523 . S
C3384 C3368 1.368 . S
C3384 C3380 1.368 . S
C3384 C3383 1.523 . S
H3385 C3360 0.950 1_545 S
H3386 C3362 0.950 . S
H3387 C3363 0.949 . S
H3388 C3365 0.950 . S
H3389 C3367 0.950 . S
C3390 C3391 1.349 . S
C3390 C3392 1.327 . S
C3390 H3415 0.950 . S
C3391 C3390 1.349 . S
C3391 C3407 1.349 . S
C3392 C3390 1.327 . S
C3392 C3411 1.429 . S
C3392 H3416 0.950 . S
C3393 C3410 1.574 . S
C3393 C3412 1.368 . S
C3393 H3417 0.949 . S
H3394 C3398 0.949 . S
C3395 C3396 1.349 . S
C3395 C3397 1.327 . S
C3395 H3418 0.950 . S
C3396 C3395 1.349 . S
C3396 C3408 1.349 . S
C3397 C3395 1.327 . S
C3397 C3413 1.429 . S
C3397 H3419 0.950 . S
C3398 H3394 0.949 . S
C3398 C3406 1.574 . S
C3398 C3414 1.368 . S
H3399 C3407 0.950 1_655 S
H3400 C3405 0.950 . S
H3401 C3406 0.949 . S
H3402 C3408 0.950 . S
H3403 C3409 0.950 . S
H3404 C3410 0.949 . S
C3405 H3400 0.950 . S
C3405 C3407 1.327 . S
C3405 C3411 1.429 . S
C3406 C3398 1.574 . S
C3406 H3401 0.949 . S
C3406 C3412 1.368 . S
C3407 C3391 1.349 . S
C3407 H3399 0.950 1_455 S
C3407 C3405 1.327 . S
C3408 C3396 1.349 . S
C3408 H3402 0.950 . S
C3408 C3409 1.327 . S
C3409 H3403 0.950 . S
C3409 C3408 1.327 . S
C3409 C3413 1.429 . S
C3410 C3393 1.574 . S
C3410 H3404 0.949 . S
C3410 C3414 1.368 . S
C3411 C3392 1.429 . S
C3411 C3405 1.429 . S
C3411 C3412 1.523 . S
C3412 C3393 1.368 . S
C3412 C3406 1.368 . S
C3412 C3411 1.523 . S
C3413 C3397 1.429 . S
C3413 C3409 1.429 . S
C3413 C3414 1.523 . S
C3414 C3398 1.368 . S
C3414 C3410 1.368 . S
C3414 C3413 1.523 . S
H3415 C3390 0.950 . S
H3416 C3392 0.950 . S
H3417 C3393 0.949 . S
H3418 C3395 0.950 . S
H3419 C3397 0.950 . S
C3420 C3421 1.349 . S
C3420 C3422 1.327 . S
C3420 H3445 0.950 . S
C3421 C3420 1.349 . S
C3421 C3437 1.349 . S
C3422 C3420 1.327 . S
C3422 C3441 1.429 . S
C3422 H3446 0.950 . S
C3423 C3440 1.574 . S
C3423 C3442 1.368 . S
C3423 H3447 0.949 . S
H3424 C3428 0.949 . S
C3425 C3426 1.349 . S
C3425 C3427 1.327 . S
C3425 H3448 0.950 . S
C3426 C3425 1.349 . S
C3426 C3438 1.349 . S
C3427 C3425 1.327 . S
C3427 C3443 1.429 . S
C3427 H3449 0.950 . S
C3428 H3424 0.949 . S
C3428 C3436 1.574 . S
C3428 C3444 1.368 . S
H3429 C3437 0.950 . S
H3430 C3435 0.950 . S
H3431 C3436 0.949 . S
H3432 C3438 0.950 . S
H3433 C3439 0.950 . S
H3434 C3440 0.949 . S
C3435 H3430 0.950 . S
C3435 C3437 1.327 . S
C3435 C3441 1.429 . S
C3436 C3428 1.574 . S
C3436 H3431 0.949 . S
C3436 C3442 1.368 . S
C3437 C3421 1.349 . S
C3437 H3429 0.950 . S
C3437 C3435 1.327 . S
C3438 C3426 1.349 . S
C3438 H3432 0.950 . S
C3438 C3439 1.327 . S
C3439 H3433 0.950 . S
C3439 C3438 1.327 . S
C3439 C3443 1.429 . S
C3440 C3423 1.574 . S
C3440 H3434 0.949 . S
C3440 C3444 1.368 . S
C3441 C3422 1.429 . S
C3441 C3435 1.429 . S
C3441 C3442 1.523 . S
C3442 C3423 1.368 . S
C3442 C3436 1.368 . S
C3442 C3441 1.523 . S
C3443 C3427 1.429 . S
C3443 C3439 1.429 . S
C3443 C3444 1.523 . S
C3444 C3428 1.368 . S
C3444 C3440 1.368 . S
C3444 C3443 1.523 . S
H3445 C3420 0.950 . S
H3446 C3422 0.950 . S
H3447 C3423 0.949 . S
H3448 C3425 0.950 . S
H3449 C3427 0.950 . S
C3450 C3451 1.349 . S
C3450 C3452 1.327 . S
C3450 H3475 0.950 . S
C3451 C3450 1.349 . S
C3451 C3467 1.349 . S
C3452 C3450 1.327 . S
C3452 C3471 1.429 . S
C3452 H3476 0.950 . S
C3453 C3470 1.574 . S
C3453 C3472 1.368 . S
C3453 H3477 0.949 . S
H3454 C3458 0.949 . S
C3455 C3456 1.349 . S
C3455 C3457 1.327 . S
C3455 H3478 0.950 . S
C3456 C3455 1.349 . S
C3456 C3468 1.349 . S
C3457 C3455 1.327 . S
C3457 C3473 1.429 . S
C3457 H3479 0.950 . S
C3458 H3454 0.949 . S
C3458 C3466 1.574 . S
C3458 C3474 1.368 . S
H3459 C3467 0.950 . S
H3460 C3465 0.950 . S
H3461 C3466 0.949 . S
H3462 C3468 0.950 . S
H3463 C3469 0.950 . S
H3464 C3470 0.949 . S
C3465 H3460 0.950 . S
C3465 C3467 1.327 . S
C3465 C3471 1.429 . S
C3466 C3458 1.574 . S
C3466 H3461 0.949 . S
C3466 C3472 1.368 . S
C3467 C3451 1.349 . S
C3467 H3459 0.950 . S
C3467 C3465 1.327 . S
C3468 C3456 1.349 . S
C3468 H3462 0.950 . S
C3468 C3469 1.327 . S
C3469 H3463 0.950 . S
C3469 C3468 1.327 . S
C3469 C3473 1.429 . S
C3470 C3453 1.574 . S
C3470 H3464 0.949 . S
C3470 C3474 1.368 . S
C3471 C3452 1.429 . S
C3471 C3465 1.429 . S
C3471 C3472 1.523 . S
C3472 C3453 1.368 . S
C3472 C3466 1.368 . S
C3472 C3471 1.523 . S
C3473 C3457 1.429 . S
C3473 C3469 1.429 . S
C3473 C3474 1.523 . S
C3474 C3458 1.368 . S
C3474 C3470 1.368 . S
C3474 C3473 1.523 . S
H3475 C3450 0.950 . S
H3476 C3452 0.950 . S
H3477 C3453 0.949 . S
H3478 C3455 0.950 . S
H3479 C3457 0.950 . S
C3480 C3481 1.349 . S
C3480 C3482 1.327 . S
C3480 H3505 0.950 . S
C3481 C3480 1.349 . S
C3481 C3497 1.349 . S
C3482 C3480 1.327 . S
C3482 C3501 1.429 . S
C3482 H3506 0.950 . S
C3483 C3500 1.574 . S
C3483 C3502 1.368 . S
C3483 H3507 0.949 . S
H3484 C3488 0.949 . S
C3485 C3486 1.349 . S
C3485 C3487 1.327 . S
C3485 H3508 0.950 1_545 S
C3486 C3485 1.349 . S
C3486 C3498 1.349 . S
C3487 C3485 1.327 . S
C3487 C3503 1.429 . S
C3487 H3509 0.871 1_545 S
C3488 H3484 0.949 . S
C3488 C3496 1.574 . S
C3488 C3504 1.368 . S
H3489 C3497 0.950 . S
H3490 C3495 0.950 . S
H3491 C3496 0.949 . S
H3492 C3498 0.950 . S
H3493 C3499 0.950 . S
H3494 C3500 0.949 . S
C3495 H3490 0.950 . S
C3495 C3497 1.327 . S
C3495 C3501 1.429 . S
C3496 C3488 1.574 . S
C3496 H3491 0.949 . S
C3496 C3502 1.368 . S
C3497 C3481 1.349 . S
C3497 H3489 0.950 . S
C3497 C3495 1.327 . S
C3498 C3486 1.349 . S
C3498 H3492 0.950 . S
C3498 C3499 1.327 . S
C3499 H3493 0.950 . S
C3499 C3498 1.327 . S
C3499 C3503 1.429 . S
C3500 C3483 1.574 . S
C3500 H3494 0.949 . S
C3500 C3504 1.368 . S
C3501 C3482 1.429 . S
C3501 C3495 1.429 . S
C3501 C3502 1.523 . S
C3502 C3483 1.368 . S
C3502 C3496 1.368 . S
C3502 C3501 1.523 . S
C3503 C3487 1.429 . S
C3503 C3499 1.429 . S
C3503 C3504 1.523 . S
C3504 C3488 1.368 . S
C3504 C3500 1.368 . S
C3504 C3503 1.523 . S
H3505 C3480 0.950 . S
H3506 C3482 0.950 . S
H3507 C3483 0.949 . S
H3508 C3485 0.950 1_565 S
H3509 C3487 0.871 1_565 S
C1351 C8 1.529 . S
C1356 C839 1.529 . S
C1381 C18 1.542 . S
C1386 C883 1.539 . S
C1416 C963 1.542 . S
C1411 C31 1.550 . S
C1441 C34 1.569 . S
C1446 C1007 1.577 . S
C1471 C5 1.552 . S
C1476 C1087 1.544 . S
C1501 C21 1.555 . S
C1506 C1149 1.548 . S
C1531 C47 1.517 . S
C1536 C1069 1.518 . S
C1566 C1131 1.525 . S
C1561 C57 1.539 . S
C1596 C1025 1.582 . S
C1591 C70 1.577 . S
C1621 C73 1.530 . S
C1626 C945 1.529 . S
C1656 C821 1.556 . S
C1651 C44 1.565 . S
C1681 C60 1.551 . S
C1686 C901 1.562 . S
C1711 C86 1.598 . S
C1716 C1211 1.589 . S
C1741 C96 1.562 . S
C1746 C1255 1.556 . S
C1776 C1335 1.600 . S
C1771 C109 1.642 . S
C1801 C112 1.650 . S
C1806 C281 1.626 . S
C1831 C83 1.636 . S
C1836 C325 1.626 . S
C1861 C99 1.580 . S
C1866 C405 1.568 . S
C1891 C125 1.564 . S
C1896 C343 1.576 . S
C1921 C135 1.572 . S
C1926 C387 1.555 . S
C1956 C263 1.600 . S
C1951 C148 1.639 . S
C1986 C1317 1.651 . S
C1981 C151 1.675 . S
C2016 C1193 1.573 . S
C2011 C122 1.610 . S
C2046 C1273 1.610 . S
C2041 C138 1.599 . S
C2071 C164 1.575 . S
C2076 C467 1.566 . S
C2101 C174 1.559 . S
C2106 C529 1.543 . S
C2131 C187 1.631 . S
C2136 C573 1.619 . S
C2161 C190 1.670 . S
C2166 C635 1.678 . S
C2196 C697 1.617 . S
C2191 C161 1.630 . S
C2226 C777 1.591 . S
C2221 C177 1.602 . S
C2256 C715 1.623 . S
C2251 C203 1.610 . S
C2286 C759 1.554 . S
C2281 C213 1.575 . S
C2311 C226 1.632 . S
C2316 C653 1.616 . S
C2346 C591 1.646 . S
C2341 C229 1.638 . S
C2371 C200 1.630 . S
C2376 C449 1.598 . S
C2406 C511 1.583 . S
C2401 C216 1.592 . S
C2436 C287 1.310 . S
C2431 C0 1.333 . S
C2461 C23 1.338 . S
C2466 C331 1.275 . S
C2496 C411 1.296 . S
C2491 C36 1.367 . S
C2526 C473 1.336 . S
C2521 C26 1.359 1_556 S
C2556 C535 1.259 . S
C2551 C10 1.335 1_556 S
C2586 C579 1.306 . S
C2581 C13 1.319 1_556 S
C2611 C39 1.356 . S
C2616 C597 1.346 . S
C2641 C62 1.327 . S
C2646 C455 1.256 . S
C2671 C75 1.319 1_556 S
C2676 C517 1.248 . S
C2701 C65 1.406 . S
C2706 C349 1.399 . S
C2736 C393 1.245 . S
C2731 C49 1.318 . S
C2761 C52 1.321 . S
C2766 C269 1.292 . S
C2796 C641 1.321 . S
C2791 C78 1.333 . S
C2821 C101 1.402 1_545 S
C2826 C703 1.339 . S
C2851 C114 1.414 1_655 S
C2856 C783 1.341 . S
C2886 C845 1.263 . S
C2881 C104 1.288 . S
C2911 C88 1.333 . S
C2916 C889 1.271 . S
C2941 C91 1.193 . S
C2946 C969 1.167 . S
C2971 C117 1.227 . S
C2976 C951 1.191 . S
C3001 C140 1.267 . S
C3006 C827 1.210 . S
C3036 C907 1.302 . S
C3031 C153 1.361 . S
C3061 C143 1.365 . S
C3066 C721 1.350 . S
C3091 C127 1.406 1_545 S
C3096 C765 1.326 . S
C3126 C659 1.349 . S
C3121 C130 1.364 . S
C3156 C1013 1.237 . S
C3151 C156 1.253 . S
C3181 C179 1.253 . S
C3186 C1093 1.198 . S
C3211 C192 1.351 . S
C3216 C1155 1.285 . S
C3246 C1217 1.309 . S
C3241 C182 1.338 . S
C3276 C1261 1.344 . S
C3271 C166 1.412 1_565 S
C3301 C169 1.371 . S
C3306 C1341 1.337 . S
C3331 C195 1.348 . S
C3336 C1323 1.322 . S
C3361 C218 1.394 1_565 S
C3366 C1199 1.318 . S
C3396 C1279 1.330 . S
C3391 C231 1.392 1_455 S
C3426 C1075 1.240 . S
C3421 C221 1.265 . S
C3456 C1137 1.267 . S
C3451 C205 1.340 . S
C3481 C208 1.226 . S
C3486 C1031 1.208 . S
