# Generated by pormake.
# Topology pth, (4,4)-cn, num edge types: 1
# Building blocks:
#     Node 0, Type 0, BuildingBlock: UXUYUI_clean_sbu_0, # of connection points: 4
#     Node 1, Type 0, BuildingBlock: UXUYUI_clean_sbu_0, # of connection points: 4
#     Node 2, Type 0, BuildingBlock: UXUYUI_clean_sbu_0, # of connection points: 4
#     Node 3, Type 1, BuildingBlock: MIFKUJ_clean_linker_1, # of connection points: 4
#     Node 4, Type 1, BuildingBlock: MIFKUJ_clean_linker_1, # of connection points: 4
#     Node 5, Type 1, BuildingBlock: MIFKUJ_clean_linker_1, # of connection points: 4
#     Edge 6, Type (0, 1), BuildingBlock: XIVTED_clean_linker_0, # of connection points: 2
#     Edge 7, Type (0, 1), BuildingBlock: XIVTED_clean_linker_0, # of connection points: 2
#     Edge 8, Type (0, 1), BuildingBlock: XIVTED_clean_linker_0, # of connection points: 2
#     Edge 9, Type (0, 1), BuildingBlock: XIVTED_clean_linker_0, # of connection points: 2
#     Edge 10, Type (0, 1), BuildingBlock: XIVTED_clean_linker_0, # of connection points: 2
#     Edge 11, Type (0, 1), BuildingBlock: XIVTED_clean_linker_0, # of connection points: 2
#     Edge 12, Type (0, 1), BuildingBlock: XIVTED_clean_linker_0, # of connection points: 2
#     Edge 13, Type (0, 1), BuildingBlock: XIVTED_clean_linker_0, # of connection points: 2
#     Edge 14, Type (0, 1), BuildingBlock: XIVTED_clean_linker_0, # of connection points: 2
#     Edge 15, Type (0, 1), BuildingBlock: XIVTED_clean_linker_0, # of connection points: 2
#     Edge 16, Type (0, 1), BuildingBlock: XIVTED_clean_linker_0, # of connection points: 2
#     Edge 17, Type (0, 1), BuildingBlock: XIVTED_clean_linker_0, # of connection points: 2
# Relax obj value: 0.075
# Max RMSD: 0.209
# Mean RMSD: 0.121
data_MOF--net-pth--node1-UXUYUI_clean_sbu_0--node2-MIFKUJ_clean_linker_1--edge1-XIVTED_clean_linker_0
_symmetry_space_group_name_H-M    P1
_symmetry_Int_Tables_number       1
_symmetry_cell_setting            triclinic
loop_
_symmetry_equiv_pos_as_xyz
'x, y, z'
_cell_length_a     35.358266
_cell_length_b     35.368794
_cell_length_c     76.252707
_cell_angle_alpha  90.032747
_cell_angle_beta   90.026816
_cell_angle_gamma 120.03514
loop_
_atom_site_label
_atom_site_type_symbol
_atom_site_fract_x
_atom_site_fract_y
_atom_site_fract_z
_atom_type_partial_charge
Li0 Li 0.03551 0.02119 0.02888 0.0
Li1 Li 0.98904 0.02866 0.05053 0.0
Li2 Li 0.00695 0.97055 0.05282 0.0
Li3 Li 0.95735 0.9688 0.03016 0.0
C4 C 0.0725 0.03805 0.06802 0.0
N5 N 0.12122 0.0416 0.09696 0.0
C6 C 0.06527 0.05186 0.08422 0.0
C7 C 0.10464 0.02625 0.06652 0.0
C8 C 0.09025 0.05342 0.09869 0.0
C9 C 0.12886 0.02816 0.08132 0.0
C10 C 0.98106 0.0667 0.02253 0.0
C11 C 0.9363 0.10037 0.02362 0.0
N12 N 0.97201 0.13969 0.01994 0.0
C13 C 0.0173 0.10741 0.0187 0.0
C14 C 0.94018 0.06307 0.02494 0.0
C15 C 0.01205 0.14393 0.01745 0.0
C16 C 0.07334 0.05607 0.99626 0.0
N17 N 0.08276 0.05391 0.01338 0.0
C18 C 0.15781 0.10674 0.00874 0.0
C19 C 0.12404 0.07801 0.01973 0.0
C20 C 0.14883 0.11089 0.9911 0.0
C21 C 0.10609 0.08434 0.98481 0.0
H22 H 0.03998 0.03716 0.99169 0.0
H23 H 0.13046 0.07615 0.03346 0.0
C24 C 0.94577 0.05896 0.07326 0.0
N25 N 0.98205 0.07054 0.06346 0.0
C26 C 0.94268 0.09023 0.08339 0.0
C27 C 0.01411 0.1446 0.07297 0.0
C28 C 0.0159 0.1123 0.06315 0.0
C29 C 0.97729 0.13368 0.08338 0.0
H30 H 0.91958 0.02538 0.07342 0.0
H31 H 0.04469 0.12029 0.05549 0.0
C32 C 0.02723 0.95153 0.01392 0.0
N33 N 0.07193 0.94542 0.98537 0.0
C34 C 0.00809 0.94261 0.99728 0.0
C35 C 0.06899 0.95711 0.01607 0.0
C36 C 0.03125 0.93967 0.983 0.0
C37 C 0.09109 0.95399 0.00146 0.0
C38 C 0.90761 0.93396 0.058 0.0
C39 C 0.89891 0.89278 0.06366 0.0
C40 C 0.87299 0.94075 0.05378 0.0
C41 C 0.8556 0.85891 0.06486 0.0
C42 C 0.83015 0.90602 0.05512 0.0
N43 N 0.82241 0.86616 0.06058 0.0
C44 C 0.00983 0.93831 0.08621 0.0
C45 C 0.02682 0.90542 0.06274 0.0
C46 C 0.01396 0.91097 0.09829 0.0
N47 N 0.01641 0.93512 0.06885 0.0
C48 C 0.03084 0.87709 0.07433 0.0
C49 C 0.02412 0.87943 0.09239 0.0
H50 H 0.0007 0.96169 0.09064 0.0
H51 H 0.03093 0.90298 0.04882 0.0
C52 C 0.89116 0.94654 0.00444 0.0
N53 N 0.90808 0.93062 0.01643 0.0
C54 C 0.85671 0.91794 0.99362 0.0
C55 C 0.85753 0.85731 0.0079 0.0
C56 C 0.8923 0.88704 0.01824 0.0
C57 C 0.83956 0.8727 0.9953 0.0
H58 H 0.90498 0.9814 0.00304 0.0
H59 H 0.90731 0.87544 0.02752 0.0
O60 O 0.04797 0.03568 0.05374 0.0
O61 O 0.98567 0.03071 0.02418 0.0
O62 O 0.0055 0.95545 0.028 0.0
O63 O 0.9498 0.96737 0.05648 0.0
H64 H 0.04035 0.06083 0.08566 0.0
H65 H 0.11044 0.01517 0.05412 0.0
H66 H 0.08489 0.06387 0.11133 0.0
H67 H 0.15364 0.01886 0.08037 0.0
H68 H 0.90491 0.09808 0.02556 0.0
H69 H 0.04925 0.11094 0.01694 0.0
H70 H 0.91185 0.03185 0.02798 0.0
H71 H 0.03984 0.17567 0.01459 0.0
H72 H 0.19038 0.12625 0.01409 0.0
H73 H 0.09751 0.08694 0.9714 0.0
H74 H 0.91363 0.08053 0.09117 0.0
H75 H 0.04184 0.17749 0.07282 0.0
H76 H 0.97591 0.93842 0.99536 0.0
H77 H 0.08433 0.96422 0.02885 0.0
H78 H 0.01693 0.93297 0.97003 0.0
H79 H 0.12353 0.95847 0.00291 0.0
H80 H 0.92527 0.88686 0.06692 0.0
H81 H 0.87916 0.97236 0.04933 0.0
H82 H 0.84838 0.82682 0.06913 0.0
H83 H 0.80305 0.91074 0.05178 0.0
H84 H 0.00898 0.91441 0.11207 0.0
H85 H 0.03782 0.85277 0.06909 0.0
H86 H 0.84369 0.931 0.98403 0.0
H87 H 0.84574 0.82271 0.00936 0.0
Li88 Li 0.99197 0.96363 0.36468 0.0
Li89 Li 0.0383 0.01676 0.38664 0.0
Li90 Li 0.96131 0.99479 0.3842 0.0
Li91 Li 0.01369 0.04052 0.36198 0.0
C92 C 0.97829 0.91684 0.39316 0.0
N93 N 0.96258 0.8325 0.39703 0.0
C94 C 0.01212 0.90943 0.3981 0.0
C95 C 0.93645 0.88137 0.39027 0.0
C96 C 0.00351 0.86654 0.39998 0.0
C97 C 0.92917 0.83898 0.39226 0.0
C98 C 0.07718 0.03498 0.34769 0.0
C99 C 0.13549 0.09963 0.33424 0.0
N100 N 0.12598 0.0785 0.31855 0.0
C101 C 0.06801 0.01387 0.33144 0.0
C102 C 0.11125 0.07817 0.34913 0.0
C103 C 0.09307 0.03644 0.31686 0.0
C104 C 0.95052 0.89263 0.34049 0.0
N105 N 0.98409 0.9141 0.35196 0.0
C106 C 0.01465 0.86985 0.34382 0.0
C107 C 0.01581 0.90343 0.35379 0.0
C108 C 0.98099 0.84758 0.33152 0.0
C109 C 0.94828 0.85899 0.33009 0.0
H110 H 0.9263 0.90251 0.33902 0.0
H111 H 0.04264 0.92177 0.36273 0.0
C112 C 0.06982 0.01447 0.41981 0.0
N113 N 0.083 0.02902 0.40321 0.0
C114 C 0.09989 0.01695 0.43224 0.0
C115 C 0.15695 0.05134 0.41049 0.0
C116 C 0.12562 0.04777 0.39839 0.0
C117 C 0.14392 0.03479 0.42752 0.0
H118 H 0.03558 -0.00062 0.42318 0.0
H119 H 0.13504 0.05848 0.38503 0.0
C120 C 0.91372 0.98061 0.35594 0.0
N121 N 0.82949 0.96555 0.35248 0.0
C122 C 0.9065 0.0145 0.35093 0.0
C123 C 0.87813 0.93902 0.35909 0.0
C124 C 0.86366 0.00622 0.34927 0.0
C125 C 0.83579 0.93209 0.35731 0.0
C126 C 0.03318 0.08044 0.40076 0.0
C127 C 0.01301 0.07116 0.4172 0.0
C128 C 0.07604 0.11497 0.399 0.0
C129 C 0.03618 0.0966 0.43163 0.0
C130 C 0.09812 0.13959 0.41375 0.0
N131 N 0.0779 0.12997 0.42963 0.0
C132 C 0.89184 0.95438 0.40897 0.0
C133 C 0.90184 0.0192 0.39556 0.0
C134 C 0.85921 0.95279 0.41981 0.0
N135 N 0.91245 0.9874 0.39723 0.0
C136 C 0.86931 0.01874 0.406 0.0
C137 C 0.84798 0.98565 0.41857 0.0
H138 H 0.90177 0.93018 0.41035 0.0
H139 H 0.91958 0.04564 0.3864 0.0
C140 C 0.01274 0.07224 0.32857 0.0
N141 N 0.0254 0.08497 0.34539 0.0
C142 C 0.01549 0.10239 0.31613 0.0
C143 C 0.04555 0.15851 0.33845 0.0
C144 C 0.042 0.12717 0.3505 0.0
C145 C 0.03133 0.14601 0.3211 0.0
H146 H -0.00089 0.03828 0.32498 0.0
H147 H 0.05103 0.13618 0.36404 0.0
O148 O 0.98618 0.95857 0.39099 0.0
O149 O 0.05244 0.01378 0.36205 0.0
O150 O 0.95541 0.98819 0.3579 0.0
O151 O 0.01142 0.05531 0.38654 0.0
H152 H 0.04482 0.93642 0.40022 0.0
H153 H 0.90993 0.8865 0.38641 0.0
H154 H 0.02942 0.86033 0.40371 0.0
H155 H 0.89699 0.81122 0.38999 0.0
H156 H 0.16177 0.13314 0.33514 0.0
H157 H 0.04158 0.98059 0.33004 0.0
H158 H 0.11849 0.09514 0.36156 0.0
H159 H 0.08625 0.02057 0.3042 0.0
H160 H 0.04022 0.86185 0.34559 0.0
H161 H 0.9221 0.84325 0.32061 0.0
H162 H 0.08867 0.00413 0.44529 0.0
H163 H 0.19056 0.0649 0.40632 0.0
H164 H 0.93361 0.04698 0.34857 0.0
H165 H 0.88313 0.91246 0.36298 0.0
H166 H 0.85758 0.03218 0.34549 0.0
H167 H 0.80794 0.90011 0.35979 0.0
H168 H 0.98002 0.04436 0.41886 0.0
H169 H 0.09231 0.12229 0.38642 0.0
H170 H 0.02104 0.0897 0.44444 0.0
H171 H 0.13139 0.16624 0.4126 0.0
H172 H 0.84417 0.92705 0.42949 0.0
H173 H 0.86139 0.04442 0.40441 0.0
H174 H 0.00454 0.09151 0.30285 0.0
H175 H 0.05741 0.19169 0.34287 0.0
Li176 Li 0.02012 0.97856 0.69621 0.0
Li177 Li 0.02569 0.03282 0.71732 0.0
Li178 Li 0.96821 0.9563 0.71996 0.0
Li179 Li 0.96626 0.0027 0.6968 0.0
C180 C 0.0366 0.96011 0.73553 0.0
N181 N 0.04229 0.91637 0.7645 0.0
C182 C 0.0487 0.98106 0.7518 0.0
C183 C 0.02768 0.91704 0.73395 0.0
C184 C 0.05136 0.95836 0.7663 0.0
C185 C 0.03062 0.89544 0.74877 0.0
C186 C 0.06385 0.07803 0.68905 0.0
C187 C 0.0965 0.1564 0.68979 0.0
N188 N 0.13598 0.16057 0.68595 0.0
C189 C 0.10469 0.08307 0.68502 0.0
C190 C 0.05961 0.11494 0.69136 0.0
C191 C 0.14078 0.12509 0.68354 0.0
C192 C 0.05227 0.96833 0.66382 0.0
N193 N 0.05454 0.96462 0.68148 0.0
C194 C 0.11546 0.95349 0.67842 0.0
C195 C 0.08492 0.95683 0.6889 0.0
C196 C 0.11447 0.95808 0.66016 0.0
C197 C 0.08176 0.96458 0.65282 0.0
H198 H 0.02881 0.97615 0.65834 0.0
H199 H 0.08667 0.95513 0.703 0.0
C200 C 0.05648 0.10631 0.74045 0.0
N201 N 0.06748 0.08178 0.73025 0.0
C202 C 0.08796 0.13922 0.75112 0.0
C203 C 0.14133 0.12131 0.74023 0.0
C204 C 0.10891 0.0888 0.72987 0.0
C205 C 0.13091 0.14654 0.7513 0.0
H206 H 0.02306 0.09946 0.7407 0.0
H207 H 0.11646 0.06826 0.72181 0.0
C208 C 0.94968 0.91391 0.68179 0.0
N209 N 0.94055 0.858 0.65472 0.0
C210 C 0.93834 0.92068 0.665 0.0
C211 C 0.9561 0.87856 0.68485 0.0
C212 C 0.93393 0.89206 0.65148 0.0
C213 C 0.95144 0.85072 0.67098 0.0
C214 C 0.93031 0.0183 0.7239 0.0
C215 C 0.88866 0.98537 0.72889 0.0
C216 C 0.93724 0.05973 0.71967 0.0
C217 C 0.85445 0.99439 0.72938 0.0
C218 C 0.90218 0.06742 0.72029 0.0
N219 N 0.86185 0.03486 0.72509 0.0
C220 C 0.93475 0.92019 0.75329 0.0
C221 C 0.90036 0.87265 0.72921 0.0
C222 C 0.90494 0.88913 0.76493 0.0
N223 N 0.93189 0.91142 0.73582 0.0
C224 C 0.86949 0.84092 0.74033 0.0
C225 C 0.87133 0.84925 0.75841 0.0
H226 H 0.9592 0.9519 0.7581 0.0
H227 H 0.89824 0.86695 0.71522 0.0
C228 C 0.94027 0.04349 0.6708 0.0
N229 N 0.9267 0.01052 0.68263 0.0
C230 C 0.91021 0.04509 0.65933 0.0
C231 C 0.85299 0.97932 0.67277 0.0
C232 C 0.88408 0.97887 0.68385 0.0
C233 C 0.86596 0.0123 0.66008 0.0
H234 H 0.97455 0.06773 0.66989 0.0
H235 H 0.87446 0.95261 0.69318 0.0
O236 O 0.03331 0.98155 0.72121 0.0
O237 O 0.02827 0.0372 0.69089 0.0
O238 O 0.95463 0.9418 0.69517 0.0
O239 O 0.96406 0.00993 0.72304 0.0
H240 H 0.0555 0.0143 0.75329 0.0
H241 H 0.01835 0.90041 0.72144 0.0
H242 H 0.06048 0.97408 0.779 0.0
H243 H 0.02361 0.86203 0.74777 0.0
H244 H 0.09375 0.18525 0.69165 0.0
H245 H 0.10862 0.0549 0.68324 0.0
H246 H 0.02825 0.1116 0.69448 0.0
H247 H 0.17262 0.12949 0.68052 0.0
H248 H 0.14024 0.94844 0.68453 0.0
H249 H 0.08045 0.96904 0.63882 0.0
H250 H 0.07838 0.15755 0.75959 0.0
H251 H 0.17409 0.12621 0.73973 0.0
H252 H 0.93345 0.94798 0.66237 0.0
H253 H 0.9648 0.87283 0.69777 0.0
H254 H 0.92536 0.89702 0.6384 0.0
H255 H 0.95649 0.82335 0.67313 0.0
H256 H 0.88267 0.95309 0.73217 0.0
H257 H 0.96928 0.08555 0.71579 0.0
H258 H 0.82199 0.96917 0.73312 0.0
H259 H 0.90701 0.09926 0.71694 0.0
H260 H 0.90695 0.89696 0.77875 0.0
H261 H 0.84403 0.81048 0.73485 0.0
H262 H 0.92176 0.07081 0.64962 0.0
H263 H 0.81921 0.95377 0.67403 0.0
H264 H 0.05884 0.47359 0.1724 0.0
H265 H 0.0535 0.41563 0.15324 0.0
H266 H 0.93189 0.3237 0.17817 0.0
H267 H 0.9377 0.38164 0.19735 0.0
H268 H 0.0078 0.50772 0.17547 0.0
H269 H 0.06197 0.44245 0.214 0.0
H270 H 0.06738 0.38555 0.23008 0.0
H271 H 0.94492 0.34858 0.25587 0.0
H272 H 0.93936 0.4052 0.23952 0.0
H273 H 0.93388 0.51915 0.2411 0.0
H274 H 0.93086 0.57266 0.2604 0.0
H275 H 0.05301 0.67369 0.23878 0.0
H276 H 0.05694 0.61953 0.22026 0.0
H277 H 0.99237 0.49231 0.24012 0.0
H278 H 0.94285 0.56325 0.19701 0.0
H279 H 0.94872 0.62494 0.18027 0.0
H280 H 0.0799 0.65962 0.16477 0.0
H281 H 0.07287 0.59691 0.18093 0.0
C282 C -0.0011 0.43186 0.18641 0.0
C283 C 0.0311 0.44091 0.17374 0.0
C284 C 0.02789 0.40779 0.16276 0.0
C285 C 0.99224 0.36502 0.16417 0.0
C286 C 0.96011 0.35609 0.17692 0.0
C287 C 0.96338 0.3892 0.1879 0.0
C288 C 0.00135 0.46724 0.19765 0.0
C289 C 0.00495 0.50455 0.18963 0.0
C290 C -0.00221 0.46329 0.21611 0.0
C291 C 9e-05 0.42782 0.22548 0.0
C292 C 0.03605 0.42177 0.22297 0.0
C293 C 0.0393 0.38952 0.23227 0.0
C294 C 0.0066 0.36267 0.24424 0.0
C295 C 0.97039 0.36849 0.2466 0.0
C296 C 0.9673 0.40098 0.23737 0.0
C297 C 0.99536 0.56537 0.22907 0.0
C298 C 0.96004 0.55284 0.24055 0.0
C299 C 0.95816 0.58359 0.25147 0.0
C300 C 0.99161 0.62759 0.25112 0.0
C301 C 0.02691 0.64004 0.23955 0.0
C302 C 0.02892 0.60919 0.22875 0.0
C303 C -0.00245 0.5322 0.21789 0.0
C304 C 0.99498 0.49532 0.22596 0.0
C305 C 0.00343 0.53719 0.19952 0.0
C306 C 0.0074 0.5756 0.19015 0.0
C307 C 0.97286 0.58434 0.19003 0.0
C308 C 0.97643 0.6198 0.18054 0.0
C309 C 0.01476 0.64729 0.17108 0.0
C310 C 0.04957 0.63872 0.17156 0.0
C311 C 0.04575 0.60304 0.18088 0.0
H312 H 0.61595 0.05159 0.53189 0.0
H313 H 0.67194 0.04879 0.51401 0.0
H314 H 0.57167 0.93358 0.48778 0.0
H315 H 0.51631 0.93554 0.50619 0.0
H316 H 0.4935 -0.00225 0.50861 0.0
H317 H 0.5775 0.05174 0.57469 0.0
H318 H 0.63701 0.05459 0.59187 0.0
H319 H 0.62134 0.94043 0.56455 0.0
H320 H 0.56034 0.93669 0.54792 0.0
H321 H 0.4002 0.92214 0.56961 0.0
H322 H 0.33941 0.9156 0.58731 0.0
H323 H 0.37499 0.04787 0.57373 0.0
H324 H 0.43561 0.05405 0.55583 0.0
H325 H 0.49274 0.98883 0.57352 0.0
H326 H 0.37027 0.94002 0.53286 0.0
H327 H 0.31467 0.94813 0.51716 0.0
H328 H 0.41601 0.06528 0.49242 0.0
H329 H 0.47107 0.05861 0.50916 0.0
C330 C 0.56203 0.99347 0.52051 0.0
C331 C 0.60617 0.02549 0.52242 0.0
C332 C 0.63807 0.02407 0.51206 0.0
C333 C 0.62632 0.99084 0.49949 0.0
C334 C 0.58199 0.95914 0.49753 0.0
C335 C 0.55022 0.96047 0.50793 0.0
C336 C 0.52768 0.99421 0.53138 0.0
C337 C 0.4934 0.99589 0.52281 0.0
C338 C 0.52807 0.99281 0.54992 0.0
C339 C 0.56467 0.9942 0.55994 0.0
C340 C 0.58681 0.02724 0.57244 0.0
C341 C 0.62118 0.0291 0.58212 0.0
C342 C 0.63423 -0.00207 0.57951 0.0
C343 C 0.61193 0.96475 0.56699 0.0
C344 C 0.57731 0.96279 0.55735 0.0
C345 C 0.42217 0.98851 0.56143 0.0
C346 C 0.39484 0.94968 0.57045 0.0
C347 C 0.36004 0.94589 0.58043 0.0
C348 C 0.35254 0.98119 0.58181 0.0
C349 C 0.38025 0.02027 0.57291 0.0
C350 C 0.4147 0.02381 0.56269 0.0
C351 C 0.45843 0.99168 0.55072 0.0
C352 C 0.49304 0.99086 0.55932 0.0
C353 C 0.45905 0.9953 0.53225 0.0
C354 C 0.42485 -0.00086 0.52245 0.0
C355 C 0.38044 0.96792 0.52433 0.0
C356 C 0.34867 0.97228 0.51511 0.0
C357 C 0.36071 0.00746 0.50351 0.0
C358 C 0.40533 0.03828 0.50149 0.0
C359 C 0.43697 0.03422 0.5109 0.0
H360 H 0.46839 0.41217 0.84045 0.0
H361 H 0.41115 0.358 0.82143 0.0
H362 H 0.31629 0.38274 0.84673 0.0
H363 H 0.37384 0.43765 0.86537 0.0
H364 H 0.49956 0.49682 0.84277 0.0
H365 H 0.43661 0.37878 0.88193 0.0
H366 H 0.38356 0.31754 0.89961 0.0
H367 H 0.34784 0.40338 0.92594 0.0
H368 H 0.40107 0.46457 0.90824 0.0
H369 H 0.50694 0.58414 0.9073 0.0
H370 H 0.55862 0.64458 0.92581 0.0
H371 H 0.66455 0.63057 0.90501 0.0
H372 H 0.61267 0.5694 0.88686 0.0
H373 H 0.48584 0.50081 0.90738 0.0
H374 H 0.54878 0.6178 0.86223 0.0
H375 H 0.60994 0.67512 0.84548 0.0
H376 H 0.65271 0.58374 0.83214 0.0
H377 H 0.59142 0.5266 0.84872 0.0
C378 C 0.42536 0.42871 0.85442 0.0
C379 C 0.43524 0.40584 0.84191 0.0
C380 C 0.40245 0.3747 0.83114 0.0
C381 C 0.35918 0.36609 0.83258 0.0
C382 C 0.34936 0.38893 0.84518 0.0
C383 C 0.38214 0.41997 0.85597 0.0
C384 C 0.46041 0.46317 0.86533 0.0
C385 C 0.49673 0.49734 0.85693 0.0
C386 C 0.45698 0.46392 0.88379 0.0
C387 C 0.42265 0.42624 0.89368 0.0
C388 C 0.41684 0.38427 0.89131 0.0
C389 C 0.3865 0.34927 0.90143 0.0
C390 C 0.36161 0.35563 0.91422 0.0
C391 C 0.367 0.39756 0.91637 0.0
C392 C 0.39727 0.43252 0.90623 0.0
C393 C 0.55594 0.57256 0.89551 0.0
C394 C 0.54129 0.59405 0.90673 0.0
C395 C 0.57079 0.62852 0.9173 0.0
C396 C 0.61557 0.64233 0.91678 0.0
C397 C 0.63028 0.62101 0.90547 0.0
C398 C 0.60067 0.58614 0.89506 0.0
C399 C 0.52399 0.5351 0.88475 0.0
C400 C 0.48838 0.50024 0.89321 0.0
C401 C 0.52861 0.53312 0.86641 0.0
C402 C 0.56578 0.56813 0.85669 0.0
C403 C 0.57147 0.61028 0.85573 0.0
C404 C 0.60623 0.64284 0.84615 0.0
C405 C 0.63603 0.63378 0.8376 0.0
C406 C 0.63047 0.59167 0.83878 0.0
C407 C 0.59539 0.559 0.84812 0.0
H408 H 0.00299 0.21858 0.07514 0.0
H409 H 0.96482 0.27946 0.17214 0.0
H410 H 0.94921 0.12523 0.11738 0.0
H411 H 0.01032 0.37061 0.12897 0.0
H412 H 0.95802 0.22229 0.15221 0.0
H413 H 0.00522 0.27458 0.0946 0.0
C414 C 0.99161 0.20987 0.08851 0.0
C415 C 0.97604 0.1672 0.09467 0.0
C416 C 0.96943 0.25478 0.14709 0.0
C417 C 0.9784 0.23111 0.11701 0.0
C418 C 0.97315 0.28742 0.15845 0.0
C419 C 0.98824 0.32998 0.15224 0.0
C420 C 0.98094 0.26471 0.12937 0.0
C421 C -0.00081 0.33848 0.13441 0.0
C422 C 0.99274 0.2418 0.0996 0.0
C423 C 0.96109 0.15758 0.11204 0.0
N424 N 0.99537 0.30617 0.12362 0.0
N425 N 0.96287 0.18935 0.12263 0.0
H426 H 0.85123 0.05701 0.43422 0.0
H427 H 0.63085 0.91899 0.4889 0.0
H428 H 0.77145 0.91661 0.431 0.0
H429 H 0.6984 0.05951 0.48434 0.0
H430 H 0.68469 0.91731 0.46936 0.0
H431 H 0.79805 0.05832 0.45414 0.0
C432 C 0.82234 0.02643 0.43756 0.0
C433 C 0.81571 0.98663 0.43077 0.0
C434 C 0.68774 0.9485 0.47265 0.0
C435 C 0.75497 0.98792 0.45393 0.0
C436 C 0.65689 0.94951 0.48375 0.0
C437 C 0.65991 0.98947 0.48823 0.0
C438 C 0.72204 0.98774 0.46601 0.0
C439 C 0.69497 0.02799 0.48144 0.0
C440 C 0.79211 0.02722 0.44906 0.0
C441 C 0.77816 0.94802 0.436 0.0
N442 N 0.72459 0.02615 0.47066 0.0
N443 N 0.7492 0.94963 0.44726 0.0
H444 H 0.7832 0.80864 0.75362 0.0
H445 H 0.72245 0.65741 0.83818 0.0
H446 H 0.88105 0.8186 0.79011 0.0
H447 H 0.63106 0.68641 0.81265 0.0
H448 H 0.78069 0.71087 0.8192 0.0
H449 H 0.7262 0.75747 0.77347 0.0
C450 C 0.79262 0.79976 0.76577 0.0
C451 C 0.83681 0.81763 0.77023 0.0
C452 C 0.74794 0.70569 0.81785 0.0
C453 C 0.77191 0.75933 0.79299 0.0
C454 C 0.71476 0.67515 0.8286 0.0
C455 C 0.67201 0.6676 0.82694 0.0
C456 C 0.73805 0.72821 0.80517 0.0
C457 C 0.6637 0.69157 0.81442 0.0
C458 C 0.76013 0.77089 0.77715 0.0
C459 C 0.8473 0.80559 0.78625 0.0
N460 N 0.69636 0.72055 0.80389 0.0
N461 N 0.81504 0.77691 0.79703 0.0
H462 H 0.07941 0.84581 0.09184 0.0
H463 H 0.98228 0.70195 0.17839 0.0
H464 H 0.97292 0.84108 0.12141 0.0
H465 H 0.05466 0.67634 0.13911 0.0
H466 H 0.98635 0.76037 0.15993 0.0
H467 H 0.07887 0.79106 0.11149 0.0
C468 C 0.05585 0.83328 0.10242 0.0
C469 C 0.02598 0.84803 0.10485 0.0
C470 C 0.0014 0.74196 0.15542 0.0
C471 C 0.02579 0.78583 0.1276 0.0
C472 C -0.00109 0.70842 0.1659 0.0
C473 C 0.01806 0.68395 0.16033 0.0
C474 C 0.02354 0.75141 0.13932 0.0
C475 C 0.03999 0.69463 0.14414 0.0
C476 C 0.05573 0.80216 0.11368 0.0
C477 C -0.00305 0.83124 0.1191 0.0
N478 N 0.04213 0.72753 0.13423 0.0
N479 N -0.00244 0.80102 0.12991 0.0
H480 H 0.22704 0.09956 0.43568 0.0
H481 H 0.28452 0.94192 0.48922 0.0
H482 H 0.13224 0.96531 0.44707 0.0
H483 H 0.36005 0.08239 0.49421 0.0
H484 H 0.23075 0.94947 0.4719 0.0
H485 H 0.27929 0.09371 0.45509 0.0
C486 C 0.21725 0.06896 0.44232 0.0
C487 C 0.1753 0.03292 0.43985 0.0
C488 C 0.25902 0.97861 0.47687 0.0
C489 C 0.23471 0.02586 0.46183 0.0
C490 C 0.28969 0.97435 0.48687 0.0
C491 C 0.32708 0.01156 0.49326 0.0
C492 C 0.2659 0.02037 0.47298 0.0
C493 C 0.33225 0.05276 0.48934 0.0
C494 C 0.24692 0.06568 0.45342 0.0
C495 C 0.1641 0.99403 0.44879 0.0
N496 N 0.30216 0.05606 0.47937 0.0
N497 N 0.19374 0.99142 0.45927 0.0
H498 H 0.19188 0.13807 0.77033 0.0
H499 H 0.29431 0.37307 0.81581 0.0
H500 H 0.14574 0.22827 0.76026 0.0
H501 H 0.34527 0.28572 0.82252 0.0
H502 H 0.23797 0.31968 0.79629 0.0
H503 H 0.247 0.19126 0.79008 0.0
C504 C 0.19354 0.16924 0.77215 0.0
C505 C 0.16429 0.17881 0.76347 0.0
C506 C 0.26147 0.31219 0.80203 0.0
C507 C 0.22712 0.23979 0.78639 0.0
C508 C 0.29348 0.34253 0.81327 0.0
C509 C 0.32456 0.33384 0.82082 0.0
C510 C 0.26041 0.27277 0.79836 0.0
C511 C 0.32231 0.29402 0.81684 0.0
C512 C 0.22491 0.19953 0.78354 0.0
C513 C 0.16739 0.21935 0.76674 0.0
N514 N 0.29078 0.26498 0.8059 0.0
N515 N 0.1983 0.24839 0.77792 0.0
H516 H 0.85934 0.08134 0.64709 0.0
H517 H 0.63961 0.9295 0.59374 0.0
H518 H 0.79903 0.94101 0.64387 0.0
H519 H 0.71088 0.07017 0.58979 0.0
H520 H 0.69748 0.93322 0.61237 0.0
H521 H 0.80492 0.07825 0.62643 0.0
C522 C 0.83486 0.04992 0.64198 0.0
C523 C 0.83363 0.01136 0.64736 0.0
C524 C 0.70057 0.96328 0.60737 0.0
C525 C 0.77097 0.00755 0.62384 0.0
C526 C 0.66762 0.96117 0.59662 0.0
C527 C 0.67022 -0.00041 0.5902 0.0
C528 C 0.73637 0.00412 0.61183 0.0
C529 C 0.70706 0.03973 0.59467 0.0
C530 C 0.80369 0.04816 0.63023 0.0
C531 C 0.80078 0.97152 0.64042 0.0
N532 N 0.73856 0.04096 0.60526 0.0
N533 N 0.77073 0.97066 0.62909 0.0
H534 H 0.83405 0.87743 0.95967 0.0
H535 H 0.60683 0.6534 0.95171 0.0
H536 H 0.76541 0.79704 0.00419 0.0
H537 H 0.69499 0.71243 0.90815 0.0
H538 H 0.65943 0.71168 0.97083 0.0
H539 H 0.77783 0.82307 0.94027 0.0
C540 C 0.80686 0.84855 0.96536 0.0
C541 C 0.80435 0.84158 0.98354 0.0
C542 C 0.66721 0.71192 0.95708 0.0
C543 C 0.74021 0.77936 0.96149 0.0
C544 C 0.63714 0.67886 0.94616 0.0
C545 C 0.64668 0.67811 0.92835 0.0
C546 C 0.70692 0.74473 0.95011 0.0
C547 C 0.68662 0.71161 0.92186 0.0
C548 C 0.77502 0.81744 0.95429 0.0
C549 C 0.76873 0.80341 0.99023 0.0
N550 N 0.71527 0.74365 0.93273 0.0
N551 N 0.73801 0.77372 0.9792 0.0
H552 H 0.91108 0.77061 0.31968 0.0
H553 H 0.05964 0.69529 0.26863 0.0
H554 H 0.05167 0.84843 0.31633 0.0
H555 H 0.92018 0.6341 0.26094 0.0
H556 H 0.05669 0.74848 0.28806 0.0
H557 H 0.91305 0.71695 0.3 0.0
C558 C 0.94233 0.77655 0.31479 0.0
C559 C 0.98128 0.81412 0.31978 0.0
C560 C 0.02673 0.72347 0.28209 0.0
C561 C 0.98374 0.75252 0.29743 0.0
C562 C 0.02841 0.69319 0.27089 0.0
C563 C 0.99013 0.66018 0.26302 0.0
C564 C 0.98644 0.72069 0.2856 0.0
C565 C 0.95047 0.6586 0.26685 0.0
C566 C 0.94342 0.7458 0.30361 0.0
C567 C 0.02085 0.81964 0.31318 0.0
N568 N 0.94965 0.6884 0.27788 0.0
N569 N 0.02103 0.78919 0.30241 0.0
H570 H 0.20233 0.00523 0.66568 0.0
H571 H 0.26723 0.91564 0.58181 0.0
H572 H 0.10608 0.91546 0.6291 0.0
H573 H 0.35597 0.0378 0.60694 0.0
H574 H 0.20844 0.90875 0.601 0.0
H575 H 0.26019 0.01074 0.64643 0.0
C576 C 0.19343 0.98632 0.65367 0.0
C577 C 0.14943 0.95972 0.64897 0.0
C578 C 0.24075 0.93712 0.60225 0.0
C579 C 0.21534 0.96607 0.62688 0.0
C580 C 0.27424 0.94097 0.59138 0.0
C581 C 0.31637 0.97736 0.59283 0.0
C582 C 0.24972 0.96953 0.61483 0.0
C583 C 0.32381 0.00943 0.60534 0.0
C584 C 0.22641 0.98979 0.64263 0.0
C585 C 0.13965 0.93645 0.63314 0.0
N586 N 0.29085 0.00461 0.61596 0.0
N587 N 0.17239 0.93999 0.62266 0.0
H588 H 0.16516 0.10533 0.9562 0.0
H589 H 0.34916 0.35772 0.94953 0.0
H590 H 0.20945 0.19472 2e-05 0.0
H591 H 0.30536 0.27014 0.90515 0.0
H592 H 0.2993 0.29748 0.96831 0.0
H593 H 0.21789 0.16422 0.93739 0.0
C594 C 0.18604 0.13728 0.96188 0.0
C595 C 0.18284 0.14505 0.97973 0.0
C596 C 0.30055 0.29135 0.95447 0.0
C597 C 0.24327 0.21253 0.95829 0.0
C598 C 0.3288 0.32586 0.94371 0.0
C599 C 0.33125 0.31906 0.92571 0.0
C600 C 0.27438 0.24961 0.94722 0.0
C601 C 0.30476 0.2768 0.91897 0.0
C602 C 0.21622 0.17083 0.95114 0.0
C603 C 0.21112 0.18696 0.98641 0.0
N604 N 0.27732 0.24369 0.92972 0.0
N605 N 0.23995 0.2191 0.97568 0.0
H606 H 0.09401 0.23152 0.31547 0.0
H607 H 0.94355 0.27817 0.25099 0.0
H608 H 0.96565 0.1324 0.29851 0.0
H609 H 0.07911 0.37163 0.26101 0.0
H610 H 0.95068 0.22463 0.26882 0.0
H611 H 0.08908 0.28385 0.29596 0.0
C612 C 0.06486 0.22078 0.30761 0.0
C613 C 0.03021 0.17756 0.3086 0.0
C614 C 0.97894 0.25679 0.26706 0.0
C615 C 0.02428 0.23716 0.28631 0.0
C616 C 0.9748 0.28741 0.25697 0.0
C617 C 0.01076 0.32941 0.25455 0.0
C618 C 0.01925 0.26835 0.27493 0.0
C619 C 0.05066 0.33948 0.26241 0.0
C620 C 0.06213 0.25057 0.29643 0.0
C621 C 0.99336 0.16525 0.298 0.0
N622 N 0.05377 0.30926 0.27233 0.0
N623 N 0.99126 0.19495 0.28739 0.0
loop_
_geom_bond_atom_site_label_1
_geom_bond_atom_site_label_2
_geom_bond_distance
_geom_bond_site_symmetry_2
_ccdc_geom_bond_type
Li0 N17 1.990 . S
Li0 O60 1.956 . S
Li0 O61 1.970 1_455 S
Li0 O62 1.961 1_545 S
Li1 N25 1.990 . S
Li1 O60 1.970 1_655 S
Li1 O61 1.956 . S
Li1 O63 1.961 1_545 S
Li2 N47 1.990 . S
Li2 O60 1.961 1_565 S
Li2 O62 1.956 . S
Li2 O63 1.970 1_455 S
Li3 N53 1.990 . S
Li3 O61 1.961 1_565 S
Li3 O62 1.970 1_655 S
Li3 O63 1.956 . S
C4 C6 1.348 . S
C4 C7 1.356 . S
C4 O60 1.325 . S
N5 C8 1.314 . S
N5 C9 1.279 . S
C6 C4 1.348 . S
C6 C8 1.353 . S
C6 H64 0.929 . S
C7 C4 1.356 . S
C7 C9 1.358 . S
C7 H65 0.930 . S
C8 N5 1.314 . S
C8 C6 1.353 . S
C8 H66 0.930 . S
C9 N5 1.279 . S
C9 C7 1.358 . S
C9 H67 0.930 . S
C10 C13 1.348 1_655 S
C10 C14 1.356 . S
C10 O61 1.325 . S
C11 N12 1.290 . S
C11 C14 1.358 . S
C11 H68 0.930 . S
N12 C11 1.290 . S
N12 C15 1.318 . S
C13 C10 1.348 1_455 S
C13 C15 1.353 1_455 S
C13 H69 0.929 . S
C14 C10 1.356 . S
C14 C11 1.358 . S
C14 H70 0.930 . S
C15 N12 1.318 . S
C15 C13 1.353 1_655 S
C15 H71 0.930 1_654 S
C16 N17 1.350 . S
C16 C21 1.330 1_554 S
C16 H22 0.916 1_554 S
N17 Li0 1.990 . S
N17 C16 1.350 . S
N17 C19 1.279 . S
C18 C19 1.358 . S
C18 C20 1.356 1_554 S
C18 H72 0.930 . S
C19 N17 1.279 . S
C19 C18 1.358 . S
C19 H23 0.930 . S
C20 C18 1.356 1_556 S
C20 C21 1.348 . S
C21 C16 1.330 1_556 S
C21 C20 1.348 . S
C21 H73 0.929 . S
H22 C16 0.916 1_556 S
H23 C19 0.930 . S
C24 N25 1.314 . S
C24 C26 1.353 . S
C24 H30 0.930 . S
N25 Li1 1.990 . S
N25 C24 1.314 . S
N25 C28 1.279 . S
C26 C24 1.353 . S
C26 C29 1.348 . S
C26 H74 0.929 . S
C27 C28 1.358 . S
C27 C29 1.356 . S
C27 H75 0.930 . S
C28 N25 1.279 . S
C28 C27 1.358 . S
C28 H31 0.930 . S
C29 C26 1.348 . S
C29 C27 1.356 . S
H30 C24 0.930 . S
H31 C28 0.930 . S
C32 C34 1.348 1_455 S
C32 C35 1.356 . S
C32 O62 1.325 . S
N33 C36 1.317 . S
N33 C37 1.290 . S
C34 C32 1.348 1_655 S
C34 C36 1.353 1_655 S
C34 H76 0.929 . S
C35 C32 1.356 . S
C35 C37 1.358 . S
C35 H77 0.930 . S
C36 N33 1.317 . S
C36 C34 1.353 1_455 S
C36 H78 0.930 1_454 S
C37 N33 1.290 . S
C37 C35 1.358 . S
C37 H79 0.930 . S
C38 C39 1.348 . S
C38 C40 1.356 . S
C38 O63 1.325 . S
C39 C38 1.348 . S
C39 C41 1.353 . S
C39 H80 0.929 . S
C40 C38 1.356 . S
C40 C42 1.358 . S
C40 H81 0.930 . S
C41 C39 1.353 . S
C41 N43 1.314 . S
C41 H82 0.930 . S
C42 C40 1.358 . S
C42 N43 1.279 . S
C42 H83 0.930 . S
N43 C41 1.314 . S
N43 C42 1.279 . S
C44 C46 1.353 . S
C44 N47 1.314 . S
C44 H50 0.930 . S
C45 N47 1.279 . S
C45 C48 1.358 . S
C45 H51 0.930 . S
C46 C44 1.353 . S
C46 C49 1.348 . S
C46 H84 0.929 . S
N47 Li2 1.990 . S
N47 C44 1.314 . S
N47 C45 1.279 . S
C48 C45 1.358 . S
C48 C49 1.356 . S
C48 H85 0.930 . S
C49 C46 1.348 . S
C49 C48 1.356 . S
H50 C44 0.930 . S
H51 C45 0.930 . S
C52 N53 1.349 . S
C52 C54 1.330 1_554 S
C52 H58 0.917 1_554 S
N53 Li3 1.990 . S
N53 C52 1.349 . S
N53 C56 1.279 . S
C54 C52 1.330 1_556 S
C54 C57 1.348 . S
C54 H86 0.929 . S
C55 C56 1.358 . S
C55 C57 1.356 1_554 S
C55 H87 0.930 . S
C56 N53 1.279 . S
C56 C55 1.358 . S
C56 H59 0.930 . S
C57 C54 1.348 . S
C57 C55 1.356 1_556 S
H58 C52 0.917 1_556 S
H59 C56 0.930 . S
O60 Li0 1.956 . S
O60 Li1 1.970 1_455 S
O60 Li2 1.961 1_545 S
O60 C4 1.325 . S
O61 Li0 1.970 1_655 S
O61 Li1 1.956 . S
O61 Li3 1.961 1_545 S
O61 C10 1.325 . S
O62 Li0 1.961 1_565 S
O62 Li2 1.956 . S
O62 Li3 1.970 1_455 S
O62 C32 1.325 . S
O63 Li1 1.961 1_565 S
O63 Li2 1.970 1_655 S
O63 Li3 1.956 . S
O63 C38 1.325 . S
H64 C6 0.929 . S
H65 C7 0.930 . S
H66 C8 0.930 . S
H67 C9 0.930 . S
H68 C11 0.930 . S
H69 C13 0.929 . S
H70 C14 0.930 . S
H71 C15 0.930 1_456 S
H72 C18 0.930 . S
H73 C21 0.929 . S
H74 C26 0.929 . S
H75 C27 0.930 . S
H76 C34 0.929 . S
H77 C35 0.930 . S
H78 C36 0.930 1_656 S
H79 C37 0.930 . S
H80 C39 0.929 . S
H81 C40 0.930 . S
H82 C41 0.930 . S
H83 C42 0.930 . S
H84 C46 0.929 . S
H85 C48 0.930 . S
H86 C54 0.929 . S
H87 C55 0.930 . S
Li88 N105 1.990 . S
Li88 O148 1.956 . S
Li88 O149 1.970 1_665 S
Li88 O150 1.961 . S
Li89 N113 1.990 . S
Li89 O148 1.970 1_445 S
Li89 O149 1.956 . S
Li89 O151 1.961 . S
Li90 N135 1.990 . S
Li90 O148 1.961 . S
Li90 O150 1.956 . S
Li90 O151 1.970 1_665 S
Li91 N141 1.990 . S
Li91 O149 1.961 . S
Li91 O150 1.970 1_445 S
Li91 O151 1.956 . S
C92 C94 1.348 1_655 S
C92 C95 1.356 . S
C92 O148 1.325 . S
N93 C96 1.314 . S
N93 C97 1.279 . S
C94 C92 1.348 1_455 S
C94 C96 1.353 1_455 S
C94 H152 0.929 . S
C95 C92 1.356 . S
C95 C97 1.358 . S
C95 H153 0.930 . S
C96 N93 1.314 . S
C96 C94 1.353 1_655 S
C96 H154 0.930 1_655 S
C97 N93 1.279 . S
C97 C95 1.358 . S
C97 H155 0.930 . S
C98 C101 1.348 1_545 S
C98 C102 1.356 . S
C98 O149 1.325 . S
C99 N100 1.279 . S
C99 C102 1.358 . S
C99 H156 0.930 . S
N100 C99 1.279 . S
N100 C103 1.314 . S
C101 C98 1.348 1_565 S
C101 C103 1.353 1_565 S
C101 H157 0.929 . S
C102 C98 1.356 . S
C102 C99 1.358 . S
C102 H158 0.930 . S
C103 N100 1.314 . S
C103 C101 1.353 1_545 S
C103 H159 0.930 1_545 S
C104 N105 1.314 . S
C104 C109 1.353 . S
C104 H110 0.930 . S
N105 Li88 1.990 . S
N105 C104 1.314 . S
N105 C107 1.279 . S
C106 C107 1.358 . S
C106 C108 1.356 . S
C106 H160 0.930 . S
C107 N105 1.279 . S
C107 C106 1.358 . S
C107 H111 0.930 . S
C108 C106 1.356 . S
C108 C109 1.348 . S
C109 C104 1.353 . S
C109 C108 1.348 . S
C109 H161 0.929 . S
H110 C104 0.930 . S
H111 C107 0.930 . S
C112 N113 1.314 . S
C112 C114 1.353 . S
C112 H118 0.930 . S
N113 Li89 1.990 . S
N113 C112 1.314 . S
N113 C116 1.279 . S
C114 C112 1.353 . S
C114 C117 1.348 . S
C114 H162 0.929 . S
C115 C116 1.358 . S
C115 C117 1.356 . S
C115 H163 0.930 . S
C116 N113 1.279 . S
C116 C115 1.358 . S
C116 H119 0.930 . S
C117 C114 1.348 . S
C117 C115 1.356 . S
H118 C112 0.930 . S
H119 C116 0.930 . S
C120 C122 1.348 1_565 S
C120 C123 1.356 . S
C120 O150 1.325 . S
N121 C124 1.314 . S
N121 C125 1.279 . S
C122 C120 1.348 1_545 S
C122 C124 1.353 1_545 S
C122 H164 0.929 . S
C123 C120 1.356 . S
C123 C125 1.358 . S
C123 H165 0.930 . S
C124 N121 1.314 . S
C124 C122 1.353 1_565 S
C124 H166 0.930 1_565 S
C125 N121 1.279 . S
C125 C123 1.358 . S
C125 H167 0.930 . S
C126 C127 1.348 1_455 S
C126 C128 1.356 . S
C126 O151 1.325 . S
C127 C126 1.348 1_655 S
C127 C129 1.353 1_655 S
C127 H168 0.929 . S
C128 C126 1.356 . S
C128 C130 1.358 . S
C128 H169 0.930 . S
C129 C127 1.353 1_455 S
C129 N131 1.314 . S
C129 H170 0.930 1_455 S
C130 C128 1.358 . S
C130 N131 1.279 . S
C130 H171 0.930 . S
N131 C129 1.314 . S
N131 C130 1.279 . S
C132 C134 1.353 . S
C132 N135 1.314 . S
C132 H138 0.930 . S
C133 N135 1.279 . S
C133 C136 1.358 . S
C133 H139 0.930 . S
C134 C132 1.353 . S
C134 C137 1.348 . S
C134 H172 0.929 . S
N135 Li90 1.990 . S
N135 C132 1.314 . S
N135 C133 1.279 . S
C136 C133 1.358 . S
C136 C137 1.356 . S
C136 H173 0.930 . S
C137 C134 1.348 . S
C137 C136 1.356 . S
H138 C132 0.930 . S
H139 C133 0.930 . S
C140 N141 1.314 . S
C140 C142 1.353 . S
C140 H146 0.930 . S
N141 Li91 1.990 . S
N141 C140 1.314 . S
N141 C144 1.279 . S
C142 C140 1.353 . S
C142 C145 1.348 . S
C142 H174 0.929 . S
C143 C144 1.358 . S
C143 C145 1.356 . S
C143 H175 0.930 . S
C144 N141 1.279 . S
C144 C143 1.358 . S
C144 H147 0.930 . S
C145 C142 1.348 . S
C145 C143 1.356 . S
H146 C140 0.930 . S
H147 C144 0.930 . S
O148 Li88 1.956 . S
O148 Li89 1.970 1_665 S
O148 Li90 1.961 . S
O148 C92 1.325 . S
O149 Li88 1.970 1_445 S
O149 Li89 1.956 . S
O149 Li91 1.961 . S
O149 C98 1.325 . S
O150 Li88 1.961 . S
O150 Li90 1.956 . S
O150 Li91 1.970 1_665 S
O150 C120 1.325 . S
O151 Li89 1.961 . S
O151 Li90 1.970 1_445 S
O151 Li91 1.956 . S
O151 C126 1.325 . S
H152 C94 0.929 . S
H153 C95 0.930 . S
H154 C96 0.930 1_455 S
H155 C97 0.930 . S
H156 C99 0.930 . S
H157 C101 0.929 . S
H158 C102 0.930 . S
H159 C103 0.930 1_565 S
H160 C106 0.930 . S
H161 C109 0.929 . S
H162 C114 0.929 . S
H163 C115 0.930 . S
H164 C122 0.929 . S
H165 C123 0.930 . S
H166 C124 0.930 1_545 S
H167 C125 0.930 . S
H168 C127 0.929 . S
H169 C128 0.930 . S
H170 C129 0.930 1_655 S
H171 C130 0.930 . S
H172 C134 0.929 . S
H173 C136 0.930 . S
H174 C142 0.929 . S
H175 C143 0.930 . S
Li176 N193 1.990 . S
Li176 O236 1.956 . S
Li176 O237 1.970 1_565 S
Li176 O238 1.961 1_455 S
Li177 N201 1.990 . S
Li177 O236 1.970 1_545 S
Li177 O237 1.956 . S
Li177 O239 1.961 1_455 S
Li178 N223 1.990 . S
Li178 O236 1.961 1_655 S
Li178 O238 1.956 . S
Li178 O239 1.970 1_565 S
Li179 N229 1.990 . S
Li179 O237 1.961 1_655 S
Li179 O238 1.970 1_545 S
Li179 O239 1.956 . S
C180 C182 1.348 1_565 S
C180 C183 1.356 . S
C180 O236 1.325 . S
N181 C184 1.314 . S
N181 C185 1.279 . S
C182 C180 1.348 1_545 S
C182 C184 1.353 1_545 S
C182 H240 0.929 . S
C183 C180 1.356 . S
C183 C185 1.358 . S
C183 H241 0.930 . S
C184 N181 1.314 . S
C184 C182 1.353 1_565 S
C184 H242 0.930 1_565 S
C185 N181 1.279 . S
C185 C183 1.358 . S
C185 H243 0.930 . S
C186 C189 1.348 . S
C186 C190 1.356 . S
C186 O237 1.325 . S
C187 N188 1.279 . S
C187 C190 1.358 . S
C187 H244 0.930 . S
N188 C187 1.279 . S
N188 C191 1.314 . S
C189 C186 1.348 . S
C189 C191 1.353 . S
C189 H245 0.929 . S
C190 C186 1.356 . S
C190 C187 1.358 . S
C190 H246 0.930 . S
C191 N188 1.314 . S
C191 C189 1.353 . S
C191 H247 0.930 . S
C192 N193 1.314 . S
C192 C197 1.353 . S
C192 H198 0.930 . S
N193 Li176 1.990 . S
N193 C192 1.314 . S
N193 C195 1.279 . S
C194 C195 1.358 . S
C194 C196 1.356 . S
C194 H248 0.930 . S
C195 N193 1.279 . S
C195 C194 1.358 . S
C195 H199 0.930 . S
C196 C194 1.356 . S
C196 C197 1.348 . S
C197 C192 1.353 . S
C197 C196 1.348 . S
C197 H249 0.929 . S
H198 C192 0.930 . S
H199 C195 0.930 . S
C200 N201 1.314 . S
C200 C202 1.353 . S
C200 H206 0.930 . S
N201 Li177 1.990 . S
N201 C200 1.314 . S
N201 C204 1.279 . S
C202 C200 1.353 . S
C202 C205 1.348 . S
C202 H250 0.929 . S
C203 C204 1.358 . S
C203 C205 1.356 . S
C203 H251 0.930 . S
C204 N201 1.279 . S
C204 C203 1.358 . S
C204 H207 0.930 . S
C205 C202 1.348 . S
C205 C203 1.356 . S
H206 C200 0.930 . S
H207 C204 0.930 . S
C208 C210 1.348 . S
C208 C211 1.356 . S
C208 O238 1.325 . S
N209 C212 1.314 . S
N209 C213 1.279 . S
C210 C208 1.348 . S
C210 C212 1.353 . S
C210 H252 0.929 . S
C211 C208 1.356 . S
C211 C213 1.358 . S
C211 H253 0.930 . S
C212 N209 1.314 . S
C212 C210 1.353 . S
C212 H254 0.930 . S
C213 N209 1.279 . S
C213 C211 1.358 . S
C213 H255 0.930 . S
C214 C215 1.348 1_545 S
C214 C216 1.356 . S
C214 O239 1.325 . S
C215 C214 1.348 1_565 S
C215 C217 1.353 1_565 S
C215 H256 0.929 . S
C216 C214 1.356 . S
C216 C218 1.358 . S
C216 H257 0.930 . S
C217 C215 1.353 1_545 S
C217 N219 1.314 . S
C217 H258 0.930 1_545 S
C218 C216 1.358 . S
C218 N219 1.279 . S
C218 H259 0.930 . S
N219 C217 1.314 . S
N219 C218 1.279 . S
C220 C222 1.353 . S
C220 N223 1.314 . S
C220 H226 0.930 . S
C221 N223 1.279 . S
C221 C224 1.358 . S
C221 H227 0.930 . S
C222 C220 1.353 . S
C222 C225 1.348 . S
C222 H260 0.929 . S
N223 Li178 1.990 . S
N223 C220 1.314 . S
N223 C221 1.279 . S
C224 C221 1.358 . S
C224 C225 1.356 . S
C224 H261 0.930 . S
C225 C222 1.348 . S
C225 C224 1.356 . S
H226 C220 0.930 . S
H227 C221 0.930 . S
C228 N229 1.314 . S
C228 C230 1.353 . S
C228 H234 0.930 . S
N229 Li179 1.990 . S
N229 C228 1.314 . S
N229 C232 1.279 . S
C230 C228 1.353 . S
C230 C233 1.348 . S
C230 H262 0.929 . S
C231 C232 1.358 . S
C231 C233 1.356 . S
C231 H263 0.930 . S
C232 N229 1.279 . S
C232 C231 1.358 . S
C232 H235 0.930 . S
C233 C230 1.348 . S
C233 C231 1.356 . S
H234 C228 0.930 . S
H235 C232 0.930 . S
O236 Li176 1.956 . S
O236 Li177 1.970 1_565 S
O236 Li178 1.961 1_455 S
O236 C180 1.325 . S
O237 Li176 1.970 1_545 S
O237 Li177 1.956 . S
O237 Li179 1.961 1_455 S
O237 C186 1.325 . S
O238 Li176 1.961 1_655 S
O238 Li178 1.956 . S
O238 Li179 1.970 1_565 S
O238 C208 1.325 . S
O239 Li177 1.961 1_655 S
O239 Li178 1.970 1_545 S
O239 Li179 1.956 . S
O239 C214 1.325 . S
H240 C182 0.929 . S
H241 C183 0.930 . S
H242 C184 0.930 1_545 S
H243 C185 0.930 . S
H244 C187 0.930 . S
H245 C189 0.929 . S
H246 C190 0.930 . S
H247 C191 0.930 . S
H248 C194 0.930 . S
H249 C197 0.929 . S
H250 C202 0.929 . S
H251 C203 0.930 . S
H252 C210 0.929 . S
H253 C211 0.930 . S
H254 C212 0.930 . S
H255 C213 0.930 . S
H256 C215 0.929 . S
H257 C216 0.930 . S
H258 C217 0.930 1_565 S
H259 C218 0.930 . S
H260 C222 0.929 . S
H261 C224 0.930 . S
H262 C230 0.929 . S
H263 C231 0.930 . S
H264 C283 0.949 . S
H265 C284 0.950 . S
H266 C286 0.950 . S
H267 C287 0.950 . S
H268 C289 0.950 . S
H269 C292 0.950 . S
H270 C293 0.950 . S
H271 C295 0.951 . S
H272 C296 0.949 . S
H273 C298 0.949 . S
H274 C299 0.950 . S
H275 C301 0.950 . S
H276 C302 0.950 . S
H277 C304 0.950 . S
H278 C307 0.950 . S
H279 C308 0.950 . S
H280 C310 0.951 . S
H281 C311 0.949 . S
C282 C283 1.376 . S
C282 C287 1.386 1_455 S
C282 C288 1.483 . S
C283 H264 0.949 . S
C283 C282 1.376 . S
C283 C284 1.397 . S
C284 H265 0.950 . S
C284 C283 1.397 . S
C284 C285 1.391 . S
C285 C284 1.391 . S
C285 C286 1.405 1_455 S
C286 H266 0.950 . S
C286 C285 1.405 1_655 S
C286 C287 1.367 . S
C287 H267 0.950 . S
C287 C282 1.386 1_655 S
C287 C286 1.367 . S
C288 C282 1.483 . S
C288 C289 1.382 . S
C288 C290 1.403 1_455 S
C289 H268 0.950 . S
C289 C288 1.382 . S
C289 C305 1.411 . S
C290 C288 1.403 1_655 S
C290 C291 1.489 . S
C290 C304 1.411 . S
C291 C290 1.489 . S
C291 C292 1.383 1_655 S
C291 C296 1.382 . S
C292 H269 0.950 . S
C292 C291 1.383 1_455 S
C292 C293 1.395 . S
C293 H270 0.950 . S
C293 C292 1.395 . S
C293 C294 1.288 1_455 S
C294 C293 1.288 1_655 S
C294 C295 1.392 . S
C295 H271 0.951 . S
C295 C294 1.392 . S
C295 C296 1.392 . S
C296 H272 0.949 . S
C296 C291 1.382 . S
C296 C295 1.392 . S
C297 C298 1.376 . S
C297 C302 1.386 1_655 S
C297 C303 1.483 . S
C298 H273 0.949 . S
C298 C297 1.376 . S
C298 C299 1.397 . S
C299 H274 0.950 . S
C299 C298 1.397 . S
C299 C300 1.399 . S
C300 C299 1.399 . S
C300 C301 1.390 1_655 S
C301 H275 0.950 . S
C301 C300 1.390 1_455 S
C301 C302 1.367 . S
C302 H276 0.950 . S
C302 C297 1.386 1_455 S
C302 C301 1.367 . S
C303 C297 1.483 . S
C303 C304 1.382 . S
C303 C305 1.403 1_655 S
C304 H277 0.950 . S
C304 C290 1.411 . S
C304 C303 1.382 . S
C305 C289 1.411 . S
C305 C303 1.403 1_455 S
C305 C306 1.489 . S
C306 C305 1.489 . S
C306 C307 1.383 1_455 S
C306 C311 1.382 . S
C307 H278 0.950 . S
C307 C306 1.383 1_655 S
C307 C308 1.395 . S
C308 H279 0.950 . S
C308 C307 1.395 . S
C308 C309 1.288 1_655 S
C309 C308 1.288 1_455 S
C309 C310 1.392 . S
C310 H280 0.951 . S
C310 C309 1.392 . S
C310 C311 1.392 . S
C311 H281 0.949 . S
C311 C306 1.382 . S
C311 C310 1.392 . S
H312 C331 0.949 . S
H313 C332 0.950 . S
H314 C334 0.950 . S
H315 C335 0.950 . S
H316 C337 0.950 . S
H317 C340 0.950 . S
H318 C341 0.950 . S
H319 C343 0.951 . S
H320 C344 0.949 . S
H321 C346 0.949 . S
H322 C347 0.950 . S
H323 C349 0.950 . S
H324 C350 0.950 . S
H325 C352 0.950 . S
H326 C355 0.950 . S
H327 C356 0.950 . S
H328 C358 0.951 . S
H329 C359 0.949 . S
C330 C331 1.376 . S
C330 C335 1.386 1_545 S
C330 C336 1.483 . S
C331 H312 0.949 . S
C331 C330 1.376 . S
C331 C332 1.397 . S
C332 H313 0.950 . S
C332 C331 1.397 . S
C332 C333 1.391 . S
C333 C332 1.391 . S
C333 C334 1.405 1_545 S
C334 H314 0.950 . S
C334 C333 1.405 1_565 S
C334 C335 1.367 . S
C335 H315 0.950 . S
C335 C330 1.386 1_565 S
C335 C334 1.367 . S
C336 C330 1.483 . S
C336 C337 1.382 . S
C336 C338 1.403 1_545 S
C337 H316 0.950 . S
C337 C336 1.382 . S
C337 C353 1.411 . S
C338 C336 1.403 1_565 S
C338 C339 1.489 . S
C338 C352 1.411 . S
C339 C338 1.489 . S
C339 C340 1.383 1_565 S
C339 C344 1.382 . S
C340 H317 0.950 . S
C340 C339 1.383 1_545 S
C340 C341 1.395 . S
C341 H318 0.950 . S
C341 C340 1.395 . S
C341 C342 1.288 1_545 S
C342 C341 1.288 1_565 S
C342 C343 1.392 . S
C343 H319 0.951 . S
C343 C342 1.392 . S
C343 C344 1.392 . S
C344 H320 0.949 . S
C344 C339 1.382 . S
C344 C343 1.392 . S
C345 C346 1.376 . S
C345 C350 1.386 1_565 S
C345 C351 1.483 . S
C346 H321 0.949 . S
C346 C345 1.376 . S
C346 C347 1.397 . S
C347 H322 0.950 . S
C347 C346 1.397 . S
C347 C348 1.412 . S
C348 C347 1.412 . S
C348 C349 1.394 1_565 S
C349 H323 0.950 . S
C349 C348 1.394 1_545 S
C349 C350 1.367 . S
C350 H324 0.950 . S
C350 C345 1.386 1_545 S
C350 C349 1.367 . S
C351 C345 1.483 . S
C351 C352 1.382 . S
C351 C353 1.403 1_565 S
C352 H325 0.950 . S
C352 C338 1.411 . S
C352 C351 1.382 . S
C353 C337 1.411 . S
C353 C351 1.403 1_545 S
C353 C354 1.489 . S
C354 C353 1.489 . S
C354 C355 1.383 1_545 S
C354 C359 1.382 . S
C355 H326 0.950 . S
C355 C354 1.383 1_565 S
C355 C356 1.395 . S
C356 H327 0.950 . S
C356 C355 1.395 . S
C356 C357 1.288 1_565 S
C357 C356 1.288 1_545 S
C357 C358 1.392 . S
C358 H328 0.951 . S
C358 C357 1.392 . S
C358 C359 1.392 . S
C359 H329 0.949 . S
C359 C354 1.382 . S
C359 C358 1.392 . S
H360 C379 0.949 . S
H361 C380 0.950 . S
H362 C382 0.950 . S
H363 C383 0.950 . S
H364 C385 0.950 . S
H365 C388 0.950 . S
H366 C389 0.950 . S
H367 C391 0.951 . S
H368 C392 0.949 . S
H369 C394 0.949 . S
H370 C395 0.950 . S
H371 C397 0.950 . S
H372 C398 0.950 . S
H373 C400 0.950 . S
H374 C403 0.950 . S
H375 C404 0.950 . S
H376 C406 0.951 . S
H377 C407 0.949 . S
C378 C379 1.376 . S
C378 C383 1.386 . S
C378 C384 1.483 . S
C379 H360 0.949 . S
C379 C378 1.376 . S
C379 C380 1.397 . S
C380 H361 0.950 . S
C380 C379 1.397 . S
C380 C381 1.391 . S
C381 C380 1.391 . S
C381 C382 1.405 . S
C382 H362 0.950 . S
C382 C381 1.405 . S
C382 C383 1.367 . S
C383 H363 0.950 . S
C383 C378 1.386 . S
C383 C382 1.367 . S
C384 C378 1.483 . S
C384 C385 1.382 . S
C384 C386 1.403 . S
C385 H364 0.950 . S
C385 C384 1.382 . S
C385 C401 1.411 . S
C386 C384 1.403 . S
C386 C387 1.489 . S
C386 C400 1.411 . S
C387 C386 1.489 . S
C387 C388 1.383 . S
C387 C392 1.382 . S
C388 H365 0.950 . S
C388 C387 1.383 . S
C388 C389 1.395 . S
C389 H366 0.950 . S
C389 C388 1.395 . S
C389 C390 1.288 . S
C390 C389 1.288 . S
C390 C391 1.392 . S
C391 H367 0.951 . S
C391 C390 1.392 . S
C391 C392 1.392 . S
C392 H368 0.949 . S
C392 C387 1.382 . S
C392 C391 1.392 . S
C393 C394 1.376 . S
C393 C398 1.386 . S
C393 C399 1.483 . S
C394 H369 0.949 . S
C394 C393 1.376 . S
C394 C395 1.397 . S
C395 H370 0.950 . S
C395 C394 1.397 . S
C395 C396 1.391 . S
C396 C395 1.391 . S
C396 C397 1.405 . S
C397 H371 0.950 . S
C397 C396 1.405 . S
C397 C398 1.367 . S
C398 H372 0.950 . S
C398 C393 1.386 . S
C398 C397 1.367 . S
C399 C393 1.483 . S
C399 C400 1.382 . S
C399 C401 1.403 . S
C400 H373 0.950 . S
C400 C386 1.411 . S
C400 C399 1.382 . S
C401 C385 1.411 . S
C401 C399 1.403 . S
C401 C402 1.489 . S
C402 C401 1.489 . S
C402 C403 1.383 . S
C402 C407 1.382 . S
C403 H374 0.950 . S
C403 C402 1.383 . S
C403 C404 1.395 . S
C404 H375 0.950 . S
C404 C403 1.395 . S
C404 C405 1.288 . S
C405 C404 1.288 . S
C405 C406 1.392 . S
C406 H376 0.951 . S
C406 C405 1.392 . S
C406 C407 1.392 . S
C407 H377 0.949 . S
C407 C402 1.382 . S
C407 C406 1.392 . S
H408 C414 0.930 . S
H409 C418 0.930 . S
H410 C423 0.929 . S
H411 C421 0.929 . S
H412 C416 0.933 . S
H413 C422 0.929 . S
C414 H408 0.930 . S
C414 C415 1.367 . S
C414 C422 1.378 . S
C415 C414 1.367 . S
C415 C423 1.433 . S
C416 H412 0.933 . S
C416 C418 1.376 . S
C416 C420 1.347 1_455 S
C417 C420 1.463 . S
C417 C422 1.350 . S
C417 N425 1.427 . S
C418 H409 0.930 . S
C418 C416 1.376 . S
C418 C419 1.367 1_455 S
C419 C418 1.367 1_655 S
C419 C421 1.433 . S
C420 C416 1.347 1_655 S
C420 C417 1.463 . S
C420 N424 1.427 . S
C421 H411 0.929 . S
C421 C419 1.433 . S
C421 N424 1.384 . S
C422 H413 0.929 . S
C422 C414 1.378 . S
C422 C417 1.350 . S
C423 H410 0.929 . S
C423 C415 1.433 . S
C423 N425 1.384 . S
N424 C420 1.427 . S
N424 C421 1.384 . S
N425 C417 1.427 . S
N425 C423 1.384 . S
H426 C432 0.930 1_545 S
H427 C436 0.930 . S
H428 C441 0.929 . S
H429 C439 0.929 . S
H430 C434 0.929 . S
H431 C440 0.929 1_545 S
C432 H426 0.930 1_565 S
C432 C433 1.367 . S
C432 C440 1.378 . S
C433 C432 1.367 . S
C433 C441 1.433 . S
C434 H430 0.929 . S
C434 C436 1.378 . S
C434 C438 1.350 . S
C435 C438 1.463 . S
C435 C440 1.350 . S
C435 N443 1.427 . S
C436 H427 0.930 . S
C436 C434 1.378 . S
C436 C437 1.367 . S
C437 C436 1.367 . S
C437 C439 1.433 1_565 S
C438 C434 1.350 . S
C438 C435 1.463 . S
C438 N442 1.427 1_565 S
C439 H429 0.929 . S
C439 C437 1.433 1_545 S
C439 N442 1.384 . S
C440 H431 0.929 1_565 S
C440 C432 1.378 . S
C440 C435 1.350 . S
C441 H428 0.929 . S
C441 C433 1.433 . S
C441 N443 1.384 . S
N442 C438 1.427 1_545 S
N442 C439 1.384 . S
N443 C435 1.427 . S
N443 C441 1.384 . S
H444 C450 0.930 . S
H445 C454 0.930 . S
H446 C459 0.929 . S
H447 C457 0.929 . S
H448 C452 0.929 . S
H449 C458 0.929 . S
C450 H444 0.930 . S
C450 C451 1.367 . S
C450 C458 1.378 . S
C451 C450 1.367 . S
C451 C459 1.433 . S
C452 H448 0.929 . S
C452 C454 1.378 . S
C452 C456 1.350 . S
C453 C456 1.463 . S
C453 C458 1.350 . S
C453 N461 1.427 . S
C454 H445 0.930 . S
C454 C452 1.378 . S
C454 C455 1.367 . S
C455 C454 1.367 . S
C455 C457 1.433 . S
C456 C452 1.350 . S
C456 C453 1.463 . S
C456 N460 1.427 . S
C457 H447 0.929 . S
C457 C455 1.433 . S
C457 N460 1.384 . S
C458 H449 0.929 . S
C458 C450 1.378 . S
C458 C453 1.350 . S
C459 H446 0.929 . S
C459 C451 1.433 . S
C459 N461 1.384 . S
N460 C456 1.427 . S
N460 C457 1.384 . S
N461 C453 1.427 . S
N461 C459 1.384 . S
H462 C468 0.930 . S
H463 C472 0.930 . S
H464 C477 0.929 1_655 S
H465 C475 0.929 . S
H466 C470 0.929 . S
H467 C476 0.929 . S
C468 H462 0.930 . S
C468 C469 1.367 . S
C468 C476 1.378 . S
C469 C468 1.367 . S
C469 C477 1.433 . S
C470 H466 0.929 . S
C470 C472 1.378 . S
C470 C474 1.350 1_655 S
C471 C474 1.463 . S
C471 C476 1.350 . S
C471 N479 1.427 . S
C472 H463 0.930 . S
C472 C470 1.378 . S
C472 C473 1.367 1_655 S
C473 C472 1.367 1_455 S
C473 C475 1.433 . S
C474 C470 1.350 1_455 S
C474 C471 1.463 . S
C474 N478 1.427 . S
C475 H465 0.929 . S
C475 C473 1.433 . S
C475 N478 1.384 . S
C476 H467 0.929 . S
C476 C468 1.378 . S
C476 C471 1.350 . S
C477 H464 0.929 1_455 S
C477 C469 1.433 . S
C477 N479 1.384 . S
N478 C474 1.427 . S
N478 C475 1.384 . S
N479 C471 1.427 . S
N479 C477 1.384 . S
H480 C486 0.930 . S
H481 C490 0.930 . S
H482 C495 0.929 1_565 S
H483 C493 0.929 . S
H484 C488 0.929 . S
H485 C494 0.929 . S
C486 H480 0.930 . S
C486 C487 1.367 . S
C486 C494 1.378 . S
C487 C486 1.367 . S
C487 C495 1.433 . S
C488 H484 0.929 . S
C488 C490 1.378 . S
C488 C492 1.350 1_565 S
C489 C492 1.463 . S
C489 C494 1.350 . S
C489 N497 1.427 1_545 S
C490 H481 0.930 . S
C490 C488 1.378 . S
C490 C491 1.367 1_565 S
C491 C490 1.367 1_545 S
C491 C493 1.433 . S
C492 C488 1.350 1_545 S
C492 C489 1.463 . S
C492 N496 1.427 . S
C493 H483 0.929 . S
C493 C491 1.433 . S
C493 N496 1.384 . S
C494 H485 0.929 . S
C494 C486 1.378 . S
C494 C489 1.350 . S
C495 H482 0.929 1_545 S
C495 C487 1.433 . S
C495 N497 1.384 1_545 S
N496 C492 1.427 . S
N496 C493 1.384 . S
N497 C489 1.427 1_565 S
N497 C495 1.384 1_565 S
H498 C504 0.930 . S
H499 C508 0.930 . S
H500 C513 0.929 . S
H501 C511 0.929 . S
H502 C506 0.929 . S
H503 C512 0.929 . S
C504 H498 0.930 . S
C504 C505 1.367 . S
C504 C512 1.378 . S
C505 C504 1.367 . S
C505 C513 1.433 . S
C506 H502 0.929 . S
C506 C508 1.378 . S
C506 C510 1.350 . S
C507 C510 1.463 . S
C507 C512 1.350 . S
C507 N515 1.427 . S
C508 H499 0.930 . S
C508 C506 1.378 . S
C508 C509 1.367 . S
C509 C508 1.367 . S
C509 C511 1.433 . S
C510 C506 1.350 . S
C510 C507 1.463 . S
C510 N514 1.427 . S
C511 H501 0.929 . S
C511 C509 1.433 . S
C511 N514 1.384 . S
C512 H503 0.929 . S
C512 C504 1.378 . S
C512 C507 1.350 . S
C513 H500 0.929 . S
C513 C505 1.433 . S
C513 N515 1.384 . S
N514 C510 1.427 . S
N514 C511 1.384 . S
N515 C507 1.427 . S
N515 C513 1.384 . S
H516 C522 0.930 . S
H517 C526 0.930 . S
H518 C531 0.929 1_565 S
H519 C529 0.929 . S
H520 C524 0.929 . S
H521 C530 0.929 . S
C522 H516 0.930 . S
C522 C523 1.367 . S
C522 C530 1.378 . S
C523 C522 1.367 . S
C523 C531 1.433 . S
C524 H520 0.929 . S
C524 C526 1.378 . S
C524 C528 1.350 1_565 S
C525 C528 1.463 . S
C525 C530 1.350 . S
C525 N533 1.427 . S
C526 H517 0.930 . S
C526 C524 1.378 . S
C526 C527 1.367 1_565 S
C527 C526 1.367 1_545 S
C527 C529 1.433 . S
C528 C524 1.350 1_545 S
C528 C525 1.463 . S
C528 N532 1.427 . S
C529 H519 0.929 . S
C529 C527 1.433 . S
C529 N532 1.384 . S
C530 H521 0.929 . S
C530 C522 1.378 . S
C530 C525 1.350 . S
C531 H518 0.929 1_545 S
C531 C523 1.433 . S
C531 N533 1.384 . S
N532 C528 1.427 . S
N532 C529 1.384 . S
N533 C525 1.427 . S
N533 C531 1.384 . S
H534 C540 0.930 . S
H535 C544 0.930 . S
H536 C549 0.929 . S
H537 C547 0.929 . S
H538 C542 0.929 . S
H539 C548 0.929 . S
C540 H534 0.930 . S
C540 C541 1.367 . S
C540 C548 1.378 . S
C541 C540 1.367 . S
C541 C549 1.433 . S
C542 H538 0.929 . S
C542 C544 1.378 . S
C542 C546 1.350 . S
C543 C546 1.463 . S
C543 C548 1.350 . S
C543 N551 1.427 . S
C544 H535 0.930 . S
C544 C542 1.378 . S
C544 C545 1.367 . S
C545 C544 1.367 . S
C545 C547 1.433 . S
C546 C542 1.350 . S
C546 C543 1.463 . S
C546 N550 1.427 . S
C547 H537 0.929 . S
C547 C545 1.433 . S
C547 N550 1.384 . S
C548 H539 0.929 . S
C548 C540 1.378 . S
C548 C543 1.350 . S
C549 H536 0.929 . S
C549 C541 1.433 . S
C549 N551 1.384 . S
N550 C546 1.427 . S
N550 C547 1.384 . S
N551 C543 1.427 . S
N551 C549 1.384 . S
H552 C558 0.930 . S
H553 C562 0.930 . S
H554 C567 0.929 . S
H555 C565 0.929 . S
H556 C560 0.931 . S
H557 C566 0.929 . S
C558 H552 0.930 . S
C558 C559 1.367 . S
C558 C566 1.378 . S
C559 C558 1.367 . S
C559 C567 1.433 . S
C560 H556 0.931 . S
C560 C562 1.384 . S
C560 C564 1.341 1_455 S
C561 C564 1.463 . S
C561 C566 1.350 . S
C561 N569 1.427 . S
C562 H553 0.930 . S
C562 C560 1.384 . S
C562 C563 1.367 1_455 S
C563 C562 1.367 1_655 S
C563 C565 1.433 . S
C564 C560 1.341 1_655 S
C564 C561 1.463 . S
C564 N568 1.427 . S
C565 H555 0.929 . S
C565 C563 1.433 . S
C565 N568 1.384 . S
C566 H557 0.929 . S
C566 C558 1.378 . S
C566 C561 1.350 . S
C567 H554 0.929 . S
C567 C559 1.433 . S
C567 N569 1.384 . S
N568 C564 1.427 . S
N568 C565 1.384 . S
N569 C561 1.427 . S
N569 C567 1.384 . S
H570 C576 0.930 . S
H571 C580 0.930 . S
H572 C585 0.929 . S
H573 C583 0.929 . S
H574 C578 0.929 . S
H575 C584 0.929 . S
C576 H570 0.930 . S
C576 C577 1.367 . S
C576 C584 1.378 . S
C577 C576 1.367 . S
C577 C585 1.433 . S
C578 H574 0.929 . S
C578 C580 1.378 . S
C578 C582 1.350 . S
C579 C582 1.463 . S
C579 C584 1.350 . S
C579 N587 1.427 . S
C580 H571 0.930 . S
C580 C578 1.378 . S
C580 C581 1.367 . S
C581 C580 1.367 . S
C581 C583 1.433 1_565 S
C582 C578 1.350 . S
C582 C579 1.463 . S
C582 N586 1.427 1_565 S
C583 H573 0.929 . S
C583 C581 1.433 1_545 S
C583 N586 1.383 . S
C584 H575 0.929 . S
C584 C576 1.378 . S
C584 C579 1.350 . S
C585 H572 0.929 . S
C585 C577 1.433 . S
C585 N587 1.384 . S
N586 C582 1.427 1_545 S
N586 C583 1.383 . S
N587 C579 1.427 . S
N587 C585 1.384 . S
H588 C594 0.930 . S
H589 C598 0.930 . S
H590 C603 0.929 . S
H591 C601 0.929 . S
H592 C596 0.929 . S
H593 C602 0.929 . S
C594 H588 0.930 . S
C594 C595 1.367 . S
C594 C602 1.378 . S
C595 C594 1.367 . S
C595 C603 1.433 . S
C596 H592 0.929 . S
C596 C598 1.378 . S
C596 C600 1.350 . S
C597 C600 1.463 . S
C597 C602 1.350 . S
C597 N605 1.427 . S
C598 H589 0.930 . S
C598 C596 1.378 . S
C598 C599 1.367 . S
C599 C598 1.367 . S
C599 C601 1.433 . S
C600 C596 1.350 . S
C600 C597 1.463 . S
C600 N604 1.427 . S
C601 H591 0.929 . S
C601 C599 1.433 . S
C601 N604 1.384 . S
C602 H593 0.929 . S
C602 C594 1.378 . S
C602 C597 1.350 . S
C603 H590 0.929 . S
C603 C595 1.433 . S
C603 N605 1.384 . S
N604 C600 1.427 . S
N604 C601 1.384 . S
N605 C597 1.427 . S
N605 C603 1.384 . S
H606 C612 0.930 . S
H607 C616 0.930 . S
H608 C621 0.929 1_655 S
H609 C619 0.929 . S
H610 C614 0.929 . S
H611 C620 0.929 . S
C612 H606 0.930 . S
C612 C613 1.367 . S
C612 C620 1.378 . S
C613 C612 1.367 . S
C613 C621 1.433 . S
C614 H610 0.929 . S
C614 C616 1.378 . S
C614 C618 1.350 1_655 S
C615 C618 1.463 . S
C615 C620 1.350 . S
C615 N623 1.427 1_455 S
C616 H607 0.930 . S
C616 C614 1.378 . S
C616 C617 1.367 1_655 S
C617 C616 1.367 1_455 S
C617 C619 1.433 . S
C618 C614 1.350 1_455 S
C618 C615 1.463 . S
C618 N622 1.427 . S
C619 H609 0.929 . S
C619 C617 1.433 . S
C619 N622 1.384 . S
C620 H611 0.929 . S
C620 C612 1.378 . S
C620 C615 1.350 . S
C621 H608 0.929 1_455 S
C621 C613 1.433 . S
C621 N623 1.384 1_455 S
N622 C618 1.427 . S
N622 C619 1.384 . S
N623 C615 1.427 1_655 S
N623 C621 1.384 1_655 S
C419 C285 1.478 1_655 S
C415 C29 1.458 . S
C433 C137 1.452 . S
C437 C333 1.476 1_565 S
C451 C225 1.451 . S
C455 C405 1.453 . S
C469 C49 1.460 . S
C473 C309 1.462 . S
C491 C357 1.462 . S
C487 C117 1.461 . S
C505 C205 1.451 . S
C509 C381 1.476 . S
C527 C342 1.479 1_545 S
C523 C233 1.460 . S
C541 C57 1.454 . S
C545 C396 1.469 . S
C563 C300 1.481 . S
C559 C108 1.459 . S
C581 C348 1.461 . S
C577 C196 1.454 . S
C599 C390 1.479 . S
C595 C20 1.460 . S
C613 C145 1.461 . S
C617 C294 1.480 1_455 S
