# Generated by pormake.
# Topology zzz, (3,6)-cn, num edge types: 1
# Building blocks:
#     Node 0, Type 0, BuildingBlock: ESEHIV_clean_linker_0, # of connection points: 3
#     Node 1, Type 0, BuildingBlock: ESEHIV_clean_linker_0, # of connection points: 3
#     Node 2, Type 0, BuildingBlock: ESEHIV_clean_linker_0, # of connection points: 3
#     Node 3, Type 0, BuildingBlock: ESEHIV_clean_linker_0, # of connection points: 3
#     Node 4, Type 0, BuildingBlock: ESEHIV_clean_linker_0, # of connection points: 3
#     Node 5, Type 0, BuildingBlock: ESEHIV_clean_linker_0, # of connection points: 3
#     Node 6, Type 0, BuildingBlock: ESEHIV_clean_linker_0, # of connection points: 3
#     Node 7, Type 0, BuildingBlock: ESEHIV_clean_linker_0, # of connection points: 3
#     Node 8, Type 1, BuildingBlock: KUMBUR_clean_sbu_1, # of connection points: 6
#     Node 9, Type 1, BuildingBlock: KUMBUR_clean_sbu_1, # of connection points: 6
#     Node 10, Type 1, BuildingBlock: KUMBUR_clean_sbu_1, # of connection points: 6
#     Node 11, Type 1, BuildingBlock: KUMBUR_clean_sbu_1, # of connection points: 6
#     Edge 12, Type (0, 1), BuildingBlock: CIFDUS_clean_linker_0, # of connection points: 2
#     Edge 13, Type (0, 1), BuildingBlock: CIFDUS_clean_linker_0, # of connection points: 2
#     Edge 14, Type (0, 1), BuildingBlock: CIFDUS_clean_linker_0, # of connection points: 2
#     Edge 15, Type (0, 1), BuildingBlock: CIFDUS_clean_linker_0, # of connection points: 2
#     Edge 16, Type (0, 1), BuildingBlock: CIFDUS_clean_linker_0, # of connection points: 2
#     Edge 17, Type (0, 1), BuildingBlock: CIFDUS_clean_linker_0, # of connection points: 2
#     Edge 18, Type (0, 1), BuildingBlock: CIFDUS_clean_linker_0, # of connection points: 2
#     Edge 19, Type (0, 1), BuildingBlock: CIFDUS_clean_linker_0, # of connection points: 2
#     Edge 20, Type (0, 1), BuildingBlock: CIFDUS_clean_linker_0, # of connection points: 2
#     Edge 21, Type (0, 1), BuildingBlock: CIFDUS_clean_linker_0, # of connection points: 2
#     Edge 22, Type (0, 1), BuildingBlock: CIFDUS_clean_linker_0, # of connection points: 2
#     Edge 23, Type (0, 1), BuildingBlock: CIFDUS_clean_linker_0, # of connection points: 2
#     Edge 24, Type (0, 1), BuildingBlock: CIFDUS_clean_linker_0, # of connection points: 2
#     Edge 25, Type (0, 1), BuildingBlock: CIFDUS_clean_linker_0, # of connection points: 2
#     Edge 26, Type (0, 1), BuildingBlock: CIFDUS_clean_linker_0, # of connection points: 2
#     Edge 27, Type (0, 1), BuildingBlock: CIFDUS_clean_linker_0, # of connection points: 2
#     Edge 28, Type (0, 1), BuildingBlock: CIFDUS_clean_linker_0, # of connection points: 2
#     Edge 29, Type (0, 1), BuildingBlock: CIFDUS_clean_linker_0, # of connection points: 2
#     Edge 30, Type (0, 1), BuildingBlock: CIFDUS_clean_linker_0, # of connection points: 2
#     Edge 31, Type (0, 1), BuildingBlock: CIFDUS_clean_linker_0, # of connection points: 2
#     Edge 32, Type (0, 1), BuildingBlock: CIFDUS_clean_linker_0, # of connection points: 2
#     Edge 33, Type (0, 1), BuildingBlock: CIFDUS_clean_linker_0, # of connection points: 2
#     Edge 34, Type (0, 1), BuildingBlock: CIFDUS_clean_linker_0, # of connection points: 2
#     Edge 35, Type (0, 1), BuildingBlock: CIFDUS_clean_linker_0, # of connection points: 2
# Relax obj value: 0.390
# Max RMSD: 0.201
# Mean RMSD: 0.185
data_MOF--net-zzz--node1-KUMBUR_clean_sbu_1--node2-ESEHIV_clean_linker_0--edge1-CIFDUS_clean_linker_0
_symmetry_space_group_name_H-M    P1
_symmetry_Int_Tables_number       1
_symmetry_cell_setting            triclinic
loop_
_symmetry_equiv_pos_as_xyz
'x, y, z'
_cell_length_a     37.670058
_cell_length_b     37.809944
_cell_length_c     14.252846
_cell_angle_alpha  89.554517
_cell_angle_beta   89.916711
_cell_angle_gamma 90.480955
loop_
_atom_site_label
_atom_site_type_symbol
_atom_site_fract_x
_atom_site_fract_y
_atom_site_fract_z
_atom_type_partial_charge
H0 H 0.81413 0.59306 0.21864 0.0
H1 H 0.70893 0.60652 0.11337 0.0
H2 H 0.73036 0.52522 0.31968 0.0
C3 C 0.78606 0.58678 0.22197 0.0
C4 C 0.77427 0.56226 0.29054 0.0
C5 C 0.76313 0.59945 0.15131 0.0
C6 C 0.72669 0.59336 0.16188 0.0
C7 C 0.71446 0.56361 0.21144 0.0
C8 C 0.73879 0.54786 0.27822 0.0
H9 H 0.04834 0.82783 0.27909 0.0
H10 H 0.047 0.72809 0.14063 0.0
H11 H 0.98554 0.78004 0.31175 0.0
C12 C 0.03537 0.80257 0.26715 0.0
C13 C 1.00089 0.79507 0.31259 0.0
C14 C 0.04977 0.77903 0.20249 0.0
C15 C 0.03358 0.74613 0.18734 0.0
C16 C 0.99911 0.73724 0.21735 0.0
C17 C 0.98033 0.76043 0.27928 0.0
H18 H 0.71874 0.96105 0.31995 0.0
H19 H 0.80265 0.95527 0.11795 0.0
H20 H 0.80214 0.03928 0.32268 0.0
C21 C 0.74414 0.97052 0.2936 0.0
C22 C 0.75817 1.00128 0.33307 0.0
C23 C 0.75883 0.95501 0.21356 0.0
C24 C 0.79174 0.96729 0.18042 0.0
C25 C 0.80863 0.99723 0.21893 0.0
C26 C 0.79095 0.01506 0.29498 0.0
H27 H 0.49147 0.71024 0.20692 0.0
H28 H 0.54852 0.79908 0.32769 0.0
H29 H 0.502 0.80633 0.05093 0.0
C30 C 0.5008 0.73745 0.2046 0.0
C31 C 0.49499 0.75731 0.12312 0.0
C32 C 0.51965 0.7516 0.28111 0.0
C33 C 0.53324 0.78744 0.27141 0.0
C34 C 0.52593 0.80804 0.18776 0.0
C35 C 0.50682 0.79195 0.11598 0.0
H36 H 0.206 0.46684 0.23017 0.0
H37 H 0.31163 0.44314 0.30978 0.0
H38 H 0.29309 0.51492 0.07828 0.0
C39 C 0.23408 0.46958 0.2161 0.0
C40 C 0.24577 0.48728 0.13369 0.0
C41 C 0.2583 0.45769 0.28444 0.0
C42 C 0.29401 0.45598 0.26019 0.0
C43 C 0.30783 0.48145 0.19867 0.0
C44 C 0.28336 0.49631 0.13054 0.0
H45 H 0.09762 0.24726 0.09324 0.0
H46 H 0.10054 0.33083 0.29227 0.0
H47 H 1.00439 0.30989 0.1363 0.0
C48 C 0.08472 0.26891 0.12823 0.0
C49 C 0.04891 0.27489 0.10685 0.0
C50 C 0.10218 0.28625 0.20206 0.0
C51 C 0.08637 0.31671 0.23839 0.0
C52 C 0.0514 0.32688 0.21565 0.0
C53 C 0.03203 0.30463 0.15085 0.0
H54 H 0.31224 0.98513 0.11493 0.0
H55 H 0.22135 0.98144 0.29492 0.0
H56 H 0.2338 0.06732 0.09459 0.0
C57 C 0.28703 0.99614 0.13643 0.0
C58 C 0.27556 0.02727 0.09275 0.0
C59 C 0.2677 0.97966 0.20876 0.0
C60 C 0.23573 0.99443 0.23833 0.0
C61 C 0.22266 0.02617 0.20023 0.0
C62 C 0.24308 0.04295 0.12602 0.0
H63 H 0.45059 0.32065 0.10474 0.0
H64 H 0.51472 0.22718 0.07965 0.0
H65 H 0.46638 0.25539 0.34263 0.0
C66 C 0.4598 0.2955 0.13256 0.0
C67 C 0.46249 0.29259 0.22965 0.0
C68 C 0.48386 0.27626 0.07877 0.0
C69 C 0.49652 0.24342 0.11888 0.0
C70 C 0.48624 0.23314 0.21325 0.0
C71 C 0.46916 0.25903 0.26748 0.0
Tb72 Tb 0.98014 0.05738 0.63588 0.0
C73 C 0.10155 0.06471 0.9148 0.0
N74 N 0.09402 0.06145 0.82199 0.0
C75 C 0.13971 0.10387 0.78379 0.0
C76 C 0.12708 0.0894 0.94603 0.0
C77 C 0.11411 0.07909 0.75613 0.0
C78 C 0.14592 0.10938 0.87919 0.0
C79 C 0.08933 0.04718 0.07581 0.0
C80 C 0.08337 0.0433 0.97878 0.0
C81 C 0.11425 0.07219 0.10712 0.0
C82 C 0.13327 0.09307 0.04258 0.0
Tb83 Tb 0.05502 0.01707 0.78641 0.0
N84 N 0.05919 0.01949 0.94619 0.0
C85 C 0.06983 0.02601 0.13854 0.0
C86 C 0.04163 0.99731 1.00719 0.0
C87 C 0.04621 1.00067 0.10403 0.0
H88 H 0.10984 0.07445 0.68239 0.0
H89 H 0.03184 0.98341 0.15194 0.0
H90 H 0.90812 0.07815 0.75895 0.0
H91 H 0.98958 1.00922 0.28105 0.0
H92 H 0.02473 0.97631 0.98177 0.0
H93 H 0.07302 0.02879 0.21354 0.0
H94 H 1.0104 0.0404 0.42256 0.0
H95 H 0.15483 0.11849 0.73155 0.0
H96 H 0.11904 0.07554 0.1812 0.0
H97 H 0.15273 0.11193 0.06808 0.0
H98 H 0.84477 0.06083 0.76241 0.0
H99 H 0.1658 0.12857 0.90043 0.0
H100 H 0.92919 0.98296 0.27749 0.0
N101 N 0.92038 0.0458 0.64186 0.0
C102 C 0.9071 0.02569 0.57143 0.0
C103 C 0.8621 0.05039 0.70888 0.0
C104 C 0.87084 0.01618 0.56836 0.0
C105 C 0.89812 0.05976 0.70747 0.0
C106 C 0.84849 0.02802 0.63987 0.0
N107 N 0.96325 0.02976 0.50061 0.0
C108 C 0.9843 0.02847 0.42237 0.0
C109 C 0.91593 1.00027 0.41768 0.0
C110 C 0.92926 0.01771 0.49746 0.0
C111 C 0.93835 0.99625 0.34011 0.0
C112 C 0.97248 1.01101 0.34188 0.0
H113 H 0.82047 0.02128 0.64024 0.0
H114 H 0.83018 0.98877 0.48868 0.0
H115 H 0.86973 0.97481 0.3567 0.0
O116 O 1.00075 0.10796 0.6125 0.0
O117 O 0.99578 1.00247 0.59646 0.0
O118 O 0.01727 0.977 0.73179 0.0
O119 O 0.9488 0.09378 0.56073 0.0
O120 O 0.03517 0.06366 0.57722 0.0
O121 O 0.06439 0.01576 0.63505 0.0
O122 O 0.08325 0.97573 0.85188 0.0
O123 O 0.04507 0.07565 0.78884 0.0
O124 O 0.98564 0.08468 0.77131 0.0
O125 O 0.10247 1.00047 0.72517 0.0
O126 O 1.00161 1.00219 0.84214 0.0
O127 O 0.96258 0.0437 0.78145 0.0
C128 C 1.00446 0.97406 0.64578 0.0
C129 C 0.98715 0.12615 0.46002 0.0
C130 C 0.03575 0.14275 0.35508 0.0
C131 C 0.01227 0.1398 0.27882 0.0
C132 C 0.96424 0.12313 0.38286 0.0
C133 C 0.9769 0.12985 0.29256 0.0
C134 C 0.02283 0.136 0.44536 0.0
C135 C 0.06132 0.04078 0.57194 0.0
C136 C 0.97525 0.11612 0.55485 0.0
C137 C 0.85785 0.99669 0.49193 0.0
C138 C 0.88037 0.98877 0.41663 0.0
C139 C 0.01621 0.09403 0.80831 0.0
C140 C 0.11711 0.9405 0.74754 0.0
C141 C 0.12795 0.8778 0.7745 0.0
C142 C 0.13642 0.87382 0.67921 0.0
C143 C 0.12608 0.93626 0.65235 0.0
C144 C 0.11864 0.91129 0.80796 0.0
C145 C 0.13571 0.90306 0.61868 0.0
C146 C 0.97115 0.01956 0.8452 0.0
C147 C 0.10719 0.97519 0.78586 0.0
H148 H 0.02068 0.14671 0.20902 0.0
H149 H 0.93674 0.11522 0.39215 0.0
H150 H 0.95916 0.12779 0.23312 0.0
H151 H 0.04083 0.13827 0.50431 0.0
H152 H 0.1432 0.84813 0.65159 0.0
H153 H 0.12555 0.95843 0.60381 0.0
H154 H 0.11122 0.91443 0.88095 0.0
H155 H 0.14226 0.89991 0.54527 0.0
Tb156 Tb 0.54434 0.05565 0.82317 0.0
C157 C 0.52798 0.91749 0.70714 0.0
N158 N 0.54016 0.94691 0.66089 0.0
C159 C 0.59499 0.91697 0.62926 0.0
C160 C 0.55 0.88804 0.72315 0.0
C161 C 0.57204 0.94538 0.61495 0.0
C162 C 0.5843 0.88858 0.68578 0.0
C163 C 0.4793 0.8868 0.78567 0.0
C164 C 0.49291 0.91648 0.73665 0.0
C165 C 0.50156 0.85806 0.80495 0.0
C166 C 0.53682 0.85865 0.77358 0.0
Tb167 Tb 0.49945 0.99204 0.64501 0.0
N168 N 0.47251 0.94535 0.72028 0.0
C169 C 0.44378 0.88704 0.81456 0.0
C170 C 0.4375 0.94526 0.74571 0.0
C171 C 0.42272 0.91627 0.79368 0.0
H172 H 0.57942 0.96474 0.56281 0.0
H173 H 0.3951 0.91653 0.81468 0.0
H174 H 0.48815 0.12214 0.82851 0.0
H175 H 0.68618 0.05247 0.87294 0.0
H176 H 0.42087 0.96753 0.72933 0.0
H177 H 0.43233 0.86475 0.85245 0.0
H178 H 0.62523 0.02743 0.8714 0.0
H179 H 0.62052 0.91655 0.59435 0.0
H180 H 0.4917 0.83515 0.84334 0.0
H181 H 0.55352 0.83602 0.78747 0.0
H182 H 0.49108 0.18752 0.81909 0.0
H183 H 0.60202 0.86646 0.69612 0.0
H184 H 0.69588 0.1163 0.84067 0.0
N185 N 0.54391 0.11583 0.81308 0.0
C186 C 0.5761 0.13207 0.80951 0.0
C187 C 0.51518 0.17222 0.81538 0.0
C188 C 0.57917 0.16918 0.8042 0.0
C189 C 0.51359 0.13524 0.82061 0.0
C190 C 0.54809 0.18926 0.80553 0.0
N191 N 0.60126 0.07621 0.83353 0.0
C192 C 0.62939 0.05521 0.85586 0.0
C193 C 0.63998 0.12705 0.82121 0.0
C194 C 0.60594 0.1114 0.81888 0.0
C195 C 0.66923 0.10534 0.83855 0.0
C196 C 0.66385 0.06932 0.8571 0.0
H197 H 0.54926 0.21789 0.80198 0.0
H198 H 0.61608 0.21343 0.79655 0.0
H199 H 0.66942 0.17646 0.81067 0.0
O200 O 0.56101 0.07139 0.95749 0.0
O201 O 0.52826 0.08391 0.69231 0.0
O202 O 0.49717 0.04732 0.58868 0.0
O203 O 0.512 0.04253 0.93883 0.0
O204 O 0.58161 0.0259 0.73311 0.0
O205 O 0.54915 0.01908 0.59912 0.0
O206 O 0.45514 0.97818 0.56142 0.0
O207 O 0.50096 0.98368 0.79959 0.0
O208 O 0.55651 0.99898 0.83758 0.0
O209 O 0.50824 0.97018 0.51256 0.0
O210 O 0.45549 0.02243 0.70908 0.0
O211 O 0.48539 0.05457 0.82335 0.0
C212 C 0.51097 0.07856 0.61216 0.0
C213 C 0.54206 0.03387 0.08084 0.0
C214 C 0.57616 0.986 0.15258 0.0
C215 C 0.55901 0.99296 0.23868 0.0
C216 C 0.52514 0.04002 0.1665 0.0
C217 C 0.5335 0.01947 0.245 0.0
C218 C 0.5668 1.00667 0.07381 0.0
C219 C 0.57985 0.0254 0.6408 0.0
C220 C 0.53404 0.05616 0.99908 0.0
C221 C 0.61309 0.18495 0.80177 0.0
C222 C 0.64347 0.16389 0.8099 0.0
C223 C 0.52967 0.97714 0.84896 0.0
C224 C 0.46622 0.92639 0.47266 0.0
C225 C 0.42316 0.88485 0.40786 0.0
C226 C 0.44871 0.85813 0.40857 0.0
C227 C 0.49158 0.89919 0.47476 0.0
C228 C 0.43218 0.91882 0.43985 0.0
C229 C 0.48274 0.86527 0.44308 0.0
C230 C 0.45556 0.04273 0.78471 0.0
C231 C 0.47499 0.96318 0.49881 0.0
H232 H 0.56592 0.979 0.30247 0.0
H233 H 0.50576 0.06088 0.1728 0.0
H234 H 0.52074 0.02461 0.31159 0.0
H235 H 0.57873 1.00224 1.00624 0.0
H236 H 0.4424 0.83204 0.38217 0.0
H237 H 0.51833 0.90414 0.49917 0.0
H238 H 0.41292 0.93997 0.43583 0.0
H239 H 0.5025 0.84465 0.44383 0.0
Tb240 Tb 0.55412 0.50591 0.64274 0.0
C241 C 0.43272 0.4615 0.88106 0.0
N242 N 0.43265 0.4767 0.79417 0.0
C243 C 0.38849 0.43491 0.74293 0.0
C244 C 0.41141 0.43154 0.90121 0.0
C245 C 0.41033 0.46434 0.72567 0.0
C246 C 0.38927 0.41823 0.83072 0.0
C247 C 0.4534 0.46217 0.04203 0.0
C248 C 0.45385 0.47652 0.95021 0.0
C249 C 0.43351 0.43135 0.06128 0.0
C250 C 0.41257 0.41608 0.99104 0.0
Tb251 Tb 0.46783 0.52606 0.77711 0.0
N252 N 0.47244 0.50669 0.92965 0.0
C253 C 0.47128 0.48033 0.113 0.0
C254 C 0.48618 0.52642 1.00123 0.0
C255 C 0.48683 0.51309 0.09285 0.0
H256 H 0.40948 0.4773 0.6579 0.0
H257 H 0.49829 0.52872 0.14829 0.0
H258 H 0.61958 0.53013 0.78913 0.0
H259 H 0.53482 0.53508 0.27375 0.0
H260 H 0.49582 0.55301 0.98921 0.0
H261 H 0.47138 0.47043 0.18449 0.0
H262 H 0.52415 0.50298 0.42012 0.0
H263 H 0.37114 0.42505 0.68843 0.0
H264 H 0.43313 0.41984 0.13112 0.0
H265 H 0.39674 0.39279 1.00753 0.0
H266 H 0.66763 0.57415 0.792 0.0
H267 H 0.37246 0.39531 0.84361 0.0
H268 H 0.57998 0.58262 0.26551 0.0
N269 N 0.60101 0.54481 0.65355 0.0
C270 C 0.60835 0.56387 0.57426 0.0
C271 C 0.65086 0.57191 0.73071 0.0
C272 C 0.63675 0.58843 0.57127 0.0
C273 C 0.6227 0.5476 0.73001 0.0
C274 C 0.65773 0.59267 0.65134 0.0
N275 N 0.56037 0.53423 0.50059 0.0
C276 C 0.54256 0.52486 0.42089 0.0
C277 C 0.59504 0.5768 0.41115 0.0
C278 C 0.5875 0.55829 0.49531 0.0
C279 C 0.57497 0.56908 0.3315 0.0
C280 C 0.54916 0.54252 0.33608 0.0
H281 H 0.67979 0.61125 0.65186 0.0
H282 H 0.6652 0.62668 0.4849 0.0
H283 H 0.62879 0.61638 0.34462 0.0
O284 O 0.56007 0.45883 0.56949 0.0
O285 O 0.54063 0.56354 0.6453 0.0
O286 O 0.4803 0.56619 0.66766 0.0
O287 O 0.60584 0.48624 0.62367 0.0
O288 O 0.50248 0.49103 0.5701 0.0
O289 O 0.45797 0.52714 0.62513 0.0
O290 O 0.44796 0.57058 0.84767 0.0
O291 O 0.48192 0.47062 0.74095 0.0
O292 O 0.54134 0.46751 0.75742 0.0
O293 O 0.41277 0.5339 0.78179 0.0
O294 O 0.51955 0.54681 0.83727 0.0
O295 O 0.56057 0.50541 0.79626 0.0
C296 C 0.51014 0.58002 0.63441 0.0
C297 C 0.61117 0.45845 0.4763 0.0
C298 C 0.60717 0.43226 0.32226 0.0
C299 C 0.63465 0.45417 0.28948 0.0
C300 C 0.63845 0.48106 0.44383 0.0
C301 C 0.65041 0.47849 0.35088 0.0
C302 C 0.59679 0.43358 0.41593 0.0
C303 C 0.47106 0.50677 0.55931 0.0
C304 C 0.59463 0.46129 0.56917 0.0
C305 C 0.64359 0.60761 0.48836 0.0
C306 C 0.62284 0.60176 0.40849 0.0
C307 C 0.50988 0.45289 0.76942 0.0
C308 C 0.39812 0.59388 0.76875 0.0
C309 C 0.3892 0.65716 0.75516 0.0
C310 C 0.37303 0.65287 0.66766 0.0
C311 C 0.38165 0.58941 0.68079 0.0
C312 C 0.40057 0.62762 0.80627 0.0
C313 C 0.36881 0.61881 0.63123 0.0
C314 C 0.54961 0.52965 0.85489 0.0
C315 C 0.41563 0.56468 0.81928 0.0
H316 H 0.64353 0.45254 0.21749 0.0
H317 H 0.65017 0.50076 0.48931 0.0
H318 H 0.67155 0.49569 0.3264 0.0
H319 H 0.57607 0.41571 0.44119 0.0
H320 H 0.36462 0.67564 0.62711 0.0
H321 H 0.37938 0.5635 0.64934 0.0
H322 H 0.41353 0.63129 0.87358 0.0
H323 H 0.3566 0.61527 0.56321 0.0
Tb324 Tb 0.03022 0.56485 0.66325 0.0
C325 C 0.0257 0.42746 0.87306 0.0
N326 N 1.00788 0.43701 0.7942 0.0
C327 C 0.02412 0.38192 0.72308 0.0
C328 C 0.04507 0.39574 0.87833 0.0
C329 C 1.00472 0.41333 0.7225 0.0
C330 C 0.04509 0.37345 0.80056 0.0
C331 C 0.03712 0.43809 0.03761 0.0
C332 C 0.02167 0.448 0.95147 0.0
C333 C 0.05836 0.40777 0.04195 0.0
C334 C 0.06228 0.38654 0.96243 0.0
Tb335 Tb 0.9794 0.49087 0.79825 0.0
N336 N 1.00126 0.4772 0.94373 0.0
C337 C 0.02981 0.45839 0.11696 0.0
C338 C 0.99253 0.4961 0.02171 0.0
C339 C 1.00683 0.4871 0.10926 0.0
H340 H 0.98649 0.41787 0.66568 0.0
H341 H 1.00015 0.50229 0.17066 0.0
H342 H 0.99044 0.63664 0.73823 0.0
H343 H 0.06287 0.52569 0.30826 0.0
H344 H 0.97492 0.5184 1.01611 0.0
H345 H 0.04098 0.45162 0.18469 0.0
H346 H 0.07271 0.5302 0.47897 0.0
H347 H 0.02217 0.36386 0.6647 0.0
H348 H 0.07107 0.39999 0.10682 0.0
H349 H 0.07762 0.36249 0.96764 0.0
H350 H 0.95181 0.68335 0.6723 0.0
H351 H 0.05958 0.34882 0.80163 0.0
H352 H 0.01514 0.56042 0.23322 0.0
N353 N 0.99403 0.60869 0.60974 0.0
C354 C 0.98698 0.60882 0.51638 0.0
C355 C 0.96122 0.66231 0.6279 0.0
C356 C 0.96479 0.63452 0.47582 0.0
C357 C 0.98296 0.63583 0.66512 0.0
C358 C 0.95158 0.66132 0.53316 0.0
N359 N 0.02755 0.56225 0.5025 0.0
C360 C 0.05029 0.54333 0.44795 0.0
C361 C 0.99798 0.58382 0.36352 0.0
C362 C 1.00354 0.58399 0.46128 0.0
C363 C 0.0185 0.56128 0.30859 0.0
C364 C 0.04541 0.5416 0.35075 0.0
H365 H 0.93458 0.68171 0.50465 0.0
H366 H 0.93963 0.65201 0.347 0.0
H367 H 0.96794 0.60682 0.24914 0.0
O368 O 0.06975 0.59499 0.59426 0.0
O369 O 0.97026 0.56463 0.6636 0.0
O370 O 0.95479 0.50662 0.66293 0.0
O371 O 0.06056 0.60103 0.74149 0.0
O372 O 0.04276 0.50974 0.62051 0.0
O373 O 0.99057 0.47994 0.64746 0.0
O374 O 0.93194 0.49966 0.86951 0.0
O375 O 0.03082 0.51088 0.85715 0.0
O376 O 0.0654 0.52444 0.73059 0.0
O377 O 0.94242 0.44868 0.81186 0.0
O378 O 0.96813 0.54587 0.8495 0.0
O379 O 0.0182 0.57803 0.80934 0.0
C380 C 0.94828 0.53922 0.63602 0.0
C381 C 0.11946 0.59817 0.69412 0.0
C382 C 0.16649 0.55443 0.68302 0.0
C383 C 0.18447 0.57123 0.75706 0.0
C384 C 0.13746 0.61452 0.76831 0.0
C385 C 0.17006 0.60125 0.79889 0.0
C386 C 0.13463 0.56891 0.65067 0.0
C387 C 0.02036 0.48382 0.59956 0.0
C388 C 0.08243 0.60705 0.6727 0.0
C389 C 0.95725 0.633 0.37942 0.0
C390 C 0.97349 0.60737 0.32358 0.0
C391 C 0.0628 0.51424 0.81945 0.0
C392 C 0.88518 0.4733 0.78823 0.0
C393 C 0.83653 0.51243 0.7442 0.0
C394 C 0.82867 0.49051 0.66775 0.0
C395 C 0.87742 0.45185 0.71071 0.0
C396 C 0.86367 0.50242 0.80599 0.0
C397 C 0.84886 0.46016 0.65187 0.0
C398 C 0.98975 0.57344 0.8615 0.0
C399 C 0.91815 0.4697 0.84352 0.0
H400 H 0.2092 0.56091 0.7839 0.0
H401 H 0.12582 0.63675 0.80425 0.0
H402 H 0.18376 0.61374 0.8567 0.0
H403 H 0.12095 0.55674 0.59234 0.0
H404 H 0.80728 0.49693 0.62007 0.0
H405 H 0.89375 0.42928 0.69436 0.0
H406 H 0.86875 0.51788 0.86836 0.0
H407 H 0.84297 0.44359 0.59222 0.0
H408 H 0.16136 0.98953 0.24114 0.0
H409 H 0.20774 0.09326 0.27121 0.0
H410 H 0.16008 0.10897 0.3818 0.0
H411 H 0.10848 0.0902 0.48694 0.0
H412 H 0.068 0.98363 0.46267 0.0
H413 H 0.10997 0.97209 0.33655 0.0
C414 C 0.16102 0.01588 0.27065 0.0
C415 C 0.18879 0.04002 0.24648 0.0
C416 C 0.13463 0.02399 0.33828 0.0
C417 C 0.187 0.07403 0.28622 0.0
C418 C 0.15986 0.08283 0.35125 0.0
C419 C 0.10841 0.06471 0.45271 0.0
C420 C 0.08442 0.03786 0.48491 0.0
C421 C 0.13394 0.05767 0.38031 0.0
C422 C 0.08564 1.00486 0.44007 0.0
C423 C 0.1099 0.99814 0.36773 0.0
H424 H 0.5218 0.2244 0.37996 0.0
H425 H 0.46934 0.16374 0.16602 0.0
H426 H 0.47148 0.11079 0.26776 0.0
H427 H 0.48454 0.08224 0.42558 0.0
H428 H 0.53782 0.14546 0.6341 0.0
H429 H 0.53812 0.19588 0.52908 0.0
C430 C 0.51131 0.19948 0.35436 0.0
C431 C 0.49558 0.19862 0.26386 0.0
C432 C 0.51184 0.16927 0.41452 0.0
C433 C 0.48221 0.16565 0.23371 0.0
C434 C 0.48296 0.13528 0.29304 0.0
C435 C 0.49606 0.10704 0.44857 0.0
C436 C 0.5101 0.10943 0.54149 0.0
C437 C 0.49697 0.13682 0.38505 0.0
C438 C 0.52562 0.14214 0.56641 0.0
C439 C 0.52625 0.17136 0.50506 0.0
H440 H 0.37182 0.44681 0.2286 0.0
H441 H 0.32331 0.54883 0.2576 0.0
H442 H 0.36947 0.5661 0.36978 0.0
H443 H 0.41952 0.54953 0.47726 0.0
H444 H 0.46794 0.44732 0.44741 0.0
H445 H 0.42551 0.43276 0.32262 0.0
C446 C 0.37207 0.47346 0.25611 0.0
C447 C 0.34367 0.49658 0.23131 0.0
C448 C 0.39833 0.48285 0.32428 0.0
C449 C 0.34475 0.5306 0.27127 0.0
C450 C 0.37096 0.54023 0.33788 0.0
C451 C 0.42137 0.52421 0.44251 0.0
C452 C 0.44743 0.49955 0.47385 0.0
C453 C 0.39722 0.51618 0.36775 0.0
C454 C 0.44883 0.46706 0.42621 0.0
C455 C 0.42448 0.45871 0.35395 0.0
H456 H 0.08633 0.38715 0.27837 0.0
H457 H 0.98226 0.3387 0.28303 0.0
H458 H 0.96267 0.3835 0.39594 0.0
H459 H 0.97671 0.43445 0.50483 0.0
H460 H 0.08468 0.47304 0.51561 0.0
H461 H 0.10085 0.43407 0.38815 0.0
C462 C 0.05934 0.38549 0.30447 0.0
C463 C 0.03631 0.35813 0.27163 0.0
C464 C 0.0489 0.40993 0.37418 0.0
C465 C 1.00101 0.35883 0.30495 0.0
C466 C 0.98986 0.38442 0.37118 0.0
C467 C 1.00392 0.43421 0.48017 0.0
C468 C 0.02924 0.45795 0.52081 0.0
C469 C 0.01384 0.40969 0.40849 0.0
C470 C 0.06416 0.45657 0.48576 0.0
C471 C 0.07361 0.43376 0.41273 0.0
H472 H 0.86739 0.95914 0.16664 0.0
H473 H 0.82423 0.06405 0.1476 0.0
H474 H 0.87016 0.08042 0.03203 0.0
H475 H 0.92022 0.06336 0.92529 0.0
H476 H 0.96264 0.95803 0.94683 0.0
H477 H 0.91989 0.94373 0.07092 0.0
C478 C 0.86833 0.98591 0.1388 0.0
C479 C 0.84191 1.01029 0.16742 0.0
C480 C 0.89464 0.99495 0.07067 0.0
C481 C 0.84409 0.04474 0.12935 0.0
C482 C 0.87024 0.05395 0.06172 0.0
C483 C 0.92011 0.03719 0.9567 0.0
C484 C 0.94493 1.01173 0.92444 0.0
C485 C 0.89518 0.02903 0.02975 0.0
C486 C 0.94438 0.97833 0.96889 0.0
C487 C 0.91969 0.97004 0.04028 0.0
H488 H 0.48512 0.86695 0.1706 0.0
H489 H 0.59209 0.83117 0.13113 0.0
H490 H 0.60383 0.88105 0.02379 0.0
H491 H 0.58107 0.93135 0.9238 0.0
H492 H 0.4723 0.96327 0.95885 0.0
H493 H 0.46409 0.91915 0.08275 0.0
C494 C 0.51163 0.87104 0.14247 0.0
C495 C 0.53797 0.8454 0.16276 0.0
C496 C 0.51758 0.89891 0.07638 0.0
C497 C 0.57157 0.85071 0.12087 0.0
C498 C 0.57798 0.87892 0.05691 0.0
C499 C 0.55575 0.92902 0.95958 0.0
C500 C 0.52737 0.95122 0.93102 0.0
C501 C 0.55086 0.90266 0.03143 0.0
C502 C 0.49469 0.94699 0.97818 0.0
C503 C 0.48995 0.92163 0.04981 0.0
H504 H 0.64916 0.59552 0.17786 0.0
H505 H 0.70305 0.49645 0.14361 0.0
H506 H 0.65644 0.47669 0.0356 0.0
H507 H 0.60334 0.48964 0.93641 0.0
H508 H 0.55158 0.5903 0.96371 0.0
H509 H 0.59367 0.60686 0.08722 0.0
C510 C 0.65027 0.56907 0.14936 0.0
C511 C 0.68004 0.54738 0.17222 0.0
C512 C 0.62373 0.5583 0.08345 0.0
C513 C 0.68064 0.51361 0.13113 0.0
C514 C 0.65405 0.5025 0.06734 0.0
C515 C 0.60089 0.51518 0.9697 0.0
C516 C 0.57369 0.53863 0.93858 0.0
C517 C 0.62592 0.52492 0.04073 0.0
C518 C 0.57157 0.57141 0.9846 0.0
C519 C 0.59599 0.58101 0.05563 0.0
H520 H 0.02629 0.6702 0.21105 0.0
H521 H 0.93842 0.73108 0.10789 0.0
H522 H 0.92472 0.68442 0.99363 0.0
H523 H 0.94325 0.62913 0.9068 0.0
H524 H 0.03404 0.57226 1.0085 0.0
H525 H 0.04126 0.61403 0.13609 0.0
C526 C 1.00345 0.67299 0.16543 0.0
C527 C 0.98331 0.70453 0.17012 0.0
C528 C 0.99673 0.64667 0.0968 0.0
C529 C 0.9541 0.7072 0.10867 0.0
C530 C 0.94664 0.68057 0.04163 0.0
C531 C 0.9639 0.62527 0.95864 0.0
C532 C 0.98764 0.59639 0.94836 0.0
C533 C 0.96847 0.65052 0.03265 0.0
C534 C 0.01489 0.59314 1.01508 0.0
C535 C 0.01924 0.61745 0.08812 0.0
H536 H 0.14834 0.22953 0.15508 0.0
H537 H 0.12726 0.29563 0.39012 0.0
H538 H 0.10709 0.24503 0.48154 0.0
H539 H 0.0697 0.1916 0.46214 0.0
H540 H 0.08436 0.12597 0.22015 0.0
H541 H 0.13043 0.1665 0.16053 0.0
C542 C 0.13958 0.23273 0.22698 0.0
C543 C 0.12993 0.26664 0.25853 0.0
C544 C 0.12471 0.20352 0.27474 0.0
C545 C 0.12774 0.27001 0.35703 0.0
C546 C 0.11591 0.24098 0.41004 0.0
C547 C 0.08408 0.18505 0.39873 0.0
C548 C 0.0721 0.15733 0.3414 0.0
C549 C 0.10971 0.20881 0.36451 0.0
C550 C 0.09183 0.14868 0.26132 0.0
C551 C 0.11839 0.17158 0.22811 0.0
H552 H 0.3056 0.92441 0.13825 0.0
H553 H 0.26554 0.96685 0.39812 0.0
H554 H 0.30408 0.92813 0.48672 0.0
H555 H 0.36023 0.89677 0.48902 0.0
H556 H 0.40812 0.86395 0.22984 0.0
H557 H 0.35569 0.88324 0.14289 0.0
C558 C 0.30497 0.92482 0.21431 0.0
C559 C 0.28345 0.94941 0.26095 0.0
C560 C 0.32916 0.90429 0.2652 0.0
C561 C 0.28181 0.94847 0.35964 0.0
C562 C 0.30422 0.92651 0.4108 0.0
C563 C 0.35831 0.89246 0.41396 0.0
C564 C 0.38793 0.87988 0.36522 0.0
C565 C 0.32962 0.90632 0.3642 0.0
C566 C 0.38551 0.87383 0.26843 0.0
C567 C 0.35581 0.88545 0.21866 0.0
H568 H 0.53206 0.29244 0.26419 0.0
H569 H 0.44043 0.36018 0.26472 0.0
H570 H 0.47981 0.41235 0.26513 0.0
H571 H 0.53986 0.4379 0.26609 0.0
H572 H 0.63051 0.36926 0.26094 0.0
H573 H 0.59127 0.31757 0.25125 0.0
C574 C 0.52048 0.31856 0.26793 0.0
C575 C 0.4833 0.32245 0.26768 0.0
C576 C 0.54286 0.34798 0.26057 0.0
C577 C 0.46889 0.35657 0.26862 0.0
C578 C 0.49127 0.38625 0.2659 0.0
C579 C 0.55086 0.41162 0.25813 0.0
C580 C 0.5878 0.40702 0.26407 0.0
C581 C 0.52819 0.38217 0.25989 0.0
C582 C 0.60214 0.37319 0.25502 0.0
C583 C 0.57971 0.34372 0.25289 0.0
H584 H 0.19571 0.44266 0.37842 0.0
H585 H 0.30224 0.48325 0.42308 0.0
H586 H 0.28403 0.51079 0.56521 0.0
H587 H 0.23556 0.53771 0.65033 0.0
H588 H 0.12896 0.49771 0.61325 0.0
H589 H 0.14974 0.45645 0.49535 0.0
C590 C 0.21514 0.45677 0.42024 0.0
C591 C 0.24984 0.46172 0.38621 0.0
C592 C 0.20439 0.47409 0.50221 0.0
C593 C 0.275 0.47887 0.4446 0.0
C594 C 0.26463 0.49536 0.52661 0.0
C595 C 0.21692 0.51923 0.61923 0.0
C596 C 0.18049 0.52246 0.63614 0.0
C597 C 0.22894 0.49538 0.55194 0.0
C598 C 0.15699 0.4974 0.59671 0.0
C599 C 0.16881 0.47353 0.52984 0.0
H600 H 0.05396 0.76509 1.01666 0.0
H601 H 0.10845 0.82157 0.23706 0.0
H602 H 0.14435 0.85277 0.11909 0.0
H603 H 0.1515 0.87133 0.95392 0.0
H604 H 0.09408 0.8158 0.73773 0.0
H605 H 0.06995 0.77479 0.85442 0.0
C606 C 0.0747 0.78295 0.04026 0.0
C607 C 0.07797 0.7913 0.13614 0.0
C608 C 0.09485 0.80087 0.97252 0.0
C609 C 0.10468 0.81524 0.16376 0.0
C610 C 0.12531 0.83298 0.09636 0.0
C611 C 0.13445 0.8496 0.93239 0.0
C612 C 0.12388 0.84698 0.83797 0.0
C613 C 0.11929 0.82722 1.00047 0.0
C614 C 0.10252 0.81838 0.81001 0.0
C615 C 0.08832 0.79524 0.87692 0.0
H616 H 0.71043 0.90218 0.25819 0.0
H617 H 0.75016 0.96324 0.02379 0.0
H618 H 0.6903 0.97247 0.9683 0.0
H619 H 0.63135 0.98449 0.02485 0.0
H620 H 0.58924 0.92714 0.26522 0.0
H621 H 0.64577 0.89733 0.28337 0.0
C622 C 0.70594 0.91597 0.19227 0.0
C623 C 0.73421 0.93519 0.15084 0.0
C624 C 0.67106 0.92446 0.16648 0.0
C625 C 0.7287 0.95014 0.06135 0.0
C626 C 0.69419 0.9563 0.03054 0.0
C627 C 0.63315 0.96455 0.07927 0.0
C628 C 0.60612 0.9602 0.14727 0.0
C629 C 0.66554 0.94717 0.08898 0.0
C630 C 0.61021 0.93339 0.21575 0.0
C631 C 0.64242 0.91561 0.22519 0.0
H632 H 0.42544 0.75382 0.07923 0.0
H633 H 0.53009 0.72876 0.97894 0.0
H634 H 0.50507 0.70591 0.83283 0.0
H635 H 0.45335 0.68567 0.74577 0.0
H636 H 0.34846 0.70235 0.85563 0.0
H637 H 0.37308 0.73846 0.98244 0.0
C638 C 0.44245 0.74308 0.02517 0.0
C639 C 0.47917 0.74155 0.03963 0.0
C640 C 0.42781 0.72979 0.94217 0.0
C641 C 0.50156 0.72888 0.96916 0.0
C642 C 0.48735 0.7164 0.88558 0.0
C643 C 0.43593 0.69881 0.79506 0.0
C644 C 0.39939 0.6917 0.79236 0.0
C645 C 0.45051 0.71601 0.87237 0.0
C646 C 0.3767 0.70805 0.85647 0.0
C647 C 0.39087 0.72778 0.9302 0.0
H648 H 0.73043 0.58396 0.98485 0.0
H649 H 0.82737 0.63011 0.09408 0.0
H650 H 0.8573 0.61656 0.94667 0.0
H651 H 0.8596 0.57574 0.81309 0.0
H652 H 0.76447 0.51988 0.72999 0.0
H653 H 0.72958 0.55572 0.83578 0.0
C654 C 0.75769 0.59276 0.97703 0.0
C655 C 0.77694 0.60656 0.05407 0.0
C656 C 0.77517 0.58284 0.89515 0.0
C657 C 0.81214 0.61796 0.03844 0.0
C658 C 0.8293 0.61022 0.95385 0.0
C659 C 0.83102 0.57207 0.81675 0.0
C660 C 0.81491 0.54372 0.76835 0.0
C661 C 0.81176 0.58995 0.88558 0.0
C662 C 0.77777 0.54072 0.7684 0.0
C663 C 0.75784 0.56092 0.83023 0.0
H664 H 0.05189 0.2035 0.13277 0.0
H665 H 1.00821 0.28002 0.94099 0.0
H666 H 0.99247 0.23178 0.83197 0.0
H667 H 0.99624 0.1664 0.78466 0.0
H668 H 0.03976 0.09346 0.9853 0.0
H669 H 0.05567 0.1415 0.08701 0.0
C670 C 0.03859 0.20998 0.06749 0.0
C671 C 0.03124 0.24605 0.0469 0.0
C672 C 0.03124 0.18234 1.00334 0.0
C673 C 0.01379 0.25296 0.96116 0.0
C674 C 1.00525 0.22514 0.89774 0.0
C675 C 1.00829 0.16096 0.85215 0.0
C676 C 0.01887 0.12555 0.87421 0.0
C677 C 0.0144 0.18949 0.91708 0.0
C678 C 0.034 0.11985 0.96244 0.0
C679 C 0.04141 0.14756 0.02367 0.0
H680 H 0.33726 0.06699 0.10132 0.0
H681 H 0.271 1.01094 0.90628 0.0
H682 H 0.3194 1.01129 0.79081 0.0
H683 H 0.38398 0.02156 0.75091 0.0
H684 H 0.44846 0.07977 0.94805 0.0
H685 H 0.3983 0.08453 0.05337 0.0
C686 C 0.3327 0.05637 0.0319 0.0
C687 C 0.29938 0.04015 1.0126 0.0
C688 C 0.36124 0.05611 0.96562 0.0
C689 C 0.29535 0.02496 0.92299 0.0
C690 C 0.32355 0.02454 0.85707 0.0
C691 C 0.3871 0.03582 0.81603 0.0
C692 C 0.42121 0.04975 0.83985 0.0
C693 C 0.35719 0.03912 0.87824 0.0
C694 C 0.42351 0.06823 0.92572 0.0
C695 C 0.39444 0.0711 0.98722 0.0
H696 H 0.45393 0.30209 0.91553 0.0
H697 H 0.55073 0.30515 0.07487 0.0
H698 H 0.56831 0.36026 0.99514 0.0
H699 H 0.55255 0.41251 0.8921 0.0
H700 H 0.45767 0.4057 0.72478 0.0
H701 H 0.44326 0.34833 0.79449 0.0
C702 C 0.47979 0.31369 0.9295 0.0
C703 C 0.50114 0.29831 1.0009 0.0
C704 C 0.48962 0.34601 0.8836 0.0
C705 C 0.53396 0.31517 0.01923 0.0
C706 C 0.54376 0.3474 0.97455 0.0
C707 C 0.52899 0.39829 0.86971 0.0
C708 C 0.5054 0.41488 0.80522 0.0
C709 C 0.52127 0.3639 0.90857 0.0
C710 C 0.4755 0.39505 0.77697 0.0
C711 C 0.46742 0.36168 0.81619 0.0
H712 H 0.17592 0.51051 0.15822 0.0
H713 H 0.24953 0.48494 0.93775 0.0
H714 H 0.20136 0.49017 0.82208 0.0
H715 H 0.13575 0.49877 0.78329 0.0
H716 H 0.06437 0.52162 1.00973 0.0
H717 H 0.11287 0.51928 0.12071 0.0
C718 C 0.18196 0.50595 0.08502 0.0
C719 C 0.21742 0.49699 0.05904 0.0
C720 C 0.15368 0.50834 1.01836 0.0
C721 C 0.22337 0.49226 0.96199 0.0
C722 C 0.19536 0.49492 0.89519 0.0
C723 C 0.13097 0.50438 0.85613 0.0
C724 C 0.09547 0.51193 0.88508 0.0
C725 C 0.16005 0.50266 0.92218 0.0
C726 C 0.09051 0.51672 0.98236 0.0
C727 C 0.11871 0.51529 0.04708 0.0
H728 H 0.03426 0.81961 0.47842 0.0
H729 H 0.94809 0.84758 0.29579 0.0
H730 H 0.94159 0.90425 0.37792 0.0
H731 H 0.96287 0.94792 0.49791 0.0
H732 H 0.04654 0.91729 0.68678 0.0
H733 H 0.0515 0.86054 0.60755 0.0
C734 C 0.0134 0.83769 0.45816 0.0
C735 C 0.99122 0.8286 0.38129 0.0
C736 C 1.00975 0.87039 0.50663 0.0
C737 C 0.96494 0.85308 0.35548 0.0
C738 C 0.96155 0.88584 0.4021 0.0
C739 C 0.98209 0.92887 0.52218 0.0
C740 C 1.00459 0.93784 0.59877 0.0
C741 C 0.98416 0.89518 0.47712 0.0
C742 C 0.02887 0.91191 0.62875 0.0
C743 C 0.03175 0.87911 0.58302 0.0
H744 H 0.69289 0.02987 0.30567 0.0
H745 H 0.76642 1.00517 0.52652 0.0
H746 H 0.71887 1.01208 0.64348 0.0
H747 H 0.65343 0.01809 0.68182 0.0
H748 H 0.58116 0.03965 0.45386 0.0
H749 H 0.63019 0.04034 0.34343 0.0
C750 C 0.69902 0.02746 0.37979 0.0
C751 C 0.73411 0.01814 0.40618 0.0
C752 C 0.67094 0.02974 0.44637 0.0
C753 C 0.74051 0.01363 0.50303 0.0
C754 C 0.71285 0.01686 0.57019 0.0
C755 C 0.64841 0.02359 0.60837 0.0
C756 C 0.61274 0.02871 0.57786 0.0
C757 C 0.67749 0.02384 0.54277 0.0
C758 C 0.60761 0.03533 0.48118 0.0
C759 C 0.63594 0.03589 0.41706 0.0
H760 H 0.4688 0.71421 0.37957 0.0
H761 H 0.58206 0.7293 0.36761 0.0
H762 H 0.58988 0.67872 0.47552 0.0
H763 H 0.56424 0.62676 0.56687 0.0
H764 H 0.45032 0.61331 0.5734 0.0
H765 H 0.44346 0.66596 0.47692 0.0
C766 C 0.4953 0.7071 0.40204 0.0
C767 C 0.52474 0.72653 0.36509 0.0
C768 C 0.49959 0.67741 0.46322 0.0
C769 C 0.55872 0.71595 0.39532 0.0
C770 C 0.5632 0.68644 0.45651 0.0
C771 C 0.53788 0.63511 0.54706 0.0
C772 C 0.5079 0.61475 0.57811 0.0
C773 C 0.53384 0.66632 0.48975 0.0
C774 C 0.47413 0.62744 0.55198 0.0
C775 C 0.47006 0.65792 0.49593 0.0
H776 H 0.81402 0.60319 0.41234 0.0
H777 H 0.79983 0.49469 0.33032 0.0
H778 H 0.85174 0.47801 0.42517 0.0
H779 H 0.90402 0.49472 0.52779 0.0
H780 H 0.91371 0.60264 0.619 0.0
H781 H 0.86209 0.61874 0.52512 0.0
C782 C 0.8217 0.57565 0.41642 0.0
C783 C 0.80196 0.55031 0.3636 0.0
C784 C 0.85179 0.56614 0.47231 0.0
C785 C 0.81335 0.51492 0.37039 0.0
C786 C 0.84361 0.50542 0.4243 0.0
C787 C 0.89483 0.52179 0.52777 0.0
C788 C 0.91439 0.54763 0.5798 0.0
C789 C 0.86352 0.53082 0.47501 0.0
C790 C 0.90093 0.5823 0.57804 0.0
C791 C 0.87073 0.59148 0.52478 0.0
loop_
_geom_bond_atom_site_label_1
_geom_bond_atom_site_label_2
_geom_bond_distance
_geom_bond_site_symmetry_2
_ccdc_geom_bond_type
H0 C3 0.931 . S
H1 C6 0.928 . S
H2 C8 0.930 . S
C3 H0 0.931 . S
C3 C4 1.413 . S
C3 C5 1.360 . S
C4 C3 1.413 . S
C4 C8 1.429 . S
C5 C3 1.360 . S
C5 C6 1.372 . S
C6 H1 0.928 . S
C6 C5 1.372 . S
C6 C7 1.404 . S
C7 C6 1.404 . S
C7 C8 1.391 . S
C8 H2 0.930 . S
C8 C4 1.429 . S
C8 C7 1.391 . S
H9 C12 0.931 . S
H10 C15 0.928 . S
H11 C17 0.930 . S
C12 H9 0.931 . S
C12 C13 1.413 . S
C12 C14 1.360 . S
C13 C12 1.413 . S
C13 C17 1.429 . S
C14 C12 1.360 . S
C14 C15 1.372 . S
C15 H10 0.928 . S
C15 C14 1.372 . S
C15 C16 1.404 . S
C16 C15 1.404 . S
C16 C17 1.391 . S
C17 H11 0.930 . S
C17 C13 1.429 . S
C17 C16 1.391 . S
H18 C21 0.931 . S
H19 C24 0.928 . S
H20 C26 0.930 . S
C21 H18 0.931 . S
C21 C22 1.413 . S
C21 C23 1.360 . S
C22 C21 1.413 . S
C22 C26 1.429 . S
C23 C21 1.360 . S
C23 C24 1.372 . S
C24 H19 0.928 . S
C24 C23 1.372 . S
C24 C25 1.404 . S
C25 C24 1.404 . S
C25 C26 1.391 . S
C26 H20 0.930 . S
C26 C22 1.429 . S
C26 C25 1.391 . S
H27 C30 0.931 . S
H28 C33 0.928 . S
H29 C35 0.930 . S
C30 H27 0.931 . S
C30 C31 1.413 . S
C30 C32 1.360 . S
C31 C30 1.413 . S
C31 C35 1.429 . S
C32 C30 1.360 . S
C32 C33 1.372 . S
C33 H28 0.928 . S
C33 C32 1.372 . S
C33 C34 1.404 . S
C34 C33 1.404 . S
C34 C35 1.391 . S
C35 H29 0.930 . S
C35 C31 1.429 . S
C35 C34 1.391 . S
H36 C39 0.933 . S
H37 C42 0.928 . S
H38 C44 0.930 . S
C39 H36 0.933 . S
C39 C40 1.413 1_554 S
C39 C41 1.360 . S
C40 C39 1.413 1_556 S
C40 C44 1.429 . S
C41 C39 1.360 . S
C41 C42 1.372 . S
C42 H37 0.928 . S
C42 C41 1.372 . S
C42 C43 1.404 . S
C43 C42 1.404 . S
C43 C44 1.391 1_554 S
C44 H38 0.930 . S
C44 C40 1.429 . S
C44 C43 1.391 1_556 S
H45 C48 0.931 . S
H46 C51 0.928 . S
H47 C53 0.930 . S
C48 H45 0.931 . S
C48 C49 1.413 1_554 S
C48 C50 1.360 . S
C49 C48 1.413 1_556 S
C49 C53 1.429 . S
C50 C48 1.360 . S
C50 C51 1.372 . S
C51 H46 0.928 . S
C51 C50 1.372 . S
C51 C52 1.404 . S
C52 C51 1.404 . S
C52 C53 1.391 1_554 S
C53 H47 0.930 . S
C53 C49 1.429 . S
C53 C52 1.391 1_556 S
H54 C57 0.931 . S
H55 C60 0.928 . S
H56 C62 0.930 . S
C57 H54 0.931 . S
C57 C58 1.413 1_554 S
C57 C59 1.360 . S
C58 C57 1.413 1_556 S
C58 C62 1.429 . S
C59 C57 1.360 . S
C59 C60 1.372 . S
C60 H55 0.928 . S
C60 C59 1.372 . S
C60 C61 1.404 . S
C61 C60 1.404 . S
C61 C62 1.391 1_554 S
C62 H56 0.930 . S
C62 C58 1.429 . S
C62 C61 1.391 1_556 S
H63 C66 0.931 1_556 S
H64 C69 0.928 . S
H65 C71 0.930 . S
C66 H63 0.931 1_554 S
C66 C67 1.413 . S
C66 C68 1.360 1_554 S
C67 C66 1.413 . S
C67 C71 1.429 . S
C68 C66 1.360 1_556 S
C68 C69 1.372 . S
C69 H64 0.928 . S
C69 C68 1.372 . S
C69 C70 1.404 1_556 S
C70 C69 1.404 1_554 S
C70 C71 1.391 . S
C71 H65 0.930 . S
C71 C67 1.429 . S
C71 C70 1.391 . S
Tb72 N101 2.617 . S
Tb72 N107 2.572 . S
Tb72 O116 2.465 . S
Tb72 O117 2.387 1_545 S
Tb72 O119 2.428 . S
Tb72 O120 2.308 1_655 S
Tb72 O124 2.349 1_655 S
Tb72 O127 2.393 . S
Tb72 C136 2.802 . S
C73 N74 1.379 . S
C73 C76 1.416 . S
C73 C80 1.424 . S
N74 C73 1.379 . S
N74 C77 1.334 1_545 S
N74 Tb83 2.617 1_545 S
C75 C77 1.390 1_545 S
C75 C78 1.339 . S
C75 H95 0.930 . S
C76 C73 1.416 . S
C76 C78 1.416 . S
C76 C82 1.448 1_556 S
C77 N74 1.334 1_565 S
C77 C75 1.390 1_565 S
C77 H88 0.930 . S
C78 C75 1.339 . S
C78 C76 1.416 . S
C78 H99 0.930 . S
C79 C80 1.413 1_554 S
C79 C81 1.427 . S
C79 C85 1.416 . S
C80 C73 1.424 . S
C80 C79 1.413 1_556 S
C80 N84 1.361 . S
C81 C79 1.427 . S
C81 C82 1.328 . S
C81 H96 0.929 . S
C82 C76 1.448 1_554 S
C82 C81 1.328 . S
C82 H97 0.930 . S
Tb83 N74 2.617 1_565 S
Tb83 N84 2.572 1_565 S
Tb83 O118 2.349 . S
Tb83 O121 2.393 . S
Tb83 O122 2.465 . S
Tb83 O123 2.387 1_565 S
Tb83 O125 2.428 . S
Tb83 O126 2.308 1_455 S
Tb83 C147 2.802 . S
N84 C80 1.361 . S
N84 Tb83 2.572 1_545 S
N84 C86 1.340 . S
C85 C79 1.416 . S
C85 C87 1.332 . S
C85 H93 0.931 . S
C86 N84 1.340 . S
C86 C87 1.407 1_556 S
C86 H92 0.930 . S
C87 C85 1.332 . S
C87 C86 1.407 1_554 S
C87 H89 0.929 . S
H88 C77 0.930 . S
H89 C87 0.929 . S
H90 C105 0.930 . S
H91 C112 0.929 1_455 S
H92 C86 0.930 . S
H93 C85 0.931 . S
H94 C108 0.930 1_455 S
H95 C75 0.930 . S
H96 C81 0.929 . S
H97 C82 0.930 . S
H98 C103 0.930 . S
H99 C78 0.930 . S
H100 C111 0.931 . S
N101 Tb72 2.617 . S
N101 C102 1.379 1_545 S
N101 C105 1.334 . S
C102 N101 1.379 1_565 S
C102 C104 1.416 . S
C102 C110 1.424 . S
C103 H98 0.930 . S
C103 C105 1.390 . S
C103 C106 1.339 1_545 S
C104 C102 1.416 . S
C104 C106 1.416 . S
C104 C137 1.448 . S
C105 H90 0.930 . S
C105 N101 1.334 . S
C105 C103 1.390 . S
C106 C103 1.339 1_565 S
C106 C104 1.416 . S
C106 H113 0.930 . S
N107 Tb72 2.572 . S
N107 C108 1.340 . S
N107 C110 1.361 1_545 S
C108 H94 0.930 1_655 S
C108 N107 1.340 . S
C108 C112 1.407 1_545 S
C109 C110 1.413 . S
C109 C111 1.416 . S
C109 C138 1.427 . S
C110 C102 1.424 . S
C110 N107 1.361 1_565 S
C110 C109 1.413 . S
C111 H100 0.931 . S
C111 C109 1.416 . S
C111 C112 1.332 . S
C112 H91 0.929 1_655 S
C112 C108 1.407 1_565 S
C112 C111 1.332 . S
H113 C106 0.930 . S
H114 C137 0.930 . S
H115 C138 0.929 . S
O116 Tb72 2.465 . S
O116 C136 1.264 . S
O117 Tb72 2.387 1_565 S
O117 C128 1.264 . S
O118 Tb83 2.349 . S
O118 C128 1.243 1_455 S
O119 Tb72 2.428 . S
O119 C136 1.256 . S
O120 Tb72 2.308 1_455 S
O120 C135 1.266 . S
O121 Tb83 2.393 . S
O121 C135 1.248 1_565 S
O122 Tb83 2.465 . S
O122 C147 1.264 . S
O123 Tb83 2.387 1_545 S
O123 C139 1.264 . S
O124 Tb72 2.349 1_455 S
O124 C139 1.243 . S
O125 Tb83 2.428 . S
O125 C147 1.256 . S
O126 Tb83 2.308 1_655 S
O126 C146 1.266 1_565 S
O127 Tb72 2.393 . S
O127 C146 1.248 . S
C128 O117 1.264 . S
C128 O118 1.243 1_655 S
C129 C132 1.399 . S
C129 C134 1.383 . S
C129 C136 1.496 . S
C130 C131 1.399 . S
C130 C134 1.389 . S
C131 C130 1.399 . S
C131 C133 1.380 . S
C131 H148 0.929 . S
C132 C129 1.399 . S
C132 C133 1.392 . S
C132 H149 0.929 . S
C133 C131 1.380 . S
C133 C132 1.392 . S
C133 H150 0.929 . S
C134 C129 1.383 . S
C134 C130 1.389 . S
C134 H151 0.929 . S
C135 O120 1.266 . S
C135 O121 1.248 1_545 S
C136 Tb72 2.802 . S
C136 O116 1.264 . S
C136 O119 1.256 . S
C136 C129 1.496 . S
C137 C104 1.448 . S
C137 H114 0.930 . S
C137 C138 1.328 . S
C138 C109 1.427 . S
C138 H115 0.929 . S
C138 C137 1.328 . S
C139 O123 1.264 . S
C139 O124 1.243 . S
C140 C143 1.399 . S
C140 C144 1.383 . S
C140 C147 1.496 . S
C141 C142 1.399 . S
C141 C144 1.389 1_554 S
C142 C141 1.399 . S
C142 C145 1.380 1_554 S
C142 H152 0.929 . S
C143 C140 1.399 . S
C143 C145 1.392 . S
C143 H153 0.929 . S
C144 C140 1.383 . S
C144 C141 1.389 1_556 S
C144 H154 0.931 . S
C145 C142 1.380 1_556 S
C145 C143 1.392 . S
C145 H155 0.929 . S
C146 O126 1.266 1_545 S
C146 O127 1.248 . S
C147 Tb83 2.802 . S
C147 O122 1.264 . S
C147 O125 1.256 . S
C147 C140 1.496 . S
H148 C131 0.929 . S
H149 C132 0.929 . S
H150 C133 0.929 . S
H151 C134 0.929 . S
H152 C142 0.929 . S
H153 C143 0.929 . S
H154 C144 0.931 . S
H155 C145 0.929 . S
Tb156 N185 2.617 . S
Tb156 N191 2.572 . S
Tb156 O200 2.465 . S
Tb156 O201 2.387 . S
Tb156 O203 2.428 . S
Tb156 O204 2.308 . S
Tb156 O208 2.349 1_545 S
Tb156 O211 2.393 . S
Tb156 C220 2.802 . S
C157 N158 1.379 . S
C157 C160 1.416 . S
C157 C164 1.424 . S
N158 C157 1.379 . S
N158 C161 1.334 . S
N158 Tb167 2.617 . S
C159 C161 1.390 . S
C159 C162 1.339 . S
C159 H179 0.930 . S
C160 C157 1.416 . S
C160 C162 1.416 . S
C160 C166 1.448 . S
C161 N158 1.334 . S
C161 C159 1.390 . S
C161 H172 0.930 . S
C162 C159 1.339 . S
C162 C160 1.416 . S
C162 H183 0.930 . S
C163 C164 1.413 . S
C163 C165 1.427 . S
C163 C169 1.416 . S
C164 C157 1.424 . S
C164 C163 1.413 . S
C164 N168 1.361 . S
C165 C163 1.427 . S
C165 C166 1.328 . S
C165 H180 0.929 . S
C166 C160 1.448 . S
C166 C165 1.328 . S
C166 H181 0.930 . S
Tb167 N158 2.617 . S
Tb167 N168 2.572 . S
Tb167 O202 2.349 1_565 S
Tb167 O205 2.393 . S
Tb167 O206 2.465 . S
Tb167 O207 2.387 . S
Tb167 O209 2.428 . S
Tb167 O210 2.307 1_565 S
Tb167 C231 2.802 . S
N168 C164 1.361 . S
N168 Tb167 2.572 . S
N168 C170 1.340 . S
C169 C163 1.416 . S
C169 C171 1.332 . S
C169 H177 0.931 . S
C170 N168 1.340 . S
C170 C171 1.407 . S
C170 H176 0.930 . S
C171 C169 1.332 . S
C171 C170 1.407 . S
C171 H173 0.929 . S
H172 C161 0.930 . S
H173 C171 0.929 . S
H174 C189 0.930 . S
H175 C196 0.929 . S
H176 C170 0.930 . S
H177 C169 0.931 . S
H178 C192 0.930 . S
H179 C159 0.930 . S
H180 C165 0.929 . S
H181 C166 0.930 . S
H182 C187 0.930 . S
H183 C162 0.930 . S
H184 C195 0.931 . S
N185 Tb156 2.617 . S
N185 C186 1.379 . S
N185 C189 1.334 . S
C186 N185 1.379 . S
C186 C188 1.416 . S
C186 C194 1.424 . S
C187 H182 0.930 . S
C187 C189 1.390 . S
C187 C190 1.339 . S
C188 C186 1.416 . S
C188 C190 1.416 . S
C188 C221 1.448 . S
C189 H174 0.930 . S
C189 N185 1.334 . S
C189 C187 1.390 . S
C190 C187 1.339 . S
C190 C188 1.416 . S
C190 H197 0.930 . S
N191 Tb156 2.572 . S
N191 C192 1.340 . S
N191 C194 1.361 . S
C192 H178 0.930 . S
C192 N191 1.340 . S
C192 C196 1.407 . S
C193 C194 1.413 . S
C193 C195 1.416 . S
C193 C222 1.427 . S
C194 C186 1.424 . S
C194 N191 1.361 . S
C194 C193 1.413 . S
C195 H184 0.931 . S
C195 C193 1.416 . S
C195 C196 1.332 . S
C196 H175 0.929 . S
C196 C192 1.407 . S
C196 C195 1.332 . S
H197 C190 0.930 . S
H198 C221 0.930 . S
H199 C222 0.929 . S
O200 Tb156 2.465 . S
O200 C220 1.264 . S
O201 Tb156 2.387 . S
O201 C212 1.264 . S
O202 Tb167 2.349 1_545 S
O202 C212 1.243 . S
O203 Tb156 2.428 . S
O203 C220 1.256 . S
O204 Tb156 2.308 . S
O204 C219 1.266 1_545 S
O205 Tb167 2.393 . S
O205 C219 1.248 . S
O206 Tb167 2.465 . S
O206 C231 1.264 . S
O207 Tb167 2.387 . S
O207 C223 1.264 . S
O208 Tb156 2.349 1_565 S
O208 C223 1.243 . S
O209 Tb167 2.428 . S
O209 C231 1.256 . S
O210 Tb167 2.307 1_545 S
O210 C230 1.267 . S
O211 Tb156 2.393 . S
O211 C230 1.248 . S
C212 O201 1.264 . S
C212 O202 1.243 . S
C213 C216 1.399 . S
C213 C218 1.383 1_554 S
C213 C220 1.496 1_554 S
C214 C215 1.399 . S
C214 C218 1.389 1_554 S
C215 C214 1.399 . S
C215 C217 1.380 . S
C215 H232 0.929 . S
C216 C213 1.399 . S
C216 C217 1.392 . S
C216 H233 0.929 . S
C217 C215 1.380 . S
C217 C216 1.392 . S
C217 H234 0.929 . S
C218 C213 1.383 1_556 S
C218 C214 1.389 1_556 S
C218 H235 0.931 . S
C219 O204 1.266 1_565 S
C219 O205 1.248 . S
C220 Tb156 2.802 . S
C220 O200 1.264 . S
C220 O203 1.256 . S
C220 C213 1.496 1_556 S
C221 C188 1.448 . S
C221 H198 0.930 . S
C221 C222 1.328 . S
C222 C193 1.427 . S
C222 H199 0.929 . S
C222 C221 1.328 . S
C223 O207 1.264 . S
C223 O208 1.243 . S
C224 C227 1.399 . S
C224 C228 1.383 . S
C224 C231 1.496 . S
C225 C226 1.399 . S
C225 C228 1.389 . S
C226 C225 1.399 . S
C226 C229 1.380 . S
C226 H236 0.929 . S
C227 C224 1.399 . S
C227 C229 1.392 . S
C227 H237 0.929 . S
C228 C224 1.383 . S
C228 C225 1.389 . S
C228 H238 0.931 . S
C229 C226 1.380 . S
C229 C227 1.392 . S
C229 H239 0.929 . S
C230 O210 1.267 . S
C230 O211 1.248 . S
C231 Tb167 2.802 . S
C231 O206 1.264 . S
C231 O209 1.256 . S
C231 C224 1.496 . S
H232 C215 0.929 . S
H233 C216 0.929 . S
H234 C217 0.929 . S
H235 C218 0.931 . S
H236 C226 0.929 . S
H237 C227 0.929 . S
H238 C228 0.931 . S
H239 C229 0.929 . S
Tb240 N269 2.617 . S
Tb240 N275 2.572 . S
Tb240 O284 2.465 . S
Tb240 O285 2.387 . S
Tb240 O287 2.428 . S
Tb240 O288 2.308 . S
Tb240 O292 2.349 . S
Tb240 O295 2.393 . S
Tb240 C304 2.802 . S
C241 N242 1.379 . S
C241 C244 1.416 . S
C241 C248 1.424 . S
N242 C241 1.379 . S
N242 C245 1.334 . S
N242 Tb251 2.617 . S
C243 C245 1.390 . S
C243 C246 1.339 . S
C243 H263 0.930 . S
C244 C241 1.416 . S
C244 C246 1.416 . S
C244 C250 1.448 1_556 S
C245 N242 1.334 . S
C245 C243 1.390 . S
C245 H256 0.930 . S
C246 C243 1.339 . S
C246 C244 1.416 . S
C246 H267 0.930 . S
C247 C248 1.413 1_554 S
C247 C249 1.427 . S
C247 C253 1.416 . S
C248 C241 1.424 . S
C248 C247 1.413 1_556 S
C248 N252 1.361 . S
C249 C247 1.427 . S
C249 C250 1.328 . S
C249 H264 0.929 . S
C250 C244 1.448 1_554 S
C250 C249 1.328 . S
C250 H265 0.930 . S
Tb251 N242 2.617 . S
Tb251 N252 2.572 . S
Tb251 O286 2.349 . S
Tb251 O289 2.393 . S
Tb251 O290 2.465 . S
Tb251 O291 2.387 . S
Tb251 O293 2.428 . S
Tb251 O294 2.308 . S
Tb251 C315 2.802 . S
N252 C248 1.361 . S
N252 Tb251 2.572 . S
N252 C254 1.340 . S
C253 C247 1.416 . S
C253 C255 1.332 . S
C253 H261 0.931 . S
C254 N252 1.340 . S
C254 C255 1.407 1_556 S
C254 H260 0.930 . S
C255 C253 1.332 . S
C255 C254 1.407 1_554 S
C255 H257 0.929 . S
H256 C245 0.930 . S
H257 C255 0.929 . S
H258 C273 0.930 . S
H259 C280 0.929 . S
H260 C254 0.930 . S
H261 C253 0.931 . S
H262 C276 0.930 . S
H263 C243 0.930 . S
H264 C249 0.929 . S
H265 C250 0.930 . S
H266 C271 0.930 . S
H267 C246 0.930 . S
H268 C279 0.931 . S
N269 Tb240 2.617 . S
N269 C270 1.379 . S
N269 C273 1.334 . S
C270 N269 1.379 . S
C270 C272 1.416 . S
C270 C278 1.424 . S
C271 H266 0.930 . S
C271 C273 1.390 . S
C271 C274 1.339 . S
C272 C270 1.416 . S
C272 C274 1.416 . S
C272 C305 1.448 . S
C273 H258 0.930 . S
C273 N269 1.334 . S
C273 C271 1.390 . S
C274 C271 1.339 . S
C274 C272 1.416 . S
C274 H281 0.930 . S
N275 Tb240 2.572 . S
N275 C276 1.340 . S
N275 C278 1.361 . S
C276 H262 0.930 . S
C276 N275 1.340 . S
C276 C280 1.407 . S
C277 C278 1.413 . S
C277 C279 1.416 . S
C277 C306 1.427 . S
C278 C270 1.424 . S
C278 N275 1.361 . S
C278 C277 1.413 . S
C279 H268 0.931 . S
C279 C277 1.416 . S
C279 C280 1.332 . S
C280 H259 0.929 . S
C280 C276 1.407 . S
C280 C279 1.332 . S
H281 C274 0.930 . S
H282 C305 0.930 . S
H283 C306 0.929 . S
O284 Tb240 2.465 . S
O284 C304 1.264 . S
O285 Tb240 2.387 . S
O285 C296 1.264 . S
O286 Tb251 2.349 . S
O286 C296 1.243 . S
O287 Tb240 2.428 . S
O287 C304 1.256 . S
O288 Tb240 2.308 . S
O288 C303 1.266 . S
O289 Tb251 2.393 . S
O289 C303 1.248 . S
O290 Tb251 2.465 . S
O290 C315 1.264 . S
O291 Tb251 2.387 . S
O291 C307 1.264 . S
O292 Tb240 2.349 . S
O292 C307 1.243 . S
O293 Tb251 2.428 . S
O293 C315 1.256 . S
O294 Tb251 2.308 . S
O294 C314 1.266 . S
O295 Tb240 2.393 . S
O295 C314 1.248 . S
C296 O285 1.264 . S
C296 O286 1.243 . S
C297 C300 1.399 . S
C297 C302 1.383 . S
C297 C304 1.496 . S
C298 C299 1.399 . S
C298 C302 1.389 . S
C299 C298 1.399 . S
C299 C301 1.380 . S
C299 H316 0.929 . S
C300 C297 1.399 . S
C300 C301 1.392 . S
C300 H317 0.929 . S
C301 C299 1.380 . S
C301 C300 1.392 . S
C301 H318 0.929 . S
C302 C297 1.383 . S
C302 C298 1.389 . S
C302 H319 0.931 . S
C303 O288 1.266 . S
C303 O289 1.248 . S
C304 Tb240 2.802 . S
C304 O284 1.264 . S
C304 O287 1.256 . S
C304 C297 1.496 . S
C305 C272 1.448 . S
C305 H282 0.930 . S
C305 C306 1.328 . S
C306 C277 1.427 . S
C306 H283 0.929 . S
C306 C305 1.328 . S
C307 O291 1.264 . S
C307 O292 1.243 . S
C308 C311 1.399 . S
C308 C312 1.383 . S
C308 C315 1.496 . S
C309 C310 1.399 . S
C309 C312 1.389 1_554 S
C310 C309 1.399 . S
C310 C313 1.380 1_554 S
C310 H320 0.929 . S
C311 C308 1.399 . S
C311 C313 1.392 . S
C311 H321 0.929 . S
C312 C308 1.383 . S
C312 C309 1.389 1_556 S
C312 H322 0.931 . S
C313 C310 1.380 1_556 S
C313 C311 1.392 . S
C313 H323 0.929 . S
C314 O294 1.266 . S
C314 O295 1.248 . S
C315 Tb251 2.802 . S
C315 O290 1.264 . S
C315 O293 1.256 . S
C315 C308 1.496 . S
H316 C299 0.929 . S
H317 C300 0.929 . S
H318 C301 0.929 . S
H319 C302 0.931 . S
H320 C310 0.929 . S
H321 C311 0.929 . S
H322 C312 0.931 . S
H323 C313 0.929 . S
Tb324 N353 2.617 . S
Tb324 N359 2.572 . S
Tb324 O368 2.465 . S
Tb324 O369 2.387 1_455 S
Tb324 O371 2.428 . S
Tb324 O372 2.308 . S
Tb324 O376 2.349 . S
Tb324 O379 2.393 . S
Tb324 C388 2.802 . S
C325 N326 1.379 1_455 S
C325 C328 1.416 . S
C325 C332 1.424 . S
N326 C325 1.379 1_655 S
N326 C329 1.334 . S
N326 Tb335 2.617 . S
C327 C329 1.390 1_455 S
C327 C330 1.339 . S
C327 H347 0.930 . S
C328 C325 1.416 . S
C328 C330 1.416 . S
C328 C334 1.448 1_556 S
C329 N326 1.334 . S
C329 C327 1.390 1_655 S
C329 H340 0.930 . S
C330 C327 1.339 . S
C330 C328 1.416 . S
C330 H351 0.930 . S
C331 C332 1.413 1_554 S
C331 C333 1.427 . S
C331 C337 1.416 . S
C332 C325 1.424 . S
C332 C331 1.413 1_556 S
C332 N336 1.361 . S
C333 C331 1.427 . S
C333 C334 1.328 . S
C333 H348 0.929 . S
C334 C328 1.448 1_554 S
C334 C333 1.328 . S
C334 H349 0.930 . S
Tb335 N326 2.617 . S
Tb335 N336 2.572 1_655 S
Tb335 O370 2.349 . S
Tb335 O373 2.393 . S
Tb335 O374 2.465 . S
Tb335 O375 2.387 1_655 S
Tb335 O377 2.428 . S
Tb335 O378 2.308 . S
Tb335 C399 2.802 . S
N336 C332 1.361 . S
N336 Tb335 2.572 1_455 S
N336 C338 1.340 . S
C337 C331 1.416 . S
C337 C339 1.332 . S
C337 H345 0.931 . S
C338 N336 1.340 . S
C338 C339 1.407 1_556 S
C338 H344 0.930 . S
C339 C337 1.332 . S
C339 C338 1.407 1_554 S
C339 H341 0.929 . S
H340 C329 0.930 . S
H341 C339 0.929 . S
H342 C357 0.930 . S
H343 C364 0.929 . S
H344 C338 0.930 . S
H345 C337 0.931 . S
H346 C360 0.943 . S
H347 C327 0.930 . S
H348 C333 0.929 . S
H349 C334 0.930 . S
H350 C355 0.930 . S
H351 C330 0.930 . S
H352 C363 0.931 . S
N353 Tb324 2.617 . S
N353 C354 1.379 1_455 S
N353 C357 1.334 . S
C354 N353 1.379 1_655 S
C354 C356 1.416 . S
C354 C362 1.424 . S
C355 H350 0.930 . S
C355 C357 1.390 . S
C355 C358 1.339 1_455 S
C356 C354 1.416 . S
C356 C358 1.416 . S
C356 C389 1.448 . S
C357 H342 0.930 . S
C357 N353 1.334 . S
C357 C355 1.390 . S
C358 C355 1.339 1_655 S
C358 C356 1.416 . S
C358 H365 0.930 . S
N359 Tb324 2.572 . S
N359 C360 1.344 . S
N359 C362 1.361 1_455 S
C360 H346 0.943 . S
C360 N359 1.344 . S
C360 C364 1.392 1_455 S
C361 C362 1.413 . S
C361 C363 1.416 . S
C361 C390 1.427 . S
C362 C354 1.424 . S
C362 N359 1.361 1_655 S
C362 C361 1.413 . S
C363 H352 0.931 . S
C363 C361 1.416 . S
C363 C364 1.332 . S
C364 H343 0.929 . S
C364 C360 1.392 1_655 S
C364 C363 1.332 . S
H365 C358 0.930 . S
H366 C389 0.930 . S
H367 C390 0.929 . S
O368 Tb324 2.465 . S
O368 C388 1.264 . S
O369 Tb324 2.387 1_655 S
O369 C380 1.264 . S
O370 Tb335 2.349 . S
O370 C380 1.243 . S
O371 Tb324 2.428 . S
O371 C388 1.256 . S
O372 Tb324 2.308 . S
O372 C387 1.266 . S
O373 Tb335 2.393 . S
O373 C387 1.248 1_655 S
O374 Tb335 2.465 . S
O374 C399 1.264 . S
O375 Tb335 2.387 1_455 S
O375 C391 1.264 . S
O376 Tb324 2.349 . S
O376 C391 1.243 . S
O377 Tb335 2.428 . S
O377 C399 1.256 . S
O378 Tb335 2.308 . S
O378 C398 1.266 1_655 S
O379 Tb324 2.393 . S
O379 C398 1.248 . S
C380 O369 1.264 . S
C380 O370 1.243 . S
C381 C384 1.399 . S
C381 C386 1.383 . S
C381 C388 1.496 . S
C382 C383 1.399 . S
C382 C386 1.389 . S
C383 C382 1.399 . S
C383 C385 1.380 . S
C383 H400 0.929 . S
C384 C381 1.399 . S
C384 C385 1.392 . S
C384 H401 0.929 . S
C385 C383 1.380 . S
C385 C384 1.392 . S
C385 H402 0.929 . S
C386 C381 1.383 . S
C386 C382 1.389 . S
C386 H403 0.931 . S
C387 O372 1.266 . S
C387 O373 1.248 1_455 S
C388 Tb324 2.802 . S
C388 O368 1.264 . S
C388 O371 1.256 . S
C388 C381 1.496 . S
C389 C356 1.448 . S
C389 H366 0.930 . S
C389 C390 1.328 . S
C390 C361 1.427 . S
C390 H367 0.929 . S
C390 C389 1.328 . S
C391 O375 1.264 . S
C391 O376 1.243 . S
C392 C395 1.399 . S
C392 C396 1.383 . S
C392 C399 1.496 . S
C393 C394 1.399 . S
C393 C396 1.389 1_554 S
C394 C393 1.399 . S
C394 C397 1.380 1_554 S
C394 H404 0.929 . S
C395 C392 1.399 . S
C395 C397 1.392 . S
C395 H405 0.929 . S
C396 C392 1.383 . S
C396 C393 1.389 1_556 S
C396 H406 0.931 . S
C397 C394 1.380 1_556 S
C397 C395 1.392 . S
C397 H407 0.929 . S
C398 O378 1.266 1_455 S
C398 O379 1.248 . S
C399 Tb335 2.802 . S
C399 O374 1.264 . S
C399 O377 1.256 . S
C399 C392 1.496 . S
H400 C383 0.929 . S
H401 C384 0.929 . S
H402 C385 0.929 . S
H403 C386 0.931 . S
H404 C394 0.929 . S
H405 C395 0.929 . S
H406 C396 0.931 . S
H407 C397 0.929 . S
H408 C414 0.930 . S
H409 C417 0.930 . S
H410 C418 0.930 . S
H411 C419 0.930 . S
H412 C422 0.930 . S
H413 C423 0.930 . S
C414 H408 0.930 . S
C414 C415 1.355 . S
C414 C416 1.415 . S
C415 C414 1.355 . S
C415 C417 1.419 . S
C416 C414 1.415 . S
C416 C421 1.425 . S
C416 C423 1.409 1_545 S
C417 H409 0.930 . S
C417 C415 1.419 . S
C417 C418 1.362 . S
C418 H410 0.930 . S
C418 C417 1.362 . S
C418 C421 1.409 . S
C419 H411 0.930 . S
C419 C420 1.355 . S
C419 C421 1.415 . S
C420 C419 1.355 . S
C420 C422 1.419 1_545 S
C421 C416 1.425 . S
C421 C418 1.409 . S
C421 C419 1.415 . S
C422 H412 0.930 . S
C422 C420 1.419 1_565 S
C422 C423 1.362 . S
C423 H413 0.930 . S
C423 C416 1.409 1_565 S
C423 C422 1.362 . S
H424 C430 0.930 . S
H425 C433 0.930 . S
H426 C434 0.930 . S
H427 C435 0.930 . S
H428 C438 0.930 . S
H429 C439 0.930 . S
C430 H424 0.930 . S
C430 C431 1.355 . S
C430 C432 1.415 . S
C431 C430 1.355 . S
C431 C433 1.419 . S
C432 C430 1.415 . S
C432 C437 1.425 . S
C432 C439 1.409 . S
C433 H425 0.930 . S
C433 C431 1.419 . S
C433 C434 1.362 . S
C434 H426 0.930 . S
C434 C433 1.362 . S
C434 C437 1.409 . S
C435 H427 0.930 . S
C435 C436 1.355 . S
C435 C437 1.415 . S
C436 C435 1.355 . S
C436 C438 1.419 . S
C437 C432 1.425 . S
C437 C434 1.409 . S
C437 C435 1.415 . S
C438 H428 0.930 . S
C438 C436 1.419 . S
C438 C439 1.362 . S
C439 H429 0.930 . S
C439 C432 1.409 . S
C439 C438 1.362 . S
H440 C446 0.930 . S
H441 C449 0.930 . S
H442 C450 0.930 . S
H443 C451 0.930 . S
H444 C454 0.930 . S
H445 C455 0.930 . S
C446 H440 0.930 . S
C446 C447 1.355 . S
C446 C448 1.415 . S
C447 C446 1.355 . S
C447 C449 1.419 . S
C448 C446 1.415 . S
C448 C453 1.425 . S
C448 C455 1.409 . S
C449 H441 0.930 . S
C449 C447 1.419 . S
C449 C450 1.362 . S
C450 H442 0.930 . S
C450 C449 1.362 . S
C450 C453 1.409 . S
C451 H443 0.930 . S
C451 C452 1.355 . S
C451 C453 1.415 . S
C452 C451 1.355 . S
C452 C454 1.419 . S
C453 C448 1.425 . S
C453 C450 1.409 . S
C453 C451 1.415 . S
C454 H444 0.930 . S
C454 C452 1.419 . S
C454 C455 1.362 . S
C455 H445 0.930 . S
C455 C448 1.409 . S
C455 C454 1.362 . S
H456 C462 0.930 . S
H457 C465 0.931 1_655 S
H458 C466 0.930 . S
H459 C467 0.930 1_655 S
H460 C470 0.930 . S
H461 C471 0.930 . S
C462 H456 0.930 . S
C462 C463 1.355 . S
C462 C464 1.415 . S
C463 C462 1.355 . S
C463 C465 1.417 . S
C464 C462 1.415 . S
C464 C469 1.425 . S
C464 C471 1.409 . S
C465 H457 0.931 1_455 S
C465 C463 1.417 . S
C465 C466 1.363 1_455 S
C466 H458 0.930 . S
C466 C465 1.363 1_655 S
C466 C469 1.409 1_655 S
C467 H459 0.930 1_455 S
C467 C468 1.355 . S
C467 C469 1.415 . S
C468 C467 1.355 . S
C468 C470 1.419 . S
C469 C464 1.425 . S
C469 C466 1.409 1_455 S
C469 C467 1.415 . S
C470 H460 0.930 . S
C470 C468 1.419 . S
C470 C471 1.362 . S
C471 H461 0.930 . S
C471 C464 1.409 . S
C471 C470 1.362 . S
H472 C478 0.930 . S
H473 C481 0.930 . S
H474 C482 0.930 . S
H475 C483 0.930 . S
H476 C486 0.930 . S
H477 C487 0.930 . S
C478 H472 0.930 . S
C478 C479 1.355 . S
C478 C480 1.415 . S
C479 C478 1.355 . S
C479 C481 1.419 1_565 S
C480 C478 1.415 . S
C480 C485 1.425 1_565 S
C480 C487 1.409 . S
C481 H473 0.930 . S
C481 C479 1.419 1_545 S
C481 C482 1.362 . S
C482 H474 0.930 . S
C482 C481 1.362 . S
C482 C485 1.409 . S
C483 H475 0.930 . S
C483 C484 1.355 1_545 S
C483 C485 1.415 1_556 S
C484 C483 1.355 1_565 S
C484 C486 1.419 . S
C485 C480 1.425 1_545 S
C485 C482 1.409 . S
C485 C483 1.415 1_554 S
C486 H476 0.930 . S
C486 C484 1.419 . S
C486 C487 1.362 1_556 S
C487 H477 0.930 . S
C487 C480 1.409 . S
C487 C486 1.362 1_554 S
H488 C494 0.930 . S
H489 C497 0.930 . S
H490 C498 0.930 . S
H491 C499 0.930 . S
H492 C502 0.930 . S
H493 C503 0.930 . S
C494 H488 0.930 . S
C494 C495 1.355 . S
C494 C496 1.415 . S
C495 C494 1.355 . S
C495 C497 1.419 . S
C496 C494 1.415 . S
C496 C501 1.425 . S
C496 C503 1.409 . S
C497 H489 0.930 . S
C497 C495 1.419 . S
C497 C498 1.362 . S
C498 H490 0.930 . S
C498 C497 1.362 . S
C498 C501 1.409 . S
C499 H491 0.930 . S
C499 C500 1.355 . S
C499 C501 1.415 1_556 S
C500 C499 1.355 . S
C500 C502 1.419 . S
C501 C496 1.425 . S
C501 C498 1.409 . S
C501 C499 1.415 1_554 S
C502 H492 0.930 . S
C502 C500 1.419 . S
C502 C503 1.362 1_556 S
C503 H493 0.930 . S
C503 C496 1.409 . S
C503 C502 1.362 1_554 S
H504 C510 0.930 . S
H505 C513 0.930 . S
H506 C514 0.930 . S
H507 C515 0.930 . S
H508 C518 0.930 . S
H509 C519 0.930 1_554 S
C510 H504 0.930 . S
C510 C511 1.355 . S
C510 C512 1.415 . S
C511 C510 1.355 . S
C511 C513 1.419 . S
C512 C510 1.415 . S
C512 C517 1.425 . S
C512 C519 1.408 1_554 S
C513 H505 0.930 . S
C513 C511 1.419 . S
C513 C514 1.362 . S
C514 H506 0.930 . S
C514 C513 1.362 . S
C514 C517 1.409 . S
C515 H507 0.930 . S
C515 C516 1.355 . S
C515 C517 1.415 1_556 S
C516 C515 1.355 . S
C516 C518 1.419 . S
C517 C512 1.425 . S
C517 C514 1.409 . S
C517 C515 1.415 1_554 S
C518 H508 0.930 . S
C518 C516 1.419 . S
C518 C519 1.364 . S
C519 H509 0.930 1_556 S
C519 C512 1.408 1_556 S
C519 C518 1.364 . S
H520 C526 0.930 1_455 S
H521 C529 0.930 . S
H522 C530 0.930 . S
H523 C531 0.930 . S
H524 C534 0.930 . S
H525 C535 0.930 . S
C526 H520 0.930 1_655 S
C526 C527 1.355 . S
C526 C528 1.415 . S
C527 C526 1.355 . S
C527 C529 1.419 . S
C528 C526 1.415 . S
C528 C533 1.425 . S
C528 C535 1.409 1_654 S
C529 H521 0.930 . S
C529 C527 1.419 . S
C529 C530 1.362 . S
C530 H522 0.930 . S
C530 C529 1.362 . S
C530 C533 1.409 . S
C531 H523 0.930 . S
C531 C532 1.355 . S
C531 C533 1.415 1_556 S
C532 C531 1.355 . S
C532 C534 1.419 1_655 S
C533 C528 1.425 . S
C533 C530 1.409 . S
C533 C531 1.415 1_554 S
C534 H524 0.930 . S
C534 C532 1.419 1_455 S
C534 C535 1.362 . S
C535 H525 0.930 . S
C535 C528 1.409 1_456 S
C535 C534 1.362 . S
H536 C542 0.930 . S
H537 C545 0.930 . S
H538 C546 0.920 1_655 S
H539 C547 0.930 . S
H540 C550 0.930 . S
H541 C551 0.930 . S
C542 H536 0.930 . S
C542 C543 1.355 . S
C542 C544 1.415 . S
C543 C542 1.355 . S
C543 C545 1.419 . S
C544 C542 1.415 . S
C544 C549 1.425 . S
C544 C551 1.409 . S
C545 H537 0.930 . S
C545 C543 1.419 . S
C545 C546 1.362 . S
C546 H538 0.920 1_455 S
C546 C545 1.362 . S
C546 C549 1.409 . S
C547 H539 0.930 . S
C547 C548 1.355 . S
C547 C549 1.415 1_655 S
C548 C547 1.355 . S
C548 C550 1.419 . S
C549 C544 1.425 . S
C549 C546 1.409 . S
C549 C547 1.415 1_455 S
C550 H540 0.930 . S
C550 C548 1.419 . S
C550 C551 1.362 1_655 S
C551 H541 0.930 . S
C551 C544 1.409 . S
C551 C550 1.362 1_455 S
H552 C558 0.930 1_565 S
H553 C561 0.930 . S
H554 C562 0.930 . S
H555 C563 0.930 . S
H556 C566 0.930 . S
H557 C567 0.930 . S
C558 H552 0.930 1_545 S
C558 C559 1.355 . S
C558 C560 1.407 1_545 S
C559 C558 1.355 . S
C559 C561 1.419 . S
C560 C558 1.407 1_565 S
C560 C565 1.405 1_565 S
C560 C567 1.436 . S
C561 H553 0.930 . S
C561 C559 1.419 . S
C561 C562 1.362 . S
C562 H554 0.930 . S
C562 C561 1.362 . S
C562 C565 1.409 . S
C563 H555 0.930 . S
C563 C564 1.355 1_545 S
C563 C565 1.415 . S
C564 C563 1.355 1_565 S
C564 C566 1.419 . S
C565 C560 1.405 1_545 S
C565 C562 1.409 . S
C565 C563 1.415 . S
C566 H556 0.930 . S
C566 C564 1.419 . S
C566 C567 1.362 . S
C567 H557 0.930 . S
C567 C560 1.436 . S
C567 C566 1.362 . S
H568 C574 0.930 . S
H569 C577 0.930 . S
H570 C578 0.930 . S
H571 C579 0.930 . S
H572 C582 0.930 . S
H573 C583 0.930 . S
C574 H568 0.930 . S
C574 C575 1.355 . S
C574 C576 1.415 . S
C575 C574 1.355 . S
C575 C577 1.419 . S
C576 C574 1.415 . S
C576 C581 1.425 . S
C576 C583 1.409 . S
C577 H569 0.930 . S
C577 C575 1.419 . S
C577 C578 1.362 . S
C578 H570 0.930 . S
C578 C577 1.362 . S
C578 C581 1.409 . S
C579 H571 0.930 . S
C579 C580 1.355 . S
C579 C581 1.415 . S
C580 C579 1.355 . S
C580 C582 1.419 . S
C581 C576 1.425 . S
C581 C578 1.409 . S
C581 C579 1.415 . S
C582 H572 0.930 . S
C582 C580 1.419 . S
C582 C583 1.362 . S
C583 H573 0.930 . S
C583 C576 1.409 . S
C583 C582 1.362 . S
H584 C590 0.930 . S
H585 C593 0.930 . S
H586 C594 0.930 . S
H587 C595 0.930 . S
H588 C598 0.930 . S
H589 C599 0.930 . S
C590 H584 0.930 . S
C590 C591 1.355 . S
C590 C592 1.415 . S
C591 C590 1.355 . S
C591 C593 1.419 . S
C592 C590 1.415 . S
C592 C597 1.425 . S
C592 C599 1.409 . S
C593 H585 0.930 . S
C593 C591 1.419 . S
C593 C594 1.362 . S
C594 H586 0.930 . S
C594 C593 1.362 . S
C594 C597 1.409 . S
C595 H587 0.930 . S
C595 C596 1.355 . S
C595 C597 1.415 . S
C596 C595 1.355 . S
C596 C598 1.419 . S
C597 C592 1.425 . S
C597 C594 1.409 . S
C597 C595 1.415 . S
C598 H588 0.930 . S
C598 C596 1.419 . S
C598 C599 1.362 . S
C599 H589 0.930 . S
C599 C592 1.409 . S
C599 C598 1.362 . S
H600 C606 0.930 . S
H601 C609 0.930 . S
H602 C610 0.930 . S
H603 C611 0.930 . S
H604 C614 0.930 . S
H605 C615 0.930 1_556 S
C606 H600 0.930 . S
C606 C607 1.355 . S
C606 C608 1.415 . S
C607 C606 1.355 . S
C607 C609 1.419 . S
C608 C606 1.415 . S
C608 C613 1.425 1_655 S
C608 C615 1.409 . S
C609 H601 0.930 . S
C609 C607 1.419 . S
C609 C610 1.362 1_655 S
C610 H602 0.930 . S
C610 C609 1.362 1_455 S
C610 C613 1.409 . S
C611 H603 0.930 . S
C611 C612 1.355 . S
C611 C613 1.415 . S
C612 C611 1.355 . S
C612 C614 1.419 1_554 S
C613 C608 1.425 1_455 S
C613 C610 1.409 . S
C613 C611 1.415 . S
C614 H604 0.930 . S
C614 C612 1.419 1_556 S
C614 C615 1.362 1_456 S
C615 H605 0.930 1_554 S
C615 C608 1.409 . S
C615 C614 1.362 1_654 S
H616 C622 0.930 . S
H617 C625 0.930 . S
H618 C626 0.930 . S
H619 C627 0.930 . S
H620 C630 0.930 . S
H621 C631 0.930 . S
C622 H616 0.930 . S
C622 C623 1.355 . S
C622 C624 1.415 . S
C623 C622 1.355 . S
C623 C625 1.419 1_565 S
C624 C622 1.415 . S
C624 C629 1.425 1_565 S
C624 C631 1.409 . S
C625 H617 0.930 . S
C625 C623 1.419 1_545 S
C625 C626 1.362 . S
C626 H618 0.930 . S
C626 C625 1.362 . S
C626 C629 1.409 . S
C627 H619 0.930 . S
C627 C628 1.355 . S
C627 C629 1.415 . S
C628 C627 1.355 . S
C628 C630 1.419 1_545 S
C629 C624 1.425 1_545 S
C629 C626 1.409 . S
C629 C627 1.415 . S
C630 H620 0.930 . S
C630 C628 1.419 1_565 S
C630 C631 1.362 . S
C631 H621 0.930 . S
C631 C624 1.409 . S
C631 C630 1.362 . S
H632 C638 0.930 . S
H633 C641 0.930 . S
H634 C642 0.930 . S
H635 C643 0.930 1_556 S
H636 C646 0.930 . S
H637 C647 0.930 . S
C638 H632 0.930 . S
C638 C639 1.355 . S
C638 C640 1.415 . S
C639 C638 1.355 . S
C639 C641 1.419 . S
C640 C638 1.415 . S
C640 C645 1.425 . S
C640 C647 1.409 . S
C641 H633 0.930 . S
C641 C639 1.419 . S
C641 C642 1.362 . S
C642 H634 0.930 . S
C642 C641 1.362 . S
C642 C645 1.409 . S
C643 H635 0.930 1_554 S
C643 C644 1.355 . S
C643 C645 1.415 . S
C644 C643 1.355 . S
C644 C646 1.419 . S
C645 C640 1.425 . S
C645 C642 1.409 . S
C645 C643 1.415 . S
C646 H636 0.930 . S
C646 C644 1.419 . S
C646 C647 1.362 . S
C647 H637 0.930 . S
C647 C640 1.409 . S
C647 C646 1.362 . S
H648 C654 0.930 . S
H649 C657 0.930 . S
H650 C658 0.930 . S
H651 C659 0.930 1_556 S
H652 C662 0.930 . S
H653 C663 0.930 . S
C654 H648 0.930 . S
C654 C655 1.355 . S
C654 C656 1.415 . S
C655 C654 1.355 . S
C655 C657 1.419 . S
C656 C654 1.415 . S
C656 C661 1.425 . S
C656 C663 1.409 . S
C657 H649 0.930 . S
C657 C655 1.419 . S
C657 C658 1.362 . S
C658 H650 0.930 . S
C658 C657 1.362 . S
C658 C661 1.409 . S
C659 H651 0.930 1_554 S
C659 C660 1.355 . S
C659 C661 1.415 . S
C660 C659 1.355 . S
C660 C662 1.419 . S
C661 C656 1.425 . S
C661 C658 1.409 . S
C661 C659 1.415 . S
C662 H652 0.930 . S
C662 C660 1.419 . S
C662 C663 1.362 . S
C663 H653 0.930 . S
C663 C656 1.409 . S
C663 C662 1.362 . S
H664 C670 0.930 1_655 S
H665 C673 0.930 . S
H666 C674 0.930 . S
H667 C675 0.930 . S
H668 C678 0.930 . S
H669 C679 0.930 . S
C670 H664 0.930 1_455 S
C670 C671 1.355 . S
C670 C672 1.415 . S
C671 C670 1.355 . S
C671 C673 1.419 . S
C672 C670 1.415 . S
C672 C677 1.425 . S
C672 C679 1.409 1_455 S
C673 H665 0.930 . S
C673 C671 1.419 . S
C673 C674 1.362 . S
C674 H666 0.930 . S
C674 C673 1.362 . S
C674 C677 1.409 . S
C675 H667 0.930 . S
C675 C676 1.355 . S
C675 C677 1.415 . S
C676 C675 1.355 . S
C676 C678 1.419 1_455 S
C677 C672 1.425 . S
C677 C674 1.409 . S
C677 C675 1.415 . S
C678 H668 0.930 . S
C678 C676 1.419 1_655 S
C678 C679 1.362 . S
C679 H669 0.930 . S
C679 C672 1.409 1_655 S
C679 C678 1.362 . S
H680 C686 0.930 . S
H681 C689 0.930 . S
H682 C690 0.930 . S
H683 C691 0.930 . S
H684 C694 0.930 . S
H685 C695 0.930 . S
C686 H680 0.930 . S
C686 C687 1.355 . S
C686 C688 1.415 . S
C687 C686 1.355 . S
C687 C689 1.419 . S
C688 C686 1.415 . S
C688 C693 1.425 . S
C688 C695 1.409 . S
C689 H681 0.930 . S
C689 C687 1.419 . S
C689 C690 1.362 . S
C690 H682 0.930 . S
C690 C689 1.362 . S
C690 C693 1.409 . S
C691 H683 0.930 . S
C691 C692 1.355 . S
C691 C693 1.415 . S
C692 C691 1.355 . S
C692 C694 1.419 . S
C693 C688 1.425 . S
C693 C690 1.409 . S
C693 C691 1.415 . S
C694 H684 0.930 . S
C694 C692 1.419 . S
C694 C695 1.362 . S
C695 H685 0.930 . S
C695 C688 1.409 . S
C695 C694 1.362 . S
H696 C702 0.930 . S
H697 C705 0.930 . S
H698 C706 0.930 . S
H699 C707 0.930 . S
H700 C710 0.930 . S
H701 C711 0.930 . S
C702 H696 0.930 . S
C702 C703 1.355 . S
C702 C704 1.415 . S
C703 C702 1.355 . S
C703 C705 1.419 . S
C704 C702 1.415 . S
C704 C709 1.425 . S
C704 C711 1.409 . S
C705 H697 0.930 . S
C705 C703 1.419 . S
C705 C706 1.362 . S
C706 H698 0.930 . S
C706 C705 1.362 . S
C706 C709 1.409 . S
C707 H699 0.930 . S
C707 C708 1.355 . S
C707 C709 1.415 . S
C708 C707 1.355 . S
C708 C710 1.419 . S
C709 C704 1.425 . S
C709 C706 1.409 . S
C709 C707 1.415 . S
C710 H700 0.930 . S
C710 C708 1.419 . S
C710 C711 1.362 . S
C711 H701 0.930 . S
C711 C704 1.409 . S
C711 C710 1.362 . S
H712 C718 0.930 . S
H713 C721 0.930 . S
H714 C722 0.930 . S
H715 C723 0.930 . S
H716 C726 0.930 . S
H717 C727 0.930 . S
C718 H712 0.930 . S
C718 C719 1.355 . S
C718 C720 1.415 . S
C719 C718 1.355 . S
C719 C721 1.419 . S
C720 C718 1.415 . S
C720 C725 1.425 . S
C720 C727 1.409 . S
C721 H713 0.930 . S
C721 C719 1.419 . S
C721 C722 1.362 . S
C722 H714 0.930 . S
C722 C721 1.362 . S
C722 C725 1.409 . S
C723 H715 0.930 . S
C723 C724 1.355 . S
C723 C725 1.415 . S
C724 C723 1.355 . S
C724 C726 1.419 . S
C725 C720 1.425 . S
C725 C722 1.409 . S
C725 C723 1.415 . S
C726 H716 0.930 . S
C726 C724 1.419 . S
C726 C727 1.362 . S
C727 H717 0.930 . S
C727 C720 1.409 . S
C727 C726 1.362 . S
H728 C734 0.930 1_455 S
H729 C737 0.930 . S
H730 C738 0.930 . S
H731 C739 0.930 . S
H732 C742 0.930 . S
H733 C743 0.930 . S
C734 H728 0.930 1_655 S
C734 C735 1.355 . S
C734 C736 1.415 . S
C735 C734 1.355 . S
C735 C737 1.419 . S
C736 C734 1.415 . S
C736 C741 1.425 . S
C736 C743 1.409 1_655 S
C737 H729 0.930 . S
C737 C735 1.419 . S
C737 C738 1.362 . S
C738 H730 0.930 . S
C738 C737 1.362 . S
C738 C741 1.409 . S
C739 H731 0.930 . S
C739 C740 1.355 . S
C739 C741 1.415 . S
C740 C739 1.355 . S
C740 C742 1.419 1_655 S
C741 C736 1.425 . S
C741 C738 1.409 . S
C741 C739 1.415 . S
C742 H732 0.930 . S
C742 C740 1.419 1_455 S
C742 C743 1.362 . S
C743 H733 0.930 . S
C743 C736 1.409 1_455 S
C743 C742 1.362 . S
H744 C750 0.930 . S
H745 C753 0.930 . S
H746 C754 0.925 1_545 S
H747 C755 0.930 . S
H748 C758 0.930 . S
H749 C759 0.930 . S
C750 H744 0.930 . S
C750 C751 1.355 . S
C750 C752 1.415 . S
C751 C750 1.355 . S
C751 C753 1.419 . S
C752 C750 1.415 . S
C752 C757 1.425 . S
C752 C759 1.409 . S
C753 H745 0.930 . S
C753 C751 1.419 . S
C753 C754 1.362 . S
C754 H746 0.925 1_565 S
C754 C753 1.362 . S
C754 C757 1.409 . S
C755 H747 0.930 . S
C755 C756 1.355 . S
C755 C757 1.415 . S
C756 C755 1.355 . S
C756 C758 1.419 . S
C757 C752 1.425 . S
C757 C754 1.409 . S
C757 C755 1.415 . S
C758 H748 0.930 . S
C758 C756 1.419 . S
C758 C759 1.362 . S
C759 H749 0.930 . S
C759 C752 1.409 . S
C759 C758 1.362 . S
H760 C766 0.930 . S
H761 C769 0.930 . S
H762 C770 0.930 . S
H763 C771 0.930 . S
H764 C774 0.930 . S
H765 C775 0.930 . S
C766 H760 0.930 . S
C766 C767 1.355 . S
C766 C768 1.415 . S
C767 C766 1.355 . S
C767 C769 1.419 . S
C768 C766 1.415 . S
C768 C773 1.425 . S
C768 C775 1.409 . S
C769 H761 0.930 . S
C769 C767 1.419 . S
C769 C770 1.362 . S
C770 H762 0.930 . S
C770 C769 1.362 . S
C770 C773 1.409 . S
C771 H763 0.930 . S
C771 C772 1.355 . S
C771 C773 1.415 . S
C772 C771 1.355 . S
C772 C774 1.419 . S
C773 C768 1.425 . S
C773 C770 1.409 . S
C773 C771 1.415 . S
C774 H764 0.930 . S
C774 C772 1.419 . S
C774 C775 1.362 . S
C775 H765 0.930 . S
C775 C768 1.409 . S
C775 C774 1.362 . S
H776 C782 0.930 . S
H777 C785 0.930 . S
H778 C786 0.930 . S
H779 C787 0.930 . S
H780 C790 0.930 . S
H781 C791 0.930 . S
C782 H776 0.930 . S
C782 C783 1.355 . S
C782 C784 1.415 . S
C783 C782 1.355 . S
C783 C785 1.419 . S
C784 C782 1.415 . S
C784 C789 1.425 . S
C784 C791 1.409 . S
C785 H777 0.930 . S
C785 C783 1.419 . S
C785 C786 1.362 . S
C786 H778 0.930 . S
C786 C785 1.362 . S
C786 C789 1.409 . S
C787 H779 0.930 . S
C787 C788 1.355 . S
C787 C789 1.415 . S
C788 C787 1.355 . S
C788 C790 1.419 . S
C789 C784 1.425 . S
C789 C786 1.409 . S
C789 C787 1.415 . S
C790 H780 0.930 . S
C790 C788 1.419 . S
C790 C791 1.362 . S
C791 H781 0.930 . S
C791 C784 1.409 . S
C791 C790 1.362 . S
C415 C61 1.894 . S
C420 C135 2.045 . S
C436 C212 2.073 . S
C431 C70 1.911 . S
C452 C303 2.045 . S
C447 C43 1.868 . S
C468 C387 2.071 . S
C463 C52 1.912 . S
C484 C146 2.080 1_565 S
C479 C25 1.911 . S
C495 C34 1.917 . S
C500 C223 2.076 . S
C511 C7 1.932 . S
C516 C314 2.082 . S
C527 C16 1.924 . S
C532 C398 2.045 1_655 S
C548 C130 0.668 . S
C543 C50 0.586 . S
C564 C225 0.585 . S
C559 C59 0.660 . S
C580 C298 0.540 . S
C575 C67 0.663 . S
C591 C41 0.522 . S
C596 C382 0.613 . S
C607 C14 0.541 . S
C612 C141 0.611 . S
C628 C214 0.575 . S
C623 C23 0.528 . S
C644 C309 0.562 . S
C639 C31 0.679 . S
C655 C5 0.656 . S
C660 C393 0.553 . S
C671 C49 1.958 . S
C676 C139 2.189 . S
C687 C58 2.000 . S
C692 C230 2.188 . S
C708 C307 2.202 . S
C703 C68 1.943 . S
C724 C391 2.222 . S
C719 C40 2.018 . S
C735 C13 2.002 . S
C740 C128 2.204 . S
C756 C219 2.193 . S
C751 C22 1.994 . S
C772 C296 2.209 . S
C767 C32 1.991 . S
C783 C4 1.997 . S
C788 C380 2.220 . S
