# Generated by pormake.
# Topology pto, (3,4)-cn, num edge types: 1
# Building blocks:
#     Node 0, Type 0, BuildingBlock: OLANEW_clean_sbu_2, # of connection points: 3
#     Node 1, Type 0, BuildingBlock: OLANEW_clean_sbu_2, # of connection points: 3
#     Node 2, Type 0, BuildingBlock: OLANEW_clean_sbu_2, # of connection points: 3
#     Node 3, Type 0, BuildingBlock: OLANEW_clean_sbu_2, # of connection points: 3
#     Node 4, Type 0, BuildingBlock: OLANEW_clean_sbu_2, # of connection points: 3
#     Node 5, Type 0, BuildingBlock: OLANEW_clean_sbu_2, # of connection points: 3
#     Node 6, Type 0, BuildingBlock: OLANEW_clean_sbu_2, # of connection points: 3
#     Node 7, Type 0, BuildingBlock: OLANEW_clean_sbu_2, # of connection points: 3
#     Node 8, Type 1, BuildingBlock: MIFKUJ_clean_linker_1, # of connection points: 4
#     Node 9, Type 1, BuildingBlock: MIFKUJ_clean_linker_1, # of connection points: 4
#     Node 10, Type 1, BuildingBlock: MIFKUJ_clean_linker_1, # of connection points: 4
#     Node 11, Type 1, BuildingBlock: MIFKUJ_clean_linker_1, # of connection points: 4
#     Node 12, Type 1, BuildingBlock: MIFKUJ_clean_linker_1, # of connection points: 4
#     Node 13, Type 1, BuildingBlock: MIFKUJ_clean_linker_1, # of connection points: 4
#     Edge 14, Type (0, 1), None
#     Edge 15, Type (0, 1), None
#     Edge 16, Type (0, 1), None
#     Edge 17, Type (0, 1), None
#     Edge 18, Type (0, 1), None
#     Edge 19, Type (0, 1), None
#     Edge 20, Type (0, 1), None
#     Edge 21, Type (0, 1), None
#     Edge 22, Type (0, 1), None
#     Edge 23, Type (0, 1), None
#     Edge 24, Type (0, 1), None
#     Edge 25, Type (0, 1), None
#     Edge 26, Type (0, 1), None
#     Edge 27, Type (0, 1), None
#     Edge 28, Type (0, 1), None
#     Edge 29, Type (0, 1), None
#     Edge 30, Type (0, 1), None
#     Edge 31, Type (0, 1), None
#     Edge 32, Type (0, 1), None
#     Edge 33, Type (0, 1), None
#     Edge 34, Type (0, 1), None
#     Edge 35, Type (0, 1), None
#     Edge 36, Type (0, 1), None
#     Edge 37, Type (0, 1), None
# Relax obj value: 0.011
# Max RMSD: 0.113
# Mean RMSD: 0.050
data_MOF--net-pto--node1-OLANEW_clean_sbu_2--node2-MIFKUJ_clean_linker_1--edge1-none
_symmetry_space_group_name_H-M    P1
_symmetry_Int_Tables_number       1
_symmetry_cell_setting            triclinic
loop_
_symmetry_equiv_pos_as_xyz
'x, y, z'
_cell_length_a     22.088965
_cell_length_b     34.953662
_cell_length_c     29.05744
_cell_angle_alpha  92.510213
_cell_angle_beta   89.925443
_cell_angle_gamma 107.07462
loop_
_atom_site_label
_atom_site_type_symbol
_atom_site_fract_x
_atom_site_fract_y
_atom_site_fract_z
_atom_type_partial_charge
O0 O 0.33076 0.31448 0.22844 0.0
Cd1 Cd 0.30036 0.32394 0.30783 0.0
O2 O 0.32099 0.37224 0.20803 0.0
Cd3 Cd 0.28029 0.38655 0.27264 0.0
O4 O 0.22257 0.41674 0.31251 0.0
C5 C 0.16972 0.41538 0.29421 0.0
O6 O 0.15281 0.39447 0.2552 0.0
C7 C 0.33578 0.34037 0.19819 0.0
C8 C 0.30552 0.25922 0.35862 0.0
O9 O 0.25301 0.26091 0.34142 0.0
O10 O 0.35543 0.2883 0.35217 0.0
O11 O 0.36249 0.88137 0.77069 0.0
Cd12 Cd 0.29661 0.8698 0.70032 0.0
O13 O 0.41154 0.83915 0.74263 0.0
Cd14 Cd 0.35789 0.82418 0.67816 0.0
O15 O 0.28331 0.77378 0.64835 0.0
C16 C 0.26627 0.74609 0.67672 0.0
O17 O 0.29393 0.75171 0.71752 0.0
C18 C 0.40314 0.86242 0.77532 0.0
C19 C 0.307 0.93406 0.64407 0.0
O20 O 0.26457 0.92527 0.67521 0.0
O21 O 0.34604 0.91326 0.64048 0.0
O22 O 0.82122 0.82865 0.33196 0.0
Cd23 Cd 0.79188 0.76416 0.28809 0.0
O24 O 0.72189 0.82049 0.35099 0.0
Cd25 Cd 0.68437 0.77545 0.296 0.0
O26 O 0.64695 0.77747 0.227 0.0
C27 C 0.67775 0.80719 0.2044 0.0
O28 O 0.72995 0.83169 0.2227 0.0
C29 C 0.78016 0.84022 0.35488 0.0
C30 C 0.85966 0.71177 0.31293 0.0
O31 O 0.81059 0.71374 0.33536 0.0
O32 O 0.87721 0.73496 0.27934 0.0
O33 O 0.82666 0.3311 0.62471 0.0
Cd34 Cd 0.76338 0.26472 0.64671 0.0
O35 O 0.75405 0.35907 0.64817 0.0
Cd36 Cd 0.68473 0.30621 0.67359 0.0
O37 O 0.62196 0.29278 0.73264 0.0
C38 C 0.64045 0.31864 0.76571 0.0
O39 O 0.69308 0.34784 0.76089 0.0
C40 C 0.808 0.36205 0.63076 0.0
C41 C 0.79281 0.20282 0.59645 0.0
O42 O 0.74787 0.21643 0.58364 0.0
O43 O 0.82435 0.21872 0.63296 0.0
O44 O 0.85343 0.83559 0.60264 0.0
Cd45 Cd 0.82978 0.77476 0.64721 0.0
O46 O 0.78692 0.85646 0.64639 0.0
Cd47 Cd 0.76748 0.81214 0.69902 0.0
O48 O 0.72716 0.80894 0.76778 0.0
C49 C 0.71584 0.84118 0.7815 0.0
O50 O 0.72982 0.87153 0.75427 0.0
C51 C 0.82387 0.86116 0.61217 0.0
C52 C 0.90098 0.72107 0.63189 0.0
O53 O 0.85375 0.71987 0.60569 0.0
O54 O 0.91604 0.74858 0.66409 0.0
O55 O 0.84883 0.32883 0.33239 0.0
Cd56 Cd 0.81593 0.26187 0.29363 0.0
O57 O 0.78697 0.35016 0.28702 0.0
Cd58 Cd 0.73772 0.29521 0.24789 0.0
O59 O 0.6742 0.28326 0.18797 0.0
C60 C 0.65349 0.31262 0.17968 0.0
O61 O 0.67047 0.34473 0.2075 0.0
C62 C 0.82848 0.35704 0.319 0.0
C63 C 0.82556 0.19821 0.34542 0.0
O64 O 0.87475 0.22214 0.32791 0.0
O65 O 0.77208 0.2048 0.33944 0.0
O66 O 0.25039 0.32665 0.76469 0.0
Cd67 Cd 0.18924 0.32261 0.69299 0.0
O68 O 0.34293 0.35814 0.73603 0.0
Cd69 Cd 0.30539 0.34599 0.66596 0.0
O70 O 0.30153 0.30035 0.61158 0.0
C71 C 0.26481 0.26524 0.61657 0.0
O72 O 0.22655 0.25875 0.65191 0.0
C73 C 0.30958 0.34339 0.7702 0.0
C74 C 0.14715 0.38879 0.67556 0.0
O75 O 0.11518 0.36097 0.70087 0.0
O76 O 0.1997 0.38581 0.65941 0.0
O77 O 0.43251 0.87244 0.24552 0.0
Cd78 Cd 0.39502 0.86022 0.32462 0.0
O79 O 0.33843 0.84842 0.21276 0.0
Cd80 Cd 0.28853 0.8331 0.27742 0.0
O81 O 0.22564 0.78379 0.3137 0.0
C82 C 0.2209 0.7504 0.29265 0.0
O83 O 0.25357 0.75025 0.25483 0.0
C84 C 0.39795 0.86368 0.20933 0.0
C85 C 0.3746 0.92591 0.37312 0.0
O86 O 0.43037 0.92209 0.3694 0.0
O87 O 0.32852 0.89902 0.35331 0.0
H88 H 0.86714 0.49314 0.30436 0.0
H89 H 0.80638 0.42406 0.28775 0.0
H90 H 0.91668 0.38552 0.38896 0.0
H91 H 0.97586 0.45566 0.40731 0.0
H92 H 0.89645 0.5491 0.36264 0.0
H93 H 0.00824 0.47411 0.28169 0.0
H94 H 0.06309 0.42593 0.25668 0.0
H95 H 0.19067 0.46286 0.37381 0.0
H96 H 0.13402 0.51052 0.39941 0.0
H97 H 0.07261 0.67448 0.39307 0.0
H98 H 0.1438 0.73846 0.36866 0.0
H99 H 0.20199 0.67608 0.25298 0.0
H100 H 0.13089 0.61322 0.27682 0.0
H101 H 0.12791 0.57249 0.34788 0.0
H102 H 0.9039 0.61904 0.40791 0.0
H103 H 0.84965 0.66881 0.39076 0.0
H104 H 0.94583 0.68816 0.26046 0.0
H105 H -0.00245 0.63744 0.27682 0.0
C106 C 0.92704 0.47985 0.35659 0.0
C107 C 0.87704 0.47015 0.32431 0.0
C108 C 0.8425 0.43032 0.3145 0.0
C109 C 0.85753 0.39905 0.33631 0.0
C110 C 0.90443 0.40884 0.37112 0.0
C111 C 0.93839 0.44895 0.38154 0.0
C112 C 0.97163 0.52126 0.35919 0.0
C113 C 0.94721 0.55429 0.36024 0.0
C114 C 0.03778 0.52816 0.35433 0.0
C115 C 0.06632 0.49547 0.34287 0.0
C116 C 0.04676 0.47101 0.3028 0.0
C117 C 0.07856 0.44362 0.28835 0.0
C118 C 0.13151 0.44069 0.31312 0.0
C119 C 0.15007 0.46442 0.35395 0.0
C120 C 0.11778 0.49164 0.36864 0.0
C121 C 0.09653 0.63902 0.33686 0.0
C122 C 0.10083 0.67478 0.3625 0.0
C123 C 0.14156 0.71123 0.34858 0.0
C124 C 0.1786 0.71234 0.3089 0.0
C125 C 0.17437 0.6764 0.28374 0.0
C126 C 0.13386 0.64028 0.29751 0.0
C127 C 0.05263 0.59997 0.34956 0.0
C128 C 0.07738 0.56748 0.35214 0.0
C129 C 0.98642 0.59333 0.35332 0.0
C130 C 0.95602 0.62507 0.3442 0.0
C131 C 0.91343 0.63413 0.37575 0.0
C132 C 0.88251 0.6626 0.36591 0.0
C133 C 0.89384 0.68267 0.32439 0.0
C134 C 0.93666 0.67365 0.29299 0.0
C135 C 0.96669 0.6448 0.3025 0.0
H136 H 0.11588 0.66 0.57772 0.0
H137 H 0.19525 0.72446 0.5969 0.0
H138 H 0.22736 0.68107 0.72909 0.0
H139 H 0.1485 0.61747 0.70989 0.0
H140 H 0.14666 0.56296 0.64453 0.0
H141 H 0.94427 0.61246 0.55495 0.0
H142 H 0.89558 0.66709 0.5595 0.0
H143 H 0.98038 0.70394 0.69426 0.0
H144 H 0.02631 0.64849 0.69049 0.0
H145 H 0.87701 0.49875 0.66225 0.0
H146 H 0.79947 0.43341 0.66621 0.0
H147 H 0.91462 0.38172 0.57733 0.0
H148 H -0.00893 0.4482 0.57123 0.0
H149 H 0.92296 0.5501 0.60566 0.0
H150 H 0.00887 0.46609 0.69568 0.0
H151 H 0.0478 0.40987 0.71436 0.0
H152 H 0.19275 0.44482 0.6115 0.0
H153 H 0.15233 0.5002 0.59199 0.0
C154 C 0.12648 0.63397 0.64236 0.0
C155 C 0.14004 0.6646 0.61082 0.0
C156 C 0.1854 0.70131 0.6218 0.0
C157 C 0.21764 0.70783 0.66449 0.0
C158 C 0.20353 0.67709 0.6959 0.0
C159 C 0.15862 0.64057 0.6849 0.0
C160 C 0.07891 0.59479 0.63173 0.0
C161 C 0.09779 0.56004 0.63551 0.0
C162 C 0.01498 0.5913 0.62102 0.0
C163 C -0.00998 0.6266 0.62199 0.0
C164 C 0.95272 0.63247 0.58535 0.0
C165 C 0.92502 0.66378 0.58794 0.0
C166 C 0.93444 0.69002 0.62713 0.0
C167 C 0.97285 0.68462 0.66332 0.0
C168 C -0.00042 0.65297 0.66105 0.0
C169 C 0.9406 0.47852 0.61701 0.0
C170 C 0.88504 0.4737 0.64251 0.0
C171 C 0.84067 0.43615 0.6449 0.0
C172 C 0.85123 0.40228 0.62246 0.0
C173 C 0.90551 0.40722 0.59534 0.0
C174 C 0.94936 0.44516 0.59206 0.0
C175 C -0.00967 0.51797 0.6193 0.0
C176 C 0.97208 0.55288 0.61359 0.0
C177 C 0.05427 0.52173 0.63082 0.0
C178 C 0.07681 0.48695 0.64173 0.0
C179 C 0.04838 0.46128 0.67664 0.0
C180 C 0.07101 0.4293 0.68753 0.0
C181 C 0.12342 0.42287 0.66443 0.0
C182 C 0.15242 0.44899 0.63004 0.0
C183 C 0.12928 0.48063 0.61878 0.0
H184 H 0.21955 0.02431 0.57752 0.0
H185 H 0.21682 0.97162 0.63052 0.0
H186 H 0.40245 0.9696 0.58564 0.0
H187 H 0.40613 0.02359 0.53396 0.0
H188 H 0.291 0.09656 0.57743 0.0
H189 H 0.24632 0.98829 0.4553 0.0
H190 H 0.26409 0.93111 0.4113 0.0
H191 H 0.46066 -0.00187 0.39529 0.0
H192 H 0.44201 0.05551 0.43817 0.0
H193 H 0.41443 0.17878 0.42289 0.0
H194 H 0.40966 0.23536 0.37747 0.0
H195 H 0.20794 0.20528 0.3998 0.0
H196 H 0.21343 0.14942 0.44599 0.0
H197 H 0.34397 0.09365 0.41162 0.0
H198 H 0.37781 0.20622 0.51609 0.0
H199 H 0.36038 0.26428 0.55721 0.0
H200 H 0.1851 0.18883 0.61043 0.0
H201 H 0.20162 0.13096 0.56761 0.0
C202 C 0.31266 0.02769 0.55112 0.0
C203 C 0.25981 0.01264 0.57909 0.0
C204 C 0.25833 0.98253 0.60949 0.0
C205 C 0.30948 0.96649 0.61235 0.0
C206 C 0.36219 0.98124 0.58409 0.0
C207 C 0.36402 0.01183 0.5541 0.0
C208 C 0.3151 0.0616 0.52123 0.0
C209 C 0.30148 0.09551 0.54099 0.0
C210 C 0.33135 0.06121 0.47408 0.0
C211 C 0.34298 0.02589 0.45012 0.0
C212 C 0.29322 0.9905 0.44242 0.0
C213 C 0.30337 0.95802 0.4171 0.0
C214 C 0.36374 0.96024 0.39979 0.0
C215 C 0.4137 -0.00446 0.40828 0.0
C216 C 0.40317 0.02829 0.43273 0.0
C217 C 0.31434 0.16015 0.4378 0.0
C218 C 0.36923 0.18433 0.4177 0.0
C219 C 0.36645 0.21672 0.39207 0.0
C220 C 0.30844 0.22478 0.38529 0.0
C221 C 0.25327 0.19977 0.40442 0.0
C222 C 0.2563 0.1679 0.43077 0.0
C223 C 0.31779 0.12765 0.46767 0.0
C224 C 0.33305 0.09438 0.44801 0.0
C225 C 0.30278 0.12857 0.5149 0.0
C226 C 0.29067 0.16422 0.53827 0.0
C227 C 0.33475 0.2023 0.53555 0.0
C228 C 0.32483 0.23551 0.55927 0.0
C229 C 0.27131 0.23115 0.58706 0.0
C230 C 0.22681 0.19314 0.58931 0.0
C231 C 0.23633 0.16001 0.56504 0.0
H232 H 0.4768 0.91906 0.92087 0.0
H233 H 0.42451 0.91995 0.84636 0.0
H234 H 0.45341 0.80619 0.80608 0.0
H235 H 0.50169 0.80437 0.88056 0.0
H236 H 0.45227 0.87273 -0.00869 0.0
H237 H 0.62696 0.90986 0.8894 0.0
H238 H 0.68103 0.90494 0.81712 0.0
H239 H 0.68203 0.78507 0.84731 0.0
H240 H 0.62738 0.79021 0.91968 0.0
H241 H 0.52004 0.78882 0.09244 0.0
H242 H 0.56204 0.7709 0.16367 0.0
H243 H 0.73766 0.8642 0.14509 0.0
H244 H 0.69526 0.8819 0.07412 0.0
H245 H 0.65467 0.83811 -0.00489 0.0
H246 H 0.39722 0.82623 0.05403 0.0
H247 H 0.34429 0.82863 0.12743 0.0
H248 H 0.51884 0.9061 0.18707 0.0
H249 H 0.57086 0.90498 0.11295 0.0
C250 C 0.49457 0.86206 0.90606 0.0
C251 C 0.47152 0.89428 0.89598 0.0
C252 C 0.44207 0.89491 0.85334 0.0
C253 C 0.43602 0.86357 0.81998 0.0
C254 C 0.45862 0.83131 0.8305 0.0
C255 C 0.48646 0.83025 0.87321 0.0
C256 C 0.52715 0.86104 0.95064 0.0
C257 C 0.49675 0.86552 -0.00778 0.0
C258 C 0.58601 0.85249 0.95204 0.0
C259 C 0.6227 0.85031 0.90971 0.0
C260 C 0.63899 0.88258 0.8805 0.0
C261 C 0.66999 0.87969 0.83921 0.0
C262 C 0.68549 0.84448 0.82632 0.0
C263 C 0.67057 0.81253 0.85618 0.0
C264 C 0.63964 0.8155 0.89763 0.0
C265 C 0.60429 0.83703 0.07836 0.0
C266 C 0.56754 0.8054 0.10384 0.0
C267 C 0.59176 0.79503 0.14435 0.0
C268 C 0.65317 0.81616 0.16007 0.0
C269 C 0.69016 0.84736 0.13399 0.0
C270 C 0.66605 0.85754 0.09341 0.0
C271 C 0.57868 0.84829 0.03554 0.0
C272 C 0.6106 0.84587 -0.00567 0.0
C273 C 0.52213 0.85966 0.03485 0.0
C274 C 0.48845 0.8647 0.07808 0.0
C275 C 0.42381 0.84445 0.08256 0.0
C276 C 0.39359 0.84583 0.12466 0.0
C277 C 0.42756 0.86721 0.16329 0.0
C278 C 0.49149 0.88904 0.15814 0.0
C279 C 0.52138 0.88818 0.11582 0.0
H280 H 0.76349 0.97169 0.57198 0.0
H281 H 0.75485 0.91407 0.61805 0.0
H282 H 0.90863 0.88869 0.54271 0.0
H283 H 0.91827 0.94765 0.49721 0.0
H284 H 0.84565 0.03878 0.56062 0.0
H285 H 0.73541 0.93062 0.46128 0.0
H286 H 0.71064 0.8651 0.42081 0.0
H287 H 0.89016 0.90201 0.35112 0.0
H288 H 0.91439 0.96794 0.3918 0.0
H289 H 0.93237 0.13455 0.43963 0.0
H290 H 0.92608 0.19181 0.39581 0.0
H291 H 0.73559 0.12626 0.35232 0.0
H292 H 0.74321 0.06855 0.39455 0.0
H293 H 0.83698 0.02337 0.3899 0.0
H294 H 0.91532 0.11694 0.56438 0.0
H295 H 0.89461 0.17397 0.60674 0.0
H296 H 0.72177 0.15492 0.52777 0.0
H297 H 0.74147 0.09743 0.4871 0.0
C298 C 0.84143 0.96412 0.53101 0.0
C299 C 0.79604 0.95416 0.56569 0.0
C300 C 0.79093 0.92091 0.59187 0.0
C301 C 0.83093 0.89655 0.58396 0.0
C302 C 0.87686 0.90665 0.54947 0.0
C303 C 0.88232 0.94031 0.52343 0.0
C304 C 0.84379 -0.00149 0.50189 0.0
C305 C 0.845 0.03558 0.52331 0.0
C306 C 0.83973 -0.00605 0.45327 0.0
C307 C 0.82669 0.95401 0.42947 0.0
C308 C 0.76964 0.92446 0.43757 0.0
C309 C 0.75562 0.88703 0.41445 0.0
C310 C 0.79854 0.87833 0.38287 0.0
C311 C 0.8564 0.90771 0.37556 0.0
C312 C 0.8701 0.94544 0.3984 0.0
C313 C 0.83838 0.09734 0.42005 0.0
C314 C 0.88965 0.13241 0.42012 0.0
C315 C 0.88592 0.16505 0.39524 0.0
C316 C 0.83016 0.16352 0.37101 0.0
C317 C 0.77892 0.12834 0.37101 0.0
C318 C 0.78339 0.09529 0.39473 0.0
C319 C 0.8407 0.06375 0.44872 0.0
C320 C 0.8401 0.02691 0.42718 0.0
C321 C 0.84124 0.06777 0.49737 0.0
C322 C 0.83078 0.10348 0.52177 0.0
C323 C 0.87315 0.12522 0.55616 0.0
C324 C 0.86124 0.15777 0.58029 0.0
C325 C 0.80675 0.16913 0.57035 0.0
C326 C 0.76454 0.14729 0.53589 0.0
C327 C 0.77607 0.11457 0.51227 0.0
H328 H 0.48374 0.37793 0.8698 0.0
H329 H 0.42877 0.38655 0.79979 0.0
H330 H 0.26175 0.29491 0.84083 0.0
H331 H 0.31778 0.28515 0.90956 0.0
H332 H 0.36523 0.32984 -0.01893 0.0
H333 H 0.61508 0.36497 0.91414 0.0
H334 H 0.67502 0.36588 0.84368 0.0
H335 H 0.52261 0.26812 0.78466 0.0
H336 H 0.46254 0.26734 0.85604 0.0
H337 H 0.54915 0.25353 0.04355 0.0
H338 H 0.61332 0.25289 0.1122 0.0
H339 H 0.60305 0.37101 0.15429 0.0
H340 H 0.54005 0.37155 0.0857 0.0
H341 H 0.57583 0.3063 0.97325 0.0
H342 H 0.41378 0.26646 0.08861 0.0
H343 H 0.37027 0.27542 0.16439 0.0
H344 H 0.35581 0.39084 0.12687 0.0
H345 H 0.40026 0.38192 0.0517 0.0
C346 C 0.40562 0.33002 0.8944 0.0
C347 C 0.43557 0.35932 0.86347 0.0
C348 C 0.40381 0.3646 0.82372 0.0
C349 C 0.3409 0.34139 0.81471 0.0
C350 C 0.31005 0.31345 0.84682 0.0
C351 C 0.34218 0.30771 0.88609 0.0
C352 C 0.43943 0.32307 0.93602 0.0
C353 C 0.41105 0.32436 -0.02086 0.0
C354 C 0.49952 0.31617 0.93392 0.0
C355 C 0.53431 0.31621 0.89027 0.0
C356 C 0.59458 0.34363 0.8861 0.0
C357 C 0.62875 0.34414 0.84569 0.0
C358 C 0.60362 0.31703 0.80854 0.0
C359 C 0.54328 0.28932 0.81274 0.0
C360 C 0.50882 0.28895 0.85334 0.0
C361 C 0.53922 0.31238 0.05983 0.0
C362 C 0.56074 0.27919 0.06773 0.0
C363 C 0.59721 0.27883 0.10699 0.0
C364 C 0.61314 0.31184 0.13879 0.0
C365 C 0.59148 0.345 0.13065 0.0
C366 C 0.55518 0.34533 0.0915 0.0
C367 C 0.50174 0.31335 0.01781 0.0
C368 C 0.52938 0.31094 0.97481 0.0
C369 C 0.44158 0.3199 0.02003 0.0
C370 C 0.41075 0.32367 0.06466 0.0
C371 C 0.40117 0.29366 0.09679 0.0
C372 C 0.37621 0.29881 0.14006 0.0
C373 C 0.35992 0.33397 0.15181 0.0
C374 C 0.36798 0.36344 0.11903 0.0
C375 C 0.39308 0.35831 0.0759 0.0
loop_
_geom_bond_atom_site_label_1
_geom_bond_atom_site_label_2
_geom_bond_distance
_geom_bond_site_symmetry_2
_ccdc_geom_bond_type
O0 Cd1 2.300 . S
O0 C7 1.275 . S
Cd1 O0 2.300 . S
Cd1 O9 2.381 . S
Cd1 O10 2.378 . S
O2 Cd3 2.385 . S
O2 C7 1.255 . S
Cd3 O2 2.385 . S
Cd3 O4 2.317 . S
O4 Cd3 2.317 . S
O4 C5 1.232 . S
C5 O4 1.232 . S
C5 O6 1.218 . S
O6 C5 1.218 . S
C7 O0 1.275 . S
C7 O2 1.255 . S
C8 O9 1.258 . S
C8 O10 1.256 . S
O9 Cd1 2.381 . S
O9 C8 1.258 . S
O10 Cd1 2.378 . S
O10 C8 1.256 . S
O11 Cd12 2.300 . S
O11 C18 1.275 . S
Cd12 O11 2.300 . S
Cd12 O20 2.381 . S
Cd12 O21 2.378 . S
O13 Cd14 2.385 . S
O13 C18 1.255 . S
Cd14 O13 2.385 . S
Cd14 O15 2.317 . S
O15 Cd14 2.317 . S
O15 C16 1.232 . S
C16 O15 1.232 . S
C16 O17 1.218 . S
O17 C16 1.218 . S
C18 O11 1.275 . S
C18 O13 1.255 . S
C19 O20 1.258 . S
C19 O21 1.256 . S
O20 Cd12 2.381 . S
O20 C19 1.258 . S
O21 Cd12 2.378 . S
O21 C19 1.256 . S
O22 Cd23 2.300 . S
O22 C29 1.275 . S
Cd23 O22 2.300 . S
Cd23 O31 2.381 . S
Cd23 O32 2.378 . S
O24 Cd25 2.385 . S
O24 C29 1.255 . S
Cd25 O24 2.385 . S
Cd25 O26 2.317 . S
O26 Cd25 2.317 . S
O26 C27 1.232 . S
C27 O26 1.232 . S
C27 O28 1.218 . S
O28 C27 1.218 . S
C29 O22 1.275 . S
C29 O24 1.255 . S
C30 O31 1.258 . S
C30 O32 1.256 . S
O31 Cd23 2.381 . S
O31 C30 1.258 . S
O32 Cd23 2.378 . S
O32 C30 1.256 . S
O33 Cd34 2.300 . S
O33 C40 1.275 . S
Cd34 O33 2.300 . S
Cd34 O42 2.381 . S
Cd34 O43 2.378 . S
O35 Cd36 2.385 . S
O35 C40 1.255 . S
Cd36 O35 2.385 . S
Cd36 O37 2.317 . S
O37 Cd36 2.317 . S
O37 C38 1.232 . S
C38 O37 1.232 . S
C38 O39 1.218 . S
O39 C38 1.218 . S
C40 O33 1.275 . S
C40 O35 1.255 . S
C41 O42 1.258 . S
C41 O43 1.256 . S
O42 Cd34 2.381 . S
O42 C41 1.258 . S
O43 Cd34 2.378 . S
O43 C41 1.256 . S
O44 Cd45 2.300 . S
O44 C51 1.275 . S
Cd45 O44 2.300 . S
Cd45 O53 2.381 . S
Cd45 O54 2.378 . S
O46 Cd47 2.385 . S
O46 C51 1.255 . S
Cd47 O46 2.385 . S
Cd47 O48 2.317 . S
O48 Cd47 2.317 . S
O48 C49 1.232 . S
C49 O48 1.232 . S
C49 O50 1.218 . S
O50 C49 1.218 . S
C51 O44 1.275 . S
C51 O46 1.255 . S
C52 O53 1.258 . S
C52 O54 1.256 . S
O53 Cd45 2.381 . S
O53 C52 1.258 . S
O54 Cd45 2.378 . S
O54 C52 1.256 . S
O55 Cd56 2.300 . S
O55 C62 1.275 . S
Cd56 O55 2.300 . S
Cd56 O64 2.381 . S
Cd56 O65 2.378 . S
O57 Cd58 2.385 . S
O57 C62 1.255 . S
Cd58 O57 2.385 . S
Cd58 O59 2.317 . S
O59 Cd58 2.317 . S
O59 C60 1.232 . S
C60 O59 1.232 . S
C60 O61 1.218 . S
O61 C60 1.218 . S
C62 O55 1.275 . S
C62 O57 1.255 . S
C63 O64 1.258 . S
C63 O65 1.256 . S
O64 Cd56 2.381 . S
O64 C63 1.258 . S
O65 Cd56 2.378 . S
O65 C63 1.256 . S
O66 Cd67 2.300 . S
O66 C73 1.275 . S
Cd67 O66 2.300 . S
Cd67 O75 2.381 . S
Cd67 O76 2.378 . S
O68 Cd69 2.385 . S
O68 C73 1.255 . S
Cd69 O68 2.385 . S
Cd69 O70 2.317 . S
O70 Cd69 2.317 . S
O70 C71 1.232 . S
C71 O70 1.232 . S
C71 O72 1.218 . S
O72 C71 1.218 . S
C73 O66 1.275 . S
C73 O68 1.255 . S
C74 O75 1.258 . S
C74 O76 1.256 . S
O75 Cd67 2.381 . S
O75 C74 1.258 . S
O76 Cd67 2.378 . S
O76 C74 1.256 . S
O77 Cd78 2.300 . S
O77 C84 1.275 . S
Cd78 O77 2.300 . S
Cd78 O86 2.381 . S
Cd78 O87 2.378 . S
O79 Cd80 2.385 . S
O79 C84 1.255 . S
Cd80 O79 2.385 . S
Cd80 O81 2.317 . S
O81 Cd80 2.317 . S
O81 C82 1.232 . S
C82 O81 1.232 . S
C82 O83 1.218 . S
O83 C82 1.218 . S
C84 O77 1.275 . S
C84 O79 1.255 . S
C85 O86 1.258 . S
C85 O87 1.256 . S
O86 Cd78 2.381 . S
O86 C85 1.258 . S
O87 Cd78 2.378 . S
O87 C85 1.256 . S
H88 C107 0.949 . S
H89 C108 0.950 . S
H90 C110 0.950 . S
H91 C111 0.950 1_455 S
H92 C113 0.950 . S
H93 C116 0.950 . S
H94 C117 0.950 . S
H95 C119 0.951 . S
H96 C120 0.949 . S
H97 C122 0.949 . S
H98 C123 0.950 . S
H99 C125 0.950 . S
H100 C126 0.950 . S
H101 C128 0.950 . S
H102 C131 0.950 1_455 S
H103 C132 0.950 . S
H104 C134 0.951 . S
H105 C135 0.949 . S
C106 C107 1.376 . S
C106 C111 1.386 . S
C106 C112 1.483 1_655 S
C107 H88 0.949 . S
C107 C106 1.376 . S
C107 C108 1.397 . S
C108 H89 0.950 . S
C108 C107 1.397 . S
C108 C109 1.391 . S
C109 C108 1.391 . S
C109 C110 1.405 . S
C110 H90 0.950 . S
C110 C109 1.405 . S
C110 C111 1.367 . S
C111 H91 0.950 1_655 S
C111 C106 1.386 . S
C111 C110 1.367 . S
C112 C106 1.483 1_455 S
C112 C113 1.382 1_455 S
C112 C114 1.403 . S
C113 H92 0.950 . S
C113 C112 1.382 1_655 S
C113 C129 1.411 1_655 S
C114 C112 1.403 . S
C114 C115 1.489 . S
C114 C128 1.411 . S
C115 C114 1.489 . S
C115 C116 1.383 . S
C115 C120 1.382 . S
C116 H93 0.950 . S
C116 C115 1.383 . S
C116 C117 1.395 . S
C117 H94 0.950 . S
C117 C116 1.395 . S
C117 C118 1.288 . S
C118 C117 1.288 . S
C118 C119 1.392 . S
C119 H95 0.951 . S
C119 C118 1.392 . S
C119 C120 1.392 . S
C120 H96 0.949 . S
C120 C115 1.382 . S
C120 C119 1.392 . S
C121 C122 1.376 . S
C121 C126 1.386 . S
C121 C127 1.483 . S
C122 H97 0.949 . S
C122 C121 1.376 . S
C122 C123 1.397 . S
C123 H98 0.950 . S
C123 C122 1.397 . S
C123 C124 1.391 . S
C124 C123 1.391 . S
C124 C125 1.405 . S
C125 H99 0.950 . S
C125 C124 1.405 . S
C125 C126 1.367 . S
C126 H100 0.950 . S
C126 C121 1.386 . S
C126 C125 1.367 . S
C127 C121 1.483 . S
C127 C128 1.382 . S
C127 C129 1.403 . S
C128 H101 0.950 . S
C128 C114 1.411 . S
C128 C127 1.382 . S
C129 C113 1.411 1_455 S
C129 C127 1.403 . S
C129 C130 1.489 1_455 S
C130 C129 1.489 1_655 S
C130 C131 1.383 . S
C130 C135 1.382 . S
C131 H102 0.950 1_655 S
C131 C130 1.383 . S
C131 C132 1.395 . S
C132 H103 0.950 . S
C132 C131 1.395 . S
C132 C133 1.288 . S
C133 C132 1.288 . S
C133 C134 1.392 . S
C134 H104 0.951 . S
C134 C133 1.392 . S
C134 C135 1.392 . S
C135 H105 0.949 . S
C135 C130 1.382 . S
C135 C134 1.392 . S
H136 C155 0.949 . S
H137 C156 0.950 . S
H138 C158 0.950 . S
H139 C159 0.950 . S
H140 C161 0.950 . S
H141 C164 0.950 . S
H142 C165 0.950 . S
H143 C167 0.951 . S
H144 C168 0.949 . S
H145 C170 0.949 . S
H146 C171 0.950 . S
H147 C173 0.950 . S
H148 C174 0.950 . S
H149 C176 0.950 . S
H150 C179 0.950 . S
H151 C180 0.950 . S
H152 C182 0.951 . S
H153 C183 0.949 . S
C154 C155 1.376 . S
C154 C159 1.386 . S
C154 C160 1.483 . S
C155 H136 0.949 . S
C155 C154 1.376 . S
C155 C156 1.397 . S
C156 H137 0.950 . S
C156 C155 1.397 . S
C156 C157 1.391 . S
C157 C156 1.391 . S
C157 C158 1.405 . S
C158 H138 0.950 . S
C158 C157 1.405 . S
C158 C159 1.367 . S
C159 H139 0.950 . S
C159 C154 1.386 . S
C159 C158 1.367 . S
C160 C154 1.483 . S
C160 C161 1.382 . S
C160 C162 1.403 1_455 S
C161 H140 0.950 . S
C161 C160 1.382 . S
C161 C177 1.411 . S
C162 C160 1.403 1_655 S
C162 C163 1.489 . S
C162 C176 1.411 . S
C163 C162 1.489 . S
C163 C164 1.383 . S
C163 C168 1.382 . S
C164 H141 0.950 . S
C164 C163 1.383 . S
C164 C165 1.395 . S
C165 H142 0.950 . S
C165 C164 1.395 . S
C165 C166 1.288 . S
C166 C165 1.288 . S
C166 C167 1.392 . S
C167 H143 0.951 . S
C167 C166 1.392 . S
C167 C168 1.392 . S
C168 H144 0.949 . S
C168 C163 1.382 . S
C168 C167 1.392 . S
C169 C170 1.376 . S
C169 C174 1.386 . S
C169 C175 1.483 . S
C170 H145 0.949 . S
C170 C169 1.376 . S
C170 C171 1.397 . S
C171 H146 0.950 . S
C171 C170 1.397 . S
C171 C172 1.391 . S
C172 C171 1.391 . S
C172 C173 1.405 . S
C173 H147 0.950 . S
C173 C172 1.405 . S
C173 C174 1.367 . S
C174 H148 0.950 . S
C174 C169 1.386 . S
C174 C173 1.367 . S
C175 C169 1.483 . S
C175 C176 1.382 . S
C175 C177 1.403 1_655 S
C176 H149 0.950 . S
C176 C162 1.411 . S
C176 C175 1.382 . S
C177 C161 1.411 . S
C177 C175 1.403 1_455 S
C177 C178 1.489 . S
C178 C177 1.489 . S
C178 C179 1.383 . S
C178 C183 1.382 . S
C179 H150 0.950 . S
C179 C178 1.383 . S
C179 C180 1.395 . S
C180 H151 0.950 . S
C180 C179 1.395 . S
C180 C181 1.288 . S
C181 C180 1.288 . S
C181 C182 1.392 . S
C182 H152 0.951 . S
C182 C181 1.392 . S
C182 C183 1.392 . S
C183 H153 0.949 . S
C183 C178 1.382 . S
C183 C182 1.392 . S
H184 C203 0.949 . S
H185 C204 0.950 1_565 S
H186 C206 0.950 . S
H187 C207 0.950 . S
H188 C209 0.950 . S
H189 C212 0.950 . S
H190 C213 0.950 . S
H191 C215 0.951 . S
H192 C216 0.949 . S
H193 C218 0.949 . S
H194 C219 0.950 . S
H195 C221 0.950 . S
H196 C222 0.950 . S
H197 C224 0.950 . S
H198 C227 0.950 . S
H199 C228 0.950 . S
H200 C230 0.951 . S
H201 C231 0.949 . S
C202 C203 1.376 . S
C202 C207 1.386 . S
C202 C208 1.483 . S
C203 H184 0.949 . S
C203 C202 1.376 . S
C203 C204 1.397 . S
C204 H185 0.950 1_545 S
C204 C203 1.397 . S
C204 C205 1.391 1_545 S
C205 C204 1.391 1_565 S
C205 C206 1.405 1_565 S
C206 H186 0.950 . S
C206 C205 1.405 1_545 S
C206 C207 1.367 . S
C207 H187 0.950 . S
C207 C202 1.386 . S
C207 C206 1.367 . S
C208 C202 1.483 . S
C208 C209 1.382 . S
C208 C210 1.403 . S
C209 H188 0.950 . S
C209 C208 1.382 . S
C209 C225 1.411 . S
C210 C208 1.403 . S
C210 C211 1.489 . S
C210 C224 1.411 . S
C211 C210 1.489 . S
C211 C212 1.383 . S
C211 C216 1.382 . S
C212 H189 0.950 . S
C212 C211 1.383 . S
C212 C213 1.395 1_545 S
C213 H190 0.950 . S
C213 C212 1.395 1_565 S
C213 C214 1.288 . S
C214 C213 1.288 . S
C214 C215 1.392 1_565 S
C215 H191 0.951 . S
C215 C214 1.392 1_545 S
C215 C216 1.392 . S
C216 H192 0.949 . S
C216 C211 1.382 . S
C216 C215 1.392 . S
C217 C218 1.376 . S
C217 C222 1.386 . S
C217 C223 1.483 . S
C218 H193 0.949 . S
C218 C217 1.376 . S
C218 C219 1.397 . S
C219 H194 0.950 . S
C219 C218 1.397 . S
C219 C220 1.391 . S
C220 C219 1.391 . S
C220 C221 1.405 . S
C221 H195 0.950 . S
C221 C220 1.405 . S
C221 C222 1.367 . S
C222 H196 0.950 . S
C222 C217 1.386 . S
C222 C221 1.367 . S
C223 C217 1.483 . S
C223 C224 1.382 . S
C223 C225 1.403 . S
C224 H197 0.950 . S
C224 C210 1.411 . S
C224 C223 1.382 . S
C225 C209 1.411 . S
C225 C223 1.403 . S
C225 C226 1.489 . S
C226 C225 1.489 . S
C226 C227 1.383 . S
C226 C231 1.382 . S
C227 H198 0.950 . S
C227 C226 1.383 . S
C227 C228 1.395 . S
C228 H199 0.950 . S
C228 C227 1.395 . S
C228 C229 1.288 . S
C229 C228 1.288 . S
C229 C230 1.392 . S
C230 H200 0.951 . S
C230 C229 1.392 . S
C230 C231 1.392 . S
C231 H201 0.949 . S
C231 C226 1.382 . S
C231 C230 1.392 . S
H232 C251 0.949 . S
H233 C252 0.950 . S
H234 C254 0.950 . S
H235 C255 0.950 . S
H236 C257 0.950 . S
H237 C260 0.950 . S
H238 C261 0.950 . S
H239 C263 0.951 . S
H240 C264 0.949 . S
H241 C266 0.949 . S
H242 C267 0.950 . S
H243 C269 0.950 . S
H244 C270 0.950 . S
H245 C272 0.950 . S
H246 C275 0.950 . S
H247 C276 0.950 . S
H248 C278 0.951 . S
H249 C279 0.949 . S
C250 C251 1.376 . S
C250 C255 1.386 . S
C250 C256 1.483 . S
C251 H232 0.949 . S
C251 C250 1.376 . S
C251 C252 1.397 . S
C252 H233 0.950 . S
C252 C251 1.397 . S
C252 C253 1.391 . S
C253 C252 1.391 . S
C253 C254 1.405 . S
C254 H234 0.950 . S
C254 C253 1.405 . S
C254 C255 1.367 . S
C255 H235 0.950 . S
C255 C250 1.386 . S
C255 C254 1.367 . S
C256 C250 1.483 . S
C256 C257 1.382 1_556 S
C256 C258 1.403 . S
C257 H236 0.950 . S
C257 C256 1.382 1_554 S
C257 C273 1.411 . S
C258 C256 1.403 . S
C258 C259 1.489 . S
C258 C272 1.411 1_556 S
C259 C258 1.489 . S
C259 C260 1.383 . S
C259 C264 1.382 . S
C260 H237 0.950 . S
C260 C259 1.383 . S
C260 C261 1.395 . S
C261 H238 0.950 . S
C261 C260 1.395 . S
C261 C262 1.288 . S
C262 C261 1.288 . S
C262 C263 1.392 . S
C263 H239 0.951 . S
C263 C262 1.392 . S
C263 C264 1.392 . S
C264 H240 0.949 . S
C264 C259 1.382 . S
C264 C263 1.392 . S
C265 C266 1.376 . S
C265 C270 1.386 . S
C265 C271 1.483 . S
C266 H241 0.949 . S
C266 C265 1.376 . S
C266 C267 1.397 . S
C267 H242 0.950 . S
C267 C266 1.397 . S
C267 C268 1.391 . S
C268 C267 1.391 . S
C268 C269 1.405 . S
C269 H243 0.950 . S
C269 C268 1.405 . S
C269 C270 1.367 . S
C270 H244 0.950 . S
C270 C265 1.386 . S
C270 C269 1.367 . S
C271 C265 1.483 . S
C271 C272 1.382 . S
C271 C273 1.403 . S
C272 H245 0.950 . S
C272 C258 1.411 1_554 S
C272 C271 1.382 . S
C273 C257 1.411 . S
C273 C271 1.403 . S
C273 C274 1.489 . S
C274 C273 1.489 . S
C274 C275 1.383 . S
C274 C279 1.382 . S
C275 H246 0.950 . S
C275 C274 1.383 . S
C275 C276 1.395 . S
C276 H247 0.950 . S
C276 C275 1.395 . S
C276 C277 1.288 . S
C277 C276 1.288 . S
C277 C278 1.392 . S
C278 H248 0.951 . S
C278 C277 1.392 . S
C278 C279 1.392 . S
C279 H249 0.949 . S
C279 C274 1.382 . S
C279 C278 1.392 . S
H280 C299 0.949 . S
H281 C300 0.950 . S
H282 C302 0.950 . S
H283 C303 0.950 . S
H284 C305 0.950 . S
H285 C308 0.950 . S
H286 C309 0.950 . S
H287 C311 0.951 . S
H288 C312 0.949 . S
H289 C314 0.949 . S
H290 C315 0.950 . S
H291 C317 0.950 . S
H292 C318 0.950 . S
H293 C320 0.950 . S
H294 C323 0.950 . S
H295 C324 0.950 . S
H296 C326 0.951 . S
H297 C327 0.949 . S
C298 C299 1.376 . S
C298 C303 1.386 . S
C298 C304 1.483 . S
C299 H280 0.949 . S
C299 C298 1.376 . S
C299 C300 1.397 . S
C300 H281 0.950 . S
C300 C299 1.397 . S
C300 C301 1.391 . S
C301 C300 1.391 . S
C301 C302 1.405 . S
C302 H282 0.950 . S
C302 C301 1.405 . S
C302 C303 1.367 . S
C303 H283 0.950 . S
C303 C298 1.386 . S
C303 C302 1.367 . S
C304 C298 1.483 . S
C304 C305 1.382 1_565 S
C304 C306 1.403 . S
C305 H284 0.950 . S
C305 C304 1.382 1_545 S
C305 C321 1.411 . S
C306 C304 1.403 . S
C306 C307 1.489 . S
C306 C320 1.411 1_565 S
C307 C306 1.489 . S
C307 C308 1.383 . S
C307 C312 1.382 . S
C308 H285 0.950 . S
C308 C307 1.383 . S
C308 C309 1.395 . S
C309 H286 0.950 . S
C309 C308 1.395 . S
C309 C310 1.288 . S
C310 C309 1.288 . S
C310 C311 1.392 . S
C311 H287 0.951 . S
C311 C310 1.392 . S
C311 C312 1.392 . S
C312 H288 0.949 . S
C312 C307 1.382 . S
C312 C311 1.392 . S
C313 C314 1.376 . S
C313 C318 1.386 . S
C313 C319 1.483 . S
C314 H289 0.949 . S
C314 C313 1.376 . S
C314 C315 1.397 . S
C315 H290 0.950 . S
C315 C314 1.397 . S
C315 C316 1.391 . S
C316 C315 1.391 . S
C316 C317 1.405 . S
C317 H291 0.950 . S
C317 C316 1.405 . S
C317 C318 1.367 . S
C318 H292 0.950 . S
C318 C313 1.386 . S
C318 C317 1.367 . S
C319 C313 1.483 . S
C319 C320 1.382 . S
C319 C321 1.403 . S
C320 H293 0.950 . S
C320 C306 1.411 1_545 S
C320 C319 1.382 . S
C321 C305 1.411 . S
C321 C319 1.403 . S
C321 C322 1.489 . S
C322 C321 1.489 . S
C322 C323 1.383 . S
C322 C327 1.382 . S
C323 H294 0.950 . S
C323 C322 1.383 . S
C323 C324 1.395 . S
C324 H295 0.950 . S
C324 C323 1.395 . S
C324 C325 1.288 . S
C325 C324 1.288 . S
C325 C326 1.392 . S
C326 H296 0.951 . S
C326 C325 1.392 . S
C326 C327 1.392 . S
C327 H297 0.949 . S
C327 C322 1.382 . S
C327 C326 1.392 . S
H328 C347 0.949 . S
H329 C348 0.950 . S
H330 C350 0.950 . S
H331 C351 0.950 . S
H332 C353 0.950 . S
H333 C356 0.950 . S
H334 C357 0.950 . S
H335 C359 0.951 . S
H336 C360 0.949 . S
H337 C362 0.949 . S
H338 C363 0.950 . S
H339 C365 0.950 . S
H340 C366 0.950 . S
H341 C368 0.950 . S
H342 C371 0.950 . S
H343 C372 0.950 . S
H344 C374 0.951 . S
H345 C375 0.949 . S
C346 C347 1.376 . S
C346 C351 1.386 . S
C346 C352 1.483 . S
C347 H328 0.949 . S
C347 C346 1.376 . S
C347 C348 1.397 . S
C348 H329 0.950 . S
C348 C347 1.397 . S
C348 C349 1.391 . S
C349 C348 1.391 . S
C349 C350 1.405 . S
C350 H330 0.950 . S
C350 C349 1.405 . S
C350 C351 1.367 . S
C351 H331 0.950 . S
C351 C346 1.386 . S
C351 C350 1.367 . S
C352 C346 1.483 . S
C352 C353 1.382 1_556 S
C352 C354 1.403 . S
C353 H332 0.950 . S
C353 C352 1.382 1_554 S
C353 C369 1.411 . S
C354 C352 1.403 . S
C354 C355 1.489 . S
C354 C368 1.411 1_556 S
C355 C354 1.489 . S
C355 C356 1.383 . S
C355 C360 1.382 . S
C356 H333 0.950 . S
C356 C355 1.383 . S
C356 C357 1.395 . S
C357 H334 0.950 . S
C357 C356 1.395 . S
C357 C358 1.288 . S
C358 C357 1.288 . S
C358 C359 1.392 . S
C359 H335 0.951 . S
C359 C358 1.392 . S
C359 C360 1.392 . S
C360 H336 0.949 . S
C360 C355 1.382 . S
C360 C359 1.392 . S
C361 C362 1.376 . S
C361 C366 1.386 . S
C361 C367 1.483 . S
C362 H337 0.949 . S
C362 C361 1.376 . S
C362 C363 1.397 . S
C363 H338 0.950 . S
C363 C362 1.397 . S
C363 C364 1.391 . S
C364 C363 1.391 . S
C364 C365 1.405 . S
C365 H339 0.950 . S
C365 C364 1.405 . S
C365 C366 1.367 . S
C366 H340 0.950 . S
C366 C361 1.386 . S
C366 C365 1.367 . S
C367 C361 1.483 . S
C367 C368 1.382 . S
C367 C369 1.403 . S
C368 H341 0.950 . S
C368 C354 1.411 1_554 S
C368 C367 1.382 . S
C369 C353 1.411 . S
C369 C367 1.403 . S
C369 C370 1.489 . S
C370 C369 1.489 . S
C370 C371 1.383 . S
C370 C375 1.382 . S
C371 H342 0.950 . S
C371 C370 1.383 . S
C371 C372 1.395 . S
C372 H343 0.950 . S
C372 C371 1.395 . S
C372 C373 1.288 . S
C373 C372 1.288 . S
C373 C374 1.392 . S
C374 H344 0.951 . S
C374 C373 1.392 . S
C374 C375 1.392 . S
C375 H345 0.949 . S
C375 C370 1.382 . S
C375 C374 1.392 . S
C118 C5 1.776 . S
C157 C16 1.727 . S
C133 C30 1.844 . S
C172 C40 1.809 . S
C220 C8 1.722 . S
C253 C18 1.538 . S
C29 C310 2.199 . S
C358 C38 1.246 . S
C205 C19 1.788 . S
C27 C268 1.782 . S
C325 C41 1.811 . S
C373 C7 1.660 . S
C52 C166 1.661 . S
C109 C62 1.624 . S
C74 C181 1.831 . S
C82 C124 1.337 . S
C301 C51 1.998 . S
C364 C60 1.349 . S
C229 C71 1.241 . S
C84 C277 1.567 . S
C316 C63 1.886 . S
C349 C73 1.500 . S
C214 C85 2.008 . S
C49 C262 1.297 . S
