# Generated by pormake.
# Topology pyr, (3,6)-cn, num edge types: 1
# Building blocks:
#     Node 0, Type 0, BuildingBlock: VETTIZ_charged_linker_0, # of connection points: 3
#     Node 1, Type 0, BuildingBlock: VETTIZ_charged_linker_0, # of connection points: 3
#     Node 2, Type 0, BuildingBlock: VETTIZ_charged_linker_0, # of connection points: 3
#     Node 3, Type 0, BuildingBlock: VETTIZ_charged_linker_0, # of connection points: 3
#     Node 4, Type 0, BuildingBlock: VETTIZ_charged_linker_0, # of connection points: 3
#     Node 5, Type 0, BuildingBlock: VETTIZ_charged_linker_0, # of connection points: 3
#     Node 6, Type 0, BuildingBlock: VETTIZ_charged_linker_0, # of connection points: 3
#     Node 7, Type 0, BuildingBlock: VETTIZ_charged_linker_0, # of connection points: 3
#     Node 8, Type 1, BuildingBlock: BETDEL_clean_sbu_0, # of connection points: 6
#     Node 9, Type 1, BuildingBlock: BETDEL_clean_sbu_0, # of connection points: 6
#     Node 10, Type 1, BuildingBlock: BETDEL_clean_sbu_0, # of connection points: 6
#     Node 11, Type 1, BuildingBlock: BETDEL_clean_sbu_0, # of connection points: 6
#     Edge 12, Type (0, 1), None
#     Edge 13, Type (0, 1), None
#     Edge 14, Type (0, 1), None
#     Edge 15, Type (0, 1), None
#     Edge 16, Type (0, 1), None
#     Edge 17, Type (0, 1), None
#     Edge 18, Type (0, 1), None
#     Edge 19, Type (0, 1), None
#     Edge 20, Type (0, 1), None
#     Edge 21, Type (0, 1), None
#     Edge 22, Type (0, 1), None
#     Edge 23, Type (0, 1), None
#     Edge 24, Type (0, 1), None
#     Edge 25, Type (0, 1), None
#     Edge 26, Type (0, 1), None
#     Edge 27, Type (0, 1), None
#     Edge 28, Type (0, 1), None
#     Edge 29, Type (0, 1), None
#     Edge 30, Type (0, 1), None
#     Edge 31, Type (0, 1), None
#     Edge 32, Type (0, 1), None
#     Edge 33, Type (0, 1), None
#     Edge 34, Type (0, 1), None
#     Edge 35, Type (0, 1), None
# Relax obj value: 0.046
# Max RMSD: 0.099
# Mean RMSD: 0.044
data_MOF--net-pyr--node1-BETDEL_clean_sbu_0--node2-VETTIZ_charged_linker_0--edge1-none
_symmetry_space_group_name_H-M    P1
_symmetry_Int_Tables_number       1
_symmetry_cell_setting            triclinic
loop_
_symmetry_equiv_pos_as_xyz
'x, y, z'
_cell_length_a     24.024387
_cell_length_b     25.179935
_cell_length_c     23.718568
_cell_angle_alpha  91.111728
_cell_angle_beta   89.020976
_cell_angle_gamma 96.119273
loop_
_atom_site_label
_atom_site_type_symbol
_atom_site_fract_x
_atom_site_fract_y
_atom_site_fract_z
_atom_type_partial_charge
C0 C 0.19982 0.12191 0.34041 0.0
C1 C 0.14947 0.13381 0.36568 0.0
C2 C 0.1366 0.18707 0.36885 0.0
C3 C 0.21452 0.21225 0.30723 0.0
C4 C 0.2322 0.16224 0.31135 0.0
C5 C 0.28374 0.15666 0.27617 0.0
H6 H 0.37526 0.15022 0.03313 0.0
C7 C 0.24452 0.23961 0.2605 0.0
C8 C 0.28884 0.21003 0.24526 0.0
H9 H 0.46674 0.11625 0.18163 0.0
H10 H 0.41425 0.17864 0.23729 0.0
H11 H 0.39019 0.27689 0.06877 0.0
H12 H 0.24578 0.16042 0.08368 0.0
H13 H 0.23138 0.2192 0.04835 0.0
H14 H 0.28209 0.17932 0.01892 0.0
H15 H 0.33981 0.26676 0.01372 0.0
H16 H 0.3309 0.31239 0.07215 0.0
C17 C 0.33296 0.15062 0.31585 0.0
C18 C 0.27264 0.10781 0.23561 0.0
C19 C 0.12349 0.3457 0.14347 0.0
C20 C 0.12624 0.36122 0.08727 0.0
C21 C 0.17058 0.34737 0.05214 0.0
C22 C 0.21184 0.31803 0.07334 0.0
C23 C 0.20815 0.30244 0.12987 0.0
C24 C 0.16475 0.31662 0.16389 0.0
C25 C 0.16804 0.29837 0.22326 0.0
C26 C 0.22194 0.27152 0.21973 0.0
C27 C 0.2446 0.27358 0.16463 0.0
C28 C 0.17445 0.34812 0.26286 0.0
C29 C 0.11463 0.25936 0.23597 0.0
C30 C 0.38225 0.15435 0.07806 0.0
C31 C 0.4212 0.12541 0.10457 0.0
C32 C 0.43414 0.13554 0.16177 0.0
C33 C 0.40355 0.16945 0.19401 0.0
C34 C 0.35972 0.19132 0.16851 0.0
C35 C 0.35302 0.18897 0.11121 0.0
C36 C 0.31218 0.22687 0.09318 0.0
C37 C 0.29127 0.24567 0.15071 0.0
C38 C 0.31713 0.22059 0.19364 0.0
C39 C 0.34459 0.27306 0.05995 0.0
C40 C 0.26517 0.19495 0.05909 0.0
H41 H 0.15992 0.26725 0.34407 0.0
H42 H 0.21204 0.08177 0.34107 0.0
H43 H 0.23718 0.11291 0.20737 0.0
H44 H 0.30972 0.10151 0.20906 0.0
H45 H 0.26253 0.07035 0.25931 0.0
H46 H 0.3186 0.12818 0.35428 0.0
H47 H 0.36443 0.12702 0.2957 0.0
H48 H 0.35356 0.19024 0.32968 0.0
H49 H 0.0905 0.35692 0.17158 0.0
H50 H 0.17372 0.35985 1.00864 0.0
H51 H 0.24497 0.30854 0.04527 0.0
H52 H 0.20392 0.38044 0.24427 0.0
H53 H 0.1335 0.36403 0.27023 0.0
H54 H 0.19217 0.33957 0.304 0.0
H55 H 0.08041 0.26276 0.20573 0.0
H56 H 0.12354 0.21698 0.23331 0.0
H57 H 0.09573 0.26768 0.27772 0.0
H58 H 0.09994 0.1977 0.39189 0.0
C59 C 0.17033 0.22693 0.34086 0.0
C60 C 0.14183 0.88698 0.55758 0.0
C61 C 0.10994 0.9281 0.57564 0.0
C62 C 0.10756 0.94174 0.63338 0.0
C63 C 0.1734 0.87846 0.65309 0.0
C64 C 0.17305 0.86252 0.5971 0.0
C65 C 0.21019 0.8187 0.58574 0.0
H66 H 0.42175 0.68616 0.6773 0.0
C67 C 0.21221 0.84787 0.68289 0.0
C68 C 0.233 0.81148 0.64431 0.0
H69 H 0.34254 0.66962 0.5152 0.0
H70 H 0.27375 0.72812 0.54648 0.0
H71 H 0.40529 0.82025 0.70522 0.0
H72 H 0.32232 0.66548 0.7443 0.0
H73 H 0.29392 0.70934 0.79301 0.0
H74 H 0.36784 0.70144 0.79392 0.0
H75 H 0.43502 0.76519 0.73608 0.0
H76 H 0.39809 0.80823 0.77883 0.0
C77 C 0.2566 0.83997 0.5434 0.0
C78 C 0.17349 0.76817 0.56471 0.0
C79 C 0.2965 0.91921 0.86662 0.0
C80 C 0.33666 0.89938 0.90052 0.0
C81 C 0.34633 0.84535 0.89533 0.0
C82 C 0.32242 0.81361 0.8515 0.0
C83 C 0.29025 0.83686 0.81214 0.0
C84 C 0.27287 0.88652 0.82289 0.0
C85 C 0.23139 0.90031 0.78007 0.0
C86 C 0.23374 0.85378 0.73813 0.0
C87 C 0.27068 0.81847 0.75638 0.0
C88 C 0.253 0.95456 0.75373 0.0
C89 C 0.17314 0.90004 0.80955 0.0
C90 C 0.39033 0.69635 0.64832 0.0
C91 C 0.38831 0.67511 0.5935 0.0
C92 C 0.34522 0.6866 0.55752 0.0
C93 C 0.30546 0.72047 0.57566 0.0
C94 C 0.30864 0.74254 0.6305 0.0
C95 C 0.3496 0.72901 0.66623 0.0
C96 C 0.34369 0.75165 0.72461 0.0
C97 C 0.2933 0.78277 0.71753 0.0
C98 C 0.274 0.77863 0.66188 0.0
C99 C 0.39818 0.78839 0.73718 0.0
C100 C 0.33155 0.7048 0.76628 0.0
H101 H 0.13626 0.9292 0.71549 0.0
H102 H 0.14345 0.87493 0.51354 0.0
H103 H 0.13065 0.76599 0.58371 0.0
H104 H 0.18993 0.73085 0.57728 0.0
H105 H 0.16921 0.76806 0.51815 0.0
H106 H 0.2757 0.8803 0.55694 0.0
H107 H 0.23918 0.84339 0.50069 0.0
H108 H 0.2913 0.81485 0.53975 0.0
H109 H 0.28662 0.95999 0.87181 0.0
H110 H 0.37607 0.82883 0.922 0.0
H111 H 0.33292 0.77346 0.84751 0.0
H112 H 0.29689 0.95403 0.73818 0.0
H113 H 0.25201 0.98764 0.78527 0.0
H114 H 0.22808 0.96456 0.71761 0.0
H115 H 0.17253 0.88371 0.85284 0.0
H116 H 0.14036 0.87427 0.78647 0.0
H117 H 0.16016 0.94101 0.81364 0.0
H118 H 0.08261 0.97268 0.64833 0.0
C119 C 0.13885 0.91677 0.67224 0.0
C120 C 0.60102 0.16177 0.92092 0.0
C121 C 0.54868 0.1357 0.9042 0.0
C122 C 0.51983 0.1598 0.86164 0.0
C123 C 0.59228 0.23514 0.85595 0.0
C124 C 0.62132 0.21169 0.89717 0.0
C125 C 0.67308 0.2476 0.91423 0.0
H126 H 0.8339 0.48724 0.8982 0.0
C127 C 0.6223 0.28884 0.84279 0.0
C128 C 0.66909 0.29678 0.87829 0.0
H129 H 0.86197 0.35262 1.00037 0.0
H130 H 0.77821 0.30277 0.96336 0.0
H131 H 0.70225 0.48203 0.91673 0.0
H132 H 0.80025 0.41457 0.78516 0.0
H133 H 0.74619 0.44501 0.75383 0.0
H134 H 0.79758 0.48516 0.79496 0.0
H135 H 0.73636 0.52227 0.86201 0.0
H136 H 0.66715 0.48765 0.85311 0.0
C137 C 0.66871 0.2606 0.97812 0.0
C138 C 0.72484 0.21894 0.89728 0.0
C139 C 0.55748 0.40332 0.68317 0.0
C140 C 0.57435 0.45611 0.66537 0.0
C141 C 0.61609 0.48697 0.69626 0.0
C142 C 0.64233 0.4654 0.74201 0.0
C143 C 0.62631 0.41229 0.75837 0.0
C144 C 0.58309 0.38272 0.73036 0.0
C145 C 0.56768 0.32913 0.75804 0.0
C146 C 0.61171 0.3297 0.80404 0.0
C147 C 0.64633 0.37857 0.80353 0.0
C148 C 0.50778 0.32864 0.78341 0.0
C149 C 0.5738 0.28427 0.71377 0.0
C150 C 0.82197 0.44715 0.91302 0.0
C151 C 0.85492 0.42426 0.95285 0.0
C152 C 0.83773 0.37153 0.96996 0.0
C153 C 0.78898 0.34251 0.94825 0.0
C154 C 0.75677 0.36592 0.90828 0.0
C155 C 0.77386 0.41737 0.8911 0.0
C156 C 0.73607 0.43538 0.84673 0.0
C157 C 0.69306 0.38667 0.84036 0.0
C158 C 0.70498 0.34595 0.87689 0.0
C159 C 0.70915 0.48464 0.87031 0.0
C160 C 0.77154 0.44602 0.79219 0.0
H161 H 0.51704 0.22412 0.80515 0.0
H162 H 0.62456 0.1451 0.95337 0.0
H163 H 0.71955 0.20017 0.85458 0.0
H164 H 0.76369 0.24647 0.89455 0.0
H165 H 0.73097 0.18687 0.92737 0.0
H166 H 0.6244 0.26253 0.99168 0.0
H167 H 0.6858 0.22954 1.00329 0.0
H168 H 0.69043 0.30004 0.98982 0.0
H169 H 0.52463 0.37886 0.66116 0.0
H170 H 0.62985 0.52748 0.68376 0.0
H171 H 0.67459 0.49094 0.76276 0.0
H172 H 0.49848 0.3696 0.79605 0.0
H173 H 0.47572 0.31262 0.75252 0.0
H174 H 0.50207 0.30551 0.8226 0.0
H175 H 0.61494 0.29111 0.69141 0.0
H176 H 0.57214 0.24446 0.73274 0.0
H177 H 0.54041 0.28308 0.6818 0.0
H178 H 0.47965 0.14114 0.84749 0.0
C179 C 0.54139 0.20848 0.83721 0.0
C180 C 0.9552 0.84692 0.37385 0.0
C181 C 0.93703 0.87527 0.4219 0.0
C182 C 0.88854 0.85402 0.45112 0.0
C183 C 0.87848 0.77678 0.38887 0.0
C184 C 0.92498 0.79725 0.35817 0.0
C185 C 0.93698 0.75921 0.30984 0.0
H186 H 0.87231 0.51622 0.17574 0.0
C187 C 0.85681 0.72441 0.36446 0.0
C188 C 0.89026 0.7131 0.31771 0.0
H189 H 1.00376 0.63989 0.13206 0.0
H190 H 0.97385 0.69618 0.20814 0.0
H191 H 0.87834 0.52953 0.31742 0.0
H192 H 0.77623 0.60266 0.19798 0.0
H193 H 0.73603 0.57823 0.25667 0.0
H194 H 0.76707 0.53197 0.20996 0.0
H195 H 0.82989 0.49037 0.27216 0.0
H196 H 0.80611 0.52082 0.33591 0.0
C197 C 0.99562 0.74107 0.31848 0.0
C198 C 0.93128 0.78836 0.25385 0.0
C199 C 0.68901 0.62843 0.46357 0.0
C200 C 0.65253 0.58263 0.45224 0.0
C201 C 0.66435 0.55024 0.40496 0.0
C202 C 0.71195 0.56387 0.36983 0.0
C203 C 0.74746 0.61109 0.38129 0.0
C204 C 0.7347 0.64223 0.42748 0.0
C205 C 0.77227 0.69309 0.43199 0.0
C206 C 0.81127 0.68766 0.38188 0.0
C207 C 0.79773 0.63944 0.35197 0.0
C208 C 0.80331 0.69283 0.48901 0.0
C209 C 0.73549 0.73984 0.42492 0.0
C210 C 0.89467 0.55539 0.1827 0.0
C211 C 0.941 0.57317 0.1478 0.0
C212 C 0.96817 0.62492 0.15798 0.0
C213 C 0.95084 0.65762 0.20249 0.0
C214 C 0.90516 0.6391 0.23743 0.0
C215 C 0.87721 0.58898 0.22669 0.0
C216 C 0.82753 0.57718 0.26636 0.0
C217 C 0.83168 0.62715 0.30411 0.0
C218 C 0.87762 0.66369 0.28694 0.0
C219 C 0.8355 0.52662 0.29979 0.0
C220 C 0.77363 0.57183 0.23117 0.0
H221 H 0.82421 0.79246 0.46092 0.0
H222 H 0.99237 0.86206 0.35036 0.0
H223 H 0.89481 0.81214 0.25598 0.0
H224 H 0.92335 0.76064 0.2176 0.0
H225 H 0.96929 0.8162 0.24479 0.0
H226 H 1.00086 0.73051 0.36327 0.0
H227 H 0.02897 0.77346 0.30772 0.0
H228 H 1.00276 0.70501 0.29346 0.0
H229 H 0.68089 0.65484 0.49868 0.0
H230 H 0.63661 0.51468 0.39493 0.0
H231 H 0.7189 0.53772 0.33469 0.0
H232 H 0.81012 0.6515 0.50099 0.0
H233 H 0.77894 0.71 0.52378 0.0
H234 H 0.84589 0.71432 0.48749 0.0
H235 H 0.69714 0.72719 0.40031 0.0
H236 H 0.75696 0.77328 0.40053 0.0
H237 H 0.72165 0.75531 0.46644 0.0
H238 H 0.87262 0.87475 0.48747 0.0
C239 C 0.85975 0.80559 0.43524 0.0
C240 C 0.8532 0.68693 0.92886 0.0
C241 C 0.89515 0.66064 0.90096 0.0
C242 C 0.89401 0.65366 0.84186 0.0
C243 C 0.8197 0.70931 0.83834 0.0
C244 C 0.81513 0.71094 0.89602 0.0
C245 C 0.76738 0.74208 0.91486 0.0
H246 H 0.59845 0.92951 0.84427 0.0
C247 C 0.78304 0.74458 0.81497 0.0
C248 C 0.74854 0.76163 0.85815 0.0
H249 H 0.61519 0.86085 1.0073 0.0
H250 H 0.67265 0.79583 0.96607 0.0
H251 H 0.59773 0.81605 0.76263 0.0
H252 H 0.69322 0.95352 0.81084 0.0
H253 H 0.75096 0.92318 0.78325 0.0
H254 H 0.69491 0.93932 0.73835 0.0
H255 H 0.59936 0.88513 0.74381 0.0
H256 H 0.64088 0.84068 0.70539 0.0
C257 C 0.72161 0.70321 0.94323 0.0
C258 C 0.79166 0.78852 0.9538 0.0
C259 C 0.87421 0.87458 0.6785 0.0
C260 C 0.85443 0.91754 0.65152 0.0
C261 C 0.7964 0.9197 0.64649 0.0
C262 C 0.75873 0.88209 0.67383 0.0
C263 C 0.78 0.84442 0.70777 0.0
C264 C 0.83606 0.83784 0.7056 0.0
C265 C 0.84948 0.7906 0.73794 0.0
C266 C 0.79223 0.77445 0.76564 0.0
C267 C 0.75349 0.80965 0.75129 0.0
C268 C 0.86885 0.74838 0.69571 0.0
C269 C 0.89523 0.80908 0.78154 0.0
C270 C 0.61424 0.89994 0.87063 0.0
C271 C 0.60341 0.8998 0.92842 0.0
C272 C 0.62415 0.86141 0.96236 0.0
C273 C 0.65753 0.82417 0.93854 0.0
C274 C 0.67195 0.8274 0.88098 0.0
C275 C 0.65005 0.86467 0.84804 0.0
C276 C 0.67363 0.86633 0.78925 0.0
C277 C 0.71232 0.82229 0.79156 0.0
C278 C 0.71106 0.79966 0.84555 0.0
C279 C 0.62536 0.85147 0.74778 0.0
C280 C 0.70492 0.92307 0.7796 0.0
H281 H 0.85124 0.66804 0.76601 0.0
H282 H 0.85099 0.68958 0.97446 0.0
H283 H 0.82944 0.81033 0.93386 0.0
H284 H 0.76238 0.81851 0.96253 0.0
H285 H 0.80414 0.77322 0.99482 0.0
H286 H 0.71956 0.6628 0.92305 0.0
H287 H 0.73021 0.69888 0.98869 0.0
H288 H 0.67923 0.71571 0.93867 0.0
H289 H 0.9185 0.8699 0.67872 0.0
H290 H 0.78038 0.95063 0.62228 0.0
H291 H 0.71463 0.88381 0.66897 0.0
H292 H 0.88933 0.76707 0.6575 0.0
H293 H 0.90109 0.72578 0.71405 0.0
H294 H 0.83294 0.72014 0.68136 0.0
H295 H 0.88053 0.83956 0.8112 0.0
H296 H 0.90713 0.77559 0.80657 0.0
H297 H 0.93434 0.82655 0.76043 0.0
H298 H 0.92286 0.62978 0.82006 0.0
C299 C 0.85461 0.67646 0.81052 0.0
C300 C 0.8823 0.1516 0.45732 0.0
C301 C 0.91371 0.11015 0.43926 0.0
C302 C 0.91697 0.09719 0.38144 0.0
C303 C 0.85206 0.16124 0.36158 0.0
C304 C 0.85185 0.17669 0.41768 0.0
C305 C 0.81442 0.22024 0.42915 0.0
H306 H 0.59976 0.3489 0.3395 0.0
C307 C 0.81306 0.19162 0.33183 0.0
C308 C 0.79177 0.22757 0.37054 0.0
H309 H 0.68092 0.36739 0.50054 0.0
H310 H 0.75089 0.31058 0.4683 0.0
H311 H 0.61896 0.21552 0.3117 0.0
H312 H 0.69871 0.37123 0.27101 0.0
H313 H 0.72668 0.32764 0.22171 0.0
H314 H 0.65252 0.33458 0.22242 0.0
H315 H 0.58759 0.26964 0.28085 0.0
H316 H 0.62501 0.22711 0.23797 0.0
C317 C 0.76796 0.19852 0.47127 0.0
C318 C 0.85078 0.27084 0.45054 0.0
C319 C 0.7287 0.11811 0.14923 0.0
C320 C 0.68719 0.13652 0.11605 0.0
C321 C 0.67595 0.19014 0.12113 0.0
C322 C 0.69986 0.22276 0.16433 0.0
C323 C 0.73351 0.20071 0.20322 0.0
C324 C 0.75213 0.15155 0.19242 0.0
C325 C 0.79417 0.13868 0.23502 0.0
C326 C 0.79119 0.18522 0.27679 0.0
C327 C 0.75326 0.21969 0.25877 0.0
C328 C 0.7735 0.08423 0.26155 0.0
C329 C 0.85233 0.13982 0.20521 0.0
C330 C 0.63189 0.33948 0.36806 0.0
C331 C 0.63408 0.36072 0.42289 0.0
C332 C 0.67807 0.35033 0.45826 0.0
C333 C 0.71851 0.31744 0.43958 0.0
C334 C 0.71502 0.29516 0.38485 0.0
C335 C 0.67325 0.30775 0.34961 0.0
C336 C 0.67895 0.28503 0.29122 0.0
C337 C 0.73025 0.25504 0.29775 0.0
C338 C 0.75008 0.25971 0.35319 0.0
C339 C 0.625 0.24722 0.27947 0.0
C340 C 0.68952 0.33179 0.24926 0.0
H341 H 0.88994 0.11111 0.29907 0.0
H342 H 0.88008 0.16312 0.50147 0.0
H343 H 0.89402 0.27288 0.43254 0.0
H344 H 0.8347 0.3081 0.43718 0.0
H345 H 0.85403 0.27128 0.49721 0.0
H346 H 0.74889 0.15832 0.45727 0.0
H347 H 0.78535 0.19467 0.51392 0.0
H348 H 0.73328 0.22361 0.47531 0.0
H349 H 0.73963 0.07766 0.14412 0.0
H350 H 0.64501 0.20553 0.09502 0.0
H351 H 0.68812 0.26248 0.16837 0.0
H352 H 0.72946 0.08401 0.27689 0.0
H353 H 0.77529 0.05111 0.23019 0.0
H354 H 0.79839 0.07475 0.29786 0.0
H355 H 0.8525 0.15643 0.16206 0.0
H356 H 0.88493 0.16581 0.22829 0.0
H357 H 0.86584 0.09908 0.20073 0.0
H358 H 0.94175 0.06609 0.36653 0.0
C359 C 0.88674 0.12304 0.34242 0.0
C360 C 0.46223 0.62892 0.33471 0.0
C361 C 0.44473 0.57643 0.3528 0.0
C362 C 0.4021 0.54608 0.32254 0.0
C363 C 0.39251 0.62087 0.26034 0.0
C364 C 0.43648 0.64982 0.28785 0.0
C365 C 0.45253 0.70321 0.26017 0.0
H366 H 0.39962 0.88883 0.06597 0.0
C367 C 0.37277 0.65494 0.21528 0.0
C368 C 0.40829 0.70323 0.21452 0.0
H369 H 0.54409 0.88921 0.17196 0.0
H370 H 0.50501 0.80648 0.21352 0.0
H371 H 0.30345 0.83555 0.16376 0.0
H372 H 0.39698 0.76849 0.02793 0.0
H373 H 0.32856 0.73564 0.02855 0.0
H374 H 0.33914 0.80621 0.01542 0.0
H375 H 0.29233 0.84858 0.09084 0.0
H376 H 0.25843 0.78974 0.12415 0.0
C377 C 0.4472 0.74815 0.30459 0.0
C378 C 0.51226 0.70296 0.23444 0.0
C379 C 0.1959 0.58912 0.1063 0.0
C380 C 0.16332 0.61235 0.06635 0.0
C381 C 0.18115 0.665 0.04937 0.0
C382 C 0.23026 0.69348 0.07113 0.0
C383 C 0.26224 0.66959 0.11098 0.0
C384 C 0.24437 0.61832 0.12823 0.0
C385 C 0.28195 0.59967 0.17245 0.0
C386 C 0.32578 0.64771 0.17867 0.0
C387 C 0.31451 0.68874 0.14215 0.0
C388 C 0.24661 0.58957 0.22715 0.0
C389 C 0.30786 0.54989 0.14879 0.0
C390 C 0.42267 0.87136 0.09829 0.0
C391 C 0.47539 0.89638 0.11537 0.0
C392 C 0.50366 0.87136 0.15762 0.0
C393 C 0.48107 0.82285 0.18161 0.0
C394 C 0.42969 0.79735 0.16273 0.0
C395 C 0.40126 0.82159 0.12166 0.0
C396 C 0.34876 0.7867 0.10454 0.0
C397 C 0.35146 0.7373 0.14053 0.0
C398 C 0.39843 0.74427 0.17584 0.0
C399 C 0.29777 0.81655 0.12121 0.0
C400 C 0.35306 0.77358 0.04071 0.0
H401 H 0.34281 0.54289 0.25671 0.0
H402 H 0.49569 0.65298 0.35628 0.0
H403 H 0.52188 0.66166 0.22373 0.0
H404 H 0.51735 0.72432 0.19406 0.0
H405 H 0.54458 0.72058 0.26429 0.0
H406 H 0.40624 0.74162 0.32735 0.0
H407 H 0.48086 0.74905 0.33623 0.0
H408 H 0.44896 0.78801 0.28572 0.0
H409 H 0.18357 0.54908 0.12105 0.0
H410 H 0.15725 0.68418 0.01887 0.0
H411 H 0.24153 0.73317 0.05608 0.0
H412 H 0.21867 0.62163 0.23442 0.0
H413 H 0.2198 0.55086 0.22443 0.0
H414 H 0.27215 0.58999 0.26534 0.0
H415 H 0.31519 0.5527 0.10244 0.0
H416 H 0.34951 0.54587 0.1663 0.0
H417 H 0.27978 0.51272 0.15668 0.0
H418 H 0.38782 0.50579 0.33534 0.0
C419 C 0.37573 0.56799 0.27703 0.0
C420 C 0.06734 0.18537 0.6469 0.0
C421 C 0.08761 0.15534 0.60113 0.0
C422 C 0.13915 0.1739 0.57562 0.0
C423 C 0.14691 0.25306 0.63497 0.0
C424 C 0.09824 0.23443 0.66329 0.0
C425 C 0.08506 0.27351 0.71016 0.0
H426 H 0.14783 0.51792 0.84096 0.0
C427 C 0.16779 0.3061 0.6581 0.0
C428 C 0.13263 0.31888 0.70291 0.0
H429 H 0.01628 0.39442 0.88497 0.0
H430 H 0.04677 0.33757 0.80969 0.0
H431 H 0.14107 0.50201 0.69918 0.0
H432 H 0.24527 0.43315 0.81994 0.0
H433 H 0.28492 0.45818 0.76107 0.0
H434 H 0.25228 0.50373 0.80726 0.0
H435 H 0.18955 0.54285 0.74294 0.0
H436 H 0.213 0.51105 0.6798 0.0
C437 C 0.0272 0.29229 0.69888 0.0
C438 C 0.08838 0.24525 0.76711 0.0
C439 C 0.33381 0.40251 0.55657 0.0
C440 C 0.36847 0.4499 0.56583 0.0
C441 C 0.35555 0.48344 0.61177 0.0
C442 C 0.30845 0.46954 0.64745 0.0
C443 C 0.27463 0.42092 0.63794 0.0
C444 C 0.28863 0.38855 0.59322 0.0
C445 C 0.25295 0.33645 0.59092 0.0
C446 C 0.21302 0.34289 0.64006 0.0
C447 C 0.22495 0.39241 0.668 0.0
C448 C 0.22271 0.33271 0.53327 0.0
C449 C 0.29153 0.29176 0.60141 0.0
C450 C 0.12567 0.4786 0.83434 0.0
C451 C 0.07917 0.46099 0.86908 0.0
C452 C 0.05207 0.40918 0.85921 0.0
C453 C 0.06982 0.37614 0.81527 0.0
C454 C 0.11584 0.39438 0.78066 0.0
C455 C 0.14351 0.4447 0.7909 0.0
C456 C 0.19316 0.45643 0.75118 0.0
C457 C 0.19003 0.40565 0.71475 0.0
C458 C 0.1442 0.36916 0.73218 0.0
C459 C 0.18413 0.50589 0.71638 0.0
C460 C 0.24699 0.46364 0.78645 0.0
H461 H 0.20589 0.23346 0.56853 0.0
H462 H 0.02814 0.17204 0.66793 0.0
H463 H 0.12299 0.21917 0.76622 0.0
H464 H 0.09796 0.27349 0.80264 0.0
H465 H 0.04883 0.21974 0.7766 0.0
H466 H 0.02404 0.3029 0.65382 0.0
H467 H 0.99307 0.26022 0.70834 0.0
H468 H 0.01945 0.3284 0.72354 0.0
H469 H 0.34302 0.37513 0.5227 0.0
H470 H 0.38203 0.52016 0.62031 0.0
H471 H 0.30062 0.4966 0.68153 0.0
H472 H 0.21336 0.37279 0.51951 0.0
H473 H 0.24899 0.31605 0.49973 0.0
H474 H 0.18143 0.30882 0.53463 0.0
H475 H 0.32971 0.3071 0.62509 0.0
H476 H 0.27116 0.25952 0.62822 0.0
H477 H 0.30574 0.27411 0.56108 0.0
H478 H 0.15693 0.15168 0.54141 0.0
C479 C 0.1683 0.22202 0.59186 0.0
Dy480 Dy 0.04877 0.02712 0.46133 0.0
C481 C 0.89463 0.95655 0.62448 0.0
C482 C 0.11116 0.092 0.39088 0.0
Dy483 Dy 0.96981 1.00892 0.55445 0.0
O484 O 0.1245 0.04566 0.4058 0.0
O485 O 0.06211 0.1002 0.41017 0.0
O486 O 0.09223 0.95583 0.4804 0.0
O487 O 0.05882 1.0003 0.54695 0.0
C488 C 0.08202 0.95873 0.53431 0.0
C489 C 0.94003 0.07839 0.48064 0.0
O490 O 0.01822 0.07559 0.60207 0.0
O491 O 0.07047 0.09644 0.52154 0.0
O492 O 0.88202 0.98761 0.58499 0.0
O493 O 0.9485 0.957 0.62837 0.0
O494 O 0.93297 0.08393 0.53471 0.0
O495 O 0.96015 0.03513 0.46865 0.0
O496 O 0.99758 0.96076 0.41575 0.0
O497 O 0.95932 0.93328 0.50137 0.0
C498 C 0.05633 0.10725 0.57455 0.0
C499 C 0.96721 0.92492 0.44652 0.0
Dy500 Dy 0.56186 0.03306 0.04176 0.0
C501 C 0.37516 0.9356 0.93404 0.0
C502 C 0.64892 0.09898 0.08382 0.0
Dy503 Dy 0.46285 0.99916 0.97877 0.0
O504 O 0.64117 0.04782 0.09167 0.0
O505 O 0.609 0.11359 0.05386 0.0
O506 O 0.55866 0.95707 0.08966 0.0
O507 O 0.48269 0.98395 0.06645 0.0
C508 C 0.50485 0.94499 0.08713 0.0
C509 C 0.51975 0.08733 0.93349 0.0
O510 O 0.42223 0.04979 0.04156 0.0
O511 O 0.50522 0.0893 0.07819 0.0
O512 O 0.38411 0.98685 0.92754 0.0
O513 O 0.41423 0.9196 0.96414 0.0
O514 O 0.46597 0.07539 0.93159 0.0
O515 O 0.54202 0.04818 0.9538 0.0
O516 O 0.60255 0.98082 0.98171 0.0
O517 O 0.51927 0.93962 0.94734 0.0
C518 C 0.45068 0.0869 0.07264 0.0
C519 C 0.57379 0.94188 0.95362 0.0
Dy520 Dy 0.52067 0.46573 0.47873 0.0
C521 C 0.42863 0.63833 0.57488 0.0
C522 C 0.59302 0.39647 0.44218 0.0
Dy523 Dy 0.49986 0.56766 0.539 0.0
O524 O 0.5412 0.39477 0.42578 0.0
O525 O 0.60472 0.43567 0.47756 0.0
O526 O 0.43035 0.43206 0.48538 0.0
O527 O 0.46456 0.48547 0.54738 0.0
C528 C 0.41948 0.46121 0.52963 0.0
C529 C 0.60112 0.57183 0.48805 0.0
O530 O 0.53044 0.52492 0.61462 0.0
O531 O 0.55248 0.44905 0.56568 0.0
O532 O 0.48025 0.63918 0.59162 0.0
O533 O 0.41643 0.59908 0.53969 0.0
O534 O 0.59046 0.60075 0.53252 0.0
O535 O 0.55583 0.54803 0.47029 0.0
O536 O 0.48913 0.50779 0.40323 0.0
O537 O 0.46727 0.58367 0.45222 0.0
C538 C 0.55152 0.47795 0.61306 0.0
C539 C 0.46787 0.55462 0.40493 0.0
Dy540 Dy 0.02244 0.47347 0.03852 0.0
C541 C 0.93678 0.63532 0.93216 0.0
C542 C 0.08591 0.39594 0.06748 0.0
Dy543 Dy 0.99762 0.56198 0.97635 0.0
O544 O 0.04309 0.40947 0.09668 0.0
O545 O 0.09302 0.42382 0.02224 0.0
O546 O 0.95659 0.48579 0.10491 0.0
O547 O 1.00155 0.55266 0.06787 0.0
C548 C 0.96231 0.5377 0.10241 0.0
C549 C 0.05759 0.49674 0.91391 0.0
O550 O 0.07345 0.60659 0.01691 0.0
O551 O 0.10141 0.5299 0.05332 0.0
O552 O 0.98114 0.61865 0.90884 0.0
O553 O 0.92768 0.61454 0.98138 0.0
O554 O 0.06564 0.54853 0.91261 0.0
O555 O 0.01725 0.48268 0.94741 0.0
O556 O 0.94546 0.42962 1.00017 0.0
O557 O 0.91718 0.50664 0.96531 0.0
C558 C 0.111 0.58181 0.04361 0.0
C559 C 0.90753 0.45473 0.97476 0.0
loop_
_geom_bond_atom_site_label_1
_geom_bond_atom_site_label_2
_geom_bond_distance
_geom_bond_site_symmetry_2
_ccdc_geom_bond_type
C0 C1 1.391 . S
C0 C4 1.391 . S
C0 H42 0.948 . S
C1 C0 1.391 . S
C1 C2 1.391 . S
C2 C1 1.391 . S
C2 H58 0.947 . S
C2 C59 1.392 . S
C3 C4 1.391 . S
C3 C7 1.397 . S
C3 C59 1.419 . S
C4 C0 1.391 . S
C4 C3 1.391 . S
C4 C5 1.399 . S
C5 C4 1.399 . S
C5 C8 1.396 . S
C5 C17 1.453 . S
C5 C18 1.684 . S
H6 C30 0.948 . S
C7 C3 1.397 . S
C7 C8 1.394 . S
C7 C26 1.723 . S
C8 C5 1.396 . S
C8 C7 1.394 . S
C8 C38 1.723 . S
H9 C32 0.947 . S
H10 C33 0.948 . S
H11 C39 0.982 . S
H12 C40 0.979 . S
H13 C40 0.980 . S
H14 C40 0.983 . S
H15 C39 0.979 . S
H16 C39 0.977 . S
C17 C5 1.453 . S
C17 H46 0.982 . S
C17 H47 0.979 . S
C17 H48 0.977 . S
C18 C5 1.684 . S
C18 H43 0.979 . S
C18 H44 0.980 . S
C18 H45 0.983 . S
C19 C20 1.391 . S
C19 C24 1.391 . S
C19 H49 0.948 . S
C20 C19 1.391 . S
C20 C21 1.391 . S
C21 C20 1.391 . S
C21 C22 1.392 . S
C21 H50 0.947 . S
C22 C21 1.392 . S
C22 C23 1.419 . S
C22 H51 0.948 . S
C23 C22 1.419 . S
C23 C24 1.391 . S
C23 C27 1.397 . S
C24 C19 1.391 . S
C24 C23 1.391 . S
C24 C25 1.399 . S
C25 C24 1.399 . S
C25 C26 1.396 . S
C25 C28 1.453 . S
C25 C29 1.684 . S
C26 C7 1.723 . S
C26 C25 1.396 . S
C26 C27 1.394 . S
C27 C23 1.397 . S
C27 C26 1.394 . S
C27 C37 1.723 . S
C28 C25 1.453 . S
C28 H52 0.982 . S
C28 H53 0.979 . S
C28 H54 0.977 . S
C29 C25 1.684 . S
C29 H55 0.979 . S
C29 H56 0.980 . S
C29 H57 0.983 . S
C30 H6 0.948 . S
C30 C31 1.391 . S
C30 C35 1.391 . S
C31 C30 1.391 . S
C31 C32 1.391 . S
C32 H9 0.947 . S
C32 C31 1.391 . S
C32 C33 1.392 . S
C33 H10 0.948 . S
C33 C32 1.392 . S
C33 C34 1.419 . S
C34 C33 1.419 . S
C34 C35 1.391 . S
C34 C38 1.397 . S
C35 C30 1.391 . S
C35 C34 1.391 . S
C35 C36 1.399 . S
C36 C35 1.399 . S
C36 C37 1.396 . S
C36 C39 1.453 . S
C36 C40 1.684 . S
C37 C27 1.723 . S
C37 C36 1.396 . S
C37 C38 1.394 . S
C38 C8 1.723 . S
C38 C34 1.397 . S
C38 C37 1.394 . S
C39 H11 0.982 . S
C39 H15 0.979 . S
C39 H16 0.977 . S
C39 C36 1.453 . S
C40 H12 0.979 . S
C40 H13 0.980 . S
C40 H14 0.983 . S
C40 C36 1.684 . S
H41 C59 0.948 . S
H42 C0 0.948 . S
H43 C18 0.979 . S
H44 C18 0.980 . S
H45 C18 0.983 . S
H46 C17 0.982 . S
H47 C17 0.979 . S
H48 C17 0.977 . S
H49 C19 0.948 . S
H50 C21 0.947 . S
H51 C22 0.948 . S
H52 C28 0.982 . S
H53 C28 0.979 . S
H54 C28 0.977 . S
H55 C29 0.979 . S
H56 C29 0.980 . S
H57 C29 0.983 . S
H58 C2 0.947 . S
C59 C2 1.392 . S
C59 C3 1.419 . S
C59 H41 0.948 . S
C60 C61 1.391 . S
C60 C64 1.391 . S
C60 H102 0.948 . S
C61 C60 1.391 . S
C61 C62 1.391 . S
C62 C61 1.391 . S
C62 H118 0.947 . S
C62 C119 1.392 . S
C63 C64 1.391 . S
C63 C67 1.397 . S
C63 C119 1.419 . S
C64 C60 1.391 . S
C64 C63 1.391 . S
C64 C65 1.399 . S
C65 C64 1.399 . S
C65 C68 1.396 . S
C65 C77 1.453 . S
C65 C78 1.684 . S
H66 C90 0.948 . S
C67 C63 1.397 . S
C67 C68 1.394 . S
C67 C86 1.723 . S
C68 C65 1.396 . S
C68 C67 1.394 . S
C68 C98 1.723 . S
H69 C92 0.947 . S
H70 C93 0.948 . S
H71 C99 0.982 . S
H72 C100 0.979 . S
H73 C100 0.980 . S
H74 C100 0.983 . S
H75 C99 0.979 . S
H76 C99 0.977 . S
C77 C65 1.453 . S
C77 H106 0.982 . S
C77 H107 0.979 . S
C77 H108 0.977 . S
C78 C65 1.684 . S
C78 H103 0.979 . S
C78 H104 0.980 . S
C78 H105 0.983 . S
C79 C80 1.391 . S
C79 C84 1.391 . S
C79 H109 0.948 . S
C80 C79 1.391 . S
C80 C81 1.391 . S
C81 C80 1.391 . S
C81 C82 1.392 . S
C81 H110 0.947 . S
C82 C81 1.392 . S
C82 C83 1.419 . S
C82 H111 0.948 . S
C83 C82 1.419 . S
C83 C84 1.391 . S
C83 C87 1.397 . S
C84 C79 1.391 . S
C84 C83 1.391 . S
C84 C85 1.399 . S
C85 C84 1.399 . S
C85 C86 1.396 . S
C85 C88 1.453 . S
C85 C89 1.684 . S
C86 C67 1.723 . S
C86 C85 1.396 . S
C86 C87 1.394 . S
C87 C83 1.397 . S
C87 C86 1.394 . S
C87 C97 1.723 . S
C88 C85 1.453 . S
C88 H112 0.982 . S
C88 H113 0.979 1_565 S
C88 H114 0.977 . S
C89 C85 1.684 . S
C89 H115 0.979 . S
C89 H116 0.980 . S
C89 H117 0.983 . S
C90 H66 0.948 . S
C90 C91 1.391 . S
C90 C95 1.391 . S
C91 C90 1.391 . S
C91 C92 1.391 . S
C92 H69 0.947 . S
C92 C91 1.391 . S
C92 C93 1.392 . S
C93 H70 0.948 . S
C93 C92 1.392 . S
C93 C94 1.419 . S
C94 C93 1.419 . S
C94 C95 1.391 . S
C94 C98 1.397 . S
C95 C90 1.391 . S
C95 C94 1.391 . S
C95 C96 1.399 . S
C96 C95 1.399 . S
C96 C97 1.396 . S
C96 C99 1.453 . S
C96 C100 1.684 . S
C97 C87 1.723 . S
C97 C96 1.396 . S
C97 C98 1.394 . S
C98 C68 1.723 . S
C98 C94 1.397 . S
C98 C97 1.394 . S
C99 H71 0.982 . S
C99 H75 0.979 . S
C99 H76 0.977 . S
C99 C96 1.453 . S
C100 H72 0.979 . S
C100 H73 0.980 . S
C100 H74 0.983 . S
C100 C96 1.684 . S
H101 C119 0.948 . S
H102 C60 0.948 . S
H103 C78 0.979 . S
H104 C78 0.980 . S
H105 C78 0.983 . S
H106 C77 0.982 . S
H107 C77 0.979 . S
H108 C77 0.977 . S
H109 C79 0.948 . S
H110 C81 0.947 . S
H111 C82 0.948 . S
H112 C88 0.982 . S
H113 C88 0.979 1_545 S
H114 C88 0.977 . S
H115 C89 0.979 . S
H116 C89 0.980 . S
H117 C89 0.983 . S
H118 C62 0.947 . S
C119 C62 1.392 . S
C119 C63 1.419 . S
C119 H101 0.948 . S
C120 C121 1.391 . S
C120 C124 1.391 . S
C120 H162 0.948 . S
C121 C120 1.391 . S
C121 C122 1.391 . S
C122 C121 1.391 . S
C122 H178 0.947 . S
C122 C179 1.392 . S
C123 C124 1.391 . S
C123 C127 1.397 . S
C123 C179 1.419 . S
C124 C120 1.391 . S
C124 C123 1.391 . S
C124 C125 1.399 . S
C125 C124 1.399 . S
C125 C128 1.396 . S
C125 C137 1.453 . S
C125 C138 1.684 . S
H126 C150 0.948 . S
C127 C123 1.397 . S
C127 C128 1.394 . S
C127 C146 1.723 . S
C128 C125 1.396 . S
C128 C127 1.394 . S
C128 C158 1.723 . S
H129 C152 0.947 . S
H130 C153 0.948 . S
H131 C159 0.982 . S
H132 C160 0.979 . S
H133 C160 0.980 . S
H134 C160 0.983 . S
H135 C159 0.979 . S
H136 C159 0.977 . S
C137 C125 1.453 . S
C137 H166 0.982 . S
C137 H167 0.979 . S
C137 H168 0.977 . S
C138 C125 1.684 . S
C138 H163 0.979 . S
C138 H164 0.980 . S
C138 H165 0.983 . S
C139 C140 1.391 . S
C139 C144 1.391 . S
C139 H169 0.948 . S
C140 C139 1.391 . S
C140 C141 1.391 . S
C141 C140 1.391 . S
C141 C142 1.392 . S
C141 H170 0.947 . S
C142 C141 1.392 . S
C142 C143 1.419 . S
C142 H171 0.948 . S
C143 C142 1.419 . S
C143 C144 1.391 . S
C143 C147 1.397 . S
C144 C139 1.391 . S
C144 C143 1.391 . S
C144 C145 1.399 . S
C145 C144 1.399 . S
C145 C146 1.396 . S
C145 C148 1.453 . S
C145 C149 1.684 . S
C146 C127 1.723 . S
C146 C145 1.396 . S
C146 C147 1.394 . S
C147 C143 1.397 . S
C147 C146 1.394 . S
C147 C157 1.723 . S
C148 C145 1.453 . S
C148 H172 0.982 . S
C148 H173 0.979 . S
C148 H174 0.977 . S
C149 C145 1.684 . S
C149 H175 0.979 . S
C149 H176 0.980 . S
C149 H177 0.983 . S
C150 H126 0.948 . S
C150 C151 1.391 . S
C150 C155 1.391 . S
C151 C150 1.391 . S
C151 C152 1.391 . S
C152 H129 0.947 . S
C152 C151 1.391 . S
C152 C153 1.392 . S
C153 H130 0.948 . S
C153 C152 1.392 . S
C153 C154 1.419 . S
C154 C153 1.419 . S
C154 C155 1.391 . S
C154 C158 1.397 . S
C155 C150 1.391 . S
C155 C154 1.391 . S
C155 C156 1.399 . S
C156 C155 1.399 . S
C156 C157 1.396 . S
C156 C159 1.453 . S
C156 C160 1.684 . S
C157 C147 1.723 . S
C157 C156 1.396 . S
C157 C158 1.394 . S
C158 C128 1.723 . S
C158 C154 1.397 . S
C158 C157 1.394 . S
C159 H131 0.982 . S
C159 H135 0.979 . S
C159 H136 0.977 . S
C159 C156 1.453 . S
C160 H132 0.979 . S
C160 H133 0.980 . S
C160 H134 0.983 . S
C160 C156 1.684 . S
H161 C179 0.948 . S
H162 C120 0.948 . S
H163 C138 0.979 . S
H164 C138 0.980 . S
H165 C138 0.983 . S
H166 C137 0.982 . S
H167 C137 0.979 . S
H168 C137 0.977 . S
H169 C139 0.948 . S
H170 C141 0.947 . S
H171 C142 0.948 . S
H172 C148 0.982 . S
H173 C148 0.979 . S
H174 C148 0.977 . S
H175 C149 0.979 . S
H176 C149 0.980 . S
H177 C149 0.983 . S
H178 C122 0.947 . S
C179 C122 1.392 . S
C179 C123 1.419 . S
C179 H161 0.948 . S
C180 C181 1.391 . S
C180 C184 1.391 . S
C180 H222 0.948 . S
C181 C180 1.391 . S
C181 C182 1.391 . S
C182 C181 1.391 . S
C182 H238 0.947 . S
C182 C239 1.392 . S
C183 C184 1.391 . S
C183 C187 1.397 . S
C183 C239 1.419 . S
C184 C180 1.391 . S
C184 C183 1.391 . S
C184 C185 1.399 . S
C185 C184 1.399 . S
C185 C188 1.396 . S
C185 C197 1.453 . S
C185 C198 1.684 . S
H186 C210 0.948 . S
C187 C183 1.397 . S
C187 C188 1.394 . S
C187 C206 1.723 . S
C188 C185 1.396 . S
C188 C187 1.394 . S
C188 C218 1.723 . S
H189 C212 0.947 1_455 S
H190 C213 0.948 . S
H191 C219 0.982 . S
H192 C220 0.979 . S
H193 C220 0.980 . S
H194 C220 0.983 . S
H195 C219 0.979 . S
H196 C219 0.977 . S
C197 C185 1.453 . S
C197 H226 0.982 . S
C197 H227 0.979 1_655 S
C197 H228 0.977 . S
C198 C185 1.684 . S
C198 H223 0.979 . S
C198 H224 0.980 . S
C198 H225 0.983 . S
C199 C200 1.391 . S
C199 C204 1.391 . S
C199 H229 0.948 . S
C200 C199 1.391 . S
C200 C201 1.391 . S
C201 C200 1.391 . S
C201 C202 1.392 . S
C201 H230 0.947 . S
C202 C201 1.392 . S
C202 C203 1.419 . S
C202 H231 0.948 . S
C203 C202 1.419 . S
C203 C204 1.391 . S
C203 C207 1.397 . S
C204 C199 1.391 . S
C204 C203 1.391 . S
C204 C205 1.399 . S
C205 C204 1.399 . S
C205 C206 1.396 . S
C205 C208 1.453 . S
C205 C209 1.684 . S
C206 C187 1.723 . S
C206 C205 1.396 . S
C206 C207 1.394 . S
C207 C203 1.397 . S
C207 C206 1.394 . S
C207 C217 1.723 . S
C208 C205 1.453 . S
C208 H232 0.982 . S
C208 H233 0.979 . S
C208 H234 0.977 . S
C209 C205 1.684 . S
C209 H235 0.979 . S
C209 H236 0.980 . S
C209 H237 0.983 . S
C210 H186 0.948 . S
C210 C211 1.391 . S
C210 C215 1.391 . S
C211 C210 1.391 . S
C211 C212 1.391 . S
C212 H189 0.947 1_655 S
C212 C211 1.391 . S
C212 C213 1.392 . S
C213 H190 0.948 . S
C213 C212 1.392 . S
C213 C214 1.419 . S
C214 C213 1.419 . S
C214 C215 1.391 . S
C214 C218 1.397 . S
C215 C210 1.391 . S
C215 C214 1.391 . S
C215 C216 1.399 . S
C216 C215 1.399 . S
C216 C217 1.396 . S
C216 C219 1.453 . S
C216 C220 1.684 . S
C217 C207 1.723 . S
C217 C216 1.396 . S
C217 C218 1.394 . S
C218 C188 1.723 . S
C218 C214 1.397 . S
C218 C217 1.394 . S
C219 H191 0.982 . S
C219 H195 0.979 . S
C219 H196 0.977 . S
C219 C216 1.453 . S
C220 H192 0.979 . S
C220 H193 0.980 . S
C220 H194 0.983 . S
C220 C216 1.684 . S
H221 C239 0.948 . S
H222 C180 0.948 . S
H223 C198 0.979 . S
H224 C198 0.980 . S
H225 C198 0.983 . S
H226 C197 0.982 . S
H227 C197 0.979 1_455 S
H228 C197 0.977 . S
H229 C199 0.948 . S
H230 C201 0.947 . S
H231 C202 0.948 . S
H232 C208 0.982 . S
H233 C208 0.979 . S
H234 C208 0.977 . S
H235 C209 0.979 . S
H236 C209 0.980 . S
H237 C209 0.983 . S
H238 C182 0.947 . S
C239 C182 1.392 . S
C239 C183 1.419 . S
C239 H221 0.948 . S
C240 C241 1.391 . S
C240 C244 1.391 . S
C240 H282 0.948 . S
C241 C240 1.391 . S
C241 C242 1.391 . S
C242 C241 1.391 . S
C242 H298 0.947 . S
C242 C299 1.392 . S
C243 C244 1.391 . S
C243 C247 1.397 . S
C243 C299 1.419 . S
C244 C240 1.391 . S
C244 C243 1.391 . S
C244 C245 1.399 . S
C245 C244 1.399 . S
C245 C248 1.396 . S
C245 C257 1.453 . S
C245 C258 1.684 . S
H246 C270 0.948 . S
C247 C243 1.397 . S
C247 C248 1.394 . S
C247 C266 1.723 . S
C248 C245 1.396 . S
C248 C247 1.394 . S
C248 C278 1.723 . S
H249 C272 0.947 . S
H250 C273 0.948 . S
H251 C279 0.982 . S
H252 C280 0.979 . S
H253 C280 0.980 . S
H254 C280 0.983 . S
H255 C279 0.979 . S
H256 C279 0.977 . S
C257 C245 1.453 . S
C257 H286 0.982 . S
C257 H287 0.979 . S
C257 H288 0.977 . S
C258 C245 1.684 . S
C258 H283 0.979 . S
C258 H284 0.980 . S
C258 H285 0.983 . S
C259 C260 1.391 . S
C259 C264 1.391 . S
C259 H289 0.948 . S
C260 C259 1.391 . S
C260 C261 1.391 . S
C261 C260 1.391 . S
C261 C262 1.392 . S
C261 H290 0.947 . S
C262 C261 1.392 . S
C262 C263 1.419 . S
C262 H291 0.948 . S
C263 C262 1.419 . S
C263 C264 1.391 . S
C263 C267 1.397 . S
C264 C259 1.391 . S
C264 C263 1.391 . S
C264 C265 1.399 . S
C265 C264 1.399 . S
C265 C266 1.396 . S
C265 C268 1.453 . S
C265 C269 1.684 . S
C266 C247 1.723 . S
C266 C265 1.396 . S
C266 C267 1.394 . S
C267 C263 1.397 . S
C267 C266 1.394 . S
C267 C277 1.723 . S
C268 C265 1.453 . S
C268 H292 0.982 . S
C268 H293 0.979 . S
C268 H294 0.977 . S
C269 C265 1.684 . S
C269 H295 0.979 . S
C269 H296 0.980 . S
C269 H297 0.983 . S
C270 H246 0.948 . S
C270 C271 1.391 . S
C270 C275 1.391 . S
C271 C270 1.391 . S
C271 C272 1.391 . S
C272 H249 0.947 . S
C272 C271 1.391 . S
C272 C273 1.392 . S
C273 H250 0.948 . S
C273 C272 1.392 . S
C273 C274 1.419 . S
C274 C273 1.419 . S
C274 C275 1.391 . S
C274 C278 1.397 . S
C275 C270 1.391 . S
C275 C274 1.391 . S
C275 C276 1.399 . S
C276 C275 1.399 . S
C276 C277 1.396 . S
C276 C279 1.453 . S
C276 C280 1.684 . S
C277 C267 1.723 . S
C277 C276 1.396 . S
C277 C278 1.394 . S
C278 C248 1.723 . S
C278 C274 1.397 . S
C278 C277 1.394 . S
C279 H251 0.982 . S
C279 H255 0.979 . S
C279 H256 0.977 . S
C279 C276 1.453 . S
C280 H252 0.979 . S
C280 H253 0.980 . S
C280 H254 0.983 . S
C280 C276 1.684 . S
H281 C299 0.948 . S
H282 C240 0.948 . S
H283 C258 0.979 . S
H284 C258 0.980 . S
H285 C258 0.983 . S
H286 C257 0.982 . S
H287 C257 0.979 . S
H288 C257 0.977 . S
H289 C259 0.948 . S
H290 C261 0.947 . S
H291 C262 0.948 . S
H292 C268 0.982 . S
H293 C268 0.979 . S
H294 C268 0.977 . S
H295 C269 0.979 . S
H296 C269 0.980 . S
H297 C269 0.983 . S
H298 C242 0.947 . S
C299 C242 1.392 . S
C299 C243 1.419 . S
C299 H281 0.948 . S
C300 C301 1.391 . S
C300 C304 1.391 . S
C300 H342 0.948 . S
C301 C300 1.391 . S
C301 C302 1.391 . S
C302 C301 1.391 . S
C302 H358 0.947 . S
C302 C359 1.392 . S
C303 C304 1.391 . S
C303 C307 1.397 . S
C303 C359 1.419 . S
C304 C300 1.391 . S
C304 C303 1.391 . S
C304 C305 1.399 . S
C305 C304 1.399 . S
C305 C308 1.396 . S
C305 C317 1.453 . S
C305 C318 1.684 . S
H306 C330 0.948 . S
C307 C303 1.397 . S
C307 C308 1.394 . S
C307 C326 1.723 . S
C308 C305 1.396 . S
C308 C307 1.394 . S
C308 C338 1.723 . S
H309 C332 0.947 . S
H310 C333 0.948 . S
H311 C339 0.982 . S
H312 C340 0.979 . S
H313 C340 0.980 . S
H314 C340 0.983 . S
H315 C339 0.979 . S
H316 C339 0.977 . S
C317 C305 1.453 . S
C317 H346 0.982 . S
C317 H347 0.979 . S
C317 H348 0.977 . S
C318 C305 1.684 . S
C318 H343 0.979 . S
C318 H344 0.980 . S
C318 H345 0.983 . S
C319 C320 1.391 . S
C319 C324 1.391 . S
C319 H349 0.948 . S
C320 C319 1.391 . S
C320 C321 1.391 . S
C321 C320 1.391 . S
C321 C322 1.392 . S
C321 H350 0.947 . S
C322 C321 1.392 . S
C322 C323 1.419 . S
C322 H351 0.948 . S
C323 C322 1.419 . S
C323 C324 1.391 . S
C323 C327 1.397 . S
C324 C319 1.391 . S
C324 C323 1.391 . S
C324 C325 1.399 . S
C325 C324 1.399 . S
C325 C326 1.396 . S
C325 C328 1.453 . S
C325 C329 1.684 . S
C326 C307 1.723 . S
C326 C325 1.396 . S
C326 C327 1.394 . S
C327 C323 1.397 . S
C327 C326 1.394 . S
C327 C337 1.723 . S
C328 C325 1.453 . S
C328 H352 0.982 . S
C328 H353 0.979 1_545 S
C328 H354 0.977 . S
C329 C325 1.684 . S
C329 H355 0.979 . S
C329 H356 0.980 . S
C329 H357 0.983 . S
C330 H306 0.948 . S
C330 C331 1.391 . S
C330 C335 1.391 . S
C331 C330 1.391 . S
C331 C332 1.391 . S
C332 H309 0.947 . S
C332 C331 1.391 . S
C332 C333 1.392 . S
C333 H310 0.948 . S
C333 C332 1.392 . S
C333 C334 1.419 . S
C334 C333 1.419 . S
C334 C335 1.391 . S
C334 C338 1.397 . S
C335 C330 1.391 . S
C335 C334 1.391 . S
C335 C336 1.399 . S
C336 C335 1.399 . S
C336 C337 1.396 . S
C336 C339 1.453 . S
C336 C340 1.684 . S
C337 C327 1.723 . S
C337 C336 1.396 . S
C337 C338 1.394 . S
C338 C308 1.723 . S
C338 C334 1.397 . S
C338 C337 1.394 . S
C339 H311 0.982 . S
C339 H315 0.979 . S
C339 H316 0.977 . S
C339 C336 1.453 . S
C340 H312 0.979 . S
C340 H313 0.980 . S
C340 H314 0.983 . S
C340 C336 1.684 . S
H341 C359 0.948 . S
H342 C300 0.948 . S
H343 C318 0.979 . S
H344 C318 0.980 . S
H345 C318 0.983 . S
H346 C317 0.982 . S
H347 C317 0.979 . S
H348 C317 0.977 . S
H349 C319 0.948 . S
H350 C321 0.947 . S
H351 C322 0.948 . S
H352 C328 0.982 . S
H353 C328 0.979 1_565 S
H354 C328 0.977 . S
H355 C329 0.979 . S
H356 C329 0.980 . S
H357 C329 0.983 . S
H358 C302 0.947 . S
C359 C302 1.392 . S
C359 C303 1.419 . S
C359 H341 0.948 . S
C360 C361 1.391 . S
C360 C364 1.391 . S
C360 H402 0.948 . S
C361 C360 1.391 . S
C361 C362 1.391 . S
C362 C361 1.391 . S
C362 H418 0.947 . S
C362 C419 1.392 . S
C363 C364 1.391 . S
C363 C367 1.397 . S
C363 C419 1.419 . S
C364 C360 1.391 . S
C364 C363 1.391 . S
C364 C365 1.399 . S
C365 C364 1.399 . S
C365 C368 1.396 . S
C365 C377 1.453 . S
C365 C378 1.684 . S
H366 C390 0.948 . S
C367 C363 1.397 . S
C367 C368 1.394 . S
C367 C386 1.723 . S
C368 C365 1.396 . S
C368 C367 1.394 . S
C368 C398 1.723 . S
H369 C392 0.947 . S
H370 C393 0.948 . S
H371 C399 0.982 . S
H372 C400 0.979 1_556 S
H373 C400 0.980 . S
H374 C400 0.983 1_556 S
H375 C399 0.979 . S
H376 C399 0.977 . S
C377 C365 1.453 . S
C377 H406 0.982 . S
C377 H407 0.979 . S
C377 H408 0.977 . S
C378 C365 1.684 . S
C378 H403 0.979 . S
C378 H404 0.980 . S
C378 H405 0.983 . S
C379 C380 1.391 . S
C379 C384 1.391 . S
C379 H409 0.948 . S
C380 C379 1.391 . S
C380 C381 1.391 . S
C381 C380 1.391 . S
C381 C382 1.392 . S
C381 H410 0.947 . S
C382 C381 1.392 . S
C382 C383 1.419 . S
C382 H411 0.948 . S
C383 C382 1.419 . S
C383 C384 1.391 . S
C383 C387 1.397 . S
C384 C379 1.391 . S
C384 C383 1.391 . S
C384 C385 1.399 . S
C385 C384 1.399 . S
C385 C386 1.396 . S
C385 C388 1.453 . S
C385 C389 1.684 . S
C386 C367 1.723 . S
C386 C385 1.396 . S
C386 C387 1.394 . S
C387 C383 1.397 . S
C387 C386 1.394 . S
C387 C397 1.723 . S
C388 C385 1.453 . S
C388 H412 0.982 . S
C388 H413 0.979 . S
C388 H414 0.977 . S
C389 C385 1.684 . S
C389 H415 0.979 . S
C389 H416 0.980 . S
C389 H417 0.983 . S
C390 H366 0.948 . S
C390 C391 1.391 . S
C390 C395 1.391 . S
C391 C390 1.391 . S
C391 C392 1.391 . S
C392 H369 0.947 . S
C392 C391 1.391 . S
C392 C393 1.392 . S
C393 H370 0.948 . S
C393 C392 1.392 . S
C393 C394 1.419 . S
C394 C393 1.419 . S
C394 C395 1.391 . S
C394 C398 1.397 . S
C395 C390 1.391 . S
C395 C394 1.391 . S
C395 C396 1.399 . S
C396 C395 1.399 . S
C396 C397 1.396 . S
C396 C399 1.453 . S
C396 C400 1.684 . S
C397 C387 1.723 . S
C397 C396 1.396 . S
C397 C398 1.394 . S
C398 C368 1.723 . S
C398 C394 1.397 . S
C398 C397 1.394 . S
C399 H371 0.982 . S
C399 H375 0.979 . S
C399 H376 0.977 . S
C399 C396 1.453 . S
C400 H372 0.979 1_554 S
C400 H373 0.980 . S
C400 H374 0.983 1_554 S
C400 C396 1.684 . S
H401 C419 0.948 . S
H402 C360 0.948 . S
H403 C378 0.979 . S
H404 C378 0.980 . S
H405 C378 0.983 . S
H406 C377 0.982 . S
H407 C377 0.979 . S
H408 C377 0.977 . S
H409 C379 0.948 . S
H410 C381 0.947 . S
H411 C382 0.948 . S
H412 C388 0.982 . S
H413 C388 0.979 . S
H414 C388 0.977 . S
H415 C389 0.979 . S
H416 C389 0.980 . S
H417 C389 0.983 . S
H418 C362 0.947 . S
C419 C362 1.392 . S
C419 C363 1.419 . S
C419 H401 0.948 . S
C420 C421 1.391 . S
C420 C424 1.391 . S
C420 H462 0.948 . S
C421 C420 1.391 . S
C421 C422 1.391 . S
C422 C421 1.391 . S
C422 H478 0.947 . S
C422 C479 1.392 . S
C423 C424 1.391 . S
C423 C427 1.397 . S
C423 C479 1.419 . S
C424 C420 1.391 . S
C424 C423 1.391 . S
C424 C425 1.399 . S
C425 C424 1.399 . S
C425 C428 1.396 . S
C425 C437 1.453 . S
C425 C438 1.684 . S
H426 C450 0.948 . S
C427 C423 1.397 . S
C427 C428 1.394 . S
C427 C446 1.723 . S
C428 C425 1.396 . S
C428 C427 1.394 . S
C428 C458 1.723 . S
H429 C452 0.947 1_655 S
H430 C453 0.948 . S
H431 C459 0.982 . S
H432 C460 0.979 . S
H433 C460 0.980 . S
H434 C460 0.983 . S
H435 C459 0.979 . S
H436 C459 0.977 . S
C437 C425 1.453 . S
C437 H466 0.982 . S
C437 H467 0.979 1_455 S
C437 H468 0.977 . S
C438 C425 1.684 . S
C438 H463 0.979 . S
C438 H464 0.980 . S
C438 H465 0.983 . S
C439 C440 1.391 . S
C439 C444 1.391 . S
C439 H469 0.948 . S
C440 C439 1.391 . S
C440 C441 1.391 . S
C441 C440 1.391 . S
C441 C442 1.392 . S
C441 H470 0.947 . S
C442 C441 1.392 . S
C442 C443 1.419 . S
C442 H471 0.948 . S
C443 C442 1.419 . S
C443 C444 1.391 . S
C443 C447 1.397 . S
C444 C439 1.391 . S
C444 C443 1.391 . S
C444 C445 1.399 . S
C445 C444 1.399 . S
C445 C446 1.396 . S
C445 C448 1.453 . S
C445 C449 1.684 . S
C446 C427 1.723 . S
C446 C445 1.396 . S
C446 C447 1.394 . S
C447 C443 1.397 . S
C447 C446 1.394 . S
C447 C457 1.723 . S
C448 C445 1.453 . S
C448 H472 0.982 . S
C448 H473 0.979 . S
C448 H474 0.977 . S
C449 C445 1.684 . S
C449 H475 0.979 . S
C449 H476 0.980 . S
C449 H477 0.983 . S
C450 H426 0.948 . S
C450 C451 1.391 . S
C450 C455 1.391 . S
C451 C450 1.391 . S
C451 C452 1.391 . S
C452 H429 0.947 1_455 S
C452 C451 1.391 . S
C452 C453 1.392 . S
C453 H430 0.948 . S
C453 C452 1.392 . S
C453 C454 1.419 . S
C454 C453 1.419 . S
C454 C455 1.391 . S
C454 C458 1.397 . S
C455 C450 1.391 . S
C455 C454 1.391 . S
C455 C456 1.399 . S
C456 C455 1.399 . S
C456 C457 1.396 . S
C456 C459 1.453 . S
C456 C460 1.684 . S
C457 C447 1.723 . S
C457 C456 1.396 . S
C457 C458 1.394 . S
C458 C428 1.723 . S
C458 C454 1.397 . S
C458 C457 1.394 . S
C459 H431 0.982 . S
C459 H435 0.979 . S
C459 H436 0.977 . S
C459 C456 1.453 . S
C460 H432 0.979 . S
C460 H433 0.980 . S
C460 H434 0.983 . S
C460 C456 1.684 . S
H461 C479 0.948 . S
H462 C420 0.948 . S
H463 C438 0.979 . S
H464 C438 0.980 . S
H465 C438 0.983 . S
H466 C437 0.982 . S
H467 C437 0.979 1_655 S
H468 C437 0.977 . S
H469 C439 0.948 . S
H470 C441 0.947 . S
H471 C442 0.948 . S
H472 C448 0.982 . S
H473 C448 0.979 . S
H474 C448 0.977 . S
H475 C449 0.979 . S
H476 C449 0.980 . S
H477 C449 0.983 . S
H478 C422 0.947 . S
C479 C422 1.392 . S
C479 C423 1.419 . S
C479 H461 0.948 . S
Dy480 O484 2.398 . S
Dy480 O485 2.491 . S
Dy480 O486 2.403 1_545 S
Dy480 O487 2.664 1_545 S
Dy480 O491 2.326 . S
Dy480 O495 2.310 1_455 S
Dy480 O496 2.351 1_445 S
C481 O492 1.185 . S
C481 O493 1.355 . S
C482 O484 1.185 . S
C482 O485 1.355 . S
Dy483 O487 2.310 1_655 S
Dy483 O490 2.351 1_665 S
Dy483 O492 2.398 . S
Dy483 O493 2.491 . S
Dy483 O494 2.403 1_565 S
Dy483 O495 2.664 1_565 S
Dy483 O497 2.326 . S
O484 Dy480 2.398 . S
O484 C482 1.185 . S
O485 Dy480 2.491 . S
O485 C482 1.355 . S
O486 Dy480 2.403 1_565 S
O486 C488 1.254 . S
O487 Dy480 2.664 1_565 S
O487 Dy483 2.310 1_455 S
O487 C488 1.268 . S
C488 O486 1.254 . S
C488 O487 1.268 . S
C489 O494 1.254 . S
C489 O495 1.268 . S
O490 Dy483 2.351 1_445 S
O490 C498 1.249 . S
O491 Dy480 2.326 . S
O491 C498 1.267 . S
O492 C481 1.185 . S
O492 Dy483 2.398 . S
O493 C481 1.355 . S
O493 Dy483 2.491 . S
O494 Dy483 2.403 1_545 S
O494 C489 1.254 . S
O495 Dy480 2.310 1_655 S
O495 Dy483 2.664 1_545 S
O495 C489 1.268 . S
O496 Dy480 2.351 1_665 S
O496 C499 1.249 . S
O497 Dy483 2.326 . S
O497 C499 1.267 . S
C498 O490 1.249 . S
C498 O491 1.267 . S
C499 O496 1.249 . S
C499 O497 1.267 . S
Dy500 O504 2.398 . S
Dy500 O505 2.491 . S
Dy500 O506 2.403 1_545 S
Dy500 O507 2.664 1_545 S
Dy500 O511 2.326 . S
Dy500 O515 2.310 1_554 S
Dy500 O516 2.351 1_544 S
C501 O512 1.185 . S
C501 O513 1.355 . S
C502 O504 1.185 . S
C502 O505 1.355 . S
Dy503 O507 2.322 1_556 S
Dy503 O510 2.341 1_566 S
Dy503 O512 2.400 . S
Dy503 O513 2.508 . S
Dy503 O514 2.389 1_565 S
Dy503 O515 2.656 1_565 S
Dy503 O517 2.334 . S
O504 Dy500 2.398 . S
O504 C502 1.185 . S
O505 Dy500 2.491 . S
O505 C502 1.355 . S
O506 Dy500 2.403 1_565 S
O506 C508 1.254 . S
O507 Dy500 2.664 1_565 S
O507 Dy503 2.322 1_554 S
O507 C508 1.268 . S
C508 O506 1.254 . S
C508 O507 1.268 . S
C509 O514 1.254 . S
C509 O515 1.268 . S
O510 Dy503 2.341 1_544 S
O510 C518 1.249 . S
O511 Dy500 2.326 . S
O511 C518 1.267 . S
O512 C501 1.185 . S
O512 Dy503 2.400 . S
O513 C501 1.355 . S
O513 Dy503 2.508 . S
O514 Dy503 2.389 1_545 S
O514 C509 1.254 . S
O515 Dy500 2.310 1_556 S
O515 Dy503 2.656 1_545 S
O515 C509 1.268 . S
O516 Dy500 2.351 1_566 S
O516 C519 1.249 . S
O517 Dy503 2.334 . S
O517 C519 1.267 . S
C518 O510 1.249 . S
C518 O511 1.267 . S
C519 O516 1.249 . S
C519 O517 1.267 . S
Dy520 O524 2.398 . S
Dy520 O525 2.491 . S
Dy520 O526 2.403 . S
Dy520 O527 2.664 . S
Dy520 O531 2.326 . S
Dy520 O535 2.310 . S
Dy520 O536 2.351 . S
C521 O532 1.185 . S
C521 O533 1.355 . S
C522 O524 1.185 . S
C522 O525 1.355 . S
Dy523 O527 2.310 . S
Dy523 O530 2.351 . S
Dy523 O532 2.398 . S
Dy523 O533 2.491 . S
Dy523 O534 2.403 . S
Dy523 O535 2.664 . S
Dy523 O537 2.326 . S
O524 Dy520 2.398 . S
O524 C522 1.185 . S
O525 Dy520 2.491 . S
O525 C522 1.355 . S
O526 Dy520 2.403 . S
O526 C528 1.254 . S
O527 Dy520 2.664 . S
O527 Dy523 2.310 . S
O527 C528 1.268 . S
C528 O526 1.254 . S
C528 O527 1.268 . S
C529 O534 1.254 . S
C529 O535 1.268 . S
O530 Dy523 2.351 . S
O530 C538 1.249 . S
O531 Dy520 2.326 . S
O531 C538 1.267 . S
O532 C521 1.185 . S
O532 Dy523 2.398 . S
O533 C521 1.355 . S
O533 Dy523 2.491 . S
O534 Dy523 2.403 . S
O534 C529 1.254 . S
O535 Dy520 2.310 . S
O535 Dy523 2.664 . S
O535 C529 1.268 . S
O536 Dy520 2.351 . S
O536 C539 1.249 . S
O537 Dy523 2.326 . S
O537 C539 1.267 . S
C538 O530 1.249 . S
C538 O531 1.267 . S
C539 O536 1.249 . S
C539 O537 1.267 . S
Dy540 O544 2.398 . S
Dy540 O545 2.491 . S
Dy540 O546 2.403 1_455 S
Dy540 O547 2.664 1_455 S
Dy540 O551 2.326 . S
Dy540 O555 2.310 1_554 S
Dy540 O556 2.351 1_454 S
C541 O552 1.185 . S
C541 O553 1.355 . S
C542 O544 1.185 . S
C542 O545 1.355 . S
Dy543 O547 2.310 1_556 S
Dy543 O550 2.351 1_656 S
Dy543 O552 2.398 . S
Dy543 O553 2.491 . S
Dy543 O554 2.403 1_655 S
Dy543 O555 2.664 1_655 S
Dy543 O557 2.326 . S
O544 Dy540 2.398 . S
O544 C542 1.185 . S
O545 Dy540 2.491 . S
O545 C542 1.355 . S
O546 Dy540 2.403 1_655 S
O546 C548 1.254 . S
O547 Dy540 2.664 1_655 S
O547 Dy543 2.310 1_554 S
O547 C548 1.268 . S
C548 O546 1.254 . S
C548 O547 1.268 . S
C549 O554 1.254 . S
C549 O555 1.268 . S
O550 Dy543 2.351 1_454 S
O550 C558 1.249 . S
O551 Dy540 2.326 . S
O551 C558 1.267 . S
O552 C541 1.185 . S
O552 Dy543 2.398 . S
O553 C541 1.355 . S
O553 Dy543 2.491 . S
O554 Dy543 2.403 1_455 S
O554 C549 1.254 . S
O555 Dy540 2.310 1_556 S
O555 Dy543 2.664 1_455 S
O555 C549 1.268 . S
O556 Dy540 2.351 1_656 S
O556 C559 1.249 . S
O557 Dy543 2.326 . S
O557 C559 1.267 . S
C558 O550 1.249 . S
C558 O551 1.267 . S
C559 O556 1.249 . S
C559 O557 1.267 . S
C1 C482 2.067 . S
C80 C501 1.058 . S
C538 C140 2.015 . S
C211 C548 2.027 . S
C518 C31 2.670 . S
C488 C61 1.141 . S
C559 C151 1.603 . S
C529 C200 1.686 . S
C20 C542 2.394 . S
C509 C121 1.925 . S
C181 C499 1.983 . S
C91 C521 1.681 . S
C481 C260 2.133 . S
C320 C502 1.056 . S
C361 C539 2.033 . S
C451 C549 2.030 . S
C271 C519 2.830 . S
C489 C301 1.140 . S
C558 C380 1.578 . S
C528 C440 1.686 . S
C241 C541 2.213 . S
C508 C391 1.940 . S
C498 C421 1.979 . S
C331 C522 1.681 . S
