# Generated by pormake.
# Topology pyr, (3,6)-cn, num edge types: 1
# Building blocks:
#     Node 0, Type 0, BuildingBlock: PAMTOO_clean_linker_0, # of connection points: 3
#     Node 1, Type 0, BuildingBlock: PAMTOO_clean_linker_0, # of connection points: 3
#     Node 2, Type 0, BuildingBlock: PAMTOO_clean_linker_0, # of connection points: 3
#     Node 3, Type 0, BuildingBlock: PAMTOO_clean_linker_0, # of connection points: 3
#     Node 4, Type 0, BuildingBlock: PAMTOO_clean_linker_0, # of connection points: 3
#     Node 5, Type 0, BuildingBlock: PAMTOO_clean_linker_0, # of connection points: 3
#     Node 6, Type 0, BuildingBlock: PAMTOO_clean_linker_0, # of connection points: 3
#     Node 7, Type 0, BuildingBlock: PAMTOO_clean_linker_0, # of connection points: 3
#     Node 8, Type 1, BuildingBlock: BETDIP_clean_sbu_0, # of connection points: 6
#     Node 9, Type 1, BuildingBlock: BETDIP_clean_sbu_0, # of connection points: 6
#     Node 10, Type 1, BuildingBlock: BETDIP_clean_sbu_0, # of connection points: 6
#     Node 11, Type 1, BuildingBlock: BETDIP_clean_sbu_0, # of connection points: 6
#     Edge 12, Type (0, 1), BuildingBlock: TEMPAE_clean_linker_10, # of connection points: 2
#     Edge 13, Type (0, 1), BuildingBlock: TEMPAE_clean_linker_10, # of connection points: 2
#     Edge 14, Type (0, 1), BuildingBlock: TEMPAE_clean_linker_10, # of connection points: 2
#     Edge 15, Type (0, 1), BuildingBlock: TEMPAE_clean_linker_10, # of connection points: 2
#     Edge 16, Type (0, 1), BuildingBlock: TEMPAE_clean_linker_10, # of connection points: 2
#     Edge 17, Type (0, 1), BuildingBlock: TEMPAE_clean_linker_10, # of connection points: 2
#     Edge 18, Type (0, 1), BuildingBlock: TEMPAE_clean_linker_10, # of connection points: 2
#     Edge 19, Type (0, 1), BuildingBlock: TEMPAE_clean_linker_10, # of connection points: 2
#     Edge 20, Type (0, 1), BuildingBlock: TEMPAE_clean_linker_10, # of connection points: 2
#     Edge 21, Type (0, 1), BuildingBlock: TEMPAE_clean_linker_10, # of connection points: 2
#     Edge 22, Type (0, 1), BuildingBlock: TEMPAE_clean_linker_10, # of connection points: 2
#     Edge 23, Type (0, 1), BuildingBlock: TEMPAE_clean_linker_10, # of connection points: 2
#     Edge 24, Type (0, 1), BuildingBlock: TEMPAE_clean_linker_10, # of connection points: 2
#     Edge 25, Type (0, 1), BuildingBlock: TEMPAE_clean_linker_10, # of connection points: 2
#     Edge 26, Type (0, 1), BuildingBlock: TEMPAE_clean_linker_10, # of connection points: 2
#     Edge 27, Type (0, 1), BuildingBlock: TEMPAE_clean_linker_10, # of connection points: 2
#     Edge 28, Type (0, 1), BuildingBlock: TEMPAE_clean_linker_10, # of connection points: 2
#     Edge 29, Type (0, 1), BuildingBlock: TEMPAE_clean_linker_10, # of connection points: 2
#     Edge 30, Type (0, 1), BuildingBlock: TEMPAE_clean_linker_10, # of connection points: 2
#     Edge 31, Type (0, 1), BuildingBlock: TEMPAE_clean_linker_10, # of connection points: 2
#     Edge 32, Type (0, 1), BuildingBlock: TEMPAE_clean_linker_10, # of connection points: 2
#     Edge 33, Type (0, 1), BuildingBlock: TEMPAE_clean_linker_10, # of connection points: 2
#     Edge 34, Type (0, 1), BuildingBlock: TEMPAE_clean_linker_10, # of connection points: 2
#     Edge 35, Type (0, 1), BuildingBlock: TEMPAE_clean_linker_10, # of connection points: 2
# Relax obj value: 0.179
# Max RMSD: 0.284
# Mean RMSD: 0.150
data_MOF--net-pyr--node1-BETDIP_clean_sbu_0--node2-PAMTOO_clean_linker_0--edge1-TEMPAE_clean_linker_10
_symmetry_space_group_name_H-M    P1
_symmetry_Int_Tables_number       1
_symmetry_cell_setting            triclinic
loop_
_symmetry_equiv_pos_as_xyz
'x, y, z'
_cell_length_a     34.889512
_cell_length_b     39.84617
_cell_length_c     38.821287
_cell_angle_alpha  89.237133
_cell_angle_beta   93.626749
_cell_angle_gamma 108.33591
loop_
_atom_site_label
_atom_site_type_symbol
_atom_site_fract_x
_atom_site_fract_y
_atom_site_fract_z
_atom_type_partial_charge
H0 H 0.30965 0.25515 0.24085 0.0
H1 H 0.42848 0.27247 0.28957 0.0
H2 H 0.41511 0.31786 0.19068 0.0
H3 H 0.50394 0.29423 0.27134 0.0
C4 C 0.49738 0.29904 0.24364 0.0
O5 O 0.46626 0.31367 0.24103 0.0
H6 H 0.52515 0.31897 0.23492 0.0
C7 C 0.34224 0.26571 0.23996 0.0
C8 C 0.35909 0.28717 0.21219 0.0
C9 C 0.36697 0.2597 0.2678 0.0
C10 C 0.40904 0.27523 0.26754 0.0
C11 C 0.4263 0.29543 0.23939 0.0
C12 C 0.40144 0.30086 0.21155 0.0
H13 H 0.19473 0.84192 0.75612 0.0
H14 H 0.13749 0.77238 0.67098 0.0
H15 H 0.22951 0.7497 0.73704 0.0
H16 H 0.20057 0.75779 0.63879 0.0
C17 C 0.19598 0.73125 0.65059 0.0
O18 O 0.1797 0.72921 0.68235 0.0
H19 H 0.17375 0.7122 0.63272 0.0
C20 C 0.1906 0.81794 0.74145 0.0
C21 C 0.21424 0.79617 0.75094 0.0
C22 C 0.163 0.80997 0.71255 0.0
C23 C 0.15896 0.7794 0.69317 0.0
C24 C 0.18338 0.75812 0.7017 0.0
C25 C 0.21118 0.76659 0.7304 0.0
H26 H 0.71716 0.34226 0.93987 0.0
H27 H 0.62594 0.32935 0.85637 0.0
H28 H 0.72917 0.42336 0.86344 0.0
H29 H 0.64764 0.43115 0.84625 0.0
C30 C 0.63734 0.41063 0.82554 0.0
O31 O 0.66291 0.39004 0.82641 0.0
H32 H 0.60635 0.39346 0.83071 0.0
C33 C 0.70527 0.35211 0.9168 0.0
C34 C 0.72739 0.38525 0.90402 0.0
C35 C 0.66832 0.33154 0.90041 0.0
C36 C 0.6541 0.34461 0.86974 0.0
C37 C 0.67598 0.37783 0.85643 0.0
C38 C 0.71232 0.39803 0.87386 0.0
H39 H 0.89357 0.75643 0.4327 0.0
H40 H 0.89081 0.67275 0.36274 0.0
H41 H 0.98265 0.77433 0.35666 0.0
H42 H 0.95507 0.73651 0.28564 0.0
C43 C 0.94299 0.70903 0.29529 0.0
O44 O 0.95489 0.70864 0.33024 0.0
H45 H 0.90942 0.70158 0.29216 0.0
C46 C 0.90607 0.74705 0.4113 0.0
C47 C 0.93982 0.7702 0.39604 0.0
C48 C 0.88818 0.71197 0.39978 0.0
C49 C 0.90419 0.69979 0.37175 0.0
C50 C 0.93832 0.72198 0.35591 0.0
C51 C 0.95627 0.7572 0.36846 0.0
H52 H 0.66565 0.85781 0.84015 0.0
H53 H 0.67227 0.81299 0.94144 0.0
H54 H 0.73201 0.78446 0.85911 0.0
H55 H 0.68022 0.72691 0.90857 0.0
C56 C 0.69884 0.74087 0.93159 0.0
O57 O 0.7175 0.77599 0.92432 0.0
H58 H 0.67849 0.73894 0.95294 0.0
C59 C 0.67514 0.84014 0.85767 0.0
C60 C 0.69963 0.82139 0.84565 0.0
C61 C 0.66471 0.83754 0.89227 0.0
C62 C 0.678 0.81449 0.91428 0.0
C63 C 0.70134 0.79487 0.90206 0.0
C64 C 0.71198 0.79818 0.86776 0.0
H65 H 0.94006 0.26327 0.34078 0.0
H66 H 0.8917 0.34669 0.36344 0.0
H67 H 0.96692 0.3155 0.44012 0.0
H68 H 0.91877 0.35035 0.47791 0.0
C69 C 0.89956 0.34598 0.45339 0.0
O70 O 0.92461 0.35755 0.4265 0.0
H71 H 0.88327 0.31703 0.45149 0.0
C72 C 0.93759 0.28314 0.35851 0.0
C73 C 0.9567 0.2862 0.39186 0.0
C74 C 0.91342 0.30429 0.34822 0.0
C75 C 0.91071 0.33057 0.37073 0.0
C76 C 0.93065 0.33477 0.40354 0.0
C77 C 0.95389 0.31302 0.41386 0.0
H78 H 0.38169 0.75323 0.17225 0.0
H79 H 0.37822 0.67569 0.25098 0.0
H80 H 0.4702 0.77693 0.25889 0.0
H81 H 0.50097 0.72239 0.28938 0.0
C82 C 0.47186 0.70073 0.29091 0.0
O83 O 0.44043 0.71518 0.28892 0.0
H84 H 0.46848 0.68264 0.26848 0.0
C85 C 0.39483 0.74552 0.19588 0.0
C86 C 0.42876 0.76984 0.21334 0.0
C87 C 0.37645 0.71155 0.20903 0.0
C88 C 0.39204 0.70174 0.2405 0.0
C89 C 0.42583 0.72524 0.25845 0.0
C90 C 0.44394 0.75922 0.24493 0.0
H91 H 0.10811 0.31886 0.80149 0.0
H92 H 0.19774 0.42158 0.79029 0.0
H93 H 0.18866 0.33921 0.71813 0.0
H94 H 0.26972 0.37899 0.74189 0.0
C95 C 0.26711 0.40608 0.74276 0.0
O96 O 0.2272 0.40455 0.73546 0.0
H97 H 0.27662 0.41686 0.76935 0.0
C98 C 0.13234 0.33679 0.78784 0.0
C99 C 0.146 0.32437 0.75807 0.0
C100 C 0.15146 0.37199 0.8007 0.0
C101 C 0.18317 0.39441 0.78213 0.0
C102 C 0.19647 0.38254 0.75269 0.0
C103 C 0.17792 0.34787 0.74095 0.0
Tb104 Tb 1.00338 0.03757 0.58279 0.0
Tb105 Tb 0.08625 0.06071 0.56487 0.0
C106 C 0.92803 1.01028 0.58494 0.0
C107 C 0.90265 0.98014 0.6039 0.0
C108 C 0.86356 0.96142 0.59064 0.0
C109 C 0.83855 0.93401 0.60965 0.0
C110 C 0.8522 0.92511 0.64238 0.0
C111 C 0.89205 0.94331 0.65488 0.0
C112 C 0.91707 0.97032 0.63573 0.0
C113 C 0.04991 0.08955 0.62394 0.0
C114 C 0.05992 1.00417 0.62352 0.0
C115 C 0.16165 0.08381 0.56013 0.0
C116 C 0.18807 0.10065 0.53219 0.0
C117 C 0.20201 0.13764 0.52902 0.0
C118 C 0.22505 0.15342 0.50153 0.0
C119 C 0.23481 0.13256 0.47671 0.0
C120 C 0.22195 0.09565 0.48047 0.0
C121 C 0.19898 0.07986 0.50797 0.0
C122 C 0.03898 1.00819 0.52443 0.0
C123 C 0.0304 0.09508 0.52356 0.0
O124 O 0.94887 1.00259 0.56117 0.0
O125 O 0.94958 0.03728 0.60391 0.0
O126 O 0.05148 0.08709 0.59154 0.0
O127 O 0.02144 0.06218 0.63391 0.0
O128 O 0.02242 0.99801 0.61106 0.0
O129 O 0.08886 1.03204 0.61326 0.0
O130 O 0.14076 0.10216 0.57314 0.0
O131 O 0.1401 0.05067 0.5554 0.0
O132 O 0.03835 1.01127 0.55675 0.0
O133 O 0.06731 1.0353 0.51395 0.0
O134 O 0.06837 0.09724 0.53109 0.0
O135 O 1.00045 0.07212 0.53891 0.0
H136 H 0.85215 0.9684 0.56588 0.0
H137 H 0.80833 0.92022 0.59895 0.0
H138 H 0.90355 0.93778 0.68015 0.0
H139 H 0.94735 0.98424 0.64629 0.0
H140 H 0.19452 0.15443 0.54744 0.0
H141 H 0.23426 0.18193 0.4992 0.0
H142 H 0.22957 0.07892 0.46207 0.0
H143 H 0.1893 0.05131 0.50993 0.0
Tb144 Tb 0.58805 0.07089 0.07174 0.0
Tb145 Tb 0.50098 0.03805 0.05125 0.0
C146 C 0.65766 0.11375 0.08466 0.0
C147 C 0.67723 0.14578 0.10555 0.0
C148 C 0.70847 0.17306 0.09187 0.0
C149 C 0.73119 0.20167 0.1126 0.0
C150 C 0.72323 0.20333 0.1475 0.0
C151 C 0.69012 0.17701 0.16045 0.0
C152 C 0.66723 0.14854 0.13961 0.0
C153 C 0.55329 1.01067 0.10316 0.0
C154 C 0.52157 0.09626 0.10719 0.0
C155 C 0.43307 0.99364 1.03595 0.0
C156 C 0.41818 0.96855 1.0071 0.0
C157 C 0.38514 0.93807 1.01087 0.0
C158 C 0.37053 0.91435 0.98328 0.0
C159 C 0.38879 0.92086 0.95153 0.0
C160 C 0.42268 0.95095 0.94824 0.0
C161 C 0.43729 0.97456 0.97582 0.0
C162 C 0.53592 0.09752 1.01869 0.0
C163 C 0.56803 1.01272 1.01577 0.0
O164 O 0.63373 0.11693 0.05842 0.0
O165 O 0.64292 0.08425 0.10143 0.0
O166 O 0.53765 1.03487 0.09637 0.0
O167 O 0.59036 1.02103 0.09429 0.0
O168 O 0.55949 0.10359 0.09882 0.0
O169 O 0.49295 0.06776 0.09518 0.0
O170 O 0.46033 0.98712 0.05725 0.0
O171 O 0.44254 1.02711 1.02789 0.0
O172 O 0.55132 0.07339 1.02636 0.0
O173 O 0.49868 0.08729 1.02704 0.0
O174 O 0.52949 1.00692 1.02141 0.0
O175 O 0.59698 0.03958 1.02999 0.0
H176 H 0.71628 0.17157 0.06548 0.0
H177 H 0.75594 0.22183 0.10163 0.0
H178 H 0.68325 0.17721 0.18724 0.0
H179 H 0.64289 0.12797 0.15061 0.0
H180 H 0.37032 0.93289 1.03496 0.0
H181 H 0.34412 0.89156 0.98642 0.0
H182 H 0.43758 0.95641 0.9242 0.0
H183 H 0.46322 0.99776 0.97259 0.0
Tb184 Tb 0.56826 0.59075 0.5741 0.0
Tb185 Tb 0.55749 0.52337 0.53815 0.0
C186 C 0.55696 0.64571 0.59628 0.0
C187 C 0.52063 0.65389 0.60568 0.0
C188 C 0.48286 0.63724 0.58849 0.0
C189 C 0.44863 0.64551 0.59709 0.0
C190 C 0.45143 0.67054 0.62308 0.0
C191 C 0.4891 0.68662 0.64079 0.0
C192 C 0.52346 0.67839 0.63208 0.0
C193 C 0.6012 0.54763 0.6087 0.0
C194 C 0.48718 0.52548 0.58209 0.0
C195 C 0.5668 0.46744 0.51628 0.0
C196 C 0.60101 0.45799 0.50391 0.0
C197 C 0.64097 0.47776 0.51418 0.0
C198 C 0.6733 0.46805 0.5031 0.0
C199 C 0.66617 0.43806 0.48203 0.0
C200 C 0.62612 0.41846 0.47155 0.0
C201 C 0.59377 0.4285 0.48229 0.0
C202 C 0.52338 0.56606 0.50435 0.0
C203 C 0.63871 0.58885 0.52986 0.0
O204 O 0.55854 0.63918 0.56355 0.0
O205 O 0.5681 0.62334 0.61625 0.0
O206 O 0.56796 0.53931 0.59098 0.0
O207 O 0.6168 0.58183 0.60819 0.0
O208 O 0.50451 0.56028 0.5824 0.0
O209 O 0.50475 0.50445 0.56829 0.0
O210 O 0.56991 0.47614 0.54894 0.0
O211 O 0.5534 0.48877 0.49666 0.0
O212 O 0.55715 0.57461 0.52128 0.0
O213 O 0.50798 0.53186 0.50507 0.0
O214 O 0.62075 0.55413 0.52847 0.0
O215 O 0.62187 0.60985 0.54478 0.0
H216 H 0.47981 0.61801 0.5682 0.0
H217 H 0.41989 0.63228 0.58337 0.0
H218 H 0.49218 0.70614 0.6608 0.0
H219 H 0.55231 0.69137 0.64574 0.0
H220 H 0.6472 0.50022 0.53138 0.0
H221 H 0.70382 0.4833 0.51199 0.0
H222 H 0.61987 0.3953 0.45521 0.0
H223 H 0.56311 0.41295 0.47414 0.0
Tb224 Tb 0.05515 0.56307 1.03382 0.0
Tb225 Tb 0.05527 0.5049 0.08263 0.0
C226 C 0.03348 0.60647 0.99619 0.0
C227 C 0.99871 0.62007 0.99447 0.0
C228 C 0.95899 0.59715 0.99645 0.0
C229 C 0.9262 0.61018 0.99274 0.0
C230 C 0.93245 0.64646 0.98741 0.0
C231 C 0.97239 0.66944 0.98658 0.0
C232 C 1.00516 0.65631 0.98991 0.0
C233 C 0.12663 0.57021 0.0661 0.0
C234 C 0.02578 0.56511 0.11089 0.0
C235 C 0.0754 0.46112 0.121 0.0
C236 C 0.09956 0.43692 0.11946 0.0
C237 C 0.13418 0.44514 0.10036 0.0
C238 C 0.1595 0.42394 0.10288 0.0
C239 C 0.15053 0.39418 0.12449 0.0
C240 C 0.11458 0.38505 0.14197 0.0
C241 C 0.08944 0.4063 0.13955 0.0
C242 C 0.98439 0.49922 0.0503 0.0
C243 C 0.08202 0.50103 1.00468 0.0
O244 O 0.02541 0.57306 0.98834 0.0
O245 O 0.05901 0.61594 1.02313 0.0
O246 O 0.0924 0.5585 0.07839 0.0
O247 O 0.12119 0.58123 1.03514 0.0
O248 O 0.02267 0.57414 0.07789 0.0
O249 O 0.04158 0.5398 0.11963 0.0
O250 O 0.09551 0.49492 0.12048 0.0
O251 O 0.04153 0.45309 0.10181 0.0
O252 O 0.01864 0.50987 1.03818 0.0
O253 O 0.98875 0.48901 0.08181 0.0
O254 O 0.08199 0.48958 1.03709 0.0
O255 O 0.07061 0.52908 0.99678 0.0
H256 H 0.95313 0.56905 1.00024 0.0
H257 H 0.89592 0.59163 0.99313 0.0
H258 H 0.97838 0.69761 0.98321 0.0
H259 H 0.03557 0.67445 0.9886 0.0
H260 H 0.14244 0.46863 0.08452 0.0
H261 H 0.18703 0.43182 0.08922 0.0
H262 H 0.10642 0.36194 0.15831 0.0
H263 H 0.06271 0.39941 0.15428 0.0
C264 C 0.36459 0.21446 0.31381 0.0
C265 C 0.34869 0.23964 0.29834 0.0
C266 C 0.34775 0.19569 0.34298 0.0
C267 C 0.31436 0.20242 0.35699 0.0
C268 C 0.29824 0.22783 0.34148 0.0
C269 C 0.31563 0.24614 0.31238 0.0
C270 C 0.3656 0.16867 0.35877 0.0
C271 C 0.26275 0.23584 0.35575 0.0
C272 C 0.24422 0.13474 0.41322 0.0
C273 C 0.25703 0.14922 0.44632 0.0
C274 C 0.26337 0.15125 0.38398 0.0
C275 C 0.29609 0.18302 0.38793 0.0
C276 C 0.30983 0.1973 0.42133 0.0
C277 C 0.2901 0.18024 0.45014 0.0
C278 C 0.24776 0.13529 0.34876 0.0
C279 C 0.34475 0.23106 0.42657 0.0
H280 H 0.39 0.20923 0.30288 0.0
H281 H 0.30371 0.26605 0.30091 0.0
H282 H 0.37598 0.17575 0.38609 0.0
H283 H 0.34214 0.14233 0.35867 0.0
H284 H 0.39156 0.16659 0.34476 0.0
H285 H 0.25365 0.25618 0.34047 0.0
H286 H 0.2364 0.21141 0.35603 0.0
H287 H 0.27047 0.24535 0.38282 0.0
H288 H 0.21836 0.11102 0.41005 0.0
H289 H 0.30047 0.19126 0.4757 0.0
H290 H 0.27286 0.1317 0.33462 0.0
H291 H 0.2352 0.15351 0.33338 0.0
H292 H 0.22377 0.10933 0.35028 0.0
H293 H 0.37166 0.22878 0.41423 0.0
H294 H 0.35308 0.23768 0.45432 0.0
H295 H 0.33669 0.25331 0.414 0.0
C296 C 0.28289 0.80714 0.78118 0.0
C297 C 0.2422 0.80536 0.78219 0.0
C298 C 0.31066 0.82134 0.80917 0.0
C299 C 0.29725 0.83412 0.8385 0.0
C300 C 0.25568 0.83011 0.84044 0.0
C301 C 0.22868 0.81561 0.81234 0.0
C302 C 0.35463 0.82462 0.80645 0.0
C303 C 0.24003 0.8433 0.87124 0.0
C304 C 0.35722 0.86103 0.92409 0.0
C305 C 0.37043 0.89797 0.92118 0.0
C306 C 0.33568 0.83949 0.89641 0.0
C307 C 0.32667 0.8554 0.86544 0.0
C308 C 0.34169 0.89259 0.86185 0.0
C309 C 0.36352 0.9134 0.88972 0.0
C310 C 0.32084 0.7999 0.90093 0.0
C311 C 0.33243 0.91066 0.82937 0.0
H312 H 0.29341 0.79918 0.75789 0.0
H313 H 0.19703 0.81356 0.8134 0.0
H314 H 0.3721 0.85263 0.80177 0.0
H315 H 0.36742 0.81661 0.83092 0.0
H316 H 0.35899 0.80828 0.78499 0.0
H317 H 0.20648 0.83576 0.86979 0.0
H318 H 0.25011 0.83268 0.89548 0.0
H319 H 0.25254 0.87257 0.87276 0.0
H320 H 0.36302 0.84903 0.94827 0.0
H321 H 0.37336 0.94195 0.88747 0.0
H322 H 0.32641 0.78635 0.87787 0.0
H323 H 0.28771 0.79101 0.90372 0.0
H324 H 0.33567 0.79145 0.92411 0.0
H325 H 0.34022 0.89856 0.80634 0.0
H326 H 0.34916 0.93944 0.82963 0.0
H327 H 0.29953 0.90711 0.82655 0.0
C328 C 0.61209 0.45253 0.78846 0.0
C329 C 0.63523 0.42936 0.79116 0.0
C330 C 0.60821 0.47054 0.75763 0.0
C331 C 0.62794 0.46545 0.72825 0.0
C332 C 0.65133 0.44195 0.73065 0.0
C333 C 0.65465 0.42415 0.76197 0.0
C334 C 0.58286 0.4951 0.75655 0.0
C335 C 0.67282 0.43561 0.70007 0.0
C336 C 0.58506 0.49059 0.64189 0.0
C337 C 0.61081 0.52512 0.63696 0.0
C338 C 0.59116 0.4704 0.67066 0.0
C339 C 0.62389 0.4849 0.69531 0.0
C340 C 0.65088 0.51925 0.68968 0.0
C341 C 0.64402 0.53887 0.66069 0.0
C342 C 0.56153 0.43402 0.67537 0.0
C343 C 0.68619 0.5359 0.71504 0.0
H344 H 0.59683 0.45654 0.81079 0.0
H345 H 0.67244 0.40621 0.76348 0.0
H346 H 0.60163 0.52221 0.74993 0.0
H347 H 0.55801 0.48634 0.73615 0.0
H348 H 0.56943 0.4962 0.78155 0.0
H349 H 0.68982 0.41665 0.70592 0.0
H350 H 0.6506 0.42515 0.678 0.0
H351 H 0.69427 0.46095 0.69171 0.0
H352 H 0.55927 0.47967 0.62377 0.0
H353 H 0.66415 0.56546 0.65714 0.0
H354 H 0.54423 0.434 0.69839 0.0
H355 H 0.57789 0.41443 0.67998 0.0
H356 H 0.53976 0.42532 0.65262 0.0
H357 H 0.67485 0.54055 0.74003 0.0
H358 H 0.70622 0.56151 0.70571 0.0
H359 H 0.7044 0.51779 0.72005 0.0
C360 C 0.9303 0.65224 0.25984 0.0
C361 C 0.9575 0.68437 0.27271 0.0
C362 C 0.94101 0.632 0.23453 0.0
C363 C 0.98014 0.64373 0.22143 0.0
C364 C 1.00825 0.67548 0.23536 0.0
C365 C 0.99666 0.69527 0.26061 0.0
C366 C 0.90983 0.59848 0.22098 0.0
C367 C 0.05038 0.6892 0.2228 0.0
C368 C 0.01889 0.5771 0.1741 0.0
C369 C 1.01276 0.58457 0.13896 0.0
C370 C 1.00856 0.59593 0.20088 0.0
C371 C 0.99133 0.62321 0.19289 0.0
C372 C 0.98474 0.63071 0.15747 0.0
C373 C 0.99552 0.61155 0.13117 0.0
C374 C 0.01641 0.5867 0.23791 0.0
C375 C 0.96637 0.65925 0.14727 0.0
H376 H 0.89992 0.64349 0.26871 0.0
H377 H 0.0179 0.72007 0.27006 0.0
H378 H 0.9026 0.60129 0.19306 0.0
H379 H 0.92206 0.57596 0.22371 0.0
H380 H 0.88139 0.592 0.23464 0.0
H381 H 0.06939 0.71317 0.2372 0.0
H382 H 0.06544 0.66849 0.22543 0.0
H383 H 0.04873 0.69575 0.19499 0.0
H384 H 0.03226 0.55659 0.18088 0.0
H385 H 0.99056 0.61789 0.10436 0.0
H386 H 0.98775 0.57883 0.25127 0.0
H387 H 0.0373 0.61023 0.25171 0.0
H388 H 0.02979 0.56483 0.24009 0.0
H389 H 0.93631 0.65344 0.15811 0.0
H390 H 0.96268 0.66181 0.11882 0.0
H391 H 0.98575 0.68504 0.1582 0.0
C392 C 0.48123 0.23287 0.23904 0.0
C393 C 0.48912 0.26563 0.22256 0.0
C394 C 0.48024 0.20247 0.22071 0.0
C395 C 0.48708 0.205 0.18507 0.0
C396 C 0.49178 0.2375 0.16782 0.0
C397 C 0.49274 0.26751 0.18685 0.0
C398 C 0.47482 0.16833 0.24005 0.0
C399 C 0.49858 0.24119 0.12976 0.0
C400 C 0.54276 0.14744 0.14798 0.0
C401 C 0.51154 0.12175 0.12953 0.0
C402 C 0.5349 0.17407 0.16674 0.0
C403 C 0.4948 0.17529 0.16695 0.0
C404 C 0.46289 0.14891 0.14917 0.0
C405 C 0.47163 0.1223 0.13073 0.0
C406 C 0.56981 0.20142 0.18569 0.0
C407 C 0.41981 0.14946 0.14872 0.0
H408 H 0.47783 0.2314 0.26664 0.0
H409 H 0.49831 0.29286 0.17416 0.0
H410 H 0.4531 0.14581 0.2255 0.0
H411 H 0.50422 0.163 0.24293 0.0
H412 H 0.46394 0.16938 0.26618 0.0
H413 H 0.49643 0.26672 0.11943 0.0
H414 H 0.5291 0.23968 0.12531 0.0
H415 H 0.47621 0.21925 0.11497 0.0
H416 H 0.57365 0.14709 0.14742 0.0
H417 H 0.44739 0.10264 0.11636 0.0
H418 H 0.5638 0.20237 0.21333 0.0
H419 H 0.57308 0.22798 0.17478 0.0
H420 H 0.59895 0.19592 0.18398 0.0
H421 H 0.41091 0.15115 0.17542 0.0
H422 H 0.39812 0.12567 0.13586 0.0
H423 H 0.41728 0.17328 0.13486 0.0
C424 C 0.12529 0.85179 0.72661 0.0
C425 C 0.14064 0.83495 0.7018 0.0
C426 C 0.10884 0.87879 0.71731 0.0
C427 C 0.1074 0.88897 0.68234 0.0
C428 C 0.121 0.87091 0.65695 0.0
C429 C 0.13758 0.8442 0.667 0.0
C430 C 0.09445 0.8973 0.74506 0.0
C431 C 0.11955 0.88079 0.6193 0.0
C432 C 0.0417 0.94328 0.64797 0.0
C433 C 0.07062 0.97659 0.64421 0.0
C434 C 0.05287 0.91475 0.66175 0.0
C435 C 0.09386 0.91975 0.67229 0.0
C436 C 0.12267 0.95385 0.6707 0.0
C437 C 0.11072 0.98186 0.65657 0.0
C438 C 0.02125 0.87882 0.66302 0.0
C439 C 0.16658 0.96034 0.68219 0.0
H440 H 0.12692 0.84434 0.75349 0.0
H441 H 0.14972 0.83161 0.64773 0.0
H442 H 0.11409 0.92524 0.74732 0.0
H443 H 0.06322 0.89759 0.7381 0.0
H444 H 0.09493 0.88456 0.77064 0.0
H445 H 0.12876 0.86263 0.60255 0.0
H446 H 0.08855 0.88043 0.61049 0.0
H447 H 0.14004 0.90808 0.61578 0.0
H448 H 1.01058 0.93892 0.63855 0.0
H449 H 0.13319 1.00755 0.65396 0.0
H450 H 0.02324 0.86636 0.68851 0.0
H451 H 0.02672 0.86127 0.64324 0.0
H452 H 0.99009 0.88024 0.65801 0.0
H453 H 0.16922 0.94979 0.70852 0.0
H454 H 0.18434 0.98888 0.68222 0.0
H455 H 0.18025 0.94619 0.66462 0.0
C456 C 0.79458 0.38899 0.93367 0.0
C457 C 0.7663 0.4059 0.92258 0.0
C458 C 0.82985 0.40686 0.95378 0.0
C459 C 0.83721 0.44265 0.96326 0.0
C460 C 0.80932 0.46022 0.95145 0.0
C461 C 0.77425 0.44167 0.93113 0.0
C462 C 0.85896 0.38718 0.96533 0.0
C463 C 0.81601 0.49833 0.96101 0.0
C464 C 0.90892 0.47225 0.04323 0.0
C465 C 0.94591 0.48834 1.02857 0.0
C466 C 0.87291 0.4587 1.02233 0.0
C467 C 0.87396 0.46118 0.98589 0.0
C468 C 0.91103 0.47875 0.97111 0.0
C469 C 0.94649 0.49208 0.9926 0.0
C470 C 0.83402 0.44046 0.0392 0.0
C471 C 0.91367 0.48206 0.93248 0.0
H472 H 0.78893 0.36151 0.92676 0.0
H473 H 0.7524 0.45483 0.92287 0.0
H474 H 0.88958 0.40135 0.95677 0.0
H475 H 0.86143 0.3861 0.99393 0.0
H476 H 0.84937 0.35971 0.95501 0.0
H477 H 0.79267 0.50875 0.94835 0.0
H478 H 0.8154 0.50079 0.98939 0.0
H479 H 0.84626 0.51511 0.95367 0.0
H480 H 0.90827 0.46943 0.07102 0.0
H481 H 0.97498 0.50444 0.98105 0.0
H482 H 0.82389 0.41185 1.03272 0.0
H483 H 0.8098 0.45125 1.02922 0.0
H484 H 0.83748 0.44346 0.06774 0.0
H485 H 0.90793 0.45549 0.92089 0.0
H486 H 0.9438 0.4993 0.92521 0.0
H487 H 0.89017 0.49295 0.92104 0.0
C488 C 0.816 0.67152 0.39989 0.0
C489 C 0.85304 0.68856 0.41794 0.0
C490 C 0.78139 0.65321 0.41755 0.0
C491 C 0.78397 0.6513 0.45415 0.0
C492 C 0.82186 0.6671 0.47228 0.0
C493 C 0.85567 0.68572 0.45405 0.0
C494 C 0.74165 0.63722 0.39712 0.0
C495 C 0.82646 0.66527 0.51112 0.0
C496 C 0.68981 0.64102 0.50405 0.0
C497 C 0.67681 0.60477 0.5117 0.0
C498 C 0.72413 0.65623 0.48506 0.0
C499 C 0.74673 0.63493 0.47369 0.0
C500 C 0.73409 0.59837 0.48167 0.0
C501 C 0.69922 0.58374 0.50027 0.0
C502 C 0.73598 0.69518 0.47688 0.0
C503 C 0.75746 0.57467 0.47066 0.0
H504 H 0.81365 0.67384 0.37204 0.0
H505 H 0.88427 0.69861 0.46816 0.0
H506 H 0.72822 0.60901 0.40397 0.0
H507 H 0.71997 0.65105 0.40371 0.0
H508 H 0.74502 0.63909 0.36883 0.0
H509 H 0.85851 0.6762 0.52113 0.0
H510 H 0.80873 0.6804 0.52284 0.0
H511 H 0.81431 0.63748 0.51976 0.0
H512 H 0.67264 0.65756 0.5123 0.0
H513 H 0.68961 0.55575 0.50591 0.0
H514 H 0.73697 0.69903 0.44855 0.0
H515 H 0.76674 0.70889 0.48849 0.0
H516 H 0.71466 0.70793 0.48665 0.0
H517 H 0.75863 0.57505 0.44216 0.0
H518 H 0.74389 0.54688 0.47896 0.0
H519 H 0.78913 0.58465 0.48172 0.0
C520 C 0.29473 0.2767 0.17504 0.0
C521 C 0.33224 0.29978 0.18758 0.0
C522 C 0.26529 0.28972 0.15864 0.0
C523 C 0.27356 0.32668 0.15486 0.0
C524 C 0.31259 0.3498 0.16475 0.0
C525 C 0.34145 0.33607 0.18099 0.0
C526 C 0.22427 0.26413 0.148 0.0
C527 C 0.32275 0.38937 0.16114 0.0
C528 C 0.20128 0.36663 0.10458 0.0
C529 C 0.18015 0.3746 0.13128 0.0
C530 C 0.23106 0.35004 0.11155 0.0
C531 C 0.24002 0.34153 0.14602 0.0
C532 C 0.2182 0.3489 0.17291 0.0
C533 C 0.18865 0.36533 0.16521 0.0
C534 C 0.25347 0.34231 0.08222 0.0
C535 C 0.22689 0.34042 0.21008 0.0
H536 H 0.28765 0.24857 0.17961 0.0
H537 H 0.37017 0.35417 0.19085 0.0
H538 H 0.20225 0.26552 0.16691 0.0
H539 H 0.21314 0.27115 0.12238 0.0
H540 H 0.22487 0.23645 0.14696 0.0
H541 H 0.35574 0.40319 0.16535 0.0
H542 H 0.31241 0.39627 0.13518 0.0
H543 H 0.30679 0.39944 0.18041 0.0
H544 H 0.19462 0.37347 0.07826 0.0
H545 H 0.17304 0.37196 0.18608 0.0
H546 H 0.25245 0.3142 0.08274 0.0
H547 H 0.28577 0.35863 0.08521 0.0
H548 H 0.24075 0.34797 0.05665 0.0
H549 H 0.22392 0.31196 0.21264 0.0
H550 H 0.2062 0.3467 0.22775 0.0
H551 H 0.25847 0.35571 0.21859 0.0
C552 C 0.62636 0.26662 0.89523 0.0
C553 C 0.64563 0.29662 0.9159 0.0
C554 C 0.60781 0.23331 0.91009 0.0
C555 C 0.60878 0.22962 0.94654 0.0
C556 C 0.6276 0.25988 0.96746 0.0
C557 C 0.64521 0.29282 0.952 0.0
C558 C 0.58748 0.20194 0.88677 0.0
C559 C 0.62954 0.25742 1.00637 0.0
C560 C 0.53236 0.15358 0.99084 0.0
C561 C 0.55464 0.13038 0.99895 0.0
C562 C 0.54909 0.18521 0.97283 0.0
C563 C 0.58955 0.19446 0.96307 0.0
C564 C 0.61211 0.17093 0.97087 0.0
C565 C 0.59422 0.13898 0.98826 0.0
C566 C 0.52357 0.20901 0.9647 0.0
C567 C 0.6555 0.17987 0.96155 0.0
H568 H 0.62658 0.26894 0.86741 0.0
H569 H 0.65895 0.31578 0.96843 0.0
H570 H 0.6027 0.18149 0.89093 0.0
H571 H 0.55552 0.18983 0.89318 0.0
H572 H 0.58811 0.20926 0.85905 0.0
H573 H 0.64625 0.28316 1.01902 0.0
H574 H 0.59853 0.24821 1.01561 0.0
H575 H 0.64463 0.23772 1.01479 0.0
H576 H 0.50163 0.14709 0.99873 0.0
H577 H 0.61137 0.12091 0.99373 0.0
H578 H 0.5234 0.21521 0.93676 0.0
H579 H 0.53674 0.23442 0.97891 0.0
H580 H 0.49183 0.19692 0.97182 0.0
H581 H 0.65757 0.1846 0.93341 0.0
H582 H 0.66872 0.15859 0.96876 0.0
H583 H 0.67405 0.20466 0.97491 0.0
C584 C 0.93072 0.8275 0.41498 0.0
C585 C 0.9568 0.80749 0.41011 0.0
C586 C 0.94409 0.86042 0.43247 0.0
C587 C 0.98469 0.87405 0.44616 0.0
C588 C 1.0115 0.85439 0.44065 0.0
C589 C 0.99738 0.82161 0.42258 0.0
C590 C 0.91433 0.88029 0.4369 0.0
C591 C 0.0549 0.86744 0.45486 0.0
C592 C 0.02773 0.97332 0.46878 0.0
C593 C 0.02353 0.97392 0.50453 0.0
C594 C 1.01535 0.94131 0.44964 0.0
C595 C 0.99868 0.90856 0.46648 0.0
C596 C 0.99437 0.90903 0.50266 0.0
C597 C 1.0065 0.94154 0.52109 0.0
C598 C 0.02008 0.94259 0.41123 0.0
C599 C 0.97717 0.87508 0.52203 0.0
H600 H 0.89932 0.81699 0.40549 0.0
H601 H 0.01771 0.8063 0.41949 0.0
H602 H 0.90995 0.88253 0.46473 0.0
H603 H 0.92637 0.90755 0.42685 0.0
H604 H 0.8844 0.86711 0.42338 0.0
H605 H 0.07233 0.84985 0.44767 0.0
H606 H 0.07 0.89443 0.44528 0.0
H607 H 0.05589 0.86916 0.48343 0.0
H608 H 0.04082 0.99808 0.45563 0.0
H609 H 1.00329 0.9415 0.54869 0.0
H610 H 0.99019 0.93056 0.39729 0.0
H611 H 0.03977 0.92686 0.40452 0.0
H612 H 0.03334 0.97002 0.40184 0.0
H613 H 0.94576 0.86135 0.51182 0.0
H614 H 0.97689 0.87963 0.55018 0.0
H615 H 0.9952 0.85709 0.51809 0.0
C616 C 0.23449 0.68736 0.6527 0.0
C617 C 0.23504 0.72262 0.65349 0.0
C618 C 0.27055 0.67894 0.65162 0.0
C619 C 0.30793 0.70651 0.65147 0.0
C620 C 0.30872 0.74213 0.65446 0.0
C621 C 0.27217 0.74975 0.65561 0.0
C622 C 0.26845 0.64063 0.64888 0.0
C623 C 0.34792 0.77225 0.65459 0.0
C624 C 0.40554 0.68312 0.66497 0.0
C625 C 0.41526 0.68048 0.63081 0.0
C626 C 0.37081 0.69181 0.67224 0.0
C627 C 0.3455 0.69823 0.64468 0.0
C628 C 0.35558 0.69611 0.61019 0.0
C629 C 0.39024 0.68719 0.6037 0.0
C630 C 0.36089 0.69363 0.70932 0.0
C631 C 0.3296 0.70309 0.58006 0.0
H632 H 0.20569 0.66643 0.65166 0.0
H633 H 0.27247 0.777 0.65685 0.0
H634 H 0.27707 0.63543 0.62293 0.0
H635 H 0.29021 0.6346 0.66813 0.0
H636 H 0.23766 0.62234 0.65286 0.0
H637 H 0.34379 0.79802 0.66068 0.0
H638 H 0.3706 0.76742 0.67369 0.0
H639 H 0.36053 0.77412 0.62884 0.0
H640 H 0.42468 0.67771 0.68599 0.0
H641 H 0.398 0.68574 0.57727 0.0
H642 H 0.33138 0.67354 0.71378 0.0
H643 H 0.35788 0.71988 0.71493 0.0
H644 H 0.38432 0.68899 0.7278 0.0
H645 H 0.29867 0.68389 0.58015 0.0
H646 H 0.34211 0.70105 0.55484 0.0
H647 H 0.32679 0.72992 0.58246 0.0
C648 C 0.71163 0.80597 0.78569 0.0
C649 C 0.71795 0.83092 0.81224 0.0
C650 C 0.72986 0.8156 0.75418 0.0
C651 C 0.75571 0.85061 0.74986 0.0
C652 C 0.76242 0.87562 0.77697 0.0
C653 C 0.74308 0.86553 0.80766 0.0
C654 C 0.72129 0.78855 0.72552 0.0
C655 C 0.79038 0.91304 0.77377 0.0
C656 C 0.83912 0.87821 0.68797 0.0
C657 C 0.82435 0.8994 0.66496 0.0
C658 C 0.8158 0.85971 0.71441 0.0
C659 C 0.77637 0.86175 0.71736 0.0
C660 C 0.75973 0.87996 0.69206 0.0
C661 C 0.78406 0.89891 0.66638 0.0
C662 C 0.83483 0.84079 0.74096 0.0
C663 C 0.71743 0.88202 0.69381 0.0
H664 H 0.69212 0.77919 0.78948 0.0
H665 H 0.74822 0.8846 0.82851 0.0
H666 H 0.70802 0.79822 0.70221 0.0
H667 H 0.74987 0.78466 0.71831 0.0
H668 H 0.70014 0.7626 0.73288 0.0
H669 H 0.79323 0.92882 0.79772 0.0
H670 H 0.82096 0.91273 0.7678 0.0
H671 H 0.77901 0.92656 0.75219 0.0
H672 H 0.86975 0.87748 0.68644 0.0
H673 H 0.77217 0.91515 0.64889 0.0
H674 H 0.81342 0.81457 0.74702 0.0
H675 H 0.84249 0.85653 0.76525 0.0
H676 H 0.86295 0.83707 0.73224 0.0
H677 H 0.69607 0.85593 0.70041 0.0
H678 H 0.70633 0.89103 0.66905 0.0
H679 H 0.7172 0.90101 0.71438 0.0
C680 C 0.88283 0.322 0.29326 0.0
C681 C 0.88692 0.29556 0.31607 0.0
C682 C 0.8568 0.31334 0.26327 0.0
C683 C 0.83422 0.27752 0.25633 0.0
C684 C 0.838 0.25088 0.27955 0.0
C685 C 0.86426 0.26024 0.30905 0.0
C686 C 0.85366 0.34234 0.23894 0.0
C687 C 0.81425 0.21236 0.27328 0.0
C688 C 0.73823 0.24388 0.19909 0.0
C689 C 0.75209 0.22952 0.17144 0.0
C690 C 0.76525 0.26253 0.22577 0.0
C691 C 0.80705 0.26704 0.22461 0.0
C692 C 0.82156 0.25556 0.19522 0.0
C693 C 0.7939 0.23678 0.16907 0.0
C694 C 0.7486 0.27465 0.25656 0.0
C695 C 0.86595 0.26011 0.19281 0.0
H696 H 0.9003 0.34934 0.29871 0.0
H697 H 0.86659 0.23982 0.32704 0.0
H698 H 0.86347 0.33783 0.21324 0.0
H699 H 0.82174 0.34194 0.23523 0.0
H700 H 0.87247 0.36894 0.24849 0.0
H701 H 0.82027 0.19504 0.2942 0.0
H702 H 0.78136 0.20887 0.27121 0.0
H703 H 0.82204 0.20336 0.24851 0.0
H704 H 0.70605 0.23909 0.20071 0.0
H705 H 0.80504 0.22565 0.14801 0.0
H706 H 0.76763 0.30155 0.26492 0.0
H707 H 0.74892 0.25654 0.27847 0.0
H708 H 0.717 0.27475 0.25099 0.0
H709 H 0.88484 0.28703 0.20127 0.0
H710 H 0.87311 0.25548 0.16615 0.0
H711 H 0.8745 0.24094 0.21019 0.0
C712 C 0.49276 0.65397 0.32445 0.0
C713 C 0.47393 0.68037 0.32421 0.0
C714 C 0.49901 0.63645 0.355 0.0
C715 C 0.4863 0.64545 0.38659 0.0
C716 C 0.46718 0.6721 0.38663 0.0
C717 C 0.46166 0.68951 0.35559 0.0
C718 C 0.51993 0.60863 0.35352 0.0
C719 C 0.45298 0.68249 0.41957 0.0
C720 C 0.47504 0.57558 0.45723 0.0
C721 C 0.51194 0.58832 0.47684 0.0
C722 C 0.46551 0.59464 0.42884 0.0
C723 C 0.49374 0.62715 0.41938 0.0
C724 C 0.53052 0.64067 0.43985 0.0
C725 C 0.53902 0.62127 0.46838 0.0
C726 C 0.42575 0.57933 0.40822 0.0
C727 C 0.56175 0.67495 0.43075 0.0
H728 H 0.50328 0.64736 0.30055 0.0
H729 H 0.44805 0.71047 0.35596 0.0
H730 H 0.54809 0.61643 0.37058 0.0
H731 H 0.50018 0.58308 0.36312 0.0
H732 H 0.5278 0.60452 0.32696 0.0
H733 H 0.43716 0.70254 0.41517 0.0
H734 H 0.43218 0.65886 0.43156 0.0
H735 H 0.47921 0.69341 0.43833 0.0
H736 H 0.45385 0.55025 0.46366 0.0
H737 H 0.56764 0.63134 0.48332 0.0
H738 H 0.4314 0.57174 0.38209 0.0
H739 H 0.40987 0.5994 0.4049 0.0
H740 H 0.40554 0.55561 0.42065 0.0
H741 H 0.57367 0.67201 0.40551 0.0
H742 H 0.58754 0.68309 0.45043 0.0
H743 H 0.54781 0.69639 0.42801 0.0
C744 C 0.16994 0.40961 0.85544 0.0
C745 C 0.13987 0.38634 0.83332 0.0
C746 C 0.16037 0.42669 0.88386 0.0
C747 C 0.11946 0.4204 0.89142 0.0
C748 C 0.0889 0.39583 0.87017 0.0
C749 C 0.09936 0.37922 0.84157 0.0
C750 C 0.1943 0.45236 0.90535 0.0
C751 C 0.0449 0.38772 0.87715 0.0
C752 C 0.09916 0.44785 0.98213 0.0
C753 C 0.09257 0.4806 0.97602 0.0
C754 C 0.10713 0.42782 0.95506 0.0
C755 C 0.10901 0.4406 0.92061 0.0
C756 C 0.10257 0.4737 0.91436 0.0
C757 C 0.09434 0.49302 0.94182 0.0
C758 C 0.11347 0.39279 0.96337 0.0
C759 C 0.10465 0.48897 0.87849 0.0
H760 H 0.20146 0.41492 0.85033 0.0
H761 H 0.07563 0.36154 0.825 0.0
H762 H 0.1911 0.47918 0.90363 0.0
H763 H 0.19271 0.44459 0.93289 0.0
H764 H 0.2246 0.45376 0.8969 0.0
H765 H 0.02487 0.36638 0.86006 0.0
H766 H 0.0401 0.37967 0.90442 0.0
H767 H 0.03579 0.41184 0.87319 0.0
H768 H 0.09768 0.43755 1.00816 0.0
H769 H 0.08929 0.51808 0.93635 0.0
H770 H 0.14412 0.39345 0.95663 0.0
H771 H 0.09136 0.37149 0.94763 0.0
H772 H 0.11016 0.38595 0.9911 0.0
H773 H 0.1351 0.4929 0.86902 0.0
H774 H 0.0985 0.51469 0.87756 0.0
H775 H 0.0824 0.47022 0.86048 0.0
C776 C 0.652 0.89621 0.89402 0.0
C777 C 0.64387 0.86143 0.90624 0.0
C778 C 0.6355 0.92003 0.90882 0.0
C779 C 0.61144 0.90938 0.93741 0.0
C780 C 0.60204 0.87415 0.94932 0.0
C781 C 0.61787 0.85047 0.93326 0.0
C782 C 0.64551 0.95718 0.89489 0.0
C783 C 0.57707 0.862 0.98019 0.0
C784 C 0.61688 0.98211 1.00112 0.0
C785 C 0.57925 0.98733 0.99448 0.0
C786 C 0.62733 0.95641 0.98305 0.0
C787 C 0.59988 0.93609 0.95704 0.0
C788 C 0.56207 0.94167 0.94974 0.0
C789 C 0.55194 0.96696 0.96895 0.0
C790 C 0.66756 0.95069 0.99218 0.0
C791 C 0.53253 0.92119 0.92154 0.0
H792 H 0.67263 0.90552 0.87372 0.0
H793 H 0.6106 0.82355 0.94249 0.0
H794 H 0.61783 0.96525 0.89163 0.0
H795 H 0.66689 0.97588 0.91351 0.0
H796 H 0.65958 0.95977 0.8697 0.0
H797 H 0.57011 0.83317 0.98473 0.0
H798 H 0.59379 0.87641 1.0036 0.0
H799 H 0.54823 0.86818 0.97677 0.0
H800 H 0.63779 0.99745 1.02124 0.0
H801 H 0.52285 0.97104 0.96376 0.0
H802 H 0.68637 0.95635 0.96952 0.0
H803 H 0.66278 0.92265 0.99924 0.0
H804 H 0.6847 0.96776 1.01402 0.0
H805 H 0.54691 0.92582 0.89647 0.0
H806 H 0.50443 0.92877 0.91908 0.0
H807 H 0.52421 0.89243 0.9267 0.0
C808 C 1.00623 0.26698 0.43115 0.0
C809 C 0.9746 0.25871 0.40528 0.0
C810 C 0.01837 0.2403 0.4481 0.0
C811 C 0.99951 0.20458 0.43808 0.0
C812 C 0.96999 0.19626 0.41019 0.0
C813 C 0.95734 0.22324 0.39462 0.0
C814 C 0.0495 0.25018 0.47817 0.0
C815 C 0.94998 0.15857 0.39806 0.0
C816 C 0.04662 0.13611 0.47348 0.0
C817 C 0.0214 0.12141 0.50015 0.0
C818 C 0.03944 0.16275 0.45244 0.0
C819 C 1.00719 0.17568 0.45915 0.0
C820 C 0.98178 0.16092 0.48619 0.0
C821 C 0.98883 0.13357 0.506 0.0
C822 C 0.06624 0.17699 0.42309 0.0
C823 C 0.94764 0.17452 0.49471 0.0
H824 H 0.02062 0.29424 0.4391 0.0
H825 H 0.93241 0.216 0.37521 0.0
H826 H 0.03491 0.23971 0.50237 0.0
H827 H 0.07372 0.2381 0.47514 0.0
H828 H 0.06356 0.27926 0.48102 0.0
H829 H 0.93275 0.15717 0.37276 0.0
H830 H 0.97285 0.14482 0.39571 0.0
H831 H 0.92871 0.144 0.41725 0.0
H832 H 0.07178 0.12661 0.46893 0.0
H833 H 0.96967 0.12256 0.52696 0.0
H834 H 0.08239 0.20558 0.42716 0.0
H835 H 0.04753 0.17426 0.39846 0.0
H836 H 0.08898 0.1631 0.42048 0.0
H837 H 0.95955 0.20334 0.50021 0.0
H838 H 0.93166 0.16104 0.51737 0.0
H839 H 0.92533 0.17062 0.47228 0.0
C840 C 0.34218 0.68002 0.15445 0.0
C841 C 0.34072 0.68666 0.18966 0.0
C842 C 0.30805 0.65839 0.13516 0.0
C843 C 0.27113 0.64357 0.15121 0.0
C844 C 0.26972 0.64964 0.18697 0.0
C845 C 0.30462 0.67079 0.20583 0.0
C846 C 0.31128 0.65211 0.09734 0.0
C847 C 0.23089 0.63501 0.20501 0.0
C848 C 0.17528 0.62508 0.09202 0.0
C849 C 0.16339 0.58829 0.08803 0.0
C850 C 0.2097 0.64317 0.11305 0.0
C851 C 0.23344 0.62409 0.12999 0.0
C852 C 0.22148 0.58678 0.12593 0.0
C853 C 0.18624 0.56924 0.10529 0.0
C854 C 0.22065 0.68277 0.11713 0.0
C855 C 0.24624 0.56548 0.14293 0.0
H856 H 0.37013 0.69197 0.14193 0.0
H857 H 0.30328 0.67604 0.23298 0.0
H858 H 0.29975 0.62339 0.09136 0.0
H859 H 0.29229 0.66493 0.08151 0.0
H860 H 0.34289 0.66277 0.08949 0.0
H861 H 0.23527 0.64039 0.23323 0.0
H862 H 0.20814 0.64699 0.19396 0.0
H863 H 0.21817 0.60604 0.20076 0.0
H864 H 0.15726 0.63971 0.07891 0.0
H865 H 0.1769 0.54075 0.10218 0.0
H866 H 0.25061 0.69587 0.1068 0.0
H867 H 0.22305 0.68993 0.14489 0.0
H868 H 0.19805 0.69345 0.10351 0.0
H869 H 0.2773 0.57458 0.13373 0.0
H870 H 0.23277 0.53672 0.13742 0.0
H871 H 0.24902 0.56966 0.17128 0.0
C872 C 0.28364 0.4301 0.68216 0.0
C873 C 0.29554 0.42871 0.71726 0.0
C874 C 0.31176 0.44788 0.65814 0.0
C875 C 0.35301 0.46386 0.66923 0.0
C876 C 0.36499 0.46271 0.70468 0.0
C877 C 0.33623 0.44519 0.72811 0.0
C878 C 0.29756 0.44861 0.6207 0.0
C879 C 0.40861 0.47881 0.71774 0.0
C880 C 0.43638 0.47299 0.60736 0.0
C881 C 0.44979 0.50952 0.60102 0.0
C882 C 0.40422 0.45777 0.62857 0.0
C883 C 0.38436 0.4794 0.6437 0.0
C884 C 0.39657 0.51607 0.63625 0.0
C885 C 0.42923 0.53071 0.61522 0.0
C886 C 0.39269 0.41866 0.63597 0.0
C887 C 0.37601 0.54009 0.6514 0.0
H888 H 0.25252 0.41672 0.67334 0.0
H889 H 0.34584 0.44349 0.75501 0.0
H890 H 0.30799 0.47602 0.61075 0.0
H891 H 0.31089 0.43247 0.6051 0.0
H892 H 0.26408 0.43812 0.61672 0.0
H893 H 0.41271 0.47722 0.74626 0.0
H894 H 0.42755 0.46489 0.70589 0.0
H895 H 0.42004 0.50696 0.71009 0.0
H896 H 0.45199 0.45627 0.59674 0.0
H897 H 0.43917 0.55892 0.61052 0.0
H898 H 0.35982 0.40587 0.63007 0.0
H899 H 0.39902 0.41459 0.66382 0.0
H900 H 0.40954 0.40514 0.62079 0.0
H901 H 0.34273 0.52908 0.64644 0.0
H902 H 0.38643 0.56723 0.64066 0.0
H903 H 0.38233 0.54183 0.6798 0.0
C904 C 0.73393 0.69486 0.9251 0.0
C905 C 0.73084 0.72427 0.9427 0.0
C906 C 0.76537 0.6808 0.93401 0.0
C907 C 0.79455 0.69684 0.96088 0.0
C908 C 0.79088 0.72597 0.97932 0.0
C909 C 0.75883 0.73916 0.97017 0.0
C910 C 0.76796 0.64937 0.9141 0.0
C911 C 0.82158 0.74398 1.0079 0.0
C912 C 0.86255 0.64632 0.99994 0.0
C913 C 0.89744 0.66006 0.98153 0.0
C914 C 0.82877 0.658 0.99352 0.0
C915 C 0.8301 0.68434 0.96841 0.0
C916 C 0.86538 0.6987 0.95013 0.0
C917 C 0.89846 0.68623 0.95673 0.0
C918 C 0.79157 0.64195 1.01339 0.0
C919 C 0.86806 0.72705 0.92331 0.0
H920 H 0.71212 0.68321 0.90399 0.0
H921 H 0.75619 0.7618 0.98385 0.0
H922 H 0.79571 0.65718 0.8995 0.0
H923 H 0.77018 0.62812 0.93213 0.0
H924 H 0.74138 0.6385 0.89561 0.0
H925 H 0.81331 0.76526 1.02076 0.0
H926 H 0.82467 0.72444 1.02761 0.0
H927 H 0.85165 0.75571 0.99725 0.0
H928 H 0.86165 0.62648 1.01949 0.0
H929 H 0.92492 0.69657 0.94191 0.0
H930 H 0.76516 0.62956 0.99522 0.0
H931 H 0.78446 0.66288 1.02781 0.0
H932 H 0.79536 0.62161 1.03197 0.0
H933 H 0.84461 0.71682 0.90205 0.0
H934 H 0.89815 0.73626 0.91219 0.0
H935 H 0.8621 0.75009 0.9349 0.0
C936 C 0.44827 0.8108 0.16233 0.0
C937 C 0.44768 0.80603 0.19834 0.0
C938 C 0.46404 0.84451 0.14763 0.0
C939 C 0.48084 0.8746 0.16923 0.0
C940 C 0.48109 0.87008 0.20555 0.0
C941 C 0.46431 0.83608 0.21961 0.0
C942 C 0.46281 0.84786 0.10881 0.0
C943 C 0.49929 0.90122 0.22964 0.0
C944 C 0.55724 0.95379 0.12885 0.0
C945 C 0.5344 0.97664 0.12113 0.0
C946 C 0.54052 0.92114 0.1452 0.0
C947 C 0.49952 0.91043 0.15366 0.0
C948 C 0.47629 0.93349 0.14612 0.0
C949 C 0.49413 0.96647 0.13037 0.0
C950 C 0.56679 0.89792 0.15315 0.0
C951 C 0.43233 0.92303 0.15408 0.0
H952 H 0.43663 0.78804 0.14533 0.0
H953 H 0.46378 0.8332 0.24737 0.0
H954 H 0.44752 0.86747 0.10056 0.0
H955 H 0.49405 0.85764 0.10009 0.0
H956 H 0.44672 0.82231 0.09555 0.0
H957 H 0.49748 0.89343 0.25722 0.0
H958 H 0.53153 0.91415 0.22447 0.0
H959 H 0.48347 0.92119 0.22499 0.0
H960 H 0.58846 0.96142 0.12202 0.0
H961 H 0.47639 0.9841 0.12497 0.0
H962 H 0.55462 0.87281 0.13832 0.0
H963 H 0.56645 0.89104 0.18094 0.0
H964 H 0.59863 0.91084 0.1467 0.0
H965 H 0.41512 0.89836 0.13989 0.0
H966 H 0.41843 0.94388 0.14688 0.0
H967 H 0.42922 0.91746 0.18201 0.0
C968 C 0.08873 0.27329 0.73071 0.0
C969 C 0.12899 0.28707 0.74407 0.0
C970 C 0.07507 0.24098 0.71178 0.0
C971 C 0.10206 0.22149 0.70618 0.0
C972 C 0.14231 0.23475 0.72081 0.0
C973 C 0.15521 0.2672 0.73916 0.0
C974 C 0.03203 0.22834 0.69665 0.0
C975 C 0.17225 0.21508 0.71635 0.0
C976 C 0.05977 0.12288 0.68044 0.0
C977 C 0.06497 0.12335 0.64476 0.0
C978 C 0.07153 0.1543 0.70051 0.0
C979 C 0.08867 0.18759 0.68478 0.0
C980 C 0.09405 0.18822 0.64871 0.0
C981 C 0.08245 0.15627 0.62929 0.0
C982 C 0.06564 0.15179 0.73875 0.0
C983 C 0.11184 0.22279 0.63048 0.0
H984 H 0.06837 0.2886 0.7337 0.0
H985 H 0.18646 0.27762 0.74909 0.0
H986 H 0.03188 0.22774 0.66807 0.0
H987 H 0.01671 0.20096 0.70516 0.0
H988 H 1.01431 0.24556 0.7042 0.0
H989 H 0.20173 0.22776 0.73078 0.0
H990 H 0.15983 0.18744 0.72533 0.0
H991 H 0.17765 0.21393 0.6886 0.0
H992 H 0.04633 0.09773 0.6928 0.0
H993 H 0.08643 0.15717 0.60179 0.0
H994 H 0.04572 0.16727 0.74554 0.0
H995 H 0.09515 0.1634 0.75342 0.0
H996 H 0.05208 0.12407 0.74724 0.0
H997 H 0.09352 0.24053 0.63446 0.0
H998 H 0.11315 0.21913 0.60231 0.0
H999 H 0.14289 0.23632 0.64161 0.0
C1000 C 0.86424 0.38208 0.48394 0.0
C1001 C 0.86848 0.36493 0.45383 0.0
C1002 C 0.83228 0.39606 0.48623 0.0
C1003 C 0.80415 0.39304 0.45759 0.0
C1004 C 0.80919 0.37691 0.42667 0.0
C1005 C 0.84101 0.36257 0.42535 0.0
C1006 C 0.82758 0.41261 0.51983 0.0
C1007 C 0.78011 0.37356 0.39545 0.0
C1008 C 0.69873 0.39089 0.47838 0.0
C1009 C 0.70038 0.42612 0.47293 0.0
C1010 C 0.73209 0.37966 0.47281 0.0
C1011 C 0.76775 0.4042 0.46109 0.0
C1012 C 0.76911 0.43956 0.45441 0.0
C1013 C 0.73545 0.4502 0.4607 0.0
C1014 C 0.72963 0.34183 0.48066 0.0
C1015 C 0.80634 0.46626 0.44129 0.0
H1016 H 0.88517 0.38351 0.50614 0.0
H1017 H 0.84368 0.34858 0.40239 0.0
H1018 H 0.82532 0.43948 0.51527 0.0
H1019 H 0.79915 0.39657 0.53107 0.0
H1020 H 0.85322 0.41457 0.53902 0.0
H1021 H 0.79085 0.36399 0.37231 0.0
H1022 H 0.75018 0.35472 0.40096 0.0
H1023 H 0.77563 0.39943 0.38945 0.0
H1024 H 0.6718 0.37237 0.48824 0.0
H1025 H 0.73658 0.4774 0.45623 0.0
H1026 H 0.75248 0.34126 0.5017 0.0
H1027 H 0.73665 0.32914 0.45767 0.0
H1028 H 0.69929 0.32586 0.48864 0.0
H1029 H 0.83195 0.47077 0.46096 0.0
H1030 H 0.80154 0.49203 0.43524 0.0
H1031 H 0.81533 0.45598 0.4177 0.0
loop_
_geom_bond_atom_site_label_1
_geom_bond_atom_site_label_2
_geom_bond_distance
_geom_bond_site_symmetry_2
_ccdc_geom_bond_type
H0 C7 0.929 . S
H1 C10 0.930 . S
H2 C12 0.929 . S
H3 C4 0.969 . S
C4 H3 0.969 . S
C4 O5 1.550 . S
C4 H6 0.973 . S
O5 C4 1.550 . S
O5 C11 1.412 . S
H6 C4 0.973 . S
C7 H0 0.929 . S
C7 C8 1.400 . S
C7 C9 1.364 . S
C8 C7 1.400 . S
C8 C12 1.377 . S
C9 C7 1.364 . S
C9 C10 1.374 . S
C10 H1 0.930 . S
C10 C9 1.374 . S
C10 C11 1.383 . S
C11 O5 1.412 . S
C11 C10 1.383 . S
C11 C12 1.394 . S
C12 H2 0.929 . S
C12 C8 1.377 . S
C12 C11 1.394 . S
H13 C20 0.929 . S
H14 C23 0.930 . S
H15 C25 0.929 . S
H16 C17 0.969 . S
C17 H16 0.969 . S
C17 O18 1.550 . S
C17 H19 0.973 . S
O18 C17 1.550 . S
O18 C24 1.412 . S
H19 C17 0.973 . S
C20 H13 0.929 . S
C20 C21 1.400 . S
C20 C22 1.364 . S
C21 C20 1.400 . S
C21 C25 1.377 . S
C22 C20 1.364 . S
C22 C23 1.374 . S
C23 H14 0.930 . S
C23 C22 1.374 . S
C23 C24 1.383 . S
C24 O18 1.412 . S
C24 C23 1.383 . S
C24 C25 1.394 . S
C25 H15 0.929 . S
C25 C21 1.377 . S
C25 C24 1.394 . S
H26 C33 0.929 . S
H27 C36 0.930 . S
H28 C38 0.929 . S
H29 C30 0.969 . S
C30 H29 0.969 . S
C30 O31 1.550 . S
C30 H32 0.973 . S
O31 C30 1.550 . S
O31 C37 1.412 . S
H32 C30 0.973 . S
C33 H26 0.929 . S
C33 C34 1.400 . S
C33 C35 1.364 . S
C34 C33 1.400 . S
C34 C38 1.377 . S
C35 C33 1.364 . S
C35 C36 1.374 . S
C36 H27 0.930 . S
C36 C35 1.374 . S
C36 C37 1.383 . S
C37 O31 1.412 . S
C37 C36 1.383 . S
C37 C38 1.394 . S
C38 H28 0.929 . S
C38 C34 1.377 . S
C38 C37 1.394 . S
H39 C46 0.929 . S
H40 C49 0.930 . S
H41 C51 0.929 . S
H42 C43 0.969 . S
C43 H42 0.969 . S
C43 O44 1.550 . S
C43 H45 0.973 . S
O44 C43 1.550 . S
O44 C50 1.412 . S
H45 C43 0.973 . S
C46 H39 0.929 . S
C46 C47 1.400 . S
C46 C48 1.364 . S
C47 C46 1.400 . S
C47 C51 1.377 . S
C48 C46 1.364 . S
C48 C49 1.374 . S
C49 H40 0.930 . S
C49 C48 1.374 . S
C49 C50 1.383 . S
C50 O44 1.412 . S
C50 C49 1.383 . S
C50 C51 1.394 . S
C51 H41 0.929 . S
C51 C47 1.377 . S
C51 C50 1.394 . S
H52 C59 0.929 . S
H53 C62 0.930 . S
H54 C64 0.929 . S
H55 C56 0.969 . S
C56 H55 0.969 . S
C56 O57 1.550 . S
C56 H58 0.973 . S
O57 C56 1.550 . S
O57 C63 1.412 . S
H58 C56 0.973 . S
C59 H52 0.929 . S
C59 C60 1.400 . S
C59 C61 1.364 . S
C60 C59 1.400 . S
C60 C64 1.377 . S
C61 C59 1.364 . S
C61 C62 1.374 . S
C62 H53 0.930 . S
C62 C61 1.374 . S
C62 C63 1.383 . S
C63 O57 1.412 . S
C63 C62 1.383 . S
C63 C64 1.394 . S
C64 H54 0.929 . S
C64 C60 1.377 . S
C64 C63 1.394 . S
H65 C72 0.929 . S
H66 C75 0.930 . S
H67 C77 0.929 . S
H68 C69 0.969 . S
C69 H68 0.969 . S
C69 O70 1.550 . S
C69 H71 0.973 . S
O70 C69 1.550 . S
O70 C76 1.412 . S
H71 C69 0.973 . S
C72 H65 0.929 . S
C72 C73 1.400 . S
C72 C74 1.364 . S
C73 C72 1.400 . S
C73 C77 1.377 . S
C74 C72 1.364 . S
C74 C75 1.374 . S
C75 H66 0.930 . S
C75 C74 1.374 . S
C75 C76 1.383 . S
C76 O70 1.412 . S
C76 C75 1.383 . S
C76 C77 1.394 . S
C77 H67 0.929 . S
C77 C73 1.377 . S
C77 C76 1.394 . S
H78 C85 0.929 . S
H79 C88 0.930 . S
H80 C90 0.929 . S
H81 C82 0.969 . S
C82 H81 0.969 . S
C82 O83 1.550 . S
C82 H84 0.973 . S
O83 C82 1.550 . S
O83 C89 1.412 . S
H84 C82 0.973 . S
C85 H78 0.929 . S
C85 C86 1.400 . S
C85 C87 1.364 . S
C86 C85 1.400 . S
C86 C90 1.377 . S
C87 C85 1.364 . S
C87 C88 1.374 . S
C88 H79 0.930 . S
C88 C87 1.374 . S
C88 C89 1.383 . S
C89 O83 1.412 . S
C89 C88 1.383 . S
C89 C90 1.394 . S
C90 H80 0.929 . S
C90 C86 1.377 . S
C90 C89 1.394 . S
H91 C98 0.929 . S
H92 C101 0.930 . S
H93 C103 0.929 . S
H94 C95 0.969 . S
C95 H94 0.969 . S
C95 O96 1.550 . S
C95 H97 0.973 . S
O96 C95 1.550 . S
O96 C102 1.412 . S
H97 C95 0.973 . S
C98 H91 0.929 . S
C98 C99 1.400 . S
C98 C100 1.364 . S
C99 C98 1.400 . S
C99 C103 1.377 . S
C100 C98 1.364 . S
C100 C101 1.374 . S
C101 H92 0.930 . S
C101 C100 1.374 . S
C101 C102 1.383 . S
C102 O96 1.412 . S
C102 C101 1.383 . S
C102 C103 1.394 . S
C103 H93 0.929 . S
C103 C99 1.377 . S
C103 C102 1.394 . S
Tb104 C106 2.809 1_545 S
Tb104 O124 2.484 1_545 S
Tb104 O125 2.440 1_545 S
Tb104 O126 2.658 1_655 S
Tb104 O127 2.409 1_655 S
Tb104 O128 2.378 1_645 S
Tb104 O132 2.325 1_545 S
Tb104 O135 2.341 . S
Tb105 C115 2.809 . S
Tb105 O126 2.325 . S
Tb105 O129 2.341 1_545 S
Tb105 O130 2.484 . S
Tb105 O131 2.440 . S
Tb105 O132 2.658 1_445 S
Tb105 O133 2.409 1_545 S
Tb105 O134 2.378 . S
C106 Tb104 2.809 1_565 S
C106 C107 1.514 . S
C106 O124 1.248 . S
C106 O125 1.266 . S
C107 C106 1.514 . S
C107 C108 1.359 . S
C107 C112 1.348 . S
C108 C107 1.359 . S
C108 C109 1.380 . S
C108 H136 0.929 . S
C109 C108 1.380 . S
C109 C110 1.347 . S
C109 H137 0.931 . S
C110 C109 1.347 . S
C110 C111 1.369 . S
C111 C110 1.369 . S
C111 C112 1.408 . S
C111 H138 0.930 . S
C112 C107 1.348 . S
C112 C111 1.408 . S
C112 H139 0.930 . S
C113 O126 1.281 . S
C113 O127 1.254 . S
C114 O128 1.236 . S
C114 O129 1.266 . S
C115 Tb105 2.809 . S
C115 C116 1.514 . S
C115 O130 1.248 . S
C115 O131 1.266 . S
C116 C115 1.514 . S
C116 C117 1.359 . S
C116 C121 1.348 . S
C117 C116 1.359 . S
C117 C118 1.380 . S
C117 H140 0.929 . S
C118 C117 1.380 . S
C118 C119 1.347 . S
C118 H141 0.931 . S
C119 C118 1.347 . S
C119 C120 1.369 . S
C120 C119 1.369 . S
C120 C121 1.408 . S
C120 H142 0.930 . S
C121 C116 1.348 . S
C121 C120 1.408 . S
C121 H143 0.930 . S
C122 O132 1.281 . S
C122 O133 1.254 1_655 S
C123 O134 1.236 1_655 S
C123 O135 1.266 . S
O124 Tb104 2.484 1_565 S
O124 C106 1.248 . S
O125 Tb104 2.440 1_565 S
O125 C106 1.266 . S
O126 Tb104 2.658 1_455 S
O126 Tb105 2.325 . S
O126 C113 1.281 . S
O127 Tb104 2.409 1_455 S
O127 C113 1.254 . S
O128 Tb104 2.378 1_465 S
O128 C114 1.236 . S
O129 Tb105 2.341 1_565 S
O129 C114 1.266 . S
O130 Tb105 2.484 . S
O130 C115 1.248 . S
O131 Tb105 2.440 . S
O131 C115 1.266 . S
O132 Tb104 2.325 1_565 S
O132 Tb105 2.658 1_665 S
O132 C122 1.281 . S
O133 Tb105 2.409 1_565 S
O133 C122 1.254 1_455 S
O134 Tb105 2.378 . S
O134 C123 1.236 1_455 S
O135 Tb104 2.341 . S
O135 C123 1.266 . S
H136 C108 0.929 . S
H137 C109 0.931 . S
H138 C111 0.930 . S
H139 C112 0.930 . S
H140 C117 0.929 . S
H141 C118 0.931 . S
H142 C120 0.930 . S
H143 C121 0.930 . S
Tb144 C146 2.809 . S
Tb144 O164 2.484 . S
Tb144 O165 2.440 . S
Tb144 O166 2.658 1_545 S
Tb144 O167 2.409 1_545 S
Tb144 O168 2.378 . S
Tb144 O172 2.325 1_554 S
Tb144 O175 2.341 1_544 S
Tb145 C155 2.809 1_545 S
Tb145 O166 2.325 1_546 S
Tb145 O169 2.341 1_556 S
Tb145 O170 2.484 1_545 S
Tb145 O171 2.440 1_545 S
Tb145 O172 2.658 . S
Tb145 O173 2.409 . S
Tb145 O174 2.378 1_545 S
C146 Tb144 2.809 . S
C146 C147 1.514 . S
C146 O164 1.248 . S
C146 O165 1.266 . S
C147 C146 1.514 . S
C147 C148 1.359 . S
C147 C152 1.348 . S
C148 C147 1.359 . S
C148 C149 1.380 . S
C148 H176 0.929 . S
C149 C148 1.380 . S
C149 C150 1.347 . S
C149 H177 0.931 . S
C150 C149 1.347 . S
C150 C151 1.369 . S
C151 C150 1.369 . S
C151 C152 1.408 . S
C151 H178 0.930 . S
C152 C147 1.348 . S
C152 C151 1.408 . S
C152 H179 0.930 . S
C153 O166 1.281 . S
C153 O167 1.254 . S
C154 O168 1.236 . S
C154 O169 1.266 . S
C155 Tb145 2.809 1_565 S
C155 C156 1.514 . S
C155 O170 1.248 . S
C155 O171 1.266 . S
C156 C155 1.514 . S
C156 C157 1.359 . S
C156 C161 1.348 . S
C157 C156 1.359 . S
C157 C158 1.380 . S
C157 H180 0.929 . S
C158 C157 1.380 . S
C158 C159 1.347 . S
C158 H181 0.931 . S
C159 C158 1.347 . S
C159 C160 1.369 . S
C160 C159 1.369 . S
C160 C161 1.408 . S
C160 H182 0.930 . S
C161 C156 1.348 . S
C161 C160 1.408 . S
C161 H183 0.930 . S
C162 O172 1.281 . S
C162 O173 1.254 . S
C163 O174 1.236 . S
C163 O175 1.266 . S
O164 Tb144 2.484 . S
O164 C146 1.248 . S
O165 Tb144 2.440 . S
O165 C146 1.266 . S
O166 Tb144 2.658 1_565 S
O166 Tb145 2.325 1_564 S
O166 C153 1.281 . S
O167 Tb144 2.409 1_565 S
O167 C153 1.254 . S
O168 Tb144 2.378 . S
O168 C154 1.236 . S
O169 Tb145 2.341 1_554 S
O169 C154 1.266 . S
O170 Tb145 2.484 1_565 S
O170 C155 1.248 . S
O171 Tb145 2.440 1_565 S
O171 C155 1.266 . S
O172 Tb144 2.325 1_556 S
O172 Tb145 2.658 . S
O172 C162 1.281 . S
O173 Tb145 2.409 . S
O173 C162 1.254 . S
O174 Tb145 2.378 1_565 S
O174 C163 1.236 . S
O175 Tb144 2.341 1_566 S
O175 C163 1.266 . S
H176 C148 0.929 . S
H177 C149 0.931 . S
H178 C151 0.930 . S
H179 C152 0.930 . S
H180 C157 0.929 . S
H181 C158 0.931 . S
H182 C160 0.930 . S
H183 C161 0.930 . S
Tb184 C186 2.809 . S
Tb184 O204 2.484 . S
Tb184 O205 2.440 . S
Tb184 O206 2.658 . S
Tb184 O207 2.409 . S
Tb184 O208 2.378 . S
Tb184 O212 2.325 . S
Tb184 O215 2.341 . S
Tb185 C195 2.809 . S
Tb185 O206 2.325 . S
Tb185 O209 2.341 . S
Tb185 O210 2.484 . S
Tb185 O211 2.440 . S
Tb185 O212 2.658 . S
Tb185 O213 2.409 . S
Tb185 O214 2.378 . S
C186 Tb184 2.809 . S
C186 C187 1.514 . S
C186 O204 1.248 . S
C186 O205 1.266 . S
C187 C186 1.514 . S
C187 C188 1.359 . S
C187 C192 1.348 . S
C188 C187 1.359 . S
C188 C189 1.380 . S
C188 H216 0.929 . S
C189 C188 1.380 . S
C189 C190 1.347 . S
C189 H217 0.931 . S
C190 C189 1.347 . S
C190 C191 1.369 . S
C191 C190 1.369 . S
C191 C192 1.408 . S
C191 H218 0.930 . S
C192 C187 1.348 . S
C192 C191 1.408 . S
C192 H219 0.930 . S
C193 O206 1.281 . S
C193 O207 1.254 . S
C194 O208 1.236 . S
C194 O209 1.266 . S
C195 Tb185 2.809 . S
C195 C196 1.514 . S
C195 O210 1.248 . S
C195 O211 1.266 . S
C196 C195 1.514 . S
C196 C197 1.359 . S
C196 C201 1.348 . S
C197 C196 1.359 . S
C197 C198 1.380 . S
C197 H220 0.929 . S
C198 C197 1.380 . S
C198 C199 1.347 . S
C198 H221 0.931 . S
C199 C198 1.347 . S
C199 C200 1.369 . S
C200 C199 1.369 . S
C200 C201 1.408 . S
C200 H222 0.930 . S
C201 C196 1.348 . S
C201 C200 1.408 . S
C201 H223 0.930 . S
C202 O212 1.281 . S
C202 O213 1.254 . S
C203 O214 1.236 . S
C203 O215 1.266 . S
O204 Tb184 2.484 . S
O204 C186 1.248 . S
O205 Tb184 2.440 . S
O205 C186 1.266 . S
O206 Tb184 2.658 . S
O206 Tb185 2.325 . S
O206 C193 1.281 . S
O207 Tb184 2.409 . S
O207 C193 1.254 . S
O208 Tb184 2.378 . S
O208 C194 1.236 . S
O209 Tb185 2.341 . S
O209 C194 1.266 . S
O210 Tb185 2.484 . S
O210 C195 1.248 . S
O211 Tb185 2.440 . S
O211 C195 1.266 . S
O212 Tb184 2.325 . S
O212 Tb185 2.658 . S
O212 C202 1.281 . S
O213 Tb185 2.409 . S
O213 C202 1.254 . S
O214 Tb185 2.378 . S
O214 C203 1.236 . S
O215 Tb184 2.341 . S
O215 C203 1.266 . S
H216 C188 0.929 . S
H217 C189 0.931 . S
H218 C191 0.930 . S
H219 C192 0.930 . S
H220 C197 0.929 . S
H221 C198 0.931 . S
H222 C200 0.930 . S
H223 C201 0.930 . S
Tb224 C226 2.809 1_455 S
Tb224 O244 2.484 1_455 S
Tb224 O245 2.440 . S
Tb224 O246 2.658 . S
Tb224 O247 2.409 . S
Tb224 O248 2.378 1_455 S
Tb224 O252 2.325 1_455 S
Tb224 O255 2.341 1_554 S
Tb225 C235 2.809 . S
Tb225 O246 2.325 . S
Tb225 O249 2.341 1_455 S
Tb225 O250 2.484 . S
Tb225 O251 2.440 . S
Tb225 O252 2.658 1_455 S
Tb225 O253 2.409 1_455 S
Tb225 O254 2.378 . S
C226 Tb224 2.809 1_655 S
C226 C227 1.514 . S
C226 O244 1.248 . S
C226 O245 1.266 1_655 S
C227 C226 1.514 . S
C227 C228 1.357 1_554 S
C227 C232 1.350 . S
C228 C227 1.357 1_556 S
C228 C229 1.380 . S
C228 H256 0.929 . S
C229 C228 1.380 . S
C229 C230 1.347 . S
C229 H257 0.931 . S
C230 C229 1.347 . S
C230 C231 1.369 . S
C231 C230 1.369 . S
C231 C232 1.408 1_556 S
C231 H258 0.930 . S
C232 C227 1.350 . S
C232 C231 1.408 1_554 S
C232 H259 0.930 . S
C233 O246 1.281 . S
C233 O247 1.254 . S
C234 O248 1.236 . S
C234 O249 1.266 . S
C235 Tb225 2.809 . S
C235 C236 1.514 . S
C235 O250 1.248 . S
C235 O251 1.266 . S
C236 C235 1.514 . S
C236 C237 1.359 . S
C236 C241 1.348 . S
C237 C236 1.359 . S
C237 C238 1.380 . S
C237 H260 0.929 . S
C238 C237 1.380 . S
C238 C239 1.347 . S
C238 H261 0.931 . S
C239 C238 1.347 . S
C239 C240 1.369 . S
C240 C239 1.369 . S
C240 C241 1.408 . S
C240 H262 0.930 . S
C241 C236 1.348 . S
C241 C240 1.408 . S
C241 H263 0.930 . S
C242 O252 1.281 . S
C242 O253 1.254 . S
C243 O254 1.236 . S
C243 O255 1.266 1_554 S
O244 Tb224 2.484 1_655 S
O244 C226 1.248 . S
O245 Tb224 2.440 . S
O245 C226 1.266 1_455 S
O246 Tb224 2.658 . S
O246 Tb225 2.325 . S
O246 C233 1.281 . S
O247 Tb224 2.409 . S
O247 C233 1.254 . S
O248 Tb224 2.378 1_655 S
O248 C234 1.236 . S
O249 Tb225 2.341 1_655 S
O249 C234 1.266 . S
O250 Tb225 2.484 . S
O250 C235 1.248 . S
O251 Tb225 2.440 . S
O251 C235 1.266 . S
O252 Tb224 2.325 1_655 S
O252 Tb225 2.658 1_655 S
O252 C242 1.281 . S
O253 Tb225 2.409 1_655 S
O253 C242 1.254 . S
O254 Tb225 2.378 . S
O254 C243 1.236 . S
O255 Tb224 2.341 1_556 S
O255 C243 1.266 1_556 S
H256 C228 0.929 . S
H257 C229 0.931 . S
H258 C231 0.930 . S
H259 C232 0.930 . S
H260 C237 0.929 . S
H261 C238 0.931 . S
H262 C240 0.930 . S
H263 C241 0.930 . S
C264 C265 1.391 . S
C264 C266 1.394 . S
C264 H280 0.931 . S
C265 C264 1.391 . S
C265 C269 1.376 . S
C266 C264 1.394 . S
C266 C267 1.369 . S
C266 C270 1.531 . S
C267 C266 1.369 . S
C267 C268 1.410 . S
C267 C275 1.503 . S
C268 C267 1.410 . S
C268 C269 1.392 . S
C268 C271 1.511 . S
C269 C265 1.376 . S
C269 C268 1.392 . S
C269 H281 0.929 . S
C270 C266 1.531 . S
C270 H282 0.960 . S
C270 H283 0.962 . S
C270 H284 0.960 . S
C271 C268 1.511 . S
C271 H285 0.961 . S
C271 H286 0.961 . S
C271 H287 0.961 . S
C272 C273 1.370 . S
C272 C274 1.363 . S
C272 H288 0.931 . S
C273 C272 1.370 . S
C273 C277 1.408 . S
C274 C272 1.363 . S
C274 C275 1.370 . S
C274 C278 1.524 . S
C275 C267 1.503 . S
C275 C274 1.370 . S
C275 C276 1.403 . S
C276 C275 1.403 . S
C276 C277 1.404 . S
C276 C279 1.539 . S
C277 C273 1.408 . S
C277 C276 1.404 . S
C277 H289 0.930 . S
C278 C274 1.524 . S
C278 H290 0.956 . S
C278 H291 0.961 . S
C278 H292 0.961 . S
C279 C276 1.539 . S
C279 H293 0.958 . S
C279 H294 0.961 . S
C279 H295 0.960 . S
H280 C264 0.931 . S
H281 C269 0.929 . S
H282 C270 0.960 . S
H283 C270 0.962 . S
H284 C270 0.960 . S
H285 C271 0.961 . S
H286 C271 0.961 . S
H287 C271 0.961 . S
H288 C272 0.931 . S
H289 C277 0.930 . S
H290 C278 0.956 . S
H291 C278 0.961 . S
H292 C278 0.961 . S
H293 C279 0.958 . S
H294 C279 0.961 . S
H295 C279 0.960 . S
C296 C297 1.391 . S
C296 C298 1.394 . S
C296 H312 0.931 . S
C297 C296 1.391 . S
C297 C301 1.376 . S
C298 C296 1.394 . S
C298 C299 1.369 . S
C298 C302 1.531 . S
C299 C298 1.369 . S
C299 C300 1.410 . S
C299 C307 1.503 . S
C300 C299 1.410 . S
C300 C301 1.392 . S
C300 C303 1.511 . S
C301 C297 1.376 . S
C301 C300 1.392 . S
C301 H313 0.929 . S
C302 C298 1.531 . S
C302 H314 0.960 . S
C302 H315 0.962 . S
C302 H316 0.960 . S
C303 C300 1.511 . S
C303 H317 0.961 . S
C303 H318 0.961 . S
C303 H319 0.961 . S
C304 C305 1.370 . S
C304 C306 1.363 . S
C304 H320 0.931 . S
C305 C304 1.370 . S
C305 C309 1.408 . S
C306 C304 1.363 . S
C306 C307 1.370 . S
C306 C310 1.524 . S
C307 C299 1.503 . S
C307 C306 1.370 . S
C307 C308 1.403 . S
C308 C307 1.403 . S
C308 C309 1.404 . S
C308 C311 1.539 . S
C309 C305 1.408 . S
C309 C308 1.404 . S
C309 H321 0.930 . S
C310 C306 1.524 . S
C310 H322 0.956 . S
C310 H323 0.961 . S
C310 H324 0.961 . S
C311 C308 1.539 . S
C311 H325 0.958 . S
C311 H326 0.961 . S
C311 H327 0.960 . S
H312 C296 0.931 . S
H313 C301 0.929 . S
H314 C302 0.960 . S
H315 C302 0.962 . S
H316 C302 0.960 . S
H317 C303 0.961 . S
H318 C303 0.961 . S
H319 C303 0.961 . S
H320 C304 0.931 . S
H321 C309 0.930 . S
H322 C310 0.956 . S
H323 C310 0.961 . S
H324 C310 0.961 . S
H325 C311 0.958 . S
H326 C311 0.961 . S
H327 C311 0.960 . S
C328 C329 1.391 . S
C328 C330 1.394 . S
C328 H344 0.931 . S
C329 C328 1.391 . S
C329 C333 1.376 . S
C330 C328 1.394 . S
C330 C331 1.369 . S
C330 C334 1.531 . S
C331 C330 1.369 . S
C331 C332 1.410 . S
C331 C339 1.503 . S
C332 C331 1.410 . S
C332 C333 1.392 . S
C332 C335 1.511 . S
C333 C329 1.376 . S
C333 C332 1.392 . S
C333 H345 0.929 . S
C334 C330 1.531 . S
C334 H346 0.960 . S
C334 H347 0.962 . S
C334 H348 0.960 . S
C335 C332 1.511 . S
C335 H349 0.961 . S
C335 H350 0.961 . S
C335 H351 0.961 . S
C336 C337 1.370 . S
C336 C338 1.363 . S
C336 H352 0.931 . S
C337 C336 1.370 . S
C337 C341 1.408 . S
C338 C336 1.363 . S
C338 C339 1.370 . S
C338 C342 1.524 . S
C339 C331 1.503 . S
C339 C338 1.370 . S
C339 C340 1.403 . S
C340 C339 1.403 . S
C340 C341 1.404 . S
C340 C343 1.539 . S
C341 C337 1.408 . S
C341 C340 1.404 . S
C341 H353 0.930 . S
C342 C338 1.524 . S
C342 H354 0.956 . S
C342 H355 0.961 . S
C342 H356 0.961 . S
C343 C340 1.539 . S
C343 H357 0.958 . S
C343 H358 0.961 . S
C343 H359 0.960 . S
H344 C328 0.931 . S
H345 C333 0.929 . S
H346 C334 0.960 . S
H347 C334 0.962 . S
H348 C334 0.960 . S
H349 C335 0.961 . S
H350 C335 0.961 . S
H351 C335 0.961 . S
H352 C336 0.931 . S
H353 C341 0.930 . S
H354 C342 0.956 . S
H355 C342 0.961 . S
H356 C342 0.961 . S
H357 C343 0.958 . S
H358 C343 0.961 . S
H359 C343 0.960 . S
C360 C361 1.391 . S
C360 C362 1.394 . S
C360 H376 0.931 . S
C361 C360 1.391 . S
C361 C365 1.376 . S
C362 C360 1.394 . S
C362 C363 1.369 . S
C362 C366 1.531 . S
C363 C362 1.369 . S
C363 C364 1.410 . S
C363 C371 1.503 . S
C364 C363 1.410 . S
C364 C365 1.392 . S
C364 C367 1.511 . S
C365 C361 1.376 . S
C365 C364 1.392 . S
C365 H377 0.929 . S
C366 C362 1.531 . S
C366 H378 0.960 . S
C366 H379 0.962 . S
C366 H380 0.960 . S
C367 C364 1.511 . S
C367 H381 0.961 . S
C367 H382 0.961 . S
C367 H383 0.961 . S
C368 C369 1.370 . S
C368 C370 1.363 . S
C368 H384 0.931 . S
C369 C368 1.370 . S
C369 C373 1.408 . S
C370 C368 1.363 . S
C370 C371 1.370 . S
C370 C374 1.524 . S
C371 C363 1.503 . S
C371 C370 1.370 . S
C371 C372 1.403 . S
C372 C371 1.403 . S
C372 C373 1.404 . S
C372 C375 1.539 1_655 S
C373 C369 1.408 . S
C373 C372 1.404 . S
C373 H385 0.930 1_655 S
C374 C370 1.524 . S
C374 H386 0.956 . S
C374 H387 0.961 . S
C374 H388 0.961 . S
C375 C372 1.539 1_455 S
C375 H389 0.958 . S
C375 H390 0.961 . S
C375 H391 0.960 . S
H376 C360 0.931 . S
H377 C365 0.929 . S
H378 C366 0.960 . S
H379 C366 0.962 . S
H380 C366 0.960 . S
H381 C367 0.961 . S
H382 C367 0.961 . S
H383 C367 0.961 . S
H384 C368 0.931 . S
H385 C373 0.930 1_455 S
H386 C374 0.956 . S
H387 C374 0.961 . S
H388 C374 0.961 . S
H389 C375 0.958 . S
H390 C375 0.961 . S
H391 C375 0.960 . S
C392 C393 1.391 . S
C392 C394 1.394 . S
C392 H408 0.931 . S
C393 C392 1.391 . S
C393 C397 1.376 . S
C394 C392 1.394 . S
C394 C395 1.369 . S
C394 C398 1.531 . S
C395 C394 1.369 . S
C395 C396 1.410 . S
C395 C403 1.503 . S
C396 C395 1.410 . S
C396 C397 1.392 . S
C396 C399 1.511 . S
C397 C393 1.376 . S
C397 C396 1.392 . S
C397 H409 0.929 . S
C398 C394 1.531 . S
C398 H410 0.960 . S
C398 H411 0.962 . S
C398 H412 0.960 . S
C399 C396 1.511 . S
C399 H413 0.961 . S
C399 H414 0.961 . S
C399 H415 0.961 . S
C400 C401 1.370 . S
C400 C402 1.363 . S
C400 H416 0.931 . S
C401 C400 1.370 . S
C401 C405 1.408 . S
C402 C400 1.363 . S
C402 C403 1.370 . S
C402 C406 1.524 . S
C403 C395 1.503 . S
C403 C402 1.370 . S
C403 C404 1.403 . S
C404 C403 1.403 . S
C404 C405 1.404 . S
C404 C407 1.539 . S
C405 C401 1.408 . S
C405 C404 1.404 . S
C405 H417 0.930 . S
C406 C402 1.524 . S
C406 H418 0.956 . S
C406 H419 0.961 . S
C406 H420 0.961 . S
C407 C404 1.539 . S
C407 H421 0.958 . S
C407 H422 0.961 . S
C407 H423 0.960 . S
H408 C392 0.931 . S
H409 C397 0.929 . S
H410 C398 0.960 . S
H411 C398 0.962 . S
H412 C398 0.960 . S
H413 C399 0.961 . S
H414 C399 0.961 . S
H415 C399 0.961 . S
H416 C400 0.931 . S
H417 C405 0.930 . S
H418 C406 0.956 . S
H419 C406 0.961 . S
H420 C406 0.961 . S
H421 C407 0.958 . S
H422 C407 0.961 . S
H423 C407 0.960 . S
C424 C425 1.391 . S
C424 C426 1.394 . S
C424 H440 0.931 . S
C425 C424 1.391 . S
C425 C429 1.376 . S
C426 C424 1.394 . S
C426 C427 1.369 . S
C426 C430 1.531 . S
C427 C426 1.369 . S
C427 C428 1.410 . S
C427 C435 1.503 . S
C428 C427 1.410 . S
C428 C429 1.392 . S
C428 C431 1.511 . S
C429 C425 1.376 . S
C429 C428 1.392 . S
C429 H441 0.929 . S
C430 C426 1.531 . S
C430 H442 0.960 . S
C430 H443 0.962 . S
C430 H444 0.960 . S
C431 C428 1.511 . S
C431 H445 0.961 . S
C431 H446 0.961 . S
C431 H447 0.961 . S
C432 C433 1.370 . S
C432 C434 1.363 . S
C432 H448 0.931 1_455 S
C433 C432 1.370 . S
C433 C437 1.408 . S
C434 C432 1.363 . S
C434 C435 1.370 . S
C434 C438 1.524 . S
C435 C427 1.503 . S
C435 C434 1.370 . S
C435 C436 1.403 . S
C436 C435 1.403 . S
C436 C437 1.404 . S
C436 C439 1.539 . S
C437 C433 1.408 . S
C437 C436 1.404 . S
C437 H449 0.930 . S
C438 C434 1.524 . S
C438 H450 0.956 . S
C438 H451 0.961 . S
C438 H452 0.961 1_455 S
C439 C436 1.539 . S
C439 H453 0.958 . S
C439 H454 0.961 . S
C439 H455 0.960 . S
H440 C424 0.931 . S
H441 C429 0.929 . S
H442 C430 0.960 . S
H443 C430 0.962 . S
H444 C430 0.960 . S
H445 C431 0.961 . S
H446 C431 0.961 . S
H447 C431 0.961 . S
H448 C432 0.931 1_655 S
H449 C437 0.930 . S
H450 C438 0.956 . S
H451 C438 0.961 . S
H452 C438 0.961 1_655 S
H453 C439 0.958 . S
H454 C439 0.961 . S
H455 C439 0.960 . S
C456 C457 1.391 . S
C456 C458 1.394 . S
C456 H472 0.931 . S
C457 C456 1.391 . S
C457 C461 1.376 . S
C458 C456 1.394 . S
C458 C459 1.369 . S
C458 C462 1.531 . S
C459 C458 1.369 . S
C459 C460 1.410 . S
C459 C467 1.503 . S
C460 C459 1.410 . S
C460 C461 1.392 . S
C460 C463 1.511 . S
C461 C457 1.376 . S
C461 C460 1.392 . S
C461 H473 0.929 . S
C462 C458 1.531 . S
C462 H474 0.960 . S
C462 H475 0.962 . S
C462 H476 0.960 . S
C463 C460 1.511 . S
C463 H477 0.961 . S
C463 H478 0.961 . S
C463 H479 0.961 . S
C464 C465 1.370 . S
C464 C466 1.363 . S
C464 H480 0.931 1_556 S
C465 C464 1.370 . S
C465 C469 1.408 . S
C466 C464 1.363 . S
C466 C467 1.370 . S
C466 C470 1.524 . S
C467 C459 1.503 . S
C467 C466 1.370 . S
C467 C468 1.403 . S
C468 C467 1.403 . S
C468 C469 1.404 . S
C468 C471 1.539 . S
C469 C465 1.408 . S
C469 C468 1.404 . S
C469 H481 0.930 . S
C470 C466 1.524 . S
C470 H482 0.956 . S
C470 H483 0.961 . S
C470 H484 0.961 . S
C471 C468 1.539 . S
C471 H485 0.958 . S
C471 H486 0.961 . S
C471 H487 0.960 . S
H472 C456 0.931 . S
H473 C461 0.929 . S
H474 C462 0.960 . S
H475 C462 0.962 . S
H476 C462 0.960 . S
H477 C463 0.961 . S
H478 C463 0.961 . S
H479 C463 0.961 . S
H480 C464 0.931 1_554 S
H481 C469 0.930 . S
H482 C470 0.956 . S
H483 C470 0.961 . S
H484 C470 0.961 . S
H485 C471 0.958 . S
H486 C471 0.961 . S
H487 C471 0.960 . S
C488 C489 1.391 . S
C488 C490 1.394 . S
C488 H504 0.931 . S
C489 C488 1.391 . S
C489 C493 1.376 . S
C490 C488 1.394 . S
C490 C491 1.369 . S
C490 C494 1.531 . S
C491 C490 1.369 . S
C491 C492 1.410 . S
C491 C499 1.503 . S
C492 C491 1.410 . S
C492 C493 1.392 . S
C492 C495 1.511 . S
C493 C489 1.376 . S
C493 C492 1.392 . S
C493 H505 0.929 . S
C494 C490 1.531 . S
C494 H506 0.960 . S
C494 H507 0.962 . S
C494 H508 0.960 . S
C495 C492 1.511 . S
C495 H509 0.961 . S
C495 H510 0.961 . S
C495 H511 0.961 . S
C496 C497 1.370 . S
C496 C498 1.363 . S
C496 H512 0.931 . S
C497 C496 1.370 . S
C497 C501 1.408 . S
C498 C496 1.363 . S
C498 C499 1.370 . S
C498 C502 1.524 . S
C499 C491 1.503 . S
C499 C498 1.370 . S
C499 C500 1.403 . S
C500 C499 1.403 . S
C500 C501 1.404 . S
C500 C503 1.539 . S
C501 C497 1.408 . S
C501 C500 1.404 . S
C501 H513 0.930 . S
C502 C498 1.524 . S
C502 H514 0.956 . S
C502 H515 0.961 . S
C502 H516 0.961 . S
C503 C500 1.539 . S
C503 H517 0.958 . S
C503 H518 0.961 . S
C503 H519 0.960 . S
H504 C488 0.931 . S
H505 C493 0.929 . S
H506 C494 0.960 . S
H507 C494 0.962 . S
H508 C494 0.960 . S
H509 C495 0.961 . S
H510 C495 0.961 . S
H511 C495 0.961 . S
H512 C496 0.931 . S
H513 C501 0.930 . S
H514 C502 0.956 . S
H515 C502 0.961 . S
H516 C502 0.961 . S
H517 C503 0.958 . S
H518 C503 0.961 . S
H519 C503 0.960 . S
C520 C521 1.391 . S
C520 C522 1.394 . S
C520 H536 0.931 . S
C521 C520 1.391 . S
C521 C525 1.376 . S
C522 C520 1.394 . S
C522 C523 1.369 . S
C522 C526 1.531 . S
C523 C522 1.369 . S
C523 C524 1.410 . S
C523 C531 1.503 . S
C524 C523 1.410 . S
C524 C525 1.392 . S
C524 C527 1.511 . S
C525 C521 1.376 . S
C525 C524 1.392 . S
C525 H537 0.929 . S
C526 C522 1.531 . S
C526 H538 0.960 . S
C526 H539 0.962 . S
C526 H540 0.960 . S
C527 C524 1.511 . S
C527 H541 0.961 . S
C527 H542 0.961 . S
C527 H543 0.961 . S
C528 C529 1.370 . S
C528 C530 1.363 . S
C528 H544 0.931 . S
C529 C528 1.370 . S
C529 C533 1.408 . S
C530 C528 1.363 . S
C530 C531 1.370 . S
C530 C534 1.524 . S
C531 C523 1.503 . S
C531 C530 1.370 . S
C531 C532 1.403 . S
C532 C531 1.403 . S
C532 C533 1.404 . S
C532 C535 1.539 . S
C533 C529 1.408 . S
C533 C532 1.404 . S
C533 H545 0.930 . S
C534 C530 1.524 . S
C534 H546 0.956 . S
C534 H547 0.961 . S
C534 H548 0.961 . S
C535 C532 1.539 . S
C535 H549 0.958 . S
C535 H550 0.961 . S
C535 H551 0.960 . S
H536 C520 0.931 . S
H537 C525 0.929 . S
H538 C526 0.960 . S
H539 C526 0.962 . S
H540 C526 0.960 . S
H541 C527 0.961 . S
H542 C527 0.961 . S
H543 C527 0.961 . S
H544 C528 0.931 . S
H545 C533 0.930 . S
H546 C534 0.956 . S
H547 C534 0.961 . S
H548 C534 0.961 . S
H549 C535 0.958 . S
H550 C535 0.961 . S
H551 C535 0.960 . S
C552 C553 1.391 . S
C552 C554 1.394 . S
C552 H568 0.931 . S
C553 C552 1.391 . S
C553 C557 1.376 . S
C554 C552 1.394 . S
C554 C555 1.369 . S
C554 C558 1.531 . S
C555 C554 1.369 . S
C555 C556 1.410 . S
C555 C563 1.503 . S
C556 C555 1.410 . S
C556 C557 1.392 . S
C556 C559 1.511 . S
C557 C553 1.376 . S
C557 C556 1.392 . S
C557 H569 0.929 . S
C558 C554 1.531 . S
C558 H570 0.960 . S
C558 H571 0.962 . S
C558 H572 0.960 . S
C559 C556 1.511 . S
C559 H573 0.961 . S
C559 H574 0.961 . S
C559 H575 0.961 . S
C560 C561 1.370 . S
C560 C562 1.363 . S
C560 H576 0.931 . S
C561 C560 1.370 . S
C561 C565 1.408 . S
C562 C560 1.363 . S
C562 C563 1.370 . S
C562 C566 1.524 . S
C563 C555 1.503 . S
C563 C562 1.370 . S
C563 C564 1.403 . S
C564 C563 1.403 . S
C564 C565 1.404 . S
C564 C567 1.539 . S
C565 C561 1.408 . S
C565 C564 1.404 . S
C565 H577 0.930 . S
C566 C562 1.524 . S
C566 H578 0.956 . S
C566 H579 0.961 . S
C566 H580 0.961 . S
C567 C564 1.539 . S
C567 H581 0.958 . S
C567 H582 0.961 . S
C567 H583 0.960 . S
H568 C552 0.931 . S
H569 C557 0.929 . S
H570 C558 0.960 . S
H571 C558 0.962 . S
H572 C558 0.960 . S
H573 C559 0.961 . S
H574 C559 0.961 . S
H575 C559 0.961 . S
H576 C560 0.931 . S
H577 C565 0.930 . S
H578 C566 0.956 . S
H579 C566 0.961 . S
H580 C566 0.961 . S
H581 C567 0.958 . S
H582 C567 0.961 . S
H583 C567 0.960 . S
C584 C585 1.391 . S
C584 C586 1.394 . S
C584 H600 0.931 . S
C585 C584 1.391 . S
C585 C589 1.376 . S
C586 C584 1.394 . S
C586 C587 1.369 . S
C586 C590 1.531 . S
C587 C586 1.369 . S
C587 C588 1.410 . S
C587 C595 1.503 . S
C588 C587 1.410 . S
C588 C589 1.392 . S
C588 C591 1.511 . S
C589 C585 1.376 . S
C589 C588 1.392 . S
C589 H601 0.929 . S
C590 C586 1.531 . S
C590 H602 0.960 . S
C590 H603 0.962 . S
C590 H604 0.960 . S
C591 C588 1.511 . S
C591 H605 0.961 . S
C591 H606 0.961 . S
C591 H607 0.961 . S
C592 C593 1.370 . S
C592 C594 1.363 . S
C592 H608 0.931 . S
C593 C592 1.370 . S
C593 C597 1.408 . S
C594 C592 1.363 . S
C594 C595 1.370 . S
C594 C598 1.524 . S
C595 C587 1.503 . S
C595 C594 1.370 . S
C595 C596 1.403 . S
C596 C595 1.403 . S
C596 C597 1.404 . S
C596 C599 1.539 . S
C597 C593 1.408 . S
C597 C596 1.404 . S
C597 H609 0.930 . S
C598 C594 1.524 . S
C598 H610 0.956 . S
C598 H611 0.961 . S
C598 H612 0.961 . S
C599 C596 1.539 . S
C599 H613 0.958 . S
C599 H614 0.961 . S
C599 H615 0.960 . S
H600 C584 0.931 . S
H601 C589 0.929 . S
H602 C590 0.960 . S
H603 C590 0.962 . S
H604 C590 0.960 . S
H605 C591 0.961 . S
H606 C591 0.961 . S
H607 C591 0.961 . S
H608 C592 0.931 . S
H609 C597 0.930 . S
H610 C598 0.956 . S
H611 C598 0.961 . S
H612 C598 0.961 . S
H613 C599 0.958 . S
H614 C599 0.961 . S
H615 C599 0.960 . S
C616 C617 1.391 . S
C616 C618 1.394 . S
C616 H632 0.931 . S
C617 C616 1.391 . S
C617 C621 1.376 . S
C618 C616 1.394 . S
C618 C619 1.369 . S
C618 C622 1.531 . S
C619 C618 1.369 . S
C619 C620 1.410 . S
C619 C627 1.503 . S
C620 C619 1.410 . S
C620 C621 1.392 . S
C620 C623 1.511 . S
C621 C617 1.376 . S
C621 C620 1.392 . S
C621 H633 0.929 . S
C622 C618 1.531 . S
C622 H634 0.960 . S
C622 H635 0.962 . S
C622 H636 0.960 . S
C623 C620 1.511 . S
C623 H637 0.961 . S
C623 H638 0.961 . S
C623 H639 0.961 . S
C624 C625 1.370 . S
C624 C626 1.363 . S
C624 H640 0.931 . S
C625 C624 1.370 . S
C625 C629 1.408 . S
C626 C624 1.363 . S
C626 C627 1.370 . S
C626 C630 1.524 . S
C627 C619 1.503 . S
C627 C626 1.370 . S
C627 C628 1.403 . S
C628 C627 1.403 . S
C628 C629 1.404 . S
C628 C631 1.539 . S
C629 C625 1.408 . S
C629 C628 1.404 . S
C629 H641 0.930 . S
C630 C626 1.524 . S
C630 H642 0.956 . S
C630 H643 0.961 . S
C630 H644 0.961 . S
C631 C628 1.539 . S
C631 H645 0.958 . S
C631 H646 0.961 . S
C631 H647 0.960 . S
H632 C616 0.931 . S
H633 C621 0.929 . S
H634 C622 0.960 . S
H635 C622 0.962 . S
H636 C622 0.960 . S
H637 C623 0.961 . S
H638 C623 0.961 . S
H639 C623 0.961 . S
H640 C624 0.931 . S
H641 C629 0.930 . S
H642 C630 0.956 . S
H643 C630 0.961 . S
H644 C630 0.961 . S
H645 C631 0.958 . S
H646 C631 0.961 . S
H647 C631 0.960 . S
C648 C649 1.391 . S
C648 C650 1.394 . S
C648 H664 0.931 . S
C649 C648 1.391 . S
C649 C653 1.376 . S
C650 C648 1.394 . S
C650 C651 1.369 . S
C650 C654 1.531 . S
C651 C650 1.369 . S
C651 C652 1.410 . S
C651 C659 1.503 . S
C652 C651 1.410 . S
C652 C653 1.392 . S
C652 C655 1.511 . S
C653 C649 1.376 . S
C653 C652 1.392 . S
C653 H665 0.929 . S
C654 C650 1.531 . S
C654 H666 0.960 . S
C654 H667 0.962 . S
C654 H668 0.960 . S
C655 C652 1.511 . S
C655 H669 0.961 . S
C655 H670 0.961 . S
C655 H671 0.961 . S
C656 C657 1.370 . S
C656 C658 1.363 . S
C656 H672 0.931 . S
C657 C656 1.370 . S
C657 C661 1.408 . S
C658 C656 1.363 . S
C658 C659 1.370 . S
C658 C662 1.524 . S
C659 C651 1.503 . S
C659 C658 1.370 . S
C659 C660 1.403 . S
C660 C659 1.403 . S
C660 C661 1.404 . S
C660 C663 1.539 . S
C661 C657 1.408 . S
C661 C660 1.404 . S
C661 H673 0.930 . S
C662 C658 1.524 . S
C662 H674 0.956 . S
C662 H675 0.961 . S
C662 H676 0.961 . S
C663 C660 1.539 . S
C663 H677 0.958 . S
C663 H678 0.961 . S
C663 H679 0.960 . S
H664 C648 0.931 . S
H665 C653 0.929 . S
H666 C654 0.960 . S
H667 C654 0.962 . S
H668 C654 0.960 . S
H669 C655 0.961 . S
H670 C655 0.961 . S
H671 C655 0.961 . S
H672 C656 0.931 . S
H673 C661 0.930 . S
H674 C662 0.956 . S
H675 C662 0.961 . S
H676 C662 0.961 . S
H677 C663 0.958 . S
H678 C663 0.961 . S
H679 C663 0.960 . S
C680 C681 1.391 . S
C680 C682 1.394 . S
C680 H696 0.931 . S
C681 C680 1.391 . S
C681 C685 1.376 . S
C682 C680 1.394 . S
C682 C683 1.369 . S
C682 C686 1.531 . S
C683 C682 1.369 . S
C683 C684 1.410 . S
C683 C691 1.503 . S
C684 C683 1.410 . S
C684 C685 1.392 . S
C684 C687 1.511 . S
C685 C681 1.376 . S
C685 C684 1.392 . S
C685 H697 0.929 . S
C686 C682 1.531 . S
C686 H698 0.960 . S
C686 H699 0.962 . S
C686 H700 0.960 . S
C687 C684 1.511 . S
C687 H701 0.961 . S
C687 H702 0.961 . S
C687 H703 0.961 . S
C688 C689 1.370 . S
C688 C690 1.363 . S
C688 H704 0.931 . S
C689 C688 1.370 . S
C689 C693 1.408 . S
C690 C688 1.363 . S
C690 C691 1.370 . S
C690 C694 1.524 . S
C691 C683 1.503 . S
C691 C690 1.370 . S
C691 C692 1.403 . S
C692 C691 1.403 . S
C692 C693 1.404 . S
C692 C695 1.539 . S
C693 C689 1.408 . S
C693 C692 1.404 . S
C693 H705 0.930 . S
C694 C690 1.524 . S
C694 H706 0.956 . S
C694 H707 0.961 . S
C694 H708 0.961 . S
C695 C692 1.539 . S
C695 H709 0.958 . S
C695 H710 0.961 . S
C695 H711 0.960 . S
H696 C680 0.931 . S
H697 C685 0.929 . S
H698 C686 0.960 . S
H699 C686 0.962 . S
H700 C686 0.960 . S
H701 C687 0.961 . S
H702 C687 0.961 . S
H703 C687 0.961 . S
H704 C688 0.931 . S
H705 C693 0.930 . S
H706 C694 0.956 . S
H707 C694 0.961 . S
H708 C694 0.961 . S
H709 C695 0.958 . S
H710 C695 0.961 . S
H711 C695 0.960 . S
C712 C713 1.391 . S
C712 C714 1.394 . S
C712 H728 0.931 . S
C713 C712 1.391 . S
C713 C717 1.376 . S
C714 C712 1.394 . S
C714 C715 1.369 . S
C714 C718 1.531 . S
C715 C714 1.369 . S
C715 C716 1.410 . S
C715 C723 1.503 . S
C716 C715 1.410 . S
C716 C717 1.392 . S
C716 C719 1.511 . S
C717 C713 1.376 . S
C717 C716 1.392 . S
C717 H729 0.929 . S
C718 C714 1.531 . S
C718 H730 0.960 . S
C718 H731 0.962 . S
C718 H732 0.960 . S
C719 C716 1.511 . S
C719 H733 0.961 . S
C719 H734 0.961 . S
C719 H735 0.961 . S
C720 C721 1.370 . S
C720 C722 1.363 . S
C720 H736 0.931 . S
C721 C720 1.370 . S
C721 C725 1.408 . S
C722 C720 1.363 . S
C722 C723 1.370 . S
C722 C726 1.524 . S
C723 C715 1.503 . S
C723 C722 1.370 . S
C723 C724 1.403 . S
C724 C723 1.403 . S
C724 C725 1.404 . S
C724 C727 1.539 . S
C725 C721 1.408 . S
C725 C724 1.404 . S
C725 H737 0.930 . S
C726 C722 1.524 . S
C726 H738 0.956 . S
C726 H739 0.961 . S
C726 H740 0.961 . S
C727 C724 1.539 . S
C727 H741 0.958 . S
C727 H742 0.961 . S
C727 H743 0.960 . S
H728 C712 0.931 . S
H729 C717 0.929 . S
H730 C718 0.960 . S
H731 C718 0.962 . S
H732 C718 0.960 . S
H733 C719 0.961 . S
H734 C719 0.961 . S
H735 C719 0.961 . S
H736 C720 0.931 . S
H737 C725 0.930 . S
H738 C726 0.956 . S
H739 C726 0.961 . S
H740 C726 0.961 . S
H741 C727 0.958 . S
H742 C727 0.961 . S
H743 C727 0.960 . S
C744 C745 1.391 . S
C744 C746 1.394 . S
C744 H760 0.931 . S
C745 C744 1.391 . S
C745 C749 1.376 . S
C746 C744 1.394 . S
C746 C747 1.369 . S
C746 C750 1.531 . S
C747 C746 1.369 . S
C747 C748 1.410 . S
C747 C755 1.503 . S
C748 C747 1.410 . S
C748 C749 1.392 . S
C748 C751 1.511 . S
C749 C745 1.376 . S
C749 C748 1.392 . S
C749 H761 0.929 . S
C750 C746 1.531 . S
C750 H762 0.960 . S
C750 H763 0.962 . S
C750 H764 0.960 . S
C751 C748 1.511 . S
C751 H765 0.961 . S
C751 H766 0.961 . S
C751 H767 0.961 . S
C752 C753 1.370 . S
C752 C754 1.363 . S
C752 H768 0.931 . S
C753 C752 1.370 . S
C753 C757 1.408 . S
C754 C752 1.363 . S
C754 C755 1.370 . S
C754 C758 1.524 . S
C755 C747 1.503 . S
C755 C754 1.370 . S
C755 C756 1.403 . S
C756 C755 1.403 . S
C756 C757 1.404 . S
C756 C759 1.539 . S
C757 C753 1.408 . S
C757 C756 1.404 . S
C757 H769 0.930 . S
C758 C754 1.524 . S
C758 H770 0.956 . S
C758 H771 0.961 . S
C758 H772 0.961 . S
C759 C756 1.539 . S
C759 H773 0.958 . S
C759 H774 0.961 . S
C759 H775 0.960 . S
H760 C744 0.931 . S
H761 C749 0.929 . S
H762 C750 0.960 . S
H763 C750 0.962 . S
H764 C750 0.960 . S
H765 C751 0.961 . S
H766 C751 0.961 . S
H767 C751 0.961 . S
H768 C752 0.931 . S
H769 C757 0.930 . S
H770 C758 0.956 . S
H771 C758 0.961 . S
H772 C758 0.961 . S
H773 C759 0.958 . S
H774 C759 0.961 . S
H775 C759 0.960 . S
C776 C777 1.391 . S
C776 C778 1.394 . S
C776 H792 0.931 . S
C777 C776 1.391 . S
C777 C781 1.376 . S
C778 C776 1.394 . S
C778 C779 1.369 . S
C778 C782 1.531 . S
C779 C778 1.369 . S
C779 C780 1.410 . S
C779 C787 1.503 . S
C780 C779 1.410 . S
C780 C781 1.392 . S
C780 C783 1.511 . S
C781 C777 1.376 . S
C781 C780 1.392 . S
C781 H793 0.929 . S
C782 C778 1.531 . S
C782 H794 0.960 . S
C782 H795 0.962 . S
C782 H796 0.960 . S
C783 C780 1.511 . S
C783 H797 0.961 . S
C783 H798 0.961 . S
C783 H799 0.961 . S
C784 C785 1.370 . S
C784 C786 1.363 . S
C784 H800 0.931 . S
C785 C784 1.370 . S
C785 C789 1.408 . S
C786 C784 1.363 . S
C786 C787 1.370 . S
C786 C790 1.524 . S
C787 C779 1.503 . S
C787 C786 1.370 . S
C787 C788 1.403 . S
C788 C787 1.403 . S
C788 C789 1.404 . S
C788 C791 1.539 . S
C789 C785 1.408 . S
C789 C788 1.404 . S
C789 H801 0.930 . S
C790 C786 1.524 . S
C790 H802 0.956 . S
C790 H803 0.961 . S
C790 H804 0.961 . S
C791 C788 1.539 . S
C791 H805 0.958 . S
C791 H806 0.961 . S
C791 H807 0.960 . S
H792 C776 0.931 . S
H793 C781 0.929 . S
H794 C782 0.960 . S
H795 C782 0.962 . S
H796 C782 0.960 . S
H797 C783 0.961 . S
H798 C783 0.961 . S
H799 C783 0.961 . S
H800 C784 0.931 . S
H801 C789 0.930 . S
H802 C790 0.956 . S
H803 C790 0.961 . S
H804 C790 0.961 . S
H805 C791 0.958 . S
H806 C791 0.961 . S
H807 C791 0.960 . S
C808 C809 1.391 . S
C808 C810 1.394 . S
C808 H824 0.931 . S
C809 C808 1.391 . S
C809 C813 1.376 . S
C810 C808 1.394 . S
C810 C811 1.369 . S
C810 C814 1.531 . S
C811 C810 1.369 . S
C811 C812 1.410 . S
C811 C819 1.503 . S
C812 C811 1.410 . S
C812 C813 1.392 . S
C812 C815 1.511 . S
C813 C809 1.376 . S
C813 C812 1.392 . S
C813 H825 0.929 . S
C814 C810 1.531 . S
C814 H826 0.960 . S
C814 H827 0.962 1_655 S
C814 H828 0.960 . S
C815 C812 1.511 . S
C815 H829 0.961 . S
C815 H830 0.961 . S
C815 H831 0.961 . S
C816 C817 1.370 1_455 S
C816 C818 1.361 1_455 S
C816 H832 0.931 . S
C817 C816 1.370 1_655 S
C817 C821 1.408 . S
C818 C816 1.361 1_655 S
C818 C819 1.376 . S
C818 C822 1.521 1_655 S
C819 C811 1.503 . S
C819 C818 1.376 . S
C819 C820 1.403 . S
C820 C819 1.403 . S
C820 C821 1.404 . S
C820 C823 1.539 . S
C821 C817 1.408 . S
C821 C820 1.404 . S
C821 H833 0.930 . S
C822 C818 1.521 1_455 S
C822 H834 0.956 . S
C822 H835 0.961 . S
C822 H836 0.961 . S
C823 C820 1.539 . S
C823 H837 0.958 . S
C823 H838 0.961 . S
C823 H839 0.960 . S
H824 C808 0.931 . S
H825 C813 0.929 . S
H826 C814 0.960 . S
H827 C814 0.962 1_455 S
H828 C814 0.960 . S
H829 C815 0.961 . S
H830 C815 0.961 . S
H831 C815 0.961 . S
H832 C816 0.931 . S
H833 C821 0.930 . S
H834 C822 0.956 . S
H835 C822 0.961 . S
H836 C822 0.961 . S
H837 C823 0.958 . S
H838 C823 0.961 . S
H839 C823 0.960 . S
C840 C841 1.391 . S
C840 C842 1.394 . S
C840 H856 0.931 . S
C841 C840 1.391 . S
C841 C845 1.376 . S
C842 C840 1.394 . S
C842 C843 1.369 . S
C842 C846 1.531 . S
C843 C842 1.369 . S
C843 C844 1.410 . S
C843 C851 1.503 . S
C844 C843 1.410 . S
C844 C845 1.392 . S
C844 C847 1.511 . S
C845 C841 1.376 . S
C845 C844 1.392 . S
C845 H857 0.929 . S
C846 C842 1.531 . S
C846 H858 0.960 . S
C846 H859 0.962 . S
C846 H860 0.960 . S
C847 C844 1.511 . S
C847 H861 0.961 . S
C847 H862 0.961 . S
C847 H863 0.961 . S
C848 C849 1.370 . S
C848 C850 1.363 . S
C848 H864 0.931 . S
C849 C848 1.370 . S
C849 C853 1.408 . S
C850 C848 1.363 . S
C850 C851 1.370 . S
C850 C854 1.524 . S
C851 C843 1.503 . S
C851 C850 1.370 . S
C851 C852 1.403 . S
C852 C851 1.403 . S
C852 C853 1.404 . S
C852 C855 1.539 . S
C853 C849 1.408 . S
C853 C852 1.404 . S
C853 H865 0.930 . S
C854 C850 1.524 . S
C854 H866 0.956 . S
C854 H867 0.961 . S
C854 H868 0.961 . S
C855 C852 1.539 . S
C855 H869 0.958 . S
C855 H870 0.961 . S
C855 H871 0.960 . S
H856 C840 0.931 . S
H857 C845 0.929 . S
H858 C846 0.960 . S
H859 C846 0.962 . S
H860 C846 0.960 . S
H861 C847 0.961 . S
H862 C847 0.961 . S
H863 C847 0.961 . S
H864 C848 0.931 . S
H865 C853 0.930 . S
H866 C854 0.956 . S
H867 C854 0.961 . S
H868 C854 0.961 . S
H869 C855 0.958 . S
H870 C855 0.961 . S
H871 C855 0.960 . S
C872 C873 1.391 . S
C872 C874 1.394 . S
C872 H888 0.931 . S
C873 C872 1.391 . S
C873 C877 1.376 . S
C874 C872 1.394 . S
C874 C875 1.369 . S
C874 C878 1.531 . S
C875 C874 1.369 . S
C875 C876 1.410 . S
C875 C883 1.503 . S
C876 C875 1.410 . S
C876 C877 1.392 . S
C876 C879 1.511 . S
C877 C873 1.376 . S
C877 C876 1.392 . S
C877 H889 0.929 . S
C878 C874 1.531 . S
C878 H890 0.960 . S
C878 H891 0.962 . S
C878 H892 0.960 . S
C879 C876 1.511 . S
C879 H893 0.961 . S
C879 H894 0.961 . S
C879 H895 0.961 . S
C880 C881 1.370 . S
C880 C882 1.363 . S
C880 H896 0.931 . S
C881 C880 1.370 . S
C881 C885 1.408 . S
C882 C880 1.363 . S
C882 C883 1.370 . S
C882 C886 1.524 . S
C883 C875 1.503 . S
C883 C882 1.370 . S
C883 C884 1.403 . S
C884 C883 1.403 . S
C884 C885 1.404 . S
C884 C887 1.539 . S
C885 C881 1.408 . S
C885 C884 1.404 . S
C885 H897 0.930 . S
C886 C882 1.524 . S
C886 H898 0.956 . S
C886 H899 0.961 . S
C886 H900 0.961 . S
C887 C884 1.539 . S
C887 H901 0.958 . S
C887 H902 0.961 . S
C887 H903 0.960 . S
H888 C872 0.931 . S
H889 C877 0.929 . S
H890 C878 0.960 . S
H891 C878 0.962 . S
H892 C878 0.960 . S
H893 C879 0.961 . S
H894 C879 0.961 . S
H895 C879 0.961 . S
H896 C880 0.931 . S
H897 C885 0.930 . S
H898 C886 0.956 . S
H899 C886 0.961 . S
H900 C886 0.961 . S
H901 C887 0.958 . S
H902 C887 0.961 . S
H903 C887 0.960 . S
C904 C905 1.391 . S
C904 C906 1.394 . S
C904 H920 0.931 . S
C905 C904 1.391 . S
C905 C909 1.376 . S
C906 C904 1.394 . S
C906 C907 1.369 . S
C906 C910 1.531 . S
C907 C906 1.369 . S
C907 C908 1.410 . S
C907 C915 1.503 . S
C908 C907 1.410 . S
C908 C909 1.392 . S
C908 C911 1.511 . S
C909 C905 1.376 . S
C909 C908 1.392 . S
C909 H921 0.929 . S
C910 C906 1.531 . S
C910 H922 0.960 . S
C910 H923 0.962 . S
C910 H924 0.960 . S
C911 C908 1.511 . S
C911 H925 0.961 . S
C911 H926 0.961 . S
C911 H927 0.961 . S
C912 C913 1.370 . S
C912 C914 1.363 . S
C912 H928 0.931 1_556 S
C913 C912 1.370 . S
C913 C917 1.408 . S
C914 C912 1.363 . S
C914 C915 1.370 . S
C914 C918 1.524 . S
C915 C907 1.503 . S
C915 C914 1.370 . S
C915 C916 1.403 . S
C916 C915 1.403 . S
C916 C917 1.404 . S
C916 C919 1.539 . S
C917 C913 1.408 . S
C917 C916 1.404 . S
C917 H929 0.930 . S
C918 C914 1.524 . S
C918 H930 0.956 . S
C918 H931 0.961 . S
C918 H932 0.961 1_556 S
C919 C916 1.539 . S
C919 H933 0.958 . S
C919 H934 0.961 . S
C919 H935 0.960 . S
H920 C904 0.931 . S
H921 C909 0.929 . S
H922 C910 0.960 . S
H923 C910 0.962 . S
H924 C910 0.960 . S
H925 C911 0.961 . S
H926 C911 0.961 . S
H927 C911 0.961 . S
H928 C912 0.931 1_554 S
H929 C917 0.930 . S
H930 C918 0.956 . S
H931 C918 0.961 . S
H932 C918 0.961 1_554 S
H933 C919 0.958 . S
H934 C919 0.961 . S
H935 C919 0.960 . S
C936 C937 1.391 . S
C936 C938 1.394 . S
C936 H952 0.931 . S
C937 C936 1.391 . S
C937 C941 1.376 . S
C938 C936 1.394 . S
C938 C939 1.369 . S
C938 C942 1.531 . S
C939 C938 1.369 . S
C939 C940 1.410 . S
C939 C947 1.503 . S
C940 C939 1.410 . S
C940 C941 1.392 . S
C940 C943 1.511 . S
C941 C937 1.376 . S
C941 C940 1.392 . S
C941 H953 0.929 . S
C942 C938 1.531 . S
C942 H954 0.960 . S
C942 H955 0.962 . S
C942 H956 0.960 . S
C943 C940 1.511 . S
C943 H957 0.961 . S
C943 H958 0.961 . S
C943 H959 0.961 . S
C944 C945 1.370 . S
C944 C946 1.363 . S
C944 H960 0.931 . S
C945 C944 1.370 . S
C945 C949 1.408 . S
C946 C944 1.363 . S
C946 C947 1.370 . S
C946 C950 1.524 . S
C947 C939 1.503 . S
C947 C946 1.370 . S
C947 C948 1.403 . S
C948 C947 1.403 . S
C948 C949 1.404 . S
C948 C951 1.539 . S
C949 C945 1.408 . S
C949 C948 1.404 . S
C949 H961 0.930 . S
C950 C946 1.524 . S
C950 H962 0.956 . S
C950 H963 0.961 . S
C950 H964 0.961 . S
C951 C948 1.539 . S
C951 H965 0.958 . S
C951 H966 0.961 . S
C951 H967 0.960 . S
H952 C936 0.931 . S
H953 C941 0.929 . S
H954 C942 0.960 . S
H955 C942 0.962 . S
H956 C942 0.960 . S
H957 C943 0.961 . S
H958 C943 0.961 . S
H959 C943 0.961 . S
H960 C944 0.931 . S
H961 C949 0.930 . S
H962 C950 0.956 . S
H963 C950 0.961 . S
H964 C950 0.961 . S
H965 C951 0.958 . S
H966 C951 0.961 . S
H967 C951 0.960 . S
C968 C969 1.391 . S
C968 C970 1.394 . S
C968 H984 0.931 . S
C969 C968 1.391 . S
C969 C973 1.376 . S
C970 C968 1.394 . S
C970 C971 1.369 . S
C970 C974 1.531 . S
C971 C970 1.369 . S
C971 C972 1.410 . S
C971 C979 1.503 . S
C972 C971 1.410 . S
C972 C973 1.392 . S
C972 C975 1.511 . S
C973 C969 1.376 . S
C973 C972 1.392 . S
C973 H985 0.929 . S
C974 C970 1.531 . S
C974 H986 0.960 . S
C974 H987 0.962 . S
C974 H988 0.960 . S
C975 C972 1.511 . S
C975 H989 0.961 . S
C975 H990 0.961 . S
C975 H991 0.961 . S
C976 C977 1.370 . S
C976 C978 1.363 . S
C976 H992 0.931 . S
C977 C976 1.370 . S
C977 C981 1.408 . S
C978 C976 1.363 . S
C978 C979 1.370 . S
C978 C982 1.524 . S
C979 C971 1.503 . S
C979 C978 1.370 . S
C979 C980 1.403 . S
C980 C979 1.403 . S
C980 C981 1.404 . S
C980 C983 1.539 . S
C981 C977 1.408 . S
C981 C980 1.404 . S
C981 H993 0.930 . S
C982 C978 1.524 . S
C982 H994 0.956 . S
C982 H995 0.961 . S
C982 H996 0.961 . S
C983 C980 1.539 . S
C983 H997 0.958 . S
C983 H998 0.961 . S
C983 H999 0.960 . S
H984 C968 0.931 . S
H985 C973 0.929 . S
H986 C974 0.960 . S
H987 C974 0.962 . S
H988 C974 0.960 . S
H989 C975 0.961 . S
H990 C975 0.961 . S
H991 C975 0.961 . S
H992 C976 0.931 . S
H993 C981 0.930 . S
H994 C982 0.956 . S
H995 C982 0.961 . S
H996 C982 0.961 . S
H997 C983 0.958 . S
H998 C983 0.961 . S
H999 C983 0.960 . S
C1000 C1001 1.391 . S
C1000 C1002 1.394 . S
C1000 H1016 0.931 . S
C1001 C1000 1.391 . S
C1001 C1005 1.376 . S
C1002 C1000 1.394 . S
C1002 C1003 1.369 . S
C1002 C1006 1.531 . S
C1003 C1002 1.369 . S
C1003 C1004 1.410 . S
C1003 C1011 1.503 . S
C1004 C1003 1.410 . S
C1004 C1005 1.392 . S
C1004 C1007 1.511 . S
C1005 C1001 1.376 . S
C1005 C1004 1.392 . S
C1005 H1017 0.929 . S
C1006 C1002 1.531 . S
C1006 H1018 0.960 . S
C1006 H1019 0.962 . S
C1006 H1020 0.960 . S
C1007 C1004 1.511 . S
C1007 H1021 0.961 . S
C1007 H1022 0.961 . S
C1007 H1023 0.961 . S
C1008 C1009 1.370 . S
C1008 C1010 1.363 . S
C1008 H1024 0.931 . S
C1009 C1008 1.370 . S
C1009 C1013 1.408 . S
C1010 C1008 1.363 . S
C1010 C1011 1.370 . S
C1010 C1014 1.524 . S
C1011 C1003 1.503 . S
C1011 C1010 1.370 . S
C1011 C1012 1.403 . S
C1012 C1011 1.403 . S
C1012 C1013 1.404 . S
C1012 C1015 1.539 . S
C1013 C1009 1.408 . S
C1013 C1012 1.404 . S
C1013 H1025 0.930 . S
C1014 C1010 1.524 . S
C1014 H1026 0.956 . S
C1014 H1027 0.961 . S
C1014 H1028 0.961 . S
C1015 C1012 1.539 . S
C1015 H1029 0.958 . S
C1015 H1030 0.961 . S
C1015 H1031 0.960 . S
H1016 C1000 0.931 . S
H1017 C1005 0.929 . S
H1018 C1006 0.960 . S
H1019 C1006 0.962 . S
H1020 C1006 0.960 . S
H1021 C1007 0.961 . S
H1022 C1007 0.961 . S
H1023 C1007 0.961 . S
H1024 C1008 0.931 . S
H1025 C1013 0.930 . S
H1026 C1014 0.956 . S
H1027 C1014 0.961 . S
H1028 C1014 0.961 . S
H1029 C1015 0.958 . S
H1030 C1015 0.961 . S
H1031 C1015 0.960 . S
C265 C9 1.618 . S
C273 C119 1.611 . S
C297 C21 1.043 . S
C305 C159 1.033 . S
C337 C193 2.033 . S
C329 C30 1.986 . S
C361 C43 2.396 . S
C369 C234 2.398 . S
C401 C154 1.364 . S
C393 C4 1.207 . S
C433 C114 2.479 . S
C425 C22 2.365 . S
C465 C242 1.332 1_556 S
C457 C34 1.338 . S
C497 C203 1.647 . S
C489 C48 1.661 . S
C521 C8 1.438 . S
C529 C239 1.427 . S
C561 C162 1.934 . S
C553 C35 1.941 . S
C585 C47 2.549 . S
C593 C122 2.451 . S
C617 C17 1.382 . S
C625 C190 1.483 . S
C657 C110 1.134 . S
C649 C60 1.157 . S
C681 C74 1.102 . S
C689 C150 1.101 . S
C713 C82 1.666 . S
C721 C202 1.725 . S
C745 C100 2.994 . S
C753 C243 2.922 1_556 S
C777 C61 1.685 . S
C785 C163 1.753 . S
C817 C123 1.921 . S
C809 C73 1.794 . S
C849 C233 1.753 . S
C841 C87 1.788 . S
C881 C194 1.585 . S
C873 C95 1.653 . S
C905 C56 1.230 . S
C913 C230 1.203 . S
C945 C153 2.151 . S
C937 C86 2.193 . S
C977 C113 2.437 . S
C969 C99 2.479 . S
C1001 C69 1.236 . S
C1009 C199 1.337 . S
