# Generated by pormake.
# Topology wbl, (4,4)-cn, num edge types: 1
# Building blocks:
#     Node 0, Type 0, BuildingBlock: MIFKUJ_clean_linker_1, # of connection points: 4
#     Node 1, Type 0, BuildingBlock: MIFKUJ_clean_linker_1, # of connection points: 4
#     Node 2, Type 0, BuildingBlock: MIFKUJ_clean_linker_1, # of connection points: 4
#     Node 3, Type 0, BuildingBlock: MIFKUJ_clean_linker_1, # of connection points: 4
#     Node 4, Type 0, BuildingBlock: MIFKUJ_clean_linker_1, # of connection points: 4
#     Node 5, Type 0, BuildingBlock: MIFKUJ_clean_linker_1, # of connection points: 4
#     Node 6, Type 0, BuildingBlock: MIFKUJ_clean_linker_1, # of connection points: 4
#     Node 7, Type 0, BuildingBlock: MIFKUJ_clean_linker_1, # of connection points: 4
#     Node 8, Type 1, BuildingBlock: QUQFOY_clean_sbu_3, # of connection points: 4
#     Node 9, Type 1, BuildingBlock: QUQFOY_clean_sbu_3, # of connection points: 4
#     Node 10, Type 1, BuildingBlock: QUQFOY_clean_sbu_3, # of connection points: 4
#     Node 11, Type 1, BuildingBlock: QUQFOY_clean_sbu_3, # of connection points: 4
#     Node 12, Type 1, BuildingBlock: QUQFOY_clean_sbu_3, # of connection points: 4
#     Node 13, Type 1, BuildingBlock: QUQFOY_clean_sbu_3, # of connection points: 4
#     Node 14, Type 1, BuildingBlock: QUQFOY_clean_sbu_3, # of connection points: 4
#     Node 15, Type 1, BuildingBlock: QUQFOY_clean_sbu_3, # of connection points: 4
#     Edge 16, Type (0, 1), None
#     Edge 17, Type (0, 1), None
#     Edge 18, Type (0, 1), None
#     Edge 19, Type (0, 1), None
#     Edge 20, Type (0, 1), None
#     Edge 21, Type (0, 1), None
#     Edge 22, Type (0, 1), None
#     Edge 23, Type (0, 1), None
#     Edge 24, Type (0, 1), None
#     Edge 25, Type (0, 1), None
#     Edge 26, Type (0, 1), None
#     Edge 27, Type (0, 1), None
#     Edge 28, Type (0, 1), None
#     Edge 29, Type (0, 1), None
#     Edge 30, Type (0, 1), None
#     Edge 31, Type (0, 1), None
#     Edge 32, Type (0, 1), None
#     Edge 33, Type (0, 1), None
#     Edge 34, Type (0, 1), None
#     Edge 35, Type (0, 1), None
#     Edge 36, Type (0, 1), None
#     Edge 37, Type (0, 1), None
#     Edge 38, Type (0, 1), None
#     Edge 39, Type (0, 1), None
#     Edge 40, Type (0, 1), None
#     Edge 41, Type (0, 1), None
#     Edge 42, Type (0, 1), None
#     Edge 43, Type (0, 1), None
#     Edge 44, Type (0, 1), None
#     Edge 45, Type (0, 1), None
#     Edge 46, Type (0, 1), None
#     Edge 47, Type (0, 1), None
# Relax obj value: 0.159
# Max RMSD: 0.162
# Mean RMSD: 0.139
data_MOF--net-wbl--node1-QUQFOY_clean_sbu_3--node2-MIFKUJ_clean_linker_1--edge1-none
_symmetry_space_group_name_H-M    P1
_symmetry_Int_Tables_number       1
_symmetry_cell_setting            triclinic
loop_
_symmetry_equiv_pos_as_xyz
'x, y, z'
_cell_length_a     25.559509
_cell_length_b     25.844007
_cell_length_c     40.740552
_cell_angle_alpha  91.382503
_cell_angle_beta   90.374569
_cell_angle_gamma 90.011377
loop_
_atom_site_label
_atom_site_type_symbol
_atom_site_fract_x
_atom_site_fract_y
_atom_site_fract_z
_atom_type_partial_charge
H0 H -0.0045 0.16267 0.35953 0.0
H1 H 0.94869 0.18235 0.41071 0.0
H2 H 0.86975 0.03498 0.40212 0.0
H3 H 0.91463 0.01663 0.35031 0.0
H4 H 0.04378 0.05029 0.37366 0.0
H5 H 0.94808 0.1547 0.29755 0.0
H6 H 0.86084 0.1758 0.27664 0.0
H7 H 0.85124 0.02366 0.23034 0.0
H8 H 0.93594 0.00194 0.2528 0.0
H9 H 0.07251 0.89723 0.29164 0.0
H10 H 0.14392 0.84237 0.27096 0.0
H11 H 0.22723 0.97928 0.2417 0.0
H12 H 0.1567 0.03342 0.26342 0.0
H13 H 0.03016 0.02106 0.25327 0.0
H14 H 0.06694 0.91155 0.34966 0.0
H15 H 0.09979 0.87689 0.40109 0.0
H16 H 0.1911 0.01573 0.41769 0.0
H17 H 0.15986 0.04917 0.36553 0.0
C18 C 0.958 0.08848 0.35106 0.0
C19 C 0.96568 0.13616 0.36764 0.0
C20 C 0.93937 0.14709 0.39698 0.0
C21 C 0.90658 0.10965 0.4104 0.0
C22 C 0.89524 0.06418 0.39223 0.0
C23 C 0.92028 0.054 0.36247 0.0
C24 C -3e-05 0.06715 0.33014 0.0
C25 C 0.04155 0.04505 0.34712 0.0
C26 C -0.0049 0.0586 0.29587 0.0
C27 C 0.94803 0.07608 0.2777 0.0
C28 C 0.9271 0.12597 0.28284 0.0
C29 C 0.87747 0.13826 0.27057 0.0
C30 C 0.84856 0.1011 0.25241 0.0
C31 C 0.87199 0.05311 0.24462 0.0
C32 C 0.92089 0.04063 0.25733 0.0
C33 C 0.11035 0.96923 0.27985 0.0
C34 C 0.10609 0.91515 0.28052 0.0
C35 C 0.14659 0.88389 0.26837 0.0
C36 C 0.19149 0.90649 0.25505 0.0
C37 C 0.19331 0.9606 0.25196 0.0
C38 C 0.15316 -0.0083 0.26442 0.0
C39 C 0.07251 0.00265 0.29733 0.0
C40 C 0.0329 0.02765 0.27962 0.0
C41 C 0.0765 0.01133 0.33153 0.0
C42 C 0.11186 0.9825 0.35332 0.0
C43 C 0.09685 0.93293 0.36315 0.0
C44 C 0.11488 0.91355 0.39292 0.0
C45 C 0.14694 0.94421 0.41363 0.0
C46 C 0.16575 -0.00836 0.40234 0.0
C47 C 0.14865 0.01044 0.3723 0.0
H48 H 0.98472 0.42688 0.50735 0.0
H49 H 0.95211 0.34205 0.48975 0.0
H50 H 0.8022 0.37743 0.53338 0.0
H51 H 0.83471 0.46325 0.54999 0.0
H52 H 0.96816 0.52774 0.50253 0.0
H53 H 0.98623 0.42251 0.60407 0.0
H54 H 0.96822 0.37821 0.6552 0.0
H55 H 0.81832 0.45445 0.66156 0.0
H56 H 0.83772 0.50083 0.61114 0.0
H57 H 0.9547 0.65494 0.62163 0.0
H58 H 0.00459 0.69157 0.66809 0.0
H59 H 0.14577 0.62315 0.62918 0.0
H60 H 0.09535 0.58335 0.58421 0.0
H61 H 0.95719 0.54962 0.62356 0.0
H62 H 0.95807 0.66508 0.52324 0.0
H63 H 0.01087 0.73594 0.50306 0.0
H64 H 0.1483 0.63857 0.50576 0.0
H65 H 0.09403 0.56662 0.52442 0.0
C66 C 0.9126 0.45089 0.53069 0.0
C67 C 0.94433 0.41709 0.51223 0.0
C68 C 0.92561 0.36844 0.50229 0.0
C69 C 0.87486 0.35266 0.51078 0.0
C70 C 0.8416 0.38828 0.52675 0.0
C71 C 0.8603 0.43716 0.53648 0.0
C72 C 0.93605 0.49716 0.54715 0.0
C73 C 0.96553 0.53259 0.52898 0.0
C74 C 0.93299 0.50409 0.58157 0.0
C75 C 0.91299 0.46435 0.60368 0.0
C76 C 0.94853 0.42795 0.61568 0.0
C77 C 0.93848 0.40314 0.64501 0.0
C78 C 0.89214 0.41342 0.66224 0.0
C79 C 0.85416 0.44576 0.64849 0.0
C80 C 0.86497 0.47189 0.61962 0.0
C81 C 0.02131 0.61708 0.59898 0.0
C82 C -0.00327 0.64951 0.62235 0.0
C83 C 0.02509 0.67004 0.64899 0.0
C84 C 0.07872 0.65971 0.65212 0.0
C85 C 0.10447 0.63198 0.62702 0.0
C86 C 0.07575 0.60996 0.60091 0.0
C87 C -0.01096 0.57998 0.57933 0.0
C88 C 0.9582 0.54596 0.59695 0.0
C89 C -0.00735 0.57354 0.5449 0.0
C90 C 0.02237 0.61109 0.52568 0.0
C91 C -0.00084 0.65845 0.5183 0.0
C92 C 0.02956 0.69891 0.50679 0.0
C93 C 0.08402 0.69308 0.50329 0.0
C94 C 0.10654 0.64427 0.50837 0.0
C95 C 0.07565 0.60324 0.51905 0.0
H96 H 0.43335 0.61008 0.83711 0.0
H97 H 0.39269 0.65854 0.88244 0.0
H98 H 0.31224 0.52026 0.91117 0.0
H99 H 0.34984 0.47276 0.86423 0.0
H100 H 0.46543 0.47974 0.87143 0.0
H101 H 0.41824 0.6069 0.7809 0.0
H102 H 0.33884 0.64865 0.76031 0.0
H103 H 0.27248 0.49771 0.73809 0.0
H104 H 0.35042 0.45688 0.7603 0.0
H105 H 0.53655 0.34328 0.79806 0.0
H106 H 0.62071 0.30738 0.78042 0.0
H107 H 0.656 0.45092 0.7329 0.0
H108 H 0.57328 0.48705 0.75177 0.0
H109 H 0.46908 0.47065 0.74976 0.0
H110 H 0.50391 0.35168 0.85539 0.0
H111 H 0.54928 0.32835 0.90614 0.0
H112 H 0.63205 0.47385 0.90618 0.0
H113 H 0.58891 0.49571 0.85453 0.0
C114 C 0.39316 0.53823 0.84651 0.0
C115 C 0.40395 0.59113 0.85156 0.0
C116 C 0.38141 0.61859 0.87783 0.0
C117 C 0.3497 0.59282 0.90015 0.0
C118 C 0.33654 0.54078 0.8941 0.0
C119 C 0.35758 0.51384 0.86719 0.0
C120 C 0.4297 0.50586 0.82702 0.0
C121 C 0.46584 0.47723 0.84476 0.0
C122 C 0.43055 0.50352 0.7924 0.0
C123 C 0.38919 0.5289 0.77315 0.0
C124 C 0.38647 0.58303 0.77155 0.0
C125 C 0.34133 0.6068 0.75947 0.0
C126 C 0.29888 0.57659 0.74814 0.0
C127 C 0.30416 0.52231 0.74688 0.0
C128 C 0.34877 0.49873 0.7595 0.0
C129 C 0.54958 0.41849 0.77727 0.0
C130 C 0.56231 0.36677 0.78361 0.0
C131 C 0.61011 0.34605 0.77315 0.0
C132 C 0.64543 0.37668 0.75585 0.0
C133 C 0.62991 0.42647 0.74653 0.0
C134 C 0.58249 0.44723 0.75724 0.0
C135 C 0.50587 0.44487 0.79446 0.0
C136 C 0.46838 0.47259 0.77637 0.0
C137 C 0.50408 0.44737 0.82912 0.0
C138 C 0.54398 0.42489 0.85085 0.0
C139 C 0.53432 0.37697 0.86517 0.0
C140 C 0.55979 0.36395 0.89432 0.0
C141 C 0.59353 0.39967 0.91 0.0
C142 C 0.60606 0.44583 0.89442 0.0
C143 C 0.58193 0.45805 0.86479 0.0
H144 H 0.54373 0.87019 0.00364 0.0
H145 H 0.50223 0.79136 0.98244 0.0
H146 H 0.3556 0.83977 0.02583 0.0
H147 H 0.39737 0.9197 0.046 0.0
H148 H 0.52986 0.97582 0.99899 0.0
H149 H 0.54573 0.86408 0.10655 0.0
H150 H 0.51646 0.82565 0.15755 0.0
H151 H 0.37402 0.9151 0.15336 0.0
H152 H 0.40466 0.95513 0.10307 0.0
H153 H 0.52327 0.11073 0.10084 0.0
H154 H 0.55903 0.15876 0.1486 0.0
H155 H 0.69926 0.06626 0.14387 0.0
H156 H 0.66253 0.01672 0.09711 0.0
H157 H 0.53408 -0.01068 0.12061 0.0
H158 H 0.51481 0.08214 0.99866 0.0
H159 H 0.55065 0.16244 0.97836 0.0
H160 H 0.7012 0.12526 0.02063 0.0
H161 H 0.66548 0.04331 0.03938 0.0
C162 C 0.47401 0.90005 0.02716 0.0
C163 C 0.50238 0.86438 0.00795 0.0
C164 C 0.4785 0.8192 0.99593 0.0
C165 C 0.42574 0.80872 0.00301 0.0
C166 C 0.3964 0.84634 0.02027 0.0
C167 C 0.42036 0.89179 0.03211 0.0
C168 C 0.50184 0.94332 0.04404 0.0
C169 C 0.53092 0.97864 0.02559 0.0
C170 C 0.50304 0.94771 0.07865 0.0
C171 C 0.47686 0.91157 0.1007 0.0
C172 C 0.50721 0.87368 0.11583 0.0
C173 C 0.49077 0.85232 0.14517 0.0
C174 C 0.44331 0.86798 0.15949 0.0
C175 C 0.41065 0.90226 0.14271 0.0
C176 C 0.42779 0.92465 0.11377 0.0
C177 C 0.59083 0.06105 0.09504 0.0
C178 C 0.56274 0.10253 0.10908 0.0
C179 C 0.58293 0.12962 0.13638 0.0
C180 C 0.63179 0.11609 0.14939 0.0
C181 C 0.66187 0.07772 0.13366 0.0
C182 C 0.64115 0.0498 0.10685 0.0
C183 C 0.56214 0.02108 0.07585 0.0
C184 C 0.53308 0.98635 0.09395 0.0
C185 C 0.56125 0.01766 0.04122 0.0
C186 C 0.58695 0.05779 0.02162 0.0
C187 C 0.55603 0.09025 0.00246 0.0
C188 C 0.57667 0.13632 0.99094 0.0
C189 C 0.62842 0.15091 0.99877 0.0
C190 C 0.66099 0.11548 0.01466 0.0
C191 C 0.64044 0.06893 0.02573 0.0
H192 H 0.0045 0.65793 0.89765 0.0
H193 H 0.04852 0.68011 0.84654 0.0
H194 H 0.12914 0.53347 0.84671 0.0
H195 H 0.08735 0.51273 0.89864 0.0
H196 H 0.96274 0.53182 0.882 0.0
H197 H 0.03944 0.66489 0.95555 0.0
H198 H 0.12421 0.69995 0.97342 0.0
H199 H 0.1598 0.55516 0.01961 0.0
H200 H 0.07628 0.51995 0.00065 0.0
H201 H 0.92163 0.40303 0.97425 0.0
H202 H 0.84304 0.36033 0.99477 0.0
H203 H 0.77328 0.51048 0.01387 0.0
H204 H 0.85033 0.55213 0.99169 0.0
H205 H 0.9726 0.53714 0.00363 0.0
H206 H 0.9301 0.40037 0.91764 0.0
H207 H 0.88841 0.35147 0.87259 0.0
H208 H 0.81099 0.49042 0.84153 0.0
H209 H 0.84956 0.53849 0.88825 0.0
C210 C 0.04355 0.58417 0.90225 0.0
C211 C 0.03417 0.63209 0.88779 0.0
C212 C 0.05884 0.64445 0.85844 0.0
C213 C 0.09152 0.60811 0.84271 0.0
C214 C 0.10389 0.56195 0.85845 0.0
C215 C 0.08057 0.55037 0.88825 0.0
C216 C 0.00398 0.56235 0.92419 0.0
C217 C 0.9644 0.53365 0.90867 0.0
C218 C 0.00758 0.56372 0.95882 0.0
C219 C 0.05238 0.58922 0.97581 0.0
C220 C 0.06539 0.64094 0.96978 0.0
C221 C 0.11356 0.66116 0.98035 0.0
C222 C 0.14907 0.63 0.99739 0.0
C223 C 0.13353 0.58003 0.00623 0.0
C224 C 0.08566 0.5598 0.99546 0.0
C225 C 0.89081 0.48057 0.98048 0.0
C226 C 0.88931 0.42652 0.98296 0.0
C227 C 0.84462 0.40221 0.99496 0.0
C228 C 0.80148 0.43188 0.00541 0.0
C229 C 0.80555 0.48627 0.00581 0.0
C230 C 0.84964 0.51033 0.9932 0.0
C231 C 0.93151 0.50609 0.96109 0.0
C232 C 0.97057 0.53601 0.97703 0.0
C233 C 0.9288 0.50488 0.92649 0.0
C234 C 0.89151 0.47273 0.90708 0.0
C235 C 0.9011 0.4195 0.90276 0.0
C236 C 0.878 0.39175 0.87661 0.0
C237 C 0.84693 0.41749 0.85369 0.0
C238 C 0.83485 0.46993 0.85904 0.0
C239 C 0.85644 0.49721 0.88582 0.0
H240 H 0.50413 0.56736 0.24609 0.0
H241 H 0.48369 0.65333 0.26725 0.0
H242 H 0.32949 0.64284 0.22317 0.0
H243 H 0.34957 0.55498 0.20327 0.0
H244 H 0.47798 0.47331 0.24942 0.0
H245 H 0.49553 0.57809 0.14831 0.0
H246 H 0.47742 0.62436 0.09779 0.0
H247 H 0.32326 0.55627 0.09281 0.0
H248 H 0.34256 0.5081 0.14267 0.0
H249 H 0.45498 0.3504 0.12651 0.0
H250 H 0.50546 0.31565 0.0802 0.0
H251 H 0.64754 0.3744 0.12503 0.0
H252 H 0.59683 0.41235 0.16998 0.0
H253 H 0.45707 0.45239 0.1288 0.0
H254 H 0.46275 0.33184 0.22319 0.0
H255 H 0.51477 0.26143 0.24495 0.0
H256 H 0.6494 0.36254 0.25207 0.0
H257 H 0.59561 0.43406 0.23174 0.0
C258 C 0.4289 0.55505 0.22239 0.0
C259 C 0.46536 0.58278 0.2417 0.0
C260 C 0.45361 0.63228 0.25366 0.0
C261 C 0.40526 0.65548 0.2463 0.0
C262 C 0.36729 0.62632 0.22894 0.0
C263 C 0.37893 0.5763 0.21728 0.0
C264 C 0.4453 0.50637 0.20546 0.0
C265 C 0.47307 0.46873 0.22305 0.0
C266 C 0.43874 0.49932 0.17117 0.0
C267 C 0.42012 0.54027 0.14936 0.0
C268 C 0.45704 0.57486 0.13713 0.0
C269 C 0.4469 0.60077 0.10812 0.0
C270 C 0.3992 0.59331 0.0914 0.0
C271 C 0.36022 0.56275 0.10542 0.0
C272 C 0.371 0.53559 0.13398 0.0
C273 C 0.52199 0.38354 0.15208 0.0
C274 C 0.4972 0.35415 0.12704 0.0
C275 C 0.52595 0.33469 0.10049 0.0
C276 C 0.58011 0.34298 0.09907 0.0
C277 C 0.6058 0.36728 0.12576 0.0
C278 C 0.57681 0.38823 0.15184 0.0
C279 C 0.49058 0.42032 0.17234 0.0
C280 C 0.46001 0.45579 0.15538 0.0
C281 C 0.49644 0.42631 0.2067 0.0
C282 C 0.52563 0.38767 0.22554 0.0
C283 C 0.50297 0.33925 0.23047 0.0
C284 C 0.53288 0.29912 0.24297 0.0
C285 C 0.58646 0.30632 0.24988 0.0
C286 C 0.60829 0.35589 0.2469 0.0
C287 C 0.5777 0.39663 0.23529 0.0
H288 H 0.4823 0.83807 0.40652 0.0
H289 H 0.43242 0.80195 0.35974 0.0
H290 H 0.35267 0.94781 0.34982 0.0
H291 H 0.40034 0.98293 0.39781 0.0
H292 H 0.52121 0.96156 0.38032 0.0
H293 H 0.4433 0.84573 0.46185 0.0
H294 H 0.35772 0.82375 0.48423 0.0
H295 H 0.34793 0.97712 0.52868 0.0
H296 H 0.43065 -0.00027 0.5043 0.0
H297 H 0.58717 0.10289 0.45579 0.0
H298 H 0.66589 0.14538 0.47789 0.0
H299 H 0.71455 0.00054 0.51955 0.0
H300 H 0.63709 0.95838 0.49638 0.0
H301 H 0.52834 0.97658 0.50174 0.0
H302 H 0.55428 0.09346 0.40059 0.0
H303 H 0.59206 0.12543 0.34992 0.0
H304 H 0.67996 0.98355 0.33847 0.0
H305 H 0.64394 0.95291 0.38998 0.0
C306 C 0.44385 0.91265 0.40616 0.0
C307 C 0.45165 0.86113 0.39563 0.0
C308 C 0.42362 0.84073 0.36878 0.0
C309 C 0.38905 0.87237 0.35152 0.0
C310 C 0.37894 0.92282 0.36313 0.0
C311 C 0.40572 0.94265 0.39061 0.0
C312 C 0.48529 0.93932 0.42531 0.0
C313 C 0.52293 0.9646 0.40696 0.0
C314 C 0.48639 0.94387 0.45994 0.0
C315 C 0.44224 0.92524 0.47996 0.0
C316 C 0.42247 0.87463 0.47624 0.0
C317 C 0.37393 0.86178 0.48954 0.0
C318 C 0.34524 0.89907 0.50749 0.0
C319 C 0.36837 0.94757 0.51448 0.0
C320 C 0.41606 0.96063 0.50062 0.0
C321 C 0.60739 0.02711 0.47346 0.0
C322 C 0.61503 0.08039 0.46954 0.0
C323 C 0.65965 0.1048 0.48262 0.0
C324 C 0.69696 0.07624 0.50008 0.0
C325 C 0.68695 0.0237 0.50597 0.0
C326 C 0.64266 -0.00059 0.49273 0.0
C327 C 0.56421 -0.00081 0.45649 0.0
C328 C 0.52677 0.97308 0.47517 0.0
C329 C 0.56158 -0.00481 0.42193 0.0
C330 C 0.59754 0.02147 0.39957 0.0
C331 C 0.58424 0.07071 0.38831 0.0
C332 C 0.60519 0.08858 0.35905 0.0
C333 C 0.63819 0.05655 0.3401 0.0
C334 C 0.6542 0.00879 0.35252 0.0
C335 C 0.6343 -0.00844 0.38217 0.0
H336 H 0.0464 0.14895 0.7382 0.0
H337 H 0.00673 0.22863 0.75916 0.0
H338 H 0.85284 0.16231 0.74367 0.0
H339 H 0.89353 0.08133 0.7242 0.0
H340 H 0.02774 0.03182 0.75515 0.0
H341 H 0.03654 0.13469 0.6361 0.0
H342 H -0.0091 0.17487 0.59023 0.0
H343 H 0.84478 0.11119 0.62307 0.0
H344 H 0.89108 0.06796 0.66743 0.0
H345 H 0.01182 0.90258 0.65008 0.0
H346 H 0.0468 0.85197 0.6034 0.0
H347 H 0.19141 0.93752 0.61068 0.0
H348 H 0.15547 -0.01015 0.65621 0.0
H349 H 0.02475 0.02302 0.63338 0.0
H350 H 0.0093 0.92445 0.75258 0.0
H351 H 0.04498 0.84331 0.77196 0.0
H352 H 0.19545 0.88159 0.73116 0.0
H353 H 0.15984 0.96434 0.71333 0.0
C354 C 0.97282 0.10998 0.72889 0.0
C355 C 0.00418 0.15115 0.74012 0.0
C356 C 0.98128 0.19673 0.75202 0.0
C357 C 0.92646 0.20221 0.75249 0.0
C358 C 0.89511 0.15956 0.74318 0.0
C359 C 0.91825 0.11348 0.73182 0.0
C360 C -0.00247 0.06616 0.71109 0.0
C361 C 0.0271 0.02984 0.72853 0.0
C362 C -0.00329 0.06343 0.67645 0.0
C363 C 0.967 0.09953 0.65579 0.0
C364 C -0.00559 0.13086 0.6341 0.0
C365 C 0.96845 0.15345 0.60784 0.0
C366 C 0.9145 0.14603 0.60334 0.0
C367 C 0.88631 0.11804 0.62642 0.0
C368 C 0.91262 0.09399 0.6521 0.0
C369 C 0.08163 0.94895 0.6571 0.0
C370 C 0.05182 0.90892 0.64251 0.0
C371 C 0.07162 0.88031 0.61586 0.0
C372 C 0.12176 0.8908 0.60402 0.0
C373 C 0.15301 0.92828 0.62002 0.0
C374 C 0.13271 0.95781 0.64613 0.0
C375 C 0.05501 0.98911 0.67715 0.0
C376 C 0.02562 0.02518 0.66004 0.0
C377 C 0.05582 -0.00902 0.71183 0.0
C378 C 0.0814 0.94944 0.73045 0.0
C379 C 0.05044 0.91628 0.74885 0.0
C380 C 0.07099 0.86976 0.75984 0.0
C381 C 0.12272 0.8554 0.75227 0.0
C382 C 0.15526 0.89122 0.73694 0.0
C383 C 0.13478 0.93822 0.72638 0.0
C384 C 0.3933 0.61126 0.05757 0.0
O385 O 0.43186 0.60682 0.03825 0.0
Cd386 Cd 0.42866 0.62825 0.98163 0.0
O387 O 0.34937 0.62799 0.04742 0.0
Cd388 Cd 0.31408 0.66125 0.99484 0.0
C389 C 0.40395 0.75659 0.99567 0.0
O390 O 0.34891 0.59496 0.9583 0.0
O391 O 0.32297 0.66425 0.93457 0.0
O392 O 0.23828 0.61258 0.01006 0.0
C393 C 0.3371 0.61734 0.93196 0.0
O394 O 0.43452 0.72177 0.98431 0.0
C395 C 0.20453 0.64533 0.00109 0.0
O396 O 0.35737 0.74532 0.00403 0.0
O397 O 0.22173 0.68837 0.9911 0.0
C398 C 0.43132 0.85347 0.1934 0.0
O399 O 0.46873 0.84887 0.21374 0.0
Cd400 Cd 0.45811 0.82769 0.27001 0.0
O401 O 0.38404 0.84819 0.20246 0.0
Cd402 Cd 0.33863 0.82685 0.25438 0.0
C403 C 0.39779 0.71134 0.25354 0.0
O404 O 0.38907 0.8777 0.29371 0.0
O405 O 0.34495 0.81483 0.31399 0.0
O406 O 0.28185 0.89795 0.24222 0.0
C407 C 0.37083 0.85617 0.31879 0.0
O408 O 0.43639 0.73683 0.26543 0.0
C409 C 0.23945 0.87566 0.24948 0.0
O410 O 0.35607 0.73438 0.24465 0.0
O411 O 0.24228 0.82796 0.25641 0.0
C412 C 0.15551 0.93042 0.44819 0.0
O413 O 0.15898 0.96658 0.46974 0.0
Cd414 Cd 0.17303 0.95562 0.5271 0.0
O415 O 0.15724 0.88313 0.45636 0.0
Cd416 Cd 0.17012 0.83589 0.50861 0.0
C417 C 0.28895 0.8917 0.51434 0.0
O418 O 0.11876 0.88831 0.54609 0.0
O419 O 0.17786 0.84118 0.56891 0.0
O420 O 0.09579 0.78296 0.49373 0.0
C421 C 0.13768 0.86957 0.57204 0.0
O422 O 0.26384 0.93028 0.52622 0.0
C423 C 0.11685 0.73971 0.49961 0.0
O424 O 0.26483 0.85133 0.50366 0.0
O425 O 0.16532 0.74029 0.5071 0.0
C426 C 0.1061 0.61437 0.8082 0.0
O427 O 0.0984 0.57683 0.7881 0.0
Cd428 Cd 0.11612 0.57946 0.73074 0.0
O429 O 0.12373 0.65743 0.7985 0.0
Cd430 Cd 0.15376 0.69239 0.74538 0.0
C431 C 0.24718 0.60018 0.74159 0.0
O432 O 0.08417 0.65961 0.71026 0.0
O433 O 0.15318 0.6847 0.68484 0.0
O434 O 0.10564 0.76721 0.7638 0.0
C435 C 0.1055 0.67124 0.68345 0.0
O436 O 0.2104 0.57087 0.7311 0.0
C437 C 0.13856 0.80066 0.7549 0.0
O438 O 0.23794 0.64695 0.75053 0.0
O439 O 0.18176 0.78368 0.74358 0.0
C440 C 0.89109 0.11393 0.445 0.0
O441 O 0.8972 0.07494 0.46297 0.0
Cd442 Cd 0.87871 0.07398 0.52023 0.0
O443 O 0.87469 0.15681 0.45699 0.0
Cd444 Cd 0.84405 0.18896 0.51145 0.0
C445 C 0.74887 0.09847 0.50848 0.0
O446 O 0.91161 0.15199 0.54535 0.0
O447 O 0.84237 0.17676 0.57138 0.0
O448 O 0.89368 0.2643 0.49773 0.0
C449 C 0.88953 0.16164 0.57255 0.0
O450 O 0.78431 0.06804 0.51858 0.0
C451 C 0.86021 0.29748 0.50724 0.0
O452 O 0.75968 0.14522 0.50173 0.0
O453 O 0.81662 0.28019 0.51726 0.0
C454 C 0.88731 0.39685 0.69635 0.0
O455 O 0.92595 0.40363 0.71568 0.0
Cd456 Cd 0.92508 0.38336 0.77246 0.0
O457 O 0.84427 0.37865 0.7066 0.0
Cd458 Cd 0.81049 0.34635 0.75959 0.0
C459 C 0.90324 0.25373 0.75949 0.0
O460 O 0.84468 0.4142 0.79552 0.0
O461 O 0.81996 0.34519 0.81988 0.0
O462 O 0.7344 0.39386 0.7433 0.0
C463 C 0.83376 0.39226 0.82207 0.0
O464 O 0.93328 0.29004 0.76968 0.0
C465 C 0.70084 0.36128 0.75252 0.0
O466 O 0.85568 0.26293 0.75188 0.0
O467 O 0.71828 0.31867 0.76318 0.0
C468 C 0.60878 0.39296 0.94445 0.0
O469 O 0.60102 0.43009 0.96478 0.0
Cd470 Cd 0.61902 0.42643 0.02216 0.0
O471 O 0.62679 0.34982 0.95389 0.0
Cd472 Cd 0.65774 0.31403 0.00678 0.0
C473 C 0.75023 0.40747 0.01181 0.0
O474 O 0.58726 0.34533 0.04109 0.0
O475 O 0.65568 0.31975 0.0674 0.0
O476 O 0.61099 0.23893 0.98683 0.0
C477 C 0.60791 0.33289 0.06811 0.0
O478 O 0.71319 0.43619 0.02228 0.0
C479 C 0.64401 0.20573 0.99618 0.0
O480 O 0.74147 0.36068 0.00262 0.0
O481 O 0.68675 0.22307 0.00834 0.0
C482 C 0.65118 0.06992 0.30611 0.0
O483 O 0.65573 0.03376 0.28469 0.0
Cd484 Cd 0.67619 0.04592 0.22826 0.0
O485 O 0.65545 0.11714 0.2982 0.0
Cd486 Cd 0.67425 0.16517 0.24726 0.0
C487 C 0.79226 0.10849 0.24526 0.0
O488 O 0.62544 0.11465 0.20712 0.0
O489 O 0.68674 0.16233 0.18744 0.0
O490 O 0.59874 0.21675 0.25967 0.0
C491 C 0.64655 0.13448 0.18234 0.0
O492 O 0.76708 0.07016 0.23289 0.0
C493 C 0.61969 0.26037 0.25496 0.0
O494 O 0.76836 0.14927 0.25521 0.0
O495 O 0.66874 0.2607 0.24957 0.0
loop_
_geom_bond_atom_site_label_1
_geom_bond_atom_site_label_2
_geom_bond_distance
_geom_bond_site_symmetry_2
_ccdc_geom_bond_type
H0 C19 0.949 . S
H1 C20 0.950 . S
H2 C22 0.950 . S
H3 C23 0.950 . S
H4 C25 0.950 . S
H5 C28 0.950 . S
H6 C29 0.950 . S
H7 C31 0.951 . S
H8 C32 0.949 1_565 S
H9 C34 0.949 . S
H10 C35 0.950 . S
H11 C37 0.950 . S
H12 C38 0.950 . S
H13 C40 0.950 . S
H14 C43 0.950 . S
H15 C44 0.950 . S
H16 C46 0.951 . S
H17 C47 0.949 1_545 S
C18 C19 1.376 . S
C18 C23 1.386 . S
C18 C24 1.483 . S
C19 H0 0.949 . S
C19 C18 1.376 . S
C19 C20 1.397 . S
C20 H1 0.950 . S
C20 C19 1.397 . S
C20 C21 1.391 . S
C21 C20 1.391 . S
C21 C22 1.405 . S
C22 H2 0.950 . S
C22 C21 1.405 . S
C22 C23 1.367 . S
C23 H3 0.950 . S
C23 C18 1.386 . S
C23 C22 1.367 . S
C24 C18 1.483 . S
C24 C25 1.382 1_655 S
C24 C26 1.403 . S
C25 H4 0.950 . S
C25 C24 1.382 1_455 S
C25 C41 1.411 1_545 S
C26 C24 1.403 . S
C26 C27 1.489 . S
C26 C40 1.412 1_645 S
C27 C26 1.489 . S
C27 C28 1.383 . S
C27 C32 1.382 . S
C28 H5 0.950 . S
C28 C27 1.383 . S
C28 C29 1.395 . S
C29 H6 0.950 . S
C29 C28 1.395 . S
C29 C30 1.288 . S
C30 C29 1.288 . S
C30 C31 1.392 . S
C31 H7 0.951 . S
C31 C30 1.392 . S
C31 C32 1.392 . S
C32 H8 0.949 1_545 S
C32 C27 1.382 . S
C32 C31 1.392 . S
C33 C34 1.376 . S
C33 C38 1.386 . S
C33 C39 1.483 . S
C34 H9 0.949 . S
C34 C33 1.376 . S
C34 C35 1.397 . S
C35 H10 0.950 . S
C35 C34 1.397 . S
C35 C36 1.391 . S
C36 C35 1.391 . S
C36 C37 1.405 . S
C37 H11 0.950 . S
C37 C36 1.405 . S
C37 C38 1.367 . S
C38 H12 0.950 . S
C38 C33 1.386 . S
C38 C37 1.367 . S
C39 C33 1.483 . S
C39 C40 1.381 . S
C39 C41 1.403 . S
C40 H13 0.950 . S
C40 C26 1.412 1_465 S
C40 C39 1.381 . S
C41 C25 1.411 1_565 S
C41 C39 1.403 . S
C41 C42 1.489 . S
C42 C41 1.489 . S
C42 C43 1.383 . S
C42 C47 1.382 . S
C43 H14 0.950 . S
C43 C42 1.383 . S
C43 C44 1.395 . S
C44 H15 0.950 . S
C44 C43 1.395 . S
C44 C45 1.288 . S
C45 C44 1.288 . S
C45 C46 1.392 . S
C46 H16 0.951 . S
C46 C45 1.392 . S
C46 C47 1.392 . S
C47 H17 0.949 1_565 S
C47 C42 1.382 . S
C47 C46 1.392 . S
H48 C67 0.949 1_455 S
H49 C68 0.950 . S
H50 C70 0.950 . S
H51 C71 0.950 . S
H52 C73 0.950 . S
H53 C76 0.950 . S
H54 C77 0.950 . S
H55 C79 0.951 . S
H56 C80 0.949 . S
H57 C82 0.949 . S
H58 C83 0.950 . S
H59 C85 0.950 . S
H60 C86 0.950 . S
H61 C88 0.950 . S
H62 C91 0.950 . S
H63 C92 0.950 . S
H64 C94 0.951 . S
H65 C95 0.949 . S
C66 C67 1.376 . S
C66 C71 1.386 . S
C66 C72 1.483 . S
C67 H48 0.949 1_655 S
C67 C66 1.376 . S
C67 C68 1.397 . S
C68 H49 0.950 . S
C68 C67 1.397 . S
C68 C69 1.391 . S
C69 C68 1.391 . S
C69 C70 1.405 . S
C70 H50 0.950 . S
C70 C69 1.405 . S
C70 C71 1.367 . S
C71 H51 0.950 . S
C71 C66 1.386 . S
C71 C70 1.367 . S
C72 C66 1.483 . S
C72 C73 1.382 1_655 S
C72 C74 1.403 . S
C73 H52 0.950 . S
C73 C72 1.382 1_455 S
C73 C89 1.411 . S
C74 C72 1.403 . S
C74 C75 1.489 . S
C74 C88 1.411 1_655 S
C75 C74 1.489 . S
C75 C76 1.383 . S
C75 C80 1.382 . S
C76 H53 0.950 . S
C76 C75 1.383 . S
C76 C77 1.395 . S
C77 H54 0.950 . S
C77 C76 1.395 . S
C77 C78 1.288 . S
C78 C77 1.288 . S
C78 C79 1.392 . S
C79 H55 0.951 . S
C79 C78 1.392 . S
C79 C80 1.392 . S
C80 H56 0.949 . S
C80 C75 1.382 . S
C80 C79 1.392 . S
C81 C82 1.376 . S
C81 C86 1.386 . S
C81 C87 1.483 . S
C82 H57 0.949 . S
C82 C81 1.376 . S
C82 C83 1.397 . S
C83 H58 0.950 . S
C83 C82 1.397 . S
C83 C84 1.391 . S
C84 C83 1.391 . S
C84 C85 1.405 . S
C85 H59 0.950 . S
C85 C84 1.405 . S
C85 C86 1.367 . S
C86 H60 0.950 . S
C86 C81 1.386 . S
C86 C85 1.367 . S
C87 C81 1.483 . S
C87 C88 1.382 . S
C87 C89 1.403 . S
C88 H61 0.950 . S
C88 C74 1.411 1_455 S
C88 C87 1.382 . S
C89 C73 1.411 . S
C89 C87 1.403 . S
C89 C90 1.489 . S
C90 C89 1.489 . S
C90 C91 1.383 . S
C90 C95 1.382 . S
C91 H62 0.950 . S
C91 C90 1.383 . S
C91 C92 1.395 . S
C92 H63 0.950 . S
C92 C91 1.395 . S
C92 C93 1.288 . S
C93 C92 1.288 . S
C93 C94 1.392 . S
C94 H64 0.951 . S
C94 C93 1.392 . S
C94 C95 1.392 . S
C95 H65 0.949 . S
C95 C90 1.382 . S
C95 C94 1.392 . S
H96 C115 0.949 . S
H97 C116 0.950 . S
H98 C118 0.950 . S
H99 C119 0.950 . S
H100 C121 0.950 . S
H101 C124 0.950 . S
H102 C125 0.950 . S
H103 C127 0.951 . S
H104 C128 0.949 . S
H105 C130 0.949 . S
H106 C131 0.950 . S
H107 C133 0.950 . S
H108 C134 0.950 . S
H109 C136 0.950 . S
H110 C139 0.950 . S
H111 C140 0.950 . S
H112 C142 0.951 . S
H113 C143 0.949 . S
C114 C115 1.376 . S
C114 C119 1.386 . S
C114 C120 1.483 . S
C115 H96 0.949 . S
C115 C114 1.376 . S
C115 C116 1.397 . S
C116 H97 0.950 . S
C116 C115 1.397 . S
C116 C117 1.391 . S
C117 C116 1.391 . S
C117 C118 1.405 . S
C118 H98 0.950 . S
C118 C117 1.405 . S
C118 C119 1.367 . S
C119 H99 0.950 . S
C119 C114 1.386 . S
C119 C118 1.367 . S
C120 C114 1.483 . S
C120 C121 1.382 . S
C120 C122 1.403 . S
C121 H100 0.950 . S
C121 C120 1.382 . S
C121 C137 1.411 . S
C122 C120 1.403 . S
C122 C123 1.489 . S
C122 C136 1.411 . S
C123 C122 1.489 . S
C123 C124 1.383 . S
C123 C128 1.382 . S
C124 H101 0.950 . S
C124 C123 1.383 . S
C124 C125 1.395 . S
C125 H102 0.950 . S
C125 C124 1.395 . S
C125 C126 1.288 . S
C126 C125 1.288 . S
C126 C127 1.392 . S
C127 H103 0.951 . S
C127 C126 1.392 . S
C127 C128 1.392 . S
C128 H104 0.949 . S
C128 C123 1.382 . S
C128 C127 1.392 . S
C129 C130 1.376 . S
C129 C134 1.386 . S
C129 C135 1.483 . S
C130 H105 0.949 . S
C130 C129 1.376 . S
C130 C131 1.397 . S
C131 H106 0.950 . S
C131 C130 1.397 . S
C131 C132 1.391 . S
C132 C131 1.391 . S
C132 C133 1.405 . S
C133 H107 0.950 . S
C133 C132 1.405 . S
C133 C134 1.367 . S
C134 H108 0.950 . S
C134 C129 1.386 . S
C134 C133 1.367 . S
C135 C129 1.483 . S
C135 C136 1.382 . S
C135 C137 1.403 . S
C136 H109 0.950 . S
C136 C122 1.411 . S
C136 C135 1.382 . S
C137 C121 1.411 . S
C137 C135 1.403 . S
C137 C138 1.489 . S
C138 C137 1.489 . S
C138 C139 1.383 . S
C138 C143 1.382 . S
C139 H110 0.950 . S
C139 C138 1.383 . S
C139 C140 1.395 . S
C140 H111 0.950 . S
C140 C139 1.395 . S
C140 C141 1.288 . S
C141 C140 1.288 . S
C141 C142 1.392 . S
C142 H112 0.951 . S
C142 C141 1.392 . S
C142 C143 1.392 . S
C143 H113 0.949 . S
C143 C138 1.382 . S
C143 C142 1.392 . S
H144 C163 0.949 . S
H145 C164 0.958 . S
H146 C166 0.950 . S
H147 C167 0.950 . S
H148 C169 0.950 . S
H149 C172 0.950 . S
H150 C173 0.950 . S
H151 C175 0.951 . S
H152 C176 0.949 . S
H153 C178 0.949 . S
H154 C179 0.950 . S
H155 C181 0.950 . S
H156 C182 0.950 . S
H157 C184 0.950 . S
H158 C187 0.950 . S
H159 C188 0.950 . S
H160 C190 0.951 . S
H161 C191 0.949 . S
C162 C163 1.376 . S
C162 C167 1.386 . S
C162 C168 1.483 . S
C163 H144 0.949 . S
C163 C162 1.376 . S
C163 C164 1.390 1_554 S
C164 H145 0.958 . S
C164 C163 1.390 1_556 S
C164 C165 1.390 1_556 S
C165 C164 1.390 1_554 S
C165 C166 1.415 . S
C166 H146 0.950 . S
C166 C165 1.415 . S
C166 C167 1.367 . S
C167 H147 0.950 . S
C167 C162 1.386 . S
C167 C166 1.367 . S
C168 C162 1.483 . S
C168 C169 1.382 . S
C168 C170 1.403 . S
C169 H148 0.950 . S
C169 C168 1.382 . S
C169 C185 1.411 1_565 S
C170 C168 1.403 . S
C170 C171 1.489 . S
C170 C184 1.411 1_565 S
C171 C170 1.489 . S
C171 C172 1.383 . S
C171 C176 1.382 . S
C172 H149 0.950 . S
C172 C171 1.383 . S
C172 C173 1.395 . S
C173 H150 0.950 . S
C173 C172 1.395 . S
C173 C174 1.288 . S
C174 C173 1.288 . S
C174 C175 1.392 . S
C175 H151 0.951 . S
C175 C174 1.392 . S
C175 C176 1.392 . S
C176 H152 0.949 . S
C176 C171 1.382 . S
C176 C175 1.392 . S
C177 C178 1.376 . S
C177 C182 1.386 . S
C177 C183 1.483 . S
C178 H153 0.949 . S
C178 C177 1.376 . S
C178 C179 1.397 . S
C179 H154 0.950 . S
C179 C178 1.397 . S
C179 C180 1.391 . S
C180 C179 1.391 . S
C180 C181 1.405 . S
C181 H155 0.950 . S
C181 C180 1.405 . S
C181 C182 1.367 . S
C182 H156 0.950 . S
C182 C177 1.386 . S
C182 C181 1.367 . S
C183 C177 1.483 . S
C183 C184 1.382 . S
C183 C185 1.403 . S
C184 H157 0.950 . S
C184 C170 1.411 1_545 S
C184 C183 1.382 . S
C185 C169 1.411 1_545 S
C185 C183 1.403 . S
C185 C186 1.489 . S
C186 C185 1.489 . S
C186 C187 1.383 . S
C186 C191 1.382 . S
C187 H158 0.950 . S
C187 C186 1.383 . S
C187 C188 1.395 . S
C188 H159 0.950 . S
C188 C187 1.395 . S
C188 C189 1.288 1_554 S
C189 C188 1.288 1_556 S
C189 C190 1.392 . S
C190 H160 0.951 . S
C190 C189 1.392 . S
C190 C191 1.392 1_556 S
C191 H161 0.949 . S
C191 C186 1.382 . S
C191 C190 1.392 1_554 S
H192 C211 0.949 . S
H193 C212 0.950 . S
H194 C214 0.950 . S
H195 C215 0.950 . S
H196 C217 0.950 . S
H197 C220 0.950 . S
H198 C221 0.950 . S
H199 C223 0.951 . S
H200 C224 0.949 . S
H201 C226 0.949 . S
H202 C227 0.950 . S
H203 C229 0.950 . S
H204 C230 0.950 . S
H205 C232 0.950 . S
H206 C235 0.950 . S
H207 C236 0.950 . S
H208 C238 0.951 . S
H209 C239 0.949 . S
C210 C211 1.376 . S
C210 C215 1.386 . S
C210 C216 1.483 . S
C211 H192 0.949 . S
C211 C210 1.376 . S
C211 C212 1.397 . S
C212 H193 0.950 . S
C212 C211 1.397 . S
C212 C213 1.391 . S
C213 C212 1.391 . S
C213 C214 1.405 . S
C214 H194 0.950 . S
C214 C213 1.405 . S
C214 C215 1.367 . S
C215 H195 0.950 . S
C215 C210 1.386 . S
C215 C214 1.367 . S
C216 C210 1.483 . S
C216 C217 1.382 1_455 S
C216 C218 1.403 . S
C217 H196 0.950 . S
C217 C216 1.382 1_655 S
C217 C233 1.411 . S
C218 C216 1.403 . S
C218 C219 1.489 . S
C218 C232 1.411 . S
C219 C218 1.489 . S
C219 C220 1.383 . S
C219 C224 1.382 . S
C220 H197 0.950 . S
C220 C219 1.383 . S
C220 C221 1.395 . S
C221 H198 0.950 . S
C221 C220 1.395 . S
C221 C222 1.288 1_556 S
C222 C221 1.288 1_554 S
C222 C223 1.392 . S
C223 H199 0.951 . S
C223 C222 1.392 . S
C223 C224 1.392 1_554 S
C224 H200 0.949 . S
C224 C219 1.382 . S
C224 C223 1.392 1_556 S
C225 C226 1.376 . S
C225 C230 1.386 . S
C225 C231 1.483 . S
C226 H201 0.949 . S
C226 C225 1.376 . S
C226 C227 1.397 1_556 S
C227 H202 0.950 . S
C227 C226 1.397 1_554 S
C227 C228 1.391 . S
C228 C227 1.391 . S
C228 C229 1.405 1_554 S
C229 H203 0.950 . S
C229 C228 1.405 1_556 S
C229 C230 1.367 . S
C230 H204 0.950 . S
C230 C225 1.386 . S
C230 C229 1.367 . S
C231 C225 1.483 . S
C231 C232 1.382 1_655 S
C231 C233 1.403 . S
C232 H205 0.950 . S
C232 C218 1.411 . S
C232 C231 1.382 1_455 S
C233 C217 1.411 . S
C233 C231 1.403 . S
C233 C234 1.489 . S
C234 C233 1.489 . S
C234 C235 1.383 . S
C234 C239 1.382 . S
C235 H206 0.950 . S
C235 C234 1.383 . S
C235 C236 1.395 . S
C236 H207 0.950 . S
C236 C235 1.395 . S
C236 C237 1.288 . S
C237 C236 1.288 . S
C237 C238 1.392 . S
C238 H208 0.951 . S
C238 C237 1.392 . S
C238 C239 1.392 . S
C239 H209 0.949 . S
C239 C234 1.382 . S
C239 C238 1.392 . S
H240 C259 0.949 . S
H241 C260 0.950 . S
H242 C262 0.950 . S
H243 C263 0.950 . S
H244 C265 0.950 . S
H245 C268 0.950 . S
H246 C269 0.950 . S
H247 C271 0.951 . S
H248 C272 0.949 . S
H249 C274 0.949 . S
H250 C275 0.950 . S
H251 C277 0.950 . S
H252 C278 0.950 . S
H253 C280 0.950 . S
H254 C283 0.950 . S
H255 C284 0.950 . S
H256 C286 0.951 . S
H257 C287 0.949 . S
C258 C259 1.376 . S
C258 C263 1.386 . S
C258 C264 1.483 . S
C259 H240 0.949 . S
C259 C258 1.376 . S
C259 C260 1.397 . S
C260 H241 0.950 . S
C260 C259 1.397 . S
C260 C261 1.391 . S
C261 C260 1.391 . S
C261 C262 1.405 . S
C262 H242 0.950 . S
C262 C261 1.405 . S
C262 C263 1.367 . S
C263 H243 0.950 . S
C263 C258 1.386 . S
C263 C262 1.367 . S
C264 C258 1.483 . S
C264 C265 1.382 . S
C264 C266 1.403 . S
C265 H244 0.950 . S
C265 C264 1.382 . S
C265 C281 1.411 . S
C266 C264 1.403 . S
C266 C267 1.489 . S
C266 C280 1.411 . S
C267 C266 1.489 . S
C267 C268 1.383 . S
C267 C272 1.382 . S
C268 H245 0.950 . S
C268 C267 1.383 . S
C268 C269 1.395 . S
C269 H246 0.950 . S
C269 C268 1.395 . S
C269 C270 1.288 . S
C270 C269 1.288 . S
C270 C271 1.392 . S
C271 H247 0.951 . S
C271 C270 1.392 . S
C271 C272 1.392 . S
C272 H248 0.949 . S
C272 C267 1.382 . S
C272 C271 1.392 . S
C273 C274 1.376 . S
C273 C278 1.386 . S
C273 C279 1.483 . S
C274 H249 0.949 . S
C274 C273 1.376 . S
C274 C275 1.397 . S
C275 H250 0.950 . S
C275 C274 1.397 . S
C275 C276 1.391 . S
C276 C275 1.391 . S
C276 C277 1.405 . S
C277 H251 0.950 . S
C277 C276 1.405 . S
C277 C278 1.367 . S
C278 H252 0.950 . S
C278 C273 1.386 . S
C278 C277 1.367 . S
C279 C273 1.483 . S
C279 C280 1.382 . S
C279 C281 1.403 . S
C280 H253 0.950 . S
C280 C266 1.411 . S
C280 C279 1.382 . S
C281 C265 1.411 . S
C281 C279 1.403 . S
C281 C282 1.489 . S
C282 C281 1.489 . S
C282 C283 1.383 . S
C282 C287 1.382 . S
C283 H254 0.950 . S
C283 C282 1.383 . S
C283 C284 1.395 . S
C284 H255 0.950 . S
C284 C283 1.395 . S
C284 C285 1.288 . S
C285 C284 1.288 . S
C285 C286 1.392 . S
C286 H256 0.951 . S
C286 C285 1.392 . S
C286 C287 1.392 . S
C287 H257 0.949 . S
C287 C282 1.382 . S
C287 C286 1.392 . S
H288 C307 0.949 . S
H289 C308 0.950 . S
H290 C310 0.950 . S
H291 C311 0.950 . S
H292 C313 0.952 . S
H293 C316 0.950 . S
H294 C317 0.950 . S
H295 C319 0.951 . S
H296 C320 0.949 1_545 S
H297 C322 0.949 . S
H298 C323 0.950 . S
H299 C325 0.950 . S
H300 C326 0.950 . S
H301 C328 0.950 . S
H302 C331 0.950 . S
H303 C332 0.950 . S
H304 C334 0.951 . S
H305 C335 0.949 1_565 S
C306 C307 1.376 . S
C306 C311 1.386 . S
C306 C312 1.483 . S
C307 H288 0.949 . S
C307 C306 1.376 . S
C307 C308 1.397 . S
C308 H289 0.950 . S
C308 C307 1.397 . S
C308 C309 1.391 . S
C309 C308 1.391 . S
C309 C310 1.405 . S
C310 H290 0.950 . S
C310 C309 1.405 . S
C310 C311 1.367 . S
C311 H291 0.950 . S
C311 C306 1.386 . S
C311 C310 1.367 . S
C312 C306 1.483 . S
C312 C313 1.388 . S
C312 C314 1.403 . S
C313 H292 0.952 . S
C313 C312 1.388 . S
C313 C329 1.403 1_565 S
C314 C312 1.403 . S
C314 C315 1.489 . S
C314 C328 1.411 1_565 S
C315 C314 1.489 . S
C315 C316 1.383 . S
C315 C320 1.382 . S
C316 H293 0.950 . S
C316 C315 1.383 . S
C316 C317 1.395 . S
C317 H294 0.950 . S
C317 C316 1.395 . S
C317 C318 1.288 . S
C318 C317 1.288 . S
C318 C319 1.392 . S
C319 H295 0.951 . S
C319 C318 1.392 . S
C319 C320 1.392 . S
C320 H296 0.949 1_565 S
C320 C315 1.382 . S
C320 C319 1.392 . S
C321 C322 1.376 . S
C321 C326 1.386 . S
C321 C327 1.483 . S
C322 H297 0.949 . S
C322 C321 1.376 . S
C322 C323 1.397 . S
C323 H298 0.950 . S
C323 C322 1.397 . S
C323 C324 1.391 . S
C324 C323 1.391 . S
C324 C325 1.405 . S
C325 H299 0.950 . S
C325 C324 1.405 . S
C325 C326 1.367 . S
C326 H300 0.950 . S
C326 C321 1.386 . S
C326 C325 1.367 . S
C327 C321 1.483 . S
C327 C328 1.382 . S
C327 C329 1.403 . S
C328 H301 0.950 . S
C328 C314 1.411 1_545 S
C328 C327 1.382 . S
C329 C313 1.403 1_545 S
C329 C327 1.403 . S
C329 C330 1.489 . S
C330 C329 1.489 . S
C330 C331 1.383 . S
C330 C335 1.382 . S
C331 H302 0.950 . S
C331 C330 1.383 . S
C331 C332 1.395 . S
C332 H303 0.950 . S
C332 C331 1.395 . S
C332 C333 1.288 . S
C333 C332 1.288 . S
C333 C334 1.392 . S
C334 H304 0.951 . S
C334 C333 1.392 . S
C334 C335 1.392 . S
C335 H305 0.949 1_545 S
C335 C330 1.382 . S
C335 C334 1.392 . S
H336 C355 0.949 1_455 S
H337 C356 0.950 . S
H338 C358 0.950 . S
H339 C359 0.950 . S
H340 C361 0.950 . S
H341 C364 0.950 . S
H342 C365 0.950 . S
H343 C367 0.951 . S
H344 C368 0.949 . S
H345 C370 0.949 . S
H346 C371 0.950 . S
H347 C373 0.950 . S
H348 C374 0.950 . S
H349 C376 0.950 . S
H350 C379 0.950 . S
H351 C380 0.950 . S
H352 C382 0.951 . S
H353 C383 0.949 1_545 S
C354 C355 1.376 . S
C354 C359 1.386 . S
C354 C360 1.483 . S
C355 H336 0.949 1_655 S
C355 C354 1.376 . S
C355 C356 1.397 . S
C356 H337 0.950 . S
C356 C355 1.397 . S
C356 C357 1.391 . S
C357 C356 1.391 . S
C357 C358 1.405 . S
C358 H338 0.950 . S
C358 C357 1.405 . S
C358 C359 1.367 . S
C359 H339 0.950 . S
C359 C354 1.386 . S
C359 C358 1.367 . S
C360 C354 1.483 . S
C360 C361 1.382 1_655 S
C360 C362 1.403 . S
C361 H340 0.950 . S
C361 C360 1.382 1_455 S
C361 C377 1.411 1_545 S
C362 C360 1.403 . S
C362 C363 1.489 . S
C362 C376 1.411 1_655 S
C363 C362 1.489 . S
C363 C364 1.383 . S
C363 C368 1.382 . S
C364 H341 0.950 . S
C364 C363 1.383 . S
C364 C365 1.395 . S
C365 H342 0.950 . S
C365 C364 1.395 . S
C365 C366 1.288 . S
C366 C365 1.288 . S
C366 C367 1.392 . S
C367 H343 0.951 . S
C367 C366 1.392 . S
C367 C368 1.392 . S
C368 H344 0.949 . S
C368 C363 1.382 . S
C368 C367 1.392 . S
C369 C370 1.376 . S
C369 C374 1.386 . S
C369 C375 1.483 . S
C370 H345 0.949 . S
C370 C369 1.376 . S
C370 C371 1.397 . S
C371 H346 0.950 . S
C371 C370 1.397 . S
C371 C372 1.391 . S
C372 C371 1.391 . S
C372 C373 1.405 . S
C373 H347 0.950 . S
C373 C372 1.405 . S
C373 C374 1.367 . S
C374 H348 0.950 . S
C374 C369 1.386 . S
C374 C373 1.367 . S
C375 C369 1.483 . S
C375 C376 1.382 1_565 S
C375 C377 1.403 . S
C376 H349 0.950 . S
C376 C362 1.411 1_455 S
C376 C375 1.382 1_545 S
C377 C361 1.411 1_565 S
C377 C375 1.403 . S
C377 C378 1.489 . S
C378 C377 1.489 . S
C378 C379 1.383 . S
C378 C383 1.382 . S
C379 H350 0.950 . S
C379 C378 1.383 . S
C379 C380 1.395 . S
C380 H351 0.950 . S
C380 C379 1.395 . S
C380 C381 1.288 . S
C381 C380 1.288 . S
C381 C382 1.392 . S
C382 H352 0.951 . S
C382 C381 1.392 . S
C382 C383 1.392 . S
C383 H353 0.949 1_565 S
C383 C378 1.382 . S
C383 C382 1.392 . S
C384 O385 1.306 . S
C384 O387 1.160 . S
O385 C384 1.306 . S
O385 Cd386 2.228 . S
Cd386 O385 2.228 . S
Cd386 O390 2.273 1_554 S
Cd386 O394 2.277 . S
O387 C384 1.160 . S
O387 Cd388 2.203 . S
Cd388 O387 2.203 . S
Cd388 O390 2.411 1_554 S
Cd388 O391 2.333 1_554 S
Cd388 O392 2.352 1_554 S
Cd388 O396 2.277 . S
Cd388 O397 2.356 1_554 S
C389 O394 1.209 . S
C389 O396 1.226 . S
O390 Cd386 2.273 1_556 S
O390 Cd388 2.411 1_556 S
O390 C393 1.320 . S
O391 Cd388 2.333 1_556 S
O391 C393 1.214 . S
O392 Cd388 2.352 1_556 S
O392 C395 1.258 . S
C393 O390 1.320 . S
C393 O391 1.214 . S
O394 Cd386 2.277 . S
O394 C389 1.209 . S
C395 O392 1.258 . S
C395 O397 1.282 . S
O396 Cd388 2.277 . S
O396 C389 1.226 . S
O397 Cd388 2.356 1_556 S
O397 C395 1.282 . S
C398 O399 1.306 . S
C398 O401 1.160 . S
O399 C398 1.306 . S
O399 Cd400 2.228 . S
Cd400 O399 2.228 . S
Cd400 O404 2.273 . S
Cd400 O408 2.277 . S
O401 C398 1.160 . S
O401 Cd402 2.203 . S
Cd402 O401 2.203 . S
Cd402 O404 2.411 . S
Cd402 O405 2.333 . S
Cd402 O406 2.352 . S
Cd402 O410 2.277 . S
Cd402 O411 2.356 . S
C403 O408 1.209 . S
C403 O410 1.226 . S
O404 Cd400 2.273 . S
O404 Cd402 2.411 . S
O404 C407 1.320 . S
O405 Cd402 2.333 . S
O405 C407 1.214 . S
O406 Cd402 2.352 . S
O406 C409 1.258 . S
C407 O404 1.320 . S
C407 O405 1.214 . S
O408 Cd400 2.277 . S
O408 C403 1.209 . S
C409 O406 1.258 . S
C409 O411 1.282 . S
O410 Cd402 2.277 . S
O410 C403 1.226 . S
O411 Cd402 2.356 . S
O411 C409 1.282 . S
C412 O413 1.306 . S
C412 O415 1.160 . S
O413 C412 1.306 . S
O413 Cd414 2.228 . S
Cd414 O413 2.228 . S
Cd414 O418 2.273 . S
Cd414 O422 2.277 . S
O415 C412 1.160 . S
O415 Cd416 2.203 . S
Cd416 O415 2.203 . S
Cd416 O418 2.411 . S
Cd416 O419 2.333 . S
Cd416 O420 2.352 . S
Cd416 O424 2.277 . S
Cd416 O425 2.356 . S
C417 O422 1.209 . S
C417 O424 1.226 . S
O418 Cd414 2.273 . S
O418 Cd416 2.411 . S
O418 C421 1.320 . S
O419 Cd416 2.333 . S
O419 C421 1.214 . S
O420 Cd416 2.352 . S
O420 C423 1.258 . S
C421 O418 1.320 . S
C421 O419 1.214 . S
O422 Cd414 2.277 . S
O422 C417 1.209 . S
C423 O420 1.258 . S
C423 O425 1.282 . S
O424 Cd416 2.277 . S
O424 C417 1.226 . S
O425 Cd416 2.356 . S
O425 C423 1.282 . S
C426 O427 1.306 . S
C426 O429 1.160 . S
O427 C426 1.306 . S
O427 Cd428 2.228 . S
Cd428 O427 2.228 . S
Cd428 O432 2.273 . S
Cd428 O436 2.277 . S
O429 C426 1.160 . S
O429 Cd430 2.203 . S
Cd430 O429 2.203 . S
Cd430 O432 2.411 . S
Cd430 O433 2.333 . S
Cd430 O434 2.352 . S
Cd430 O438 2.277 . S
Cd430 O439 2.356 . S
C431 O436 1.209 . S
C431 O438 1.226 . S
O432 Cd428 2.273 . S
O432 Cd430 2.411 . S
O432 C435 1.320 . S
O433 Cd430 2.333 . S
O433 C435 1.214 . S
O434 Cd430 2.352 . S
O434 C437 1.258 . S
C435 O432 1.320 . S
C435 O433 1.214 . S
O436 Cd428 2.277 . S
O436 C431 1.209 . S
C437 O434 1.258 . S
C437 O439 1.282 . S
O438 Cd430 2.277 . S
O438 C431 1.226 . S
O439 Cd430 2.356 . S
O439 C437 1.282 . S
C440 O441 1.306 . S
C440 O443 1.160 . S
O441 C440 1.306 . S
O441 Cd442 2.228 . S
Cd442 O441 2.228 . S
Cd442 O446 2.273 . S
Cd442 O450 2.277 . S
O443 C440 1.160 . S
O443 Cd444 2.203 . S
Cd444 O443 2.203 . S
Cd444 O446 2.411 . S
Cd444 O447 2.333 . S
Cd444 O448 2.352 . S
Cd444 O452 2.277 . S
Cd444 O453 2.356 . S
C445 O450 1.209 . S
C445 O452 1.226 . S
O446 Cd442 2.273 . S
O446 Cd444 2.411 . S
O446 C449 1.320 . S
O447 Cd444 2.333 . S
O447 C449 1.214 . S
O448 Cd444 2.352 . S
O448 C451 1.258 . S
C449 O446 1.320 . S
C449 O447 1.214 . S
O450 Cd442 2.277 . S
O450 C445 1.209 . S
C451 O448 1.258 . S
C451 O453 1.282 . S
O452 Cd444 2.277 . S
O452 C445 1.226 . S
O453 Cd444 2.356 . S
O453 C451 1.282 . S
C454 O455 1.306 . S
C454 O457 1.160 . S
O455 C454 1.306 . S
O455 Cd456 2.228 . S
Cd456 O455 2.228 . S
Cd456 O460 2.273 . S
Cd456 O464 2.277 . S
O457 C454 1.160 . S
O457 Cd458 2.203 . S
Cd458 O457 2.203 . S
Cd458 O460 2.411 . S
Cd458 O461 2.333 . S
Cd458 O462 2.352 . S
Cd458 O466 2.277 . S
Cd458 O467 2.356 . S
C459 O464 1.209 . S
C459 O466 1.226 . S
O460 Cd456 2.273 . S
O460 Cd458 2.411 . S
O460 C463 1.320 . S
O461 Cd458 2.333 . S
O461 C463 1.214 . S
O462 Cd458 2.352 . S
O462 C465 1.258 . S
C463 O460 1.320 . S
C463 O461 1.214 . S
O464 Cd456 2.277 . S
O464 C459 1.209 . S
C465 O462 1.258 . S
C465 O467 1.282 . S
O466 Cd458 2.277 . S
O466 C459 1.226 . S
O467 Cd458 2.356 . S
O467 C465 1.282 . S
C468 O469 1.306 . S
C468 O471 1.160 . S
O469 C468 1.306 . S
O469 Cd470 2.228 . S
Cd470 O469 2.228 . S
Cd470 O474 2.273 1_556 S
Cd470 O478 2.277 . S
O471 C468 1.160 . S
O471 Cd472 2.203 1_556 S
Cd472 O471 2.203 1_554 S
Cd472 O474 2.411 . S
Cd472 O475 2.333 . S
Cd472 O476 2.352 . S
Cd472 O480 2.277 1_554 S
Cd472 O481 2.356 . S
C473 O478 1.209 . S
C473 O480 1.226 . S
O474 Cd470 2.273 1_554 S
O474 Cd472 2.411 . S
O474 C477 1.320 . S
O475 Cd472 2.333 . S
O475 C477 1.214 . S
O476 Cd472 2.352 . S
O476 C479 1.258 . S
C477 O474 1.320 . S
C477 O475 1.214 . S
O478 Cd470 2.277 . S
O478 C473 1.209 . S
C479 O476 1.258 . S
C479 O481 1.282 . S
O480 Cd472 2.277 1_556 S
O480 C473 1.226 . S
O481 Cd472 2.356 . S
O481 C479 1.282 . S
C482 O483 1.306 . S
C482 O485 1.160 . S
O483 C482 1.306 . S
O483 Cd484 2.228 . S
Cd484 O483 2.228 . S
Cd484 O488 2.273 . S
Cd484 O492 2.277 . S
O485 C482 1.160 . S
O485 Cd486 2.203 . S
Cd486 O485 2.203 . S
Cd486 O488 2.411 . S
Cd486 O489 2.333 . S
Cd486 O490 2.352 . S
Cd486 O494 2.277 . S
Cd486 O495 2.356 . S
C487 O492 1.209 . S
C487 O494 1.226 . S
O488 Cd484 2.273 . S
O488 Cd486 2.411 . S
O488 C491 1.320 . S
O489 Cd486 2.333 . S
O489 C491 1.214 . S
O490 Cd486 2.352 . S
O490 C493 1.258 . S
C491 O488 1.320 . S
C491 O489 1.214 . S
O492 Cd484 2.277 . S
O492 C487 1.209 . S
C493 O490 1.258 . S
C493 O495 1.282 . S
O494 Cd486 2.277 . S
O494 C487 1.226 . S
O495 Cd486 2.356 . S
O495 C493 1.282 . S
C409 C36 1.801 . S
C423 C93 1.797 . S
C431 C126 1.807 . S
C165 C389 1.753 . S
C222 C395 1.780 1_554 S
C261 C403 1.710 . S
C417 C318 1.869 . S
C437 C381 1.827 . S
C132 C465 1.731 . S
C479 C189 1.906 1_554 S
C30 C487 1.796 . S
C451 C69 1.688 . S
C324 C445 1.784 . S
C357 C459 1.724 . S
C473 C228 1.742 1_556 S
C285 C493 1.889 . S
C412 C45 2.005 . S
C435 C84 2.119 . S
C117 C393 2.165 . S
C174 C398 2.035 . S
C213 C426 1.989 . S
C384 C270 2.004 . S
C407 C309 2.112 . S
C421 C372 2.113 . S
C468 C141 2.012 . S
C491 C180 2.068 . S
C21 C440 2.042 . S
C454 C78 1.930 . S
C482 C333 2.134 . S
C366 C449 2.138 . S
C463 C237 2.223 . S
C477 C276 2.105 . S
