# Generated by pormake.
# Topology zzz, (3,6)-cn, num edge types: 1
# Building blocks:
#     Node 0, Type 0, BuildingBlock: QEWDON_clean_linker_0, # of connection points: 3
#     Node 1, Type 0, BuildingBlock: QEWDON_clean_linker_0, # of connection points: 3
#     Node 2, Type 0, BuildingBlock: QEWDON_clean_linker_0, # of connection points: 3
#     Node 3, Type 0, BuildingBlock: QEWDON_clean_linker_0, # of connection points: 3
#     Node 4, Type 0, BuildingBlock: QEWDON_clean_linker_0, # of connection points: 3
#     Node 5, Type 0, BuildingBlock: QEWDON_clean_linker_0, # of connection points: 3
#     Node 6, Type 0, BuildingBlock: QEWDON_clean_linker_0, # of connection points: 3
#     Node 7, Type 0, BuildingBlock: QEWDON_clean_linker_0, # of connection points: 3
#     Node 8, Type 1, BuildingBlock: BETGAK_clean_sbu_0, # of connection points: 6
#     Node 9, Type 1, BuildingBlock: BETGAK_clean_sbu_0, # of connection points: 6
#     Node 10, Type 1, BuildingBlock: BETGAK_clean_sbu_0, # of connection points: 6
#     Node 11, Type 1, BuildingBlock: BETGAK_clean_sbu_0, # of connection points: 6
#     Edge 12, Type (0, 1), BuildingBlock: ZUJKAS_clean_linker_0, # of connection points: 2
#     Edge 13, Type (0, 1), BuildingBlock: ZUJKAS_clean_linker_0, # of connection points: 2
#     Edge 14, Type (0, 1), BuildingBlock: ZUJKAS_clean_linker_0, # of connection points: 2
#     Edge 15, Type (0, 1), BuildingBlock: ZUJKAS_clean_linker_0, # of connection points: 2
#     Edge 16, Type (0, 1), BuildingBlock: ZUJKAS_clean_linker_0, # of connection points: 2
#     Edge 17, Type (0, 1), BuildingBlock: ZUJKAS_clean_linker_0, # of connection points: 2
#     Edge 18, Type (0, 1), BuildingBlock: ZUJKAS_clean_linker_0, # of connection points: 2
#     Edge 19, Type (0, 1), BuildingBlock: ZUJKAS_clean_linker_0, # of connection points: 2
#     Edge 20, Type (0, 1), BuildingBlock: ZUJKAS_clean_linker_0, # of connection points: 2
#     Edge 21, Type (0, 1), BuildingBlock: ZUJKAS_clean_linker_0, # of connection points: 2
#     Edge 22, Type (0, 1), BuildingBlock: ZUJKAS_clean_linker_0, # of connection points: 2
#     Edge 23, Type (0, 1), BuildingBlock: ZUJKAS_clean_linker_0, # of connection points: 2
#     Edge 24, Type (0, 1), BuildingBlock: ZUJKAS_clean_linker_0, # of connection points: 2
#     Edge 25, Type (0, 1), BuildingBlock: ZUJKAS_clean_linker_0, # of connection points: 2
#     Edge 26, Type (0, 1), BuildingBlock: ZUJKAS_clean_linker_0, # of connection points: 2
#     Edge 27, Type (0, 1), BuildingBlock: ZUJKAS_clean_linker_0, # of connection points: 2
#     Edge 28, Type (0, 1), BuildingBlock: ZUJKAS_clean_linker_0, # of connection points: 2
#     Edge 29, Type (0, 1), BuildingBlock: ZUJKAS_clean_linker_0, # of connection points: 2
#     Edge 30, Type (0, 1), BuildingBlock: ZUJKAS_clean_linker_0, # of connection points: 2
#     Edge 31, Type (0, 1), BuildingBlock: ZUJKAS_clean_linker_0, # of connection points: 2
#     Edge 32, Type (0, 1), BuildingBlock: ZUJKAS_clean_linker_0, # of connection points: 2
#     Edge 33, Type (0, 1), BuildingBlock: ZUJKAS_clean_linker_0, # of connection points: 2
#     Edge 34, Type (0, 1), BuildingBlock: ZUJKAS_clean_linker_0, # of connection points: 2
#     Edge 35, Type (0, 1), BuildingBlock: ZUJKAS_clean_linker_0, # of connection points: 2
# Relax obj value: 0.144
# Max RMSD: 0.164
# Mean RMSD: 0.120
data_MOF--net-zzz--node1-BETGAK_clean_sbu_0--node2-QEWDON_clean_linker_0--edge1-ZUJKAS_clean_linker_0
_symmetry_space_group_name_H-M    P1
_symmetry_Int_Tables_number       1
_symmetry_cell_setting            triclinic
loop_
_symmetry_equiv_pos_as_xyz
'x, y, z'
_cell_length_a     72.661677
_cell_length_b     72.644232
_cell_length_c     16.429089
_cell_angle_alpha  89.968303
_cell_angle_beta   90.080583
_cell_angle_gamma 89.878657
loop_
_atom_site_label
_atom_site_type_symbol
_atom_site_fract_x
_atom_site_fract_y
_atom_site_fract_z
_atom_type_partial_charge
H0 H 0.75782 0.52699 0.12729 0.0
C1 C 0.76827 0.52562 0.17382 0.0
C2 C 0.78665 0.52524 0.14879 0.0
C3 C 0.76354 0.52497 0.25707 0.0
H4 H 0.81499 0.52441 0.18722 0.0
C5 C 0.80075 0.52471 0.20695 0.0
C6 C 0.79684 0.524 0.29012 0.0
C7 C 0.77821 0.5237 0.31516 0.0
C8 C 0.74352 0.52666 0.28202 0.0
H9 H 0.77536 0.5227 0.37958 0.0
C10 C 0.72872 0.52244 0.22777 0.0
C11 C 0.71011 0.52549 0.25002 0.0
C12 C 0.73897 0.53365 0.35941 0.0
H13 H 0.74947 0.53775 0.40235 0.0
C14 C 0.72067 0.53618 0.38235 0.0
H15 H 0.73141 0.5166 0.16847 0.0
C16 C 0.70641 0.53225 0.3284 0.0
H17 H 0.69241 0.53499 0.34754 0.0
H18 H 0.71752 0.54167 0.442 0.0
H19 H 0.02393 0.75631 0.11199 0.0
C20 C 0.02301 0.76663 0.15921 0.0
C21 C 0.02984 0.78417 0.14219 0.0
C22 C 0.01417 0.76289 0.23393 0.0
H23 H 0.03288 0.81199 0.18348 0.0
C24 C 0.02773 0.79839 0.19856 0.0
C25 C 0.01873 0.79558 0.27268 0.0
C26 C 1.01247 0.77762 0.29145 0.0
C27 C 1.00551 0.74419 0.24769 0.0
H28 H 1.00588 0.77544 0.34962 0.0
C29 C 1.01152 0.72807 0.20541 0.0
C30 C 1.00223 0.71101 0.21399 0.0
C31 C 0.9902 0.7425 0.29966 0.0
H32 H 0.98452 0.75427 0.33113 0.0
C33 C 0.98133 0.72566 0.30985 0.0
H34 H 0.02345 0.72857 0.16624 0.0
C35 C 0.98717 0.71013 0.26738 0.0
H36 H 0.97949 0.69748 0.27484 0.0
H37 H 0.96951 0.72475 0.34967 0.0
H38 H 0.77407 1.01048 0.11612 0.0
C39 C 0.76353 1.01125 0.16235 0.0
C40 C 0.74531 1.01335 0.13644 0.0
C41 C 0.76791 1.00935 0.24576 0.0
H42 H 0.717 0.01508 0.17286 0.0
C43 C 0.73106 1.01321 0.1936 0.0
C44 C 0.73453 1.01096 0.27682 0.0
C45 C 0.75306 1.00962 0.30302 0.0
C46 C 0.78772 1.00605 0.27125 0.0
H47 H 0.75565 1.00848 0.3676 0.0
C48 C 0.80293 1.01086 0.2205 0.0
C49 C 0.82127 1.00651 0.24285 0.0
C50 C 0.79164 0.99704 0.34533 0.0
H51 H 0.78082 0.99236 0.38528 0.0
C52 C 0.80972 0.99324 0.36861 0.0
H53 H 0.80078 0.01816 0.16392 0.0
C54 C 0.82437 0.99786 0.31805 0.0
H55 H 0.83817 0.99414 0.33698 0.0
H56 H 0.81237 0.98626 0.42569 0.0
H57 H 0.5136 0.77532 0.12794 0.0
C58 C 0.51286 0.76515 0.17588 0.0
C59 C 0.50725 0.74744 0.15477 0.0
C60 C 0.51809 0.76938 0.25651 0.0
H61 H 0.50292 0.71973 0.19473 0.0
C62 C 0.50699 0.73348 0.21318 0.0
C63 C 0.51203 0.73682 0.29405 0.0
C64 C 0.51758 0.75488 0.31566 0.0
C65 C 0.52464 0.78864 0.27672 0.0
H66 H 0.52109 0.75751 0.37854 0.0
C67 C 0.51978 0.80423 0.22817 0.0
C68 C 0.52691 0.82196 0.24488 0.0
C69 C 0.53662 0.79153 0.34298 0.0
H70 H 0.54136 0.78024 0.38046 0.0
C71 C 0.54327 0.80907 0.36096 0.0
H72 H 0.51029 0.80288 0.17783 0.0
C73 C 0.53853 0.82412 0.31253 0.0
H74 H 0.54439 0.83743 0.3269 0.0
H75 H 0.5525 0.81096 0.41204 0.0
H76 H 0.27573 0.5235 0.2416 0.0
C77 C 0.26531 0.52118 0.19567 0.0
C78 C 0.24685 0.52131 0.21991 0.0
C79 C 0.2702 0.51866 0.11331 0.0
H80 H 0.21864 0.52062 0.18 0.0
C81 C 0.23293 0.51974 0.16126 0.0
C82 C 0.23702 0.51781 0.07857 0.0
C83 C 0.25571 0.51666 0.05491 0.0
C84 C 0.29026 0.51958 0.08893 0.0
H85 H 0.25877 0.5147 0.99111 0.0
C86 C 0.30482 0.51532 0.14439 0.0
C87 C 0.32355 0.51771 0.12253 0.0
C88 C 0.29509 0.52592 0.01082 0.0
H89 H 0.28473 0.52997 0.96701 0.0
C90 C 0.31348 0.52787 0.98841 0.0
H91 H 0.30176 0.51 0.20434 0.0
C92 C 0.32754 0.52393 0.04349 0.0
H93 H 0.34161 0.52627 0.02453 0.0
H94 H 0.31686 0.53291 0.92824 0.0
H95 H 1.00765 0.27308 0.24552 0.0
C96 C 1.01121 0.26245 0.20213 0.0
C97 C 1.01107 0.24412 0.22828 0.0
C98 C 0.01551 0.267 0.12088 0.0
H99 H 0.01374 0.2158 0.19253 0.0
C100 C 0.01469 0.23 0.17254 0.0
C101 C 0.01854 0.23373 0.09076 0.0
C102 C 0.01903 0.25232 0.06505 0.0
C103 C 0.01546 0.28694 0.09493 0.0
H104 H 0.02242 0.25521 0.00223 0.0
C105 C 0.01935 0.3015 0.15061 0.0
C106 C 0.01822 0.3202 0.12652 0.0
C107 C 1.01065 0.29169 0.01459 0.0
H108 H 1.00701 0.28128 0.97043 0.0
C109 C 1.00984 0.31007 0.99021 0.0
H110 H 0.0235 0.29841 0.2124 0.0
C111 C 1.01351 0.32417 0.04537 0.0
H112 H 1.01222 0.33827 0.02468 0.0
H113 H 1.006 0.31342 0.92826 0.0
H114 H 0.25703 1.00365 0.23658 0.0
C115 C 0.26762 1.00799 0.19459 0.0
C116 C 0.28587 1.00792 0.22178 0.0
C117 C 0.26316 1.01323 0.11418 0.0
H118 H 0.31421 1.01141 0.1884 0.0
C119 C 0.30006 1.01239 0.16775 0.0
C120 C 0.29646 0.01713 0.08672 0.0
C121 C 0.27792 0.01772 0.06024 0.0
C122 C 0.24328 1.01316 0.08678 0.0
H123 H 0.27518 0.02191 0.99822 0.0
C124 C 0.22839 0.01534 0.14259 0.0
C125 C 0.20981 0.0138 0.11684 0.0
C126 C 0.23896 1.00999 0.0044 0.0
H127 H 0.24959 1.00764 0.9596 0.0
C128 C 0.22072 1.00925 0.9782 0.0
H129 H 0.2311 0.01793 0.20626 0.0
C130 C 0.20632 1.01111 0.0335 0.0
H131 H 0.19236 1.01041 0.01061 0.0
H132 H 0.21772 1.00693 0.91447 0.0
H133 H 0.51751 0.25719 0.24269 0.0
C134 C 0.51555 0.26772 0.19696 0.0
C135 C 0.51452 0.28604 0.22282 0.0
C136 C 0.51447 0.26313 0.11364 0.0
H137 H 0.51332 0.31441 0.18538 0.0
C138 C 0.51336 0.30019 0.16513 0.0
C139 C 0.51287 0.29641 0.08169 0.0
C140 C 0.51283 0.27782 0.05606 0.0
C141 C 0.51627 0.24319 0.08808 0.0
H142 H 0.51194 0.27501 0.99155 0.0
C143 C 0.51184 0.22836 0.14161 0.0
C144 C 0.51497 0.20978 0.11922 0.0
C145 C 0.52353 0.23874 0.01109 0.0
H146 H 0.52775 0.24932 0.96879 0.0
C147 C 0.52616 0.22046 0.98794 0.0
H148 H 0.50579 0.23106 0.20052 0.0
C149 C 0.52202 0.20613 0.04131 0.0
H150 H 0.52484 0.19215 0.02211 0.0
H151 H 0.53185 0.21737 0.92864 0.0
La152 La 0.02549 1.0093 0.75617 0.0
La153 La 1.00672 0.01958 0.61268 0.0
C154 C 0.03664 0.99135 0.87693 0.0
C155 C 0.04502 0.97286 0.87627 0.0
C156 C 0.05897 0.96847 0.82003 0.0
C157 C 0.06447 0.95023 0.80867 0.0
C158 C 0.05592 0.93605 0.85233 0.0
C159 C 0.04248 0.9405 0.91066 0.0
C160 C 0.03711 0.95876 0.92267 0.0
C161 C 0.04835 0.01941 0.6383 0.0
C162 C 0.0155 0.9782 0.6232 0.0
C163 C 0.99561 0.03756 0.49184 0.0
C164 C 0.98818 0.05642 0.49284 0.0
C165 C 0.97617 0.06198 0.5554 0.0
C166 C 0.97253 0.08062 0.56843 0.0
C167 C 0.98106 0.09402 0.52 0.0
C168 C 0.99214 0.08837 0.45432 0.0
C169 C 0.99567 0.06972 0.44088 0.0
C170 C 0.98384 1.00952 0.73042 0.0
C171 C 0.01691 0.05066 0.74548 0.0
O172 O 0.0462 1.00449 0.84296 0.0
O173 O 0.01937 0.99185 0.85449 0.0
O174 O 0.05016 0.02355 0.71433 0.0
O175 O 0.03415 1.00956 0.6302 0.0
O176 O 0.01943 0.9822 0.69991 0.0
O177 O 1.01215 0.99161 0.57102 0.0
O178 O 0.98568 0.02502 0.52806 0.0
O179 O 1.01298 0.03633 0.51217 0.0
O180 O 0.98215 1.00527 0.65443 0.0
O181 O 0.99806 0.01937 0.73875 0.0
O182 O 1.0131 0.04665 0.66865 0.0
O183 O 0.01998 0.03723 0.79792 0.0
H184 H 0.0651 0.97901 0.78212 0.0
H185 H 0.0748 0.94713 0.76316 0.0
H186 H 0.03586 0.92979 0.94589 0.0
H187 H 0.02621 0.96179 0.96559 0.0
H188 H 0.97045 0.05204 0.59748 0.0
H189 H 0.96404 0.08457 0.61968 0.0
H190 H 0.99861 0.09843 0.415 0.0
H191 H 1.00508 0.06575 0.39284 0.0
La192 La 0.52123 0.02539 0.75604 0.0
La193 La 0.51033 1.00705 0.61011 0.0
C194 C 0.53988 0.03398 0.87879 0.0
C195 C 0.56016 0.03397 0.88477 0.0
C196 C 0.56962 0.05065 0.89438 0.0
C197 C 0.58857 0.05156 0.87993 0.0
C198 C 0.59839 0.0358 0.8553 0.0
C199 C 0.58905 0.01889 0.85104 0.0
C200 C 0.5702 0.01797 0.86582 0.0
C201 C 0.51042 0.04852 0.64094 0.0
C202 C 0.55171 0.01485 0.62117 0.0
C203 C 0.49194 0.99693 0.48918 0.0
C204 C 0.47324 0.98923 0.49095 0.0
C205 C 0.46817 0.97686 0.55297 0.0
C206 C 0.44969 0.97266 0.56635 0.0
C207 C 0.43595 0.98096 0.51881 0.0
C208 C 0.4411 0.99258 0.45413 0.0
C209 C 0.4596 0.99667 0.44034 0.0
C210 C 0.52061 0.98382 0.7266 0.0
C211 C 0.4795 0.01805 0.7443 0.0
O212 O 0.53306 0.04612 0.82827 0.0
O213 O 0.53204 0.01789 0.87004 0.0
O214 O 0.5066 0.05015 0.71766 0.0
O215 O 0.5203 0.03433 0.6308 0.0
O216 O 0.54786 0.01803 0.69867 0.0
O217 O 0.53826 1.01229 0.56842 0.0
O218 O 0.50485 0.9868 0.52219 0.0
O219 O 0.49299 0.01411 0.51247 0.0
O220 O 0.52425 0.98193 0.65005 0.0
O221 O 0.51099 0.99819 0.73536 0.0
O222 O 0.48345 1.01274 0.66911 0.0
O223 O 0.4928 0.02249 0.79542 0.0
H224 H 0.5622 0.06318 0.90882 0.0
H225 H 0.59541 0.06472 0.8861 0.0
H226 H 0.59601 1.00648 0.83136 0.0
H227 H 0.56337 1.00488 0.85712 0.0
H228 H 0.47838 0.9712 0.59414 0.0
H229 H 0.44611 0.96377 0.61685 0.0
H230 H 0.43076 0.99892 0.41566 0.0
H231 H 0.46319 1.00639 0.3929 0.0
La232 La 0.50851 0.52287 0.77523 0.0
La233 La 0.52501 0.51099 0.61248 0.0
C234 C 0.50555 0.53989 0.90605 0.0
C235 C 0.49656 0.55796 0.9151 0.0
C236 C 0.48043 0.56191 0.87077 0.0
C237 C 0.47484 0.58008 0.85835 0.0
C238 C 0.48525 0.59467 0.88996 0.0
C239 C 0.5006 0.59064 0.93935 0.0
C240 C 0.50623 0.57244 0.95159 0.0
C241 C 0.4815 0.51929 0.6652 0.0
C242 C 0.51616 0.55266 0.63274 0.0
C243 C 0.5329 0.49304 0.48684 0.0
C244 C 0.53278 0.47286 0.47597 0.0
C245 C 0.54948 0.46311 0.47866 0.0
C246 C 0.54958 0.4441 0.49086 0.0
C247 C 0.53297 0.43445 0.4997 0.0
C248 C 0.51626 0.44396 0.48903 0.0
C249 C 0.51615 0.46299 0.47764 0.0
C250 C 0.54884 0.52179 0.72521 0.0
C251 C 0.51391 0.48054 0.7492 0.0
O252 O 0.49484 0.52596 0.88706 0.0
O253 O 0.52048 0.54043 0.86125 0.0
O254 O 0.47911 0.52364 0.74074 0.0
O255 O 0.49856 0.51689 0.65661 0.0
O256 O 0.51399 0.54906 0.71141 0.0
O257 O 0.51875 0.53935 0.5788 0.0
O258 O 0.54523 0.49906 0.53837 0.0
O259 O 0.51692 0.50106 0.49778 0.0
O260 O 0.55018 0.52541 0.6481 0.0
O261 O 0.53456 0.5122 0.73631 0.0
O262 O 0.51806 0.4845 0.67219 0.0
O263 O 0.51109 0.49365 0.80396 0.0
H264 H 0.47276 0.55108 0.8411 0.0
H265 H 0.46298 0.58271 0.82004 0.0
H266 H 0.50866 0.60159 0.96622 0.0
H267 H 0.51881 0.56975 0.98512 0.0
H268 H 0.5625 0.47034 0.47656 0.0
H269 H 0.56269 0.43706 0.49596 0.0
H270 H 0.5032 0.43695 0.49533 0.0
H271 H 0.50301 0.47005 0.47548 0.0
La272 La 1.01241 0.50646 0.75278 0.0
La273 La 0.02412 0.52267 0.5889 0.0
C274 C 0.99433 0.49921 0.87859 0.0
C275 C 0.97416 0.49992 0.8894 0.0
C276 C 0.96402 0.48348 0.88946 0.0
C277 C 0.94495 0.48383 0.87912 0.0
C278 C 0.93564 0.50066 0.86939 0.0
C279 C 0.94562 0.51715 0.8759 0.0
C280 C 0.96469 0.5168 0.8856 0.0
C281 C 0.02347 0.48242 0.64193 0.0
C282 C 0.98186 0.51686 0.61487 0.0
C283 C 0.0408 0.52541 0.45704 0.0
C284 C 0.05859 0.53466 0.44574 0.0
C285 C 0.06297 0.55003 0.49399 0.0
C286 C 0.08115 0.55582 0.502 0.0
C287 C 0.0953 0.54641 0.4616 0.0
C288 C 0.09079 0.5318 0.40902 0.0
C289 C 0.07256 0.52591 0.40148 0.0
C290 C 0.02013 0.54985 0.69774 0.0
C291 C 0.05407 0.51538 0.73175 0.0
O292 O 1.00006 0.48663 0.82754 0.0
O293 O 1.00273 0.51495 0.86725 0.0
O294 O 0.02699 0.48123 0.71924 0.0
O295 O 0.01379 0.49664 0.62948 0.0
O296 O 0.98585 0.51299 0.69219 0.0
O297 O 0.99496 0.51968 0.56016 0.0
O298 O 0.02678 0.53603 0.4761 0.0
O299 O 0.04184 0.51073 0.5034 0.0
O300 O 0.02425 0.55219 0.62192 0.0
O301 O 0.01805 0.53278 0.70687 0.0
O302 O 0.05042 0.51757 0.65303 0.0
O303 O 0.04079 0.51271 0.7858 0.0
H304 H 0.97096 0.47028 0.89282 0.0
H305 H 0.93756 0.47091 0.87659 0.0
H306 H 0.93888 0.53036 0.86839 0.0
H307 H 0.97204 0.52975 0.88525 0.0
H308 H 0.05254 0.55696 0.52951 0.0
H309 H 0.08423 0.56726 0.54203 0.0
H310 H 0.10147 0.52421 0.37756 0.0
H311 H 0.06955 0.51381 0.36531 0.0
H312 H 0.17839 0.99291 0.11487 0.0
H313 H 0.1515 0.99507 0.20263 0.0
H314 H 0.17822 0.03728 0.34383 0.0
H315 H 0.20502 0.03584 0.25326 0.0
H316 H 0.14639 0.98884 0.35992 0.0
H317 H 0.12978 0.0621 0.29888 0.0
H318 H 0.14655 0.04953 0.23999 0.0
H319 H 0.15255 0.05858 0.33842 0.0
C320 C 0.17854 1.00291 0.16374 0.0
C321 C 0.19391 0.01446 0.1755 0.0
C322 C 0.16312 1.004 0.2146 0.0
C323 C 0.16248 0.01662 0.27923 0.0
C324 C 0.17803 0.02776 0.2932 0.0
H325 H 0.0802 0.03875 0.65439 0.0
H326 H 0.1074 0.0381 0.5666 0.0
C327 C 0.19352 0.02674 0.24188 0.0
C328 C 0.1456 0.01779 0.33176 0.0
H329 H 0.11213 0.04721 0.40072 0.0
C330 C 0.1389 1.00162 0.36845 0.0
C331 C 0.13565 0.03441 0.34325 0.0
C332 C 0.14136 0.05211 0.30249 0.0
C333 C 0.12284 1.00165 0.4166 0.0
C334 C 0.11292 0.01826 0.42802 0.0
C335 C 0.11965 0.03445 0.39193 0.0
C336 C 0.09583 0.01917 0.47895 0.0
C337 C 0.11683 0.98393 0.45635 0.0
C338 C 0.07995 1.0091 0.45831 0.0
C339 C 0.06425 1.00953 0.50842 0.0
C340 C 0.06413 0.02002 0.58038 0.0
C341 C 0.07984 0.03047 0.5996 0.0
C342 C 0.09544 0.03012 0.54937 0.0
H343 H 0.12806 0.97354 0.45745 0.0
H344 H 0.11215 0.98642 0.51974 0.0
H345 H 0.10512 0.97807 0.42162 0.0
H346 H 0.07972 1.00079 0.40359 0.0
H347 H 0.05238 1.00135 0.49176 0.0
H348 H 0.49933 0.17617 0.08669 0.0
H349 H 0.49738 0.14926 0.17566 0.0
H350 H 0.52146 0.18043 0.3717 0.0
H351 H 0.52378 0.20742 0.28218 0.0
H352 H 0.53811 0.1459 0.35013 0.0
H353 H 0.4623 0.13842 0.36372 0.0
H354 H 0.47122 0.13966 0.26201 0.0
H355 H 0.4733 0.15921 0.32849 0.0
C356 C 0.50411 0.17739 0.14891 0.0
C357 C 0.51173 0.19407 0.17697 0.0
C358 C 0.50285 0.16197 0.20006 0.0
C359 C 0.50911 0.16274 0.28094 0.0
C360 C 0.51645 0.17944 0.30973 0.0
H361 H 0.49173 0.08074 0.6618 0.0
H362 H 0.49154 0.10794 0.57381 0.0
C363 C 0.51763 0.19495 0.25861 0.0
C364 C 0.50872 0.14591 0.33392 0.0
H365 H 0.48001 0.11334 0.41474 0.0
C366 C 0.52539 0.13883 0.36442 0.0
C367 C 0.49214 0.13666 0.3534 0.0
C368 C 0.4737 0.14394 0.32592 0.0
C369 C 0.52596 0.12271 0.41239 0.0
C370 C 0.50943 0.11316 0.42992 0.0
C371 C 0.49273 0.12043 0.40062 0.0
C372 C 0.5091 0.09608 0.48137 0.0
C373 C 0.54426 0.11624 0.44526 0.0
C374 C 0.51868 0.08003 0.45832 0.0
C375 C 0.51875 0.06434 0.50869 0.0
C376 C 0.50924 0.06437 0.58326 0.0
C377 C 0.49926 0.08025 0.60498 0.0
C378 C 0.49913 0.09585 0.5546 0.0
H379 H 0.55479 0.1273 0.44318 0.0
H380 H 0.54291 0.11139 0.50908 0.0
H381 H 0.54929 0.10456 0.40782 0.0
H382 H 0.52618 0.07965 0.40145 0.0
H383 H 0.52652 0.05233 0.48999 0.0
H384 H 0.35735 0.50191 0.09325 0.0
H385 H 0.38406 0.50036 0.18356 0.0
H386 H 0.35227 0.52508 0.37607 0.0
H387 H 0.32545 0.52683 0.28556 0.0
H388 H 0.40244 0.52923 0.25594 0.0
H389 H 0.37628 0.48178 0.49311 0.0
H390 H 0.36508 0.48451 0.39569 0.0
H391 H 0.36163 0.50127 0.47471 0.0
C392 C 0.35594 0.50696 0.15493 0.0
C393 C 0.33912 0.51459 0.1816 0.0
C394 C 0.37129 0.50603 0.20671 0.0
C395 C 0.37031 0.51249 0.28714 0.0
C396 C 0.35341 0.51967 0.31488 0.0
H397 H 0.44579 0.52801 0.68917 0.0
H398 H 0.41997 0.52591 0.5949 0.0
C399 C 0.338 0.52063 0.26294 0.0
C400 C 0.38717 0.51249 0.34016 0.0
H401 H 0.40438 0.49712 0.52208 0.0
C402 C 0.40289 0.52209 0.3139 0.0
C403 C 0.3879 0.5032 0.41592 0.0
C404 C 0.3719 0.49196 0.4464 0.0
C405 C 0.41898 0.52314 0.36203 0.0
C406 C 0.41967 0.51397 0.43822 0.0
C407 C 0.40401 0.50416 0.46388 0.0
C408 C 0.43596 0.51522 0.4945 0.0
C409 C 0.43483 0.53466 0.33198 0.0
C410 C 0.45383 0.50983 0.47051 0.0
C411 C 0.46883 0.51117 0.52485 0.0
C412 C 0.46625 0.51772 0.60454 0.0
C413 C 0.44836 0.52289 0.6283 0.0
C414 C 0.43349 0.52166 0.57429 0.0
H415 H 0.43045 0.54449 0.28383 0.0
H416 H 0.44117 0.54256 0.38257 0.0
H417 H 0.4455 0.52549 0.30566 0.0
H418 H 0.45617 0.5044 0.41007 0.0
H419 H 0.48233 0.50692 0.50473 0.0
H420 H 0.03699 0.35247 0.10061 0.0
H421 H 0.03899 0.37936 0.18933 0.0
H422 H 1.00843 0.35061 0.37441 0.0
H423 H 1.00599 0.32366 0.28475 0.0
H424 H 0.99506 0.3859 0.34746 0.0
H425 H 0.07064 0.38837 0.38942 0.0
H426 H 0.06379 0.3878 0.28446 0.0
H427 H 0.05902 0.36841 0.34916 0.0
C428 C 0.03075 0.35176 0.16036 0.0
C429 C 0.02128 0.33579 0.18516 0.0
C430 C 0.03206 0.36717 0.2115 0.0
C431 C 0.02404 0.36708 0.28926 0.0
C432 C 0.01483 0.35107 0.31493 0.0
H433 H 0.04058 0.44954 0.66966 0.0
H434 H 0.04063 0.42202 0.58374 0.0
C435 C 0.01357 0.33557 0.26379 0.0
C436 C 0.02458 0.38397 0.34183 0.0
H437 H 0.05383 0.41493 0.43112 0.0
C438 C 1.00792 0.39219 0.36599 0.0
C439 C 0.04133 0.3922 0.36695 0.0
C440 C 0.05972 0.38367 0.34691 0.0
C441 C 1.00755 0.40846 0.41293 0.0
C442 C 0.0243 0.41703 0.43575 0.0
C443 C 0.04096 0.40861 0.41292 0.0
C444 C 0.02483 0.43429 0.48598 0.0
C445 C 0.98916 0.41611 0.43906 0.0
C446 C 0.01635 0.45069 0.45931 0.0
C447 C 0.01634 0.46654 0.50856 0.0
C448 C 0.02485 0.46637 0.58555 0.0
C449 C 0.03384 0.45016 0.61087 0.0
C450 C 0.03387 0.43437 0.56169 0.0
H451 H 0.97811 0.4056 0.435 0.0
H452 H 0.98976 0.42133 0.50251 0.0
H453 H 0.98534 0.42773 0.39855 0.0
H454 H 1.00964 0.45121 0.40047 0.0
H455 H 1.00936 0.4788 0.48704 0.0
H456 H 0.82426 0.99938 0.07873 0.0
H457 H 0.85202 1.00107 0.99392 0.0
H458 H 0.88236 0.02333 0.19676 0.0
H459 H 0.85485 0.02132 0.28185 0.0
H460 H 0.87485 0.02802 0.94383 0.0
H461 H 0.91462 0.98039 0.14045 0.0
H462 H 0.89023 0.98398 0.15305 0.0
H463 H 0.90643 1.00024 0.19426 0.0
C464 C 0.83679 1.00486 0.10495 0.0
C465 C 0.83732 1.01002 0.18753 0.0
C466 C 0.85272 1.00573 0.05646 0.0
C467 C 0.86958 1.01181 0.08924 0.0
C468 C 0.86982 0.01795 0.17038 0.0
H469 H 0.98122 0.02411 0.88519 0.0
H470 H 0.95377 0.02517 0.97307 0.0
C471 C 0.85398 0.01693 0.21896 0.0
C472 C 0.88687 1.01156 0.03913 0.0
H473 H 0.93125 0.99537 0.0353 0.0
C474 C 0.88713 0.02081 0.9639 0.0
C475 C 0.90305 1.00216 0.06468 0.0
C476 C 0.90357 0.99098 0.14209 0.0
C477 C 0.90302 0.02113 0.91456 0.0
C478 C 0.91916 1.01179 0.94032 0.0
C479 C 0.91898 1.00264 0.01563 0.0
C480 C 0.93608 1.01077 0.88839 0.0
C481 C 0.90247 0.03169 0.83552 0.0
C482 C 0.93551 1.00192 0.81245 0.0
C483 C 0.95115 1.00118 0.76269 0.0
C484 C 0.96785 1.00928 0.78735 0.0
C485 C 0.96859 0.01776 0.8643 0.0
C486 C 0.95289 0.0184 0.91448 0.0
H487 H 0.891 0.04183 0.83424 0.0
H488 H 0.91562 0.03909 0.82513 0.0
H489 H 0.90041 0.02191 0.78447 0.0
H490 H 0.92289 0.99559 0.79142 0.0
H491 H 0.95007 0.99444 0.70409 0.0
H492 H 0.51729 0.85706 0.28994 0.0
H493 H 0.5144 0.88441 0.20383 0.0
H494 H 0.52624 0.85146 0.99193 0.0
H495 H 0.5286 0.82397 0.07786 0.0
H496 H 0.53891 0.90134 0.11607 0.0
H497 H 0.4837 0.87966 0.90524 0.0
H498 H 0.48927 0.8668 0.99593 0.0
H499 H 0.50267 0.86385 0.90461 0.0
C500 C 0.51901 0.85558 0.2248 0.0
C501 C 0.52308 0.83823 0.19094 0.0
C502 C 0.51739 0.87129 0.17544 0.0
C503 C 0.51986 0.87018 0.09066 0.0
C504 C 0.52373 0.85279 0.05657 0.0
H505 H 0.53379 0.94925 0.69843 0.0
H506 H 0.53327 0.92251 0.78896 0.0
C507 C 0.52512 0.837 0.10592 0.0
C508 C 0.51939 0.88734 0.03922 0.0
H509 H 0.50083 0.90632 0.8664 0.0
C510 C 0.53041 0.90243 0.06199 0.0
C511 C 0.50831 0.88901 0.96832 0.0
C512 C 0.49518 0.87404 0.94252 0.0
C513 C 0.53099 0.91875 0.01536 0.0
C514 C 0.52024 0.92021 0.94375 0.0
C515 C 0.50913 0.90523 0.92112 0.0
C516 C 0.5208 0.93688 0.89005 0.0
C517 C 0.5435 0.93417 0.04182 0.0
C518 C 0.51398 0.95404 0.91638 0.0
C519 C 0.51415 0.96944 0.86424 0.0
C520 C 0.52123 0.96802 0.78476 0.0
C521 C 0.52825 0.95089 0.75919 0.0
C522 C 0.52793 0.93553 0.81089 0.0
H523 H 0.5533 0.92974 0.09002 0.0
H524 H 0.55145 0.93952 0.98922 0.0
H525 H 0.53506 0.94566 0.06618 0.0
H526 H 0.50823 0.95545 0.97685 0.0
H527 H 0.50856 0.98239 0.88573 0.0
H528 H 0.70768 0.5351 0.08776 0.0
H529 H 0.68042 0.53394 0.9993 0.0
H530 H 0.64961 0.50816 0.19197 0.0
H531 H 0.67663 0.50942 0.28048 0.0
H532 H 0.6583 0.50648 0.94078 0.0
H533 H 0.61684 0.55156 0.1415 0.0
H534 H 0.64128 0.54844 0.15521 0.0
H535 H 0.62539 0.53144 0.19248 0.0
C536 C 0.69518 0.52895 0.11095 0.0
C537 C 0.69438 0.52256 0.19186 0.0
C538 C 0.67952 0.5284 0.06037 0.0
C539 C 0.66266 0.52145 0.08936 0.0
C540 C 0.66216 0.51417 0.16862 0.0
H541 H 0.55167 0.50854 0.88208 0.0
H542 H 0.57912 0.50832 0.97008 0.0
C543 C 0.67772 0.51481 0.2192 0.0
C544 C 0.64562 0.52192 0.03737 0.0
H545 H 0.60091 0.53716 0.03248 0.0
C546 C 0.64581 0.51328 0.96081 0.0
C547 C 0.62916 0.53077 0.06293 0.0
C548 C 0.62814 0.54124 0.14213 0.0
C549 C 0.63006 0.51293 0.91031 0.0
C550 C 0.61361 0.52171 0.93606 0.0
C551 C 0.61341 0.53034 0.01259 0.0
C552 C 0.59665 0.52239 0.88381 0.0
C553 C 0.63109 0.50277 0.83037 0.0
C554 C 0.59706 0.53082 0.8068 0.0
C555 C 0.58139 0.53103 0.75675 0.0
C556 C 0.56482 0.52287 0.78231 0.0
C557 C 0.5642 0.51492 0.86042 0.0
C558 C 0.57992 0.51476 0.91073 0.0
H559 H 0.64263 0.49272 0.82951 0.0
H560 H 0.61806 0.49532 0.81771 0.0
H561 H 0.63338 0.51281 0.78052 0.0
H562 H 0.60958 0.53722 0.78509 0.0
H563 H 0.58236 0.53738 0.69724 0.0
H564 H 1.00382 0.67503 0.26568 0.0
H565 H 1.00821 0.64727 0.18399 0.0
H566 H 0.01615 0.68068 0.9701 0.0
H567 H 1.01175 0.70859 0.05173 0.0
H568 H 0.98749 0.63481 0.05814 0.0
H569 H 0.05891 0.64526 0.9508 0.0
H570 H 0.04903 0.65868 0.03225 0.0
H571 H 0.04398 0.66428 0.92786 0.0
C572 C 1.00664 0.67654 0.20132 0.0
C573 C 1.00738 0.69419 0.16557 0.0
C574 C 1.00917 0.66058 0.15454 0.0
C575 C 1.01266 0.6617 0.07059 0.0
C576 C 0.01386 0.67931 0.03491 0.0
H577 H 0.02144 0.58627 0.66554 0.0
H578 H 0.01948 0.61218 0.75934 0.0
C579 C 1.01136 0.69533 0.08182 0.0
C580 C 0.01413 0.64448 0.0203 0.0
H581 H 0.04184 0.62146 0.88589 0.0
C582 C 0.99946 0.63183 0.02103 0.0
C583 C 0.02972 0.64042 0.97173 0.0
C584 C 0.04639 0.65277 0.97102 0.0
C585 C 0.99969 0.61572 0.97296 0.0
C586 C 0.01517 0.61182 0.9234 0.0
C587 C 0.02995 0.62433 0.92362 0.0
C588 C 0.01593 0.59551 0.86724 0.0
C589 C 0.98305 0.60334 0.97346 0.0
C590 C 0.01463 0.57724 0.89591 0.0
C591 C 0.01571 0.56221 0.84167 0.0
C592 C 0.01815 0.56516 0.75776 0.0
C593 C 0.01947 0.58343 0.72967 0.0
C594 C 0.0184 0.59834 0.78345 0.0
H595 H 0.97078 0.61035 0.99934 0.0
H596 H 0.97968 0.5986 0.91095 0.0
H597 H 0.98602 0.59103 0.01132 0.0
H598 H 1.01312 0.57457 0.96037 0.0
H599 H 0.01498 0.54837 0.86554 0.0
H600 H 0.02945 0.22099 0.32926 0.0
H601 H 0.01674 0.20528 0.44701 0.0
H602 H 0.96877 0.24038 0.43809 0.0
H603 H 0.9812 0.25567 0.31678 0.0
H604 H 1.00152 0.2101 0.59953 0.0
H605 H 0.94736 0.19157 0.37192 0.0
H606 H 0.96727 0.20448 0.34109 0.0
H607 H 0.94978 0.21515 0.40254 0.0
C608 C 0.0164 0.22568 0.35367 0.0
C609 C 1.00603 0.2391 0.31264 0.0
C610 C 1.0092 0.21681 0.42152 0.0
C611 C 0.99152 0.22126 0.44984 0.0
C612 C 0.98222 0.23641 0.41584 0.0
H613 H 0.95017 0.11346 0.56375 0.0
H614 H 0.94781 0.14673 0.58749 0.0
C615 C 0.98939 0.24522 0.34698 0.0
C616 C 0.98201 0.20749 0.50125 0.0
H617 H 0.95469 0.17008 0.4703 0.0
C618 C 0.99075 0.20166 0.57317 0.0
C619 C 0.96765 0.19663 0.46806 0.0
C620 C 0.95743 0.20216 0.39168 0.0
C621 C 0.98744 0.18409 0.60545 0.0
C622 C 0.97522 0.17217 0.5643 0.0
C623 C 0.96433 0.17914 0.50085 0.0
C624 C 0.97689 0.15189 0.5705 0.0
C625 C 0.99823 0.17791 0.67903 0.0
C626 C 0.994 0.14373 0.55384 0.0
C627 C 0.99534 0.12489 0.53968 0.0
C628 C 0.97956 0.11378 0.54118 0.0
C629 C 0.96255 0.12173 0.56197 0.0
C630 C 0.9612 0.14069 0.57604 0.0
H631 H 0.99996 0.18949 0.72244 0.0
H632 H 0.99146 0.16625 0.71079 0.0
H633 H 1.0122 0.17353 0.65975 0.0
H634 H 1.00623 0.15207 0.54679 0.0
H635 H 1.00871 0.11907 0.52576 0.0
H636 H 0.30777 0.02607 0.32811 0.0
H637 H 0.32361 1.01274 0.44454 0.0
H638 H 0.2908 0.96352 0.42289 0.0
H639 H 0.27537 0.97666 0.30303 0.0
H640 H 0.31884 0.99559 0.59362 0.0
H641 H 0.3409 0.94504 0.35628 0.0
H642 H 0.32719 0.96474 0.32861 0.0
H643 H 0.3171 0.94611 0.3851 0.0
C644 C 0.30359 1.0126 0.34953 0.0
C645 C 0.2908 1.00215 0.3054 0.0
C646 C 0.31252 1.00503 0.4166 0.0
C647 C 0.30878 0.98689 0.44092 0.0
C648 C 0.29421 0.97736 0.40377 0.0
H649 H 0.41792 0.9489 0.55596 0.0
H650 H 0.38472 0.94488 0.57653 0.0
C651 C 0.28532 0.98492 0.33575 0.0
C652 C 0.32279 0.9774 0.49149 0.0
H653 H 0.36161 0.95215 0.45809 0.0
C654 C 0.32789 0.98552 0.56576 0.0
C655 C 0.33447 0.96394 0.45621 0.0
C656 C 0.32976 0.95441 0.37718 0.0
C657 C 0.34546 0.98258 0.59898 0.0
C658 C 0.35812 0.9714 0.55633 0.0
C659 C 0.35196 0.961 0.48987 0.0
C660 C 0.37826 0.97387 0.56496 0.0
C661 C 0.35082 0.9927 0.67547 0.0
C662 C 0.38567 0.99149 0.55259 0.0
C663 C 0.40447 0.99377 0.5402 0.0
C664 C 0.41629 0.97847 0.53929 0.0
C665 C 0.40908 0.96092 0.55614 0.0
C666 C 0.39017 0.95863 0.56836 0.0
H667 H 0.33888 0.99382 0.71731 0.0
H668 H 0.36235 0.98575 0.70768 0.0
H669 H 0.35512 1.00689 0.65949 0.0
H670 H 0.37679 1.00342 0.54719 0.0
H671 H 0.40971 1.00749 0.5291 0.0
H672 H 0.54047 0.27503 0.33369 0.0
H673 H 0.54665 0.28946 0.46584 0.0
H674 H 0.49793 0.32301 0.43686 0.0
H675 H 0.49159 0.30833 0.30738 0.0
H676 H 0.55581 0.32322 0.46223 0.0
H677 H 0.49898 0.32163 0.67727 0.0
H678 H 0.50154 0.304 0.60031 0.0
H679 H 0.48841 0.32469 0.57986 0.0
C680 C 0.53068 0.28489 0.35771 0.0
C681 C 0.51574 0.29087 0.3101 0.0
C682 C 0.53418 0.29308 0.43326 0.0
C683 C 0.52274 0.30729 0.46204 0.0
C684 C 0.50678 0.31181 0.41779 0.0
H685 H 0.51035 0.40717 0.44461 0.0
H686 H 0.51107 0.37467 0.48065 0.0
C687 C 0.5033 0.30365 0.34273 0.0
C688 C 0.52959 0.32078 0.52273 0.0
H689 H 0.51041 0.35418 0.64079 0.0
C690 C 0.54632 0.32955 0.50478 0.0
C691 C 0.51766 0.32886 0.5806 0.0
C692 C 0.50076 0.31908 0.61107 0.0
C693 C 0.54952 0.34771 0.52953 0.0
C694 C 0.53568 0.35706 0.57354 0.0
C695 C 0.52071 0.34713 0.60458 0.0
C696 C 0.53378 0.3772 0.56533 0.0
C697 C 0.56638 0.35756 0.49848 0.0
C698 C 0.5462 0.3894 0.60183 0.0
C699 C 0.54578 0.40808 0.58135 0.0
C700 C 0.53304 0.41477 0.52362 0.0
C701 C 0.52025 0.40254 0.48953 0.0
C702 C 0.5206 0.38396 0.51039 0.0
H703 H 0.57606 0.34811 0.46695 0.0
H704 H 0.56223 0.36858 0.45528 0.0
H705 H 0.57375 0.36414 0.54998 0.0
H706 H 0.55649 0.38443 0.6442 0.0
H707 H 0.5555 0.41726 0.61039 0.0
H708 H 0.25831 0.54893 0.32124 0.0
H709 H 0.24241 0.55929 0.44442 0.0
H710 H 0.20665 0.51197 0.42971 0.0
H711 H 0.22294 0.50138 0.31022 0.0
H712 H 0.21047 0.57098 0.4267 0.0
H713 H 0.20213 0.51982 0.66427 0.0
H714 H 0.22126 0.51842 0.59417 0.0
H715 H 0.19978 0.50679 0.57267 0.0
C716 C 0.24767 0.54031 0.34715 0.0
C717 C 0.24154 0.52457 0.30564 0.0
C718 C 0.23857 0.54624 0.41754 0.0
C719 C 0.22322 0.53652 0.4469 0.0
C720 C 0.21862 0.51963 0.41034 0.0
H721 H 0.12306 0.55034 0.35209 0.0
H722 H 0.1557 0.5544 0.38067 0.0
C723 C 0.22776 0.51368 0.34075 0.0
C724 C 0.20904 0.54587 0.49735 0.0
H725 H 0.17143 0.53236 0.60506 0.0
C726 C 0.20236 0.56289 0.4689 0.0
C727 C 0.19858 0.53611 0.55571 0.0
C728 C 0.20604 0.51939 0.59893 0.0
C729 C 0.18419 0.5683 0.48399 0.0
C730 C 0.17248 0.55622 0.52682 0.0
C731 C 0.18018 0.54121 0.56873 0.0
C732 C 0.15241 0.55625 0.51162 0.0
C733 C 0.17718 0.58595 0.44683 0.0
C734 C 0.13971 0.55561 0.57571 0.0
C735 C 0.12099 0.5531 0.55929 0.0
C736 C 0.11477 0.55093 0.4786 0.0
C737 C 0.12747 0.55194 0.4147 0.0
C738 C 0.1461 0.55452 0.43107 0.0
H739 H 0.18799 0.59673 0.44889 0.0
H740 H 0.17373 0.58356 0.38186 0.0
H741 H 0.16472 0.5911 0.47871 0.0
H742 H 0.14433 0.55661 0.63823 0.0
H743 H 0.11148 0.55212 0.60984 0.0
H744 H 0.06447 0.77636 0.08808 0.0
H745 H 0.08055 0.79316 0.97935 0.0
H746 H 0.02963 0.82033 0.91554 0.0
H747 H 0.01367 0.80321 0.02146 0.0
H748 H 0.05324 0.81753 0.78314 0.0
H749 H 0.08952 0.84507 0.05747 0.0
H750 H 0.09261 0.82129 0.03104 0.0
H751 H 0.0707 0.82919 0.06817 0.0
C752 C 0.05666 0.78526 0.04786 0.0
C753 C 0.03796 0.78871 0.06277 0.0
C754 C 0.06584 0.79495 0.98639 0.0
C755 C 0.05639 0.80839 0.94099 0.0
C756 C 0.03724 0.81008 0.94985 0.0
H757 H 0.03193 0.9082 0.82456 0.0
H758 H 0.03878 0.87547 0.81465 0.0
C759 C 0.0281 0.80034 0.01045 0.0
C760 C 0.06618 0.82342 0.8983 0.0
H761 H 0.08581 0.86451 0.94751 0.0
C762 C 0.06098 0.82757 0.81795 0.0
C763 C 0.07658 0.83645 0.94317 0.0
C764 C 0.08269 0.83292 0.02975 0.0
C765 C 0.06375 0.84522 0.78544 0.0
C766 C 0.07178 0.85895 0.83485 0.0
C767 C 0.07942 0.854 0.91016 0.0
C768 C 0.0684 0.87879 0.82036 0.0
C769 C 0.05679 0.84937 0.70095 0.0
C770 C 0.08274 0.89165 0.82666 0.0
C771 C 0.07878 0.91046 0.83342 0.0
C772 C 0.06043 0.91657 0.83532 0.0
C773 C 0.04618 0.90379 0.82453 0.0
C774 C 0.05013 0.8851 0.81719 0.0
H775 H 0.0586 0.83722 0.6607 0.0
H776 H 0.04183 0.85247 0.70357 0.0
H777 H 0.064 0.86135 0.67369 0.0
H778 H 0.09691 0.88707 0.83048 0.0
H779 H 0.09 0.92008 0.84155 0.0
H780 H 0.75947 0.0385 0.02907 0.0
H781 H 0.74538 0.04787 0.89931 0.0
H782 H 0.70605 1.0037 0.92195 0.0
H783 H 0.72044 0.99402 0.04851 0.0
H784 H 0.71255 1.01271 0.75984 0.0
H785 H 0.69863 0.07604 0.94302 0.0
H786 H 0.72181 0.07007 0.91561 0.0
H787 H 0.70978 0.05667 0.99066 0.0
C788 C 0.74828 0.03041 0.00427 0.0
C789 C 0.74065 0.01587 0.04946 0.0
C790 C 0.74018 0.03583 0.93051 0.0
C791 C 0.7243 0.02685 0.90221 0.0
C792 C 0.71822 1.01095 0.9426 0.0
H793 H 0.62549 1.01023 0.88081 0.0
H794 H 0.6577 1.01215 0.84398 0.0
C795 C 0.72632 1.0055 0.01546 0.0
C796 C 0.71144 0.03556 0.84347 0.0
H797 H 0.67521 0.06513 0.86016 0.0
C798 C 0.70477 0.0247 0.77911 0.0
C799 C 0.7015 0.05155 0.86644 0.0
C800 C 0.7082 0.06434 0.93255 0.0
C801 C 0.68696 0.02744 0.7482 0.0
C802 C 0.67577 0.04123 0.78313 0.0
C803 C 0.68373 0.05424 0.83521 0.0
C804 C 0.65558 0.03904 0.78775 0.0
C805 C 0.67954 0.01435 0.68513 0.0
C806 C 0.64362 0.05364 0.76934 0.0
C807 C 0.62498 0.05255 0.79025 0.0
C808 C 0.61808 0.03696 0.83122 0.0
C809 C 0.63013 0.02229 0.84806 0.0
C810 C 0.6486 0.0233 0.82632 0.0
H811 H 0.69051 1.01033 0.64154 0.0
H812 H 0.67467 1.00162 0.7156 0.0
H813 H 0.66786 0.02053 0.65096 0.0
H814 H 0.64881 0.06604 0.74088 0.0
H815 H 0.61603 0.06395 0.77458 0.0
H816 H 0.47535 0.75717 0.0794 0.0
H817 H 0.46112 0.73999 0.96701 0.0
H818 H 0.51147 0.70919 0.93597 0.0
H819 H 0.52562 0.72643 0.04674 0.0
H820 H 0.48919 0.71202 0.78947 0.0
H821 H 0.45 0.689 0.06374 0.0
H822 H 0.44841 0.71257 0.03123 0.0
H823 H 0.4695 0.70406 0.07454 0.0
C824 C 0.4836 0.74741 0.04536 0.0
C825 C 0.50144 0.74286 0.07149 0.0
C826 C 0.47546 0.73757 0.98158 0.0
C827 C 0.48512 0.72304 0.94467 0.0
C828 C 0.50377 0.72033 0.96371 0.0
H829 H 0.50916 0.62194 0.84891 0.0
H830 H 0.50248 0.65441 0.83006 0.0
C831 C 0.51186 0.73012 0.02709 0.0
C832 C 0.47537 0.70778 0.90386 0.0
H833 H 0.45492 0.66773 0.96146 0.0
C834 C 0.48107 0.70255 0.82562 0.0
C835 C 0.46444 0.69556 0.95041 0.0
C836 C 0.45769 0.70045 0.03468 0.0
C837 C 0.47808 0.68459 0.79712 0.0
C838 C 0.46968 0.67158 0.84919 0.0
C839 C 0.46165 0.67762 0.92203 0.0
C840 C 0.47288 0.65151 0.84043 0.0
C841 C 0.48489 0.67942 0.71367 0.0
C842 C 0.45853 0.6389 0.85318 0.0
C843 C 0.46243 0.62028 0.86685 0.0
C844 C 0.48075 0.61399 0.86828 0.0
C845 C 0.49494 0.62643 0.85034 0.0
C846 C 0.49107 0.64499 0.83722 0.0
H847 H 0.48403 0.69134 0.67143 0.0
H848 H 0.49954 0.67518 0.71726 0.0
H849 H 0.47673 0.66789 0.6882 0.0
H850 H 0.44441 0.64363 0.85705 0.0
H851 H 0.45118 0.61101 0.88029 0.0
H852 H 0.81047 0.54744 0.06851 0.0
H853 H 0.82536 0.54076 0.93979 0.0
H854 H 0.78902 0.49453 0.90312 0.0
H855 H 0.77426 0.50109 0.03412 0.0
H856 H 0.82251 0.48328 0.91241 0.0
H857 H 0.82485 0.54048 0.6985 0.0
H858 H 0.82812 0.55059 0.79661 0.0
H859 H 0.80682 0.5388 0.77388 0.0
C860 C 0.8052 0.53629 0.03143 0.0
C861 C 0.79152 0.52457 0.06155 0.0
C862 C 0.81352 0.53262 0.95692 0.0
C863 C 0.80828 0.51716 0.91098 0.0
C864 C 0.7932 0.5066 0.93706 0.0
H865 H 0.91679 0.47824 0.76387 0.0
H866 H 0.88376 0.47893 0.73244 0.0
C867 C 0.78482 0.51033 0.01192 0.0
C868 C 0.8217 0.50962 0.85173 0.0
H869 H 0.85651 0.52694 0.73671 0.0
C870 C 0.8295 0.49241 0.87039 0.0
C871 C 0.83064 0.52113 0.79486 0.0
C872 C 0.82195 0.53868 0.76438 0.0
C873 C 0.84755 0.48816 0.84694 0.0
C874 C 0.85776 0.50142 0.80337 0.0
C875 C 0.84877 0.51702 0.7721 0.0
C876 C 0.87797 0.50201 0.81147 0.0
C877 C 0.85639 0.47075 0.8787 0.0
C878 C 0.88557 0.51487 0.86548 0.0
C879 C 0.90424 0.51441 0.88423 0.0
C880 C 0.91575 0.50107 0.84915 0.0
C881 C 0.90818 0.48842 0.79339 0.0
C882 C 0.8894 0.48892 0.77449 0.0
H883 H 0.84636 0.46169 0.91018 0.0
H884 H 0.8626 0.46295 0.82759 0.0
H885 H 0.86757 0.47427 0.92211 0.0
H886 H 0.87687 0.52492 0.89555 0.0
H887 H 0.90956 0.52422 0.9279 0.0
H888 H 1.00104 0.22612 0.94517 0.0
H889 H 1.00058 0.19637 0.87284 0.0
H890 H 0.0408 0.17479 0.04061 0.0
H891 H 0.04139 0.20428 0.11231 0.0
H892 H 0.03305 0.17123 0.80664 0.0
H893 H 0.99162 0.14208 0.05956 0.0
H894 H 0.99264 0.16649 0.03896 0.0
H895 H 1.01159 0.15519 0.08828 0.0
C896 C 1.01021 0.21522 0.96495 0.0
C897 C 0.02123 0.21762 0.03472 0.0
C898 C 1.00984 0.19816 0.92388 0.0
C899 C 0.02049 0.1832 0.9518 0.0
C900 C 0.03232 0.18599 0.01824 0.0
H901 H 0.02799 0.06472 0.89312 0.0
H902 H 0.02861 0.09692 0.9367 0.0
C903 C 0.0327 0.20293 0.05902 0.0
C904 C 0.01851 0.16432 0.91617 0.0
H905 H 1.00299 0.12109 0.96214 0.0
C906 C 0.02635 0.16027 0.84013 0.0
C907 C 1.00982 0.14997 0.95989 0.0
C908 C 1.00079 0.15355 0.041 0.0
C909 C 0.0263 0.14219 0.80812 0.0
C910 C 0.01781 0.1277 0.85254 0.0
C911 C 1.00961 0.13197 0.92782 0.0
C912 C 0.01768 0.10796 0.82402 0.0
C913 C 0.03609 0.13874 0.72865 0.0
C914 C 1.0112 0.10307 0.7462 0.0
C915 C 1.01118 0.0846 0.72053 0.0
C916 C 0.01713 0.07036 0.77272 0.0
C917 C 0.02328 0.07522 0.85111 0.0
C918 C 0.0236 0.09372 0.87622 0.0
H919 H 0.04628 0.14971 0.71515 0.0
H920 H 0.04333 0.12527 0.72918 0.0
H921 H 0.02587 0.13867 0.67845 0.0
H922 H 1.00594 0.11351 0.70532 0.0
H923 H 1.00635 0.08147 0.65982 0.0
H924 H 0.32622 0.03911 0.11556 0.0
H925 H 0.35564 0.03932 0.04346 0.0
H926 H 0.3335 1.00244 0.86323 0.0
H927 H 0.30387 1.00202 0.93601 0.0
H928 H 0.37561 1.00306 0.01208 0.0
H929 H 0.36256 0.04439 0.7321 0.0
H930 H 0.35104 0.04983 0.82655 0.0
H931 H 0.34493 0.02944 0.77197 0.0
C932 C 0.32744 0.03133 0.05955 0.0
C933 C 0.31261 0.02051 0.03178 0.0
C934 C 0.34432 0.03145 0.01844 0.0
C935 C 0.34689 0.02091 0.94778 0.0
C936 C 0.33185 1.01085 0.9171 0.0
H937 H 0.44854 1.00774 0.65882 0.0
H938 H 0.41652 1.00736 0.70537 0.0
C939 C 0.31486 1.0107 0.95853 0.0
C940 C 0.36574 0.01928 0.91155 0.0
H941 H 0.39279 0.03368 0.75337 0.0
C942 C 0.37934 1.00969 0.9553 0.0
C943 C 0.37062 0.02772 0.83706 0.0
C944 C 0.35663 0.03848 0.78864 0.0
C945 C 0.39764 1.00848 0.92733 0.0
C946 C 0.40281 0.01761 0.85449 0.0
C947 C 0.38903 0.02677 0.80943 0.0
C948 C 0.42244 0.01808 0.82539 0.0
C949 C 0.41117 0.99711 0.97585 0.0
C950 C 0.43664 0.02451 0.87633 0.0
C951 C 0.45505 0.02453 0.85019 0.0
C952 C 0.45982 0.01836 0.77174 0.0
C953 C 0.44552 1.01241 0.71991 0.0
C954 C 0.42711 1.01226 0.74638 0.0
H955 H 0.40406 0.98641 0.01247 0.0
H956 H 0.42135 0.99023 0.93568 0.0
H957 H 0.41868 1.00621 0.01873 0.0
H958 H 0.4335 0.02961 0.93665 0.0
H959 H 0.46556 0.02942 0.89164 0.0
H960 H 0.48713 0.30738 0.96735 0.0
H961 H 0.48625 0.33691 0.89299 0.0
H962 H 0.53868 0.35161 0.9971 0.0
H963 H 0.53956 0.32235 0.07051 0.0
H964 H 0.48611 0.37196 0.96289 0.0
H965 H 0.54615 0.36537 0.75882 0.0
H966 H 0.53538 0.34579 0.80644 0.0
H967 H 0.55155 0.35964 0.86233 0.0
C968 C 0.49868 0.31671 0.9723 0.0
C969 C 0.51351 0.31241 0.0241 0.0
C970 C 0.49811 0.33367 0.93039 0.0
C971 C 0.5125 0.34656 0.93847 0.0
C972 C 0.52757 0.34191 0.98813 0.0
H973 H 0.51012 0.46619 0.90391 0.0
H974 H 0.50909 0.43382 0.94484 0.0
C975 C 0.52805 0.32513 0.0303 0.0
C976 C 0.51133 0.3654 0.90081 0.0
H977 H 0.53535 0.3961 0.7837 0.0
C978 C 0.49678 0.37716 0.92299 0.0
C979 C 0.52502 0.37226 0.84749 0.0
C980 C 0.54031 0.36007 0.81661 0.0
C981 C 0.49598 0.39564 0.89643 0.0
C982 C 0.51036 0.4029 0.8476 0.0
C983 C 0.52446 0.39086 0.82231 0.0
C984 C 0.51109 0.42286 0.82258 0.0
C985 C 0.47954 0.40712 0.92049 0.0
C986 C 0.51324 0.42783 0.74035 0.0
C987 C 0.51416 0.44643 0.71695 0.0
C988 C 0.51291 0.4607 0.77478 0.0
C989 C 0.51091 0.45571 0.85719 0.0
C990 C 0.51018 0.43709 0.88074 0.0
H991 H 0.46735 0.39836 0.93317 0.0
H992 H 0.48281 0.41481 0.977 0.0
H993 H 0.47584 0.41716 0.87217 0.0
H994 H 0.51406 0.41729 0.69391 0.0
H995 H 0.51579 0.44966 0.65327 0.0
H996 H 0.22632 0.4914 0.96676 0.0
H997 H 0.19711 0.49036 0.89009 0.0
H998 H 0.18233 0.54359 0.9859 0.0
H999 H 0.21132 0.54471 0.06104 0.0
H1000 H 0.16228 0.49039 0.95399 0.0
H1001 H 0.16861 0.55038 0.74929 0.0
H1002 H 0.1882 0.54015 0.79976 0.0
H1003 H 0.17365 0.55621 0.85297 0.0
C1004 C 0.21706 0.50309 0.96931 0.0
C1005 C 0.22126 0.51821 0.01944 0.0
C1006 C 0.20027 0.50244 0.92605 0.0
C1007 C 0.18743 0.517 0.93106 0.0
C1008 C 0.192 0.53234 0.97902 0.0
H1009 H 0.0679 0.51275 0.88782 0.0
H1010 H 0.10009 0.51267 0.93146 0.0
C1011 C 0.20863 0.53294 0.02236 0.0
C1012 C 0.16868 0.51572 0.89236 0.0
H1013 H 0.13792 0.53949 0.77357 0.0
C1014 C 0.15706 0.50104 0.91379 0.0
C1015 C 0.16175 0.52939 0.83866 0.0
C1016 C 0.17376 0.54481 0.80806 0.0
C1017 C 0.13868 0.50005 0.88603 0.0
C1018 C 0.13134 0.51437 0.83677 0.0
C1019 C 0.14323 0.52864 0.81245 0.0
C1020 C 0.11148 0.51483 0.81007 0.0
C1021 C 0.1274 0.48345 0.90925 0.0
C1022 C 0.10679 0.51686 0.72738 0.0
C1023 C 0.08827 0.51719 0.70225 0.0
C1024 C 0.07382 0.51552 0.75909 0.0
C1025 C 0.07853 0.51386 0.84198 0.0
C1026 C 0.09706 0.51365 0.86708 0.0
H1027 H 0.13631 0.47137 0.92273 0.0
H1028 H 0.11942 0.4866 0.96508 0.0
H1029 H 0.11762 0.47962 0.86012 0.0
H1030 H 0.1175 0.51798 0.68184 0.0
H1031 H 0.08532 0.51863 0.6379 0.0
H1032 H 1.0035 0.82818 0.22675 0.0
H1033 H 1.00238 0.85711 0.30168 0.0
H1034 H 0.0248 0.82999 0.51334 0.0
H1035 H 0.02645 0.80081 0.43678 0.0
H1036 H 0.98511 0.86857 0.43755 0.0
H1037 H 0.06071 0.87227 0.489 0.0
H1038 H 0.05059 0.85675 0.41578 0.0
H1039 H 0.04952 0.85158 0.52239 0.0
C1040 C 1.00811 0.82828 0.28951 0.0
C1041 C 0.01525 0.81214 0.32534 0.0
C1042 C 1.00745 0.84491 0.33247 0.0
C1043 C 0.01392 0.84604 0.41288 0.0
C1044 C 0.02019 0.82972 0.45067 0.0
H1045 H 0.02545 0.94722 0.70997 0.0
H1046 H 0.02484 0.91502 0.66524 0.0
C1047 C 0.02086 0.81294 0.40732 0.0
C1048 C 0.0142 0.86445 0.45495 0.0
H1049 H 0.04294 0.8971 0.53603 0.0
C1050 C 0.99777 0.87471 0.45946 0.0
C1051 C 0.03067 0.87267 0.48381 0.0
C1052 C 0.04894 0.8629 0.47722 0.0
C1053 C 0.99739 0.89281 0.49057 0.0
C1054 C 0.01392 0.90121 0.51725 0.0
C1055 C 0.03025 0.89078 0.51541 0.0
C1056 C 0.01458 0.92096 0.54441 0.0
C1057 C 0.97918 0.90277 0.49475 0.0
C1058 C 1.00936 0.93526 0.49124 0.0
C1059 C 1.00976 0.95374 0.5165 0.0
C1060 C 0.0154 0.9585 0.59578 0.0
C1061 C 0.0209 0.94418 0.64864 0.0
C1062 C 0.0206 0.92568 0.62309 0.0
H1063 H 0.96743 0.89301 0.49474 0.0
H1064 H 0.97831 0.9115 0.5501 0.0
H1065 H 0.97773 0.91182 0.44064 0.0
H1066 H 1.00504 0.93213 0.42968 0.0
H1067 H 1.00554 0.96431 0.47382 0.0
H1068 H 0.70387 0.98997 0.25648 0.0
H1069 H 0.67504 0.99109 0.33158 0.0
H1070 H 0.699 0.02939 0.50163 0.0
H1071 H 0.72798 0.02886 0.42371 0.0
H1072 H 0.66433 0.98275 0.48079 0.0
H1073 H 0.65399 0.05792 0.43639 0.0
H1074 H 0.67202 0.0454 0.38513 0.0
H1075 H 0.67454 0.05164 0.4905 0.0
C1076 C 0.7031 0.99864 0.31001 0.0
C1077 C 0.71825 1.00957 0.33301 0.0
C1078 C 0.68653 0.99922 0.35329 0.0
C1079 C 0.68446 1.01069 0.42147 0.0
C1080 C 0.69992 0.02082 0.44791 0.0
H1081 H 0.58125 0.03191 0.69184 0.0
H1082 H 0.61371 0.03065 0.65087 0.0
C1083 C 0.71663 0.0203 0.40403 0.0
C1084 C 0.66594 1.01205 0.4621 0.0
H1085 H 0.63061 0.04188 0.50528 0.0
C1086 C 0.65704 0.99574 0.48626 0.0
C1087 C 0.65625 0.02895 0.47024 0.0
C1088 C 0.66457 0.04698 0.44368 0.0
C1089 C 0.63884 0.99578 0.51615 0.0
C1090 C 0.62895 1.01256 0.52133 0.0
C1091 C 0.63804 0.02897 0.50054 0.0
C1092 C 0.60908 1.01327 0.54628 0.0
C1093 C 0.63035 0.9778 0.54221 0.0
C1094 C 0.59543 1.00421 0.50045 0.0
C1095 C 0.57682 1.00489 0.52387 0.0
C1096 C 0.57137 0.01455 0.5941 0.0
C1097 C 0.585 0.0239 0.6389 0.0
C1098 C 0.60358 0.02333 0.61513 0.0
H1099 H 0.641 0.96721 0.55544 0.0
H1100 H 0.62166 0.97967 0.59717 0.0
H1101 H 0.62148 0.97253 0.49239 0.0
H1102 H 0.59917 0.99666 0.44608 0.0
H1103 H 0.56672 0.99764 0.48755 0.0
H1104 H 0.53859 0.72542 0.40448 0.0
H1105 H 0.53982 0.69588 0.4777 0.0
H1106 H 0.48623 0.68189 0.38349 0.0
H1107 H 0.48461 0.71151 0.31421 0.0
H1108 H 0.48871 0.6691 0.53033 0.0
H1109 H 0.55235 0.64849 0.3682 0.0
H1110 H 0.55511 0.66875 0.42932 0.0
H1111 H 0.53984 0.66916 0.34292 0.0
C1112 C 0.52689 0.71624 0.40119 0.0
C1113 C 0.51161 0.72083 0.35239 0.0
C1114 C 0.52772 0.69914 0.44195 0.0
C1115 C 0.51339 0.68616 0.43425 0.0
C1116 C 0.49763 0.69136 0.3901 0.0
H1117 H 0.51929 0.56649 0.4769 0.0
H1118 H 0.5187 0.59874 0.43327 0.0
C1119 C 0.49674 0.70839 0.35014 0.0
C1120 C 0.51477 0.66696 0.46883 0.0
H1121 H 0.54077 0.62749 0.4649 0.0
C1122 C 0.50019 0.66009 0.51638 0.0
C1123 C 0.52948 0.65482 0.44939 0.0
C1124 C 0.545 0.66057 0.39403 0.0
C1125 C 0.49987 0.64171 0.54447 0.0
C1126 C 0.5148 0.62975 0.52677 0.0
C1127 C 0.52939 0.63659 0.47946 0.0
C1128 C 0.51524 0.60998 0.55428 0.0
C1129 C 0.48311 0.63502 0.58976 0.0
C1130 C 0.51369 0.6053 0.63711 0.0
C1131 C 0.51389 0.5868 0.66226 0.0
C1132 C 0.51588 0.57238 0.60539 0.0
C1133 C 0.51769 0.57711 0.5226 0.0
C1134 C 0.51741 0.59563 0.4975 0.0
H1135 H 0.47097 0.64401 0.57867 0.0
H1136 H 0.4795 0.62075 0.57165 0.0
H1137 H 0.486 0.63506 0.65606 0.0
H1138 H 0.51247 0.61598 0.68272 0.0
H1139 H 0.51257 0.58385 0.72662 0.0
H1140 H 0.80937 0.49571 0.38717 0.0
H1141 H 0.83937 0.49381 0.45712 0.0
H1142 H 0.85113 0.54969 0.38633 0.0
H1143 H 0.82135 0.55154 0.31676 0.0
H1144 H 0.87383 0.49783 0.38113 0.0
H1145 H 0.86664 0.54967 0.62626 0.0
H1146 H 0.84706 0.53956 0.57536 0.0
H1147 H 0.85972 0.55784 0.52769 0.0
C1148 C 0.81812 0.50776 0.38907 0.0
C1149 C 0.8128 0.52391 0.34792 0.0
C1150 C 0.83536 0.50662 0.42833 0.0
C1151 C 0.84759 0.52167 0.4281 0.0
C1152 C 0.84194 0.53799 0.38925 0.0
H1153 H 0.9676 0.52277 0.46115 0.0
H1154 H 0.93526 0.52333 0.41903 0.0
C1155 C 0.82485 0.53906 0.34952 0.0
C1156 C 0.86676 0.51999 0.46217 0.0
H1157 H 0.89717 0.53977 0.59567 0.0
C1158 C 0.87886 0.50692 0.42848 0.0
C1159 C 0.87345 0.53167 0.52464 0.0
C1160 C 0.86103 0.54537 0.5663 0.0
C1161 C 0.89745 0.50565 0.45333 0.0
C1162 C 0.90439 0.51793 0.51305 0.0
C1163 C 0.89209 0.53052 0.54898 0.0
C1164 C 0.92428 0.51787 0.539 0.0
C1165 C 0.90944 0.49098 0.41573 0.0
C1166 C 0.92915 0.51513 0.62099 0.0
C1167 C 0.94772 0.51476 0.64531 0.0
C1168 C 0.96202 0.51745 0.58869 0.0
C1169 C 0.9571 0.52055 0.50677 0.0
C1170 C 0.93851 0.52076 0.48236 0.0
H1171 H 0.9011 0.47961 0.38963 0.0
H1172 H 0.91761 0.49714 0.36565 0.0
H1173 H 0.91914 0.48511 0.46119 0.0
H1174 H 0.91854 0.51308 0.66622 0.0
H1175 H 0.95087 0.51228 0.70864 0.0
loop_
_geom_bond_atom_site_label_1
_geom_bond_atom_site_label_2
_geom_bond_distance
_geom_bond_site_symmetry_2
_ccdc_geom_bond_type
H0 C1 0.949 . S
C1 H0 0.949 . S
C1 C2 1.395 . S
C1 C3 1.391 . S
C2 C1 1.395 . S
C2 C5 1.390 . S
C3 C1 1.391 . S
C3 C7 1.387 . S
C3 C8 1.491 . S
H4 C5 0.950 . S
C5 C2 1.390 . S
C5 H4 0.950 . S
C5 C6 1.378 . S
C6 C5 1.378 . S
C6 C7 1.409 . S
C7 C3 1.387 . S
C7 C6 1.409 . S
C7 H9 0.951 . S
C8 C3 1.491 . S
C8 C10 1.382 . S
C8 C12 1.404 . S
H9 C7 0.951 . S
C10 C8 1.382 . S
C10 C11 1.390 . S
C10 H15 0.949 . S
C11 C10 1.390 . S
C11 C16 1.399 . S
C12 C8 1.404 . S
C12 H13 0.950 . S
C12 C14 1.375 . S
H13 C12 0.950 . S
C14 C12 1.375 . S
C14 C16 1.382 . S
C14 H18 0.950 . S
H15 C10 0.949 . S
C16 C11 1.399 . S
C16 C14 1.382 . S
C16 H17 0.952 . S
H17 C16 0.952 . S
H18 C14 0.950 . S
H19 C20 0.949 . S
C20 H19 0.949 . S
C20 C21 1.396 . S
C20 C22 1.391 . S
C21 C20 1.396 . S
C21 C24 1.387 1_655 S
C22 C20 1.391 . S
C22 C26 1.387 . S
C22 C27 1.491 . S
H23 C24 0.961 . S
C24 C21 1.387 1_455 S
C24 H23 0.961 . S
C24 C25 1.374 1_455 S
C25 C24 1.374 1_655 S
C25 C26 1.413 . S
C26 C22 1.387 . S
C26 C25 1.413 . S
C26 H28 0.951 . S
C27 C22 1.491 . S
C27 C29 1.410 . S
C27 C31 1.404 . S
H28 C26 0.951 . S
C29 C27 1.410 . S
C29 C30 1.404 . S
C29 H34 0.910 1_655 S
C30 C29 1.404 . S
C30 C35 1.399 . S
C31 C27 1.404 . S
C31 H32 0.950 . S
C31 C33 1.375 . S
H32 C31 0.950 . S
C33 C31 1.375 . S
C33 C35 1.382 . S
C33 H37 0.950 . S
H34 C29 0.910 1_455 S
C35 C30 1.399 . S
C35 C33 1.382 . S
C35 H36 0.952 . S
H36 C35 0.952 . S
H37 C33 0.950 . S
H38 C39 0.949 . S
C39 H38 0.949 . S
C39 C40 1.397 . S
C39 C41 1.391 . S
C40 C39 1.397 . S
C40 C43 1.387 1_565 S
C41 C39 1.391 . S
C41 C45 1.387 . S
C41 C46 1.491 . S
H42 C43 0.959 . S
C43 C40 1.387 1_545 S
C43 H42 0.959 . S
C43 C44 1.374 1_545 S
C44 C43 1.374 1_565 S
C44 C45 1.415 . S
C45 C41 1.387 . S
C45 C44 1.415 . S
C45 H47 0.951 . S
C46 C41 1.491 . S
C46 C48 1.382 . S
C46 C50 1.404 . S
H47 C45 0.951 . S
C48 C46 1.382 . S
C48 C49 1.390 . S
C48 H53 0.949 1_565 S
C49 C48 1.390 . S
C49 C54 1.399 . S
C50 C46 1.404 . S
C50 H51 0.950 . S
C50 C52 1.375 . S
H51 C50 0.950 . S
C52 C50 1.375 . S
C52 C54 1.382 . S
C52 H56 0.950 . S
H53 C48 0.949 1_545 S
C54 C49 1.399 . S
C54 C52 1.382 . S
C54 H55 0.952 . S
H55 C54 0.952 . S
H56 C52 0.950 . S
H57 C58 0.949 . S
C58 H57 0.949 . S
C58 C59 1.395 . S
C58 C60 1.391 . S
C59 C58 1.395 . S
C59 C62 1.390 . S
C60 C58 1.391 . S
C60 C64 1.387 . S
C60 C65 1.491 . S
H61 C62 0.950 . S
C62 C59 1.390 . S
C62 H61 0.950 . S
C62 C63 1.378 . S
C63 C62 1.378 . S
C63 C64 1.409 . S
C64 C60 1.387 . S
C64 C63 1.409 . S
C64 H66 0.951 . S
C65 C60 1.491 . S
C65 C67 1.382 . S
C65 C69 1.404 . S
H66 C64 0.951 . S
C67 C65 1.382 . S
C67 C68 1.390 . S
C67 H72 0.949 . S
C68 C67 1.390 . S
C68 C73 1.399 . S
C69 C65 1.404 . S
C69 H70 0.950 . S
C69 C71 1.375 . S
H70 C69 0.950 . S
C71 C69 1.375 . S
C71 C73 1.382 . S
C71 H75 0.950 . S
H72 C67 0.949 . S
C73 C68 1.399 . S
C73 C71 1.382 . S
C73 H74 0.952 . S
H74 C73 0.952 . S
H75 C71 0.950 . S
H76 C77 0.949 . S
C77 H76 0.949 . S
C77 C78 1.395 . S
C77 C79 1.391 1_554 S
C78 C77 1.395 . S
C78 C81 1.390 1_554 S
C79 C77 1.391 1_556 S
C79 C83 1.387 . S
C79 C84 1.491 . S
H80 C81 0.950 . S
C81 C78 1.390 1_556 S
C81 H80 0.950 . S
C81 C82 1.378 . S
C82 C81 1.378 . S
C82 C83 1.409 . S
C83 C79 1.387 . S
C83 C82 1.409 . S
C83 H85 0.951 . S
C84 C79 1.491 . S
C84 C86 1.382 1_556 S
C84 C88 1.404 . S
H85 C83 0.951 . S
C86 C84 1.382 1_554 S
C86 C87 1.390 . S
C86 H91 0.949 . S
C87 C86 1.390 . S
C87 C92 1.399 1_554 S
C88 C84 1.404 . S
C88 H89 0.950 . S
C88 C90 1.375 . S
H89 C88 0.950 . S
C90 C88 1.375 . S
C90 C92 1.382 . S
C90 H94 0.950 . S
H91 C86 0.949 . S
C92 C87 1.399 1_556 S
C92 C90 1.382 . S
C92 H93 0.952 . S
H93 C92 0.952 . S
H94 C90 0.950 . S
H95 C96 0.949 . S
C96 H95 0.949 . S
C96 C97 1.395 . S
C96 C98 1.391 1_554 S
C97 C96 1.395 . S
C97 C100 1.390 1_554 S
C98 C96 1.391 1_556 S
C98 C102 1.387 . S
C98 C103 1.491 1_455 S
H99 C100 0.950 . S
C100 C97 1.390 1_556 S
C100 H99 0.950 . S
C100 C101 1.378 . S
C101 C100 1.378 . S
C101 C102 1.409 . S
C102 C98 1.387 . S
C102 C101 1.409 . S
C102 H104 0.953 . S
C103 C98 1.491 1_655 S
C103 C105 1.382 1_656 S
C103 C107 1.404 . S
H104 C102 0.953 . S
C105 C103 1.382 1_454 S
C105 C106 1.390 . S
C105 H110 0.949 . S
C106 C105 1.390 . S
C106 C111 1.397 1_454 S
C107 C103 1.404 . S
C107 H108 0.950 . S
C107 C109 1.375 . S
H108 C107 0.950 . S
C109 C107 1.375 . S
C109 C111 1.382 . S
C109 H113 0.950 . S
H110 C105 0.949 . S
C111 C106 1.397 1_656 S
C111 C109 1.382 . S
C111 H112 0.952 . S
H112 C111 0.952 . S
H113 C109 0.950 . S
H114 C115 0.949 . S
C115 H114 0.949 . S
C115 C116 1.395 . S
C115 C117 1.390 1_554 S
C116 C115 1.395 . S
C116 C119 1.390 1_554 S
C117 C115 1.390 1_556 S
C117 C121 1.387 . S
C117 C122 1.492 1_545 S
H118 C119 0.950 . S
C119 C116 1.390 1_556 S
C119 H118 0.950 . S
C119 C120 1.378 . S
C120 C119 1.378 . S
C120 C121 1.409 . S
C121 C117 1.387 . S
C121 C120 1.409 . S
C121 H123 0.953 . S
C122 C117 1.492 1_565 S
C122 C124 1.382 1_566 S
C122 C126 1.404 . S
H123 C121 0.953 . S
C124 C122 1.382 1_544 S
C124 C125 1.390 . S
C124 H129 0.949 . S
C125 C124 1.390 . S
C125 C130 1.399 1_544 S
C126 C122 1.404 . S
C126 H127 0.950 . S
C126 C128 1.375 . S
H127 C126 0.950 . S
C128 C126 1.375 . S
C128 C130 1.382 . S
C128 H132 0.950 . S
H129 C124 0.949 . S
C130 C125 1.399 1_566 S
C130 C128 1.382 . S
C130 H131 0.952 . S
H131 C130 0.952 . S
H132 C128 0.950 . S
H133 C134 0.949 . S
C134 H133 0.949 . S
C134 C135 1.395 . S
C134 C136 1.391 1_554 S
C135 C134 1.395 . S
C135 C138 1.390 1_554 S
C136 C134 1.391 1_556 S
C136 C140 1.387 . S
C136 C141 1.491 . S
H137 C138 0.950 . S
C138 C135 1.390 1_556 S
C138 H137 0.950 . S
C138 C139 1.378 . S
C139 C138 1.378 . S
C139 C140 1.409 . S
C140 C136 1.387 . S
C140 C139 1.409 . S
C140 H142 0.951 . S
C141 C136 1.491 . S
C141 C143 1.382 1_556 S
C141 C145 1.404 . S
H142 C140 0.951 . S
C143 C141 1.382 1_554 S
C143 C144 1.390 . S
C143 H148 0.949 . S
C144 C143 1.390 . S
C144 C149 1.399 1_554 S
C145 C141 1.404 . S
C145 H146 0.950 . S
C145 C147 1.375 . S
H146 C145 0.950 . S
C147 C145 1.375 . S
C147 C149 1.382 . S
C147 H151 0.950 . S
H148 C143 0.949 . S
C149 C144 1.399 1_556 S
C149 C147 1.382 . S
C149 H150 0.952 . S
H150 C149 0.952 . S
H151 C147 0.950 . S
La152 C154 2.928 . S
La152 O172 2.521 . S
La152 O173 2.646 . S
La152 O174 2.554 . S
La152 O175 2.757 1_565 S
La152 O176 2.470 . S
La152 O181 2.482 1_455 S
La152 O183 2.503 1_565 S
La153 C163 2.928 . S
La153 O175 2.482 1_655 S
La153 O177 2.503 1_545 S
La153 O178 2.521 . S
La153 O179 2.628 1_655 S
La153 O180 2.554 . S
La153 O181 2.757 1_545 S
La153 O182 2.470 . S
C154 La152 2.928 . S
C154 C155 1.503 . S
C154 O172 1.261 . S
C154 O173 1.284 . S
C155 C154 1.503 . S
C155 C156 1.394 . S
C155 C160 1.373 . S
C156 C155 1.394 . S
C156 C157 1.380 . S
C156 H184 0.930 . S
C157 C156 1.380 . S
C157 C158 1.376 . S
C157 H185 0.930 . S
C158 C157 1.376 . S
C158 C159 1.370 . S
C159 C158 1.370 . S
C159 C160 1.396 . S
C159 H186 0.929 1_455 S
C160 C155 1.373 . S
C160 C159 1.396 . S
C160 H187 0.929 1_455 S
C161 O174 1.240 1_545 S
C161 O175 1.289 . S
C162 O176 1.258 1_655 S
C162 O177 1.256 . S
C163 La153 2.928 . S
C163 C164 1.503 . S
C163 O178 1.261 . S
C163 O179 1.243 1_655 S
C164 C163 1.503 . S
C164 C165 1.394 . S
C164 C169 1.373 1_655 S
C165 C164 1.394 . S
C165 C166 1.380 . S
C165 H188 0.930 . S
C166 C165 1.380 . S
C166 C167 1.376 . S
C166 H189 0.930 . S
C167 C166 1.376 . S
C167 C168 1.382 . S
C168 C167 1.382 . S
C168 C169 1.394 1_655 S
C168 H190 0.918 1_655 S
C169 C164 1.373 1_455 S
C169 C168 1.394 1_455 S
C169 H191 0.929 . S
C170 O180 1.240 . S
C170 O181 1.289 1_545 S
C171 O182 1.258 1_455 S
C171 O183 1.256 . S
O172 La152 2.521 . S
O172 C154 1.261 . S
O173 La152 2.646 . S
O173 C154 1.284 . S
O174 La152 2.554 . S
O174 C161 1.240 1_565 S
O175 La152 2.757 1_545 S
O175 La153 2.482 1_455 S
O175 C161 1.289 . S
O176 La152 2.470 . S
O176 C162 1.258 1_455 S
O177 La153 2.503 1_565 S
O177 C162 1.256 . S
O178 La153 2.521 . S
O178 C163 1.261 . S
O179 La153 2.628 1_455 S
O179 C163 1.243 1_455 S
O180 La153 2.554 . S
O180 C170 1.240 . S
O181 La152 2.482 1_655 S
O181 La153 2.757 1_565 S
O181 C170 1.289 1_565 S
O182 La153 2.470 . S
O182 C171 1.258 1_655 S
O183 La152 2.503 1_545 S
O183 C171 1.256 . S
H184 C156 0.930 . S
H185 C157 0.930 . S
H186 C159 0.929 1_655 S
H187 C160 0.929 1_655 S
H188 C165 0.930 . S
H189 C166 0.930 . S
H190 C168 0.918 1_455 S
H191 C169 0.929 . S
La192 C194 2.928 . S
La192 O212 2.521 . S
La192 O213 2.644 . S
La192 O214 2.554 . S
La192 O215 2.757 . S
La192 O216 2.470 . S
La192 O221 2.482 1_545 S
La192 O223 2.503 . S
La193 C203 2.928 . S
La193 O215 2.482 1_565 S
La193 O217 2.503 . S
La193 O218 2.521 . S
La193 O219 2.628 1_565 S
La193 O220 2.554 . S
La193 O221 2.757 . S
La193 O222 2.470 . S
C194 La192 2.928 . S
C194 C195 1.503 . S
C194 O212 1.261 . S
C194 O213 1.279 . S
C195 C194 1.503 . S
C195 C196 1.394 . S
C195 C200 1.373 . S
C196 C195 1.394 . S
C196 C197 1.380 . S
C196 H224 0.930 . S
C197 C196 1.380 . S
C197 C198 1.376 . S
C197 H225 0.930 . S
C198 C197 1.376 . S
C198 C199 1.370 . S
C199 C198 1.370 . S
C199 C200 1.396 . S
C199 H226 0.929 1_545 S
C200 C195 1.373 . S
C200 C199 1.396 . S
C200 H227 0.929 1_545 S
C201 O214 1.240 . S
C201 O215 1.289 . S
C202 O216 1.258 1_565 S
C202 O217 1.256 . S
C203 La193 2.928 . S
C203 C204 1.503 . S
C203 O218 1.261 . S
C203 O219 1.243 1_565 S
C204 C203 1.503 . S
C204 C205 1.394 . S
C204 C209 1.373 1_565 S
C205 C204 1.394 . S
C205 C206 1.380 . S
C205 H228 0.930 . S
C206 C205 1.380 . S
C206 C207 1.376 . S
C206 H229 0.930 . S
C207 C206 1.376 . S
C207 C208 1.386 . S
C208 C207 1.386 . S
C208 C209 1.394 1_565 S
C208 H230 0.915 1_565 S
C209 C204 1.373 1_545 S
C209 C208 1.394 1_545 S
C209 H231 0.929 . S
C210 O220 1.240 . S
C210 O221 1.289 . S
C211 O222 1.258 1_545 S
C211 O223 1.256 . S
O212 La192 2.521 . S
O212 C194 1.261 . S
O213 La192 2.644 . S
O213 C194 1.279 . S
O214 La192 2.554 . S
O214 C201 1.240 . S
O215 La192 2.757 . S
O215 La193 2.482 1_545 S
O215 C201 1.289 . S
O216 La192 2.470 . S
O216 C202 1.258 1_545 S
O217 La193 2.503 . S
O217 C202 1.256 . S
O218 La193 2.521 . S
O218 C203 1.261 . S
O219 La193 2.628 1_545 S
O219 C203 1.243 1_545 S
O220 La193 2.554 . S
O220 C210 1.240 . S
O221 La192 2.482 1_565 S
O221 La193 2.757 . S
O221 C210 1.289 . S
O222 La193 2.470 . S
O222 C211 1.258 1_565 S
O223 La192 2.503 . S
O223 C211 1.256 . S
H224 C196 0.930 . S
H225 C197 0.930 . S
H226 C199 0.929 1_565 S
H227 C200 0.929 1_565 S
H228 C205 0.930 . S
H229 C206 0.930 . S
H230 C208 0.915 1_545 S
H231 C209 0.929 . S
La232 C234 2.928 . S
La232 O252 2.521 . S
La232 O253 2.628 . S
La232 O254 2.554 . S
La232 O255 2.757 . S
La232 O256 2.470 . S
La232 O261 2.482 . S
La232 O263 2.503 . S
La233 C243 2.928 . S
La233 O255 2.482 . S
La233 O257 2.503 . S
La233 O258 2.521 . S
La233 O259 2.628 . S
La233 O260 2.554 . S
La233 O261 2.757 . S
La233 O262 2.470 . S
C234 La232 2.928 . S
C234 C235 1.503 . S
C234 O252 1.261 . S
C234 O253 1.243 . S
C235 C234 1.503 . S
C235 C236 1.394 . S
C235 C240 1.373 . S
C236 C235 1.394 . S
C236 C237 1.380 . S
C236 H264 0.930 . S
C237 C236 1.380 . S
C237 C238 1.376 . S
C237 H265 0.930 . S
C238 C237 1.376 . S
C238 C239 1.370 . S
C239 C238 1.370 . S
C239 C240 1.396 . S
C239 H266 0.929 . S
C240 C235 1.373 . S
C240 C239 1.396 . S
C240 H267 0.929 . S
C241 O254 1.240 . S
C241 O255 1.289 . S
C242 O256 1.258 . S
C242 O257 1.256 . S
C243 La233 2.928 . S
C243 C244 1.503 . S
C243 O258 1.261 . S
C243 O259 1.243 . S
C244 C243 1.503 . S
C244 C245 1.394 . S
C244 C249 1.373 . S
C245 C244 1.394 . S
C245 C246 1.380 . S
C245 H268 0.930 . S
C246 C245 1.380 . S
C246 C247 1.376 . S
C246 H269 0.930 . S
C247 C246 1.376 . S
C247 C248 1.370 . S
C248 C247 1.370 . S
C248 C249 1.396 . S
C248 H270 0.929 . S
C249 C244 1.373 . S
C249 C248 1.396 . S
C249 H271 0.929 . S
C250 O260 1.240 . S
C250 O261 1.289 . S
C251 O262 1.258 . S
C251 O263 1.256 . S
O252 La232 2.521 . S
O252 C234 1.261 . S
O253 La232 2.628 . S
O253 C234 1.243 . S
O254 La232 2.554 . S
O254 C241 1.240 . S
O255 La232 2.757 . S
O255 La233 2.482 . S
O255 C241 1.289 . S
O256 La232 2.470 . S
O256 C242 1.258 . S
O257 La233 2.503 . S
O257 C242 1.256 . S
O258 La233 2.521 . S
O258 C243 1.261 . S
O259 La233 2.628 . S
O259 C243 1.243 . S
O260 La233 2.554 . S
O260 C250 1.240 . S
O261 La232 2.482 . S
O261 La233 2.757 . S
O261 C250 1.289 . S
O262 La233 2.470 . S
O262 C251 1.258 . S
O263 La232 2.503 . S
O263 C251 1.256 . S
H264 C236 0.930 . S
H265 C237 0.930 . S
H266 C239 0.929 . S
H267 C240 0.929 . S
H268 C245 0.930 . S
H269 C246 0.930 . S
H270 C248 0.929 . S
H271 C249 0.929 . S
La272 C274 2.928 . S
La272 O292 2.521 . S
La272 O293 2.628 . S
La272 O294 2.554 . S
La272 O295 2.757 1_655 S
La272 O296 2.470 . S
La272 O301 2.482 . S
La272 O303 2.503 1_655 S
La273 C283 2.928 . S
La273 O295 2.482 . S
La273 O297 2.503 1_455 S
La273 O298 2.521 . S
La273 O299 2.628 . S
La273 O300 2.554 . S
La273 O301 2.757 1_455 S
La273 O302 2.470 . S
C274 La272 2.928 . S
C274 C275 1.503 . S
C274 O292 1.261 . S
C274 O293 1.243 . S
C275 C274 1.503 . S
C275 C276 1.394 . S
C275 C280 1.373 . S
C276 C275 1.394 . S
C276 C277 1.380 . S
C276 H304 0.930 . S
C277 C276 1.380 . S
C277 C278 1.376 . S
C277 H305 0.930 . S
C278 C277 1.376 . S
C278 C279 1.370 . S
C279 C278 1.370 . S
C279 C280 1.396 . S
C279 H306 0.929 . S
C280 C275 1.373 . S
C280 C279 1.396 . S
C280 H307 0.929 . S
C281 O294 1.240 1_455 S
C281 O295 1.289 . S
C282 O296 1.258 . S
C282 O297 1.256 . S
C283 La273 2.928 . S
C283 C284 1.503 . S
C283 O298 1.261 . S
C283 O299 1.243 . S
C284 C283 1.503 . S
C284 C285 1.394 . S
C284 C289 1.373 . S
C285 C284 1.394 . S
C285 C286 1.380 . S
C285 H308 0.930 . S
C286 C285 1.380 . S
C286 C287 1.376 . S
C286 H309 0.930 . S
C287 C286 1.376 . S
C287 C288 1.370 . S
C288 C287 1.370 . S
C288 C289 1.396 . S
C288 H310 0.929 . S
C289 C284 1.373 . S
C289 C288 1.396 . S
C289 H311 0.929 . S
C290 O300 1.240 . S
C290 O301 1.289 1_455 S
C291 O302 1.258 . S
C291 O303 1.256 . S
O292 La272 2.521 . S
O292 C274 1.261 . S
O293 La272 2.628 . S
O293 C274 1.243 . S
O294 La272 2.554 . S
O294 C281 1.240 1_655 S
O295 La272 2.757 1_455 S
O295 La273 2.482 . S
O295 C281 1.289 . S
O296 La272 2.470 . S
O296 C282 1.258 . S
O297 La273 2.503 1_655 S
O297 C282 1.256 . S
O298 La273 2.521 . S
O298 C283 1.261 . S
O299 La273 2.628 . S
O299 C283 1.243 . S
O300 La273 2.554 . S
O300 C290 1.240 . S
O301 La272 2.482 . S
O301 La273 2.757 1_655 S
O301 C290 1.289 1_655 S
O302 La273 2.470 . S
O302 C291 1.258 . S
O303 La272 2.503 1_455 S
O303 C291 1.256 . S
H304 C276 0.930 . S
H305 C277 0.930 . S
H306 C279 0.929 . S
H307 C280 0.929 . S
H308 C285 0.930 . S
H309 C286 0.930 . S
H310 C288 0.929 . S
H311 C289 0.929 . S
H312 C320 0.929 . S
H313 C322 0.930 . S
H314 C324 0.930 . S
H315 C327 0.929 . S
H316 C330 0.930 . S
H317 C332 0.960 . S
H318 C332 0.960 . S
H319 C332 0.960 . S
C320 H312 0.929 . S
C320 C321 1.377 1_565 S
C320 C322 1.384 . S
C321 C320 1.377 1_545 S
C321 C327 1.390 . S
C322 H313 0.930 . S
C322 C320 1.384 . S
C322 C323 1.372 1_565 S
C323 C322 1.372 1_545 S
C323 C324 1.400 . S
C323 C328 1.490 . S
C324 H314 0.930 . S
C324 C323 1.400 . S
C324 C327 1.386 . S
H325 C341 0.930 . S
H326 C342 0.931 . S
C327 H315 0.929 . S
C327 C321 1.390 . S
C327 C324 1.386 . S
C328 C323 1.490 . S
C328 C330 1.395 1_545 S
C328 C331 1.403 . S
H329 C335 0.930 . S
C330 H316 0.930 . S
C330 C328 1.395 1_565 S
C330 C333 1.403 . S
C331 C328 1.403 . S
C331 C332 1.524 . S
C331 C335 1.400 . S
C332 H317 0.960 . S
C332 H318 0.960 . S
C332 H319 0.960 . S
C332 C331 1.524 . S
C333 C330 1.403 . S
C333 C334 1.392 1_565 S
C333 C337 1.495 . S
C334 C333 1.392 1_545 S
C334 C335 1.385 . S
C334 C336 1.478 . S
C335 H329 0.930 . S
C335 C331 1.400 . S
C335 C334 1.385 . S
C336 C334 1.478 . S
C336 C338 1.381 1_545 S
C336 C342 1.383 . S
C337 C333 1.495 . S
C337 H343 0.959 . S
C337 H344 0.961 . S
C337 H345 0.960 . S
C338 C336 1.381 1_565 S
C338 C339 1.394 . S
C338 H346 0.930 . S
C339 C338 1.394 . S
C339 C340 1.383 1_565 S
C339 H347 0.929 . S
C340 C339 1.383 1_545 S
C340 C341 1.377 . S
C341 H325 0.930 . S
C341 C340 1.377 . S
C341 C342 1.379 . S
C342 H326 0.931 . S
C342 C336 1.383 . S
C342 C341 1.379 . S
H343 C337 0.959 . S
H344 C337 0.961 . S
H345 C337 0.960 . S
H346 C338 0.930 . S
H347 C339 0.929 . S
H348 C356 0.929 . S
H349 C358 0.930 . S
H350 C360 0.930 . S
H351 C363 0.929 . S
H352 C366 0.930 . S
H353 C368 0.960 . S
H354 C368 0.960 . S
H355 C368 0.960 . S
C356 H348 0.929 . S
C356 C357 1.377 . S
C356 C358 1.384 . S
C357 C356 1.377 . S
C357 C363 1.390 . S
C358 H349 0.930 . S
C358 C356 1.384 . S
C358 C359 1.372 . S
C359 C358 1.372 . S
C359 C360 1.400 . S
C359 C364 1.490 . S
C360 H350 0.930 . S
C360 C359 1.400 . S
C360 C363 1.386 . S
H361 C377 0.930 . S
H362 C378 0.931 . S
C363 H351 0.929 . S
C363 C357 1.390 . S
C363 C360 1.386 . S
C364 C359 1.490 . S
C364 C366 1.395 . S
C364 C367 1.403 . S
H365 C371 0.930 . S
C366 H352 0.930 . S
C366 C364 1.395 . S
C366 C369 1.403 . S
C367 C364 1.403 . S
C367 C368 1.524 . S
C367 C371 1.400 . S
C368 H353 0.960 . S
C368 H354 0.960 . S
C368 H355 0.960 . S
C368 C367 1.524 . S
C369 C366 1.403 . S
C369 C370 1.392 . S
C369 C373 1.495 . S
C370 C369 1.392 . S
C370 C371 1.385 . S
C370 C372 1.478 . S
C371 H365 0.930 . S
C371 C367 1.400 . S
C371 C370 1.385 . S
C372 C370 1.478 . S
C372 C374 1.381 . S
C372 C378 1.383 . S
C373 C369 1.495 . S
C373 H379 0.959 . S
C373 H380 0.961 . S
C373 H381 0.960 . S
C374 C372 1.381 . S
C374 C375 1.394 . S
C374 H382 0.930 . S
C375 C374 1.394 . S
C375 C376 1.383 . S
C375 H383 0.929 . S
C376 C375 1.383 . S
C376 C377 1.377 . S
C377 H361 0.930 . S
C377 C376 1.377 . S
C377 C378 1.379 . S
C378 H362 0.931 . S
C378 C372 1.383 . S
C378 C377 1.379 . S
H379 C373 0.959 . S
H380 C373 0.961 . S
H381 C373 0.960 . S
H382 C374 0.930 . S
H383 C375 0.929 . S
H384 C392 0.929 . S
H385 C394 0.930 . S
H386 C396 0.930 . S
H387 C399 0.929 . S
H388 C402 0.930 . S
H389 C404 0.960 . S
H390 C404 0.960 . S
H391 C404 0.960 . S
C392 H384 0.929 . S
C392 C393 1.377 . S
C392 C394 1.384 . S
C393 C392 1.377 . S
C393 C399 1.390 . S
C394 H385 0.930 . S
C394 C392 1.384 . S
C394 C395 1.372 . S
C395 C394 1.372 . S
C395 C396 1.400 . S
C395 C400 1.490 . S
C396 H386 0.930 . S
C396 C395 1.400 . S
C396 C399 1.386 . S
H397 C413 0.930 . S
H398 C414 0.931 . S
C399 H387 0.929 . S
C399 C393 1.390 . S
C399 C396 1.386 . S
C400 C395 1.490 . S
C400 C402 1.395 . S
C400 C403 1.403 . S
H401 C407 0.930 . S
C402 H388 0.930 . S
C402 C400 1.395 . S
C402 C405 1.403 . S
C403 C400 1.403 . S
C403 C404 1.524 . S
C403 C407 1.400 . S
C404 H389 0.960 . S
C404 H390 0.960 . S
C404 H391 0.960 . S
C404 C403 1.524 . S
C405 C402 1.403 . S
C405 C406 1.392 . S
C405 C409 1.495 . S
C406 C405 1.392 . S
C406 C407 1.385 . S
C406 C408 1.478 . S
C407 H401 0.930 . S
C407 C403 1.400 . S
C407 C406 1.385 . S
C408 C406 1.478 . S
C408 C410 1.381 . S
C408 C414 1.383 . S
C409 C405 1.495 . S
C409 H415 0.959 . S
C409 H416 0.961 . S
C409 H417 0.960 . S
C410 C408 1.381 . S
C410 C411 1.394 . S
C410 H418 0.930 . S
C411 C410 1.394 . S
C411 C412 1.383 . S
C411 H419 0.929 . S
C412 C411 1.383 . S
C412 C413 1.377 . S
C413 H397 0.930 . S
C413 C412 1.377 . S
C413 C414 1.379 . S
C414 H398 0.931 . S
C414 C408 1.383 . S
C414 C413 1.379 . S
H415 C409 0.959 . S
H416 C409 0.961 . S
H417 C409 0.960 . S
H418 C410 0.930 . S
H419 C411 0.929 . S
H420 C428 0.929 . S
H421 C430 0.930 . S
H422 C432 0.930 . S
H423 C435 0.929 . S
H424 C438 0.930 . S
H425 C440 0.960 . S
H426 C440 0.960 . S
H427 C440 0.960 . S
C428 H420 0.929 . S
C428 C429 1.377 . S
C428 C430 1.384 . S
C429 C428 1.377 . S
C429 C435 1.390 . S
C430 H421 0.930 . S
C430 C428 1.384 . S
C430 C431 1.372 . S
C431 C430 1.372 . S
C431 C432 1.400 . S
C431 C436 1.490 . S
C432 H422 0.930 . S
C432 C431 1.400 . S
C432 C435 1.386 . S
H433 C449 0.932 . S
H434 C450 0.928 1_655 S
C435 H423 0.929 . S
C435 C429 1.390 . S
C435 C432 1.386 . S
C436 C431 1.490 . S
C436 C438 1.395 1_455 S
C436 C439 1.403 . S
H437 C443 0.930 . S
C438 H424 0.930 . S
C438 C436 1.395 1_655 S
C438 C441 1.403 . S
C439 C436 1.403 . S
C439 C440 1.524 . S
C439 C443 1.400 . S
C440 H425 0.960 . S
C440 H426 0.960 . S
C440 H427 0.960 . S
C440 C439 1.524 . S
C441 C438 1.403 . S
C441 C442 1.392 1_655 S
C441 C445 1.495 . S
C442 C441 1.392 1_455 S
C442 C443 1.385 . S
C442 C444 1.479 . S
C443 H437 0.930 . S
C443 C439 1.400 . S
C443 C442 1.385 . S
C444 C442 1.479 . S
C444 C446 1.385 . S
C444 C450 1.382 . S
C445 C441 1.495 . S
C445 H451 0.959 . S
C445 H452 0.961 . S
C445 H453 0.960 . S
C446 C444 1.385 . S
C446 C447 1.394 . S
C446 H454 0.930 . S
C447 C446 1.394 . S
C447 C448 1.383 . S
C447 H455 0.929 . S
C448 C447 1.383 . S
C448 C449 1.377 . S
C449 H433 0.932 . S
C449 C448 1.377 . S
C449 C450 1.380 . S
C450 H434 0.928 1_455 S
C450 C444 1.382 . S
C450 C449 1.380 . S
H451 C445 0.959 . S
H452 C445 0.961 . S
H453 C445 0.960 . S
H454 C446 0.930 . S
H455 C447 0.929 . S
H456 C464 0.929 . S
H457 C466 0.930 . S
H458 C468 0.930 . S
H459 C471 0.929 . S
H460 C474 0.931 . S
H461 C476 0.960 . S
H462 C476 0.960 . S
H463 C476 0.960 . S
C464 H456 0.929 . S
C464 C465 1.390 . S
C464 C466 1.384 . S
C465 C464 1.390 . S
C465 C471 1.378 1_565 S
C466 H457 0.930 . S
C466 C464 1.384 . S
C466 C467 1.389 . S
C467 C466 1.389 . S
C467 C468 1.384 1_565 S
C467 C472 1.490 . S
C468 H458 0.930 . S
C468 C467 1.384 1_545 S
C468 C471 1.386 . S
H469 C485 0.930 . S
H470 C486 0.931 . S
C471 H459 0.929 . S
C471 C465 1.378 1_545 S
C471 C468 1.386 . S
C472 C467 1.490 . S
C472 C474 1.389 1_564 S
C472 C475 1.404 . S
H473 C479 0.930 . S
C474 H460 0.931 . S
C474 C472 1.389 1_546 S
C474 C477 1.407 . S
C475 C472 1.404 . S
C475 C476 1.524 . S
C475 C479 1.400 . S
C476 H461 0.960 . S
C476 H462 0.960 . S
C476 H463 0.960 . S
C476 C475 1.524 . S
C477 C474 1.407 . S
C477 C478 1.392 . S
C477 C481 1.495 . S
C478 C477 1.392 . S
C478 C479 1.385 1_546 S
C478 C480 1.478 . S
C479 H473 0.930 . S
C479 C475 1.400 . S
C479 C478 1.385 1_564 S
C480 C478 1.478 . S
C480 C482 1.381 1_545 S
C480 C486 1.383 . S
C481 C477 1.495 . S
C481 H487 0.959 . S
C481 H488 0.961 . S
C481 H489 0.960 . S
C482 C480 1.381 1_565 S
C482 C483 1.394 . S
C482 H490 0.930 . S
C483 C482 1.394 . S
C483 C484 1.383 1_565 S
C483 H491 0.929 . S
C484 C483 1.383 1_545 S
C484 C485 1.377 . S
C485 H469 0.930 . S
C485 C484 1.377 . S
C485 C486 1.379 . S
C486 H470 0.931 . S
C486 C480 1.383 . S
C486 C485 1.379 . S
H487 C481 0.959 . S
H488 C481 0.961 . S
H489 C481 0.960 . S
H490 C482 0.930 . S
H491 C483 0.929 . S
H492 C500 0.929 . S
H493 C502 0.930 . S
H494 C504 0.930 . S
H495 C507 0.929 . S
H496 C510 0.930 . S
H497 C512 0.960 1_556 S
H498 C512 0.960 . S
H499 C512 0.960 . S
C500 H492 0.929 . S
C500 C501 1.377 . S
C500 C502 1.384 . S
C501 C500 1.377 . S
C501 C507 1.390 . S
C502 H493 0.930 . S
C502 C500 1.384 . S
C502 C503 1.372 . S
C503 C502 1.372 . S
C503 C504 1.400 . S
C503 C508 1.490 . S
C504 H494 0.930 . S
C504 C503 1.400 . S
C504 C507 1.386 . S
H505 C521 0.930 . S
H506 C522 0.931 . S
C507 H495 0.929 . S
C507 C501 1.390 . S
C507 C504 1.386 . S
C508 C503 1.490 . S
C508 C510 1.395 . S
C508 C511 1.403 . S
H509 C515 0.930 . S
C510 H496 0.930 . S
C510 C508 1.395 . S
C510 C513 1.403 . S
C511 C508 1.403 . S
C511 C512 1.524 . S
C511 C515 1.400 1_554 S
C512 H497 0.960 1_554 S
C512 H498 0.960 . S
C512 H499 0.960 . S
C512 C511 1.524 . S
C513 C510 1.403 . S
C513 C514 1.392 1_554 S
C513 C517 1.495 . S
C514 C513 1.392 1_556 S
C514 C515 1.385 . S
C514 C516 1.478 . S
C515 H509 0.930 . S
C515 C511 1.400 1_556 S
C515 C514 1.385 . S
C516 C514 1.478 . S
C516 C518 1.381 . S
C516 C522 1.383 . S
C517 C513 1.495 . S
C517 H523 0.959 . S
C517 H524 0.961 . S
C517 H525 0.960 . S
C518 C516 1.381 . S
C518 C519 1.394 . S
C518 H526 0.930 1_556 S
C519 C518 1.394 . S
C519 C520 1.383 . S
C519 H527 0.929 . S
C520 C519 1.383 . S
C520 C521 1.377 . S
C521 H505 0.930 . S
C521 C520 1.377 . S
C521 C522 1.379 . S
C522 H506 0.931 . S
C522 C516 1.383 . S
C522 C521 1.379 . S
H523 C517 0.959 . S
H524 C517 0.961 . S
H525 C517 0.960 . S
H526 C518 0.930 1_554 S
H527 C519 0.929 . S
H528 C536 0.929 . S
H529 C538 0.930 . S
H530 C540 0.930 . S
H531 C543 0.929 . S
H532 C546 0.930 . S
H533 C548 0.960 . S
H534 C548 0.960 . S
H535 C548 0.960 . S
C536 H528 0.929 . S
C536 C537 1.377 . S
C536 C538 1.384 . S
C537 C536 1.377 . S
C537 C543 1.390 . S
C538 H529 0.930 . S
C538 C536 1.384 . S
C538 C539 1.372 . S
C539 C538 1.372 . S
C539 C540 1.400 . S
C539 C544 1.490 . S
C540 H530 0.930 . S
C540 C539 1.400 . S
C540 C543 1.386 . S
H541 C557 0.930 . S
H542 C558 0.931 . S
C543 H531 0.929 . S
C543 C537 1.390 . S
C543 C540 1.386 . S
C544 C539 1.490 . S
C544 C546 1.395 1_554 S
C544 C547 1.403 . S
H545 C551 0.930 . S
C546 H532 0.930 . S
C546 C544 1.395 1_556 S
C546 C549 1.403 . S
C547 C544 1.403 . S
C547 C548 1.524 . S
C547 C551 1.400 . S
C548 H533 0.960 . S
C548 H534 0.960 . S
C548 H535 0.960 . S
C548 C547 1.524 . S
C549 C546 1.403 . S
C549 C550 1.392 . S
C549 C553 1.495 . S
C550 C549 1.392 . S
C550 C551 1.385 1_556 S
C550 C552 1.478 . S
C551 H545 0.930 . S
C551 C547 1.400 . S
C551 C550 1.385 1_554 S
C552 C550 1.478 . S
C552 C554 1.381 . S
C552 C558 1.383 . S
C553 C549 1.495 . S
C553 H559 0.959 . S
C553 H560 0.961 . S
C553 H561 0.960 . S
C554 C552 1.381 . S
C554 C555 1.394 . S
C554 H562 0.930 . S
C555 C554 1.394 . S
C555 C556 1.383 . S
C555 H563 0.929 . S
C556 C555 1.383 . S
C556 C557 1.377 . S
C557 H541 0.930 . S
C557 C556 1.377 . S
C557 C558 1.379 . S
C558 H542 0.931 . S
C558 C552 1.383 . S
C558 C557 1.379 . S
H559 C553 0.959 . S
H560 C553 0.961 . S
H561 C553 0.960 . S
H562 C554 0.930 . S
H563 C555 0.929 . S
H564 C572 0.929 . S
H565 C574 0.930 . S
H566 C576 0.930 . S
H567 C579 0.929 . S
H568 C582 0.930 . S
H569 C584 0.960 . S
H570 C584 0.960 . S
H571 C584 0.960 . S
C572 H564 0.929 . S
C572 C573 1.374 . S
C572 C574 1.384 . S
C573 C572 1.374 . S
C573 C579 1.394 1_655 S
C574 H565 0.930 . S
C574 C572 1.384 . S
C574 C575 1.380 . S
C575 C574 1.380 . S
C575 C576 1.392 1_655 S
C575 C580 1.489 . S
C576 H566 0.930 . S
C576 C575 1.392 1_455 S
C576 C579 1.386 . S
H577 C593 0.930 . S
H578 C594 0.931 . S
C579 H567 0.929 . S
C579 C573 1.394 1_455 S
C579 C576 1.386 . S
C580 C575 1.489 . S
C580 C582 1.441 . S
C580 C583 1.359 1_655 S
H581 C587 0.930 1_556 S
C582 H568 0.930 . S
C582 C580 1.441 . S
C582 C585 1.403 1_554 S
C583 C580 1.359 1_455 S
C583 C584 1.524 . S
C583 C587 1.400 . S
C584 H569 0.960 . S
C584 H570 0.960 . S
C584 H571 0.960 . S
C584 C583 1.524 . S
C585 C582 1.403 1_556 S
C585 C586 1.392 . S
C585 C589 1.495 . S
C586 C585 1.392 . S
C586 C587 1.385 1_656 S
C586 C588 1.478 . S
C587 H581 0.930 1_554 S
C587 C583 1.400 . S
C587 C586 1.385 1_454 S
C588 C586 1.478 . S
C588 C590 1.381 . S
C588 C594 1.383 1_655 S
C589 C585 1.495 . S
C589 H595 0.959 . S
C589 H596 0.961 . S
C589 H597 0.960 . S
C590 C588 1.381 . S
C590 C591 1.394 . S
C590 H598 0.930 . S
C591 C590 1.394 . S
C591 C592 1.393 . S
C591 H599 0.929 . S
C592 C591 1.393 . S
C592 C593 1.368 1_655 S
C593 H577 0.930 . S
C593 C592 1.368 1_455 S
C593 C594 1.379 . S
C594 H578 0.931 . S
C594 C588 1.383 1_455 S
C594 C593 1.379 . S
H595 C589 0.959 . S
H596 C589 0.961 . S
H597 C589 0.960 . S
H598 C590 0.930 . S
H599 C591 0.929 . S
H600 C608 0.929 . S
H601 C610 0.930 . S
H602 C612 0.930 . S
H603 C615 0.929 1_556 S
H604 C618 0.930 . S
H605 C620 0.960 . S
H606 C620 0.960 . S
H607 C620 0.960 . S
C608 H600 0.929 . S
C608 C609 1.377 . S
C608 C610 1.384 . S
C609 C608 1.377 . S
C609 C615 1.390 1_455 S
C610 H601 0.930 . S
C610 C608 1.384 . S
C610 C611 1.375 . S
C611 C610 1.375 . S
C611 C612 1.398 1_455 S
C611 C616 1.489 1_455 S
C612 H602 0.930 . S
C612 C611 1.398 1_655 S
C612 C615 1.386 . S
H613 C629 0.930 . S
H614 C630 0.931 . S
C615 H603 0.929 1_554 S
C615 C609 1.390 1_655 S
C615 C612 1.386 . S
C616 C611 1.489 1_655 S
C616 C618 1.395 . S
C616 C619 1.403 1_655 S
H617 C623 0.912 1_455 S
C618 H604 0.930 . S
C618 C616 1.395 . S
C618 C621 1.403 . S
C619 C616 1.403 1_455 S
C619 C620 1.524 . S
C619 C623 1.387 1_455 S
C620 H605 0.960 . S
C620 H606 0.960 . S
C620 H607 0.960 . S
C620 C619 1.524 . S
C621 C618 1.403 . S
C621 C622 1.392 . S
C621 C625 1.495 . S
C622 C621 1.392 . S
C622 C623 1.419 . S
C622 C624 1.478 . S
C623 H617 0.912 1_655 S
C623 C619 1.387 1_655 S
C623 C622 1.419 . S
C624 C622 1.478 . S
C624 C626 1.381 . S
C624 C630 1.383 . S
C625 C621 1.495 . S
C625 H631 0.959 . S
C625 H632 0.961 . S
C625 H633 0.960 . S
C626 C624 1.381 . S
C626 C627 1.394 . S
C626 H634 0.930 . S
C627 C626 1.394 . S
C627 C628 1.383 . S
C627 H635 0.929 . S
C628 C627 1.383 . S
C628 C629 1.377 . S
C629 H613 0.930 . S
C629 C628 1.377 . S
C629 C630 1.379 . S
C630 H614 0.931 . S
C630 C624 1.383 . S
C630 C629 1.379 . S
H631 C625 0.959 . S
H632 C625 0.961 . S
H633 C625 0.960 . S
H634 C626 0.930 . S
H635 C627 0.929 . S
H636 C644 0.929 . S
H637 C646 0.930 . S
H638 C648 0.930 . S
H639 C651 0.922 1_566 S
H640 C654 0.930 . S
H641 C656 0.960 . S
H642 C656 0.960 . S
H643 C656 0.960 . S
C644 H636 0.929 . S
C644 C645 1.377 . S
C644 C646 1.384 . S
C645 C644 1.377 . S
C645 C651 1.406 . S
C646 H637 0.930 . S
C646 C644 1.384 . S
C646 C647 1.373 1_545 S
C647 C646 1.373 1_565 S
C647 C648 1.399 . S
C647 C652 1.489 . S
C648 H638 0.930 . S
C648 C647 1.399 . S
C648 C651 1.378 1_565 S
H649 C665 0.930 . S
H650 C666 0.931 . S
C651 H639 0.922 1_544 S
C651 C645 1.406 . S
C651 C648 1.378 1_545 S
C652 C647 1.489 . S
C652 C654 1.395 . S
C652 C655 1.403 1_565 S
H653 C659 0.930 . S
C654 H640 0.930 . S
C654 C652 1.395 . S
C654 C657 1.403 . S
C655 C652 1.403 1_545 S
C655 C656 1.524 . S
C655 C659 1.400 . S
C656 H641 0.960 . S
C656 H642 0.960 . S
C656 H643 0.960 . S
C656 C655 1.524 . S
C657 C654 1.403 . S
C657 C658 1.392 . S
C657 C661 1.495 . S
C658 C657 1.392 . S
C658 C659 1.385 1_565 S
C658 C660 1.478 . S
C659 H653 0.930 . S
C659 C655 1.400 . S
C659 C658 1.385 1_545 S
C660 C658 1.478 . S
C660 C662 1.381 . S
C660 C666 1.383 . S
C661 C657 1.495 . S
C661 H667 0.959 . S
C661 H668 0.961 . S
C661 H669 0.960 . S
C662 C660 1.381 . S
C662 C663 1.394 . S
C662 H670 0.930 . S
C663 C662 1.394 . S
C663 C664 1.383 . S
C663 H671 0.929 . S
C664 C663 1.383 . S
C664 C665 1.377 . S
C665 H649 0.930 . S
C665 C664 1.377 . S
C665 C666 1.379 . S
C666 H650 0.931 . S
C666 C660 1.383 . S
C666 C665 1.379 . S
H667 C661 0.959 . S
H668 C661 0.961 . S
H669 C661 0.960 . S
H670 C662 0.930 . S
H671 C663 0.929 . S
H672 C680 0.929 . S
H673 C682 0.930 . S
H674 C684 0.930 . S
H675 C687 0.929 . S
H676 C690 0.930 . S
H677 C692 0.960 . S
H678 C692 0.960 . S
H679 C692 0.960 . S
C680 H672 0.929 . S
C680 C681 1.377 . S
C680 C682 1.384 . S
C681 C680 1.377 . S
C681 C687 1.390 . S
C682 H673 0.930 . S
C682 C680 1.384 . S
C682 C683 1.372 . S
C683 C682 1.372 . S
C683 C684 1.400 . S
C683 C688 1.490 . S
C684 H674 0.930 . S
C684 C683 1.400 . S
C684 C687 1.386 . S
H685 C701 0.930 . S
H686 C702 0.931 . S
C687 H675 0.929 . S
C687 C681 1.390 . S
C687 C684 1.386 . S
C688 C683 1.490 . S
C688 C690 1.395 . S
C688 C691 1.403 . S
H689 C695 0.930 . S
C690 H676 0.930 . S
C690 C688 1.395 . S
C690 C693 1.403 . S
C691 C688 1.403 . S
C691 C692 1.524 . S
C691 C695 1.400 . S
C692 H677 0.960 . S
C692 H678 0.960 . S
C692 H679 0.960 . S
C692 C691 1.524 . S
C693 C690 1.403 . S
C693 C694 1.392 . S
C693 C697 1.495 . S
C694 C693 1.392 . S
C694 C695 1.385 . S
C694 C696 1.478 . S
C695 H689 0.930 . S
C695 C691 1.400 . S
C695 C694 1.385 . S
C696 C694 1.478 . S
C696 C698 1.381 . S
C696 C702 1.383 . S
C697 C693 1.495 . S
C697 H703 0.959 . S
C697 H704 0.961 . S
C697 H705 0.960 . S
C698 C696 1.381 . S
C698 C699 1.394 . S
C698 H706 0.930 . S
C699 C698 1.394 . S
C699 C700 1.383 . S
C699 H707 0.929 . S
C700 C699 1.383 . S
C700 C701 1.377 . S
C701 H685 0.930 . S
C701 C700 1.377 . S
C701 C702 1.379 . S
C702 H686 0.931 . S
C702 C696 1.383 . S
C702 C701 1.379 . S
H703 C697 0.959 . S
H704 C697 0.961 . S
H705 C697 0.960 . S
H706 C698 0.930 . S
H707 C699 0.929 . S
H708 C716 0.929 . S
H709 C718 0.930 . S
H710 C720 0.930 . S
H711 C723 0.929 . S
H712 C726 0.930 . S
H713 C728 0.960 . S
H714 C728 0.960 . S
H715 C728 0.960 . S
C716 H708 0.929 . S
C716 C717 1.377 . S
C716 C718 1.384 . S
C717 C716 1.377 . S
C717 C723 1.390 . S
C718 H709 0.930 . S
C718 C716 1.384 . S
C718 C719 1.372 . S
C719 C718 1.372 . S
C719 C720 1.400 . S
C719 C724 1.490 . S
C720 H710 0.930 . S
C720 C719 1.400 . S
C720 C723 1.386 . S
H721 C737 0.930 . S
H722 C738 0.931 . S
C723 H711 0.929 . S
C723 C717 1.390 . S
C723 C720 1.386 . S
C724 C719 1.490 . S
C724 C726 1.395 . S
C724 C727 1.403 . S
H725 C731 0.930 . S
C726 H712 0.930 . S
C726 C724 1.395 . S
C726 C729 1.403 . S
C727 C724 1.403 . S
C727 C728 1.524 . S
C727 C731 1.400 . S
C728 H713 0.960 . S
C728 H714 0.960 . S
C728 H715 0.960 . S
C728 C727 1.524 . S
C729 C726 1.403 . S
C729 C730 1.392 . S
C729 C733 1.495 . S
C730 C729 1.392 . S
C730 C731 1.385 . S
C730 C732 1.478 . S
C731 H725 0.930 . S
C731 C727 1.400 . S
C731 C730 1.385 . S
C732 C730 1.478 . S
C732 C734 1.381 . S
C732 C738 1.383 . S
C733 C729 1.495 . S
C733 H739 0.959 . S
C733 H740 0.961 . S
C733 H741 0.960 . S
C734 C732 1.381 . S
C734 C735 1.394 . S
C734 H742 0.930 . S
C735 C734 1.394 . S
C735 C736 1.383 . S
C735 H743 0.929 . S
C736 C735 1.383 . S
C736 C737 1.377 . S
C737 H721 0.930 . S
C737 C736 1.377 . S
C737 C738 1.379 . S
C738 H722 0.931 . S
C738 C732 1.383 . S
C738 C737 1.379 . S
H739 C733 0.959 . S
H740 C733 0.961 . S
H741 C733 0.960 . S
H742 C734 0.930 . S
H743 C735 0.929 . S
H744 C752 0.929 . S
H745 C754 0.930 . S
H746 C756 0.930 . S
H747 C759 0.929 . S
H748 C762 0.930 . S
H749 C764 0.960 . S
H750 C764 0.960 1_455 S
H751 C764 0.960 . S
C752 H744 0.929 . S
C752 C753 1.317 1_455 S
C752 C754 1.384 . S
C753 C752 1.317 1_655 S
C753 C759 1.439 . S
C754 H745 0.930 . S
C754 C752 1.384 . S
C754 C755 1.372 . S
C755 C754 1.372 . S
C755 C756 1.400 1_455 S
C755 C760 1.490 . S
C756 H746 0.930 . S
C756 C755 1.400 1_655 S
C756 C759 1.386 . S
H757 C773 0.930 1_655 S
H758 C774 0.931 1_655 S
C759 H747 0.929 . S
C759 C753 1.439 . S
C759 C756 1.386 . S
C760 C755 1.490 . S
C760 C762 1.395 . S
C760 C763 1.403 . S
H761 C767 0.930 . S
C762 H748 0.930 . S
C762 C760 1.395 . S
C762 C765 1.403 . S
C763 C760 1.403 . S
C763 C764 1.524 1_455 S
C763 C767 1.400 . S
C764 H749 0.960 . S
C764 H750 0.960 1_655 S
C764 H751 0.960 . S
C764 C763 1.524 1_655 S
C765 C762 1.403 . S
C765 C766 1.392 . S
C765 C769 1.495 1_554 S
C766 C765 1.392 . S
C766 C767 1.385 . S
C766 C768 1.478 . S
C767 H761 0.930 . S
C767 C763 1.400 . S
C767 C766 1.385 . S
C768 C766 1.478 . S
C768 C770 1.381 . S
C768 C774 1.383 . S
C769 C765 1.495 1_556 S
C769 H775 0.959 . S
C769 H776 0.961 . S
C769 H777 0.960 . S
C770 C768 1.381 . S
C770 C771 1.394 . S
C770 H778 0.930 . S
C771 C770 1.394 . S
C771 C772 1.383 1_554 S
C771 H779 0.929 1_554 S
C772 C771 1.383 1_556 S
C772 C773 1.377 . S
C773 H757 0.930 1_455 S
C773 C772 1.377 . S
C773 C774 1.379 1_556 S
C774 H758 0.931 1_455 S
C774 C768 1.383 . S
C774 C773 1.379 1_554 S
H775 C769 0.959 . S
H776 C769 0.961 . S
H777 C769 0.960 . S
H778 C770 0.930 . S
H779 C771 0.929 1_556 S
H780 C788 0.929 . S
H781 C790 0.930 . S
H782 C792 0.930 . S
H783 C795 0.929 . S
H784 C798 0.930 . S
H785 C800 0.960 . S
H786 C800 0.960 . S
H787 C800 0.960 . S
C788 H780 0.929 . S
C788 C789 1.327 1_545 S
C788 C790 1.384 . S
C789 C788 1.327 1_565 S
C789 C795 1.430 . S
C790 H781 0.930 . S
C790 C788 1.384 . S
C790 C791 1.372 . S
C791 C790 1.372 . S
C791 C792 1.400 1_545 S
C791 C796 1.490 . S
C792 H782 0.930 . S
C792 C791 1.400 1_565 S
C792 C795 1.386 . S
H793 C809 0.927 . S
H794 C810 0.931 1_565 S
C795 H783 0.929 . S
C795 C789 1.430 . S
C795 C792 1.386 . S
C796 C791 1.490 . S
C796 C798 1.395 . S
C796 C799 1.403 . S
H797 C803 0.930 . S
C798 H784 0.930 . S
C798 C796 1.395 . S
C798 C801 1.403 . S
C799 C796 1.403 . S
C799 C800 1.524 . S
C799 C803 1.400 . S
C800 H785 0.960 . S
C800 H786 0.960 . S
C800 H787 0.960 . S
C800 C799 1.524 . S
C801 C798 1.403 . S
C801 C802 1.392 . S
C801 C805 1.495 1_554 S
C802 C801 1.392 . S
C802 C803 1.385 . S
C802 C804 1.478 . S
C803 H797 0.930 . S
C803 C799 1.400 . S
C803 C802 1.385 . S
C804 C802 1.478 . S
C804 C806 1.381 1_554 S
C804 C810 1.383 . S
C805 C801 1.495 1_556 S
C805 H811 0.959 . S
C805 H812 1.005 . S
C805 H813 0.960 . S
C806 C804 1.381 1_556 S
C806 C807 1.394 . S
C806 H814 0.930 . S
C807 C806 1.394 . S
C807 C808 1.383 . S
C807 H815 0.929 . S
C808 C807 1.383 . S
C808 C809 1.377 1_556 S
C809 H793 0.927 . S
C809 C808 1.377 1_554 S
C809 C810 1.379 . S
C810 H794 0.931 1_545 S
C810 C804 1.383 . S
C810 C809 1.379 . S
H811 C805 0.959 . S
H812 C805 1.005 . S
H813 C805 0.960 . S
H814 C806 0.930 . S
H815 C807 0.929 . S
H816 C824 0.929 . S
H817 C826 0.930 . S
H818 C828 0.930 . S
H819 C831 0.929 . S
H820 C834 0.930 . S
H821 C836 0.960 . S
H822 C836 0.960 . S
H823 C836 0.960 . S
C824 H816 0.929 . S
C824 C825 1.377 . S
C824 C826 1.384 . S
C825 C824 1.377 . S
C825 C831 1.390 . S
C826 H817 0.930 . S
C826 C824 1.384 . S
C826 C827 1.372 . S
C827 C826 1.372 . S
C827 C828 1.400 . S
C827 C832 1.490 . S
C828 H818 0.930 . S
C828 C827 1.400 . S
C828 C831 1.386 . S
H829 C845 0.930 . S
H830 C846 0.931 . S
C831 H819 0.929 . S
C831 C825 1.390 . S
C831 C828 1.386 . S
C832 C827 1.490 . S
C832 C834 1.395 . S
C832 C835 1.403 . S
H833 C839 0.930 . S
C834 H820 0.930 . S
C834 C832 1.395 . S
C834 C837 1.403 . S
C835 C832 1.403 . S
C835 C836 1.524 . S
C835 C839 1.400 . S
C836 H821 0.960 . S
C836 H822 0.960 . S
C836 H823 0.960 . S
C836 C835 1.524 . S
C837 C834 1.403 . S
C837 C838 1.392 . S
C837 C841 1.495 . S
C838 C837 1.392 . S
C838 C839 1.385 . S
C838 C840 1.478 . S
C839 H833 0.930 . S
C839 C835 1.400 . S
C839 C838 1.385 . S
C840 C838 1.478 . S
C840 C842 1.381 . S
C840 C846 1.383 1_554 S
C841 C837 1.495 . S
C841 H847 0.959 . S
C841 H848 0.961 . S
C841 H849 0.960 . S
C842 C840 1.381 . S
C842 C843 1.394 . S
C842 H850 0.930 . S
C843 C842 1.394 . S
C843 C844 1.383 1_554 S
C843 H851 0.929 . S
C844 C843 1.383 1_556 S
C844 C845 1.377 . S
C845 H829 0.930 . S
C845 C844 1.377 . S
C845 C846 1.379 . S
C846 H830 0.931 . S
C846 C840 1.383 1_556 S
C846 C845 1.379 . S
H847 C841 0.959 . S
H848 C841 0.961 . S
H849 C841 0.960 . S
H850 C842 0.930 . S
H851 C843 0.929 . S
H852 C860 0.929 . S
H853 C862 0.930 . S
H854 C864 0.930 . S
H855 C867 0.929 . S
H856 C870 0.930 . S
H857 C872 0.960 1_556 S
H858 C872 0.960 . S
H859 C872 0.960 . S
C860 H852 0.929 . S
C860 C861 1.377 . S
C860 C862 1.384 . S
C861 C860 1.377 . S
C861 C867 1.390 . S
C862 H853 0.930 . S
C862 C860 1.384 . S
C862 C863 1.372 . S
C863 C862 1.372 . S
C863 C864 1.400 . S
C863 C868 1.490 . S
C864 H854 0.930 . S
C864 C863 1.400 . S
C864 C867 1.386 . S
H865 C881 0.930 . S
H866 C882 0.931 1_556 S
C867 H855 0.929 . S
C867 C861 1.390 . S
C867 C864 1.386 . S
C868 C863 1.490 . S
C868 C870 1.395 . S
C868 C871 1.403 . S
H869 C875 0.930 . S
C870 H856 0.930 . S
C870 C868 1.395 . S
C870 C873 1.403 . S
C871 C868 1.403 . S
C871 C872 1.524 . S
C871 C875 1.400 . S
C872 H857 0.960 1_554 S
C872 H858 0.960 . S
C872 H859 0.960 . S
C872 C871 1.524 . S
C873 C870 1.403 . S
C873 C874 1.392 . S
C873 C877 1.495 . S
C874 C873 1.392 . S
C874 C875 1.385 . S
C874 C876 1.478 . S
C875 H869 0.930 . S
C875 C871 1.400 . S
C875 C874 1.385 . S
C876 C874 1.478 . S
C876 C878 1.381 . S
C876 C882 1.383 . S
C877 C873 1.495 . S
C877 H883 0.959 . S
C877 H884 0.961 . S
C877 H885 0.960 . S
C878 C876 1.381 . S
C878 C879 1.394 . S
C878 H886 0.930 . S
C879 C878 1.394 . S
C879 C880 1.383 1_554 S
C879 H887 0.929 . S
C880 C879 1.383 1_556 S
C880 C881 1.377 . S
C881 H865 0.930 . S
C881 C880 1.377 . S
C881 C882 1.379 1_556 S
C882 H866 0.931 1_554 S
C882 C876 1.383 . S
C882 C881 1.379 1_554 S
H883 C877 0.959 . S
H884 C877 0.961 . S
H885 C877 0.960 . S
H886 C878 0.930 . S
H887 C879 0.929 . S
H888 C896 0.929 . S
H889 C898 0.930 . S
H890 C900 0.930 . S
H891 C903 0.929 . S
H892 C906 0.930 . S
H893 C908 0.960 . S
H894 C908 0.960 . S
H895 C908 0.960 . S
C896 H888 0.929 . S
C896 C897 1.377 1_655 S
C896 C898 1.384 . S
C897 C896 1.377 1_455 S
C897 C903 1.390 . S
C898 H889 0.930 . S
C898 C896 1.384 . S
C898 C899 1.372 1_655 S
C899 C898 1.372 1_455 S
C899 C900 1.400 . S
C899 C904 1.490 . S
C900 H890 0.930 . S
C900 C899 1.400 . S
C900 C903 1.386 . S
H901 C917 0.930 . S
H902 C918 0.931 . S
C903 H891 0.929 . S
C903 C897 1.390 . S
C903 C900 1.386 . S
C904 C899 1.490 . S
C904 C906 1.395 1_455 S
C904 C907 1.403 . S
H905 C911 0.930 . S
C906 H892 0.930 . S
C906 C904 1.395 1_655 S
C906 C909 1.403 . S
C907 C904 1.403 . S
C907 C908 1.524 . S
C907 C911 1.400 . S
C908 H893 0.960 . S
C908 H894 0.960 . S
C908 H895 0.960 . S
C908 C907 1.524 . S
C909 C906 1.403 . S
C909 C910 1.392 1_655 S
C909 C913 1.495 . S
C910 C909 1.392 1_455 S
C910 C911 1.385 . S
C910 C912 1.478 . S
C911 H905 0.930 . S
C911 C907 1.400 . S
C911 C910 1.385 . S
C912 C910 1.478 . S
C912 C914 1.381 1_455 S
C912 C918 1.383 . S
C913 C909 1.495 . S
C913 H919 0.959 . S
C913 H920 0.961 . S
C913 H921 0.960 . S
C914 C912 1.381 1_655 S
C914 C915 1.394 . S
C914 H922 0.930 . S
C915 C914 1.394 . S
C915 C916 1.383 1_655 S
C915 H923 0.929 . S
C916 C915 1.383 1_455 S
C916 C917 1.377 . S
C917 H901 0.930 . S
C917 C916 1.377 . S
C917 C918 1.379 . S
C918 H902 0.931 . S
C918 C912 1.383 . S
C918 C917 1.379 . S
H919 C913 0.959 . S
H920 C913 0.961 . S
H921 C913 0.960 . S
H922 C914 0.930 . S
H923 C915 0.929 . S
H924 C932 0.929 . S
H925 C934 0.930 . S
H926 C936 0.930 . S
H927 C939 0.929 . S
H928 C942 0.930 . S
H929 C944 0.960 . S
H930 C944 0.997 . S
H931 C944 0.960 . S
C932 H924 0.929 . S
C932 C933 1.377 . S
C932 C934 1.384 . S
C933 C932 1.377 . S
C933 C939 1.390 1_545 S
C934 H925 0.930 . S
C934 C932 1.384 . S
C934 C935 1.372 . S
C935 C934 1.372 . S
C935 C936 1.400 1_545 S
C935 C940 1.490 . S
C936 H926 0.930 . S
C936 C935 1.400 1_565 S
C936 C939 1.386 . S
H937 C953 0.930 . S
H938 C954 0.931 . S
C939 H927 0.929 . S
C939 C933 1.390 1_565 S
C939 C936 1.386 . S
C940 C935 1.490 . S
C940 C942 1.395 . S
C940 C943 1.411 . S
H941 C947 0.930 1_565 S
C942 H928 0.930 . S
C942 C940 1.395 . S
C942 C945 1.403 . S
C943 C940 1.411 . S
C943 C944 1.515 1_545 S
C943 C947 1.401 . S
C944 H929 0.960 . S
C944 H930 0.997 . S
C944 H931 0.960 . S
C944 C943 1.515 1_565 S
C945 C942 1.403 . S
C945 C946 1.392 . S
C945 C949 1.495 . S
C946 C945 1.392 . S
C946 C947 1.385 . S
C946 C948 1.478 . S
C947 H941 0.930 1_545 S
C947 C943 1.401 . S
C947 C946 1.385 . S
C948 C946 1.478 . S
C948 C950 1.381 . S
C948 C954 1.383 1_545 S
C949 C945 1.495 . S
C949 H955 0.959 . S
C949 H956 0.961 . S
C949 H957 0.960 . S
C950 C948 1.381 . S
C950 C951 1.394 . S
C950 H958 0.930 . S
C951 C950 1.394 . S
C951 C952 1.383 . S
C951 H959 0.929 . S
C952 C951 1.383 . S
C952 C953 1.377 1_545 S
C953 H937 0.930 . S
C953 C952 1.377 1_565 S
C953 C954 1.379 . S
C954 H938 0.931 . S
C954 C948 1.383 1_565 S
C954 C953 1.379 . S
H955 C949 0.959 . S
H956 C949 0.961 . S
H957 C949 0.960 . S
H958 C950 0.930 . S
H959 C951 0.929 . S
H960 C968 0.929 . S
H961 C970 0.930 . S
H962 C972 0.930 . S
H963 C975 0.929 . S
H964 C978 0.930 . S
H965 C980 0.960 . S
H966 C980 0.960 . S
H967 C980 0.960 . S
C968 H960 0.929 . S
C968 C969 1.377 . S
C968 C970 1.384 . S
C969 C968 1.377 . S
C969 C975 1.390 . S
C970 H961 0.930 . S
C970 C968 1.384 . S
C970 C971 1.372 . S
C971 C970 1.372 . S
C971 C972 1.400 . S
C971 C976 1.490 . S
C972 H962 0.930 . S
C972 C971 1.400 . S
C972 C975 1.386 . S
H973 C989 0.930 . S
H974 C990 0.931 . S
C975 H963 0.929 . S
C975 C969 1.390 . S
C975 C972 1.386 . S
C976 C971 1.490 . S
C976 C978 1.395 . S
C976 C979 1.403 . S
H977 C983 0.930 . S
C978 H964 0.930 . S
C978 C976 1.395 . S
C978 C981 1.403 . S
C979 C976 1.403 . S
C979 C980 1.524 . S
C979 C983 1.400 . S
C980 H965 0.960 . S
C980 H966 0.960 . S
C980 H967 0.960 . S
C980 C979 1.524 . S
C981 C978 1.403 . S
C981 C982 1.392 . S
C981 C985 1.495 . S
C982 C981 1.392 . S
C982 C983 1.385 . S
C982 C984 1.478 . S
C983 H977 0.930 . S
C983 C979 1.400 . S
C983 C982 1.385 . S
C984 C982 1.478 . S
C984 C986 1.381 . S
C984 C990 1.383 . S
C985 C981 1.495 . S
C985 H991 0.959 . S
C985 H992 0.961 . S
C985 H993 0.960 . S
C986 C984 1.381 . S
C986 C987 1.394 . S
C986 H994 0.930 . S
C987 C986 1.394 . S
C987 C988 1.383 . S
C987 H995 0.929 . S
C988 C987 1.383 . S
C988 C989 1.377 . S
C989 H973 0.930 . S
C989 C988 1.377 . S
C989 C990 1.379 . S
C990 H974 0.931 . S
C990 C984 1.383 . S
C990 C989 1.379 . S
H991 C985 0.959 . S
H992 C985 0.961 . S
H993 C985 0.960 . S
H994 C986 0.930 . S
H995 C987 0.929 . S
H996 C1004 0.929 . S
H997 C1006 0.930 . S
H998 C1008 0.930 . S
H999 C1011 0.929 . S
H1000 C1014 0.930 . S
H1001 C1016 0.960 . S
H1002 C1016 0.960 . S
H1003 C1016 0.960 . S
C1004 H996 0.929 . S
C1004 C1005 1.377 . S
C1004 C1006 1.384 . S
C1005 C1004 1.377 . S
C1005 C1011 1.390 . S
C1006 H997 0.930 . S
C1006 C1004 1.384 . S
C1006 C1007 1.372 . S
C1007 C1006 1.372 . S
C1007 C1008 1.400 . S
C1007 C1012 1.490 . S
C1008 H998 0.930 . S
C1008 C1007 1.400 . S
C1008 C1011 1.386 . S
H1009 C1025 0.930 . S
H1010 C1026 0.931 . S
C1011 H999 0.929 . S
C1011 C1005 1.390 . S
C1011 C1008 1.386 . S
C1012 C1007 1.490 . S
C1012 C1014 1.395 . S
C1012 C1015 1.403 . S
H1013 C1019 0.930 . S
C1014 H1000 0.930 . S
C1014 C1012 1.395 . S
C1014 C1017 1.403 . S
C1015 C1012 1.403 . S
C1015 C1016 1.524 . S
C1015 C1019 1.400 . S
C1016 H1001 0.960 . S
C1016 H1002 0.960 . S
C1016 H1003 0.960 . S
C1016 C1015 1.524 . S
C1017 C1014 1.403 . S
C1017 C1018 1.392 . S
C1017 C1021 1.495 . S
C1018 C1017 1.392 . S
C1018 C1019 1.385 . S
C1018 C1020 1.478 . S
C1019 H1013 0.930 . S
C1019 C1015 1.400 . S
C1019 C1018 1.385 . S
C1020 C1018 1.478 . S
C1020 C1022 1.381 . S
C1020 C1026 1.383 . S
C1021 C1017 1.495 . S
C1021 H1027 0.959 . S
C1021 H1028 0.961 . S
C1021 H1029 0.960 . S
C1022 C1020 1.381 . S
C1022 C1023 1.394 . S
C1022 H1030 0.930 . S
C1023 C1022 1.394 . S
C1023 C1024 1.383 . S
C1023 H1031 0.929 . S
C1024 C1023 1.383 . S
C1024 C1025 1.377 . S
C1025 H1009 0.930 . S
C1025 C1024 1.377 . S
C1025 C1026 1.379 . S
C1026 H1010 0.931 . S
C1026 C1020 1.383 . S
C1026 C1025 1.379 . S
H1027 C1021 0.959 . S
H1028 C1021 0.961 . S
H1029 C1021 0.960 . S
H1030 C1022 0.930 . S
H1031 C1023 0.929 . S
H1032 C1040 0.929 . S
H1033 C1042 0.930 . S
H1034 C1044 0.930 . S
H1035 C1047 0.929 . S
H1036 C1050 0.930 . S
H1037 C1052 0.960 . S
H1038 C1052 0.960 . S
H1039 C1052 0.960 . S
C1040 H1032 0.929 . S
C1040 C1041 1.392 . S
C1040 C1042 1.384 . S
C1041 C1040 1.392 . S
C1041 C1047 1.377 1_655 S
C1042 H1033 0.930 . S
C1042 C1040 1.384 . S
C1042 C1043 1.372 . S
C1043 C1042 1.372 . S
C1043 C1044 1.400 1_655 S
C1043 C1048 1.490 . S
C1044 H1034 0.930 . S
C1044 C1043 1.400 1_455 S
C1044 C1047 1.386 . S
H1045 C1061 0.913 1_455 S
H1046 C1062 0.931 . S
C1047 H1035 0.929 . S
C1047 C1041 1.377 1_455 S
C1047 C1044 1.386 . S
C1048 C1043 1.490 . S
C1048 C1050 1.395 . S
C1048 C1051 1.403 1_655 S
H1049 C1055 0.930 . S
C1050 H1036 0.930 . S
C1050 C1048 1.395 . S
C1050 C1053 1.403 . S
C1051 C1048 1.403 1_455 S
C1051 C1052 1.524 . S
C1051 C1055 1.400 . S
C1052 H1037 0.960 . S
C1052 H1038 0.960 . S
C1052 H1039 0.960 . S
C1052 C1051 1.524 . S
C1053 C1050 1.403 . S
C1053 C1054 1.392 . S
C1053 C1057 1.495 . S
C1054 C1053 1.392 . S
C1054 C1055 1.385 1_655 S
C1054 C1056 1.478 . S
C1055 H1049 0.930 . S
C1055 C1051 1.400 . S
C1055 C1054 1.385 1_455 S
C1056 C1054 1.478 . S
C1056 C1058 1.381 . S
C1056 C1062 1.383 . S
C1057 C1053 1.495 . S
C1057 H1063 0.959 . S
C1057 H1064 0.961 . S
C1057 H1065 0.960 . S
C1058 C1056 1.381 . S
C1058 C1059 1.394 . S
C1058 H1066 0.930 . S
C1059 C1058 1.394 . S
C1059 C1060 1.383 . S
C1059 H1067 0.929 . S
C1060 C1059 1.383 . S
C1060 C1061 1.377 . S
C1061 H1045 0.913 1_655 S
C1061 C1060 1.377 . S
C1061 C1062 1.379 . S
C1062 H1046 0.931 . S
C1062 C1056 1.383 . S
C1062 C1061 1.379 . S
H1063 C1057 0.959 . S
H1064 C1057 0.961 . S
H1065 C1057 0.960 . S
H1066 C1058 0.930 . S
H1067 C1059 0.929 . S
H1068 C1076 0.929 . S
H1069 C1078 0.930 . S
H1070 C1080 0.930 . S
H1071 C1083 0.929 . S
H1072 C1086 0.930 . S
H1073 C1088 0.960 . S
H1074 C1088 0.960 . S
H1075 C1088 0.960 . S
C1076 H1068 0.929 . S
C1076 C1077 1.412 . S
C1076 C1078 1.384 . S
C1077 C1076 1.412 . S
C1077 C1083 1.359 1_565 S
C1078 H1069 0.930 . S
C1078 C1076 1.384 . S
C1078 C1079 1.372 . S
C1079 C1078 1.372 . S
C1079 C1080 1.400 1_565 S
C1079 C1084 1.490 . S
C1080 H1070 0.930 . S
C1080 C1079 1.400 1_545 S
C1080 C1083 1.386 . S
H1081 C1097 0.930 . S
H1082 C1098 0.931 . S
C1083 H1071 0.929 . S
C1083 C1077 1.359 1_545 S
C1083 C1080 1.386 . S
C1084 C1079 1.490 . S
C1084 C1086 1.395 . S
C1084 C1087 1.403 1_565 S
H1085 C1091 0.930 . S
C1086 H1072 0.930 . S
C1086 C1084 1.395 . S
C1086 C1089 1.403 . S
C1087 C1084 1.403 1_545 S
C1087 C1088 1.524 . S
C1087 C1091 1.400 . S
C1088 H1073 0.960 . S
C1088 H1074 0.960 . S
C1088 H1075 0.960 . S
C1088 C1087 1.524 . S
C1089 C1086 1.403 . S
C1089 C1090 1.392 . S
C1089 C1093 1.495 . S
C1090 C1089 1.392 . S
C1090 C1091 1.385 1_565 S
C1090 C1092 1.478 . S
C1091 H1085 0.930 . S
C1091 C1087 1.400 . S
C1091 C1090 1.385 1_545 S
C1092 C1090 1.478 . S
C1092 C1094 1.381 . S
C1092 C1098 1.383 1_565 S
C1093 C1089 1.495 . S
C1093 H1099 0.959 . S
C1093 H1100 0.961 . S
C1093 H1101 0.960 . S
C1094 C1092 1.381 . S
C1094 C1095 1.394 . S
C1094 H1102 0.930 . S
C1095 C1094 1.394 . S
C1095 C1096 1.383 . S
C1095 H1103 0.929 . S
C1096 C1095 1.383 . S
C1096 C1097 1.377 1_565 S
C1097 H1081 0.930 . S
C1097 C1096 1.377 1_545 S
C1097 C1098 1.379 . S
C1098 H1082 0.931 . S
C1098 C1092 1.383 1_545 S
C1098 C1097 1.379 . S
H1099 C1093 0.959 . S
H1100 C1093 0.961 . S
H1101 C1093 0.960 . S
H1102 C1094 0.930 . S
H1103 C1095 0.929 . S
H1104 C1112 0.929 . S
H1105 C1114 0.930 . S
H1106 C1116 0.930 . S
H1107 C1119 0.929 . S
H1108 C1122 0.930 . S
H1109 C1124 0.960 . S
H1110 C1124 0.960 . S
H1111 C1124 0.960 . S
C1112 H1104 0.929 . S
C1112 C1113 1.377 . S
C1112 C1114 1.384 . S
C1113 C1112 1.377 . S
C1113 C1119 1.390 . S
C1114 H1105 0.930 . S
C1114 C1112 1.384 . S
C1114 C1115 1.372 . S
C1115 C1114 1.372 . S
C1115 C1116 1.400 . S
C1115 C1120 1.490 . S
C1116 H1106 0.930 . S
C1116 C1115 1.400 . S
C1116 C1119 1.386 . S
H1117 C1133 0.930 . S
H1118 C1134 0.931 . S
C1119 H1107 0.929 . S
C1119 C1113 1.390 . S
C1119 C1116 1.386 . S
C1120 C1115 1.490 . S
C1120 C1122 1.395 . S
C1120 C1123 1.403 . S
H1121 C1127 0.930 . S
C1122 H1108 0.930 . S
C1122 C1120 1.395 . S
C1122 C1125 1.403 . S
C1123 C1120 1.403 . S
C1123 C1124 1.524 . S
C1123 C1127 1.400 . S
C1124 H1109 0.960 . S
C1124 H1110 0.960 . S
C1124 H1111 0.960 . S
C1124 C1123 1.524 . S
C1125 C1122 1.403 . S
C1125 C1126 1.392 . S
C1125 C1129 1.495 . S
C1126 C1125 1.392 . S
C1126 C1127 1.385 . S
C1126 C1128 1.478 . S
C1127 H1121 0.930 . S
C1127 C1123 1.400 . S
C1127 C1126 1.385 . S
C1128 C1126 1.478 . S
C1128 C1130 1.381 . S
C1128 C1134 1.383 . S
C1129 C1125 1.495 . S
C1129 H1135 0.959 . S
C1129 H1136 0.961 . S
C1129 H1137 0.960 . S
C1130 C1128 1.381 . S
C1130 C1131 1.394 . S
C1130 H1138 0.930 . S
C1131 C1130 1.394 . S
C1131 C1132 1.383 . S
C1131 H1139 0.929 . S
C1132 C1131 1.383 . S
C1132 C1133 1.377 . S
C1133 H1117 0.930 . S
C1133 C1132 1.377 . S
C1133 C1134 1.379 . S
C1134 H1118 0.931 . S
C1134 C1128 1.383 . S
C1134 C1133 1.379 . S
H1135 C1129 0.959 . S
H1136 C1129 0.961 . S
H1137 C1129 0.960 . S
H1138 C1130 0.930 . S
H1139 C1131 0.929 . S
H1140 C1148 0.929 . S
H1141 C1150 0.930 . S
H1142 C1152 0.930 . S
H1143 C1155 0.929 . S
H1144 C1158 0.930 . S
H1145 C1160 0.960 . S
H1146 C1160 0.960 . S
H1147 C1160 0.960 . S
C1148 H1140 0.929 . S
C1148 C1149 1.377 . S
C1148 C1150 1.384 . S
C1149 C1148 1.377 . S
C1149 C1155 1.390 . S
C1150 H1141 0.930 . S
C1150 C1148 1.384 . S
C1150 C1151 1.372 . S
C1151 C1150 1.372 . S
C1151 C1152 1.400 . S
C1151 C1156 1.490 . S
C1152 H1142 0.930 . S
C1152 C1151 1.400 . S
C1152 C1155 1.386 . S
H1153 C1169 0.930 . S
H1154 C1170 0.931 . S
C1155 H1143 0.929 . S
C1155 C1149 1.390 . S
C1155 C1152 1.386 . S
C1156 C1151 1.490 . S
C1156 C1158 1.395 . S
C1156 C1159 1.403 . S
H1157 C1163 0.930 . S
C1158 H1144 0.930 . S
C1158 C1156 1.395 . S
C1158 C1161 1.403 . S
C1159 C1156 1.403 . S
C1159 C1160 1.524 . S
C1159 C1163 1.400 . S
C1160 H1145 0.960 . S
C1160 H1146 0.960 . S
C1160 H1147 0.960 . S
C1160 C1159 1.524 . S
C1161 C1158 1.403 . S
C1161 C1162 1.392 . S
C1161 C1165 1.495 . S
C1162 C1161 1.392 . S
C1162 C1163 1.385 . S
C1162 C1164 1.478 . S
C1163 H1157 0.930 . S
C1163 C1159 1.400 . S
C1163 C1162 1.385 . S
C1164 C1162 1.478 . S
C1164 C1166 1.381 . S
C1164 C1170 1.383 . S
C1165 C1161 1.495 . S
C1165 H1171 0.959 . S
C1165 H1172 0.961 . S
C1165 H1173 0.960 . S
C1166 C1164 1.381 . S
C1166 C1167 1.394 . S
C1166 H1174 0.930 . S
C1167 C1166 1.394 . S
C1167 C1168 1.383 . S
C1167 H1175 0.929 . S
C1168 C1167 1.383 . S
C1168 C1169 1.377 . S
C1169 H1153 0.930 . S
C1169 C1168 1.377 . S
C1169 C1170 1.379 . S
C1170 H1154 0.931 . S
C1170 C1164 1.383 . S
C1170 C1169 1.379 . S
H1171 C1165 0.959 . S
H1172 C1165 0.961 . S
H1173 C1165 0.960 . S
H1174 C1166 0.930 . S
H1175 C1167 0.929 . S
C321 C125 1.795 . S
C340 C161 1.821 . S
C376 C201 1.825 . S
C357 C144 1.800 . S
C412 C241 1.833 . S
C393 C87 1.802 . S
C448 C281 1.827 . S
C429 C106 1.800 . S
C484 C170 1.821 . S
C465 C49 1.802 . S
C501 C68 1.803 . S
C520 C210 1.843 . S
C537 C11 1.797 . S
C556 C250 1.826 . S
C573 C30 1.801 . S
C592 C290 1.837 1_655 S
C628 C167 0.390 . S
C609 C97 0.468 . S
C664 C207 0.401 . S
C645 C116 0.472 . S
C700 C247 0.419 . S
C681 C135 0.477 . S
C717 C78 0.479 . S
C736 C287 0.422 . S
C753 C21 0.437 . S
C772 C158 0.369 . S
C808 C198 0.335 . S
C789 C40 0.445 . S
C844 C238 0.412 . S
C825 C59 0.440 . S
C861 C2 0.463 . S
C880 C278 0.401 . S
C897 C101 1.923 . S
C916 C171 2.081 . S
C933 C120 1.934 . S
C952 C211 2.092 . S
C988 C251 2.100 . S
C969 C139 1.934 . S
C1024 C291 2.100 . S
C1005 C82 1.933 . S
C1041 C25 1.922 . S
C1060 C162 2.101 . S
C1096 C202 2.100 . S
C1077 C44 1.921 . S
C1132 C242 2.079 . S
C1113 C63 1.928 . S
C1149 C6 1.933 . S
C1168 C282 2.082 . S
