# Generated by pormake.
# Topology pth, (4,4)-cn, num edge types: 1
# Building blocks:
#     Node 0, Type 0, BuildingBlock: CEKHIL_clean_sbu_0, # of connection points: 4
#     Node 1, Type 0, BuildingBlock: CEKHIL_clean_sbu_0, # of connection points: 4
#     Node 2, Type 0, BuildingBlock: CEKHIL_clean_sbu_0, # of connection points: 4
#     Node 3, Type 1, BuildingBlock: NAWXER_clean_linker_0, # of connection points: 4
#     Node 4, Type 1, BuildingBlock: NAWXER_clean_linker_0, # of connection points: 4
#     Node 5, Type 1, BuildingBlock: NAWXER_clean_linker_0, # of connection points: 4
#     Edge 6, Type (0, 1), BuildingBlock: CIFDUS_clean_linker_0, # of connection points: 2
#     Edge 7, Type (0, 1), BuildingBlock: CIFDUS_clean_linker_0, # of connection points: 2
#     Edge 8, Type (0, 1), BuildingBlock: CIFDUS_clean_linker_0, # of connection points: 2
#     Edge 9, Type (0, 1), BuildingBlock: CIFDUS_clean_linker_0, # of connection points: 2
#     Edge 10, Type (0, 1), BuildingBlock: CIFDUS_clean_linker_0, # of connection points: 2
#     Edge 11, Type (0, 1), BuildingBlock: CIFDUS_clean_linker_0, # of connection points: 2
#     Edge 12, Type (0, 1), BuildingBlock: CIFDUS_clean_linker_0, # of connection points: 2
#     Edge 13, Type (0, 1), BuildingBlock: CIFDUS_clean_linker_0, # of connection points: 2
#     Edge 14, Type (0, 1), BuildingBlock: CIFDUS_clean_linker_0, # of connection points: 2
#     Edge 15, Type (0, 1), BuildingBlock: CIFDUS_clean_linker_0, # of connection points: 2
#     Edge 16, Type (0, 1), BuildingBlock: CIFDUS_clean_linker_0, # of connection points: 2
#     Edge 17, Type (0, 1), BuildingBlock: CIFDUS_clean_linker_0, # of connection points: 2
# Relax obj value: 0.006
# Max RMSD: 0.048
# Mean RMSD: 0.037
data_MOF--net-pth--node1-CEKHIL_clean_sbu_0--node2-NAWXER_clean_linker_0--edge1-CIFDUS_clean_linker_0
_symmetry_space_group_name_H-M    P1
_symmetry_Int_Tables_number       1
_symmetry_cell_setting            triclinic
loop_
_symmetry_equiv_pos_as_xyz
'x, y, z'
_cell_length_a     25.640421
_cell_length_b     25.705623
_cell_length_c     59.054952
_cell_angle_alpha  91.022813
_cell_angle_beta   89.818995
_cell_angle_gamma 120.31859
loop_
_atom_site_label
_atom_site_type_symbol
_atom_site_fract_x
_atom_site_fract_y
_atom_site_fract_z
_atom_type_partial_charge
Co0 Co 0.03262 0.04338 0.06489 0.0
O1 O 0.99895 0.98383 0.08807 0.0
O2 O 0.07724 1.00115 0.06687 0.0
C3 C 0.0346 0.11878 0.08581 0.0
O4 O 0.08094 0.10243 0.03989 0.0
Co5 Co 0.95759 0.09785 0.0461 0.0
O6 O 0.03118 0.14881 0.02835 0.0
C7 C 0.92688 0.97487 0.03203 0.0
C8 C 0.04064 0.97108 0.08318 0.0
C9 C 0.07629 0.14075 0.02752 0.0
O10 O 0.97524 0.98249 0.04174 0.0
O11 O 0.90927 0.01337 0.03367 0.0
O12 O 0.07751 0.10629 0.08778 0.0
O13 O 0.98974 0.08225 0.073 0.0
Co14 Co 0.02232 0.05036 0.38079 0.0
O15 O 0.98822 0.07971 0.35892 0.0
O16 O 0.06731 0.13763 0.38081 0.0
C17 C 0.02295 0.9799 0.35744 0.0
O18 O 0.07201 0.03729 0.40461 0.0
Co19 Co 0.95275 0.91803 0.39685 0.0
O20 O 0.02976 0.93876 0.41204 0.0
C21 C 0.91904 0.00571 0.41442 0.0
C22 C 0.03066 0.13354 0.36479 0.0
C23 C 0.07235 0.9932 0.41453 0.0
O24 O 0.96514 0.04937 0.40474 0.0
O25 O 0.90435 0.95039 0.41172 0.0
O26 O 0.06645 0.03566 0.3568 0.0
O27 O 0.97904 0.96951 0.37085 0.0
Co28 Co 0.01435 0.04257 0.71501 0.0
O29 O 0.07689 0.09204 0.69408 0.0
O30 O 0.06638 0.00934 0.7094 0.0
C31 C 0.93826 0.03969 0.69479 0.0
O32 O 0.95483 0.97916 0.73673 0.0
Co33 Co 0.9388 0.0895 0.73961 0.0
O34 O 0.88516 0.00351 0.74697 0.0
C35 C 0.06364 0.13056 0.75513 0.0
C36 C 0.09578 0.05399 0.69573 0.0
C37 C 0.90488 0.9669 0.74639 0.0
O38 O 0.0667 0.0931 0.74121 0.0
O39 O 0.01822 0.13858 0.75597 0.0
O40 O 0.95782 0.00309 0.68986 0.0
O41 O 0.96777 0.07929 0.71056 0.0
C42 C 0.99679 0.35934 0.26045 0.0
C43 C 0.02985 0.37412 0.28087 0.0
C44 C 0.00338 0.40421 0.24578 0.0
C45 C 0.04519 0.46522 0.25053 0.0
C46 C 0.07126 0.43531 0.28577 0.0
C47 C 0.07888 0.48021 0.27076 0.0
C48 C 0.04949 0.51367 0.23578 0.0
C49 C 0.09921 0.40762 0.18765 0.0
C50 C 0.05233 0.37027 0.1724 0.0
C51 C 0.09589 0.45158 0.2008 0.0
C52 C 0.0462 0.45998 0.19873 0.0
C53 C 0.00236 0.37884 0.17057 0.0
C54 C 0.99987 0.42387 0.18333 0.0
C55 C 0.04383 0.50813 0.21189 0.0
C56 C 0.07946 0.74526 0.18139 0.0
C57 C 0.02805 0.72554 0.16759 0.0
C58 C 0.08435 0.705 0.19567 0.0
C59 C 0.03815 0.64431 0.19617 0.0
C60 C 0.98204 0.66477 0.16812 0.0
C61 C 0.98738 0.62442 0.18209 0.0
C62 C 0.04324 0.60049 0.21051 0.0
C63 C 0.01345 0.72077 0.25923 0.0
C64 C 0.06327 0.75527 0.27363 0.0
C65 C 0.01029 0.67358 0.24599 0.0
C66 C 0.05677 0.65991 0.24702 0.0
C67 C 0.10997 0.74181 0.27445 0.0
C68 C 0.1064 0.69413 0.26144 0.0
C69 C 0.0524 0.60795 0.23417 0.0
H70 H 0.9651 0.31292 0.25575 0.0
H71 H 0.97419 0.3908 0.23104 0.0
H72 H 0.09681 0.44891 0.30146 0.0
H73 H 0.1106 0.52689 0.27516 0.0
H74 H 0.13916 0.40378 0.18923 0.0
H75 H 0.13271 0.47984 0.21229 0.0
H76 H 0.96467 0.35046 0.15947 0.0
H77 H 0.96117 0.42982 0.18148 0.0
H78 H 0.11544 0.79194 0.18134 0.0
H79 H 0.1244 0.72105 0.20613 0.0
H80 H 0.94218 0.64834 0.15751 0.0
H81 H 0.95152 0.57767 0.18208 0.0
H82 H 0.97692 0.7303 0.25822 0.0
H83 H 0.97101 0.64704 0.2353 0.0
H84 H 0.14854 0.76725 0.28558 0.0
H85 H 0.14243 0.68391 0.26264 0.0
N86 N 0.05466 0.56406 0.24591 0.0
N87 N 0.03977 0.5511 0.20026 0.0
C88 C 0.7027 0.06079 0.51651 0.0
C89 C 0.68133 0.01291 0.50062 0.0
C90 C 0.66228 0.06722 0.53067 0.0
C91 C 0.59989 0.02585 0.52913 0.0
C92 C 0.61884 0.9724 0.49888 0.0
C93 C 0.57862 0.97899 0.51289 0.0
C94 C 0.55579 0.03194 0.54353 0.0
C95 C 0.65974 0.98447 0.59169 0.0
C96 C 0.69731 0.03145 0.60687 0.0
C97 C 0.61667 0.98835 0.57856 0.0
C98 C 0.60995 0.03916 0.58033 0.0
C99 C 0.69021 0.08228 0.60862 0.0
C100 C 0.64649 0.08575 0.59565 0.0
C101 C 0.56223 0.04163 0.56721 0.0
C102 C 0.31801 0.98549 0.59768 0.0
C103 C 0.33303 0.03093 0.61425 0.0
C104 C 0.3614 0.98925 0.58235 0.0
C105 C 0.42064 0.03868 0.58321 0.0
C106 C 0.39225 0.08057 0.61497 0.0
C107 C 0.43573 0.08411 0.59972 0.0
C108 C 0.46832 0.04019 0.56855 0.0
C109 C 0.33861 0.0522 0.51931 0.0
C110 C 0.31103 0.00285 0.50404 0.0
C111 C 0.38674 0.06061 0.53314 0.0
C112 C 0.40814 0.01994 0.53177 0.0
C113 C 0.33263 0.96237 0.50281 0.0
C114 C 0.38081 0.97105 0.51641 0.0
C115 C 0.46149 0.0295 0.54489 0.0
H116 H 0.75064 0.09265 0.51822 0.0
H117 H 0.67972 0.1047 0.54266 0.0
H118 H 0.60093 0.93563 0.48655 0.0
H119 H 0.5307 0.94693 0.51119 0.0
H120 H 0.66268 0.94398 0.59022 0.0
H121 H 0.58775 0.95102 0.56732 0.0
H122 H 0.71873 0.11972 0.61987 0.0
H123 H 0.64159 0.12509 0.59741 0.0
H124 H 0.27269 0.94687 0.59661 0.0
H125 H 0.34899 0.95267 0.57024 0.0
H126 H 0.40539 0.11593 0.6277 0.0
H127 H 0.48139 0.12213 0.60093 0.0
H128 H 0.3228 0.08404 0.52063 0.0
H129 H 0.40792 0.09938 0.54453 0.0
H130 H 0.31293 0.92444 0.49099 0.0
H131 H 0.3969 0.93943 0.51489 0.0
N132 N 0.50553 0.02587 0.53339 0.0
N133 N 0.51858 0.046 0.57878 0.0
C134 C 0.34621 0.33463 0.85656 0.0
C135 C 0.31439 0.35564 0.84391 0.0
C136 C 0.398 0.37516 0.86891 0.0
C137 C 0.41893 0.43728 0.8686 0.0
C138 C 0.33522 0.41774 0.84387 0.0
C139 C 0.38718 0.45812 0.85594 0.0
C140 C 0.47569 0.48168 0.88014 0.0
C141 C 0.34482 0.38848 0.93665 0.0
C142 C 0.35845 0.35113 0.94951 0.0
C143 C 0.38638 0.42887 0.92129 0.0
C144 C 0.44285 0.43343 0.91852 0.0
C145 C 0.41533 0.35599 0.94666 0.0
C146 C 0.45734 0.39725 0.93148 0.0
C147 C 0.48792 0.47888 0.90322 0.0
C148 C 0.67904 0.72976 0.92471 0.0
C149 C 0.70714 0.71931 0.94306 0.0
C150 C 0.64045 0.68272 0.91012 0.0
C151 C 0.63027 0.62418 0.91302 0.0
C152 C 0.69868 0.66124 0.94558 0.0
C153 C 0.66042 0.61412 0.93074 0.0
C154 C 0.58104 0.57231 0.9003 0.0
C155 C 0.69969 0.67051 0.83835 0.0
C156 C 0.67918 0.70629 0.82818 0.0
C157 C 0.66563 0.62946 0.8552 0.0
C158 C 0.61 0.62258 0.86184 0.0
C159 C 0.62443 0.70066 0.83583 0.0
C160 C 0.5897 0.65837 0.85202 0.0
C161 C 0.56938 0.57384 0.87702 0.0
H162 H 0.33102 0.28695 0.85688 0.0
H163 H 0.4224 0.35818 0.87825 0.0
H164 H 0.31209 0.4353 0.83404 0.0
H165 H 0.40274 0.50587 0.85533 0.0
H166 H 0.30246 0.38765 0.93877 0.0
H167 H 0.37489 0.4576 0.91191 0.0
H168 H 0.42738 0.32774 0.95604 0.0
H169 H 0.50101 0.4006 0.92973 0.0
H170 H 0.68505 0.77405 0.92208 0.0
H171 H 0.61587 0.69188 0.89749 0.0
H172 H 0.71915 0.65145 0.95964 0.0
H173 H 0.65254 0.56922 0.93366 0.0
H174 H 0.74099 0.67258 0.83288 0.0
H175 H 0.68148 0.60136 0.86236 0.0
H176 H 0.60773 0.72856 0.82923 0.0
H177 H 0.54674 0.65357 0.85694 0.0
N178 N 0.51702 0.52888 0.86796 0.0
N179 N 0.54002 0.52433 0.91243 0.0
H180 H 0.08772 0.16559 0.12634 0.0
H181 H 0.98152 0.18317 0.07384 0.0
H182 H 0.9798 0.26439 0.09552 0.0
H183 H 0.00797 0.32952 0.12946 0.0
H184 H 0.10382 0.30287 0.18397 0.0
H185 H 0.11123 0.22718 0.1612 0.0
C186 C 0.06459 0.18759 0.11962 0.0
C187 C 0.03519 0.16896 0.0985 0.0
C188 C 0.06211 0.23274 0.1325 0.0
C189 C 0.00447 0.19691 0.09008 0.0
C190 C 0.00351 0.24329 0.10247 0.0
C191 C 0.02968 0.30669 0.13663 0.0
C192 C 0.05564 0.32281 0.1585 0.0
C193 C 0.03181 0.26126 0.12378 0.0
C194 C 0.08463 0.29301 0.16706 0.0
C195 C 0.08845 0.24907 0.15412 0.0
H196 H 0.82638 0.92619 0.44024 0.0
H197 H 0.92675 0.11495 0.42383 0.0
H198 H 0.86344 0.13458 0.44969 0.0
H199 H 0.77767 0.09703 0.47649 0.0
H200 H 0.67945 0.9079 0.49228 0.0
H201 H 0.74407 0.88966 0.46704 0.0
C202 C 0.83469 0.97179 0.44218 0.0
C203 C 0.88128 0.01893 0.42994 0.0
C204 C 0.7984 0.98268 0.45701 0.0
C205 C 0.89119 0.07768 0.43295 0.0
C206 C 0.85501 0.08895 0.44776 0.0
C207 C 0.77093 0.05201 0.47453 0.0
C208 C 0.72351 0.00378 0.4861 0.0
C209 C 0.80832 0.0417 0.45985 0.0
C210 C 0.71499 0.94559 0.4833 0.0
C211 C 0.75203 0.93513 0.46893 0.0
H212 H 0.78401 0.89394 0.74897 0.0
H213 H 0.95224 0.91748 0.77417 0.0
H214 H 0.89747 0.83758 0.80161 0.0
H215 H 0.80226 0.7686 0.82077 0.0
H216 H 0.63356 0.73826 0.7924 0.0
H217 H 0.68827 0.81413 0.76426 0.0
C218 C 0.8085 0.88074 0.76023 0.0
C219 C 0.87188 0.9116 0.75972 0.0
C220 C 0.77678 0.83456 0.77574 0.0
C221 C 0.9033 0.89397 0.7742 0.0
C222 C 0.87204 0.84871 0.79002 0.0
C223 C 0.77705 0.77735 0.80822 0.0
C224 C 0.71347 0.74856 0.80948 0.0
C225 C 0.80876 0.81967 0.7913 0.0
C226 C 0.6824 0.76125 0.7928 0.0
C227 C 0.71364 0.80425 0.77637 0.0
H228 H 0.96001 0.89111 0.11251 0.0
H229 H 0.13555 0.95042 0.08362 0.0
H230 H 0.14783 0.88031 0.1075 0.0
H231 H 0.10903 0.80323 0.13726 0.0
H232 H 0.93213 0.74272 0.16499 0.0
H233 H 0.92 0.81233 0.14094 0.0
C234 C 1.00092 0.88861 0.11136 0.0
C235 C 0.04691 0.92609 0.09638 0.0
C236 C 0.00748 0.84814 0.12502 0.0
C237 C 0.09941 0.92194 0.09498 0.0
C238 C 0.10655 0.88205 0.1087 0.0
C239 C 0.06802 0.80562 0.13804 0.0
C240 C 0.0216 0.76818 0.15291 0.0
C241 C 0.06104 0.84524 0.12392 0.0
C242 C 0.9683 0.77095 0.15359 0.0
C243 C 0.96141 0.81078 0.13989 0.0
H244 H 0.0817 0.91385 0.44156 0.0
H245 H 0.17598 0.10146 0.4234 0.0
H246 H 0.25701 0.12174 0.45017 0.0
H247 H 0.30192 0.08548 0.47842 0.0
H248 H 0.20598 0.89776 0.4962 0.0
H249 H 0.12472 0.87842 0.46992 0.0
C250 C 0.11996 0.95927 0.44332 0.0
C251 C 0.12263 0.00594 0.43033 0.0
C252 C 0.16612 0.97066 0.45878 0.0
C253 C 0.17262 0.06452 0.43309 0.0
C254 C 0.219 0.07622 0.44845 0.0
C255 C 0.26284 0.04055 0.4767 0.0
C256 C 0.2601 0.99306 0.48918 0.0
C257 C 0.21623 0.0296 0.46139 0.0
C258 C 0.2095 0.93492 0.48661 0.0
C259 C 0.16296 0.92383 0.47161 0.0
H260 H 0.07341 0.21242 0.78721 0.0
H261 H 0.16926 0.12848 0.75903 0.0
H262 H 0.25373 0.18807 0.78492 0.0
H263 H 0.30208 0.26692 0.81471 0.0
H264 H 0.20623 0.35129 0.84217 0.0
H265 H 0.11999 0.2884 0.81743 0.0
C266 C 0.11263 0.2069 0.78668 0.0
C267 C 0.11481 0.16604 0.77106 0.0
C268 C 0.16115 0.24143 0.80153 0.0
C269 C 0.16619 0.15964 0.77079 0.0
C270 C 0.2146 0.19369 0.78562 0.0
C271 C 0.26193 0.27083 0.81547 0.0
C272 C 0.26049 0.31371 0.8302 0.0
C273 C 0.21273 0.23499 0.80098 0.0
C274 C 0.20854 0.31895 0.83082 0.0
C275 C 0.15924 0.283 0.8167 0.0
H276 H 0.89731 0.99216 0.65288 0.0
H277 H 0.86938 0.08803 0.70782 0.0
H278 H 0.79127 0.09266 0.68574 0.0
H279 H 0.73219 0.0708 0.65061 0.0
H280 H 0.76665 0.98223 0.59455 0.0
H281 H 0.84016 0.97271 0.6174 0.0
C282 C 0.87372 0.0136 0.66007 0.0
C283 C 0.88879 0.03944 0.68196 0.0
C284 C 0.83005 0.01746 0.64707 0.0
C285 C 0.85851 0.0678 0.69098 0.0
C286 C 0.81393 0.07052 0.67836 0.0
C287 C 0.75623 0.05007 0.64323 0.0
C288 C 0.74331 0.02703 0.62083 0.0
C289 C 0.79973 0.046 0.6563 0.0
C290 C 0.77448 0.99938 0.61183 0.0
C291 C 0.81699 0.99425 0.62485 0.0
H292 H 0.81812 0.93884 0.01235 0.0
H293 H 0.95514 0.88919 0.01826 0.0
H294 H 0.899 0.80498 0.99157 0.0
H295 H 0.81281 0.74818 0.96514 0.0
H296 H 0.6762 0.79877 0.9604 0.0
H297 H 0.73106 0.88034 0.98777 0.0
C298 C 0.83587 0.90963 0.00794 0.0
C299 C 0.89111 0.92082 0.01726 0.0
C300 C 0.80371 0.86171 0.99253 0.0
C301 C 0.91279 0.88185 0.01138 0.0
C302 C 0.88079 0.83374 0.99604 0.0
C303 C 0.79486 0.77676 0.97024 0.0
C304 C 0.74092 0.76784 0.96035 0.0
C305 C 0.82647 0.82363 0.98629 0.0
C306 C 0.71839 0.80546 0.96719 0.0
C307 C 0.74946 0.8519 0.98303 0.0
H308 H 0.11304 0.98668 0.33073 0.0
H309 H 0.93115 0.86402 0.35264 0.0
H310 H 0.9273 0.78426 0.32844 0.0
H311 H 0.97501 0.74927 0.30076 0.0
H312 H 0.15762 0.87028 0.27943 0.0
H313 H 0.16193 0.95063 0.3037 0.0
C314 C 0.07267 0.94244 0.33023 0.0
C315 C 0.02241 0.93141 0.3434 0.0
C316 C 0.07083 0.8965 0.31634 0.0
C317 C 0.9705 0.87376 0.34267 0.0
C318 C 0.96816 0.82809 0.3288 0.0
C319 C 0.01556 0.7934 0.30133 0.0
C320 C 0.06576 0.80405 0.28823 0.0
C321 C 0.01789 0.83902 0.31547 0.0
C322 C 0.11846 0.86103 0.28943 0.0
C323 C 0.12089 0.90696 0.30325 0.0
H324 H 0.12475 0.96796 0.68525 0.0
H325 H 0.17979 0.15422 0.67431 0.0
H326 H 0.25906 0.16407 0.64872 0.0
H327 H 0.31002 0.11879 0.6281 0.0
H328 H 0.25349 0.93181 0.63795 0.0
H329 H 0.17728 0.92302 0.66504 0.0
C330 C 0.15455 0.01082 0.67744 0.0
C331 C 0.14647 0.06029 0.6817 0.0
C332 C 0.19937 0.01588 0.66233 0.0
C333 C 0.18499 0.1154 0.67127 0.0
C334 C 0.23031 0.12108 0.6566 0.0
C335 C 0.2814 0.07629 0.63634 0.0
C336 C 0.28734 0.02603 0.63096 0.0
C337 C 0.23747 0.07147 0.6518 0.0
C338 C 0.24933 0.97101 0.64157 0.0
C339 C 0.20597 0.96603 0.65717 0.0
H340 H 0.19897 0.18922 0.03068 0.0
H341 H 0.05708 0.16821 0.98568 0.0
H342 H 0.13129 0.22721 0.95708 0.0
H343 H 0.23583 0.28716 0.94519 0.0
H344 H 0.37983 0.31812 0.99113 0.0
H345 H 0.30574 0.25169 0.01861 0.0
C346 C 0.18456 0.19738 0.01454 0.0
C347 C 0.12272 0.17465 0.01032 0.0
C348 C 0.22781 0.23297 0.99828 0.0
C349 C 0.1045 0.18577 0.98941 0.0
C350 C 0.14686 0.21937 0.97301 0.0
C351 C 0.25135 0.28024 0.9613 0.0
C352 C 0.31364 0.3083 0.96599 0.0
C353 C 0.20861 0.24386 0.97737 0.0
C354 C 0.33234 0.2968 0.98679 0.0
C355 C 0.2899 0.25914 1.00267 0.0
H356 H 0.9472 0.14231 0.33983 0.0
H357 H 0.133 0.24406 0.36202 0.0
H358 H 0.14939 0.32801 0.33822 0.0
H359 H 0.11227 0.36947 0.30926 0.0
H360 H 0.92378 0.26975 0.28963 0.0
H361 H 0.90773 0.18775 0.31389 0.0
C362 C 0.99116 0.18308 0.3396 0.0
C363 C 0.03892 0.18684 0.35253 0.0
C364 C 1.00009 0.23121 0.32605 0.0
C365 C 0.09545 0.24014 0.35226 0.0
C366 C 0.10492 0.288 0.33855 0.0
C367 C 0.06737 0.3304 0.31051 0.0
C368 C 0.01977 0.32584 0.29707 0.0
C369 C 0.05774 0.28369 0.32512 0.0
C370 C 0.96205 0.27418 0.29901 0.0
C371 C 0.95248 0.22727 0.31314 0.0
loop_
_geom_bond_atom_site_label_1
_geom_bond_atom_site_label_2
_geom_bond_distance
_geom_bond_site_symmetry_2
_ccdc_geom_bond_type
Co0 O1 2.216 1_445 S
Co0 O2 2.091 1_545 S
Co0 O4 2.004 . S
Co0 O10 2.021 1_445 S
Co0 O12 2.137 . S
Co0 O13 2.244 1_455 S
O1 Co0 2.216 1_665 S
O1 C8 1.247 1_655 S
O2 Co0 2.091 1_565 S
O2 C8 1.261 . S
C3 O12 1.247 . S
C3 O13 1.272 1_455 S
O4 Co0 2.004 . S
O4 C9 1.259 . S
Co5 O6 2.061 1_655 S
Co5 O11 2.052 . S
Co5 O13 2.135 . S
O6 Co5 2.061 1_455 S
O6 C9 1.235 . S
C7 O10 1.238 . S
C7 O11 1.241 1_565 S
C8 O1 1.247 1_455 S
C8 O2 1.261 . S
C9 O4 1.259 . S
C9 O6 1.235 . S
O10 Co0 2.021 1_665 S
O10 C7 1.238 . S
O11 Co5 2.052 . S
O11 C7 1.241 1_545 S
O12 Co0 2.137 . S
O12 C3 1.247 . S
O13 Co0 2.244 1_655 S
O13 C3 1.272 1_655 S
O13 Co5 2.135 . S
Co14 O15 2.216 1_455 S
Co14 O16 2.091 . S
Co14 O18 2.004 . S
Co14 O24 2.021 1_455 S
Co14 O26 2.137 . S
Co14 O27 2.244 1_445 S
O15 Co14 2.216 1_655 S
O15 C22 1.247 1_655 S
O16 Co14 2.091 . S
O16 C22 1.261 . S
C17 O26 1.247 1_565 S
C17 O27 1.272 1_455 S
O18 Co14 2.004 . S
O18 C23 1.259 . S
Co19 O20 2.061 1_655 S
Co19 O25 2.052 . S
Co19 O27 2.135 . S
O20 Co19 2.061 1_455 S
O20 C23 1.235 1_565 S
C21 O24 1.238 . S
C21 O25 1.241 1_545 S
C22 O15 1.247 1_455 S
C22 O16 1.261 . S
C23 O18 1.259 . S
C23 O20 1.235 1_545 S
O24 Co14 2.021 1_655 S
O24 C21 1.238 . S
O25 Co19 2.052 . S
O25 C21 1.241 1_565 S
O26 Co14 2.137 . S
O26 C17 1.247 1_545 S
O27 Co14 2.244 1_665 S
O27 C17 1.272 1_655 S
O27 Co19 2.135 . S
Co28 O29 2.216 . S
Co28 O30 2.091 1_545 S
Co28 O32 2.004 1_445 S
Co28 O38 2.021 . S
Co28 O40 2.137 1_445 S
Co28 O41 2.244 1_455 S
O29 Co28 2.216 . S
O29 C36 1.247 . S
O30 Co28 2.091 1_565 S
O30 C36 1.261 1_565 S
C31 O40 1.247 1_545 S
C31 O41 1.272 . S
O32 Co28 2.004 1_665 S
O32 C37 1.259 . S
Co33 O34 2.074 . S
Co33 O39 2.052 1_655 S
Co33 O41 2.135 . S
O34 Co33 2.074 . S
O34 C37 1.221 1_545 S
C35 O38 1.238 . S
C35 O39 1.241 . S
C36 O29 1.247 . S
C36 O30 1.261 1_545 S
C37 O32 1.259 . S
C37 O34 1.221 1_565 S
O38 Co28 2.021 . S
O38 C35 1.238 . S
O39 Co33 2.052 1_455 S
O39 C35 1.241 . S
O40 Co28 2.137 1_665 S
O40 C31 1.247 1_565 S
O41 Co28 2.244 1_655 S
O41 C31 1.272 . S
O41 Co33 2.135 . S
C42 C43 1.384 1_655 S
C42 C44 1.384 . S
C42 H70 0.931 . S
C43 C42 1.384 1_455 S
C43 C46 1.382 . S
C44 C42 1.384 . S
C44 C45 1.381 1_655 S
C44 H71 0.930 . S
C45 C44 1.381 1_455 S
C45 C47 1.381 . S
C45 C48 1.487 . S
C46 C43 1.382 . S
C46 C47 1.387 . S
C46 H72 0.930 . S
C47 C45 1.381 . S
C47 C46 1.387 . S
C47 H73 0.931 . S
C48 C45 1.487 . S
C48 C55 1.399 . S
C48 N86 1.343 . S
C49 C50 1.384 . S
C49 C51 1.384 . S
C49 H74 0.931 . S
C50 C49 1.384 . S
C50 C53 1.382 1_455 S
C51 C49 1.384 . S
C51 C52 1.381 . S
C51 H75 0.930 . S
C52 C51 1.381 . S
C52 C54 1.381 1_455 S
C52 C55 1.487 . S
C53 C50 1.382 1_655 S
C53 C54 1.387 . S
C53 H76 0.930 . S
C54 C52 1.381 1_655 S
C54 C53 1.387 . S
C54 H77 0.931 . S
C55 C48 1.399 . S
C55 C52 1.487 . S
C55 N87 1.343 . S
C56 C57 1.384 . S
C56 C58 1.384 . S
C56 H78 0.931 . S
C57 C56 1.384 . S
C57 C60 1.382 1_455 S
C58 C56 1.384 . S
C58 C59 1.381 . S
C58 H79 0.930 . S
C59 C58 1.381 . S
C59 C61 1.381 1_455 S
C59 C62 1.487 . S
C60 C57 1.382 1_655 S
C60 C61 1.387 . S
C60 H80 0.930 . S
C61 C59 1.381 1_655 S
C61 C60 1.387 . S
C61 H81 0.931 . S
C62 C59 1.487 . S
C62 C69 1.399 . S
C62 N87 1.343 . S
C63 C64 1.384 1_655 S
C63 C65 1.384 . S
C63 H82 0.931 . S
C64 C63 1.384 1_455 S
C64 C67 1.382 . S
C65 C63 1.384 . S
C65 C66 1.381 1_655 S
C65 H83 0.930 . S
C66 C65 1.381 1_455 S
C66 C68 1.381 . S
C66 C69 1.487 . S
C67 C64 1.382 . S
C67 C68 1.387 . S
C67 H84 0.930 . S
C68 C66 1.381 . S
C68 C67 1.387 . S
C68 H85 0.931 . S
C69 C62 1.399 . S
C69 C66 1.487 . S
C69 N86 1.343 . S
H70 C42 0.931 . S
H71 C44 0.930 . S
H72 C46 0.930 . S
H73 C47 0.931 . S
H74 C49 0.931 . S
H75 C51 0.930 . S
H76 C53 0.930 . S
H77 C54 0.931 . S
H78 C56 0.931 . S
H79 C58 0.930 . S
H80 C60 0.930 . S
H81 C61 0.931 . S
H82 C63 0.931 . S
H83 C65 0.930 . S
H84 C67 0.930 . S
H85 C68 0.931 . S
N86 C48 1.343 . S
N86 C69 1.343 . S
N87 C55 1.343 . S
N87 C62 1.343 . S
C88 C89 1.384 . S
C88 C90 1.384 . S
C88 H116 0.931 . S
C89 C88 1.384 . S
C89 C92 1.382 1_545 S
C90 C88 1.384 . S
C90 C91 1.381 . S
C90 H117 0.930 . S
C91 C90 1.381 . S
C91 C93 1.381 1_545 S
C91 C94 1.487 . S
C92 C89 1.382 1_565 S
C92 C93 1.387 . S
C92 H118 0.930 . S
C93 C91 1.381 1_565 S
C93 C92 1.387 . S
C93 H119 0.931 . S
C94 C91 1.487 . S
C94 C101 1.399 . S
C94 N132 1.343 . S
C95 C96 1.384 1_565 S
C95 C97 1.384 . S
C95 H120 0.931 . S
C96 C95 1.384 1_545 S
C96 C99 1.382 . S
C97 C95 1.384 . S
C97 C98 1.381 1_565 S
C97 H121 0.930 . S
C98 C97 1.381 1_545 S
C98 C100 1.381 . S
C98 C101 1.487 . S
C99 C96 1.382 . S
C99 C100 1.387 . S
C99 H122 0.930 . S
C100 C98 1.381 . S
C100 C99 1.387 . S
C100 H123 0.931 . S
C101 C94 1.399 . S
C101 C98 1.487 . S
C101 N133 1.343 . S
C102 C103 1.384 1_565 S
C102 C104 1.384 . S
C102 H124 0.931 . S
C103 C102 1.384 1_545 S
C103 C106 1.382 . S
C104 C102 1.384 . S
C104 C105 1.381 1_565 S
C104 H125 0.930 . S
C105 C104 1.381 1_545 S
C105 C107 1.381 . S
C105 C108 1.487 . S
C106 C103 1.382 . S
C106 C107 1.387 . S
C106 H126 0.930 . S
C107 C105 1.381 . S
C107 C106 1.387 . S
C107 H127 0.931 . S
C108 C105 1.487 . S
C108 C115 1.399 . S
C108 N133 1.343 . S
C109 C110 1.384 . S
C109 C111 1.384 . S
C109 H128 0.931 . S
C110 C109 1.384 . S
C110 C113 1.382 1_545 S
C111 C109 1.384 . S
C111 C112 1.381 . S
C111 H129 0.930 . S
C112 C111 1.381 . S
C112 C114 1.381 1_545 S
C112 C115 1.487 . S
C113 C110 1.382 1_565 S
C113 C114 1.387 . S
C113 H130 0.930 . S
C114 C112 1.381 1_565 S
C114 C113 1.387 . S
C114 H131 0.931 . S
C115 C108 1.399 . S
C115 C112 1.487 . S
C115 N132 1.343 . S
H116 C88 0.931 . S
H117 C90 0.930 . S
H118 C92 0.930 . S
H119 C93 0.931 . S
H120 C95 0.931 . S
H121 C97 0.930 . S
H122 C99 0.930 . S
H123 C100 0.931 . S
H124 C102 0.931 . S
H125 C104 0.930 . S
H126 C106 0.930 . S
H127 C107 0.931 . S
H128 C109 0.931 . S
H129 C111 0.930 . S
H130 C113 0.930 . S
H131 C114 0.931 . S
N132 C94 1.343 . S
N132 C115 1.343 . S
N133 C101 1.343 . S
N133 C108 1.343 . S
C134 C135 1.384 . S
C134 C136 1.384 . S
C134 H162 0.931 . S
C135 C134 1.384 . S
C135 C138 1.382 . S
C136 C134 1.384 . S
C136 C137 1.381 . S
C136 H163 0.930 . S
C137 C136 1.381 . S
C137 C139 1.381 . S
C137 C140 1.487 . S
C138 C135 1.382 . S
C138 C139 1.387 . S
C138 H164 0.930 . S
C139 C137 1.381 . S
C139 C138 1.387 . S
C139 H165 0.931 . S
C140 C137 1.487 . S
C140 C147 1.399 . S
C140 N178 1.343 . S
C141 C142 1.384 . S
C141 C143 1.384 . S
C141 H166 0.931 . S
C142 C141 1.384 . S
C142 C145 1.382 . S
C143 C141 1.384 . S
C143 C144 1.381 . S
C143 H167 0.930 . S
C144 C143 1.381 . S
C144 C146 1.381 . S
C144 C147 1.487 . S
C145 C142 1.382 . S
C145 C146 1.387 . S
C145 H168 0.930 . S
C146 C144 1.381 . S
C146 C145 1.387 . S
C146 H169 0.931 . S
C147 C140 1.399 . S
C147 C144 1.487 . S
C147 N179 1.343 . S
C148 C149 1.384 . S
C148 C150 1.384 . S
C148 H170 0.931 . S
C149 C148 1.384 . S
C149 C152 1.382 . S
C150 C148 1.384 . S
C150 C151 1.381 . S
C150 H171 0.930 . S
C151 C150 1.381 . S
C151 C153 1.381 . S
C151 C154 1.487 . S
C152 C149 1.382 . S
C152 C153 1.387 . S
C152 H172 0.930 . S
C153 C151 1.381 . S
C153 C152 1.387 . S
C153 H173 0.931 . S
C154 C151 1.487 . S
C154 C161 1.399 . S
C154 N179 1.343 . S
C155 C156 1.384 . S
C155 C157 1.384 . S
C155 H174 0.931 . S
C156 C155 1.384 . S
C156 C159 1.382 . S
C157 C155 1.384 . S
C157 C158 1.381 . S
C157 H175 0.930 . S
C158 C157 1.381 . S
C158 C160 1.381 . S
C158 C161 1.487 . S
C159 C156 1.382 . S
C159 C160 1.387 . S
C159 H176 0.930 . S
C160 C158 1.381 . S
C160 C159 1.387 . S
C160 H177 0.931 . S
C161 C154 1.399 . S
C161 C158 1.487 . S
C161 N178 1.343 . S
H162 C134 0.931 . S
H163 C136 0.930 . S
H164 C138 0.930 . S
H165 C139 0.931 . S
H166 C141 0.931 . S
H167 C143 0.930 . S
H168 C145 0.930 . S
H169 C146 0.931 . S
H170 C148 0.931 . S
H171 C150 0.930 . S
H172 C152 0.930 . S
H173 C153 0.931 . S
H174 C155 0.931 . S
H175 C157 0.930 . S
H176 C159 0.930 . S
H177 C160 0.931 . S
N178 C140 1.343 . S
N178 C161 1.343 . S
N179 C147 1.343 . S
N179 C154 1.343 . S
H180 C186 0.930 . S
H181 C189 0.930 . S
H182 C190 0.930 . S
H183 C191 0.930 . S
H184 C194 0.930 . S
H185 C195 0.930 . S
C186 H180 0.930 . S
C186 C187 1.355 . S
C186 C188 1.415 . S
C187 C186 1.355 . S
C187 C189 1.419 1_455 S
C188 C186 1.415 . S
C188 C193 1.425 1_455 S
C188 C195 1.409 . S
C189 H181 0.930 . S
C189 C187 1.419 1_655 S
C189 C190 1.362 . S
C190 H182 0.930 . S
C190 C189 1.362 . S
C190 C193 1.409 . S
C191 H183 0.930 . S
C191 C192 1.355 1_655 S
C191 C193 1.415 . S
C192 C191 1.355 1_455 S
C192 C194 1.419 . S
C193 C188 1.425 1_655 S
C193 C190 1.409 . S
C193 C191 1.415 . S
C194 H184 0.930 . S
C194 C192 1.419 . S
C194 C195 1.362 . S
C195 H185 0.930 . S
C195 C188 1.409 . S
C195 C194 1.362 . S
H196 C202 0.930 . S
H197 C205 0.930 . S
H198 C206 0.930 . S
H199 C207 0.930 . S
H200 C210 0.930 . S
H201 C211 0.930 . S
C202 H196 0.930 . S
C202 C203 1.355 . S
C202 C204 1.415 . S
C203 C202 1.355 . S
C203 C205 1.419 . S
C204 C202 1.415 . S
C204 C209 1.425 . S
C204 C211 1.409 . S
C205 H197 0.930 . S
C205 C203 1.419 . S
C205 C206 1.362 . S
C206 H198 0.930 . S
C206 C205 1.362 . S
C206 C209 1.409 . S
C207 H199 0.930 . S
C207 C208 1.355 . S
C207 C209 1.415 . S
C208 C207 1.355 . S
C208 C210 1.419 . S
C209 C204 1.425 . S
C209 C206 1.409 . S
C209 C207 1.415 . S
C210 H200 0.930 . S
C210 C208 1.419 . S
C210 C211 1.362 . S
C211 H201 0.930 . S
C211 C204 1.409 . S
C211 C210 1.362 . S
H212 C218 0.930 . S
H213 C221 0.930 . S
H214 C222 0.930 . S
H215 C223 0.930 . S
H216 C226 0.930 . S
H217 C227 0.930 . S
C218 H212 0.930 . S
C218 C219 1.355 . S
C218 C220 1.415 . S
C219 C218 1.355 . S
C219 C221 1.419 . S
C220 C218 1.415 . S
C220 C225 1.425 . S
C220 C227 1.409 . S
C221 H213 0.930 . S
C221 C219 1.419 . S
C221 C222 1.362 . S
C222 H214 0.930 . S
C222 C221 1.362 . S
C222 C225 1.409 . S
C223 H215 0.930 . S
C223 C224 1.355 . S
C223 C225 1.415 . S
C224 C223 1.355 . S
C224 C226 1.419 . S
C225 C220 1.425 . S
C225 C222 1.409 . S
C225 C223 1.415 . S
C226 H216 0.930 . S
C226 C224 1.419 . S
C226 C227 1.362 . S
C227 H217 0.930 . S
C227 C220 1.409 . S
C227 C226 1.362 . S
H228 C234 0.930 . S
H229 C237 0.930 . S
H230 C238 0.930 . S
H231 C239 0.930 . S
H232 C242 0.930 . S
H233 C243 0.930 . S
C234 H228 0.930 . S
C234 C235 1.355 1_655 S
C234 C236 1.415 . S
C235 C234 1.355 1_455 S
C235 C237 1.419 . S
C236 C234 1.415 . S
C236 C241 1.425 1_655 S
C236 C243 1.409 . S
C237 H229 0.930 . S
C237 C235 1.419 . S
C237 C238 1.362 . S
C238 H230 0.930 . S
C238 C237 1.362 . S
C238 C241 1.409 . S
C239 H231 0.930 . S
C239 C240 1.355 . S
C239 C241 1.415 . S
C240 C239 1.355 . S
C240 C242 1.419 1_455 S
C241 C236 1.425 1_455 S
C241 C238 1.409 . S
C241 C239 1.415 . S
C242 H232 0.930 . S
C242 C240 1.419 1_655 S
C242 C243 1.362 . S
C243 H233 0.930 . S
C243 C236 1.409 . S
C243 C242 1.362 . S
H244 C250 0.930 . S
H245 C253 0.930 . S
H246 C254 0.930 . S
H247 C255 0.930 . S
H248 C258 0.930 1_565 S
H249 C259 0.930 1_565 S
C250 H244 0.930 . S
C250 C251 1.355 . S
C250 C252 1.415 . S
C251 C250 1.355 . S
C251 C253 1.419 . S
C252 C250 1.415 . S
C252 C257 1.425 . S
C252 C259 1.409 . S
C253 H245 0.930 . S
C253 C251 1.419 . S
C253 C254 1.362 . S
C254 H246 0.930 . S
C254 C253 1.362 . S
C254 C257 1.409 . S
C255 H247 0.930 . S
C255 C256 1.355 . S
C255 C257 1.415 . S
C256 C255 1.355 . S
C256 C258 1.419 . S
C257 C252 1.425 . S
C257 C254 1.409 . S
C257 C255 1.415 . S
C258 H248 0.930 1_545 S
C258 C256 1.419 . S
C258 C259 1.362 . S
C259 H249 0.930 1_545 S
C259 C252 1.409 . S
C259 C258 1.362 . S
H260 C266 0.930 . S
H261 C269 0.930 . S
H262 C270 0.930 . S
H263 C271 0.930 . S
H264 C274 0.930 . S
H265 C275 0.930 . S
C266 H260 0.930 . S
C266 C267 1.355 . S
C266 C268 1.415 . S
C267 C266 1.355 . S
C267 C269 1.419 . S
C268 C266 1.415 . S
C268 C273 1.425 . S
C268 C275 1.409 . S
C269 H261 0.930 . S
C269 C267 1.419 . S
C269 C270 1.362 . S
C270 H262 0.930 . S
C270 C269 1.362 . S
C270 C273 1.409 . S
C271 H263 0.930 . S
C271 C272 1.355 . S
C271 C273 1.415 . S
C272 C271 1.355 . S
C272 C274 1.419 . S
C273 C268 1.425 . S
C273 C270 1.409 . S
C273 C271 1.415 . S
C274 H264 0.930 . S
C274 C272 1.419 . S
C274 C275 1.362 . S
C275 H265 0.930 . S
C275 C268 1.409 . S
C275 C274 1.362 . S
H276 C282 0.930 . S
H277 C285 0.930 . S
H278 C286 0.930 . S
H279 C287 0.930 . S
H280 C290 0.930 . S
H281 C291 0.930 . S
C282 H276 0.930 . S
C282 C283 1.355 . S
C282 C284 1.415 . S
C283 C282 1.355 . S
C283 C285 1.419 . S
C284 C282 1.415 . S
C284 C289 1.425 . S
C284 C291 1.409 . S
C285 H277 0.930 . S
C285 C283 1.419 . S
C285 C286 1.362 . S
C286 H278 0.930 . S
C286 C285 1.362 . S
C286 C289 1.409 . S
C287 H279 0.930 . S
C287 C288 1.355 . S
C287 C289 1.415 . S
C288 C287 1.355 . S
C288 C290 1.419 . S
C289 C284 1.425 . S
C289 C286 1.409 . S
C289 C287 1.415 . S
C290 H280 0.930 . S
C290 C288 1.419 . S
C290 C291 1.362 . S
C291 H281 0.930 . S
C291 C284 1.409 . S
C291 C290 1.362 . S
H292 C298 0.930 . S
H293 C301 0.930 . S
H294 C302 0.930 . S
H295 C303 0.930 . S
H296 C306 0.930 . S
H297 C307 0.930 1_554 S
C298 H292 0.930 . S
C298 C299 1.355 . S
C298 C300 1.415 1_554 S
C299 C298 1.355 . S
C299 C301 1.419 1_554 S
C300 C298 1.415 1_556 S
C300 C305 1.425 . S
C300 C307 1.409 . S
C301 H293 0.930 . S
C301 C299 1.419 1_556 S
C301 C302 1.362 . S
C302 H294 0.930 . S
C302 C301 1.362 . S
C302 C305 1.409 . S
C303 H295 0.930 . S
C303 C304 1.355 . S
C303 C305 1.415 . S
C304 C303 1.355 . S
C304 C306 1.419 . S
C305 C300 1.425 . S
C305 C302 1.409 . S
C305 C303 1.415 . S
C306 H296 0.930 . S
C306 C304 1.419 . S
C306 C307 1.362 . S
C307 H297 0.930 1_556 S
C307 C300 1.409 . S
C307 C306 1.362 . S
H308 C314 0.930 . S
H309 C317 0.930 . S
H310 C318 0.930 . S
H311 C319 0.930 . S
H312 C322 0.930 . S
H313 C323 0.930 . S
C314 H308 0.930 . S
C314 C315 1.355 . S
C314 C316 1.415 . S
C315 C314 1.355 . S
C315 C317 1.419 1_455 S
C316 C314 1.415 . S
C316 C321 1.425 1_455 S
C316 C323 1.409 . S
C317 H309 0.930 . S
C317 C315 1.419 1_655 S
C317 C318 1.362 . S
C318 H310 0.930 . S
C318 C317 1.362 . S
C318 C321 1.409 . S
C319 H311 0.930 . S
C319 C320 1.355 1_655 S
C319 C321 1.415 . S
C320 C319 1.355 1_455 S
C320 C322 1.419 . S
C321 C316 1.425 1_655 S
C321 C318 1.409 . S
C321 C319 1.415 . S
C322 H312 0.930 . S
C322 C320 1.419 . S
C322 C323 1.362 . S
C323 H313 0.930 . S
C323 C316 1.409 . S
C323 C322 1.362 . S
H324 C330 0.930 . S
H325 C333 0.930 . S
H326 C334 0.930 . S
H327 C335 0.930 . S
H328 C338 0.930 1_565 S
H329 C339 0.924 1_565 S
C330 H324 0.930 . S
C330 C331 1.355 . S
C330 C332 1.415 . S
C331 C330 1.355 . S
C331 C333 1.419 . S
C332 C330 1.415 . S
C332 C337 1.425 . S
C332 C339 1.420 . S
C333 H325 0.930 . S
C333 C331 1.419 . S
C333 C334 1.362 . S
C334 H326 0.930 . S
C334 C333 1.362 . S
C334 C337 1.409 . S
C335 H327 0.930 . S
C335 C336 1.355 . S
C335 C337 1.415 . S
C336 C335 1.355 . S
C336 C338 1.419 . S
C337 C332 1.425 . S
C337 C334 1.409 . S
C337 C335 1.415 . S
C338 H328 0.930 1_545 S
C338 C336 1.419 . S
C338 C339 1.358 . S
C339 H329 0.924 1_545 S
C339 C332 1.420 . S
C339 C338 1.358 . S
H340 C346 0.930 . S
H341 C349 0.930 . S
H342 C350 0.930 . S
H343 C351 0.930 . S
H344 C354 0.930 . S
H345 C355 0.930 1_554 S
C346 H340 0.930 . S
C346 C347 1.355 . S
C346 C348 1.415 1_554 S
C347 C346 1.355 . S
C347 C349 1.419 1_554 S
C348 C346 1.415 1_556 S
C348 C353 1.425 . S
C348 C355 1.409 . S
C349 H341 0.930 . S
C349 C347 1.419 1_556 S
C349 C350 1.362 . S
C350 H342 0.930 . S
C350 C349 1.362 . S
C350 C353 1.409 . S
C351 H343 0.930 . S
C351 C352 1.355 . S
C351 C353 1.415 . S
C352 C351 1.355 . S
C352 C354 1.419 . S
C353 C348 1.425 . S
C353 C350 1.409 . S
C353 C351 1.415 . S
C354 H344 0.930 . S
C354 C352 1.419 . S
C354 C355 1.362 . S
C355 H345 0.930 1_556 S
C355 C348 1.409 . S
C355 C354 1.362 . S
H356 C362 0.930 . S
H357 C365 0.930 . S
H358 C366 0.930 . S
H359 C367 0.930 . S
H360 C370 0.930 . S
H361 C371 0.930 . S
C362 H356 0.930 . S
C362 C363 1.355 1_655 S
C362 C364 1.415 1_655 S
C363 C362 1.355 1_455 S
C363 C365 1.419 . S
C364 C362 1.415 1_455 S
C364 C369 1.425 . S
C364 C371 1.409 1_455 S
C365 H357 0.930 . S
C365 C363 1.419 . S
C365 C366 1.362 . S
C366 H358 0.930 . S
C366 C365 1.362 . S
C366 C369 1.409 . S
C367 H359 0.930 . S
C367 C368 1.355 . S
C367 C369 1.415 . S
C368 C367 1.355 . S
C368 C370 1.419 1_455 S
C369 C364 1.425 . S
C369 C366 1.409 . S
C369 C367 1.415 . S
C370 H360 0.930 . S
C370 C368 1.419 1_655 S
C370 C371 1.362 . S
C371 H361 0.930 . S
C371 C364 1.409 1_655 S
C371 C370 1.362 . S
C192 C50 1.492 . S
C187 C3 1.497 . S
C203 C21 1.509 . S
C208 C89 1.523 . S
C219 C37 1.483 . S
C224 C156 1.508 . S
C235 C8 1.493 . S
C240 C57 1.496 . S
C256 C110 1.505 . S
C251 C23 1.501 . S
C267 C35 1.496 . S
C272 C135 1.506 . S
C288 C96 1.487 . S
C283 C31 1.490 . S
C299 C7 1.484 . S
C304 C149 1.508 . S
C320 C64 1.490 . S
C315 C17 1.490 . S
C336 C103 1.474 . S
C331 C36 1.470 . S
C352 C142 1.501 . S
C347 C9 1.469 . S
C363 C22 1.493 . S
C368 C43 1.498 . S
