# Generated by pormake.
# Topology ctn, (3,4)-cn, num edge types: 1
# Building blocks:
#     Node 0, Type 0, BuildingBlock: BELTOD_clean_linker_0, # of connection points: 3
#     Node 1, Type 0, BuildingBlock: BELTOD_clean_linker_0, # of connection points: 3
#     Node 2, Type 0, BuildingBlock: BELTOD_clean_linker_0, # of connection points: 3
#     Node 3, Type 0, BuildingBlock: BELTOD_clean_linker_0, # of connection points: 3
#     Node 4, Type 0, BuildingBlock: BELTOD_clean_linker_0, # of connection points: 3
#     Node 5, Type 0, BuildingBlock: BELTOD_clean_linker_0, # of connection points: 3
#     Node 6, Type 0, BuildingBlock: BELTOD_clean_linker_0, # of connection points: 3
#     Node 7, Type 0, BuildingBlock: BELTOD_clean_linker_0, # of connection points: 3
#     Node 8, Type 0, BuildingBlock: BELTOD_clean_linker_0, # of connection points: 3
#     Node 9, Type 0, BuildingBlock: BELTOD_clean_linker_0, # of connection points: 3
#     Node 10, Type 0, BuildingBlock: BELTOD_clean_linker_0, # of connection points: 3
#     Node 11, Type 0, BuildingBlock: BELTOD_clean_linker_0, # of connection points: 3
#     Node 12, Type 0, BuildingBlock: BELTOD_clean_linker_0, # of connection points: 3
#     Node 13, Type 0, BuildingBlock: BELTOD_clean_linker_0, # of connection points: 3
#     Node 14, Type 0, BuildingBlock: BELTOD_clean_linker_0, # of connection points: 3
#     Node 15, Type 0, BuildingBlock: BELTOD_clean_linker_0, # of connection points: 3
#     Node 16, Type 1, BuildingBlock: TATPOV_clean_sbu_0, # of connection points: 4
#     Node 17, Type 1, BuildingBlock: TATPOV_clean_sbu_0, # of connection points: 4
#     Node 18, Type 1, BuildingBlock: TATPOV_clean_sbu_0, # of connection points: 4
#     Node 19, Type 1, BuildingBlock: TATPOV_clean_sbu_0, # of connection points: 4
#     Node 20, Type 1, BuildingBlock: TATPOV_clean_sbu_0, # of connection points: 4
#     Node 21, Type 1, BuildingBlock: TATPOV_clean_sbu_0, # of connection points: 4
#     Node 22, Type 1, BuildingBlock: TATPOV_clean_sbu_0, # of connection points: 4
#     Node 23, Type 1, BuildingBlock: TATPOV_clean_sbu_0, # of connection points: 4
#     Node 24, Type 1, BuildingBlock: TATPOV_clean_sbu_0, # of connection points: 4
#     Node 25, Type 1, BuildingBlock: TATPOV_clean_sbu_0, # of connection points: 4
#     Node 26, Type 1, BuildingBlock: TATPOV_clean_sbu_0, # of connection points: 4
#     Node 27, Type 1, BuildingBlock: TATPOV_clean_sbu_0, # of connection points: 4
#     Edge 28, Type (0, 1), None
#     Edge 29, Type (0, 1), None
#     Edge 30, Type (0, 1), None
#     Edge 31, Type (0, 1), None
#     Edge 32, Type (0, 1), None
#     Edge 33, Type (0, 1), None
#     Edge 34, Type (0, 1), None
#     Edge 35, Type (0, 1), None
#     Edge 36, Type (0, 1), None
#     Edge 37, Type (0, 1), None
#     Edge 38, Type (0, 1), None
#     Edge 39, Type (0, 1), None
#     Edge 40, Type (0, 1), None
#     Edge 41, Type (0, 1), None
#     Edge 42, Type (0, 1), None
#     Edge 43, Type (0, 1), None
#     Edge 44, Type (0, 1), None
#     Edge 45, Type (0, 1), None
#     Edge 46, Type (0, 1), None
#     Edge 47, Type (0, 1), None
#     Edge 48, Type (0, 1), None
#     Edge 49, Type (0, 1), None
#     Edge 50, Type (0, 1), None
#     Edge 51, Type (0, 1), None
#     Edge 52, Type (0, 1), None
#     Edge 53, Type (0, 1), None
#     Edge 54, Type (0, 1), None
#     Edge 55, Type (0, 1), None
#     Edge 56, Type (0, 1), None
#     Edge 57, Type (0, 1), None
#     Edge 58, Type (0, 1), None
#     Edge 59, Type (0, 1), None
#     Edge 60, Type (0, 1), None
#     Edge 61, Type (0, 1), None
#     Edge 62, Type (0, 1), None
#     Edge 63, Type (0, 1), None
#     Edge 64, Type (0, 1), None
#     Edge 65, Type (0, 1), None
#     Edge 66, Type (0, 1), None
#     Edge 67, Type (0, 1), None
#     Edge 68, Type (0, 1), None
#     Edge 69, Type (0, 1), None
#     Edge 70, Type (0, 1), None
#     Edge 71, Type (0, 1), None
#     Edge 72, Type (0, 1), None
#     Edge 73, Type (0, 1), None
#     Edge 74, Type (0, 1), None
#     Edge 75, Type (0, 1), None
# Relax obj value: 0.003
# Max RMSD: 0.046
# Mean RMSD: 0.024
data_MOF--net-ctn--node1-TATPOV_clean_sbu_0--node2-BELTOD_clean_linker_0--edge1-none
_symmetry_space_group_name_H-M    P1
_symmetry_Int_Tables_number       1
_symmetry_cell_setting            triclinic
loop_
_symmetry_equiv_pos_as_xyz
'x, y, z'
_cell_length_a     31.302376
_cell_length_b     31.40994
_cell_length_c     30.95445
_cell_angle_alpha  90.861173
_cell_angle_beta   92.038218
_cell_angle_gamma 92.398967
loop_
_atom_site_label
_atom_site_type_symbol
_atom_site_fract_x
_atom_site_fract_y
_atom_site_fract_z
_atom_type_partial_charge
P0 P 0.0832 0.05952 0.04297 0.0
H1 H 0.03098 0.11038 0.09753 0.0
H2 H 0.9671 0.09385 0.13812 0.0
H3 H 0.96226 0.96524 0.08584 0.0
H4 H 0.02574 0.98249 0.04449 0.0
H5 H 0.103 0.98482 0.0934 0.0
H6 H 0.14874 0.92494 0.08081 0.0
H7 H 0.17409 0.97236 0.95348 0.0
H8 H 0.12798 0.03173 0.96616 0.0
H9 H 0.12244 0.13922 0.01242 0.0
H10 H 0.01973 0.05053 0.97113 0.0
O11 O 0.11469 0.08833 0.07799 0.0
H12 H 0.103 0.18683 0.95405 0.0
H13 H -0.0 0.09799 0.91226 0.0
C14 C 0.03386 0.04729 0.0692 0.0
C15 C 0.01599 0.07871 0.09462 0.0
C16 C 0.97934 0.06922 0.11767 0.0
C17 C 0.95994 0.02799 0.11575 0.0
C18 C 0.97676 0.99713 0.08846 0.0
C19 C 0.01321 0.00688 0.06499 0.0
C20 C 0.11142 0.01229 0.03043 0.0
C21 C 0.11758 0.98169 0.06237 0.0
C22 C 0.14383 0.9475 0.05518 0.0
C23 C 0.16512 0.94386 0.01617 0.0
C24 C 0.15815 0.97419 0.9839 0.0
C25 C 0.13161 0.00815 0.99103 0.0
C26 C 0.07204 0.0917 0.99651 0.0
C27 C 0.09588 0.12979 0.99052 0.0
C28 C 0.08473 0.15702 0.95702 0.0
C29 C 0.04962 0.14651 0.9287 0.0
C30 C 0.02709 0.10721 0.93358 0.0
C31 C 0.03826 0.08004 0.96724 0.0
P32 P 0.28848 0.65734 0.23781 0.0
H33 H 0.3125 0.64305 0.14922 0.0
H34 H 0.30419 0.68404 0.08399 0.0
H35 H 0.22706 0.77253 0.15169 0.0
H36 H 0.23445 0.72992 0.21723 0.0
H37 H 0.36721 0.63353 0.28304 0.0
H38 H 0.42601 0.6753 0.31886 0.0
H39 H 0.35826 0.79044 0.29578 0.0
H40 H 0.29945 0.74834 0.26047 0.0
H41 H 0.19696 0.64505 0.21788 0.0
H42 H 0.28268 0.64134 0.32988 0.0
O43 O 0.30769 0.61021 0.22491 0.0
H44 H 0.14064 0.60993 0.25804 0.0
H45 H 0.22665 0.6054 0.37022 0.0
C46 C 0.27453 0.68367 0.18824 0.0
C47 C 0.29283 0.67057 0.14994 0.0
C48 C 0.28798 0.69416 0.11249 0.0
C49 C 0.26537 0.73194 0.11269 0.0
C50 C 0.24458 0.74356 0.1504 0.0
C51 C 0.24915 0.71949 0.18798 0.0
C52 C 0.32966 0.68802 0.26772 0.0
C53 C 0.36491 0.66775 0.28588 0.0
C54 C 0.39838 0.69165 0.30674 0.0
C55 C 0.39709 0.73628 0.3097 0.0
C56 C 0.36047 0.75616 0.29363 0.0
C57 C 0.3269 0.73214 0.27308 0.0
C58 C 0.24384 0.64616 0.27099 0.0
C59 C 0.20317 0.63824 0.25165 0.0
C60 C 0.17103 0.61785 0.27469 0.0
C61 C 0.17948 0.60413 0.31712 0.0
C62 C 0.21917 0.61541 0.33759 0.0
C63 C 0.25124 0.63609 0.31452 0.0
P64 P 0.02056 0.48284 0.05009 0.0
H65 H 0.06243 0.48463 0.96841 0.0
H66 H 0.0622 0.43253 0.90956 0.0
H67 H 0.0104 0.33594 0.99295 0.0
H68 H 0.00958 0.38893 0.05215 0.0
H69 H 0.96086 0.53989 0.08923 0.0
H70 H 0.89197 0.56612 0.06292 0.0
H71 H 0.89346 0.47996 0.95288 0.0
H72 H 0.96088 0.45393 0.97896 0.0
H73 H 0.08438 0.51304 0.11454 0.0
H74 H 0.97132 0.42949 0.11023 0.0
O75 O 0.05045 0.52652 0.03974 0.0
H76 H 0.09181 0.5046 0.19199 0.0
H77 H 0.97941 0.41961 0.18893 0.0
C78 C 0.03641 0.44066 0.01489 0.0
C79 C 0.05264 0.45194 0.97484 0.0
C80 C 0.05211 0.42221 0.941 0.0
C81 C 0.03589 0.38046 0.94673 0.0
C82 C 0.02328 0.36795 0.98792 0.0
C83 C 0.02304 0.39814 0.02178 0.0
C84 C 0.96619 0.49497 0.03622 0.0
C85 C 0.9457 0.52599 0.06002 0.0
C86 C 0.90644 0.54095 0.04498 0.0
C87 C 0.88774 0.52545 0.00557 0.0
C88 C 0.90739 0.49291 0.98308 0.0
C89 C 0.94617 0.47783 0.99824 0.0
C90 C 0.0272 0.47209 0.1067 0.0
C91 C 0.06117 0.49262 0.13028 0.0
C92 C 0.06523 0.48791 0.17479 0.0
C93 C 0.03579 0.46187 0.19673 0.0
C94 C 0.00238 0.44006 0.17288 0.0
C95 C -0.0021 0.44547 0.12804 0.0
P96 P 0.69745 0.80808 0.13881 0.0
H97 H 0.74479 0.87911 0.09905 0.0
H98 H 0.78718 0.94028 0.13033 0.0
H99 H 0.77193 0.88873 0.25779 0.0
H100 H 0.73097 0.82769 0.22649 0.0
H101 H 0.66394 0.72158 0.12184 0.0
H102 H 0.69558 0.65931 0.08988 0.0
H103 H 0.81892 0.72692 0.09328 0.0
H104 H 0.78694 0.78891 0.12521 0.0
H105 H 0.6186 0.85057 0.151 0.0
H106 H 0.68722 0.75043 0.21249 0.0
O107 O 0.67503 0.82503 0.09283 0.0
H108 H 0.56669 0.84791 0.20734 0.0
H109 H 0.63504 0.74753 0.2699 0.0
C110 C 0.73382 0.84945 0.16058 0.0
C111 C 0.75104 0.88085 0.13367 0.0
C112 C 0.77521 0.91575 0.15153 0.0
C113 C 0.782 0.91973 0.19656 0.0
C114 C 0.76645 0.88703 0.22304 0.0
C115 C 0.74301 0.85199 0.20515 0.0
C116 C 0.72316 0.75964 0.12625 0.0
C117 C 0.69805 0.72245 0.11694 0.0
C118 C 0.7162 0.6869 0.09856 0.0
C119 C 0.75973 0.68825 0.08867 0.0
C120 C 0.7853 0.72478 0.10048 0.0
C121 C 0.76706 0.76032 0.11883 0.0
C122 C 0.65611 0.80009 0.17706 0.0
C123 C 0.62195 0.82733 0.17627 0.0
C124 C 0.59245 0.82594 0.20886 0.0
C125 C 0.59677 0.79756 0.24338 0.0
C126 C 0.63078 0.76969 0.24379 0.0
C127 C 0.66038 0.77108 0.21085 0.0
P128 P 0.04996 0.92521 0.4063 0.0
H129 H 0.1289 0.93209 0.36048 0.0
H130 H 0.1937 0.977 0.37077 0.0
H131 H 0.14113 0.03588 0.48324 0.0
H132 H 0.07558 0.99076 0.47207 0.0
H133 H 0.96231 0.89812 0.42349 0.0
H134 H 0.92873 0.86743 0.48606 0.0
H135 H 0.05058 0.87577 0.55674 0.0
H136 H 0.08392 0.90718 0.49376 0.0
H137 H 0.03373 0.93406 0.31349 0.0
H138 H 0.98742 0.98663 0.43164 0.0
O139 O 0.06111 0.88227 0.37706 0.0
H140 H 0.97781 0.96924 0.27195 0.0
H141 H 0.93046 0.02071 0.3905 0.0
C142 C 0.09814 0.95723 0.41631 0.0
C143 C 0.13144 0.95433 0.38762 0.0
C144 C 0.1684 0.9803 0.39342 0.0
C145 C 0.17271 0.00986 0.42804 0.0
C146 C 0.13892 0.01314 0.45651 0.0
C147 C 0.10161 0.98729 0.45033 0.0
C148 C 0.0253 0.90644 0.45446 0.0
C149 C 0.98162 0.89452 0.45282 0.0
C150 C 0.96243 0.87677 0.48868 0.0
C151 C 0.98685 0.8695 0.52662 0.0
C152 C 0.03074 0.88144 0.5282 0.0
C153 C 0.04986 0.89952 0.49224 0.0
C154 C 0.01344 0.95644 0.37562 0.0
C155 C 0.01167 0.95343 0.33042 0.0
C156 C 0.9799 0.97376 0.30674 0.0
C157 C 0.94934 0.99699 0.32815 0.0
C158 C 0.95321 0.00243 0.37328 0.0
C159 C 0.98557 0.98285 0.39678 0.0
P160 P 0.24711 0.78199 0.74668 0.0
H161 H 0.32026 0.81592 0.79727 0.0
H162 H 0.3334 0.82828 0.87465 0.0
H163 H 0.20048 0.79675 0.89696 0.0
H164 H 0.18784 0.78261 0.81927 0.0
H165 H 0.31475 0.74042 0.69981 0.0
H166 H 0.34016 0.6677 0.70119 0.0
H167 H 0.24468 0.6338 0.79376 0.0
H168 H 0.21948 0.70611 0.7918 0.0
H169 H 0.1735 0.83577 0.75964 0.0
H170 H 0.20404 0.72828 0.6798 0.0
O171 O 0.27814 0.81327 0.71665 0.0
H172 H 0.10136 0.83455 0.72598 0.0
H173 H 0.13281 0.72737 0.64564 0.0
C174 C 0.25282 0.79968 0.80226 0.0
C175 C 0.29366 0.81262 0.8186 0.0
C176 C 0.30121 0.81932 0.86289 0.0
C177 C 0.26791 0.81353 0.89176 0.0
C178 C 0.22657 0.80194 0.87531 0.0
C179 C 0.21926 0.79423 0.83088 0.0
C180 C 0.26559 0.72861 0.7461 0.0
C181 C 0.29932 0.71723 0.72028 0.0
C182 C 0.31372 0.67564 0.72102 0.0
C183 C 0.29462 0.645 0.74777 0.0
C184 C 0.26033 0.65662 0.77301 0.0
C185 C 0.24589 0.69798 0.77202 0.0
C186 C 0.19355 0.78107 0.72346 0.0
C187 C 0.1645 0.81153 0.7354 0.0
C188 C 0.12339 0.81092 0.71598 0.0
C189 C 0.11127 0.78058 0.68343 0.0
C190 C 0.141 0.75097 0.67078 0.0
C191 C 0.18174 0.7513 0.69055 0.0
P192 P 0.97237 0.52634 0.5738 0.0
H193 H 0.02446 0.57427 0.51301 0.0
H194 H 0.04642 0.55788 0.43969 0.0
H195 H 0.96607 0.44246 0.43806 0.0
H196 H 0.94465 0.45863 0.51031 0.0
H197 H 0.00124 0.58448 0.64417 0.0
H198 H 0.98934 0.65954 0.659 0.0
H199 H 0.90604 0.66303 0.54483 0.0
H200 H 0.91949 0.58818 0.52925 0.0
H201 H 0.97043 0.44252 0.61191 0.0
H202 H 0.87913 0.52929 0.56021 0.0
O203 O 0.01611 0.51369 0.60239 0.0
H204 H 0.91787 0.38373 0.60156 0.0
H205 H 0.82611 0.47047 0.55016 0.0
C206 C 0.98276 0.51802 0.51741 0.0
C207 C 0.01095 0.54594 0.49645 0.0
C208 C 0.02339 0.5365 0.4545 0.0
C209 C 0.0081 0.49869 0.43306 0.0
C210 C 0.9785 0.47179 0.45356 0.0
C211 C 0.96617 0.48122 0.4953 0.0
C212 C 0.96136 0.5809 0.58552 0.0
C213 C 0.98044 0.60136 0.62229 0.0
C214 C 0.97357 0.64425 0.63079 0.0
C215 C 0.94672 0.66709 0.60312 0.0
C216 C 0.92663 0.64611 0.56692 0.0
C217 C 0.93426 0.60339 0.55798 0.0
C218 C 0.92881 0.49035 0.58679 0.0
C219 C 0.93844 0.44939 0.60032 0.0
C220 C 0.90851 0.41562 0.5938 0.0
C221 C 0.86838 0.42246 0.57395 0.0
C222 C 0.85697 0.4643 0.56522 0.0
C223 C 0.88721 0.49808 0.57132 0.0
P224 P 0.81729 0.84503 0.86475 0.0
H225 H 0.90653 0.8483 0.84123 0.0
H226 H 0.94046 0.83953 0.77202 0.0
H227 H 0.81609 0.83752 0.70629 0.0
H228 H 0.78262 0.84632 0.77557 0.0
H229 H 0.78953 0.93215 0.86716 0.0
H230 H 0.71945 0.9629 0.85809 0.0
H231 H 0.66045 0.83621 0.84376 0.0
H232 H 0.73066 0.8059 0.85254 0.0
H233 H 0.82403 0.76414 0.81646 0.0
H234 H 0.79876 0.8049 0.9465 0.0
O235 O 0.84742 0.87243 0.90199 0.0
H236 H 0.81507 0.69007 0.83714 0.0
H237 H 0.78933 0.73043 0.96753 0.0
C238 C 0.84221 0.8486 0.81346 0.0
C239 C 0.88675 0.8472 0.81177 0.0
C240 C 0.90606 0.84199 0.77215 0.0
C241 C 0.88096 0.83755 0.73358 0.0
C242 C 0.83638 0.84085 0.73533 0.0
C243 C 0.81717 0.84613 0.77498 0.0
C244 C 0.76517 0.86685 0.86132 0.0
C245 C 0.7614 0.91107 0.86259 0.0
C246 C 0.7213 0.92853 0.85728 0.0
C247 C 0.68427 0.90196 0.85037 0.0
C248 C 0.68824 0.85755 0.84936 0.0
C249 C 0.72843 0.84016 0.8545 0.0
C250 C 0.81287 0.79011 0.88024 0.0
C251 C 0.81695 0.75727 0.84963 0.0
C252 C 0.81163 0.71473 0.86145 0.0
C253 C 0.80157 0.70429 0.90398 0.0
C254 C 0.79711 0.73737 0.93448 0.0
C255 C 0.80269 0.77993 0.92263 0.0
P256 P 0.31729 0.34503 0.36475 0.0
H257 H 0.40653 0.3483 0.34123 0.0
H258 H 0.44046 0.33953 0.27202 0.0
H259 H 0.31609 0.33752 0.20629 0.0
H260 H 0.28262 0.34632 0.27557 0.0
H261 H 0.28953 0.43215 0.36716 0.0
H262 H 0.21945 0.4629 0.35809 0.0
H263 H 0.16045 0.33621 0.34377 0.0
H264 H 0.23066 0.3059 0.35254 0.0
H265 H 0.32403 0.26414 0.31646 0.0
H266 H 0.29876 0.3049 0.4465 0.0
O267 O 0.34742 0.37243 0.40199 0.0
H268 H 0.31507 0.19007 0.33714 0.0
H269 H 0.28933 0.23043 0.46753 0.0
C270 C 0.34221 0.3486 0.31346 0.0
C271 C 0.38675 0.3472 0.31177 0.0
C272 C 0.40606 0.34199 0.27215 0.0
C273 C 0.38096 0.33755 0.23358 0.0
C274 C 0.33638 0.34085 0.23533 0.0
C275 C 0.31717 0.34613 0.27498 0.0
C276 C 0.26517 0.36685 0.36132 0.0
C277 C 0.2614 0.41107 0.36259 0.0
C278 C 0.22131 0.42853 0.35728 0.0
C279 C 0.18427 0.40196 0.35037 0.0
C280 C 0.18824 0.35755 0.34936 0.0
C281 C 0.22843 0.34016 0.3545 0.0
C282 C 0.31287 0.29011 0.38024 0.0
C283 C 0.31695 0.25727 0.34963 0.0
C284 C 0.31163 0.21473 0.36145 0.0
C285 C 0.30157 0.20429 0.40398 0.0
C286 C 0.29711 0.23737 0.43448 0.0
C287 C 0.30269 0.27993 0.42263 0.0
P288 P 0.52056 0.98284 0.55009 0.0
H289 H 0.56243 0.98463 0.46841 0.0
H290 H 0.5622 0.93253 0.40956 0.0
H291 H 0.5104 0.83594 0.49295 0.0
H292 H 0.50958 0.88893 0.55215 0.0
H293 H 0.46086 0.03989 0.58923 0.0
H294 H 0.39197 0.06612 0.56292 0.0
H295 H 0.39346 0.97996 0.45288 0.0
H296 H 0.46088 0.95393 0.47896 0.0
H297 H 0.58438 0.01304 0.61454 0.0
H298 H 0.47132 0.92949 0.61023 0.0
O299 O 0.55045 0.02652 0.53974 0.0
H300 H 0.59181 0.0046 0.69199 0.0
H301 H 0.47941 0.91961 0.68893 0.0
C302 C 0.53641 0.94066 0.51489 0.0
C303 C 0.55264 0.95194 0.47484 0.0
C304 C 0.55212 0.92221 0.441 0.0
C305 C 0.53589 0.88046 0.44673 0.0
C306 C 0.52328 0.86795 0.48792 0.0
C307 C 0.52303 0.89814 0.52178 0.0
C308 C 0.46619 0.99497 0.53622 0.0
C309 C 0.4457 0.02599 0.56002 0.0
C310 C 0.40644 0.04095 0.54498 0.0
C311 C 0.38774 0.02545 0.50556 0.0
C312 C 0.40739 0.99291 0.48308 0.0
C313 C 0.44617 0.97783 0.49824 0.0
C314 C 0.5272 0.97209 0.6067 0.0
C315 C 0.56117 0.99262 0.63028 0.0
C316 C 0.56523 0.98791 0.67479 0.0
C317 C 0.53579 0.96187 0.69673 0.0
C318 C 0.50238 0.94006 0.67288 0.0
C319 C 0.4979 0.94547 0.62804 0.0
P320 P 0.19745 0.30808 0.63881 0.0
H321 H 0.24479 0.37911 0.59905 0.0
H322 H 0.28718 0.44028 0.63033 0.0
H323 H 0.27193 0.38873 0.75779 0.0
H324 H 0.23097 0.32769 0.72649 0.0
H325 H 0.16394 0.22158 0.62184 0.0
H326 H 0.19558 0.15931 0.58988 0.0
H327 H 0.31892 0.22692 0.59328 0.0
H328 H 0.28694 0.28891 0.62521 0.0
H329 H 0.1186 0.35057 0.651 0.0
H330 H 0.18722 0.25044 0.71249 0.0
O331 O 0.17503 0.32503 0.59283 0.0
H332 H 0.06669 0.34791 0.70734 0.0
H333 H 0.13504 0.24753 0.7699 0.0
C334 C 0.23382 0.34946 0.66058 0.0
C335 C 0.25104 0.38085 0.63367 0.0
C336 C 0.27521 0.41575 0.65153 0.0
C337 C 0.282 0.41973 0.69656 0.0
C338 C 0.26645 0.38703 0.72304 0.0
C339 C 0.24301 0.35199 0.70515 0.0
C340 C 0.22316 0.25964 0.62625 0.0
C341 C 0.19805 0.22245 0.61694 0.0
C342 C 0.2162 0.1869 0.59856 0.0
C343 C 0.25973 0.18825 0.58867 0.0
C344 C 0.2853 0.22478 0.60048 0.0
C345 C 0.26706 0.26032 0.61883 0.0
C346 C 0.15611 0.3001 0.67706 0.0
C347 C 0.12195 0.32733 0.67627 0.0
C348 C 0.09245 0.32594 0.70886 0.0
C349 C 0.09677 0.29756 0.74338 0.0
C350 C 0.13078 0.26969 0.74379 0.0
C351 C 0.16038 0.27108 0.71085 0.0
P352 P 0.78848 0.15734 0.73781 0.0
H353 H 0.8125 0.14305 0.64922 0.0
H354 H 0.80419 0.18404 0.58399 0.0
H355 H 0.72706 0.27253 0.65169 0.0
H356 H 0.73445 0.22991 0.71723 0.0
H357 H 0.86721 0.13353 0.78304 0.0
H358 H 0.92601 0.1753 0.81886 0.0
H359 H 0.85826 0.29044 0.79578 0.0
H360 H 0.79945 0.24834 0.76047 0.0
H361 H 0.69696 0.14505 0.71788 0.0
H362 H 0.78268 0.14133 0.82988 0.0
O363 O 0.80769 0.11021 0.72491 0.0
H364 H 0.64064 0.10993 0.75804 0.0
H365 H 0.72665 0.1054 0.87022 0.0
C366 C 0.77453 0.18367 0.68824 0.0
C367 C 0.79283 0.17057 0.64994 0.0
C368 C 0.78798 0.19416 0.61249 0.0
C369 C 0.76537 0.23194 0.61269 0.0
C370 C 0.74458 0.24356 0.6504 0.0
C371 C 0.74915 0.21949 0.68798 0.0
C372 C 0.82966 0.18802 0.76772 0.0
C373 C 0.86491 0.16775 0.78588 0.0
C374 C 0.89838 0.19165 0.80674 0.0
C375 C 0.89709 0.23628 0.8097 0.0
C376 C 0.86047 0.25616 0.79363 0.0
C377 C 0.8269 0.23214 0.77308 0.0
C378 C 0.74384 0.14616 0.77099 0.0
C379 C 0.70317 0.13824 0.75165 0.0
C380 C 0.67103 0.11785 0.77469 0.0
C381 C 0.67948 0.10413 0.81712 0.0
C382 C 0.71917 0.1154 0.83759 0.0
C383 C 0.75124 0.13609 0.81452 0.0
P384 P 0.5832 0.55952 0.54297 0.0
H385 H 0.53098 0.61038 0.59753 0.0
H386 H 0.4671 0.59385 0.63812 0.0
H387 H 0.46226 0.46524 0.58584 0.0
H388 H 0.52574 0.48249 0.54449 0.0
H389 H 0.603 0.48482 0.5934 0.0
H390 H 0.64874 0.42494 0.58081 0.0
H391 H 0.67409 0.47236 0.45348 0.0
H392 H 0.62798 0.53173 0.46616 0.0
H393 H 0.62244 0.63922 0.51242 0.0
H394 H 0.51973 0.55053 0.47113 0.0
O395 O 0.61469 0.58833 0.57799 0.0
H396 H 0.60299 0.68683 0.45405 0.0
H397 H 0.5 0.59799 0.41226 0.0
C398 C 0.53386 0.54729 0.5692 0.0
C399 C 0.51599 0.57871 0.59462 0.0
C400 C 0.47934 0.56922 0.61767 0.0
C401 C 0.45994 0.52799 0.61575 0.0
C402 C 0.47676 0.49713 0.58846 0.0
C403 C 0.51321 0.50688 0.56499 0.0
C404 C 0.61142 0.51229 0.53043 0.0
C405 C 0.61758 0.48169 0.56237 0.0
C406 C 0.64383 0.4475 0.55518 0.0
C407 C 0.66512 0.44386 0.51616 0.0
C408 C 0.65815 0.47419 0.4839 0.0
C409 C 0.63161 0.50815 0.49103 0.0
C410 C 0.57204 0.5917 0.49651 0.0
C411 C 0.59588 0.62979 0.49052 0.0
C412 C 0.58473 0.65702 0.45702 0.0
C413 C 0.54962 0.64651 0.4287 0.0
C414 C 0.52709 0.60721 0.43358 0.0
C415 C 0.53826 0.58003 0.46724 0.0
P416 P 0.54996 0.42521 0.9063 0.0
H417 H 0.6289 0.43209 0.86048 0.0
H418 H 0.6937 0.477 0.87077 0.0
H419 H 0.64113 0.53588 0.98324 0.0
H420 H 0.57558 0.49076 0.97207 0.0
H421 H 0.46231 0.39812 0.92349 0.0
H422 H 0.42873 0.36743 0.98606 0.0
H423 H 0.55058 0.37577 0.05674 0.0
H424 H 0.58392 0.40718 0.99376 0.0
H425 H 0.53373 0.43406 0.81349 0.0
H426 H 0.48742 0.48662 0.93164 0.0
O427 O 0.56111 0.38227 0.87706 0.0
H428 H 0.47781 0.46924 0.77195 0.0
H429 H 0.43046 0.5207 0.8905 0.0
C430 C 0.59814 0.45723 0.91631 0.0
C431 C 0.63144 0.45433 0.88762 0.0
C432 C 0.6684 0.4803 0.89342 0.0
C433 C 0.67271 0.50986 0.92804 0.0
C434 C 0.63892 0.51314 0.95651 0.0
C435 C 0.60161 0.48729 0.95033 0.0
C436 C 0.5253 0.40644 0.95446 0.0
C437 C 0.48162 0.39452 0.95282 0.0
C438 C 0.46243 0.37677 0.98868 0.0
C439 C 0.48685 0.3695 0.02662 0.0
C440 C 0.53074 0.38144 0.0282 0.0
C441 C 0.54986 0.39952 0.99224 0.0
C442 C 0.51344 0.45644 0.87562 0.0
C443 C 0.51167 0.45343 0.83042 0.0
C444 C 0.4799 0.47376 0.80674 0.0
C445 C 0.44934 0.49699 0.82815 0.0
C446 C 0.45321 0.50243 0.87328 0.0
C447 C 0.48557 0.48285 0.89678 0.0
P448 P 0.74711 0.28199 0.24668 0.0
H449 H 0.82026 0.31592 0.29727 0.0
H450 H 0.8334 0.32828 0.37465 0.0
H451 H 0.70048 0.29675 0.39696 0.0
H452 H 0.68784 0.28261 0.31927 0.0
H453 H 0.81475 0.24042 0.19981 0.0
H454 H 0.84016 0.1677 0.20119 0.0
H455 H 0.74468 0.1338 0.29376 0.0
H456 H 0.71948 0.20611 0.2918 0.0
H457 H 0.6735 0.33577 0.25964 0.0
H458 H 0.70404 0.22828 0.1798 0.0
O459 O 0.77814 0.31327 0.21665 0.0
H460 H 0.60136 0.33455 0.22598 0.0
H461 H 0.63281 0.22737 0.14564 0.0
C462 C 0.75282 0.29968 0.30226 0.0
C463 C 0.79366 0.31262 0.3186 0.0
C464 C 0.80121 0.31932 0.36289 0.0
C465 C 0.76791 0.31353 0.39176 0.0
C466 C 0.72657 0.30194 0.37531 0.0
C467 C 0.71927 0.29423 0.33088 0.0
C468 C 0.76559 0.22861 0.2461 0.0
C469 C 0.79932 0.21723 0.22028 0.0
C470 C 0.81372 0.17564 0.22102 0.0
C471 C 0.79462 0.145 0.24777 0.0
C472 C 0.76033 0.15662 0.27301 0.0
C473 C 0.74589 0.19798 0.27202 0.0
C474 C 0.69355 0.28107 0.22346 0.0
C475 C 0.6645 0.31153 0.2354 0.0
C476 C 0.62339 0.31092 0.21597 0.0
C477 C 0.61127 0.28058 0.18343 0.0
C478 C 0.641 0.25097 0.17078 0.0
C479 C 0.68174 0.2513 0.19055 0.0
P480 P 0.47237 0.02634 0.0738 0.0
H481 H 0.52446 0.07427 0.01301 0.0
H482 H 0.54642 0.05788 0.93969 0.0
H483 H 0.46606 0.94247 0.93806 0.0
H484 H 0.44465 0.95863 0.01031 0.0
H485 H 0.50124 0.08448 0.14417 0.0
H486 H 0.48934 0.15954 0.159 0.0
H487 H 0.40604 0.16303 0.04484 0.0
H488 H 0.41949 0.08818 0.02925 0.0
H489 H 0.47043 0.94252 0.11191 0.0
H490 H 0.37913 0.02929 0.06021 0.0
O491 O 0.51611 0.01369 0.10239 0.0
H492 H 0.41787 0.88373 0.10156 0.0
H493 H 0.32611 0.97047 0.05016 0.0
C494 C 0.48276 0.01802 0.01741 0.0
C495 C 0.51095 0.04594 0.99645 0.0
C496 C 0.52339 0.0365 0.9545 0.0
C497 C 0.5081 0.99869 0.93306 0.0
C498 C 0.4785 0.97179 0.95356 0.0
C499 C 0.46616 0.98122 0.9953 0.0
C500 C 0.46136 0.0809 0.08552 0.0
C501 C 0.48044 0.10136 0.12229 0.0
C502 C 0.47357 0.14425 0.1308 0.0
C503 C 0.44672 0.16709 0.10312 0.0
C504 C 0.42663 0.14611 0.06692 0.0
C505 C 0.43426 0.10339 0.05798 0.0
C506 C 0.42881 0.99035 0.08679 0.0
C507 C 0.43844 0.94939 0.10032 0.0
C508 C 0.40851 0.91562 0.0938 0.0
C509 C 0.36838 0.92246 0.07395 0.0
C510 C 0.35697 0.9643 0.06522 0.0
C511 C 0.38721 0.99808 0.07132 0.0
Zn512 Zn 0.32266 0.80596 0.01751 0.0
Zn513 Zn 0.25346 0.84543 0.03037 0.0
O514 O 0.24905 0.79563 0.07394 0.0
O515 O 0.30106 0.75667 0.05166 0.0
O516 O 0.20189 0.88144 0.03763 0.0
O517 O 0.35893 0.8512 0.04903 0.0
O518 O 0.30165 0.88932 0.04904 0.0
C519 C 0.27042 0.76191 0.07654 0.0
C520 C 0.27757 0.8169 0.93876 0.0
O521 O 0.24962 0.8289 0.96482 0.0
O522 O 0.31427 0.80755 0.95308 0.0
C523 C 0.19703 0.91088 0.01024 0.0
O524 O 0.22365 0.91417 0.97847 0.0
C525 C 0.34143 0.88575 0.05752 0.0
Zn526 Zn 0.04895 0.42093 0.32651 0.0
Zn527 Zn 0.09164 0.49876 0.32386 0.0
O528 O 0.0538 0.50911 0.37404 0.0
O529 O 0.01826 0.44729 0.3774 0.0
O530 O 0.12076 0.55459 0.31232 0.0
O531 O 0.10843 0.3969 0.33808 0.0
O532 O 0.14025 0.46083 0.33879 0.0
C533 C 0.02645 0.48489 0.39201 0.0
C534 C 0.04167 0.45762 0.24403 0.0
O535 O 0.06517 0.48554 0.26462 0.0
O536 O 0.02694 0.42528 0.26343 0.0
C537 C 0.1502 0.57223 0.33637 0.0
O538 O 0.16001 0.55525 0.37379 0.0
C539 C 0.14217 0.42071 0.3425 0.0
Zn540 Zn 0.79607 0.56937 0.91197 0.0
Zn541 Zn 0.77137 0.5974 0.98995 0.0
O542 O 0.82495 0.56613 0.00828 0.0
O543 O 0.84418 0.54202 0.94487 0.0
O544 O 0.75165 0.62605 0.04357 0.0
O545 O 0.80376 0.62956 0.89024 0.0
O546 O 0.7835 0.65033 0.95412 0.0
C547 C 0.85013 0.54511 0.98554 0.0
C548 C 0.71255 0.5366 0.934 0.0
O549 O 0.72031 0.55821 0.9688 0.0
O550 O 0.73952 0.53688 0.90445 0.0
C551 C 0.77685 0.65473 0.06087 0.0
O552 O 0.81584 0.65938 0.04673 0.0
C553 C 0.79589 0.65924 0.91652 0.0
Zn554 Zn 0.82307 0.01978 0.28655 0.0
Zn555 Zn 0.86868 0.03241 0.2158 0.0
O556 O 0.83875 0.08902 0.22479 0.0
O557 O 0.79715 0.07686 0.2795 0.0
O558 O 0.90823 0.04536 0.16727 0.0
O559 O 0.87656 0.01442 0.32372 0.0
O560 O 0.91177 0.01587 0.26345 0.0
C561 C 0.81077 0.10148 0.25057 0.0
C562 C 0.80387 0.95807 0.21658 0.0
O563 O 0.82927 0.98164 0.19512 0.0
O564 O 0.79712 0.96709 0.25573 0.0
C565 C 0.92437 0.01666 0.14433 0.0
O566 O 0.91267 0.97653 0.15 0.0
C567 C 0.91114 0.0112 0.30421 0.0
Zn568 Zn 0.29607 0.06937 0.41197 0.0
Zn569 Zn 0.27137 0.0974 0.48995 0.0
O570 O 0.32495 0.06613 0.50828 0.0
O571 O 0.34418 0.04202 0.44487 0.0
O572 O 0.25165 0.12605 0.54357 0.0
O573 O 0.30376 0.12957 0.39024 0.0
O574 O 0.2835 0.15033 0.45412 0.0
C575 C 0.35013 0.04511 0.48554 0.0
C576 C 0.21255 0.0366 0.434 0.0
O577 O 0.22031 0.05821 0.46879 0.0
O578 O 0.23952 0.03688 0.40445 0.0
C579 C 0.27685 0.15473 0.56087 0.0
O580 O 0.31584 0.15938 0.54673 0.0
C581 C 0.29589 0.15924 0.41652 0.0
Zn582 Zn 0.32307 0.51978 0.78655 0.0
Zn583 Zn 0.36868 0.53241 0.7158 0.0
O584 O 0.33875 0.58902 0.72479 0.0
O585 O 0.29715 0.57686 0.7795 0.0
O586 O 0.40823 0.54536 0.66727 0.0
O587 O 0.37656 0.51442 0.82372 0.0
O588 O 0.41177 0.51587 0.76345 0.0
C589 C 0.31077 0.60148 0.75057 0.0
C590 C 0.30387 0.45807 0.71658 0.0
O591 O 0.32927 0.48164 0.69512 0.0
O592 O 0.29712 0.46709 0.75573 0.0
C593 C 0.42437 0.51666 0.64433 0.0
O594 O 0.41266 0.47653 0.65 0.0
C595 C 0.41114 0.5112 0.80421 0.0
Zn596 Zn 0.82266 0.30596 0.51751 0.0
Zn597 Zn 0.75346 0.34543 0.53037 0.0
O598 O 0.74905 0.29563 0.57394 0.0
O599 O 0.80106 0.25667 0.55166 0.0
O600 O 0.70189 0.38144 0.53763 0.0
O601 O 0.85893 0.3512 0.54903 0.0
O602 O 0.80165 0.38932 0.54904 0.0
C603 C 0.77042 0.26191 0.57654 0.0
C604 C 0.77757 0.3169 0.43876 0.0
O605 O 0.74962 0.3289 0.46482 0.0
O606 O 0.81427 0.30755 0.45308 0.0
C607 C 0.69703 0.41088 0.51024 0.0
O608 O 0.72365 0.41417 0.47847 0.0
C609 C 0.84143 0.38575 0.55752 0.0
Zn610 Zn 0.54895 0.92093 0.82651 0.0
Zn611 Zn 0.59164 -0.00123 0.82386 0.0
O612 O 0.5538 0.00911 0.87404 0.0
O613 O 0.51826 0.94729 0.8774 0.0
O614 O 0.62076 0.05459 0.81232 0.0
O615 O 0.60843 0.8969 0.83808 0.0
O616 O 0.64025 0.96083 0.83879 0.0
C617 C 0.52645 0.98489 0.89201 0.0
C618 C 0.54167 0.95762 0.74403 0.0
O619 O 0.56517 0.98554 0.76462 0.0
O620 O 0.52694 0.92528 0.76343 0.0
C621 C 0.6502 0.07223 0.83637 0.0
O622 O 0.66001 0.05525 0.87379 0.0
C623 C 0.64217 0.92071 0.8425 0.0
Zn624 Zn 0.99542 0.33147 0.82377 0.0
Zn625 Zn 0.02875 0.26479 0.8622 0.0
O626 O 0.06869 0.2733 0.81063 0.0
O627 O 0.03695 0.32521 0.77678 0.0
O628 O 0.05162 0.21523 0.89635 0.0
O629 O 0.01162 0.36952 0.87449 0.0
O630 O 0.03322 0.3131 0.90905 0.0
C631 C 0.06607 0.29846 0.77867 0.0
C632 C 0.9354 0.2622 0.82476 0.0
O633 O 0.96786 0.24435 0.84127 0.0
O634 O 0.93758 0.30158 0.81667 0.0
C635 C 0.03484 0.17758 0.89633 0.0
O636 O 0.00156 0.16793 0.87049 0.0
C637 C 0.02678 0.35289 0.90834 0.0
Zn638 Zn 0.49542 0.83147 0.32377 0.0
Zn639 Zn 0.52875 0.76479 0.3622 0.0
O640 O 0.56869 0.7733 0.31063 0.0
O641 O 0.53695 0.82521 0.27678 0.0
O642 O 0.55162 0.71523 0.39635 0.0
O643 O 0.51162 0.86952 0.37449 0.0
O644 O 0.53322 0.8131 0.40905 0.0
C645 C 0.56607 0.79846 0.27867 0.0
C646 C 0.4354 0.7622 0.32476 0.0
O647 O 0.46786 0.74435 0.34127 0.0
O648 O 0.43758 0.80158 0.31667 0.0
C649 C 0.53484 0.67758 0.39633 0.0
O650 O 0.50156 0.66793 0.37049 0.0
C651 C 0.52678 0.85289 0.40834 0.0
Zn652 Zn 0.90269 0.79467 0.60394 0.0
Zn653 Zn 0.9807 0.79793 0.6473 0.0
O654 O 0.99074 0.83444 0.59434 0.0
O655 O 0.92802 0.83458 0.55986 0.0
O656 O 0.03847 0.8008 0.67813 0.0
O657 O 0.87721 0.81704 0.65911 0.0
O658 O 0.94074 0.82015 0.69217 0.0
C659 C 0.96734 0.84606 0.56257 0.0
C660 C 0.94143 0.71302 0.61086 0.0
O661 O 0.97028 0.73474 0.63249 0.0
O662 O 0.90926 0.73096 0.59454 0.0
C663 C 0.06818 0.77986 0.66222 0.0
O664 O 0.06005 0.75723 0.62661 0.0
C665 C 0.90067 0.82547 0.69264 0.0
Zn666 Zn 0.40269 0.29467 0.10394 0.0
Zn667 Zn 0.4807 0.29793 0.1473 0.0
O668 O 0.49074 0.33444 0.09434 0.0
O669 O 0.42802 0.33458 0.05986 0.0
O670 O 0.53847 0.3008 0.17813 0.0
O671 O 0.37721 0.31704 0.15911 0.0
O672 O 0.44074 0.32015 0.19217 0.0
C673 C 0.46734 0.34606 0.06257 0.0
C674 C 0.44143 0.21302 0.11086 0.0
O675 O 0.47028 0.23474 0.13249 0.0
O676 O 0.40926 0.23096 0.09454 0.0
C677 C 0.56818 0.27986 0.16222 0.0
O678 O 0.56005 0.25723 0.12661 0.0
C679 C 0.40067 0.32547 0.19264 0.0
loop_
_geom_bond_atom_site_label_1
_geom_bond_atom_site_label_2
_geom_bond_distance
_geom_bond_site_symmetry_2
_ccdc_geom_bond_type
P0 O11 1.490 . S
P0 C14 1.812 . S
P0 C20 1.803 . S
P0 C26 1.819 . S
H1 C15 0.941 . S
H2 C16 0.939 . S
H3 C18 0.940 . S
H4 C19 0.940 . S
H5 C21 0.939 . S
H6 C22 0.943 . S
H7 C24 0.940 . S
H8 C25 0.939 . S
H9 C27 0.941 . S
H10 C31 0.936 1_556 S
O11 P0 1.490 . S
H12 C28 0.939 . S
H13 C30 0.940 . S
C14 P0 1.812 . S
C14 C15 1.389 . S
C14 C19 1.391 1_455 S
C15 H1 0.941 . S
C15 C14 1.389 . S
C15 C16 1.397 . S
C16 H2 0.939 . S
C16 C15 1.397 . S
C16 C17 1.378 1_455 S
C17 C16 1.378 1_655 S
C17 C18 1.378 . S
C18 H3 0.940 . S
C18 C17 1.378 . S
C18 C19 1.396 . S
C19 H4 0.940 . S
C19 C14 1.391 1_655 S
C19 C18 1.396 . S
C20 P0 1.803 . S
C20 C21 1.378 . S
C20 C25 1.400 1_545 S
C21 H5 0.939 . S
C21 C20 1.378 . S
C21 C22 1.374 . S
C22 H6 0.943 . S
C22 C21 1.374 . S
C22 C23 1.355 1_545 S
C23 C22 1.355 1_565 S
C23 C24 1.404 . S
C24 H7 0.940 . S
C24 C23 1.404 . S
C24 C25 1.389 . S
C25 H8 0.939 . S
C25 C20 1.400 1_565 S
C25 C24 1.389 . S
C26 P0 1.819 . S
C26 C27 1.391 . S
C26 C31 1.405 . S
C27 H9 0.941 . S
C27 C26 1.391 . S
C27 C28 1.396 . S
C28 H12 0.939 . S
C28 C27 1.396 . S
C28 C29 1.397 1_554 S
C29 C28 1.397 1_556 S
C29 C30 1.385 . S
C30 H13 0.940 . S
C30 C29 1.385 . S
C30 C31 1.378 1_556 S
C31 H10 0.936 1_554 S
C31 C26 1.405 . S
C31 C30 1.378 1_554 S
P32 O43 1.490 . S
P32 C46 1.812 . S
P32 C52 1.803 . S
P32 C58 1.819 . S
H33 C47 0.941 . S
H34 C48 0.939 . S
H35 C50 0.940 . S
H36 C51 0.940 . S
H37 C53 0.939 . S
H38 C54 0.942 . S
H39 C56 0.940 . S
H40 C57 0.939 . S
H41 C59 0.941 . S
H42 C63 0.939 . S
O43 P32 1.490 . S
H44 C60 0.939 . S
H45 C62 0.940 . S
C46 P32 1.812 . S
C46 C47 1.389 . S
C46 C51 1.391 . S
C47 H33 0.941 . S
C47 C46 1.389 . S
C47 C48 1.397 . S
C48 H34 0.939 . S
C48 C47 1.397 . S
C48 C49 1.378 . S
C49 C48 1.378 . S
C49 C50 1.378 . S
C50 H35 0.940 . S
C50 C49 1.378 . S
C50 C51 1.396 . S
C51 H36 0.940 . S
C51 C46 1.391 . S
C51 C50 1.396 . S
C52 P32 1.803 . S
C52 C53 1.378 . S
C52 C57 1.400 . S
C53 H37 0.939 . S
C53 C52 1.378 . S
C53 C54 1.361 . S
C54 H38 0.942 . S
C54 C53 1.361 . S
C54 C55 1.369 . S
C55 C54 1.369 . S
C55 C56 1.404 . S
C56 H39 0.940 . S
C56 C55 1.404 . S
C56 C57 1.389 . S
C57 H40 0.939 . S
C57 C52 1.400 . S
C57 C56 1.389 . S
C58 P32 1.819 . S
C58 C59 1.391 . S
C58 C63 1.391 . S
C59 H41 0.941 . S
C59 C58 1.391 . S
C59 C60 1.396 . S
C60 H44 0.939 . S
C60 C59 1.396 . S
C60 C61 1.397 . S
C61 C60 1.397 . S
C61 C62 1.385 . S
C62 H45 0.940 . S
C62 C61 1.385 . S
C62 C63 1.388 . S
C63 H42 0.939 . S
C63 C58 1.391 . S
C63 C62 1.388 . S
P64 O75 1.490 1_654 S
P64 C78 1.812 . S
P64 C84 1.803 . S
P64 C90 1.819 1_655 S
H65 C79 0.941 . S
H66 C80 0.939 . S
H67 C82 0.940 . S
H68 C83 0.940 . S
H69 C85 0.939 . S
H70 C86 0.942 . S
H71 C88 0.940 . S
H72 C89 0.939 . S
H73 C91 0.941 . S
H74 C95 0.939 . S
O75 P64 1.490 1_456 S
H76 C92 0.939 . S
H77 C94 0.940 . S
C78 P64 1.812 . S
C78 C79 1.389 1_554 S
C78 C83 1.391 . S
C79 H65 0.941 . S
C79 C78 1.389 1_556 S
C79 C80 1.397 . S
C80 H66 0.939 . S
C80 C79 1.397 . S
C80 C81 1.378 . S
C81 C80 1.378 . S
C81 C82 1.378 1_556 S
C82 H67 0.940 . S
C82 C81 1.378 1_554 S
C82 C83 1.396 . S
C83 H68 0.940 . S
C83 C78 1.391 . S
C83 C82 1.396 . S
C84 P64 1.803 . S
C84 C85 1.378 . S
C84 C89 1.400 . S
C85 H69 0.939 . S
C85 C84 1.378 . S
C85 C86 1.361 . S
C86 H70 0.942 . S
C86 C85 1.361 . S
C86 C87 1.369 . S
C87 C86 1.369 . S
C87 C88 1.404 . S
C88 H71 0.940 . S
C88 C87 1.404 . S
C88 C89 1.389 . S
C89 H72 0.939 . S
C89 C84 1.400 . S
C89 C88 1.389 . S
C90 P64 1.819 1_455 S
C90 C91 1.391 . S
C90 C95 1.391 1_455 S
C91 H73 0.941 . S
C91 C90 1.391 . S
C91 C92 1.396 . S
C92 H76 0.939 . S
C92 C91 1.396 . S
C92 C93 1.397 . S
C93 C92 1.397 . S
C93 C94 1.385 1_455 S
C94 H77 0.940 . S
C94 C93 1.385 1_655 S
C94 C95 1.388 . S
C95 H74 0.939 . S
C95 C90 1.391 1_655 S
C95 C94 1.388 . S
P96 O107 1.490 . S
P96 C110 1.812 . S
P96 C116 1.803 . S
P96 C122 1.819 . S
H97 C111 0.941 . S
H98 C112 0.939 . S
H99 C114 0.940 . S
H100 C115 0.940 . S
H101 C117 0.939 . S
H102 C118 0.942 . S
H103 C120 0.940 . S
H104 C121 0.939 . S
H105 C123 0.941 . S
H106 C127 0.939 . S
O107 P96 1.490 . S
H108 C124 0.939 . S
H109 C126 0.940 . S
C110 P96 1.812 . S
C110 C111 1.389 . S
C110 C115 1.391 . S
C111 H97 0.941 . S
C111 C110 1.389 . S
C111 C112 1.397 . S
C112 H98 0.939 . S
C112 C111 1.397 . S
C112 C113 1.378 . S
C113 C112 1.378 . S
C113 C114 1.378 . S
C114 H99 0.940 . S
C114 C113 1.378 . S
C114 C115 1.396 . S
C115 H100 0.940 . S
C115 C110 1.391 . S
C115 C114 1.396 . S
C116 P96 1.803 . S
C116 C117 1.378 . S
C116 C121 1.400 . S
C117 H101 0.939 . S
C117 C116 1.378 . S
C117 C118 1.361 . S
C118 H102 0.942 . S
C118 C117 1.361 . S
C118 C119 1.369 . S
C119 C118 1.369 . S
C119 C120 1.404 . S
C120 H103 0.940 . S
C120 C119 1.404 . S
C120 C121 1.389 . S
C121 H104 0.939 . S
C121 C116 1.400 . S
C121 C120 1.389 . S
C122 P96 1.819 . S
C122 C123 1.391 . S
C122 C127 1.391 . S
C123 H105 0.941 . S
C123 C122 1.391 . S
C123 C124 1.396 . S
C124 H108 0.939 . S
C124 C123 1.396 . S
C124 C125 1.397 . S
C125 C124 1.397 . S
C125 C126 1.385 . S
C126 H109 0.940 . S
C126 C125 1.385 . S
C126 C127 1.388 . S
C127 H106 0.939 . S
C127 C122 1.391 . S
C127 C126 1.388 . S
P128 O139 1.490 . S
P128 C142 1.812 . S
P128 C148 1.803 . S
P128 C154 1.819 . S
H129 C143 0.941 . S
H130 C144 0.942 . S
H131 C146 0.940 . S
H132 C147 0.939 1_545 S
H133 C149 0.939 . S
H134 C150 0.942 . S
H135 C152 0.940 . S
H136 C153 0.939 . S
H137 C155 0.941 . S
H138 C159 0.939 1_655 S
O139 P128 1.490 . S
H140 C156 0.939 . S
H141 C158 0.940 . S
C142 P128 1.812 . S
C142 C143 1.389 . S
C142 C147 1.395 . S
C143 H129 0.941 . S
C143 C142 1.389 . S
C143 C144 1.419 . S
C144 H130 0.942 . S
C144 C143 1.419 . S
C144 C145 1.354 1_565 S
C145 C144 1.354 1_545 S
C145 C146 1.378 . S
C146 H131 0.940 . S
C146 C145 1.378 . S
C146 C147 1.393 1_545 S
C147 H132 0.939 1_565 S
C147 C142 1.395 . S
C147 C146 1.393 1_565 S
C148 P128 1.803 . S
C148 C149 1.378 . S
C148 C153 1.400 . S
C149 H133 0.939 . S
C149 C148 1.378 . S
C149 C150 1.361 . S
C150 H134 0.942 . S
C150 C149 1.361 . S
C150 C151 1.369 . S
C151 C150 1.369 . S
C151 C152 1.404 . S
C152 H135 0.940 . S
C152 C151 1.404 . S
C152 C153 1.389 . S
C153 H136 0.939 . S
C153 C148 1.400 . S
C153 C152 1.389 . S
C154 P128 1.819 . S
C154 C155 1.391 . S
C154 C159 1.391 . S
C155 H137 0.941 . S
C155 C154 1.391 . S
C155 C156 1.396 . S
C156 H140 0.939 . S
C156 C155 1.396 . S
C156 C157 1.397 1_455 S
C157 C156 1.397 1_655 S
C157 C158 1.385 . S
C158 H141 0.940 . S
C158 C157 1.385 . S
C158 C159 1.388 1_655 S
C159 H138 0.939 1_455 S
C159 C154 1.391 . S
C159 C158 1.388 1_455 S
P160 O171 1.490 . S
P160 C174 1.812 . S
P160 C180 1.803 . S
P160 C186 1.819 . S
H161 C175 0.941 . S
H162 C176 0.939 . S
H163 C178 0.940 . S
H164 C179 0.940 . S
H165 C181 0.939 . S
H166 C182 0.942 . S
H167 C184 0.940 . S
H168 C185 0.939 . S
H169 C187 0.941 . S
H170 C191 0.939 . S
O171 P160 1.490 . S
H172 C188 0.939 . S
H173 C190 0.940 . S
C174 P160 1.812 . S
C174 C175 1.389 . S
C174 C179 1.391 . S
C175 H161 0.941 . S
C175 C174 1.389 . S
C175 C176 1.397 . S
C176 H162 0.939 . S
C176 C175 1.397 . S
C176 C177 1.378 . S
C177 C176 1.378 . S
C177 C178 1.378 . S
C178 H163 0.940 . S
C178 C177 1.378 . S
C178 C179 1.396 . S
C179 H164 0.940 . S
C179 C174 1.391 . S
C179 C178 1.396 . S
C180 P160 1.803 . S
C180 C181 1.378 . S
C180 C185 1.400 . S
C181 H165 0.939 . S
C181 C180 1.378 . S
C181 C182 1.361 . S
C182 H166 0.942 . S
C182 C181 1.361 . S
C182 C183 1.369 . S
C183 C182 1.369 . S
C183 C184 1.404 . S
C184 H167 0.940 . S
C184 C183 1.404 . S
C184 C185 1.389 . S
C185 H168 0.939 . S
C185 C180 1.400 . S
C185 C184 1.389 . S
C186 P160 1.819 . S
C186 C187 1.391 . S
C186 C191 1.391 . S
C187 H169 0.941 . S
C187 C186 1.391 . S
C187 C188 1.396 . S
C188 H172 0.939 . S
C188 C187 1.396 . S
C188 C189 1.397 . S
C189 C188 1.397 . S
C189 C190 1.385 . S
C190 H173 0.940 . S
C190 C189 1.385 . S
C190 C191 1.388 . S
C191 H170 0.939 . S
C191 C186 1.391 . S
C191 C190 1.388 . S
P192 O203 1.490 1_655 S
P192 C206 1.812 1_655 S
P192 C212 1.803 . S
P192 C218 1.819 . S
H193 C207 0.941 . S
H194 C208 0.939 . S
H195 C210 0.940 1_655 S
H196 C211 0.940 . S
H197 C213 0.940 . S
H198 C214 0.942 1_455 S
H199 C216 0.940 . S
H200 C217 0.939 . S
H201 C219 0.941 . S
H202 C223 0.939 . S
O203 P192 1.490 1_455 S
H204 C220 0.939 . S
H205 C222 0.940 . S
C206 P192 1.812 1_455 S
C206 C207 1.389 . S
C206 C211 1.391 1_455 S
C207 H193 0.941 . S
C207 C206 1.389 . S
C207 C208 1.397 . S
C208 H194 0.939 . S
C208 C207 1.397 . S
C208 C209 1.378 . S
C209 C208 1.378 . S
C209 C210 1.378 . S
C210 H195 0.940 1_455 S
C210 C209 1.378 . S
C210 C211 1.396 1_455 S
C211 H196 0.940 . S
C211 C206 1.391 1_655 S
C211 C210 1.396 1_655 S
C212 P192 1.803 . S
C212 C213 1.378 1_655 S
C212 C217 1.400 . S
C213 H197 0.940 . S
C213 C212 1.378 1_455 S
C213 C214 1.360 1_455 S
C214 H198 0.942 1_655 S
C214 C213 1.360 1_655 S
C214 C215 1.369 . S
C215 C214 1.369 . S
C215 C216 1.404 . S
C216 H199 0.940 . S
C216 C215 1.404 . S
C216 C217 1.389 . S
C217 H200 0.939 . S
C217 C212 1.400 . S
C217 C216 1.389 . S
C218 P192 1.819 . S
C218 C219 1.391 . S
C218 C223 1.391 . S
C219 H201 0.941 . S
C219 C218 1.391 . S
C219 C220 1.396 . S
C220 H204 0.939 . S
C220 C219 1.396 . S
C220 C221 1.397 . S
C221 C220 1.397 . S
C221 C222 1.385 . S
C222 H205 0.940 . S
C222 C221 1.385 . S
C222 C223 1.388 . S
C223 H202 0.939 . S
C223 C218 1.391 . S
C223 C222 1.388 . S
P224 O235 1.490 . S
P224 C238 1.812 . S
P224 C244 1.803 . S
P224 C250 1.819 . S
H225 C239 0.941 . S
H226 C240 0.939 . S
H227 C242 0.940 . S
H228 C243 0.940 . S
H229 C245 0.939 . S
H230 C246 0.942 . S
H231 C248 0.940 . S
H232 C249 0.939 . S
H233 C251 0.941 . S
H234 C255 0.939 . S
O235 P224 1.490 . S
H236 C252 0.939 . S
H237 C254 0.940 . S
C238 P224 1.812 . S
C238 C239 1.389 . S
C238 C243 1.391 . S
C239 H225 0.941 . S
C239 C238 1.389 . S
C239 C240 1.397 . S
C240 H226 0.939 . S
C240 C239 1.397 . S
C240 C241 1.378 . S
C241 C240 1.378 . S
C241 C242 1.378 . S
C242 H227 0.940 . S
C242 C241 1.378 . S
C242 C243 1.396 . S
C243 H228 0.940 . S
C243 C238 1.391 . S
C243 C242 1.396 . S
C244 P224 1.803 . S
C244 C245 1.378 . S
C244 C249 1.400 . S
C245 H229 0.939 . S
C245 C244 1.378 . S
C245 C246 1.361 . S
C246 H230 0.942 . S
C246 C245 1.361 . S
C246 C247 1.369 . S
C247 C246 1.369 . S
C247 C248 1.404 . S
C248 H231 0.940 . S
C248 C247 1.404 . S
C248 C249 1.389 . S
C249 H232 0.939 . S
C249 C244 1.400 . S
C249 C248 1.389 . S
C250 P224 1.819 . S
C250 C251 1.391 . S
C250 C255 1.391 . S
C251 H233 0.941 . S
C251 C250 1.391 . S
C251 C252 1.396 . S
C252 H236 0.939 . S
C252 C251 1.396 . S
C252 C253 1.397 . S
C253 C252 1.397 . S
C253 C254 1.385 . S
C254 H237 0.940 . S
C254 C253 1.385 . S
C254 C255 1.388 . S
C255 H234 0.939 . S
C255 C250 1.391 . S
C255 C254 1.388 . S
P256 O267 1.490 . S
P256 C270 1.812 . S
P256 C276 1.803 . S
P256 C282 1.819 . S
H257 C271 0.941 . S
H258 C272 0.939 . S
H259 C274 0.940 . S
H260 C275 0.940 . S
H261 C277 0.939 . S
H262 C278 0.942 . S
H263 C280 0.940 . S
H264 C281 0.939 . S
H265 C283 0.941 . S
H266 C287 0.939 . S
O267 P256 1.490 . S
H268 C284 0.939 . S
H269 C286 0.940 . S
C270 P256 1.812 . S
C270 C271 1.389 . S
C270 C275 1.391 . S
C271 H257 0.941 . S
C271 C270 1.389 . S
C271 C272 1.397 . S
C272 H258 0.939 . S
C272 C271 1.397 . S
C272 C273 1.378 . S
C273 C272 1.378 . S
C273 C274 1.378 . S
C274 H259 0.940 . S
C274 C273 1.378 . S
C274 C275 1.396 . S
C275 H260 0.940 . S
C275 C270 1.391 . S
C275 C274 1.396 . S
C276 P256 1.803 . S
C276 C277 1.378 . S
C276 C281 1.400 . S
C277 H261 0.939 . S
C277 C276 1.378 . S
C277 C278 1.361 . S
C278 H262 0.942 . S
C278 C277 1.361 . S
C278 C279 1.369 . S
C279 C278 1.369 . S
C279 C280 1.404 . S
C280 H263 0.940 . S
C280 C279 1.404 . S
C280 C281 1.389 . S
C281 H264 0.939 . S
C281 C276 1.400 . S
C281 C280 1.389 . S
C282 P256 1.819 . S
C282 C283 1.391 . S
C282 C287 1.391 . S
C283 H265 0.941 . S
C283 C282 1.391 . S
C283 C284 1.396 . S
C284 H268 0.939 . S
C284 C283 1.396 . S
C284 C285 1.397 . S
C285 C284 1.397 . S
C285 C286 1.385 . S
C286 H269 0.940 . S
C286 C285 1.385 . S
C286 C287 1.388 . S
C287 H266 0.939 . S
C287 C282 1.391 . S
C287 C286 1.388 . S
P288 O299 1.487 1_565 S
P288 C302 1.815 . S
P288 C308 1.802 1_565 S
P288 C314 1.819 . S
H289 C303 0.941 . S
H290 C304 0.939 . S
H291 C306 0.940 . S
H292 C307 0.940 . S
H293 C309 0.939 . S
H294 C310 0.942 . S
H295 C312 0.940 1_565 S
H296 C313 0.939 . S
H297 C315 0.941 . S
H298 C319 0.939 . S
O299 P288 1.487 1_545 S
H300 C316 0.939 . S
H301 C318 0.938 1_545 S
C302 P288 1.815 . S
C302 C303 1.389 . S
C302 C307 1.391 . S
C303 H289 0.941 . S
C303 C302 1.389 . S
C303 C304 1.397 . S
C304 H290 0.939 . S
C304 C303 1.397 . S
C304 C305 1.378 . S
C305 C304 1.378 . S
C305 C306 1.378 . S
C306 H291 0.940 . S
C306 C305 1.378 . S
C306 C307 1.396 . S
C307 H292 0.940 . S
C307 C302 1.391 . S
C307 C306 1.396 . S
C308 P288 1.802 1_545 S
C308 C309 1.378 . S
C308 C313 1.400 1_545 S
C309 H293 0.939 . S
C309 C308 1.378 . S
C309 C310 1.361 . S
C310 H294 0.942 . S
C310 C309 1.361 . S
C310 C311 1.369 . S
C311 C310 1.369 . S
C311 C312 1.404 . S
C312 H295 0.940 1_545 S
C312 C311 1.404 . S
C312 C313 1.389 1_545 S
C313 H296 0.939 . S
C313 C308 1.400 1_565 S
C313 C312 1.389 1_565 S
C314 P288 1.819 . S
C314 C315 1.391 . S
C314 C319 1.391 1_565 S
C315 H297 0.941 . S
C315 C314 1.391 . S
C315 C316 1.396 . S
C316 H300 0.939 . S
C316 C315 1.396 . S
C316 C317 1.397 . S
C317 C316 1.397 . S
C317 C318 1.390 . S
C318 H301 0.938 1_565 S
C318 C317 1.390 . S
C318 C319 1.386 1_565 S
C319 H298 0.939 . S
C319 C314 1.391 1_545 S
C319 C318 1.386 1_545 S
P320 O331 1.490 . S
P320 C334 1.812 . S
P320 C340 1.803 . S
P320 C346 1.819 . S
H321 C335 0.941 . S
H322 C336 0.939 . S
H323 C338 0.940 . S
H324 C339 0.940 . S
H325 C341 0.939 . S
H326 C342 0.942 . S
H327 C344 0.940 . S
H328 C345 0.939 . S
H329 C347 0.941 . S
H330 C351 0.939 . S
O331 P320 1.490 . S
H332 C348 0.939 . S
H333 C350 0.940 . S
C334 P320 1.812 . S
C334 C335 1.389 . S
C334 C339 1.391 . S
C335 H321 0.941 . S
C335 C334 1.389 . S
C335 C336 1.397 . S
C336 H322 0.939 . S
C336 C335 1.397 . S
C336 C337 1.378 . S
C337 C336 1.378 . S
C337 C338 1.378 . S
C338 H323 0.940 . S
C338 C337 1.378 . S
C338 C339 1.396 . S
C339 H324 0.940 . S
C339 C334 1.391 . S
C339 C338 1.396 . S
C340 P320 1.803 . S
C340 C341 1.378 . S
C340 C345 1.400 . S
C341 H325 0.939 . S
C341 C340 1.378 . S
C341 C342 1.361 . S
C342 H326 0.942 . S
C342 C341 1.361 . S
C342 C343 1.369 . S
C343 C342 1.369 . S
C343 C344 1.404 . S
C344 H327 0.940 . S
C344 C343 1.404 . S
C344 C345 1.389 . S
C345 H328 0.939 . S
C345 C340 1.400 . S
C345 C344 1.389 . S
C346 P320 1.819 . S
C346 C347 1.391 . S
C346 C351 1.391 . S
C347 H329 0.941 . S
C347 C346 1.391 . S
C347 C348 1.396 . S
C348 H332 0.939 . S
C348 C347 1.396 . S
C348 C349 1.397 . S
C349 C348 1.397 . S
C349 C350 1.385 . S
C350 H333 0.940 . S
C350 C349 1.385 . S
C350 C351 1.388 . S
C351 H330 0.939 . S
C351 C346 1.391 . S
C351 C350 1.388 . S
P352 O363 1.490 . S
P352 C366 1.812 . S
P352 C372 1.803 . S
P352 C378 1.819 . S
H353 C367 0.941 . S
H354 C368 0.939 . S
H355 C370 0.940 . S
H356 C371 0.940 . S
H357 C373 0.939 . S
H358 C374 0.942 . S
H359 C376 0.940 . S
H360 C377 0.939 . S
H361 C379 0.941 . S
H362 C383 0.939 . S
O363 P352 1.490 . S
H364 C380 0.939 . S
H365 C382 0.940 . S
C366 P352 1.812 . S
C366 C367 1.389 . S
C366 C371 1.391 . S
C367 H353 0.941 . S
C367 C366 1.389 . S
C367 C368 1.397 . S
C368 H354 0.939 . S
C368 C367 1.397 . S
C368 C369 1.378 . S
C369 C368 1.378 . S
C369 C370 1.378 . S
C370 H355 0.940 . S
C370 C369 1.378 . S
C370 C371 1.396 . S
C371 H356 0.940 . S
C371 C366 1.391 . S
C371 C370 1.396 . S
C372 P352 1.803 . S
C372 C373 1.378 . S
C372 C377 1.400 . S
C373 H357 0.939 . S
C373 C372 1.378 . S
C373 C374 1.361 . S
C374 H358 0.942 . S
C374 C373 1.361 . S
C374 C375 1.369 . S
C375 C374 1.369 . S
C375 C376 1.404 . S
C376 H359 0.940 . S
C376 C375 1.404 . S
C376 C377 1.389 . S
C377 H360 0.939 . S
C377 C372 1.400 . S
C377 C376 1.389 . S
C378 P352 1.819 . S
C378 C379 1.391 . S
C378 C383 1.391 . S
C379 H361 0.941 . S
C379 C378 1.391 . S
C379 C380 1.396 . S
C380 H364 0.939 . S
C380 C379 1.396 . S
C380 C381 1.397 . S
C381 C380 1.397 . S
C381 C382 1.385 . S
C382 H365 0.940 . S
C382 C381 1.385 . S
C382 C383 1.388 . S
C383 H362 0.939 . S
C383 C378 1.391 . S
C383 C382 1.388 . S
P384 O395 1.490 . S
P384 C398 1.812 . S
P384 C404 1.803 . S
P384 C410 1.819 . S
H385 C399 0.941 . S
H386 C400 0.939 . S
H387 C402 0.940 . S
H388 C403 0.940 . S
H389 C405 0.939 . S
H390 C406 0.942 . S
H391 C408 0.940 . S
H392 C409 0.939 . S
H393 C411 0.941 . S
H394 C415 0.939 . S
O395 P384 1.490 . S
H396 C412 0.939 . S
H397 C414 0.940 . S
C398 P384 1.812 . S
C398 C399 1.389 . S
C398 C403 1.391 . S
C399 H385 0.941 . S
C399 C398 1.389 . S
C399 C400 1.397 . S
C400 H386 0.939 . S
C400 C399 1.397 . S
C400 C401 1.378 . S
C401 C400 1.378 . S
C401 C402 1.378 . S
C402 H387 0.940 . S
C402 C401 1.378 . S
C402 C403 1.396 . S
C403 H388 0.940 . S
C403 C398 1.391 . S
C403 C402 1.396 . S
C404 P384 1.803 . S
C404 C405 1.378 . S
C404 C409 1.400 . S
C405 H389 0.939 . S
C405 C404 1.378 . S
C405 C406 1.361 . S
C406 H390 0.942 . S
C406 C405 1.361 . S
C406 C407 1.369 . S
C407 C406 1.369 . S
C407 C408 1.404 . S
C408 H391 0.940 . S
C408 C407 1.404 . S
C408 C409 1.389 . S
C409 H392 0.939 . S
C409 C404 1.400 . S
C409 C408 1.389 . S
C410 P384 1.819 . S
C410 C411 1.391 . S
C410 C415 1.391 . S
C411 H393 0.941 . S
C411 C410 1.391 . S
C411 C412 1.396 . S
C412 H396 0.939 . S
C412 C411 1.396 . S
C412 C413 1.397 . S
C413 C412 1.397 . S
C413 C414 1.385 . S
C414 H397 0.940 . S
C414 C413 1.385 . S
C414 C415 1.388 . S
C415 H394 0.939 . S
C415 C410 1.391 . S
C415 C414 1.388 . S
P416 O427 1.490 . S
P416 C430 1.812 . S
P416 C436 1.803 . S
P416 C442 1.819 . S
H417 C431 0.941 . S
H418 C432 0.939 . S
H419 C434 0.940 . S
H420 C435 0.940 . S
H421 C437 0.939 . S
H422 C438 0.942 . S
H423 C440 0.940 . S
H424 C441 0.939 . S
H425 C443 0.941 . S
H426 C447 0.939 . S
O427 P416 1.490 . S
H428 C444 0.939 . S
H429 C446 0.940 . S
C430 P416 1.812 . S
C430 C431 1.389 . S
C430 C435 1.391 . S
C431 H417 0.941 . S
C431 C430 1.389 . S
C431 C432 1.397 . S
C432 H418 0.939 . S
C432 C431 1.397 . S
C432 C433 1.378 . S
C433 C432 1.378 . S
C433 C434 1.378 . S
C434 H419 0.940 . S
C434 C433 1.378 . S
C434 C435 1.396 . S
C435 H420 0.940 . S
C435 C430 1.391 . S
C435 C434 1.396 . S
C436 P416 1.803 . S
C436 C437 1.378 . S
C436 C441 1.400 1_556 S
C437 H421 0.939 . S
C437 C436 1.378 . S
C437 C438 1.361 1_556 S
C438 H422 0.942 . S
C438 C437 1.361 1_554 S
C438 C439 1.369 . S
C439 C438 1.369 . S
C439 C440 1.404 . S
C440 H423 0.940 . S
C440 C439 1.404 . S
C440 C441 1.389 . S
C441 H424 0.939 . S
C441 C436 1.400 1_554 S
C441 C440 1.389 . S
C442 P416 1.819 . S
C442 C443 1.391 . S
C442 C447 1.391 . S
C443 H425 0.941 . S
C443 C442 1.391 . S
C443 C444 1.396 . S
C444 H428 0.939 . S
C444 C443 1.396 . S
C444 C445 1.397 . S
C445 C444 1.397 . S
C445 C446 1.385 . S
C446 H429 0.940 . S
C446 C445 1.385 . S
C446 C447 1.388 . S
C447 H426 0.939 . S
C447 C442 1.391 . S
C447 C446 1.388 . S
P448 O459 1.490 . S
P448 C462 1.812 . S
P448 C468 1.803 . S
P448 C474 1.819 . S
H449 C463 0.941 . S
H450 C464 0.939 . S
H451 C466 0.940 . S
H452 C467 0.940 . S
H453 C469 0.939 . S
H454 C470 0.942 . S
H455 C472 0.940 . S
H456 C473 0.939 . S
H457 C475 0.941 . S
H458 C479 0.939 . S
O459 P448 1.490 . S
H460 C476 0.939 . S
H461 C478 0.940 . S
C462 P448 1.812 . S
C462 C463 1.389 . S
C462 C467 1.391 . S
C463 H449 0.941 . S
C463 C462 1.389 . S
C463 C464 1.397 . S
C464 H450 0.939 . S
C464 C463 1.397 . S
C464 C465 1.378 . S
C465 C464 1.378 . S
C465 C466 1.378 . S
C466 H451 0.940 . S
C466 C465 1.378 . S
C466 C467 1.396 . S
C467 H452 0.940 . S
C467 C462 1.391 . S
C467 C466 1.396 . S
C468 P448 1.803 . S
C468 C469 1.378 . S
C468 C473 1.400 . S
C469 H453 0.939 . S
C469 C468 1.378 . S
C469 C470 1.361 . S
C470 H454 0.942 . S
C470 C469 1.361 . S
C470 C471 1.369 . S
C471 C470 1.369 . S
C471 C472 1.404 . S
C472 H455 0.940 . S
C472 C471 1.404 . S
C472 C473 1.389 . S
C473 H456 0.939 . S
C473 C468 1.400 . S
C473 C472 1.389 . S
C474 P448 1.819 . S
C474 C475 1.391 . S
C474 C479 1.391 . S
C475 H457 0.941 . S
C475 C474 1.391 . S
C475 C476 1.396 . S
C476 H460 0.939 . S
C476 C475 1.396 . S
C476 C477 1.397 . S
C477 C476 1.397 . S
C477 C478 1.385 . S
C478 H461 0.940 . S
C478 C477 1.385 . S
C478 C479 1.388 . S
C479 H458 0.939 . S
C479 C474 1.391 . S
C479 C478 1.388 . S
P480 O491 1.490 1_556 S
P480 C494 1.812 . S
P480 C500 1.803 1_556 S
P480 C506 1.819 . S
H481 C495 0.941 . S
H482 C496 0.939 . S
H483 C498 0.940 . S
H484 C499 0.940 . S
H485 C501 0.939 . S
H486 C502 0.942 . S
H487 C504 0.940 1_556 S
H488 C505 0.939 . S
H489 C507 0.941 . S
H490 C511 0.939 1_554 S
O491 P480 1.490 1_554 S
H492 C508 0.939 . S
H493 C510 0.940 . S
C494 P480 1.812 . S
C494 C495 1.389 . S
C494 C499 1.391 . S
C495 H481 0.941 . S
C495 C494 1.389 . S
C495 C496 1.397 . S
C496 H482 0.939 . S
C496 C495 1.397 . S
C496 C497 1.378 . S
C497 C496 1.378 . S
C497 C498 1.378 . S
C498 H483 0.940 . S
C498 C497 1.378 . S
C498 C499 1.396 . S
C499 H484 0.940 . S
C499 C494 1.391 . S
C499 C498 1.396 . S
C500 P480 1.803 1_554 S
C500 C501 1.378 . S
C500 C505 1.400 1_554 S
C501 H485 0.939 . S
C501 C500 1.378 . S
C501 C502 1.361 . S
C502 H486 0.942 . S
C502 C501 1.361 . S
C502 C503 1.369 . S
C503 C502 1.369 . S
C503 C504 1.404 . S
C504 H487 0.940 1_554 S
C504 C503 1.404 . S
C504 C505 1.389 1_554 S
C505 H488 0.939 . S
C505 C500 1.400 1_556 S
C505 C504 1.389 1_556 S
C506 P480 1.819 . S
C506 C507 1.391 1_545 S
C506 C511 1.391 . S
C507 H489 0.941 . S
C507 C506 1.391 1_565 S
C507 C508 1.396 . S
C508 H492 0.939 . S
C508 C507 1.396 . S
C508 C509 1.397 . S
C509 C508 1.397 . S
C509 C510 1.385 1_565 S
C510 H493 0.940 . S
C510 C509 1.385 1_545 S
C510 C511 1.388 . S
C511 H490 0.939 1_556 S
C511 C506 1.391 . S
C511 C510 1.388 . S
Zn512 O515 2.031 . S
Zn512 O517 2.049 1_554 S
Zn512 O522 2.067 1_554 S
Zn513 O514 1.962 . S
Zn513 O516 1.986 . S
Zn513 O518 1.996 . S
Zn513 O521 1.943 1_554 S
O514 Zn513 1.962 . S
O514 C519 1.254 . S
O515 Zn512 2.031 . S
O515 C519 1.269 . S
O516 Zn513 1.986 . S
O516 C523 1.262 . S
O517 Zn512 2.049 1_556 S
O517 C525 1.260 . S
O518 Zn513 1.996 . S
O518 C525 1.257 1_554 S
C519 O514 1.254 . S
C519 O515 1.269 . S
C520 O521 1.249 . S
C520 O522 1.270 . S
O521 Zn513 1.943 1_556 S
O521 C520 1.249 . S
O522 Zn512 2.067 1_556 S
O522 C520 1.270 . S
C523 O516 1.262 . S
C523 O524 1.232 . S
O524 C523 1.232 . S
C525 O517 1.260 . S
C525 O518 1.257 1_556 S
Zn526 O529 2.031 . S
Zn526 O531 2.049 . S
Zn526 O536 2.067 . S
Zn527 O528 1.962 . S
Zn527 O530 1.986 . S
Zn527 O532 1.996 . S
Zn527 O535 1.943 . S
O528 Zn527 1.962 . S
O528 C533 1.254 . S
O529 Zn526 2.031 . S
O529 C533 1.269 . S
O530 Zn527 1.986 . S
O530 C537 1.262 . S
O531 Zn526 2.049 . S
O531 C539 1.260 . S
O532 Zn527 1.996 . S
O532 C539 1.257 . S
C533 O528 1.254 . S
C533 O529 1.269 . S
C534 O535 1.249 . S
C534 O536 1.270 . S
O535 Zn527 1.943 . S
O535 C534 1.249 . S
O536 Zn526 2.067 . S
O536 C534 1.270 . S
C537 O530 1.262 . S
C537 O538 1.232 . S
O538 C537 1.232 . S
C539 O531 1.260 . S
C539 O532 1.257 . S
Zn540 O543 2.031 . S
Zn540 O545 2.049 . S
Zn540 O550 2.067 . S
Zn541 O542 1.962 . S
Zn541 O544 1.986 . S
Zn541 O546 1.996 1_554 S
Zn541 O549 1.943 . S
O542 Zn541 1.962 . S
O542 C547 1.254 . S
O543 Zn540 2.031 . S
O543 C547 1.269 1_556 S
O544 Zn541 1.986 . S
O544 C551 1.262 . S
O545 Zn540 2.049 . S
O545 C553 1.260 . S
O546 Zn541 1.996 1_556 S
O546 C553 1.257 . S
C547 O542 1.254 . S
C547 O543 1.269 1_554 S
C548 O549 1.249 1_556 S
C548 O550 1.270 . S
O549 Zn541 1.943 . S
O549 C548 1.249 1_554 S
O550 Zn540 2.067 . S
O550 C548 1.270 . S
C551 O544 1.262 . S
C551 O552 1.232 . S
O552 C551 1.232 . S
C553 O545 1.260 . S
C553 O546 1.257 . S
Zn554 O557 2.031 1_565 S
Zn554 O559 2.049 . S
Zn554 O564 2.067 . S
Zn555 O556 1.962 . S
Zn555 O558 1.986 . S
Zn555 O560 1.996 . S
Zn555 O563 1.943 1_545 S
O556 Zn555 1.962 . S
O556 C561 1.254 . S
O557 Zn554 2.031 1_545 S
O557 C561 1.269 . S
O558 Zn555 1.986 . S
O558 C565 1.262 . S
O559 Zn554 2.049 . S
O559 C567 1.260 . S
O560 Zn555 1.996 . S
O560 C567 1.257 1_545 S
C561 O556 1.254 . S
C561 O557 1.269 . S
C562 O563 1.249 . S
C562 O564 1.270 . S
O563 Zn555 1.943 1_565 S
O563 C562 1.249 . S
O564 Zn554 2.067 . S
O564 C562 1.270 . S
C565 O558 1.262 . S
C565 O566 1.232 . S
O566 C565 1.232 . S
C567 O559 1.260 . S
C567 O560 1.257 1_565 S
Zn568 O571 2.031 . S
Zn568 O573 2.049 . S
Zn568 O578 2.067 . S
Zn569 O570 1.962 . S
Zn569 O572 1.986 . S
Zn569 O574 1.996 . S
Zn569 O577 1.943 . S
O570 Zn569 1.962 . S
O570 C575 1.254 . S
O571 Zn568 2.031 . S
O571 C575 1.269 . S
O572 Zn569 1.986 . S
O572 C579 1.262 . S
O573 Zn568 2.049 . S
O573 C581 1.260 . S
O574 Zn569 1.996 . S
O574 C581 1.257 . S
C575 O570 1.254 . S
C575 O571 1.269 . S
C576 O577 1.249 . S
C576 O578 1.270 . S
O577 Zn569 1.943 . S
O577 C576 1.249 . S
O578 Zn568 2.067 . S
O578 C576 1.270 . S
C579 O572 1.262 . S
C579 O580 1.232 . S
O580 C579 1.232 . S
C581 O573 1.260 . S
C581 O574 1.257 . S
Zn582 O585 2.031 . S
Zn582 O587 2.049 . S
Zn582 O592 2.067 . S
Zn583 O584 1.962 . S
Zn583 O586 1.986 . S
Zn583 O588 1.996 . S
Zn583 O591 1.943 . S
O584 Zn583 1.962 . S
O584 C589 1.254 . S
O585 Zn582 2.031 . S
O585 C589 1.269 . S
O586 Zn583 1.986 . S
O586 C593 1.262 . S
O587 Zn582 2.049 . S
O587 C595 1.260 . S
O588 Zn583 1.996 . S
O588 C595 1.257 . S
C589 O584 1.254 . S
C589 O585 1.269 . S
C590 O591 1.249 . S
C590 O592 1.270 . S
O591 Zn583 1.943 . S
O591 C590 1.249 . S
O592 Zn582 2.067 . S
O592 C590 1.270 . S
C593 O586 1.262 . S
C593 O594 1.232 . S
O594 C593 1.232 . S
C595 O587 1.260 . S
C595 O588 1.257 . S
Zn596 O599 2.031 . S
Zn596 O601 2.049 . S
Zn596 O606 2.067 . S
Zn597 O598 1.962 . S
Zn597 O600 1.986 . S
Zn597 O602 1.996 . S
Zn597 O605 1.943 . S
O598 Zn597 1.962 . S
O598 C603 1.254 . S
O599 Zn596 2.031 . S
O599 C603 1.269 . S
O600 Zn597 1.986 . S
O600 C607 1.262 . S
O601 Zn596 2.049 . S
O601 C609 1.260 . S
O602 Zn597 1.996 . S
O602 C609 1.257 . S
C603 O598 1.254 . S
C603 O599 1.269 . S
C604 O605 1.249 . S
C604 O606 1.270 . S
O605 Zn597 1.943 . S
O605 C604 1.249 . S
O606 Zn596 2.067 . S
O606 C604 1.270 . S
C607 O600 1.262 . S
C607 O608 1.232 . S
O608 C607 1.232 . S
C609 O601 1.260 . S
C609 O602 1.257 . S
Zn610 O613 2.031 . S
Zn610 O615 2.049 . S
Zn610 O620 2.067 . S
Zn611 O612 1.962 . S
Zn611 O614 1.986 . S
Zn611 O616 1.996 1_545 S
Zn611 O619 1.943 . S
O612 Zn611 1.962 . S
O612 C617 1.254 . S
O613 Zn610 2.031 . S
O613 C617 1.269 1_565 S
O614 Zn611 1.986 . S
O614 C621 1.262 . S
O615 Zn610 2.049 . S
O615 C623 1.260 . S
O616 Zn611 1.996 1_565 S
O616 C623 1.257 . S
C617 O612 1.254 . S
C617 O613 1.269 1_545 S
C618 O619 1.249 1_565 S
C618 O620 1.270 . S
O619 Zn611 1.943 . S
O619 C618 1.249 1_545 S
O620 Zn610 2.067 . S
O620 C618 1.270 . S
C621 O614 1.262 . S
C621 O622 1.232 . S
O622 C621 1.232 . S
C623 O615 1.260 . S
C623 O616 1.257 . S
Zn624 O627 2.031 . S
Zn624 O629 2.049 1_455 S
Zn624 O634 2.067 1_455 S
Zn625 O626 1.962 . S
Zn625 O628 1.986 . S
Zn625 O630 1.996 . S
Zn625 O633 1.943 1_455 S
O626 Zn625 1.962 . S
O626 C631 1.254 . S
O627 Zn624 2.031 . S
O627 C631 1.269 . S
O628 Zn625 1.986 . S
O628 C635 1.262 . S
O629 Zn624 2.049 1_655 S
O629 C637 1.260 . S
O630 Zn625 1.996 . S
O630 C637 1.257 1_455 S
C631 O626 1.254 . S
C631 O627 1.269 . S
C632 O633 1.249 . S
C632 O634 1.270 . S
O633 Zn625 1.943 1_655 S
O633 C632 1.249 . S
O634 Zn624 2.067 1_655 S
O634 C632 1.270 . S
C635 O628 1.262 . S
C635 O636 1.232 . S
O636 C635 1.232 . S
C637 O629 1.260 . S
C637 O630 1.257 1_655 S
Zn638 O641 2.031 . S
Zn638 O643 2.049 . S
Zn638 O648 2.067 . S
Zn639 O640 1.962 . S
Zn639 O642 1.986 . S
Zn639 O644 1.996 . S
Zn639 O647 1.943 . S
O640 Zn639 1.962 . S
O640 C645 1.254 . S
O641 Zn638 2.031 . S
O641 C645 1.269 . S
O642 Zn639 1.986 . S
O642 C649 1.262 . S
O643 Zn638 2.049 . S
O643 C651 1.260 . S
O644 Zn639 1.996 . S
O644 C651 1.257 . S
C645 O640 1.254 . S
C645 O641 1.269 . S
C646 O647 1.249 . S
C646 O648 1.270 . S
O647 Zn639 1.943 . S
O647 C646 1.249 . S
O648 Zn638 2.067 . S
O648 C646 1.270 . S
C649 O642 1.262 . S
C649 O650 1.232 . S
O650 C649 1.232 . S
C651 O643 1.260 . S
C651 O644 1.257 . S
Zn652 O655 2.031 . S
Zn652 O657 2.049 . S
Zn652 O662 2.067 . S
Zn653 O654 1.962 . S
Zn653 O656 1.986 . S
Zn653 O658 1.996 1_455 S
Zn653 O661 1.943 . S
O654 Zn653 1.962 . S
O654 C659 1.254 . S
O655 Zn652 2.031 . S
O655 C659 1.269 1_655 S
O656 Zn653 1.986 . S
O656 C663 1.262 . S
O657 Zn652 2.049 . S
O657 C665 1.260 . S
O658 Zn653 1.996 1_655 S
O658 C665 1.257 . S
C659 O654 1.254 . S
C659 O655 1.269 1_455 S
C660 O661 1.249 1_655 S
C660 O662 1.270 . S
O661 Zn653 1.943 . S
O661 C660 1.249 1_455 S
O662 Zn652 2.067 . S
O662 C660 1.270 . S
C663 O656 1.262 . S
C663 O664 1.232 . S
O664 C663 1.232 . S
C665 O657 1.260 . S
C665 O658 1.257 . S
Zn666 O669 2.031 . S
Zn666 O671 2.049 . S
Zn666 O676 2.067 . S
Zn667 O668 1.962 . S
Zn667 O670 1.986 . S
Zn667 O672 1.996 . S
Zn667 O675 1.943 . S
O668 Zn667 1.962 . S
O668 C673 1.254 . S
O669 Zn666 2.031 . S
O669 C673 1.269 . S
O670 Zn667 1.986 . S
O670 C677 1.262 . S
O671 Zn666 2.049 . S
O671 C679 1.260 . S
O672 Zn667 1.996 . S
O672 C679 1.257 . S
C673 O668 1.254 . S
C673 O669 1.269 . S
C674 O675 1.249 . S
C674 O676 1.270 . S
O675 Zn667 1.943 . S
O675 C674 1.249 . S
O676 Zn666 2.067 . S
O676 C674 1.270 . S
C677 O670 1.262 . S
C677 O678 1.232 . S
O678 C677 1.232 . S
C679 O671 1.260 . S
C679 O672 1.257 . S
C520 C177 1.381 . S
C533 C209 1.457 . S
C253 C553 1.435 . S
C567 C157 1.661 . S
C579 C343 1.535 . S
C593 C401 1.366 . S
C369 C603 1.450 . S
C618 C317 1.517 . S
C375 C632 1.577 . S
C651 C305 1.336 . S
C349 C631 1.453 . S
C649 C413 1.357 . S
C241 C665 1.427 . S
C151 C659 1.525 . S
C189 C663 1.439 . S
C215 C660 1.545 . S
C113 C562 1.547 . S
C471 C561 1.430 . S
C525 C509 1.306 . S
C539 C279 1.468 . S
C145 C576 1.505 . S
C621 C381 1.568 . S
C575 C311 1.440 . S
C607 C407 1.358 . S
C604 C465 1.381 . S
C497 C617 1.457 . S
C285 C581 1.435 . S
C595 C445 1.661 . S
C119 C551 1.535 . S
C565 C17 1.366 . S
C519 C49 1.450 . S
C534 C93 1.517 . S
C55 C646 1.577 . S
C81 C637 1.336 . S
C125 C645 1.454 . S
C29 C635 1.357 . S
C679 C273 1.427 . S
C673 C439 1.525 . S
C677 C477 1.439 . S
C503 C674 1.545 . S
C337 C590 1.547 . S
C589 C183 1.430 . S
C609 C221 1.306 . S
C623 C247 1.468 . S
C433 C548 1.505 . S
C537 C61 1.568 . S
C87 C547 1.440 . S
C523 C23 1.358 . S
