# Generated by pormake.
# Topology zzz, (3,6)-cn, num edge types: 1
# Building blocks:
#     Node 0, Type 0, BuildingBlock: BETDAH_clean_linker_0, # of connection points: 3
#     Node 1, Type 0, BuildingBlock: BETDAH_clean_linker_0, # of connection points: 3
#     Node 2, Type 0, BuildingBlock: BETDAH_clean_linker_0, # of connection points: 3
#     Node 3, Type 0, BuildingBlock: BETDAH_clean_linker_0, # of connection points: 3
#     Node 4, Type 0, BuildingBlock: BETDAH_clean_linker_0, # of connection points: 3
#     Node 5, Type 0, BuildingBlock: BETDAH_clean_linker_0, # of connection points: 3
#     Node 6, Type 0, BuildingBlock: BETDAH_clean_linker_0, # of connection points: 3
#     Node 7, Type 0, BuildingBlock: BETDAH_clean_linker_0, # of connection points: 3
#     Node 8, Type 1, BuildingBlock: BETFEN_clean_sbu_0, # of connection points: 6
#     Node 9, Type 1, BuildingBlock: BETFEN_clean_sbu_0, # of connection points: 6
#     Node 10, Type 1, BuildingBlock: BETFEN_clean_sbu_0, # of connection points: 6
#     Node 11, Type 1, BuildingBlock: BETFEN_clean_sbu_0, # of connection points: 6
#     Edge 12, Type (0, 1), BuildingBlock: AJUNOK_clean_linker_0, # of connection points: 2
#     Edge 13, Type (0, 1), BuildingBlock: AJUNOK_clean_linker_0, # of connection points: 2
#     Edge 14, Type (0, 1), BuildingBlock: AJUNOK_clean_linker_0, # of connection points: 2
#     Edge 15, Type (0, 1), BuildingBlock: AJUNOK_clean_linker_0, # of connection points: 2
#     Edge 16, Type (0, 1), BuildingBlock: AJUNOK_clean_linker_0, # of connection points: 2
#     Edge 17, Type (0, 1), BuildingBlock: AJUNOK_clean_linker_0, # of connection points: 2
#     Edge 18, Type (0, 1), BuildingBlock: AJUNOK_clean_linker_0, # of connection points: 2
#     Edge 19, Type (0, 1), BuildingBlock: AJUNOK_clean_linker_0, # of connection points: 2
#     Edge 20, Type (0, 1), BuildingBlock: AJUNOK_clean_linker_0, # of connection points: 2
#     Edge 21, Type (0, 1), BuildingBlock: AJUNOK_clean_linker_0, # of connection points: 2
#     Edge 22, Type (0, 1), BuildingBlock: AJUNOK_clean_linker_0, # of connection points: 2
#     Edge 23, Type (0, 1), BuildingBlock: AJUNOK_clean_linker_0, # of connection points: 2
#     Edge 24, Type (0, 1), BuildingBlock: AJUNOK_clean_linker_0, # of connection points: 2
#     Edge 25, Type (0, 1), BuildingBlock: AJUNOK_clean_linker_0, # of connection points: 2
#     Edge 26, Type (0, 1), BuildingBlock: AJUNOK_clean_linker_0, # of connection points: 2
#     Edge 27, Type (0, 1), BuildingBlock: AJUNOK_clean_linker_0, # of connection points: 2
#     Edge 28, Type (0, 1), BuildingBlock: AJUNOK_clean_linker_0, # of connection points: 2
#     Edge 29, Type (0, 1), BuildingBlock: AJUNOK_clean_linker_0, # of connection points: 2
#     Edge 30, Type (0, 1), BuildingBlock: AJUNOK_clean_linker_0, # of connection points: 2
#     Edge 31, Type (0, 1), BuildingBlock: AJUNOK_clean_linker_0, # of connection points: 2
#     Edge 32, Type (0, 1), BuildingBlock: AJUNOK_clean_linker_0, # of connection points: 2
#     Edge 33, Type (0, 1), BuildingBlock: AJUNOK_clean_linker_0, # of connection points: 2
#     Edge 34, Type (0, 1), BuildingBlock: AJUNOK_clean_linker_0, # of connection points: 2
#     Edge 35, Type (0, 1), BuildingBlock: AJUNOK_clean_linker_0, # of connection points: 2
# Relax obj value: 0.370
# Max RMSD: 0.214
# Mean RMSD: 0.162
data_MOF--net-zzz--node1-BETFEN_clean_sbu_0--node2-BETDAH_clean_linker_0--edge1-AJUNOK_clean_linker_0
_symmetry_space_group_name_H-M    P1
_symmetry_Int_Tables_number       1
_symmetry_cell_setting            triclinic
loop_
_symmetry_equiv_pos_as_xyz
'x, y, z'
_cell_length_a     38.869256
_cell_length_b     38.905203
_cell_length_c     10.32967
_cell_angle_alpha  89.792162
_cell_angle_beta   89.778177
_cell_angle_gamma 89.87779
loop_
_atom_site_label
_atom_site_type_symbol
_atom_site_fract_x
_atom_site_fract_y
_atom_site_fract_z
_atom_type_partial_charge
H0 H 0.82983 0.46163 0.43833 0.0
H1 H 0.73086 0.48121 0.26979 0.0
H2 H 0.77625 0.55501 0.53018 0.0
C3 C 0.80676 0.47735 0.4328 0.0
C4 C 0.80634 0.50887 0.4969 0.0
C5 C 0.77985 0.46742 0.35053 0.0
C6 C 0.75098 0.48869 0.3362 0.0
C7 C 0.74884 0.52006 0.40318 0.0
C8 C 0.77698 0.53029 0.4824 0.0
N9 N 0.7195 0.54214 0.38899 0.0
C10 C 0.69204 0.53723 0.30237 0.0
H11 H 0.08158 0.83032 0.43652 0.0
H12 H 0.06074 0.7307 0.27924 0.0
H13 H 0.98821 0.77834 0.54223 0.0
C14 C 0.06563 0.80746 0.43466 0.0
C15 C 0.03445 0.80779 0.50254 0.0
C16 C 0.07503 0.78005 0.35366 0.0
C17 C 0.05357 0.75133 0.34419 0.0
C18 C 0.02227 0.75008 0.41288 0.0
C19 C 1.01262 0.77869 0.49136 0.0
N20 N 0.9998 0.72108 0.40108 0.0
C21 C 1.0042 0.69371 0.31351 0.0
H22 H 0.70895 0.07943 0.40153 0.0
H23 H 0.81301 0.06033 0.28345 0.0
H24 H 0.76003 0.98821 0.53395 0.0
C25 C 0.73227 0.06424 0.40973 0.0
C26 C 0.73117 0.03414 0.48387 0.0
C27 C 0.76172 0.07434 0.34023 0.0
C28 C 0.79065 0.05286 0.3396 0.0
C29 C 0.79023 0.02133 0.40704 0.0
C30 C 0.76042 1.01222 0.48057 0.0
N31 N 0.81904 0.99835 0.4 0.0
C32 C 0.8474 1.00238 0.31618 0.0
H33 H 0.46344 0.70428 0.35051 0.0
H34 H 0.48034 0.80861 0.23773 0.0
H35 H 0.54336 0.76192 0.53627 0.0
C36 C 0.47693 0.72826 0.36632 0.0
C37 C 0.50314 0.7294 0.45846 0.0
C38 C 0.46792 0.75688 0.29114 0.0
C39 C 0.48696 0.78712 0.29982 0.0
C40 C 0.51464 0.78927 0.38706 0.0
C41 C 0.52248 0.7603 0.46751 0.0
N42 N 0.53467 0.82007 0.39494 0.0
C43 C 0.53197 0.84807 0.30876 0.0
H44 H 0.20572 0.57784 0.17633 0.0
H45 H 0.3086 0.56345 0.31967 0.0
H46 H 0.25943 0.48428 0.09389 0.0
C47 C 0.22933 0.56296 0.18026 0.0
C48 C 0.22938 0.53061 0.12254 0.0
C49 C 0.25746 0.57497 0.25272 0.0
C50 C 0.28702 0.55436 0.26344 0.0
C51 C 0.28819 0.52157 0.20636 0.0
C52 C 0.25917 0.50982 0.13525 0.0
N53 N 0.31749 0.49956 0.22303 0.0
C54 C 0.34459 0.50479 0.3109 0.0
H55 H 0.96098 0.2063 0.1964 0.0
H56 H 0.97666 0.30821 0.34371 0.0
H57 H 0.05449 0.25954 0.10598 0.0
C58 C 0.97616 0.22966 0.19953 0.0
C59 C 1.00843 0.22947 0.13981 0.0
C60 C 0.96437 0.25792 0.27207 0.0
C61 C 0.98533 0.28704 0.28398 0.0
C62 C 1.01781 0.28822 0.22329 0.0
C63 C 0.02918 0.25927 0.15017 0.0
N64 N 0.03985 0.31745 0.23806 0.0
C65 C 0.03459 0.34484 0.32483 0.0
H66 H 0.3339 0.96281 0.18405 0.0
H67 H 0.2304 0.97599 0.32395 0.0
H68 H 0.27974 0.05618 0.0999 0.0
C69 C 0.3103 0.9777 0.18801 0.0
C70 C 0.31033 1.0103 0.13106 0.0
C71 C 0.28182 0.96503 0.25785 0.0
C72 C 0.25215 0.98545 0.2687 0.0
C73 C 0.25098 1.01843 0.21203 0.0
C74 C 0.28014 0.03059 0.1415 0.0
N75 N 0.22148 0.04016 0.2284 0.0
C76 C 0.19459 0.03474 0.31779 0.0
H77 H 0.58086 0.33366 0.17572 0.0
H78 H 0.56769 0.23 0.31222 0.0
H79 H 0.48861 0.27915 0.08296 0.0
C80 C 0.56617 0.30998 0.1778 0.0
C81 C 0.53391 0.31 0.11881 0.0
C82 C 0.57858 0.28156 0.24832 0.0
C83 C 0.55844 0.25172 0.2564 0.0
C84 C 0.52596 0.25038 0.19652 0.0
C85 C 0.51393 0.27962 0.12629 0.0
N86 N 0.50451 0.22065 0.2097 0.0
C87 C 0.50937 0.19375 0.29937 0.0
Pr88 Pr 0.044 1.01014 0.91763 0.0
Pr89 Pr 0.99956 0.02745 0.72797 0.0
C90 C 0.08159 0.98088 0.10679 0.0
C91 C 0.10253 0.94959 0.11436 0.0
C92 C 0.11424 0.93324 1.00129 0.0
C93 C 0.1278 0.89992 0.00764 0.0
C94 C 0.12936 0.88253 0.12697 0.0
C95 C 0.12037 0.90041 0.24075 0.0
C96 C 0.1069 0.93354 0.23426 0.0
C97 C 0.08211 0.03091 0.69821 0.0
C98 C 1.01816 0.94627 0.72332 0.0
C99 C 0.96229 0.05906 0.54298 0.0
C100 C 0.94753 0.0939 0.52925 0.0
C101 C 0.91275 0.10051 0.56018 0.0
C102 C 0.8996 0.13409 0.55442 0.0
C103 C 0.92121 0.1613 0.51865 0.0
C104 C 0.95556 0.15442 0.48429 0.0
C105 C 0.96858 0.12122 0.48949 0.0
C106 C 0.96167 1.00664 0.94723 0.0
C107 C 0.02459 0.09046 0.92522 0.0
O108 O 0.04859 0.97578 0.09375 0.0
O109 O 0.09326 1.00541 0.03246 0.0
O110 O 0.0565 1.01062 0.6948 0.0
O111 O 0.08596 0.0431 0.81368 0.0
O112 O 1.00585 0.97104 0.64973 0.0
O113 O 0.03167 0.95425 0.83629 0.0
O114 O 0.99581 0.05639 0.53834 0.0
O115 O 0.94864 0.03943 0.63164 0.0
O116 O 0.98736 0.02675 0.95021 0.0
O117 O 0.95673 0.99527 0.83114 0.0
O118 O 0.03269 0.06487 1.00274 0.0
O119 O 1.01542 0.0831 0.80557 0.0
H120 H 0.11089 0.94534 0.90751 0.0
H121 H 0.13466 0.88692 0.91865 0.0
H122 H 0.12062 0.8877 0.33424 0.0
H123 H 0.09771 0.94565 0.32217 0.0
H124 H 0.89583 0.07979 0.58947 0.0
H125 H 0.8728 0.13879 0.57753 0.0
H126 H 0.97238 0.1749 0.45145 0.0
H127 H 0.99526 0.11711 0.46297 0.0
Pr128 Pr 0.52945 0.04392 0.89995 0.0
Pr129 Pr 0.5116 0.99909 0.71442 0.0
C130 C 0.56242 0.08211 0.07694 0.0
C131 C 0.59822 0.09469 0.07895 0.0
C132 C 0.60543 0.12989 0.09274 0.0
C133 C 0.63958 0.14159 0.09145 0.0
C134 C 0.66696 0.11826 0.07524 0.0
C135 C 0.65931 0.08317 0.05902 0.0
C136 C 0.62553 0.07162 0.06008 0.0
C137 C 0.50866 0.08131 0.67967 0.0
C138 C 0.5924 1.01637 0.70505 0.0
C139 C 0.48063 0.95983 0.53485 0.0
C140 C 0.44558 0.94576 0.52558 0.0
C141 C 0.4402 0.91055 0.50314 0.0
C142 C 0.40667 0.89732 0.4974 0.0
C143 C 0.37817 0.91915 0.51538 0.0
C144 C 0.38403 0.95426 0.53915 0.0
C145 C 0.41716 0.96731 0.54509 0.0
C146 C 0.53265 0.96179 0.93448 0.0
C147 C 0.44889 0.02724 0.91207 0.0
O148 O 0.55816 0.04892 0.08887 0.0
O149 O 0.54266 0.09557 0.98864 0.0
O150 O 0.52877 0.05549 0.6767 0.0
O151 O 0.49601 0.08535 0.79495 0.0
O152 O 0.5675 1.00564 0.62978 0.0
O153 O 0.58462 0.02814 0.82095 0.0
O154 O 0.48377 0.99317 0.52387 0.0
O155 O 0.4995 0.94708 0.62712 0.0
O156 O 0.51233 0.98743 0.93727 0.0
O157 O 0.54544 0.95802 0.81946 0.0
O158 O 0.47451 0.03604 0.98743 0.0
O159 O 0.45604 1.01642 0.79369 0.0
H160 H 0.58472 0.14823 0.10589 0.0
H161 H 0.64463 0.16864 0.10662 0.0
H162 H 0.67951 0.06407 0.05136 0.0
H163 H 0.62098 0.04438 0.04779 0.0
H164 H 0.46187 0.89341 0.48871 0.0
H165 H 0.40297 0.87036 0.47575 0.0
H166 H 0.36288 0.97227 0.5464 0.0
H167 H 0.42041 0.99453 0.56251 0.0
Pr168 Pr 0.49571 0.5289 0.90138 0.0
Pr169 Pr 0.54115 0.51292 0.71469 0.0
C170 C 0.45733 0.55702 0.09132 0.0
C171 C 0.43547 0.58771 0.09916 0.0
C172 C 0.41987 0.60141 0.98768 0.0
C173 C 0.40647 0.6348 0.98911 0.0
C174 C 0.4091 0.65487 0.10104 0.0
C175 C 0.4213 0.6396 0.21585 0.0
C176 C 0.43463 0.60635 0.21456 0.0
C177 C 0.45854 0.50737 0.68222 0.0
C178 C 0.51987 0.59305 0.70183 0.0
C179 C 0.58217 0.48267 0.53709 0.0
C180 C 0.59528 0.44723 0.52471 0.0
C181 C 0.6308 0.44079 0.51311 0.0
C182 C 0.64319 0.40695 0.50549 0.0
C183 C 0.62021 0.37916 0.5117 0.0
C184 C 0.58478 0.38593 0.52436 0.0
C185 C 0.5725 0.41942 0.53157 0.0
C186 C 0.57704 0.53513 0.93588 0.0
C187 C 0.51557 0.44922 0.9083 0.0
O188 O 0.49013 0.56319 0.07646 0.0
O189 O 0.4464 0.53206 0.0183 0.0
O190 O 0.48381 0.52807 0.67837 0.0
O191 O 0.45454 0.49516 0.79811 0.0
O192 O 0.53413 0.56877 0.63149 0.0
O193 O 0.50572 0.58489 0.81423 0.0
O194 O 0.54916 0.48731 0.52029 0.0
O195 O 0.59403 0.49991 0.63482 0.0
O196 O 0.55267 0.51345 0.93701 0.0
O197 O 0.58026 0.54858 0.82157 0.0
O198 O 0.5082 0.47462 0.98688 0.0
O199 O 0.52415 0.45687 0.78782 0.0
H200 H 0.42027 0.58731 0.89741 0.0
H201 H 0.39664 0.64595 0.90068 0.0
H202 H 0.42387 0.65451 0.30366 0.0
H203 H 0.44667 0.59628 0.30122 0.0
H204 H 0.64889 0.46191 0.50912 0.0
H205 H 0.6705 0.40249 0.49245 0.0
H206 H 0.5662 0.36526 0.52269 0.0
H207 H 0.54503 0.42342 0.54093 0.0
Pr208 Pr 1.00867 0.4981 0.91071 0.0
Pr209 Pr 0.02626 0.54156 0.72329 0.0
C210 C 0.97929 0.46052 0.10057 0.0
C211 C 0.9483 0.4393 0.10855 0.0
C212 C 0.93113 0.42902 0.99574 0.0
C213 C 0.89814 0.41483 1.004 0.0
C214 C 0.88201 0.41086 0.12517 0.0
C215 C 0.90071 0.41874 0.23796 0.0
C216 C 0.93342 0.43305 0.22947 0.0
C217 C 0.03005 0.45919 0.69435 0.0
C218 C 0.94532 0.52354 0.71287 0.0
C219 C 0.05743 0.58008 0.54029 0.0
C220 C 0.09269 0.59362 0.53103 0.0
C221 C 0.09865 0.62865 0.50613 0.0
C222 C 0.13236 0.64138 0.50034 0.0
C223 C 0.16052 0.61924 0.52049 0.0
C224 C 0.15408 0.58434 0.54819 0.0
C225 C 0.12073 0.5718 0.55402 0.0
C226 C 1.00533 0.57997 0.94116 0.0
C227 C 0.08914 0.51601 0.92012 0.0
O228 O 0.97376 0.49341 0.08547 0.0
O229 O 1.00407 0.44896 0.02731 0.0
O230 O 1.00969 0.48477 0.68865 0.0
O231 O 0.04201 0.45573 0.81041 0.0
O232 O 0.97075 0.53435 0.63918 0.0
O233 O 0.95271 0.51146 0.82912 0.0
O234 O 0.05396 0.54677 0.53124 0.0
O235 O 0.03846 0.59323 0.63163 0.0
O236 O 0.02579 0.55448 0.94511 0.0
O237 O 0.99231 0.58309 0.82645 0.0
O238 O 0.06325 0.50868 0.99735 0.0
O239 O 0.08198 0.52494 0.79977 0.0
H240 H 0.94226 0.43401 0.9012 0.0
H241 H 0.88424 0.4095 0.91565 0.0
H242 H 0.88886 0.41721 0.33287 0.0
H243 H 0.94602 0.44141 0.31717 0.0
H244 H 0.07729 0.64605 0.48978 0.0
H245 H 0.13646 0.6682 0.47661 0.0
H246 H 0.17487 0.56598 0.55877 0.0
H247 H 0.11704 0.54472 0.57427 0.0
C248 C 0.13557 1.01593 0.38777 0.0
C249 C 0.16657 0.03326 0.41348 0.0
C250 C 0.10814 1.01542 0.47872 0.0
C251 C 0.11059 0.03252 0.59875 0.0
H252 H 0.13251 1.0028 0.29651 0.0
H253 H 0.08491 1.00153 0.45483 0.0
S254 S 0.1866 0.08231 0.71019 0.0
N255 N 0.19806 0.0681 0.5659 0.0
N256 N 0.14724 0.06781 0.73539 0.0
C257 C 0.14161 0.05023 0.624 0.0
C258 C 0.16937 0.05044 0.53194 0.0
C259 C 0.52535 0.13377 0.36803 0.0
C260 C 0.51007 0.16582 0.39544 0.0
C261 C 0.52467 0.10642 0.45908 0.0
C262 C 0.50836 0.10996 0.58083 0.0
H263 H 0.53783 0.12976 0.27548 0.0
H264 H 0.53698 0.08234 0.43376 0.0
S265 S 0.46487 0.18934 0.69875 0.0
N266 N 0.47865 0.19973 0.55241 0.0
N267 N 0.47678 0.14904 0.72211 0.0
C268 C 0.49298 0.14213 0.60828 0.0
C269 C 0.49399 0.16983 0.51614 0.0
C270 C 0.40209 0.52677 0.38396 0.0
C271 C 0.37312 0.50568 0.40392 0.0
C272 C 0.43001 0.52686 0.47202 0.0
C273 C 0.43006 0.50573 0.58358 0.0
H274 H 0.40313 0.54328 0.29967 0.0
H275 H 0.45151 0.54384 0.4532 0.0
S276 S 0.36034 0.44491 0.6766 0.0
N277 N 0.34644 0.46274 0.54121 0.0
N278 N 0.39819 0.46243 0.70531 0.0
C279 C 0.40118 0.48422 0.60277 0.0
C280 C 0.37294 0.48432 0.51353 0.0
C281 C 1.01441 0.4037 0.39099 0.0
C282 C 0.0333 0.37352 0.41712 0.0
C283 C 1.01373 0.43159 0.47913 0.0
C284 C 0.03218 0.43048 0.59667 0.0
H285 H 1.00014 0.40573 0.30161 0.0
H286 H 0.99853 0.45408 0.45529 0.0
S287 S 0.08716 0.35755 0.70619 0.0
N288 N 0.07164 0.34459 0.56608 0.0
N289 N 0.07101 0.39631 0.73008 0.0
C290 C 0.05171 0.40046 0.62169 0.0
C291 C 0.05212 0.37221 0.53253 0.0
C292 C 0.87132 1.01181 0.09482 0.0
C293 C 0.87676 1.00472 0.22676 0.0
C294 C 0.89894 1.01254 0.00568 0.0
C295 C 0.93322 1.00684 0.04518 0.0
H296 H 0.84547 1.0164 0.05977 0.0
H297 H 0.89338 1.01776 0.90479 0.0
S298 S 0.96099 0.98518 0.37776 0.0
N299 N 0.91888 0.9903 0.39133 0.0
N300 N 0.97067 0.99281 0.22459 0.0
C301 C 0.93896 0.99997 0.17687 0.0
C302 C 0.91078 0.9986 0.26737 0.0
C303 C 0.52263 0.91025 0.25199 0.0
C304 C 0.53132 0.87648 0.21485 0.0
C305 C 0.52285 0.93778 0.16163 0.0
C306 C 0.53235 0.93266 0.03102 0.0
H307 H 0.51577 0.91546 0.35163 0.0
H308 H 0.51592 0.96327 0.19465 0.0
S309 S 0.55572 0.84834 0.88498 0.0
N310 N 0.5483 0.83921 0.03877 0.0
N311 N 0.54947 0.89016 0.87011 0.0
C312 C 0.54084 0.89871 0.99353 0.0
C313 C 0.54014 0.87087 0.08501 0.0
C314 C 0.63524 0.51381 0.22721 0.0
C315 C 0.66309 0.53661 0.21117 0.0
C316 C 0.60705 0.51386 0.14046 0.0
C317 C 0.60558 0.53678 0.03413 0.0
H318 H 0.63525 0.49572 0.30701 0.0
H319 H 0.58652 0.49549 0.15591 0.0
S320 S 0.67179 0.60246 0.95327 0.0
N321 N 0.68706 0.58311 0.08355 0.0
N322 N 0.63476 0.58357 0.92184 0.0
C323 C 0.63326 0.55999 0.01907 0.0
C324 C 0.66178 0.5598 0.10702 0.0
C325 C 1.0166 0.63219 0.25509 0.0
C326 C 1.00544 0.66541 0.21955 0.0
C327 C 1.01666 0.60466 0.16545 0.0
C328 C 1.00499 0.60913 0.03711 0.0
H329 H 0.0252 0.6274 0.35303 0.0
H330 H 0.02559 0.57965 0.19733 0.0
S331 S 0.97404 0.69175 0.89593 0.0
N332 N 0.98335 0.70142 0.04729 0.0
N333 N 0.9827 0.6504 0.88022 0.0
C334 C 0.99385 0.64248 1.00127 0.0
C335 C 0.99425 0.67037 0.09196 0.0
C336 C 0.94086 0.25027 0.49102 0.0
C337 C 0.93412 0.25245 0.35754 0.0
C338 C 0.92776 0.22268 0.56337 0.0
C339 C 0.90867 0.19683 0.50151 0.0
H340 H 0.96131 0.26538 0.5333 0.0
H341 H 0.93856 0.21781 0.6582 0.0
S342 S 0.86866 0.20314 0.17864 0.0
N343 N 0.8947 0.23659 0.18618 0.0
N344 N 0.87154 0.18356 0.32044 0.0
C345 C 0.89368 0.20488 0.38208 0.0
C346 C 0.90625 0.23343 0.30963 0.0
C347 C 0.30838 0.90764 0.28755 0.0
C348 C 0.28724 0.93381 0.33896 0.0
C349 C 0.33664 0.89564 0.35869 0.0
C350 C 0.34257 0.90823 0.48407 0.0
H351 H 0.30791 0.90245 0.18456 0.0
H352 H 0.35668 0.88188 0.30719 0.0
S353 S 0.28052 0.95654 0.68598 0.0
N354 N 0.26431 0.95804 0.53844 0.0
N355 N 0.31567 0.93275 0.67536 0.0
C356 C 0.31485 0.92418 0.54797 0.0
C357 C 0.28708 0.93772 0.47411 0.0
C358 C 0.63513 0.3088 0.2864 0.0
C359 C 0.60868 0.28736 0.33402 0.0
C360 C 0.64545 0.33749 0.35826 0.0
C361 C 0.63104 0.34351 0.48116 0.0
H362 H 0.64181 0.30813 0.18448 0.0
H363 H 0.65963 0.35758 0.30869 0.0
S364 S 0.58097 0.28131 0.6766 0.0
N365 N 0.58216 0.26455 0.52993 0.0
N366 N 0.6038 0.31703 0.66844 0.0
C367 C 0.61433 0.31594 0.54292 0.0
C368 C 0.60275 0.28759 0.46822 0.0
C369 C 0.23038 0.63183 0.28923 0.0
C370 C 0.25158 0.60529 0.33743 0.0
C371 C 0.20213 0.64316 0.36239 0.0
C372 C 0.19626 0.62956 0.48691 0.0
H373 H 0.23086 0.63798 0.18682 0.0
H374 H 0.18215 0.65744 0.31281 0.0
S375 S 0.25835 0.5795 0.68207 0.0
N376 N 0.27449 0.57927 0.53388 0.0
N377 N 0.22326 0.60345 0.67492 0.0
C378 C 0.22397 0.61301 0.54825 0.0
C379 C 0.25172 0.60013 0.47219 0.0
C380 C 0.13365 0.80069 0.3032 0.0
C381 C 0.10261 0.78668 0.25795 0.0
C382 C 0.14807 0.8294 0.24141 0.0
C383 C 0.13154 0.84445 0.13404 0.0
H384 H 0.14294 0.7938 0.39862 0.0
H385 H 0.16829 0.84323 0.2908 0.0
S386 S 0.06031 0.80588 0.94646 0.0
N387 N 0.06437 0.78087 0.07472 0.0
N388 N 0.09069 0.83525 0.9594 0.0
C389 C 0.1063 0.82493 0.07045 0.0
C390 C 0.09203 0.79549 0.13263 0.0
C391 C 0.73852 0.13224 0.29472 0.0
C392 C 0.75837 0.10416 0.25106 0.0
C393 C 0.71027 0.14343 0.22173 0.0
C394 C 0.70324 0.12807 0.1016 0.0
H395 H 0.73959 0.13967 0.39565 0.0
H396 H 0.69101 0.15906 0.26976 0.0
S397 S 0.76293 0.07316 0.91341 0.0
N398 N 0.77979 0.07474 0.05981 0.0
N399 N 0.72861 0.09823 0.91813 0.0
C400 C 0.73015 0.10972 0.04185 0.0
C401 C 0.75792 0.09722 0.11805 0.0
C402 C 0.40853 0.74108 0.24274 0.0
C403 C 0.44067 0.75186 0.19438 0.0
C404 C 0.39301 0.71141 0.19363 0.0
C405 C 0.40899 0.69285 0.0934 0.0
H406 H 0.39925 0.75101 0.33435 0.0
H407 H 0.37204 0.69994 0.24799 0.0
S408 S 0.48405 0.72118 0.89831 0.0
N409 N 0.48057 0.75008 0.01425 0.0
N410 N 0.45169 0.69435 0.92061 0.0
C411 C 0.4358 0.70892 0.0242 0.0
C412 C 0.45146 0.73905 0.07458 0.0
C413 C 0.79639 0.44936 0.13266 0.0
C414 C 0.78711 0.43931 0.25879 0.0
C415 C 0.82475 0.43415 0.07143 0.0
C416 C 0.844 0.40856 0.13554 0.0
H417 H 0.78616 0.47293 0.09172 0.0
H418 H 0.83491 0.44673 0.98573 0.0
S419 S 0.81833 0.36243 0.43419 0.0
N420 N 0.79047 0.39442 0.42182 0.0
N421 N 0.84335 0.36505 0.30481 0.0
C422 C 0.82893 0.39248 0.24374 0.0
C423 C 0.80032 0.40819 0.30652 0.0
C424 C 0.025 0.16709 0.15953 0.0
C425 C 1.01988 0.1961 0.07947 0.0
C426 C 0.02758 0.13355 0.10851 0.0
C427 C 0.02459 0.12707 0.97456 0.0
H428 H 0.02553 0.17021 0.26372 0.0
H429 H 0.03066 0.11237 0.17584 0.0
S430 S 1.01248 0.19434 0.72184 0.0
N431 N 1.01305 0.21618 0.85872 0.0
N432 N 1.01779 0.15354 0.7622 0.0
C433 C 0.02048 0.15606 0.89286 0.0
C434 C 1.01814 0.19033 0.94525 0.0
C435 C 0.37346 0.02309 0.15184 0.0
C436 C 0.34387 0.02238 0.07312 0.0
C437 C 0.40683 0.02594 0.09897 0.0
C438 C 0.41253 0.02768 0.96413 0.0
H439 H 0.37087 0.01981 0.25567 0.0
H440 H 0.42846 0.02523 0.16475 0.0
S441 S 0.34366 0.03081 0.71563 0.0
N442 N 0.32242 0.02648 0.85359 0.0
N443 N 0.38493 0.03177 0.75365 0.0
C444 C 0.38306 0.02864 0.88439 0.0
C445 C 0.3489 0.02608 0.93884 0.0
C446 C 0.52162 0.3731 0.14345 0.0
C447 C 0.52165 0.34377 0.06334 0.0
C448 C 0.51855 0.4066 0.09257 0.0
C449 C 0.51576 0.41274 0.95838 0.0
H450 H 0.52557 0.37019 0.24673 0.0
H451 H 0.51981 0.42798 0.15929 0.0
S452 S 0.51 0.34481 0.70734 0.0
N453 N 0.51541 0.32308 0.84358 0.0
N454 N 0.50973 0.38591 0.74733 0.0
C455 C 0.51398 0.38358 0.87742 0.0
C456 C 0.51681 0.34925 0.9299 0.0
C457 C 0.18789 0.52647 0.93451 0.0
C458 C 0.19594 0.51889 0.06451 0.0
C459 C 0.15373 0.52439 0.88762 0.0
C460 C 0.12584 0.5152 0.96905 0.0
H461 H 0.20789 0.53567 0.86996 0.0
H462 H 0.14907 0.53124 0.78759 0.0
S463 S 0.13339 0.49295 0.31861 0.0
N464 N 0.17324 0.50163 0.2735 0.0
N465 N 0.10963 0.49768 0.18751 0.0
C466 C 0.1339 0.50674 0.09874 0.0
C467 C 0.16863 0.50868 0.14576 0.0
C468 C 0.0498 0.85424 0.66248 0.0
C469 C 0.02562 0.84027 0.5756 0.0
C470 C 0.0463 0.88768 0.71358 0.0
C471 C 1.01904 0.90954 0.67682 0.0
H472 H 0.07254 0.83955 0.68729 0.0
H473 H 0.06613 0.89702 0.77782 0.0
S474 S 0.94812 0.88575 0.45441 0.0
N475 N 0.97271 0.85106 0.4583 0.0
N476 N 0.96644 0.91394 0.55144 0.0
C477 C 0.99423 0.89576 0.59206 0.0
C478 C 0.99742 0.86127 0.54231 0.0
C479 C 0.67943 0.99624 0.53976 0.0
C480 C 0.69823 0.02689 0.55782 0.0
C481 C 0.64529 0.99257 0.58745 0.0
C482 C 0.62879 1.01917 0.65691 0.0
H483 H 0.69053 0.97561 0.48314 0.0
H484 H 0.63161 0.96888 0.56882 0.0
S485 S 0.66542 0.10509 0.72458 0.0
N486 N 0.69675 0.08445 0.64936 0.0
N487 N 0.63346 0.07744 0.73634 0.0
C488 C 0.64747 0.04952 0.67729 0.0
C489 C 0.68185 0.05336 0.62884 0.0
C490 C 0.54129 0.681 0.54678 0.0
C491 C 0.50886 0.69732 0.53953 0.0
C492 C 0.54501 0.64746 0.60003 0.0
C493 C 0.51657 0.62908 0.65019 0.0
H494 H 0.56367 0.6935 0.50545 0.0
H495 H 0.57028 0.63567 0.60066 0.0
S496 S 0.42604 0.65913 0.64964 0.0
N497 N 0.4478 0.6917 0.58816 0.0
N498 N 0.45493 0.62941 0.6847 0.0
C499 C 0.48431 0.64532 0.64568 0.0
C500 C 0.48045 0.67913 0.59164 0.0
C501 C 0.84862 0.5031 0.68161 0.0
C502 C 0.83892 0.51928 0.56478 0.0
C503 C 0.88246 0.50566 0.73095 0.0
C504 C 0.9086 0.52381 0.66419 0.0
H505 H 0.83021 0.48713 0.73274 0.0
H506 H 0.88846 0.49205 0.81974 0.0
S507 S 0.89653 0.57074 0.35309 0.0
N508 N 0.85823 0.55433 0.38447 0.0
N509 N 0.92143 0.55899 0.47474 0.0
C510 C 0.89891 0.54066 0.54833 0.0
C511 C 0.86434 0.53838 0.49934 0.0
loop_
_geom_bond_atom_site_label_1
_geom_bond_atom_site_label_2
_geom_bond_distance
_geom_bond_site_symmetry_2
_ccdc_geom_bond_type
H0 C3 0.929 . S
H1 C6 0.929 . S
H2 C8 0.930 . S
C3 H0 0.929 . S
C3 C4 1.398 . S
C3 C5 1.396 . S
C4 C3 1.398 . S
C4 C8 1.407 . S
C5 C3 1.396 . S
C5 C6 1.394 . S
C6 H1 0.929 . S
C6 C5 1.394 . S
C6 C7 1.382 . S
C7 C6 1.382 . S
C7 C8 1.392 . S
C7 N9 1.420 . S
C8 H2 0.930 . S
C8 C4 1.407 . S
C8 C7 1.392 . S
N9 C7 1.420 . S
N9 C10 1.244 . S
C10 N9 1.244 . S
H11 C14 0.929 . S
H12 C17 0.929 . S
H13 C19 0.930 . S
C14 H11 0.929 . S
C14 C15 1.395 1_655 S
C14 C16 1.394 1_655 S
C15 C14 1.395 1_455 S
C15 C19 1.414 . S
C16 C14 1.394 1_455 S
C16 C17 1.397 . S
C17 H12 0.929 . S
C17 C16 1.397 . S
C17 C18 1.382 . S
C18 C17 1.382 . S
C18 C19 1.392 . S
C18 N20 1.420 . S
C19 H13 0.930 . S
C19 C15 1.414 . S
C19 C18 1.392 . S
N20 C18 1.420 . S
N20 C21 1.232 1_455 S
C21 N20 1.232 1_655 S
H22 C25 0.929 . S
H23 C28 0.929 . S
H24 C30 0.930 . S
C25 H22 0.929 . S
C25 C26 1.395 1_565 S
C25 C27 1.395 1_565 S
C26 C25 1.395 1_545 S
C26 C30 1.414 . S
C27 C25 1.395 1_545 S
C27 C28 1.397 . S
C28 H23 0.929 . S
C28 C27 1.397 . S
C28 C29 1.382 . S
C29 C28 1.382 . S
C29 C30 1.392 . S
C29 N31 1.420 . S
C30 H24 0.930 . S
C30 C26 1.414 . S
C30 C29 1.392 . S
N31 C29 1.420 . S
N31 C32 1.231 1_545 S
C32 N31 1.231 1_565 S
H33 C36 0.929 . S
H34 C39 0.929 . S
H35 C41 0.930 . S
C36 H33 0.929 . S
C36 C37 1.398 . S
C36 C38 1.396 . S
C37 C36 1.398 . S
C37 C41 1.407 . S
C38 C36 1.396 . S
C38 C39 1.394 . S
C39 H34 0.929 . S
C39 C38 1.394 . S
C39 C40 1.382 . S
C40 C39 1.382 . S
C40 C41 1.392 . S
C40 N42 1.420 . S
C41 H35 0.930 . S
C41 C37 1.407 . S
C41 C40 1.392 . S
N42 C40 1.420 . S
N42 C43 1.244 . S
C43 N42 1.244 . S
H44 C47 0.929 1_556 S
H45 C50 0.929 . S
H46 C52 0.930 . S
C47 H44 0.929 1_554 S
C47 C48 1.398 1_554 S
C47 C49 1.396 . S
C48 C47 1.398 1_556 S
C48 C52 1.407 . S
C49 C47 1.396 . S
C49 C50 1.394 . S
C50 H45 0.929 . S
C50 C49 1.394 . S
C50 C51 1.382 . S
C51 C50 1.382 . S
C51 C52 1.392 1_554 S
C51 N53 1.420 . S
C52 H46 0.930 . S
C52 C48 1.407 . S
C52 C51 1.392 1_556 S
N53 C51 1.420 . S
N53 C54 1.244 . S
C54 N53 1.244 . S
H55 C58 0.929 . S
H56 C61 0.929 . S
H57 C63 0.930 . S
C58 H55 0.929 . S
C58 C59 1.398 1_654 S
C58 C60 1.394 1_655 S
C59 C58 1.398 1_456 S
C59 C63 1.407 . S
C60 C58 1.394 1_455 S
C60 C61 1.398 . S
C61 H56 0.929 . S
C61 C60 1.398 . S
C61 C62 1.382 . S
C62 C61 1.382 . S
C62 C63 1.392 1_554 S
C62 N64 1.420 . S
C63 H57 0.930 . S
C63 C59 1.407 . S
C63 C62 1.392 1_556 S
N64 C62 1.420 . S
N64 C65 1.235 1_455 S
C65 N64 1.235 1_655 S
H66 C69 0.929 . S
H67 C72 0.929 . S
H68 C74 0.930 . S
C69 H66 0.929 . S
C69 C70 1.398 1_564 S
C69 C71 1.393 1_565 S
C70 C69 1.398 1_546 S
C70 C74 1.407 . S
C71 C69 1.393 1_545 S
C71 C72 1.398 . S
C72 H67 0.929 . S
C72 C71 1.398 . S
C72 C73 1.382 . S
C73 C72 1.382 . S
C73 C74 1.392 1_554 S
C73 N75 1.420 . S
C74 H68 0.930 . S
C74 C70 1.407 . S
C74 C73 1.392 1_556 S
N75 C73 1.420 . S
N75 C76 1.235 1_545 S
C76 N75 1.235 1_565 S
H77 C80 0.929 1_556 S
H78 C83 0.929 . S
H79 C85 0.930 . S
C80 H77 0.929 1_554 S
C80 C81 1.398 1_554 S
C80 C82 1.396 . S
C81 C80 1.398 1_556 S
C81 C85 1.407 . S
C82 C80 1.396 . S
C82 C83 1.394 . S
C83 H78 0.929 . S
C83 C82 1.394 . S
C83 C84 1.382 . S
C84 C83 1.382 . S
C84 C85 1.392 1_554 S
C84 N86 1.420 . S
C85 H79 0.930 . S
C85 C81 1.407 . S
C85 C84 1.392 1_556 S
N86 C84 1.420 . S
N86 C87 1.244 . S
C87 N86 1.244 . S
Pr88 C90 2.880 1_556 S
Pr88 O108 2.562 1_556 S
Pr88 O109 2.490 1_556 S
Pr88 O110 2.695 1_565 S
Pr88 O111 2.512 . S
Pr88 O113 2.437 . S
Pr88 O116 2.436 1_455 S
Pr88 O118 2.438 1_565 S
Pr89 C99 2.880 . S
Pr89 O110 2.436 1_655 S
Pr89 O112 2.438 1_545 S
Pr89 O114 2.562 . S
Pr89 O115 2.490 . S
Pr89 O116 2.695 1_545 S
Pr89 O117 2.512 . S
Pr89 O119 2.437 . S
C90 Pr88 2.880 1_554 S
C90 C91 1.491 . S
C90 O108 1.254 . S
C90 O109 1.225 . S
C91 C90 1.491 . S
C91 C92 1.392 . S
C91 C96 1.356 . S
C92 C91 1.392 . S
C92 C93 1.368 . S
C92 H120 0.929 . S
C93 C92 1.368 . S
C93 C94 1.386 . S
C93 H121 0.929 . S
C94 C93 1.386 . S
C94 C95 1.373 . S
C95 C94 1.373 . S
C95 C96 1.409 . S
C95 H122 0.931 . S
C96 C91 1.356 . S
C96 C95 1.409 . S
C96 H123 0.930 1_455 S
C97 O110 1.270 1_565 S
C97 O111 1.248 . S
C98 O112 1.267 . S
C98 O113 1.278 1_655 S
C99 Pr89 2.880 . S
C99 C100 1.491 . S
C99 O114 1.254 . S
C99 O115 1.225 . S
C100 C99 1.491 . S
C100 C101 1.392 . S
C100 C105 1.356 . S
C101 C100 1.392 . S
C101 C102 1.368 . S
C101 H124 0.929 . S
C102 C101 1.368 . S
C102 C103 1.386 . S
C102 H125 0.929 . S
C103 C102 1.386 . S
C103 C104 1.373 . S
C104 C103 1.373 . S
C104 C105 1.409 . S
C104 H126 0.931 . S
C105 C100 1.356 . S
C105 C104 1.409 . S
C105 H127 0.930 1_655 S
C106 O116 1.270 1_545 S
C106 O117 1.248 . S
C107 O118 1.267 . S
C107 O119 1.278 1_455 S
O108 Pr88 2.562 1_554 S
O108 C90 1.254 . S
O109 Pr88 2.490 1_554 S
O109 C90 1.225 . S
O110 Pr88 2.695 1_545 S
O110 Pr89 2.436 1_455 S
O110 C97 1.270 1_545 S
O111 Pr88 2.512 . S
O111 C97 1.248 . S
O112 Pr89 2.438 1_565 S
O112 C98 1.267 . S
O113 Pr88 2.437 . S
O113 C98 1.278 1_455 S
O114 Pr89 2.562 . S
O114 C99 1.254 . S
O115 Pr89 2.490 . S
O115 C99 1.225 . S
O116 Pr88 2.436 1_655 S
O116 Pr89 2.695 1_565 S
O116 C106 1.270 1_565 S
O117 Pr89 2.512 . S
O117 C106 1.248 . S
O118 Pr88 2.438 1_545 S
O118 C107 1.267 . S
O119 Pr89 2.437 . S
O119 C107 1.278 1_655 S
H120 C92 0.929 . S
H121 C93 0.929 . S
H122 C95 0.931 . S
H123 C96 0.930 1_655 S
H124 C101 0.929 . S
H125 C102 0.929 . S
H126 C104 0.931 . S
H127 C105 0.930 1_455 S
Pr128 C130 2.880 1_556 S
Pr128 O148 2.562 1_556 S
Pr128 O149 2.490 1_556 S
Pr128 O150 2.695 . S
Pr128 O151 2.512 . S
Pr128 O153 2.437 . S
Pr128 O156 2.436 1_545 S
Pr128 O158 2.438 . S
Pr129 C139 2.880 . S
Pr129 O150 2.436 1_565 S
Pr129 O152 2.438 . S
Pr129 O154 2.562 . S
Pr129 O155 2.490 . S
Pr129 O156 2.695 . S
Pr129 O157 2.512 . S
Pr129 O159 2.437 . S
C130 Pr128 2.880 1_554 S
C130 C131 1.491 . S
C130 O148 1.254 . S
C130 O149 1.225 . S
C131 C130 1.491 . S
C131 C132 1.392 . S
C131 C136 1.356 . S
C132 C131 1.392 . S
C132 C133 1.368 . S
C132 H160 0.929 . S
C133 C132 1.368 . S
C133 C134 1.386 . S
C133 H161 0.929 . S
C134 C133 1.386 . S
C134 C135 1.373 . S
C135 C134 1.373 . S
C135 C136 1.409 . S
C135 H162 0.928 1_545 S
C136 C131 1.356 . S
C136 C135 1.409 . S
C136 H163 0.930 1_545 S
C137 O150 1.270 . S
C137 O151 1.248 . S
C138 O152 1.267 . S
C138 O153 1.278 1_565 S
C139 Pr129 2.880 . S
C139 C140 1.491 . S
C139 O154 1.254 . S
C139 O155 1.225 . S
C140 C139 1.491 . S
C140 C141 1.392 . S
C140 C145 1.356 . S
C141 C140 1.392 . S
C141 C142 1.368 . S
C141 H164 0.929 . S
C142 C141 1.368 . S
C142 C143 1.386 . S
C142 H165 0.929 . S
C143 C142 1.386 . S
C143 C144 1.373 . S
C144 C143 1.373 . S
C144 C145 1.409 . S
C144 H166 0.922 1_565 S
C145 C140 1.356 . S
C145 C144 1.409 . S
C145 H167 0.930 1_565 S
C146 O156 1.270 . S
C146 O157 1.248 . S
C147 O158 1.267 . S
C147 O159 1.278 1_545 S
O148 Pr128 2.562 1_554 S
O148 C130 1.254 . S
O149 Pr128 2.490 1_554 S
O149 C130 1.225 . S
O150 Pr128 2.695 . S
O150 Pr129 2.436 1_545 S
O150 C137 1.270 . S
O151 Pr128 2.512 . S
O151 C137 1.248 . S
O152 Pr129 2.438 . S
O152 C138 1.267 . S
O153 Pr128 2.437 . S
O153 C138 1.278 1_545 S
O154 Pr129 2.562 . S
O154 C139 1.254 . S
O155 Pr129 2.490 . S
O155 C139 1.225 . S
O156 Pr128 2.436 1_565 S
O156 Pr129 2.695 . S
O156 C146 1.270 . S
O157 Pr129 2.512 . S
O157 C146 1.248 . S
O158 Pr128 2.438 . S
O158 C147 1.267 . S
O159 Pr129 2.437 . S
O159 C147 1.278 1_565 S
H160 C132 0.929 . S
H161 C133 0.929 . S
H162 C135 0.928 1_565 S
H163 C136 0.930 1_565 S
H164 C141 0.929 . S
H165 C142 0.929 . S
H166 C144 0.922 1_545 S
H167 C145 0.930 1_545 S
Pr168 C170 2.880 1_556 S
Pr168 O188 2.562 1_556 S
Pr168 O189 2.490 1_556 S
Pr168 O190 2.695 . S
Pr168 O191 2.512 . S
Pr168 O193 2.437 . S
Pr168 O196 2.436 . S
Pr168 O198 2.438 . S
Pr169 C179 2.880 . S
Pr169 O190 2.436 . S
Pr169 O192 2.438 . S
Pr169 O194 2.562 . S
Pr169 O195 2.490 . S
Pr169 O196 2.695 . S
Pr169 O197 2.512 . S
Pr169 O199 2.437 . S
C170 Pr168 2.880 1_554 S
C170 C171 1.491 . S
C170 O188 1.254 . S
C170 O189 1.225 . S
C171 C170 1.491 . S
C171 C172 1.392 . S
C171 C176 1.356 . S
C172 C171 1.392 . S
C172 C173 1.368 . S
C172 H200 0.929 . S
C173 C172 1.368 . S
C173 C174 1.386 . S
C173 H201 0.929 . S
C174 C173 1.386 . S
C174 C175 1.373 . S
C175 C174 1.373 . S
C175 C176 1.409 . S
C175 H202 0.931 . S
C176 C171 1.356 . S
C176 C175 1.409 . S
C176 H203 0.930 . S
C177 O190 1.270 . S
C177 O191 1.248 . S
C178 O192 1.267 . S
C178 O193 1.278 . S
C179 Pr169 2.880 . S
C179 C180 1.491 . S
C179 O194 1.254 . S
C179 O195 1.225 . S
C180 C179 1.491 . S
C180 C181 1.392 . S
C180 C185 1.356 . S
C181 C180 1.392 . S
C181 C182 1.368 . S
C181 H204 0.929 . S
C182 C181 1.368 . S
C182 C183 1.386 . S
C182 H205 0.929 . S
C183 C182 1.386 . S
C183 C184 1.373 . S
C184 C183 1.373 . S
C184 C185 1.409 . S
C184 H206 0.931 . S
C185 C180 1.356 . S
C185 C184 1.409 . S
C185 H207 0.930 . S
C186 O196 1.270 . S
C186 O197 1.248 . S
C187 O198 1.267 . S
C187 O199 1.278 . S
O188 Pr168 2.562 1_554 S
O188 C170 1.254 . S
O189 Pr168 2.490 1_554 S
O189 C170 1.225 . S
O190 Pr168 2.695 . S
O190 Pr169 2.436 . S
O190 C177 1.270 . S
O191 Pr168 2.512 . S
O191 C177 1.248 . S
O192 Pr169 2.438 . S
O192 C178 1.267 . S
O193 Pr168 2.437 . S
O193 C178 1.278 . S
O194 Pr169 2.562 . S
O194 C179 1.254 . S
O195 Pr169 2.490 . S
O195 C179 1.225 . S
O196 Pr168 2.436 . S
O196 Pr169 2.695 . S
O196 C186 1.270 . S
O197 Pr169 2.512 . S
O197 C186 1.248 . S
O198 Pr168 2.438 . S
O198 C187 1.267 . S
O199 Pr169 2.437 . S
O199 C187 1.278 . S
H200 C172 0.929 . S
H201 C173 0.929 . S
H202 C175 0.931 . S
H203 C176 0.930 . S
H204 C181 0.929 . S
H205 C182 0.929 . S
H206 C184 0.931 . S
H207 C185 0.930 . S
Pr208 C210 2.880 1_556 S
Pr208 O228 2.562 1_556 S
Pr208 O229 2.490 1_556 S
Pr208 O230 2.695 1_655 S
Pr208 O231 2.512 . S
Pr208 O233 2.437 . S
Pr208 O236 2.436 . S
Pr208 O238 2.438 1_655 S
Pr209 C219 2.880 . S
Pr209 O230 2.436 . S
Pr209 O232 2.438 1_455 S
Pr209 O234 2.562 . S
Pr209 O235 2.490 . S
Pr209 O236 2.695 1_455 S
Pr209 O237 2.512 . S
Pr209 O239 2.437 . S
C210 Pr208 2.880 1_554 S
C210 C211 1.491 . S
C210 O228 1.254 . S
C210 O229 1.225 . S
C211 C210 1.491 . S
C211 C212 1.392 . S
C211 C216 1.356 . S
C212 C211 1.392 . S
C212 C213 1.368 . S
C212 H240 0.929 . S
C213 C212 1.368 . S
C213 C214 1.386 . S
C213 H241 0.929 . S
C214 C213 1.386 . S
C214 C215 1.373 . S
C215 C214 1.373 . S
C215 C216 1.409 . S
C215 H242 0.931 . S
C216 C211 1.356 . S
C216 C215 1.409 . S
C216 H243 0.930 . S
C217 O230 1.264 1_655 S
C217 O231 1.258 . S
C218 O232 1.267 . S
C218 O233 1.278 . S
C219 Pr209 2.880 . S
C219 C220 1.491 . S
C219 O234 1.254 . S
C219 O235 1.225 . S
C220 C219 1.491 . S
C220 C221 1.392 . S
C220 C225 1.356 . S
C221 C220 1.392 . S
C221 C222 1.368 . S
C221 H244 0.929 . S
C222 C221 1.368 . S
C222 C223 1.386 . S
C222 H245 0.929 . S
C223 C222 1.386 . S
C223 C224 1.373 . S
C224 C223 1.373 . S
C224 C225 1.409 . S
C224 H246 0.931 . S
C225 C220 1.356 . S
C225 C224 1.409 . S
C225 H247 0.930 . S
C226 O236 1.262 1_455 S
C226 O237 1.262 . S
C227 O238 1.267 . S
C227 O239 1.278 . S
O228 Pr208 2.562 1_554 S
O228 C210 1.254 . S
O229 Pr208 2.490 1_554 S
O229 C210 1.225 . S
O230 Pr208 2.695 1_455 S
O230 Pr209 2.436 . S
O230 C217 1.264 1_455 S
O231 Pr208 2.512 . S
O231 C217 1.258 . S
O232 Pr209 2.438 1_655 S
O232 C218 1.267 . S
O233 Pr208 2.437 . S
O233 C218 1.278 . S
O234 Pr209 2.562 . S
O234 C219 1.254 . S
O235 Pr209 2.490 . S
O235 C219 1.225 . S
O236 Pr208 2.436 . S
O236 Pr209 2.695 1_655 S
O236 C226 1.262 1_655 S
O237 Pr209 2.512 . S
O237 C226 1.262 . S
O238 Pr208 2.438 1_455 S
O238 C227 1.267 . S
O239 Pr209 2.437 . S
O239 C227 1.278 . S
H240 C212 0.929 . S
H241 C213 0.929 . S
H242 C215 0.931 . S
H243 C216 0.930 . S
H244 C221 0.929 . S
H245 C222 0.929 . S
H246 C224 0.931 . S
H247 C225 0.930 . S
C248 C249 1.355 1_565 S
C248 C250 1.419 . S
C248 H252 0.930 . S
C249 C248 1.355 1_545 S
C249 C258 1.443 . S
C250 C248 1.419 . S
C250 C251 1.341 1_565 S
C250 H253 0.929 . S
C251 C250 1.341 1_545 S
C251 C257 1.451 . S
H252 C248 0.930 . S
H253 C250 0.929 . S
S254 N255 1.613 . S
S254 N256 1.610 . S
N255 S254 1.613 . S
N255 C258 1.350 . S
N256 S254 1.610 . S
N256 C257 1.351 . S
C257 C251 1.451 . S
C257 N256 1.351 . S
C257 C258 1.434 . S
C258 C249 1.443 . S
C258 N255 1.350 . S
C258 C257 1.434 . S
C259 C260 1.369 . S
C259 C261 1.419 . S
C259 H263 0.930 . S
C260 C259 1.369 . S
C260 C269 1.429 . S
C261 C259 1.419 . S
C261 C262 1.363 . S
C261 H264 0.929 . S
C262 C261 1.363 . S
C262 C268 1.428 . S
H263 C259 0.930 . S
H264 C261 0.929 . S
S265 N266 1.613 . S
S265 N267 1.610 . S
N266 S265 1.613 . S
N266 C269 1.350 . S
N267 S265 1.610 . S
N267 C268 1.351 . S
C268 C262 1.428 . S
C268 N267 1.351 . S
C268 C269 1.434 . S
C269 C260 1.429 . S
C269 N266 1.350 . S
C269 C268 1.434 . S
C270 C271 1.369 . S
C270 C272 1.419 . S
C270 H274 0.930 . S
C271 C270 1.369 . S
C271 C280 1.429 . S
C272 C270 1.419 . S
C272 C273 1.363 . S
C272 H275 0.929 . S
C273 C272 1.363 . S
C273 C279 1.428 . S
H274 C270 0.930 . S
H275 C272 0.929 . S
S276 N277 1.613 . S
S276 N278 1.610 . S
N277 S276 1.613 . S
N277 C280 1.350 . S
N278 S276 1.610 . S
N278 C279 1.351 . S
C279 C273 1.428 . S
C279 N278 1.351 . S
C279 C280 1.434 . S
C280 C271 1.429 . S
C280 N277 1.350 . S
C280 C279 1.434 . S
C281 C282 1.369 1_655 S
C281 C283 1.419 . S
C281 H285 0.930 . S
C282 C281 1.369 1_455 S
C282 C291 1.429 . S
C283 C281 1.419 . S
C283 C284 1.363 1_655 S
C283 H286 0.929 . S
C284 C283 1.363 1_455 S
C284 C290 1.428 . S
H285 C281 0.930 . S
H286 C283 0.929 . S
S287 N288 1.613 . S
S287 N289 1.610 . S
N288 S287 1.613 . S
N288 C291 1.350 . S
N289 S287 1.610 . S
N289 C290 1.351 . S
C290 C284 1.428 . S
C290 N289 1.351 . S
C290 C291 1.434 . S
C291 C282 1.429 . S
C291 N288 1.350 . S
C291 C290 1.434 . S
C292 C293 1.367 1_565 S
C292 C294 1.419 . S
C292 H296 0.930 . S
C293 C292 1.367 1_545 S
C293 C302 1.430 . S
C294 C292 1.419 . S
C294 C295 1.364 . S
C294 H297 0.929 . S
C295 C294 1.364 . S
C295 C301 1.428 1_565 S
H296 C292 0.930 . S
H297 C294 0.929 . S
S298 N299 1.613 . S
S298 N300 1.610 . S
N299 S298 1.613 . S
N299 C302 1.350 . S
N300 S298 1.610 . S
N300 C301 1.351 . S
C301 C295 1.428 1_545 S
C301 N300 1.351 . S
C301 C302 1.434 . S
C302 C293 1.430 . S
C302 N299 1.350 . S
C302 C301 1.434 . S
C303 C304 1.369 . S
C303 C305 1.419 . S
C303 H307 0.930 . S
C304 C303 1.369 . S
C304 C313 1.429 . S
C305 C303 1.419 . S
C305 C306 1.363 . S
C305 H308 0.929 . S
C306 C305 1.363 . S
C306 C312 1.428 . S
H307 C303 0.930 . S
H308 C305 0.929 . S
S309 N310 1.613 . S
S309 N311 1.610 . S
N310 S309 1.613 . S
N310 C313 1.350 . S
N311 S309 1.610 . S
N311 C312 1.351 . S
C312 C306 1.428 . S
C312 N311 1.351 . S
C312 C313 1.434 . S
C313 C304 1.429 . S
C313 N310 1.350 . S
C313 C312 1.434 . S
C314 C315 1.369 . S
C314 C316 1.419 . S
C314 H318 0.930 . S
C315 C314 1.369 . S
C315 C324 1.429 . S
C316 C314 1.419 . S
C316 C317 1.363 . S
C316 H319 0.929 . S
C317 C316 1.363 . S
C317 C323 1.428 . S
H318 C314 0.930 . S
H319 C316 0.929 . S
S320 N321 1.613 . S
S320 N322 1.610 . S
N321 S320 1.613 . S
N321 C324 1.350 . S
N322 S320 1.610 . S
N322 C323 1.351 . S
C323 C317 1.428 . S
C323 N322 1.351 . S
C323 C324 1.434 . S
C324 C315 1.429 . S
C324 N321 1.350 . S
C324 C323 1.434 . S
C325 C326 1.379 . S
C325 C327 1.419 . S
C325 H329 0.930 . S
C326 C325 1.379 . S
C326 C335 1.419 1_655 S
C327 C325 1.419 . S
C327 C328 1.363 . S
C327 H330 0.929 . S
C328 C327 1.363 . S
C328 C334 1.428 1_655 S
H329 C325 0.930 . S
H330 C327 0.929 . S
S331 N332 1.613 . S
S331 N333 1.610 . S
N332 S331 1.613 . S
N332 C335 1.350 . S
N333 S331 1.610 . S
N333 C334 1.351 . S
C334 C328 1.428 1_455 S
C334 N333 1.351 . S
C334 C335 1.434 . S
C335 C326 1.419 1_455 S
C335 N332 1.350 . S
C335 C334 1.434 . S
C336 C337 1.369 1_455 S
C336 C338 1.413 1_455 S
C336 H340 0.936 . S
C337 C336 1.369 1_655 S
C337 C346 1.429 . S
C338 C336 1.413 1_655 S
C338 C339 1.363 . S
C338 H341 0.929 . S
C339 C338 1.363 . S
C339 C345 1.428 . S
H340 C336 0.936 . S
H341 C338 0.929 . S
S342 N343 1.613 . S
S342 N344 1.610 . S
N343 S342 1.613 . S
N343 C346 1.350 . S
N344 S342 1.610 . S
N344 C345 1.351 . S
C345 C339 1.428 . S
C345 N344 1.351 . S
C345 C346 1.434 . S
C346 C337 1.429 . S
C346 N343 1.350 . S
C346 C345 1.434 . S
C347 C348 1.369 . S
C347 C349 1.419 . S
C347 H351 0.930 . S
C348 C347 1.369 . S
C348 C357 1.429 . S
C349 C347 1.419 . S
C349 C350 1.363 . S
C349 H352 0.929 . S
C350 C349 1.363 . S
C350 C356 1.428 . S
H351 C347 0.930 . S
H352 C349 0.929 . S
S353 N354 1.617 . S
S353 N355 1.610 . S
N354 S353 1.617 . S
N354 C357 1.353 . S
N355 S353 1.610 . S
N355 C356 1.351 . S
C356 C350 1.428 . S
C356 N355 1.351 . S
C356 C357 1.434 . S
C357 C348 1.429 . S
C357 N354 1.353 . S
C357 C356 1.434 . S
C358 C359 1.369 . S
C358 C360 1.419 . S
C358 H362 0.930 . S
C359 C358 1.369 . S
C359 C368 1.429 . S
C360 C358 1.419 . S
C360 C361 1.363 . S
C360 H363 0.929 . S
C361 C360 1.363 . S
C361 C367 1.428 . S
H362 C358 0.930 . S
H363 C360 0.929 . S
S364 N365 1.613 . S
S364 N366 1.610 . S
N365 S364 1.613 . S
N365 C368 1.350 . S
N366 S364 1.610 . S
N366 C367 1.351 . S
C367 C361 1.428 . S
C367 N366 1.351 . S
C367 C368 1.434 . S
C368 C359 1.429 . S
C368 N365 1.350 . S
C368 C367 1.434 . S
C369 C370 1.369 . S
C369 C371 1.419 . S
C369 H373 0.930 . S
C370 C369 1.369 . S
C370 C379 1.429 . S
C371 C369 1.419 . S
C371 C372 1.363 . S
C371 H374 0.929 . S
C372 C371 1.363 . S
C372 C378 1.428 . S
H373 C369 0.930 . S
H374 C371 0.929 . S
S375 N376 1.613 . S
S375 N377 1.610 . S
N376 S375 1.613 . S
N376 C379 1.350 . S
N377 S375 1.610 . S
N377 C378 1.351 . S
C378 C372 1.428 . S
C378 N377 1.351 . S
C378 C379 1.434 . S
C379 C370 1.429 . S
C379 N376 1.350 . S
C379 C378 1.434 . S
C380 C381 1.369 . S
C380 C382 1.419 . S
C380 H384 0.930 . S
C381 C380 1.369 . S
C381 C390 1.429 1_455 S
C382 C380 1.419 . S
C382 C383 1.363 . S
C382 H385 0.929 . S
C383 C382 1.363 . S
C383 C389 1.428 . S
H384 C380 0.930 . S
H385 C382 0.929 . S
S386 N387 1.613 . S
S386 N388 1.610 1_655 S
N387 S386 1.613 . S
N387 C390 1.350 . S
N388 S386 1.610 1_455 S
N388 C389 1.351 . S
C389 C383 1.428 . S
C389 N388 1.351 . S
C389 C390 1.434 1_455 S
C390 C381 1.429 1_655 S
C390 N387 1.350 . S
C390 C389 1.434 1_655 S
C391 C392 1.369 . S
C391 C393 1.419 . S
C391 H395 0.930 . S
C392 C391 1.369 . S
C392 C401 1.429 . S
C393 C391 1.419 . S
C393 C394 1.363 . S
C393 H396 0.929 . S
C394 C393 1.363 . S
C394 C400 1.428 . S
H395 C391 0.930 . S
H396 C393 0.929 . S
S397 N398 1.613 . S
S397 N399 1.610 1_565 S
N398 S397 1.613 . S
N398 C401 1.350 1_565 S
N399 S397 1.610 1_545 S
N399 C400 1.351 . S
C400 C394 1.428 . S
C400 N399 1.351 . S
C400 C401 1.434 . S
C401 C392 1.429 . S
C401 N398 1.350 1_545 S
C401 C400 1.434 . S
C402 C403 1.369 . S
C402 C404 1.419 . S
C402 H406 0.930 . S
C403 C402 1.369 . S
C403 C412 1.429 . S
C404 C402 1.419 . S
C404 C405 1.363 . S
C404 H407 0.929 . S
C405 C404 1.363 . S
C405 C411 1.428 . S
H406 C402 0.930 . S
H407 C404 0.929 . S
S408 N409 1.613 . S
S408 N410 1.610 . S
N409 S408 1.613 . S
N409 C412 1.350 . S
N410 S408 1.610 . S
N410 C411 1.351 . S
C411 C405 1.428 . S
C411 N410 1.351 . S
C411 C412 1.434 . S
C412 C403 1.429 . S
C412 N409 1.350 . S
C412 C411 1.434 . S
C413 C414 1.369 . S
C413 C415 1.419 . S
C413 H417 0.930 . S
C414 C413 1.369 . S
C414 C423 1.429 . S
C415 C413 1.419 . S
C415 C416 1.363 . S
C415 H418 0.929 . S
C416 C415 1.363 . S
C416 C422 1.428 . S
H417 C413 0.930 . S
H418 C415 0.929 . S
S419 N420 1.613 . S
S419 N421 1.610 . S
N420 S419 1.613 . S
N420 C423 1.350 . S
N421 S419 1.610 . S
N421 C422 1.351 . S
C422 C416 1.428 . S
C422 N421 1.351 . S
C422 C423 1.434 . S
C423 C414 1.429 . S
C423 N420 1.350 . S
C423 C422 1.434 . S
C424 C425 1.369 1_655 S
C424 C426 1.419 . S
C424 H428 0.930 . S
C425 C424 1.369 1_455 S
C425 C434 1.429 . S
C426 C424 1.419 . S
C426 C427 1.363 1_655 S
C426 H429 0.929 1_556 S
C427 C426 1.363 1_455 S
C427 C433 1.428 . S
H428 C424 0.930 . S
H429 C426 0.929 1_554 S
S430 N431 1.613 . S
S430 N432 1.610 . S
N431 S430 1.613 . S
N431 C434 1.350 . S
N432 S430 1.610 . S
N432 C433 1.351 . S
C433 C427 1.428 . S
C433 N432 1.351 . S
C433 C434 1.434 . S
C434 C425 1.429 . S
C434 N431 1.350 . S
C434 C433 1.434 . S
C435 C436 1.369 . S
C435 C437 1.419 . S
C435 H439 0.930 . S
C436 C435 1.369 . S
C436 C445 1.429 1_545 S
C437 C435 1.419 . S
C437 C438 1.363 . S
C437 H440 0.929 . S
C438 C437 1.363 . S
C438 C444 1.428 1_545 S
H439 C435 0.930 . S
H440 C437 0.929 . S
S441 N442 1.613 . S
S441 N443 1.610 . S
N442 S441 1.613 . S
N442 C445 1.350 . S
N443 S441 1.610 . S
N443 C444 1.351 . S
C444 C438 1.428 1_565 S
C444 N443 1.351 . S
C444 C445 1.434 . S
C445 C436 1.429 1_565 S
C445 N442 1.350 . S
C445 C444 1.434 . S
C446 C447 1.369 . S
C446 C448 1.419 . S
C446 H450 0.930 1_556 S
C447 C446 1.369 . S
C447 C456 1.429 . S
C448 C446 1.419 . S
C448 C449 1.363 . S
C448 H451 0.929 1_556 S
C449 C448 1.363 . S
C449 C455 1.428 . S
H450 C446 0.930 1_554 S
H451 C448 0.929 1_554 S
S452 N453 1.613 . S
S452 N454 1.610 . S
N453 S452 1.613 . S
N453 C456 1.350 . S
N454 S452 1.610 . S
N454 C455 1.351 . S
C455 C449 1.428 . S
C455 N454 1.351 . S
C455 C456 1.434 . S
C456 C447 1.429 . S
C456 N453 1.350 . S
C456 C455 1.434 . S
C457 C458 1.369 . S
C457 C459 1.419 . S
C457 H461 0.930 . S
C458 C457 1.369 . S
C458 C467 1.429 . S
C459 C457 1.419 . S
C459 C460 1.363 . S
C459 H462 0.929 . S
C460 C459 1.363 . S
C460 C466 1.428 . S
H461 C457 0.930 . S
H462 C459 0.929 . S
S463 N464 1.613 . S
S463 N465 1.610 . S
N464 S463 1.613 . S
N464 C467 1.350 . S
N465 S463 1.610 . S
N465 C466 1.351 . S
C466 C460 1.428 . S
C466 N465 1.351 . S
C466 C467 1.434 . S
C467 C458 1.429 . S
C467 N464 1.350 . S
C467 C466 1.434 . S
C468 C469 1.369 . S
C468 C470 1.419 . S
C468 H472 0.929 1_655 S
C469 C468 1.369 . S
C469 C478 1.429 . S
C470 C468 1.419 . S
C470 C471 1.363 . S
C470 H473 0.929 . S
C471 C470 1.363 . S
C471 C477 1.428 . S
H472 C468 0.929 1_455 S
H473 C470 0.929 . S
S474 N475 1.613 . S
S474 N476 1.610 . S
N475 S474 1.613 . S
N475 C478 1.350 . S
N476 S474 1.610 . S
N476 C477 1.351 . S
C477 C471 1.428 . S
C477 N476 1.351 . S
C477 C478 1.434 . S
C478 C469 1.429 . S
C478 N475 1.350 . S
C478 C477 1.434 . S
C479 C480 1.369 . S
C479 C481 1.419 . S
C479 H483 0.930 . S
C480 C479 1.369 . S
C480 C489 1.429 1_565 S
C481 C479 1.419 . S
C481 C482 1.363 . S
C481 H484 0.929 . S
C482 C481 1.363 . S
C482 C488 1.428 . S
H483 C479 0.930 . S
H484 C481 0.929 . S
S485 N486 1.613 1_554 S
S485 N487 1.610 1_554 S
N486 S485 1.613 1_556 S
N486 C489 1.350 . S
N487 S485 1.610 1_556 S
N487 C488 1.351 1_545 S
C488 C482 1.428 . S
C488 N487 1.351 1_565 S
C488 C489 1.434 1_565 S
C489 C480 1.429 1_545 S
C489 N486 1.350 . S
C489 C488 1.434 1_545 S
C490 C491 1.369 . S
C490 C492 1.419 . S
C490 H494 0.930 . S
C491 C490 1.369 . S
C491 C500 1.429 . S
C492 C490 1.419 . S
C492 C493 1.363 . S
C492 H495 0.929 . S
C493 C492 1.363 . S
C493 C499 1.428 . S
H494 C490 0.930 . S
H495 C492 0.929 . S
S496 N497 1.613 . S
S496 N498 1.610 . S
N497 S496 1.613 . S
N497 C500 1.350 . S
N498 S496 1.610 . S
N498 C499 1.351 . S
C499 C493 1.428 . S
C499 N498 1.351 . S
C499 C500 1.434 . S
C500 C491 1.429 . S
C500 N497 1.350 . S
C500 C499 1.434 . S
C501 C502 1.369 . S
C501 C503 1.419 . S
C501 H505 0.930 . S
C502 C501 1.369 . S
C502 C511 1.429 . S
C503 C501 1.419 . S
C503 C504 1.363 . S
C503 H506 0.929 . S
C504 C503 1.363 . S
C504 C510 1.428 . S
H505 C501 0.930 . S
H506 C503 0.929 . S
S507 N508 1.613 . S
S507 N509 1.610 . S
N508 S507 1.613 . S
N508 C511 1.350 . S
N509 S507 1.610 . S
N509 C510 1.351 . S
C510 C504 1.428 . S
C510 N509 1.351 . S
C510 C511 1.434 . S
C511 C502 1.429 . S
C511 N508 1.350 . S
C511 C510 1.434 . S
C249 C76 1.934 1_545 S
C251 C97 2.188 1_545 S
C262 C137 2.208 . S
C260 C87 1.952 . S
C273 C177 2.220 . S
C271 C54 1.970 . S
C284 C217 2.201 1_455 S
C282 C65 1.949 1_455 S
C295 C106 2.190 1_564 S
C293 C32 1.946 1_545 S
C304 C43 1.951 . S
C306 C146 2.209 1_554 S
C315 C10 1.971 . S
C317 C186 2.218 1_554 S
C326 C21 1.947 . S
C328 C226 2.200 1_654 S
C339 C103 0.829 . S
C337 C60 0.832 1_655 S
C350 C143 0.818 . S
C348 C71 0.839 1_565 S
C361 C183 0.811 . S
C359 C82 0.828 . S
C370 C49 0.817 . S
C372 C223 0.808 . S
C381 C16 0.843 . S
C383 C94 0.818 . S
C394 C134 0.816 . S
C392 C27 0.831 . S
C405 C174 0.810 . S
C403 C38 0.825 . S
C414 C5 0.806 . S
C416 C214 0.824 . S
C425 C59 2.245 . S
C427 C107 2.569 . S
C436 C70 2.197 . S
C438 C147 2.530 . S
C449 C187 2.517 . S
C447 C81 2.191 . S
C460 C227 2.561 . S
C458 C48 2.224 . S
C469 C15 2.239 1_655 S
C471 C98 2.578 . S
C482 C138 2.532 . S
C480 C26 2.209 1_565 S
C493 C178 2.517 . S
C491 C37 2.202 . S
C502 C4 2.232 . S
C504 C218 2.564 . S
