# Generated by pormake.
# Topology bpr, (3,3)-cn, num edge types: 1
# Building blocks:
#     Node 0, Type 0, BuildingBlock: WUSLED_clean_sbu_0, # of connection points: 3
#     Node 1, Type 0, BuildingBlock: WUSLED_clean_sbu_0, # of connection points: 3
#     Node 2, Type 0, BuildingBlock: WUSLED_clean_sbu_0, # of connection points: 3
#     Node 3, Type 0, BuildingBlock: WUSLED_clean_sbu_0, # of connection points: 3
#     Node 4, Type 0, BuildingBlock: WUSLED_clean_sbu_0, # of connection points: 3
#     Node 5, Type 0, BuildingBlock: WUSLED_clean_sbu_0, # of connection points: 3
#     Node 6, Type 0, BuildingBlock: WUSLED_clean_sbu_0, # of connection points: 3
#     Node 7, Type 0, BuildingBlock: WUSLED_clean_sbu_0, # of connection points: 3
#     Node 8, Type 0, BuildingBlock: WUSLED_clean_sbu_0, # of connection points: 3
#     Node 9, Type 0, BuildingBlock: WUSLED_clean_sbu_0, # of connection points: 3
#     Node 10, Type 0, BuildingBlock: WUSLED_clean_sbu_0, # of connection points: 3
#     Node 11, Type 0, BuildingBlock: WUSLED_clean_sbu_0, # of connection points: 3
#     Node 12, Type 0, BuildingBlock: WUSLED_clean_sbu_0, # of connection points: 3
#     Node 13, Type 0, BuildingBlock: WUSLED_clean_sbu_0, # of connection points: 3
#     Node 14, Type 0, BuildingBlock: WUSLED_clean_sbu_0, # of connection points: 3
#     Node 15, Type 0, BuildingBlock: WUSLED_clean_sbu_0, # of connection points: 3
#     Node 16, Type 0, BuildingBlock: WUSLED_clean_sbu_0, # of connection points: 3
#     Node 17, Type 0, BuildingBlock: WUSLED_clean_sbu_0, # of connection points: 3
#     Node 18, Type 0, BuildingBlock: WUSLED_clean_sbu_0, # of connection points: 3
#     Node 19, Type 0, BuildingBlock: WUSLED_clean_sbu_0, # of connection points: 3
#     Node 20, Type 0, BuildingBlock: WUSLED_clean_sbu_0, # of connection points: 3
#     Node 21, Type 0, BuildingBlock: WUSLED_clean_sbu_0, # of connection points: 3
#     Node 22, Type 0, BuildingBlock: WUSLED_clean_sbu_0, # of connection points: 3
#     Node 23, Type 0, BuildingBlock: WUSLED_clean_sbu_0, # of connection points: 3
#     Node 24, Type 0, BuildingBlock: WUSLED_clean_sbu_0, # of connection points: 3
#     Node 25, Type 0, BuildingBlock: WUSLED_clean_sbu_0, # of connection points: 3
#     Node 26, Type 0, BuildingBlock: WUSLED_clean_sbu_0, # of connection points: 3
#     Node 27, Type 0, BuildingBlock: WUSLED_clean_sbu_0, # of connection points: 3
#     Node 28, Type 0, BuildingBlock: WUSLED_clean_sbu_0, # of connection points: 3
#     Node 29, Type 0, BuildingBlock: WUSLED_clean_sbu_0, # of connection points: 3
#     Node 30, Type 0, BuildingBlock: WUSLED_clean_sbu_0, # of connection points: 3
#     Node 31, Type 0, BuildingBlock: WUSLED_clean_sbu_0, # of connection points: 3
#     Node 32, Type 0, BuildingBlock: WUSLED_clean_sbu_0, # of connection points: 3
#     Node 33, Type 0, BuildingBlock: WUSLED_clean_sbu_0, # of connection points: 3
#     Node 34, Type 0, BuildingBlock: WUSLED_clean_sbu_0, # of connection points: 3
#     Node 35, Type 0, BuildingBlock: WUSLED_clean_sbu_0, # of connection points: 3
#     Node 36, Type 0, BuildingBlock: WUSLED_clean_sbu_0, # of connection points: 3
#     Node 37, Type 0, BuildingBlock: WUSLED_clean_sbu_0, # of connection points: 3
#     Node 38, Type 0, BuildingBlock: WUSLED_clean_sbu_0, # of connection points: 3
#     Node 39, Type 0, BuildingBlock: WUSLED_clean_sbu_0, # of connection points: 3
#     Node 40, Type 0, BuildingBlock: WUSLED_clean_sbu_0, # of connection points: 3
#     Node 41, Type 0, BuildingBlock: WUSLED_clean_sbu_0, # of connection points: 3
#     Node 42, Type 0, BuildingBlock: WUSLED_clean_sbu_0, # of connection points: 3
#     Node 43, Type 0, BuildingBlock: WUSLED_clean_sbu_0, # of connection points: 3
#     Node 44, Type 0, BuildingBlock: WUSLED_clean_sbu_0, # of connection points: 3
#     Node 45, Type 0, BuildingBlock: WUSLED_clean_sbu_0, # of connection points: 3
#     Node 46, Type 0, BuildingBlock: WUSLED_clean_sbu_0, # of connection points: 3
#     Node 47, Type 0, BuildingBlock: WUSLED_clean_sbu_0, # of connection points: 3
#     Node 48, Type 1, BuildingBlock: BELTOD_clean_linker_0, # of connection points: 3
#     Node 49, Type 1, BuildingBlock: BELTOD_clean_linker_0, # of connection points: 3
#     Node 50, Type 1, BuildingBlock: BELTOD_clean_linker_0, # of connection points: 3
#     Node 51, Type 1, BuildingBlock: BELTOD_clean_linker_0, # of connection points: 3
#     Node 52, Type 1, BuildingBlock: BELTOD_clean_linker_0, # of connection points: 3
#     Node 53, Type 1, BuildingBlock: BELTOD_clean_linker_0, # of connection points: 3
#     Node 54, Type 1, BuildingBlock: BELTOD_clean_linker_0, # of connection points: 3
#     Node 55, Type 1, BuildingBlock: BELTOD_clean_linker_0, # of connection points: 3
#     Node 56, Type 1, BuildingBlock: BELTOD_clean_linker_0, # of connection points: 3
#     Node 57, Type 1, BuildingBlock: BELTOD_clean_linker_0, # of connection points: 3
#     Node 58, Type 1, BuildingBlock: BELTOD_clean_linker_0, # of connection points: 3
#     Node 59, Type 1, BuildingBlock: BELTOD_clean_linker_0, # of connection points: 3
#     Node 60, Type 1, BuildingBlock: BELTOD_clean_linker_0, # of connection points: 3
#     Node 61, Type 1, BuildingBlock: BELTOD_clean_linker_0, # of connection points: 3
#     Node 62, Type 1, BuildingBlock: BELTOD_clean_linker_0, # of connection points: 3
#     Node 63, Type 1, BuildingBlock: BELTOD_clean_linker_0, # of connection points: 3
#     Node 64, Type 1, BuildingBlock: BELTOD_clean_linker_0, # of connection points: 3
#     Node 65, Type 1, BuildingBlock: BELTOD_clean_linker_0, # of connection points: 3
#     Node 66, Type 1, BuildingBlock: BELTOD_clean_linker_0, # of connection points: 3
#     Node 67, Type 1, BuildingBlock: BELTOD_clean_linker_0, # of connection points: 3
#     Node 68, Type 1, BuildingBlock: BELTOD_clean_linker_0, # of connection points: 3
#     Node 69, Type 1, BuildingBlock: BELTOD_clean_linker_0, # of connection points: 3
#     Node 70, Type 1, BuildingBlock: BELTOD_clean_linker_0, # of connection points: 3
#     Node 71, Type 1, BuildingBlock: BELTOD_clean_linker_0, # of connection points: 3
#     Node 72, Type 1, BuildingBlock: BELTOD_clean_linker_0, # of connection points: 3
#     Node 73, Type 1, BuildingBlock: BELTOD_clean_linker_0, # of connection points: 3
#     Node 74, Type 1, BuildingBlock: BELTOD_clean_linker_0, # of connection points: 3
#     Node 75, Type 1, BuildingBlock: BELTOD_clean_linker_0, # of connection points: 3
#     Node 76, Type 1, BuildingBlock: BELTOD_clean_linker_0, # of connection points: 3
#     Node 77, Type 1, BuildingBlock: BELTOD_clean_linker_0, # of connection points: 3
#     Node 78, Type 1, BuildingBlock: BELTOD_clean_linker_0, # of connection points: 3
#     Node 79, Type 1, BuildingBlock: BELTOD_clean_linker_0, # of connection points: 3
#     Node 80, Type 1, BuildingBlock: BELTOD_clean_linker_0, # of connection points: 3
#     Node 81, Type 1, BuildingBlock: BELTOD_clean_linker_0, # of connection points: 3
#     Node 82, Type 1, BuildingBlock: BELTOD_clean_linker_0, # of connection points: 3
#     Node 83, Type 1, BuildingBlock: BELTOD_clean_linker_0, # of connection points: 3
#     Node 84, Type 1, BuildingBlock: BELTOD_clean_linker_0, # of connection points: 3
#     Node 85, Type 1, BuildingBlock: BELTOD_clean_linker_0, # of connection points: 3
#     Node 86, Type 1, BuildingBlock: BELTOD_clean_linker_0, # of connection points: 3
#     Node 87, Type 1, BuildingBlock: BELTOD_clean_linker_0, # of connection points: 3
#     Node 88, Type 1, BuildingBlock: BELTOD_clean_linker_0, # of connection points: 3
#     Node 89, Type 1, BuildingBlock: BELTOD_clean_linker_0, # of connection points: 3
#     Node 90, Type 1, BuildingBlock: BELTOD_clean_linker_0, # of connection points: 3
#     Node 91, Type 1, BuildingBlock: BELTOD_clean_linker_0, # of connection points: 3
#     Node 92, Type 1, BuildingBlock: BELTOD_clean_linker_0, # of connection points: 3
#     Node 93, Type 1, BuildingBlock: BELTOD_clean_linker_0, # of connection points: 3
#     Node 94, Type 1, BuildingBlock: BELTOD_clean_linker_0, # of connection points: 3
#     Node 95, Type 1, BuildingBlock: BELTOD_clean_linker_0, # of connection points: 3
#     Edge 96, Type (0, 1), BuildingBlock: XIVTED_clean_linker_0, # of connection points: 2
#     Edge 97, Type (0, 1), BuildingBlock: XIVTED_clean_linker_0, # of connection points: 2
#     Edge 98, Type (0, 1), BuildingBlock: XIVTED_clean_linker_0, # of connection points: 2
#     Edge 99, Type (0, 1), BuildingBlock: XIVTED_clean_linker_0, # of connection points: 2
#     Edge 100, Type (0, 1), BuildingBlock: XIVTED_clean_linker_0, # of connection points: 2
#     Edge 101, Type (0, 1), BuildingBlock: XIVTED_clean_linker_0, # of connection points: 2
#     Edge 102, Type (0, 1), BuildingBlock: XIVTED_clean_linker_0, # of connection points: 2
#     Edge 103, Type (0, 1), BuildingBlock: XIVTED_clean_linker_0, # of connection points: 2
#     Edge 104, Type (0, 1), BuildingBlock: XIVTED_clean_linker_0, # of connection points: 2
#     Edge 105, Type (0, 1), BuildingBlock: XIVTED_clean_linker_0, # of connection points: 2
#     Edge 106, Type (0, 1), BuildingBlock: XIVTED_clean_linker_0, # of connection points: 2
#     Edge 107, Type (0, 1), BuildingBlock: XIVTED_clean_linker_0, # of connection points: 2
#     Edge 108, Type (0, 1), BuildingBlock: XIVTED_clean_linker_0, # of connection points: 2
#     Edge 109, Type (0, 1), BuildingBlock: XIVTED_clean_linker_0, # of connection points: 2
#     Edge 110, Type (0, 1), BuildingBlock: XIVTED_clean_linker_0, # of connection points: 2
#     Edge 111, Type (0, 1), BuildingBlock: XIVTED_clean_linker_0, # of connection points: 2
#     Edge 112, Type (0, 1), BuildingBlock: XIVTED_clean_linker_0, # of connection points: 2
#     Edge 113, Type (0, 1), BuildingBlock: XIVTED_clean_linker_0, # of connection points: 2
#     Edge 114, Type (0, 1), BuildingBlock: XIVTED_clean_linker_0, # of connection points: 2
#     Edge 115, Type (0, 1), BuildingBlock: XIVTED_clean_linker_0, # of connection points: 2
#     Edge 116, Type (0, 1), BuildingBlock: XIVTED_clean_linker_0, # of connection points: 2
#     Edge 117, Type (0, 1), BuildingBlock: XIVTED_clean_linker_0, # of connection points: 2
#     Edge 118, Type (0, 1), BuildingBlock: XIVTED_clean_linker_0, # of connection points: 2
#     Edge 119, Type (0, 1), BuildingBlock: XIVTED_clean_linker_0, # of connection points: 2
#     Edge 120, Type (0, 1), BuildingBlock: XIVTED_clean_linker_0, # of connection points: 2
#     Edge 121, Type (0, 1), BuildingBlock: XIVTED_clean_linker_0, # of connection points: 2
#     Edge 122, Type (0, 1), BuildingBlock: XIVTED_clean_linker_0, # of connection points: 2
#     Edge 123, Type (0, 1), BuildingBlock: XIVTED_clean_linker_0, # of connection points: 2
#     Edge 124, Type (0, 1), BuildingBlock: XIVTED_clean_linker_0, # of connection points: 2
#     Edge 125, Type (0, 1), BuildingBlock: XIVTED_clean_linker_0, # of connection points: 2
#     Edge 126, Type (0, 1), BuildingBlock: XIVTED_clean_linker_0, # of connection points: 2
#     Edge 127, Type (0, 1), BuildingBlock: XIVTED_clean_linker_0, # of connection points: 2
#     Edge 128, Type (0, 1), BuildingBlock: XIVTED_clean_linker_0, # of connection points: 2
#     Edge 129, Type (0, 1), BuildingBlock: XIVTED_clean_linker_0, # of connection points: 2
#     Edge 130, Type (0, 1), BuildingBlock: XIVTED_clean_linker_0, # of connection points: 2
#     Edge 131, Type (0, 1), BuildingBlock: XIVTED_clean_linker_0, # of connection points: 2
#     Edge 132, Type (0, 1), BuildingBlock: XIVTED_clean_linker_0, # of connection points: 2
#     Edge 133, Type (0, 1), BuildingBlock: XIVTED_clean_linker_0, # of connection points: 2
#     Edge 134, Type (0, 1), BuildingBlock: XIVTED_clean_linker_0, # of connection points: 2
#     Edge 135, Type (0, 1), BuildingBlock: XIVTED_clean_linker_0, # of connection points: 2
#     Edge 136, Type (0, 1), BuildingBlock: XIVTED_clean_linker_0, # of connection points: 2
#     Edge 137, Type (0, 1), BuildingBlock: XIVTED_clean_linker_0, # of connection points: 2
#     Edge 138, Type (0, 1), BuildingBlock: XIVTED_clean_linker_0, # of connection points: 2
#     Edge 139, Type (0, 1), BuildingBlock: XIVTED_clean_linker_0, # of connection points: 2
#     Edge 140, Type (0, 1), BuildingBlock: XIVTED_clean_linker_0, # of connection points: 2
#     Edge 141, Type (0, 1), BuildingBlock: XIVTED_clean_linker_0, # of connection points: 2
#     Edge 142, Type (0, 1), BuildingBlock: XIVTED_clean_linker_0, # of connection points: 2
#     Edge 143, Type (0, 1), BuildingBlock: XIVTED_clean_linker_0, # of connection points: 2
#     Edge 144, Type (0, 1), BuildingBlock: XIVTED_clean_linker_0, # of connection points: 2
#     Edge 145, Type (0, 1), BuildingBlock: XIVTED_clean_linker_0, # of connection points: 2
#     Edge 146, Type (0, 1), BuildingBlock: XIVTED_clean_linker_0, # of connection points: 2
#     Edge 147, Type (0, 1), BuildingBlock: XIVTED_clean_linker_0, # of connection points: 2
#     Edge 148, Type (0, 1), BuildingBlock: XIVTED_clean_linker_0, # of connection points: 2
#     Edge 149, Type (0, 1), BuildingBlock: XIVTED_clean_linker_0, # of connection points: 2
#     Edge 150, Type (0, 1), BuildingBlock: XIVTED_clean_linker_0, # of connection points: 2
#     Edge 151, Type (0, 1), BuildingBlock: XIVTED_clean_linker_0, # of connection points: 2
#     Edge 152, Type (0, 1), BuildingBlock: XIVTED_clean_linker_0, # of connection points: 2
#     Edge 153, Type (0, 1), BuildingBlock: XIVTED_clean_linker_0, # of connection points: 2
#     Edge 154, Type (0, 1), BuildingBlock: XIVTED_clean_linker_0, # of connection points: 2
#     Edge 155, Type (0, 1), BuildingBlock: XIVTED_clean_linker_0, # of connection points: 2
#     Edge 156, Type (0, 1), BuildingBlock: XIVTED_clean_linker_0, # of connection points: 2
#     Edge 157, Type (0, 1), BuildingBlock: XIVTED_clean_linker_0, # of connection points: 2
#     Edge 158, Type (0, 1), BuildingBlock: XIVTED_clean_linker_0, # of connection points: 2
#     Edge 159, Type (0, 1), BuildingBlock: XIVTED_clean_linker_0, # of connection points: 2
#     Edge 160, Type (0, 1), BuildingBlock: XIVTED_clean_linker_0, # of connection points: 2
#     Edge 161, Type (0, 1), BuildingBlock: XIVTED_clean_linker_0, # of connection points: 2
#     Edge 162, Type (0, 1), BuildingBlock: XIVTED_clean_linker_0, # of connection points: 2
#     Edge 163, Type (0, 1), BuildingBlock: XIVTED_clean_linker_0, # of connection points: 2
#     Edge 164, Type (0, 1), BuildingBlock: XIVTED_clean_linker_0, # of connection points: 2
#     Edge 165, Type (0, 1), BuildingBlock: XIVTED_clean_linker_0, # of connection points: 2
#     Edge 166, Type (0, 1), BuildingBlock: XIVTED_clean_linker_0, # of connection points: 2
#     Edge 167, Type (0, 1), BuildingBlock: XIVTED_clean_linker_0, # of connection points: 2
#     Edge 168, Type (0, 1), BuildingBlock: XIVTED_clean_linker_0, # of connection points: 2
#     Edge 169, Type (0, 1), BuildingBlock: XIVTED_clean_linker_0, # of connection points: 2
#     Edge 170, Type (0, 1), BuildingBlock: XIVTED_clean_linker_0, # of connection points: 2
#     Edge 171, Type (0, 1), BuildingBlock: XIVTED_clean_linker_0, # of connection points: 2
#     Edge 172, Type (0, 1), BuildingBlock: XIVTED_clean_linker_0, # of connection points: 2
#     Edge 173, Type (0, 1), BuildingBlock: XIVTED_clean_linker_0, # of connection points: 2
#     Edge 174, Type (0, 1), BuildingBlock: XIVTED_clean_linker_0, # of connection points: 2
#     Edge 175, Type (0, 1), BuildingBlock: XIVTED_clean_linker_0, # of connection points: 2
#     Edge 176, Type (0, 1), BuildingBlock: XIVTED_clean_linker_0, # of connection points: 2
#     Edge 177, Type (0, 1), BuildingBlock: XIVTED_clean_linker_0, # of connection points: 2
#     Edge 178, Type (0, 1), BuildingBlock: XIVTED_clean_linker_0, # of connection points: 2
#     Edge 179, Type (0, 1), BuildingBlock: XIVTED_clean_linker_0, # of connection points: 2
#     Edge 180, Type (0, 1), BuildingBlock: XIVTED_clean_linker_0, # of connection points: 2
#     Edge 181, Type (0, 1), BuildingBlock: XIVTED_clean_linker_0, # of connection points: 2
#     Edge 182, Type (0, 1), BuildingBlock: XIVTED_clean_linker_0, # of connection points: 2
#     Edge 183, Type (0, 1), BuildingBlock: XIVTED_clean_linker_0, # of connection points: 2
#     Edge 184, Type (0, 1), BuildingBlock: XIVTED_clean_linker_0, # of connection points: 2
#     Edge 185, Type (0, 1), BuildingBlock: XIVTED_clean_linker_0, # of connection points: 2
#     Edge 186, Type (0, 1), BuildingBlock: XIVTED_clean_linker_0, # of connection points: 2
#     Edge 187, Type (0, 1), BuildingBlock: XIVTED_clean_linker_0, # of connection points: 2
#     Edge 188, Type (0, 1), BuildingBlock: XIVTED_clean_linker_0, # of connection points: 2
#     Edge 189, Type (0, 1), BuildingBlock: XIVTED_clean_linker_0, # of connection points: 2
#     Edge 190, Type (0, 1), BuildingBlock: XIVTED_clean_linker_0, # of connection points: 2
#     Edge 191, Type (0, 1), BuildingBlock: XIVTED_clean_linker_0, # of connection points: 2
#     Edge 192, Type (0, 1), BuildingBlock: XIVTED_clean_linker_0, # of connection points: 2
#     Edge 193, Type (0, 1), BuildingBlock: XIVTED_clean_linker_0, # of connection points: 2
#     Edge 194, Type (0, 1), BuildingBlock: XIVTED_clean_linker_0, # of connection points: 2
#     Edge 195, Type (0, 1), BuildingBlock: XIVTED_clean_linker_0, # of connection points: 2
#     Edge 196, Type (0, 1), BuildingBlock: XIVTED_clean_linker_0, # of connection points: 2
#     Edge 197, Type (0, 1), BuildingBlock: XIVTED_clean_linker_0, # of connection points: 2
#     Edge 198, Type (0, 1), BuildingBlock: XIVTED_clean_linker_0, # of connection points: 2
#     Edge 199, Type (0, 1), BuildingBlock: XIVTED_clean_linker_0, # of connection points: 2
#     Edge 200, Type (0, 1), BuildingBlock: XIVTED_clean_linker_0, # of connection points: 2
#     Edge 201, Type (0, 1), BuildingBlock: XIVTED_clean_linker_0, # of connection points: 2
#     Edge 202, Type (0, 1), BuildingBlock: XIVTED_clean_linker_0, # of connection points: 2
#     Edge 203, Type (0, 1), BuildingBlock: XIVTED_clean_linker_0, # of connection points: 2
#     Edge 204, Type (0, 1), BuildingBlock: XIVTED_clean_linker_0, # of connection points: 2
#     Edge 205, Type (0, 1), BuildingBlock: XIVTED_clean_linker_0, # of connection points: 2
#     Edge 206, Type (0, 1), BuildingBlock: XIVTED_clean_linker_0, # of connection points: 2
#     Edge 207, Type (0, 1), BuildingBlock: XIVTED_clean_linker_0, # of connection points: 2
#     Edge 208, Type (0, 1), BuildingBlock: XIVTED_clean_linker_0, # of connection points: 2
#     Edge 209, Type (0, 1), BuildingBlock: XIVTED_clean_linker_0, # of connection points: 2
#     Edge 210, Type (0, 1), BuildingBlock: XIVTED_clean_linker_0, # of connection points: 2
#     Edge 211, Type (0, 1), BuildingBlock: XIVTED_clean_linker_0, # of connection points: 2
#     Edge 212, Type (0, 1), BuildingBlock: XIVTED_clean_linker_0, # of connection points: 2
#     Edge 213, Type (0, 1), BuildingBlock: XIVTED_clean_linker_0, # of connection points: 2
#     Edge 214, Type (0, 1), BuildingBlock: XIVTED_clean_linker_0, # of connection points: 2
#     Edge 215, Type (0, 1), BuildingBlock: XIVTED_clean_linker_0, # of connection points: 2
#     Edge 216, Type (0, 1), BuildingBlock: XIVTED_clean_linker_0, # of connection points: 2
#     Edge 217, Type (0, 1), BuildingBlock: XIVTED_clean_linker_0, # of connection points: 2
#     Edge 218, Type (0, 1), BuildingBlock: XIVTED_clean_linker_0, # of connection points: 2
#     Edge 219, Type (0, 1), BuildingBlock: XIVTED_clean_linker_0, # of connection points: 2
#     Edge 220, Type (0, 1), BuildingBlock: XIVTED_clean_linker_0, # of connection points: 2
#     Edge 221, Type (0, 1), BuildingBlock: XIVTED_clean_linker_0, # of connection points: 2
#     Edge 222, Type (0, 1), BuildingBlock: XIVTED_clean_linker_0, # of connection points: 2
#     Edge 223, Type (0, 1), BuildingBlock: XIVTED_clean_linker_0, # of connection points: 2
#     Edge 224, Type (0, 1), BuildingBlock: XIVTED_clean_linker_0, # of connection points: 2
#     Edge 225, Type (0, 1), BuildingBlock: XIVTED_clean_linker_0, # of connection points: 2
#     Edge 226, Type (0, 1), BuildingBlock: XIVTED_clean_linker_0, # of connection points: 2
#     Edge 227, Type (0, 1), BuildingBlock: XIVTED_clean_linker_0, # of connection points: 2
#     Edge 228, Type (0, 1), BuildingBlock: XIVTED_clean_linker_0, # of connection points: 2
#     Edge 229, Type (0, 1), BuildingBlock: XIVTED_clean_linker_0, # of connection points: 2
#     Edge 230, Type (0, 1), BuildingBlock: XIVTED_clean_linker_0, # of connection points: 2
#     Edge 231, Type (0, 1), BuildingBlock: XIVTED_clean_linker_0, # of connection points: 2
#     Edge 232, Type (0, 1), BuildingBlock: XIVTED_clean_linker_0, # of connection points: 2
#     Edge 233, Type (0, 1), BuildingBlock: XIVTED_clean_linker_0, # of connection points: 2
#     Edge 234, Type (0, 1), BuildingBlock: XIVTED_clean_linker_0, # of connection points: 2
#     Edge 235, Type (0, 1), BuildingBlock: XIVTED_clean_linker_0, # of connection points: 2
#     Edge 236, Type (0, 1), BuildingBlock: XIVTED_clean_linker_0, # of connection points: 2
#     Edge 237, Type (0, 1), BuildingBlock: XIVTED_clean_linker_0, # of connection points: 2
#     Edge 238, Type (0, 1), BuildingBlock: XIVTED_clean_linker_0, # of connection points: 2
#     Edge 239, Type (0, 1), BuildingBlock: XIVTED_clean_linker_0, # of connection points: 2
# Relax obj value: 0.083
# Max RMSD: 0.079
# Mean RMSD: 0.068
data_MOF--net-bpr--node1-WUSLED_clean_sbu_0--node2-BELTOD_clean_linker_0--edge1-XIVTED_clean_linker_0
_symmetry_space_group_name_H-M    P1
_symmetry_Int_Tables_number       1
_symmetry_cell_setting            triclinic
loop_
_symmetry_equiv_pos_as_xyz
'x, y, z'
_cell_length_a     117.10393
_cell_length_b     117.80343
_cell_length_c     117.83492
_cell_angle_alpha  90.390431
_cell_angle_beta   90.344041
_cell_angle_gamma 90.342401
loop_
_atom_site_label
_atom_site_type_symbol
_atom_site_fract_x
_atom_site_fract_y
_atom_site_fract_z
_atom_type_partial_charge
C0 C 0.9943 0.38161 0.26449 0.0
C1 C 0.99501 0.37894 0.27605 0.0
C2 C 0.97661 0.38782 0.27936 0.0
C3 C 0.98624 0.38198 0.28341 0.0
C4 C 0.97591 0.39043 0.26774 0.0
C5 C 0.9847 0.38733 0.26035 0.0
U6 U 0.02493 0.3731 0.26162 0.0
O7 O 0.03372 0.36127 0.25018 0.0
O8 O 0.03867 0.37931 0.25056 0.0
C9 C 0.03992 0.36937 0.2456 0.0
C10 C 1.00387 0.37893 0.25696 0.0
C11 C 0.04054 0.36948 0.23312 0.0
C12 C 0.03341 0.36399 0.21443 0.0
C13 C 0.0321 0.36437 0.22624 0.0
C14 C 0.05139 0.37414 0.21628 0.0
C15 C 0.04313 0.36878 0.20934 0.0
C16 C 0.05011 0.37445 0.22804 0.0
C17 C 0.04195 0.36873 0.28887 0.0
C18 C 0.0604 0.35943 0.28955 0.0
C19 C 0.05436 0.37129 0.30527 0.0
C20 C 0.0441 0.37348 0.2996 0.0
C21 C 0.06262 0.36425 0.3003 0.0
C22 C 0.05017 0.36171 0.28385 0.0
C23 C 0.03124 0.37143 0.28293 0.0
O24 O 0.01237 0.38626 0.25744 0.0
O25 O 0.00727 0.36831 0.2572 0.0
O26 O 0.02643 0.36304 0.2772 0.0
O27 O 0.03131 0.38107 0.27739 0.0
H28 H 1.00244 0.37465 0.27942 0.0
H29 H 0.98714 0.38002 0.29234 0.0
H30 H 0.96857 0.39486 0.26436 0.0
H31 H 0.98407 0.38951 0.25146 0.0
H32 H 0.02686 0.35988 0.2093 0.0
H33 H 0.02459 0.36054 0.22996 0.0
H34 H 0.05906 0.37775 0.21265 0.0
H35 H 0.05674 0.3784 0.2332 0.0
H36 H 0.06667 0.35408 0.28546 0.0
H37 H 0.05579 0.37503 0.31358 0.0
H38 H 0.03785 0.37894 0.30359 0.0
H39 H 0.04872 0.35806 0.27549 0.0
C40 C 0.87371 0.7416 0.53461 0.0
C41 C 0.86652 0.73809 0.54341 0.0
C42 C 0.87233 0.71847 0.54053 0.0
C43 C 0.86579 0.72663 0.54631 0.0
C44 C 0.87942 0.72204 0.5316 0.0
C45 C 0.8801 0.73352 0.52868 0.0
U46 U 0.87016 0.77215 0.54359 0.0
O47 O 0.88181 0.7868 0.54249 0.0
O48 O 0.86499 0.78735 0.53418 0.0
C49 C 0.87487 0.79247 0.53585 0.0
C50 C 0.87507 0.75373 0.53207 0.0
C51 C 0.88015 0.79758 0.52582 0.0
C52 C 0.88767 0.79631 0.50668 0.0
C53 C 0.88249 0.79116 0.51604 0.0
C54 C 0.88821 0.81425 0.51687 0.0
C55 C 0.89065 0.8079 0.50703 0.0
C56 C 0.88301 0.80913 0.52616 0.0
C57 C 0.8574 0.77858 0.57239 0.0
C58 C 0.85489 0.79809 0.57864 0.0
C59 C 0.85166 0.78264 0.59174 0.0
C60 C 0.85436 0.77482 0.58321 0.0
C61 C 0.85197 0.79438 0.58958 0.0
C62 C 0.85762 0.79026 0.57013 0.0
C63 C 0.8608 0.77033 0.56368 0.0
O64 O 0.86551 0.75937 0.53065 0.0
O65 O 0.88253 0.75912 0.53854 0.0
O66 O 0.87186 0.76969 0.562 0.0
O67 O 0.85484 0.77055 0.55419 0.0
H68 H 0.86156 0.74425 0.54813 0.0
H69 H 0.86013 0.72418 0.55311 0.0
H70 H 0.88469 0.71602 0.52708 0.0
H71 H 0.88578 0.7361 0.52194 0.0
H72 H 0.88951 0.79118 0.49926 0.0
H73 H 0.88036 0.78221 0.51568 0.0
H74 H 0.8902 0.82323 0.51735 0.0
H75 H 0.88123 0.8142 0.53365 0.0
H76 H 0.85535 0.80706 0.57673 0.0
H77 H 0.84932 0.77951 0.60003 0.0
H78 H 0.85417 0.76583 0.58509 0.0
H79 H 0.86005 0.7933 0.56182 0.0
C80 C 0.48136 0.63605 0.72774 0.0
C81 C 0.47004 0.63923 0.72558 0.0
C82 C 0.47322 0.6375 0.70525 0.0
C83 C 0.46599 0.63992 0.71443 0.0
C84 C 0.48466 0.63462 0.70746 0.0
C85 C 0.48869 0.63387 0.71864 0.0
U86 U 0.47548 0.63856 0.75902 0.0
O87 O 0.47823 0.6266 0.77299 0.0
O88 O 0.48631 0.64348 0.77358 0.0
C89 C 0.48522 0.63352 0.77844 0.0
C90 C 0.48533 0.63462 0.73948 0.0
C91 C 0.49567 0.62832 0.78294 0.0
C92 C 0.51576 0.62341 0.78166 0.0
C93 C 0.50601 0.62845 0.77697 0.0
C94 C 0.50483 0.618 0.79819 0.0
C95 C 0.51524 0.61809 0.79231 0.0
C96 C 0.49516 0.62307 0.79354 0.0
C97 C 0.44717 0.6496 0.76903 0.0
C98 C 0.44405 0.65153 0.78929 0.0
C99 C 0.42801 0.65237 0.77624 0.0
C100 C 0.43544 0.65089 0.7671 0.0
C101 C 0.43223 0.65261 0.78745 0.0
C102 C 0.45145 0.65 0.78017 0.0
C103 C 0.45485 0.64706 0.75955 0.0
O104 O 0.48688 0.64408 0.74529 0.0
O105 O 0.4798 0.62679 0.74518 0.0
O106 O 0.45686 0.6362 0.75802 0.0
O107 O 0.46413 0.65337 0.75907 0.0
H108 H 0.46427 0.64099 0.73252 0.0
H109 H 0.45719 0.64232 0.713 0.0
H110 H 0.4904 0.63262 0.70057 0.0
H111 H 0.49745 0.63139 0.72019 0.0
H112 H 0.52365 0.62355 0.77691 0.0
H113 H 0.50654 0.63243 0.76873 0.0
H114 H 0.50418 0.61417 0.80649 0.0
H115 H 0.48725 0.62292 0.79827 0.0
H116 H 0.44756 0.65148 0.79781 0.0
H117 H 0.41896 0.65326 0.77455 0.0
H118 H 0.432 0.65053 0.75854 0.0
H119 H 0.46048 0.64887 0.78183 0.0
C120 C 0.62353 0.27088 0.04 0.0
C121 C 0.61945 0.27454 0.05059 0.0
C122 C 0.62579 0.29382 0.0467 0.0
C123 C 0.62051 0.2859 0.05387 0.0
C124 C 0.62981 0.29016 0.03607 0.0
C125 C 0.62864 0.27878 0.03273 0.0
U126 U 0.6263 0.24024 0.04853 0.0
O127 O 0.61597 0.22511 0.04442 0.0
O128 O 0.63416 0.22558 0.04005 0.0
C129 C 0.62442 0.22003 0.03918 0.0
C130 C 0.6231 0.25877 0.03681 0.0
C131 C 0.62169 0.21551 0.02786 0.0
C132 C 0.61647 0.21831 0.00811 0.0
C133 C 0.619 0.22278 0.01887 0.0
C134 C 0.61926 0.19928 0.01529 0.0
C135 C 0.61658 0.2065 0.00619 0.0
C136 C 0.62178 0.20376 0.02602 0.0
C137 C 0.634 0.23381 0.07913 0.0
C138 C 0.63521 0.21434 0.08563 0.0
C139 C 0.64018 0.22986 0.09838 0.0
C140 C 0.63772 0.23763 0.08981 0.0
C141 C 0.63895 0.21812 0.09639 0.0
C142 C 0.63277 0.22213 0.07706 0.0
C143 C 0.63158 0.24202 0.07014 0.0
O144 O 0.63296 0.25352 0.03723 0.0
O145 O 0.61469 0.25285 0.04122 0.0
O146 O 0.62101 0.24198 0.06633 0.0
O147 O 0.63921 0.24243 0.06202 0.0
H148 H 0.61565 0.26858 0.05644 0.0
H149 H 0.61752 0.28842 0.06219 0.0
H150 H 0.63389 0.29609 0.03037 0.0
H151 H 0.63191 0.2761 0.02456 0.0
H152 H 0.61433 0.22409 1.00132 0.0
H153 H 0.61886 0.23189 0.02018 0.0
H154 H 0.6196 0.19017 0.01407 0.0
H155 H 0.62388 0.19805 0.03289 0.0
H156 H 0.63432 0.20537 0.08377 0.0
H157 H 0.64293 0.23304 0.10661 0.0
H158 H 0.63871 0.24664 0.09153 0.0
H159 H 0.62998 0.21904 0.06881 0.0
C160 C 0.99623 0.62659 0.2412 0.0
C161 C 0.99658 0.63007 0.22984 0.0
C162 C 0.97857 0.62035 0.226 0.0
C163 C 0.9878 0.62703 0.22233 0.0
C164 C 0.97821 0.61693 0.23742 0.0
C165 C 0.98698 0.62005 0.24496 0.0
U166 U 0.0272 0.63431 0.24471 0.0
O167 O 0.03626 0.64614 0.25616 0.0
O168 O 0.04044 0.62797 0.25635 0.0
C169 C 0.04197 0.63797 0.26115 0.0
C170 C 0.00585 0.62917 0.24887 0.0
C171 C 0.04218 0.6381 0.27366 0.0
C172 C 0.03464 0.64419 0.29189 0.0
C173 C 0.03374 0.64363 0.28005 0.0
C174 C 0.05216 0.63338 0.29109 0.0
C175 C 0.04392 0.63914 0.29753 0.0
C176 C 0.0513 0.63289 0.27928 0.0
C177 C 0.04483 0.6376 0.21786 0.0
C178 C 0.06411 0.64531 0.21798 0.0
C179 C 0.05684 0.63545 0.20129 0.0
C180 C 0.04644 0.63364 0.20676 0.0
C181 C 0.0658 0.6413 0.20684 0.0
C182 C 0.05372 0.64343 0.22347 0.0
C183 C 0.03394 0.63533 0.22355 0.0
O184 O 0.01403 0.62159 0.24876 0.0
O185 O 0.00968 0.63969 0.24851 0.0
O186 O 0.02942 0.64398 0.22898 0.0
O187 O 0.03354 0.62583 0.22931 0.0
H188 H 1.00374 0.63499 0.22673 0.0
H189 H 0.98843 0.62964 0.21356 0.0
H190 H 0.97117 0.61183 0.2405 0.0
H191 H 0.98663 0.61722 0.25368 0.0
H192 H 0.02812 0.64862 0.29664 0.0
H193 H 0.02656 0.64765 0.2759 0.0
H194 H 0.0595 0.62955 0.29515 0.0
H195 H 0.0579 0.62861 0.27451 0.0
H196 H 0.0709 0.64973 0.22251 0.0
H197 H 0.05784 0.63237 0.19268 0.0
H198 H 0.03967 0.62911 0.20232 0.0
H199 H 0.05265 0.64645 0.2321 0.0
C200 C 0.62138 0.73623 0.46689 0.0
C201 C 0.61801 0.7329 0.4559 0.0
C202 C 0.62337 0.71339 0.45985 0.0
C203 C 0.61893 0.72159 0.45244 0.0
C204 C 0.6267 0.71673 0.47088 0.0
C205 C 0.62567 0.72807 0.47437 0.0
U206 U 0.62421 0.76695 0.45874 0.0
O207 O 0.61419 0.78204 0.46321 0.0
O208 O 0.63252 0.78151 0.46721 0.0
C209 C 0.6229 0.78712 0.46822 0.0
C210 C 0.62108 0.74827 0.47029 0.0
C211 C 0.62067 0.79188 0.47951 0.0
C212 C 0.61613 0.78965 0.49946 0.0
C213 C 0.61794 0.78488 0.48871 0.0
C214 C 0.61967 0.8084 0.49184 0.0
C215 C 0.61708 0.80146 0.50116 0.0
C216 C 0.62145 0.80364 0.48112 0.0
C217 C 0.63148 0.7738 0.42823 0.0
C218 C 0.63457 0.79331 0.42247 0.0
C219 C 0.63622 0.77804 0.40869 0.0
C220 C 0.6336 0.77015 0.41711 0.0
C221 C 0.63678 0.78972 0.41128 0.0
C222 C 0.63194 0.78542 0.43087 0.0
C223 C 0.62901 0.76544 0.43707 0.0
O224 O 0.63097 0.75358 0.46985 0.0
O225 O 0.61263 0.7542 0.46599 0.0
O226 O 0.61851 0.76553 0.44095 0.0
O227 O 0.63677 0.76479 0.44513 0.0
H228 H 0.61486 0.73908 0.44989 0.0
H229 H 0.61649 0.71933 0.44383 0.0
H230 H 0.63013 0.7106 0.47677 0.0
H231 H 0.6284 0.7305 0.48285 0.0
H232 H 0.61426 0.78407 0.50649 0.0
H233 H 0.61733 0.77576 0.48758 0.0
H234 H 0.6203 0.81753 0.49283 0.0
H235 H 0.6235 0.80915 0.47409 0.0
H236 H 0.63479 0.80224 0.42471 0.0
H237 H 0.63801 0.77498 0.4002 0.0
H238 H 0.63332 0.7612 0.41496 0.0
H239 H 0.63029 0.78836 0.43943 0.0
C240 C 0.50555 0.37986 0.74713 0.0
C241 C 0.50654 0.37479 0.73637 0.0
C242 C 0.52358 0.38607 0.73256 0.0
C243 C 0.5155 0.37779 0.7292 0.0
C244 C 0.52255 0.39112 0.74338 0.0
C245 C 0.51361 0.38803 0.75059 0.0
U246 U 0.47486 0.37077 0.74934 0.0
O247 O 0.46598 0.35887 0.76062 0.0
O248 O 0.46079 0.37674 0.76004 0.0
C249 C 0.45953 0.36685 0.765 0.0
C250 C 0.49575 0.37713 0.75441 0.0
C251 C 0.45901 0.36713 0.77744 0.0
C252 C 0.46682 0.37273 0.79579 0.0
C253 C 0.46765 0.37236 0.78395 0.0
C254 C 0.44883 0.36248 0.79469 0.0
C255 C 0.45737 0.36782 0.80129 0.0
C256 C 0.44965 0.36215 0.78287 0.0
C257 C 0.459 0.3658 0.72119 0.0
C258 C 0.4385 0.36699 0.71813 0.0
C259 C 0.45059 0.359 0.70352 0.0
C260 C 0.46016 0.36077 0.71045 0.0
C261 C 0.43968 0.36231 0.70719 0.0
C262 C 0.44808 0.36867 0.7251 0.0
C263 C 0.46931 0.36858 0.72784 0.0
O264 O 0.48722 0.38429 0.75371 0.0
O265 O 0.49244 0.36644 0.75426 0.0
O266 O 0.47369 0.36026 0.73381 0.0
O267 O 0.46911 0.37831 0.73335 0.0
H268 H 0.50034 0.36854 0.73346 0.0
H269 H 0.51611 0.37356 0.72105 0.0
H270 H 0.52851 0.39763 0.74619 0.0
H271 H 0.51289 0.39214 0.75881 0.0
H272 H 0.4736 0.3768 0.80065 0.0
H273 H 0.47497 0.37619 0.77988 0.0
H274 H 0.44138 0.35877 0.79863 0.0
H275 H 0.44291 0.35809 0.77795 0.0
H276 H 0.43019 0.3695 0.72123 0.0
H277 H 0.45179 0.3555 0.6951 0.0
H278 H 0.46852 0.35851 0.7073 0.0
H279 H 0.447 0.37248 0.73342 0.0
C280 C 0.8801 0.23719 1.00023 0.0
C281 C 0.87997 0.22544 0.99826 0.0
C282 C 0.88936 0.22227 0.0164 0.0
C283 C 0.88457 0.21806 0.00624 0.0
C284 C 0.8892 0.23404 0.01852 0.0
C285 C 0.88464 0.24148 0.01044 0.0
U286 U 0.86648 0.23933 0.97179 0.0
O287 O 0.85352 0.25053 0.96437 0.0
O288 O 0.87053 0.24942 0.95669 0.0
C289 C 0.86058 0.25451 0.95669 0.0
C290 C 0.87582 0.24478 0.99134 0.0
C291 C 0.861 0.2669 0.95547 0.0
C292 C 0.86206 0.28595 0.96347 0.0
C293 C 0.86159 0.27417 0.96494 0.0
C294 C 0.86148 0.28325 0.94307 0.0
C295 C 0.86201 0.29064 0.9525 0.0
C296 C 0.86096 0.27152 0.94456 0.0
C297 C 0.85961 0.21033 0.95807 0.0
C298 C 0.85527 0.20713 0.93812 0.0
C299 C 0.85449 0.19148 0.95135 0.0
C300 C 0.85753 0.19884 0.96021 0.0
C301 C 0.85347 0.1955 0.94018 0.0
C302 C 0.85831 0.21451 0.94702 0.0
C303 C 0.86372 0.21761 0.9674 0.0
O304 O 0.88161 0.24428 0.98183 0.0
O305 O 0.8647 0.24442 0.98972 0.0
O306 O 0.85598 0.22378 0.97255 0.0
O307 O 0.87326 0.22317 0.96546 0.0
H308 H 0.87644 0.22198 0.99044 0.0
H309 H 0.88439 0.20903 0.00445 0.0
H310 H 0.89287 0.23751 0.02627 0.0
H311 H 0.88481 0.25053 0.01209 0.0
H312 H 0.86236 0.29138 0.97092 0.0
H313 H 0.86168 0.27074 0.97345 0.0
H314 H 0.86166 0.28652 0.93451 0.0
H315 H 0.8606 0.26602 0.93715 0.0
H316 H 0.85444 0.21051 0.92964 0.0
H317 H 0.85334 0.18256 0.95322 0.0
H318 H 0.85855 0.19549 0.96869 0.0
H319 H 0.85986 0.2234 0.94525 0.0
C320 C 0.24154 0.02729 0.36412 0.0
C321 C 0.23897 0.03677 0.35746 0.0
C322 C 0.21871 0.03438 0.36144 0.0
C323 C 0.22767 0.04025 0.35608 0.0
C324 C 0.22135 0.02481 0.36803 0.0
C325 C 0.23266 0.0213 0.36934 0.0
U326 U 0.2729 0.03504 0.36536 0.0
O327 O 0.28627 0.03084 0.37774 0.0
O328 O 0.2882 0.02573 0.35989 0.0
C329 C 0.29227 0.0251 0.37028 0.0
C330 C 0.25345 0.02395 0.36613 0.0
C331 C 0.29642 0.01387 0.37384 0.0
C332 C 0.29595 0.99759 0.38642 0.0
C333 C 0.29119 0.00777 0.38262 0.0
C334 C 0.31093 0.99928 0.37243 0.0
C335 C 0.30594 0.99331 0.38145 0.0
C336 C 0.30622 0.00947 0.3687 0.0
C337 C 0.28235 0.06534 0.35898 0.0
C338 C 0.29597 0.07841 0.3678 0.0
C339 C 0.29539 0.0764 0.34735 0.0
C340 C 0.28646 0.06852 0.34827 0.0
C341 C 0.30032 0.08135 0.35712 0.0
C342 C 0.28709 0.07052 0.36873 0.0
C343 C 0.27325 0.05659 0.35991 0.0
O344 O 0.26007 0.02397 0.35715 0.0
O345 O 0.25827 0.02866 0.37511 0.0
O346 O 0.27104 0.05296 0.3702 0.0
O347 O 0.27347 0.04835 0.35233 0.0
H348 H 0.24573 0.04156 0.35341 0.0
H349 H 0.22596 0.04756 0.35082 0.0
H350 H 0.21471 0.02019 0.37242 0.0
H351 H 0.23451 0.01402 0.37461 0.0
H352 H 0.29185 0.99312 0.3933 0.0
H353 H 0.28357 0.01094 0.38668 0.0
H354 H 0.3187 0.99629 0.36852 0.0
H355 H 0.31041 0.01407 0.36194 0.0
H356 H 0.29965 0.08197 0.3755 0.0
H357 H 0.29845 0.07861 0.33899 0.0
H358 H 0.28287 0.06482 0.34059 0.0
H359 H 0.28409 0.06836 0.37712 0.0
C360 C 0.2315 0.00739 0.63714 0.0
C361 C 0.21958 0.00848 0.63737 0.0
C362 C 0.2173 0.9884 0.63293 0.0
C363 C 0.21255 0.99909 0.63528 0.0
C364 C 0.22927 0.98738 0.6325 0.0
C365 C 0.23632 0.99682 0.63462 0.0
U366 U 0.23278 0.03782 0.64597 0.0
O367 O 0.24374 0.04725 0.65801 0.0
O368 O 0.24299 0.05234 0.64013 0.0
C369 C 0.24799 0.05378 0.65006 0.0
C370 C 0.23871 0.0173 0.63978 0.0
C371 C 0.26049 0.05449 0.64979 0.0
C372 C 0.27895 0.04587 0.64639 0.0
C373 C 0.26704 0.04502 0.64676 0.0
C374 C 0.27784 0.06564 0.65212 0.0
C375 C 0.28449 0.05621 0.64903 0.0
C376 C 0.26594 0.06477 0.65249 0.0
C377 C 0.20341 0.05145 0.65061 0.0
C378 C 0.20043 0.07123 0.65567 0.0
C379 C 0.18421 0.05883 0.65203 0.0
C380 C 0.19158 0.04982 0.64994 0.0
C381 C 0.18852 0.06966 0.65487 0.0
C382 C 0.20783 0.06217 0.65355 0.0
C383 C 0.21087 0.04191 0.64782 0.0
O384 O 0.23774 0.02573 0.63259 0.0
O385 O 0.2384 0.02063 0.65044 0.0
O386 O 0.21713 0.03799 0.6562 0.0
O387 O 0.21647 0.04281 0.63824 0.0
H388 H 0.21571 0.0166 0.63927 0.0
H389 H 0.20338 1.00021 0.63549 0.0
H390 H 0.23318 0.97924 0.6308 0.0
H391 H 0.24551 0.99585 0.63443 0.0
H392 H 0.28382 0.03842 0.6441 0.0
H393 H 0.26294 0.037 0.64468 0.0
H394 H 0.28181 0.07376 0.65404 0.0
H395 H 0.26099 0.07217 0.6548 0.0
H396 H 0.20403 0.07944 0.65791 0.0
H397 H 0.17511 0.05735 0.6511 0.0
H398 H 0.18805 0.0416 0.64761 0.0
H399 H 0.21698 0.06354 0.65408 0.0
C400 C 0.23035 1.00077 0.87466 0.0
C401 C 0.21847 0.99938 0.87535 0.0
C402 C 0.21617 0.0197 0.87825 0.0
C403 C 0.21145 0.00874 0.87716 0.0
C404 C 0.22812 0.02104 0.87763 0.0
C405 C 0.23515 0.01163 0.87583 0.0
U406 U 0.23198 0.96991 0.86725 0.0
O407 O 0.24327 0.96013 0.85607 0.0
O408 O 0.24231 0.956 0.87419 0.0
C409 C 0.24751 0.9542 0.8645 0.0
C410 C 0.23758 0.99085 0.87253 0.0
C411 C 0.26003 0.9537 0.86517 0.0
C412 C 0.27874 0.96261 0.86377 0.0
C413 C 0.26684 0.9633 0.86304 0.0
C414 C 0.27713 0.94279 0.86895 0.0
C415 C 0.28401 0.95235 0.86677 0.0
C416 C 0.26525 0.94346 0.86813 0.0
C417 C 0.20307 0.95503 0.86255 0.0
C418 C 0.2004 0.93461 0.8611 0.0
C419 C 0.18429 0.94718 0.8585 0.0
C420 C 0.19145 0.95655 0.86026 0.0
C421 C 0.18865 0.93609 0.85901 0.0
C422 C 0.20757 0.94402 0.86284 0.0
C423 C 0.21019 0.96502 0.86504 0.0
O424 O 0.23666 0.98276 0.8801 0.0
O425 O 0.23733 0.98703 0.86203 0.0
O426 O 0.21649 0.96873 0.85663 0.0
O427 O 0.21565 0.96489 0.87482 0.0
H428 H 0.21462 0.99103 0.87446 0.0
H429 H 0.20233 0.00736 0.87777 0.0
H430 H 0.23201 0.02938 0.8783 0.0
H431 H 0.24431 0.01284 0.87528 0.0
H432 H 0.28382 0.97014 0.86217 0.0
H433 H 0.26295 0.97132 0.86085 0.0
H434 H 0.28095 0.93474 0.87115 0.0
H435 H 0.26013 0.93598 0.86981 0.0
H436 H 0.20403 0.92618 0.86144 0.0
H437 H 0.17527 0.94864 0.85711 0.0
H438 H 0.18785 0.965 0.86005 0.0
H439 H 0.21656 0.94272 0.86456 0.0
C440 C 0.23962 0.98136 0.13518 0.0
C441 C 0.23761 0.96985 0.13268 0.0
C442 C 0.21745 0.97209 0.13697 0.0
C443 C 0.22662 0.96528 0.1335 0.0
C444 C 0.21949 0.98362 0.13952 0.0
C445 C 0.2305 0.98822 0.13859 0.0
U446 U 0.27138 0.9768 0.13737 0.0
O447 O 0.28566 0.98267 0.12692 0.0
O448 O 0.28516 0.9872 0.14504 0.0
C449 C 0.29041 0.98846 0.13529 0.0
C450 C 0.25127 0.98607 0.1347 0.0
C451 C 0.29426 1.00002 0.13256 0.0
C452 C 0.29231 0.01767 0.1222 0.0
C453 C 0.28785 0.00715 0.12551 0.0
C454 C 0.3094 0.01416 0.1333 0.0
C455 C 0.30321 0.02122 0.12594 0.0
C456 C 0.30496 1.00366 0.13656 0.0
C457 C 0.2826 0.9476 0.1438 0.0
C458 C 0.30308 0.94492 0.14539 0.0
C459 C 0.29032 0.92866 0.14597 0.0
C460 C 0.28094 0.93586 0.14476 0.0
C461 C 0.3015 0.93311 0.14625 0.0
C462 C 0.29371 0.95209 0.14416 0.0
C463 C 0.27282 0.95513 0.14206 0.0
O464 O 0.25683 0.98622 0.14443 0.0
O465 O 0.2575 0.98246 0.12617 0.0
O466 O 0.27171 0.95899 0.13168 0.0
O467 O 0.27153 0.96303 0.14987 0.0
H468 H 0.24457 0.96436 0.1302 0.0
H469 H 0.22537 0.95634 0.13167 0.0
H470 H 0.21258 0.98907 0.14218 0.0
H471 H 0.23191 0.9971 0.14063 0.0
H472 H 0.28728 0.02297 0.11662 0.0
H473 H 0.27954 0.00449 0.12237 0.0
H474 H 0.31788 0.01653 0.13621 0.0
H475 H 0.31004 0.99824 0.14197 0.0
H476 H 0.31157 0.94861 0.14539 0.0
H477 H 0.28882 0.91961 0.14671 0.0
H478 H 0.2724 0.93227 0.14448 0.0
H479 H 0.29514 0.96115 0.14334 0.0
C480 C 0.37346 0.24194 0.03484 0.0
C481 C 0.37095 0.23837 0.04588 0.0
C482 C 0.37239 0.21859 0.03993 0.0
C483 C 0.37045 0.22682 0.04842 0.0
C484 C 0.37472 0.22224 0.02882 0.0
C485 C 0.37526 0.23383 0.02631 0.0
U486 U 0.36944 0.27239 0.04403 0.0
O487 O 0.38073 0.28729 0.04268 0.0
O488 O 0.36372 0.28747 0.03473 0.0
C489 C 0.37352 0.2928 0.03619 0.0
C490 C 0.3744 0.25409 0.0323 0.0
C491 C 0.3785 0.29806 0.02609 0.0
C492 C 0.38491 0.29725 0.00651 0.0
C493 C 0.37991 0.29199 0.01591 0.0
C494 C 0.38713 0.31463 0.01746 0.0
C495 C 0.38865 0.30862 0.00723 0.0
C496 C 0.38211 0.30939 0.02679 0.0
C497 C 0.35736 0.27861 0.07313 0.0
C498 C 0.35431 0.29809 0.07923 0.0
C499 C 0.35212 0.28271 0.09261 0.0
C500 C 0.35483 0.27488 0.08409 0.0
C501 C 0.35188 0.29441 0.09029 0.0
C502 C 0.35706 0.29026 0.07072 0.0
C503 C 0.3607 0.27039 0.06436 0.0
O504 O 0.36463 0.25945 0.03126 0.0
O505 O 0.38193 0.25969 0.03851 0.0
O506 O 0.37172 0.26997 0.06239 0.0
O507 O 0.35447 0.27045 0.05504 0.0
H508 H 0.36954 0.24455 0.05258 0.0
H509 H 0.36882 0.22435 0.05709 0.0
H510 H 0.37609 0.21615 0.02205 0.0
H511 H 0.37715 0.23645 0.01772 0.0
H512 H 0.38603 0.29239 0.99877 0.0
H513 H 0.37722 0.28319 0.01526 0.0
H514 H 0.38974 0.32344 0.01824 0.0
H515 H 0.38107 0.3142 0.03458 0.0
H516 H 0.35436 0.30704 0.0772 0.0
H517 H 0.35017 0.2796 0.10102 0.0
H518 H 0.35504 0.26592 0.08608 0.0
H519 H 0.3591 0.29328 0.06231 0.0
C520 C 0.00763 0.88487 0.24721 0.0
C521 C 0.00542 0.88782 0.23589 0.0
C522 C 0.02578 0.89018 0.23248 0.0
C523 C 0.01439 0.8905 0.22862 0.0
C524 C 0.02793 0.88738 0.24389 0.0
C525 C 0.01892 0.88473 0.25119 0.0
U526 U 0.97715 0.87532 0.24978 0.0
O527 O 0.96895 0.8623 0.26036 0.0
O528 O 0.96341 0.88005 0.26145 0.0
C529 C 0.96252 0.86976 0.26561 0.0
C530 C 0.99819 0.88141 0.25461 0.0
C531 C 0.96244 0.86909 0.27805 0.0
C532 C 0.97037 0.87417 0.2965 0.0
C533 C 0.97103 0.8743 0.28465 0.0
C534 C 0.95273 0.86336 0.29524 0.0
C535 C 0.96114 0.8688 0.30193 0.0
C536 C 0.95338 0.86352 0.28341 0.0
C537 C 0.96018 0.87268 0.22172 0.0
C538 C 0.94684 0.85942 0.21271 0.0
C539 C 0.94501 0.8796 0.20944 0.0
C540 C 0.95443 0.88168 0.21649 0.0
C541 C 0.94119 0.86844 0.20737 0.0
C542 C 0.95624 0.86151 0.21982 0.0
C543 C 0.97066 0.87507 0.22843 0.0
O544 O 0.98955 0.88848 0.25497 0.0
O545 O 0.99499 0.87075 0.25344 0.0
O546 O 0.97563 0.86641 0.23337 0.0
O547 O 0.97046 0.88424 0.23484 0.0
H548 H 0.99674 0.88792 0.23265 0.0
H549 H 0.01239 0.89278 0.21994 0.0
H550 H 0.0366 0.88691 0.24711 0.0
H551 H 0.02078 0.88239 0.25988 0.0
H552 H 0.97705 0.87832 0.30142 0.0
H553 H 0.97812 0.8786 0.28063 0.0
H554 H 0.94544 0.85927 0.29913 0.0
H555 H 0.94667 0.85948 0.27842 0.0
H556 H 0.94405 0.85074 0.21132 0.0
H557 H 0.94097 0.88672 0.2053 0.0
H558 H 0.95736 0.89035 0.21765 0.0
H559 H 0.96052 0.85436 0.22367 0.0
C560 C 0.13376 0.7708 0.54117 0.0
C561 C 0.13977 0.77335 0.5512 0.0
C562 C 0.1383 0.79355 0.54734 0.0
C563 C 0.14203 0.78459 0.55424 0.0
C564 C 0.13228 0.79096 0.53725 0.0
C565 C 0.13005 0.77964 0.53418 0.0
U566 U 0.13331 0.74041 0.55031 0.0
O567 O 0.1207 0.72669 0.54773 0.0
O568 O 0.13831 0.72459 0.54179 0.0
C569 C 0.12791 0.72034 0.54205 0.0
C570 C 0.13114 0.75892 0.53829 0.0
C571 C 0.12368 0.71566 0.53125 0.0
C572 C 0.11931 0.71768 0.5112 0.0
C573 C 0.1226 0.7225 0.52161 0.0
C574 C 0.11786 0.69923 0.52009 0.0
C575 C 0.11708 0.70595 0.51029 0.0
C576 C 0.12114 0.70406 0.53047 0.0
C577 C 0.14388 0.73377 0.58003 0.0
C578 C 0.1471 0.71437 0.58601 0.0
C579 C 0.14832 0.72976 0.59973 0.0
C580 C 0.14578 0.73754 0.59118 0.0
C581 C 0.14906 0.71809 0.59723 0.0
C582 C 0.14449 0.72214 0.57749 0.0
C583 C 0.1413 0.74201 0.5711 0.0
O584 O 0.14008 0.75226 0.53765 0.0
O585 O 0.1227 0.75445 0.5441 0.0
O586 O 0.13042 0.7431 0.56857 0.0
O587 O 0.14786 0.74142 0.56211 0.0
H588 H 0.1426 0.76661 0.55675 0.0
H589 H 0.14647 0.78628 0.56218 0.0
H590 H 0.12934 0.79766 0.53174 0.0
H591 H 0.12537 0.7778 0.52642 0.0
H592 H 0.11889 0.72306 0.50379 0.0
H593 H 0.12455 0.73149 0.5221 0.0
H594 H 0.11604 0.69021 0.51971 0.0
H595 H 0.1219 0.69868 0.53786 0.0
H596 H 0.14745 0.70542 0.58385 0.0
H597 H 0.14988 0.7329 0.60827 0.0
H598 H 0.14533 0.74649 0.59327 0.0
H599 H 0.14297 0.71909 0.56891 0.0
C600 C 0.99173 0.63919 0.75153 0.0
C601 C 0.98045 0.6428 0.7499 0.0
C602 C 0.97803 0.64484 0.77032 0.0
C603 C 0.97368 0.64565 0.7592 0.0
C604 C 0.98942 0.64141 0.77188 0.0
C605 C 0.99621 0.6386 0.76256 0.0
U606 U 0.99294 0.62971 0.72098 0.0
O607 O 0.00477 0.63369 0.70716 0.0
O608 O 1.00266 0.61603 0.71271 0.0
C609 C 0.00838 0.62317 0.70633 0.0
C610 C 0.99858 0.63545 0.74181 0.0
C611 C 0.02084 0.62166 0.70615 0.0
C612 C 0.04005 0.62782 0.71125 0.0
C613 C 0.02822 0.62903 0.71212 0.0
C614 C 0.03727 0.61159 0.69878 0.0
C615 C 0.04473 0.61916 0.70445 0.0
C616 C 0.02545 0.61286 0.6996 0.0
C617 C 0.96515 0.62812 0.70423 0.0
C618 C 0.96472 0.62145 0.68469 0.0
C619 C 0.94748 0.62861 0.69341 0.0
C620 C 0.9535 0.63064 0.7035 0.0
C621 C 0.95302 0.62401 0.68387 0.0
C622 C 0.97074 0.62351 0.69478 0.0
C623 C 0.97141 0.63051 0.7148 0.0
O624 O 0.99672 0.62489 0.7386 0.0
O625 O 0.999 0.64256 0.73327 0.0
O626 O 0.97831 0.63934 0.71446 0.0
O627 O 0.976 0.62164 0.71972 0.0
H628 H 0.97683 0.64326 0.74143 0.0
H629 H 0.965 0.64841 0.75767 0.0
H630 H 0.993 0.64054 0.78033 0.0
H631 H 0.00488 0.63574 0.76396 0.0
H632 H 0.04552 0.63387 0.71564 0.0
H633 H 0.02484 0.63585 0.71729 0.0
H634 H 0.04055 0.60469 0.69365 0.0
H635 H 0.01989 0.60704 0.69499 0.0
H636 H 0.96926 0.61802 0.67747 0.0
H637 H 0.93845 0.63054 0.6931 0.0
H638 H 0.94907 0.6342 0.71073 0.0
H639 H 0.97977 0.62157 0.69521 0.0
C640 C 0.12758 0.25172 0.47245 0.0
C641 C 0.12735 0.24948 0.46075 0.0
C642 C 0.13224 0.26916 0.45685 0.0
C643 C 0.12967 0.25809 0.45304 0.0
C644 C 0.13241 0.27139 0.46861 0.0
C645 C 0.13009 0.26272 0.47636 0.0
U646 U 0.12135 0.22093 0.47613 0.0
O647 O 0.12857 0.20804 0.48748 0.0
O648 O 0.11012 0.21141 0.48756 0.0
C649 C 0.11868 0.20601 0.49231 0.0
C650 C 0.12552 0.24241 0.48039 0.0
C651 C 0.11884 0.20562 0.50478 0.0
C652 C 0.11406 0.21339 0.52333 0.0
C653 C 0.11426 0.21437 0.51149 0.0
C654 C 0.12331 0.19509 0.52184 0.0
C655 C 0.11854 0.20369 0.52862 0.0
C656 C 0.12344 0.19605 0.51005 0.0
C657 C 0.11852 0.20352 0.44881 0.0
C658 C 0.11632 0.18301 0.44885 0.0
C659 C 0.11666 0.19318 0.43104 0.0
C660 C 0.11797 0.20342 0.43695 0.0
C661 C 0.1159 0.18284 0.43691 0.0
C662 C 0.11763 0.19328 0.45476 0.0
C663 C 0.12029 0.21433 0.45483 0.0
O664 O 0.11513 0.23811 0.48001 0.0
O665 O 0.1335 0.23461 0.48042 0.0
O666 O 0.1299 0.21518 0.46059 0.0
O667 O 0.11142 0.21818 0.46042 0.0
H668 H 0.12551 0.241 0.45759 0.0
H669 H 0.12969 0.256 0.44407 0.0
H670 H 0.13427 0.27984 0.47182 0.0
H671 H 0.13032 0.26457 0.48538 0.0
H672 H 0.1104 0.22018 0.52833 0.0
H673 H 0.11072 0.22188 0.50758 0.0
H674 H 0.12665 0.18743 0.52562 0.0
H675 H 0.12699 0.18921 0.50502 0.0
H676 H 0.11587 0.1752 0.45362 0.0
H677 H 0.11618 0.19337 0.42186 0.0
H678 H 0.11861 0.21127 0.43225 0.0
H679 H 0.11807 0.19324 0.46395 0.0
C680 C 0.47709 0.38215 0.22858 0.0
C681 C 0.47506 0.38492 0.21719 0.0
C682 C 0.45459 0.38527 0.22064 0.0
C683 C 0.46391 0.38646 0.21325 0.0
C684 C 0.45671 0.3828 0.23213 0.0
C685 C 0.46789 0.38122 0.23605 0.0
U686 U 0.50854 0.3797 0.22225 0.0
O687 O 0.5239 0.38408 0.23217 0.0
O688 O 0.52089 0.36642 0.22676 0.0
C689 C 0.5273 0.37348 0.23271 0.0
C690 C 0.48873 0.37966 0.23249 0.0
C691 C 0.53097 0.36948 0.24395 0.0
C692 C 0.5297 0.36963 0.26452 0.0
C693 C 0.52547 0.37296 0.25392 0.0
C694 C 0.54467 0.35899 0.25524 0.0
C695 C 0.53946 0.36274 0.2653 0.0
C696 C 0.54047 0.36236 0.24467 0.0
C697 C 0.51973 0.38626 0.19314 0.0
C698 C 0.5389 0.38048 0.18805 0.0
C699 C 0.5288 0.39405 0.17639 0.0
C700 C 0.5194 0.39337 0.18365 0.0
C701 C 0.53862 0.38756 0.1785 0.0
C702 C 0.52957 0.37988 0.19533 0.0
C703 C 0.51 0.38572 0.20093 0.0
O704 O 0.49323 0.37054 0.22788 0.0
O705 O 0.49579 0.38837 0.23283 0.0
O706 O 0.5104 0.39305 0.20938 0.0
O707 O 0.50705 0.37544 0.20411 0.0
H708 H 0.4821 0.38568 0.21131 0.0
H709 H 0.46257 0.38851 0.2044 0.0
H710 H 0.44972 0.38171 0.238 0.0
H711 H 0.46932 0.37904 0.24486 0.0
H712 H 0.52553 0.37275 0.2721 0.0
H713 H 0.51808 0.37844 0.25353 0.0
H714 H 0.55206 0.35352 0.25551 0.0
H715 H 0.54478 0.35953 0.23705 0.0
H716 H 0.54642 0.37553 0.19 0.0
H717 H 0.52834 0.39955 0.16907 0.0
H718 H 0.5119 0.39841 0.18189 0.0
H719 H 0.53005 0.37447 0.20271 0.0
C720 C 0.38225 0.75482 0.97812 0.0
C721 C 0.37909 0.75639 0.96674 0.0
C722 C 0.37698 0.73596 0.96414 0.0
C723 C 0.37644 0.74706 0.95983 0.0
C724 C 0.38002 0.73446 0.97561 0.0
C725 C 0.38265 0.74382 0.98254 0.0
U726 U 0.39066 0.7856 0.97976 0.0
O727 O 0.38596 0.79938 0.99143 0.0
O728 O 0.40397 0.79455 0.98969 0.0
C729 C 0.39649 0.80078 0.99515 0.0
C730 C 0.38562 0.76463 0.98517 0.0
C731 C 0.398 0.80151 0.00753 0.0
C732 C 0.39227 0.79675 0.02673 0.0
C733 C 0.39114 0.79522 0.01498 0.0
C734 C 0.40739 0.81051 0.02369 0.0
C735 C 0.40033 0.80451 0.03121 0.0
C736 C 0.40621 0.80903 0.01197 0.0
C737 C 0.39193 0.80193 0.95203 0.0
C738 C 0.39464 0.82238 0.95159 0.0
C739 C 0.39429 0.81152 0.93404 0.0
C740 C 0.39265 0.80155 0.94018 0.0
C741 C 0.39522 0.82207 0.93966 0.0
C742 C 0.39303 0.81238 0.95772 0.0
C743 C 0.38991 0.79141 0.95832 0.0
O744 O 0.39615 0.7682 0.98361 0.0
O745 O 0.37816 0.77292 0.98552 0.0
O746 O 0.38093 0.79148 0.96496 0.0
O747 O 0.39898 0.78697 0.96312 0.0
H748 H 0.37878 0.76484 0.96318 0.0
H749 H 0.37397 0.74854 0.9511 0.0
H750 H 0.38067 0.72603 0.97916 0.0
H751 H 0.38516 0.74247 0.99129 0.0
H752 H 0.38679 0.79192 0.0323 0.0
H753 H 0.3848 0.7893 0.01171 0.0
H754 H 0.41356 0.81667 0.02683 0.0
H755 H 0.41157 0.81396 0.00636 0.0
H756 H 0.39519 0.83036 0.95618 0.0
H757 H 0.39489 0.81095 0.92489 0.0
H758 H 0.39188 0.79353 0.93567 0.0
H759 H 0.39251 0.81281 0.9669 0.0
C760 C 0.02598 0.38167 0.78081 0.0
C761 C 0.02922 0.38285 0.79224 0.0
C762 C 0.04926 0.38362 0.78684 0.0
C763 C 0.04075 0.38379 0.79523 0.0
C764 C 0.04592 0.3826 0.77538 0.0
C765 C 0.03437 0.38162 0.7724 0.0
U766 U 0.99482 0.3826 0.78901 0.0
O767 O 0.97978 0.38918 0.78001 0.0
O768 O 0.98052 0.37118 0.78462 0.0
C769 C 0.97495 0.3791 0.77912 0.0
C770 C 0.01389 0.38044 0.77765 0.0
C771 C 0.97093 0.37591 0.76772 0.0
C772 C 0.97454 0.37203 0.7478 0.0
C773 C 0.97858 0.37489 0.75865 0.0
C774 C 0.95523 0.37104 0.75503 0.0
C775 C 0.96281 0.37012 0.74585 0.0
C776 C 0.95927 0.37392 0.76586 0.0
C777 C 0.98686 0.39025 0.81927 0.0
C778 C 0.96718 0.39373 0.82455 0.0
C779 C 0.98179 0.39225 0.83911 0.0
C780 C 0.99001 0.39043 0.83075 0.0
C781 C 0.97026 0.39394 0.83611 0.0
C782 C 0.9754 0.39187 0.8162 0.0
C783 C 0.99556 0.38827 0.81056 0.0
O784 O 0.00855 0.37185 0.78237 0.0
O785 O 0.00797 0.38989 0.77789 0.0
O786 O 0.99578 0.39573 0.80232 0.0
O787 O 0.99636 0.37773 0.80695 0.0
H788 H 0.02282 0.38292 0.79885 0.0
H789 H 0.043 0.38441 0.80414 0.0
H790 H 0.05222 0.38261 0.76869 0.0
H791 H 0.032 0.38079 0.76353 0.0
H792 H 0.98061 0.37127 0.74094 0.0
H793 H 0.98763 0.37635 0.75998 0.0
H794 H 0.94614 0.3698 0.75381 0.0
H795 H 0.95327 0.37469 0.77278 0.0
H796 H 0.95843 0.39515 0.82192 0.0
H797 H 0.98444 0.39216 0.84793 0.0
H798 H 0.99882 0.38912 0.83325 0.0
H799 H 0.97282 0.39172 0.80735 0.0
C800 C 0.37563 0.25039 0.52768 0.0
C801 C 0.37218 0.24885 0.53895 0.0
C802 C 0.36882 0.26914 0.54096 0.0
C803 C 0.36876 0.25813 0.54551 0.0
C804 C 0.37208 0.27059 0.52957 0.0
C805 C 0.37547 0.26128 0.52299 0.0
U806 U 0.38703 0.22061 0.52715 0.0
O807 O 0.38396 0.20615 0.51566 0.0
O808 O 0.40133 0.213 0.51781 0.0
C809 C 0.39463 0.20587 0.51227 0.0
C810 C 0.38002 0.24076 0.52107 0.0
C811 C 0.39632 0.20523 0.49994 0.0
C812 C 0.39123 0.21061 0.48069 0.0
C813 C 0.38994 0.21193 0.49243 0.0
C814 C 0.40554 0.19619 0.4839 0.0
C815 C 0.39897 0.20264 0.4763 0.0
C816 C 0.40421 0.19748 0.4956 0.0
C817 C 0.38944 0.20495 0.55517 0.0
C818 C 0.39918 0.18688 0.55676 0.0
C819 C 0.38741 0.19369 0.5722 0.0
C820 C 0.38488 0.20344 0.56601 0.0
C821 C 0.39459 0.18527 0.56766 0.0
C822 C 0.39659 0.19662 0.55056 0.0
C823 C 0.38643 0.2151 0.54867 0.0
O824 O 0.39081 0.23841 0.52301 0.0
O825 O 0.37341 0.2317 0.52079 0.0
O826 O 0.37764 0.21386 0.54178 0.0
O827 O 0.39504 0.22056 0.54407 0.0
H828 H 0.3723 0.24049 0.54272 0.0
H829 H 0.36616 0.25668 0.55419 0.0
H830 H 0.37238 0.27896 0.52584 0.0
H831 H 0.37819 0.26261 0.51433 0.0
H832 H 0.38613 0.21577 0.47506 0.0
H833 H 0.38385 0.21803 0.49564 0.0
H834 H 0.41145 0.18986 0.48082 0.0
H835 H 0.40919 0.19224 0.50128 0.0
H836 H 0.40483 0.18065 0.55305 0.0
H837 H 0.38356 0.19265 0.58047 0.0
H838 H 0.37927 0.20975 0.56965 0.0
H839 H 0.40015 0.19764 0.54216 0.0
C840 C 0.47442 0.62558 0.2734 0.0
C841 C 0.47241 0.61768 0.28203 0.0
C842 C 0.45212 0.62197 0.28152 0.0
C843 C 0.46135 0.61584 0.286 0.0
C844 C 0.45416 0.62989 0.27287 0.0
C845 C 0.46524 0.63164 0.26882 0.0
U846 U 0.50618 0.62624 0.27928 0.0
O847 O 0.52075 0.62071 0.269 0.0
O848 O 0.51951 0.63851 0.2745 0.0
C849 C 0.52489 0.63107 0.26812 0.0
C850 C 0.48611 0.62783 0.26948 0.0
C851 C 0.52805 0.63467 0.25655 0.0
C852 C 0.52985 0.64915 0.24199 0.0
C853 C 0.52633 0.64586 0.25282 0.0
C854 C 0.53681 0.63016 0.23842 0.0
C855 C 0.53511 0.64132 0.23468 0.0
C856 C 0.53337 0.62689 0.24925 0.0
C857 C 0.5174 0.61784 0.30816 0.0
C858 C 0.5377 0.61496 0.31123 0.0
C859 C 0.52507 0.61705 0.32732 0.0
C860 C 0.51577 0.61821 0.31992 0.0
C861 C 0.53614 0.61545 0.32305 0.0
C862 C 0.52842 0.61619 0.30385 0.0
C863 C 0.5077 0.61962 0.30043 0.0
O864 O 0.49127 0.63649 0.27445 0.0
O865 O 0.49265 0.61885 0.26849 0.0
O866 O 0.50699 0.61252 0.29179 0.0
O867 O 0.50599 0.63024 0.29755 0.0
H868 H 0.47941 0.61302 0.28579 0.0
H869 H 0.46008 0.60984 0.29281 0.0
H870 H 0.4472 0.6347 0.26924 0.0
H871 H 0.46666 0.63782 0.26219 0.0
H872 H 0.52839 0.65781 0.23931 0.0
H873 H 0.52234 0.65211 0.25826 0.0
H874 H 0.54103 0.62398 0.23307 0.0
H875 H 0.53499 0.61827 0.25195 0.0
H876 H 0.54614 0.61392 0.30768 0.0
H877 H 0.5236 0.6174 0.33638 0.0
H878 H 0.50732 0.61951 0.32338 0.0
H879 H 0.52986 0.61602 0.29478 0.0
C880 C 0.11842 0.77821 0.99201 0.0
C881 C 0.12211 0.78923 0.98935 0.0
C882 C 0.11659 0.78629 0.9696 0.0
C883 C 0.12126 0.7932 0.97825 0.0
C884 C 0.11283 0.77528 0.9723 0.0
C885 C 0.11378 0.77126 0.98342 0.0
U886 U 0.11787 0.78427 0.02355 0.0
O887 O 0.11014 0.77487 0.03773 0.0
O888 O 0.12862 0.7783 0.03755 0.0
C889 C 0.12007 0.77326 0.0427 0.0
C890 C 0.11905 0.77409 0.00375 0.0
C891 C 0.12226 0.76188 0.04736 0.0
C892 C 0.13485 0.7458 0.05031 0.0
C893 C 0.13189 0.75553 0.04424 0.0
C894 C 0.11825 0.74827 0.06221 0.0
C895 C 0.12826 0.74228 0.05961 0.0
C896 C 0.11531 0.75798 0.05617 0.0
C897 C 0.11406 0.81377 0.03485 0.0
C898 C 0.11235 0.81607 0.05525 0.0
C899 C 0.11643 0.83241 0.04353 0.0
C900 C 0.11613 0.82545 0.03384 0.0
C901 C 0.1147 0.82776 0.05437 0.0
C902 C 0.11209 0.80915 0.04561 0.0
C903 C 0.11473 0.80625 0.02489 0.0
O904 O 0.12811 0.77738 0.00959 0.0
O905 O 0.10952 0.77487 0.00953 0.0
O906 O 0.10629 0.79891 0.02378 0.0
O907 O 0.12481 0.80167 0.02332 0.0
H908 H 0.12556 0.79481 0.99588 0.0
H909 H 0.12405 0.80179 0.97647 0.0
H910 H 0.10922 0.76976 0.9658 0.0
H911 H 0.11083 0.76276 0.98533 0.0
H912 H 0.14264 0.74141 0.04812 0.0
H913 H 0.13741 0.75834 0.03746 0.0
H914 H 0.11287 0.74566 0.06919 0.0
H915 H 0.10785 0.76275 0.05872 0.0
H916 H 0.11079 0.81224 0.06343 0.0
H917 H 0.11837 0.84135 0.04257 0.0
H918 H 0.11777 0.82914 0.02561 0.0
H919 H 0.11054 0.80013 0.04656 0.0
C920 C 0.75159 0.98968 0.63025 0.0
C921 C 0.7535 0.97915 0.62495 0.0
C922 C 0.76921 0.9754 0.63797 0.0
C923 C 0.76227 0.97211 0.62873 0.0
C924 C 0.76742 0.98605 0.64311 0.0
C925 C 0.75869 0.99314 0.63926 0.0
U926 U 0.72112 0.99058 0.62015 0.0
O927 O 0.7064 1.00046 0.62601 0.0
O928 O 0.71198 1.0017 0.6083 0.0
C929 C 0.70514 0.00559 0.61621 0.0
C930 C 0.74158 0.99653 0.62714 0.0
C931 C 0.70411 0.01798 0.61685 0.0
C932 C 0.71221 0.03664 0.62075 0.0
C933 C 0.71345 0.02485 0.61997 0.0
C934 C 0.69231 0.03474 0.61524 0.0
C935 C 0.7016 0.04172 0.61842 0.0
C936 C 0.69357 0.02298 0.61447 0.0
C937 C 0.7066 0.96189 0.61455 0.0
C938 C 0.68606 0.95899 0.61364 0.0
C939 C 0.69883 0.9436 0.60881 0.0
C940 C 0.70822 0.95068 0.61094 0.0
C941 C 0.68765 0.94762 0.61031 0.0
C942 C 0.69547 0.96609 0.61571 0.0
C943 C 0.7166 0.96887 0.61762 0.0
O944 O 0.73861 0.99625 0.61635 0.0
O945 O 0.73286 0.99545 0.63403 0.0
O946 O 0.71592 0.97426 0.62739 0.0
O947 O 0.72087 0.97514 0.60948 0.0
H948 H 0.74799 0.9762 0.61811 0.0
H949 H 0.76331 0.96389 0.62471 0.0
H950 H 0.77268 0.98883 0.65021 0.0
H951 H 0.75728 1.00119 0.64351 0.0
H952 H 0.71956 0.04177 0.6231 0.0
H953 H 0.72167 0.02109 0.62183 0.0
H954 H 0.68398 0.03834 0.61358 0.0
H955 H 0.68626 0.01777 0.6121 0.0
H956 H 0.67755 0.96236 0.61475 0.0
H957 H 0.70035 0.93485 0.60639 0.0
H958 H 0.71676 0.94731 0.61002 0.0
H959 H 0.69408 0.97477 0.61844 0.0
C960 C 0.75714 0.97979 0.37355 0.0
C961 C 0.75892 0.96812 0.37493 0.0
C962 C 0.74101 0.96393 0.36515 0.0
C963 C 0.75094 0.96027 0.3708 0.0
C964 C 0.73916 0.97566 0.36395 0.0
C965 C 0.74719 0.98354 0.3681 0.0
U966 U 0.78631 0.98459 0.38597 0.0
O967 O 0.80018 0.99634 0.38163 0.0
O968 O 0.7929 0.99671 0.39878 0.0
C969 C 0.79996 1.00147 0.39157 0.0
C970 C 0.76588 0.98792 0.37746 0.0
C971 C 0.80011 0.01396 0.39141 0.0
C972 C 0.79609 0.03191 0.38219 0.0
C973 C 0.7948 0.0201 0.38269 0.0
C974 C 0.80757 0.03157 0.39936 0.0
C975 C 0.80265 0.03775 0.39043 0.0
C976 C 0.80632 0.01979 0.39982 0.0
C977 C 0.804 0.95847 0.39261 0.0
C978 C 0.82383 0.9601 0.3986 0.0
C979 C 0.81491 0.94154 0.39677 0.0
C980 C 0.80469 0.94664 0.39344 0.0
C981 C 0.82463 0.9482 0.39931 0.0
C982 C 0.81359 0.96519 0.39529 0.0
C983 C 0.79337 0.96367 0.38863 0.0
O984 O 0.76799 0.98778 0.38843 0.0
O985 O 0.7752 0.98806 0.3713 0.0
O986 O 0.79419 0.96919 0.37902 0.0
O987 O 0.78753 0.96918 0.39637 0.0
H988 H 0.76657 0.96509 0.37913 0.0
H989 H 0.75254 0.95132 0.37204 0.0
H990 H 0.73165 0.97874 0.35957 0.0
H991 H 0.74572 0.99252 0.36693 0.0
H992 H 0.7921 0.03645 0.37527 0.0
H993 H 0.7899 0.01576 0.37614 0.0
H994 H 0.81281 0.03576 0.40575 0.0
H995 H 0.8105 0.01518 0.40659 0.0
H996 H 0.8311 0.96547 0.40062 0.0
H997 H 0.81528 0.93237 0.39709 0.0
H998 H 0.79737 0.94134 0.39136 0.0
H999 H 0.81317 0.97435 0.39471 0.0
C1000 C 0.78209 0.99079 0.12046 0.0
C1001 C 0.7907 0.98769 0.11284 0.0
C1002 C 0.78943 0.96808 0.11909 0.0
C1003 C 0.79429 0.97644 0.11211 0.0
C1004 C 0.78076 0.97122 0.12669 0.0
C1005 C 0.7771 0.98249 0.12735 0.0
U1006 U 0.78959 0.02168 0.117 0.0
O1007 O 0.77965 0.0362 0.11077 0.0
O1008 O 0.7869 0.03652 0.12802 0.0
C1009 C 0.78034 0.04161 0.12054 0.0
C1010 C 0.77876 1.00276 0.12164 0.0
C1011 C 0.76959 0.04626 0.12487 0.0
C1012 C 0.75281 0.04513 0.13685 0.0
C1013 C 0.76274 0.04021 0.1325 0.0
C1014 C 0.75639 0.06201 0.12575 0.0
C1015 C 0.74955 0.05611 0.13355 0.0
C1016 C 0.76631 0.05713 0.12147 0.0
C1017 C 0.81874 0.02941 0.10547 0.0
C1018 C 0.82359 0.04897 0.10112 0.0
C1019 C 0.83841 0.03471 0.10174 0.0
C1020 C 0.83025 0.02645 0.10439 0.0
C1021 C 0.8352 0.04609 0.10013 0.0
C1022 C 0.81545 0.04071 0.10381 0.0
C1023 C 0.81032 0.02077 0.10876 0.0
O1024 O 0.78463 0.00856 0.12927 0.0
O1025 O 0.77741 0.00824 0.11204 0.0
O1026 O 0.80109 0.02017 0.10239 0.0
O1027 O 0.80814 0.02041 0.11968 0.0
H1028 H 0.79478 0.99401 0.10756 0.0
H1029 H 0.80113 0.97435 0.10633 0.0
H1030 H 0.77684 0.96496 0.13214 0.0
H1031 H 0.7705 0.98477 0.13333 0.0
H1032 H 0.74767 0.04033 0.14276 0.0
H1033 H 0.76513 0.03177 0.13517 0.0
H1034 H 0.75423 0.07054 0.12316 0.0
H1035 H 0.77152 0.06192 0.1156 0.0
H1036 H 0.82079 0.0576 0.09979 0.0
H1037 H 0.84728 0.03222 0.10123 0.0
H1038 H 0.83294 0.01778 0.10574 0.0
H1039 H 0.80658 0.04315 0.10467 0.0
C1040 C 0.71721 0.98516 0.88431 0.0
C1041 C 0.70613 0.98163 0.88712 0.0
C1042 C 0.71157 0.96187 0.88449 0.0
C1043 C 0.70333 0.97009 0.8872 0.0
C1044 C 0.72273 0.96548 0.8819 0.0
C1045 C 0.72552 0.97704 0.88181 0.0
U1046 U 0.70866 0.01587 0.88816 0.0
O1047 O 0.7183 0.03077 0.89432 0.0
O1048 O 0.71126 0.03055 0.877 0.0
C1049 C 0.71772 0.03592 0.88447 0.0
C1050 C 0.72 0.99728 0.88361 0.0
C1051 C 0.72853 0.04043 0.88007 0.0
C1052 C 0.74888 0.03874 0.87661 0.0
C1053 C 0.73865 0.03413 0.88062 0.0
C1054 C 0.7389 0.05586 0.87119 0.0
C1055 C 0.74914 0.04971 0.87191 0.0
C1056 C 0.72871 0.05126 0.87525 0.0
C1057 C 0.67964 0.02377 0.89908 0.0
C1058 C 0.67579 0.04338 0.90415 0.0
C1059 C 0.6601 0.0305 0.89989 0.0
C1060 C 0.66788 0.02172 0.89804 0.0
C1061 C 0.66399 0.04146 0.90285 0.0
C1062 C 0.68354 0.03464 0.90222 0.0
C1063 C 0.68783 0.01485 0.89607 0.0
O1064 O 0.71414 1.00288 0.87594 0.0
O1065 O 0.7208 1.00268 0.89339 0.0
O1066 O 0.69696 0.0143 0.90259 0.0
O1067 O 0.69016 0.01414 0.8852 0.0
H1068 H 0.6996 0.98782 0.88905 0.0
H1069 H 0.69462 0.96763 0.88907 0.0
H1070 H 0.72932 0.95937 0.87993 0.0
H1071 H 0.73412 0.97964 0.87965 0.0
H1072 H 0.75661 0.03382 0.87741 0.0
H1073 H 0.73865 0.02571 0.88426 0.0
H1074 H 0.73874 0.06422 0.86745 0.0
H1075 H 0.72095 0.05619 0.87467 0.0
H1076 H 0.67906 0.05176 0.90623 0.0
H1077 H 0.65106 0.02876 0.89887 0.0
H1078 H 0.66473 0.01339 0.89555 0.0
H1079 H 0.6926 0.03645 0.9029 0.0
C1080 C 0.63093 0.75383 0.97396 0.0
C1081 C 0.63605 0.75103 0.96359 0.0
C1082 C 0.63872 0.77104 0.95938 0.0
C1083 C 0.63996 0.75955 0.95639 0.0
C1084 C 0.63355 0.77384 0.96977 0.0
C1085 C 0.62971 0.76528 0.97703 0.0
U1086 U 0.62029 0.72389 0.97656 0.0
O1087 O 0.62381 0.71044 0.98884 0.0
O1088 O 0.60621 0.71638 0.98638 0.0
C1089 C 0.61318 0.71003 0.99236 0.0
C1090 C 0.62645 0.74481 0.98128 0.0
C1091 C 0.61161 0.7103 0.00474 0.0
C1092 C 0.61826 0.71531 0.02372 0.0
C1093 C 0.61925 0.71618 0.01193 0.0
C1094 C 0.60162 0.7032 0.02125 0.0
C1095 C 0.60954 0.70865 0.0285 0.0
C1096 C 0.60267 0.704 0.00948 0.0
C1097 C 0.61958 0.70614 0.94932 0.0
C1098 C 0.615 0.68601 0.94919 0.0
C1099 C 0.61938 0.69558 0.93158 0.0
C1100 C 0.62092 0.70578 0.93753 0.0
C1101 C 0.61649 0.68555 0.93735 0.0
C1102 C 0.61654 0.69623 0.95513 0.0
C1103 C 0.6217 0.71684 0.95544 0.0
O1104 O 0.61581 0.74184 0.97919 0.0
O1105 O 0.63326 0.73608 0.98263 0.0
O1106 O 0.63034 0.7167 0.9626 0.0
O1107 O 0.61262 0.72186 0.95956 0.0
H1108 H 0.63691 0.74224 0.96099 0.0
H1109 H 0.64371 0.75713 0.94836 0.0
H1110 H 0.63252 0.78263 0.9723 0.0
H1111 H 0.62571 0.76758 0.98498 0.0
H1112 H 0.62442 0.71969 0.02909 0.0
H1113 H 0.62617 0.72118 0.00844 0.0
H1114 H 0.59489 0.6979 0.02466 0.0
H1115 H 0.5967 0.6994 0.00407 0.0
H1116 H 0.61288 0.67843 0.9539 0.0
H1117 H 0.62042 0.69557 0.92246 0.0
H1118 H 0.62324 0.71337 0.93292 0.0
H1119 H 0.6155 0.69639 0.96426 0.0
C1120 C 0.97332 0.13018 0.77503 0.0
C1121 C 0.97041 0.13409 0.78591 0.0
C1122 C 0.95103 0.12694 0.78338 0.0
C1123 C 0.95936 0.13256 0.79001 0.0
C1124 C 0.95398 0.12289 0.77254 0.0
C1125 C 0.96504 0.12456 0.76838 0.0
U1126 U 0.00538 0.13019 0.77977 0.0
O1127 O 0.0195 0.12452 0.76894 0.0
O1128 O 0.01862 0.14233 0.77451 0.0
C1129 C 0.0239 0.13479 0.76821 0.0
C1130 C 0.98498 0.13174 0.77065 0.0
C1131 C 0.02692 0.13855 0.75678 0.0
C1132 C 0.02201 0.1423 0.73712 0.0
C1133 C 0.01881 0.1388 0.74798 0.0
C1134 C 0.04137 0.14548 0.74387 0.0
C1135 C 0.03335 0.14565 0.73494 0.0
C1136 C 0.03817 0.14196 0.75468 0.0
C1137 C 0.01819 0.12299 0.80801 0.0
C1138 C 0.03885 0.12229 0.80934 0.0
C1139 C 0.02747 0.12178 0.82644 0.0
C1140 C 0.01749 0.12235 0.81985 0.0
C1141 C 0.03827 0.12188 0.82125 0.0
C1142 C 0.02892 0.12289 0.80279 0.0
C1143 C 0.00784 0.12428 0.80104 0.0
O1144 O 0.99067 0.14052 0.77478 0.0
O1145 O 0.99116 0.12247 0.77001 0.0
O1146 O 0.00674 0.11688 0.7927 0.0
O1147 O 0.00574 0.13475 0.79791 0.0
H1148 H 0.97668 0.13831 0.79129 0.0
H1149 H 0.95738 0.13558 0.79847 0.0
H1150 H 0.94772 0.11855 0.76726 0.0
H1151 H 0.96714 0.12143 0.75999 0.0
H1152 H 0.01562 0.14243 0.73044 0.0
H1153 H 0.01005 0.13626 0.7495 0.0
H1154 H 0.05021 0.14781 0.74245 0.0
H1155 H 0.04453 0.1418 0.7614 0.0
H1156 H 0.047 0.12218 0.80505 0.0
H1157 H 0.02673 0.12157 0.83559 0.0
H1158 H 0.00926 0.12249 0.824 0.0
H1159 H 0.02961 0.1234 0.79364 0.0
C1160 C 0.88027 0.25834 0.4785 0.0
C1161 C 0.88024 0.25877 0.46661 0.0
C1162 C 0.87458 0.23886 0.46558 0.0
C1163 C 0.87742 0.24912 0.4602 0.0
C1164 C 0.87444 0.23856 0.47752 0.0
C1165 C 0.87727 0.24823 0.48392 0.0
U1166 U 0.8892 0.28918 0.47973 0.0
O1167 O 0.88467 0.30302 0.49142 0.0
O1168 O 0.90259 0.29786 0.48978 0.0
C1169 C 0.8952 0.30419 0.49522 0.0
C1170 C 0.88368 0.26834 0.48523 0.0
C1171 C 0.89663 0.30476 0.50763 0.0
C1172 C 0.8908 0.29973 0.52672 0.0
C1173 C 0.88967 0.29844 0.51494 0.0
C1174 C 0.90612 0.31334 0.52395 0.0
C1175 C 0.89897 0.30729 0.53135 0.0
C1176 C 0.90494 0.31209 0.51221 0.0
C1177 C 0.89128 0.30584 0.45242 0.0
C1178 C 0.89591 0.32595 0.45289 0.0
C1179 C 0.89298 0.31631 0.43486 0.0
C1180 C 0.8909 0.30614 0.44055 0.0
C1181 C 0.89546 0.32635 0.44096 0.0
C1182 C 0.89385 0.31578 0.45857 0.0
C1183 C 0.88886 0.29518 0.45834 0.0
O1184 O 0.89428 0.27173 0.48374 0.0
O1185 O 0.87632 0.27673 0.48523 0.0
O1186 O 0.87978 0.29535 0.46484 0.0
O1187 O 0.89773 0.2904 0.46319 0.0
H1188 H 0.88255 0.26654 0.46229 0.0
H1189 H 0.87777 0.24962 0.45103 0.0
H1190 H 0.87214 0.23085 0.48194 0.0
H1191 H 0.87721 0.24778 0.49311 0.0
H1192 H 0.88524 0.29488 0.5322 0.0
H1193 H 0.88326 0.29266 0.51156 0.0
H1194 H 0.91238 0.31934 0.52722 0.0
H1195 H 0.91038 0.31704 0.50669 0.0
H1196 H 0.89793 0.33349 0.45783 0.0
H1197 H 0.89243 0.31635 0.42568 0.0
H1198 H 0.8889 0.29854 0.4357 0.0
H1199 H 0.89421 0.31566 0.46776 0.0
C1200 C 0.49294 0.88319 0.76507 0.0
C1201 C 0.49331 0.88017 0.77656 0.0
C1202 C 0.47507 0.88942 0.77973 0.0
C1203 C 0.48445 0.88322 0.7838 0.0
C1204 C 0.47471 0.8924 0.76818 0.0
C1205 C 0.48359 0.88928 0.7609 0.0
U1206 U 0.52363 0.87472 0.76266 0.0
O1207 O 0.53261 0.86288 0.75138 0.0
O1208 O 0.53754 0.88092 0.75182 0.0
C1209 C 0.5389 0.87097 0.74691 0.0
C1210 C 0.50264 0.88052 0.75768 0.0
C1211 C 0.53978 0.87105 0.73444 0.0
C1212 C 0.53292 0.86567 0.71562 0.0
C1213 C 0.53136 0.86613 0.72739 0.0
C1214 C 0.55111 0.87537 0.71782 0.0
C1215 C 0.54288 0.8702 0.71072 0.0
C1216 C 0.54958 0.87576 0.72955 0.0
C1217 C 0.54007 0.87041 0.79031 0.0
C1218 C 0.55897 0.86206 0.79111 0.0
C1219 C 0.55155 0.87213 0.80745 0.0
C1220 C 0.54145 0.87429 0.8015 0.0
C1221 C 0.56043 0.86601 0.80232 0.0
C1222 C 0.54889 0.8643 0.78512 0.0
C1223 C 0.52951 0.87308 0.7841 0.0
O1224 O 0.51111 0.88787 0.75828 0.0
O1225 O 0.50604 0.86991 0.75795 0.0
O1226 O 0.52489 0.86466 0.77826 0.0
O1227 O 0.52971 0.8827 0.77853 0.0
H1228 H 0.50055 0.8756 0.77996 0.0
H1229 H 0.48509 0.88097 0.79268 0.0
H1230 H 0.46758 0.89712 0.76478 0.0
H1231 H 0.48322 0.89174 0.75206 0.0
H1232 H 0.52639 0.86172 0.71036 0.0
H1233 H 0.52368 0.8625 0.73097 0.0
H1234 H 0.55896 0.87877 0.71436 0.0
H1235 H 0.55619 0.87955 0.73485 0.0
H1236 H 0.56571 0.85744 0.78689 0.0
H1237 H 0.55237 0.87518 0.81611 0.0
H1238 H 0.53473 0.87905 0.80561 0.0
H1239 H 0.54801 0.86133 0.77644 0.0
C1240 C 0.98259 0.1384 0.22538 0.0
C1241 C 0.97078 0.13938 0.22368 0.0
C1242 C 0.97343 0.13859 0.20322 0.0
C1243 C 0.96623 0.13945 0.2127 0.0
C1244 C 0.98529 0.13781 0.20498 0.0
C1245 C 0.98983 0.13769 0.21599 0.0
U1246 U 0.9783 0.14077 0.25704 0.0
O1247 O 0.98423 0.13008 0.27103 0.0
O1248 O 0.98917 0.1481 0.2706 0.0
C1249 C 0.9903 0.1383 0.27573 0.0
C1250 C 0.98733 0.13794 0.23693 0.0
C1251 C 1.00189 0.13527 0.27941 0.0
C1252 C 0.01943 0.12459 0.27714 0.0
C1253 C 0.00891 0.12822 0.27283 0.0
C1254 C 0.01616 0.13534 0.29441 0.0
C1255 C 0.0231 0.12798 0.28806 0.0
C1256 C 0.00567 0.13894 0.29012 0.0
C1257 C 0.94957 0.1474 0.26922 0.0
C1258 C 0.94819 0.14922 0.28969 0.0
C1259 C 0.93098 0.14755 0.27825 0.0
C1260 C 0.93763 0.14698 0.26842 0.0
C1261 C 0.9362 0.1485 0.28901 0.0
C1262 C 0.9548 0.14863 0.2799 0.0
C1263 C 0.95663 0.14578 0.25909 0.0
O1264 O 0.98762 0.14768 0.24244 0.0
O1265 O 0.98349 0.1295 0.2431 0.0
O1266 O 0.96031 0.13536 0.25764 0.0
O1267 O 0.96463 0.1535 0.2576 0.0
H1268 H 0.96507 0.14001 0.23086 0.0
H1269 H 0.95707 0.14022 0.21162 0.0
H1270 H 0.99105 0.13703 0.19786 0.0
H1271 H 0.99898 0.13693 0.21717 0.0
H1272 H 0.02463 0.11902 0.27199 0.0
H1273 H 0.00613 0.12533 0.26451 0.0
H1274 H 0.01861 0.13799 0.3029 0.0
H1275 H 1.00033 0.14433 0.29532 0.0
H1276 H 0.95247 0.15013 0.29782 0.0
H1277 H 0.92178 0.14687 0.27744 0.0
H1278 H 0.93347 0.14594 0.26024 0.0
H1279 H 0.96402 0.14892 0.28068 0.0
C1280 C 0.49686 0.1261 0.74052 0.0
C1281 C 0.49919 0.12566 0.72887 0.0
C1282 C 0.48097 0.11627 0.72525 0.0
C1283 C 0.49133 0.12082 0.72131 0.0
C1284 C 0.47858 0.11685 0.73694 0.0
C1285 C 0.48651 0.12171 0.74453 0.0
U1286 U 0.52634 0.13768 0.74419 0.0
O1287 O 0.53344 0.15204 0.75405 0.0
O1288 O 0.53981 0.13476 0.75685 0.0
C1289 C 0.5401 0.14546 0.76011 0.0
C1290 C 0.50548 0.13083 0.74834 0.0
C1291 C 0.54008 0.14747 0.77242 0.0
C1292 C 0.53327 0.14327 0.79139 0.0
C1293 C 0.53245 0.1418 0.7796 0.0
C1294 C 0.5491 0.15633 0.78882 0.0
C1295 C 0.54171 0.15046 0.79613 0.0
C1296 C 0.54828 0.15484 0.77709 0.0
C1297 C 0.54448 0.13889 0.71746 0.0
C1298 C 0.56491 0.14256 0.71799 0.0
C1299 C 0.55496 0.1412 0.69993 0.0
C1300 C 0.54469 0.13926 0.7056 0.0
C1301 C 0.56522 0.14276 0.70606 0.0
C1302 C 0.55462 0.14065 0.72365 0.0
C1303 C 0.5337 0.13639 0.72324 0.0
O1304 O 0.51446 0.12435 0.74981 0.0
O1305 O 0.50815 0.14152 0.74656 0.0
O1306 O 0.52822 0.14524 0.72725 0.0
O1307 O 0.53404 0.12785 0.73034 0.0
H1308 H 0.50716 0.12902 0.72562 0.0
H1309 H 0.49334 0.12071 0.71235 0.0
H1310 H 0.47071 0.11336 0.74025 0.0
H1311 H 0.48461 0.12195 0.75352 0.0
H1312 H 0.52739 0.13871 0.79678 0.0
H1313 H 0.52602 0.1361 0.77611 0.0
H1314 H 0.55583 0.16177 0.79216 0.0
H1315 H 0.55426 0.15925 0.77166 0.0
H1316 H 0.57265 0.14361 0.72297 0.0
H1317 H 0.55484 0.14151 0.69075 0.0
H1318 H 0.53692 0.13798 0.70071 0.0
H1319 H 0.55458 0.1404 0.73284 0.0
C1320 C 0.1281 0.23535 0.96841 0.0
C1321 C 0.13696 0.23222 0.96109 0.0
C1322 C 0.13115 0.2124 0.96228 0.0
C1323 C 0.13851 0.22085 0.95811 0.0
C1324 C 0.12233 0.21556 0.9697 0.0
C1325 C 0.12084 0.22695 0.97277 0.0
U1326 U 0.12956 0.26588 0.9592 0.0
O1327 O 0.11748 0.27997 0.96104 0.0
O1328 O 0.13478 0.28149 0.96822 0.0
C1329 C 0.1246 0.28604 0.9673 0.0
C1330 C 0.12599 0.2474 0.97095 0.0
C1331 C 0.11996 0.29085 0.97782 0.0
C1332 C 0.10877 0.28924 0.99504 0.0
C1333 C 0.11294 0.28444 0.985 0.0
C1334 C 0.11867 0.30683 0.99082 0.0
C1335 C 0.11161 0.3005 0.99808 0.0
C1336 C 0.12277 0.30205 0.98078 0.0
C1337 C 0.14146 0.27254 0.93016 0.0
C1338 C 0.14448 0.29206 0.92437 0.0
C1339 C 0.14662 0.27674 0.91072 0.0
C1340 C 0.14393 0.26886 0.91912 0.0
C1341 C 0.14691 0.28844 0.91325 0.0
C1342 C 0.14173 0.28417 0.93275 0.0
C1343 C 0.13837 0.26422 0.93886 0.0
O1344 O 0.13518 0.25378 0.97218 0.0
O1345 O 0.11805 0.25213 0.96466 0.0
O1346 O 0.12738 0.26327 0.94081 0.0
O1347 O 0.14458 0.26465 0.94818 0.0
H1348 H 0.14255 0.23858 0.95748 0.0
H1349 H 0.14524 0.21872 0.95221 0.0
H1350 H 0.11655 0.20922 0.97307 0.0
H1351 H 0.11391 0.22923 0.97837 0.0
H1352 H 0.10329 0.28416 1.00038 0.0
H1353 H 0.11072 0.27574 0.98285 0.0
H1354 H 0.12124 0.31542 0.99298 0.0
H1355 H 0.12825 0.30708 0.97537 0.0
H1356 H 0.14448 0.30101 0.92655 0.0
H1357 H 0.14857 0.27368 0.90227 0.0
H1358 H 0.14374 0.2599 0.91699 0.0
H1359 H 0.13976 0.28715 0.94123 0.0
C1360 C 0.38049 0.73692 0.50107 0.0
C1361 C 0.38106 0.72522 0.49887 0.0
C1362 C 0.39003 0.72216 0.51725 0.0
C1363 C 0.3858 0.71792 0.50685 0.0
C1364 C 0.38923 0.73387 0.51956 0.0
C1365 C 0.38452 0.74121 0.51149 0.0
U1366 U 0.3659 0.73926 0.47301 0.0
O1367 O 0.35255 0.75059 0.46637 0.0
O1368 O 0.36924 0.74963 0.45798 0.0
C1369 C 0.35928 0.7547 0.45848 0.0
C1370 C 0.37582 0.74447 0.49235 0.0
C1371 C 0.35959 0.76712 0.45746 0.0
C1372 C 0.36823 0.78545 0.46181 0.0
C1373 C 0.36751 0.77374 0.46362 0.0
C1374 C 0.35288 0.78406 0.44798 0.0
C1375 C 0.36104 0.79072 0.45383 0.0
C1376 C 0.35219 0.77237 0.44977 0.0
C1377 C 0.35881 0.71077 0.4586 0.0
C1378 C 0.35373 0.70858 0.43869 0.0
C1379 C 0.35388 0.69219 0.45102 0.0
C1380 C 0.35711 0.69912 0.46015 0.0
C1381 C 0.35232 0.6968 0.44014 0.0
C1382 C 0.35694 0.71552 0.44787 0.0
C1383 C 0.36316 0.71765 0.46813 0.0
O1384 O 0.3813 0.74415 0.48265 0.0
O1385 O 0.36466 0.74395 0.49109 0.0
O1386 O 0.35555 0.7236 0.4737 0.0
O1387 O 0.37263 0.72331 0.46612 0.0
H1388 H 0.37791 0.72175 0.4909 0.0
H1389 H 0.38611 0.70893 0.5049 0.0
H1390 H 0.39245 0.73736 0.52748 0.0
H1391 H 0.38412 0.75022 0.51332 0.0
H1392 H 0.37467 0.7903 0.46639 0.0
H1393 H 0.37329 0.76981 0.46961 0.0
H1394 H 0.34707 0.78786 0.44194 0.0
H1395 H 0.346 0.76738 0.44499 0.0
H1396 H 0.35248 0.71241 0.43045 0.0
H1397 H 0.35305 0.68315 0.45241 0.0
H1398 H 0.35857 0.69533 0.46838 0.0
H1399 H 0.3582 0.72454 0.44655 0.0
C1400 C 0.74033 0.52868 0.86341 0.0
C1401 C 0.7381 0.53867 0.8574 0.0
C1402 C 0.71768 0.53622 0.86052 0.0
C1403 C 0.72687 0.54238 0.85592 0.0
C1404 C 0.71999 0.52613 0.86642 0.0
C1405 C 0.73122 0.5224 0.86784 0.0
U1406 U 0.77183 0.53578 0.86514 0.0
O1407 O 0.7848 0.53153 0.87792 0.0
O1408 O 0.78704 0.52603 0.86022 0.0
C1409 C 0.79085 0.52551 0.87072 0.0
C1410 C 0.75213 0.52512 0.86563 0.0
C1411 C 0.79477 0.51428 0.87459 0.0
C1412 C 0.79503 0.49904 0.88843 0.0
C1413 C 0.79032 0.50913 0.88436 0.0
C1414 C 0.80837 0.49887 0.8728 0.0
C1415 C 0.80421 0.49388 0.88277 0.0
C1416 C 0.80372 0.50898 0.86878 0.0
C1417 C 0.78211 0.56571 0.85862 0.0
C1418 C 0.79774 0.57643 0.86728 0.0
C1419 C 0.79344 0.57875 0.8473 0.0
C1420 C 0.78445 0.57094 0.84821 0.0
C1421 C 0.80018 0.58157 0.85684 0.0
C1422 C 0.78884 0.56856 0.86816 0.0
C1423 C 0.7728 0.55722 0.85937 0.0
O1424 O 0.7589 0.52494 0.85676 0.0
O1425 O 0.75688 0.52981 0.87465 0.0
O1426 O 0.77015 0.5538 0.86963 0.0
O1427 O 0.77314 0.54887 0.85191 0.0
H1428 H 0.74505 0.54368 0.85397 0.0
H1429 H 0.72541 0.5501 0.8512 0.0
H1430 H 0.71316 0.52126 0.87022 0.0
H1431 H 0.73282 0.51472 0.8726 0.0
H1432 H 0.79156 0.49533 0.89606 0.0
H1433 H 0.78338 0.513 0.88899 0.0
H1434 H 0.81552 0.4952 0.86832 0.0
H1435 H 0.80733 0.51283 0.86128 0.0
H1436 H 0.80289 0.5783 0.87473 0.0
H1437 H 0.79509 0.58263 0.83916 0.0
H1438 H 0.77936 0.56891 0.84075 0.0
H1439 H 0.78733 0.56465 0.87631 0.0
C1440 C 0.73267 0.50826 0.13381 0.0
C1441 C 0.72139 0.50735 0.13768 0.0
C1442 C 0.71888 0.4896 0.12724 0.0
C1443 C 0.71459 0.49809 0.13449 0.0
C1444 C 0.7302 0.49056 0.12338 0.0
C1445 C 0.73704 0.49983 0.12664 0.0
U1446 U 0.73356 0.53842 0.14406 0.0
O1447 O 0.74466 0.54747 0.15624 0.0
O1448 O 0.74358 0.55323 0.13859 0.0
C1449 C 0.74878 0.55429 0.14846 0.0
C1450 C 0.7396 0.51827 0.13686 0.0
C1451 C 0.76127 0.55495 0.14797 0.0
C1452 C 0.77965 0.54604 0.14492 0.0
C1453 C 0.76775 0.54529 0.14543 0.0
C1454 C 0.77869 0.5661 0.14948 0.0
C1455 C 0.78527 0.55646 0.14694 0.0
C1456 C 0.76679 0.56534 0.14999 0.0
C1457 C 0.70439 0.5519 0.14973 0.0
C1458 C 0.70177 0.57174 0.15476 0.0
C1459 C 0.68533 0.55938 0.15208 0.0
C1460 C 0.69255 0.55031 0.14971 0.0
C1461 C 0.68983 0.57024 0.15455 0.0
C1462 C 0.70901 0.56262 0.15236 0.0
C1463 C 0.71168 0.54237 0.14647 0.0
O1464 O 0.73832 0.52697 0.13006 0.0
O1465 O 0.73945 0.52113 0.14767 0.0
O1466 O 0.71809 0.53813 0.15458 0.0
O1467 O 0.71709 0.54357 0.13681 0.0
H1468 H 0.71783 0.51384 0.14316 0.0
H1469 H 0.706 0.49755 0.1378 0.0
H1470 H 0.73373 0.48426 0.11768 0.0
H1471 H 0.74568 0.50048 0.12348 0.0
H1472 H 0.78446 0.53843 0.14307 0.0
H1473 H 0.76358 0.53719 0.14384 0.0
H1474 H 0.78272 0.57429 0.1509 0.0
H1475 H 0.7619 0.57288 0.15192 0.0
H1476 H 0.70551 0.57995 0.15672 0.0
H1477 H 0.67619 0.55795 0.15161 0.0
H1478 H 0.68886 0.5421 0.14761 0.0
H1479 H 0.71817 0.56396 0.1524 0.0
C1480 C 0.73054 0.50156 0.37642 0.0
C1481 C 0.71887 0.4998 0.37843 0.0
C1482 C 0.71602 0.52016 0.38034 0.0
C1483 C 0.71169 0.509 0.38041 0.0
C1484 C 0.72777 0.52187 0.37848 0.0
C1485 C 0.73497 0.51263 0.37652 0.0
U1486 U 0.73276 0.47068 0.36895 0.0
O1487 O 0.7435 0.46151 0.35672 0.0
O1488 O 0.74422 0.45721 0.37482 0.0
C1489 C 0.74863 0.45565 0.3647 0.0
C1490 C 0.7379 0.49185 0.37379 0.0
C1491 C 0.76116 0.45566 0.36427 0.0
C1492 C 0.77952 0.46439 0.36863 0.0
C1493 C 0.76758 0.46469 0.36886 0.0
C1494 C 0.77868 0.44615 0.35901 0.0
C1495 C 0.7852 0.45509 0.36374 0.0
C1496 C 0.76676 0.44644 0.35929 0.0
C1497 C 0.70411 0.45438 0.36639 0.0
C1498 C 0.69029 0.44415 0.35461 0.0
C1499 C 0.69501 0.43715 0.37331 0.0
C1500 C 0.70267 0.44617 0.37489 0.0
C1501 C 0.68858 0.43614 0.36324 0.0
C1502 C 0.69793 0.45319 0.35619 0.0
C1503 C 0.71115 0.46468 0.36844 0.0
O1504 O 0.73787 0.48376 0.38141 0.0
O1505 O 0.73694 0.48798 0.36333 0.0
O1506 O 0.7165 0.46889 0.35962 0.0
O1507 O 0.71734 0.46495 0.37779 0.0
H1508 H 0.7153 0.49129 0.37835 0.0
H1509 H 0.70273 0.50736 0.38198 0.0
H1510 H 0.73135 0.53036 0.37825 0.0
H1511 H 0.74396 0.51413 0.37492 0.0
H1512 H 0.7843 0.47146 0.37223 0.0
H1513 H 0.76336 0.47192 0.37268 0.0
H1514 H 0.78279 0.4388 0.35532 0.0
H1515 H 0.76192 0.4394 0.35571 0.0
H1516 H 0.68558 0.44354 0.34669 0.0
H1517 H 0.69378 0.43124 0.38021 0.0
H1518 H 0.70719 0.44688 0.38291 0.0
H1519 H 0.69878 0.45942 0.34952 0.0
C1520 C 0.73972 0.48138 0.63853 0.0
C1521 C 0.73889 0.47087 0.64397 0.0
C1522 C 0.71824 0.47276 0.64503 0.0
C1523 C 0.72827 0.46661 0.6472 0.0
C1524 C 0.71912 0.48336 0.63963 0.0
C1525 C 0.7298 0.48764 0.63641 0.0
U1526 U 0.77063 0.47512 0.63375 0.0
O1527 O 0.78205 0.47879 0.61941 0.0
O1528 O 0.78636 0.48498 0.63656 0.0
C1529 C 0.78901 0.48497 0.62573 0.0
C1530 C 0.75089 0.48544 0.63462 0.0
C1531 C 0.79267 0.49591 0.62095 0.0
C1532 C 0.79317 0.51655 0.62121 0.0
C1533 C 0.78864 0.5063 0.62519 0.0
C1534 C 0.80544 0.50612 0.60841 0.0
C1535 C 0.80174 0.51655 0.61289 0.0
C1536 C 0.80095 0.49591 0.61243 0.0
C1537 C 0.78153 0.44586 0.64173 0.0
C1538 C 0.79746 0.43579 0.63329 0.0
C1539 C 0.7927 0.43269 0.65301 0.0
C1540 C 0.78366 0.44034 0.65204 0.0
C1541 C 0.79969 0.43034 0.64363 0.0
C1542 C 0.78852 0.44352 0.63235 0.0
C1543 C 0.7722 0.45419 0.64099 0.0
O1544 O 0.75874 0.48649 0.64259 0.0
O1545 O 0.75463 0.48028 0.62545 0.0
O1546 O 0.76868 0.45679 0.63072 0.0
O1547 O 0.77324 0.46308 0.64773 0.0
H1548 H 0.74646 0.46587 0.64556 0.0
H1549 H 0.7279 0.45833 0.65112 0.0
H1550 H 0.71157 0.48833 0.6379 0.0
H1551 H 0.7303 0.49575 0.63216 0.0
H1552 H 0.79006 0.52445 0.62474 0.0
H1553 H 0.78219 0.5065 0.63174 0.0
H1554 H 0.81213 0.5058 0.60212 0.0
H1555 H 0.8042 0.48797 0.60909 0.0
H1556 H 0.80281 0.43427 0.62597 0.0
H1557 H 0.79418 0.42856 0.66106 0.0
H1558 H 0.77838 0.44202 0.65937 0.0
H1559 H 0.78716 0.44773 0.62432 0.0
C1560 C 0.4924 0.13699 0.25228 0.0
C1561 C 0.481 0.14023 0.25073 0.0
C1562 C 0.47873 0.14246 0.27115 0.0
C1563 C 0.47424 0.14299 0.26006 0.0
C1564 C 0.49024 0.13936 0.27264 0.0
C1565 C 0.49701 0.13664 0.26327 0.0
U1566 U 0.49355 0.1274 0.2218 0.0
O1567 O 0.50491 0.13195 0.20776 0.0
O1568 O 0.50374 0.11422 0.21331 0.0
C1569 C 0.50891 0.12159 0.20675 0.0
C1570 C 0.49929 0.13347 0.24251 0.0
C1571 C 0.52139 0.12064 0.20618 0.0
C1572 C 0.54042 0.12591 0.21271 0.0
C1573 C 0.52855 0.12654 0.2138 0.0
C1574 C 0.53805 0.11322 0.19658 0.0
C1575 C 0.54531 0.11934 0.20399 0.0
C1576 C 0.52621 0.11388 0.19767 0.0
C1577 C 0.46557 0.12441 0.20551 0.0
C1578 C 0.46487 0.12236 0.18499 0.0
C1579 C 0.44778 0.11925 0.19609 0.0
C1580 C 0.45394 0.12164 0.20603 0.0
C1581 C 0.45316 0.11967 0.18546 0.0
C1582 C 0.47104 0.12466 0.19494 0.0
C1583 C 0.47189 0.12708 0.216 0.0
O1584 O 0.49786 0.12282 0.23937 0.0
O1585 O 0.49928 0.14054 0.23392 0.0
O1586 O 0.4783 0.13628 0.21566 0.0
O1587 O 0.47701 0.11844 0.2208 0.0
H1588 H 0.47728 0.14051 0.24229 0.0
H1589 H 0.46548 0.14551 0.25858 0.0
H1590 H 0.49393 0.13871 0.28105 0.0
H1591 H 0.50578 0.13407 0.26462 0.0
H1592 H 0.54576 0.13081 0.21849 0.0
H1593 H 0.52496 0.13177 0.22047 0.0
H1594 H 0.54152 0.10791 0.18991 0.0
H1595 H 0.52079 0.10921 0.19176 0.0
H1596 H 0.46928 0.1226 0.17694 0.0
H1597 H 0.43876 0.11731 0.19671 0.0
H1598 H 0.44961 0.12139 0.21412 0.0
H1599 H 0.48006 0.12668 0.1944 0.0
C1600 C 0.97472 0.88097 0.72939 0.0
C1601 C 0.97207 0.88281 0.71793 0.0
C1602 C 0.9518 0.8835 0.72241 0.0
C1603 C 0.96071 0.88404 0.71446 0.0
C1604 C 0.95455 0.88181 0.73393 0.0
C1605 C 0.96592 0.88054 0.73737 0.0
U1606 U 0.00633 0.88238 0.72303 0.0
O1607 O 0.02098 0.88786 0.73351 0.0
O1608 O 0.02014 0.87041 0.72689 0.0
C1609 C 0.0256 0.87772 0.73345 0.0
C1610 C 0.98661 0.87939 0.73303 0.0
C1611 C 0.02922 0.8734 0.74454 0.0
C1612 C 0.02505 0.86769 0.76385 0.0
C1613 C 0.02134 0.87166 0.75329 0.0
C1614 C 0.04448 0.86705 0.75692 0.0
C1615 C 0.03668 0.86537 0.76579 0.0
C1616 C 0.04077 0.87102 0.7464 0.0
C1617 C 0.01675 0.89231 0.69453 0.0
C1618 C 0.03693 0.89614 0.69168 0.0
C1619 C 0.02438 0.89337 0.67545 0.0
C1620 C 0.01513 0.89182 0.68275 0.0
C1621 C 0.03539 0.89548 0.67985 0.0
C1622 C 0.02771 0.89451 0.69895 0.0
C1623 C 0.00718 0.88992 0.70218 0.0
O1624 O 0.99207 0.87121 0.72774 0.0
O1625 O 0.99268 0.88877 0.73408 0.0
O1626 O 0.00647 0.89664 0.7111 0.0
O1627 O 0.00571 0.87915 0.70462 0.0
H1628 H 0.97878 0.88318 0.71165 0.0
H1629 H 0.95891 0.88517 0.70552 0.0
H1630 H 0.94793 0.88152 0.74029 0.0
H1631 H 0.96784 0.87919 0.74627 0.0
H1632 H 0.01881 0.86639 0.77047 0.0
H1633 H 0.01236 0.87341 0.75196 0.0
H1634 H 0.05351 0.86553 0.75817 0.0
H1635 H 0.04695 0.87234 0.73972 0.0
H1636 H 0.04533 0.89756 0.69533 0.0
H1637 H 0.02293 0.89287 0.66637 0.0
H1638 H 0.00673 0.89007 0.6792 0.0
H1639 H 0.02917 0.89476 0.70804 0.0
C1640 C 0.52455 0.88233 0.2782 0.0
C1641 C 0.52799 0.88501 0.28933 0.0
C1642 C 0.54795 0.88414 0.28372 0.0
C1643 C 0.53959 0.88591 0.29207 0.0
C1644 C 0.54442 0.8816 0.27254 0.0
C1645 C 0.53281 0.8807 0.26981 0.0
U1646 U 0.49373 0.88279 0.28746 0.0
O1647 O 0.47827 0.88932 0.27917 0.0
O1648 O 0.47942 0.87123 0.2834 0.0
C1649 C 0.47356 0.87918 0.27826 0.0
C1650 C 0.51238 0.88101 0.2754 0.0
C1651 C 0.46905 0.87612 0.26697 0.0
C1652 C 0.47068 0.87562 0.24643 0.0
C1653 C 0.47531 0.8783 0.2571 0.0
C1654 C 0.45365 0.86828 0.25544 0.0
C1655 C 0.45974 0.87065 0.24546 0.0
C1656 C 0.45826 0.87101 0.26608 0.0
C1657 C 0.48688 0.88985 0.31818 0.0
C1658 C 0.46775 0.8946 0.32443 0.0
C1659 C 0.48234 0.88984 0.33826 0.0
C1660 C 0.49019 0.88828 0.3295 0.0
C1661 C 0.47104 0.89305 0.33581 0.0
C1662 C 0.47559 0.89295 0.31568 0.0
C1663 C 0.49521 0.88809 0.30907 0.0
O1664 O 0.50733 0.87229 0.28018 0.0
O1665 O 0.50636 0.89037 0.27598 0.0
O1666 O 0.49508 0.89569 0.30095 0.0
O1667 O 0.49597 0.87762 0.30526 0.0
H1668 H 0.52169 0.88626 0.29592 0.0
H1669 H 0.54199 0.88772 0.30079 0.0
H1670 H 0.55063 0.88033 0.26589 0.0
H1671 H 0.53028 0.87866 0.26117 0.0
H1672 H 0.47557 0.87768 0.23894 0.0
H1673 H 0.4837 0.8822 0.25763 0.0
H1674 H 0.4453 0.86427 0.25504 0.0
H1675 H 0.45335 0.86919 0.27363 0.0
H1676 H 0.45907 0.89693 0.32228 0.0
H1677 H 0.48514 0.88868 0.34695 0.0
H1678 H 0.49887 0.88586 0.33157 0.0
H1679 H 0.47284 0.89408 0.30697 0.0
C1680 C 0.87881 0.75285 0.02778 0.0
C1681 C 0.87591 0.75122 0.03919 0.0
C1682 C 0.87261 0.77148 0.04153 0.0
C1683 C 0.87281 0.76043 0.04599 0.0
C1684 C 0.87536 0.77303 0.03002 0.0
C1685 C 0.87845 0.76378 0.02321 0.0
U1686 U 0.88876 0.72264 0.02652 0.0
O1687 O 0.88472 0.70848 0.01495 0.0
O1688 O 0.90247 0.71442 0.01681 0.0
C1689 C 0.8953 0.70768 0.01135 0.0
C1690 C 0.88266 0.74321 0.02086 0.0
C1691 C 0.89678 0.70698 0.99899 0.0
C1692 C 0.89131 0.71209 0.97977 0.0
C1693 C 0.89018 0.7135 0.99152 0.0
C1694 C 0.90591 0.69794 0.98289 0.0
C1695 C 0.89912 0.7042 0.97533 0.0
C1696 C 0.90473 0.69931 0.9946 0.0
C1697 C 0.89091 0.70657 0.05434 0.0
C1698 C 0.89333 0.68613 0.05503 0.0
C1699 C 0.89496 0.69739 0.07226 0.0
C1700 C 0.89285 0.70722 0.06605 0.0
C1701 C 0.89511 0.6867 0.06685 0.0
C1702 C 0.89128 0.69599 0.04883 0.0
C1703 C 0.88837 0.71694 0.048 0.0
O1704 O 0.89335 0.74031 0.02257 0.0
O1705 O 0.87563 0.73447 0.02052 0.0
O1706 O 0.87937 0.71635 0.0413 0.0
O1707 O 0.8972 0.7219 0.04325 0.0
H1708 H 0.87618 0.74282 0.04288 0.0
H1709 H 0.87058 0.7589 0.05476 0.0
H1710 H 0.87544 0.78144 0.02635 0.0
H1711 H 0.88073 0.76518 0.01443 0.0
H1712 H 0.88604 0.71712 0.97416 0.0
H1713 H 0.88404 0.71954 0.99476 0.0
H1714 H 0.91187 0.69167 0.97978 0.0
H1715 H 0.90989 0.6942 1.00025 0.0
H1716 H 0.89325 0.67804 0.0506 0.0
H1717 H 0.89651 0.69817 0.08131 0.0
H1718 H 0.89268 0.71535 0.07042 0.0
H1719 H 0.88983 0.69534 0.03975 0.0
C1720 C 0.61858 0.27979 0.49366 0.0
C1721 C 0.62217 0.29075 0.49067 0.0
C1722 C 0.6157 0.28754 0.47124 0.0
C1723 C 0.62081 0.29456 0.47955 0.0
C1724 C 0.61202 0.27659 0.47428 0.0
C1725 C 0.6135 0.27274 0.4854 0.0
U1726 U 0.61914 0.28584 0.52529 0.0
O1727 O 0.61231 0.27615 0.53969 0.0
O1728 O 0.63065 0.28002 0.53878 0.0
C1729 C 0.6225 0.27459 0.54416 0.0
C1730 C 0.61982 0.27577 0.5054 0.0
C1731 C 0.62514 0.26306 0.5483 0.0
C1732 C 0.63912 0.24882 0.55369 0.0
C1733 C 0.63635 0.25884 0.54804 0.0
C1734 C 0.61944 0.24674 0.55953 0.0
C1735 C 0.63076 0.24282 0.55976 0.0
C1736 C 0.61668 0.25678 0.55392 0.0
C1737 C 0.61477 0.31526 0.53683 0.0
C1738 C 0.61328 0.31771 0.55723 0.0
C1739 C 0.61668 0.33404 0.5453 0.0
C1740 C 0.61647 0.32698 0.53568 0.0
C1741 C 0.61523 0.32946 0.5562 0.0
C1742 C 0.61312 0.31068 0.54765 0.0
C1743 C 0.61537 0.3077 0.52688 0.0
O1744 O 0.629 0.27936 0.51086 0.0
O1745 O 0.61051 0.27626 0.51156 0.0
O1746 O 0.60713 0.3001 0.52606 0.0
O1747 O 0.62553 0.30345 0.52498 0.0
H1748 H 0.62597 0.29641 0.49694 0.0
H1749 H 0.62354 0.3031 0.47751 0.0
H1750 H 0.60809 0.27099 0.46804 0.0
H1751 H 0.61062 0.26427 0.48758 0.0
H1752 H 0.64794 0.24612 0.55379 0.0
H1753 H 0.64312 0.26351 0.5439 0.0
H1754 H 0.61275 0.24223 0.56397 0.0
H1755 H 0.60799 0.25985 0.55435 0.0
H1756 H 0.61193 0.31391 0.56546 0.0
H1757 H 0.61831 0.34303 0.54421 0.0
H1758 H 0.61785 0.33064 0.52739 0.0
H1759 H 0.61185 0.30163 0.54871 0.0
C1760 C 0.25058 0.48827 0.13046 0.0
C1761 C 0.2521 0.47755 0.12542 0.0
C1762 C 0.2679 0.4737 0.1383 0.0
C1763 C 0.26073 0.47037 0.12925 0.0
C1764 C 0.26645 0.4845 0.14324 0.0
C1765 C 0.25787 0.49173 0.13932 0.0
U1766 U 0.22022 0.49032 0.12005 0.0
O1767 O 0.20588 0.50089 0.12553 0.0
O1768 O 0.21183 0.50175 0.1079 0.0
C1769 C 0.20512 0.50607 0.11571 0.0
C1770 C 0.24087 0.49543 0.12715 0.0
C1771 C 0.20448 0.51856 0.1161 0.0
C1772 C 0.20709 0.5366 0.12595 0.0
C1773 C 0.20852 0.52483 0.12549 0.0
C1774 C 0.19796 0.53606 0.10746 0.0
C1775 C 0.20167 0.54235 0.117 0.0
C1776 C 0.19931 0.52429 0.10705 0.0
C1777 C 0.20423 0.46235 0.11476 0.0
C1778 C 0.18368 0.45952 0.11569 0.0
C1779 C 0.19565 0.44499 0.10739 0.0
C1780 C 0.20529 0.45174 0.10945 0.0
C1781 C 0.18476 0.44872 0.11069 0.0
C1782 C 0.19333 0.46632 0.11765 0.0
C1783 C 0.21459 0.46884 0.11777 0.0
O1784 O 0.23799 0.49509 0.11634 0.0
O1785 O 0.23205 0.49483 0.13397 0.0
O1786 O 0.21424 0.47436 0.12749 0.0
O1787 O 0.21924 0.47476 0.10956 0.0
H1788 H 0.24645 0.47461 0.11869 0.0
H1789 H 0.26152 0.46204 0.1254 0.0
H1790 H 0.27189 0.48732 0.15018 0.0
H1791 H 0.25676 0.49993 0.14337 0.0
H1792 H 0.20995 0.54113 0.13349 0.0
H1793 H 0.21259 0.52062 0.13258 0.0
H1794 H 0.19395 0.54021 0.10031 0.0
H1795 H 0.19619 0.51962 0.09969 0.0
H1796 H 0.17539 0.46266 0.11821 0.0
H1797 H 0.19676 0.43666 0.10362 0.0
H1798 H 0.21364 0.44855 0.10716 0.0
H1799 H 0.19231 0.47455 0.12168 0.0
C1800 C 0.28157 0.5196 0.88692 0.0
C1801 C 0.29058 0.52251 0.8943 0.0
C1802 C 0.29001 0.54206 0.88781 0.0
C1803 C 0.29472 0.53363 0.89478 0.0
C1804 C 0.2809 0.53913 0.88048 0.0
C1805 C 0.27671 0.52798 0.88006 0.0
U1806 U 0.28837 0.48873 0.89051 0.0
O1807 O 0.27823 0.47427 0.89676 0.0
O1808 O 0.28541 0.47385 0.87957 0.0
C1809 C 0.27873 0.46886 0.88698 0.0
C1810 C 0.27781 0.50771 0.88587 0.0
C1811 C 0.26784 0.46432 0.88254 0.0
C1812 C 0.25215 0.46457 0.86894 0.0
C1813 C 0.262 0.46958 0.87357 0.0
C1814 C 0.25359 0.44926 0.88249 0.0
C1815 C 0.24791 0.45428 0.87327 0.0
C1816 C 0.26348 0.45423 0.88705 0.0
C1817 C 0.31809 0.48163 0.90164 0.0
C1818 C 0.32453 0.46216 0.90342 0.0
C1819 C 0.33767 0.47774 0.9071 0.0
C1820 C 0.329 0.48549 0.90476 0.0
C1821 C 0.33558 0.46599 0.90634 0.0
C1822 C 0.31585 0.46993 0.90106 0.0
C1823 C 0.30931 0.48988 0.89851 0.0
O1824 O 0.28331 0.50176 0.87819 0.0
O1825 O 0.27655 0.50229 0.89551 0.0
O1826 O 0.30023 0.49012 0.90502 0.0
O1827 O 0.30683 0.4902 0.88764 0.0
H1828 H 0.29458 0.51611 0.89954 0.0
H1829 H 0.30188 0.53555 0.90036 0.0
H1830 H 0.27707 0.54545 0.87504 0.0
H1831 H 0.2698 0.52586 0.87425 0.0
H1832 H 0.24788 0.4687 0.86192 0.0
H1833 H 0.26518 0.47744 0.87001 0.0
H1834 H 0.25063 0.44127 0.88593 0.0
H1835 H 0.26787 0.45004 0.89396 0.0
H1836 H 0.32266 0.45317 0.90264 0.0
H1837 H 0.34604 0.48097 0.90948 0.0
H1838 H 0.33085 0.4945 0.90525 0.0
H1839 H 0.30746 0.46682 0.89859 0.0
C1840 C 0.28344 0.49016 0.61816 0.0
C1841 C 0.29281 0.48819 0.61107 0.0
C1842 C 0.29184 0.46798 0.61508 0.0
C1843 C 0.29694 0.47721 0.60952 0.0
C1844 C 0.28246 0.46998 0.62222 0.0
C1845 C 0.27827 0.48101 0.62372 0.0
U1846 U 0.28925 0.52142 0.61614 0.0
O1847 O 0.27857 0.5357 0.61057 0.0
O1848 O 0.28601 0.53568 0.62774 0.0
C1849 C 0.27909 0.54072 0.62056 0.0
C1850 C 0.2794 0.50181 0.62 0.0
C1851 C 0.26818 0.54477 0.62517 0.0
C1852 C 0.25309 0.54422 0.63925 0.0
C1853 C 0.26297 0.53958 0.63452 0.0
C1854 C 0.25327 0.55901 0.62506 0.0
C1855 C 0.24821 0.55407 0.63465 0.0
C1856 C 0.26316 0.55441 0.6204 0.0
C1857 C 0.3182 0.53057 0.60474 0.0
C1858 C 0.32273 0.55029 0.60079 0.0
C1859 C 0.3378 0.53628 0.60127 0.0
C1860 C 0.32976 0.52784 0.6037 0.0
C1861 C 0.3344 0.54763 0.59981 0.0
C1862 C 0.31471 0.54184 0.60327 0.0
C1863 C 0.30996 0.52166 0.60776 0.0
O1864 O 0.28501 0.50756 0.62785 0.0
O1865 O 0.27766 0.50766 0.61069 0.0
O1866 O 0.3007 0.52106 0.60141 0.0
O1867 O 0.30786 0.52082 0.61866 0.0
H1868 H 0.29701 0.49518 0.60683 0.0
H1869 H 0.30431 0.476 0.60414 0.0
H1870 H 0.27833 0.46303 0.62659 0.0
H1871 H 0.27106 0.4824 0.62928 0.0
H1872 H 0.24932 0.54016 0.64656 0.0
H1873 H 0.26665 0.53207 0.6383 0.0
H1874 H 0.24981 0.56667 0.6214 0.0
H1875 H 0.26707 0.55856 0.6132 0.0
H1876 H 0.31979 0.5589 0.59959 0.0
H1877 H 0.34671 0.53395 0.60078 0.0
H1878 H 0.3326 0.51919 0.60491 0.0
H1879 H 0.3058 0.5441 0.6041 0.0
C1880 C 0.24235 0.51777 0.37334 0.0
C1881 C 0.24063 0.52932 0.37112 0.0
C1882 C 0.26093 0.53188 0.36757 0.0
C1883 C 0.24981 0.53629 0.36821 0.0
C1884 C 0.26258 0.52024 0.36966 0.0
C1885 C 0.25335 0.51324 0.37253 0.0
U1886 U 0.21263 0.51642 0.38472 0.0
O1887 O 0.19767 0.506 0.38003 0.0
O1888 O 0.20447 0.50553 0.39743 0.0
C1889 C 0.19722 0.50113 0.39002 0.0
C1890 C 0.2327 0.51067 0.37697 0.0
C1891 C 0.1966 0.4887 0.38976 0.0
C1892 C 0.20541 0.47035 0.38663 0.0
C1893 C 0.20623 0.48219 0.38712 0.0
C1894 C 0.18534 0.47146 0.39144 0.0
C1895 C 0.19493 0.46485 0.38874 0.0
C1896 C 0.18618 0.48329 0.39194 0.0
C1897 C 0.19839 0.54506 0.39044 0.0
C1898 C 0.17798 0.54825 0.3919 0.0
C1899 C 0.19134 0.56317 0.39725 0.0
C1900 C 0.20045 0.55606 0.39458 0.0
C1901 C 0.18001 0.55941 0.39577 0.0
C1902 C 0.18711 0.54111 0.3893 0.0
C1903 C 0.20811 0.53809 0.38691 0.0
O1904 O 0.23041 0.51129 0.38786 0.0
O1905 O 0.22355 0.5113 0.37049 0.0
O1906 O 0.20672 0.53241 0.37735 0.0
O1907 O 0.21302 0.53214 0.39495 0.0
H1908 H 0.23219 0.53298 0.37175 0.0
H1909 H 0.24819 0.54516 0.36649 0.0
H1910 H 0.27104 0.5166 0.36937 0.0
H1911 H 0.25482 0.50436 0.3743 0.0
H1912 H 0.21298 0.46551 0.38465 0.0
H1913 H 0.21434 0.48628 0.38541 0.0
H1914 H 0.17711 0.46753 0.39292 0.0
H1915 H 0.17866 0.48821 0.39393 0.0
H1916 H 0.16933 0.54509 0.39079 0.0
H1917 H 0.19319 0.57176 0.40007 0.0
H1918 H 0.20911 0.55924 0.39551 0.0
H1919 H 0.18536 0.53259 0.3862 0.0
P1920 P 0.10729 0.35228 0.10901 0.0
H1921 H 0.09857 0.3382 0.12738 0.0
H1922 H 0.08348 0.34111 0.14119 0.0
H1923 H 0.07335 0.37168 0.12381 0.0
H1924 H 0.08868 0.36876 0.11006 0.0
H1925 H 0.11904 0.35547 0.08753 0.0
H1926 H 0.11586 0.34774 0.06854 0.0
H1927 H 0.08582 0.33007 0.08031 0.0
H1928 H 0.08888 0.33813 0.09937 0.0
H1929 H 0.12463 0.36177 0.12417 0.0
H1930 H 0.1055 0.37272 0.09489 0.0
O1931 O 0.11606 0.3426 0.11448 0.0
H1932 H 0.13512 0.37977 0.12442 0.0
H1933 H 0.11609 0.39074 0.09499 0.0
C1934 C 0.09487 0.35338 0.11784 0.0
C1935 C 0.09302 0.34544 0.12643 0.0
C1936 C 0.0843 0.34708 0.13429 0.0
C1937 C 0.07725 0.35669 0.13367 0.0
C1938 C 0.07874 0.36429 0.12462 0.0
C1939 C 0.08747 0.36261 0.11674 0.0
C1940 C 0.10395 0.34773 0.09477 0.0
C1941 C 0.11154 0.35026 0.08598 0.0
C1942 C 0.10975 0.34579 0.07512 0.0
C1943 C 0.10052 0.33841 0.07293 0.0
C1944 C 0.09296 0.3358 0.08177 0.0
C1945 C 0.09466 0.34045 0.09262 0.0
C1946 C 0.11458 0.36578 0.10929 0.0
C1947 C 0.12272 0.36804 0.11777 0.0
C1948 C 0.12863 0.37837 0.11796 0.0
C1949 C 0.12648 0.38661 0.10966 0.0
C1950 C 0.11803 0.38447 0.10138 0.0
C1951 C 0.11201 0.37418 0.1013 0.0
P1952 P 0.93027 0.88549 0.42055 0.0
H1953 H 0.94399 0.8725 0.43654 0.0
H1954 H 0.93935 0.85704 0.44945 0.0
H1955 H 0.90492 0.856 0.43599 0.0
H1956 H 0.90981 0.87113 0.4228 0.0
H1957 H 0.95113 0.89213 0.40872 0.0
H1958 H 0.95819 0.88807 0.38971 0.0
H1959 H 0.92905 0.86615 0.38346 0.0
H1960 H 0.92223 0.87002 0.40268 0.0
H1961 H 0.91257 0.89297 0.43615 0.0
H1962 H 0.92026 0.89681 0.40061 0.0
O1963 O 0.93972 0.89355 0.42762 0.0
H1964 H 0.89522 0.90416 0.43363 0.0
H1965 H 0.90288 0.90777 0.398 0.0
C1966 C 0.92715 0.87317 0.42897 0.0
C1967 C 0.93548 0.86885 0.4363 0.0
C1968 C 0.93279 0.86005 0.44372 0.0
C1969 C 0.92169 0.8554 0.44394 0.0
C1970 C 0.91356 0.85933 0.43606 0.0
C1971 C 0.91631 0.86808 0.42858 0.0
C1972 C 0.9362 0.88131 0.40712 0.0
C1973 C 0.94636 0.88629 0.40334 0.0
C1974 C 0.95034 0.88404 0.3924 0.0
C1975 C 0.94415 0.87685 0.385 0.0
C1976 C 0.93411 0.87161 0.38897 0.0
C1977 C 0.93018 0.87383 0.39994 0.0
C1978 C 0.91757 0.89381 0.41853 0.0
C1979 C 0.91048 0.89614 0.42779 0.0
C1980 C 0.90055 0.90251 0.42633 0.0
C1981 C 0.89761 0.90679 0.41559 0.0
C1982 C 0.90491 0.90466 0.40639 0.0
C1983 C 0.91483 0.89828 0.40786 0.0
P1984 P 0.42814 0.62954 0.58915 0.0
H1985 H 0.4413 0.64486 0.57487 0.0
H1986 H 0.43631 0.66208 0.56457 0.0
H1987 H 0.40228 0.66059 0.57852 0.0
H1988 H 0.40745 0.64352 0.589 0.0
H1989 H 0.43274 0.61341 0.60703 0.0
H1990 H 0.44006 0.61539 0.6264 0.0
H1991 H 0.44317 0.65164 0.62185 0.0
H1992 H 0.43581 0.6496 0.60242 0.0
H1993 H 0.41877 0.61346 0.57253 0.0
H1994 H 0.40994 0.62599 0.60577 0.0
O1995 O 0.43828 0.62314 0.58159 0.0
H1996 H 0.40227 0.60065 0.57278 0.0
H1997 H 0.3937 0.61295 0.60631 0.0
C1998 C 0.42466 0.64277 0.58245 0.0
C1999 C 0.43279 0.64828 0.57575 0.0
C2000 C 0.42991 0.65811 0.56984 0.0
C2001 C 0.41884 0.66263 0.57058 0.0
C2002 C 0.41089 0.65737 0.57778 0.0
C2003 C 0.4138 0.64754 0.5837 0.0
C2004 C 0.43353 0.63137 0.60338 0.0
C2005 C 0.43493 0.6218 0.61022 0.0
C2006 C 0.43908 0.62294 0.6213 0.0
C2007 C 0.44209 0.63368 0.62568 0.0
C2008 C 0.44094 0.64325 0.61869 0.0
C2009 C 0.43667 0.6421 0.60761 0.0
C2010 C 0.41573 0.62044 0.58925 0.0
C2011 C 0.41331 0.61339 0.57992 0.0
C2012 C 0.4039 0.60603 0.5801 0.0
C2013 C 0.39671 0.60565 0.58962 0.0
C2014 C 0.39899 0.61305 0.5988 0.0
C2015 C 0.40836 0.62043 0.59857 0.0
P2016 P 0.60935 0.1513 0.89492 0.0
H2017 H 0.59165 0.16834 0.89142 0.0
H2018 H 0.57523 0.16901 0.87853 0.0
H2019 H 0.58185 0.1344 0.86816 0.0
H2020 H 0.59781 0.13367 0.8813 0.0
H2021 H 0.62615 0.16502 0.90705 0.0
H2022 H 0.62588 0.17506 0.9252 0.0
H2023 H 0.59095 0.16427 0.93026 0.0
H2024 H 0.59137 0.15405 0.91206 0.0
H2025 H 0.62272 0.13602 0.88091 0.0
H2026 H 0.60713 0.13538 0.91398 0.0
O2027 O 0.61859 0.15802 0.88654 0.0
H2028 H 0.6296 0.1167 0.88365 0.0
H2029 H 0.61407 0.11601 0.91681 0.0
C2030 C 0.59589 0.15092 0.88745 0.0
C2031 C 0.58932 0.16079 0.88663 0.0
C2032 C 0.58 0.1612 0.87915 0.0
C2033 C 0.57722 0.15179 0.87221 0.0
C2034 C 0.58357 0.14176 0.87347 0.0
C2035 C 0.5928 0.14135 0.88099 0.0
C2036 C 0.60869 0.15902 0.90811 0.0
C2037 C 0.61838 0.16492 0.912 0.0
C2038 C 0.61821 0.17069 0.92237 0.0
C2039 C 0.60835 0.17058 0.92912 0.0
C2040 C 0.59868 0.1645 0.92527 0.0
C2041 C 0.59887 0.15874 0.91484 0.0
C2042 C 0.61461 0.1372 0.89732 0.0
C2043 C 0.62085 0.13174 0.8888 0.0
C2044 C 0.62468 0.12066 0.89033 0.0
C2045 C 0.62236 0.11485 0.90044 0.0
C2046 C 0.61607 0.12033 0.90897 0.0
C2047 C 0.61211 0.1314 0.90737 0.0
P2048 P 0.1088 0.6592 0.39552 0.0
H2049 H 0.0976 0.67386 0.37908 0.0
H2050 H 0.08157 0.67063 0.36618 0.0
H2051 H 0.07418 0.63889 0.38292 0.0
H2052 H 0.09048 0.64212 0.39567 0.0
H2053 H 0.12634 0.6663 0.41128 0.0
H2054 H 0.12598 0.67377 0.43063 0.0
H2055 H 0.08909 0.67295 0.42997 0.0
H2056 H 0.08952 0.66544 0.41046 0.0
H2057 H 0.12007 0.64504 0.37876 0.0
H2058 H 0.11079 0.64261 0.41403 0.0
O2059 O 0.11757 0.66732 0.38791 0.0
H2060 H 0.12927 0.6265 0.3798 0.0
H2061 H 0.11997 0.62406 0.41514 0.0
C2062 C 0.09537 0.65809 0.38811 0.0
C2063 C 0.0924 0.66631 0.38011 0.0
C2064 C 0.08315 0.66448 0.37279 0.0
C2065 C 0.07667 0.6544 0.3734 0.0
C2066 C 0.07914 0.64662 0.38208 0.0
C2067 C 0.08842 0.64848 0.3894 0.0
C2068 C 0.10798 0.6654 0.40945 0.0
C2069 C 0.11817 0.6678 0.41527 0.0
C2070 C 0.11795 0.67199 0.42635 0.0
C2071 C 0.1075 0.67387 0.43183 0.0
C2072 C 0.09725 0.67164 0.42591 0.0
C2073 C 0.09749 0.66734 0.41479 0.0
C2074 C 0.11504 0.64532 0.39638 0.0
C2075 C 0.12001 0.6405 0.38672 0.0
C2076 C 0.12517 0.62986 0.38731 0.0
C2077 C 0.12541 0.62385 0.39758 0.0
C2078 C 0.12008 0.62857 0.40716 0.0
C2079 C 0.11484 0.63919 0.40653 0.0
P2080 P 0.6116 0.8505 0.6154 0.0
H2081 H 0.59944 0.83624 0.63146 0.0
H2082 H 0.58328 0.83991 0.64382 0.0
H2083 H 0.57768 0.87195 0.62702 0.0
H2084 H 0.59413 0.86828 0.61485 0.0
H2085 H 0.62866 0.83952 0.6017 0.0
H2086 H 0.62839 0.83125 0.58268 0.0
H2087 H 0.59233 0.83837 0.57984 0.0
H2088 H 0.59267 0.84662 0.59905 0.0
H2089 H 0.62285 0.8655 0.63168 0.0
H2090 H 0.61482 0.86574 0.59591 0.0
O2091 O 0.62004 0.84268 0.62367 0.0
H2092 H 0.63301 0.88357 0.62978 0.0
H2093 H 0.6249 0.88385 0.59396 0.0
C2094 C 0.59813 0.85211 0.62246 0.0
C2095 C 0.59462 0.84396 0.6303 0.0
C2096 C 0.58529 0.84605 0.63732 0.0
C2097 C 0.57925 0.85632 0.63655 0.0
C2098 C 0.58229 0.86407 0.62801 0.0
C2099 C 0.59166 0.86197 0.62101 0.0
C2100 C 0.61067 0.8435 0.60182 0.0
C2101 C 0.62066 0.83917 0.59705 0.0
C2102 C 0.62051 0.83454 0.58614 0.0
C2103 C 0.61035 0.83421 0.57974 0.0
C2104 C 0.60026 0.83842 0.58462 0.0
C2105 C 0.60044 0.84313 0.59557 0.0
C2106 C 0.61834 0.86416 0.6139 0.0
C2107 C 0.62324 0.86948 0.62343 0.0
C2108 C 0.62896 0.87985 0.62234 0.0
C2109 C 0.62983 0.8851 0.61169 0.0
C2110 C 0.62453 0.87992 0.60223 0.0
C2111 C 0.61877 0.86957 0.60334 0.0
P2112 P 0.42978 0.38561 0.92068 0.0
H2113 H 0.44267 0.37106 0.9359 0.0
H2114 H 0.43706 0.35568 0.94854 0.0
H2115 H 0.4023 0.35807 0.93623 0.0
H2116 H 0.40812 0.37314 0.9233 0.0
H2117 H 0.45067 0.39117 0.90838 0.0
H2118 H 0.45697 0.38697 0.88913 0.0
H2119 H 0.4265 0.36676 0.88345 0.0
H2120 H 0.42042 0.37078 0.90289 0.0
H2121 H 0.41266 0.39417 0.93643 0.0
H2122 H 0.42118 0.39856 0.90115 0.0
O2123 O 0.44001 0.39267 0.92773 0.0
H2124 H 0.39693 0.40761 0.93434 0.0
H2125 H 0.40544 0.41179 0.89897 0.0
C2126 C 0.42574 0.37345 0.92894 0.0
C2127 C 0.43386 0.36819 0.93586 0.0
C2128 C 0.43062 0.35944 0.94313 0.0
C2129 C 0.41917 0.35578 0.94358 0.0
C2130 C 0.41119 0.36064 0.9361 0.0
C2131 C 0.41447 0.36935 0.92878 0.0
C2132 C 0.43513 0.38118 0.90708 0.0
C2133 C 0.44545 0.38566 0.90307 0.0
C2134 C 0.44898 0.38334 0.89201 0.0
C2135 C 0.44221 0.37659 0.88469 0.0
C2136 C 0.43201 0.37187 0.88888 0.0
C2137 C 0.4285 0.37417 0.89998 0.0
C2138 C 0.41793 0.39514 0.9189 0.0
C2139 C 0.41105 0.3979 0.9282 0.0
C2140 C 0.40206 0.40556 0.92699 0.0
C2141 C 0.3999 0.41073 0.91647 0.0
C2142 C 0.40692 0.40803 0.90721 0.0
C2143 C 0.41588 0.40035 0.90843 0.0
P2144 P 0.92779 0.12901 0.08743 0.0
H2145 H 0.94073 0.14429 0.07294 0.0
H2146 H 0.93563 0.16153 0.06272 0.0
H2147 H 0.9017 0.15992 0.07689 0.0
H2148 H 0.90697 0.14281 0.08728 0.0
H2149 H 0.93446 0.1131 0.10483 0.0
H2150 H 0.94204 0.11542 0.12408 0.0
H2151 H 0.94129 0.15187 0.12024 0.0
H2152 H 0.93376 0.14947 0.10094 0.0
H2153 H 0.91802 0.11272 0.07124 0.0
H2154 H 0.91017 0.12549 0.10465 0.0
O2155 O 0.93779 0.12252 0.07976 0.0
H2156 H 0.90162 0.09981 0.07212 0.0
H2157 H 0.89401 0.11239 0.10579 0.0
C2158 C 0.92414 0.14213 0.08061 0.0
C2159 C 0.93221 0.14767 0.07387 0.0
C2160 C 0.92927 0.15751 0.06801 0.0
C2161 C 0.9182 0.16202 0.06886 0.0
C2162 C 0.9103 0.15671 0.07607 0.0
C2163 C 0.91327 0.14686 0.08194 0.0
C2164 C 0.93346 0.1311 0.10151 0.0
C2165 C 0.93592 0.12159 0.10815 0.0
C2166 C 0.94019 0.12293 0.11916 0.0
C2167 C 0.94219 0.13383 0.1237 0.0
C2168 C 0.93989 0.14337 0.11695 0.0
C2169 C 0.93553 0.142 0.10593 0.0
C2170 C 0.91546 0.11984 0.08799 0.0
C2171 C 0.9128 0.11268 0.0788 0.0
C2172 C 0.90345 0.10528 0.07934 0.0
C2173 C 0.89655 0.10496 0.08908 0.0
C2174 C 0.89907 0.11244 0.09812 0.0
C2175 C 0.9084 0.11987 0.09754 0.0
P2176 P 0.10309 0.07962 0.36773 0.0
H2177 H 0.08443 0.07075 0.35355 0.0
H2178 H 0.07359 0.07892 0.3379 0.0
H2179 H 0.09594 0.10829 0.33842 0.0
H2180 H 0.10645 0.10021 0.35438 0.0
H2181 H 0.11525 0.06109 0.37854 0.0
H2182 H 0.13418 0.053 0.37565 0.0
H2183 H 0.13949 0.0755 0.34734 0.0
H2184 H 0.12056 0.08359 0.35032 0.0
H2185 H 0.08743 0.09266 0.38162 0.0
H2186 H 0.12356 0.09266 0.37473 0.0
O2187 O 0.09448 0.07022 0.37395 0.0
H2188 H 0.0899 0.10948 0.39371 0.0
H2189 H 0.12614 0.10925 0.38695 0.0
C2190 C 0.09612 0.08496 0.35523 0.0
C2191 C 0.08704 0.07892 0.35024 0.0
C2192 C 0.0809 0.08357 0.34121 0.0
C2193 C 0.08382 0.09433 0.33693 0.0
C2194 C 0.0933 0.1001 0.34164 0.0
C2195 C 0.09937 0.09546 0.35072 0.0
C2196 C 0.11641 0.07279 0.36452 0.0
C2197 C 0.1204 0.06413 0.37157 0.0
C2198 C 0.13122 0.0595 0.3699 0.0
C2199 C 0.13832 0.06359 0.36124 0.0
C2200 C 0.13424 0.07221 0.35412 0.0
C2201 C 0.12337 0.07678 0.35575 0.0
C2202 C 0.10531 0.09132 0.3774 0.0
C2203 C 0.09592 0.09617 0.38287 0.0
C2204 C 0.09736 0.10576 0.38979 0.0
C2205 C 0.10823 0.11071 0.39131 0.0
C2206 C 0.11764 0.10573 0.38587 0.0
C2207 C 0.11618 0.09616 0.37894 0.0
P2208 P 0.14531 0.88669 0.62386 0.0
H2209 H 0.1633 0.88127 0.60778 0.0
H2210 H 0.16366 0.86925 0.5908 0.0
H2211 H 0.12716 0.86417 0.59346 0.0
H2212 H 0.12683 0.87657 0.60996 0.0
H2213 H 0.15549 0.89962 0.64229 0.0
H2214 H 0.16665 0.91717 0.64309 0.0
H2215 H 0.16348 0.9204 0.6067 0.0
H2216 H 0.15226 0.90276 0.60598 0.0
H2217 H 0.12913 0.87161 0.63479 0.0
H2218 H 0.13012 0.90655 0.62413 0.0
O2219 O 0.15187 0.87782 0.63271 0.0
H2220 H 0.1098 0.87425 0.64197 0.0
H2221 H 0.11072 0.90928 0.63138 0.0
C2222 C 0.14506 0.87987 0.61013 0.0
C2223 C 0.15534 0.87782 0.60449 0.0
C2224 C 0.15554 0.87084 0.59485 0.0
C2225 C 0.14546 0.86561 0.5908 0.0
C2226 C 0.13508 0.86815 0.5962 0.0
C2227 C 0.13489 0.87521 0.60576 0.0
C2228 C 0.15328 0.89978 0.62407 0.0
C2229 C 0.15721 0.90409 0.63448 0.0
C2230 C 0.16352 0.91417 0.63493 0.0
C2231 C 0.16599 0.92014 0.62495 0.0
C2232 C 0.16185 0.91589 0.61451 0.0
C2233 C 0.15544 0.90582 0.61409 0.0
C2234 C 0.13111 0.88893 0.62913 0.0
C2235 C 0.12519 0.87987 0.63404 0.0
C2236 C 0.11411 0.88136 0.63805 0.0
C2237 C 0.10876 0.89197 0.63724 0.0
C2238 C 0.11469 0.90104 0.63221 0.0
C2239 C 0.12576 0.89949 0.62808 0.0
P2240 P 0.40555 0.92734 0.87459 0.0
H2241 H 0.42259 0.9381 0.86001 0.0
H2242 H 0.43222 0.93173 0.84278 0.0
H2243 H 0.41155 0.90119 0.84249 0.0
H2244 H 0.40216 0.90753 0.85985 0.0
H2245 H 0.39122 0.94007 0.89001 0.0
H2246 H 0.37141 0.94642 0.88888 0.0
H2247 H 0.36918 0.93377 0.85442 0.0
H2248 H 0.38903 0.92761 0.85557 0.0
H2249 H 0.42213 0.91536 0.8886 0.0
H2250 H 0.3866 0.91171 0.87937 0.0
O2251 O 0.41404 0.93681 0.8811 0.0
H2252 H 0.42098 0.89788 0.89967 0.0
H2253 H 0.38528 0.8945 0.89062 0.0
C2254 C 0.41183 0.92318 0.86131 0.0
C2255 C 0.42011 0.93006 0.85621 0.0
C2256 C 0.42554 0.92644 0.8463 0.0
C2257 C 0.42273 0.91589 0.8413 0.0
C2258 C 0.41408 0.90925 0.84624 0.0
C2259 C 0.40868 0.91287 0.85614 0.0
C2260 C 0.39163 0.9335 0.87285 0.0
C2261 C 0.38653 0.93888 0.88214 0.0
C2262 C 0.37518 0.94241 0.88151 0.0
C2263 C 0.36871 0.94055 0.87157 0.0
C2264 C 0.37397 0.93545 0.86215 0.0
C2265 C 0.38533 0.93189 0.86281 0.0
C2266 C 0.40441 0.91496 0.88337 0.0
C2267 C 0.41404 0.91089 0.88911 0.0
C2268 C 0.41336 0.90092 0.89545 0.0
C2269 C 0.40303 0.89479 0.89606 0.0
C2270 C 0.3934 0.89892 0.89025 0.0
C2271 C 0.39411 0.90887 0.88391 0.0
P2272 P 0.38408 0.10294 0.08248 0.0
H2273 H 0.3718 0.08312 0.07341 0.0
H2274 H 0.35585 0.07194 0.08061 0.0
H2275 H 0.35224 0.09562 0.10854 0.0
H2276 H 0.36844 0.10662 0.10139 0.0
H2277 H 0.39898 0.11949 0.0721 0.0
H2278 H 0.39578 0.13817 0.06391 0.0
H2279 H 0.35955 0.1345 0.0699 0.0
H2280 H 0.3629 0.11591 0.07836 0.0
H2281 H 0.39908 0.08776 0.09494 0.0
H2282 H 0.38833 0.12264 0.09741 0.0
O2283 O 0.39109 0.09484 0.07321 0.0
H2284 H 0.41102 0.09034 0.11191 0.0
H2285 H 0.40023 0.12528 0.11432 0.0
C2286 C 0.37139 0.09559 0.08697 0.0
C2287 C 0.36752 0.08596 0.08103 0.0
C2288 C 0.35832 0.07962 0.08512 0.0
C2289 C 0.35279 0.08283 0.09521 0.0
C2290 C 0.35643 0.09279 0.10086 0.0
C2291 C 0.36564 0.09912 0.09676 0.0
C2292 C 0.3812 0.11633 0.07582 0.0
C2293 C 0.39034 0.12269 0.07157 0.0
C2294 C 0.38848 0.13335 0.06683 0.0
C2295 C 0.37739 0.13785 0.0662 0.0
C2296 C 0.36821 0.13135 0.07037 0.0
C2297 C 0.37011 0.12068 0.07515 0.0
C2298 C 0.39306 0.10507 0.09476 0.0
C2299 C 0.39937 0.09599 0.09908 0.0
C2300 C 0.40611 0.09745 0.10882 0.0
C2301 C 0.40663 0.10804 0.11439 0.0
C2302 C 0.40017 0.11708 0.11009 0.0
C2303 C 0.39337 0.11558 0.10041 0.0
P2304 P 0.12571 0.89436 0.15957 0.0
H2305 H 0.14189 0.90721 0.17357 0.0
H2306 H 0.15434 0.92336 0.16954 0.0
H2307 H 0.13849 0.9267 0.13652 0.0
H2308 H 0.12612 0.91044 0.14059 0.0
H2309 H 0.10632 0.87922 0.16223 0.0
H2310 H 0.08879 0.88048 0.17319 0.0
H2311 H 0.09798 0.91459 0.18361 0.0
H2312 H 0.11563 0.91321 0.17263 0.0
H2313 H 0.1407 0.87898 0.14739 0.0
H2314 H 0.10758 0.8939 0.14216 0.0
O2315 O 0.13362 0.88632 0.16814 0.0
H2316 H 0.13887 0.86875 0.12939 0.0
H2317 H 0.10551 0.88344 0.12423 0.0
C2318 C 0.1333 0.90747 0.15727 0.0
C2319 C 0.14099 0.91151 0.16552 0.0
C2320 C 0.14806 0.92081 0.16323 0.0
C2321 C 0.14751 0.92623 0.15264 0.0
C2322 C 0.13926 0.92257 0.14467 0.0
C2323 C 0.13217 0.91329 0.147 0.0
C2324 C 0.11214 0.8962 0.1664 0.0
C2325 C 0.10445 0.88706 0.16666 0.0
C2326 C 0.09441 0.88781 0.17294 0.0
C2327 C 0.09194 0.89767 0.17922 0.0
C2328 C 0.09966 0.90687 0.17889 0.0
C2329 C 0.1097 0.90612 0.17254 0.0
C2330 C 0.12414 0.88692 0.14625 0.0
C2331 C 0.13297 0.87995 0.14241 0.0
C2332 C 0.13189 0.87408 0.13213 0.0
C2333 C 0.12196 0.87514 0.12544 0.0
C2334 C 0.11327 0.88245 0.12916 0.0
C2335 C 0.11438 0.88834 0.13946 0.0
P2336 P 0.385 0.90888 0.4243 0.0
H2337 H 0.3635 0.91633 0.43403 0.0
H2338 H 0.34805 0.92828 0.42688 0.0
H2339 H 0.36569 0.93146 0.39492 0.0
H2340 H 0.38081 0.91929 0.40196 0.0
H2341 H 0.39387 0.89379 0.44165 0.0
H2342 H 0.38867 0.87456 0.44739 0.0
H2343 H 0.36069 0.87461 0.4233 0.0
H2344 H 0.36611 0.89377 0.41746 0.0
H2345 H 0.40353 0.92354 0.41668 0.0
H2346 H 0.39043 0.89011 0.40868 0.0
O2347 O 0.39045 0.91617 0.43527 0.0
H2348 H 0.41824 0.92128 0.40216 0.0
H2349 H 0.40507 0.88781 0.39421 0.0
C2350 C 0.37331 0.91693 0.41856 0.0
C2351 C 0.36395 0.91952 0.42544 0.0
C2352 C 0.35517 0.92641 0.42136 0.0
C2353 C 0.35563 0.93089 0.41033 0.0
C2354 C 0.36495 0.92805 0.40339 0.0
C2355 C 0.37369 0.92113 0.40747 0.0
C2356 C 0.38023 0.89527 0.42931 0.0
C2357 C 0.3865 0.88972 0.43775 0.0
C2358 C 0.3835 0.87873 0.44104 0.0
C2359 C 0.37423 0.87305 0.43584 0.0
C2360 C 0.36792 0.87871 0.42742 0.0
C2361 C 0.37093 0.88971 0.42415 0.0
C2362 C 0.39605 0.90691 0.41393 0.0
C2363 C 0.40389 0.91568 0.41187 0.0
C2364 C 0.41222 0.91442 0.40352 0.0
C2365 C 0.41285 0.90434 0.3971 0.0
C2366 C 0.40492 0.89559 0.39916 0.0
C2367 C 0.39653 0.89691 0.40743 0.0
P2368 P 0.40581 0.08026 0.63243 0.0
H2369 H 0.42402 0.06791 0.64407 0.0
H2370 H 0.43546 0.07219 0.66098 0.0
H2371 H 0.41661 0.10328 0.66584 0.0
H2372 H 0.40501 0.09875 0.64914 0.0
H2373 H 0.38657 0.07556 0.61753 0.0
H2374 H 0.36677 0.07002 0.62094 0.0
H2375 H 0.37375 0.06883 0.65698 0.0
H2376 H 0.3935 0.07458 0.6535 0.0
H2377 H 0.42001 0.08895 0.61401 0.0
H2378 H 0.39056 0.09981 0.63291 0.0
O2379 O 0.41229 0.07015 0.6249 0.0
H2380 H 0.41941 0.10651 0.60299 0.0
H2381 H 0.38991 0.11733 0.62198 0.0
C2382 C 0.41382 0.08313 0.64522 0.0
C2383 C 0.42233 0.07563 0.6488 0.0
C2384 C 0.4289 0.07811 0.65845 0.0
C2385 C 0.42704 0.08814 0.66472 0.0
C2386 C 0.41823 0.09544 0.66128 0.0
C2387 C 0.41166 0.09293 0.65164 0.0
C2388 C 0.39146 0.07557 0.63525 0.0
C2389 C 0.38384 0.07406 0.62616 0.0
C2390 C 0.37254 0.07082 0.62812 0.0
C2391 C 0.36867 0.06899 0.63924 0.0
C2392 C 0.37642 0.07033 0.64833 0.0
C2393 C 0.38774 0.07358 0.64634 0.0
C2394 C 0.40523 0.09302 0.62415 0.0
C2395 C 0.41338 0.09508 0.61573 0.0
C2396 C 0.41302 0.1051 0.60944 0.0
C2397 C 0.40461 0.11329 0.61162 0.0
C2398 C 0.39655 0.11123 0.62017 0.0
C2399 C 0.39687 0.10118 0.62637 0.0
P2400 P 0.14707 0.12228 0.88344 0.0
H2401 H 0.16192 0.13851 0.89518 0.0
H2402 H 0.15935 0.15015 0.91212 0.0
H2403 H 0.12726 0.1331 0.91859 0.0
H2404 H 0.12982 0.12163 0.90139 0.0
H2405 H 0.15066 0.10465 0.86664 0.0
H2406 H 0.16094 0.0867 0.86703 0.0
H2407 H 0.16795 0.09165 0.90279 0.0
H2408 H 0.15778 0.10973 0.90227 0.0
H2409 H 0.13371 0.13954 0.87221 0.0
H2410 H 0.12965 0.10421 0.8807 0.0
O2411 O 0.15555 0.13 0.87513 0.0
H2412 H 0.11502 0.13935 0.86296 0.0
H2413 H 0.11106 0.10381 0.87109 0.0
C2414 C 0.14593 0.12942 0.89691 0.0
C2415 C 0.15439 0.1372 0.90031 0.0
C2416 C 0.15295 0.14378 0.91008 0.0
C2417 C 0.14304 0.14265 0.91668 0.0
C2418 C 0.13489 0.13434 0.91359 0.0
C2419 C 0.13635 0.12775 0.90379 0.0
C2420 C 0.15335 0.10844 0.88443 0.0
C2421 C 0.15426 0.10177 0.8746 0.0
C2422 C 0.16011 0.09149 0.87485 0.0
C2423 C 0.16525 0.08772 0.88495 0.0
C2424 C 0.16417 0.09437 0.89486 0.0
C2425 C 0.15827 0.10466 0.89459 0.0
C2426 C 0.13319 0.12182 0.87683 0.0
C2427 C 0.12882 0.1317 0.87197 0.0
C2428 C 0.11815 0.13156 0.86664 0.0
C2429 C 0.11161 0.12151 0.8661 0.0
C2430 C 0.11586 0.1117 0.87136 0.0
C2431 C 0.12655 0.11187 0.87675 0.0
P2432 P 0.88389 0.40944 0.92458 0.0
H2433 H 0.86406 0.41903 0.93583 0.0
H2434 H 0.84845 0.43109 0.92924 0.0
H2435 H 0.86229 0.43006 0.89531 0.0
H2436 H 0.87754 0.41776 0.90186 0.0
H2437 H 0.89571 0.39273 0.93814 0.0
H2438 H 0.89088 0.37347 0.94398 0.0
H2439 H 0.85773 0.37666 0.92796 0.0
H2440 H 0.86285 0.39577 0.92179 0.0
H2441 H 0.9026 0.42384 0.91681 0.0
H2442 H 0.88803 0.39122 0.90804 0.0
O2443 O 0.88984 0.41661 0.93537 0.0
H2444 H 0.91667 0.42169 0.90171 0.0
H2445 H 0.90227 0.3888 0.89321 0.0
C2446 C 0.87201 0.41758 0.91938 0.0
C2447 C 0.86364 0.42134 0.92695 0.0
C2448 C 0.85477 0.42829 0.92318 0.0
C2449 C 0.85414 0.43163 0.91175 0.0
C2450 C 0.86241 0.42756 0.90414 0.0
C2451 C 0.87123 0.42058 0.90791 0.0
C2452 C 0.87958 0.39573 0.9297 0.0
C2453 C 0.88735 0.38931 0.93601 0.0
C2454 C 0.88454 0.37831 0.93939 0.0
C2455 C 0.87388 0.3735 0.93651 0.0
C2456 C 0.86606 0.38004 0.93024 0.0
C2457 C 0.86892 0.39103 0.9268 0.0
C2458 C 0.89446 0.40758 0.91371 0.0
C2459 C 0.90254 0.41614 0.91173 0.0
C2460 C 0.9106 0.41488 0.90312 0.0
C2461 C 0.91067 0.40503 0.89628 0.0
C2462 C 0.90242 0.39654 0.89823 0.0
C2463 C 0.89434 0.39785 0.90681 0.0
P2464 P 0.90636 0.58158 0.13188 0.0
H2465 H 0.92541 0.57146 0.14443 0.0
H2466 H 0.93603 0.57757 0.16135 0.0
H2467 H 0.91392 0.60665 0.16462 0.0
H2468 H 0.90346 0.60055 0.14762 0.0
H2469 H 0.8878 0.5745 0.11697 0.0
H2470 H 0.86811 0.56859 0.12044 0.0
H2471 H 0.87447 0.57021 0.1566 0.0
H2472 H 0.89405 0.57636 0.15305 0.0
H2473 H 0.92188 0.59219 0.11574 0.0
H2474 H 0.88845 0.59866 0.12939 0.0
O2475 O 0.91377 0.57172 0.12491 0.0
H2476 H 0.9208 0.60973 0.10476 0.0
H2477 H 0.88712 0.61592 0.11822 0.0
C2478 C 0.91379 0.58567 0.14468 0.0
C2479 C 0.92285 0.57914 0.1488 0.0
C2480 C 0.92886 0.5826 0.15853 0.0
C2481 C 0.92587 0.59264 0.16429 0.0
C2482 C 0.91657 0.59898 0.16026 0.0
C2483 C 0.91057 0.5955 0.15056 0.0
C2484 C 0.89233 0.57599 0.13473 0.0
C2485 C 0.88496 0.57348 0.12564 0.0
C2486 C 0.87373 0.57004 0.12764 0.0
C2487 C 0.86968 0.56899 0.13881 0.0
C2488 C 0.87725 0.57113 0.1479 0.0
C2489 C 0.88849 0.57461 0.14588 0.0
C2490 C 0.90515 0.594 0.12316 0.0
C2491 C 0.91423 0.59729 0.11621 0.0
C2492 C 0.91358 0.6073 0.10993 0.0
C2493 C 0.90386 0.61423 0.11058 0.0
C2494 C 0.89479 0.61087 0.1176 0.0
C2495 C 0.89548 0.6009 0.1239 0.0
P2496 P 0.64495 0.62168 0.38364 0.0
H2497 H 0.65853 0.63937 0.39486 0.0
H2498 H 0.65483 0.65155 0.41124 0.0
H2499 H 0.62408 0.63239 0.41817 0.0
H2500 H 0.62778 0.62033 0.40162 0.0
H2501 H 0.64987 0.60395 0.36733 0.0
H2502 H 0.66098 0.58653 0.3683 0.0
H2503 H 0.66776 0.59296 0.40388 0.0
H2504 H 0.6567 0.61051 0.40278 0.0
H2505 H 0.62985 0.6372 0.37195 0.0
H2506 H 0.62921 0.60207 0.38199 0.0
O2507 O 0.65261 0.62981 0.37495 0.0
H2508 H 0.61089 0.63501 0.3634 0.0
H2509 H 0.61023 0.59979 0.3734 0.0
C2510 C 0.64328 0.62915 0.39688 0.0
C2511 C 0.65107 0.6377 0.39999 0.0
C2512 C 0.64899 0.64461 0.40943 0.0
C2513 C 0.63908 0.64304 0.41594 0.0
C2514 C 0.63168 0.63396 0.4132 0.0
C2515 C 0.6338 0.62703 0.40377 0.0
C2516 C 0.65235 0.60843 0.38499 0.0
C2517 C 0.65363 0.60153 0.37537 0.0
C2518 C 0.65995 0.59155 0.37596 0.0
C2519 C 0.66521 0.58832 0.38619 0.0
C2520 C 0.66387 0.59525 0.39586 0.0
C2521 C 0.65749 0.60525 0.39526 0.0
C2522 C 0.63105 0.61973 0.37732 0.0
C2523 C 0.62564 0.62899 0.37225 0.0
C2524 C 0.61477 0.62775 0.36746 0.0
C2525 C 0.60909 0.61721 0.36769 0.0
C2526 C 0.61447 0.60797 0.37295 0.0
C2527 C 0.62533 0.60926 0.37784 0.0
P2528 P 0.90647 0.42907 0.37257 0.0
H2529 H 0.92212 0.44013 0.35676 0.0
H2530 H 0.93205 0.43332 0.33986 0.0
H2531 H 0.91477 0.40094 0.34275 0.0
H2532 H 0.90514 0.40772 0.35979 0.0
H2533 H 0.89419 0.44922 0.38036 0.0
H2534 H 0.87455 0.45557 0.37761 0.0
H2535 H 0.86785 0.42631 0.35619 0.0
H2536 H 0.88754 0.42019 0.35878 0.0
H2537 H 0.92373 0.41317 0.38023 0.0
H2538 H 0.88803 0.41929 0.3865 0.0
O2539 O 0.91445 0.43935 0.37843 0.0
H2540 H 0.92305 0.39659 0.3926 0.0
H2541 H 0.88723 0.40265 0.39864 0.0
C2542 C 0.91308 0.42436 0.35963 0.0
C2543 C 0.92047 0.43158 0.35373 0.0
C2544 C 0.92606 0.42769 0.34401 0.0
C2545 C 0.92428 0.41653 0.34 0.0
C2546 C 0.91651 0.40949 0.34573 0.0
C2547 C 0.91096 0.41338 0.35545 0.0
C2548 C 0.89238 0.43434 0.36961 0.0
C2549 C 0.88855 0.44428 0.37492 0.0
C2550 C 0.87727 0.44784 0.37342 0.0
C2551 C 0.86961 0.44146 0.36667 0.0
C2552 C 0.87356 0.43155 0.36127 0.0
C2553 C 0.88483 0.42802 0.36276 0.0
C2554 C 0.90591 0.41736 0.3823 0.0
C2555 C 0.91575 0.41094 0.38427 0.0
C2556 C 0.91533 0.40144 0.39129 0.0
C2557 C 0.90506 0.39824 0.39654 0.0
C2558 C 0.89529 0.40492 0.3948 0.0
C2559 C 0.89572 0.41441 0.38776 0.0
P2560 P 0.60215 0.58056 0.87096 0.0
H2561 H 0.58859 0.56688 0.85518 0.0
H2562 H 0.57627 0.57174 0.83914 0.0
H2563 H 0.5858 0.60707 0.84321 0.0
H2564 H 0.59845 0.60204 0.85888 0.0
H2565 H 0.61462 0.56104 0.87965 0.0
H2566 H 0.63356 0.55351 0.87571 0.0
H2567 H 0.63858 0.57933 0.85031 0.0
H2568 H 0.61954 0.58686 0.85436 0.0
H2569 H 0.58597 0.59584 0.88158 0.0
H2570 H 0.62259 0.59241 0.88009 0.0
O2571 O 0.59455 0.57107 0.87822 0.0
H2572 H 0.58822 0.61301 0.89319 0.0
H2573 H 0.6249 0.60937 0.89184 0.0
C2574 C 0.59416 0.58413 0.8584 0.0
C2575 C 0.58809 0.57565 0.85252 0.0
C2576 C 0.58101 0.57846 0.84339 0.0
C2577 C 0.57986 0.58984 0.83999 0.0
C2578 C 0.58648 0.59822 0.84555 0.0
C2579 C 0.59363 0.59538 0.85462 0.0
C2580 C 0.61563 0.57439 0.86717 0.0
C2581 C 0.61971 0.56497 0.8731 0.0
C2582 C 0.63054 0.56066 0.87082 0.0
C2583 C 0.63755 0.56579 0.86266 0.0
C2584 C 0.63339 0.57522 0.85668 0.0
C2585 C 0.6225 0.57948 0.85891 0.0
C2586 C 0.60408 0.59289 0.87989 0.0
C2587 C 0.59449 0.59874 0.88382 0.0
C2588 C 0.59579 0.60852 0.89051 0.0
C2589 C 0.60675 0.61259 0.89342 0.0
C2590 C 0.61635 0.60657 0.8896 0.0
C2591 C 0.61502 0.59682 0.8829 0.0
P2592 P 0.90741 0.64179 0.87097 0.0
H2593 H 0.93183 0.64099 0.86652 0.0
H2594 H 0.9431 0.64458 0.84956 0.0
H2595 H 0.9127 0.6558 0.83204 0.0
H2596 H 0.90144 0.65199 0.84904 0.0
H2597 H 0.89193 0.64419 0.88992 0.0
H2598 H 0.89018 0.6583 0.905 0.0
H2599 H 0.91725 0.67809 0.88993 0.0
H2600 H 0.91897 0.66384 0.8748 0.0
H2601 H 0.90008 0.6191 0.86401 0.0
H2602 H 0.885 0.65226 0.86714 0.0
O2603 O 0.91431 0.63145 0.8777 0.0
H2604 H 0.88144 0.61101 0.85903 0.0
H2605 H 0.86629 0.64424 0.86212 0.0
C2606 C 0.91577 0.64596 0.85893 0.0
C2607 C 0.9276 0.6443 0.85905 0.0
C2608 C 0.93405 0.64645 0.84936 0.0
C2609 C 0.92878 0.65037 0.83939 0.0
C2610 C 0.91698 0.65259 0.83951 0.0
C2611 C 0.91054 0.65045 0.84923 0.0
C2612 C 0.9054 0.65308 0.88111 0.0
C2613 C 0.89732 0.65169 0.8897 0.0
C2614 C 0.89631 0.65979 0.89832 0.0
C2615 C 0.90351 0.66938 0.89862 0.0
C2616 C 0.91159 0.67079 0.88993 0.0
C2617 C 0.91253 0.66269 0.88124 0.0
C2618 C 0.89383 0.6362 0.86627 0.0
C2619 C 0.89275 0.62465 0.86357 0.0
C2620 C 0.8821 0.62005 0.86063 0.0
C2621 C 0.87236 0.62697 0.86029 0.0
C2622 C 0.8736 0.63867 0.8625 0.0
C2623 C 0.88428 0.64326 0.86537 0.0
P2624 P 0.09592 0.14535 0.63196 0.0
H2625 H 0.07113 0.14714 0.63309 0.0
H2626 H 0.05826 0.15167 0.6487 0.0
H2627 H 0.08735 0.16053 0.66982 0.0
H2628 H 0.10008 0.15642 0.65401 0.0
H2629 H 0.10496 0.14246 0.60939 0.0
H2630 H 0.11054 0.15573 0.59459 0.0
H2631 H 0.10061 0.18386 0.61595 0.0
H2632 H 0.09525 0.17046 0.63098 0.0
H2633 H 0.09868 0.1313 0.65199 0.0
H2634 H 0.12051 0.1455 0.62629 0.0
O2635 O 0.08899 0.1347 0.62547 0.0
H2636 H 0.11489 0.12115 0.65996 0.0
H2637 H 0.13651 0.13481 0.63366 0.0
C2638 C 0.08654 0.15111 0.64255 0.0
C2639 C 0.0747 0.15027 0.64102 0.0
C2640 C 0.06736 0.1528 0.64998 0.0
C2641 C 0.07177 0.15619 0.66062 0.0
C2642 C 0.08363 0.15794 0.66177 0.0
C2643 C 0.09095 0.1555 0.65276 0.0
C2644 C 0.09967 0.15548 0.62124 0.0
C2645 C 0.104 0.15148 0.61092 0.0
C2646 C 0.10725 0.15906 0.6025 0.0
C2647 C 0.10607 0.1708 0.60418 0.0
C2648 C 0.1016 0.17484 0.61448 0.0
C2649 C 0.09853 0.1672 0.62304 0.0
C2650 C 0.10835 0.13924 0.63859 0.0
C2651 C 0.10699 0.13233 0.64812 0.0
C2652 C 0.11626 0.12641 0.65259 0.0
C2653 C 0.12705 0.12702 0.6474 0.0
C2654 C 0.12842 0.13422 0.63802 0.0
C2655 C 0.11917 0.14029 0.63368 0.0
P2656 P 0.5913 0.36032 0.37703 0.0
H2657 H 0.56887 0.36656 0.3682 0.0
H2658 H 0.55966 0.36361 0.34984 0.0
H2659 H 0.58795 0.3428 0.33913 0.0
H2660 H 0.59722 0.34592 0.35761 0.0
H2661 H 0.60897 0.35818 0.39419 0.0
H2662 H 0.61411 0.34306 0.40716 0.0
H2663 H 0.58851 0.32125 0.39169 0.0
H2664 H 0.5833 0.33661 0.37872 0.0
H2665 H 0.59477 0.38483 0.37563 0.0
H2666 H 0.61425 0.35455 0.36918 0.0
O2667 O 0.58282 0.36807 0.38532 0.0
H2668 H 0.61131 0.39652 0.37083 0.0
H2669 H 0.63084 0.36619 0.36417 0.0
C2670 C 0.58371 0.35642 0.36427 0.0
C2671 C 0.57301 0.36118 0.362 0.0
C2672 C 0.56771 0.35944 0.35149 0.0
C2673 C 0.57307 0.35298 0.34299 0.0
C2674 C 0.58365 0.34791 0.34545 0.0
C2675 C 0.58892 0.34963 0.35601 0.0
C2676 C 0.59596 0.34842 0.3853 0.0
C2677 C 0.60464 0.35006 0.39339 0.0
C2678 C 0.6076 0.34137 0.4008 0.0
C2679 C 0.6018 0.33089 0.4004 0.0
C2680 C 0.59313 0.32923 0.39222 0.0
C2681 C 0.59021 0.33797 0.38474 0.0
C2682 C 0.60339 0.36885 0.37301 0.0
C2683 C 0.60262 0.3807 0.37316 0.0
C2684 C 0.61206 0.38737 0.3703 0.0
C2685 C 0.62242 0.38228 0.36717 0.0
C2686 C 0.62304 0.37037 0.36672 0.0
C2687 C 0.61357 0.36371 0.36954 0.0
P2688 P 0.40713 0.86962 0.13357 0.0
H2689 H 0.42983 0.87513 0.1426 0.0
H2690 H 0.43866 0.87232 0.16113 0.0
H2691 H 0.40907 0.85316 0.17181 0.0
H2692 H 0.40021 0.85612 0.15319 0.0
H2693 H 0.39069 0.86558 0.11539 0.0
H2694 H 0.38883 0.85077 0.101 0.0
H2695 H 0.41714 0.83287 0.11611 0.0
H2696 H 0.41894 0.84784 0.13061 0.0
H2697 H 0.40085 0.89337 0.13654 0.0
H2698 H 0.38432 0.86067 0.13875 0.0
O2699 O 0.41517 0.87888 0.12647 0.0
H2700 H 0.38277 0.90271 0.14059 0.0
H2701 H 0.36617 0.86995 0.14301 0.0
C2702 C 0.4143 0.86595 0.14657 0.0
C2703 C 0.42529 0.8702 0.14886 0.0
C2704 C 0.43037 0.86852 0.15946 0.0
C2705 C 0.42454 0.86258 0.16799 0.0
C2706 C 0.41371 0.85791 0.16548 0.0
C2707 C 0.40866 0.85956 0.15483 0.0
C2708 C 0.40474 0.85766 0.12426 0.0
C2709 C 0.39629 0.85831 0.11584 0.0
C2710 C 0.39523 0.84981 0.10759 0.0
C2711 C 0.40278 0.84058 0.10746 0.0
C2712 C 0.41119 0.83988 0.116 0.0
C2713 C 0.41218 0.84837 0.12433 0.0
C2714 C 0.39385 0.87636 0.13708 0.0
C2715 C 0.39332 0.8882 0.13792 0.0
C2716 C 0.38299 0.89353 0.14035 0.0
C2717 C 0.373 0.88708 0.14206 0.0
C2718 C 0.37366 0.87516 0.14155 0.0
C2719 C 0.38403 0.86985 0.13915 0.0
P2720 P 0.90648 0.36907 0.63612 0.0
H2721 H 0.93071 0.36591 0.64066 0.0
H2722 H 0.94155 0.36292 0.65817 0.0
H2723 H 0.90993 0.36045 0.67678 0.0
H2724 H 0.89921 0.36306 0.65921 0.0
H2725 H 0.89125 0.36686 0.61676 0.0
H2726 H 0.88924 0.35272 0.60172 0.0
H2727 H 0.91559 0.33255 0.61742 0.0
H2728 H 0.91749 0.34679 0.63262 0.0
H2729 H 0.89986 0.39219 0.642 0.0
H2730 H 0.88353 0.35939 0.63911 0.0
O2731 O 0.91419 0.37904 0.62964 0.0
H2732 H 0.8814 0.40094 0.64586 0.0
H2733 H 0.86498 0.36809 0.64293 0.0
C2734 C 0.91418 0.36492 0.64867 0.0
C2735 C 0.92613 0.36455 0.64849 0.0
C2736 C 0.93231 0.36291 0.65853 0.0
C2737 C 0.92663 0.36164 0.66893 0.0
C2738 C 0.91461 0.36135 0.66894 0.0
C2739 C 0.90844 0.36293 0.65888 0.0
C2740 C 0.90431 0.35775 0.62597 0.0
C2741 C 0.8964 0.35926 0.61715 0.0
C2742 C 0.89525 0.35115 0.60855 0.0
C2743 C 0.90217 0.34146 0.60844 0.0
C2744 C 0.91012 0.33994 0.6173 0.0
C2745 C 0.91117 0.34804 0.62602 0.0
C2746 C 0.89299 0.37522 0.63992 0.0
C2747 C 0.8923 0.38687 0.64223 0.0
C2748 C 0.88175 0.39184 0.64453 0.0
C2749 C 0.87172 0.38521 0.64457 0.0
C2750 C 0.87254 0.37344 0.64275 0.0
C2751 C 0.88312 0.36847 0.64056 0.0
P2752 P 0.40813 0.14079 0.3719 0.0
H2753 H 0.43258 0.14002 0.36756 0.0
H2754 H 0.44389 0.14334 0.35057 0.0
H2755 H 0.41352 0.15425 0.33279 0.0
H2756 H 0.40223 0.15072 0.34982 0.0
H2757 H 0.39208 0.14358 0.39033 0.0
H2758 H 0.39023 0.15773 0.40535 0.0
H2759 H 0.41806 0.177 0.39096 0.0
H2760 H 0.41988 0.16269 0.37588 0.0
H2761 H 0.40105 0.11782 0.36566 0.0
H2762 H 0.38575 0.15099 0.36728 0.0
O2763 O 0.41511 0.13065 0.37885 0.0
H2764 H 0.3826 0.10949 0.36044 0.0
H2765 H 0.36722 0.14272 0.36196 0.0
C2766 C 0.41654 0.14486 0.35985 0.0
C2767 C 0.42838 0.14322 0.36003 0.0
C2768 C 0.43485 0.14521 0.35032 0.0
C2769 C 0.42959 0.14894 0.34027 0.0
C2770 C 0.41779 0.15117 0.34033 0.0
C2771 C 0.41133 0.14918 0.35007 0.0
C2772 C 0.40594 0.15221 0.38184 0.0
C2773 C 0.3976 0.15099 0.39023 0.0
C2774 C 0.39654 0.15912 0.39881 0.0
C2775 C 0.40394 0.16855 0.39931 0.0
C2776 C 0.41224 0.16982 0.39081 0.0
C2777 C 0.41324 0.16169 0.38215 0.0
C2778 C 0.39467 0.13496 0.36716 0.0
C2779 C 0.39371 0.12332 0.36484 0.0
C2780 C 0.38317 0.11858 0.36175 0.0
C2781 C 0.37341 0.12543 0.36087 0.0
C2782 C 0.37453 0.1372 0.36276 0.0
C2783 C 0.38511 0.14193 0.3658 0.0
P2784 P 0.59822 0.64668 0.13171 0.0
H2785 H 0.57335 0.64682 0.13275 0.0
H2786 H 0.56016 0.64996 0.14841 0.0
H2787 H 0.5885 0.66016 0.16994 0.0
H2788 H 0.60154 0.65744 0.15407 0.0
H2789 H 0.60873 0.64533 0.10961 0.0
H2790 H 0.61238 0.65927 0.09483 0.0
H2791 H 0.59782 0.68551 0.11591 0.0
H2792 H 0.59445 0.6715 0.13091 0.0
H2793 H 0.60129 0.63253 0.15159 0.0
H2794 H 0.62287 0.6476 0.12619 0.0
O2795 O 0.59192 0.63594 0.12477 0.0
H2796 H 0.61765 0.62264 0.15947 0.0
H2797 H 0.63907 0.63706 0.13341 0.0
C2798 C 0.58843 0.65153 0.14239 0.0
C2799 C 0.57668 0.64994 0.14078 0.0
C2800 C 0.56916 0.65168 0.14977 0.0
C2801 C 0.57329 0.65502 0.16053 0.0
C2802 C 0.58499 0.65757 0.16179 0.0
C2803 C 0.59249 0.65593 0.15274 0.0
C2804 C 0.60139 0.65739 0.12137 0.0
C2805 C 0.60648 0.65412 0.11114 0.0
C2806 C 0.60859 0.66209 0.10272 0.0
C2807 C 0.60544 0.67347 0.10427 0.0
C2808 C 0.60033 0.67678 0.11454 0.0
C2809 C 0.59842 0.66879 0.12309 0.0
C2810 C 0.61081 0.6409 0.13834 0.0
C2811 C 0.60958 0.63382 0.14777 0.0
C2812 C 0.61895 0.62802 0.15218 0.0
C2813 C 0.62972 0.62887 0.147 0.0
C2814 C 0.63099 0.63626 0.13774 0.0
C2815 C 0.62163 0.64224 0.13349 0.0
P2816 P 0.09376 0.8585 0.87389 0.0
H2817 H 0.06959 0.85379 0.86995 0.0
H2818 H 0.05835 0.85106 0.85258 0.0
H2819 H 0.08945 0.8513 0.83297 0.0
H2820 H 0.10058 0.85367 0.85038 0.0
H2821 H 0.1086 0.85781 0.89351 0.0
H2822 H 0.11334 0.84306 0.90707 0.0
H2823 H 0.09225 0.81917 0.88828 0.0
H2824 H 0.08745 0.83414 0.8747 0.0
H2825 H 0.09697 0.88225 0.86802 0.0
H2826 H 0.11771 0.85221 0.8701 0.0
O2827 O 0.08545 0.86709 0.88151 0.0
H2828 H 0.11378 0.89344 0.86289 0.0
H2829 H 0.1346 0.86335 0.86494 0.0
C2830 C 0.08587 0.8542 0.86142 0.0
C2831 C 0.07398 0.85305 0.86192 0.0
C2832 C 0.06757 0.85156 0.85197 0.0
C2833 C 0.07297 0.85118 0.84134 0.0
C2834 C 0.08499 0.85153 0.84099 0.0
C2835 C 0.09138 0.85297 0.85096 0.0
C2836 C 0.09783 0.84702 0.88301 0.0
C2837 C 0.10514 0.84935 0.89219 0.0
C2838 C 0.10788 0.84088 0.89992 0.0
C2839 C 0.10326 0.82989 0.8987 0.0
C2840 C 0.09593 0.82756 0.88946 0.0
C2841 C 0.09322 0.83608 0.88166 0.0
C2842 C 0.10618 0.8665 0.86976 0.0
C2843 C 0.10516 0.87808 0.86738 0.0
C2844 C 0.11475 0.88443 0.86434 0.0
C2845 C 0.12553 0.87929 0.86358 0.0
C2846 C 0.12645 0.86759 0.86564 0.0
C2847 C 0.11681 0.86122 0.8686 0.0
P2848 P 0.83435 0.87898 0.67958 0.0
H2849 H 0.84292 0.88353 0.70249 0.0
H2850 H 0.86218 0.8859 0.7103 0.0
H2851 H 0.87614 0.88257 0.67658 0.0
H2852 H 0.85685 0.88035 0.66883 0.0
H2853 H 0.811 0.88726 0.68092 0.0
H2854 H 0.8018 0.9046 0.67438 0.0
H2855 H 0.834 0.91648 0.66112 0.0
H2856 H 0.8432 0.89908 0.66775 0.0
H2857 H 0.83484 0.85432 0.67951 0.0
H2858 H 0.83603 0.88105 0.65472 0.0
O2859 O 0.8264 0.87345 0.6899 0.0
H2860 H 0.83684 0.84017 0.66443 0.0
H2861 H 0.83835 0.86699 0.63962 0.0
C2862 C 0.84848 0.88154 0.68512 0.0
C2863 C 0.85013 0.88334 0.69678 0.0
C2864 C 0.86114 0.88465 0.70124 0.0
C2865 C 0.8707 0.88431 0.69408 0.0
C2866 C 0.86897 0.88294 0.68232 0.0
C2867 C 0.85794 0.88158 0.67789 0.0
C2868 C 0.82781 0.89197 0.67498 0.0
C2869 C 0.81612 0.89364 0.67671 0.0
C2870 C 0.81087 0.90356 0.673 0.0
C2871 C 0.8172 0.91193 0.66732 0.0
C2872 C 0.82891 0.91017 0.66546 0.0
C2873 C 0.83418 0.90027 0.6693 0.0
C2874 C 0.83506 0.86872 0.66822 0.0
C2875 C 0.83544 0.85714 0.6708 0.0
C2876 C 0.83671 0.84906 0.66217 0.0
C2877 C 0.83776 0.85243 0.65079 0.0
C2878 C 0.83737 0.86408 0.64826 0.0
C2879 C 0.83607 0.87215 0.65691 0.0
P2880 P 0.87075 0.13791 0.39377 0.0
H2881 H 0.86436 0.14087 0.41734 0.0
H2882 H 0.86213 0.15763 0.42941 0.0
H2883 H 0.86794 0.17915 0.40041 0.0
H2884 H 0.86979 0.16232 0.38834 0.0
H2885 H 0.86839 0.11756 0.3801 0.0
H2886 H 0.85312 0.10359 0.3778 0.0
H2887 H 0.83122 0.12409 0.39894 0.0
H2888 H 0.84662 0.13807 0.40123 0.0
H2889 H 0.89447 0.14347 0.38918 0.0
H2890 H 0.86301 0.14083 0.37013 0.0
O2891 O 0.87975 0.13023 0.40155 0.0
H2892 H 0.90493 0.14699 0.37169 0.0
H2893 H 0.87347 0.14403 0.35249 0.0
C2894 C 0.86737 0.15035 0.402 0.0
C2895 C 0.86498 0.1492 0.41357 0.0
C2896 C 0.86379 0.1588 0.42046 0.0
C2897 C 0.86504 0.16975 0.41592 0.0
C2898 C 0.86687 0.17085 0.40418 0.0
C2899 C 0.868 0.16122 0.39727 0.0
C2900 C 0.85864 0.12888 0.39077 0.0
C2901 C 0.86022 0.11918 0.38404 0.0
C2902 C 0.85145 0.11121 0.3827 0.0
C2903 C 0.84093 0.11273 0.38818 0.0
C2904 C 0.83925 0.12265 0.39468 0.0
C2905 C 0.84805 0.13067 0.39596 0.0
C2906 C 0.87804 0.14156 0.38089 0.0
C2907 C 0.88982 0.14363 0.38121 0.0
C2908 C 0.89579 0.1456 0.37119 0.0
C2909 C 0.89007 0.14557 0.36066 0.0
C2910 C 0.87814 0.1441 0.36045 0.0
C2911 C 0.87216 0.14217 0.37051 0.0
P2912 P 0.66683 0.13357 0.18286 0.0
H2913 H 0.6523 0.14003 0.2018 0.0
H2914 H 0.63248 0.13551 0.20636 0.0
H2915 H 0.63113 0.11187 0.17815 0.0
H2916 H 0.6509 0.11663 0.17353 0.0
H2917 H 0.68355 0.13381 0.16458 0.0
H2918 H 0.6955 0.11918 0.15619 0.0
H2919 H 0.68162 0.09454 0.17943 0.0
H2920 H 0.66962 0.10934 0.18786 0.0
H2921 H 0.66898 0.15844 0.18334 0.0
H2922 H 0.65789 0.1324 0.1598 0.0
O2923 O 0.67402 0.13912 0.19386 0.0
H2924 H 0.6643 0.17301 0.16939 0.0
H2925 H 0.65339 0.14684 0.14574 0.0
C2926 C 0.65313 0.12849 0.18748 0.0
C2927 C 0.64782 0.13366 0.19677 0.0
C2928 C 0.63648 0.13106 0.19937 0.0
C2929 C 0.63021 0.12333 0.19262 0.0
C2930 C 0.63569 0.11794 0.18347 0.0
C2931 C 0.64703 0.12056 0.18088 0.0
C2932 C 0.67541 0.12257 0.1766 0.0
C2933 C 0.68291 0.12523 0.16778 0.0
C2934 C 0.68975 0.11685 0.16297 0.0
C2935 C 0.68937 0.10566 0.16702 0.0
C2936 C 0.68207 0.10308 0.1761 0.0
C2937 C 0.67516 0.11149 0.18087 0.0
C2938 C 0.66389 0.14435 0.17254 0.0
C2939 C 0.66564 0.15585 0.17513 0.0
C2940 C 0.66299 0.16417 0.16713 0.0
C2941 C 0.65847 0.1611 0.15644 0.0
C2942 C 0.65671 0.14953 0.15394 0.0
C2943 C 0.65935 0.14124 0.16193 0.0
P2944 P 0.66651 0.84733 0.86612 0.0
H2945 H 0.6902 0.85526 0.86735 0.0
H2946 H 0.69882 0.87364 0.8722 0.0
H2947 H 0.66527 0.8872 0.8788 0.0
H2948 H 0.65676 0.86878 0.87408 0.0
H2949 H 0.67107 0.8236 0.87154 0.0
H2950 H 0.66696 0.81202 0.88812 0.0
H2951 H 0.65205 0.84116 0.90477 0.0
H2952 H 0.65592 0.85259 0.88799 0.0
H2953 H 0.65998 0.86401 0.84914 0.0
H2954 H 0.64446 0.83523 0.86559 0.0
O2955 O 0.67546 0.84045 0.85757 0.0
H2956 H 0.64237 0.86714 0.8384 0.0
H2957 H 0.62681 0.83833 0.8549 0.0
C2958 C 0.67284 0.86073 0.87016 0.0
C2959 C 0.68472 0.86219 0.86985 0.0
C2960 C 0.68962 0.87271 0.87259 0.0
C2961 C 0.68272 0.88191 0.87581 0.0
C2962 C 0.67084 0.88027 0.87645 0.0
C2963 C 0.66595 0.86977 0.87367 0.0
C2964 C 0.66399 0.83901 0.87862 0.0
C2965 C 0.66701 0.82753 0.87879 0.0
C2966 C 0.66469 0.82092 0.88832 0.0
C2967 C 0.65925 0.82568 0.89783 0.0
C2968 C 0.65618 0.8372 0.89757 0.0
C2969 C 0.65849 0.84379 0.88802 0.0
C2970 C 0.65342 0.84959 0.85839 0.0
C2971 C 0.65274 0.85844 0.85053 0.0
C2972 C 0.64267 0.86022 0.84441 0.0
C2973 C 0.63317 0.85304 0.84588 0.0
C2974 C 0.63399 0.84399 0.85356 0.0
C2975 C 0.64405 0.84227 0.85975 0.0
P2976 P 0.86067 0.10129 0.86086 0.0
H2977 H 0.85211 0.0785 0.86577 0.0
H2978 H 0.83321 0.0699 0.86405 0.0
H2979 H 0.82093 0.09999 0.84722 0.0
H2980 H 0.83995 0.10861 0.84909 0.0
H2981 H 0.87877 0.11782 0.85787 0.0
H2982 H 0.89086 0.12272 0.8419 0.0
H2983 H 0.87259 0.09848 0.82079 0.0
H2984 H 0.86045 0.09356 0.83698 0.0
H2985 H 0.85941 0.10456 0.88539 0.0
H2986 H 0.85437 0.12468 0.85535 0.0
O2987 O 0.86905 0.09261 0.86827 0.0
H2988 H 0.85562 0.12118 0.89727 0.0
H2989 H 0.85048 0.14136 0.86719 0.0
C2990 C 0.8474 0.09422 0.85761 0.0
C2991 C 0.84542 0.08318 0.86152 0.0
C2992 C 0.8346 0.07824 0.86048 0.0
C2993 C 0.82554 0.08428 0.85555 0.0
C2994 C 0.8277 0.09517 0.85118 0.0
C2995 C 0.83857 0.10008 0.85219 0.0
C2996 C 0.86853 0.10556 0.84853 0.0
C2997 C 0.87718 0.11373 0.84975 0.0
C2998 C 0.88408 0.11655 0.84058 0.0
C2999 C 0.8826 0.11109 0.83002 0.0
C3000 C 0.87392 0.10285 0.82882 0.0
C3001 C 0.86694 0.10008 0.83803 0.0
C3002 C 0.85747 0.11348 0.86952 0.0
C3003 C 0.85748 0.11257 0.88135 0.0
C3004 C 0.85521 0.12205 0.88813 0.0
C3005 C 0.85283 0.13261 0.88316 0.0
C3006 C 0.85248 0.13339 0.87126 0.0
C3007 C 0.85469 0.12387 0.8645 0.0
P3008 P 0.67089 0.15937 0.64191 0.0
H3009 H 0.69358 0.14918 0.64047 0.0
H3010 H 0.70005 0.13027 0.6348 0.0
H3011 H 0.66523 0.12072 0.62674 0.0
H3012 H 0.65888 0.13964 0.63226 0.0
H3013 H 0.66743 0.18365 0.6418 0.0
H3014 H 0.66104 0.19684 0.62722 0.0
H3015 H 0.66031 0.16944 0.60265 0.0
H3016 H 0.66689 0.15633 0.61726 0.0
H3017 H 0.66697 0.15544 0.66608 0.0
H3018 H 0.64669 0.15857 0.6356 0.0
O3019 O 0.68092 0.16523 0.65023 0.0
H3020 H 0.64957 0.15232 0.67711 0.0
H3021 H 0.62933 0.15558 0.64654 0.0
C3022 C 0.67573 0.14575 0.63695 0.0
C3023 C 0.68736 0.14303 0.63744 0.0
C3024 C 0.69104 0.1322 0.63424 0.0
C3025 C 0.68315 0.12396 0.6304 0.0
C3026 C 0.67154 0.12688 0.62958 0.0
C3027 C 0.66788 0.13768 0.63282 0.0
C3028 C 0.66778 0.16906 0.63059 0.0
C3029 C 0.66609 0.18053 0.63322 0.0
C3030 C 0.66232 0.18803 0.62491 0.0
C3031 C 0.66009 0.18417 0.61379 0.0
C3032 C 0.66205 0.1727 0.6111 0.0
C3033 C 0.66581 0.16518 0.61946 0.0
C3034 C 0.6581 0.15742 0.65007 0.0
C3035 C 0.65878 0.15557 0.66179 0.0
C3036 C 0.64883 0.15381 0.66808 0.0
C3037 C 0.63808 0.15374 0.6627 0.0
C3038 C 0.63748 0.1555 0.65092 0.0
C3039 C 0.64741 0.1573 0.64467 0.0
P3040 P 0.66547 0.87287 0.32365 0.0
H3041 H 0.6567 0.87385 0.30036 0.0
H3042 H 0.63776 0.87769 0.29256 0.0
H3043 H 0.62538 0.88465 0.32638 0.0
H3044 H 0.64444 0.88108 0.33406 0.0
H3045 H 0.68637 0.87378 0.33687 0.0
H3046 H 0.69848 0.88938 0.34364 0.0
H3047 H 0.67513 0.91347 0.32882 0.0
H3048 H 0.66295 0.89777 0.3222 0.0
H3049 H 0.66288 0.84824 0.32329 0.0
H3050 H 0.66156 0.87525 0.3481 0.0
O3051 O 0.6732 0.86661 0.31356 0.0
H3052 H 0.65853 0.83438 0.33802 0.0
H3053 H 0.65697 0.8615 0.36285 0.0
C3054 C 0.65192 0.87702 0.3178 0.0
C3055 C 0.64994 0.87631 0.30608 0.0
C3056 C 0.63908 0.87845 0.30164 0.0
C3057 C 0.63 0.88134 0.30885 0.0
C3058 C 0.63217 0.88252 0.32057 0.0
C3059 C 0.64306 0.8804 0.32499 0.0
C3060 C 0.67373 0.88462 0.32915 0.0
C3061 C 0.68381 0.88242 0.33517 0.0
C3062 C 0.69076 0.89135 0.33896 0.0
C3063 C 0.6878 0.90267 0.33671 0.0
C3064 C 0.67759 0.90485 0.33078 0.0
C3065 C 0.67063 0.89588 0.32697 0.0
C3066 C 0.66279 0.86272 0.33466 0.0
C3067 C 0.66173 0.85117 0.33193 0.0
C3068 C 0.65914 0.84328 0.34035 0.0
C3069 C 0.65744 0.84683 0.35163 0.0
C3070 C 0.65843 0.85845 0.3543 0.0
C3071 C 0.66103 0.86633 0.34587 0.0
P3072 P 0.86662 0.87446 0.10964 0.0
H3073 H 0.86621 0.8697 0.08535 0.0
H3074 H 0.86429 0.85213 0.0744 0.0
H3075 H 0.85817 0.83364 0.10536 0.0
H3076 H 0.8603 0.85128 0.11628 0.0
H3077 H 0.86252 0.89326 0.12508 0.0
H3078 H 0.84648 0.90612 0.12754 0.0
H3079 H 0.82715 0.88705 0.10245 0.0
H3080 H 0.84332 0.8742 0.1 0.0
H3081 H 0.89061 0.87039 0.11446 0.0
H3082 H 0.85898 0.8702 0.13301 0.0
O3083 O 0.87525 0.88268 0.10198 0.0
H3084 H 0.90114 0.86652 0.13193 0.0
H3085 H 0.86948 0.8663 0.15059 0.0
C3086 C 0.86367 0.86172 0.10163 0.0
C3087 C 0.86437 0.86187 0.08977 0.0
C3088 C 0.86318 0.85182 0.08351 0.0
C3089 C 0.86119 0.84145 0.08901 0.0
C3090 C 0.85991 0.84145 0.10089 0.0
C3091 C 0.86109 0.85153 0.10714 0.0
C3092 C 0.85404 0.88265 0.11253 0.0
C3093 C 0.85473 0.89167 0.12031 0.0
C3094 C 0.84553 0.89901 0.12173 0.0
C3095 C 0.83551 0.89758 0.11523 0.0
C3096 C 0.83477 0.8884 0.10755 0.0
C3097 C 0.84399 0.881 0.10619 0.0
C3098 C 0.87408 0.87092 0.12252 0.0
C3099 C 0.88593 0.86949 0.12231 0.0
C3100 C 0.89193 0.86717 0.13229 0.0
C3101 C 0.88615 0.86619 0.14267 0.0
C3102 C 0.87419 0.8672 0.14276 0.0
C3103 C 0.86819 0.86944 0.13273 0.0
P3104 P 0.17036 0.65959 0.14174 0.0
H3105 H 0.19267 0.65018 0.13608 0.0
H3106 H 0.19869 0.63137 0.12965 0.0
H3107 H 0.16341 0.62029 0.12901 0.0
H3108 H 0.15749 0.63919 0.13504 0.0
H3109 H 0.17512 0.68364 0.13821 0.0
H3110 H 0.16882 0.69704 0.12379 0.0
H3111 H 0.15126 0.66987 0.10595 0.0
H3112 H 0.15773 0.65646 0.12037 0.0
H3113 H 0.16479 0.6432 0.15934 0.0
H3114 H 0.14917 0.67269 0.14444 0.0
O3115 O 0.18102 0.66507 0.14951 0.0
H3116 H 0.14801 0.64049 0.17133 0.0
H3117 H 0.13241 0.67 0.15632 0.0
C3118 C 0.17467 0.64598 0.13628 0.0
C3119 C 0.18624 0.6437 0.1345 0.0
C3120 C 0.18967 0.63292 0.13087 0.0
C3121 C 0.18155 0.62425 0.12893 0.0
C3122 C 0.1699 0.62676 0.13033 0.0
C3123 C 0.1665 0.63754 0.1339 0.0
C3124 C 0.16706 0.66902 0.13025 0.0
C3125 C 0.17011 0.68051 0.13108 0.0
C3126 C 0.16641 0.68819 0.12289 0.0
C3127 C 0.1595 0.68452 0.11375 0.0
C3128 C 0.15669 0.67293 0.11281 0.0
C3129 C 0.16038 0.66526 0.12104 0.0
C3130 C 0.15812 0.65796 0.1508 0.0
C3131 C 0.15774 0.64906 0.15862 0.0
C3132 C 0.14814 0.64751 0.16544 0.0
C3133 C 0.13884 0.65498 0.16469 0.0
C3134 C 0.13945 0.66413 0.15713 0.0
C3135 C 0.14902 0.66562 0.15025 0.0
P3136 P 0.16761 0.37274 0.82453 0.0
H3137 H 0.15874 0.37912 0.80229 0.0
H3138 H 0.13946 0.38307 0.79532 0.0
H3139 H 0.12645 0.37939 0.82936 0.0
H3140 H 0.14576 0.37564 0.83626 0.0
H3141 H 0.19185 0.37808 0.82319 0.0
H3142 H 0.20351 0.39367 0.83069 0.0
H3143 H 0.17338 0.40914 0.84486 0.0
H3144 H 0.1617 0.39346 0.83724 0.0
H3145 H 0.16489 0.34818 0.82363 0.0
H3146 H 0.16669 0.37424 0.84946 0.0
O3147 O 0.17444 0.36682 0.81361 0.0
H3148 H 0.16207 0.33383 0.83821 0.0
H3149 H 0.16355 0.36002 0.86407 0.0
C3150 C 0.15363 0.37685 0.81974 0.0
C3151 C 0.15174 0.37924 0.80825 0.0
C3152 C 0.14072 0.38145 0.80428 0.0
C3153 C 0.1314 0.3814 0.81176 0.0
C3154 C 0.13344 0.37954 0.82338 0.0
C3155 C 0.14447 0.37731 0.82733 0.0
C3156 C 0.17589 0.38472 0.82949 0.0
C3157 C 0.18771 0.3849 0.82776 0.0
C3158 C 0.19437 0.39384 0.83203 0.0
C3159 C 0.18935 0.40268 0.83829 0.0
C3160 C 0.17748 0.40244 0.84008 0.0
C3161 C 0.1708 0.39353 0.83568 0.0
C3162 C 0.16624 0.36224 0.83547 0.0
C3163 C 0.16476 0.3508 0.83245 0.0
C3164 C 0.16303 0.34262 0.8408 0.0
C3165 C 0.1626 0.34575 0.85234 0.0
C3166 C 0.16405 0.35727 0.8553 0.0
C3167 C 0.16582 0.36544 0.84694 0.0
P3168 P 0.369 0.37293 0.60734 0.0
H3169 H 0.3693 0.36713 0.58334 0.0
H3170 H 0.36595 0.34941 0.57299 0.0
H3171 H 0.35615 0.33311 0.60425 0.0
H3172 H 0.3597 0.35092 0.61458 0.0
H3173 H 0.36636 0.39583 0.59846 0.0
H3174 H 0.35086 0.40946 0.59917 0.0
H3175 H 0.33011 0.38531 0.61738 0.0
H3176 H 0.34582 0.37156 0.61662 0.0
H3177 H 0.3864 0.35739 0.61507 0.0
H3178 H 0.36347 0.38152 0.63032 0.0
O3179 O 0.37989 0.37891 0.60049 0.0
H3180 H 0.39532 0.35416 0.63349 0.0
H3181 H 0.37198 0.37797 0.64888 0.0
C3182 C 0.36503 0.36023 0.59974 0.0
C3183 C 0.36635 0.35976 0.58794 0.0
C3184 C 0.36433 0.34964 0.58202 0.0
C3185 C 0.36088 0.3398 0.58781 0.0
C3186 C 0.359 0.34048 0.59958 0.0
C3187 C 0.361 0.35065 0.60549 0.0
C3188 C 0.35724 0.3827 0.60752 0.0
C3189 C 0.35848 0.39339 0.60255 0.0
C3190 C 0.34956 0.40117 0.6029 0.0
C3191 C 0.33924 0.39844 0.60829 0.0
C3192 C 0.33799 0.38766 0.61322 0.0
C3193 C 0.34691 0.3798 0.61275 0.0
C3194 C 0.37421 0.3696 0.62132 0.0
C3195 C 0.38311 0.36179 0.62245 0.0
C3196 C 0.38815 0.3599 0.63303 0.0
C3197 C 0.38438 0.36579 0.64272 0.0
C3198 C 0.37521 0.37339 0.64159 0.0
C3199 C 0.37023 0.37534 0.63096 0.0
P3200 P 0.16683 0.63222 0.68467 0.0
H3201 H 0.1556 0.62242 0.70443 0.0
H3202 H 0.13566 0.6176 0.70839 0.0
H3203 H 0.12628 0.6277 0.6744 0.0
H3204 H 0.14616 0.63214 0.67043 0.0
H3205 H 0.19094 0.62716 0.68758 0.0
H3206 H 0.20311 0.6121 0.68019 0.0
H3207 H 0.17388 0.59673 0.66347 0.0
H3208 H 0.16174 0.6119 0.67088 0.0
H3209 H 0.16415 0.65673 0.68665 0.0
H3210 H 0.16896 0.63217 0.65984 0.0
O3211 O 0.17235 0.63732 0.69678 0.0
H3212 H 0.16249 0.6718 0.6726 0.0
H3213 H 0.16697 0.64707 0.64574 0.0
C3214 C 0.15232 0.62787 0.68723 0.0
C3215 C 0.14924 0.62353 0.69783 0.0
C3216 C 0.13783 0.62082 0.70009 0.0
C3217 C 0.12933 0.62237 0.69176 0.0
C3218 C 0.13258 0.62631 0.681 0.0
C3219 C 0.14398 0.62897 0.67874 0.0
C3220 C 0.17542 0.62052 0.67995 0.0
C3221 C 0.18712 0.62045 0.68247 0.0
C3222 C 0.19406 0.61182 0.67826 0.0
C3223 C 0.18944 0.60317 0.67131 0.0
C3224 C 0.17769 0.60329 0.66878 0.0
C3225 C 0.17073 0.6119 0.67308 0.0
C3226 C 0.16691 0.64338 0.67431 0.0
C3227 C 0.16499 0.65461 0.67774 0.0
C3228 C 0.16392 0.66319 0.66968 0.0
C3229 C 0.16459 0.66066 0.65801 0.0
C3230 C 0.16662 0.64937 0.65464 0.0
C3231 C 0.16774 0.64082 0.66271 0.0
P3232 P 0.33628 0.3794 0.18026 0.0
H3233 H 0.34673 0.38308 0.20261 0.0
H3234 H 0.36653 0.38543 0.20883 0.0
H3235 H 0.37741 0.38497 0.17382 0.0
H3236 H 0.35763 0.38221 0.16773 0.0
H3237 H 0.31279 0.38708 0.18243 0.0
H3238 H 0.30277 0.40392 0.17576 0.0
H3239 H 0.334 0.41632 0.16081 0.0
H3240 H 0.344 0.39944 0.16755 0.0
H3241 H 0.33706 0.35475 0.18087 0.0
H3242 H 0.33661 0.38076 0.15531 0.0
O3243 O 0.32912 0.37408 0.19124 0.0
H3244 H 0.33867 0.3402 0.16612 0.0
H3245 H 0.33854 0.36632 0.14052 0.0
C3246 C 0.35074 0.38227 0.18472 0.0
C3247 C 0.35338 0.38351 0.19628 0.0
C3248 C 0.36472 0.38495 0.19982 0.0
C3249 C 0.37361 0.38529 0.19184 0.0
C3250 C 0.37083 0.3845 0.18022 0.0
C3251 C 0.3595 0.38298 0.17671 0.0
C3252 C 0.32918 0.3921 0.17566 0.0
C3253 C 0.31752 0.39348 0.17784 0.0
C3254 C 0.31181 0.40312 0.17404 0.0
C3255 C 0.31762 0.41148 0.16783 0.0
C3256 C 0.32929 0.41001 0.16555 0.0
C3257 C 0.33503 0.4004 0.16946 0.0
C3258 C 0.33648 0.36881 0.16919 0.0
C3259 C 0.33719 0.35732 0.17207 0.0
C3260 C 0.33823 0.34902 0.16362 0.0
C3261 C 0.33874 0.35208 0.15211 0.0
C3262 C 0.33798 0.36364 0.14927 0.0
C3263 C 0.3369 0.37193 0.15774 0.0
P3264 P 0.64846 0.38845 0.12038 0.0
H3265 H 0.66153 0.36931 0.11151 0.0
H3266 H 0.65819 0.35624 0.09569 0.0
H3267 H 0.62891 0.37589 0.08537 0.0
H3268 H 0.63229 0.38893 0.10131 0.0
H3269 H 0.6468 0.41035 0.132 0.0
H3270 H 0.65748 0.42808 0.1301 0.0
H3271 H 0.67533 0.41408 0.10129 0.0
H3272 H 0.66454 0.39634 0.10321 0.0
H3273 H 0.63732 0.3745 0.13733 0.0
H3274 H 0.629 0.40389 0.11736 0.0
O3275 O 0.65729 0.38195 0.12937 0.0
H3276 H 0.61833 0.37474 0.14564 0.0
H3277 H 0.60979 0.40407 0.1255 0.0
C3278 C 0.647 0.37993 0.10772 0.0
C3279 C 0.65447 0.37089 0.10578 0.0
C3280 C 0.6526 0.36346 0.09666 0.0
C3281 C 0.64322 0.36497 0.08933 0.0
C3282 C 0.6361 0.37441 0.09097 0.0
C3283 C 0.63803 0.38187 0.10007 0.0
C3284 C 0.65463 0.40214 0.11755 0.0
C3285 C 0.65273 0.41121 0.12505 0.0
C3286 C 0.65887 0.42134 0.12397 0.0
C3287 C 0.66722 0.42248 0.11552 0.0
C3288 C 0.66897 0.41343 0.1079 0.0
C3289 C 0.66274 0.40333 0.10893 0.0
C3290 C 0.63465 0.38932 0.12693 0.0
C3291 C 0.63142 0.38108 0.1348 0.0
C3292 C 0.6205 0.38115 0.13945 0.0
C3293 C 0.61251 0.38941 0.13621 0.0
C3294 C 0.61578 0.39768 0.12829 0.0
C3295 C 0.62675 0.39759 0.12362 0.0
P3296 P 0.88477 0.60229 0.58117 0.0
H3297 H 0.86225 0.59876 0.57071 0.0
H3298 H 0.84601 0.58656 0.57566 0.0
H3299 H 0.86447 0.57492 0.60519 0.0
H3300 H 0.88055 0.58707 0.60024 0.0
H3301 H 0.89471 0.6154 0.56278 0.0
H3302 H 0.89089 0.63437 0.55549 0.0
H3303 H 0.86285 0.63774 0.57893 0.0
H3304 H 0.86683 0.61877 0.58626 0.0
H3305 H 0.90896 0.59819 0.58633 0.0
H3306 H 0.87996 0.61335 0.60279 0.0
O3307 O 0.89212 0.59462 0.57179 0.0
H3308 H 0.92079 0.60239 0.60301 0.0
H3309 H 0.89166 0.61741 0.61958 0.0
C3310 C 0.87247 0.59407 0.58528 0.0
C3311 C 0.86271 0.59371 0.57835 0.0
C3312 C 0.85347 0.58668 0.58114 0.0
C3313 C 0.85391 0.57986 0.59089 0.0
C3314 C 0.86375 0.58026 0.59778 0.0
C3315 C 0.87297 0.58722 0.59494 0.0
C3316 C 0.88092 0.61561 0.5749 0.0
C3317 C 0.88761 0.62014 0.5662 0.0
C3318 C 0.8854 0.63098 0.56203 0.0
C3319 C 0.87654 0.63756 0.5666 0.0
C3320 C 0.86979 0.63293 0.57528 0.0
C3321 C 0.87199 0.62206 0.57942 0.0
C3322 C 0.89358 0.60543 0.59336 0.0
C3323 C 0.90513 0.6024 0.59355 0.0
C3324 C 0.91187 0.60475 0.60312 0.0
C3325 C 0.90717 0.61022 0.61265 0.0
C3326 C 0.89559 0.61333 0.61235 0.0
C3327 C 0.88888 0.61097 0.60277 0.0
P3328 P 0.62434 0.39501 0.66224 0.0
H3329 H 0.6355 0.40936 0.67919 0.0
H3330 H 0.64874 0.42535 0.67783 0.0
H3331 H 0.64535 0.42439 0.64126 0.0
H3332 H 0.63164 0.40886 0.64277 0.0
H3333 H 0.60433 0.3804 0.66334 0.0
H3334 H 0.58654 0.38161 0.67393 0.0
H3335 H 0.59628 0.41495 0.68613 0.0
H3336 H 0.61402 0.41379 0.67536 0.0
H3337 H 0.63963 0.37961 0.65052 0.0
H3338 H 0.60714 0.39531 0.64388 0.0
O3339 O 0.63141 0.38644 0.671 0.0
H3340 H 0.63841 0.36951 0.63242 0.0
H3341 H 0.60562 0.38492 0.62585 0.0
C3342 C 0.63266 0.40786 0.6611 0.0
C3343 C 0.63744 0.41276 0.6709 0.0
C3344 C 0.64511 0.42184 0.67009 0.0
C3345 C 0.64831 0.42608 0.65942 0.0
C3346 C 0.64305 0.42145 0.64963 0.0
C3347 C 0.63525 0.41246 0.65048 0.0
C3348 C 0.61045 0.39706 0.66839 0.0
C3349 C 0.60251 0.38811 0.66803 0.0
C3350 C 0.59234 0.3888 0.67411 0.0
C3351 C 0.59002 0.39838 0.68086 0.0
C3352 C 0.59788 0.40745 0.68104 0.0
C3353 C 0.60801 0.4068 0.67484 0.0
C3354 C 0.62332 0.38791 0.64868 0.0
C3355 C 0.63217 0.38079 0.64519 0.0
C3356 C 0.63143 0.37499 0.63485 0.0
C3357 C 0.62182 0.37623 0.62776 0.0
C3358 C 0.61315 0.38376 0.63109 0.0
C3359 C 0.61394 0.38962 0.64145 0.0
P3360 P 0.37079 0.63458 0.89257 0.0
H3361 H 0.37287 0.63843 0.91696 0.0
H3362 H 0.37158 0.65547 0.92878 0.0
H3363 H 0.36221 0.67498 0.89924 0.0
H3364 H 0.36369 0.65787 0.88745 0.0
H3365 H 0.36515 0.61609 0.87711 0.0
H3366 H 0.34883 0.60319 0.87565 0.0
H3367 H 0.33197 0.62175 0.90245 0.0
H3368 H 0.34843 0.63456 0.90394 0.0
H3369 H 0.39422 0.63874 0.88564 0.0
H3370 H 0.36071 0.64013 0.87037 0.0
O3371 O 0.38015 0.62619 0.8991 0.0
H3372 H 0.40281 0.64397 0.86759 0.0
H3373 H 0.36924 0.64551 0.85223 0.0
C3374 C 0.36865 0.64696 0.90131 0.0
C3375 C 0.3705 0.64637 0.91304 0.0
C3376 C 0.36966 0.65611 0.9198 0.0
C3377 C 0.3669 0.66662 0.91493 0.0
C3378 C 0.36456 0.66705 0.90321 0.0
C3379 C 0.36537 0.65728 0.89647 0.0
C3380 C 0.35793 0.62638 0.89049 0.0
C3381 C 0.35783 0.61753 0.8825 0.0
C3382 C 0.34847 0.61018 0.88165 0.0
C3383 C 0.33906 0.61145 0.88891 0.0
C3384 C 0.33911 0.62049 0.89678 0.0
C3385 C 0.34849 0.62788 0.89759 0.0
C3386 C 0.37688 0.63876 0.87924 0.0
C3387 C 0.38871 0.64018 0.87838 0.0
C3388 C 0.3936 0.64328 0.86807 0.0
C3389 C 0.38672 0.64511 0.85844 0.0
C3390 C 0.37479 0.64398 0.85944 0.0
C3391 C 0.36991 0.64091 0.86979 0.0
P3392 P 0.1672 0.34597 0.36629 0.0
H3393 H 0.18981 0.35651 0.36908 0.0
H3394 H 0.19588 0.37573 0.37458 0.0
H3395 H 0.16057 0.38523 0.37886 0.0
H3396 H 0.1546 0.36603 0.37344 0.0
H3397 H 0.16592 0.32148 0.3689 0.0
H3398 H 0.16028 0.30931 0.38468 0.0
H3399 H 0.15566 0.33898 0.40585 0.0
H3400 H 0.16128 0.35108 0.39009 0.0
H3401 H 0.16291 0.35961 0.34629 0.0
H3402 H 0.14415 0.33555 0.36652 0.0
O3403 O 0.17752 0.33993 0.35868 0.0
H3404 H 0.14598 0.36245 0.33438 0.0
H3405 H 0.12728 0.33834 0.35467 0.0
C3406 C 0.17176 0.35993 0.37071 0.0
C3407 C 0.18339 0.36274 0.37121 0.0
C3408 C 0.18685 0.37372 0.37432 0.0
C3409 C 0.1787 0.382 0.37712 0.0
C3410 C 0.16706 0.37902 0.37686 0.0
C3411 C 0.16363 0.36809 0.37368 0.0
C3412 C 0.16417 0.33717 0.37835 0.0
C3413 C 0.16384 0.32535 0.37699 0.0
C3414 C 0.16053 0.31842 0.38597 0.0
C3415 C 0.15752 0.3232 0.39649 0.0
C3416 C 0.15805 0.33505 0.39788 0.0
C3417 C 0.16126 0.34198 0.38885 0.0
C3418 C 0.1548 0.34742 0.35732 0.0
C3419 C 0.15517 0.35491 0.34814 0.0
C3420 C 0.14549 0.35656 0.34138 0.0
C3421 C 0.1353 0.35064 0.34361 0.0
C3422 C 0.13504 0.34294 0.35267 0.0
C3423 C 0.1447 0.34137 0.3595 0.0
P3424 P 0.36181 0.60387 0.36078 0.0
H3425 H 0.35821 0.57934 0.36056 0.0
H3426 H 0.34105 0.56759 0.35887 0.0
H3427 H 0.32096 0.59762 0.35272 0.0
H3428 H 0.3382 0.60935 0.3546 0.0
H3429 H 0.37877 0.62136 0.35638 0.0
H3430 H 0.39074 0.62544 0.34004 0.0
H3431 H 0.37362 0.59879 0.32101 0.0
H3432 H 0.36163 0.59475 0.33747 0.0
H3433 H 0.35862 0.60709 0.38501 0.0
H3434 H 0.35528 0.62719 0.35474 0.0
O3435 O 0.37101 0.59637 0.36852 0.0
H3436 H 0.35363 0.62355 0.39662 0.0
H3437 H 0.35026 0.64377 0.36633 0.0
C3438 C 0.3494 0.59522 0.35798 0.0
C3439 C 0.35013 0.58339 0.35877 0.0
C3440 C 0.34031 0.57666 0.3577 0.0
C3441 C 0.32961 0.58168 0.35578 0.0
C3442 C 0.32904 0.59352 0.35441 0.0
C3443 C 0.33889 0.60023 0.35545 0.0
C3444 C 0.36913 0.60794 0.34806 0.0
C3445 C 0.37736 0.61661 0.3486 0.0
C3446 C 0.3842 0.61894 0.33923 0.0
C3447 C 0.38308 0.61248 0.3292 0.0
C3448 C 0.37468 0.6039 0.32863 0.0
C3449 C 0.36778 0.60163 0.33801 0.0
C3450 C 0.35766 0.61603 0.36907 0.0
C3451 C 0.35681 0.61507 0.38087 0.0
C3452 C 0.35385 0.62446 0.38748 0.0
C3453 C 0.35162 0.63498 0.38239 0.0
C3454 C 0.35211 0.63582 0.3705 0.0
C3455 C 0.35499 0.62637 0.36388 0.0
H3456 H 0.17853 0.43533 0.09252 0.0
H3457 H 0.13207 0.4007 0.12743 0.0
H3458 H 0.16832 0.44444 0.12648 0.0
H3459 H 0.13677 0.39643 0.09137 0.0
H3460 H 0.14505 0.41704 0.12715 0.0
H3461 H 0.16303 0.4213 0.09173 0.0
C3462 C 0.17298 0.43442 0.09978 0.0
C3463 C 0.17474 0.44102 0.1096 0.0
C3464 C 0.14316 0.41261 0.11927 0.0
C3465 C 0.15705 0.42497 0.10879 0.0
C3466 C 0.1358 0.40326 0.11944 0.0
C3467 C 0.13341 0.39718 0.10942 0.0
C3468 C 0.14831 0.41581 0.10903 0.0
C3469 C 0.13835 0.40093 0.09928 0.0
C3470 C 0.1641 0.42646 0.09931 0.0
C3471 C 0.16722 0.43959 0.11871 0.0
N3472 N 0.14567 0.40993 0.09936 0.0
N3473 N 0.15878 0.43164 0.11813 0.0
H3474 H 0.84618 0.95395 0.39232 0.0
H3475 H 0.87648 0.90251 0.42457 0.0
H3476 H 0.82812 0.92993 0.41322 0.0
H3477 H 0.89433 0.92591 0.40283 0.0
H3478 H 0.85886 0.91304 0.42133 0.0
H3479 H 0.86407 0.94441 0.3969 0.0
C3480 C 0.84598 0.94673 0.39796 0.0
C3481 C 0.83562 0.94273 0.40237 0.0
C3482 C 0.86664 0.91589 0.41728 0.0
C3483 C 0.85608 0.93166 0.40754 0.0
C3484 C 0.87672 0.90992 0.41919 0.0
C3485 C 0.88691 0.91331 0.41394 0.0
C3486 C 0.86672 0.92535 0.41008 0.0
C3487 C 0.88666 0.92289 0.40692 0.0
C3488 C 0.8562 0.94124 0.40051 0.0
C3489 C 0.83588 0.93322 0.4095 0.0
N3490 N 0.87673 0.92856 0.40519 0.0
N3491 N 0.84594 0.92801 0.41185 0.0
H3492 H 0.33511 0.56946 0.60818 0.0
H3493 H 0.39622 0.58361 0.58189 0.0
H3494 H 0.35344 0.5464 0.58635 0.0
H3495 H 0.3753 0.60863 0.59865 0.0
H3496 H 0.38069 0.56985 0.58352 0.0
H3497 H 0.34975 0.58389 0.6049 0.0
C3498 C 0.34214 0.56745 0.6026 0.0
C3499 C 0.34303 0.55665 0.59756 0.0
C3500 C 0.37947 0.57837 0.5868 0.0
C3501 C 0.35996 0.57312 0.59393 0.0
C3502 C 0.38832 0.58627 0.5858 0.0
C3503 C 0.38711 0.59733 0.59015 0.0
C3504 C 0.36932 0.58148 0.59225 0.0
C3505 C 0.37672 0.60017 0.59534 0.0
C3506 C 0.35054 0.57569 0.60079 0.0
C3507 C 0.35247 0.55451 0.59058 0.0
N3508 N 0.36826 0.59229 0.59628 0.0
N3509 N 0.36058 0.56265 0.58901 0.0
H3510 H 0.64609 0.04655 0.8888 0.0
H3511 H 0.63315 0.1061 0.91911 0.0
H3512 H 0.66365 0.05837 0.91897 0.0
H3513 H 0.62149 0.09707 0.88542 0.0
H3514 H 0.64171 0.08726 0.92089 0.0
H3515 H 0.63428 0.06358 0.88925 0.0
C3516 C 0.64733 0.05264 0.89563 0.0
C3517 C 0.65592 0.05108 0.90382 0.0
C3518 C 0.6372 0.08938 0.91314 0.0
C3519 C 0.64254 0.07066 0.9043 0.0
C3520 C 0.63227 0.10009 0.91215 0.0
C3521 C 0.62671 0.10317 0.90206 0.0
C3522 C 0.63649 0.08167 0.90401 0.0
C3523 C 0.62587 0.0951 0.89328 0.0
C3524 C 0.64065 0.0624 0.89583 0.0
C3525 C 0.65724 0.05932 0.9124 0.0
N3526 N 0.63075 0.08474 0.89444 0.0
N3527 N 0.65066 0.06879 0.91238 0.0
H3528 H 0.17713 0.57466 0.41319 0.0
H3529 H 0.1254 0.60608 0.38243 0.0
H3530 H 0.16116 0.56246 0.38231 0.0
H3531 H 0.13983 0.61696 0.41451 0.0
H3532 H 0.13734 0.58914 0.38304 0.0
H3533 H 0.16247 0.58927 0.41469 0.0
C3534 C 0.17049 0.57501 0.40677 0.0
C3535 C 0.17043 0.5674 0.39756 0.0
C3536 C 0.13782 0.59517 0.39001 0.0
C3537 C 0.15363 0.5841 0.3992 0.0
C3538 C 0.13104 0.60487 0.38963 0.0
C3539 C 0.1317 0.61299 0.39838 0.0
C3540 C 0.14539 0.59363 0.39915 0.0
C3541 C 0.13901 0.6109 0.4076 0.0
C3542 C 0.1621 0.58333 0.40765 0.0
C3543 C 0.16151 0.56812 0.38958 0.0
N3544 N 0.14566 0.60148 0.40769 0.0
N3545 N 0.15354 0.5764 0.39052 0.0
H3546 H 0.68389 0.9315 0.59377 0.0
H3547 H 0.63067 0.90379 0.62573 0.0
H3548 H 0.66898 0.94568 0.62408 0.0
H3549 H 0.64489 0.89029 0.59479 0.0
H3550 H 0.64357 0.92011 0.62439 0.0
H3551 H 0.66862 0.91727 0.59307 0.0
C3552 C 0.67736 0.93166 0.60024 0.0
C3553 C 0.67777 0.93974 0.60905 0.0
C3554 C 0.6438 0.91363 0.61784 0.0
C3555 C 0.66025 0.92347 0.60831 0.0
C3556 C 0.63647 0.90428 0.61863 0.0
C3557 C 0.63676 0.89561 0.61041 0.0
C3558 C 0.65155 0.91428 0.6088 0.0
C3559 C 0.64432 0.8968 0.60128 0.0
C3560 C 0.66862 0.92356 0.59982 0.0
C3561 C 0.66898 0.93966 0.6171 0.0
N3562 N 0.65148 0.9059 0.60078 0.0
N3563 N 0.66065 0.93159 0.6166 0.0
H3564 H 0.33489 0.44578 0.91785 0.0
H3565 H 0.40022 0.43086 0.90498 0.0
H3566 H 0.35768 0.46747 0.89905 0.0
H3567 H 0.37817 0.40958 0.92505 0.0
H3568 H 0.38461 0.44427 0.90265 0.0
H3569 H 0.3505 0.43231 0.92051 0.0
C3570 C 0.34316 0.4477 0.91426 0.0
C3571 C 0.34498 0.45779 0.90824 0.0
C3572 C 0.38317 0.43668 0.90757 0.0
C3573 C 0.36289 0.44244 0.9113 0.0
C3574 C 0.39207 0.42897 0.90885 0.0
C3575 C 0.3905 0.41904 0.91518 0.0
C3576 C 0.37257 0.43446 0.91263 0.0
C3577 C 0.3798 0.41717 0.92018 0.0
C3578 C 0.35208 0.44003 0.91583 0.0
C3579 C 0.35592 0.45988 0.90389 0.0
N3580 N 0.37123 0.42478 0.91877 0.0
N3581 N 0.36444 0.45228 0.90548 0.0
H3582 H 0.85411 0.0444 0.08652 0.0
H3583 H 0.87537 0.10812 0.09849 0.0
H3584 H 0.83629 0.068 0.1082 0.0
H3585 H 0.89588 0.0828 0.0817 0.0
H3586 H 0.86017 0.09403 0.10069 0.0
H3587 H 0.86874 0.05886 0.08325 0.0
C3588 C 0.85327 0.0526 0.09062 0.0
C3589 C 0.84395 0.05494 0.09769 0.0
C3590 C 0.86799 0.09157 0.09649 0.0
C3591 C 0.86062 0.07161 0.09385 0.0
C3592 C 0.8767 0.0996 0.09528 0.0
C3593 C 0.88697 0.09666 0.08995 0.0
C3594 C 0.86952 0.08049 0.09232 0.0
C3595 C 0.88808 0.08552 0.08575 0.0
C3596 C 0.86161 0.06088 0.0887 0.0
C3597 C 0.84323 0.06583 0.10258 0.0
N3598 N 0.87949 0.07785 0.08705 0.0
N3599 N 0.85146 0.07373 0.10059 0.0
H3600 H 0.10248 0.16432 0.44185 0.0
H3601 H 0.1217 0.12921 0.38682 0.0
H3602 H 0.12698 0.17648 0.41749 0.0
H3603 H 0.09804 0.1162 0.41157 0.0
H3604 H 0.12386 0.14649 0.39814 0.0
H3605 H 0.10084 0.14655 0.43109 0.0
C3606 C 0.10756 0.16323 0.43428 0.0
C3607 C 0.11485 0.17194 0.43056 0.0
C3608 C 0.11821 0.13986 0.40112 0.0
C3609 C 0.11294 0.15165 0.41813 0.0
C3610 C 0.11703 0.12994 0.39469 0.0
C3611 C 0.1097 0.1212 0.39825 0.0
C3612 C 0.112 0.14111 0.41121 0.0
C3613 C 0.10369 0.12276 0.40842 0.0
C3614 C 0.10658 0.15311 0.4281 0.0
C3615 C 0.12112 0.1701 0.42059 0.0
N3616 N 0.10497 0.13251 0.41454 0.0
N3617 N 0.12001 0.16018 0.41474 0.0
H3618 H 0.05312 0.91077 0.68097 0.0
H3619 H 0.09016 0.87801 0.63469 0.0
H3620 H 0.04049 0.88218 0.66145 0.0
H3621 H 0.10096 0.90946 0.65047 0.0
H3622 H 0.07159 0.87985 0.64386 0.0
H3623 H 0.07038 0.91094 0.66939 0.0
C3624 C 0.05396 0.90456 0.6742 0.0
C3625 C 0.04539 0.8964 0.67221 0.0
C3626 C 0.07798 0.88641 0.64525 0.0
C3627 C 0.06512 0.89653 0.65894 0.0
C3628 C 0.08859 0.88533 0.64006 0.0
C3629 C 0.09713 0.89355 0.64191 0.0
C3630 C 0.07591 0.89571 0.65245 0.0
C3631 C 0.09459 0.90296 0.64879 0.0
C3632 C 0.06379 0.9047 0.66756 0.0
C3633 C 0.04684 0.88866 0.66323 0.0
N3634 N 0.08425 0.90372 0.65391 0.0
N3635 N 0.05657 0.88885 0.65701 0.0
H3636 H 0.38475 0.82778 0.91965 0.0
H3637 H 0.41278 0.88983 0.91671 0.0
H3638 H 0.40865 0.84071 0.94468 0.0
H3639 H 0.39165 0.87519 0.8902 0.0
H3640 H 0.41122 0.87209 0.92727 0.0
H3641 H 0.38698 0.84528 0.90895 0.0
C3642 C 0.39054 0.83426 0.92286 0.0
C3643 C 0.39655 0.83272 0.93308 0.0
C3644 C 0.40693 0.87276 0.91914 0.0
C3645 C 0.39901 0.85293 0.92091 0.0
C3646 C 0.40787 0.88287 0.91308 0.0
C3647 C 0.4023 0.88404 0.90256 0.0
C3648 C 0.40038 0.86374 0.91467 0.0
C3649 C 0.39592 0.87477 0.89835 0.0
C3650 C 0.39176 0.84429 0.91677 0.0
C3651 C 0.40375 0.84155 0.93692 0.0
N3652 N 0.39513 0.86504 0.90442 0.0
N3653 N 0.40477 0.85127 0.93084 0.0
H3654 H 0.43733 0.10291 0.18124 0.0
H3655 H 0.42084 0.12588 0.11958 0.0
H3656 H 0.45387 0.1316 0.16562 0.0
H3657 H 0.40878 0.09388 0.13263 0.0
H3658 H 0.43238 0.12856 0.13676 0.0
H3659 H 0.42616 0.09986 0.16386 0.0
C3660 C 0.43859 0.10858 0.17416 0.0
C3661 C 0.44653 0.11753 0.17488 0.0
C3662 C 0.42724 0.12093 0.13586 0.0
C3663 C 0.43381 0.11409 0.15496 0.0
C3664 C 0.4206 0.11943 0.12609 0.0
C3665 C 0.41383 0.10965 0.12469 0.0
C3666 C 0.42704 0.11264 0.14436 0.0
C3667 C 0.41396 0.1015 0.13332 0.0
C3668 C 0.43226 0.1068 0.16422 0.0
C3669 C 0.44792 0.12453 0.16539 0.0
N3670 N 0.42041 0.1032 0.14282 0.0
N3671 N 0.44158 0.1227 0.15585 0.0
H3672 H 0.12492 0.82222 0.07449 0.0
H3673 H 0.11277 0.88185 0.10499 0.0
H3674 H 0.10713 0.84959 0.05799 0.0
H3675 H 0.1281 0.85308 0.12155 0.0
H3676 H 0.11084 0.87051 0.08758 0.0
H3677 H 0.12646 0.83375 0.09164 0.0
C3678 C 0.12125 0.83064 0.0745 0.0
C3679 C 0.11579 0.83489 0.06479 0.0
C3680 C 0.11463 0.8667 0.09503 0.0
C3681 C 0.1177 0.84828 0.08445 0.0
C3682 C 0.11569 0.87315 0.10499 0.0
C3683 C 0.12066 0.86844 0.11476 0.0
C3684 C 0.11857 0.85545 0.09483 0.0
C3685 C 0.1244 0.85715 0.1142 0.0
C3686 C 0.1222 0.83726 0.08429 0.0
C3687 C 0.11147 0.84599 0.06524 0.0
N3688 N 0.12328 0.85107 0.10443 0.0
N3689 N 0.11249 0.8523 0.07492 0.0
H3690 H 0.46743 0.87962 0.35435 0.0
H3691 H 0.41949 0.91974 0.38108 0.0
H3692 H 0.45568 0.91031 0.3384 0.0
H3693 H 0.42624 0.88582 0.39287 0.0
H3694 H 0.43389 0.91718 0.36632 0.0
H3695 H 0.45352 0.8825 0.36949 0.0
C3696 C 0.46196 0.887 0.35407 0.0
C3697 C 0.4627 0.89473 0.34509 0.0
C3698 C 0.43221 0.9103 0.37214 0.0
C3699 C 0.44674 0.89806 0.36237 0.0
C3700 C 0.42406 0.91178 0.3806 0.0
C3701 C 0.42166 0.90297 0.3882 0.0
C3702 C 0.4381 0.89997 0.37132 0.0
C3703 C 0.42773 0.89279 0.38711 0.0
C3704 C 0.45398 0.8886 0.36268 0.0
C3705 C 0.45531 0.90408 0.34509 0.0
N3706 N 0.43569 0.89158 0.37885 0.0
N3707 N 0.44766 0.9055 0.35361 0.0
H3708 H 0.39843 0.18325 0.59057 0.0
H3709 H 0.40674 0.11586 0.58863 0.0
H3710 H 0.39645 0.16338 0.55968 0.0
H3711 H 0.40143 0.13493 0.61951 0.0
H3712 H 0.40523 0.13347 0.57781 0.0
H3713 H 0.40159 0.16585 0.60124 0.0
C3714 C 0.39862 0.17524 0.58602 0.0
C3715 C 0.39708 0.1748 0.57419 0.0
C3716 C 0.40442 0.1338 0.58696 0.0
C3717 C 0.40088 0.15484 0.58638 0.0
C3718 C 0.40535 0.12377 0.59314 0.0
C3719 C 0.40416 0.12393 0.60498 0.0
C3720 C 0.40237 0.14408 0.59268 0.0
C3721 C 0.40225 0.1344 0.61038 0.0
C3722 C 0.40049 0.16531 0.59213 0.0
C3723 C 0.3977 0.16417 0.56876 0.0
N3724 N 0.40141 0.14405 0.60419 0.0
N3725 N 0.39952 0.15461 0.5749 0.0
H3726 H 0.0577 0.13428 0.8177 0.0
H3727 H 0.09154 0.11059 0.87173 0.0
H3728 H 0.04315 0.10975 0.84059 0.0
H3729 H 0.10651 0.13184 0.846 0.0
H3730 H 0.07352 0.11055 0.86104 0.0
H3731 H 0.07537 0.13402 0.82866 0.0
C3732 C 0.05824 0.12876 0.825 0.0
C3733 C 0.04894 0.12194 0.82815 0.0
C3734 C 0.08076 0.11523 0.85776 0.0
C3735 C 0.06919 0.12171 0.84089 0.0
C3736 C 0.09107 0.11521 0.86382 0.0
C3737 C 0.10056 0.12129 0.8598 0.0
C3738 C 0.07994 0.12137 0.84762 0.0
C3739 C 0.09939 0.12722 0.84957 0.0
C3740 C 0.06833 0.12866 0.8313 0.0
C3741 C 0.05007 0.11519 0.83788 0.0
N3742 N 0.08929 0.12711 0.84386 0.0
N3743 N 0.06003 0.11523 0.8439 0.0
H3744 H 0.97229 0.40642 0.85582 0.0
H3745 H 0.90771 0.39572 0.87502 0.0
H3746 H 0.94822 0.38584 0.83673 0.0
H3747 H 0.93337 0.41109 0.89675 0.0
H3748 H 0.92212 0.39308 0.86038 0.0
H3749 H 0.95783 0.40925 0.87041 0.0
C3750 C 0.96399 0.40244 0.85471 0.0
C3751 C 0.9615 0.39585 0.84501 0.0
C3752 C 0.9246 0.39703 0.86835 0.0
C3753 C 0.94483 0.39922 0.86164 0.0
C3754 C 0.91638 0.39849 0.87675 0.0
C3755 C 0.91931 0.4036 0.88718 0.0
C3756 C 0.93585 0.40075 0.87034 0.0
C3757 C 0.93066 0.40724 0.88881 0.0
C3758 C 0.95572 0.40411 0.86302 0.0
C3759 C 0.95051 0.39111 0.84396 0.0
N3760 N 0.9385 0.40574 0.88049 0.0
N3761 N 0.94259 0.39288 0.85216 0.0
H3762 H 0.88673 0.68167 0.08792 0.0
H3763 H 0.91114 0.61843 0.08885 0.0
H3764 H 0.90734 0.66765 0.06104 0.0
H3765 H 0.89506 0.63462 0.11754 0.0
H3766 H 0.90956 0.63618 0.07832 0.0
H3767 H 0.88938 0.66429 0.09868 0.0
C3768 C 0.89191 0.67499 0.08431 0.0
C3769 C 0.89684 0.67618 0.07354 0.0
C3770 C 0.9064 0.63584 0.08693 0.0
C3771 C 0.89975 0.6561 0.0858 0.0
C3772 C 0.90735 0.62573 0.09297 0.0
C3773 C 0.90318 0.62499 0.1041 0.0
C3774 C 0.90121 0.64529 0.09202 0.0
C3775 C 0.8982 0.6347 0.10892 0.0
C3776 C 0.89336 0.66502 0.09045 0.0
C3777 C 0.90325 0.66708 0.06923 0.0
N3778 N 0.89734 0.64442 0.10286 0.0
N3779 N 0.9045 0.65742 0.07536 0.0
H3780 H 0.54084 0.62859 0.34178 0.0
H3781 H 0.6015 0.59989 0.35392 0.0
H3782 H 0.55421 0.6008 0.32197 0.0
H3783 H 0.59079 0.63151 0.36904 0.0
H3784 H 0.58309 0.59851 0.34402 0.0
H3785 H 0.55797 0.62816 0.35373 0.0
C3786 C 0.54732 0.62231 0.34003 0.0
C3787 C 0.54612 0.61476 0.33083 0.0
C3788 C 0.58475 0.60572 0.34955 0.0
C3789 C 0.5658 0.61428 0.3444 0.0
C3790 C 0.59522 0.60647 0.35525 0.0
C3791 C 0.5977 0.61587 0.36225 0.0
C3792 C 0.57668 0.61439 0.35092 0.0
C3793 C 0.5893 0.62421 0.36359 0.0
C3794 C 0.55713 0.62211 0.3468 0.0
C3795 C 0.55486 0.60688 0.32888 0.0
N3796 N 0.57918 0.62329 0.35796 0.0
N3797 N 0.56434 0.60686 0.33559 0.0
H3798 H 0.88768 0.34754 0.44663 0.0
H3799 H 0.91479 0.37757 0.39221 0.0
H3800 H 0.90765 0.3299 0.42148 0.0
H3801 H 0.89381 0.39503 0.41666 0.0
H3802 H 0.9131 0.36027 0.40337 0.0
H3803 H 0.89063 0.36523 0.43631 0.0
C3804 C 0.89276 0.3474 0.43898 0.0
C3805 C 0.89741 0.33721 0.43491 0.0
C3806 C 0.90889 0.36789 0.40632 0.0
C3807 C 0.90072 0.35742 0.42297 0.0
C3808 C 0.90991 0.3778 0.39999 0.0
C3809 C 0.90442 0.38778 0.40349 0.0
C3810 C 0.90233 0.36792 0.41626 0.0
C3811 C 0.89807 0.3875 0.41356 0.0
C3812 C 0.89439 0.35749 0.43306 0.0
C3813 C 0.90378 0.33752 0.42486 0.0
N3814 N 0.89718 0.37773 0.41957 0.0
N3815 N 0.90524 0.34745 0.41924 0.0
H3816 H 0.62977 0.6775 0.92005 0.0
H3817 H 0.59423 0.6197 0.91179 0.0
H3818 H 0.60044 0.66871 0.94026 0.0
H3819 H 0.62248 0.62965 0.89061 0.0
H3820 H 0.59658 0.63734 0.92263 0.0
H3821 H 0.62746 0.65974 0.90951 0.0
C3822 C 0.62279 0.67186 0.92223 0.0
C3823 C 0.61525 0.67465 0.93102 0.0
C3824 C 0.60227 0.63565 0.91562 0.0
C3825 C 0.61263 0.65417 0.91904 0.0
C3826 C 0.6009 0.6256 0.90938 0.0
C3827 C 0.60817 0.62317 0.90025 0.0
C3828 C 0.61097 0.64334 0.91272 0.0
C3829 C 0.61677 0.63107 0.89766 0.0
C3830 C 0.62152 0.66168 0.91624 0.0
C3831 C 0.60652 0.66688 0.93362 0.0
N3832 N 0.61792 0.64079 0.90384 0.0
N3833 N 0.60543 0.65701 0.92764 0.0
H3834 H 0.81655 0.58239 0.84033 0.0
H3835 H 0.85259 0.63148 0.87167 0.0
H3836 H 0.80607 0.59892 0.87131 0.0
H3837 H 0.86605 0.61066 0.84466 0.0
H3838 H 0.83424 0.62171 0.86966 0.0
H3839 H 0.83347 0.59471 0.83989 0.0
C3840 C 0.81774 0.58871 0.84696 0.0
C3841 C 0.80995 0.58958 0.85592 0.0
C3842 C 0.84118 0.61933 0.86411 0.0
C3843 C 0.82929 0.60363 0.85551 0.0
C3844 C 0.85164 0.62497 0.86519 0.0
C3845 C 0.8609 0.62184 0.85836 0.0
C3846 C 0.83993 0.6105 0.85612 0.0
C3847 C 0.85919 0.61323 0.85022 0.0
C3848 C 0.82743 0.59568 0.84674 0.0
C3849 C 0.81196 0.59785 0.86434 0.0
N3850 N 0.84893 0.60783 0.84935 0.0
N3851 N 0.82144 0.60452 0.86395 0.0
H3852 H 0.191 0.09171 0.64771 0.0
H3853 H 0.12554 0.10524 0.65546 0.0
H3854 H 0.16774 0.06961 0.66548 0.0
H3855 H 0.15027 0.13138 0.64766 0.0
H3856 H 0.14105 0.09236 0.65972 0.0
H3857 H 0.1766 0.10665 0.64816 0.0
C3858 C 0.18296 0.09005 0.65188 0.0
C3859 C 0.18053 0.0793 0.65641 0.0
C3860 C 0.1431 0.10096 0.6572 0.0
C3861 C 0.16394 0.09631 0.65675 0.0
C3862 C 0.13421 0.10839 0.65484 0.0
C3863 C 0.13652 0.11948 0.65112 0.0
C3864 C 0.15445 0.1045 0.65568 0.0
C3865 C 0.14803 0.12287 0.65025 0.0
C3866 C 0.17472 0.09858 0.65209 0.0
C3867 C 0.16989 0.07764 0.66162 0.0
N3868 N 0.15655 0.11537 0.65237 0.0
N3869 N 0.16196 0.08599 0.66152 0.0
H3870 H 0.6893 0.41387 0.37011 0.0
H3871 H 0.62348 0.40212 0.35517 0.0
H3872 H 0.66721 0.43817 0.3539 0.0
H3873 H 0.6446 0.37874 0.37381 0.0
H3874 H 0.64004 0.41455 0.35278 0.0
H3875 H 0.67365 0.40003 0.36972 0.0
C3876 C 0.68118 0.41629 0.36643 0.0
C3877 C 0.67957 0.42725 0.36209 0.0
C3878 C 0.64108 0.40667 0.35733 0.0
C3879 C 0.66163 0.41141 0.36157 0.0
C3880 C 0.63161 0.39959 0.35874 0.0
C3881 C 0.63262 0.38942 0.36479 0.0
C3882 C 0.65166 0.4036 0.36204 0.0
C3883 C 0.64343 0.38647 0.36903 0.0
C3884 C 0.67227 0.40836 0.36617 0.0
C3885 C 0.66891 0.42982 0.35724 0.0
N3886 N 0.65251 0.39356 0.36765 0.0
N3887 N 0.66035 0.42199 0.35718 0.0
H3888 H 0.32109 0.93622 0.1588 0.0
H3889 H 0.35205 0.88148 0.13306 0.0
H3890 H 0.30484 0.91267 0.13549 0.0
H3891 H 0.36866 0.9058 0.1553 0.0
H3892 H 0.33416 0.8918 0.13524 0.0
H3893 H 0.33809 0.92431 0.15887 0.0
C3894 C 0.32109 0.92853 0.15371 0.0
C3895 C 0.31155 0.92549 0.14706 0.0
C3896 C 0.3417 0.89485 0.1397 0.0
C3897 C 0.33098 0.91176 0.14715 0.0
C3898 C 0.35191 0.88891 0.13852 0.0
C3899 C 0.3619 0.89281 0.14395 0.0
C3900 C 0.34145 0.90477 0.14637 0.0
C3901 C 0.36122 0.90259 0.1508 0.0
C3902 C 0.33079 0.92171 0.15379 0.0
C3903 C 0.31196 0.91532 0.1408 0.0
N3904 N 0.35119 0.90825 0.15177 0.0
N3905 N 0.32154 0.90886 0.14094 0.0
H3906 H 0.8059 0.41343 0.62895 0.0
H3907 H 0.86548 0.40181 0.65973 0.0
H3908 H 0.81575 0.42942 0.66059 0.0
H3909 H 0.85232 0.38123 0.63213 0.0
H3910 H 0.84729 0.41191 0.6604 0.0
H3911 H 0.82282 0.40142 0.63009 0.0
C3912 C 0.81162 0.41438 0.63615 0.0
C3913 C 0.80947 0.42247 0.64465 0.0
C3914 C 0.84834 0.40511 0.65427 0.0
C3915 C 0.82886 0.40878 0.64602 0.0
C3916 C 0.85874 0.39938 0.65386 0.0
C3917 C 0.86043 0.3907 0.64583 0.0
C3918 C 0.83962 0.40223 0.64651 0.0
C3919 C 0.85136 0.38781 0.63851 0.0
C3920 C 0.82124 0.40749 0.63684 0.0
C3921 C 0.81707 0.42325 0.65388 0.0
N3922 N 0.84139 0.39363 0.63895 0.0
N3923 N 0.82649 0.41657 0.65427 0.0
H3924 H 0.30434 0.10107 0.36904 0.0
H3925 H 0.36791 0.10849 0.34566 0.0
H3926 H 0.319 0.07943 0.34334 0.0
H3927 H 0.35305 0.13035 0.37106 0.0
H3928 H 0.34953 0.09873 0.34351 0.0
H3929 H 0.32156 0.11287 0.36874 0.0
C3930 C 0.31117 0.09883 0.3633 0.0
C3931 C 0.31026 0.08919 0.35627 0.0
C3932 C 0.35026 0.10572 0.34948 0.0
C3933 C 0.33 0.10269 0.35586 0.0
C3934 C 0.36076 0.11127 0.35075 0.0
C3935 C 0.36205 0.12019 0.35861 0.0
C3936 C 0.34097 0.10907 0.35618 0.0
C3937 C 0.35244 0.12356 0.36484 0.0
C3938 C 0.32098 0.1056 0.3631 0.0
C3939 C 0.31929 0.08681 0.34886 0.0
N3940 N 0.34235 0.11794 0.36356 0.0
N3941 N 0.32882 0.09345 0.34892 0.0
H3942 H 0.66955 0.57056 0.16606 0.0
H3943 H 0.65293 0.63343 0.14723 0.0
H3944 H 0.69216 0.59212 0.14686 0.0
H3945 H 0.62844 0.607 0.15484 0.0
H3946 H 0.66837 0.62005 0.15111 0.0
H3947 H 0.65547 0.58575 0.16631 0.0
C3948 C 0.67159 0.57851 0.16195 0.0
C3949 C 0.68198 0.57997 0.15624 0.0
C3950 C 0.65959 0.61728 0.15204 0.0
C3951 C 0.66593 0.59745 0.15663 0.0
C3952 C 0.65076 0.62488 0.14976 0.0
C3953 C 0.63929 0.62137 0.1506 0.0
C3954 C 0.65695 0.60614 0.1553 0.0
C3955 C 0.63708 0.61023 0.15421 0.0
C3956 C 0.66356 0.58719 0.16214 0.0
C3957 C 0.68428 0.59059 0.15137 0.0
N3958 N 0.64581 0.60303 0.15637 0.0
N3959 N 0.67626 0.5989 0.15158 0.0
H3960 H 0.18865 0.91651 0.87149 0.0
H3961 H 0.12788 0.89606 0.84774 0.0
H3962 H 0.1706 0.93315 0.8443 0.0
H3963 H 0.14656 0.87845 0.87385 0.0
H3964 H 0.14426 0.9087 0.84514 0.0
H3965 H 0.17432 0.90136 0.87112 0.0
C3966 C 0.18178 0.91689 0.86531 0.0
C3967 C 0.18077 0.92619 0.85799 0.0
C3968 C 0.14483 0.90201 0.85137 0.0
C3969 C 0.16421 0.90896 0.85766 0.0
C3970 C 0.13545 0.89483 0.85289 0.0
C3971 C 0.13581 0.88626 0.8611 0.0
C3972 C 0.15462 0.90069 0.85818 0.0
C3973 C 0.14593 0.88491 0.86739 0.0
C3974 C 0.17355 0.90827 0.86516 0.0
C3975 C 0.1716 0.92628 0.85026 0.0
N3976 N 0.15488 0.89212 0.86588 0.0
N3977 N 0.16363 0.91785 0.85037 0.0
H3978 H 0.85907 0.79379 0.61175 0.0
H3979 H 0.82862 0.85201 0.62923 0.0
H3980 H 0.83947 0.81399 0.58833 0.0
H3981 H 0.85093 0.83326 0.65149 0.0
H3982 H 0.83187 0.83787 0.61433 0.0
H3983 H 0.85533 0.80773 0.62668 0.0
C3984 C 0.8539 0.80112 0.60977 0.0
C3985 C 0.84957 0.80271 0.59876 0.0
C3986 C 0.83604 0.83685 0.62248 0.0
C3987 C 0.84535 0.8188 0.61582 0.0
C3988 C 0.83424 0.84496 0.63098 0.0
C3989 C 0.8395 0.84384 0.64166 0.0
C3990 C 0.84314 0.82754 0.62465 0.0
C3991 C 0.84654 0.8344 0.64347 0.0
C3992 C 0.85183 0.80912 0.61828 0.0
C3993 C 0.84309 0.81248 0.59665 0.0
N3994 N 0.84816 0.82664 0.63506 0.0
N3995 N 0.84116 0.82014 0.6051 0.0
H3996 H 0.94091 0.13718 0.30863 0.0
H3997 H 0.88467 0.15738 0.34124 0.0
H3998 H 0.9157 0.15898 0.29338 0.0
H3999 H 0.91042 0.13559 0.35559 0.0
H4000 H 0.89568 0.15822 0.32363 0.0
H4001 H 0.92972 0.13677 0.32594 0.0
C4002 C 0.93305 0.14197 0.30895 0.0
C4003 C 0.9293 0.1482 0.29954 0.0
C4004 C 0.89892 0.15328 0.33065 0.0
C4005 C 0.91628 0.14763 0.31939 0.0
C4006 C 0.89262 0.15277 0.34069 0.0
C4007 C 0.89665 0.14646 0.34995 0.0
C4008 C 0.9093 0.14742 0.32986 0.0
C4009 C 0.90706 0.14073 0.34878 0.0
C4010 C 0.92661 0.14167 0.31884 0.0
C4011 C 0.91889 0.15401 0.30039 0.0
N4012 N 0.91299 0.14134 0.33894 0.0
N4013 N 0.91275 0.15361 0.31016 0.0
H4014 H 0.62699 0.19891 0.10196 0.0
H4015 H 0.67044 0.18046 0.15116 0.0
H4016 H 0.65686 0.21845 0.11152 0.0
H4017 H 0.6398 0.16177 0.14232 0.0
H4018 H 0.66556 0.1946 0.13686 0.0
H4019 H 0.63161 0.18521 0.11672 0.0
C4020 C 0.63456 0.20029 0.10714 0.0
C4021 C 0.64157 0.20983 0.10547 0.0
C4022 C 0.6599 0.18741 0.13806 0.0
C4023 C 0.64686 0.19421 0.12249 0.0
C4024 C 0.66265 0.17936 0.14627 0.0
C4025 C 0.65554 0.16988 0.14793 0.0
C4026 C 0.64996 0.18598 0.13145 0.0
C4027 C 0.64563 0.16884 0.14122 0.0
C4028 C 0.63715 0.1925 0.11561 0.0
C4029 C 0.65115 0.21129 0.11257 0.0
N4030 N 0.64315 0.17677 0.13328 0.0
N4031 N 0.65353 0.20355 0.12074 0.0
H4032 H 0.57269 0.84628 0.80341 0.0
H4033 H 0.62248 0.87326 0.84206 0.0
H4034 H 0.57273 0.88093 0.81552 0.0
H4035 H 0.61944 0.83736 0.83507 0.0
H4036 H 0.60488 0.87643 0.83133 0.0
H4037 H 0.59046 0.84303 0.81392 0.0
C4038 C 0.57647 0.85321 0.80825 0.0
C4039 C 0.57121 0.86389 0.80861 0.0
C4040 C 0.60805 0.86785 0.83215 0.0
C4041 C 0.59151 0.86023 0.82068 0.0
C4042 C 0.61813 0.86605 0.83822 0.0
C4043 C 0.62244 0.85503 0.83945 0.0
C4044 C 0.60224 0.85858 0.8272 0.0
C4045 C 0.61636 0.84598 0.83442 0.0
C4046 C 0.58657 0.85134 0.81429 0.0
C4047 C 0.57641 0.87253 0.81511 0.0
N4048 N 0.60659 0.84796 0.82848 0.0
N4049 N 0.58628 0.87052 0.82085 0.0
H4050 H 0.83866 0.17734 0.93965 0.0
H4051 H 0.86146 0.15402 0.88006 0.0
H4052 H 0.86333 0.19506 0.91912 0.0
H4053 H 0.84048 0.13444 0.90279 0.0
H4054 H 0.85991 0.17032 0.8929 0.0
H4055 H 0.83699 0.16275 0.9249 0.0
C4056 C 0.84368 0.1782 0.93201 0.0
C4057 C 0.85125 0.18738 0.9307 0.0
C4058 C 0.85557 0.16248 0.89504 0.0
C4059 C 0.84933 0.17072 0.91373 0.0
C4060 C 0.8564 0.15319 0.88768 0.0
C4061 C 0.85116 0.14282 0.8904 0.0
C4062 C 0.84945 0.16141 0.90519 0.0
C4063 C 0.84481 0.14221 0.90045 0.0
C4064 C 0.84269 0.16988 0.92358 0.0
C4065 C 0.85735 0.18817 0.9205 0.0
N4066 N 0.84418 0.15136 0.9075 0.0
N4067 N 0.85633 0.1799 0.91246 0.0
H4068 H 0.58308 0.15708 0.71158 0.0
H4069 H 0.61977 0.14032 0.65693 0.0
H4070 H 0.57244 0.13204 0.68669 0.0
H4071 H 0.63228 0.16264 0.68345 0.0
H4072 H 0.60217 0.13756 0.66758 0.0
H4073 H 0.60103 0.15949 0.70136 0.0
C4074 C 0.58453 0.15204 0.704 0.0
C4075 C 0.57619 0.14437 0.69998 0.0
C4076 C 0.60877 0.14305 0.6711 0.0
C4077 C 0.5967 0.14719 0.68817 0.0
C4078 C 0.61879 0.14467 0.66498 0.0
C4079 C 0.62749 0.15176 0.66928 0.0
C4080 C 0.60737 0.14858 0.68159 0.0
C4081 C 0.62584 0.15703 0.67986 0.0
C4082 C 0.59477 0.15347 0.69815 0.0
C4083 C 0.57851 0.1382 0.69002 0.0
N4084 N 0.61595 0.15538 0.68563 0.0
N4085 N 0.58852 0.13976 0.68446 0.0
H4086 H 0.62946 0.79016 0.38913 0.0
H4087 H 0.66523 0.84607 0.37364 0.0
H4088 H 0.65083 0.80837 0.41313 0.0
H4089 H 0.64294 0.82849 0.34999 0.0
H4090 H 0.66016 0.83229 0.38819 0.0
H4091 H 0.63456 0.80394 0.37459 0.0
C4092 C 0.63527 0.79702 0.39133 0.0
C4093 C 0.63972 0.79809 0.40238 0.0
C4094 C 0.65638 0.83144 0.37981 0.0
C4095 C 0.64552 0.81399 0.38578 0.0
C4096 C 0.65923 0.83935 0.37151 0.0
C4097 C 0.65451 0.83845 0.36056 0.0
C4098 C 0.64875 0.82255 0.37717 0.0
C4099 C 0.64692 0.82944 0.35826 0.0
C4100 C 0.63813 0.80493 0.38304 0.0
C4101 C 0.64708 0.80728 0.40478 0.0
N4102 N 0.64427 0.82185 0.36649 0.0
N4103 N 0.64975 0.81485 0.39655 0.0
H4104 H 0.93997 0.85204 0.19081 0.0
H4105 H 0.88295 0.87699 0.16304 0.0
H4106 H 0.92104 0.87998 0.20505 0.0
H4107 H 0.90437 0.8522 0.14664 0.0
H4108 H 0.8951 0.87601 0.17994 0.0
H4109 H 0.92532 0.84985 0.17608 0.0
C4110 C 0.93264 0.8576 0.19094 0.0
C4111 C 0.93177 0.86627 0.19912 0.0
C4112 C 0.89709 0.87071 0.17268 0.0
C4113 C 0.91505 0.86391 0.1822 0.0
C4114 C 0.89011 0.8712 0.16306 0.0
C4115 C 0.89271 0.86473 0.15338 0.0
C4116 C 0.90674 0.86369 0.17264 0.0
C4117 C 0.90216 0.85748 0.15385 0.0
C4118 C 0.92432 0.8564 0.18248 0.0
C4119 C 0.92214 0.87331 0.1988 0.0
N4120 N 0.90888 0.8572 0.16328 0.0
N4121 N 0.9142 0.87202 0.19044 0.0
H4122 H 0.07789 0.62605 0.19415 0.0
H4123 H 0.1262 0.67071 0.17633 0.0
H4124 H 0.0789 0.66067 0.20633 0.0
H4125 H 0.12773 0.63489 0.16859 0.0
H4126 H 0.10862 0.66738 0.18696 0.0
H4127 H 0.09589 0.6293 0.18428 0.0
C4128 C 0.08189 0.63435 0.19472 0.0
C4129 C 0.07687 0.64312 0.20104 0.0
C4130 C 0.11283 0.66025 0.18298 0.0
C4131 C 0.09752 0.64689 0.18981 0.0
C4132 C 0.12283 0.66215 0.17687 0.0
C4133 C 0.12843 0.65306 0.17156 0.0
C4134 C 0.10833 0.64919 0.18372 0.0
C4135 C 0.12376 0.64213 0.17265 0.0
C4136 C 0.09221 0.63619 0.18914 0.0
C4137 C 0.08252 0.65365 0.20163 0.0
N4138 N 0.11396 0.64051 0.17855 0.0
N4139 N 0.09251 0.65527 0.19603 0.0
H4140 H 0.16062 0.30735 0.91487 0.0
H4141 H 0.14788 0.32754 0.85134 0.0
H4142 H 0.13926 0.28868 0.89123 0.0
H4143 H 0.17224 0.34421 0.8736 0.0
H4144 H 0.14435 0.31345 0.86599 0.0
H4145 H 0.16458 0.32126 0.90007 0.0
C4146 C 0.15673 0.3062 0.90657 0.0
C4147 C 0.14959 0.29684 0.90429 0.0
C4148 C 0.15049 0.32017 0.86767 0.0
C4149 C 0.15413 0.3127 0.88729 0.0
C4150 C 0.15257 0.3282 0.85927 0.0
C4151 C 0.16041 0.33709 0.8612 0.0
C4152 C 0.15625 0.32102 0.87813 0.0
C4153 C 0.16603 0.3376 0.87176 0.0
C4154 C 0.15905 0.31411 0.89811 0.0
C4155 C 0.14492 0.29569 0.89334 0.0
N4156 N 0.16383 0.32969 0.87982 0.0
N4157 N 0.14724 0.30354 0.88526 0.0
H4158 H 0.43355 0.34481 0.69286 0.0
H4159 H 0.38916 0.38237 0.65858 0.0
H4160 H 0.42344 0.37842 0.70336 0.0
H4161 H 0.3939 0.3466 0.65199 0.0
H4162 H 0.4009 0.38074 0.67559 0.0
H4163 H 0.41852 0.34493 0.67834 0.0
C4164 C 0.42811 0.35217 0.69216 0.0
C4165 C 0.4298 0.36165 0.69928 0.0
C4166 C 0.39928 0.37321 0.67049 0.0
C4167 C 0.41262 0.36187 0.68267 0.0
C4168 C 0.39249 0.37412 0.66078 0.0
C4169 C 0.39056 0.36462 0.65373 0.0
C4170 C 0.40432 0.36277 0.67316 0.0
C4171 C 0.39533 0.35421 0.657 0.0
C4172 C 0.4195 0.35222 0.68391 0.0
C4173 C 0.4224 0.37091 0.6981 0.0
N4174 N 0.40208 0.35359 0.6664 0.0
N4175 N 0.41423 0.37084 0.68987 0.0
H4176 H 0.16364 0.70001 0.59615 0.0
H4177 H 0.14921 0.67815 0.65858 0.0
H4178 H 0.14075 0.71735 0.61891 0.0
H4179 H 0.17562 0.66362 0.6377 0.0
H4180 H 0.14584 0.69243 0.64408 0.0
H4181 H 0.1678 0.6863 0.61107 0.0
C4182 C 0.15946 0.70091 0.60428 0.0
C4183 C 0.15181 0.70982 0.60628 0.0
C4184 C 0.15241 0.68615 0.64268 0.0
C4185 C 0.15659 0.69419 0.62343 0.0
C4186 C 0.15439 0.67802 0.65101 0.0
C4187 C 0.16273 0.66964 0.64939 0.0
C4188 C 0.15874 0.6859 0.63261 0.0
C4189 C 0.169 0.6698 0.63926 0.0
C4190 C 0.16189 0.69312 0.61282 0.0
C4191 C 0.14678 0.71067 0.61703 0.0
N4192 N 0.16685 0.67777 0.63125 0.0
N4193 N 0.14922 0.70293 0.62518 0.0
H4194 H 0.33852 0.31344 0.08912 0.0
H4195 H 0.35243 0.33328 0.15286 0.0
H4196 H 0.35965 0.29447 0.11228 0.0
H4197 H 0.32888 0.35083 0.13088 0.0
H4198 H 0.3552 0.31904 0.13804 0.0
H4199 H 0.33505 0.32738 0.10418 0.0
C4200 C 0.34245 0.31222 0.09737 0.0
C4201 C 0.3494 0.30277 0.09943 0.0
C4202 C 0.3494 0.32599 0.13646 0.0
C4203 C 0.34541 0.31866 0.11673 0.0
C4204 C 0.34776 0.3341 0.14496 0.0
C4205 C 0.34038 0.34328 0.14316 0.0
C4206 C 0.34367 0.32704 0.12602 0.0
C4207 C 0.33475 0.34399 0.13262 0.0
C4208 C 0.34041 0.32015 0.10598 0.0
C4209 C 0.35413 0.30155 0.11033 0.0
N4210 N 0.33652 0.33599 0.12445 0.0
N4211 N 0.35208 0.30941 0.11854 0.0
H4212 H 0.54877 0.40648 0.16942 0.0
H4213 H 0.59882 0.37096 0.14008 0.0
H4214 H 0.55128 0.36997 0.17026 0.0
H4215 H 0.59954 0.40747 0.14333 0.0
H4216 H 0.58021 0.37063 0.14923 0.0
H4217 H 0.56611 0.40718 0.15787 0.0
C4218 C 0.5529 0.39861 0.16707 0.0
C4219 C 0.54864 0.38815 0.17087 0.0
C4220 C 0.58441 0.37873 0.14792 0.0
C4221 C 0.56846 0.38889 0.15775 0.0
C4222 C 0.59507 0.37892 0.14274 0.0
C4223 C 0.60083 0.38925 0.14107 0.0
C4224 C 0.57941 0.38894 0.15147 0.0
C4225 C 0.5954 0.39932 0.14443 0.0
C4226 C 0.56283 0.39902 0.16055 0.0
C4227 C 0.55437 0.37822 0.16766 0.0
N4228 N 0.58502 0.39891 0.14954 0.0
N4229 N 0.56399 0.37884 0.16132 0.0
H4230 H 0.95434 0.60567 0.66946 0.0
H4231 H 0.9073 0.62929 0.62613 0.0
H4232 H 0.93713 0.6377 0.67378 0.0
H4233 H 0.92319 0.5965 0.62259 0.0
H4234 H 0.9186 0.63275 0.6433 0.0
H4235 H 0.94358 0.60246 0.65187 0.0
C4236 C 0.94835 0.61206 0.66668 0.0
C4237 C 0.94662 0.62196 0.67312 0.0
C4238 C 0.91964 0.6248 0.63876 0.0
C4239 C 0.93421 0.6183 0.65304 0.0
C4240 C 0.91314 0.6228 0.62898 0.0
C4241 C 0.91426 0.61257 0.62292 0.0
C4242 C 0.92734 0.61653 0.64254 0.0
C4243 C 0.92213 0.60456 0.62692 0.0
C4244 C 0.94216 0.61019 0.65666 0.0
C4245 C 0.93863 0.62987 0.66917 0.0
N4246 N 0.92834 0.6067 0.63648 0.0
N4247 N 0.93273 0.62787 0.65939 0.0
H4248 H 0.60705 0.35113 0.55952 0.0
H4249 H 0.62775 0.35405 0.62435 0.0
H4250 H 0.62555 0.32448 0.57645 0.0
H4251 H 0.61334 0.38278 0.60692 0.0
H4252 H 0.62626 0.34296 0.60691 0.0
H4253 H 0.60862 0.36277 0.57678 0.0
C4254 C 0.61148 0.34773 0.56683 0.0
C4255 C 0.61611 0.33676 0.56653 0.0
C4256 C 0.62344 0.3517 0.60686 0.0
C4257 C 0.61783 0.34999 0.58633 0.0
C4258 C 0.62435 0.35808 0.61682 0.0
C4259 C 0.62076 0.36942 0.61711 0.0
C4260 C 0.61884 0.35664 0.59705 0.0
C4261 C 0.61614 0.37405 0.60713 0.0
C4262 C 0.61232 0.35437 0.57669 0.0
C4263 C 0.62164 0.33278 0.57632 0.0
N4264 N 0.61533 0.36764 0.5975 0.0
N4265 N 0.62233 0.33937 0.58579 0.0
H4266 H 0.43492 0.66506 0.80704 0.0
H4267 H 0.38093 0.63681 0.83736 0.0
H4268 H 0.41166 0.64177 0.79027 0.0
H4269 H 0.40471 0.65948 0.85427 0.0
H4270 H 0.39085 0.64012 0.81949 0.0
H4271 H 0.42285 0.66461 0.82387 0.0
C4272 C 0.42724 0.65989 0.80688 0.0
C4273 C 0.42436 0.65336 0.79726 0.0
C4274 C 0.39385 0.64444 0.82709 0.0
C4275 C 0.41046 0.65282 0.81651 0.0
C4276 C 0.38814 0.64261 0.83729 0.0
C4277 C 0.39205 0.6478 0.84736 0.0
C4278 C 0.40355 0.65151 0.82694 0.0
C4279 C 0.40152 0.65513 0.84676 0.0
C4280 C 0.42033 0.65966 0.81648 0.0
C4281 C 0.41419 0.64698 0.79747 0.0
N4282 N 0.40698 0.65671 0.83675 0.0
N4283 N 0.40767 0.64679 0.80697 0.0
H4284 H 0.07365 0.34396 0.30282 0.0
H4285 H 0.12672 0.37103 0.33675 0.0
H4286 H 0.07648 0.37954 0.31135 0.0
H4287 H 0.12015 0.33498 0.33488 0.0
H4288 H 0.10928 0.37435 0.32579 0.0
H4289 H 0.09163 0.34054 0.31293 0.0
C4290 C 0.07809 0.35105 0.30677 0.0
C4291 C 0.07356 0.36204 0.30628 0.0
C4292 C 0.11165 0.36571 0.32777 0.0
C4293 C 0.09409 0.35821 0.31786 0.0
C4294 C 0.12165 0.36381 0.33395 0.0
C4295 C 0.12488 0.35271 0.33673 0.0
C4296 C 0.10487 0.35645 0.32425 0.0
C4297 C 0.1179 0.34368 0.33301 0.0
C4298 C 0.08831 0.34909 0.31259 0.0
C4299 C 0.0796 0.37092 0.31164 0.0
N4300 N 0.10824 0.34574 0.32694 0.0
N4301 N 0.08956 0.36881 0.31719 0.0
H4302 H 0.36144 0.69782 0.41878 0.0
H4303 H 0.33784 0.63651 0.40105 0.0
H4304 H 0.33798 0.6783 0.43907 0.0
H4305 H 0.36035 0.65647 0.38016 0.0
H4306 H 0.33609 0.65263 0.41406 0.0
H4307 H 0.3593 0.68385 0.4035 0.0
C4308 C 0.35568 0.69071 0.41996 0.0
C4309 C 0.34997 0.68918 0.43029 0.0
C4310 C 0.34132 0.65354 0.40657 0.0
C4311 C 0.34766 0.67302 0.41288 0.0
C4312 C 0.34235 0.64432 0.39917 0.0
C4313 C 0.34935 0.64511 0.38957 0.0
C4314 C 0.3474 0.66361 0.40444 0.0
C4315 C 0.35484 0.6555 0.38744 0.0
C4316 C 0.35453 0.68268 0.41124 0.0
C4317 C 0.34273 0.6797 0.43135 0.0
N4318 N 0.35385 0.6643 0.39488 0.0
N4319 N 0.34187 0.67194 0.42281 0.0
H4320 H 0.1094 0.29028 0.01888 0.0
H4321 H 0.10142 0.34848 0.05215 0.0
H4322 H 0.10461 0.32237 1.00207 0.0
H4323 H 0.09733 0.31588 0.06808 0.0
H4324 H 0.10207 0.33903 0.03363 0.0
H4325 H 0.10436 0.29929 0.03688 0.0
C4326 C 0.10714 0.29917 0.01892 0.0
C4327 C 0.10757 0.30559 0.00892 0.0
C4328 C 0.10088 0.33393 0.04115 0.0
C4329 C 0.10199 0.31601 0.02957 0.0
C4330 C 0.10054 0.33933 0.05171 0.0
C4331 C 0.09938 0.33293 0.06163 0.0
C4332 C 0.10025 0.32203 0.04051 0.0
C4333 C 0.09818 0.32111 0.06061 0.0
C4334 C 0.10431 0.30433 0.02922 0.0
C4335 C 0.10467 0.31714 0.00957 0.0
N4336 N 0.0988 0.31602 0.05024 0.0
N4337 N 0.10213 0.32199 0.01973 0.0
H4338 H 0.95423 0.8519 0.31636 0.0
H4339 H 0.95298 0.8929 0.37073 0.0
H4340 H 0.96518 0.88695 0.31609 0.0
H4341 H 0.94354 0.85744 0.37183 0.0
H4342 H 0.95829 0.89056 0.35091 0.0
H4343 H 0.95093 0.85347 0.33679 0.0
C4344 C 0.95596 0.85992 0.3206 0.0
C4345 C 0.95994 0.86932 0.31448 0.0
C4346 C 0.95512 0.88326 0.35548 0.0
C4347 C 0.95622 0.87117 0.33788 0.0
C4348 C 0.95215 0.88457 0.36686 0.0
C4349 C 0.94781 0.87535 0.37301 0.0
C4350 C 0.9537 0.87266 0.35014 0.0
C4351 C 0.94671 0.86483 0.3674 0.0
C4352 C 0.95413 0.8608 0.33227 0.0
C4353 C 0.96222 0.87944 0.32046 0.0
N4354 N 0.9496 0.86378 0.35628 0.0
N4355 N 0.96026 0.88011 0.33179 0.0
H4356 H 0.40523 0.70524 0.51288 0.0
H4357 H 0.40534 0.68091 0.57615 0.0
H4358 H 0.38696 0.72114 0.54035 0.0
H4359 H 0.4244 0.66643 0.54841 0.0
H4360 H 0.39903 0.69615 0.56357 0.0
H4361 H 0.41294 0.69145 0.52616 0.0
C4362 C 0.40284 0.70582 0.52173 0.0
C4363 C 0.39535 0.71428 0.52549 0.0
C4364 C 0.40466 0.68967 0.56028 0.0
C4365 C 0.4042 0.6985 0.54082 0.0
C4366 C 0.40822 0.68094 0.56744 0.0
C4367 C 0.41542 0.67236 0.56335 0.0
C4368 C 0.40827 0.68979 0.54893 0.0
C4369 C 0.41899 0.67292 0.55201 0.0
C4370 C 0.40728 0.69797 0.52934 0.0
C4371 C 0.39273 0.71477 0.5371 0.0
N4372 N 0.41533 0.68143 0.54521 0.0
N4373 N 0.39708 0.70692 0.54435 0.0
H4374 H 0.54061 0.13342 0.81188 0.0
H4375 H 0.5731 0.17014 0.8586 0.0
H4376 H 0.54692 0.16941 0.80888 0.0
H4377 H 0.56208 0.13557 0.86415 0.0
H4378 H 0.56151 0.17061 0.84143 0.0
H4379 H 0.54633 0.1345 0.83182 0.0
C4380 C 0.54297 0.1416 0.81546 0.0
C4381 C 0.54344 0.15131 0.80863 0.0
C4382 C 0.56149 0.16297 0.84647 0.0
C4383 C 0.55023 0.15256 0.83143 0.0
C4384 C 0.56805 0.16271 0.85638 0.0
C4385 C 0.56872 0.15274 0.86282 0.0
C4386 C 0.55563 0.15314 0.84285 0.0
C4387 C 0.56207 0.14336 0.85932 0.0
C4388 C 0.54631 0.1422 0.82685 0.0
C4389 C 0.54669 0.16165 0.81374 0.0
N4390 N 0.55595 0.14373 0.8495 0.0
N4391 N 0.5501 0.16197 0.82478 0.0
H4392 H 0.12542 0.686 0.50191 0.0
H4393 H 0.09459 0.69085 0.44128 0.0
H4394 H 0.10325 0.71376 0.49308 0.0
H4395 H 0.12039 0.66619 0.44948 0.0
H4396 H 0.09589 0.69827 0.46078 0.0
H4397 H 0.12191 0.67755 0.4833 0.0
C4398 C 0.1197 0.69026 0.4961 0.0
C4399 C 0.1146 0.7006 0.49908 0.0
C4400 C 0.10123 0.69121 0.4583 0.0
C4401 C 0.11068 0.69102 0.4776 0.0
C4402 C 0.10044 0.68694 0.44722 0.0
C4403 C 0.10748 0.67797 0.44375 0.0
C4404 C 0.10904 0.6864 0.46596 0.0
C4405 C 0.11495 0.67324 0.45175 0.0
C4406 C 0.11776 0.68546 0.48542 0.0
C4407 C 0.10744 0.70583 0.49109 0.0
N4408 N 0.11555 0.67752 0.46245 0.0
N4409 N 0.1057 0.70099 0.4807 0.0
H4410 H 0.53906 0.85161 0.69703 0.0
H4411 H 0.5761 0.87707 0.64666 0.0
H4412 H 0.5519 0.88601 0.69628 0.0
H4413 H 0.56333 0.84261 0.64696 0.0
H4414 H 0.5646 0.88132 0.66327 0.0
H4415 H 0.54523 0.84899 0.6774 0.0
C4416 C 0.54298 0.85868 0.69268 0.0
C4417 C 0.5451 0.869 0.69837 0.0
C4418 C 0.56419 0.87286 0.65963 0.0
C4419 C 0.55234 0.86601 0.67595 0.0
C4420 C 0.57069 0.87044 0.65005 0.0
C4421 C 0.57081 0.85941 0.64544 0.0
C4422 C 0.5578 0.86418 0.66474 0.0
C4423 C 0.56371 0.85117 0.65036 0.0
C4424 C 0.54657 0.85716 0.68148 0.0
C4425 C 0.55031 0.87783 0.69231 0.0
N4426 N 0.55761 0.85368 0.65983 0.0
N4427 N 0.55385 0.87609 0.68149 0.0
H4428 H 0.40748 0.32242 0.00748 0.0
H4429 H 0.40328 0.33845 0.94164 0.0
H4430 H 0.38237 0.30774 0.9847 0.0
H4431 H 0.42642 0.35438 0.96565 0.0
H4432 H 0.39648 0.32596 0.95673 0.0
H4433 H 0.41559 0.3329 0.99166 0.0
C4434 C 0.40366 0.32141 0.99913 0.0
C4435 C 0.39414 0.3143 0.99744 0.0
C4436 C 0.4031 0.33214 0.95865 0.0
C4437 C 0.40345 0.32626 0.97921 0.0
C4438 C 0.40696 0.33931 0.95005 0.0
C4439 C 0.41545 0.34751 0.95235 0.0
C4440 C 0.40775 0.33318 0.96963 0.0
C4441 C 0.42 0.3481 0.96339 0.0
C4442 C 0.40833 0.32737 0.99008 0.0
C4443 C 0.38973 0.31312 0.98638 0.0
N4444 N 0.41607 0.34109 0.9716 0.0
N4445 N 0.39437 0.31911 0.97769 0.0
H4446 H 0.95457 0.12686 0.19575 0.0
H4447 H 0.95896 0.14832 0.13155 0.0
H4448 H 0.98114 0.14942 0.18413 0.0
H4449 H 0.93544 0.1224 0.14267 0.0
H4450 H 0.9664 0.14992 0.15097 0.0
H4451 H 0.94666 0.12618 0.17655 0.0
C4452 C 0.9587 0.13174 0.18917 0.0
C4453 C 0.96853 0.13822 0.19156 0.0
C4454 C 0.95961 0.14389 0.14915 0.0
C4455 C 0.95957 0.13741 0.16949 0.0
C4456 C 0.95532 0.14302 0.13809 0.0
C4457 C 0.9466 0.13518 0.13548 0.0
C4458 C 0.9551 0.13692 0.15768 0.0
C4459 C 0.94227 0.12845 0.14426 0.0
C4460 C 0.95422 0.13129 0.17819 0.0
C4461 C 0.97362 0.14423 0.18264 0.0
N4462 N 0.94656 0.12948 0.15496 0.0
N4463 N 0.96907 0.14369 0.172 0.0
H4464 H 0.03129 0.10622 0.28678 0.0
H4465 H 0.07781 0.11674 0.33542 0.0
H4466 H 0.03907 0.13917 0.3012 0.0
H4467 H 0.07305 0.08443 0.31846 0.0
H4468 H 0.06465 0.12532 0.32196 0.0
H4469 H 0.04749 0.09833 0.29717 0.0
C4470 C 0.03651 0.11185 0.29197 0.0
C4471 C 0.03372 0.12337 0.29319 0.0
C4472 C 0.06655 0.11637 0.3211 0.0
C4473 C 0.05218 0.11433 0.30529 0.0
C4474 C 0.07415 0.11146 0.32876 0.0
C4475 C 0.07654 0.0998 0.32814 0.0
C4476 C 0.06118 0.10959 0.31278 0.0
C4477 C 0.07132 0.0934 0.31942 0.0
C4478 C 0.04573 0.10731 0.29797 0.0
C4479 C 0.04074 0.1302 0.30017 0.0
N4480 N 0.06382 0.09835 0.31214 0.0
N4481 N 0.04956 0.12556 0.30602 0.0
H4482 H 0.1235 0.81154 0.54633 0.0
H4483 H 0.16202 0.84958 0.58748 0.0
H4484 H 0.1577 0.80275 0.55678 0.0
H4485 H 0.12973 0.86087 0.57383 0.0
H4486 H 0.16137 0.83338 0.57463 0.0
H4487 H 0.12629 0.83044 0.55465 0.0
C4488 C 0.13167 0.81364 0.5502 0.0
C4489 C 0.14032 0.80548 0.551 0.0
C4490 C 0.15448 0.83946 0.57433 0.0
C4491 C 0.14351 0.82705 0.56068 0.0
C4492 C 0.15489 0.84882 0.58163 0.0
C4493 C 0.14586 0.85662 0.58185 0.0
C4494 C 0.14492 0.83776 0.56726 0.0
C4495 C 0.13677 0.85497 0.57416 0.0
C4496 C 0.13323 0.82442 0.555 0.0
C4497 C 0.15069 0.80867 0.55619 0.0
N4498 N 0.13646 0.84565 0.56728 0.0
N4499 N 0.15194 0.81914 0.56093 0.0
H4500 H 0.46448 0.91011 0.78102 0.0
H4501 H 0.43015 0.89424 0.83732 0.0
H4502 H 0.46499 0.87705 0.79657 0.0
H4503 H 0.43016 0.92772 0.82265 0.0
H4504 H 0.4416 0.88745 0.82149 0.0
H4505 H 0.4506 0.91634 0.79517 0.0
C4506 C 0.46156 0.90412 0.78732 0.0
C4507 C 0.46597 0.89306 0.78766 0.0
C4508 C 0.43905 0.89627 0.82169 0.0
C4509 C 0.45019 0.90017 0.80396 0.0
C4510 C 0.43243 0.90014 0.8307 0.0
C4511 C 0.42918 0.91158 0.83135 0.0
C4512 C 0.4425 0.90388 0.81323 0.0
C4513 C 0.43259 0.91887 0.82259 0.0
C4514 C 0.4537 0.9077 0.79545 0.0
C4515 C 0.46198 0.88571 0.7961 0.0
N4516 N 0.4391 0.9149 0.81392 0.0
N4517 N 0.45437 0.88941 0.80393 0.0
H4518 H 0.38659 0.20189 0.03198 0.0
H4519 H 0.36278 0.15435 0.07385 0.0
H4520 H 0.3581 0.20721 0.05446 0.0
H4521 H 0.38781 0.14776 0.04791 0.0
H4522 H 0.36069 0.17363 0.06668 0.0
H4523 H 0.38694 0.18196 0.03749 0.0
C4524 C 0.38031 0.19886 0.03798 0.0
C4525 C 0.37232 0.2063 0.04279 0.0
C4526 C 0.36659 0.16794 0.06252 0.0
C4527 C 0.37283 0.18346 0.04929 0.0
C4528 C 0.36775 0.1569 0.06657 0.0
C4529 C 0.37553 0.1494 0.06153 0.0
C4530 C 0.37331 0.17158 0.05338 0.0
C4531 C 0.38186 0.15328 0.05221 0.0
C4532 C 0.38057 0.18748 0.04118 0.0
C4533 C 0.36455 0.20187 0.05067 0.0
N4534 N 0.38065 0.1641 0.04849 0.0
N4535 N 0.36503 0.19077 0.05372 0.0
H4536 H 0.04584 0.90189 0.23646 0.0
H4537 H 0.07038 0.88987 0.17422 0.0
H4538 H 0.02757 0.88336 0.21028 0.0
H4539 H 0.09002 0.90616 0.20089 0.0
H4540 H 0.05403 0.88887 0.18693 0.0
H4541 H 0.06163 0.90479 0.22325 0.0
C4542 C 0.04514 0.89842 0.22795 0.0
C4543 C 0.03534 0.89236 0.2245 0.0
C4544 C 0.06189 0.89272 0.19 0.0
C4545 C 0.05334 0.89576 0.20929 0.0
C4546 C 0.07125 0.89327 0.18275 0.0
C4547 C 0.08162 0.89803 0.18651 0.0
C4548 C 0.06289 0.89694 0.20114 0.0
C4549 C 0.08217 0.90249 0.19759 0.0
C4550 C 0.05414 0.90014 0.22039 0.0
C4551 C 0.03486 0.88822 0.2133 0.0
N4552 N 0.07296 0.90177 0.20454 0.0
N4553 N 0.04373 0.88997 0.20613 0.0
H4554 H 0.35993 0.801 0.43308 0.0
H4555 H 0.37415 0.86332 0.45697 0.0
H4556 H 0.36522 0.80846 0.46866 0.0
H4557 H 0.36818 0.85553 0.42158 0.0
H4558 H 0.37052 0.84341 0.46156 0.0
H4559 H 0.36238 0.82108 0.42887 0.0
C4560 C 0.3615 0.80687 0.44004 0.0
C4561 C 0.36233 0.80301 0.45126 0.0
C4562 C 0.36996 0.84607 0.45279 0.0
C4563 C 0.36533 0.82609 0.44644 0.0
C4564 C 0.37208 0.85743 0.45016 0.0
C4565 C 0.37149 0.86112 0.43886 0.0
C4566 C 0.36726 0.83831 0.44406 0.0
C4567 C 0.3686 0.85312 0.43042 0.0
C4568 C 0.36297 0.81835 0.43761 0.0
C4569 C 0.36462 0.81102 0.45987 0.0
N4570 N 0.36664 0.84211 0.43319 0.0
N4571 N 0.36605 0.82217 0.45728 0.0
H4572 H 0.48576 0.10218 0.70739 0.0
H4573 H 0.42114 0.09807 0.68506 0.0
H4574 H 0.45756 0.11813 0.72455 0.0
H4575 H 0.45019 0.08538 0.6666 0.0
H4576 H 0.43399 0.10411 0.70044 0.0
H4577 H 0.47248 0.0945 0.69327 0.0
C4578 C 0.47676 0.10408 0.70818 0.0
C4579 C 0.47279 0.11093 0.71711 0.0
C4580 C 0.43753 0.09995 0.69304 0.0
C4581 C 0.45747 0.10205 0.70097 0.0
C4582 C 0.43021 0.09654 0.68423 0.0
C4583 C 0.43458 0.09123 0.67448 0.0
C4584 C 0.44931 0.09803 0.69211 0.0
C4585 C 0.44639 0.0893 0.67399 0.0
C4586 C 0.46916 0.09965 0.70013 0.0
C4587 C 0.46099 0.11287 0.71784 0.0
N4588 N 0.45333 0.09274 0.68264 0.0
N4589 N 0.45375 0.10851 0.70983 0.0
H4590 H 0.11425 0.19773 0.95529 0.0
H4591 H 0.15827 0.15139 0.93237 0.0
H4592 H 0.15075 0.20002 0.96004 0.0
H4593 H 0.12278 0.15272 0.92235 0.0
H4594 H 0.155 0.16702 0.94568 0.0
H4595 H 0.11663 0.17904 0.94649 0.0
C4596 C 0.12275 0.19421 0.95466 0.0
C4597 C 0.13233 0.20049 0.95829 0.0
C4598 C 0.1479 0.16379 0.94066 0.0
C4599 C 0.13513 0.17917 0.94812 0.0
C4600 C 0.14977 0.15489 0.93303 0.0
C4601 C 0.14083 0.15082 0.92609 0.0
C4602 C 0.13702 0.16868 0.94138 0.0
C4603 C 0.12993 0.15552 0.92753 0.0
C4604 C 0.1241 0.18358 0.94957 0.0
C4605 C 0.14315 0.19555 0.95718 0.0
N4606 N 0.12836 0.16427 0.93492 0.0
N4607 N 0.14426 0.18522 0.95212 0.0
H4608 H 0.30261 0.02971 0.10432 0.0
H4609 H 0.34955 0.07753 0.11759 0.0
H4610 H 0.31601 0.03694 0.13782 0.0
H4611 H 0.33563 0.07105 0.08414 0.0
H4612 H 0.33591 0.06402 0.1254 0.0
H4613 H 0.31313 0.04608 0.09708 0.0
C4614 C 0.30761 0.03484 0.1102 0.0
C4615 C 0.3085 0.03187 0.12169 0.0
C4616 C 0.33576 0.06562 0.11636 0.0
C4617 C 0.32073 0.05053 0.1134 0.0
C4618 C 0.34351 0.07341 0.11189 0.0
C4619 C 0.34381 0.07541 0.10016 0.0
C4620 C 0.32826 0.05971 0.10907 0.0
C4621 C 0.33586 0.06964 0.09321 0.0
C4622 C 0.31369 0.04415 0.10603 0.0
C4623 C 0.31524 0.03877 0.12886 0.0
N4624 N 0.32847 0.062 0.09775 0.0
N4625 N 0.32116 0.04771 0.12458 0.0
H4626 H 0.8099 0.48987 0.90495 0.0
H4627 H 0.84237 0.43172 0.89145 0.0
H4628 H 0.81164 0.47486 0.8715 0.0
H4629 H 0.84569 0.45017 0.92311 0.0
H4630 H 0.82903 0.44608 0.8847 0.0
H4631 H 0.82073 0.47388 0.91245 0.0
C4632 C 0.81242 0.48313 0.8992 0.0
C4633 C 0.8099 0.48373 0.88756 0.0
C4634 C 0.83263 0.44694 0.89315 0.0
C4635 C 0.82242 0.46546 0.89609 0.0
C4636 C 0.8403 0.43877 0.897 0.0
C4637 C 0.84526 0.43975 0.90785 0.0
C4638 C 0.82986 0.45617 0.90019 0.0
C4639 C 0.84202 0.44897 0.91473 0.0
C4640 C 0.81868 0.47405 0.90348 0.0
C4641 C 0.81352 0.47482 0.8805 0.0
N4642 N 0.83458 0.45683 0.91077 0.0
N4643 N 0.81963 0.46607 0.88487 0.0
H4644 H 0.79954 0.54632 0.13154 0.0
H4645 H 0.85557 0.57799 0.15498 0.0
H4646 H 0.79985 0.56863 0.16077 0.0
H4647 H 0.85589 0.55372 0.12737 0.0
H4648 H 0.83529 0.57413 0.15763 0.0
H4649 H 0.82026 0.54842 0.13023 0.0
C4650 C 0.80397 0.55158 0.13775 0.0
C4651 C 0.79791 0.55735 0.14626 0.0
C4652 C 0.8398 0.5696 0.15103 0.0
C4653 C 0.82164 0.5599 0.14471 0.0
C4654 C 0.85142 0.57174 0.14956 0.0
C4655 C 0.85748 0.56619 0.14092 0.0
C4656 C 0.83413 0.56188 0.14378 0.0
C4657 C 0.85155 0.55833 0.13402 0.0
C4658 C 0.8158 0.55282 0.13696 0.0
C4659 C 0.80412 0.56417 0.15396 0.0
N4660 N 0.84021 0.55644 0.13558 0.0
N4661 N 0.81562 0.56529 0.15297 0.0
H4662 H 0.69449 0.52277 0.37158 0.0
H4663 H 0.68592 0.58539 0.3968 0.0
H4664 H 0.71972 0.53993 0.39245 0.0
H4665 H 0.66079 0.5676 0.37636 0.0
H4666 H 0.69808 0.56857 0.39615 0.0
H4667 H 0.68177 0.53888 0.37396 0.0
C4668 C 0.69733 0.52988 0.37676 0.0
C4669 C 0.7082 0.52995 0.38185 0.0
C4670 C 0.68988 0.56834 0.39185 0.0
C4671 C 0.69368 0.54859 0.38448 0.0
C4672 C 0.6829 0.57791 0.39228 0.0
C4673 C 0.67234 0.57793 0.38657 0.0
C4674 C 0.68628 0.55871 0.38567 0.0
C4675 C 0.66894 0.56804 0.38073 0.0
C4676 C 0.69007 0.53913 0.37806 0.0
C4677 C 0.71147 0.53955 0.38826 0.0
N4678 N 0.6759 0.55886 0.3804 0.0
N4679 N 0.70425 0.54848 0.38939 0.0
H4680 H 0.20631 0.95756 0.12241 0.0
H4681 H 0.15613 0.94367 0.16586 0.0
H4682 H 0.20236 0.97498 0.15446 0.0
H4683 H 0.1589 0.92845 0.13257 0.0
H4684 H 0.17215 0.95627 0.16136 0.0
H4685 H 0.18811 0.94786 0.12546 0.0
C4686 C 0.20157 0.95937 0.13007 0.0
C4687 C 0.2059 0.96701 0.13824 0.0
C4688 C 0.16916 0.95026 0.155 0.0
C4689 C 0.18504 0.95592 0.14181 0.0
C4690 C 0.16004 0.94304 0.15757 0.0
C4691 C 0.1562 0.93493 0.14961 0.0
C4692 C 0.17455 0.94931 0.14441 0.0
C4693 C 0.16149 0.93461 0.13895 0.0
C4694 C 0.19116 0.95387 0.13179 0.0
C4695 C 0.19932 0.96918 0.14793 0.0
N4696 N 0.17045 0.9416 0.13671 0.0
N4697 N 0.18927 0.96357 0.1495 0.0
H4698 H 0.2191 0.9712 0.61714 0.0
H4699 H 0.16433 0.93765 0.64018 0.0
H4700 H 0.19826 0.98271 0.64497 0.0
H4701 H 0.18358 0.9266 0.61106 0.0
H4702 H 0.17667 0.95434 0.64183 0.0
H4703 H 0.20633 0.9548 0.61465 0.0
C4704 C 0.21187 0.97026 0.62275 0.0
C4705 C 0.20973 0.97836 0.63125 0.0
C4706 C 0.1782 0.9483 0.63505 0.0
C4707 C 0.19505 0.95969 0.62842 0.0
C4708 C 0.17117 0.93875 0.63413 0.0
C4709 C 0.17298 0.93069 0.62552 0.0
C4710 C 0.18716 0.94982 0.62733 0.0
C4711 C 0.18185 0.93264 0.61779 0.0
C4712 C 0.20454 0.96094 0.62128 0.0
C4713 C 0.20016 0.97678 0.6382 0.0
N4714 N 0.18866 0.94198 0.61892 0.0
N4715 N 0.19321 0.96763 0.63664 0.0
H4716 H 0.79992 0.46076 0.38108 0.0
H4717 H 0.85574 0.44052 0.34779 0.0
H4718 H 0.79935 0.448 0.34666 0.0
H4719 H 0.85563 0.44993 0.38327 0.0
H4720 H 0.83539 0.44486 0.34669 0.0
H4721 H 0.82067 0.45869 0.38143 0.0
C4722 C 0.80417 0.45764 0.37355 0.0
C4723 C 0.79787 0.45449 0.36384 0.0
C4724 C 0.83983 0.44603 0.3547 0.0
C4725 C 0.82163 0.45198 0.36423 0.0
C4726 C 0.85145 0.4435 0.35535 0.0
C4727 C 0.85742 0.44479 0.36566 0.0
C4728 C 0.83411 0.44988 0.36442 0.0
C4729 C 0.85143 0.44891 0.37511 0.0
C4730 C 0.81601 0.45639 0.37378 0.0
C4731 C 0.80384 0.45036 0.35438 0.0
N4732 N 0.84011 0.45125 0.37428 0.0
N4733 N 0.81537 0.4492 0.35483 0.0
H4734 H 0.6979 0.52396 0.8569 0.0
H4735 H 0.6572 0.57828 0.86031 0.0
H4736 H 0.71026 0.55825 0.86192 0.0
H4737 H 0.64475 0.54374 0.86093 0.0
H4738 H 0.67669 0.57117 0.8586 0.0
H4739 H 0.67838 0.53114 0.85634 0.0
C4740 C 0.69653 0.533 0.8579 0.0
C4741 C 0.70578 0.54049 0.85952 0.0
C4742 C 0.66969 0.56514 0.85906 0.0
C4743 C 0.68341 0.54878 0.85873 0.0
C4744 C 0.65855 0.5692 0.85995 0.0
C4745 C 0.64933 0.56159 0.86081 0.0
C4746 C 0.67164 0.55338 0.85897 0.0
C4747 C 0.65162 0.5499 0.86044 0.0
C4748 C 0.68537 0.53709 0.85752 0.0
C4749 C 0.70345 0.55215 0.86052 0.0
N4750 N 0.66254 0.54616 0.85957 0.0
N4751 N 0.69251 0.55592 0.86015 0.0
H4752 H 0.88146 0.70226 0.96005 0.0
H4753 H 0.92142 0.67885 0.91049 0.0
H4754 H 0.91822 0.70084 0.96238 0.0
H4755 H 0.88459 0.67788 0.90924 0.0
H4756 H 0.92049 0.68979 0.92815 0.0
H4757 H 0.88256 0.69625 0.94021 0.0
C4758 C 0.88978 0.70087 0.95634 0.0
C4759 C 0.89976 0.70194 0.96293 0.0
C4760 C 0.9126 0.6873 0.92395 0.0
C4761 C 0.90107 0.69489 0.94024 0.0
C4762 C 0.91313 0.68111 0.91381 0.0
C4763 C 0.90306 0.67733 0.90844 0.0
C4764 C 0.90193 0.68971 0.92876 0.0
C4765 C 0.89257 0.68044 0.91322 0.0
C4766 C 0.8904 0.69736 0.94502 0.0
C4767 C 0.91029 0.69992 0.95768 0.0
N4768 N 0.89228 0.68636 0.92315 0.0
N4769 N 0.91066 0.6964 0.94668 0.0
H4770 H 0.02736 0.13554 0.71473 0.0
H4771 H 0.07247 0.1713 0.67861 0.0
H4772 H 0.04777 0.16294 0.7287 0.0
H4773 H 0.05405 0.14196 0.66587 0.0
H4774 H 0.06159 0.17014 0.69623 0.0
H4775 H 0.03497 0.1397 0.69596 0.0
C4776 C 0.03331 0.14255 0.71383 0.0
C4777 C 0.03702 0.14883 0.72333 0.0
C4778 C 0.05985 0.16404 0.68951 0.0
C4779 C 0.04591 0.15353 0.70187 0.0
C4780 C 0.06608 0.16467 0.67946 0.0
C4781 C 0.06425 0.15667 0.67074 0.0
C4782 C 0.05174 0.15533 0.69087 0.0
C4783 C 0.0557 0.1484 0.67227 0.0
C4784 C 0.03772 0.14487 0.70311 0.0
C4785 C 0.04485 0.15773 0.72165 0.0
N4786 N 0.04986 0.14789 0.68216 0.0
N4787 N 0.0491 0.15976 0.71115 0.0
H4788 H 0.59653 0.28582 0.45784 0.0
H4789 H 0.62271 0.32454 0.40874 0.0
H4790 H 0.63098 0.29901 0.45806 0.0
H4791 H 0.58669 0.31737 0.41195 0.0
H4792 H 0.62649 0.31225 0.42491 0.0
H4793 H 0.59345 0.2944 0.43919 0.0
C4794 C 0.60349 0.2904 0.45389 0.0
C4795 C 0.61399 0.29181 0.45954 0.0
C4796 C 0.61777 0.31328 0.42202 0.0
C4797 C 0.61052 0.30166 0.43827 0.0
C4798 C 0.6156 0.32032 0.41279 0.0
C4799 C 0.60435 0.32213 0.40907 0.0
C4800 C 0.60863 0.30799 0.42759 0.0
C4801 C 0.5955 0.31621 0.4145 0.0
C4802 C 0.60171 0.29533 0.44328 0.0
C4803 C 0.62269 0.29788 0.45408 0.0
N4804 N 0.59782 0.30949 0.42355 0.0
N4805 N 0.62075 0.30262 0.44377 0.0
H4806 H 0.47021 0.86249 0.22623 0.0
H4807 H 0.41341 0.8654 0.18816 0.0
H4808 H 0.43745 0.87337 0.23878 0.0
H4809 H 0.44679 0.85869 0.17439 0.0
H4810 H 0.4218 0.86619 0.20716 0.0
H4811 H 0.46156 0.85931 0.20752 0.0
C4812 C 0.46121 0.86423 0.22506 0.0
C4813 C 0.45457 0.86824 0.23412 0.0
C4814 C 0.42729 0.86448 0.2 0.0
C4815 C 0.44459 0.86447 0.21274 0.0
C4816 C 0.42249 0.86393 0.18914 0.0
C4817 C 0.42941 0.86201 0.17965 0.0
C4818 C 0.43912 0.8631 0.20141 0.0
C4819 C 0.44115 0.86034 0.18145 0.0
C4820 C 0.45627 0.86235 0.21439 0.0
C4821 C 0.4429 0.87014 0.23212 0.0
N4822 N 0.44564 0.86097 0.19211 0.0
N4823 N 0.4383 0.86827 0.22166 0.0
H4824 H 0.91813 0.30973 0.54469 0.0
H4825 H 0.88309 0.33291 0.59779 0.0
H4826 H 0.88133 0.30993 0.54629 0.0
H4827 H 0.91989 0.33208 0.59661 0.0
H4828 H 0.88229 0.32224 0.57995 0.0
H4829 H 0.91898 0.3157 0.56459 0.0
C4830 C 0.91023 0.31095 0.54925 0.0
C4831 C 0.89964 0.30945 0.54377 0.0
C4832 C 0.89055 0.32426 0.58365 0.0
C4833 C 0.90055 0.31628 0.56657 0.0
C4834 C 0.89101 0.33038 0.59382 0.0
C4835 C 0.90157 0.3335 0.59862 0.0
C4836 C 0.90073 0.32132 0.57816 0.0
C4837 C 0.91156 0.32983 0.59322 0.0
C4838 C 0.91072 0.31431 0.56063 0.0
C4839 C 0.88968 0.31094 0.55017 0.0
N4840 N 0.9109 0.32406 0.5832 0.0
N4841 N 0.89038 0.3144 0.56118 0.0
H4842 H 0.48415 0.15375 0.29102 0.0
H4843 H 0.423 0.14225 0.31891 0.0
H4844 H 0.45636 0.1362 0.27405 0.0
H4845 H 0.45144 0.1571 0.3373 0.0
H4846 H 0.43458 0.14186 0.30179 0.0
H4847 H 0.47191 0.15656 0.30755 0.0
C4848 C 0.47549 0.15048 0.29076 0.0
C4849 C 0.47131 0.1447 0.28111 0.0
C4850 C 0.43828 0.14527 0.30955 0.0
C4851 C 0.45721 0.14801 0.29997 0.0
C4852 C 0.43163 0.14559 0.31932 0.0
C4853 C 0.43626 0.14968 0.32959 0.0
C4854 C 0.44967 0.14906 0.31001 0.0
C4855 C 0.44757 0.15372 0.32961 0.0
C4856 C 0.46849 0.15215 0.30018 0.0
C4857 C 0.45993 0.14083 0.28121 0.0
N4858 N 0.45391 0.15326 0.31999 0.0
N4859 N 0.45332 0.14252 0.29049 0.0
H4860 H 0.59092 0.70836 0.04256 0.0
H4861 H 0.62465 0.67728 0.09184 0.0
H4862 H 0.62747 0.70389 0.04261 0.0
H4863 H 0.58962 0.68782 0.09515 0.0
H4864 H 0.62617 0.68837 0.07446 0.0
H4865 H 0.59043 0.70224 0.06236 0.0
C4866 C 0.59885 0.70621 0.04678 0.0
C4867 C 0.60924 0.70654 0.0409 0.0
C4868 C 0.61819 0.68842 0.07905 0.0
C4869 C 0.60874 0.69947 0.06352 0.0
C4870 C 0.61733 0.68207 0.08896 0.0
C4871 C 0.60697 0.68158 0.09485 0.0
C4872 C 0.60857 0.69416 0.0749 0.0
C4873 C 0.59776 0.688 0.09084 0.0
C4874 C 0.59858 0.70276 0.05809 0.0
C4875 C 0.61928 0.70381 0.04682 0.0
N4876 N 0.59872 0.6939 0.081 0.0
N4877 N 0.61876 0.70024 0.05774 0.0
H4878 H 0.05279 0.84924 0.77063 0.0
H4879 H 0.05356 0.86332 0.83708 0.0
H4880 H 0.03001 0.87297 0.78677 0.0
H4881 H 0.07692 0.84001 0.82113 0.0
H4882 H 0.04355 0.86535 0.81905 0.0
H4883 H 0.06059 0.84439 0.78925 0.0
C4884 C 0.04941 0.85341 0.77809 0.0
C4885 C 0.0408 0.86161 0.77711 0.0
C4886 C 0.0508 0.85971 0.81949 0.0
C4887 C 0.04964 0.85603 0.79848 0.0
C4888 C 0.05649 0.85846 0.82984 0.0
C4889 C 0.06615 0.8515 0.83066 0.0
C4890 C 0.05482 0.854 0.80982 0.0
C4891 C 0.06963 0.8456 0.82088 0.0
C4892 C 0.05383 0.8506 0.78873 0.0
C4893 C 0.03659 0.86656 0.78711 0.0
N4894 N 0.06401 0.84704 0.81086 0.0
N4895 N 0.04111 0.86376 0.79735 0.0
H4896 H 0.94274 0.89751 0.70614 0.0
H4897 H 0.87895 0.87381 0.71306 0.0
H4898 H 0.93318 0.87158 0.73006 0.0
H4899 H 0.88925 0.89608 0.686 0.0
H4900 H 0.89846 0.87426 0.72047 0.0
H4901 H 0.92293 0.89827 0.69958 0.0
C4902 C 0.9365 0.89195 0.71 0.0
C4903 C 0.93968 0.88443 0.71865 0.0
C4904 C 0.89646 0.87907 0.71293 0.0
C4905 C 0.91693 0.88537 0.71125 0.0
C4906 C 0.88529 0.87889 0.70874 0.0
C4907 C 0.88245 0.88491 0.69889 0.0
C4908 C 0.90488 0.88536 0.70726 0.0
C4909 C 0.89108 0.8912 0.69354 0.0
C4910 C 0.92517 0.89244 0.70628 0.0
C4911 C 0.93114 0.87761 0.72348 0.0
N4912 N 0.9019 0.89126 0.6978 0.0
N4913 N 0.92018 0.87822 0.71969 0.0
H4914 H 0.88142 0.21712 0.46996 0.0
H4915 H 0.8558 0.19088 0.41224 0.0
H4916 H 0.86246 0.2368 0.44558 0.0
H4917 H 0.875 0.17178 0.43691 0.0
H4918 H 0.85735 0.20764 0.42458 0.0
H4919 H 0.87816 0.20021 0.45834 0.0
C4920 C 0.87646 0.21787 0.46222 0.0
C4921 C 0.87222 0.22843 0.45876 0.0
C4922 C 0.86116 0.19975 0.42731 0.0
C4923 C 0.86859 0.20906 0.44526 0.0
C4924 C 0.86031 0.19019 0.42025 0.0
C4925 C 0.86526 0.17988 0.42353 0.0
C4926 C 0.86703 0.19901 0.43772 0.0
C4927 C 0.87089 0.17947 0.43408 0.0
C4928 C 0.87466 0.20821 0.45553 0.0
C4929 C 0.86603 0.22888 0.44851 0.0
N4930 N 0.87165 0.18889 0.44075 0.0
N4931 N 0.86443 0.21935 0.44211 0.0
H4932 H 0.55702 0.11979 0.18395 0.0
H4933 H 0.61901 0.12122 0.21297 0.0
H4934 H 0.56232 0.11862 0.22021 0.0
H4935 H 0.61308 0.1216 0.17678 0.0
H4936 H 0.59838 0.11966 0.21592 0.0
H4937 H 0.57762 0.11975 0.18128 0.0
C4938 C 0.56251 0.11941 0.19136 0.0
C4939 C 0.55789 0.11917 0.20233 0.0
C4940 C 0.60161 0.12002 0.20733 0.0
C4941 C 0.5816 0.11931 0.19932 0.0
C4942 C 0.61338 0.12094 0.20565 0.0
C4943 C 0.6178 0.12154 0.19461 0.0
C4944 C 0.59419 0.11974 0.19792 0.0
C4945 C 0.6101 0.12101 0.18544 0.0
C4946 C 0.5743 0.11946 0.18983 0.0
C4947 C 0.56548 0.11894 0.21161 0.0
N4948 N 0.5987 0.12019 0.1873 0.0
N4949 N 0.57696 0.11903 0.20989 0.0
H4950 H 0.65865 0.772 0.94741 0.0
H4951 H 0.63992 0.82582 0.91094 0.0
H4952 H 0.62746 0.79042 0.95321 0.0
H4953 H 0.67254 0.80926 0.9076 0.0
H4954 H 0.63547 0.81345 0.92689 0.0
H4955 H 0.66411 0.78598 0.9332 0.0
C4956 C 0.65296 0.77902 0.94571 0.0
C4957 C 0.64255 0.78001 0.95145 0.0
C4958 C 0.64362 0.81256 0.92271 0.0
C4959 C 0.64875 0.79606 0.93518 0.0
C4960 C 0.64621 0.81967 0.91363 0.0
C4961 C 0.65661 0.81855 0.90786 0.0
C4962 C 0.65148 0.80424 0.92604 0.0
C4963 C 0.66433 0.8103 0.91164 0.0
C4964 C 0.65611 0.78702 0.93763 0.0
C4965 C 0.6356 0.78937 0.94903 0.0
N4966 N 0.66159 0.80344 0.92045 0.0
N4967 N 0.63878 0.79699 0.94101 0.0
H4968 H 0.93753 0.14243 0.7941 0.0
H4969 H 0.89286 0.09609 0.81542 0.0
H4970 H 0.93814 0.10743 0.78315 0.0
H4971 H 0.89073 0.13182 0.82336 0.0
H4972 H 0.90814 0.10025 0.80196 0.0
H4973 H 0.9193 0.13893 0.80342 0.0
C4974 C 0.93377 0.13401 0.79362 0.0
C4975 C 0.9394 0.12517 0.78797 0.0
C4976 C 0.90423 0.10719 0.80654 0.0
C4977 C 0.91853 0.12107 0.79864 0.0
C4978 C 0.89545 0.10483 0.81418 0.0
C4979 C 0.89062 0.11361 0.82064 0.0
C4980 C 0.90821 0.1184 0.80541 0.0
C4981 C 0.89439 0.12476 0.81874 0.0
C4982 C 0.92334 0.13202 0.79889 0.0
C4983 C 0.93407 0.11448 0.78742 0.0
N4984 N 0.90303 0.12682 0.8114 0.0
N4985 N 0.92399 0.11268 0.79282 0.0
H4986 H 0.62305 0.23802 0.58107 0.0
H4987 H 0.66581 0.18624 0.59128 0.0
H4988 H 0.64612 0.2257 0.55539 0.0
H4989 H 0.64333 0.19993 0.61676 0.0
H4990 H 0.65793 0.19966 0.57753 0.0
H4991 H 0.62946 0.22306 0.59368 0.0
C4992 C 0.62934 0.23206 0.578 0.0
C4993 C 0.63403 0.23314 0.56712 0.0
C4994 C 0.65472 0.1997 0.58613 0.0
C4995 C 0.64163 0.21605 0.5817 0.0
C4996 C 0.65918 0.19202 0.59396 0.0
C4997 C 0.6553 0.19204 0.60522 0.0
C4998 C 0.64628 0.20741 0.58956 0.0
C4999 C 0.64674 0.19976 0.60824 0.0
C5000 C 0.63309 0.22356 0.58527 0.0
C5001 C 0.64236 0.22528 0.56375 0.0
N5002 N 0.64255 0.20713 0.60048 0.0
N5003 N 0.64593 0.21709 0.57103 0.0
H5004 H 0.55899 0.89917 0.29804 0.0
H5005 H 0.61944 0.86827 0.29255 0.0
H5006 H 0.56505 0.87011 0.27643 0.0
H5007 H 0.61359 0.89689 0.3148 0.0
H5008 H 0.59981 0.86962 0.28572 0.0
H5009 H 0.57914 0.89912 0.30362 0.0
C5010 C 0.56455 0.89277 0.29447 0.0
C5011 C 0.56029 0.8846 0.28677 0.0
C5012 C 0.60282 0.87565 0.29206 0.0
C5013 C 0.5834 0.88456 0.29307 0.0
C5014 C 0.61407 0.87494 0.29591 0.0
C5015 C 0.61821 0.88249 0.30427 0.0
C5016 C 0.59557 0.88396 0.2966 0.0
C5017 C 0.61075 0.8908 0.30845 0.0
C5018 C 0.57607 0.89278 0.29762 0.0
C5019 C 0.56795 0.87665 0.28228 0.0
N5020 N 0.59979 0.89129 0.3046 0.0
N5021 N 0.5791 0.8768 0.28553 0.0
H5022 H 0.87941 0.77518 0.06354 0.0
H5023 H 0.85166 0.83695 0.06805 0.0
H5024 H 0.85984 0.79034 0.03649 0.0
H5025 H 0.87107 0.82131 0.09493 0.0
H5026 H 0.85357 0.81959 0.05673 0.0
H5027 H 0.87539 0.79159 0.07552 0.0
C5028 C 0.87416 0.78191 0.06014 0.0
C5029 C 0.86995 0.78135 0.04897 0.0
C5030 C 0.85734 0.81994 0.06514 0.0
C5031 C 0.86546 0.80033 0.06265 0.0
C5032 C 0.85628 0.82986 0.0716 0.0
C5033 C 0.86126 0.83062 0.08245 0.0
C5034 C 0.86345 0.81072 0.06953 0.0
C5035 C 0.867 0.82109 0.08667 0.0
C5036 C 0.87193 0.79133 0.06699 0.0
C5037 C 0.86339 0.79046 0.04499 0.0
N5038 N 0.86799 0.81158 0.08018 0.0
N5039 N 0.86137 0.79958 0.05181 0.0
H5040 H 0.71831 0.94591 0.86889 0.0
H5041 H 0.67737 0.89709 0.89271 0.0
H5042 H 0.69749 0.94992 0.89875 0.0
H5043 H 0.69965 0.89267 0.86399 0.0
H5044 H 0.68511 0.91624 0.8955 0.0
H5045 H 0.71223 0.92611 0.86752 0.0
C5046 C 0.71257 0.94261 0.87525 0.0
C5047 C 0.70839 0.94964 0.88393 0.0
C5048 C 0.68835 0.91105 0.88863 0.0
C5049 C 0.70122 0.92696 0.88229 0.0
C5050 C 0.6839 0.90014 0.887 0.0
C5051 C 0.68783 0.89328 0.87807 0.0
C5052 C 0.69677 0.91517 0.88125 0.0
C5053 C 0.69644 0.89761 0.87105 0.0
C5054 C 0.70903 0.9313 0.87441 0.0
C5055 C 0.7008 0.94489 0.8918 0.0
N5056 N 0.70056 0.9083 0.87274 0.0
N5057 N 0.69742 0.93387 0.89077 0.0
H5058 H 0.21556 0.55907 0.12609 0.0
H5059 H 0.1713 0.60918 0.11408 0.0
H5060 H 0.18277 0.55402 0.10978 0.0
H5061 H 0.2001 0.61253 0.13696 0.0
H5062 H 0.17668 0.5895 0.11039 0.0
H5063 H 0.21125 0.57925 0.12819 0.0
C5064 C 0.20745 0.56218 0.12296 0.0
C5065 C 0.1995 0.55477 0.11779 0.0
C5066 C 0.18184 0.59457 0.11618 0.0
C5067 C 0.19461 0.57793 0.12002 0.0
C5068 C 0.17875 0.6058 0.11834 0.0
C5069 C 0.1852 0.61254 0.12592 0.0
C5070 C 0.19148 0.59002 0.1216 0.0
C5071 C 0.19492 0.60773 0.13096 0.0
C5072 C 0.20503 0.57372 0.12411 0.0
C5073 C 0.18924 0.55938 0.11368 0.0
N5074 N 0.19774 0.59676 0.12875 0.0
N5075 N 0.18709 0.57064 0.11492 0.0
H5076 H 0.24357 0.45141 0.85058 0.0
H5077 H 0.18868 0.41171 0.85978 0.0
H5078 H 0.22982 0.44364 0.88353 0.0
H5079 H 0.20661 0.41445 0.82803 0.0
H5080 H 0.20184 0.42571 0.86816 0.0
H5081 H 0.22821 0.44027 0.84176 0.0
C5082 C 0.23722 0.4475 0.85596 0.0
C5083 C 0.23802 0.44841 0.86782 0.0
C5084 C 0.20284 0.4233 0.85933 0.0
C5085 C 0.22047 0.43552 0.85778 0.0
C5086 C 0.19529 0.41537 0.85453 0.0
C5087 C 0.19661 0.41185 0.84321 0.0
C5088 C 0.21172 0.42781 0.85275 0.0
C5089 C 0.20539 0.4168 0.83683 0.0
C5090 C 0.2285 0.44107 0.85092 0.0
C5091 C 0.22962 0.44303 0.87437 0.0
N5092 N 0.21263 0.42449 0.8417 0.0
N5093 N 0.22122 0.43678 0.86926 0.0
H5094 H 0.29887 0.45778 0.59543 0.0
H5095 H 0.3263 0.4043 0.62675 0.0
H5096 H 0.29568 0.45184 0.63137 0.0
H5097 H 0.33138 0.41223 0.59144 0.0
H5098 H 0.31282 0.42008 0.62817 0.0
H5099 H 0.3086 0.43963 0.59342 0.0
C5100 C 0.30018 0.45262 0.6029 0.0
C5101 C 0.29659 0.4564 0.61361 0.0
C5102 C 0.3168 0.41829 0.62009 0.0
C5103 C 0.30773 0.43556 0.61137 0.0
C5104 C 0.32444 0.40925 0.61926 0.0
C5105 C 0.33006 0.40704 0.60899 0.0
C5106 C 0.31475 0.42513 0.61057 0.0
C5107 C 0.32739 0.41377 0.59957 0.0
C5108 C 0.30571 0.44224 0.60174 0.0
C5109 C 0.2983 0.44925 0.62295 0.0
N5110 N 0.32 0.42254 0.60061 0.0
N5111 N 0.30385 0.43922 0.62164 0.0
H5112 H 0.76692 0.03941 0.86074 0.0
H5113 H 0.80587 0.0955 0.86083 0.0
H5114 H 0.75638 0.07177 0.87442 0.0
H5115 H 0.81835 0.06238 0.85138 0.0
H5116 H 0.78689 0.08733 0.86346 0.0
H5117 H 0.78513 0.04799 0.85531 0.0
C5118 C 0.76842 0.04831 0.86262 0.0
C5119 C 0.76008 0.05485 0.8681 0.0
C5120 C 0.79375 0.08185 0.86073 0.0
C5121 C 0.78088 0.06476 0.86175 0.0
C5122 C 0.80458 0.08654 0.85912 0.0
C5123 C 0.81374 0.07961 0.85592 0.0
C5124 C 0.79203 0.07014 0.85913 0.0
C5125 C 0.81157 0.068 0.85401 0.0
C5126 C 0.7788 0.05321 0.85945 0.0
C5127 C 0.76246 0.0664 0.8701 0.0
N5128 N 0.80096 0.06362 0.8557 0.0
N5129 N 0.77263 0.07096 0.86697 0.0
H5130 H 0.80789 0.04956 0.37117 0.0
H5131 H 0.82799 0.10472 0.40573 0.0
H5132 H 0.80329 0.05402 0.40723 0.0
H5133 H 0.83422 0.0995 0.37001 0.0
H5134 H 0.81598 0.08771 0.40575 0.0
H5135 H 0.81456 0.0692 0.36996 0.0
C5136 C 0.80807 0.05473 0.3788 0.0
C5137 C 0.80514 0.05009 0.38934 0.0
C5138 C 0.81985 0.09035 0.39787 0.0
C5139 C 0.81297 0.07254 0.38804 0.0
C5140 C 0.82665 0.10013 0.39783 0.0
C5141 C 0.83224 0.10348 0.38788 0.0
C5142 C 0.81865 0.08384 0.3879 0.0
C5143 C 0.83026 0.09711 0.37793 0.0
C5144 C 0.81196 0.06593 0.37812 0.0
C5145 C 0.80567 0.05718 0.39897 0.0
N5146 N 0.82373 0.08754 0.37822 0.0
N5147 N 0.80962 0.068 0.3981 0.0
H5148 H 0.22931 0.56328 0.62446 0.0
H5149 H 0.20663 0.59152 0.68186 0.0
H5150 H 0.2446 0.5576 0.65733 0.0
H5151 H 0.18956 0.59489 0.64951 0.0
H5152 H 0.22002 0.57825 0.67319 0.0
H5153 H 0.21406 0.57401 0.6336 0.0
C5154 C 0.22942 0.56425 0.63361 0.0
C5155 C 0.23828 0.5596 0.64014 0.0
C5156 C 0.21329 0.58181 0.668 0.0
C5157 C 0.22085 0.57188 0.65066 0.0
C5158 C 0.20568 0.58943 0.67293 0.0
C5159 C 0.19701 0.59438 0.66638 0.0
C5160 C 0.21231 0.57917 0.65639 0.0
C5161 C 0.19607 0.59122 0.6549 0.0
C5162 C 0.22069 0.57034 0.63883 0.0
C5163 C 0.2379 0.56096 0.65198 0.0
N5164 N 0.20369 0.5839 0.65025 0.0
N5165 N 0.2294 0.56707 0.65684 0.0
H5166 H 0.27243 0.46894 0.16057 0.0
H5167 H 0.3186 0.42098 0.14669 0.0
H5168 H 0.28267 0.46004 0.12656 0.0
H5169 H 0.30248 0.42487 0.1793 0.0
H5170 H 0.30751 0.43704 0.13961 0.0
H5171 H 0.28549 0.45463 0.168 0.0
C5172 C 0.27754 0.46407 0.15467 0.0
C5173 C 0.27643 0.46566 0.14292 0.0
C5174 C 0.30644 0.4344 0.14832 0.0
C5175 C 0.29132 0.44919 0.15136 0.0
C5176 C 0.31281 0.42529 0.15239 0.0
C5177 C 0.31141 0.42156 0.16358 0.0
C5178 C 0.29868 0.43989 0.15554 0.0
C5179 C 0.30371 0.42738 0.17057 0.0
C5180 C 0.28493 0.45584 0.15891 0.0
C5181 C 0.28316 0.459 0.13567 0.0
N5182 N 0.29763 0.43625 0.16643 0.0
N5183 N 0.2903 0.45105 0.14 0.0
H5184 H 0.63007 0.81816 0.51108 0.0
H5185 H 0.59499 0.81977 0.56925 0.0
H5186 H 0.6011 0.79634 0.51741 0.0
H5187 H 0.62604 0.83864 0.56333 0.0
H5188 H 0.59612 0.81197 0.54991 0.0
H5189 H 0.62783 0.82658 0.52986 0.0
C5190 C 0.62317 0.81519 0.5164 0.0
C5191 C 0.61574 0.80655 0.51264 0.0
C5192 C 0.60267 0.81783 0.55286 0.0
C5193 C 0.61318 0.8161 0.53429 0.0
C5194 C 0.60199 0.82232 0.56385 0.0
C5195 C 0.61049 0.82978 0.56792 0.0
C5196 C 0.61187 0.82089 0.54589 0.0
C5197 C 0.61941 0.83277 0.56061 0.0
C5198 C 0.62194 0.81996 0.52717 0.0
C5199 C 0.60709 0.80291 0.52 0.0
N5200 N 0.61987 0.82831 0.54998 0.0
N5201 N 0.60603 0.80771 0.53048 0.0
H5202 H 0.44999 0.35131 0.81589 0.0
H5203 H 0.45141 0.39232 0.8703 0.0
H5204 H 0.46203 0.38599 0.81527 0.0
H5205 H 0.44031 0.35733 0.87143 0.0
H5206 H 0.45612 0.38985 0.85033 0.0
H5207 H 0.44702 0.35308 0.83634 0.0
C5208 C 0.45201 0.3593 0.82006 0.0
C5209 C 0.45621 0.36854 0.81383 0.0
C5210 C 0.45271 0.38268 0.85494 0.0
C5211 C 0.45288 0.37061 0.83727 0.0
C5212 C 0.45008 0.38406 0.8664 0.0
C5213 C 0.44547 0.37501 0.8726 0.0
C5214 C 0.45068 0.37218 0.84958 0.0
C5215 C 0.44372 0.36459 0.86697 0.0
C5216 C 0.45036 0.36029 0.83175 0.0
C5217 C 0.45887 0.37862 0.81972 0.0
N5218 N 0.4463 0.36347 0.85578 0.0
N5219 N 0.4571 0.3794 0.83109 0.0
H5220 H 0.9039 0.20493 0.01163 0.0
H5221 H 0.90489 0.18033 0.07475 0.0
H5222 H 0.88699 0.22144 0.0396 0.0
H5223 H 0.92352 0.16596 0.04667 0.0
H5224 H 0.89858 0.19576 0.06238 0.0
H5225 H 0.91161 0.19096 0.02469 0.0
C5226 C 0.90181 0.20561 0.02055 0.0
C5227 C 0.8947 0.21429 0.02452 0.0
C5228 C 0.90411 0.18927 0.05897 0.0
C5229 C 0.90354 0.19829 0.0396 0.0
C5230 C 0.90767 0.18043 0.066 0.0
C5231 C 0.91475 0.17182 0.06175 0.0
C5232 C 0.9076 0.18946 0.04758 0.0
C5233 C 0.9182 0.17246 0.05038 0.0
C5234 C 0.90626 0.19765 0.02803 0.0
C5235 C 0.89246 0.21488 0.0362 0.0
N5236 N 0.91455 0.18107 0.04371 0.0
N5237 N 0.89679 0.20692 0.04334 0.0
H5238 H 0.05061 0.62301 0.31279 0.0
H5239 H 0.06148 0.66837 0.36237 0.0
H5240 H 0.04093 0.65821 0.31062 0.0
H5241 H 0.07329 0.63374 0.36312 0.0
H5242 H 0.0508 0.664 0.34496 0.0
H5243 H 0.05583 0.62599 0.33269 0.0
C5244 C 0.04949 0.63135 0.31654 0.0
C5245 C 0.04549 0.64042 0.30999 0.0
C5246 C 0.0556 0.65732 0.34904 0.0
C5247 C 0.05145 0.64391 0.33278 0.0
C5248 C 0.06172 0.65981 0.35897 0.0
C5249 C 0.06843 0.65146 0.36416 0.0
C5250 C 0.05622 0.64639 0.34424 0.0
C5251 C 0.06822 0.64046 0.35948 0.0
C5252 C 0.05243 0.63304 0.32791 0.0
C5253 C 0.04398 0.65098 0.31535 0.0
N5254 N 0.06235 0.63829 0.34972 0.0
N5255 N 0.0471 0.65247 0.32639 0.0
H5256 H 0.60408 0.18744 1.00065 0.0
H5257 H 0.61731 0.19155 0.93422 0.0
H5258 H 0.62361 0.21457 0.98558 0.0
H5259 H 0.59941 0.16338 0.94935 0.0
H5260 H 0.61846 0.20077 0.9528 0.0
H5261 H 0.60111 0.17914 0.98179 0.0
C5262 C 0.60776 0.19165 0.99338 0.0
C5263 C 0.61417 0.20169 0.99472 0.0
C5264 C 0.61424 0.1926 0.95206 0.0
C5265 C 0.61071 0.19228 0.97308 0.0
C5266 C 0.61362 0.1873 0.94146 0.0
C5267 C 0.60834 0.17662 0.94023 0.0
C5268 C 0.60956 0.18719 0.96156 0.0
C5269 C 0.6035 0.17164 0.94988 0.0
C5270 C 0.60601 0.18693 0.9826 0.0
C5271 C 0.61853 0.20688 0.98496 0.0
N5272 N 0.60429 0.17693 0.96015 0.0
N5273 N 0.61676 0.20209 0.97457 0.0
H5274 H 0.03962 0.35009 0.19574 0.0
H5275 H 0.0731 0.3773 0.14367 0.0
H5276 H 0.05126 0.3849 0.19473 0.0
H5277 H 0.06328 0.34197 0.14526 0.0
H5278 H 0.06219 0.38095 0.16085 0.0
H5279 H 0.04531 0.34772 0.17594 0.0
C5280 C 0.04318 0.3573 0.19129 0.0
C5281 C 0.0451 0.36767 0.19695 0.0
C5282 C 0.0623 0.37241 0.15738 0.0
C5283 C 0.05177 0.36497 0.17432 0.0
C5284 C 0.06846 0.37033 0.14749 0.0
C5285 C 0.06922 0.35927 0.14306 0.0
C5286 C 0.05688 0.36337 0.16293 0.0
C5287 C 0.06313 0.35058 0.1485 0.0
C5288 C 0.0465 0.35592 0.18001 0.0
C5289 C 0.04984 0.37668 0.19078 0.0
N5290 N 0.05732 0.35279 0.15821 0.0
N5291 N 0.05311 0.37509 0.17984 0.0
H5292 H 0.88571 0.80541 0.48429 0.0
H5293 H 0.9284 0.85524 0.46624 0.0
H5294 H 0.90836 0.82314 0.50746 0.0
H5295 H 0.90724 0.83685 0.44217 0.0
H5296 H 0.92198 0.84259 0.48114 0.0
H5297 H 0.89424 0.81584 0.4685 0.0
C5298 C 0.89255 0.8114 0.48604 0.0
C5299 C 0.89624 0.81349 0.49723 0.0
C5300 C 0.91879 0.84125 0.47259 0.0
C5301 C 0.90596 0.82552 0.47924 0.0
C5302 C 0.92253 0.84844 0.46402 0.0
C5303 C 0.91838 0.84715 0.45288 0.0
C5304 C 0.91073 0.8327 0.47008 0.0
C5305 C 0.91057 0.83828 0.45065 0.0
C5306 C 0.89738 0.81739 0.47704 0.0
C5307 C 0.90508 0.82141 0.49901 0.0
N5308 N 0.90695 0.83144 0.45918 0.0
N5309 N 0.90958 0.82716 0.49013 0.0
H5310 H 0.48319 0.64621 0.68609 0.0
H5311 H 0.4335 0.62369 0.64467 0.0
H5312 H 0.45292 0.62876 0.69755 0.0
H5313 H 0.46036 0.64619 0.63362 0.0
H5314 H 0.44099 0.62495 0.66401 0.0
H5315 H 0.47551 0.64576 0.66669 0.0
C5316 C 0.47494 0.64228 0.68452 0.0
C5317 C 0.46867 0.63754 0.69346 0.0
C5318 C 0.44524 0.62965 0.65738 0.0
C5319 C 0.45984 0.63701 0.67132 0.0
C5320 C 0.441 0.62889 0.64632 0.0
C5321 C 0.44635 0.63481 0.63752 0.0
C5322 C 0.45497 0.63632 0.65968 0.0
C5323 C 0.45594 0.64155 0.64018 0.0
C5324 C 0.47054 0.64208 0.67347 0.0
C5325 C 0.45798 0.63264 0.69096 0.0
N5326 N 0.45999 0.64207 0.65102 0.0
N5327 N 0.45394 0.63247 0.68014 0.0
H5328 H 0.51645 0.5978 0.80337 0.0
H5329 H 0.58141 0.60623 0.82342 0.0
H5330 H 0.53731 0.6262 0.79311 0.0
H5331 H 0.55843 0.58088 0.83677 0.0
H5332 H 0.56629 0.61235 0.81043 0.0
H5333 H 0.53274 0.59007 0.81364 0.0
C5334 C 0.52448 0.6024 0.80325 0.0
C5335 C 0.52547 0.61275 0.7975 0.0
C5336 C 0.56462 0.60538 0.81614 0.0
C5337 C 0.54423 0.6039 0.80923 0.0
C5338 C 0.57322 0.60191 0.82361 0.0
C5339 C 0.57121 0.59304 0.83127 0.0
C5340 C 0.55392 0.59994 0.81632 0.0
C5341 C 0.56048 0.58764 0.83095 0.0
C5342 C 0.5338 0.59797 0.80909 0.0
C5343 C 0.53617 0.6182 0.79742 0.0
N5344 N 0.55225 0.59122 0.82366 0.0
N5345 N 0.54512 0.61376 0.80329 0.0
H5346 H 0.61049 0.30773 0.05727 0.0
H5347 H 0.65773 0.35365 0.07498 0.0
H5348 H 0.6452 0.30682 0.04528 0.0
H5349 H 0.6222 0.35606 0.08413 0.0
H5350 H 0.65305 0.33745 0.06268 0.0
H5351 H 0.61426 0.32636 0.06577 0.0
C5352 C 0.61889 0.31151 0.05636 0.0
C5353 C 0.62757 0.30568 0.05066 0.0
C5354 C 0.64625 0.34161 0.06727 0.0
C5355 C 0.632 0.32699 0.0604 0.0
C5356 C 0.64893 0.35083 0.07432 0.0
C5357 C 0.64036 0.35617 0.08067 0.0
C5358 C 0.63493 0.33762 0.06663 0.0
C5359 C 0.62907 0.35227 0.07935 0.0
C5360 C 0.62103 0.32216 0.06118 0.0
C5361 C 0.63825 0.31103 0.04957 0.0
N5362 N 0.62671 0.34316 0.07259 0.0
N5363 N 0.6402 0.32133 0.05452 0.0
H5364 H 0.9673 0.37571 0.29681 0.0
H5365 H 0.92995 0.42746 0.32022 0.0
H5366 H 0.9654 0.40821 0.28025 0.0
H5367 H 0.93377 0.39548 0.33747 0.0
H5368 H 0.94171 0.42018 0.30473 0.0
H5369 H 0.9537 0.38237 0.31094 0.0
C5370 C 0.964 0.38425 0.29614 0.0
C5371 C 0.96758 0.39144 0.28739 0.0
C5372 C 0.93992 0.41474 0.31188 0.0
C5373 C 0.95193 0.39913 0.30353 0.0
C5374 C 0.93325 0.41891 0.32075 0.0
C5375 C 0.93088 0.41209 0.3302 0.0
C5376 C 0.94427 0.40367 0.31245 0.0
C5377 C 0.93524 0.40101 0.33033 0.0
C5378 C 0.9562 0.38804 0.30419 0.0
C5379 C 0.96284 0.40235 0.28681 0.0
N5380 N 0.94175 0.39718 0.32163 0.0
N5381 N 0.95532 0.40589 0.29482 0.0
H5382 H 0.87273 0.69931 0.52704 0.0
H5383 H 0.87203 0.65642 0.57951 0.0
H5384 H 0.87141 0.70998 0.56213 0.0
H5385 H 0.87709 0.6457 0.54481 0.0
H5386 H 0.87012 0.67597 0.57307 0.0
H5387 H 0.87299 0.67953 0.5332 0.0
C5388 C 0.87252 0.69752 0.53604 0.0
C5389 C 0.87207 0.70637 0.54407 0.0
C5390 C 0.87161 0.66934 0.56685 0.0
C5391 C 0.87223 0.68371 0.55117 0.0
C5392 C 0.87261 0.65815 0.57052 0.0
C5393 C 0.87474 0.64939 0.56269 0.0
C5394 C 0.87272 0.67183 0.55527 0.0
C5395 C 0.8756 0.6522 0.55116 0.0
C5396 C 0.8726 0.68621 0.53954 0.0
C5397 C 0.8716 0.70348 0.55561 0.0
N5398 N 0.8746 0.66317 0.5478 0.0
N5399 N 0.87173 0.69242 0.5588 0.0
H5400 H 0.52276 0.38837 0.70937 0.0
H5401 H 0.58888 0.40456 0.70325 0.0
H5402 H 0.54592 0.39136 0.73793 0.0
H5403 H 0.56804 0.39221 0.67543 0.0
H5404 H 0.5724 0.40291 0.71583 0.0
H5405 H 0.53856 0.39264 0.69665 0.0
C5406 C 0.53116 0.38988 0.71299 0.0
C5407 C 0.533 0.38935 0.72478 0.0
C5408 C 0.57142 0.40063 0.70696 0.0
C5409 C 0.5511 0.39449 0.7102 0.0
C5410 C 0.58078 0.40166 0.69975 0.0
C5411 C 0.57982 0.39848 0.68828 0.0
C5412 C 0.56099 0.39648 0.70264 0.0
C5413 C 0.56917 0.39464 0.68424 0.0
C5414 C 0.54016 0.39239 0.7057 0.0
C5415 C 0.54404 0.39174 0.72894 0.0
N5416 N 0.56017 0.39373 0.69142 0.0
N5417 N 0.55267 0.39416 0.72166 0.0
H5418 H 0.85087 0.30345 0.93656 0.0
H5419 H 0.87936 0.36232 0.95622 0.0
H5420 H 0.87466 0.30641 0.96458 0.0
H5421 H 0.86219 0.35738 0.92401 0.0
H5422 H 0.87581 0.34239 0.96068 0.0
H5423 H 0.853 0.32375 0.93315 0.0
C5424 C 0.85657 0.30835 0.94199 0.0
C5425 C 0.86268 0.30314 0.95081 0.0
C5426 C 0.87278 0.3457 0.95266 0.0
C5427 C 0.86501 0.3265 0.94704 0.0
C5428 C 0.87485 0.35707 0.95007 0.0
C5429 C 0.87114 0.36157 0.93968 0.0
C5430 C 0.86689 0.33875 0.94484 0.0
C5431 C 0.86511 0.35437 0.93218 0.0
C5432 C 0.85773 0.31996 0.94006 0.0
C5433 C 0.8697 0.31003 0.95774 0.0
N5434 N 0.86321 0.34333 0.93489 0.0
N5435 N 0.8707 0.32133 0.95568 0.0
H5436 H 0.96807 0.63303 0.20963 0.0
H5437 H 0.93459 0.58018 0.18193 0.0
H5438 H 0.96875 0.59928 0.2236 0.0
H5439 H 0.93276 0.61439 0.16917 0.0
H5440 H 0.94655 0.58706 0.19765 0.0
H5441 H 0.95447 0.62645 0.1952 0.0
C5442 C 0.96533 0.62423 0.20967 0.0
C5443 C 0.9696 0.61667 0.21779 0.0
C5444 C 0.94347 0.59306 0.19145 0.0
C5445 C 0.95401 0.60906 0.20129 0.0
C5446 C 0.9367 0.58914 0.18244 0.0
C5447 C 0.93269 0.59671 0.1742 0.0
C5448 C 0.94632 0.60465 0.19221 0.0
C5449 C 0.93555 0.60825 0.17538 0.0
C5450 C 0.95753 0.62048 0.20146 0.0
C5451 C 0.96561 0.60541 0.21755 0.0
N5452 N 0.94223 0.61185 0.18417 0.0
N5453 N 0.95811 0.60192 0.20938 0.0
H5454 H 0.64201 0.69972 0.46279 0.0
H5455 H 0.61802 0.65201 0.42019 0.0
H5456 H 0.60842 0.70018 0.44757 0.0
H5457 H 0.65307 0.65361 0.43168 0.0
H5458 H 0.61347 0.66772 0.43291 0.0
H5459 H 0.64527 0.68107 0.45413 0.0
C5460 C 0.63525 0.69582 0.45778 0.0
C5461 C 0.62497 0.70156 0.4558 0.0
C5462 C 0.62214 0.66457 0.43275 0.0
C5463 C 0.62868 0.68029 0.44579 0.0
C5464 C 0.62473 0.65551 0.42555 0.0
C5465 C 0.63598 0.65152 0.42479 0.0
C5466 C 0.63085 0.66972 0.43924 0.0
C5467 C 0.64433 0.65654 0.43184 0.0
C5468 C 0.63715 0.68521 0.45278 0.0
C5469 C 0.61655 0.69614 0.44916 0.0
N5470 N 0.64162 0.66544 0.43871 0.0
N5471 N 0.61861 0.68585 0.44434 0.0
H5472 H 0.80849 0.53446 0.62634 0.0
H5473 H 0.8417 0.56605 0.57636 0.0
H5474 H 0.80804 0.52303 0.59147 0.0
H5475 H 0.8446 0.57551 0.61171 0.0
H5476 H 0.82733 0.55183 0.58135 0.0
H5477 H 0.81959 0.5511 0.62072 0.0
C5478 C 0.81057 0.53554 0.61747 0.0
C5479 C 0.80739 0.52729 0.60938 0.0
C5480 C 0.83104 0.55708 0.58801 0.0
C5481 C 0.82027 0.54625 0.60291 0.0
C5482 C 0.8392 0.56525 0.58515 0.0
C5483 C 0.84443 0.57193 0.59364 0.0
C5484 C 0.82807 0.55557 0.59943 0.0
C5485 C 0.84093 0.57042 0.60492 0.0
C5486 C 0.81699 0.545 0.61428 0.0
C5487 C 0.81047 0.52908 0.59802 0.0
N5488 N 0.83302 0.56237 0.60748 0.0
N5489 N 0.81679 0.53832 0.59514 0.0
H5490 H 0.3094 0.98758 0.40369 0.0
H5491 H 0.34617 0.93236 0.38897 0.0
H5492 H 0.3154 0.97564 0.36955 0.0
H5493 H 0.3449 0.94779 0.42228 0.0
H5494 H 0.33285 0.94666 0.38206 0.0
H5495 H 0.32012 0.97142 0.41098 0.0
C5496 C 0.31283 0.98147 0.39773 0.0
C5497 C 0.31155 0.983 0.38599 0.0
C5498 C 0.33543 0.94687 0.3909 0.0
C5499 C 0.32396 0.96455 0.39428 0.0
C5500 C 0.34309 0.93874 0.39485 0.0
C5501 C 0.34677 0.9389 0.40622 0.0
C5502 C 0.33138 0.95524 0.39837 0.0
C5503 C 0.34225 0.94724 0.41348 0.0
C5504 C 0.31903 0.97229 0.4019 0.0
C5505 C 0.31632 0.97488 0.37866 0.0
N5506 N 0.33486 0.9551 0.40942 0.0
N5507 N 0.32234 0.96603 0.38292 0.0
H5508 H 0.29903 0.06757 0.66358 0.0
H5509 H 0.35489 0.05441 0.62701 0.0
H5510 H 0.29877 0.04724 0.63296 0.0
H5511 H 0.35469 0.07681 0.65615 0.0
H5512 H 0.3346 0.05057 0.62985 0.0
H5513 H 0.31967 0.06996 0.66178 0.0
C5514 C 0.30331 0.06362 0.65646 0.0
C5515 C 0.29713 0.05725 0.64837 0.0
C5516 C 0.339 0.05629 0.63566 0.0
C5517 C 0.32081 0.05987 0.64631 0.0
C5518 C 0.35058 0.05853 0.63401 0.0
C5519 C 0.35651 0.066 0.64131 0.0
C5520 C 0.33326 0.06157 0.64467 0.0
C5521 C 0.35051 0.07091 0.65037 0.0
C5522 C 0.31511 0.06494 0.65547 0.0
C5523 C 0.30318 0.05214 0.63946 0.0
N5524 N 0.33921 0.06865 0.65176 0.0
N5525 N 0.31466 0.05361 0.63864 0.0
H5526 H 0.21952 0.03836 0.89206 0.0
H5527 H 0.16051 0.06752 0.87417 0.0
H5528 H 0.19553 0.02379 0.86803 0.0
H5529 H 0.18578 0.0839 0.8956 0.0
H5530 H 0.1727 0.05083 0.87296 0.0
H5531 H 0.20686 0.05465 0.89441 0.0
C5532 C 0.21162 0.0386 0.88725 0.0
C5533 C 0.2086 0.02967 0.87984 0.0
C5534 C 0.17557 0.05805 0.87797 0.0
C5535 C 0.194 0.04822 0.8826 0.0
C5536 C 0.16862 0.0676 0.87863 0.0
C5537 C 0.17215 0.07717 0.88493 0.0
C5538 C 0.18616 0.05803 0.88363 0.0
C5539 C 0.18266 0.07669 0.89072 0.0
C5540 C 0.20436 0.04787 0.88865 0.0
C5541 C 0.19816 0.03037 0.87396 0.0
N5542 N 0.18932 0.06731 0.88988 0.0
N5543 N 0.19126 0.03948 0.87546 0.0
H5544 H 0.69825 0.47304 0.63266 0.0
H5545 H 0.66778 0.42777 0.67236 0.0
H5546 H 0.71248 0.46118 0.66427 0.0
H5547 H 0.65057 0.44365 0.64415 0.0
H5548 H 0.68382 0.44066 0.66989 0.0
H5549 H 0.68037 0.46317 0.63702 0.0
C5550 C 0.69757 0.46851 0.64059 0.0
C5551 C 0.70694 0.46784 0.64805 0.0
C5552 C 0.6765 0.44141 0.66429 0.0
C5553 C 0.68657 0.45638 0.653 0.0
C5554 C 0.66725 0.43409 0.66575 0.0
C5555 C 0.65773 0.43457 0.65846 0.0
C5556 C 0.67637 0.44925 0.65537 0.0
C5557 C 0.65777 0.44281 0.64987 0.0
C5558 C 0.68738 0.46282 0.64304 0.0
C5559 C 0.70558 0.46173 0.65815 0.0
N5560 N 0.66698 0.44976 0.64851 0.0
N5561 N 0.69564 0.45618 0.66027 0.0
H5562 H 0.72502 0.46724 0.12469 0.0
H5563 H 0.66097 0.44479 0.11758 0.0
H5564 H 0.69596 0.48949 0.12211 0.0
H5565 H 0.69043 0.42341 0.11322 0.0
H5566 H 0.67364 0.46133 0.11909 0.0
H5567 H 0.71256 0.45111 0.12019 0.0
C5568 C 0.71605 0.46877 0.12306 0.0
C5569 C 0.71154 0.47976 0.12388 0.0
C5570 C 0.67733 0.45304 0.11769 0.0
C5571 C 0.69717 0.46127 0.11891 0.0
C5572 C 0.67011 0.4436 0.11687 0.0
C5573 C 0.67466 0.43271 0.1153 0.0
C5574 C 0.68922 0.45157 0.11709 0.0
C5575 C 0.68655 0.43166 0.11433 0.0
C5576 C 0.70892 0.45954 0.12054 0.0
C5577 C 0.6998 0.48116 0.12182 0.0
N5578 N 0.69342 0.44095 0.11535 0.0
N5579 N 0.69302 0.47203 0.11951 0.0
H5580 H 0.30012 0.9608 0.85221 0.0
H5581 H 0.35288 0.93676 0.88809 0.0
H5582 H 0.29662 0.94211 0.88338 0.0
H5583 H 0.35634 0.95038 0.85437 0.0
H5584 H 0.33243 0.94047 0.88728 0.0
H5585 H 0.32089 0.9588 0.85361 0.0
C5586 C 0.30373 0.95635 0.85939 0.0
C5587 C 0.29663 0.95156 0.86766 0.0
C5588 C 0.33765 0.94269 0.88006 0.0
C5589 C 0.32035 0.94922 0.8693 0.0
C5590 C 0.34936 0.94065 0.88056 0.0
C5591 C 0.35634 0.94328 0.87129 0.0
C5592 C 0.33285 0.94742 0.87024 0.0
C5593 C 0.35125 0.94813 0.86167 0.0
C5594 C 0.31557 0.95516 0.86015 0.0
C5595 C 0.30176 0.9458 0.87673 0.0
N5596 N 0.33981 0.95004 0.86139 0.0
N5597 N 0.31329 0.94479 0.8773 0.0
H5598 H 0.19897 0.02169 0.3595 0.0
H5599 H 0.15792 0.07577 0.35762 0.0
H5600 H 0.21106 0.05637 0.36119 0.0
H5601 H 0.14563 0.04152 0.36229 0.0
H5602 H 0.17743 0.06861 0.35674 0.0
H5603 H 0.17936 0.02863 0.35866 0.0
C5604 C 0.19753 0.03076 0.35972 0.0
C5605 C 0.20673 0.03844 0.36045 0.0
C5606 C 0.17047 0.06265 0.35792 0.0
C5607 C 0.18427 0.04645 0.35932 0.0
C5608 C 0.15931 0.06673 0.35833 0.0
C5609 C 0.15013 0.05924 0.36005 0.0
C5610 C 0.17247 0.05098 0.35918 0.0
C5611 C 0.15247 0.04761 0.36108 0.0
C5612 C 0.18632 0.03471 0.35918 0.0
C5613 C 0.20429 0.05011 0.36048 0.0
N5614 N 0.16341 0.04384 0.36064 0.0
N5615 N 0.19332 0.05374 0.35994 0.0
H5616 H 0.38152 0.20116 0.46074 0.0
H5617 H 0.42182 0.17756 0.41156 0.0
H5618 H 0.41821 0.19906 0.4636 0.0
H5619 H 0.38501 0.17738 0.40967 0.0
H5620 H 0.42081 0.18834 0.4293 0.0
H5621 H 0.38282 0.19537 0.44084 0.0
C5622 C 0.38987 0.19967 0.45714 0.0
C5623 C 0.39976 0.20048 0.46389 0.0
C5624 C 0.41295 0.18605 0.42495 0.0
C5625 C 0.4013 0.19368 0.44114 0.0
C5626 C 0.41353 0.17997 0.41476 0.0
C5627 C 0.40348 0.17645 0.40917 0.0
C5628 C 0.40226 0.18863 0.42961 0.0
C5629 C 0.39297 0.17973 0.4138 0.0
C5630 C 0.3906 0.19628 0.44579 0.0
C5631 C 0.41034 0.19833 0.45877 0.0
N5632 N 0.39263 0.18554 0.4238 0.0
N5633 N 0.41082 0.19494 0.44774 0.0
H5634 H 0.54654 0.66078 0.22872 0.0
H5635 H 0.55676 0.63925 0.16514 0.0
H5636 H 0.53275 0.62965 0.21467 0.0
H5637 H 0.57278 0.6694 0.17914 0.0
H5638 H 0.54592 0.63714 0.18251 0.0
H5639 H 0.55432 0.66546 0.21005 0.0
C5640 C 0.54503 0.655 0.22167 0.0
C5641 C 0.53908 0.64476 0.22327 0.0
C5642 C 0.55173 0.64429 0.18177 0.0
C5643 C 0.54801 0.65001 0.20195 0.0
C5644 C 0.55786 0.64558 0.17177 0.0
C5645 C 0.56574 0.65453 0.17063 0.0
C5646 C 0.55349 0.65194 0.1908 0.0
C5647 C 0.56692 0.66228 0.17969 0.0
C5648 C 0.54952 0.65765 0.21104 0.0
C5649 C 0.53745 0.63754 0.21387 0.0
N5650 N 0.56093 0.66077 0.18942 0.0
N5651 N 0.54194 0.64028 0.20364 0.0
H5652 H 0.13238 0.79815 0.95739 0.0
H5653 H 0.08839 0.81469 0.90834 0.0
H5654 H 0.0981 0.78466 0.95526 0.0
H5655 H 0.12369 0.8254 0.90914 0.0
H5656 H 0.09214 0.80225 0.92446 0.0
H5657 H 0.12972 0.80699 0.93889 0.0
C5658 C 0.1243 0.79702 0.95299 0.0
C5659 C 0.11541 0.79076 0.95791 0.0
C5660 C 0.09909 0.80723 0.92103 0.0
C5661 C 0.11227 0.80087 0.93671 0.0
C5662 C 0.09697 0.81428 0.91177 0.0
C5663 C 0.10571 0.82121 0.90746 0.0
C5664 C 0.11001 0.80713 0.92604 0.0
C5665 C 0.11664 0.82039 0.91234 0.0
C5666 C 0.12279 0.80202 0.9424 0.0
C5667 C 0.10519 0.78939 0.95175 0.0
N5668 N 0.11845 0.81359 0.92142 0.0
N5669 N 0.10385 0.79451 0.94152 0.0
H5670 H 0.94615 0.35477 0.73957 0.0
H5671 H 0.94556 0.37424 0.67469 0.0
H5672 H 0.96935 0.3796 0.7257 0.0
H5673 H 0.92249 0.34901 0.6881 0.0
H5674 H 0.95529 0.37517 0.69299 0.0
H5675 H 0.93814 0.35162 0.72059 0.0
C5676 C 0.94957 0.35955 0.73253 0.0
C5677 C 0.95839 0.36752 0.73426 0.0
C5678 C 0.94815 0.36936 0.69193 0.0
C5679 C 0.9493 0.36389 0.71248 0.0
C5680 C 0.94263 0.36875 0.68142 0.0
C5681 C 0.93315 0.36153 0.67981 0.0
C5682 C 0.94417 0.36276 0.70097 0.0
C5683 C 0.92965 0.35482 0.68898 0.0
C5684 C 0.94503 0.3577 0.72169 0.0
C5685 C 0.96263 0.37331 0.72478 0.0
N5686 N 0.93511 0.35564 0.69917 0.0
N5687 N 0.958 0.37144 0.71433 0.0
H5688 H 0.41944 0.80759 0.04449 0.0
H5689 H 0.38395 0.83078 0.09736 0.0
H5690 H 0.38264 0.80712 0.04611 0.0
H5691 H 0.42073 0.83183 0.09549 0.0
H5692 H 0.3834 0.81966 0.07978 0.0
H5693 H 0.42018 0.81404 0.06424 0.0
C5694 C 0.41151 0.80876 0.04903 0.0
C5695 C 0.40096 0.80694 0.04359 0.0
C5696 C 0.3916 0.8222 0.08328 0.0
C5697 C 0.40174 0.81432 0.06622 0.0
C5698 C 0.39192 0.82857 0.09331 0.0
C5699 C 0.40239 0.83236 0.09784 0.0
C5700 C 0.40184 0.81965 0.07768 0.0
C5701 C 0.41246 0.82907 0.09234 0.0
C5702 C 0.41194 0.81241 0.06032 0.0
C5703 C 0.39097 0.80838 0.04996 0.0
N5704 N 0.41192 0.82303 0.08248 0.0
N5705 N 0.3916 0.81211 0.06089 0.0
H5706 H 0.98348 0.65568 0.79042 0.0
H5707 H 0.92217 0.64414 0.8179 0.0
H5708 H 0.9555 0.63901 0.7729 0.0
H5709 H 0.95063 0.65857 0.83657 0.0
H5710 H 0.93375 0.64409 0.80077 0.0
H5711 H 0.9712 0.65834 0.80693 0.0
C5712 C 0.97477 0.65258 0.79003 0.0
C5713 C 0.97055 0.64708 0.78024 0.0
C5714 C 0.93745 0.64734 0.80859 0.0
C5715 C 0.9564 0.6502 0.79909 0.0
C5716 C 0.9308 0.64746 0.81837 0.0
C5717 C 0.93543 0.65133 0.82872 0.0
C5718 C 0.94885 0.65108 0.80913 0.0
C5719 C 0.94675 0.65535 0.82882 0.0
C5720 C 0.96774 0.65416 0.79945 0.0
C5721 C 0.95911 0.64343 0.78018 0.0
N5722 N 0.95309 0.65508 0.81919 0.0
N5723 N 0.95247 0.64501 0.78946 0.0
H5724 H 0.10045 0.20837 0.54259 0.0
H5725 H 0.12615 0.1715 0.5927 0.0
H5726 H 0.13481 0.19535 0.54305 0.0
H5727 H 0.09327 0.18763 0.59459 0.0
H5728 H 0.1303 0.18221 0.57554 0.0
H5729 H 0.09843 0.20305 0.56252 0.0
C5730 C 0.10765 0.20459 0.54694 0.0
C5731 C 0.11776 0.20213 0.54109 0.0
C5732 C 0.12223 0.18356 0.57976 0.0
C5733 C 0.11544 0.19587 0.56383 0.0
C5734 C 0.11987 0.17744 0.58955 0.0
C5735 C 0.10931 0.17862 0.59496 0.0
C5736 C 0.1139 0.19079 0.57522 0.0
C5737 C 0.1015 0.18649 0.59063 0.0
C5738 C 0.10647 0.2015 0.55831 0.0
C5739 C 0.12677 0.19716 0.54714 0.0
N5740 N 0.10387 0.19216 0.58089 0.0
N5741 N 0.12535 0.19408 0.55812 0.0
H5742 H 0.5621 0.36195 0.27122 0.0
H5743 H 0.55053 0.35012 0.33692 0.0
H5744 H 0.52837 0.35712 0.28505 0.0
H5745 H 0.58408 0.35463 0.32263 0.0
H5746 H 0.54227 0.35131 0.31785 0.0
H5747 H 0.5703 0.3579 0.28979 0.0
C5748 C 0.5564 0.3599 0.27813 0.0
C5749 C 0.5445 0.35988 0.27654 0.0
C5750 C 0.55145 0.35195 0.31888 0.0
C5751 C 0.55388 0.35541 0.29796 0.0
C5752 C 0.55617 0.3513 0.32977 0.0
C5753 C 0.56802 0.35235 0.3314 0.0
C5754 C 0.55862 0.35371 0.30954 0.0
C5755 C 0.57492 0.35368 0.32179 0.0
C5756 C 0.5611 0.35766 0.28877 0.0
C5757 C 0.53758 0.35739 0.2859 0.0
N5758 N 0.57011 0.35441 0.3113 0.0
N5759 N 0.54237 0.35529 0.29622 0.0
H5760 H 0.43623 0.39587 0.23044 0.0
H5761 H 0.39207 0.37433 0.18281 0.0
H5762 H 0.44586 0.37642 0.20088 0.0
H5763 H 0.38287 0.39767 0.20961 0.0
H5764 H 0.4118 0.37499 0.18945 0.0
H5765 H 0.41657 0.39644 0.22324 0.0
C5766 C 0.43421 0.39172 0.22244 0.0
C5767 C 0.44271 0.38609 0.21625 0.0
C5768 C 0.40548 0.38001 0.19386 0.0
C5769 C 0.42026 0.38674 0.20795 0.0
C5770 C 0.3942 0.3797 0.19002 0.0
C5771 C 0.38575 0.38597 0.19563 0.0
C5772 C 0.40839 0.38658 0.20344 0.0
C5773 C 0.38904 0.39257 0.20509 0.0
C5774 C 0.42301 0.3921 0.21831 0.0
C5775 C 0.43963 0.38097 0.20587 0.0
N5776 N 0.40009 0.39267 0.20872 0.0
N5777 N 0.42866 0.38138 0.20208 0.0
H5778 H 0.38348 0.73304 0.942 0.0
H5779 H 0.35881 0.66972 0.93658 0.0
H5780 H 0.36549 0.71615 0.96901 0.0
H5781 H 0.37558 0.68747 0.90937 0.0
H5782 H 0.3606 0.68677 0.94844 0.0
H5783 H 0.38002 0.71661 0.92977 0.0
C5784 C 0.3787 0.72592 0.94534 0.0
C5785 C 0.37475 0.72602 0.95658 0.0
C5786 C 0.36382 0.68695 0.93985 0.0
C5787 C 0.37091 0.70702 0.9426 0.0
C5788 C 0.36284 0.67721 0.93309 0.0
C5789 C 0.36708 0.67714 0.92197 0.0
C5790 C 0.36913 0.6967 0.93549 0.0
C5791 C 0.37207 0.68715 0.91784 0.0
C5792 C 0.37679 0.7165 0.93835 0.0
C5793 C 0.36882 0.71642 0.96047 0.0
N5794 N 0.37302 0.69649 0.92462 0.0
N5795 N 0.36709 0.70731 0.9535 0.0
H5796 H 0.05642 0.61378 0.68504 0.0
H5797 H 0.11792 0.62733 0.71145 0.0
H5798 H 0.06181 0.62269 0.72029 0.0
H5799 H 0.11269 0.61301 0.67798 0.0
H5800 H 0.0975 0.62535 0.71504 0.0
H5801 H 0.07702 0.61318 0.68244 0.0
C5802 C 0.06191 0.61548 0.69229 0.0
C5803 C 0.05731 0.6183 0.70291 0.0
C5804 C 0.10083 0.62256 0.70694 0.0
C5805 C 0.08102 0.61784 0.6999 0.0
C5806 C 0.11252 0.62362 0.7049 0.0
C5807 C 0.11706 0.62039 0.69436 0.0
C5808 C 0.09359 0.6183 0.69836 0.0
C5809 C 0.10957 0.61581 0.68615 0.0
C5810 C 0.07371 0.6152 0.69076 0.0
C5811 C 0.06493 0.62065 0.7119 0.0
N5812 N 0.09821 0.61498 0.6883 0.0
N5813 N 0.0764 0.62042 0.71017 0.0
H5814 H 0.12199 0.27303 0.43629 0.0
H5815 H 0.16354 0.32418 0.41903 0.0
H5816 H 0.14877 0.28581 0.45833 0.0
H5817 H 0.14223 0.30565 0.39524 0.0
H5818 H 0.15671 0.31184 0.43427 0.0
H5819 H 0.12774 0.28666 0.42191 0.0
C5820 C 0.12909 0.2787 0.43812 0.0
C5821 C 0.135 0.27816 0.4485 0.0
C5822 C 0.15353 0.31049 0.42571 0.0
C5823 C 0.14155 0.29391 0.43207 0.0
C5824 C 0.15739 0.31754 0.41703 0.0
C5825 C 0.15349 0.31588 0.40585 0.0
C5826 C 0.14564 0.30179 0.4232 0.0
C5827 C 0.14558 0.30712 0.40371 0.0
C5828 C 0.13234 0.28651 0.4299 0.0
C5829 C 0.14393 0.28595 0.45048 0.0
N5830 N 0.14191 0.30042 0.4123 0.0
N5831 N 0.14698 0.29347 0.44231 0.0
H5832 H 0.44126 0.60202 0.28658 0.0
H5833 H 0.39107 0.63247 0.32034 0.0
H5834 H 0.43664 0.63832 0.28733 0.0
H5835 H 0.39411 0.59612 0.31694 0.0
H5836 H 0.40667 0.63483 0.30683 0.0
H5837 H 0.42302 0.59967 0.29627 0.0
C5838 C 0.43636 0.6095 0.28874 0.0
C5839 C 0.44052 0.62039 0.28626 0.0
C5840 C 0.40383 0.62634 0.30893 0.0
C5841 C 0.41963 0.61778 0.29737 0.0
C5842 C 0.39495 0.62499 0.31666 0.0
C5843 C 0.39135 0.61409 0.31985 0.0
C5844 C 0.40923 0.6167 0.30442 0.0
C5845 C 0.39656 0.60469 0.31469 0.0
C5846 C 0.42592 0.60815 0.29422 0.0
C5847 C 0.43373 0.62977 0.28906 0.0
N5848 N 0.40532 0.60621 0.30734 0.0
N5849 N 0.42369 0.62826 0.29458 0.0
H5850 H 0.13802 0.7218 0.05384 0.0
H5851 H 0.15044 0.70529 0.11855 0.0
H5852 H 0.12803 0.74204 0.08275 0.0
H5853 H 0.15761 0.68273 0.0905 0.0
H5854 H 0.14261 0.71899 0.10527 0.0
H5855 H 0.14555 0.70744 0.06684 0.0
C5856 C 0.13738 0.72321 0.06291 0.0
C5857 C 0.13232 0.73312 0.06721 0.0
C5858 C 0.14589 0.71105 0.10199 0.0
C5859 C 0.14093 0.71677 0.0821 0.0
C5860 C 0.15045 0.70325 0.10957 0.0
C5861 C 0.15477 0.69288 0.10563 0.0
C5862 C 0.14564 0.70852 0.09032 0.0
C5863 C 0.15431 0.69061 0.09391 0.0
C5864 C 0.14164 0.715 0.07032 0.0
C5865 C 0.13166 0.73446 0.07903 0.0
N5866 N 0.14987 0.69839 0.08665 0.0
N5867 N 0.13594 0.72643 0.08603 0.0
H5868 H 0.05943 0.39667 0.80355 0.0
H5869 H 0.12199 0.37199 0.79255 0.0
H5870 H 0.06717 0.37194 0.77755 0.0
H5871 H 0.11374 0.39356 0.82106 0.0
H5872 H 0.10226 0.37331 0.78594 0.0
H5873 H 0.07953 0.39684 0.80924 0.0
C5874 C 0.06533 0.39126 0.79905 0.0
C5875 C 0.06155 0.38424 0.79008 0.0
C5876 C 0.10476 0.37779 0.79362 0.0
C5877 C 0.08464 0.38451 0.79648 0.0
C5878 C 0.11606 0.37712 0.79736 0.0
C5879 C 0.11954 0.38267 0.80738 0.0
C5880 C 0.09684 0.38408 0.79994 0.0
C5881 C 0.11141 0.38903 0.81336 0.0
C5882 C 0.07683 0.39141 0.80227 0.0
C5883 C 0.06968 0.37759 0.78442 0.0
N5884 N 0.10044 0.38955 0.80955 0.0
N5885 N 0.08081 0.37786 0.78773 0.0
H5886 H 0.3566 0.28818 0.53526 0.0
H5887 H 0.36811 0.31899 0.59503 0.0
H5888 H 0.37476 0.27291 0.5632 0.0
H5889 H 0.35206 0.33544 0.56652 0.0
H5890 H 0.36859 0.30132 0.58415 0.0
H5891 H 0.35318 0.30494 0.5471 0.0
C5892 C 0.35986 0.28833 0.54388 0.0
C5893 C 0.36603 0.27912 0.54821 0.0
C5894 C 0.36488 0.30877 0.58029 0.0
C5895 C 0.36205 0.29825 0.56184 0.0
C5896 C 0.36452 0.31885 0.58655 0.0
C5897 C 0.36009 0.32875 0.58167 0.0
C5898 C 0.36081 0.30854 0.56905 0.0
C5899 C 0.35572 0.32807 0.57056 0.0
C5900 C 0.35785 0.29788 0.55065 0.0
C5901 C 0.36986 0.27973 0.55952 0.0
N5902 N 0.35625 0.31816 0.5646 0.0
N5903 N 0.36786 0.28914 0.56591 0.0
H5904 H 0.20463 0.45063 0.373 0.0
H5905 H 0.17064 0.39572 0.39409 0.0
H5906 H 0.18279 0.45042 0.40239 0.0
H5907 H 0.19477 0.39515 0.36656 0.0
H5908 H 0.17555 0.41561 0.3977 0.0
H5909 H 0.20186 0.43015 0.37104 0.0
C5910 C 0.19936 0.44627 0.37913 0.0
C5911 C 0.19388 0.45229 0.38784 0.0
C5912 C 0.17983 0.41113 0.39092 0.0
C5913 C 0.19053 0.42883 0.38553 0.0
C5914 C 0.17699 0.39979 0.38882 0.0
C5915 C 0.18225 0.39379 0.37996 0.0
C5916 C 0.18794 0.41656 0.38406 0.0
C5917 C 0.19056 0.39943 0.37352 0.0
C5918 C 0.19773 0.43457 0.37796 0.0
C5919 C 0.18701 0.44618 0.39542 0.0
N5920 N 0.19308 0.41052 0.37564 0.0
N5921 N 0.18549 0.43481 0.39405 0.0
H5922 H 0.71038 0.05603 0.63481 0.0
H5923 H 0.6763 0.11031 0.61263 0.0
H5924 H 0.68935 0.0559 0.6046 0.0
H5925 H 0.69846 0.11085 0.64203 0.0
H5926 H 0.68162 0.09058 0.60909 0.0
H5927 H 0.70694 0.07635 0.63703 0.0
C5928 C 0.70514 0.06028 0.62857 0.0
C5929 C 0.7001 0.0542 0.61953 0.0
C5930 C 0.68538 0.09503 0.61628 0.0
C5931 C 0.69599 0.07748 0.62212 0.0
C5932 C 0.6823 0.10628 0.61833 0.0
C5933 C 0.6869 0.11223 0.62767 0.0
C5934 C 0.69308 0.08964 0.62364 0.0
C5935 C 0.69478 0.10663 0.63467 0.0
C5936 C 0.70312 0.07189 0.62989 0.0
C5937 C 0.69325 0.06018 0.61181 0.0
N5938 N 0.69756 0.09564 0.63255 0.0
N5939 N 0.69136 0.07145 0.61331 0.0
H5940 H 0.71751 0.96438 0.36546 0.0
H5941 H 0.71108 0.90349 0.33534 0.0
H5942 H 0.74583 0.94417 0.35389 0.0
H5943 H 0.6822 0.92332 0.34616 0.0
H5944 H 0.72382 0.91866 0.34177 0.0
H5945 H 0.70431 0.9499 0.35797 0.0
C5946 C 0.72095 0.95695 0.36128 0.0
C5947 C 0.7328 0.95546 0.36038 0.0
C5948 C 0.7147 0.91973 0.34274 0.0
C5949 C 0.71777 0.93883 0.35188 0.0
C5950 C 0.70741 0.91103 0.33913 0.0
C5951 C 0.69555 0.91208 0.3403 0.0
C5952 C 0.71014 0.92961 0.34762 0.0
C5953 C 0.69129 0.92217 0.34504 0.0
C5954 C 0.71342 0.94866 0.35706 0.0
C5955 C 0.73677 0.9456 0.35497 0.0
N5956 N 0.69858 0.93053 0.34858 0.0
N5957 N 0.72929 0.93768 0.35096 0.0
H5958 H 0.79436 0.95415 0.13698 0.0
H5959 H 0.82346 0.90697 0.0977 0.0
H5960 H 0.79467 0.95522 0.10039 0.0
H5961 H 0.82678 0.90799 0.13419 0.0
H5962 H 0.81017 0.92283 0.09869 0.0
H5963 H 0.80353 0.93555 0.13622 0.0
C5964 C 0.79619 0.95039 0.12878 0.0
C5965 C 0.79385 0.9563 0.11873 0.0
C5966 C 0.81371 0.91952 0.10649 0.0
C5967 C 0.80444 0.93508 0.1178 0.0
C5968 C 0.82124 0.91039 0.10594 0.0
C5969 C 0.82632 0.9062 0.11587 0.0
C5970 C 0.81124 0.92451 0.11705 0.0
C5971 C 0.82321 0.91108 0.1263 0.0
C5972 C 0.8015 0.93981 0.12836 0.0
C5973 C 0.79651 0.95106 0.10835 0.0
N5974 N 0.81595 0.92003 0.12661 0.0
N5975 N 0.80173 0.94079 0.10816 0.0
H5976 H 0.26459 0.55356 0.37535 0.0
H5977 H 0.32585 0.5605 0.34646 0.0
H5978 H 0.27972 0.52762 0.3543 0.0
H5979 H 0.30933 0.58678 0.36595 0.0
H5980 H 0.30889 0.54848 0.34864 0.0
H5981 H 0.28073 0.56599 0.3714 0.0
C5982 C 0.27126 0.5505 0.3698 0.0
C5983 C 0.27075 0.53951 0.36512 0.0
C5984 C 0.30895 0.55691 0.35237 0.0
C5985 C 0.28944 0.55372 0.36069 0.0
C5986 C 0.31864 0.56376 0.35115 0.0
C5987 C 0.31904 0.57466 0.35606 0.0
C5988 C 0.29961 0.56096 0.35858 0.0
C5989 C 0.30938 0.5785 0.36192 0.0
C5990 C 0.28052 0.5576 0.36759 0.0
C5991 C 0.2798 0.53596 0.35819 0.0
N5992 N 0.30011 0.57163 0.36307 0.0
N5993 N 0.28878 0.54304 0.3562 0.0
H5994 H 0.29479 0.55557 0.86956 0.0
H5995 H 0.32823 0.60197 0.90712 0.0
H5996 H 0.29679 0.55494 0.90613 0.0
H5997 H 0.32873 0.60117 0.87049 0.0
H5998 H 0.31443 0.58637 0.90688 0.0
H5999 H 0.30491 0.5738 0.86974 0.0
C6000 C 0.2972 0.55935 0.87764 0.0
C6001 C 0.29503 0.55367 0.88784 0.0
C6002 C 0.31747 0.58967 0.89888 0.0
C6003 C 0.30674 0.57446 0.8881 0.0
C6004 C 0.3253 0.59865 0.89901 0.0
C6005 C 0.32972 0.60285 0.88881 0.0
C6006 C 0.31403 0.58482 0.88848 0.0
C6007 C 0.3257 0.59808 0.87857 0.0
C6008 C 0.30305 0.56972 0.87773 0.0
C6009 C 0.29846 0.55892 0.89805 0.0
N6010 N 0.31815 0.58927 0.87867 0.0
N6011 N 0.3042 0.56897 0.89792 0.0
H6012 H 0.74236 0.05604 0.15568 0.0
H6013 H 0.69351 0.10187 0.14451 0.0
H6014 H 0.73348 0.06887 0.12259 0.0
H6015 H 0.70215 0.08945 0.17782 0.0
H6016 H 0.70698 0.08851 0.13622 0.0
H6017 H 0.72648 0.06672 0.1638 0.0
C6018 C 0.73698 0.06098 0.1501 0.0
C6019 C 0.73932 0.06165 0.13845 0.0
C6020 C 0.7059 0.08863 0.14534 0.0
C6021 C 0.72122 0.07399 0.1477 0.0
C6022 C 0.69824 0.0963 0.15008 0.0
C6023 C 0.69679 0.09686 0.16188 0.0
C6024 C 0.71225 0.08148 0.15244 0.0
C6025 C 0.70297 0.08928 0.16867 0.0
C6026 C 0.72795 0.06712 0.15475 0.0
C6027 C 0.73212 0.06827 0.13164 0.0
N6028 N 0.71051 0.08197 0.16386 0.0
N6029 N 0.72346 0.07423 0.13638 0.0
H6030 H 0.77329 0.9703 0.66024 0.0
H6031 H 0.81923 0.92207 0.64655 0.0
H6032 H 0.78441 0.9621 0.62633 0.0
H6033 H 0.80212 0.92544 0.67871 0.0
H6034 H 0.80877 0.9386 0.63958 0.0
H6035 H 0.78613 0.95583 0.6677 0.0
C6036 C 0.77856 0.96557 0.65438 0.0
C6037 C 0.77775 0.96738 0.64264 0.0
C6038 C 0.80735 0.93575 0.64818 0.0
C6039 C 0.79237 0.95071 0.65111 0.0
C6040 C 0.81337 0.92637 0.65218 0.0
C6041 C 0.81148 0.92234 0.6632 0.0
C6042 C 0.79947 0.9412 0.65528 0.0
C6043 C 0.80371 0.92817 0.6701 0.0
C6044 C 0.78582 0.95725 0.65863 0.0
C6045 C 0.78467 0.96088 0.63543 0.0
N6046 N 0.79798 0.93729 0.66603 0.0
N6047 N 0.79167 0.95282 0.63978 0.0
loop_
_geom_bond_atom_site_label_1
_geom_bond_atom_site_label_2
_geom_bond_distance
_geom_bond_site_symmetry_2
_ccdc_geom_bond_type
C0 C1 1.264 . S
C0 C5 1.479 . S
C0 C10 1.465 . S
C1 C0 1.264 . S
C1 C3 1.339 . S
C1 H28 0.931 . S
C2 C3 1.395 . S
C2 C4 1.320 . S
C3 C1 1.339 . S
C3 C2 1.395 . S
C3 H29 0.929 . S
C4 C2 1.320 . S
C4 C5 1.405 . S
C4 H30 0.930 . S
C5 C0 1.479 . S
C5 C4 1.405 . S
C5 H31 0.931 . S
U6 O7 2.454 . S
U6 O8 2.458 . S
U6 C9 2.984 . S
U6 C10 2.847 1_455 S
U6 C23 2.882 . S
U6 O24 2.352 1_455 S
U6 O25 2.420 . S
U6 O26 2.455 . S
U6 O27 2.449 . S
O7 U6 2.454 . S
O7 C9 1.353 . S
O8 U6 2.458 . S
O8 C9 1.286 . S
C9 U6 2.984 . S
C9 O7 1.353 . S
C9 O8 1.286 . S
C9 C11 1.363 . S
C10 C0 1.465 . S
C10 U6 2.847 1_655 S
C10 O24 1.267 . S
C10 O25 1.202 1_655 S
C11 C9 1.363 . S
C11 C13 1.408 . S
C11 C16 1.342 . S
C12 C13 1.310 . S
C12 C15 1.461 . S
C12 H32 0.932 . S
C13 C11 1.408 . S
C13 C12 1.310 . S
C13 H33 0.930 . S
C14 C15 1.474 . S
C14 C16 1.285 . S
C14 H34 0.929 . S
C15 C12 1.461 . S
C15 C14 1.474 . S
C16 C11 1.342 . S
C16 C14 1.285 . S
C16 H35 0.930 . S
C17 C20 1.424 . S
C17 C22 1.245 . S
C17 C23 1.428 . S
C18 C21 1.260 . S
C18 C22 1.477 . S
C18 H36 0.932 . S
C19 C20 1.384 . S
C19 C21 1.479 . S
C19 H37 0.929 . S
C20 C17 1.424 . S
C20 C19 1.384 . S
C20 H38 0.928 . S
C21 C18 1.260 . S
C21 C19 1.479 . S
C22 C17 1.245 . S
C22 C18 1.477 . S
C22 H39 0.932 . S
C23 U6 2.882 . S
C23 C17 1.428 . S
C23 O26 1.301 . S
C23 O27 1.282 . S
O24 U6 2.352 1_655 S
O24 C10 1.267 . S
O25 U6 2.420 . S
O25 C10 1.202 1_455 S
O26 U6 2.455 . S
O26 C23 1.301 . S
O27 U6 2.449 . S
O27 C23 1.282 . S
H28 C1 0.931 . S
H29 C3 0.929 . S
H30 C4 0.930 . S
H31 C5 0.931 . S
H32 C12 0.932 . S
H33 C13 0.930 . S
H34 C14 0.929 . S
H35 C16 0.930 . S
H36 C18 0.932 . S
H37 C19 0.929 . S
H38 C20 0.928 . S
H39 C22 0.932 . S
C40 C41 1.264 . S
C40 C45 1.479 . S
C40 C50 1.465 . S
C41 C40 1.264 . S
C41 C43 1.339 . S
C41 H68 0.931 . S
C42 C43 1.395 . S
C42 C44 1.320 . S
C43 C41 1.339 . S
C43 C42 1.395 . S
C43 H69 0.929 . S
C44 C42 1.320 . S
C44 C45 1.405 . S
C44 H70 0.930 . S
C45 C40 1.479 . S
C45 C44 1.405 . S
C45 H71 0.931 . S
U46 O47 2.454 . S
U46 O48 2.458 . S
U46 C49 2.984 . S
U46 C50 2.847 . S
U46 C63 2.882 . S
U46 O64 2.441 . S
U46 O65 2.420 . S
U46 O66 2.455 . S
U46 O67 2.449 . S
O47 U46 2.454 . S
O47 C49 1.353 . S
O48 U46 2.458 . S
O48 C49 1.286 . S
C49 U46 2.984 . S
C49 O47 1.353 . S
C49 O48 1.286 . S
C49 C51 1.363 . S
C50 C40 1.465 . S
C50 U46 2.847 . S
C50 O64 1.249 . S
C50 O65 1.202 . S
C51 C49 1.363 . S
C51 C53 1.408 . S
C51 C56 1.342 . S
C52 C53 1.310 . S
C52 C55 1.461 . S
C52 H72 0.932 . S
C53 C51 1.408 . S
C53 C52 1.310 . S
C53 H73 0.930 . S
C54 C55 1.474 . S
C54 C56 1.285 . S
C54 H74 0.929 . S
C55 C52 1.461 . S
C55 C54 1.474 . S
C56 C51 1.342 . S
C56 C54 1.285 . S
C56 H75 0.930 . S
C57 C60 1.424 . S
C57 C62 1.245 . S
C57 C63 1.428 . S
C58 C61 1.260 . S
C58 C62 1.477 . S
C58 H76 0.932 . S
C59 C60 1.384 . S
C59 C61 1.479 . S
C59 H77 0.929 . S
C60 C57 1.424 . S
C60 C59 1.384 . S
C60 H78 0.928 . S
C61 C58 1.260 . S
C61 C59 1.479 . S
C62 C57 1.245 . S
C62 C58 1.477 . S
C62 H79 0.932 . S
C63 U46 2.882 . S
C63 C57 1.428 . S
C63 O66 1.301 . S
C63 O67 1.282 . S
O64 U46 2.441 . S
O64 C50 1.249 . S
O65 U46 2.420 . S
O65 C50 1.202 . S
O66 U46 2.455 . S
O66 C63 1.301 . S
O67 U46 2.449 . S
O67 C63 1.282 . S
H68 C41 0.931 . S
H69 C43 0.929 . S
H70 C44 0.930 . S
H71 C45 0.931 . S
H72 C52 0.932 . S
H73 C53 0.930 . S
H74 C54 0.929 . S
H75 C56 0.930 . S
H76 C58 0.932 . S
H77 C59 0.929 . S
H78 C60 0.928 . S
H79 C62 0.932 . S
C80 C81 1.264 . S
C80 C85 1.479 . S
C80 C90 1.465 . S
C81 C80 1.264 . S
C81 C83 1.339 . S
C81 H108 0.931 . S
C82 C83 1.395 . S
C82 C84 1.320 . S
C83 C81 1.339 . S
C83 C82 1.395 . S
C83 H109 0.929 . S
C84 C82 1.320 . S
C84 C85 1.405 . S
C84 H110 0.930 . S
C85 C80 1.479 . S
C85 C84 1.405 . S
C85 H111 0.931 . S
U86 O87 2.454 . S
U86 O88 2.458 . S
U86 C89 2.984 . S
U86 C90 2.847 . S
U86 C103 2.882 . S
U86 O104 2.441 . S
U86 O105 2.420 . S
U86 O106 2.455 . S
U86 O107 2.449 . S
O87 U86 2.454 . S
O87 C89 1.353 . S
O88 U86 2.458 . S
O88 C89 1.286 . S
C89 U86 2.984 . S
C89 O87 1.353 . S
C89 O88 1.286 . S
C89 C91 1.363 . S
C90 C80 1.465 . S
C90 U86 2.847 . S
C90 O104 1.249 . S
C90 O105 1.202 . S
C91 C89 1.363 . S
C91 C93 1.408 . S
C91 C96 1.342 . S
C92 C93 1.310 . S
C92 C95 1.461 . S
C92 H112 0.932 . S
C93 C91 1.408 . S
C93 C92 1.310 . S
C93 H113 0.930 . S
C94 C95 1.474 . S
C94 C96 1.285 . S
C94 H114 0.929 . S
C95 C92 1.461 . S
C95 C94 1.474 . S
C96 C91 1.342 . S
C96 C94 1.285 . S
C96 H115 0.930 . S
C97 C100 1.424 . S
C97 C102 1.245 . S
C97 C103 1.428 . S
C98 C101 1.260 . S
C98 C102 1.477 . S
C98 H116 0.932 . S
C99 C100 1.384 . S
C99 C101 1.479 . S
C99 H117 0.929 . S
C100 C97 1.424 . S
C100 C99 1.384 . S
C100 H118 0.928 . S
C101 C98 1.260 . S
C101 C99 1.479 . S
C102 C97 1.245 . S
C102 C98 1.477 . S
C102 H119 0.932 . S
C103 U86 2.882 . S
C103 C97 1.428 . S
C103 O106 1.301 . S
C103 O107 1.282 . S
O104 U86 2.441 . S
O104 C90 1.249 . S
O105 U86 2.420 . S
O105 C90 1.202 . S
O106 U86 2.455 . S
O106 C103 1.301 . S
O107 U86 2.449 . S
O107 C103 1.282 . S
H108 C81 0.931 . S
H109 C83 0.929 . S
H110 C84 0.930 . S
H111 C85 0.931 . S
H112 C92 0.932 . S
H113 C93 0.930 . S
H114 C94 0.929 . S
H115 C96 0.930 . S
H116 C98 0.932 . S
H117 C99 0.929 . S
H118 C100 0.928 . S
H119 C102 0.932 . S
C120 C121 1.264 . S
C120 C125 1.479 . S
C120 C130 1.465 . S
C121 C120 1.264 . S
C121 C123 1.339 . S
C121 H148 0.931 . S
C122 C123 1.395 . S
C122 C124 1.320 . S
C123 C121 1.339 . S
C123 C122 1.395 . S
C123 H149 0.929 . S
C124 C122 1.320 . S
C124 C125 1.405 . S
C124 H150 0.930 . S
C125 C120 1.479 . S
C125 C124 1.405 . S
C125 H151 0.931 . S
U126 O127 2.454 . S
U126 O128 2.458 . S
U126 C129 2.984 . S
U126 C130 2.847 . S
U126 C143 2.882 . S
U126 O144 2.441 . S
U126 O145 2.420 . S
U126 O146 2.455 . S
U126 O147 2.449 . S
O127 U126 2.454 . S
O127 C129 1.353 . S
O128 U126 2.458 . S
O128 C129 1.286 . S
C129 U126 2.984 . S
C129 O127 1.353 . S
C129 O128 1.286 . S
C129 C131 1.363 . S
C130 C120 1.465 . S
C130 U126 2.847 . S
C130 O144 1.249 . S
C130 O145 1.202 . S
C131 C129 1.363 . S
C131 C133 1.408 1_554 S
C131 C136 1.342 . S
C132 C133 1.310 . S
C132 C135 1.461 . S
C132 H152 0.932 . S
C133 C131 1.408 1_556 S
C133 C132 1.310 . S
C133 H153 0.930 . S
C134 C135 1.474 . S
C134 C136 1.285 1_556 S
C134 H154 0.929 . S
C135 C132 1.461 . S
C135 C134 1.474 . S
C136 C131 1.342 . S
C136 C134 1.285 1_554 S
C136 H155 0.930 . S
C137 C140 1.424 . S
C137 C142 1.245 . S
C137 C143 1.428 . S
C138 C141 1.260 . S
C138 C142 1.477 . S
C138 H156 0.932 . S
C139 C140 1.384 . S
C139 C141 1.479 . S
C139 H157 0.929 . S
C140 C137 1.424 . S
C140 C139 1.384 . S
C140 H158 0.928 . S
C141 C138 1.260 . S
C141 C139 1.479 . S
C142 C137 1.245 . S
C142 C138 1.477 . S
C142 H159 0.932 . S
C143 U126 2.882 . S
C143 C137 1.428 . S
C143 O146 1.301 . S
C143 O147 1.282 . S
O144 U126 2.441 . S
O144 C130 1.249 . S
O145 U126 2.420 . S
O145 C130 1.202 . S
O146 U126 2.455 . S
O146 C143 1.301 . S
O147 U126 2.449 . S
O147 C143 1.282 . S
H148 C121 0.931 . S
H149 C123 0.929 . S
H150 C124 0.930 . S
H151 C125 0.931 . S
H152 C132 0.932 . S
H153 C133 0.930 . S
H154 C134 0.929 . S
H155 C136 0.930 . S
H156 C138 0.932 . S
H157 C139 0.929 . S
H158 C140 0.928 . S
H159 C142 0.932 . S
C160 C161 1.264 . S
C160 C165 1.479 . S
C160 C170 1.433 1_655 S
C161 C160 1.264 . S
C161 C163 1.339 . S
C161 H188 0.931 . S
C162 C163 1.395 . S
C162 C164 1.320 . S
C163 C161 1.339 . S
C163 C162 1.395 . S
C163 H189 0.929 . S
C164 C162 1.320 . S
C164 C165 1.405 . S
C164 H190 0.930 . S
C165 C160 1.479 . S
C165 C164 1.405 . S
C165 H191 0.931 . S
U166 O167 2.454 . S
U166 O168 2.458 . S
U166 C169 2.984 . S
U166 C170 2.884 . S
U166 C183 2.882 . S
U166 O184 2.441 . S
U166 O185 2.420 . S
U166 O186 2.455 . S
U166 O187 2.449 . S
O167 U166 2.454 . S
O167 C169 1.353 . S
O168 U166 2.458 . S
O168 C169 1.286 . S
C169 U166 2.984 . S
C169 O167 1.353 . S
C169 O168 1.286 . S
C169 C171 1.363 . S
C170 C160 1.433 1_455 S
C170 U166 2.884 . S
C170 O184 1.256 . S
C170 O185 1.233 . S
C171 C169 1.363 . S
C171 C173 1.408 . S
C171 C176 1.342 . S
C172 C173 1.310 . S
C172 C175 1.461 . S
C172 H192 0.932 . S
C173 C171 1.408 . S
C173 C172 1.310 . S
C173 H193 0.930 . S
C174 C175 1.474 . S
C174 C176 1.285 . S
C174 H194 0.929 . S
C175 C172 1.461 . S
C175 C174 1.474 . S
C176 C171 1.342 . S
C176 C174 1.285 . S
C176 H195 0.930 . S
C177 C180 1.424 . S
C177 C182 1.245 . S
C177 C183 1.428 . S
C178 C181 1.260 . S
C178 C182 1.477 . S
C178 H196 0.932 . S
C179 C180 1.384 . S
C179 C181 1.479 . S
C179 H197 0.929 . S
C180 C177 1.424 . S
C180 C179 1.384 . S
C180 H198 0.928 . S
C181 C178 1.260 . S
C181 C179 1.479 . S
C182 C177 1.245 . S
C182 C178 1.477 . S
C182 H199 0.932 . S
C183 U166 2.882 . S
C183 C177 1.428 . S
C183 O186 1.301 . S
C183 O187 1.282 . S
O184 U166 2.441 . S
O184 C170 1.256 . S
O185 U166 2.420 . S
O185 C170 1.233 . S
O186 U166 2.455 . S
O186 C183 1.301 . S
O187 U166 2.449 . S
O187 C183 1.282 . S
H188 C161 0.931 . S
H189 C163 0.929 . S
H190 C164 0.930 . S
H191 C165 0.931 . S
H192 C172 0.932 . S
H193 C173 0.930 . S
H194 C174 0.929 . S
H195 C176 0.930 . S
H196 C178 0.932 . S
H197 C179 0.929 . S
H198 C180 0.928 . S
H199 C182 0.932 . S
C200 C201 1.264 . S
C200 C205 1.479 . S
C200 C210 1.465 . S
C201 C200 1.264 . S
C201 C203 1.339 . S
C201 H228 0.931 . S
C202 C203 1.395 . S
C202 C204 1.320 . S
C203 C201 1.339 . S
C203 C202 1.395 . S
C203 H229 0.929 . S
C204 C202 1.320 . S
C204 C205 1.405 . S
C204 H230 0.930 . S
C205 C200 1.479 . S
C205 C204 1.405 . S
C205 H231 0.931 . S
U206 O207 2.454 . S
U206 O208 2.458 . S
U206 C209 2.984 . S
U206 C210 2.847 . S
U206 C223 2.882 . S
U206 O224 2.441 . S
U206 O225 2.420 . S
U206 O226 2.455 . S
U206 O227 2.449 . S
O207 U206 2.454 . S
O207 C209 1.353 . S
O208 U206 2.458 . S
O208 C209 1.286 . S
C209 U206 2.984 . S
C209 O207 1.353 . S
C209 O208 1.286 . S
C209 C211 1.363 . S
C210 C200 1.465 . S
C210 U206 2.847 . S
C210 O224 1.249 . S
C210 O225 1.202 . S
C211 C209 1.363 . S
C211 C213 1.408 . S
C211 C216 1.342 . S
C212 C213 1.310 . S
C212 C215 1.461 . S
C212 H232 0.932 . S
C213 C211 1.408 . S
C213 C212 1.310 . S
C213 H233 0.930 . S
C214 C215 1.474 . S
C214 C216 1.285 . S
C214 H234 0.929 . S
C215 C212 1.461 . S
C215 C214 1.474 . S
C216 C211 1.342 . S
C216 C214 1.285 . S
C216 H235 0.930 . S
C217 C220 1.424 . S
C217 C222 1.245 . S
C217 C223 1.428 . S
C218 C221 1.260 . S
C218 C222 1.477 . S
C218 H236 0.932 . S
C219 C220 1.384 . S
C219 C221 1.479 . S
C219 H237 0.929 . S
C220 C217 1.424 . S
C220 C219 1.384 . S
C220 H238 0.928 . S
C221 C218 1.260 . S
C221 C219 1.479 . S
C222 C217 1.245 . S
C222 C218 1.477 . S
C222 H239 0.932 . S
C223 U206 2.882 . S
C223 C217 1.428 . S
C223 O226 1.301 . S
C223 O227 1.282 . S
O224 U206 2.441 . S
O224 C210 1.249 . S
O225 U206 2.420 . S
O225 C210 1.202 . S
O226 U206 2.455 . S
O226 C223 1.301 . S
O227 U206 2.449 . S
O227 C223 1.282 . S
H228 C201 0.931 . S
H229 C203 0.929 . S
H230 C204 0.930 . S
H231 C205 0.931 . S
H232 C212 0.932 . S
H233 C213 0.930 . S
H234 C214 0.929 . S
H235 C216 0.930 . S
H236 C218 0.932 . S
H237 C219 0.929 . S
H238 C220 0.928 . S
H239 C222 0.932 . S
C240 C241 1.264 . S
C240 C245 1.479 . S
C240 C250 1.465 . S
C241 C240 1.264 . S
C241 C243 1.339 . S
C241 H268 0.931 . S
C242 C243 1.395 . S
C242 C244 1.320 . S
C243 C241 1.339 . S
C243 C242 1.395 . S
C243 H269 0.929 . S
C244 C242 1.320 . S
C244 C245 1.405 . S
C244 H270 0.930 . S
C245 C240 1.479 . S
C245 C244 1.405 . S
C245 H271 0.931 . S
U246 O247 2.454 . S
U246 O248 2.458 . S
U246 C249 2.984 . S
U246 C250 2.847 . S
U246 C263 2.882 . S
U246 O264 2.441 . S
U246 O265 2.420 . S
U246 O266 2.455 . S
U246 O267 2.449 . S
O247 U246 2.454 . S
O247 C249 1.353 . S
O248 U246 2.458 . S
O248 C249 1.286 . S
C249 U246 2.984 . S
C249 O247 1.353 . S
C249 O248 1.286 . S
C249 C251 1.363 . S
C250 C240 1.465 . S
C250 U246 2.847 . S
C250 O264 1.249 . S
C250 O265 1.202 . S
C251 C249 1.363 . S
C251 C253 1.408 . S
C251 C256 1.342 . S
C252 C253 1.310 . S
C252 C255 1.461 . S
C252 H272 0.932 . S
C253 C251 1.408 . S
C253 C252 1.310 . S
C253 H273 0.930 . S
C254 C255 1.474 . S
C254 C256 1.285 . S
C254 H274 0.929 . S
C255 C252 1.461 . S
C255 C254 1.474 . S
C256 C251 1.342 . S
C256 C254 1.285 . S
C256 H275 0.930 . S
C257 C260 1.424 . S
C257 C262 1.245 . S
C257 C263 1.428 . S
C258 C261 1.260 . S
C258 C262 1.477 . S
C258 H276 0.932 . S
C259 C260 1.384 . S
C259 C261 1.479 . S
C259 H277 0.929 . S
C260 C257 1.424 . S
C260 C259 1.384 . S
C260 H278 0.928 . S
C261 C258 1.260 . S
C261 C259 1.479 . S
C262 C257 1.245 . S
C262 C258 1.477 . S
C262 H279 0.932 . S
C263 U246 2.882 . S
C263 C257 1.428 . S
C263 O266 1.301 . S
C263 O267 1.282 . S
O264 U246 2.441 . S
O264 C250 1.249 . S
O265 U246 2.420 . S
O265 C250 1.202 . S
O266 U246 2.455 . S
O266 C263 1.301 . S
O267 U246 2.449 . S
O267 C263 1.282 . S
H268 C241 0.931 . S
H269 C243 0.929 . S
H270 C244 0.930 . S
H271 C245 0.931 . S
H272 C252 0.932 . S
H273 C253 0.930 . S
H274 C254 0.929 . S
H275 C256 0.930 . S
H276 C258 0.932 . S
H277 C259 0.929 . S
H278 C260 0.928 . S
H279 C262 0.932 . S
C280 C281 1.264 . S
C280 C285 1.479 . S
C280 C290 1.465 1_554 S
C281 C280 1.264 . S
C281 C283 1.339 . S
C281 H308 0.931 1_554 S
C282 C283 1.395 . S
C282 C284 1.320 . S
C283 C281 1.339 . S
C283 C282 1.395 . S
C283 H309 0.929 . S
C284 C282 1.320 . S
C284 C285 1.405 . S
C284 H310 0.930 . S
C285 C280 1.479 . S
C285 C284 1.405 . S
C285 H311 0.931 . S
U286 O287 2.454 . S
U286 O288 2.458 . S
U286 C289 2.984 . S
U286 C290 2.847 . S
U286 C303 2.882 . S
U286 O304 2.441 . S
U286 O305 2.420 . S
U286 O306 2.455 . S
U286 O307 2.449 . S
O287 U286 2.454 . S
O287 C289 1.353 . S
O288 U286 2.458 . S
O288 C289 1.286 . S
C289 U286 2.984 . S
C289 O287 1.353 . S
C289 O288 1.286 . S
C289 C291 1.363 . S
C290 C280 1.465 1_556 S
C290 U286 2.847 . S
C290 O304 1.249 . S
C290 O305 1.202 . S
C291 C289 1.363 . S
C291 C293 1.408 . S
C291 C296 1.342 . S
C292 C293 1.310 . S
C292 C295 1.461 . S
C292 H312 0.932 . S
C293 C291 1.408 . S
C293 C292 1.310 . S
C293 H313 0.930 . S
C294 C295 1.474 . S
C294 C296 1.285 . S
C294 H314 0.929 . S
C295 C292 1.461 . S
C295 C294 1.474 . S
C296 C291 1.342 . S
C296 C294 1.285 . S
C296 H315 0.930 . S
C297 C300 1.424 . S
C297 C302 1.245 . S
C297 C303 1.428 . S
C298 C301 1.260 . S
C298 C302 1.477 . S
C298 H316 0.932 . S
C299 C300 1.384 . S
C299 C301 1.479 . S
C299 H317 0.929 . S
C300 C297 1.424 . S
C300 C299 1.384 . S
C300 H318 0.928 . S
C301 C298 1.260 . S
C301 C299 1.479 . S
C302 C297 1.245 . S
C302 C298 1.477 . S
C302 H319 0.932 . S
C303 U286 2.882 . S
C303 C297 1.428 . S
C303 O306 1.301 . S
C303 O307 1.282 . S
O304 U286 2.441 . S
O304 C290 1.249 . S
O305 U286 2.420 . S
O305 C290 1.202 . S
O306 U286 2.455 . S
O306 C303 1.301 . S
O307 U286 2.449 . S
O307 C303 1.282 . S
H308 C281 0.931 1_556 S
H309 C283 0.929 . S
H310 C284 0.930 . S
H311 C285 0.931 . S
H312 C292 0.932 . S
H313 C293 0.930 . S
H314 C294 0.929 . S
H315 C296 0.930 . S
H316 C298 0.932 . S
H317 C299 0.929 . S
H318 C300 0.928 . S
H319 C302 0.932 . S
C320 C321 1.264 . S
C320 C325 1.479 . S
C320 C330 1.465 . S
C321 C320 1.264 . S
C321 C323 1.339 . S
C321 H348 0.931 . S
C322 C323 1.395 . S
C322 C324 1.320 . S
C323 C321 1.339 . S
C323 C322 1.395 . S
C323 H349 0.929 . S
C324 C322 1.320 . S
C324 C325 1.405 . S
C324 H350 0.930 . S
C325 C320 1.479 . S
C325 C324 1.405 . S
C325 H351 0.931 . S
U326 O327 2.454 . S
U326 O328 2.458 . S
U326 C329 2.984 . S
U326 C330 2.847 . S
U326 C343 2.882 . S
U326 O344 2.441 . S
U326 O345 2.420 . S
U326 O346 2.455 . S
U326 O347 2.449 . S
O327 U326 2.454 . S
O327 C329 1.353 . S
O328 U326 2.458 . S
O328 C329 1.286 . S
C329 U326 2.984 . S
C329 O327 1.353 . S
C329 O328 1.286 . S
C329 C331 1.363 1_545 S
C330 C320 1.465 . S
C330 U326 2.847 . S
C330 O344 1.249 . S
C330 O345 1.202 . S
C331 C329 1.363 1_565 S
C331 C333 1.408 . S
C331 C336 1.342 . S
C332 C333 1.310 . S
C332 C335 1.461 . S
C332 H352 0.932 . S
C333 C331 1.408 . S
C333 C332 1.310 . S
C333 H353 0.930 . S
C334 C335 1.474 . S
C334 C336 1.285 . S
C334 H354 0.929 . S
C335 C332 1.461 . S
C335 C334 1.474 . S
C336 C331 1.342 . S
C336 C334 1.285 . S
C336 H355 0.930 1_565 S
C337 C340 1.424 . S
C337 C342 1.245 . S
C337 C343 1.428 . S
C338 C341 1.260 . S
C338 C342 1.477 . S
C338 H356 0.932 . S
C339 C340 1.384 . S
C339 C341 1.479 . S
C339 H357 0.929 . S
C340 C337 1.424 . S
C340 C339 1.384 . S
C340 H358 0.928 . S
C341 C338 1.260 . S
C341 C339 1.479 . S
C342 C337 1.245 . S
C342 C338 1.477 . S
C342 H359 0.932 . S
C343 U326 2.882 . S
C343 C337 1.428 . S
C343 O346 1.301 . S
C343 O347 1.282 . S
O344 U326 2.441 . S
O344 C330 1.249 . S
O345 U326 2.420 . S
O345 C330 1.202 . S
O346 U326 2.455 . S
O346 C343 1.301 . S
O347 U326 2.449 . S
O347 C343 1.282 . S
H348 C321 0.931 . S
H349 C323 0.929 . S
H350 C324 0.930 . S
H351 C325 0.931 . S
H352 C332 0.932 . S
H353 C333 0.930 . S
H354 C334 0.929 . S
H355 C336 0.930 1_545 S
H356 C338 0.932 . S
H357 C339 0.929 . S
H358 C340 0.928 . S
H359 C342 0.932 . S
C360 C361 1.262 1_545 S
C360 C365 1.485 1_545 S
C360 C370 1.459 . S
C361 C360 1.262 1_565 S
C361 C363 1.387 . S
C361 H388 0.887 1_565 S
C362 C363 1.395 . S
C362 C364 1.320 . S
C363 C361 1.387 . S
C363 C362 1.395 . S
C363 H389 0.929 . S
C364 C362 1.320 . S
C364 C365 1.405 . S
C364 H390 0.930 . S
C365 C360 1.485 1_565 S
C365 C364 1.405 . S
C365 H391 0.931 . S
U366 O367 2.454 . S
U366 O368 2.458 . S
U366 C369 2.984 . S
U366 C370 2.847 . S
U366 C383 2.882 . S
U366 O384 2.441 . S
U366 O385 2.420 . S
U366 O386 2.455 . S
U366 O387 2.449 . S
O367 U366 2.454 . S
O367 C369 1.353 . S
O368 U366 2.458 . S
O368 C369 1.286 . S
C369 U366 2.984 . S
C369 O367 1.353 . S
C369 O368 1.286 . S
C369 C371 1.363 . S
C370 C360 1.459 . S
C370 U366 2.847 . S
C370 O384 1.249 . S
C370 O385 1.202 . S
C371 C369 1.363 . S
C371 C373 1.408 . S
C371 C376 1.342 . S
C372 C373 1.310 . S
C372 C375 1.461 . S
C372 H392 0.932 . S
C373 C371 1.408 . S
C373 C372 1.310 . S
C373 H393 0.930 . S
C374 C375 1.474 . S
C374 C376 1.285 . S
C374 H394 0.929 . S
C375 C372 1.461 . S
C375 C374 1.474 . S
C376 C371 1.342 . S
C376 C374 1.285 . S
C376 H395 0.930 . S
C377 C380 1.424 . S
C377 C382 1.245 . S
C377 C383 1.428 . S
C378 C381 1.260 . S
C378 C382 1.477 . S
C378 H396 0.932 . S
C379 C380 1.384 . S
C379 C381 1.479 . S
C379 H397 0.929 . S
C380 C377 1.424 . S
C380 C379 1.384 . S
C380 H398 0.928 . S
C381 C378 1.260 . S
C381 C379 1.479 . S
C382 C377 1.245 . S
C382 C378 1.477 . S
C382 H399 0.932 . S
C383 U366 2.882 . S
C383 C377 1.428 . S
C383 O386 1.301 . S
C383 O387 1.282 . S
O384 U366 2.441 . S
O384 C370 1.249 . S
O385 U366 2.420 . S
O385 C370 1.202 . S
O386 U366 2.455 . S
O386 C383 1.301 . S
O387 U366 2.449 . S
O387 C383 1.282 . S
H388 C361 0.887 1_545 S
H389 C363 0.929 . S
H390 C364 0.930 . S
H391 C365 0.931 . S
H392 C372 0.932 . S
H393 C373 0.930 . S
H394 C374 0.929 . S
H395 C376 0.930 . S
H396 C378 0.932 . S
H397 C379 0.929 . S
H398 C380 0.928 . S
H399 C382 0.932 . S
C400 C401 1.269 . S
C400 C405 1.530 . S
C400 C410 1.414 1_545 S
C401 C400 1.269 . S
C401 C403 1.339 . S
C401 H428 0.931 1_545 S
C402 C403 1.395 . S
C402 C404 1.320 . S
C403 C401 1.339 . S
C403 C402 1.395 . S
C403 H429 0.929 . S
C404 C402 1.320 . S
C404 C405 1.405 . S
C404 H430 0.930 . S
C405 C400 1.530 . S
C405 C404 1.405 . S
C405 H431 0.931 . S
U406 O407 2.454 . S
U406 O408 2.458 . S
U406 C409 2.984 . S
U406 C410 2.847 . S
U406 C423 2.882 . S
U406 O424 2.441 . S
U406 O425 2.420 . S
U406 O426 2.455 . S
U406 O427 2.449 . S
O407 U406 2.454 . S
O407 C409 1.353 . S
O408 U406 2.458 . S
O408 C409 1.286 . S
C409 U406 2.984 . S
C409 O407 1.353 . S
C409 O408 1.286 . S
C409 C411 1.363 . S
C410 C400 1.414 1_565 S
C410 U406 2.847 . S
C410 O424 1.249 . S
C410 O425 1.202 . S
C411 C409 1.363 . S
C411 C413 1.408 . S
C411 C416 1.342 . S
C412 C413 1.310 . S
C412 C415 1.461 . S
C412 H432 0.932 . S
C413 C411 1.408 . S
C413 C412 1.310 . S
C413 H433 0.930 . S
C414 C415 1.474 . S
C414 C416 1.285 . S
C414 H434 0.929 . S
C415 C412 1.461 . S
C415 C414 1.474 . S
C416 C411 1.342 . S
C416 C414 1.285 . S
C416 H435 0.930 . S
C417 C420 1.424 . S
C417 C422 1.245 . S
C417 C423 1.428 . S
C418 C421 1.260 . S
C418 C422 1.477 . S
C418 H436 0.932 . S
C419 C420 1.384 . S
C419 C421 1.479 . S
C419 H437 0.929 . S
C420 C417 1.424 . S
C420 C419 1.384 . S
C420 H438 0.928 . S
C421 C418 1.260 . S
C421 C419 1.479 . S
C422 C417 1.245 . S
C422 C418 1.477 . S
C422 H439 0.932 . S
C423 U406 2.882 . S
C423 C417 1.428 . S
C423 O426 1.301 . S
C423 O427 1.282 . S
O424 U406 2.441 . S
O424 C410 1.249 . S
O425 U406 2.420 . S
O425 C410 1.202 . S
O426 U406 2.455 . S
O426 C423 1.301 . S
O427 U406 2.449 . S
O427 C423 1.282 . S
H428 C401 0.931 1_565 S
H429 C403 0.929 . S
H430 C404 0.930 . S
H431 C405 0.931 . S
H432 C412 0.932 . S
H433 C413 0.930 . S
H434 C414 0.929 . S
H435 C416 0.930 . S
H436 C418 0.932 . S
H437 C419 0.929 . S
H438 C420 0.928 . S
H439 C422 0.932 . S
C440 C441 1.264 . S
C440 C445 1.479 . S
C440 C450 1.465 . S
C441 C440 1.264 . S
C441 C443 1.339 . S
C441 H468 0.931 . S
C442 C443 1.395 . S
C442 C444 1.320 . S
C443 C441 1.339 . S
C443 C442 1.395 . S
C443 H469 0.929 . S
C444 C442 1.320 . S
C444 C445 1.405 . S
C444 H470 0.930 . S
C445 C440 1.479 . S
C445 C444 1.405 . S
C445 H471 0.931 . S
U446 O447 2.454 . S
U446 O448 2.458 . S
U446 C449 2.984 . S
U446 C450 2.847 . S
U446 C463 2.882 . S
U446 O464 2.441 . S
U446 O465 2.420 . S
U446 O466 2.455 . S
U446 O467 2.449 . S
O447 U446 2.454 . S
O447 C449 1.353 . S
O448 U446 2.458 . S
O448 C449 1.286 . S
C449 U446 2.984 . S
C449 O447 1.353 . S
C449 O448 1.286 . S
C449 C451 1.363 1_565 S
C450 C440 1.465 . S
C450 U446 2.847 . S
C450 O464 1.249 . S
C450 O465 1.202 . S
C451 C449 1.363 1_545 S
C451 C453 1.408 . S
C451 C456 1.342 . S
C452 C453 1.310 . S
C452 C455 1.461 . S
C452 H472 0.932 . S
C453 C451 1.408 . S
C453 C452 1.310 . S
C453 H473 0.930 . S
C454 C455 1.474 . S
C454 C456 1.285 . S
C454 H474 0.929 . S
C455 C452 1.461 . S
C455 C454 1.474 . S
C456 C451 1.342 . S
C456 C454 1.285 . S
C456 H475 0.930 1_545 S
C457 C460 1.424 . S
C457 C462 1.245 . S
C457 C463 1.428 . S
C458 C461 1.260 . S
C458 C462 1.477 . S
C458 H476 0.932 . S
C459 C460 1.384 . S
C459 C461 1.479 . S
C459 H477 0.929 . S
C460 C457 1.424 . S
C460 C459 1.384 . S
C460 H478 0.928 . S
C461 C458 1.260 . S
C461 C459 1.479 . S
C462 C457 1.245 . S
C462 C458 1.477 . S
C462 H479 0.932 . S
C463 U446 2.882 . S
C463 C457 1.428 . S
C463 O466 1.301 . S
C463 O467 1.282 . S
O464 U446 2.441 . S
O464 C450 1.249 . S
O465 U446 2.420 . S
O465 C450 1.202 . S
O466 U446 2.455 . S
O466 C463 1.301 . S
O467 U446 2.449 . S
O467 C463 1.282 . S
H468 C441 0.931 . S
H469 C443 0.929 . S
H470 C444 0.930 . S
H471 C445 0.931 . S
H472 C452 0.932 . S
H473 C453 0.930 . S
H474 C454 0.929 . S
H475 C456 0.930 1_565 S
H476 C458 0.932 . S
H477 C459 0.929 . S
H478 C460 0.928 . S
H479 C462 0.932 . S
C480 C481 1.264 . S
C480 C485 1.479 . S
C480 C490 1.465 . S
C481 C480 1.264 . S
C481 C483 1.339 . S
C481 H508 0.931 . S
C482 C483 1.395 . S
C482 C484 1.320 . S
C483 C481 1.339 . S
C483 C482 1.395 . S
C483 H509 0.929 . S
C484 C482 1.320 . S
C484 C485 1.405 . S
C484 H510 0.930 . S
C485 C480 1.479 . S
C485 C484 1.405 . S
C485 H511 0.931 . S
U486 O487 2.454 . S
U486 O488 2.458 . S
U486 C489 2.984 . S
U486 C490 2.847 . S
U486 C503 2.882 . S
U486 O504 2.441 . S
U486 O505 2.420 . S
U486 O506 2.455 . S
U486 O507 2.449 . S
O487 U486 2.454 . S
O487 C489 1.353 . S
O488 U486 2.458 . S
O488 C489 1.286 . S
C489 U486 2.984 . S
C489 O487 1.353 . S
C489 O488 1.286 . S
C489 C491 1.363 . S
C490 C480 1.465 . S
C490 U486 2.847 . S
C490 O504 1.249 . S
C490 O505 1.202 . S
C491 C489 1.363 . S
C491 C493 1.408 1_554 S
C491 C496 1.348 . S
C492 C493 1.310 . S
C492 C495 1.461 . S
C492 H512 0.932 . S
C493 C491 1.408 1_556 S
C493 C492 1.310 . S
C493 H513 0.930 . S
C494 C495 1.474 . S
C494 C496 1.227 1_556 S
C494 H514 0.929 . S
C495 C492 1.461 . S
C495 C494 1.474 . S
C496 C491 1.348 . S
C496 C494 1.227 1_554 S
C496 H515 0.986 . S
C497 C500 1.424 . S
C497 C502 1.245 . S
C497 C503 1.428 . S
C498 C501 1.260 . S
C498 C502 1.477 . S
C498 H516 0.932 . S
C499 C500 1.384 . S
C499 C501 1.479 . S
C499 H517 0.929 . S
C500 C497 1.424 . S
C500 C499 1.384 . S
C500 H518 0.928 . S
C501 C498 1.260 . S
C501 C499 1.479 . S
C502 C497 1.245 . S
C502 C498 1.477 . S
C502 H519 0.932 . S
C503 U486 2.882 . S
C503 C497 1.428 . S
C503 O506 1.301 . S
C503 O507 1.282 . S
O504 U486 2.441 . S
O504 C490 1.249 . S
O505 U486 2.420 . S
O505 C490 1.202 . S
O506 U486 2.455 . S
O506 C503 1.301 . S
O507 U486 2.449 . S
O507 C503 1.282 . S
H508 C481 0.931 . S
H509 C483 0.929 . S
H510 C484 0.930 . S
H511 C485 0.931 . S
H512 C492 0.932 . S
H513 C493 0.930 . S
H514 C494 0.929 . S
H515 C496 0.986 . S
H516 C498 0.932 . S
H517 C499 0.929 . S
H518 C500 0.928 . S
H519 C502 0.932 . S
C520 C521 1.264 . S
C520 C525 1.479 . S
C520 C530 1.465 . S
C521 C520 1.264 . S
C521 C523 1.339 . S
C521 H548 0.931 . S
C522 C523 1.395 . S
C522 C524 1.320 . S
C523 C521 1.339 . S
C523 C522 1.395 . S
C523 H549 0.929 . S
C524 C522 1.320 . S
C524 C525 1.405 . S
C524 H550 0.930 . S
C525 C520 1.479 . S
C525 C524 1.405 . S
C525 H551 0.931 . S
U526 O527 2.454 . S
U526 O528 2.458 . S
U526 C529 2.984 . S
U526 C530 2.847 1_655 S
U526 C543 2.882 . S
U526 O544 2.423 1_655 S
U526 O545 2.420 . S
U526 O546 2.455 . S
U526 O547 2.449 . S
O527 U526 2.454 . S
O527 C529 1.353 . S
O528 U526 2.458 . S
O528 C529 1.286 . S
C529 U526 2.984 . S
C529 O527 1.353 . S
C529 O528 1.286 . S
C529 C531 1.363 . S
C530 C520 1.465 . S
C530 U526 2.847 1_455 S
C530 O544 1.252 . S
C530 O545 1.202 1_455 S
C531 C529 1.363 . S
C531 C533 1.408 . S
C531 C536 1.342 . S
C532 C533 1.310 . S
C532 C535 1.461 . S
C532 H552 0.932 . S
C533 C531 1.408 . S
C533 C532 1.310 . S
C533 H553 0.930 . S
C534 C535 1.474 . S
C534 C536 1.285 . S
C534 H554 0.929 . S
C535 C532 1.461 . S
C535 C534 1.474 . S
C536 C531 1.342 . S
C536 C534 1.285 . S
C536 H555 0.930 . S
C537 C540 1.424 . S
C537 C542 1.245 . S
C537 C543 1.428 . S
C538 C541 1.260 . S
C538 C542 1.477 . S
C538 H556 0.932 . S
C539 C540 1.384 . S
C539 C541 1.479 . S
C539 H557 0.929 . S
C540 C537 1.424 . S
C540 C539 1.384 . S
C540 H558 0.928 . S
C541 C538 1.260 . S
C541 C539 1.479 . S
C542 C537 1.245 . S
C542 C538 1.477 . S
C542 H559 0.932 . S
C543 U526 2.882 . S
C543 C537 1.428 . S
C543 O546 1.301 . S
C543 O547 1.282 . S
O544 U526 2.423 1_455 S
O544 C530 1.252 . S
O545 U526 2.420 . S
O545 C530 1.202 1_655 S
O546 U526 2.455 . S
O546 C543 1.301 . S
O547 U526 2.449 . S
O547 C543 1.282 . S
H548 C521 0.931 . S
H549 C523 0.929 . S
H550 C524 0.930 . S
H551 C525 0.931 . S
H552 C532 0.932 . S
H553 C533 0.930 . S
H554 C534 0.929 . S
H555 C536 0.930 . S
H556 C538 0.932 . S
H557 C539 0.929 . S
H558 C540 0.928 . S
H559 C542 0.932 . S
C560 C561 1.264 . S
C560 C565 1.479 . S
C560 C570 1.465 . S
C561 C560 1.264 . S
C561 C563 1.339 . S
C561 H588 0.931 . S
C562 C563 1.395 . S
C562 C564 1.320 . S
C563 C561 1.339 . S
C563 C562 1.395 . S
C563 H589 0.929 . S
C564 C562 1.320 . S
C564 C565 1.405 . S
C564 H590 0.930 . S
C565 C560 1.479 . S
C565 C564 1.405 . S
C565 H591 0.931 . S
U566 O567 2.454 . S
U566 O568 2.458 . S
U566 C569 2.984 . S
U566 C570 2.847 . S
U566 C583 2.882 . S
U566 O584 2.441 . S
U566 O585 2.420 . S
U566 O586 2.455 . S
U566 O587 2.449 . S
O567 U566 2.454 . S
O567 C569 1.353 . S
O568 U566 2.458 . S
O568 C569 1.286 . S
C569 U566 2.984 . S
C569 O567 1.353 . S
C569 O568 1.286 . S
C569 C571 1.363 . S
C570 C560 1.465 . S
C570 U566 2.847 . S
C570 O584 1.249 . S
C570 O585 1.202 . S
C571 C569 1.363 . S
C571 C573 1.408 . S
C571 C576 1.342 . S
C572 C573 1.310 . S
C572 C575 1.461 . S
C572 H592 0.932 . S
C573 C571 1.408 . S
C573 C572 1.310 . S
C573 H593 0.930 . S
C574 C575 1.474 . S
C574 C576 1.285 . S
C574 H594 0.929 . S
C575 C572 1.461 . S
C575 C574 1.474 . S
C576 C571 1.342 . S
C576 C574 1.285 . S
C576 H595 0.930 . S
C577 C580 1.424 . S
C577 C582 1.245 . S
C577 C583 1.428 . S
C578 C581 1.260 . S
C578 C582 1.477 . S
C578 H596 0.932 . S
C579 C580 1.384 . S
C579 C581 1.479 . S
C579 H597 0.929 . S
C580 C577 1.424 . S
C580 C579 1.384 . S
C580 H598 0.928 . S
C581 C578 1.260 . S
C581 C579 1.479 . S
C582 C577 1.245 . S
C582 C578 1.477 . S
C582 H599 0.932 . S
C583 U566 2.882 . S
C583 C577 1.428 . S
C583 O586 1.301 . S
C583 O587 1.282 . S
O584 U566 2.441 . S
O584 C570 1.249 . S
O585 U566 2.420 . S
O585 C570 1.202 . S
O586 U566 2.455 . S
O586 C583 1.301 . S
O587 U566 2.449 . S
O587 C583 1.282 . S
H588 C561 0.931 . S
H589 C563 0.929 . S
H590 C564 0.930 . S
H591 C565 0.931 . S
H592 C572 0.932 . S
H593 C573 0.930 . S
H594 C574 0.929 . S
H595 C576 0.930 . S
H596 C578 0.932 . S
H597 C579 0.929 . S
H598 C580 0.928 . S
H599 C582 0.932 . S
C600 C601 1.264 . S
C600 C605 1.479 . S
C600 C610 1.465 . S
C601 C600 1.264 . S
C601 C603 1.339 . S
C601 H628 0.931 . S
C602 C603 1.395 . S
C602 C604 1.320 . S
C603 C601 1.339 . S
C603 C602 1.395 . S
C603 H629 0.929 . S
C604 C602 1.320 . S
C604 C605 1.405 . S
C604 H630 0.930 . S
C605 C600 1.479 . S
C605 C604 1.405 . S
C605 H631 0.931 . S
U606 O607 2.454 1_655 S
U606 O608 2.458 1_655 S
U606 C609 2.984 1_655 S
U606 C610 2.847 . S
U606 C623 2.882 . S
U606 O624 2.441 . S
U606 O625 2.420 . S
U606 O626 2.455 . S
U606 O627 2.449 . S
O607 U606 2.454 1_455 S
O607 C609 1.353 . S
O608 U606 2.458 1_455 S
O608 C609 1.286 . S
C609 U606 2.984 1_455 S
C609 O607 1.353 . S
C609 O608 1.286 . S
C609 C611 1.363 . S
C610 C600 1.465 . S
C610 U606 2.847 . S
C610 O624 1.249 . S
C610 O625 1.202 . S
C611 C609 1.363 . S
C611 C613 1.408 . S
C611 C616 1.342 . S
C612 C613 1.310 . S
C612 C615 1.461 . S
C612 H632 0.932 . S
C613 C611 1.408 . S
C613 C612 1.310 . S
C613 H633 0.930 . S
C614 C615 1.474 . S
C614 C616 1.285 . S
C614 H634 0.929 . S
C615 C612 1.461 . S
C615 C614 1.474 . S
C616 C611 1.342 . S
C616 C614 1.285 . S
C616 H635 0.930 . S
C617 C620 1.424 . S
C617 C622 1.245 . S
C617 C623 1.428 . S
C618 C621 1.260 . S
C618 C622 1.477 . S
C618 H636 0.932 . S
C619 C620 1.384 . S
C619 C621 1.479 . S
C619 H637 0.929 . S
C620 C617 1.424 . S
C620 C619 1.384 . S
C620 H638 0.928 . S
C621 C618 1.260 . S
C621 C619 1.479 . S
C622 C617 1.245 . S
C622 C618 1.477 . S
C622 H639 0.932 . S
C623 U606 2.882 . S
C623 C617 1.428 . S
C623 O626 1.301 . S
C623 O627 1.282 . S
O624 U606 2.441 . S
O624 C610 1.249 . S
O625 U606 2.420 . S
O625 C610 1.202 . S
O626 U606 2.455 . S
O626 C623 1.301 . S
O627 U606 2.449 . S
O627 C623 1.282 . S
H628 C601 0.931 . S
H629 C603 0.929 . S
H630 C604 0.930 . S
H631 C605 0.931 . S
H632 C612 0.932 . S
H633 C613 0.930 . S
H634 C614 0.929 . S
H635 C616 0.930 . S
H636 C618 0.932 . S
H637 C619 0.929 . S
H638 C620 0.928 . S
H639 C622 0.932 . S
C640 C641 1.264 . S
C640 C645 1.479 . S
C640 C650 1.465 . S
C641 C640 1.264 . S
C641 C643 1.339 . S
C641 H668 0.931 . S
C642 C643 1.395 . S
C642 C644 1.320 . S
C643 C641 1.339 . S
C643 C642 1.395 . S
C643 H669 0.929 . S
C644 C642 1.320 . S
C644 C645 1.405 . S
C644 H670 0.930 . S
C645 C640 1.479 . S
C645 C644 1.405 . S
C645 H671 0.931 . S
U646 O647 2.454 . S
U646 O648 2.458 . S
U646 C649 2.984 . S
U646 C650 2.847 . S
U646 C663 2.882 . S
U646 O664 2.441 . S
U646 O665 2.420 . S
U646 O666 2.455 . S
U646 O667 2.449 . S
O647 U646 2.454 . S
O647 C649 1.353 . S
O648 U646 2.458 . S
O648 C649 1.286 . S
C649 U646 2.984 . S
C649 O647 1.353 . S
C649 O648 1.286 . S
C649 C651 1.363 . S
C650 C640 1.465 . S
C650 U646 2.847 . S
C650 O664 1.249 . S
C650 O665 1.202 . S
C651 C649 1.363 . S
C651 C653 1.408 . S
C651 C656 1.342 . S
C652 C653 1.310 . S
C652 C655 1.461 . S
C652 H672 0.932 . S
C653 C651 1.408 . S
C653 C652 1.310 . S
C653 H673 0.930 . S
C654 C655 1.474 . S
C654 C656 1.285 . S
C654 H674 0.929 . S
C655 C652 1.461 . S
C655 C654 1.474 . S
C656 C651 1.342 . S
C656 C654 1.285 . S
C656 H675 0.930 . S
C657 C660 1.424 . S
C657 C662 1.245 . S
C657 C663 1.428 . S
C658 C661 1.260 . S
C658 C662 1.477 . S
C658 H676 0.932 . S
C659 C660 1.384 . S
C659 C661 1.479 . S
C659 H677 0.929 . S
C660 C657 1.424 . S
C660 C659 1.384 . S
C660 H678 0.928 . S
C661 C658 1.260 . S
C661 C659 1.479 . S
C662 C657 1.245 . S
C662 C658 1.477 . S
C662 H679 0.932 . S
C663 U646 2.882 . S
C663 C657 1.428 . S
C663 O666 1.301 . S
C663 O667 1.282 . S
O664 U646 2.441 . S
O664 C650 1.249 . S
O665 U646 2.420 . S
O665 C650 1.202 . S
O666 U646 2.455 . S
O666 C663 1.301 . S
O667 U646 2.449 . S
O667 C663 1.282 . S
H668 C641 0.931 . S
H669 C643 0.929 . S
H670 C644 0.930 . S
H671 C645 0.931 . S
H672 C652 0.932 . S
H673 C653 0.930 . S
H674 C654 0.929 . S
H675 C656 0.930 . S
H676 C658 0.932 . S
H677 C659 0.929 . S
H678 C660 0.928 . S
H679 C662 0.932 . S
C680 C681 1.264 . S
C680 C685 1.479 . S
C680 C690 1.465 . S
C681 C680 1.264 . S
C681 C683 1.339 . S
C681 H708 0.931 . S
C682 C683 1.395 . S
C682 C684 1.320 . S
C683 C681 1.339 . S
C683 C682 1.395 . S
C683 H709 0.929 . S
C684 C682 1.320 . S
C684 C685 1.405 . S
C684 H710 0.930 . S
C685 C680 1.479 . S
C685 C684 1.405 . S
C685 H711 0.931 . S
U686 O687 2.454 . S
U686 O688 2.458 . S
U686 C689 2.984 . S
U686 C690 2.847 . S
U686 C703 2.882 . S
U686 O704 2.441 . S
U686 O705 2.420 . S
U686 O706 2.455 . S
U686 O707 2.449 . S
O687 U686 2.454 . S
O687 C689 1.353 . S
O688 U686 2.458 . S
O688 C689 1.286 . S
C689 U686 2.984 . S
C689 O687 1.353 . S
C689 O688 1.286 . S
C689 C691 1.363 . S
C690 C680 1.465 . S
C690 U686 2.847 . S
C690 O704 1.249 . S
C690 O705 1.202 . S
C691 C689 1.363 . S
C691 C693 1.408 . S
C691 C696 1.342 . S
C692 C693 1.310 . S
C692 C695 1.461 . S
C692 H712 0.932 . S
C693 C691 1.408 . S
C693 C692 1.310 . S
C693 H713 0.930 . S
C694 C695 1.474 . S
C694 C696 1.285 . S
C694 H714 0.929 . S
C695 C692 1.461 . S
C695 C694 1.474 . S
C696 C691 1.342 . S
C696 C694 1.285 . S
C696 H715 0.930 . S
C697 C700 1.424 . S
C697 C702 1.245 . S
C697 C703 1.428 . S
C698 C701 1.260 . S
C698 C702 1.477 . S
C698 H716 0.932 . S
C699 C700 1.384 . S
C699 C701 1.479 . S
C699 H717 0.929 . S
C700 C697 1.424 . S
C700 C699 1.384 . S
C700 H718 0.928 . S
C701 C698 1.260 . S
C701 C699 1.479 . S
C702 C697 1.245 . S
C702 C698 1.477 . S
C702 H719 0.932 . S
C703 U686 2.882 . S
C703 C697 1.428 . S
C703 O706 1.301 . S
C703 O707 1.282 . S
O704 U686 2.441 . S
O704 C690 1.249 . S
O705 U686 2.420 . S
O705 C690 1.202 . S
O706 U686 2.455 . S
O706 C703 1.301 . S
O707 U686 2.449 . S
O707 C703 1.282 . S
H708 C681 0.931 . S
H709 C683 0.929 . S
H710 C684 0.930 . S
H711 C685 0.931 . S
H712 C692 0.932 . S
H713 C693 0.930 . S
H714 C694 0.929 . S
H715 C696 0.930 . S
H716 C698 0.932 . S
H717 C699 0.929 . S
H718 C700 0.928 . S
H719 C702 0.932 . S
C720 C721 1.264 . S
C720 C725 1.479 . S
C720 C730 1.465 . S
C721 C720 1.264 . S
C721 C723 1.339 . S
C721 H748 0.931 . S
C722 C723 1.395 . S
C722 C724 1.320 . S
C723 C721 1.339 . S
C723 C722 1.395 . S
C723 H749 0.929 . S
C724 C722 1.320 . S
C724 C725 1.405 . S
C724 H750 0.930 . S
C725 C720 1.479 . S
C725 C724 1.405 . S
C725 H751 0.931 . S
U726 O727 2.454 . S
U726 O728 2.458 . S
U726 C729 2.984 1_556 S
U726 C730 2.847 . S
U726 C743 2.882 . S
U726 O744 2.441 . S
U726 O745 2.420 . S
U726 O746 2.455 . S
U726 O747 2.449 . S
O727 U726 2.454 . S
O727 C729 1.353 1_556 S
O728 U726 2.458 . S
O728 C729 1.286 1_556 S
C729 U726 2.984 1_554 S
C729 O727 1.353 1_554 S
C729 O728 1.286 1_554 S
C729 C731 1.363 . S
C730 C720 1.465 . S
C730 U726 2.847 . S
C730 O744 1.249 . S
C730 O745 1.202 . S
C731 C729 1.363 . S
C731 C733 1.408 . S
C731 C736 1.342 . S
C732 C733 1.310 . S
C732 C735 1.461 . S
C732 H752 0.932 . S
C733 C731 1.408 . S
C733 C732 1.310 . S
C733 H753 0.930 . S
C734 C735 1.474 . S
C734 C736 1.285 . S
C734 H754 0.929 . S
C735 C732 1.461 . S
C735 C734 1.474 . S
C736 C731 1.342 . S
C736 C734 1.285 . S
C736 H755 0.930 . S
C737 C740 1.424 . S
C737 C742 1.245 . S
C737 C743 1.428 . S
C738 C741 1.260 . S
C738 C742 1.477 . S
C738 H756 0.932 . S
C739 C740 1.384 . S
C739 C741 1.479 . S
C739 H757 0.929 . S
C740 C737 1.424 . S
C740 C739 1.384 . S
C740 H758 0.928 . S
C741 C738 1.260 . S
C741 C739 1.479 . S
C742 C737 1.245 . S
C742 C738 1.477 . S
C742 H759 0.932 . S
C743 U726 2.882 . S
C743 C737 1.428 . S
C743 O746 1.301 . S
C743 O747 1.282 . S
O744 U726 2.441 . S
O744 C730 1.249 . S
O745 U726 2.420 . S
O745 C730 1.202 . S
O746 U726 2.455 . S
O746 C743 1.301 . S
O747 U726 2.449 . S
O747 C743 1.282 . S
H748 C721 0.931 . S
H749 C723 0.929 . S
H750 C724 0.930 . S
H751 C725 0.931 . S
H752 C732 0.932 . S
H753 C733 0.930 . S
H754 C734 0.929 . S
H755 C736 0.930 . S
H756 C738 0.932 . S
H757 C739 0.929 . S
H758 C740 0.928 . S
H759 C742 0.932 . S
C760 C761 1.264 . S
C760 C765 1.479 . S
C760 C770 1.465 . S
C761 C760 1.264 . S
C761 C763 1.339 . S
C761 H788 0.931 . S
C762 C763 1.395 . S
C762 C764 1.320 . S
C763 C761 1.339 . S
C763 C762 1.395 . S
C763 H789 0.929 . S
C764 C762 1.320 . S
C764 C765 1.405 . S
C764 H790 0.930 . S
C765 C760 1.479 . S
C765 C764 1.405 . S
C765 H791 0.931 . S
U766 O767 2.454 . S
U766 O768 2.458 . S
U766 C769 2.984 . S
U766 C770 2.847 1_655 S
U766 C783 2.882 . S
U766 O784 2.441 1_655 S
U766 O785 2.420 1_655 S
U766 O786 2.455 . S
U766 O787 2.449 . S
O767 U766 2.454 . S
O767 C769 1.353 . S
O768 U766 2.458 . S
O768 C769 1.286 . S
C769 U766 2.984 . S
C769 O767 1.353 . S
C769 O768 1.286 . S
C769 C771 1.363 . S
C770 C760 1.465 . S
C770 U766 2.847 1_455 S
C770 O784 1.249 . S
C770 O785 1.202 . S
C771 C769 1.363 . S
C771 C773 1.408 . S
C771 C776 1.342 . S
C772 C773 1.310 . S
C772 C775 1.461 . S
C772 H792 0.932 . S
C773 C771 1.408 . S
C773 C772 1.310 . S
C773 H793 0.930 . S
C774 C775 1.474 . S
C774 C776 1.285 . S
C774 H794 0.929 . S
C775 C772 1.461 . S
C775 C774 1.474 . S
C776 C771 1.342 . S
C776 C774 1.285 . S
C776 H795 0.930 . S
C777 C780 1.424 . S
C777 C782 1.245 . S
C777 C783 1.428 . S
C778 C781 1.260 . S
C778 C782 1.477 . S
C778 H796 0.932 . S
C779 C780 1.384 . S
C779 C781 1.479 . S
C779 H797 0.929 . S
C780 C777 1.424 . S
C780 C779 1.384 . S
C780 H798 0.928 . S
C781 C778 1.260 . S
C781 C779 1.479 . S
C782 C777 1.245 . S
C782 C778 1.477 . S
C782 H799 0.932 . S
C783 U766 2.882 . S
C783 C777 1.428 . S
C783 O786 1.301 . S
C783 O787 1.282 . S
O784 U766 2.441 1_455 S
O784 C770 1.249 . S
O785 U766 2.420 1_455 S
O785 C770 1.202 . S
O786 U766 2.455 . S
O786 C783 1.301 . S
O787 U766 2.449 . S
O787 C783 1.282 . S
H788 C761 0.931 . S
H789 C763 0.929 . S
H790 C764 0.930 . S
H791 C765 0.931 . S
H792 C772 0.932 . S
H793 C773 0.930 . S
H794 C774 0.929 . S
H795 C776 0.930 . S
H796 C778 0.932 . S
H797 C779 0.929 . S
H798 C780 0.928 . S
H799 C782 0.932 . S
C800 C801 1.264 . S
C800 C805 1.479 . S
C800 C810 1.465 . S
C801 C800 1.264 . S
C801 C803 1.339 . S
C801 H828 0.931 . S
C802 C803 1.395 . S
C802 C804 1.320 . S
C803 C801 1.339 . S
C803 C802 1.395 . S
C803 H829 0.929 . S
C804 C802 1.320 . S
C804 C805 1.405 . S
C804 H830 0.930 . S
C805 C800 1.479 . S
C805 C804 1.405 . S
C805 H831 0.931 . S
U806 O807 2.454 . S
U806 O808 2.458 . S
U806 C809 2.984 . S
U806 C810 2.847 . S
U806 C823 2.882 . S
U806 O824 2.441 . S
U806 O825 2.420 . S
U806 O826 2.455 . S
U806 O827 2.449 . S
O807 U806 2.454 . S
O807 C809 1.353 . S
O808 U806 2.458 . S
O808 C809 1.286 . S
C809 U806 2.984 . S
C809 O807 1.353 . S
C809 O808 1.286 . S
C809 C811 1.363 . S
C810 C800 1.465 . S
C810 U806 2.847 . S
C810 O824 1.249 . S
C810 O825 1.202 . S
C811 C809 1.363 . S
C811 C813 1.408 . S
C811 C816 1.342 . S
C812 C813 1.310 . S
C812 C815 1.461 . S
C812 H832 0.932 . S
C813 C811 1.408 . S
C813 C812 1.310 . S
C813 H833 0.930 . S
C814 C815 1.474 . S
C814 C816 1.285 . S
C814 H834 0.929 . S
C815 C812 1.461 . S
C815 C814 1.474 . S
C816 C811 1.342 . S
C816 C814 1.285 . S
C816 H835 0.930 . S
C817 C820 1.424 . S
C817 C822 1.245 . S
C817 C823 1.428 . S
C818 C821 1.260 . S
C818 C822 1.477 . S
C818 H836 0.932 . S
C819 C820 1.384 . S
C819 C821 1.479 . S
C819 H837 0.929 . S
C820 C817 1.424 . S
C820 C819 1.384 . S
C820 H838 0.928 . S
C821 C818 1.260 . S
C821 C819 1.479 . S
C822 C817 1.245 . S
C822 C818 1.477 . S
C822 H839 0.932 . S
C823 U806 2.882 . S
C823 C817 1.428 . S
C823 O826 1.301 . S
C823 O827 1.282 . S
O824 U806 2.441 . S
O824 C810 1.249 . S
O825 U806 2.420 . S
O825 C810 1.202 . S
O826 U806 2.455 . S
O826 C823 1.301 . S
O827 U806 2.449 . S
O827 C823 1.282 . S
H828 C801 0.931 . S
H829 C803 0.929 . S
H830 C804 0.930 . S
H831 C805 0.931 . S
H832 C812 0.932 . S
H833 C813 0.930 . S
H834 C814 0.929 . S
H835 C816 0.930 . S
H836 C818 0.932 . S
H837 C819 0.929 . S
H838 C820 0.928 . S
H839 C822 0.932 . S
C840 C841 1.264 . S
C840 C845 1.479 . S
C840 C850 1.465 . S
C841 C840 1.264 . S
C841 C843 1.339 . S
C841 H868 0.931 . S
C842 C843 1.395 . S
C842 C844 1.320 . S
C843 C841 1.339 . S
C843 C842 1.395 . S
C843 H869 0.929 . S
C844 C842 1.320 . S
C844 C845 1.405 . S
C844 H870 0.930 . S
C845 C840 1.479 . S
C845 C844 1.405 . S
C845 H871 0.931 . S
U846 O847 2.454 . S
U846 O848 2.458 . S
U846 C849 2.984 . S
U846 C850 2.847 . S
U846 C863 2.882 . S
U846 O864 2.441 . S
U846 O865 2.420 . S
U846 O866 2.455 . S
U846 O867 2.449 . S
O847 U846 2.454 . S
O847 C849 1.353 . S
O848 U846 2.458 . S
O848 C849 1.286 . S
C849 U846 2.984 . S
C849 O847 1.353 . S
C849 O848 1.286 . S
C849 C851 1.363 . S
C850 C840 1.465 . S
C850 U846 2.847 . S
C850 O864 1.249 . S
C850 O865 1.202 . S
C851 C849 1.363 . S
C851 C853 1.408 . S
C851 C856 1.342 . S
C852 C853 1.310 . S
C852 C855 1.461 . S
C852 H872 0.932 . S
C853 C851 1.408 . S
C853 C852 1.310 . S
C853 H873 0.930 . S
C854 C855 1.474 . S
C854 C856 1.285 . S
C854 H874 0.929 . S
C855 C852 1.461 . S
C855 C854 1.474 . S
C856 C851 1.342 . S
C856 C854 1.285 . S
C856 H875 0.930 . S
C857 C860 1.424 . S
C857 C862 1.245 . S
C857 C863 1.428 . S
C858 C861 1.260 . S
C858 C862 1.477 . S
C858 H876 0.932 . S
C859 C860 1.384 . S
C859 C861 1.479 . S
C859 H877 0.929 . S
C860 C857 1.424 . S
C860 C859 1.384 . S
C860 H878 0.928 . S
C861 C858 1.260 . S
C861 C859 1.479 . S
C862 C857 1.245 . S
C862 C858 1.477 . S
C862 H879 0.932 . S
C863 U846 2.882 . S
C863 C857 1.428 . S
C863 O866 1.301 . S
C863 O867 1.282 . S
O864 U846 2.441 . S
O864 C850 1.249 . S
O865 U846 2.420 . S
O865 C850 1.202 . S
O866 U846 2.455 . S
O866 C863 1.301 . S
O867 U846 2.449 . S
O867 C863 1.282 . S
H868 C841 0.931 . S
H869 C843 0.929 . S
H870 C844 0.930 . S
H871 C845 0.931 . S
H872 C852 0.932 . S
H873 C853 0.930 . S
H874 C854 0.929 . S
H875 C856 0.930 . S
H876 C858 0.932 . S
H877 C859 0.929 . S
H878 C860 0.928 . S
H879 C862 0.932 . S
C880 C881 1.264 . S
C880 C885 1.479 . S
C880 C890 1.465 . S
C881 C880 1.264 . S
C881 C883 1.339 . S
C881 H908 0.931 . S
C882 C883 1.395 . S
C882 C884 1.320 . S
C883 C881 1.339 . S
C883 C882 1.395 . S
C883 H909 0.929 . S
C884 C882 1.320 . S
C884 C885 1.405 . S
C884 H910 0.930 . S
C885 C880 1.479 . S
C885 C884 1.405 . S
C885 H911 0.931 . S
U886 O887 2.454 . S
U886 O888 2.458 . S
U886 C889 2.984 . S
U886 C890 2.847 1_554 S
U886 C903 2.882 . S
U886 O904 2.441 . S
U886 O905 2.420 . S
U886 O906 2.455 . S
U886 O907 2.449 . S
O887 U886 2.454 . S
O887 C889 1.353 . S
O888 U886 2.458 . S
O888 C889 1.286 . S
C889 U886 2.984 . S
C889 O887 1.353 . S
C889 O888 1.286 . S
C889 C891 1.363 . S
C890 C880 1.465 . S
C890 U886 2.847 1_556 S
C890 O904 1.249 1_556 S
C890 O905 1.202 1_556 S
C891 C889 1.363 . S
C891 C893 1.408 . S
C891 C896 1.342 . S
C892 C893 1.310 . S
C892 C895 1.461 . S
C892 H912 0.932 . S
C893 C891 1.408 . S
C893 C892 1.310 . S
C893 H913 0.930 . S
C894 C895 1.474 . S
C894 C896 1.285 . S
C894 H914 0.929 . S
C895 C892 1.461 . S
C895 C894 1.474 . S
C896 C891 1.342 . S
C896 C894 1.285 . S
C896 H915 0.930 . S
C897 C900 1.424 . S
C897 C902 1.245 . S
C897 C903 1.428 . S
C898 C901 1.260 . S
C898 C902 1.477 . S
C898 H916 0.932 . S
C899 C900 1.384 . S
C899 C901 1.479 . S
C899 H917 0.929 . S
C900 C897 1.424 . S
C900 C899 1.384 . S
C900 H918 0.928 . S
C901 C898 1.260 . S
C901 C899 1.479 . S
C902 C897 1.245 . S
C902 C898 1.477 . S
C902 H919 0.932 . S
C903 U886 2.882 . S
C903 C897 1.428 . S
C903 O906 1.301 . S
C903 O907 1.282 . S
O904 U886 2.441 . S
O904 C890 1.249 1_554 S
O905 U886 2.420 . S
O905 C890 1.202 1_554 S
O906 U886 2.455 . S
O906 C903 1.301 . S
O907 U886 2.449 . S
O907 C903 1.282 . S
H908 C881 0.931 . S
H909 C883 0.929 . S
H910 C884 0.930 . S
H911 C885 0.931 . S
H912 C892 0.932 . S
H913 C893 0.930 . S
H914 C894 0.929 . S
H915 C896 0.930 . S
H916 C898 0.932 . S
H917 C899 0.929 . S
H918 C900 0.928 . S
H919 C902 0.932 . S
C920 C921 1.264 . S
C920 C925 1.479 . S
C920 C930 1.465 . S
C921 C920 1.264 . S
C921 C923 1.339 . S
C921 H948 0.931 . S
C922 C923 1.395 . S
C922 C924 1.320 . S
C923 C921 1.339 . S
C923 C922 1.395 . S
C923 H949 0.929 . S
C924 C922 1.320 . S
C924 C925 1.405 . S
C924 H950 0.930 . S
C925 C920 1.479 . S
C925 C924 1.405 . S
C925 H951 0.931 . S
U926 O927 2.454 1_565 S
U926 O928 2.458 1_565 S
U926 C929 2.984 1_565 S
U926 C930 2.847 . S
U926 C943 2.882 . S
U926 O944 2.441 . S
U926 O945 2.420 . S
U926 O946 2.455 . S
U926 O947 2.449 . S
O927 U926 2.454 1_545 S
O927 C929 1.353 . S
O928 U926 2.458 1_545 S
O928 C929 1.286 . S
C929 U926 2.984 1_545 S
C929 O927 1.353 . S
C929 O928 1.286 . S
C929 C931 1.363 . S
C930 C920 1.465 . S
C930 U926 2.847 . S
C930 O944 1.249 . S
C930 O945 1.202 . S
C931 C929 1.363 . S
C931 C933 1.408 . S
C931 C936 1.342 . S
C932 C933 1.310 . S
C932 C935 1.461 . S
C932 H952 0.932 . S
C933 C931 1.408 . S
C933 C932 1.310 . S
C933 H953 0.930 . S
C934 C935 1.474 . S
C934 C936 1.285 . S
C934 H954 0.929 . S
C935 C932 1.461 . S
C935 C934 1.474 . S
C936 C931 1.342 . S
C936 C934 1.285 . S
C936 H955 0.930 . S
C937 C940 1.424 . S
C937 C942 1.245 . S
C937 C943 1.428 . S
C938 C941 1.260 . S
C938 C942 1.477 . S
C938 H956 0.932 . S
C939 C940 1.384 . S
C939 C941 1.479 . S
C939 H957 0.929 . S
C940 C937 1.424 . S
C940 C939 1.384 . S
C940 H958 0.928 . S
C941 C938 1.260 . S
C941 C939 1.479 . S
C942 C937 1.245 . S
C942 C938 1.477 . S
C942 H959 0.932 . S
C943 U926 2.882 . S
C943 C937 1.428 . S
C943 O946 1.301 . S
C943 O947 1.282 . S
O944 U926 2.441 . S
O944 C930 1.249 . S
O945 U926 2.420 . S
O945 C930 1.202 . S
O946 U926 2.455 . S
O946 C943 1.301 . S
O947 U926 2.449 . S
O947 C943 1.282 . S
H948 C921 0.931 . S
H949 C923 0.929 . S
H950 C924 0.930 . S
H951 C925 0.931 . S
H952 C932 0.932 . S
H953 C933 0.930 . S
H954 C934 0.929 . S
H955 C936 0.930 . S
H956 C938 0.932 . S
H957 C939 0.929 . S
H958 C940 0.928 . S
H959 C942 0.932 . S
C960 C961 1.264 . S
C960 C965 1.479 . S
C960 C970 1.465 . S
C961 C960 1.264 . S
C961 C963 1.339 . S
C961 H988 0.931 . S
C962 C963 1.395 . S
C962 C964 1.320 . S
C963 C961 1.339 . S
C963 C962 1.395 . S
C963 H989 0.929 . S
C964 C962 1.320 . S
C964 C965 1.405 . S
C964 H990 0.930 . S
C965 C960 1.479 . S
C965 C964 1.405 . S
C965 H991 0.931 . S
U966 O967 2.454 1_565 S
U966 O968 2.458 1_565 S
U966 C969 2.984 1_565 S
U966 C970 2.847 . S
U966 C983 2.882 . S
U966 O984 2.441 . S
U966 O985 2.420 . S
U966 O986 2.455 . S
U966 O987 2.449 . S
O967 U966 2.454 1_545 S
O967 C969 1.353 . S
O968 U966 2.458 1_545 S
O968 C969 1.286 . S
C969 U966 2.984 1_545 S
C969 O967 1.353 . S
C969 O968 1.286 . S
C969 C971 1.363 . S
C970 C960 1.465 . S
C970 U966 2.847 . S
C970 O984 1.249 . S
C970 O985 1.202 . S
C971 C969 1.363 . S
C971 C973 1.408 . S
C971 C976 1.342 . S
C972 C973 1.310 . S
C972 C975 1.461 . S
C972 H992 0.932 . S
C973 C971 1.408 . S
C973 C972 1.310 . S
C973 H993 0.930 . S
C974 C975 1.474 . S
C974 C976 1.285 . S
C974 H994 0.929 . S
C975 C972 1.461 . S
C975 C974 1.474 . S
C976 C971 1.342 . S
C976 C974 1.285 . S
C976 H995 0.930 . S
C977 C980 1.424 . S
C977 C982 1.245 . S
C977 C983 1.428 . S
C978 C981 1.260 . S
C978 C982 1.477 . S
C978 H996 0.932 . S
C979 C980 1.384 . S
C979 C981 1.479 . S
C979 H997 0.929 . S
C980 C977 1.424 . S
C980 C979 1.384 . S
C980 H998 0.928 . S
C981 C978 1.260 . S
C981 C979 1.479 . S
C982 C977 1.245 . S
C982 C978 1.477 . S
C982 H999 0.932 . S
C983 U966 2.882 . S
C983 C977 1.428 . S
C983 O986 1.301 . S
C983 O987 1.282 . S
O984 U966 2.441 . S
O984 C970 1.249 . S
O985 U966 2.420 . S
O985 C970 1.202 . S
O986 U966 2.455 . S
O986 C983 1.301 . S
O987 U966 2.449 . S
O987 C983 1.282 . S
H988 C961 0.931 . S
H989 C963 0.929 . S
H990 C964 0.930 . S
H991 C965 0.931 . S
H992 C972 0.932 . S
H993 C973 0.930 . S
H994 C974 0.929 . S
H995 C976 0.930 . S
H996 C978 0.932 . S
H997 C979 0.929 . S
H998 C980 0.928 . S
H999 C982 0.932 . S
C1000 C1001 1.264 . S
C1000 C1005 1.479 . S
C1000 C1010 1.465 . S
C1001 C1000 1.264 . S
C1001 C1003 1.339 . S
C1001 H1028 0.931 . S
C1002 C1003 1.395 . S
C1002 C1004 1.320 . S
C1003 C1001 1.339 . S
C1003 C1002 1.395 . S
C1003 H1029 0.929 . S
C1004 C1002 1.320 . S
C1004 C1005 1.405 . S
C1004 H1030 0.930 . S
C1005 C1000 1.479 . S
C1005 C1004 1.405 . S
C1005 H1031 0.931 . S
U1006 O1007 2.454 . S
U1006 O1008 2.458 . S
U1006 C1009 2.984 . S
U1006 C1010 2.847 1_545 S
U1006 C1023 2.882 . S
U1006 O1024 2.441 1_545 S
U1006 O1025 2.420 1_545 S
U1006 O1026 2.455 . S
U1006 O1027 2.449 . S
O1007 U1006 2.454 . S
O1007 C1009 1.353 . S
O1008 U1006 2.458 . S
O1008 C1009 1.286 . S
C1009 U1006 2.984 . S
C1009 O1007 1.353 . S
C1009 O1008 1.286 . S
C1009 C1011 1.363 . S
C1010 C1000 1.465 . S
C1010 U1006 2.847 1_565 S
C1010 O1024 1.249 . S
C1010 O1025 1.202 . S
C1011 C1009 1.363 . S
C1011 C1013 1.408 . S
C1011 C1016 1.342 . S
C1012 C1013 1.310 . S
C1012 C1015 1.461 . S
C1012 H1032 0.932 . S
C1013 C1011 1.408 . S
C1013 C1012 1.310 . S
C1013 H1033 0.930 . S
C1014 C1015 1.474 . S
C1014 C1016 1.285 . S
C1014 H1034 0.929 . S
C1015 C1012 1.461 . S
C1015 C1014 1.474 . S
C1016 C1011 1.342 . S
C1016 C1014 1.285 . S
C1016 H1035 0.930 . S
C1017 C1020 1.424 . S
C1017 C1022 1.245 . S
C1017 C1023 1.428 . S
C1018 C1021 1.260 . S
C1018 C1022 1.477 . S
C1018 H1036 0.932 . S
C1019 C1020 1.384 . S
C1019 C1021 1.479 . S
C1019 H1037 0.929 . S
C1020 C1017 1.424 . S
C1020 C1019 1.384 . S
C1020 H1038 0.928 . S
C1021 C1018 1.260 . S
C1021 C1019 1.479 . S
C1022 C1017 1.245 . S
C1022 C1018 1.477 . S
C1022 H1039 0.932 . S
C1023 U1006 2.882 . S
C1023 C1017 1.428 . S
C1023 O1026 1.301 . S
C1023 O1027 1.282 . S
O1024 U1006 2.441 1_565 S
O1024 C1010 1.249 . S
O1025 U1006 2.420 1_565 S
O1025 C1010 1.202 . S
O1026 U1006 2.455 . S
O1026 C1023 1.301 . S
O1027 U1006 2.449 . S
O1027 C1023 1.282 . S
H1028 C1001 0.931 . S
H1029 C1003 0.929 . S
H1030 C1004 0.930 . S
H1031 C1005 0.931 . S
H1032 C1012 0.932 . S
H1033 C1013 0.930 . S
H1034 C1014 0.929 . S
H1035 C1016 0.930 . S
H1036 C1018 0.932 . S
H1037 C1019 0.929 . S
H1038 C1020 0.928 . S
H1039 C1022 0.932 . S
C1040 C1041 1.264 . S
C1040 C1045 1.479 . S
C1040 C1050 1.465 . S
C1041 C1040 1.264 . S
C1041 C1043 1.339 . S
C1041 H1068 0.931 . S
C1042 C1043 1.395 . S
C1042 C1044 1.320 . S
C1043 C1041 1.339 . S
C1043 C1042 1.395 . S
C1043 H1069 0.929 . S
C1044 C1042 1.320 . S
C1044 C1045 1.405 . S
C1044 H1070 0.930 . S
C1045 C1040 1.479 . S
C1045 C1044 1.405 . S
C1045 H1071 0.931 . S
U1046 O1047 2.454 . S
U1046 O1048 2.458 . S
U1046 C1049 2.984 . S
U1046 C1050 2.847 1_545 S
U1046 C1063 2.882 . S
U1046 O1064 2.441 1_545 S
U1046 O1065 2.420 1_545 S
U1046 O1066 2.455 . S
U1046 O1067 2.449 . S
O1047 U1046 2.454 . S
O1047 C1049 1.353 . S
O1048 U1046 2.458 . S
O1048 C1049 1.286 . S
C1049 U1046 2.984 . S
C1049 O1047 1.353 . S
C1049 O1048 1.286 . S
C1049 C1051 1.363 . S
C1050 C1040 1.465 . S
C1050 U1046 2.847 1_565 S
C1050 O1064 1.249 . S
C1050 O1065 1.202 . S
C1051 C1049 1.363 . S
C1051 C1053 1.408 . S
C1051 C1056 1.342 . S
C1052 C1053 1.310 . S
C1052 C1055 1.461 . S
C1052 H1072 0.932 . S
C1053 C1051 1.408 . S
C1053 C1052 1.310 . S
C1053 H1073 0.930 . S
C1054 C1055 1.474 . S
C1054 C1056 1.285 . S
C1054 H1074 0.929 . S
C1055 C1052 1.461 . S
C1055 C1054 1.474 . S
C1056 C1051 1.342 . S
C1056 C1054 1.285 . S
C1056 H1075 0.930 . S
C1057 C1060 1.424 . S
C1057 C1062 1.245 . S
C1057 C1063 1.428 . S
C1058 C1061 1.260 . S
C1058 C1062 1.477 . S
C1058 H1076 0.932 . S
C1059 C1060 1.384 . S
C1059 C1061 1.479 . S
C1059 H1077 0.929 . S
C1060 C1057 1.424 . S
C1060 C1059 1.384 . S
C1060 H1078 0.928 . S
C1061 C1058 1.260 . S
C1061 C1059 1.479 . S
C1062 C1057 1.245 . S
C1062 C1058 1.477 . S
C1062 H1079 0.932 . S
C1063 U1046 2.882 . S
C1063 C1057 1.428 . S
C1063 O1066 1.301 . S
C1063 O1067 1.282 . S
O1064 U1046 2.441 1_565 S
O1064 C1050 1.249 . S
O1065 U1046 2.420 1_565 S
O1065 C1050 1.202 . S
O1066 U1046 2.455 . S
O1066 C1063 1.301 . S
O1067 U1046 2.449 . S
O1067 C1063 1.282 . S
H1068 C1041 0.931 . S
H1069 C1043 0.929 . S
H1070 C1044 0.930 . S
H1071 C1045 0.931 . S
H1072 C1052 0.932 . S
H1073 C1053 0.930 . S
H1074 C1054 0.929 . S
H1075 C1056 0.930 . S
H1076 C1058 0.932 . S
H1077 C1059 0.929 . S
H1078 C1060 0.928 . S
H1079 C1062 0.932 . S
C1080 C1081 1.264 . S
C1080 C1085 1.479 . S
C1080 C1090 1.465 . S
C1081 C1080 1.264 . S
C1081 C1083 1.339 . S
C1081 H1108 0.931 . S
C1082 C1083 1.395 . S
C1082 C1084 1.320 . S
C1083 C1081 1.339 . S
C1083 C1082 1.395 . S
C1083 H1109 0.929 . S
C1084 C1082 1.320 . S
C1084 C1085 1.405 . S
C1084 H1110 0.930 . S
C1085 C1080 1.479 . S
C1085 C1084 1.405 . S
C1085 H1111 0.931 . S
U1086 O1087 2.454 . S
U1086 O1088 2.458 . S
U1086 C1089 2.984 1_556 S
U1086 C1090 2.847 . S
U1086 C1103 2.882 . S
U1086 O1104 2.441 . S
U1086 O1105 2.420 . S
U1086 O1106 2.455 . S
U1086 O1107 2.449 . S
O1087 U1086 2.454 . S
O1087 C1089 1.353 1_556 S
O1088 U1086 2.458 . S
O1088 C1089 1.286 1_556 S
C1089 U1086 2.984 1_554 S
C1089 O1087 1.353 1_554 S
C1089 O1088 1.286 1_554 S
C1089 C1091 1.363 . S
C1090 C1080 1.465 . S
C1090 U1086 2.847 . S
C1090 O1104 1.249 . S
C1090 O1105 1.202 . S
C1091 C1089 1.363 . S
C1091 C1093 1.408 . S
C1091 C1096 1.342 . S
C1092 C1093 1.310 . S
C1092 C1095 1.461 . S
C1092 H1112 0.932 . S
C1093 C1091 1.408 . S
C1093 C1092 1.310 . S
C1093 H1113 0.930 . S
C1094 C1095 1.474 . S
C1094 C1096 1.285 . S
C1094 H1114 0.929 . S
C1095 C1092 1.461 . S
C1095 C1094 1.474 . S
C1096 C1091 1.342 . S
C1096 C1094 1.285 . S
C1096 H1115 0.930 . S
C1097 C1100 1.424 . S
C1097 C1102 1.245 . S
C1097 C1103 1.428 . S
C1098 C1101 1.260 . S
C1098 C1102 1.477 . S
C1098 H1116 0.932 . S
C1099 C1100 1.384 . S
C1099 C1101 1.479 . S
C1099 H1117 0.929 . S
C1100 C1097 1.424 . S
C1100 C1099 1.384 . S
C1100 H1118 0.928 . S
C1101 C1098 1.260 . S
C1101 C1099 1.479 . S
C1102 C1097 1.245 . S
C1102 C1098 1.477 . S
C1102 H1119 0.932 . S
C1103 U1086 2.882 . S
C1103 C1097 1.428 . S
C1103 O1106 1.301 . S
C1103 O1107 1.282 . S
O1104 U1086 2.441 . S
O1104 C1090 1.249 . S
O1105 U1086 2.420 . S
O1105 C1090 1.202 . S
O1106 U1086 2.455 . S
O1106 C1103 1.301 . S
O1107 U1086 2.449 . S
O1107 C1103 1.282 . S
H1108 C1081 0.931 . S
H1109 C1083 0.929 . S
H1110 C1084 0.930 . S
H1111 C1085 0.931 . S
H1112 C1092 0.932 . S
H1113 C1093 0.930 . S
H1114 C1094 0.929 . S
H1115 C1096 0.930 . S
H1116 C1098 0.932 . S
H1117 C1099 0.929 . S
H1118 C1100 0.928 . S
H1119 C1102 0.932 . S
C1120 C1121 1.264 . S
C1120 C1125 1.479 . S
C1120 C1130 1.465 . S
C1121 C1120 1.264 . S
C1121 C1123 1.339 . S
C1121 H1148 0.931 . S
C1122 C1123 1.395 . S
C1122 C1124 1.320 . S
C1123 C1121 1.339 . S
C1123 C1122 1.395 . S
C1123 H1149 0.929 . S
C1124 C1122 1.320 . S
C1124 C1125 1.405 . S
C1124 H1150 0.930 . S
C1125 C1120 1.479 . S
C1125 C1124 1.405 . S
C1125 H1151 0.931 . S
U1126 O1127 2.454 . S
U1126 O1128 2.458 . S
U1126 C1129 2.984 . S
U1126 C1130 2.847 1_455 S
U1126 C1143 2.882 . S
U1126 O1144 2.441 1_455 S
U1126 O1145 2.420 1_455 S
U1126 O1146 2.455 . S
U1126 O1147 2.449 . S
O1127 U1126 2.454 . S
O1127 C1129 1.353 . S
O1128 U1126 2.458 . S
O1128 C1129 1.286 . S
C1129 U1126 2.984 . S
C1129 O1127 1.353 . S
C1129 O1128 1.286 . S
C1129 C1131 1.363 . S
C1130 C1120 1.465 . S
C1130 U1126 2.847 1_655 S
C1130 O1144 1.249 . S
C1130 O1145 1.202 . S
C1131 C1129 1.363 . S
C1131 C1133 1.408 . S
C1131 C1136 1.342 . S
C1132 C1133 1.310 . S
C1132 C1135 1.461 . S
C1132 H1152 0.932 . S
C1133 C1131 1.408 . S
C1133 C1132 1.310 . S
C1133 H1153 0.930 . S
C1134 C1135 1.474 . S
C1134 C1136 1.285 . S
C1134 H1154 0.929 . S
C1135 C1132 1.461 . S
C1135 C1134 1.474 . S
C1136 C1131 1.342 . S
C1136 C1134 1.285 . S
C1136 H1155 0.930 . S
C1137 C1140 1.424 . S
C1137 C1142 1.245 . S
C1137 C1143 1.428 . S
C1138 C1141 1.260 . S
C1138 C1142 1.477 . S
C1138 H1156 0.932 . S
C1139 C1140 1.384 . S
C1139 C1141 1.479 . S
C1139 H1157 0.929 . S
C1140 C1137 1.424 . S
C1140 C1139 1.384 . S
C1140 H1158 0.928 . S
C1141 C1138 1.260 . S
C1141 C1139 1.479 . S
C1142 C1137 1.245 . S
C1142 C1138 1.477 . S
C1142 H1159 0.932 . S
C1143 U1126 2.882 . S
C1143 C1137 1.428 . S
C1143 O1146 1.301 . S
C1143 O1147 1.282 . S
O1144 U1126 2.441 1_655 S
O1144 C1130 1.249 . S
O1145 U1126 2.420 1_655 S
O1145 C1130 1.202 . S
O1146 U1126 2.455 . S
O1146 C1143 1.301 . S
O1147 U1126 2.449 . S
O1147 C1143 1.282 . S
H1148 C1121 0.931 . S
H1149 C1123 0.929 . S
H1150 C1124 0.930 . S
H1151 C1125 0.931 . S
H1152 C1132 0.932 . S
H1153 C1133 0.930 . S
H1154 C1134 0.929 . S
H1155 C1136 0.930 . S
H1156 C1138 0.932 . S
H1157 C1139 0.929 . S
H1158 C1140 0.928 . S
H1159 C1142 0.932 . S
C1160 C1161 1.264 . S
C1160 C1165 1.479 . S
C1160 C1170 1.465 . S
C1161 C1160 1.264 . S
C1161 C1163 1.339 . S
C1161 H1188 0.931 . S
C1162 C1163 1.395 . S
C1162 C1164 1.320 . S
C1163 C1161 1.339 . S
C1163 C1162 1.395 . S
C1163 H1189 0.929 . S
C1164 C1162 1.320 . S
C1164 C1165 1.405 . S
C1164 H1190 0.930 . S
C1165 C1160 1.479 . S
C1165 C1164 1.405 . S
C1165 H1191 0.931 . S
U1166 O1167 2.454 . S
U1166 O1168 2.458 . S
U1166 C1169 2.984 . S
U1166 C1170 2.847 . S
U1166 C1183 2.882 . S
U1166 O1184 2.441 . S
U1166 O1185 2.420 . S
U1166 O1186 2.455 . S
U1166 O1187 2.449 . S
O1167 U1166 2.454 . S
O1167 C1169 1.353 . S
O1168 U1166 2.458 . S
O1168 C1169 1.286 . S
C1169 U1166 2.984 . S
C1169 O1167 1.353 . S
C1169 O1168 1.286 . S
C1169 C1171 1.363 . S
C1170 C1160 1.465 . S
C1170 U1166 2.847 . S
C1170 O1184 1.249 . S
C1170 O1185 1.202 . S
C1171 C1169 1.363 . S
C1171 C1173 1.408 . S
C1171 C1176 1.342 . S
C1172 C1173 1.310 . S
C1172 C1175 1.461 . S
C1172 H1192 0.932 . S
C1173 C1171 1.408 . S
C1173 C1172 1.310 . S
C1173 H1193 0.930 . S
C1174 C1175 1.474 . S
C1174 C1176 1.285 . S
C1174 H1194 0.929 . S
C1175 C1172 1.461 . S
C1175 C1174 1.474 . S
C1176 C1171 1.342 . S
C1176 C1174 1.285 . S
C1176 H1195 0.930 . S
C1177 C1180 1.424 . S
C1177 C1182 1.245 . S
C1177 C1183 1.428 . S
C1178 C1181 1.260 . S
C1178 C1182 1.477 . S
C1178 H1196 0.932 . S
C1179 C1180 1.384 . S
C1179 C1181 1.479 . S
C1179 H1197 0.929 . S
C1180 C1177 1.424 . S
C1180 C1179 1.384 . S
C1180 H1198 0.928 . S
C1181 C1178 1.260 . S
C1181 C1179 1.479 . S
C1182 C1177 1.245 . S
C1182 C1178 1.477 . S
C1182 H1199 0.932 . S
C1183 U1166 2.882 . S
C1183 C1177 1.428 . S
C1183 O1186 1.301 . S
C1183 O1187 1.282 . S
O1184 U1166 2.441 . S
O1184 C1170 1.249 . S
O1185 U1166 2.420 . S
O1185 C1170 1.202 . S
O1186 U1166 2.455 . S
O1186 C1183 1.301 . S
O1187 U1166 2.449 . S
O1187 C1183 1.282 . S
H1188 C1161 0.931 . S
H1189 C1163 0.929 . S
H1190 C1164 0.930 . S
H1191 C1165 0.931 . S
H1192 C1172 0.932 . S
H1193 C1173 0.930 . S
H1194 C1174 0.929 . S
H1195 C1176 0.930 . S
H1196 C1178 0.932 . S
H1197 C1179 0.929 . S
H1198 C1180 0.928 . S
H1199 C1182 0.932 . S
C1200 C1201 1.264 . S
C1200 C1205 1.479 . S
C1200 C1210 1.465 . S
C1201 C1200 1.264 . S
C1201 C1203 1.339 . S
C1201 H1228 0.931 . S
C1202 C1203 1.395 . S
C1202 C1204 1.320 . S
C1203 C1201 1.339 . S
C1203 C1202 1.395 . S
C1203 H1229 0.929 . S
C1204 C1202 1.320 . S
C1204 C1205 1.405 . S
C1204 H1230 0.930 . S
C1205 C1200 1.479 . S
C1205 C1204 1.405 . S
C1205 H1231 0.931 . S
U1206 O1207 2.454 . S
U1206 O1208 2.458 . S
U1206 C1209 2.984 . S
U1206 C1210 2.847 . S
U1206 C1223 2.882 . S
U1206 O1224 2.441 . S
U1206 O1225 2.420 . S
U1206 O1226 2.455 . S
U1206 O1227 2.449 . S
O1207 U1206 2.454 . S
O1207 C1209 1.353 . S
O1208 U1206 2.458 . S
O1208 C1209 1.286 . S
C1209 U1206 2.984 . S
C1209 O1207 1.353 . S
C1209 O1208 1.286 . S
C1209 C1211 1.363 . S
C1210 C1200 1.465 . S
C1210 U1206 2.847 . S
C1210 O1224 1.249 . S
C1210 O1225 1.202 . S
C1211 C1209 1.363 . S
C1211 C1213 1.408 . S
C1211 C1216 1.342 . S
C1212 C1213 1.310 . S
C1212 C1215 1.461 . S
C1212 H1232 0.932 . S
C1213 C1211 1.408 . S
C1213 C1212 1.310 . S
C1213 H1233 0.930 . S
C1214 C1215 1.474 . S
C1214 C1216 1.285 . S
C1214 H1234 0.929 . S
C1215 C1212 1.461 . S
C1215 C1214 1.474 . S
C1216 C1211 1.342 . S
C1216 C1214 1.285 . S
C1216 H1235 0.930 . S
C1217 C1220 1.424 . S
C1217 C1222 1.245 . S
C1217 C1223 1.428 . S
C1218 C1221 1.260 . S
C1218 C1222 1.477 . S
C1218 H1236 0.932 . S
C1219 C1220 1.384 . S
C1219 C1221 1.479 . S
C1219 H1237 0.929 . S
C1220 C1217 1.424 . S
C1220 C1219 1.384 . S
C1220 H1238 0.928 . S
C1221 C1218 1.260 . S
C1221 C1219 1.479 . S
C1222 C1217 1.245 . S
C1222 C1218 1.477 . S
C1222 H1239 0.932 . S
C1223 U1206 2.882 . S
C1223 C1217 1.428 . S
C1223 O1226 1.301 . S
C1223 O1227 1.282 . S
O1224 U1206 2.441 . S
O1224 C1210 1.249 . S
O1225 U1206 2.420 . S
O1225 C1210 1.202 . S
O1226 U1206 2.455 . S
O1226 C1223 1.301 . S
O1227 U1206 2.449 . S
O1227 C1223 1.282 . S
H1228 C1201 0.931 . S
H1229 C1203 0.929 . S
H1230 C1204 0.930 . S
H1231 C1205 0.931 . S
H1232 C1212 0.932 . S
H1233 C1213 0.930 . S
H1234 C1214 0.929 . S
H1235 C1216 0.930 . S
H1236 C1218 0.932 . S
H1237 C1219 0.929 . S
H1238 C1220 0.928 . S
H1239 C1222 0.932 . S
C1240 C1241 1.264 . S
C1240 C1245 1.479 . S
C1240 C1250 1.465 . S
C1241 C1240 1.264 . S
C1241 C1243 1.339 . S
C1241 H1268 0.931 . S
C1242 C1243 1.395 . S
C1242 C1244 1.320 . S
C1243 C1241 1.339 . S
C1243 C1242 1.395 . S
C1243 H1269 0.929 . S
C1244 C1242 1.320 . S
C1244 C1245 1.405 . S
C1244 H1270 0.930 . S
C1245 C1240 1.479 . S
C1245 C1244 1.405 . S
C1245 H1271 0.931 . S
U1246 O1247 2.485 . S
U1246 O1248 2.458 . S
U1246 C1249 2.984 1_655 S
U1246 C1250 2.847 . S
U1246 C1263 2.882 . S
U1246 O1264 2.441 . S
U1246 O1265 2.420 . S
U1246 O1266 2.455 . S
U1246 O1267 2.449 . S
O1247 U1246 2.485 . S
O1247 C1249 1.349 1_655 S
O1248 U1246 2.458 . S
O1248 C1249 1.286 1_655 S
C1249 U1246 2.984 1_455 S
C1249 O1247 1.349 1_455 S
C1249 O1248 1.286 1_455 S
C1249 C1251 1.363 . S
C1250 C1240 1.465 . S
C1250 U1246 2.847 . S
C1250 O1264 1.249 . S
C1250 O1265 1.202 . S
C1251 C1249 1.363 . S
C1251 C1253 1.408 . S
C1251 C1256 1.342 . S
C1252 C1253 1.310 . S
C1252 C1255 1.461 . S
C1252 H1272 0.932 . S
C1253 C1251 1.408 . S
C1253 C1252 1.310 . S
C1253 H1273 0.930 . S
C1254 C1255 1.474 . S
C1254 C1256 1.285 . S
C1254 H1274 0.929 . S
C1255 C1252 1.461 . S
C1255 C1254 1.474 . S
C1256 C1251 1.342 . S
C1256 C1254 1.285 . S
C1256 H1275 0.930 . S
C1257 C1260 1.424 . S
C1257 C1262 1.245 . S
C1257 C1263 1.428 . S
C1258 C1261 1.260 . S
C1258 C1262 1.477 . S
C1258 H1276 0.932 . S
C1259 C1260 1.384 . S
C1259 C1261 1.479 . S
C1259 H1277 0.929 . S
C1260 C1257 1.424 . S
C1260 C1259 1.384 . S
C1260 H1278 0.928 . S
C1261 C1258 1.260 . S
C1261 C1259 1.479 . S
C1262 C1257 1.245 . S
C1262 C1258 1.477 . S
C1262 H1279 0.932 . S
C1263 U1246 2.882 . S
C1263 C1257 1.428 . S
C1263 O1266 1.301 . S
C1263 O1267 1.282 . S
O1264 U1246 2.441 . S
O1264 C1250 1.249 . S
O1265 U1246 2.420 . S
O1265 C1250 1.202 . S
O1266 U1246 2.455 . S
O1266 C1263 1.301 . S
O1267 U1246 2.449 . S
O1267 C1263 1.282 . S
H1268 C1241 0.931 . S
H1269 C1243 0.929 . S
H1270 C1244 0.930 . S
H1271 C1245 0.931 . S
H1272 C1252 0.932 . S
H1273 C1253 0.930 . S
H1274 C1254 0.929 . S
H1275 C1256 0.930 . S
H1276 C1258 0.932 . S
H1277 C1259 0.929 . S
H1278 C1260 0.928 . S
H1279 C1262 0.932 . S
C1280 C1281 1.264 . S
C1280 C1285 1.479 . S
C1280 C1290 1.465 . S
C1281 C1280 1.264 . S
C1281 C1283 1.339 . S
C1281 H1308 0.931 . S
C1282 C1283 1.395 . S
C1282 C1284 1.320 . S
C1283 C1281 1.339 . S
C1283 C1282 1.395 . S
C1283 H1309 0.929 . S
C1284 C1282 1.320 . S
C1284 C1285 1.405 . S
C1284 H1310 0.930 . S
C1285 C1280 1.479 . S
C1285 C1284 1.405 . S
C1285 H1311 0.931 . S
U1286 O1287 2.454 . S
U1286 O1288 2.458 . S
U1286 C1289 2.984 . S
U1286 C1290 2.847 . S
U1286 C1303 2.882 . S
U1286 O1304 2.441 . S
U1286 O1305 2.420 . S
U1286 O1306 2.455 . S
U1286 O1307 2.449 . S
O1287 U1286 2.454 . S
O1287 C1289 1.353 . S
O1288 U1286 2.458 . S
O1288 C1289 1.286 . S
C1289 U1286 2.984 . S
C1289 O1287 1.353 . S
C1289 O1288 1.286 . S
C1289 C1291 1.363 . S
C1290 C1280 1.465 . S
C1290 U1286 2.847 . S
C1290 O1304 1.249 . S
C1290 O1305 1.202 . S
C1291 C1289 1.363 . S
C1291 C1293 1.408 . S
C1291 C1296 1.342 . S
C1292 C1293 1.310 . S
C1292 C1295 1.461 . S
C1292 H1312 0.932 . S
C1293 C1291 1.408 . S
C1293 C1292 1.310 . S
C1293 H1313 0.930 . S
C1294 C1295 1.474 . S
C1294 C1296 1.285 . S
C1294 H1314 0.929 . S
C1295 C1292 1.461 . S
C1295 C1294 1.474 . S
C1296 C1291 1.342 . S
C1296 C1294 1.285 . S
C1296 H1315 0.930 . S
C1297 C1300 1.424 . S
C1297 C1302 1.245 . S
C1297 C1303 1.428 . S
C1298 C1301 1.260 . S
C1298 C1302 1.477 . S
C1298 H1316 0.932 . S
C1299 C1300 1.384 . S
C1299 C1301 1.479 . S
C1299 H1317 0.929 . S
C1300 C1297 1.424 . S
C1300 C1299 1.384 . S
C1300 H1318 0.928 . S
C1301 C1298 1.260 . S
C1301 C1299 1.479 . S
C1302 C1297 1.245 . S
C1302 C1298 1.477 . S
C1302 H1319 0.932 . S
C1303 U1286 2.882 . S
C1303 C1297 1.428 . S
C1303 O1306 1.301 . S
C1303 O1307 1.282 . S
O1304 U1286 2.441 . S
O1304 C1290 1.249 . S
O1305 U1286 2.420 . S
O1305 C1290 1.202 . S
O1306 U1286 2.455 . S
O1306 C1303 1.301 . S
O1307 U1286 2.449 . S
O1307 C1303 1.282 . S
H1308 C1281 0.931 . S
H1309 C1283 0.929 . S
H1310 C1284 0.930 . S
H1311 C1285 0.931 . S
H1312 C1292 0.932 . S
H1313 C1293 0.930 . S
H1314 C1294 0.929 . S
H1315 C1296 0.930 . S
H1316 C1298 0.932 . S
H1317 C1299 0.929 . S
H1318 C1300 0.928 . S
H1319 C1302 0.932 . S
C1320 C1321 1.264 . S
C1320 C1325 1.479 . S
C1320 C1330 1.465 . S
C1321 C1320 1.264 . S
C1321 C1323 1.339 . S
C1321 H1348 0.931 . S
C1322 C1323 1.395 . S
C1322 C1324 1.320 . S
C1323 C1321 1.339 . S
C1323 C1322 1.395 . S
C1323 H1349 0.929 . S
C1324 C1322 1.320 . S
C1324 C1325 1.405 . S
C1324 H1350 0.930 . S
C1325 C1320 1.479 . S
C1325 C1324 1.405 . S
C1325 H1351 0.931 . S
U1326 O1327 2.454 . S
U1326 O1328 2.458 . S
U1326 C1329 2.984 . S
U1326 C1330 2.847 . S
U1326 C1343 2.882 . S
U1326 O1344 2.441 . S
U1326 O1345 2.420 . S
U1326 O1346 2.455 . S
U1326 O1347 2.449 . S
O1327 U1326 2.454 . S
O1327 C1329 1.353 . S
O1328 U1326 2.458 . S
O1328 C1329 1.286 . S
C1329 U1326 2.984 . S
C1329 O1327 1.353 . S
C1329 O1328 1.286 . S
C1329 C1331 1.363 . S
C1330 C1320 1.465 . S
C1330 U1326 2.847 . S
C1330 O1344 1.249 . S
C1330 O1345 1.202 . S
C1331 C1329 1.363 . S
C1331 C1333 1.408 1_556 S
C1331 C1336 1.342 . S
C1332 C1333 1.310 . S
C1332 C1335 1.461 . S
C1332 H1352 0.932 . S
C1333 C1331 1.408 1_554 S
C1333 C1332 1.310 . S
C1333 H1353 0.930 . S
C1334 C1335 1.474 . S
C1334 C1336 1.285 1_554 S
C1334 H1354 0.929 . S
C1335 C1332 1.461 . S
C1335 C1334 1.474 . S
C1336 C1331 1.342 . S
C1336 C1334 1.285 1_556 S
C1336 H1355 0.930 . S
C1337 C1340 1.424 . S
C1337 C1342 1.245 . S
C1337 C1343 1.428 . S
C1338 C1341 1.260 . S
C1338 C1342 1.477 . S
C1338 H1356 0.932 . S
C1339 C1340 1.384 . S
C1339 C1341 1.479 . S
C1339 H1357 0.929 . S
C1340 C1337 1.424 . S
C1340 C1339 1.384 . S
C1340 H1358 0.928 . S
C1341 C1338 1.260 . S
C1341 C1339 1.479 . S
C1342 C1337 1.245 . S
C1342 C1338 1.477 . S
C1342 H1359 0.932 . S
C1343 U1326 2.882 . S
C1343 C1337 1.428 . S
C1343 O1346 1.301 . S
C1343 O1347 1.282 . S
O1344 U1326 2.441 . S
O1344 C1330 1.249 . S
O1345 U1326 2.420 . S
O1345 C1330 1.202 . S
O1346 U1326 2.455 . S
O1346 C1343 1.301 . S
O1347 U1326 2.449 . S
O1347 C1343 1.282 . S
H1348 C1321 0.931 . S
H1349 C1323 0.929 . S
H1350 C1324 0.930 . S
H1351 C1325 0.931 . S
H1352 C1332 0.932 . S
H1353 C1333 0.930 . S
H1354 C1334 0.929 . S
H1355 C1336 0.930 . S
H1356 C1338 0.932 . S
H1357 C1339 0.929 . S
H1358 C1340 0.928 . S
H1359 C1342 0.932 . S
C1360 C1361 1.264 . S
C1360 C1365 1.479 . S
C1360 C1370 1.465 . S
C1361 C1360 1.264 . S
C1361 C1363 1.339 . S
C1361 H1388 0.931 . S
C1362 C1363 1.395 . S
C1362 C1364 1.320 . S
C1363 C1361 1.339 . S
C1363 C1362 1.395 . S
C1363 H1389 0.929 . S
C1364 C1362 1.320 . S
C1364 C1365 1.405 . S
C1364 H1390 0.930 . S
C1365 C1360 1.479 . S
C1365 C1364 1.405 . S
C1365 H1391 0.931 . S
U1366 O1367 2.454 . S
U1366 O1368 2.458 . S
U1366 C1369 2.984 . S
U1366 C1370 2.847 . S
U1366 C1383 2.882 . S
U1366 O1384 2.441 . S
U1366 O1385 2.420 . S
U1366 O1386 2.455 . S
U1366 O1387 2.449 . S
O1367 U1366 2.454 . S
O1367 C1369 1.353 . S
O1368 U1366 2.458 . S
O1368 C1369 1.286 . S
C1369 U1366 2.984 . S
C1369 O1367 1.353 . S
C1369 O1368 1.286 . S
C1369 C1371 1.363 . S
C1370 C1360 1.465 . S
C1370 U1366 2.847 . S
C1370 O1384 1.249 . S
C1370 O1385 1.202 . S
C1371 C1369 1.363 . S
C1371 C1373 1.408 . S
C1371 C1376 1.342 . S
C1372 C1373 1.310 . S
C1372 C1375 1.461 . S
C1372 H1392 0.932 . S
C1373 C1371 1.408 . S
C1373 C1372 1.310 . S
C1373 H1393 0.930 . S
C1374 C1375 1.474 . S
C1374 C1376 1.285 . S
C1374 H1394 0.929 . S
C1375 C1372 1.461 . S
C1375 C1374 1.474 . S
C1376 C1371 1.342 . S
C1376 C1374 1.285 . S
C1376 H1395 0.930 . S
C1377 C1380 1.424 . S
C1377 C1382 1.245 . S
C1377 C1383 1.428 . S
C1378 C1381 1.260 . S
C1378 C1382 1.477 . S
C1378 H1396 0.932 . S
C1379 C1380 1.384 . S
C1379 C1381 1.479 . S
C1379 H1397 0.929 . S
C1380 C1377 1.424 . S
C1380 C1379 1.384 . S
C1380 H1398 0.928 . S
C1381 C1378 1.260 . S
C1381 C1379 1.479 . S
C1382 C1377 1.245 . S
C1382 C1378 1.477 . S
C1382 H1399 0.932 . S
C1383 U1366 2.882 . S
C1383 C1377 1.428 . S
C1383 O1386 1.301 . S
C1383 O1387 1.282 . S
O1384 U1366 2.441 . S
O1384 C1370 1.249 . S
O1385 U1366 2.420 . S
O1385 C1370 1.202 . S
O1386 U1366 2.455 . S
O1386 C1383 1.301 . S
O1387 U1366 2.449 . S
O1387 C1383 1.282 . S
H1388 C1361 0.931 . S
H1389 C1363 0.929 . S
H1390 C1364 0.930 . S
H1391 C1365 0.931 . S
H1392 C1372 0.932 . S
H1393 C1373 0.930 . S
H1394 C1374 0.929 . S
H1395 C1376 0.930 . S
H1396 C1378 0.932 . S
H1397 C1379 0.929 . S
H1398 C1380 0.928 . S
H1399 C1382 0.932 . S
C1400 C1401 1.264 . S
C1400 C1405 1.479 . S
C1400 C1410 1.465 . S
C1401 C1400 1.264 . S
C1401 C1403 1.339 . S
C1401 H1428 0.931 . S
C1402 C1403 1.395 . S
C1402 C1404 1.320 . S
C1403 C1401 1.339 . S
C1403 C1402 1.395 . S
C1403 H1429 0.929 . S
C1404 C1402 1.320 . S
C1404 C1405 1.405 . S
C1404 H1430 0.930 . S
C1405 C1400 1.479 . S
C1405 C1404 1.405 . S
C1405 H1431 0.931 . S
U1406 O1407 2.454 . S
U1406 O1408 2.458 . S
U1406 C1409 2.984 . S
U1406 C1410 2.847 . S
U1406 C1423 2.882 . S
U1406 O1424 2.441 . S
U1406 O1425 2.420 . S
U1406 O1426 2.455 . S
U1406 O1427 2.449 . S
O1407 U1406 2.454 . S
O1407 C1409 1.353 . S
O1408 U1406 2.458 . S
O1408 C1409 1.286 . S
C1409 U1406 2.984 . S
C1409 O1407 1.353 . S
C1409 O1408 1.286 . S
C1409 C1411 1.363 . S
C1410 C1400 1.465 . S
C1410 U1406 2.847 . S
C1410 O1424 1.249 . S
C1410 O1425 1.202 . S
C1411 C1409 1.363 . S
C1411 C1413 1.408 . S
C1411 C1416 1.342 . S
C1412 C1413 1.310 . S
C1412 C1415 1.461 . S
C1412 H1432 0.932 . S
C1413 C1411 1.408 . S
C1413 C1412 1.310 . S
C1413 H1433 0.930 . S
C1414 C1415 1.474 . S
C1414 C1416 1.285 . S
C1414 H1434 0.929 . S
C1415 C1412 1.461 . S
C1415 C1414 1.474 . S
C1416 C1411 1.342 . S
C1416 C1414 1.285 . S
C1416 H1435 0.930 . S
C1417 C1420 1.424 . S
C1417 C1422 1.245 . S
C1417 C1423 1.428 . S
C1418 C1421 1.260 . S
C1418 C1422 1.477 . S
C1418 H1436 0.932 . S
C1419 C1420 1.384 . S
C1419 C1421 1.479 . S
C1419 H1437 0.929 . S
C1420 C1417 1.424 . S
C1420 C1419 1.384 . S
C1420 H1438 0.928 . S
C1421 C1418 1.260 . S
C1421 C1419 1.479 . S
C1422 C1417 1.245 . S
C1422 C1418 1.477 . S
C1422 H1439 0.932 . S
C1423 U1406 2.882 . S
C1423 C1417 1.428 . S
C1423 O1426 1.301 . S
C1423 O1427 1.282 . S
O1424 U1406 2.441 . S
O1424 C1410 1.249 . S
O1425 U1406 2.420 . S
O1425 C1410 1.202 . S
O1426 U1406 2.455 . S
O1426 C1423 1.301 . S
O1427 U1406 2.449 . S
O1427 C1423 1.282 . S
H1428 C1401 0.931 . S
H1429 C1403 0.929 . S
H1430 C1404 0.930 . S
H1431 C1405 0.931 . S
H1432 C1412 0.932 . S
H1433 C1413 0.930 . S
H1434 C1414 0.929 . S
H1435 C1416 0.930 . S
H1436 C1418 0.932 . S
H1437 C1419 0.929 . S
H1438 C1420 0.928 . S
H1439 C1422 0.932 . S
C1440 C1441 1.264 . S
C1440 C1445 1.479 . S
C1440 C1450 1.465 . S
C1441 C1440 1.264 . S
C1441 C1443 1.339 . S
C1441 H1468 0.931 . S
C1442 C1443 1.395 . S
C1442 C1444 1.320 . S
C1443 C1441 1.339 . S
C1443 C1442 1.395 . S
C1443 H1469 0.929 . S
C1444 C1442 1.320 . S
C1444 C1445 1.405 . S
C1444 H1470 0.930 . S
C1445 C1440 1.479 . S
C1445 C1444 1.405 . S
C1445 H1471 0.931 . S
U1446 O1447 2.454 . S
U1446 O1448 2.458 . S
U1446 C1449 2.984 . S
U1446 C1450 2.847 . S
U1446 C1463 2.882 . S
U1446 O1464 2.441 . S
U1446 O1465 2.420 . S
U1446 O1466 2.455 . S
U1446 O1467 2.449 . S
O1447 U1446 2.454 . S
O1447 C1449 1.353 . S
O1448 U1446 2.458 . S
O1448 C1449 1.286 . S
C1449 U1446 2.984 . S
C1449 O1447 1.353 . S
C1449 O1448 1.286 . S
C1449 C1451 1.363 . S
C1450 C1440 1.465 . S
C1450 U1446 2.847 . S
C1450 O1464 1.249 . S
C1450 O1465 1.202 . S
C1451 C1449 1.363 . S
C1451 C1453 1.408 . S
C1451 C1456 1.342 . S
C1452 C1453 1.310 . S
C1452 C1455 1.461 . S
C1452 H1472 0.932 . S
C1453 C1451 1.408 . S
C1453 C1452 1.310 . S
C1453 H1473 0.930 . S
C1454 C1455 1.474 . S
C1454 C1456 1.285 . S
C1454 H1474 0.929 . S
C1455 C1452 1.461 . S
C1455 C1454 1.474 . S
C1456 C1451 1.342 . S
C1456 C1454 1.285 . S
C1456 H1475 0.930 . S
C1457 C1460 1.424 . S
C1457 C1462 1.245 . S
C1457 C1463 1.428 . S
C1458 C1461 1.260 . S
C1458 C1462 1.477 . S
C1458 H1476 0.932 . S
C1459 C1460 1.384 . S
C1459 C1461 1.479 . S
C1459 H1477 0.929 . S
C1460 C1457 1.424 . S
C1460 C1459 1.384 . S
C1460 H1478 0.928 . S
C1461 C1458 1.260 . S
C1461 C1459 1.479 . S
C1462 C1457 1.245 . S
C1462 C1458 1.477 . S
C1462 H1479 0.932 . S
C1463 U1446 2.882 . S
C1463 C1457 1.428 . S
C1463 O1466 1.301 . S
C1463 O1467 1.282 . S
O1464 U1446 2.441 . S
O1464 C1450 1.249 . S
O1465 U1446 2.420 . S
O1465 C1450 1.202 . S
O1466 U1446 2.455 . S
O1466 C1463 1.301 . S
O1467 U1446 2.449 . S
O1467 C1463 1.282 . S
H1468 C1441 0.931 . S
H1469 C1443 0.929 . S
H1470 C1444 0.930 . S
H1471 C1445 0.931 . S
H1472 C1452 0.932 . S
H1473 C1453 0.930 . S
H1474 C1454 0.929 . S
H1475 C1456 0.930 . S
H1476 C1458 0.932 . S
H1477 C1459 0.929 . S
H1478 C1460 0.928 . S
H1479 C1462 0.932 . S
C1480 C1481 1.264 . S
C1480 C1485 1.479 . S
C1480 C1490 1.465 . S
C1481 C1480 1.264 . S
C1481 C1483 1.339 . S
C1481 H1508 0.931 . S
C1482 C1483 1.395 . S
C1482 C1484 1.320 . S
C1483 C1481 1.339 . S
C1483 C1482 1.395 . S
C1483 H1509 0.929 . S
C1484 C1482 1.320 . S
C1484 C1485 1.405 . S
C1484 H1510 0.930 . S
C1485 C1480 1.479 . S
C1485 C1484 1.405 . S
C1485 H1511 0.931 . S
U1486 O1487 2.454 . S
U1486 O1488 2.458 . S
U1486 C1489 2.984 . S
U1486 C1490 2.847 . S
U1486 C1503 2.882 . S
U1486 O1504 2.441 . S
U1486 O1505 2.420 . S
U1486 O1506 2.455 . S
U1486 O1507 2.449 . S
O1487 U1486 2.454 . S
O1487 C1489 1.353 . S
O1488 U1486 2.458 . S
O1488 C1489 1.286 . S
C1489 U1486 2.984 . S
C1489 O1487 1.353 . S
C1489 O1488 1.286 . S
C1489 C1491 1.363 . S
C1490 C1480 1.465 . S
C1490 U1486 2.847 . S
C1490 O1504 1.249 . S
C1490 O1505 1.202 . S
C1491 C1489 1.363 . S
C1491 C1493 1.408 . S
C1491 C1496 1.342 . S
C1492 C1493 1.310 . S
C1492 C1495 1.461 . S
C1492 H1512 0.932 . S
C1493 C1491 1.408 . S
C1493 C1492 1.310 . S
C1493 H1513 0.930 . S
C1494 C1495 1.474 . S
C1494 C1496 1.285 . S
C1494 H1514 0.929 . S
C1495 C1492 1.461 . S
C1495 C1494 1.474 . S
C1496 C1491 1.342 . S
C1496 C1494 1.285 . S
C1496 H1515 0.930 . S
C1497 C1500 1.424 . S
C1497 C1502 1.245 . S
C1497 C1503 1.428 . S
C1498 C1501 1.260 . S
C1498 C1502 1.477 . S
C1498 H1516 0.932 . S
C1499 C1500 1.384 . S
C1499 C1501 1.479 . S
C1499 H1517 0.929 . S
C1500 C1497 1.424 . S
C1500 C1499 1.384 . S
C1500 H1518 0.928 . S
C1501 C1498 1.260 . S
C1501 C1499 1.479 . S
C1502 C1497 1.245 . S
C1502 C1498 1.477 . S
C1502 H1519 0.932 . S
C1503 U1486 2.882 . S
C1503 C1497 1.428 . S
C1503 O1506 1.301 . S
C1503 O1507 1.282 . S
O1504 U1486 2.441 . S
O1504 C1490 1.249 . S
O1505 U1486 2.420 . S
O1505 C1490 1.202 . S
O1506 U1486 2.455 . S
O1506 C1503 1.301 . S
O1507 U1486 2.449 . S
O1507 C1503 1.282 . S
H1508 C1481 0.931 . S
H1509 C1483 0.929 . S
H1510 C1484 0.930 . S
H1511 C1485 0.931 . S
H1512 C1492 0.932 . S
H1513 C1493 0.930 . S
H1514 C1494 0.929 . S
H1515 C1496 0.930 . S
H1516 C1498 0.932 . S
H1517 C1499 0.929 . S
H1518 C1500 0.928 . S
H1519 C1502 0.932 . S
C1520 C1521 1.264 . S
C1520 C1525 1.479 . S
C1520 C1530 1.465 . S
C1521 C1520 1.264 . S
C1521 C1523 1.339 . S
C1521 H1548 0.931 . S
C1522 C1523 1.395 . S
C1522 C1524 1.320 . S
C1523 C1521 1.339 . S
C1523 C1522 1.395 . S
C1523 H1549 0.929 . S
C1524 C1522 1.320 . S
C1524 C1525 1.405 . S
C1524 H1550 0.930 . S
C1525 C1520 1.479 . S
C1525 C1524 1.405 . S
C1525 H1551 0.931 . S
U1526 O1527 2.454 . S
U1526 O1528 2.458 . S
U1526 C1529 2.984 . S
U1526 C1530 2.847 . S
U1526 C1543 2.882 . S
U1526 O1544 2.441 . S
U1526 O1545 2.420 . S
U1526 O1546 2.455 . S
U1526 O1547 2.449 . S
O1527 U1526 2.454 . S
O1527 C1529 1.353 . S
O1528 U1526 2.458 . S
O1528 C1529 1.286 . S
C1529 U1526 2.984 . S
C1529 O1527 1.353 . S
C1529 O1528 1.286 . S
C1529 C1531 1.363 . S
C1530 C1520 1.465 . S
C1530 U1526 2.847 . S
C1530 O1544 1.249 . S
C1530 O1545 1.202 . S
C1531 C1529 1.363 . S
C1531 C1533 1.408 . S
C1531 C1536 1.342 . S
C1532 C1533 1.310 . S
C1532 C1535 1.461 . S
C1532 H1552 0.932 . S
C1533 C1531 1.408 . S
C1533 C1532 1.310 . S
C1533 H1553 0.930 . S
C1534 C1535 1.474 . S
C1534 C1536 1.285 . S
C1534 H1554 0.929 . S
C1535 C1532 1.461 . S
C1535 C1534 1.474 . S
C1536 C1531 1.342 . S
C1536 C1534 1.285 . S
C1536 H1555 0.930 . S
C1537 C1540 1.424 . S
C1537 C1542 1.245 . S
C1537 C1543 1.428 . S
C1538 C1541 1.260 . S
C1538 C1542 1.477 . S
C1538 H1556 0.932 . S
C1539 C1540 1.384 . S
C1539 C1541 1.479 . S
C1539 H1557 0.929 . S
C1540 C1537 1.424 . S
C1540 C1539 1.384 . S
C1540 H1558 0.928 . S
C1541 C1538 1.260 . S
C1541 C1539 1.479 . S
C1542 C1537 1.245 . S
C1542 C1538 1.477 . S
C1542 H1559 0.932 . S
C1543 U1526 2.882 . S
C1543 C1537 1.428 . S
C1543 O1546 1.301 . S
C1543 O1547 1.282 . S
O1544 U1526 2.441 . S
O1544 C1530 1.249 . S
O1545 U1526 2.420 . S
O1545 C1530 1.202 . S
O1546 U1526 2.455 . S
O1546 C1543 1.301 . S
O1547 U1526 2.449 . S
O1547 C1543 1.282 . S
H1548 C1521 0.931 . S
H1549 C1523 0.929 . S
H1550 C1524 0.930 . S
H1551 C1525 0.931 . S
H1552 C1532 0.932 . S
H1553 C1533 0.930 . S
H1554 C1534 0.929 . S
H1555 C1536 0.930 . S
H1556 C1538 0.932 . S
H1557 C1539 0.929 . S
H1558 C1540 0.928 . S
H1559 C1542 0.932 . S
C1560 C1561 1.264 . S
C1560 C1565 1.479 . S
C1560 C1570 1.465 . S
C1561 C1560 1.264 . S
C1561 C1563 1.339 . S
C1561 H1588 0.931 . S
C1562 C1563 1.395 . S
C1562 C1564 1.320 . S
C1563 C1561 1.339 . S
C1563 C1562 1.395 . S
C1563 H1589 0.929 . S
C1564 C1562 1.320 . S
C1564 C1565 1.405 . S
C1564 H1590 0.930 . S
C1565 C1560 1.479 . S
C1565 C1564 1.405 . S
C1565 H1591 0.931 . S
U1566 O1567 2.454 . S
U1566 O1568 2.458 . S
U1566 C1569 2.984 . S
U1566 C1570 2.847 . S
U1566 C1583 2.882 . S
U1566 O1584 2.441 . S
U1566 O1585 2.420 . S
U1566 O1586 2.455 . S
U1566 O1587 2.449 . S
O1567 U1566 2.454 . S
O1567 C1569 1.353 . S
O1568 U1566 2.458 . S
O1568 C1569 1.286 . S
C1569 U1566 2.984 . S
C1569 O1567 1.353 . S
C1569 O1568 1.286 . S
C1569 C1571 1.363 . S
C1570 C1560 1.465 . S
C1570 U1566 2.847 . S
C1570 O1584 1.249 . S
C1570 O1585 1.202 . S
C1571 C1569 1.363 . S
C1571 C1573 1.408 . S
C1571 C1576 1.342 . S
C1572 C1573 1.310 . S
C1572 C1575 1.461 . S
C1572 H1592 0.932 . S
C1573 C1571 1.408 . S
C1573 C1572 1.310 . S
C1573 H1593 0.930 . S
C1574 C1575 1.474 . S
C1574 C1576 1.285 . S
C1574 H1594 0.929 . S
C1575 C1572 1.461 . S
C1575 C1574 1.474 . S
C1576 C1571 1.342 . S
C1576 C1574 1.285 . S
C1576 H1595 0.930 . S
C1577 C1580 1.424 . S
C1577 C1582 1.245 . S
C1577 C1583 1.428 . S
C1578 C1581 1.260 . S
C1578 C1582 1.477 . S
C1578 H1596 0.932 . S
C1579 C1580 1.384 . S
C1579 C1581 1.479 . S
C1579 H1597 0.929 . S
C1580 C1577 1.424 . S
C1580 C1579 1.384 . S
C1580 H1598 0.928 . S
C1581 C1578 1.260 . S
C1581 C1579 1.479 . S
C1582 C1577 1.245 . S
C1582 C1578 1.477 . S
C1582 H1599 0.932 . S
C1583 U1566 2.882 . S
C1583 C1577 1.428 . S
C1583 O1586 1.301 . S
C1583 O1587 1.282 . S
O1584 U1566 2.441 . S
O1584 C1570 1.249 . S
O1585 U1566 2.420 . S
O1585 C1570 1.202 . S
O1586 U1566 2.455 . S
O1586 C1583 1.301 . S
O1587 U1566 2.449 . S
O1587 C1583 1.282 . S
H1588 C1561 0.931 . S
H1589 C1563 0.929 . S
H1590 C1564 0.930 . S
H1591 C1565 0.931 . S
H1592 C1572 0.932 . S
H1593 C1573 0.930 . S
H1594 C1574 0.929 . S
H1595 C1576 0.930 . S
H1596 C1578 0.932 . S
H1597 C1579 0.929 . S
H1598 C1580 0.928 . S
H1599 C1582 0.932 . S
C1600 C1601 1.264 . S
C1600 C1605 1.479 . S
C1600 C1610 1.465 . S
C1601 C1600 1.264 . S
C1601 C1603 1.339 . S
C1601 H1628 0.931 . S
C1602 C1603 1.395 . S
C1602 C1604 1.320 . S
C1603 C1601 1.339 . S
C1603 C1602 1.395 . S
C1603 H1629 0.929 . S
C1604 C1602 1.320 . S
C1604 C1605 1.405 . S
C1604 H1630 0.930 . S
C1605 C1600 1.479 . S
C1605 C1604 1.405 . S
C1605 H1631 0.931 . S
U1606 O1607 2.454 . S
U1606 O1608 2.458 . S
U1606 C1609 2.984 . S
U1606 C1610 2.847 1_455 S
U1606 C1623 2.882 . S
U1606 O1624 2.441 1_455 S
U1606 O1625 2.420 1_455 S
U1606 O1626 2.455 . S
U1606 O1627 2.449 . S
O1607 U1606 2.454 . S
O1607 C1609 1.353 . S
O1608 U1606 2.458 . S
O1608 C1609 1.286 . S
C1609 U1606 2.984 . S
C1609 O1607 1.353 . S
C1609 O1608 1.286 . S
C1609 C1611 1.363 . S
C1610 C1600 1.465 . S
C1610 U1606 2.847 1_655 S
C1610 O1624 1.249 . S
C1610 O1625 1.202 . S
C1611 C1609 1.363 . S
C1611 C1613 1.408 . S
C1611 C1616 1.342 . S
C1612 C1613 1.310 . S
C1612 C1615 1.461 . S
C1612 H1632 0.932 . S
C1613 C1611 1.408 . S
C1613 C1612 1.310 . S
C1613 H1633 0.930 . S
C1614 C1615 1.474 . S
C1614 C1616 1.285 . S
C1614 H1634 0.929 . S
C1615 C1612 1.461 . S
C1615 C1614 1.474 . S
C1616 C1611 1.342 . S
C1616 C1614 1.285 . S
C1616 H1635 0.930 . S
C1617 C1620 1.424 . S
C1617 C1622 1.245 . S
C1617 C1623 1.428 . S
C1618 C1621 1.260 . S
C1618 C1622 1.477 . S
C1618 H1636 0.932 . S
C1619 C1620 1.384 . S
C1619 C1621 1.479 . S
C1619 H1637 0.929 . S
C1620 C1617 1.424 . S
C1620 C1619 1.384 . S
C1620 H1638 0.928 . S
C1621 C1618 1.260 . S
C1621 C1619 1.479 . S
C1622 C1617 1.245 . S
C1622 C1618 1.477 . S
C1622 H1639 0.932 . S
C1623 U1606 2.882 . S
C1623 C1617 1.428 . S
C1623 O1626 1.301 . S
C1623 O1627 1.282 . S
O1624 U1606 2.441 1_655 S
O1624 C1610 1.249 . S
O1625 U1606 2.420 1_655 S
O1625 C1610 1.202 . S
O1626 U1606 2.455 . S
O1626 C1623 1.301 . S
O1627 U1606 2.449 . S
O1627 C1623 1.282 . S
H1628 C1601 0.931 . S
H1629 C1603 0.929 . S
H1630 C1604 0.930 . S
H1631 C1605 0.931 . S
H1632 C1612 0.932 . S
H1633 C1613 0.930 . S
H1634 C1614 0.929 . S
H1635 C1616 0.930 . S
H1636 C1618 0.932 . S
H1637 C1619 0.929 . S
H1638 C1620 0.928 . S
H1639 C1622 0.932 . S
C1640 C1641 1.264 . S
C1640 C1645 1.479 . S
C1640 C1650 1.465 . S
C1641 C1640 1.264 . S
C1641 C1643 1.339 . S
C1641 H1668 0.931 . S
C1642 C1643 1.395 . S
C1642 C1644 1.320 . S
C1643 C1641 1.339 . S
C1643 C1642 1.395 . S
C1643 H1669 0.929 . S
C1644 C1642 1.320 . S
C1644 C1645 1.405 . S
C1644 H1670 0.930 . S
C1645 C1640 1.479 . S
C1645 C1644 1.405 . S
C1645 H1671 0.931 . S
U1646 O1647 2.454 . S
U1646 O1648 2.458 . S
U1646 C1649 2.984 . S
U1646 C1650 2.847 . S
U1646 C1663 2.882 . S
U1646 O1664 2.441 . S
U1646 O1665 2.420 . S
U1646 O1666 2.455 . S
U1646 O1667 2.449 . S
O1647 U1646 2.454 . S
O1647 C1649 1.353 . S
O1648 U1646 2.458 . S
O1648 C1649 1.286 . S
C1649 U1646 2.984 . S
C1649 O1647 1.353 . S
C1649 O1648 1.286 . S
C1649 C1651 1.363 . S
C1650 C1640 1.465 . S
C1650 U1646 2.847 . S
C1650 O1664 1.249 . S
C1650 O1665 1.202 . S
C1651 C1649 1.363 . S
C1651 C1653 1.408 . S
C1651 C1656 1.342 . S
C1652 C1653 1.310 . S
C1652 C1655 1.461 . S
C1652 H1672 0.932 . S
C1653 C1651 1.408 . S
C1653 C1652 1.310 . S
C1653 H1673 0.930 . S
C1654 C1655 1.474 . S
C1654 C1656 1.285 . S
C1654 H1674 0.929 . S
C1655 C1652 1.461 . S
C1655 C1654 1.474 . S
C1656 C1651 1.342 . S
C1656 C1654 1.285 . S
C1656 H1675 0.930 . S
C1657 C1660 1.424 . S
C1657 C1662 1.245 . S
C1657 C1663 1.428 . S
C1658 C1661 1.260 . S
C1658 C1662 1.477 . S
C1658 H1676 0.932 . S
C1659 C1660 1.384 . S
C1659 C1661 1.479 . S
C1659 H1677 0.929 . S
C1660 C1657 1.424 . S
C1660 C1659 1.384 . S
C1660 H1678 0.928 . S
C1661 C1658 1.260 . S
C1661 C1659 1.479 . S
C1662 C1657 1.245 . S
C1662 C1658 1.477 . S
C1662 H1679 0.932 . S
C1663 U1646 2.882 . S
C1663 C1657 1.428 . S
C1663 O1666 1.301 . S
C1663 O1667 1.282 . S
O1664 U1646 2.441 . S
O1664 C1650 1.249 . S
O1665 U1646 2.420 . S
O1665 C1650 1.202 . S
O1666 U1646 2.455 . S
O1666 C1663 1.301 . S
O1667 U1646 2.449 . S
O1667 C1663 1.282 . S
H1668 C1641 0.931 . S
H1669 C1643 0.929 . S
H1670 C1644 0.930 . S
H1671 C1645 0.931 . S
H1672 C1652 0.932 . S
H1673 C1653 0.930 . S
H1674 C1654 0.929 . S
H1675 C1656 0.930 . S
H1676 C1658 0.932 . S
H1677 C1659 0.929 . S
H1678 C1660 0.928 . S
H1679 C1662 0.932 . S
C1680 C1681 1.264 . S
C1680 C1685 1.479 . S
C1680 C1690 1.465 . S
C1681 C1680 1.264 . S
C1681 C1683 1.339 . S
C1681 H1708 0.931 . S
C1682 C1683 1.395 . S
C1682 C1684 1.320 . S
C1683 C1681 1.339 . S
C1683 C1682 1.395 . S
C1683 H1709 0.929 . S
C1684 C1682 1.320 . S
C1684 C1685 1.405 . S
C1684 H1710 0.930 . S
C1685 C1680 1.479 . S
C1685 C1684 1.405 . S
C1685 H1711 0.931 . S
U1686 O1687 2.454 . S
U1686 O1688 2.458 . S
U1686 C1689 2.984 1_554 S
U1686 C1690 2.847 . S
U1686 C1703 2.882 . S
U1686 O1704 2.441 . S
U1686 O1705 2.420 . S
U1686 O1706 2.455 . S
U1686 O1707 2.449 . S
O1687 U1686 2.454 . S
O1687 C1689 1.353 1_554 S
O1688 U1686 2.458 . S
O1688 C1689 1.286 1_554 S
C1689 U1686 2.984 1_556 S
C1689 O1687 1.353 1_556 S
C1689 O1688 1.286 1_556 S
C1689 C1691 1.363 . S
C1690 C1680 1.465 . S
C1690 U1686 2.847 . S
C1690 O1704 1.249 . S
C1690 O1705 1.202 . S
C1691 C1689 1.363 . S
C1691 C1693 1.408 . S
C1691 C1696 1.342 . S
C1692 C1693 1.310 . S
C1692 C1695 1.461 . S
C1692 H1712 0.932 . S
C1693 C1691 1.408 . S
C1693 C1692 1.310 . S
C1693 H1713 0.930 . S
C1694 C1695 1.474 . S
C1694 C1696 1.285 . S
C1694 H1714 0.929 . S
C1695 C1692 1.461 . S
C1695 C1694 1.474 . S
C1696 C1691 1.342 . S
C1696 C1694 1.285 . S
C1696 H1715 0.930 . S
C1697 C1700 1.424 . S
C1697 C1702 1.245 . S
C1697 C1703 1.428 . S
C1698 C1701 1.260 . S
C1698 C1702 1.477 . S
C1698 H1716 0.932 . S
C1699 C1700 1.384 . S
C1699 C1701 1.479 . S
C1699 H1717 0.929 . S
C1700 C1697 1.424 . S
C1700 C1699 1.384 . S
C1700 H1718 0.928 . S
C1701 C1698 1.260 . S
C1701 C1699 1.479 . S
C1702 C1697 1.245 . S
C1702 C1698 1.477 . S
C1702 H1719 0.932 . S
C1703 U1686 2.882 . S
C1703 C1697 1.428 . S
C1703 O1706 1.301 . S
C1703 O1707 1.282 . S
O1704 U1686 2.441 . S
O1704 C1690 1.249 . S
O1705 U1686 2.420 . S
O1705 C1690 1.202 . S
O1706 U1686 2.455 . S
O1706 C1703 1.301 . S
O1707 U1686 2.449 . S
O1707 C1703 1.282 . S
H1708 C1681 0.931 . S
H1709 C1683 0.929 . S
H1710 C1684 0.930 . S
H1711 C1685 0.931 . S
H1712 C1692 0.932 . S
H1713 C1693 0.930 . S
H1714 C1694 0.929 . S
H1715 C1696 0.930 . S
H1716 C1698 0.932 . S
H1717 C1699 0.929 . S
H1718 C1700 0.928 . S
H1719 C1702 0.932 . S
C1720 C1721 1.264 . S
C1720 C1725 1.479 . S
C1720 C1730 1.465 . S
C1721 C1720 1.264 . S
C1721 C1723 1.339 . S
C1721 H1748 0.931 . S
C1722 C1723 1.395 . S
C1722 C1724 1.320 . S
C1723 C1721 1.339 . S
C1723 C1722 1.395 . S
C1723 H1749 0.929 . S
C1724 C1722 1.320 . S
C1724 C1725 1.405 . S
C1724 H1750 0.930 . S
C1725 C1720 1.479 . S
C1725 C1724 1.405 . S
C1725 H1751 0.931 . S
U1726 O1727 2.454 . S
U1726 O1728 2.458 . S
U1726 C1729 2.984 . S
U1726 C1730 2.847 . S
U1726 C1743 2.882 . S
U1726 O1744 2.441 . S
U1726 O1745 2.420 . S
U1726 O1746 2.455 . S
U1726 O1747 2.449 . S
O1727 U1726 2.454 . S
O1727 C1729 1.353 . S
O1728 U1726 2.458 . S
O1728 C1729 1.286 . S
C1729 U1726 2.984 . S
C1729 O1727 1.353 . S
C1729 O1728 1.286 . S
C1729 C1731 1.363 . S
C1730 C1720 1.465 . S
C1730 U1726 2.847 . S
C1730 O1744 1.249 . S
C1730 O1745 1.202 . S
C1731 C1729 1.363 . S
C1731 C1733 1.408 . S
C1731 C1736 1.342 . S
C1732 C1733 1.310 . S
C1732 C1735 1.461 . S
C1732 H1752 0.932 . S
C1733 C1731 1.408 . S
C1733 C1732 1.310 . S
C1733 H1753 0.930 . S
C1734 C1735 1.474 . S
C1734 C1736 1.285 . S
C1734 H1754 0.929 . S
C1735 C1732 1.461 . S
C1735 C1734 1.474 . S
C1736 C1731 1.342 . S
C1736 C1734 1.285 . S
C1736 H1755 0.930 . S
C1737 C1740 1.424 . S
C1737 C1742 1.245 . S
C1737 C1743 1.428 . S
C1738 C1741 1.260 . S
C1738 C1742 1.477 . S
C1738 H1756 0.932 . S
C1739 C1740 1.384 . S
C1739 C1741 1.479 . S
C1739 H1757 0.929 . S
C1740 C1737 1.424 . S
C1740 C1739 1.384 . S
C1740 H1758 0.928 . S
C1741 C1738 1.260 . S
C1741 C1739 1.479 . S
C1742 C1737 1.245 . S
C1742 C1738 1.477 . S
C1742 H1759 0.932 . S
C1743 U1726 2.882 . S
C1743 C1737 1.428 . S
C1743 O1746 1.301 . S
C1743 O1747 1.282 . S
O1744 U1726 2.441 . S
O1744 C1730 1.249 . S
O1745 U1726 2.420 . S
O1745 C1730 1.202 . S
O1746 U1726 2.455 . S
O1746 C1743 1.301 . S
O1747 U1726 2.449 . S
O1747 C1743 1.282 . S
H1748 C1721 0.931 . S
H1749 C1723 0.929 . S
H1750 C1724 0.930 . S
H1751 C1725 0.931 . S
H1752 C1732 0.932 . S
H1753 C1733 0.930 . S
H1754 C1734 0.929 . S
H1755 C1736 0.930 . S
H1756 C1738 0.932 . S
H1757 C1739 0.929 . S
H1758 C1740 0.928 . S
H1759 C1742 0.932 . S
C1760 C1761 1.264 . S
C1760 C1765 1.479 . S
C1760 C1770 1.465 . S
C1761 C1760 1.264 . S
C1761 C1763 1.339 . S
C1761 H1788 0.931 . S
C1762 C1763 1.395 . S
C1762 C1764 1.320 . S
C1763 C1761 1.339 . S
C1763 C1762 1.395 . S
C1763 H1789 0.929 . S
C1764 C1762 1.320 . S
C1764 C1765 1.405 . S
C1764 H1790 0.930 . S
C1765 C1760 1.479 . S
C1765 C1764 1.405 . S
C1765 H1791 0.931 . S
U1766 O1767 2.454 . S
U1766 O1768 2.458 . S
U1766 C1769 2.984 . S
U1766 C1770 2.847 . S
U1766 C1783 2.882 . S
U1766 O1784 2.441 . S
U1766 O1785 2.420 . S
U1766 O1786 2.455 . S
U1766 O1787 2.449 . S
O1767 U1766 2.454 . S
O1767 C1769 1.353 . S
O1768 U1766 2.458 . S
O1768 C1769 1.286 . S
C1769 U1766 2.984 . S
C1769 O1767 1.353 . S
C1769 O1768 1.286 . S
C1769 C1771 1.363 . S
C1770 C1760 1.465 . S
C1770 U1766 2.847 . S
C1770 O1784 1.249 . S
C1770 O1785 1.202 . S
C1771 C1769 1.363 . S
C1771 C1773 1.408 . S
C1771 C1776 1.342 . S
C1772 C1773 1.310 . S
C1772 C1775 1.461 . S
C1772 H1792 0.932 . S
C1773 C1771 1.408 . S
C1773 C1772 1.310 . S
C1773 H1793 0.930 . S
C1774 C1775 1.474 . S
C1774 C1776 1.285 . S
C1774 H1794 0.929 . S
C1775 C1772 1.461 . S
C1775 C1774 1.474 . S
C1776 C1771 1.342 . S
C1776 C1774 1.285 . S
C1776 H1795 0.930 . S
C1777 C1780 1.424 . S
C1777 C1782 1.245 . S
C1777 C1783 1.428 . S
C1778 C1781 1.260 . S
C1778 C1782 1.477 . S
C1778 H1796 0.932 . S
C1779 C1780 1.384 . S
C1779 C1781 1.479 . S
C1779 H1797 0.929 . S
C1780 C1777 1.424 . S
C1780 C1779 1.384 . S
C1780 H1798 0.928 . S
C1781 C1778 1.260 . S
C1781 C1779 1.479 . S
C1782 C1777 1.245 . S
C1782 C1778 1.477 . S
C1782 H1799 0.932 . S
C1783 U1766 2.882 . S
C1783 C1777 1.428 . S
C1783 O1786 1.301 . S
C1783 O1787 1.282 . S
O1784 U1766 2.441 . S
O1784 C1770 1.249 . S
O1785 U1766 2.420 . S
O1785 C1770 1.202 . S
O1786 U1766 2.455 . S
O1786 C1783 1.301 . S
O1787 U1766 2.449 . S
O1787 C1783 1.282 . S
H1788 C1761 0.931 . S
H1789 C1763 0.929 . S
H1790 C1764 0.930 . S
H1791 C1765 0.931 . S
H1792 C1772 0.932 . S
H1793 C1773 0.930 . S
H1794 C1774 0.929 . S
H1795 C1776 0.930 . S
H1796 C1778 0.932 . S
H1797 C1779 0.929 . S
H1798 C1780 0.928 . S
H1799 C1782 0.932 . S
C1800 C1801 1.264 . S
C1800 C1805 1.479 . S
C1800 C1810 1.465 . S
C1801 C1800 1.264 . S
C1801 C1803 1.339 . S
C1801 H1828 0.931 . S
C1802 C1803 1.395 . S
C1802 C1804 1.320 . S
C1803 C1801 1.339 . S
C1803 C1802 1.395 . S
C1803 H1829 0.929 . S
C1804 C1802 1.320 . S
C1804 C1805 1.405 . S
C1804 H1830 0.930 . S
C1805 C1800 1.479 . S
C1805 C1804 1.405 . S
C1805 H1831 0.931 . S
U1806 O1807 2.454 . S
U1806 O1808 2.458 . S
U1806 C1809 2.984 . S
U1806 C1810 2.847 . S
U1806 C1823 2.882 . S
U1806 O1824 2.441 . S
U1806 O1825 2.420 . S
U1806 O1826 2.455 . S
U1806 O1827 2.449 . S
O1807 U1806 2.454 . S
O1807 C1809 1.353 . S
O1808 U1806 2.458 . S
O1808 C1809 1.286 . S
C1809 U1806 2.984 . S
C1809 O1807 1.353 . S
C1809 O1808 1.286 . S
C1809 C1811 1.363 . S
C1810 C1800 1.465 . S
C1810 U1806 2.847 . S
C1810 O1824 1.249 . S
C1810 O1825 1.202 . S
C1811 C1809 1.363 . S
C1811 C1813 1.408 . S
C1811 C1816 1.342 . S
C1812 C1813 1.310 . S
C1812 C1815 1.461 . S
C1812 H1832 0.932 . S
C1813 C1811 1.408 . S
C1813 C1812 1.310 . S
C1813 H1833 0.930 . S
C1814 C1815 1.474 . S
C1814 C1816 1.285 . S
C1814 H1834 0.929 . S
C1815 C1812 1.461 . S
C1815 C1814 1.474 . S
C1816 C1811 1.342 . S
C1816 C1814 1.285 . S
C1816 H1835 0.930 . S
C1817 C1820 1.424 . S
C1817 C1822 1.245 . S
C1817 C1823 1.428 . S
C1818 C1821 1.260 . S
C1818 C1822 1.477 . S
C1818 H1836 0.932 . S
C1819 C1820 1.384 . S
C1819 C1821 1.479 . S
C1819 H1837 0.929 . S
C1820 C1817 1.424 . S
C1820 C1819 1.384 . S
C1820 H1838 0.928 . S
C1821 C1818 1.260 . S
C1821 C1819 1.479 . S
C1822 C1817 1.245 . S
C1822 C1818 1.477 . S
C1822 H1839 0.932 . S
C1823 U1806 2.882 . S
C1823 C1817 1.428 . S
C1823 O1826 1.301 . S
C1823 O1827 1.282 . S
O1824 U1806 2.441 . S
O1824 C1810 1.249 . S
O1825 U1806 2.420 . S
O1825 C1810 1.202 . S
O1826 U1806 2.455 . S
O1826 C1823 1.301 . S
O1827 U1806 2.449 . S
O1827 C1823 1.282 . S
H1828 C1801 0.931 . S
H1829 C1803 0.929 . S
H1830 C1804 0.930 . S
H1831 C1805 0.931 . S
H1832 C1812 0.932 . S
H1833 C1813 0.930 . S
H1834 C1814 0.929 . S
H1835 C1816 0.930 . S
H1836 C1818 0.932 . S
H1837 C1819 0.929 . S
H1838 C1820 0.928 . S
H1839 C1822 0.932 . S
C1840 C1841 1.264 . S
C1840 C1845 1.479 . S
C1840 C1850 1.465 . S
C1841 C1840 1.264 . S
C1841 C1843 1.339 . S
C1841 H1868 0.931 . S
C1842 C1843 1.395 . S
C1842 C1844 1.320 . S
C1843 C1841 1.339 . S
C1843 C1842 1.395 . S
C1843 H1869 0.929 . S
C1844 C1842 1.320 . S
C1844 C1845 1.405 . S
C1844 H1870 0.930 . S
C1845 C1840 1.479 . S
C1845 C1844 1.405 . S
C1845 H1871 0.931 . S
U1846 O1847 2.454 . S
U1846 O1848 2.458 . S
U1846 C1849 2.984 . S
U1846 C1850 2.847 . S
U1846 C1863 2.882 . S
U1846 O1864 2.441 . S
U1846 O1865 2.420 . S
U1846 O1866 2.455 . S
U1846 O1867 2.449 . S
O1847 U1846 2.454 . S
O1847 C1849 1.353 . S
O1848 U1846 2.458 . S
O1848 C1849 1.286 . S
C1849 U1846 2.984 . S
C1849 O1847 1.353 . S
C1849 O1848 1.286 . S
C1849 C1851 1.363 . S
C1850 C1840 1.465 . S
C1850 U1846 2.847 . S
C1850 O1864 1.249 . S
C1850 O1865 1.202 . S
C1851 C1849 1.363 . S
C1851 C1853 1.408 . S
C1851 C1856 1.342 . S
C1852 C1853 1.310 . S
C1852 C1855 1.461 . S
C1852 H1872 0.932 . S
C1853 C1851 1.408 . S
C1853 C1852 1.310 . S
C1853 H1873 0.930 . S
C1854 C1855 1.474 . S
C1854 C1856 1.285 . S
C1854 H1874 0.929 . S
C1855 C1852 1.461 . S
C1855 C1854 1.474 . S
C1856 C1851 1.342 . S
C1856 C1854 1.285 . S
C1856 H1875 0.930 . S
C1857 C1860 1.424 . S
C1857 C1862 1.245 . S
C1857 C1863 1.428 . S
C1858 C1861 1.260 . S
C1858 C1862 1.477 . S
C1858 H1876 0.932 . S
C1859 C1860 1.384 . S
C1859 C1861 1.479 . S
C1859 H1877 0.929 . S
C1860 C1857 1.424 . S
C1860 C1859 1.384 . S
C1860 H1878 0.928 . S
C1861 C1858 1.260 . S
C1861 C1859 1.479 . S
C1862 C1857 1.245 . S
C1862 C1858 1.477 . S
C1862 H1879 0.932 . S
C1863 U1846 2.882 . S
C1863 C1857 1.428 . S
C1863 O1866 1.301 . S
C1863 O1867 1.282 . S
O1864 U1846 2.441 . S
O1864 C1850 1.249 . S
O1865 U1846 2.420 . S
O1865 C1850 1.202 . S
O1866 U1846 2.455 . S
O1866 C1863 1.301 . S
O1867 U1846 2.449 . S
O1867 C1863 1.282 . S
H1868 C1841 0.931 . S
H1869 C1843 0.929 . S
H1870 C1844 0.930 . S
H1871 C1845 0.931 . S
H1872 C1852 0.932 . S
H1873 C1853 0.930 . S
H1874 C1854 0.929 . S
H1875 C1856 0.930 . S
H1876 C1858 0.932 . S
H1877 C1859 0.929 . S
H1878 C1860 0.928 . S
H1879 C1862 0.932 . S
C1880 C1881 1.264 . S
C1880 C1885 1.479 . S
C1880 C1890 1.465 . S
C1881 C1880 1.264 . S
C1881 C1883 1.339 . S
C1881 H1908 0.931 . S
C1882 C1883 1.395 . S
C1882 C1884 1.320 . S
C1883 C1881 1.339 . S
C1883 C1882 1.395 . S
C1883 H1909 0.929 . S
C1884 C1882 1.320 . S
C1884 C1885 1.405 . S
C1884 H1910 0.930 . S
C1885 C1880 1.479 . S
C1885 C1884 1.405 . S
C1885 H1911 0.931 . S
U1886 O1887 2.454 . S
U1886 O1888 2.458 . S
U1886 C1889 2.984 . S
U1886 C1890 2.847 . S
U1886 C1903 2.882 . S
U1886 O1904 2.441 . S
U1886 O1905 2.420 . S
U1886 O1906 2.455 . S
U1886 O1907 2.449 . S
O1887 U1886 2.454 . S
O1887 C1889 1.353 . S
O1888 U1886 2.458 . S
O1888 C1889 1.286 . S
C1889 U1886 2.984 . S
C1889 O1887 1.353 . S
C1889 O1888 1.286 . S
C1889 C1891 1.363 . S
C1890 C1880 1.465 . S
C1890 U1886 2.847 . S
C1890 O1904 1.249 . S
C1890 O1905 1.202 . S
C1891 C1889 1.363 . S
C1891 C1893 1.408 . S
C1891 C1896 1.342 . S
C1892 C1893 1.310 . S
C1892 C1895 1.461 . S
C1892 H1912 0.932 . S
C1893 C1891 1.408 . S
C1893 C1892 1.310 . S
C1893 H1913 0.930 . S
C1894 C1895 1.474 . S
C1894 C1896 1.285 . S
C1894 H1914 0.929 . S
C1895 C1892 1.461 . S
C1895 C1894 1.474 . S
C1896 C1891 1.342 . S
C1896 C1894 1.285 . S
C1896 H1915 0.930 . S
C1897 C1900 1.424 . S
C1897 C1902 1.245 . S
C1897 C1903 1.428 . S
C1898 C1901 1.260 . S
C1898 C1902 1.477 . S
C1898 H1916 0.932 . S
C1899 C1900 1.384 . S
C1899 C1901 1.479 . S
C1899 H1917 0.929 . S
C1900 C1897 1.424 . S
C1900 C1899 1.384 . S
C1900 H1918 0.928 . S
C1901 C1898 1.260 . S
C1901 C1899 1.479 . S
C1902 C1897 1.245 . S
C1902 C1898 1.477 . S
C1902 H1919 0.932 . S
C1903 U1886 2.882 . S
C1903 C1897 1.428 . S
C1903 O1906 1.301 . S
C1903 O1907 1.282 . S
O1904 U1886 2.441 . S
O1904 C1890 1.249 . S
O1905 U1886 2.420 . S
O1905 C1890 1.202 . S
O1906 U1886 2.455 . S
O1906 C1903 1.301 . S
O1907 U1886 2.449 . S
O1907 C1903 1.282 . S
H1908 C1881 0.931 . S
H1909 C1883 0.929 . S
H1910 C1884 0.930 . S
H1911 C1885 0.931 . S
H1912 C1892 0.932 . S
H1913 C1893 0.930 . S
H1914 C1894 0.929 . S
H1915 C1896 0.930 . S
H1916 C1898 0.932 . S
H1917 C1899 0.929 . S
H1918 C1900 0.928 . S
H1919 C1902 0.932 . S
P1920 O1931 1.490 . S
P1920 C1934 1.812 . S
P1920 C1940 1.803 . S
P1920 C1946 1.819 . S
H1921 C1935 0.941 . S
H1922 C1936 0.939 . S
H1923 C1938 0.940 . S
H1924 C1939 0.940 . S
H1925 C1941 0.939 . S
H1926 C1942 0.942 . S
H1927 C1944 0.940 . S
H1928 C1945 0.939 . S
H1929 C1947 0.941 . S
H1930 C1951 0.939 . S
O1931 P1920 1.490 . S
H1932 C1948 0.939 . S
H1933 C1950 0.940 . S
C1934 P1920 1.812 . S
C1934 C1935 1.389 . S
C1934 C1939 1.391 . S
C1935 H1921 0.941 . S
C1935 C1934 1.389 . S
C1935 C1936 1.397 . S
C1936 H1922 0.939 . S
C1936 C1935 1.397 . S
C1936 C1937 1.378 . S
C1937 C1936 1.378 . S
C1937 C1938 1.378 . S
C1938 H1923 0.940 . S
C1938 C1937 1.378 . S
C1938 C1939 1.396 . S
C1939 H1924 0.940 . S
C1939 C1934 1.391 . S
C1939 C1938 1.396 . S
C1940 P1920 1.803 . S
C1940 C1941 1.378 . S
C1940 C1945 1.400 . S
C1941 H1925 0.939 . S
C1941 C1940 1.378 . S
C1941 C1942 1.361 . S
C1942 H1926 0.942 . S
C1942 C1941 1.361 . S
C1942 C1943 1.369 . S
C1943 C1942 1.369 . S
C1943 C1944 1.404 . S
C1944 H1927 0.940 . S
C1944 C1943 1.404 . S
C1944 C1945 1.389 . S
C1945 H1928 0.939 . S
C1945 C1940 1.400 . S
C1945 C1944 1.389 . S
C1946 P1920 1.819 . S
C1946 C1947 1.391 . S
C1946 C1951 1.391 . S
C1947 H1929 0.941 . S
C1947 C1946 1.391 . S
C1947 C1948 1.396 . S
C1948 H1932 0.939 . S
C1948 C1947 1.396 . S
C1948 C1949 1.397 . S
C1949 C1948 1.397 . S
C1949 C1950 1.385 . S
C1950 H1933 0.940 . S
C1950 C1949 1.385 . S
C1950 C1951 1.388 . S
C1951 H1930 0.939 . S
C1951 C1946 1.391 . S
C1951 C1950 1.388 . S
P1952 O1963 1.490 . S
P1952 C1966 1.812 . S
P1952 C1972 1.803 . S
P1952 C1978 1.819 . S
H1953 C1967 0.941 . S
H1954 C1968 0.939 . S
H1955 C1970 0.940 . S
H1956 C1971 0.940 . S
H1957 C1973 0.939 . S
H1958 C1974 0.942 . S
H1959 C1976 0.940 . S
H1960 C1977 0.939 . S
H1961 C1979 0.941 . S
H1962 C1983 0.939 . S
O1963 P1952 1.490 . S
H1964 C1980 0.939 . S
H1965 C1982 0.940 . S
C1966 P1952 1.812 . S
C1966 C1967 1.389 . S
C1966 C1971 1.391 . S
C1967 H1953 0.941 . S
C1967 C1966 1.389 . S
C1967 C1968 1.397 . S
C1968 H1954 0.939 . S
C1968 C1967 1.397 . S
C1968 C1969 1.378 . S
C1969 C1968 1.378 . S
C1969 C1970 1.378 . S
C1970 H1955 0.940 . S
C1970 C1969 1.378 . S
C1970 C1971 1.396 . S
C1971 H1956 0.940 . S
C1971 C1966 1.391 . S
C1971 C1970 1.396 . S
C1972 P1952 1.803 . S
C1972 C1973 1.378 . S
C1972 C1977 1.400 . S
C1973 H1957 0.939 . S
C1973 C1972 1.378 . S
C1973 C1974 1.361 . S
C1974 H1958 0.942 . S
C1974 C1973 1.361 . S
C1974 C1975 1.369 . S
C1975 C1974 1.369 . S
C1975 C1976 1.404 . S
C1976 H1959 0.940 . S
C1976 C1975 1.404 . S
C1976 C1977 1.389 . S
C1977 H1960 0.939 . S
C1977 C1972 1.400 . S
C1977 C1976 1.389 . S
C1978 P1952 1.819 . S
C1978 C1979 1.391 . S
C1978 C1983 1.391 . S
C1979 H1961 0.941 . S
C1979 C1978 1.391 . S
C1979 C1980 1.396 . S
C1980 H1964 0.939 . S
C1980 C1979 1.396 . S
C1980 C1981 1.397 . S
C1981 C1980 1.397 . S
C1981 C1982 1.385 . S
C1982 H1965 0.940 . S
C1982 C1981 1.385 . S
C1982 C1983 1.388 . S
C1983 H1962 0.939 . S
C1983 C1978 1.391 . S
C1983 C1982 1.388 . S
P1984 O1995 1.490 . S
P1984 C1998 1.812 . S
P1984 C2004 1.803 . S
P1984 C2010 1.819 . S
H1985 C1999 0.941 . S
H1986 C2000 0.939 . S
H1987 C2002 0.940 . S
H1988 C2003 0.940 . S
H1989 C2005 0.939 . S
H1990 C2006 0.942 . S
H1991 C2008 0.940 . S
H1992 C2009 0.939 . S
H1993 C2011 0.941 . S
H1994 C2015 0.939 . S
O1995 P1984 1.490 . S
H1996 C2012 0.939 . S
H1997 C2014 0.940 . S
C1998 P1984 1.812 . S
C1998 C1999 1.389 . S
C1998 C2003 1.391 . S
C1999 H1985 0.941 . S
C1999 C1998 1.389 . S
C1999 C2000 1.397 . S
C2000 H1986 0.939 . S
C2000 C1999 1.397 . S
C2000 C2001 1.378 . S
C2001 C2000 1.378 . S
C2001 C2002 1.378 . S
C2002 H1987 0.940 . S
C2002 C2001 1.378 . S
C2002 C2003 1.396 . S
C2003 H1988 0.940 . S
C2003 C1998 1.391 . S
C2003 C2002 1.396 . S
C2004 P1984 1.803 . S
C2004 C2005 1.378 . S
C2004 C2009 1.400 . S
C2005 H1989 0.939 . S
C2005 C2004 1.378 . S
C2005 C2006 1.361 . S
C2006 H1990 0.942 . S
C2006 C2005 1.361 . S
C2006 C2007 1.369 . S
C2007 C2006 1.369 . S
C2007 C2008 1.404 . S
C2008 H1991 0.940 . S
C2008 C2007 1.404 . S
C2008 C2009 1.389 . S
C2009 H1992 0.939 . S
C2009 C2004 1.400 . S
C2009 C2008 1.389 . S
C2010 P1984 1.819 . S
C2010 C2011 1.391 . S
C2010 C2015 1.391 . S
C2011 H1993 0.941 . S
C2011 C2010 1.391 . S
C2011 C2012 1.396 . S
C2012 H1996 0.939 . S
C2012 C2011 1.396 . S
C2012 C2013 1.397 . S
C2013 C2012 1.397 . S
C2013 C2014 1.385 . S
C2014 H1997 0.940 . S
C2014 C2013 1.385 . S
C2014 C2015 1.388 . S
C2015 H1994 0.939 . S
C2015 C2010 1.391 . S
C2015 C2014 1.388 . S
P2016 O2027 1.490 . S
P2016 C2030 1.812 . S
P2016 C2036 1.803 . S
P2016 C2042 1.819 . S
H2017 C2031 0.941 . S
H2018 C2032 0.939 . S
H2019 C2034 0.940 . S
H2020 C2035 0.940 . S
H2021 C2037 0.939 . S
H2022 C2038 0.942 . S
H2023 C2040 0.940 . S
H2024 C2041 0.939 . S
H2025 C2043 0.941 . S
H2026 C2047 0.939 . S
O2027 P2016 1.490 . S
H2028 C2044 0.939 . S
H2029 C2046 0.940 . S
C2030 P2016 1.812 . S
C2030 C2031 1.389 . S
C2030 C2035 1.391 . S
C2031 H2017 0.941 . S
C2031 C2030 1.389 . S
C2031 C2032 1.397 . S
C2032 H2018 0.939 . S
C2032 C2031 1.397 . S
C2032 C2033 1.378 . S
C2033 C2032 1.378 . S
C2033 C2034 1.378 . S
C2034 H2019 0.940 . S
C2034 C2033 1.378 . S
C2034 C2035 1.396 . S
C2035 H2020 0.940 . S
C2035 C2030 1.391 . S
C2035 C2034 1.396 . S
C2036 P2016 1.803 . S
C2036 C2037 1.378 . S
C2036 C2041 1.400 . S
C2037 H2021 0.939 . S
C2037 C2036 1.378 . S
C2037 C2038 1.361 . S
C2038 H2022 0.942 . S
C2038 C2037 1.361 . S
C2038 C2039 1.369 . S
C2039 C2038 1.369 . S
C2039 C2040 1.404 . S
C2040 H2023 0.940 . S
C2040 C2039 1.404 . S
C2040 C2041 1.389 . S
C2041 H2024 0.939 . S
C2041 C2036 1.400 . S
C2041 C2040 1.389 . S
C2042 P2016 1.819 . S
C2042 C2043 1.391 . S
C2042 C2047 1.391 . S
C2043 H2025 0.941 . S
C2043 C2042 1.391 . S
C2043 C2044 1.396 . S
C2044 H2028 0.939 . S
C2044 C2043 1.396 . S
C2044 C2045 1.397 . S
C2045 C2044 1.397 . S
C2045 C2046 1.385 . S
C2046 H2029 0.940 . S
C2046 C2045 1.385 . S
C2046 C2047 1.388 . S
C2047 H2026 0.939 . S
C2047 C2042 1.391 . S
C2047 C2046 1.388 . S
P2048 O2059 1.490 . S
P2048 C2062 1.812 . S
P2048 C2068 1.803 . S
P2048 C2074 1.819 . S
H2049 C2063 0.941 . S
H2050 C2064 0.939 . S
H2051 C2066 0.940 . S
H2052 C2067 0.940 . S
H2053 C2069 0.939 . S
H2054 C2070 0.942 . S
H2055 C2072 0.940 . S
H2056 C2073 0.939 . S
H2057 C2075 0.941 . S
H2058 C2079 0.939 . S
O2059 P2048 1.490 . S
H2060 C2076 0.939 . S
H2061 C2078 0.940 . S
C2062 P2048 1.812 . S
C2062 C2063 1.389 . S
C2062 C2067 1.391 . S
C2063 H2049 0.941 . S
C2063 C2062 1.389 . S
C2063 C2064 1.397 . S
C2064 H2050 0.939 . S
C2064 C2063 1.397 . S
C2064 C2065 1.378 . S
C2065 C2064 1.378 . S
C2065 C2066 1.378 . S
C2066 H2051 0.940 . S
C2066 C2065 1.378 . S
C2066 C2067 1.396 . S
C2067 H2052 0.940 . S
C2067 C2062 1.391 . S
C2067 C2066 1.396 . S
C2068 P2048 1.803 . S
C2068 C2069 1.378 . S
C2068 C2073 1.400 . S
C2069 H2053 0.939 . S
C2069 C2068 1.378 . S
C2069 C2070 1.361 . S
C2070 H2054 0.942 . S
C2070 C2069 1.361 . S
C2070 C2071 1.369 . S
C2071 C2070 1.369 . S
C2071 C2072 1.404 . S
C2072 H2055 0.940 . S
C2072 C2071 1.404 . S
C2072 C2073 1.389 . S
C2073 H2056 0.939 . S
C2073 C2068 1.400 . S
C2073 C2072 1.389 . S
C2074 P2048 1.819 . S
C2074 C2075 1.391 . S
C2074 C2079 1.391 . S
C2075 H2057 0.941 . S
C2075 C2074 1.391 . S
C2075 C2076 1.396 . S
C2076 H2060 0.939 . S
C2076 C2075 1.396 . S
C2076 C2077 1.397 . S
C2077 C2076 1.397 . S
C2077 C2078 1.385 . S
C2078 H2061 0.940 . S
C2078 C2077 1.385 . S
C2078 C2079 1.388 . S
C2079 H2058 0.939 . S
C2079 C2074 1.391 . S
C2079 C2078 1.388 . S
P2080 O2091 1.490 . S
P2080 C2094 1.812 . S
P2080 C2100 1.803 . S
P2080 C2106 1.819 . S
H2081 C2095 0.941 . S
H2082 C2096 0.939 . S
H2083 C2098 0.940 . S
H2084 C2099 0.940 . S
H2085 C2101 0.939 . S
H2086 C2102 0.942 . S
H2087 C2104 0.940 . S
H2088 C2105 0.939 . S
H2089 C2107 0.941 . S
H2090 C2111 0.939 . S
O2091 P2080 1.490 . S
H2092 C2108 0.939 . S
H2093 C2110 0.940 . S
C2094 P2080 1.812 . S
C2094 C2095 1.389 . S
C2094 C2099 1.391 . S
C2095 H2081 0.941 . S
C2095 C2094 1.389 . S
C2095 C2096 1.397 . S
C2096 H2082 0.939 . S
C2096 C2095 1.397 . S
C2096 C2097 1.378 . S
C2097 C2096 1.378 . S
C2097 C2098 1.378 . S
C2098 H2083 0.940 . S
C2098 C2097 1.378 . S
C2098 C2099 1.396 . S
C2099 H2084 0.940 . S
C2099 C2094 1.391 . S
C2099 C2098 1.396 . S
C2100 P2080 1.803 . S
C2100 C2101 1.378 . S
C2100 C2105 1.400 . S
C2101 H2085 0.939 . S
C2101 C2100 1.378 . S
C2101 C2102 1.361 . S
C2102 H2086 0.942 . S
C2102 C2101 1.361 . S
C2102 C2103 1.369 . S
C2103 C2102 1.369 . S
C2103 C2104 1.404 . S
C2104 H2087 0.940 . S
C2104 C2103 1.404 . S
C2104 C2105 1.389 . S
C2105 H2088 0.939 . S
C2105 C2100 1.400 . S
C2105 C2104 1.389 . S
C2106 P2080 1.819 . S
C2106 C2107 1.391 . S
C2106 C2111 1.391 . S
C2107 H2089 0.941 . S
C2107 C2106 1.391 . S
C2107 C2108 1.396 . S
C2108 H2092 0.939 . S
C2108 C2107 1.396 . S
C2108 C2109 1.397 . S
C2109 C2108 1.397 . S
C2109 C2110 1.385 . S
C2110 H2093 0.940 . S
C2110 C2109 1.385 . S
C2110 C2111 1.388 . S
C2111 H2090 0.939 . S
C2111 C2106 1.391 . S
C2111 C2110 1.388 . S
P2112 O2123 1.490 . S
P2112 C2126 1.812 . S
P2112 C2132 1.803 . S
P2112 C2138 1.819 . S
H2113 C2127 0.941 . S
H2114 C2128 0.939 . S
H2115 C2130 0.940 . S
H2116 C2131 0.940 . S
H2117 C2133 0.939 . S
H2118 C2134 0.942 . S
H2119 C2136 0.940 . S
H2120 C2137 0.939 . S
H2121 C2139 0.941 . S
H2122 C2143 0.939 . S
O2123 P2112 1.490 . S
H2124 C2140 0.939 . S
H2125 C2142 0.940 . S
C2126 P2112 1.812 . S
C2126 C2127 1.389 . S
C2126 C2131 1.391 . S
C2127 H2113 0.941 . S
C2127 C2126 1.389 . S
C2127 C2128 1.397 . S
C2128 H2114 0.939 . S
C2128 C2127 1.397 . S
C2128 C2129 1.378 . S
C2129 C2128 1.378 . S
C2129 C2130 1.378 . S
C2130 H2115 0.940 . S
C2130 C2129 1.378 . S
C2130 C2131 1.396 . S
C2131 H2116 0.940 . S
C2131 C2126 1.391 . S
C2131 C2130 1.396 . S
C2132 P2112 1.803 . S
C2132 C2133 1.378 . S
C2132 C2137 1.400 . S
C2133 H2117 0.939 . S
C2133 C2132 1.378 . S
C2133 C2134 1.361 . S
C2134 H2118 0.942 . S
C2134 C2133 1.361 . S
C2134 C2135 1.369 . S
C2135 C2134 1.369 . S
C2135 C2136 1.404 . S
C2136 H2119 0.940 . S
C2136 C2135 1.404 . S
C2136 C2137 1.389 . S
C2137 H2120 0.939 . S
C2137 C2132 1.400 . S
C2137 C2136 1.389 . S
C2138 P2112 1.819 . S
C2138 C2139 1.391 . S
C2138 C2143 1.391 . S
C2139 H2121 0.941 . S
C2139 C2138 1.391 . S
C2139 C2140 1.396 . S
C2140 H2124 0.939 . S
C2140 C2139 1.396 . S
C2140 C2141 1.397 . S
C2141 C2140 1.397 . S
C2141 C2142 1.385 . S
C2142 H2125 0.940 . S
C2142 C2141 1.385 . S
C2142 C2143 1.388 . S
C2143 H2122 0.939 . S
C2143 C2138 1.391 . S
C2143 C2142 1.388 . S
P2144 O2155 1.490 . S
P2144 C2158 1.812 . S
P2144 C2164 1.803 . S
P2144 C2170 1.819 . S
H2145 C2159 0.941 . S
H2146 C2160 0.939 . S
H2147 C2162 0.940 . S
H2148 C2163 0.940 . S
H2149 C2165 0.939 . S
H2150 C2166 0.942 . S
H2151 C2168 0.940 . S
H2152 C2169 0.939 . S
H2153 C2171 0.941 . S
H2154 C2175 0.939 . S
O2155 P2144 1.490 . S
H2156 C2172 0.939 . S
H2157 C2174 0.940 . S
C2158 P2144 1.812 . S
C2158 C2159 1.389 . S
C2158 C2163 1.391 . S
C2159 H2145 0.941 . S
C2159 C2158 1.389 . S
C2159 C2160 1.397 . S
C2160 H2146 0.939 . S
C2160 C2159 1.397 . S
C2160 C2161 1.378 . S
C2161 C2160 1.378 . S
C2161 C2162 1.378 . S
C2162 H2147 0.940 . S
C2162 C2161 1.378 . S
C2162 C2163 1.396 . S
C2163 H2148 0.940 . S
C2163 C2158 1.391 . S
C2163 C2162 1.396 . S
C2164 P2144 1.803 . S
C2164 C2165 1.378 . S
C2164 C2169 1.400 . S
C2165 H2149 0.939 . S
C2165 C2164 1.378 . S
C2165 C2166 1.361 . S
C2166 H2150 0.942 . S
C2166 C2165 1.361 . S
C2166 C2167 1.369 . S
C2167 C2166 1.369 . S
C2167 C2168 1.404 . S
C2168 H2151 0.940 . S
C2168 C2167 1.404 . S
C2168 C2169 1.389 . S
C2169 H2152 0.939 . S
C2169 C2164 1.400 . S
C2169 C2168 1.389 . S
C2170 P2144 1.819 . S
C2170 C2171 1.391 . S
C2170 C2175 1.391 . S
C2171 H2153 0.941 . S
C2171 C2170 1.391 . S
C2171 C2172 1.396 . S
C2172 H2156 0.939 . S
C2172 C2171 1.396 . S
C2172 C2173 1.397 . S
C2173 C2172 1.397 . S
C2173 C2174 1.385 . S
C2174 H2157 0.940 . S
C2174 C2173 1.385 . S
C2174 C2175 1.388 . S
C2175 H2154 0.939 . S
C2175 C2170 1.391 . S
C2175 C2174 1.388 . S
P2176 O2187 1.490 . S
P2176 C2190 1.812 . S
P2176 C2196 1.803 . S
P2176 C2202 1.819 . S
H2177 C2191 0.941 . S
H2178 C2192 0.939 . S
H2179 C2194 0.940 . S
H2180 C2195 0.940 . S
H2181 C2197 0.939 . S
H2182 C2198 0.942 . S
H2183 C2200 0.940 . S
H2184 C2201 0.939 . S
H2185 C2203 0.941 . S
H2186 C2207 0.939 . S
O2187 P2176 1.490 . S
H2188 C2204 0.939 . S
H2189 C2206 0.940 . S
C2190 P2176 1.812 . S
C2190 C2191 1.389 . S
C2190 C2195 1.391 . S
C2191 H2177 0.941 . S
C2191 C2190 1.389 . S
C2191 C2192 1.397 . S
C2192 H2178 0.939 . S
C2192 C2191 1.397 . S
C2192 C2193 1.378 . S
C2193 C2192 1.378 . S
C2193 C2194 1.378 . S
C2194 H2179 0.940 . S
C2194 C2193 1.378 . S
C2194 C2195 1.396 . S
C2195 H2180 0.940 . S
C2195 C2190 1.391 . S
C2195 C2194 1.396 . S
C2196 P2176 1.803 . S
C2196 C2197 1.378 . S
C2196 C2201 1.400 . S
C2197 H2181 0.939 . S
C2197 C2196 1.378 . S
C2197 C2198 1.361 . S
C2198 H2182 0.942 . S
C2198 C2197 1.361 . S
C2198 C2199 1.369 . S
C2199 C2198 1.369 . S
C2199 C2200 1.404 . S
C2200 H2183 0.940 . S
C2200 C2199 1.404 . S
C2200 C2201 1.389 . S
C2201 H2184 0.939 . S
C2201 C2196 1.400 . S
C2201 C2200 1.389 . S
C2202 P2176 1.819 . S
C2202 C2203 1.391 . S
C2202 C2207 1.391 . S
C2203 H2185 0.941 . S
C2203 C2202 1.391 . S
C2203 C2204 1.396 . S
C2204 H2188 0.939 . S
C2204 C2203 1.396 . S
C2204 C2205 1.397 . S
C2205 C2204 1.397 . S
C2205 C2206 1.385 . S
C2206 H2189 0.940 . S
C2206 C2205 1.385 . S
C2206 C2207 1.388 . S
C2207 H2186 0.939 . S
C2207 C2202 1.391 . S
C2207 C2206 1.388 . S
P2208 O2219 1.490 . S
P2208 C2222 1.812 . S
P2208 C2228 1.803 . S
P2208 C2234 1.819 . S
H2209 C2223 0.941 . S
H2210 C2224 0.939 . S
H2211 C2226 0.940 . S
H2212 C2227 0.940 . S
H2213 C2229 0.939 . S
H2214 C2230 0.942 . S
H2215 C2232 0.940 . S
H2216 C2233 0.939 . S
H2217 C2235 0.941 . S
H2218 C2239 0.939 . S
O2219 P2208 1.490 . S
H2220 C2236 0.939 . S
H2221 C2238 0.940 . S
C2222 P2208 1.812 . S
C2222 C2223 1.389 . S
C2222 C2227 1.391 . S
C2223 H2209 0.941 . S
C2223 C2222 1.389 . S
C2223 C2224 1.397 . S
C2224 H2210 0.939 . S
C2224 C2223 1.397 . S
C2224 C2225 1.378 . S
C2225 C2224 1.378 . S
C2225 C2226 1.378 . S
C2226 H2211 0.940 . S
C2226 C2225 1.378 . S
C2226 C2227 1.396 . S
C2227 H2212 0.940 . S
C2227 C2222 1.391 . S
C2227 C2226 1.396 . S
C2228 P2208 1.803 . S
C2228 C2229 1.378 . S
C2228 C2233 1.400 . S
C2229 H2213 0.939 . S
C2229 C2228 1.378 . S
C2229 C2230 1.361 . S
C2230 H2214 0.942 . S
C2230 C2229 1.361 . S
C2230 C2231 1.369 . S
C2231 C2230 1.369 . S
C2231 C2232 1.404 . S
C2232 H2215 0.940 . S
C2232 C2231 1.404 . S
C2232 C2233 1.389 . S
C2233 H2216 0.939 . S
C2233 C2228 1.400 . S
C2233 C2232 1.389 . S
C2234 P2208 1.819 . S
C2234 C2235 1.391 . S
C2234 C2239 1.391 . S
C2235 H2217 0.941 . S
C2235 C2234 1.391 . S
C2235 C2236 1.396 . S
C2236 H2220 0.939 . S
C2236 C2235 1.396 . S
C2236 C2237 1.397 . S
C2237 C2236 1.397 . S
C2237 C2238 1.385 . S
C2238 H2221 0.940 . S
C2238 C2237 1.385 . S
C2238 C2239 1.388 . S
C2239 H2218 0.939 . S
C2239 C2234 1.391 . S
C2239 C2238 1.388 . S
P2240 O2251 1.490 . S
P2240 C2254 1.812 . S
P2240 C2260 1.803 . S
P2240 C2266 1.819 . S
H2241 C2255 0.941 . S
H2242 C2256 0.939 . S
H2243 C2258 0.940 . S
H2244 C2259 0.940 . S
H2245 C2261 0.939 . S
H2246 C2262 0.942 . S
H2247 C2264 0.940 . S
H2248 C2265 0.939 . S
H2249 C2267 0.941 . S
H2250 C2271 0.939 . S
O2251 P2240 1.490 . S
H2252 C2268 0.939 . S
H2253 C2270 0.940 . S
C2254 P2240 1.812 . S
C2254 C2255 1.389 . S
C2254 C2259 1.391 . S
C2255 H2241 0.941 . S
C2255 C2254 1.389 . S
C2255 C2256 1.397 . S
C2256 H2242 0.939 . S
C2256 C2255 1.397 . S
C2256 C2257 1.378 . S
C2257 C2256 1.378 . S
C2257 C2258 1.378 . S
C2258 H2243 0.940 . S
C2258 C2257 1.378 . S
C2258 C2259 1.396 . S
C2259 H2244 0.940 . S
C2259 C2254 1.391 . S
C2259 C2258 1.396 . S
C2260 P2240 1.803 . S
C2260 C2261 1.378 . S
C2260 C2265 1.400 . S
C2261 H2245 0.939 . S
C2261 C2260 1.378 . S
C2261 C2262 1.361 . S
C2262 H2246 0.942 . S
C2262 C2261 1.361 . S
C2262 C2263 1.369 . S
C2263 C2262 1.369 . S
C2263 C2264 1.404 . S
C2264 H2247 0.940 . S
C2264 C2263 1.404 . S
C2264 C2265 1.389 . S
C2265 H2248 0.939 . S
C2265 C2260 1.400 . S
C2265 C2264 1.389 . S
C2266 P2240 1.819 . S
C2266 C2267 1.391 . S
C2266 C2271 1.391 . S
C2267 H2249 0.941 . S
C2267 C2266 1.391 . S
C2267 C2268 1.396 . S
C2268 H2252 0.939 . S
C2268 C2267 1.396 . S
C2268 C2269 1.397 . S
C2269 C2268 1.397 . S
C2269 C2270 1.385 . S
C2270 H2253 0.940 . S
C2270 C2269 1.385 . S
C2270 C2271 1.388 . S
C2271 H2250 0.939 . S
C2271 C2266 1.391 . S
C2271 C2270 1.388 . S
P2272 O2283 1.490 . S
P2272 C2286 1.812 . S
P2272 C2292 1.803 . S
P2272 C2298 1.819 . S
H2273 C2287 0.941 . S
H2274 C2288 0.939 . S
H2275 C2290 0.940 . S
H2276 C2291 0.940 . S
H2277 C2293 0.939 . S
H2278 C2294 0.942 . S
H2279 C2296 0.940 . S
H2280 C2297 0.939 . S
H2281 C2299 0.941 . S
H2282 C2303 0.939 . S
O2283 P2272 1.490 . S
H2284 C2300 0.939 . S
H2285 C2302 0.940 . S
C2286 P2272 1.812 . S
C2286 C2287 1.389 . S
C2286 C2291 1.391 . S
C2287 H2273 0.941 . S
C2287 C2286 1.389 . S
C2287 C2288 1.397 . S
C2288 H2274 0.939 . S
C2288 C2287 1.397 . S
C2288 C2289 1.378 . S
C2289 C2288 1.378 . S
C2289 C2290 1.378 . S
C2290 H2275 0.940 . S
C2290 C2289 1.378 . S
C2290 C2291 1.396 . S
C2291 H2276 0.940 . S
C2291 C2286 1.391 . S
C2291 C2290 1.396 . S
C2292 P2272 1.803 . S
C2292 C2293 1.378 . S
C2292 C2297 1.400 . S
C2293 H2277 0.939 . S
C2293 C2292 1.378 . S
C2293 C2294 1.361 . S
C2294 H2278 0.942 . S
C2294 C2293 1.361 . S
C2294 C2295 1.369 . S
C2295 C2294 1.369 . S
C2295 C2296 1.404 . S
C2296 H2279 0.940 . S
C2296 C2295 1.404 . S
C2296 C2297 1.389 . S
C2297 H2280 0.939 . S
C2297 C2292 1.400 . S
C2297 C2296 1.389 . S
C2298 P2272 1.819 . S
C2298 C2299 1.391 . S
C2298 C2303 1.391 . S
C2299 H2281 0.941 . S
C2299 C2298 1.391 . S
C2299 C2300 1.396 . S
C2300 H2284 0.939 . S
C2300 C2299 1.396 . S
C2300 C2301 1.397 . S
C2301 C2300 1.397 . S
C2301 C2302 1.385 . S
C2302 H2285 0.940 . S
C2302 C2301 1.385 . S
C2302 C2303 1.388 . S
C2303 H2282 0.939 . S
C2303 C2298 1.391 . S
C2303 C2302 1.388 . S
P2304 O2315 1.490 . S
P2304 C2318 1.812 . S
P2304 C2324 1.803 . S
P2304 C2330 1.819 . S
H2305 C2319 0.941 . S
H2306 C2320 0.939 . S
H2307 C2322 0.940 . S
H2308 C2323 0.940 . S
H2309 C2325 0.939 . S
H2310 C2326 0.942 . S
H2311 C2328 0.940 . S
H2312 C2329 0.939 . S
H2313 C2331 0.941 . S
H2314 C2335 0.939 . S
O2315 P2304 1.490 . S
H2316 C2332 0.939 . S
H2317 C2334 0.940 . S
C2318 P2304 1.812 . S
C2318 C2319 1.389 . S
C2318 C2323 1.391 . S
C2319 H2305 0.941 . S
C2319 C2318 1.389 . S
C2319 C2320 1.397 . S
C2320 H2306 0.939 . S
C2320 C2319 1.397 . S
C2320 C2321 1.378 . S
C2321 C2320 1.378 . S
C2321 C2322 1.378 . S
C2322 H2307 0.940 . S
C2322 C2321 1.378 . S
C2322 C2323 1.396 . S
C2323 H2308 0.940 . S
C2323 C2318 1.391 . S
C2323 C2322 1.396 . S
C2324 P2304 1.803 . S
C2324 C2325 1.378 . S
C2324 C2329 1.400 . S
C2325 H2309 0.939 . S
C2325 C2324 1.378 . S
C2325 C2326 1.361 . S
C2326 H2310 0.942 . S
C2326 C2325 1.361 . S
C2326 C2327 1.369 . S
C2327 C2326 1.369 . S
C2327 C2328 1.404 . S
C2328 H2311 0.940 . S
C2328 C2327 1.404 . S
C2328 C2329 1.389 . S
C2329 H2312 0.939 . S
C2329 C2324 1.400 . S
C2329 C2328 1.389 . S
C2330 P2304 1.819 . S
C2330 C2331 1.391 . S
C2330 C2335 1.391 . S
C2331 H2313 0.941 . S
C2331 C2330 1.391 . S
C2331 C2332 1.396 . S
C2332 H2316 0.939 . S
C2332 C2331 1.396 . S
C2332 C2333 1.397 . S
C2333 C2332 1.397 . S
C2333 C2334 1.385 . S
C2334 H2317 0.940 . S
C2334 C2333 1.385 . S
C2334 C2335 1.388 . S
C2335 H2314 0.939 . S
C2335 C2330 1.391 . S
C2335 C2334 1.388 . S
P2336 O2347 1.490 . S
P2336 C2350 1.812 . S
P2336 C2356 1.803 . S
P2336 C2362 1.819 . S
H2337 C2351 0.941 . S
H2338 C2352 0.939 . S
H2339 C2354 0.940 . S
H2340 C2355 0.940 . S
H2341 C2357 0.939 . S
H2342 C2358 0.942 . S
H2343 C2360 0.940 . S
H2344 C2361 0.939 . S
H2345 C2363 0.941 . S
H2346 C2367 0.939 . S
O2347 P2336 1.490 . S
H2348 C2364 0.939 . S
H2349 C2366 0.940 . S
C2350 P2336 1.812 . S
C2350 C2351 1.389 . S
C2350 C2355 1.391 . S
C2351 H2337 0.941 . S
C2351 C2350 1.389 . S
C2351 C2352 1.397 . S
C2352 H2338 0.939 . S
C2352 C2351 1.397 . S
C2352 C2353 1.378 . S
C2353 C2352 1.378 . S
C2353 C2354 1.378 . S
C2354 H2339 0.940 . S
C2354 C2353 1.378 . S
C2354 C2355 1.396 . S
C2355 H2340 0.940 . S
C2355 C2350 1.391 . S
C2355 C2354 1.396 . S
C2356 P2336 1.803 . S
C2356 C2357 1.378 . S
C2356 C2361 1.400 . S
C2357 H2341 0.939 . S
C2357 C2356 1.378 . S
C2357 C2358 1.361 . S
C2358 H2342 0.942 . S
C2358 C2357 1.361 . S
C2358 C2359 1.369 . S
C2359 C2358 1.369 . S
C2359 C2360 1.404 . S
C2360 H2343 0.940 . S
C2360 C2359 1.404 . S
C2360 C2361 1.389 . S
C2361 H2344 0.939 . S
C2361 C2356 1.400 . S
C2361 C2360 1.389 . S
C2362 P2336 1.819 . S
C2362 C2363 1.391 . S
C2362 C2367 1.391 . S
C2363 H2345 0.941 . S
C2363 C2362 1.391 . S
C2363 C2364 1.396 . S
C2364 H2348 0.939 . S
C2364 C2363 1.396 . S
C2364 C2365 1.397 . S
C2365 C2364 1.397 . S
C2365 C2366 1.385 . S
C2366 H2349 0.940 . S
C2366 C2365 1.385 . S
C2366 C2367 1.388 . S
C2367 H2346 0.939 . S
C2367 C2362 1.391 . S
C2367 C2366 1.388 . S
P2368 O2379 1.490 . S
P2368 C2382 1.812 . S
P2368 C2388 1.803 . S
P2368 C2394 1.819 . S
H2369 C2383 0.941 . S
H2370 C2384 0.939 . S
H2371 C2386 0.940 . S
H2372 C2387 0.940 . S
H2373 C2389 0.939 . S
H2374 C2390 0.942 . S
H2375 C2392 0.940 . S
H2376 C2393 0.939 . S
H2377 C2395 0.941 . S
H2378 C2399 0.939 . S
O2379 P2368 1.490 . S
H2380 C2396 0.939 . S
H2381 C2398 0.940 . S
C2382 P2368 1.812 . S
C2382 C2383 1.389 . S
C2382 C2387 1.391 . S
C2383 H2369 0.941 . S
C2383 C2382 1.389 . S
C2383 C2384 1.397 . S
C2384 H2370 0.939 . S
C2384 C2383 1.397 . S
C2384 C2385 1.378 . S
C2385 C2384 1.378 . S
C2385 C2386 1.378 . S
C2386 H2371 0.940 . S
C2386 C2385 1.378 . S
C2386 C2387 1.396 . S
C2387 H2372 0.940 . S
C2387 C2382 1.391 . S
C2387 C2386 1.396 . S
C2388 P2368 1.803 . S
C2388 C2389 1.378 . S
C2388 C2393 1.400 . S
C2389 H2373 0.939 . S
C2389 C2388 1.378 . S
C2389 C2390 1.361 . S
C2390 H2374 0.942 . S
C2390 C2389 1.361 . S
C2390 C2391 1.369 . S
C2391 C2390 1.369 . S
C2391 C2392 1.404 . S
C2392 H2375 0.940 . S
C2392 C2391 1.404 . S
C2392 C2393 1.389 . S
C2393 H2376 0.939 . S
C2393 C2388 1.400 . S
C2393 C2392 1.389 . S
C2394 P2368 1.819 . S
C2394 C2395 1.391 . S
C2394 C2399 1.391 . S
C2395 H2377 0.941 . S
C2395 C2394 1.391 . S
C2395 C2396 1.396 . S
C2396 H2380 0.939 . S
C2396 C2395 1.396 . S
C2396 C2397 1.397 . S
C2397 C2396 1.397 . S
C2397 C2398 1.385 . S
C2398 H2381 0.940 . S
C2398 C2397 1.385 . S
C2398 C2399 1.388 . S
C2399 H2378 0.939 . S
C2399 C2394 1.391 . S
C2399 C2398 1.388 . S
P2400 O2411 1.490 . S
P2400 C2414 1.812 . S
P2400 C2420 1.803 . S
P2400 C2426 1.819 . S
H2401 C2415 0.941 . S
H2402 C2416 0.939 . S
H2403 C2418 0.940 . S
H2404 C2419 0.940 . S
H2405 C2421 0.939 . S
H2406 C2422 0.942 . S
H2407 C2424 0.940 . S
H2408 C2425 0.939 . S
H2409 C2427 0.941 . S
H2410 C2431 0.939 . S
O2411 P2400 1.490 . S
H2412 C2428 0.939 . S
H2413 C2430 0.940 . S
C2414 P2400 1.812 . S
C2414 C2415 1.389 . S
C2414 C2419 1.391 . S
C2415 H2401 0.941 . S
C2415 C2414 1.389 . S
C2415 C2416 1.397 . S
C2416 H2402 0.939 . S
C2416 C2415 1.397 . S
C2416 C2417 1.378 . S
C2417 C2416 1.378 . S
C2417 C2418 1.378 . S
C2418 H2403 0.940 . S
C2418 C2417 1.378 . S
C2418 C2419 1.396 . S
C2419 H2404 0.940 . S
C2419 C2414 1.391 . S
C2419 C2418 1.396 . S
C2420 P2400 1.803 . S
C2420 C2421 1.378 . S
C2420 C2425 1.400 . S
C2421 H2405 0.939 . S
C2421 C2420 1.378 . S
C2421 C2422 1.361 . S
C2422 H2406 0.942 . S
C2422 C2421 1.361 . S
C2422 C2423 1.369 . S
C2423 C2422 1.369 . S
C2423 C2424 1.404 . S
C2424 H2407 0.940 . S
C2424 C2423 1.404 . S
C2424 C2425 1.389 . S
C2425 H2408 0.939 . S
C2425 C2420 1.400 . S
C2425 C2424 1.389 . S
C2426 P2400 1.819 . S
C2426 C2427 1.391 . S
C2426 C2431 1.391 . S
C2427 H2409 0.941 . S
C2427 C2426 1.391 . S
C2427 C2428 1.396 . S
C2428 H2412 0.939 . S
C2428 C2427 1.396 . S
C2428 C2429 1.397 . S
C2429 C2428 1.397 . S
C2429 C2430 1.385 . S
C2430 H2413 0.940 . S
C2430 C2429 1.385 . S
C2430 C2431 1.388 . S
C2431 H2410 0.939 . S
C2431 C2426 1.391 . S
C2431 C2430 1.388 . S
P2432 O2443 1.490 . S
P2432 C2446 1.812 . S
P2432 C2452 1.803 . S
P2432 C2458 1.819 . S
H2433 C2447 0.941 . S
H2434 C2448 0.939 . S
H2435 C2450 0.940 . S
H2436 C2451 0.940 . S
H2437 C2453 0.939 . S
H2438 C2454 0.942 . S
H2439 C2456 0.940 . S
H2440 C2457 0.939 . S
H2441 C2459 0.941 . S
H2442 C2463 0.939 . S
O2443 P2432 1.490 . S
H2444 C2460 0.939 . S
H2445 C2462 0.940 . S
C2446 P2432 1.812 . S
C2446 C2447 1.389 . S
C2446 C2451 1.391 . S
C2447 H2433 0.941 . S
C2447 C2446 1.389 . S
C2447 C2448 1.397 . S
C2448 H2434 0.939 . S
C2448 C2447 1.397 . S
C2448 C2449 1.378 . S
C2449 C2448 1.378 . S
C2449 C2450 1.378 . S
C2450 H2435 0.940 . S
C2450 C2449 1.378 . S
C2450 C2451 1.396 . S
C2451 H2436 0.940 . S
C2451 C2446 1.391 . S
C2451 C2450 1.396 . S
C2452 P2432 1.803 . S
C2452 C2453 1.378 . S
C2452 C2457 1.400 . S
C2453 H2437 0.939 . S
C2453 C2452 1.378 . S
C2453 C2454 1.361 . S
C2454 H2438 0.942 . S
C2454 C2453 1.361 . S
C2454 C2455 1.369 . S
C2455 C2454 1.369 . S
C2455 C2456 1.404 . S
C2456 H2439 0.940 . S
C2456 C2455 1.404 . S
C2456 C2457 1.389 . S
C2457 H2440 0.939 . S
C2457 C2452 1.400 . S
C2457 C2456 1.389 . S
C2458 P2432 1.819 . S
C2458 C2459 1.391 . S
C2458 C2463 1.391 . S
C2459 H2441 0.941 . S
C2459 C2458 1.391 . S
C2459 C2460 1.396 . S
C2460 H2444 0.939 . S
C2460 C2459 1.396 . S
C2460 C2461 1.397 . S
C2461 C2460 1.397 . S
C2461 C2462 1.385 . S
C2462 H2445 0.940 . S
C2462 C2461 1.385 . S
C2462 C2463 1.388 . S
C2463 H2442 0.939 . S
C2463 C2458 1.391 . S
C2463 C2462 1.388 . S
P2464 O2475 1.490 . S
P2464 C2478 1.812 . S
P2464 C2484 1.803 . S
P2464 C2490 1.819 . S
H2465 C2479 0.941 . S
H2466 C2480 0.939 . S
H2467 C2482 0.940 . S
H2468 C2483 0.940 . S
H2469 C2485 0.939 . S
H2470 C2486 0.942 . S
H2471 C2488 0.940 . S
H2472 C2489 0.939 . S
H2473 C2491 0.941 . S
H2474 C2495 0.939 . S
O2475 P2464 1.490 . S
H2476 C2492 0.939 . S
H2477 C2494 0.940 . S
C2478 P2464 1.812 . S
C2478 C2479 1.389 . S
C2478 C2483 1.391 . S
C2479 H2465 0.941 . S
C2479 C2478 1.389 . S
C2479 C2480 1.397 . S
C2480 H2466 0.939 . S
C2480 C2479 1.397 . S
C2480 C2481 1.378 . S
C2481 C2480 1.378 . S
C2481 C2482 1.378 . S
C2482 H2467 0.940 . S
C2482 C2481 1.378 . S
C2482 C2483 1.396 . S
C2483 H2468 0.940 . S
C2483 C2478 1.391 . S
C2483 C2482 1.396 . S
C2484 P2464 1.803 . S
C2484 C2485 1.378 . S
C2484 C2489 1.400 . S
C2485 H2469 0.939 . S
C2485 C2484 1.378 . S
C2485 C2486 1.361 . S
C2486 H2470 0.942 . S
C2486 C2485 1.361 . S
C2486 C2487 1.369 . S
C2487 C2486 1.369 . S
C2487 C2488 1.404 . S
C2488 H2471 0.940 . S
C2488 C2487 1.404 . S
C2488 C2489 1.389 . S
C2489 H2472 0.939 . S
C2489 C2484 1.400 . S
C2489 C2488 1.389 . S
C2490 P2464 1.819 . S
C2490 C2491 1.391 . S
C2490 C2495 1.391 . S
C2491 H2473 0.941 . S
C2491 C2490 1.391 . S
C2491 C2492 1.396 . S
C2492 H2476 0.939 . S
C2492 C2491 1.396 . S
C2492 C2493 1.397 . S
C2493 C2492 1.397 . S
C2493 C2494 1.385 . S
C2494 H2477 0.940 . S
C2494 C2493 1.385 . S
C2494 C2495 1.388 . S
C2495 H2474 0.939 . S
C2495 C2490 1.391 . S
C2495 C2494 1.388 . S
P2496 O2507 1.490 . S
P2496 C2510 1.812 . S
P2496 C2516 1.803 . S
P2496 C2522 1.819 . S
H2497 C2511 0.941 . S
H2498 C2512 0.939 . S
H2499 C2514 0.940 . S
H2500 C2515 0.940 . S
H2501 C2517 0.939 . S
H2502 C2518 0.942 . S
H2503 C2520 0.940 . S
H2504 C2521 0.939 . S
H2505 C2523 0.941 . S
H2506 C2527 0.939 . S
O2507 P2496 1.490 . S
H2508 C2524 0.939 . S
H2509 C2526 0.940 . S
C2510 P2496 1.812 . S
C2510 C2511 1.389 . S
C2510 C2515 1.391 . S
C2511 H2497 0.941 . S
C2511 C2510 1.389 . S
C2511 C2512 1.397 . S
C2512 H2498 0.939 . S
C2512 C2511 1.397 . S
C2512 C2513 1.378 . S
C2513 C2512 1.378 . S
C2513 C2514 1.378 . S
C2514 H2499 0.940 . S
C2514 C2513 1.378 . S
C2514 C2515 1.396 . S
C2515 H2500 0.940 . S
C2515 C2510 1.391 . S
C2515 C2514 1.396 . S
C2516 P2496 1.803 . S
C2516 C2517 1.378 . S
C2516 C2521 1.400 . S
C2517 H2501 0.939 . S
C2517 C2516 1.378 . S
C2517 C2518 1.361 . S
C2518 H2502 0.942 . S
C2518 C2517 1.361 . S
C2518 C2519 1.369 . S
C2519 C2518 1.369 . S
C2519 C2520 1.404 . S
C2520 H2503 0.940 . S
C2520 C2519 1.404 . S
C2520 C2521 1.389 . S
C2521 H2504 0.939 . S
C2521 C2516 1.400 . S
C2521 C2520 1.389 . S
C2522 P2496 1.819 . S
C2522 C2523 1.391 . S
C2522 C2527 1.391 . S
C2523 H2505 0.941 . S
C2523 C2522 1.391 . S
C2523 C2524 1.396 . S
C2524 H2508 0.939 . S
C2524 C2523 1.396 . S
C2524 C2525 1.397 . S
C2525 C2524 1.397 . S
C2525 C2526 1.385 . S
C2526 H2509 0.940 . S
C2526 C2525 1.385 . S
C2526 C2527 1.388 . S
C2527 H2506 0.939 . S
C2527 C2522 1.391 . S
C2527 C2526 1.388 . S
P2528 O2539 1.490 . S
P2528 C2542 1.812 . S
P2528 C2548 1.803 . S
P2528 C2554 1.819 . S
H2529 C2543 0.941 . S
H2530 C2544 0.939 . S
H2531 C2546 0.940 . S
H2532 C2547 0.940 . S
H2533 C2549 0.939 . S
H2534 C2550 0.942 . S
H2535 C2552 0.940 . S
H2536 C2553 0.939 . S
H2537 C2555 0.941 . S
H2538 C2559 0.939 . S
O2539 P2528 1.490 . S
H2540 C2556 0.939 . S
H2541 C2558 0.940 . S
C2542 P2528 1.812 . S
C2542 C2543 1.389 . S
C2542 C2547 1.391 . S
C2543 H2529 0.941 . S
C2543 C2542 1.389 . S
C2543 C2544 1.397 . S
C2544 H2530 0.939 . S
C2544 C2543 1.397 . S
C2544 C2545 1.378 . S
C2545 C2544 1.378 . S
C2545 C2546 1.378 . S
C2546 H2531 0.940 . S
C2546 C2545 1.378 . S
C2546 C2547 1.396 . S
C2547 H2532 0.940 . S
C2547 C2542 1.391 . S
C2547 C2546 1.396 . S
C2548 P2528 1.803 . S
C2548 C2549 1.378 . S
C2548 C2553 1.400 . S
C2549 H2533 0.939 . S
C2549 C2548 1.378 . S
C2549 C2550 1.361 . S
C2550 H2534 0.942 . S
C2550 C2549 1.361 . S
C2550 C2551 1.369 . S
C2551 C2550 1.369 . S
C2551 C2552 1.404 . S
C2552 H2535 0.940 . S
C2552 C2551 1.404 . S
C2552 C2553 1.389 . S
C2553 H2536 0.939 . S
C2553 C2548 1.400 . S
C2553 C2552 1.389 . S
C2554 P2528 1.819 . S
C2554 C2555 1.391 . S
C2554 C2559 1.391 . S
C2555 H2537 0.941 . S
C2555 C2554 1.391 . S
C2555 C2556 1.396 . S
C2556 H2540 0.939 . S
C2556 C2555 1.396 . S
C2556 C2557 1.397 . S
C2557 C2556 1.397 . S
C2557 C2558 1.385 . S
C2558 H2541 0.940 . S
C2558 C2557 1.385 . S
C2558 C2559 1.388 . S
C2559 H2538 0.939 . S
C2559 C2554 1.391 . S
C2559 C2558 1.388 . S
P2560 O2571 1.490 . S
P2560 C2574 1.812 . S
P2560 C2580 1.803 . S
P2560 C2586 1.819 . S
H2561 C2575 0.941 . S
H2562 C2576 0.939 . S
H2563 C2578 0.940 . S
H2564 C2579 0.940 . S
H2565 C2581 0.939 . S
H2566 C2582 0.942 . S
H2567 C2584 0.940 . S
H2568 C2585 0.939 . S
H2569 C2587 0.941 . S
H2570 C2591 0.939 . S
O2571 P2560 1.490 . S
H2572 C2588 0.939 . S
H2573 C2590 0.940 . S
C2574 P2560 1.812 . S
C2574 C2575 1.389 . S
C2574 C2579 1.391 . S
C2575 H2561 0.941 . S
C2575 C2574 1.389 . S
C2575 C2576 1.397 . S
C2576 H2562 0.939 . S
C2576 C2575 1.397 . S
C2576 C2577 1.378 . S
C2577 C2576 1.378 . S
C2577 C2578 1.378 . S
C2578 H2563 0.940 . S
C2578 C2577 1.378 . S
C2578 C2579 1.396 . S
C2579 H2564 0.940 . S
C2579 C2574 1.391 . S
C2579 C2578 1.396 . S
C2580 P2560 1.803 . S
C2580 C2581 1.378 . S
C2580 C2585 1.400 . S
C2581 H2565 0.939 . S
C2581 C2580 1.378 . S
C2581 C2582 1.361 . S
C2582 H2566 0.942 . S
C2582 C2581 1.361 . S
C2582 C2583 1.369 . S
C2583 C2582 1.369 . S
C2583 C2584 1.404 . S
C2584 H2567 0.940 . S
C2584 C2583 1.404 . S
C2584 C2585 1.389 . S
C2585 H2568 0.939 . S
C2585 C2580 1.400 . S
C2585 C2584 1.389 . S
C2586 P2560 1.819 . S
C2586 C2587 1.391 . S
C2586 C2591 1.391 . S
C2587 H2569 0.941 . S
C2587 C2586 1.391 . S
C2587 C2588 1.396 . S
C2588 H2572 0.939 . S
C2588 C2587 1.396 . S
C2588 C2589 1.397 . S
C2589 C2588 1.397 . S
C2589 C2590 1.385 . S
C2590 H2573 0.940 . S
C2590 C2589 1.385 . S
C2590 C2591 1.388 . S
C2591 H2570 0.939 . S
C2591 C2586 1.391 . S
C2591 C2590 1.388 . S
P2592 O2603 1.490 . S
P2592 C2606 1.812 . S
P2592 C2612 1.803 . S
P2592 C2618 1.819 . S
H2593 C2607 0.941 . S
H2594 C2608 0.939 . S
H2595 C2610 0.940 . S
H2596 C2611 0.940 . S
H2597 C2613 0.939 . S
H2598 C2614 0.942 . S
H2599 C2616 0.940 . S
H2600 C2617 0.939 . S
H2601 C2619 0.941 . S
H2602 C2623 0.939 . S
O2603 P2592 1.490 . S
H2604 C2620 0.939 . S
H2605 C2622 0.940 . S
C2606 P2592 1.812 . S
C2606 C2607 1.389 . S
C2606 C2611 1.391 . S
C2607 H2593 0.941 . S
C2607 C2606 1.389 . S
C2607 C2608 1.397 . S
C2608 H2594 0.939 . S
C2608 C2607 1.397 . S
C2608 C2609 1.378 . S
C2609 C2608 1.378 . S
C2609 C2610 1.378 . S
C2610 H2595 0.940 . S
C2610 C2609 1.378 . S
C2610 C2611 1.396 . S
C2611 H2596 0.940 . S
C2611 C2606 1.391 . S
C2611 C2610 1.396 . S
C2612 P2592 1.803 . S
C2612 C2613 1.378 . S
C2612 C2617 1.400 . S
C2613 H2597 0.939 . S
C2613 C2612 1.378 . S
C2613 C2614 1.361 . S
C2614 H2598 0.942 . S
C2614 C2613 1.361 . S
C2614 C2615 1.369 . S
C2615 C2614 1.369 . S
C2615 C2616 1.404 . S
C2616 H2599 0.940 . S
C2616 C2615 1.404 . S
C2616 C2617 1.389 . S
C2617 H2600 0.939 . S
C2617 C2612 1.400 . S
C2617 C2616 1.389 . S
C2618 P2592 1.819 . S
C2618 C2619 1.391 . S
C2618 C2623 1.391 . S
C2619 H2601 0.941 . S
C2619 C2618 1.391 . S
C2619 C2620 1.396 . S
C2620 H2604 0.939 . S
C2620 C2619 1.396 . S
C2620 C2621 1.397 . S
C2621 C2620 1.397 . S
C2621 C2622 1.385 . S
C2622 H2605 0.940 . S
C2622 C2621 1.385 . S
C2622 C2623 1.388 . S
C2623 H2602 0.939 . S
C2623 C2618 1.391 . S
C2623 C2622 1.388 . S
P2624 O2635 1.490 . S
P2624 C2638 1.812 . S
P2624 C2644 1.803 . S
P2624 C2650 1.819 . S
H2625 C2639 0.941 . S
H2626 C2640 0.939 . S
H2627 C2642 0.940 . S
H2628 C2643 0.940 . S
H2629 C2645 0.939 . S
H2630 C2646 0.942 . S
H2631 C2648 0.940 . S
H2632 C2649 0.939 . S
H2633 C2651 0.941 . S
H2634 C2655 0.939 . S
O2635 P2624 1.490 . S
H2636 C2652 0.939 . S
H2637 C2654 0.940 . S
C2638 P2624 1.812 . S
C2638 C2639 1.389 . S
C2638 C2643 1.391 . S
C2639 H2625 0.941 . S
C2639 C2638 1.389 . S
C2639 C2640 1.397 . S
C2640 H2626 0.939 . S
C2640 C2639 1.397 . S
C2640 C2641 1.378 . S
C2641 C2640 1.378 . S
C2641 C2642 1.378 . S
C2642 H2627 0.940 . S
C2642 C2641 1.378 . S
C2642 C2643 1.396 . S
C2643 H2628 0.940 . S
C2643 C2638 1.391 . S
C2643 C2642 1.396 . S
C2644 P2624 1.803 . S
C2644 C2645 1.378 . S
C2644 C2649 1.400 . S
C2645 H2629 0.939 . S
C2645 C2644 1.378 . S
C2645 C2646 1.361 . S
C2646 H2630 0.942 . S
C2646 C2645 1.361 . S
C2646 C2647 1.369 . S
C2647 C2646 1.369 . S
C2647 C2648 1.404 . S
C2648 H2631 0.940 . S
C2648 C2647 1.404 . S
C2648 C2649 1.389 . S
C2649 H2632 0.939 . S
C2649 C2644 1.400 . S
C2649 C2648 1.389 . S
C2650 P2624 1.819 . S
C2650 C2651 1.391 . S
C2650 C2655 1.391 . S
C2651 H2633 0.941 . S
C2651 C2650 1.391 . S
C2651 C2652 1.396 . S
C2652 H2636 0.939 . S
C2652 C2651 1.396 . S
C2652 C2653 1.397 . S
C2653 C2652 1.397 . S
C2653 C2654 1.385 . S
C2654 H2637 0.940 . S
C2654 C2653 1.385 . S
C2654 C2655 1.388 . S
C2655 H2634 0.939 . S
C2655 C2650 1.391 . S
C2655 C2654 1.388 . S
P2656 O2667 1.490 . S
P2656 C2670 1.812 . S
P2656 C2676 1.803 . S
P2656 C2682 1.819 . S
H2657 C2671 0.941 . S
H2658 C2672 0.939 . S
H2659 C2674 0.940 . S
H2660 C2675 0.940 . S
H2661 C2677 0.939 . S
H2662 C2678 0.942 . S
H2663 C2680 0.940 . S
H2664 C2681 0.939 . S
H2665 C2683 0.941 . S
H2666 C2687 0.939 . S
O2667 P2656 1.490 . S
H2668 C2684 0.939 . S
H2669 C2686 0.940 . S
C2670 P2656 1.812 . S
C2670 C2671 1.389 . S
C2670 C2675 1.391 . S
C2671 H2657 0.941 . S
C2671 C2670 1.389 . S
C2671 C2672 1.397 . S
C2672 H2658 0.939 . S
C2672 C2671 1.397 . S
C2672 C2673 1.378 . S
C2673 C2672 1.378 . S
C2673 C2674 1.378 . S
C2674 H2659 0.940 . S
C2674 C2673 1.378 . S
C2674 C2675 1.396 . S
C2675 H2660 0.940 . S
C2675 C2670 1.391 . S
C2675 C2674 1.396 . S
C2676 P2656 1.803 . S
C2676 C2677 1.378 . S
C2676 C2681 1.400 . S
C2677 H2661 0.939 . S
C2677 C2676 1.378 . S
C2677 C2678 1.361 . S
C2678 H2662 0.942 . S
C2678 C2677 1.361 . S
C2678 C2679 1.369 . S
C2679 C2678 1.369 . S
C2679 C2680 1.404 . S
C2680 H2663 0.940 . S
C2680 C2679 1.404 . S
C2680 C2681 1.389 . S
C2681 H2664 0.939 . S
C2681 C2676 1.400 . S
C2681 C2680 1.389 . S
C2682 P2656 1.819 . S
C2682 C2683 1.391 . S
C2682 C2687 1.391 . S
C2683 H2665 0.941 . S
C2683 C2682 1.391 . S
C2683 C2684 1.396 . S
C2684 H2668 0.939 . S
C2684 C2683 1.396 . S
C2684 C2685 1.397 . S
C2685 C2684 1.397 . S
C2685 C2686 1.385 . S
C2686 H2669 0.940 . S
C2686 C2685 1.385 . S
C2686 C2687 1.388 . S
C2687 H2666 0.939 . S
C2687 C2682 1.391 . S
C2687 C2686 1.388 . S
P2688 O2699 1.490 . S
P2688 C2702 1.812 . S
P2688 C2708 1.803 . S
P2688 C2714 1.819 . S
H2689 C2703 0.941 . S
H2690 C2704 0.939 . S
H2691 C2706 0.940 . S
H2692 C2707 0.940 . S
H2693 C2709 0.939 . S
H2694 C2710 0.942 . S
H2695 C2712 0.940 . S
H2696 C2713 0.939 . S
H2697 C2715 0.941 . S
H2698 C2719 0.939 . S
O2699 P2688 1.490 . S
H2700 C2716 0.939 . S
H2701 C2718 0.940 . S
C2702 P2688 1.812 . S
C2702 C2703 1.389 . S
C2702 C2707 1.391 . S
C2703 H2689 0.941 . S
C2703 C2702 1.389 . S
C2703 C2704 1.397 . S
C2704 H2690 0.939 . S
C2704 C2703 1.397 . S
C2704 C2705 1.378 . S
C2705 C2704 1.378 . S
C2705 C2706 1.378 . S
C2706 H2691 0.940 . S
C2706 C2705 1.378 . S
C2706 C2707 1.396 . S
C2707 H2692 0.940 . S
C2707 C2702 1.391 . S
C2707 C2706 1.396 . S
C2708 P2688 1.803 . S
C2708 C2709 1.378 . S
C2708 C2713 1.400 . S
C2709 H2693 0.939 . S
C2709 C2708 1.378 . S
C2709 C2710 1.361 . S
C2710 H2694 0.942 . S
C2710 C2709 1.361 . S
C2710 C2711 1.369 . S
C2711 C2710 1.369 . S
C2711 C2712 1.404 . S
C2712 H2695 0.940 . S
C2712 C2711 1.404 . S
C2712 C2713 1.389 . S
C2713 H2696 0.939 . S
C2713 C2708 1.400 . S
C2713 C2712 1.389 . S
C2714 P2688 1.819 . S
C2714 C2715 1.391 . S
C2714 C2719 1.391 . S
C2715 H2697 0.941 . S
C2715 C2714 1.391 . S
C2715 C2716 1.396 . S
C2716 H2700 0.939 . S
C2716 C2715 1.396 . S
C2716 C2717 1.397 . S
C2717 C2716 1.397 . S
C2717 C2718 1.385 . S
C2718 H2701 0.940 . S
C2718 C2717 1.385 . S
C2718 C2719 1.388 . S
C2719 H2698 0.939 . S
C2719 C2714 1.391 . S
C2719 C2718 1.388 . S
P2720 O2731 1.490 . S
P2720 C2734 1.812 . S
P2720 C2740 1.803 . S
P2720 C2746 1.819 . S
H2721 C2735 0.941 . S
H2722 C2736 0.939 . S
H2723 C2738 0.940 . S
H2724 C2739 0.940 . S
H2725 C2741 0.939 . S
H2726 C2742 0.942 . S
H2727 C2744 0.940 . S
H2728 C2745 0.939 . S
H2729 C2747 0.941 . S
H2730 C2751 0.939 . S
O2731 P2720 1.490 . S
H2732 C2748 0.939 . S
H2733 C2750 0.940 . S
C2734 P2720 1.812 . S
C2734 C2735 1.389 . S
C2734 C2739 1.391 . S
C2735 H2721 0.941 . S
C2735 C2734 1.389 . S
C2735 C2736 1.397 . S
C2736 H2722 0.939 . S
C2736 C2735 1.397 . S
C2736 C2737 1.378 . S
C2737 C2736 1.378 . S
C2737 C2738 1.378 . S
C2738 H2723 0.940 . S
C2738 C2737 1.378 . S
C2738 C2739 1.396 . S
C2739 H2724 0.940 . S
C2739 C2734 1.391 . S
C2739 C2738 1.396 . S
C2740 P2720 1.803 . S
C2740 C2741 1.378 . S
C2740 C2745 1.400 . S
C2741 H2725 0.939 . S
C2741 C2740 1.378 . S
C2741 C2742 1.361 . S
C2742 H2726 0.942 . S
C2742 C2741 1.361 . S
C2742 C2743 1.369 . S
C2743 C2742 1.369 . S
C2743 C2744 1.404 . S
C2744 H2727 0.940 . S
C2744 C2743 1.404 . S
C2744 C2745 1.389 . S
C2745 H2728 0.939 . S
C2745 C2740 1.400 . S
C2745 C2744 1.389 . S
C2746 P2720 1.819 . S
C2746 C2747 1.391 . S
C2746 C2751 1.391 . S
C2747 H2729 0.941 . S
C2747 C2746 1.391 . S
C2747 C2748 1.396 . S
C2748 H2732 0.939 . S
C2748 C2747 1.396 . S
C2748 C2749 1.397 . S
C2749 C2748 1.397 . S
C2749 C2750 1.385 . S
C2750 H2733 0.940 . S
C2750 C2749 1.385 . S
C2750 C2751 1.388 . S
C2751 H2730 0.939 . S
C2751 C2746 1.391 . S
C2751 C2750 1.388 . S
P2752 O2763 1.490 . S
P2752 C2766 1.812 . S
P2752 C2772 1.803 . S
P2752 C2778 1.819 . S
H2753 C2767 0.941 . S
H2754 C2768 0.939 . S
H2755 C2770 0.940 . S
H2756 C2771 0.940 . S
H2757 C2773 0.939 . S
H2758 C2774 0.942 . S
H2759 C2776 0.940 . S
H2760 C2777 0.939 . S
H2761 C2779 0.941 . S
H2762 C2783 0.939 . S
O2763 P2752 1.490 . S
H2764 C2780 0.939 . S
H2765 C2782 0.940 . S
C2766 P2752 1.812 . S
C2766 C2767 1.389 . S
C2766 C2771 1.391 . S
C2767 H2753 0.941 . S
C2767 C2766 1.389 . S
C2767 C2768 1.397 . S
C2768 H2754 0.939 . S
C2768 C2767 1.397 . S
C2768 C2769 1.378 . S
C2769 C2768 1.378 . S
C2769 C2770 1.378 . S
C2770 H2755 0.940 . S
C2770 C2769 1.378 . S
C2770 C2771 1.396 . S
C2771 H2756 0.940 . S
C2771 C2766 1.391 . S
C2771 C2770 1.396 . S
C2772 P2752 1.803 . S
C2772 C2773 1.378 . S
C2772 C2777 1.400 . S
C2773 H2757 0.939 . S
C2773 C2772 1.378 . S
C2773 C2774 1.361 . S
C2774 H2758 0.942 . S
C2774 C2773 1.361 . S
C2774 C2775 1.369 . S
C2775 C2774 1.369 . S
C2775 C2776 1.404 . S
C2776 H2759 0.940 . S
C2776 C2775 1.404 . S
C2776 C2777 1.389 . S
C2777 H2760 0.939 . S
C2777 C2772 1.400 . S
C2777 C2776 1.389 . S
C2778 P2752 1.819 . S
C2778 C2779 1.391 . S
C2778 C2783 1.391 . S
C2779 H2761 0.941 . S
C2779 C2778 1.391 . S
C2779 C2780 1.396 . S
C2780 H2764 0.939 . S
C2780 C2779 1.396 . S
C2780 C2781 1.397 . S
C2781 C2780 1.397 . S
C2781 C2782 1.385 . S
C2782 H2765 0.940 . S
C2782 C2781 1.385 . S
C2782 C2783 1.388 . S
C2783 H2762 0.939 . S
C2783 C2778 1.391 . S
C2783 C2782 1.388 . S
P2784 O2795 1.490 . S
P2784 C2798 1.812 . S
P2784 C2804 1.803 . S
P2784 C2810 1.819 . S
H2785 C2799 0.941 . S
H2786 C2800 0.939 . S
H2787 C2802 0.940 . S
H2788 C2803 0.940 . S
H2789 C2805 0.939 . S
H2790 C2806 0.942 . S
H2791 C2808 0.940 . S
H2792 C2809 0.939 . S
H2793 C2811 0.941 . S
H2794 C2815 0.939 . S
O2795 P2784 1.490 . S
H2796 C2812 0.939 . S
H2797 C2814 0.940 . S
C2798 P2784 1.812 . S
C2798 C2799 1.389 . S
C2798 C2803 1.391 . S
C2799 H2785 0.941 . S
C2799 C2798 1.389 . S
C2799 C2800 1.397 . S
C2800 H2786 0.939 . S
C2800 C2799 1.397 . S
C2800 C2801 1.378 . S
C2801 C2800 1.378 . S
C2801 C2802 1.378 . S
C2802 H2787 0.940 . S
C2802 C2801 1.378 . S
C2802 C2803 1.396 . S
C2803 H2788 0.940 . S
C2803 C2798 1.391 . S
C2803 C2802 1.396 . S
C2804 P2784 1.803 . S
C2804 C2805 1.378 . S
C2804 C2809 1.400 . S
C2805 H2789 0.939 . S
C2805 C2804 1.378 . S
C2805 C2806 1.361 . S
C2806 H2790 0.942 . S
C2806 C2805 1.361 . S
C2806 C2807 1.369 . S
C2807 C2806 1.369 . S
C2807 C2808 1.404 . S
C2808 H2791 0.940 . S
C2808 C2807 1.404 . S
C2808 C2809 1.389 . S
C2809 H2792 0.939 . S
C2809 C2804 1.400 . S
C2809 C2808 1.389 . S
C2810 P2784 1.819 . S
C2810 C2811 1.391 . S
C2810 C2815 1.391 . S
C2811 H2793 0.941 . S
C2811 C2810 1.391 . S
C2811 C2812 1.396 . S
C2812 H2796 0.939 . S
C2812 C2811 1.396 . S
C2812 C2813 1.397 . S
C2813 C2812 1.397 . S
C2813 C2814 1.385 . S
C2814 H2797 0.940 . S
C2814 C2813 1.385 . S
C2814 C2815 1.388 . S
C2815 H2794 0.939 . S
C2815 C2810 1.391 . S
C2815 C2814 1.388 . S
P2816 O2827 1.490 . S
P2816 C2830 1.812 . S
P2816 C2836 1.803 . S
P2816 C2842 1.819 . S
H2817 C2831 0.941 . S
H2818 C2832 0.939 . S
H2819 C2834 0.940 . S
H2820 C2835 0.940 . S
H2821 C2837 0.939 . S
H2822 C2838 0.942 . S
H2823 C2840 0.940 . S
H2824 C2841 0.939 . S
H2825 C2843 0.941 . S
H2826 C2847 0.939 . S
O2827 P2816 1.490 . S
H2828 C2844 0.939 . S
H2829 C2846 0.940 . S
C2830 P2816 1.812 . S
C2830 C2831 1.389 . S
C2830 C2835 1.391 . S
C2831 H2817 0.941 . S
C2831 C2830 1.389 . S
C2831 C2832 1.397 . S
C2832 H2818 0.939 . S
C2832 C2831 1.397 . S
C2832 C2833 1.378 . S
C2833 C2832 1.378 . S
C2833 C2834 1.378 . S
C2834 H2819 0.940 . S
C2834 C2833 1.378 . S
C2834 C2835 1.396 . S
C2835 H2820 0.940 . S
C2835 C2830 1.391 . S
C2835 C2834 1.396 . S
C2836 P2816 1.803 . S
C2836 C2837 1.378 . S
C2836 C2841 1.400 . S
C2837 H2821 0.939 . S
C2837 C2836 1.378 . S
C2837 C2838 1.361 . S
C2838 H2822 0.942 . S
C2838 C2837 1.361 . S
C2838 C2839 1.369 . S
C2839 C2838 1.369 . S
C2839 C2840 1.404 . S
C2840 H2823 0.940 . S
C2840 C2839 1.404 . S
C2840 C2841 1.389 . S
C2841 H2824 0.939 . S
C2841 C2836 1.400 . S
C2841 C2840 1.389 . S
C2842 P2816 1.819 . S
C2842 C2843 1.391 . S
C2842 C2847 1.391 . S
C2843 H2825 0.941 . S
C2843 C2842 1.391 . S
C2843 C2844 1.396 . S
C2844 H2828 0.939 . S
C2844 C2843 1.396 . S
C2844 C2845 1.397 . S
C2845 C2844 1.397 . S
C2845 C2846 1.385 . S
C2846 H2829 0.940 . S
C2846 C2845 1.385 . S
C2846 C2847 1.388 . S
C2847 H2826 0.939 . S
C2847 C2842 1.391 . S
C2847 C2846 1.388 . S
P2848 O2859 1.490 . S
P2848 C2862 1.812 . S
P2848 C2868 1.803 . S
P2848 C2874 1.819 . S
H2849 C2863 0.941 . S
H2850 C2864 0.939 . S
H2851 C2866 0.940 . S
H2852 C2867 0.940 . S
H2853 C2869 0.939 . S
H2854 C2870 0.942 . S
H2855 C2872 0.940 . S
H2856 C2873 0.939 . S
H2857 C2875 0.941 . S
H2858 C2879 0.939 . S
O2859 P2848 1.490 . S
H2860 C2876 0.939 . S
H2861 C2878 0.940 . S
C2862 P2848 1.812 . S
C2862 C2863 1.389 . S
C2862 C2867 1.391 . S
C2863 H2849 0.941 . S
C2863 C2862 1.389 . S
C2863 C2864 1.397 . S
C2864 H2850 0.939 . S
C2864 C2863 1.397 . S
C2864 C2865 1.378 . S
C2865 C2864 1.378 . S
C2865 C2866 1.378 . S
C2866 H2851 0.940 . S
C2866 C2865 1.378 . S
C2866 C2867 1.396 . S
C2867 H2852 0.940 . S
C2867 C2862 1.391 . S
C2867 C2866 1.396 . S
C2868 P2848 1.803 . S
C2868 C2869 1.378 . S
C2868 C2873 1.400 . S
C2869 H2853 0.939 . S
C2869 C2868 1.378 . S
C2869 C2870 1.361 . S
C2870 H2854 0.942 . S
C2870 C2869 1.361 . S
C2870 C2871 1.369 . S
C2871 C2870 1.369 . S
C2871 C2872 1.404 . S
C2872 H2855 0.940 . S
C2872 C2871 1.404 . S
C2872 C2873 1.389 . S
C2873 H2856 0.939 . S
C2873 C2868 1.400 . S
C2873 C2872 1.389 . S
C2874 P2848 1.819 . S
C2874 C2875 1.391 . S
C2874 C2879 1.391 . S
C2875 H2857 0.941 . S
C2875 C2874 1.391 . S
C2875 C2876 1.396 . S
C2876 H2860 0.939 . S
C2876 C2875 1.396 . S
C2876 C2877 1.397 . S
C2877 C2876 1.397 . S
C2877 C2878 1.385 . S
C2878 H2861 0.940 . S
C2878 C2877 1.385 . S
C2878 C2879 1.388 . S
C2879 H2858 0.939 . S
C2879 C2874 1.391 . S
C2879 C2878 1.388 . S
P2880 O2891 1.490 . S
P2880 C2894 1.812 . S
P2880 C2900 1.803 . S
P2880 C2906 1.819 . S
H2881 C2895 0.941 . S
H2882 C2896 0.939 . S
H2883 C2898 0.940 . S
H2884 C2899 0.940 . S
H2885 C2901 0.939 . S
H2886 C2902 0.942 . S
H2887 C2904 0.940 . S
H2888 C2905 0.939 . S
H2889 C2907 0.941 . S
H2890 C2911 0.939 . S
O2891 P2880 1.490 . S
H2892 C2908 0.939 . S
H2893 C2910 0.940 . S
C2894 P2880 1.812 . S
C2894 C2895 1.389 . S
C2894 C2899 1.391 . S
C2895 H2881 0.941 . S
C2895 C2894 1.389 . S
C2895 C2896 1.397 . S
C2896 H2882 0.939 . S
C2896 C2895 1.397 . S
C2896 C2897 1.378 . S
C2897 C2896 1.378 . S
C2897 C2898 1.378 . S
C2898 H2883 0.940 . S
C2898 C2897 1.378 . S
C2898 C2899 1.396 . S
C2899 H2884 0.940 . S
C2899 C2894 1.391 . S
C2899 C2898 1.396 . S
C2900 P2880 1.803 . S
C2900 C2901 1.378 . S
C2900 C2905 1.400 . S
C2901 H2885 0.939 . S
C2901 C2900 1.378 . S
C2901 C2902 1.361 . S
C2902 H2886 0.942 . S
C2902 C2901 1.361 . S
C2902 C2903 1.369 . S
C2903 C2902 1.369 . S
C2903 C2904 1.404 . S
C2904 H2887 0.940 . S
C2904 C2903 1.404 . S
C2904 C2905 1.389 . S
C2905 H2888 0.939 . S
C2905 C2900 1.400 . S
C2905 C2904 1.389 . S
C2906 P2880 1.819 . S
C2906 C2907 1.391 . S
C2906 C2911 1.391 . S
C2907 H2889 0.941 . S
C2907 C2906 1.391 . S
C2907 C2908 1.396 . S
C2908 H2892 0.939 . S
C2908 C2907 1.396 . S
C2908 C2909 1.397 . S
C2909 C2908 1.397 . S
C2909 C2910 1.385 . S
C2910 H2893 0.940 . S
C2910 C2909 1.385 . S
C2910 C2911 1.388 . S
C2911 H2890 0.939 . S
C2911 C2906 1.391 . S
C2911 C2910 1.388 . S
P2912 O2923 1.490 . S
P2912 C2926 1.812 . S
P2912 C2932 1.803 . S
P2912 C2938 1.819 . S
H2913 C2927 0.941 . S
H2914 C2928 0.939 . S
H2915 C2930 0.940 . S
H2916 C2931 0.940 . S
H2917 C2933 0.939 . S
H2918 C2934 0.942 . S
H2919 C2936 0.940 . S
H2920 C2937 0.939 . S
H2921 C2939 0.941 . S
H2922 C2943 0.939 . S
O2923 P2912 1.490 . S
H2924 C2940 0.939 . S
H2925 C2942 0.940 . S
C2926 P2912 1.812 . S
C2926 C2927 1.389 . S
C2926 C2931 1.391 . S
C2927 H2913 0.941 . S
C2927 C2926 1.389 . S
C2927 C2928 1.397 . S
C2928 H2914 0.939 . S
C2928 C2927 1.397 . S
C2928 C2929 1.378 . S
C2929 C2928 1.378 . S
C2929 C2930 1.378 . S
C2930 H2915 0.940 . S
C2930 C2929 1.378 . S
C2930 C2931 1.396 . S
C2931 H2916 0.940 . S
C2931 C2926 1.391 . S
C2931 C2930 1.396 . S
C2932 P2912 1.803 . S
C2932 C2933 1.378 . S
C2932 C2937 1.400 . S
C2933 H2917 0.939 . S
C2933 C2932 1.378 . S
C2933 C2934 1.361 . S
C2934 H2918 0.942 . S
C2934 C2933 1.361 . S
C2934 C2935 1.369 . S
C2935 C2934 1.369 . S
C2935 C2936 1.404 . S
C2936 H2919 0.940 . S
C2936 C2935 1.404 . S
C2936 C2937 1.389 . S
C2937 H2920 0.939 . S
C2937 C2932 1.400 . S
C2937 C2936 1.389 . S
C2938 P2912 1.819 . S
C2938 C2939 1.391 . S
C2938 C2943 1.391 . S
C2939 H2921 0.941 . S
C2939 C2938 1.391 . S
C2939 C2940 1.396 . S
C2940 H2924 0.939 . S
C2940 C2939 1.396 . S
C2940 C2941 1.397 . S
C2941 C2940 1.397 . S
C2941 C2942 1.385 . S
C2942 H2925 0.940 . S
C2942 C2941 1.385 . S
C2942 C2943 1.388 . S
C2943 H2922 0.939 . S
C2943 C2938 1.391 . S
C2943 C2942 1.388 . S
P2944 O2955 1.490 . S
P2944 C2958 1.812 . S
P2944 C2964 1.803 . S
P2944 C2970 1.819 . S
H2945 C2959 0.941 . S
H2946 C2960 0.939 . S
H2947 C2962 0.940 . S
H2948 C2963 0.940 . S
H2949 C2965 0.939 . S
H2950 C2966 0.942 . S
H2951 C2968 0.940 . S
H2952 C2969 0.939 . S
H2953 C2971 0.941 . S
H2954 C2975 0.939 . S
O2955 P2944 1.490 . S
H2956 C2972 0.939 . S
H2957 C2974 0.940 . S
C2958 P2944 1.812 . S
C2958 C2959 1.389 . S
C2958 C2963 1.391 . S
C2959 H2945 0.941 . S
C2959 C2958 1.389 . S
C2959 C2960 1.397 . S
C2960 H2946 0.939 . S
C2960 C2959 1.397 . S
C2960 C2961 1.378 . S
C2961 C2960 1.378 . S
C2961 C2962 1.378 . S
C2962 H2947 0.940 . S
C2962 C2961 1.378 . S
C2962 C2963 1.396 . S
C2963 H2948 0.940 . S
C2963 C2958 1.391 . S
C2963 C2962 1.396 . S
C2964 P2944 1.803 . S
C2964 C2965 1.378 . S
C2964 C2969 1.400 . S
C2965 H2949 0.939 . S
C2965 C2964 1.378 . S
C2965 C2966 1.361 . S
C2966 H2950 0.942 . S
C2966 C2965 1.361 . S
C2966 C2967 1.369 . S
C2967 C2966 1.369 . S
C2967 C2968 1.404 . S
C2968 H2951 0.940 . S
C2968 C2967 1.404 . S
C2968 C2969 1.389 . S
C2969 H2952 0.939 . S
C2969 C2964 1.400 . S
C2969 C2968 1.389 . S
C2970 P2944 1.819 . S
C2970 C2971 1.391 . S
C2970 C2975 1.391 . S
C2971 H2953 0.941 . S
C2971 C2970 1.391 . S
C2971 C2972 1.396 . S
C2972 H2956 0.939 . S
C2972 C2971 1.396 . S
C2972 C2973 1.397 . S
C2973 C2972 1.397 . S
C2973 C2974 1.385 . S
C2974 H2957 0.940 . S
C2974 C2973 1.385 . S
C2974 C2975 1.388 . S
C2975 H2954 0.939 . S
C2975 C2970 1.391 . S
C2975 C2974 1.388 . S
P2976 O2987 1.490 . S
P2976 C2990 1.812 . S
P2976 C2996 1.803 . S
P2976 C3002 1.819 . S
H2977 C2991 0.941 . S
H2978 C2992 0.939 . S
H2979 C2994 0.940 . S
H2980 C2995 0.940 . S
H2981 C2997 0.939 . S
H2982 C2998 0.942 . S
H2983 C3000 0.940 . S
H2984 C3001 0.939 . S
H2985 C3003 0.941 . S
H2986 C3007 0.939 . S
O2987 P2976 1.490 . S
H2988 C3004 0.939 . S
H2989 C3006 0.940 . S
C2990 P2976 1.812 . S
C2990 C2991 1.389 . S
C2990 C2995 1.391 . S
C2991 H2977 0.941 . S
C2991 C2990 1.389 . S
C2991 C2992 1.397 . S
C2992 H2978 0.939 . S
C2992 C2991 1.397 . S
C2992 C2993 1.378 . S
C2993 C2992 1.378 . S
C2993 C2994 1.378 . S
C2994 H2979 0.940 . S
C2994 C2993 1.378 . S
C2994 C2995 1.396 . S
C2995 H2980 0.940 . S
C2995 C2990 1.391 . S
C2995 C2994 1.396 . S
C2996 P2976 1.803 . S
C2996 C2997 1.378 . S
C2996 C3001 1.400 . S
C2997 H2981 0.939 . S
C2997 C2996 1.378 . S
C2997 C2998 1.361 . S
C2998 H2982 0.942 . S
C2998 C2997 1.361 . S
C2998 C2999 1.369 . S
C2999 C2998 1.369 . S
C2999 C3000 1.404 . S
C3000 H2983 0.940 . S
C3000 C2999 1.404 . S
C3000 C3001 1.389 . S
C3001 H2984 0.939 . S
C3001 C2996 1.400 . S
C3001 C3000 1.389 . S
C3002 P2976 1.819 . S
C3002 C3003 1.391 . S
C3002 C3007 1.391 . S
C3003 H2985 0.941 . S
C3003 C3002 1.391 . S
C3003 C3004 1.396 . S
C3004 H2988 0.939 . S
C3004 C3003 1.396 . S
C3004 C3005 1.397 . S
C3005 C3004 1.397 . S
C3005 C3006 1.385 . S
C3006 H2989 0.940 . S
C3006 C3005 1.385 . S
C3006 C3007 1.388 . S
C3007 H2986 0.939 . S
C3007 C3002 1.391 . S
C3007 C3006 1.388 . S
P3008 O3019 1.490 . S
P3008 C3022 1.812 . S
P3008 C3028 1.803 . S
P3008 C3034 1.819 . S
H3009 C3023 0.941 . S
H3010 C3024 0.939 . S
H3011 C3026 0.940 . S
H3012 C3027 0.940 . S
H3013 C3029 0.939 . S
H3014 C3030 0.942 . S
H3015 C3032 0.940 . S
H3016 C3033 0.939 . S
H3017 C3035 0.941 . S
H3018 C3039 0.939 . S
O3019 P3008 1.490 . S
H3020 C3036 0.939 . S
H3021 C3038 0.940 . S
C3022 P3008 1.812 . S
C3022 C3023 1.389 . S
C3022 C3027 1.391 . S
C3023 H3009 0.941 . S
C3023 C3022 1.389 . S
C3023 C3024 1.397 . S
C3024 H3010 0.939 . S
C3024 C3023 1.397 . S
C3024 C3025 1.378 . S
C3025 C3024 1.378 . S
C3025 C3026 1.378 . S
C3026 H3011 0.940 . S
C3026 C3025 1.378 . S
C3026 C3027 1.396 . S
C3027 H3012 0.940 . S
C3027 C3022 1.391 . S
C3027 C3026 1.396 . S
C3028 P3008 1.803 . S
C3028 C3029 1.378 . S
C3028 C3033 1.400 . S
C3029 H3013 0.939 . S
C3029 C3028 1.378 . S
C3029 C3030 1.361 . S
C3030 H3014 0.942 . S
C3030 C3029 1.361 . S
C3030 C3031 1.369 . S
C3031 C3030 1.369 . S
C3031 C3032 1.404 . S
C3032 H3015 0.940 . S
C3032 C3031 1.404 . S
C3032 C3033 1.389 . S
C3033 H3016 0.939 . S
C3033 C3028 1.400 . S
C3033 C3032 1.389 . S
C3034 P3008 1.819 . S
C3034 C3035 1.391 . S
C3034 C3039 1.391 . S
C3035 H3017 0.941 . S
C3035 C3034 1.391 . S
C3035 C3036 1.396 . S
C3036 H3020 0.939 . S
C3036 C3035 1.396 . S
C3036 C3037 1.397 . S
C3037 C3036 1.397 . S
C3037 C3038 1.385 . S
C3038 H3021 0.940 . S
C3038 C3037 1.385 . S
C3038 C3039 1.388 . S
C3039 H3018 0.939 . S
C3039 C3034 1.391 . S
C3039 C3038 1.388 . S
P3040 O3051 1.490 . S
P3040 C3054 1.812 . S
P3040 C3060 1.803 . S
P3040 C3066 1.819 . S
H3041 C3055 0.941 . S
H3042 C3056 0.939 . S
H3043 C3058 0.940 . S
H3044 C3059 0.940 . S
H3045 C3061 0.939 . S
H3046 C3062 0.942 . S
H3047 C3064 0.940 . S
H3048 C3065 0.939 . S
H3049 C3067 0.941 . S
H3050 C3071 0.939 . S
O3051 P3040 1.490 . S
H3052 C3068 0.939 . S
H3053 C3070 0.940 . S
C3054 P3040 1.812 . S
C3054 C3055 1.389 . S
C3054 C3059 1.391 . S
C3055 H3041 0.941 . S
C3055 C3054 1.389 . S
C3055 C3056 1.397 . S
C3056 H3042 0.939 . S
C3056 C3055 1.397 . S
C3056 C3057 1.378 . S
C3057 C3056 1.378 . S
C3057 C3058 1.378 . S
C3058 H3043 0.940 . S
C3058 C3057 1.378 . S
C3058 C3059 1.396 . S
C3059 H3044 0.940 . S
C3059 C3054 1.391 . S
C3059 C3058 1.396 . S
C3060 P3040 1.803 . S
C3060 C3061 1.378 . S
C3060 C3065 1.400 . S
C3061 H3045 0.939 . S
C3061 C3060 1.378 . S
C3061 C3062 1.361 . S
C3062 H3046 0.942 . S
C3062 C3061 1.361 . S
C3062 C3063 1.369 . S
C3063 C3062 1.369 . S
C3063 C3064 1.404 . S
C3064 H3047 0.940 . S
C3064 C3063 1.404 . S
C3064 C3065 1.389 . S
C3065 H3048 0.939 . S
C3065 C3060 1.400 . S
C3065 C3064 1.389 . S
C3066 P3040 1.819 . S
C3066 C3067 1.391 . S
C3066 C3071 1.391 . S
C3067 H3049 0.941 . S
C3067 C3066 1.391 . S
C3067 C3068 1.396 . S
C3068 H3052 0.939 . S
C3068 C3067 1.396 . S
C3068 C3069 1.397 . S
C3069 C3068 1.397 . S
C3069 C3070 1.385 . S
C3070 H3053 0.940 . S
C3070 C3069 1.385 . S
C3070 C3071 1.388 . S
C3071 H3050 0.939 . S
C3071 C3066 1.391 . S
C3071 C3070 1.388 . S
P3072 O3083 1.490 . S
P3072 C3086 1.812 . S
P3072 C3092 1.803 . S
P3072 C3098 1.819 . S
H3073 C3087 0.941 . S
H3074 C3088 0.939 . S
H3075 C3090 0.940 . S
H3076 C3091 0.940 . S
H3077 C3093 0.939 . S
H3078 C3094 0.942 . S
H3079 C3096 0.940 . S
H3080 C3097 0.939 . S
H3081 C3099 0.941 . S
H3082 C3103 0.939 . S
O3083 P3072 1.490 . S
H3084 C3100 0.939 . S
H3085 C3102 0.940 . S
C3086 P3072 1.812 . S
C3086 C3087 1.389 . S
C3086 C3091 1.391 . S
C3087 H3073 0.941 . S
C3087 C3086 1.389 . S
C3087 C3088 1.397 . S
C3088 H3074 0.939 . S
C3088 C3087 1.397 . S
C3088 C3089 1.378 . S
C3089 C3088 1.378 . S
C3089 C3090 1.378 . S
C3090 H3075 0.940 . S
C3090 C3089 1.378 . S
C3090 C3091 1.396 . S
C3091 H3076 0.940 . S
C3091 C3086 1.391 . S
C3091 C3090 1.396 . S
C3092 P3072 1.803 . S
C3092 C3093 1.378 . S
C3092 C3097 1.400 . S
C3093 H3077 0.939 . S
C3093 C3092 1.378 . S
C3093 C3094 1.361 . S
C3094 H3078 0.942 . S
C3094 C3093 1.361 . S
C3094 C3095 1.369 . S
C3095 C3094 1.369 . S
C3095 C3096 1.404 . S
C3096 H3079 0.940 . S
C3096 C3095 1.404 . S
C3096 C3097 1.389 . S
C3097 H3080 0.939 . S
C3097 C3092 1.400 . S
C3097 C3096 1.389 . S
C3098 P3072 1.819 . S
C3098 C3099 1.391 . S
C3098 C3103 1.391 . S
C3099 H3081 0.941 . S
C3099 C3098 1.391 . S
C3099 C3100 1.396 . S
C3100 H3084 0.939 . S
C3100 C3099 1.396 . S
C3100 C3101 1.397 . S
C3101 C3100 1.397 . S
C3101 C3102 1.385 . S
C3102 H3085 0.940 . S
C3102 C3101 1.385 . S
C3102 C3103 1.388 . S
C3103 H3082 0.939 . S
C3103 C3098 1.391 . S
C3103 C3102 1.388 . S
P3104 O3115 1.490 . S
P3104 C3118 1.812 . S
P3104 C3124 1.803 . S
P3104 C3130 1.819 . S
H3105 C3119 0.941 . S
H3106 C3120 0.939 . S
H3107 C3122 0.940 . S
H3108 C3123 0.940 . S
H3109 C3125 0.939 . S
H3110 C3126 0.942 . S
H3111 C3128 0.940 . S
H3112 C3129 0.939 . S
H3113 C3131 0.941 . S
H3114 C3135 0.939 . S
O3115 P3104 1.490 . S
H3116 C3132 0.939 . S
H3117 C3134 0.940 . S
C3118 P3104 1.812 . S
C3118 C3119 1.389 . S
C3118 C3123 1.391 . S
C3119 H3105 0.941 . S
C3119 C3118 1.389 . S
C3119 C3120 1.397 . S
C3120 H3106 0.939 . S
C3120 C3119 1.397 . S
C3120 C3121 1.378 . S
C3121 C3120 1.378 . S
C3121 C3122 1.378 . S
C3122 H3107 0.940 . S
C3122 C3121 1.378 . S
C3122 C3123 1.396 . S
C3123 H3108 0.940 . S
C3123 C3118 1.391 . S
C3123 C3122 1.396 . S
C3124 P3104 1.803 . S
C3124 C3125 1.378 . S
C3124 C3129 1.400 . S
C3125 H3109 0.939 . S
C3125 C3124 1.378 . S
C3125 C3126 1.361 . S
C3126 H3110 0.942 . S
C3126 C3125 1.361 . S
C3126 C3127 1.369 . S
C3127 C3126 1.369 . S
C3127 C3128 1.404 . S
C3128 H3111 0.940 . S
C3128 C3127 1.404 . S
C3128 C3129 1.389 . S
C3129 H3112 0.939 . S
C3129 C3124 1.400 . S
C3129 C3128 1.389 . S
C3130 P3104 1.819 . S
C3130 C3131 1.391 . S
C3130 C3135 1.391 . S
C3131 H3113 0.941 . S
C3131 C3130 1.391 . S
C3131 C3132 1.396 . S
C3132 H3116 0.939 . S
C3132 C3131 1.396 . S
C3132 C3133 1.397 . S
C3133 C3132 1.397 . S
C3133 C3134 1.385 . S
C3134 H3117 0.940 . S
C3134 C3133 1.385 . S
C3134 C3135 1.388 . S
C3135 H3114 0.939 . S
C3135 C3130 1.391 . S
C3135 C3134 1.388 . S
P3136 O3147 1.490 . S
P3136 C3150 1.812 . S
P3136 C3156 1.803 . S
P3136 C3162 1.819 . S
H3137 C3151 0.941 . S
H3138 C3152 0.939 . S
H3139 C3154 0.940 . S
H3140 C3155 0.940 . S
H3141 C3157 0.939 . S
H3142 C3158 0.942 . S
H3143 C3160 0.940 . S
H3144 C3161 0.939 . S
H3145 C3163 0.941 . S
H3146 C3167 0.939 . S
O3147 P3136 1.490 . S
H3148 C3164 0.939 . S
H3149 C3166 0.940 . S
C3150 P3136 1.812 . S
C3150 C3151 1.389 . S
C3150 C3155 1.391 . S
C3151 H3137 0.941 . S
C3151 C3150 1.389 . S
C3151 C3152 1.397 . S
C3152 H3138 0.939 . S
C3152 C3151 1.397 . S
C3152 C3153 1.378 . S
C3153 C3152 1.378 . S
C3153 C3154 1.378 . S
C3154 H3139 0.940 . S
C3154 C3153 1.378 . S
C3154 C3155 1.396 . S
C3155 H3140 0.940 . S
C3155 C3150 1.391 . S
C3155 C3154 1.396 . S
C3156 P3136 1.803 . S
C3156 C3157 1.378 . S
C3156 C3161 1.400 . S
C3157 H3141 0.939 . S
C3157 C3156 1.378 . S
C3157 C3158 1.361 . S
C3158 H3142 0.942 . S
C3158 C3157 1.361 . S
C3158 C3159 1.369 . S
C3159 C3158 1.369 . S
C3159 C3160 1.404 . S
C3160 H3143 0.940 . S
C3160 C3159 1.404 . S
C3160 C3161 1.389 . S
C3161 H3144 0.939 . S
C3161 C3156 1.400 . S
C3161 C3160 1.389 . S
C3162 P3136 1.819 . S
C3162 C3163 1.391 . S
C3162 C3167 1.391 . S
C3163 H3145 0.941 . S
C3163 C3162 1.391 . S
C3163 C3164 1.396 . S
C3164 H3148 0.939 . S
C3164 C3163 1.396 . S
C3164 C3165 1.397 . S
C3165 C3164 1.397 . S
C3165 C3166 1.385 . S
C3166 H3149 0.940 . S
C3166 C3165 1.385 . S
C3166 C3167 1.388 . S
C3167 H3146 0.939 . S
C3167 C3162 1.391 . S
C3167 C3166 1.388 . S
P3168 O3179 1.490 . S
P3168 C3182 1.812 . S
P3168 C3188 1.803 . S
P3168 C3194 1.819 . S
H3169 C3183 0.941 . S
H3170 C3184 0.939 . S
H3171 C3186 0.940 . S
H3172 C3187 0.940 . S
H3173 C3189 0.939 . S
H3174 C3190 0.942 . S
H3175 C3192 0.940 . S
H3176 C3193 0.939 . S
H3177 C3195 0.941 . S
H3178 C3199 0.939 . S
O3179 P3168 1.490 . S
H3180 C3196 0.939 . S
H3181 C3198 0.940 . S
C3182 P3168 1.812 . S
C3182 C3183 1.389 . S
C3182 C3187 1.391 . S
C3183 H3169 0.941 . S
C3183 C3182 1.389 . S
C3183 C3184 1.397 . S
C3184 H3170 0.939 . S
C3184 C3183 1.397 . S
C3184 C3185 1.378 . S
C3185 C3184 1.378 . S
C3185 C3186 1.378 . S
C3186 H3171 0.940 . S
C3186 C3185 1.378 . S
C3186 C3187 1.396 . S
C3187 H3172 0.940 . S
C3187 C3182 1.391 . S
C3187 C3186 1.396 . S
C3188 P3168 1.803 . S
C3188 C3189 1.378 . S
C3188 C3193 1.400 . S
C3189 H3173 0.939 . S
C3189 C3188 1.378 . S
C3189 C3190 1.361 . S
C3190 H3174 0.942 . S
C3190 C3189 1.361 . S
C3190 C3191 1.369 . S
C3191 C3190 1.369 . S
C3191 C3192 1.404 . S
C3192 H3175 0.940 . S
C3192 C3191 1.404 . S
C3192 C3193 1.389 . S
C3193 H3176 0.939 . S
C3193 C3188 1.400 . S
C3193 C3192 1.389 . S
C3194 P3168 1.819 . S
C3194 C3195 1.391 . S
C3194 C3199 1.391 . S
C3195 H3177 0.941 . S
C3195 C3194 1.391 . S
C3195 C3196 1.396 . S
C3196 H3180 0.939 . S
C3196 C3195 1.396 . S
C3196 C3197 1.397 . S
C3197 C3196 1.397 . S
C3197 C3198 1.385 . S
C3198 H3181 0.940 . S
C3198 C3197 1.385 . S
C3198 C3199 1.388 . S
C3199 H3178 0.939 . S
C3199 C3194 1.391 . S
C3199 C3198 1.388 . S
P3200 O3211 1.490 . S
P3200 C3214 1.812 . S
P3200 C3220 1.803 . S
P3200 C3226 1.819 . S
H3201 C3215 0.941 . S
H3202 C3216 0.939 . S
H3203 C3218 0.940 . S
H3204 C3219 0.940 . S
H3205 C3221 0.939 . S
H3206 C3222 0.942 . S
H3207 C3224 0.940 . S
H3208 C3225 0.939 . S
H3209 C3227 0.941 . S
H3210 C3231 0.939 . S
O3211 P3200 1.490 . S
H3212 C3228 0.939 . S
H3213 C3230 0.940 . S
C3214 P3200 1.812 . S
C3214 C3215 1.389 . S
C3214 C3219 1.391 . S
C3215 H3201 0.941 . S
C3215 C3214 1.389 . S
C3215 C3216 1.397 . S
C3216 H3202 0.939 . S
C3216 C3215 1.397 . S
C3216 C3217 1.378 . S
C3217 C3216 1.378 . S
C3217 C3218 1.378 . S
C3218 H3203 0.940 . S
C3218 C3217 1.378 . S
C3218 C3219 1.396 . S
C3219 H3204 0.940 . S
C3219 C3214 1.391 . S
C3219 C3218 1.396 . S
C3220 P3200 1.803 . S
C3220 C3221 1.378 . S
C3220 C3225 1.400 . S
C3221 H3205 0.939 . S
C3221 C3220 1.378 . S
C3221 C3222 1.361 . S
C3222 H3206 0.942 . S
C3222 C3221 1.361 . S
C3222 C3223 1.369 . S
C3223 C3222 1.369 . S
C3223 C3224 1.404 . S
C3224 H3207 0.940 . S
C3224 C3223 1.404 . S
C3224 C3225 1.389 . S
C3225 H3208 0.939 . S
C3225 C3220 1.400 . S
C3225 C3224 1.389 . S
C3226 P3200 1.819 . S
C3226 C3227 1.391 . S
C3226 C3231 1.391 . S
C3227 H3209 0.941 . S
C3227 C3226 1.391 . S
C3227 C3228 1.396 . S
C3228 H3212 0.939 . S
C3228 C3227 1.396 . S
C3228 C3229 1.397 . S
C3229 C3228 1.397 . S
C3229 C3230 1.385 . S
C3230 H3213 0.940 . S
C3230 C3229 1.385 . S
C3230 C3231 1.388 . S
C3231 H3210 0.939 . S
C3231 C3226 1.391 . S
C3231 C3230 1.388 . S
P3232 O3243 1.490 . S
P3232 C3246 1.812 . S
P3232 C3252 1.803 . S
P3232 C3258 1.819 . S
H3233 C3247 0.941 . S
H3234 C3248 0.939 . S
H3235 C3250 0.940 . S
H3236 C3251 0.940 . S
H3237 C3253 0.939 . S
H3238 C3254 0.942 . S
H3239 C3256 0.940 . S
H3240 C3257 0.939 . S
H3241 C3259 0.941 . S
H3242 C3263 0.939 . S
O3243 P3232 1.490 . S
H3244 C3260 0.939 . S
H3245 C3262 0.940 . S
C3246 P3232 1.812 . S
C3246 C3247 1.389 . S
C3246 C3251 1.391 . S
C3247 H3233 0.941 . S
C3247 C3246 1.389 . S
C3247 C3248 1.397 . S
C3248 H3234 0.939 . S
C3248 C3247 1.397 . S
C3248 C3249 1.378 . S
C3249 C3248 1.378 . S
C3249 C3250 1.378 . S
C3250 H3235 0.940 . S
C3250 C3249 1.378 . S
C3250 C3251 1.396 . S
C3251 H3236 0.940 . S
C3251 C3246 1.391 . S
C3251 C3250 1.396 . S
C3252 P3232 1.803 . S
C3252 C3253 1.378 . S
C3252 C3257 1.400 . S
C3253 H3237 0.939 . S
C3253 C3252 1.378 . S
C3253 C3254 1.361 . S
C3254 H3238 0.942 . S
C3254 C3253 1.361 . S
C3254 C3255 1.369 . S
C3255 C3254 1.369 . S
C3255 C3256 1.404 . S
C3256 H3239 0.940 . S
C3256 C3255 1.404 . S
C3256 C3257 1.389 . S
C3257 H3240 0.939 . S
C3257 C3252 1.400 . S
C3257 C3256 1.389 . S
C3258 P3232 1.819 . S
C3258 C3259 1.391 . S
C3258 C3263 1.391 . S
C3259 H3241 0.941 . S
C3259 C3258 1.391 . S
C3259 C3260 1.396 . S
C3260 H3244 0.939 . S
C3260 C3259 1.396 . S
C3260 C3261 1.397 . S
C3261 C3260 1.397 . S
C3261 C3262 1.385 . S
C3262 H3245 0.940 . S
C3262 C3261 1.385 . S
C3262 C3263 1.388 . S
C3263 H3242 0.939 . S
C3263 C3258 1.391 . S
C3263 C3262 1.388 . S
P3264 O3275 1.490 . S
P3264 C3278 1.812 . S
P3264 C3284 1.803 . S
P3264 C3290 1.819 . S
H3265 C3279 0.941 . S
H3266 C3280 0.939 . S
H3267 C3282 0.940 . S
H3268 C3283 0.940 . S
H3269 C3285 0.939 . S
H3270 C3286 0.942 . S
H3271 C3288 0.940 . S
H3272 C3289 0.939 . S
H3273 C3291 0.941 . S
H3274 C3295 0.939 . S
O3275 P3264 1.490 . S
H3276 C3292 0.939 . S
H3277 C3294 0.940 . S
C3278 P3264 1.812 . S
C3278 C3279 1.389 . S
C3278 C3283 1.391 . S
C3279 H3265 0.941 . S
C3279 C3278 1.389 . S
C3279 C3280 1.397 . S
C3280 H3266 0.939 . S
C3280 C3279 1.397 . S
C3280 C3281 1.378 . S
C3281 C3280 1.378 . S
C3281 C3282 1.378 . S
C3282 H3267 0.940 . S
C3282 C3281 1.378 . S
C3282 C3283 1.396 . S
C3283 H3268 0.940 . S
C3283 C3278 1.391 . S
C3283 C3282 1.396 . S
C3284 P3264 1.803 . S
C3284 C3285 1.378 . S
C3284 C3289 1.400 . S
C3285 H3269 0.939 . S
C3285 C3284 1.378 . S
C3285 C3286 1.361 . S
C3286 H3270 0.942 . S
C3286 C3285 1.361 . S
C3286 C3287 1.369 . S
C3287 C3286 1.369 . S
C3287 C3288 1.404 . S
C3288 H3271 0.940 . S
C3288 C3287 1.404 . S
C3288 C3289 1.389 . S
C3289 H3272 0.939 . S
C3289 C3284 1.400 . S
C3289 C3288 1.389 . S
C3290 P3264 1.819 . S
C3290 C3291 1.391 . S
C3290 C3295 1.391 . S
C3291 H3273 0.941 . S
C3291 C3290 1.391 . S
C3291 C3292 1.396 . S
C3292 H3276 0.939 . S
C3292 C3291 1.396 . S
C3292 C3293 1.397 . S
C3293 C3292 1.397 . S
C3293 C3294 1.385 . S
C3294 H3277 0.940 . S
C3294 C3293 1.385 . S
C3294 C3295 1.388 . S
C3295 H3274 0.939 . S
C3295 C3290 1.391 . S
C3295 C3294 1.388 . S
P3296 O3307 1.490 . S
P3296 C3310 1.812 . S
P3296 C3316 1.803 . S
P3296 C3322 1.819 . S
H3297 C3311 0.941 . S
H3298 C3312 0.939 . S
H3299 C3314 0.940 . S
H3300 C3315 0.940 . S
H3301 C3317 0.939 . S
H3302 C3318 0.942 . S
H3303 C3320 0.940 . S
H3304 C3321 0.939 . S
H3305 C3323 0.941 . S
H3306 C3327 0.939 . S
O3307 P3296 1.490 . S
H3308 C3324 0.939 . S
H3309 C3326 0.940 . S
C3310 P3296 1.812 . S
C3310 C3311 1.389 . S
C3310 C3315 1.391 . S
C3311 H3297 0.941 . S
C3311 C3310 1.389 . S
C3311 C3312 1.397 . S
C3312 H3298 0.939 . S
C3312 C3311 1.397 . S
C3312 C3313 1.378 . S
C3313 C3312 1.378 . S
C3313 C3314 1.378 . S
C3314 H3299 0.940 . S
C3314 C3313 1.378 . S
C3314 C3315 1.396 . S
C3315 H3300 0.940 . S
C3315 C3310 1.391 . S
C3315 C3314 1.396 . S
C3316 P3296 1.803 . S
C3316 C3317 1.378 . S
C3316 C3321 1.400 . S
C3317 H3301 0.939 . S
C3317 C3316 1.378 . S
C3317 C3318 1.361 . S
C3318 H3302 0.942 . S
C3318 C3317 1.361 . S
C3318 C3319 1.369 . S
C3319 C3318 1.369 . S
C3319 C3320 1.404 . S
C3320 H3303 0.940 . S
C3320 C3319 1.404 . S
C3320 C3321 1.389 . S
C3321 H3304 0.939 . S
C3321 C3316 1.400 . S
C3321 C3320 1.389 . S
C3322 P3296 1.819 . S
C3322 C3323 1.391 . S
C3322 C3327 1.391 . S
C3323 H3305 0.941 . S
C3323 C3322 1.391 . S
C3323 C3324 1.396 . S
C3324 H3308 0.939 . S
C3324 C3323 1.396 . S
C3324 C3325 1.397 . S
C3325 C3324 1.397 . S
C3325 C3326 1.385 . S
C3326 H3309 0.940 . S
C3326 C3325 1.385 . S
C3326 C3327 1.388 . S
C3327 H3306 0.939 . S
C3327 C3322 1.391 . S
C3327 C3326 1.388 . S
P3328 O3339 1.490 . S
P3328 C3342 1.812 . S
P3328 C3348 1.803 . S
P3328 C3354 1.819 . S
H3329 C3343 0.941 . S
H3330 C3344 0.939 . S
H3331 C3346 0.940 . S
H3332 C3347 0.940 . S
H3333 C3349 0.939 . S
H3334 C3350 0.942 . S
H3335 C3352 0.940 . S
H3336 C3353 0.939 . S
H3337 C3355 0.941 . S
H3338 C3359 0.939 . S
O3339 P3328 1.490 . S
H3340 C3356 0.939 . S
H3341 C3358 0.940 . S
C3342 P3328 1.812 . S
C3342 C3343 1.389 . S
C3342 C3347 1.391 . S
C3343 H3329 0.941 . S
C3343 C3342 1.389 . S
C3343 C3344 1.397 . S
C3344 H3330 0.939 . S
C3344 C3343 1.397 . S
C3344 C3345 1.378 . S
C3345 C3344 1.378 . S
C3345 C3346 1.378 . S
C3346 H3331 0.940 . S
C3346 C3345 1.378 . S
C3346 C3347 1.396 . S
C3347 H3332 0.940 . S
C3347 C3342 1.391 . S
C3347 C3346 1.396 . S
C3348 P3328 1.803 . S
C3348 C3349 1.378 . S
C3348 C3353 1.400 . S
C3349 H3333 0.939 . S
C3349 C3348 1.378 . S
C3349 C3350 1.361 . S
C3350 H3334 0.942 . S
C3350 C3349 1.361 . S
C3350 C3351 1.369 . S
C3351 C3350 1.369 . S
C3351 C3352 1.404 . S
C3352 H3335 0.940 . S
C3352 C3351 1.404 . S
C3352 C3353 1.389 . S
C3353 H3336 0.939 . S
C3353 C3348 1.400 . S
C3353 C3352 1.389 . S
C3354 P3328 1.819 . S
C3354 C3355 1.391 . S
C3354 C3359 1.391 . S
C3355 H3337 0.941 . S
C3355 C3354 1.391 . S
C3355 C3356 1.396 . S
C3356 H3340 0.939 . S
C3356 C3355 1.396 . S
C3356 C3357 1.397 . S
C3357 C3356 1.397 . S
C3357 C3358 1.385 . S
C3358 H3341 0.940 . S
C3358 C3357 1.385 . S
C3358 C3359 1.388 . S
C3359 H3338 0.939 . S
C3359 C3354 1.391 . S
C3359 C3358 1.388 . S
P3360 O3371 1.490 . S
P3360 C3374 1.812 . S
P3360 C3380 1.803 . S
P3360 C3386 1.819 . S
H3361 C3375 0.941 . S
H3362 C3376 0.939 . S
H3363 C3378 0.940 . S
H3364 C3379 0.940 . S
H3365 C3381 0.939 . S
H3366 C3382 0.942 . S
H3367 C3384 0.940 . S
H3368 C3385 0.939 . S
H3369 C3387 0.941 . S
H3370 C3391 0.939 . S
O3371 P3360 1.490 . S
H3372 C3388 0.939 . S
H3373 C3390 0.940 . S
C3374 P3360 1.812 . S
C3374 C3375 1.389 . S
C3374 C3379 1.391 . S
C3375 H3361 0.941 . S
C3375 C3374 1.389 . S
C3375 C3376 1.397 . S
C3376 H3362 0.939 . S
C3376 C3375 1.397 . S
C3376 C3377 1.378 . S
C3377 C3376 1.378 . S
C3377 C3378 1.378 . S
C3378 H3363 0.940 . S
C3378 C3377 1.378 . S
C3378 C3379 1.396 . S
C3379 H3364 0.940 . S
C3379 C3374 1.391 . S
C3379 C3378 1.396 . S
C3380 P3360 1.803 . S
C3380 C3381 1.378 . S
C3380 C3385 1.400 . S
C3381 H3365 0.939 . S
C3381 C3380 1.378 . S
C3381 C3382 1.361 . S
C3382 H3366 0.942 . S
C3382 C3381 1.361 . S
C3382 C3383 1.369 . S
C3383 C3382 1.369 . S
C3383 C3384 1.404 . S
C3384 H3367 0.940 . S
C3384 C3383 1.404 . S
C3384 C3385 1.389 . S
C3385 H3368 0.939 . S
C3385 C3380 1.400 . S
C3385 C3384 1.389 . S
C3386 P3360 1.819 . S
C3386 C3387 1.391 . S
C3386 C3391 1.391 . S
C3387 H3369 0.941 . S
C3387 C3386 1.391 . S
C3387 C3388 1.396 . S
C3388 H3372 0.939 . S
C3388 C3387 1.396 . S
C3388 C3389 1.397 . S
C3389 C3388 1.397 . S
C3389 C3390 1.385 . S
C3390 H3373 0.940 . S
C3390 C3389 1.385 . S
C3390 C3391 1.388 . S
C3391 H3370 0.939 . S
C3391 C3386 1.391 . S
C3391 C3390 1.388 . S
P3392 O3403 1.490 . S
P3392 C3406 1.812 . S
P3392 C3412 1.803 . S
P3392 C3418 1.819 . S
H3393 C3407 0.941 . S
H3394 C3408 0.939 . S
H3395 C3410 0.940 . S
H3396 C3411 0.940 . S
H3397 C3413 0.939 . S
H3398 C3414 0.942 . S
H3399 C3416 0.940 . S
H3400 C3417 0.939 . S
H3401 C3419 0.941 . S
H3402 C3423 0.939 . S
O3403 P3392 1.490 . S
H3404 C3420 0.939 . S
H3405 C3422 0.940 . S
C3406 P3392 1.812 . S
C3406 C3407 1.389 . S
C3406 C3411 1.391 . S
C3407 H3393 0.941 . S
C3407 C3406 1.389 . S
C3407 C3408 1.397 . S
C3408 H3394 0.939 . S
C3408 C3407 1.397 . S
C3408 C3409 1.378 . S
C3409 C3408 1.378 . S
C3409 C3410 1.378 . S
C3410 H3395 0.940 . S
C3410 C3409 1.378 . S
C3410 C3411 1.396 . S
C3411 H3396 0.940 . S
C3411 C3406 1.391 . S
C3411 C3410 1.396 . S
C3412 P3392 1.803 . S
C3412 C3413 1.378 . S
C3412 C3417 1.400 . S
C3413 H3397 0.939 . S
C3413 C3412 1.378 . S
C3413 C3414 1.361 . S
C3414 H3398 0.942 . S
C3414 C3413 1.361 . S
C3414 C3415 1.369 . S
C3415 C3414 1.369 . S
C3415 C3416 1.404 . S
C3416 H3399 0.940 . S
C3416 C3415 1.404 . S
C3416 C3417 1.389 . S
C3417 H3400 0.939 . S
C3417 C3412 1.400 . S
C3417 C3416 1.389 . S
C3418 P3392 1.819 . S
C3418 C3419 1.391 . S
C3418 C3423 1.391 . S
C3419 H3401 0.941 . S
C3419 C3418 1.391 . S
C3419 C3420 1.396 . S
C3420 H3404 0.939 . S
C3420 C3419 1.396 . S
C3420 C3421 1.397 . S
C3421 C3420 1.397 . S
C3421 C3422 1.385 . S
C3422 H3405 0.940 . S
C3422 C3421 1.385 . S
C3422 C3423 1.388 . S
C3423 H3402 0.939 . S
C3423 C3418 1.391 . S
C3423 C3422 1.388 . S
P3424 O3435 1.490 . S
P3424 C3438 1.812 . S
P3424 C3444 1.803 . S
P3424 C3450 1.819 . S
H3425 C3439 0.941 . S
H3426 C3440 0.939 . S
H3427 C3442 0.940 . S
H3428 C3443 0.940 . S
H3429 C3445 0.939 . S
H3430 C3446 0.942 . S
H3431 C3448 0.940 . S
H3432 C3449 0.939 . S
H3433 C3451 0.941 . S
H3434 C3455 0.939 . S
O3435 P3424 1.490 . S
H3436 C3452 0.939 . S
H3437 C3454 0.940 . S
C3438 P3424 1.812 . S
C3438 C3439 1.389 . S
C3438 C3443 1.391 . S
C3439 H3425 0.941 . S
C3439 C3438 1.389 . S
C3439 C3440 1.397 . S
C3440 H3426 0.939 . S
C3440 C3439 1.397 . S
C3440 C3441 1.378 . S
C3441 C3440 1.378 . S
C3441 C3442 1.378 . S
C3442 H3427 0.940 . S
C3442 C3441 1.378 . S
C3442 C3443 1.396 . S
C3443 H3428 0.940 . S
C3443 C3438 1.391 . S
C3443 C3442 1.396 . S
C3444 P3424 1.803 . S
C3444 C3445 1.378 . S
C3444 C3449 1.400 . S
C3445 H3429 0.939 . S
C3445 C3444 1.378 . S
C3445 C3446 1.361 . S
C3446 H3430 0.942 . S
C3446 C3445 1.361 . S
C3446 C3447 1.369 . S
C3447 C3446 1.369 . S
C3447 C3448 1.404 . S
C3448 H3431 0.940 . S
C3448 C3447 1.404 . S
C3448 C3449 1.389 . S
C3449 H3432 0.939 . S
C3449 C3444 1.400 . S
C3449 C3448 1.389 . S
C3450 P3424 1.819 . S
C3450 C3451 1.391 . S
C3450 C3455 1.391 . S
C3451 H3433 0.941 . S
C3451 C3450 1.391 . S
C3451 C3452 1.396 . S
C3452 H3436 0.939 . S
C3452 C3451 1.396 . S
C3452 C3453 1.397 . S
C3453 C3452 1.397 . S
C3453 C3454 1.385 . S
C3454 H3437 0.940 . S
C3454 C3453 1.385 . S
C3454 C3455 1.388 . S
C3455 H3434 0.939 . S
C3455 C3450 1.391 . S
C3455 C3454 1.388 . S
H3456 C3462 0.930 . S
H3457 C3466 0.930 . S
H3458 C3471 0.929 . S
H3459 C3469 0.929 . S
H3460 C3464 0.929 . S
H3461 C3470 0.929 . S
C3462 H3456 0.930 . S
C3462 C3463 1.367 . S
C3462 C3470 1.378 . S
C3463 C3462 1.367 . S
C3463 C3471 1.433 . S
C3464 H3460 0.929 . S
C3464 C3466 1.378 . S
C3464 C3468 1.350 . S
C3465 C3468 1.463 . S
C3465 C3470 1.350 . S
C3465 N3473 1.427 . S
C3466 H3457 0.930 . S
C3466 C3464 1.378 . S
C3466 C3467 1.367 . S
C3467 C3466 1.367 . S
C3467 C3469 1.433 . S
C3468 C3464 1.350 . S
C3468 C3465 1.463 . S
C3468 N3472 1.427 . S
C3469 H3459 0.929 . S
C3469 C3467 1.433 . S
C3469 N3472 1.384 . S
C3470 H3461 0.929 . S
C3470 C3462 1.378 . S
C3470 C3465 1.350 . S
C3471 H3458 0.929 . S
C3471 C3463 1.433 . S
C3471 N3473 1.384 . S
N3472 C3468 1.427 . S
N3472 C3469 1.384 . S
N3473 C3465 1.427 . S
N3473 C3471 1.384 . S
H3474 C3480 0.930 . S
H3475 C3484 0.930 . S
H3476 C3489 0.929 . S
H3477 C3487 0.929 . S
H3478 C3482 0.929 . S
H3479 C3488 0.929 . S
C3480 H3474 0.930 . S
C3480 C3481 1.367 . S
C3480 C3488 1.378 . S
C3481 C3480 1.367 . S
C3481 C3489 1.433 . S
C3482 H3478 0.929 . S
C3482 C3484 1.378 . S
C3482 C3486 1.350 . S
C3483 C3486 1.463 . S
C3483 C3488 1.350 . S
C3483 N3491 1.427 . S
C3484 H3475 0.930 . S
C3484 C3482 1.378 . S
C3484 C3485 1.367 . S
C3485 C3484 1.367 . S
C3485 C3487 1.433 . S
C3486 C3482 1.350 . S
C3486 C3483 1.463 . S
C3486 N3490 1.427 . S
C3487 H3477 0.929 . S
C3487 C3485 1.433 . S
C3487 N3490 1.384 . S
C3488 H3479 0.929 . S
C3488 C3480 1.378 . S
C3488 C3483 1.350 . S
C3489 H3476 0.929 . S
C3489 C3481 1.433 . S
C3489 N3491 1.384 . S
N3490 C3486 1.427 . S
N3490 C3487 1.384 . S
N3491 C3483 1.427 . S
N3491 C3489 1.384 . S
H3492 C3498 0.930 . S
H3493 C3502 0.930 . S
H3494 C3507 0.929 . S
H3495 C3505 0.929 . S
H3496 C3500 0.929 . S
H3497 C3506 0.929 . S
C3498 H3492 0.930 . S
C3498 C3499 1.367 . S
C3498 C3506 1.378 . S
C3499 C3498 1.367 . S
C3499 C3507 1.433 . S
C3500 H3496 0.929 . S
C3500 C3502 1.378 . S
C3500 C3504 1.350 . S
C3501 C3504 1.463 . S
C3501 C3506 1.350 . S
C3501 N3509 1.427 . S
C3502 H3493 0.930 . S
C3502 C3500 1.378 . S
C3502 C3503 1.367 . S
C3503 C3502 1.367 . S
C3503 C3505 1.433 . S
C3504 C3500 1.350 . S
C3504 C3501 1.463 . S
C3504 N3508 1.427 . S
C3505 H3495 0.929 . S
C3505 C3503 1.433 . S
C3505 N3508 1.384 . S
C3506 H3497 0.929 . S
C3506 C3498 1.378 . S
C3506 C3501 1.350 . S
C3507 H3494 0.929 . S
C3507 C3499 1.433 . S
C3507 N3509 1.384 . S
N3508 C3504 1.427 . S
N3508 C3505 1.384 . S
N3509 C3501 1.427 . S
N3509 C3507 1.384 . S
H3510 C3516 0.930 . S
H3511 C3520 0.930 . S
H3512 C3525 0.929 . S
H3513 C3523 0.929 . S
H3514 C3518 0.929 . S
H3515 C3524 0.929 . S
C3516 H3510 0.930 . S
C3516 C3517 1.367 . S
C3516 C3524 1.378 . S
C3517 C3516 1.367 . S
C3517 C3525 1.433 . S
C3518 H3514 0.929 . S
C3518 C3520 1.378 . S
C3518 C3522 1.350 . S
C3519 C3522 1.463 . S
C3519 C3524 1.350 . S
C3519 N3527 1.427 . S
C3520 H3511 0.930 . S
C3520 C3518 1.378 . S
C3520 C3521 1.367 . S
C3521 C3520 1.367 . S
C3521 C3523 1.433 . S
C3522 C3518 1.350 . S
C3522 C3519 1.463 . S
C3522 N3526 1.427 . S
C3523 H3513 0.929 . S
C3523 C3521 1.433 . S
C3523 N3526 1.384 . S
C3524 H3515 0.929 . S
C3524 C3516 1.378 . S
C3524 C3519 1.350 . S
C3525 H3512 0.929 . S
C3525 C3517 1.433 . S
C3525 N3527 1.384 . S
N3526 C3522 1.427 . S
N3526 C3523 1.384 . S
N3527 C3519 1.427 . S
N3527 C3525 1.384 . S
H3528 C3534 0.930 . S
H3529 C3538 0.930 . S
H3530 C3543 0.929 . S
H3531 C3541 0.929 . S
H3532 C3536 0.929 . S
H3533 C3542 0.929 . S
C3534 H3528 0.930 . S
C3534 C3535 1.367 . S
C3534 C3542 1.378 . S
C3535 C3534 1.367 . S
C3535 C3543 1.433 . S
C3536 H3532 0.929 . S
C3536 C3538 1.378 . S
C3536 C3540 1.350 . S
C3537 C3540 1.463 . S
C3537 C3542 1.350 . S
C3537 N3545 1.427 . S
C3538 H3529 0.930 . S
C3538 C3536 1.378 . S
C3538 C3539 1.367 . S
C3539 C3538 1.367 . S
C3539 C3541 1.433 . S
C3540 C3536 1.350 . S
C3540 C3537 1.463 . S
C3540 N3544 1.427 . S
C3541 H3531 0.929 . S
C3541 C3539 1.433 . S
C3541 N3544 1.384 . S
C3542 H3533 0.929 . S
C3542 C3534 1.378 . S
C3542 C3537 1.350 . S
C3543 H3530 0.929 . S
C3543 C3535 1.433 . S
C3543 N3545 1.384 . S
N3544 C3540 1.427 . S
N3544 C3541 1.384 . S
N3545 C3537 1.427 . S
N3545 C3543 1.384 . S
H3546 C3552 0.930 . S
H3547 C3556 0.930 . S
H3548 C3561 0.929 . S
H3549 C3559 0.929 . S
H3550 C3554 0.929 . S
H3551 C3560 0.929 . S
C3552 H3546 0.930 . S
C3552 C3553 1.367 . S
C3552 C3560 1.378 . S
C3553 C3552 1.367 . S
C3553 C3561 1.433 . S
C3554 H3550 0.929 . S
C3554 C3556 1.378 . S
C3554 C3558 1.350 . S
C3555 C3558 1.463 . S
C3555 C3560 1.350 . S
C3555 N3563 1.427 . S
C3556 H3547 0.930 . S
C3556 C3554 1.378 . S
C3556 C3557 1.367 . S
C3557 C3556 1.367 . S
C3557 C3559 1.433 . S
C3558 C3554 1.350 . S
C3558 C3555 1.463 . S
C3558 N3562 1.427 . S
C3559 H3549 0.929 . S
C3559 C3557 1.433 . S
C3559 N3562 1.384 . S
C3560 H3551 0.929 . S
C3560 C3552 1.378 . S
C3560 C3555 1.350 . S
C3561 H3548 0.929 . S
C3561 C3553 1.433 . S
C3561 N3563 1.384 . S
N3562 C3558 1.427 . S
N3562 C3559 1.384 . S
N3563 C3555 1.427 . S
N3563 C3561 1.384 . S
H3564 C3570 0.930 . S
H3565 C3574 0.930 . S
H3566 C3579 0.929 . S
H3567 C3577 0.929 . S
H3568 C3572 0.929 . S
H3569 C3578 0.929 . S
C3570 H3564 0.930 . S
C3570 C3571 1.367 . S
C3570 C3578 1.378 . S
C3571 C3570 1.367 . S
C3571 C3579 1.433 . S
C3572 H3568 0.929 . S
C3572 C3574 1.378 . S
C3572 C3576 1.350 . S
C3573 C3576 1.463 . S
C3573 C3578 1.350 . S
C3573 N3581 1.427 . S
C3574 H3565 0.930 . S
C3574 C3572 1.378 . S
C3574 C3575 1.367 . S
C3575 C3574 1.367 . S
C3575 C3577 1.433 . S
C3576 C3572 1.350 . S
C3576 C3573 1.463 . S
C3576 N3580 1.427 . S
C3577 H3567 0.929 . S
C3577 C3575 1.433 . S
C3577 N3580 1.384 . S
C3578 H3569 0.929 . S
C3578 C3570 1.378 . S
C3578 C3573 1.350 . S
C3579 H3566 0.929 . S
C3579 C3571 1.433 . S
C3579 N3581 1.384 . S
N3580 C3576 1.427 . S
N3580 C3577 1.384 . S
N3581 C3573 1.427 . S
N3581 C3579 1.384 . S
H3582 C3588 0.930 . S
H3583 C3592 0.930 . S
H3584 C3597 0.929 . S
H3585 C3595 0.929 . S
H3586 C3590 0.929 . S
H3587 C3596 0.929 . S
C3588 H3582 0.930 . S
C3588 C3589 1.367 . S
C3588 C3596 1.378 . S
C3589 C3588 1.367 . S
C3589 C3597 1.433 . S
C3590 H3586 0.929 . S
C3590 C3592 1.378 . S
C3590 C3594 1.350 . S
C3591 C3594 1.463 . S
C3591 C3596 1.350 . S
C3591 N3599 1.427 . S
C3592 H3583 0.930 . S
C3592 C3590 1.378 . S
C3592 C3593 1.367 . S
C3593 C3592 1.367 . S
C3593 C3595 1.433 . S
C3594 C3590 1.350 . S
C3594 C3591 1.463 . S
C3594 N3598 1.427 . S
C3595 H3585 0.929 . S
C3595 C3593 1.433 . S
C3595 N3598 1.384 . S
C3596 H3587 0.929 . S
C3596 C3588 1.378 . S
C3596 C3591 1.350 . S
C3597 H3584 0.929 . S
C3597 C3589 1.433 . S
C3597 N3599 1.384 . S
N3598 C3594 1.427 . S
N3598 C3595 1.384 . S
N3599 C3591 1.427 . S
N3599 C3597 1.384 . S
H3600 C3606 0.930 . S
H3601 C3610 0.930 . S
H3602 C3615 0.929 . S
H3603 C3613 0.929 . S
H3604 C3608 0.929 . S
H3605 C3614 0.929 . S
C3606 H3600 0.930 . S
C3606 C3607 1.367 . S
C3606 C3614 1.378 . S
C3607 C3606 1.367 . S
C3607 C3615 1.433 . S
C3608 H3604 0.929 . S
C3608 C3610 1.378 . S
C3608 C3612 1.350 . S
C3609 C3612 1.463 . S
C3609 C3614 1.350 . S
C3609 N3617 1.427 . S
C3610 H3601 0.930 . S
C3610 C3608 1.378 . S
C3610 C3611 1.367 . S
C3611 C3610 1.367 . S
C3611 C3613 1.433 . S
C3612 C3608 1.350 . S
C3612 C3609 1.463 . S
C3612 N3616 1.427 . S
C3613 H3603 0.929 . S
C3613 C3611 1.433 . S
C3613 N3616 1.384 . S
C3614 H3605 0.929 . S
C3614 C3606 1.378 . S
C3614 C3609 1.350 . S
C3615 H3602 0.929 . S
C3615 C3607 1.433 . S
C3615 N3617 1.384 . S
N3616 C3612 1.427 . S
N3616 C3613 1.384 . S
N3617 C3609 1.427 . S
N3617 C3615 1.384 . S
H3618 C3624 0.930 . S
H3619 C3628 0.930 . S
H3620 C3633 0.929 . S
H3621 C3631 0.929 . S
H3622 C3626 0.929 . S
H3623 C3632 0.929 . S
C3624 H3618 0.930 . S
C3624 C3625 1.367 . S
C3624 C3632 1.378 . S
C3625 C3624 1.367 . S
C3625 C3633 1.433 . S
C3626 H3622 0.929 . S
C3626 C3628 1.378 . S
C3626 C3630 1.350 . S
C3627 C3630 1.463 . S
C3627 C3632 1.350 . S
C3627 N3635 1.427 . S
C3628 H3619 0.930 . S
C3628 C3626 1.378 . S
C3628 C3629 1.367 . S
C3629 C3628 1.367 . S
C3629 C3631 1.433 . S
C3630 C3626 1.350 . S
C3630 C3627 1.463 . S
C3630 N3634 1.427 . S
C3631 H3621 0.929 . S
C3631 C3629 1.433 . S
C3631 N3634 1.384 . S
C3632 H3623 0.929 . S
C3632 C3624 1.378 . S
C3632 C3627 1.350 . S
C3633 H3620 0.929 . S
C3633 C3625 1.433 . S
C3633 N3635 1.384 . S
N3634 C3630 1.427 . S
N3634 C3631 1.384 . S
N3635 C3627 1.427 . S
N3635 C3633 1.384 . S
H3636 C3642 0.930 . S
H3637 C3646 0.930 . S
H3638 C3651 0.929 . S
H3639 C3649 0.929 . S
H3640 C3644 0.929 . S
H3641 C3650 0.929 . S
C3642 H3636 0.930 . S
C3642 C3643 1.367 . S
C3642 C3650 1.378 . S
C3643 C3642 1.367 . S
C3643 C3651 1.433 . S
C3644 H3640 0.929 . S
C3644 C3646 1.378 . S
C3644 C3648 1.350 . S
C3645 C3648 1.463 . S
C3645 C3650 1.350 . S
C3645 N3653 1.427 . S
C3646 H3637 0.930 . S
C3646 C3644 1.378 . S
C3646 C3647 1.367 . S
C3647 C3646 1.367 . S
C3647 C3649 1.433 . S
C3648 C3644 1.350 . S
C3648 C3645 1.463 . S
C3648 N3652 1.427 . S
C3649 H3639 0.929 . S
C3649 C3647 1.433 . S
C3649 N3652 1.384 . S
C3650 H3641 0.929 . S
C3650 C3642 1.378 . S
C3650 C3645 1.350 . S
C3651 H3638 0.929 . S
C3651 C3643 1.433 . S
C3651 N3653 1.384 . S
N3652 C3648 1.427 . S
N3652 C3649 1.384 . S
N3653 C3645 1.427 . S
N3653 C3651 1.384 . S
H3654 C3660 0.930 . S
H3655 C3664 0.930 . S
H3656 C3669 0.929 . S
H3657 C3667 0.929 . S
H3658 C3662 0.929 . S
H3659 C3668 0.929 . S
C3660 H3654 0.930 . S
C3660 C3661 1.367 . S
C3660 C3668 1.378 . S
C3661 C3660 1.367 . S
C3661 C3669 1.433 . S
C3662 H3658 0.929 . S
C3662 C3664 1.378 . S
C3662 C3666 1.350 . S
C3663 C3666 1.463 . S
C3663 C3668 1.350 . S
C3663 N3671 1.427 . S
C3664 H3655 0.930 . S
C3664 C3662 1.378 . S
C3664 C3665 1.367 . S
C3665 C3664 1.367 . S
C3665 C3667 1.433 . S
C3666 C3662 1.350 . S
C3666 C3663 1.463 . S
C3666 N3670 1.427 . S
C3667 H3657 0.929 . S
C3667 C3665 1.433 . S
C3667 N3670 1.384 . S
C3668 H3659 0.929 . S
C3668 C3660 1.378 . S
C3668 C3663 1.350 . S
C3669 H3656 0.929 . S
C3669 C3661 1.433 . S
C3669 N3671 1.384 . S
N3670 C3666 1.427 . S
N3670 C3667 1.384 . S
N3671 C3663 1.427 . S
N3671 C3669 1.384 . S
H3672 C3678 0.930 . S
H3673 C3682 0.930 . S
H3674 C3687 0.929 . S
H3675 C3685 0.929 . S
H3676 C3680 0.929 . S
H3677 C3686 0.929 . S
C3678 H3672 0.930 . S
C3678 C3679 1.367 . S
C3678 C3686 1.378 . S
C3679 C3678 1.367 . S
C3679 C3687 1.433 . S
C3680 H3676 0.929 . S
C3680 C3682 1.378 . S
C3680 C3684 1.350 . S
C3681 C3684 1.463 . S
C3681 C3686 1.350 . S
C3681 N3689 1.427 . S
C3682 H3673 0.930 . S
C3682 C3680 1.378 . S
C3682 C3683 1.367 . S
C3683 C3682 1.367 . S
C3683 C3685 1.433 . S
C3684 C3680 1.350 . S
C3684 C3681 1.463 . S
C3684 N3688 1.427 . S
C3685 H3675 0.929 . S
C3685 C3683 1.433 . S
C3685 N3688 1.384 . S
C3686 H3677 0.929 . S
C3686 C3678 1.378 . S
C3686 C3681 1.350 . S
C3687 H3674 0.929 . S
C3687 C3679 1.433 . S
C3687 N3689 1.384 . S
N3688 C3684 1.427 . S
N3688 C3685 1.384 . S
N3689 C3681 1.427 . S
N3689 C3687 1.384 . S
H3690 C3696 0.930 . S
H3691 C3700 0.930 . S
H3692 C3705 0.929 . S
H3693 C3703 0.929 . S
H3694 C3698 0.929 . S
H3695 C3704 0.929 . S
C3696 H3690 0.930 . S
C3696 C3697 1.367 . S
C3696 C3704 1.378 . S
C3697 C3696 1.367 . S
C3697 C3705 1.433 . S
C3698 H3694 0.929 . S
C3698 C3700 1.378 . S
C3698 C3702 1.350 . S
C3699 C3702 1.463 . S
C3699 C3704 1.350 . S
C3699 N3707 1.427 . S
C3700 H3691 0.930 . S
C3700 C3698 1.378 . S
C3700 C3701 1.367 . S
C3701 C3700 1.367 . S
C3701 C3703 1.433 . S
C3702 C3698 1.350 . S
C3702 C3699 1.463 . S
C3702 N3706 1.427 . S
C3703 H3693 0.929 . S
C3703 C3701 1.433 . S
C3703 N3706 1.384 . S
C3704 H3695 0.929 . S
C3704 C3696 1.378 . S
C3704 C3699 1.350 . S
C3705 H3692 0.929 . S
C3705 C3697 1.433 . S
C3705 N3707 1.384 . S
N3706 C3702 1.427 . S
N3706 C3703 1.384 . S
N3707 C3699 1.427 . S
N3707 C3705 1.384 . S
H3708 C3714 0.930 . S
H3709 C3718 0.930 . S
H3710 C3723 0.929 . S
H3711 C3721 0.929 . S
H3712 C3716 0.929 . S
H3713 C3722 0.929 . S
C3714 H3708 0.930 . S
C3714 C3715 1.367 . S
C3714 C3722 1.378 . S
C3715 C3714 1.367 . S
C3715 C3723 1.433 . S
C3716 H3712 0.929 . S
C3716 C3718 1.378 . S
C3716 C3720 1.350 . S
C3717 C3720 1.463 . S
C3717 C3722 1.350 . S
C3717 N3725 1.427 . S
C3718 H3709 0.930 . S
C3718 C3716 1.378 . S
C3718 C3719 1.367 . S
C3719 C3718 1.367 . S
C3719 C3721 1.433 . S
C3720 C3716 1.350 . S
C3720 C3717 1.463 . S
C3720 N3724 1.427 . S
C3721 H3711 0.929 . S
C3721 C3719 1.433 . S
C3721 N3724 1.384 . S
C3722 H3713 0.929 . S
C3722 C3714 1.378 . S
C3722 C3717 1.350 . S
C3723 H3710 0.929 . S
C3723 C3715 1.433 . S
C3723 N3725 1.384 . S
N3724 C3720 1.427 . S
N3724 C3721 1.384 . S
N3725 C3717 1.427 . S
N3725 C3723 1.384 . S
H3726 C3732 0.930 . S
H3727 C3736 0.930 . S
H3728 C3741 0.929 . S
H3729 C3739 0.929 . S
H3730 C3734 0.929 . S
H3731 C3740 0.929 . S
C3732 H3726 0.930 . S
C3732 C3733 1.367 . S
C3732 C3740 1.378 . S
C3733 C3732 1.367 . S
C3733 C3741 1.433 . S
C3734 H3730 0.929 . S
C3734 C3736 1.378 . S
C3734 C3738 1.350 . S
C3735 C3738 1.463 . S
C3735 C3740 1.350 . S
C3735 N3743 1.427 . S
C3736 H3727 0.930 . S
C3736 C3734 1.378 . S
C3736 C3737 1.367 . S
C3737 C3736 1.367 . S
C3737 C3739 1.433 . S
C3738 C3734 1.350 . S
C3738 C3735 1.463 . S
C3738 N3742 1.427 . S
C3739 H3729 0.929 . S
C3739 C3737 1.433 . S
C3739 N3742 1.384 . S
C3740 H3731 0.929 . S
C3740 C3732 1.378 . S
C3740 C3735 1.350 . S
C3741 H3728 0.929 . S
C3741 C3733 1.433 . S
C3741 N3743 1.384 . S
N3742 C3738 1.427 . S
N3742 C3739 1.384 . S
N3743 C3735 1.427 . S
N3743 C3741 1.384 . S
H3744 C3750 0.930 . S
H3745 C3754 0.930 . S
H3746 C3759 0.929 . S
H3747 C3757 0.929 . S
H3748 C3752 0.929 . S
H3749 C3758 0.929 . S
C3750 H3744 0.930 . S
C3750 C3751 1.367 . S
C3750 C3758 1.378 . S
C3751 C3750 1.367 . S
C3751 C3759 1.433 . S
C3752 H3748 0.929 . S
C3752 C3754 1.378 . S
C3752 C3756 1.350 . S
C3753 C3756 1.463 . S
C3753 C3758 1.350 . S
C3753 N3761 1.427 . S
C3754 H3745 0.930 . S
C3754 C3752 1.378 . S
C3754 C3755 1.367 . S
C3755 C3754 1.367 . S
C3755 C3757 1.433 . S
C3756 C3752 1.350 . S
C3756 C3753 1.463 . S
C3756 N3760 1.427 . S
C3757 H3747 0.929 . S
C3757 C3755 1.433 . S
C3757 N3760 1.384 . S
C3758 H3749 0.929 . S
C3758 C3750 1.378 . S
C3758 C3753 1.350 . S
C3759 H3746 0.929 . S
C3759 C3751 1.433 . S
C3759 N3761 1.384 . S
N3760 C3756 1.427 . S
N3760 C3757 1.384 . S
N3761 C3753 1.427 . S
N3761 C3759 1.384 . S
H3762 C3768 0.930 . S
H3763 C3772 0.930 . S
H3764 C3777 0.929 . S
H3765 C3775 0.929 . S
H3766 C3770 0.929 . S
H3767 C3776 0.929 . S
C3768 H3762 0.930 . S
C3768 C3769 1.367 . S
C3768 C3776 1.378 . S
C3769 C3768 1.367 . S
C3769 C3777 1.433 . S
C3770 H3766 0.929 . S
C3770 C3772 1.378 . S
C3770 C3774 1.350 . S
C3771 C3774 1.463 . S
C3771 C3776 1.350 . S
C3771 N3779 1.427 . S
C3772 H3763 0.930 . S
C3772 C3770 1.378 . S
C3772 C3773 1.367 . S
C3773 C3772 1.367 . S
C3773 C3775 1.433 . S
C3774 C3770 1.350 . S
C3774 C3771 1.463 . S
C3774 N3778 1.427 . S
C3775 H3765 0.929 . S
C3775 C3773 1.433 . S
C3775 N3778 1.384 . S
C3776 H3767 0.929 . S
C3776 C3768 1.378 . S
C3776 C3771 1.350 . S
C3777 H3764 0.929 . S
C3777 C3769 1.433 . S
C3777 N3779 1.384 . S
N3778 C3774 1.427 . S
N3778 C3775 1.384 . S
N3779 C3771 1.427 . S
N3779 C3777 1.384 . S
H3780 C3786 0.930 . S
H3781 C3790 0.930 . S
H3782 C3795 0.929 . S
H3783 C3793 0.929 . S
H3784 C3788 0.929 . S
H3785 C3794 0.929 . S
C3786 H3780 0.930 . S
C3786 C3787 1.367 . S
C3786 C3794 1.378 . S
C3787 C3786 1.367 . S
C3787 C3795 1.433 . S
C3788 H3784 0.929 . S
C3788 C3790 1.378 . S
C3788 C3792 1.350 . S
C3789 C3792 1.463 . S
C3789 C3794 1.350 . S
C3789 N3797 1.427 . S
C3790 H3781 0.930 . S
C3790 C3788 1.378 . S
C3790 C3791 1.367 . S
C3791 C3790 1.367 . S
C3791 C3793 1.433 . S
C3792 C3788 1.350 . S
C3792 C3789 1.463 . S
C3792 N3796 1.427 . S
C3793 H3783 0.929 . S
C3793 C3791 1.433 . S
C3793 N3796 1.384 . S
C3794 H3785 0.929 . S
C3794 C3786 1.378 . S
C3794 C3789 1.350 . S
C3795 H3782 0.929 . S
C3795 C3787 1.433 . S
C3795 N3797 1.384 . S
N3796 C3792 1.427 . S
N3796 C3793 1.384 . S
N3797 C3789 1.427 . S
N3797 C3795 1.384 . S
H3798 C3804 0.930 . S
H3799 C3808 0.930 . S
H3800 C3813 0.929 . S
H3801 C3811 0.929 . S
H3802 C3806 0.929 . S
H3803 C3812 0.929 . S
C3804 H3798 0.930 . S
C3804 C3805 1.367 . S
C3804 C3812 1.378 . S
C3805 C3804 1.367 . S
C3805 C3813 1.433 . S
C3806 H3802 0.929 . S
C3806 C3808 1.378 . S
C3806 C3810 1.350 . S
C3807 C3810 1.463 . S
C3807 C3812 1.350 . S
C3807 N3815 1.427 . S
C3808 H3799 0.930 . S
C3808 C3806 1.378 . S
C3808 C3809 1.367 . S
C3809 C3808 1.367 . S
C3809 C3811 1.433 . S
C3810 C3806 1.350 . S
C3810 C3807 1.463 . S
C3810 N3814 1.427 . S
C3811 H3801 0.929 . S
C3811 C3809 1.433 . S
C3811 N3814 1.384 . S
C3812 H3803 0.929 . S
C3812 C3804 1.378 . S
C3812 C3807 1.350 . S
C3813 H3800 0.929 . S
C3813 C3805 1.433 . S
C3813 N3815 1.384 . S
N3814 C3810 1.427 . S
N3814 C3811 1.384 . S
N3815 C3807 1.427 . S
N3815 C3813 1.384 . S
H3816 C3822 0.930 . S
H3817 C3826 0.930 . S
H3818 C3831 0.929 . S
H3819 C3829 0.929 . S
H3820 C3824 0.929 . S
H3821 C3830 0.929 . S
C3822 H3816 0.930 . S
C3822 C3823 1.367 . S
C3822 C3830 1.378 . S
C3823 C3822 1.367 . S
C3823 C3831 1.433 . S
C3824 H3820 0.929 . S
C3824 C3826 1.378 . S
C3824 C3828 1.350 . S
C3825 C3828 1.463 . S
C3825 C3830 1.350 . S
C3825 N3833 1.427 . S
C3826 H3817 0.930 . S
C3826 C3824 1.378 . S
C3826 C3827 1.367 . S
C3827 C3826 1.367 . S
C3827 C3829 1.433 . S
C3828 C3824 1.350 . S
C3828 C3825 1.463 . S
C3828 N3832 1.427 . S
C3829 H3819 0.929 . S
C3829 C3827 1.433 . S
C3829 N3832 1.384 . S
C3830 H3821 0.929 . S
C3830 C3822 1.378 . S
C3830 C3825 1.350 . S
C3831 H3818 0.929 . S
C3831 C3823 1.433 . S
C3831 N3833 1.384 . S
N3832 C3828 1.427 . S
N3832 C3829 1.384 . S
N3833 C3825 1.427 . S
N3833 C3831 1.384 . S
H3834 C3840 0.930 . S
H3835 C3844 0.930 . S
H3836 C3849 0.929 . S
H3837 C3847 0.929 . S
H3838 C3842 0.929 . S
H3839 C3848 0.929 . S
C3840 H3834 0.930 . S
C3840 C3841 1.367 . S
C3840 C3848 1.378 . S
C3841 C3840 1.367 . S
C3841 C3849 1.433 . S
C3842 H3838 0.929 . S
C3842 C3844 1.378 . S
C3842 C3846 1.350 . S
C3843 C3846 1.463 . S
C3843 C3848 1.350 . S
C3843 N3851 1.427 . S
C3844 H3835 0.930 . S
C3844 C3842 1.378 . S
C3844 C3845 1.367 . S
C3845 C3844 1.367 . S
C3845 C3847 1.433 . S
C3846 C3842 1.350 . S
C3846 C3843 1.463 . S
C3846 N3850 1.427 . S
C3847 H3837 0.929 . S
C3847 C3845 1.433 . S
C3847 N3850 1.384 . S
C3848 H3839 0.929 . S
C3848 C3840 1.378 . S
C3848 C3843 1.350 . S
C3849 H3836 0.929 . S
C3849 C3841 1.433 . S
C3849 N3851 1.384 . S
N3850 C3846 1.427 . S
N3850 C3847 1.384 . S
N3851 C3843 1.427 . S
N3851 C3849 1.384 . S
H3852 C3858 0.930 . S
H3853 C3862 0.930 . S
H3854 C3867 0.929 . S
H3855 C3865 0.929 . S
H3856 C3860 0.929 . S
H3857 C3866 0.929 . S
C3858 H3852 0.930 . S
C3858 C3859 1.367 . S
C3858 C3866 1.378 . S
C3859 C3858 1.367 . S
C3859 C3867 1.433 . S
C3860 H3856 0.929 . S
C3860 C3862 1.378 . S
C3860 C3864 1.350 . S
C3861 C3864 1.463 . S
C3861 C3866 1.350 . S
C3861 N3869 1.427 . S
C3862 H3853 0.930 . S
C3862 C3860 1.378 . S
C3862 C3863 1.367 . S
C3863 C3862 1.367 . S
C3863 C3865 1.433 . S
C3864 C3860 1.350 . S
C3864 C3861 1.463 . S
C3864 N3868 1.427 . S
C3865 H3855 0.929 . S
C3865 C3863 1.433 . S
C3865 N3868 1.384 . S
C3866 H3857 0.929 . S
C3866 C3858 1.378 . S
C3866 C3861 1.350 . S
C3867 H3854 0.929 . S
C3867 C3859 1.433 . S
C3867 N3869 1.384 . S
N3868 C3864 1.427 . S
N3868 C3865 1.384 . S
N3869 C3861 1.427 . S
N3869 C3867 1.384 . S
H3870 C3876 0.930 . S
H3871 C3880 0.930 . S
H3872 C3885 0.929 . S
H3873 C3883 0.929 . S
H3874 C3878 0.929 . S
H3875 C3884 0.929 . S
C3876 H3870 0.930 . S
C3876 C3877 1.367 . S
C3876 C3884 1.378 . S
C3877 C3876 1.367 . S
C3877 C3885 1.433 . S
C3878 H3874 0.929 . S
C3878 C3880 1.378 . S
C3878 C3882 1.350 . S
C3879 C3882 1.463 . S
C3879 C3884 1.350 . S
C3879 N3887 1.427 . S
C3880 H3871 0.930 . S
C3880 C3878 1.378 . S
C3880 C3881 1.367 . S
C3881 C3880 1.367 . S
C3881 C3883 1.433 . S
C3882 C3878 1.350 . S
C3882 C3879 1.463 . S
C3882 N3886 1.427 . S
C3883 H3873 0.929 . S
C3883 C3881 1.433 . S
C3883 N3886 1.384 . S
C3884 H3875 0.929 . S
C3884 C3876 1.378 . S
C3884 C3879 1.350 . S
C3885 H3872 0.929 . S
C3885 C3877 1.433 . S
C3885 N3887 1.384 . S
N3886 C3882 1.427 . S
N3886 C3883 1.384 . S
N3887 C3879 1.427 . S
N3887 C3885 1.384 . S
H3888 C3894 0.930 . S
H3889 C3898 0.930 . S
H3890 C3903 0.929 . S
H3891 C3901 0.929 . S
H3892 C3896 0.929 . S
H3893 C3902 0.929 . S
C3894 H3888 0.930 . S
C3894 C3895 1.367 . S
C3894 C3902 1.378 . S
C3895 C3894 1.367 . S
C3895 C3903 1.433 . S
C3896 H3892 0.929 . S
C3896 C3898 1.378 . S
C3896 C3900 1.350 . S
C3897 C3900 1.463 . S
C3897 C3902 1.350 . S
C3897 N3905 1.427 . S
C3898 H3889 0.930 . S
C3898 C3896 1.378 . S
C3898 C3899 1.367 . S
C3899 C3898 1.367 . S
C3899 C3901 1.433 . S
C3900 C3896 1.350 . S
C3900 C3897 1.463 . S
C3900 N3904 1.427 . S
C3901 H3891 0.929 . S
C3901 C3899 1.433 . S
C3901 N3904 1.384 . S
C3902 H3893 0.929 . S
C3902 C3894 1.378 . S
C3902 C3897 1.350 . S
C3903 H3890 0.929 . S
C3903 C3895 1.433 . S
C3903 N3905 1.384 . S
N3904 C3900 1.427 . S
N3904 C3901 1.384 . S
N3905 C3897 1.427 . S
N3905 C3903 1.384 . S
H3906 C3912 0.930 . S
H3907 C3916 0.930 . S
H3908 C3921 0.929 . S
H3909 C3919 0.929 . S
H3910 C3914 0.929 . S
H3911 C3920 0.929 . S
C3912 H3906 0.930 . S
C3912 C3913 1.367 . S
C3912 C3920 1.378 . S
C3913 C3912 1.367 . S
C3913 C3921 1.433 . S
C3914 H3910 0.929 . S
C3914 C3916 1.378 . S
C3914 C3918 1.350 . S
C3915 C3918 1.463 . S
C3915 C3920 1.350 . S
C3915 N3923 1.427 . S
C3916 H3907 0.930 . S
C3916 C3914 1.378 . S
C3916 C3917 1.367 . S
C3917 C3916 1.367 . S
C3917 C3919 1.433 . S
C3918 C3914 1.350 . S
C3918 C3915 1.463 . S
C3918 N3922 1.427 . S
C3919 H3909 0.929 . S
C3919 C3917 1.433 . S
C3919 N3922 1.384 . S
C3920 H3911 0.929 . S
C3920 C3912 1.378 . S
C3920 C3915 1.350 . S
C3921 H3908 0.929 . S
C3921 C3913 1.433 . S
C3921 N3923 1.384 . S
N3922 C3918 1.427 . S
N3922 C3919 1.384 . S
N3923 C3915 1.427 . S
N3923 C3921 1.384 . S
H3924 C3930 0.930 . S
H3925 C3934 0.930 . S
H3926 C3939 0.929 . S
H3927 C3937 0.929 . S
H3928 C3932 0.929 . S
H3929 C3938 0.929 . S
C3930 H3924 0.930 . S
C3930 C3931 1.367 . S
C3930 C3938 1.378 . S
C3931 C3930 1.367 . S
C3931 C3939 1.433 . S
C3932 H3928 0.929 . S
C3932 C3934 1.378 . S
C3932 C3936 1.350 . S
C3933 C3936 1.463 . S
C3933 C3938 1.350 . S
C3933 N3941 1.427 . S
C3934 H3925 0.930 . S
C3934 C3932 1.378 . S
C3934 C3935 1.367 . S
C3935 C3934 1.367 . S
C3935 C3937 1.433 . S
C3936 C3932 1.350 . S
C3936 C3933 1.463 . S
C3936 N3940 1.427 . S
C3937 H3927 0.929 . S
C3937 C3935 1.433 . S
C3937 N3940 1.384 . S
C3938 H3929 0.929 . S
C3938 C3930 1.378 . S
C3938 C3933 1.350 . S
C3939 H3926 0.929 . S
C3939 C3931 1.433 . S
C3939 N3941 1.384 . S
N3940 C3936 1.427 . S
N3940 C3937 1.384 . S
N3941 C3933 1.427 . S
N3941 C3939 1.384 . S
H3942 C3948 0.930 . S
H3943 C3952 0.930 . S
H3944 C3957 0.929 . S
H3945 C3955 0.929 . S
H3946 C3950 0.929 . S
H3947 C3956 0.929 . S
C3948 H3942 0.930 . S
C3948 C3949 1.367 . S
C3948 C3956 1.378 . S
C3949 C3948 1.367 . S
C3949 C3957 1.433 . S
C3950 H3946 0.929 . S
C3950 C3952 1.378 . S
C3950 C3954 1.350 . S
C3951 C3954 1.463 . S
C3951 C3956 1.350 . S
C3951 N3959 1.427 . S
C3952 H3943 0.930 . S
C3952 C3950 1.378 . S
C3952 C3953 1.367 . S
C3953 C3952 1.367 . S
C3953 C3955 1.433 . S
C3954 C3950 1.350 . S
C3954 C3951 1.463 . S
C3954 N3958 1.427 . S
C3955 H3945 0.929 . S
C3955 C3953 1.433 . S
C3955 N3958 1.384 . S
C3956 H3947 0.929 . S
C3956 C3948 1.378 . S
C3956 C3951 1.350 . S
C3957 H3944 0.929 . S
C3957 C3949 1.433 . S
C3957 N3959 1.384 . S
N3958 C3954 1.427 . S
N3958 C3955 1.384 . S
N3959 C3951 1.427 . S
N3959 C3957 1.384 . S
H3960 C3966 0.930 . S
H3961 C3970 0.930 . S
H3962 C3975 0.929 . S
H3963 C3973 0.929 . S
H3964 C3968 0.929 . S
H3965 C3974 0.929 . S
C3966 H3960 0.930 . S
C3966 C3967 1.367 . S
C3966 C3974 1.378 . S
C3967 C3966 1.367 . S
C3967 C3975 1.433 . S
C3968 H3964 0.929 . S
C3968 C3970 1.378 . S
C3968 C3972 1.350 . S
C3969 C3972 1.463 . S
C3969 C3974 1.350 . S
C3969 N3977 1.427 . S
C3970 H3961 0.930 . S
C3970 C3968 1.378 . S
C3970 C3971 1.367 . S
C3971 C3970 1.367 . S
C3971 C3973 1.433 . S
C3972 C3968 1.350 . S
C3972 C3969 1.463 . S
C3972 N3976 1.427 . S
C3973 H3963 0.929 . S
C3973 C3971 1.433 . S
C3973 N3976 1.384 . S
C3974 H3965 0.929 . S
C3974 C3966 1.378 . S
C3974 C3969 1.350 . S
C3975 H3962 0.929 . S
C3975 C3967 1.433 . S
C3975 N3977 1.384 . S
N3976 C3972 1.427 . S
N3976 C3973 1.384 . S
N3977 C3969 1.427 . S
N3977 C3975 1.384 . S
H3978 C3984 0.930 . S
H3979 C3988 0.930 . S
H3980 C3993 0.929 . S
H3981 C3991 0.929 . S
H3982 C3986 0.929 . S
H3983 C3992 0.929 . S
C3984 H3978 0.930 . S
C3984 C3985 1.367 . S
C3984 C3992 1.378 . S
C3985 C3984 1.367 . S
C3985 C3993 1.433 . S
C3986 H3982 0.929 . S
C3986 C3988 1.378 . S
C3986 C3990 1.350 . S
C3987 C3990 1.463 . S
C3987 C3992 1.350 . S
C3987 N3995 1.427 . S
C3988 H3979 0.930 . S
C3988 C3986 1.378 . S
C3988 C3989 1.367 . S
C3989 C3988 1.367 . S
C3989 C3991 1.433 . S
C3990 C3986 1.350 . S
C3990 C3987 1.463 . S
C3990 N3994 1.427 . S
C3991 H3981 0.929 . S
C3991 C3989 1.433 . S
C3991 N3994 1.384 . S
C3992 H3983 0.929 . S
C3992 C3984 1.378 . S
C3992 C3987 1.350 . S
C3993 H3980 0.929 . S
C3993 C3985 1.433 . S
C3993 N3995 1.384 . S
N3994 C3990 1.427 . S
N3994 C3991 1.384 . S
N3995 C3987 1.427 . S
N3995 C3993 1.384 . S
H3996 C4002 0.930 . S
H3997 C4006 0.930 . S
H3998 C4011 0.929 . S
H3999 C4009 0.929 . S
H4000 C4004 0.929 . S
H4001 C4010 0.929 . S
C4002 H3996 0.930 . S
C4002 C4003 1.367 . S
C4002 C4010 1.378 . S
C4003 C4002 1.367 . S
C4003 C4011 1.433 . S
C4004 H4000 0.929 . S
C4004 C4006 1.378 . S
C4004 C4008 1.350 . S
C4005 C4008 1.463 . S
C4005 C4010 1.350 . S
C4005 N4013 1.427 . S
C4006 H3997 0.930 . S
C4006 C4004 1.378 . S
C4006 C4007 1.367 . S
C4007 C4006 1.367 . S
C4007 C4009 1.433 . S
C4008 C4004 1.350 . S
C4008 C4005 1.463 . S
C4008 N4012 1.427 . S
C4009 H3999 0.929 . S
C4009 C4007 1.433 . S
C4009 N4012 1.384 . S
C4010 H4001 0.929 . S
C4010 C4002 1.378 . S
C4010 C4005 1.350 . S
C4011 H3998 0.929 . S
C4011 C4003 1.433 . S
C4011 N4013 1.384 . S
N4012 C4008 1.427 . S
N4012 C4009 1.384 . S
N4013 C4005 1.427 . S
N4013 C4011 1.384 . S
H4014 C4020 0.930 . S
H4015 C4024 0.930 . S
H4016 C4029 0.929 . S
H4017 C4027 0.929 . S
H4018 C4022 0.929 . S
H4019 C4028 0.929 . S
C4020 H4014 0.930 . S
C4020 C4021 1.367 . S
C4020 C4028 1.378 . S
C4021 C4020 1.367 . S
C4021 C4029 1.433 . S
C4022 H4018 0.929 . S
C4022 C4024 1.378 . S
C4022 C4026 1.350 . S
C4023 C4026 1.463 . S
C4023 C4028 1.350 . S
C4023 N4031 1.427 . S
C4024 H4015 0.930 . S
C4024 C4022 1.378 . S
C4024 C4025 1.367 . S
C4025 C4024 1.367 . S
C4025 C4027 1.433 . S
C4026 C4022 1.350 . S
C4026 C4023 1.463 . S
C4026 N4030 1.427 . S
C4027 H4017 0.929 . S
C4027 C4025 1.433 . S
C4027 N4030 1.384 . S
C4028 H4019 0.929 . S
C4028 C4020 1.378 . S
C4028 C4023 1.350 . S
C4029 H4016 0.929 . S
C4029 C4021 1.433 . S
C4029 N4031 1.384 . S
N4030 C4026 1.427 . S
N4030 C4027 1.384 . S
N4031 C4023 1.427 . S
N4031 C4029 1.384 . S
H4032 C4038 0.930 . S
H4033 C4042 0.930 . S
H4034 C4047 0.929 . S
H4035 C4045 0.929 . S
H4036 C4040 0.929 . S
H4037 C4046 0.929 . S
C4038 H4032 0.930 . S
C4038 C4039 1.367 . S
C4038 C4046 1.378 . S
C4039 C4038 1.367 . S
C4039 C4047 1.433 . S
C4040 H4036 0.929 . S
C4040 C4042 1.378 . S
C4040 C4044 1.350 . S
C4041 C4044 1.463 . S
C4041 C4046 1.350 . S
C4041 N4049 1.427 . S
C4042 H4033 0.930 . S
C4042 C4040 1.378 . S
C4042 C4043 1.367 . S
C4043 C4042 1.367 . S
C4043 C4045 1.433 . S
C4044 C4040 1.350 . S
C4044 C4041 1.463 . S
C4044 N4048 1.427 . S
C4045 H4035 0.929 . S
C4045 C4043 1.433 . S
C4045 N4048 1.384 . S
C4046 H4037 0.929 . S
C4046 C4038 1.378 . S
C4046 C4041 1.350 . S
C4047 H4034 0.929 . S
C4047 C4039 1.433 . S
C4047 N4049 1.384 . S
N4048 C4044 1.427 . S
N4048 C4045 1.384 . S
N4049 C4041 1.427 . S
N4049 C4047 1.384 . S
H4050 C4056 0.930 . S
H4051 C4060 0.930 . S
H4052 C4065 0.929 . S
H4053 C4063 0.929 . S
H4054 C4058 0.929 . S
H4055 C4064 0.929 . S
C4056 H4050 0.930 . S
C4056 C4057 1.367 . S
C4056 C4064 1.378 . S
C4057 C4056 1.367 . S
C4057 C4065 1.433 . S
C4058 H4054 0.929 . S
C4058 C4060 1.378 . S
C4058 C4062 1.350 . S
C4059 C4062 1.463 . S
C4059 C4064 1.350 . S
C4059 N4067 1.427 . S
C4060 H4051 0.930 . S
C4060 C4058 1.378 . S
C4060 C4061 1.367 . S
C4061 C4060 1.367 . S
C4061 C4063 1.433 . S
C4062 C4058 1.350 . S
C4062 C4059 1.463 . S
C4062 N4066 1.427 . S
C4063 H4053 0.929 . S
C4063 C4061 1.433 . S
C4063 N4066 1.384 . S
C4064 H4055 0.929 . S
C4064 C4056 1.378 . S
C4064 C4059 1.350 . S
C4065 H4052 0.929 . S
C4065 C4057 1.433 . S
C4065 N4067 1.384 . S
N4066 C4062 1.427 . S
N4066 C4063 1.384 . S
N4067 C4059 1.427 . S
N4067 C4065 1.384 . S
H4068 C4074 0.930 . S
H4069 C4078 0.930 . S
H4070 C4083 0.929 . S
H4071 C4081 0.929 . S
H4072 C4076 0.929 . S
H4073 C4082 0.929 . S
C4074 H4068 0.930 . S
C4074 C4075 1.367 . S
C4074 C4082 1.378 . S
C4075 C4074 1.367 . S
C4075 C4083 1.433 . S
C4076 H4072 0.929 . S
C4076 C4078 1.378 . S
C4076 C4080 1.350 . S
C4077 C4080 1.463 . S
C4077 C4082 1.350 . S
C4077 N4085 1.427 . S
C4078 H4069 0.930 . S
C4078 C4076 1.378 . S
C4078 C4079 1.367 . S
C4079 C4078 1.367 . S
C4079 C4081 1.433 . S
C4080 C4076 1.350 . S
C4080 C4077 1.463 . S
C4080 N4084 1.427 . S
C4081 H4071 0.929 . S
C4081 C4079 1.433 . S
C4081 N4084 1.384 . S
C4082 H4073 0.929 . S
C4082 C4074 1.378 . S
C4082 C4077 1.350 . S
C4083 H4070 0.929 . S
C4083 C4075 1.433 . S
C4083 N4085 1.384 . S
N4084 C4080 1.427 . S
N4084 C4081 1.384 . S
N4085 C4077 1.427 . S
N4085 C4083 1.384 . S
H4086 C4092 0.930 . S
H4087 C4096 0.930 . S
H4088 C4101 0.929 . S
H4089 C4099 0.929 . S
H4090 C4094 0.929 . S
H4091 C4100 0.929 . S
C4092 H4086 0.930 . S
C4092 C4093 1.367 . S
C4092 C4100 1.378 . S
C4093 C4092 1.367 . S
C4093 C4101 1.433 . S
C4094 H4090 0.929 . S
C4094 C4096 1.378 . S
C4094 C4098 1.350 . S
C4095 C4098 1.463 . S
C4095 C4100 1.350 . S
C4095 N4103 1.427 . S
C4096 H4087 0.930 . S
C4096 C4094 1.378 . S
C4096 C4097 1.367 . S
C4097 C4096 1.367 . S
C4097 C4099 1.433 . S
C4098 C4094 1.350 . S
C4098 C4095 1.463 . S
C4098 N4102 1.427 . S
C4099 H4089 0.929 . S
C4099 C4097 1.433 . S
C4099 N4102 1.384 . S
C4100 H4091 0.929 . S
C4100 C4092 1.378 . S
C4100 C4095 1.350 . S
C4101 H4088 0.929 . S
C4101 C4093 1.433 . S
C4101 N4103 1.384 . S
N4102 C4098 1.427 . S
N4102 C4099 1.384 . S
N4103 C4095 1.427 . S
N4103 C4101 1.384 . S
H4104 C4110 0.930 . S
H4105 C4114 0.930 . S
H4106 C4119 0.929 . S
H4107 C4117 0.929 . S
H4108 C4112 0.929 . S
H4109 C4118 0.929 . S
C4110 H4104 0.930 . S
C4110 C4111 1.367 . S
C4110 C4118 1.378 . S
C4111 C4110 1.367 . S
C4111 C4119 1.433 . S
C4112 H4108 0.929 . S
C4112 C4114 1.378 . S
C4112 C4116 1.350 . S
C4113 C4116 1.463 . S
C4113 C4118 1.350 . S
C4113 N4121 1.427 . S
C4114 H4105 0.930 . S
C4114 C4112 1.378 . S
C4114 C4115 1.367 . S
C4115 C4114 1.367 . S
C4115 C4117 1.433 . S
C4116 C4112 1.350 . S
C4116 C4113 1.463 . S
C4116 N4120 1.427 . S
C4117 H4107 0.929 . S
C4117 C4115 1.433 . S
C4117 N4120 1.384 . S
C4118 H4109 0.929 . S
C4118 C4110 1.378 . S
C4118 C4113 1.350 . S
C4119 H4106 0.929 . S
C4119 C4111 1.433 . S
C4119 N4121 1.384 . S
N4120 C4116 1.427 . S
N4120 C4117 1.384 . S
N4121 C4113 1.427 . S
N4121 C4119 1.384 . S
H4122 C4128 0.930 . S
H4123 C4132 0.930 . S
H4124 C4137 0.929 . S
H4125 C4135 0.929 . S
H4126 C4130 0.929 . S
H4127 C4136 0.929 . S
C4128 H4122 0.930 . S
C4128 C4129 1.367 . S
C4128 C4136 1.378 . S
C4129 C4128 1.367 . S
C4129 C4137 1.433 . S
C4130 H4126 0.929 . S
C4130 C4132 1.378 . S
C4130 C4134 1.350 . S
C4131 C4134 1.463 . S
C4131 C4136 1.350 . S
C4131 N4139 1.427 . S
C4132 H4123 0.930 . S
C4132 C4130 1.378 . S
C4132 C4133 1.367 . S
C4133 C4132 1.367 . S
C4133 C4135 1.433 . S
C4134 C4130 1.350 . S
C4134 C4131 1.463 . S
C4134 N4138 1.427 . S
C4135 H4125 0.929 . S
C4135 C4133 1.433 . S
C4135 N4138 1.384 . S
C4136 H4127 0.929 . S
C4136 C4128 1.378 . S
C4136 C4131 1.350 . S
C4137 H4124 0.929 . S
C4137 C4129 1.433 . S
C4137 N4139 1.384 . S
N4138 C4134 1.427 . S
N4138 C4135 1.384 . S
N4139 C4131 1.427 . S
N4139 C4137 1.384 . S
H4140 C4146 0.930 . S
H4141 C4150 0.930 . S
H4142 C4155 0.929 . S
H4143 C4153 0.929 . S
H4144 C4148 0.929 . S
H4145 C4154 0.929 . S
C4146 H4140 0.930 . S
C4146 C4147 1.367 . S
C4146 C4154 1.378 . S
C4147 C4146 1.367 . S
C4147 C4155 1.433 . S
C4148 H4144 0.929 . S
C4148 C4150 1.378 . S
C4148 C4152 1.350 . S
C4149 C4152 1.463 . S
C4149 C4154 1.350 . S
C4149 N4157 1.427 . S
C4150 H4141 0.930 . S
C4150 C4148 1.378 . S
C4150 C4151 1.367 . S
C4151 C4150 1.367 . S
C4151 C4153 1.433 . S
C4152 C4148 1.350 . S
C4152 C4149 1.463 . S
C4152 N4156 1.427 . S
C4153 H4143 0.929 . S
C4153 C4151 1.433 . S
C4153 N4156 1.384 . S
C4154 H4145 0.929 . S
C4154 C4146 1.378 . S
C4154 C4149 1.350 . S
C4155 H4142 0.929 . S
C4155 C4147 1.433 . S
C4155 N4157 1.384 . S
N4156 C4152 1.427 . S
N4156 C4153 1.384 . S
N4157 C4149 1.427 . S
N4157 C4155 1.384 . S
H4158 C4164 0.930 . S
H4159 C4168 0.930 . S
H4160 C4173 0.929 . S
H4161 C4171 0.929 . S
H4162 C4166 0.929 . S
H4163 C4172 0.929 . S
C4164 H4158 0.930 . S
C4164 C4165 1.367 . S
C4164 C4172 1.378 . S
C4165 C4164 1.367 . S
C4165 C4173 1.433 . S
C4166 H4162 0.929 . S
C4166 C4168 1.378 . S
C4166 C4170 1.350 . S
C4167 C4170 1.463 . S
C4167 C4172 1.350 . S
C4167 N4175 1.427 . S
C4168 H4159 0.930 . S
C4168 C4166 1.378 . S
C4168 C4169 1.367 . S
C4169 C4168 1.367 . S
C4169 C4171 1.433 . S
C4170 C4166 1.350 . S
C4170 C4167 1.463 . S
C4170 N4174 1.427 . S
C4171 H4161 0.929 . S
C4171 C4169 1.433 . S
C4171 N4174 1.384 . S
C4172 H4163 0.929 . S
C4172 C4164 1.378 . S
C4172 C4167 1.350 . S
C4173 H4160 0.929 . S
C4173 C4165 1.433 . S
C4173 N4175 1.384 . S
N4174 C4170 1.427 . S
N4174 C4171 1.384 . S
N4175 C4167 1.427 . S
N4175 C4173 1.384 . S
H4176 C4182 0.930 . S
H4177 C4186 0.930 . S
H4178 C4191 0.929 . S
H4179 C4189 0.929 . S
H4180 C4184 0.929 . S
H4181 C4190 0.929 . S
C4182 H4176 0.930 . S
C4182 C4183 1.367 . S
C4182 C4190 1.378 . S
C4183 C4182 1.367 . S
C4183 C4191 1.433 . S
C4184 H4180 0.929 . S
C4184 C4186 1.378 . S
C4184 C4188 1.350 . S
C4185 C4188 1.463 . S
C4185 C4190 1.350 . S
C4185 N4193 1.427 . S
C4186 H4177 0.930 . S
C4186 C4184 1.378 . S
C4186 C4187 1.367 . S
C4187 C4186 1.367 . S
C4187 C4189 1.433 . S
C4188 C4184 1.350 . S
C4188 C4185 1.463 . S
C4188 N4192 1.427 . S
C4189 H4179 0.929 . S
C4189 C4187 1.433 . S
C4189 N4192 1.384 . S
C4190 H4181 0.929 . S
C4190 C4182 1.378 . S
C4190 C4185 1.350 . S
C4191 H4178 0.929 . S
C4191 C4183 1.433 . S
C4191 N4193 1.384 . S
N4192 C4188 1.427 . S
N4192 C4189 1.384 . S
N4193 C4185 1.427 . S
N4193 C4191 1.384 . S
H4194 C4200 0.930 . S
H4195 C4204 0.930 . S
H4196 C4209 0.929 . S
H4197 C4207 0.929 . S
H4198 C4202 0.929 . S
H4199 C4208 0.929 . S
C4200 H4194 0.930 . S
C4200 C4201 1.367 . S
C4200 C4208 1.378 . S
C4201 C4200 1.367 . S
C4201 C4209 1.433 . S
C4202 H4198 0.929 . S
C4202 C4204 1.378 . S
C4202 C4206 1.350 . S
C4203 C4206 1.463 . S
C4203 C4208 1.350 . S
C4203 N4211 1.427 . S
C4204 H4195 0.930 . S
C4204 C4202 1.378 . S
C4204 C4205 1.367 . S
C4205 C4204 1.367 . S
C4205 C4207 1.433 . S
C4206 C4202 1.350 . S
C4206 C4203 1.463 . S
C4206 N4210 1.427 . S
C4207 H4197 0.929 . S
C4207 C4205 1.433 . S
C4207 N4210 1.384 . S
C4208 H4199 0.929 . S
C4208 C4200 1.378 . S
C4208 C4203 1.350 . S
C4209 H4196 0.929 . S
C4209 C4201 1.433 . S
C4209 N4211 1.384 . S
N4210 C4206 1.427 . S
N4210 C4207 1.384 . S
N4211 C4203 1.427 . S
N4211 C4209 1.384 . S
H4212 C4218 0.930 . S
H4213 C4222 0.930 . S
H4214 C4227 0.929 . S
H4215 C4225 0.929 . S
H4216 C4220 0.929 . S
H4217 C4226 0.929 . S
C4218 H4212 0.930 . S
C4218 C4219 1.367 . S
C4218 C4226 1.378 . S
C4219 C4218 1.367 . S
C4219 C4227 1.433 . S
C4220 H4216 0.929 . S
C4220 C4222 1.378 . S
C4220 C4224 1.350 . S
C4221 C4224 1.463 . S
C4221 C4226 1.350 . S
C4221 N4229 1.427 . S
C4222 H4213 0.930 . S
C4222 C4220 1.378 . S
C4222 C4223 1.367 . S
C4223 C4222 1.367 . S
C4223 C4225 1.433 . S
C4224 C4220 1.350 . S
C4224 C4221 1.463 . S
C4224 N4228 1.427 . S
C4225 H4215 0.929 . S
C4225 C4223 1.433 . S
C4225 N4228 1.384 . S
C4226 H4217 0.929 . S
C4226 C4218 1.378 . S
C4226 C4221 1.350 . S
C4227 H4214 0.929 . S
C4227 C4219 1.433 . S
C4227 N4229 1.384 . S
N4228 C4224 1.427 . S
N4228 C4225 1.384 . S
N4229 C4221 1.427 . S
N4229 C4227 1.384 . S
H4230 C4236 0.930 . S
H4231 C4240 0.930 . S
H4232 C4245 0.929 . S
H4233 C4243 0.929 . S
H4234 C4238 0.929 . S
H4235 C4244 0.929 . S
C4236 H4230 0.930 . S
C4236 C4237 1.367 . S
C4236 C4244 1.378 . S
C4237 C4236 1.367 . S
C4237 C4245 1.433 . S
C4238 H4234 0.929 . S
C4238 C4240 1.378 . S
C4238 C4242 1.350 . S
C4239 C4242 1.463 . S
C4239 C4244 1.350 . S
C4239 N4247 1.427 . S
C4240 H4231 0.930 . S
C4240 C4238 1.378 . S
C4240 C4241 1.367 . S
C4241 C4240 1.367 . S
C4241 C4243 1.433 . S
C4242 C4238 1.350 . S
C4242 C4239 1.463 . S
C4242 N4246 1.427 . S
C4243 H4233 0.929 . S
C4243 C4241 1.433 . S
C4243 N4246 1.384 . S
C4244 H4235 0.929 . S
C4244 C4236 1.378 . S
C4244 C4239 1.350 . S
C4245 H4232 0.929 . S
C4245 C4237 1.433 . S
C4245 N4247 1.384 . S
N4246 C4242 1.427 . S
N4246 C4243 1.384 . S
N4247 C4239 1.427 . S
N4247 C4245 1.384 . S
H4248 C4254 0.930 . S
H4249 C4258 0.930 . S
H4250 C4263 0.929 . S
H4251 C4261 0.929 . S
H4252 C4256 0.929 . S
H4253 C4262 0.929 . S
C4254 H4248 0.930 . S
C4254 C4255 1.367 . S
C4254 C4262 1.378 . S
C4255 C4254 1.367 . S
C4255 C4263 1.433 . S
C4256 H4252 0.929 . S
C4256 C4258 1.378 . S
C4256 C4260 1.350 . S
C4257 C4260 1.463 . S
C4257 C4262 1.350 . S
C4257 N4265 1.427 . S
C4258 H4249 0.930 . S
C4258 C4256 1.378 . S
C4258 C4259 1.367 . S
C4259 C4258 1.367 . S
C4259 C4261 1.433 . S
C4260 C4256 1.350 . S
C4260 C4257 1.463 . S
C4260 N4264 1.427 . S
C4261 H4251 0.929 . S
C4261 C4259 1.433 . S
C4261 N4264 1.384 . S
C4262 H4253 0.929 . S
C4262 C4254 1.378 . S
C4262 C4257 1.350 . S
C4263 H4250 0.929 . S
C4263 C4255 1.433 . S
C4263 N4265 1.384 . S
N4264 C4260 1.427 . S
N4264 C4261 1.384 . S
N4265 C4257 1.427 . S
N4265 C4263 1.384 . S
H4266 C4272 0.930 . S
H4267 C4276 0.930 . S
H4268 C4281 0.929 . S
H4269 C4279 0.929 . S
H4270 C4274 0.929 . S
H4271 C4280 0.929 . S
C4272 H4266 0.930 . S
C4272 C4273 1.367 . S
C4272 C4280 1.378 . S
C4273 C4272 1.367 . S
C4273 C4281 1.433 . S
C4274 H4270 0.929 . S
C4274 C4276 1.378 . S
C4274 C4278 1.350 . S
C4275 C4278 1.463 . S
C4275 C4280 1.350 . S
C4275 N4283 1.427 . S
C4276 H4267 0.930 . S
C4276 C4274 1.378 . S
C4276 C4277 1.367 . S
C4277 C4276 1.367 . S
C4277 C4279 1.433 . S
C4278 C4274 1.350 . S
C4278 C4275 1.463 . S
C4278 N4282 1.427 . S
C4279 H4269 0.929 . S
C4279 C4277 1.433 . S
C4279 N4282 1.384 . S
C4280 H4271 0.929 . S
C4280 C4272 1.378 . S
C4280 C4275 1.350 . S
C4281 H4268 0.929 . S
C4281 C4273 1.433 . S
C4281 N4283 1.384 . S
N4282 C4278 1.427 . S
N4282 C4279 1.384 . S
N4283 C4275 1.427 . S
N4283 C4281 1.384 . S
H4284 C4290 0.930 . S
H4285 C4294 0.930 . S
H4286 C4299 0.929 . S
H4287 C4297 0.929 . S
H4288 C4292 0.929 . S
H4289 C4298 0.929 . S
C4290 H4284 0.930 . S
C4290 C4291 1.367 . S
C4290 C4298 1.378 . S
C4291 C4290 1.367 . S
C4291 C4299 1.433 . S
C4292 H4288 0.929 . S
C4292 C4294 1.378 . S
C4292 C4296 1.350 . S
C4293 C4296 1.463 . S
C4293 C4298 1.350 . S
C4293 N4301 1.427 . S
C4294 H4285 0.930 . S
C4294 C4292 1.378 . S
C4294 C4295 1.367 . S
C4295 C4294 1.367 . S
C4295 C4297 1.433 . S
C4296 C4292 1.350 . S
C4296 C4293 1.463 . S
C4296 N4300 1.427 . S
C4297 H4287 0.929 . S
C4297 C4295 1.433 . S
C4297 N4300 1.384 . S
C4298 H4289 0.929 . S
C4298 C4290 1.378 . S
C4298 C4293 1.350 . S
C4299 H4286 0.929 . S
C4299 C4291 1.433 . S
C4299 N4301 1.384 . S
N4300 C4296 1.427 . S
N4300 C4297 1.384 . S
N4301 C4293 1.427 . S
N4301 C4299 1.384 . S
H4302 C4308 0.930 . S
H4303 C4312 0.930 . S
H4304 C4317 0.929 . S
H4305 C4315 0.929 . S
H4306 C4310 0.929 . S
H4307 C4316 0.929 . S
C4308 H4302 0.930 . S
C4308 C4309 1.367 . S
C4308 C4316 1.378 . S
C4309 C4308 1.367 . S
C4309 C4317 1.433 . S
C4310 H4306 0.929 . S
C4310 C4312 1.378 . S
C4310 C4314 1.350 . S
C4311 C4314 1.463 . S
C4311 C4316 1.350 . S
C4311 N4319 1.427 . S
C4312 H4303 0.930 . S
C4312 C4310 1.378 . S
C4312 C4313 1.367 . S
C4313 C4312 1.367 . S
C4313 C4315 1.433 . S
C4314 C4310 1.350 . S
C4314 C4311 1.463 . S
C4314 N4318 1.427 . S
C4315 H4305 0.929 . S
C4315 C4313 1.433 . S
C4315 N4318 1.384 . S
C4316 H4307 0.929 . S
C4316 C4308 1.378 . S
C4316 C4311 1.350 . S
C4317 H4304 0.929 . S
C4317 C4309 1.433 . S
C4317 N4319 1.384 . S
N4318 C4314 1.427 . S
N4318 C4315 1.384 . S
N4319 C4311 1.427 . S
N4319 C4317 1.384 . S
H4320 C4326 0.930 . S
H4321 C4330 0.930 . S
H4322 C4335 0.929 . S
H4323 C4333 0.929 . S
H4324 C4328 0.929 . S
H4325 C4334 0.929 . S
C4326 H4320 0.930 . S
C4326 C4327 1.367 . S
C4326 C4334 1.378 . S
C4327 C4326 1.367 . S
C4327 C4335 1.433 . S
C4328 H4324 0.929 . S
C4328 C4330 1.378 . S
C4328 C4332 1.350 . S
C4329 C4332 1.463 . S
C4329 C4334 1.350 . S
C4329 N4337 1.427 . S
C4330 H4321 0.930 . S
C4330 C4328 1.378 . S
C4330 C4331 1.367 . S
C4331 C4330 1.367 . S
C4331 C4333 1.433 . S
C4332 C4328 1.350 . S
C4332 C4329 1.463 . S
C4332 N4336 1.427 . S
C4333 H4323 0.929 . S
C4333 C4331 1.433 . S
C4333 N4336 1.384 . S
C4334 H4325 0.929 . S
C4334 C4326 1.378 . S
C4334 C4329 1.350 . S
C4335 H4322 0.929 . S
C4335 C4327 1.433 . S
C4335 N4337 1.384 . S
N4336 C4332 1.427 . S
N4336 C4333 1.384 . S
N4337 C4329 1.427 . S
N4337 C4335 1.384 . S
H4338 C4344 0.930 . S
H4339 C4348 0.930 . S
H4340 C4353 0.929 . S
H4341 C4351 0.929 . S
H4342 C4346 0.929 . S
H4343 C4352 0.929 . S
C4344 H4338 0.930 . S
C4344 C4345 1.367 . S
C4344 C4352 1.378 . S
C4345 C4344 1.367 . S
C4345 C4353 1.433 . S
C4346 H4342 0.929 . S
C4346 C4348 1.378 . S
C4346 C4350 1.350 . S
C4347 C4350 1.463 . S
C4347 C4352 1.350 . S
C4347 N4355 1.427 . S
C4348 H4339 0.930 . S
C4348 C4346 1.378 . S
C4348 C4349 1.367 . S
C4349 C4348 1.367 . S
C4349 C4351 1.433 . S
C4350 C4346 1.350 . S
C4350 C4347 1.463 . S
C4350 N4354 1.427 . S
C4351 H4341 0.929 . S
C4351 C4349 1.433 . S
C4351 N4354 1.384 . S
C4352 H4343 0.929 . S
C4352 C4344 1.378 . S
C4352 C4347 1.350 . S
C4353 H4340 0.929 . S
C4353 C4345 1.433 . S
C4353 N4355 1.384 . S
N4354 C4350 1.427 . S
N4354 C4351 1.384 . S
N4355 C4347 1.427 . S
N4355 C4353 1.384 . S
H4356 C4362 0.930 . S
H4357 C4366 0.930 . S
H4358 C4371 0.929 . S
H4359 C4369 0.929 . S
H4360 C4364 0.929 . S
H4361 C4370 0.929 . S
C4362 H4356 0.930 . S
C4362 C4363 1.367 . S
C4362 C4370 1.378 . S
C4363 C4362 1.367 . S
C4363 C4371 1.433 . S
C4364 H4360 0.929 . S
C4364 C4366 1.378 . S
C4364 C4368 1.350 . S
C4365 C4368 1.463 . S
C4365 C4370 1.350 . S
C4365 N4373 1.427 . S
C4366 H4357 0.930 . S
C4366 C4364 1.378 . S
C4366 C4367 1.367 . S
C4367 C4366 1.367 . S
C4367 C4369 1.433 . S
C4368 C4364 1.350 . S
C4368 C4365 1.463 . S
C4368 N4372 1.427 . S
C4369 H4359 0.929 . S
C4369 C4367 1.433 . S
C4369 N4372 1.384 . S
C4370 H4361 0.929 . S
C4370 C4362 1.378 . S
C4370 C4365 1.350 . S
C4371 H4358 0.929 . S
C4371 C4363 1.433 . S
C4371 N4373 1.384 . S
N4372 C4368 1.427 . S
N4372 C4369 1.384 . S
N4373 C4365 1.427 . S
N4373 C4371 1.384 . S
H4374 C4380 0.930 . S
H4375 C4384 0.930 . S
H4376 C4389 0.929 . S
H4377 C4387 0.929 . S
H4378 C4382 0.929 . S
H4379 C4388 0.929 . S
C4380 H4374 0.930 . S
C4380 C4381 1.367 . S
C4380 C4388 1.378 . S
C4381 C4380 1.367 . S
C4381 C4389 1.433 . S
C4382 H4378 0.929 . S
C4382 C4384 1.378 . S
C4382 C4386 1.350 . S
C4383 C4386 1.463 . S
C4383 C4388 1.350 . S
C4383 N4391 1.427 . S
C4384 H4375 0.930 . S
C4384 C4382 1.378 . S
C4384 C4385 1.367 . S
C4385 C4384 1.367 . S
C4385 C4387 1.433 . S
C4386 C4382 1.350 . S
C4386 C4383 1.463 . S
C4386 N4390 1.427 . S
C4387 H4377 0.929 . S
C4387 C4385 1.433 . S
C4387 N4390 1.384 . S
C4388 H4379 0.929 . S
C4388 C4380 1.378 . S
C4388 C4383 1.350 . S
C4389 H4376 0.929 . S
C4389 C4381 1.433 . S
C4389 N4391 1.384 . S
N4390 C4386 1.427 . S
N4390 C4387 1.384 . S
N4391 C4383 1.427 . S
N4391 C4389 1.384 . S
H4392 C4398 0.930 . S
H4393 C4402 0.930 . S
H4394 C4407 0.929 . S
H4395 C4405 0.929 . S
H4396 C4400 0.929 . S
H4397 C4406 0.929 . S
C4398 H4392 0.930 . S
C4398 C4399 1.367 . S
C4398 C4406 1.378 . S
C4399 C4398 1.367 . S
C4399 C4407 1.433 . S
C4400 H4396 0.929 . S
C4400 C4402 1.378 . S
C4400 C4404 1.350 . S
C4401 C4404 1.463 . S
C4401 C4406 1.350 . S
C4401 N4409 1.427 . S
C4402 H4393 0.930 . S
C4402 C4400 1.378 . S
C4402 C4403 1.367 . S
C4403 C4402 1.367 . S
C4403 C4405 1.433 . S
C4404 C4400 1.350 . S
C4404 C4401 1.463 . S
C4404 N4408 1.427 . S
C4405 H4395 0.929 . S
C4405 C4403 1.433 . S
C4405 N4408 1.384 . S
C4406 H4397 0.929 . S
C4406 C4398 1.378 . S
C4406 C4401 1.350 . S
C4407 H4394 0.929 . S
C4407 C4399 1.433 . S
C4407 N4409 1.384 . S
N4408 C4404 1.427 . S
N4408 C4405 1.384 . S
N4409 C4401 1.427 . S
N4409 C4407 1.384 . S
H4410 C4416 0.930 . S
H4411 C4420 0.930 . S
H4412 C4425 0.929 . S
H4413 C4423 0.929 . S
H4414 C4418 0.929 . S
H4415 C4424 0.929 . S
C4416 H4410 0.930 . S
C4416 C4417 1.367 . S
C4416 C4424 1.378 . S
C4417 C4416 1.367 . S
C4417 C4425 1.433 . S
C4418 H4414 0.929 . S
C4418 C4420 1.378 . S
C4418 C4422 1.350 . S
C4419 C4422 1.463 . S
C4419 C4424 1.350 . S
C4419 N4427 1.427 . S
C4420 H4411 0.930 . S
C4420 C4418 1.378 . S
C4420 C4421 1.367 . S
C4421 C4420 1.367 . S
C4421 C4423 1.433 . S
C4422 C4418 1.350 . S
C4422 C4419 1.463 . S
C4422 N4426 1.427 . S
C4423 H4413 0.929 . S
C4423 C4421 1.433 . S
C4423 N4426 1.384 . S
C4424 H4415 0.929 . S
C4424 C4416 1.378 . S
C4424 C4419 1.350 . S
C4425 H4412 0.929 . S
C4425 C4417 1.433 . S
C4425 N4427 1.384 . S
N4426 C4422 1.427 . S
N4426 C4423 1.384 . S
N4427 C4419 1.427 . S
N4427 C4425 1.384 . S
H4428 C4434 0.930 . S
H4429 C4438 0.930 . S
H4430 C4443 0.929 . S
H4431 C4441 0.929 . S
H4432 C4436 0.929 . S
H4433 C4442 0.929 . S
C4434 H4428 0.930 . S
C4434 C4435 1.367 . S
C4434 C4442 1.378 . S
C4435 C4434 1.367 . S
C4435 C4443 1.433 . S
C4436 H4432 0.929 . S
C4436 C4438 1.378 . S
C4436 C4440 1.350 . S
C4437 C4440 1.463 . S
C4437 C4442 1.350 . S
C4437 N4445 1.427 . S
C4438 H4429 0.930 . S
C4438 C4436 1.378 . S
C4438 C4439 1.367 . S
C4439 C4438 1.367 . S
C4439 C4441 1.433 . S
C4440 C4436 1.350 . S
C4440 C4437 1.463 . S
C4440 N4444 1.427 . S
C4441 H4431 0.929 . S
C4441 C4439 1.433 . S
C4441 N4444 1.384 . S
C4442 H4433 0.929 . S
C4442 C4434 1.378 . S
C4442 C4437 1.350 . S
C4443 H4430 0.929 . S
C4443 C4435 1.433 . S
C4443 N4445 1.384 . S
N4444 C4440 1.427 . S
N4444 C4441 1.384 . S
N4445 C4437 1.427 . S
N4445 C4443 1.384 . S
H4446 C4452 0.930 . S
H4447 C4456 0.930 . S
H4448 C4461 0.929 . S
H4449 C4459 0.929 . S
H4450 C4454 0.929 . S
H4451 C4460 0.929 . S
C4452 H4446 0.930 . S
C4452 C4453 1.367 . S
C4452 C4460 1.378 . S
C4453 C4452 1.367 . S
C4453 C4461 1.433 . S
C4454 H4450 0.929 . S
C4454 C4456 1.378 . S
C4454 C4458 1.350 . S
C4455 C4458 1.463 . S
C4455 C4460 1.350 . S
C4455 N4463 1.427 . S
C4456 H4447 0.930 . S
C4456 C4454 1.378 . S
C4456 C4457 1.367 . S
C4457 C4456 1.367 . S
C4457 C4459 1.433 . S
C4458 C4454 1.350 . S
C4458 C4455 1.463 . S
C4458 N4462 1.427 . S
C4459 H4449 0.929 . S
C4459 C4457 1.433 . S
C4459 N4462 1.384 . S
C4460 H4451 0.929 . S
C4460 C4452 1.378 . S
C4460 C4455 1.350 . S
C4461 H4448 0.929 . S
C4461 C4453 1.433 . S
C4461 N4463 1.384 . S
N4462 C4458 1.427 . S
N4462 C4459 1.384 . S
N4463 C4455 1.427 . S
N4463 C4461 1.384 . S
H4464 C4470 0.930 . S
H4465 C4474 0.930 . S
H4466 C4479 0.929 . S
H4467 C4477 0.929 . S
H4468 C4472 0.929 . S
H4469 C4478 0.929 . S
C4470 H4464 0.930 . S
C4470 C4471 1.367 . S
C4470 C4478 1.378 . S
C4471 C4470 1.367 . S
C4471 C4479 1.433 . S
C4472 H4468 0.929 . S
C4472 C4474 1.378 . S
C4472 C4476 1.350 . S
C4473 C4476 1.463 . S
C4473 C4478 1.350 . S
C4473 N4481 1.427 . S
C4474 H4465 0.930 . S
C4474 C4472 1.378 . S
C4474 C4475 1.367 . S
C4475 C4474 1.367 . S
C4475 C4477 1.433 . S
C4476 C4472 1.350 . S
C4476 C4473 1.463 . S
C4476 N4480 1.427 . S
C4477 H4467 0.929 . S
C4477 C4475 1.433 . S
C4477 N4480 1.384 . S
C4478 H4469 0.929 . S
C4478 C4470 1.378 . S
C4478 C4473 1.350 . S
C4479 H4466 0.929 . S
C4479 C4471 1.433 . S
C4479 N4481 1.384 . S
N4480 C4476 1.427 . S
N4480 C4477 1.384 . S
N4481 C4473 1.427 . S
N4481 C4479 1.384 . S
H4482 C4488 0.930 . S
H4483 C4492 0.930 . S
H4484 C4497 0.929 . S
H4485 C4495 0.929 . S
H4486 C4490 0.929 . S
H4487 C4496 0.929 . S
C4488 H4482 0.930 . S
C4488 C4489 1.367 . S
C4488 C4496 1.378 . S
C4489 C4488 1.367 . S
C4489 C4497 1.433 . S
C4490 H4486 0.929 . S
C4490 C4492 1.378 . S
C4490 C4494 1.350 . S
C4491 C4494 1.463 . S
C4491 C4496 1.350 . S
C4491 N4499 1.427 . S
C4492 H4483 0.930 . S
C4492 C4490 1.378 . S
C4492 C4493 1.367 . S
C4493 C4492 1.367 . S
C4493 C4495 1.433 . S
C4494 C4490 1.350 . S
C4494 C4491 1.463 . S
C4494 N4498 1.427 . S
C4495 H4485 0.929 . S
C4495 C4493 1.433 . S
C4495 N4498 1.384 . S
C4496 H4487 0.929 . S
C4496 C4488 1.378 . S
C4496 C4491 1.350 . S
C4497 H4484 0.929 . S
C4497 C4489 1.433 . S
C4497 N4499 1.384 . S
N4498 C4494 1.427 . S
N4498 C4495 1.384 . S
N4499 C4491 1.427 . S
N4499 C4497 1.384 . S
H4500 C4506 0.930 . S
H4501 C4510 0.930 . S
H4502 C4515 0.929 . S
H4503 C4513 0.929 . S
H4504 C4508 0.929 . S
H4505 C4514 0.929 . S
C4506 H4500 0.930 . S
C4506 C4507 1.367 . S
C4506 C4514 1.378 . S
C4507 C4506 1.367 . S
C4507 C4515 1.433 . S
C4508 H4504 0.929 . S
C4508 C4510 1.378 . S
C4508 C4512 1.350 . S
C4509 C4512 1.463 . S
C4509 C4514 1.350 . S
C4509 N4517 1.427 . S
C4510 H4501 0.930 . S
C4510 C4508 1.378 . S
C4510 C4511 1.367 . S
C4511 C4510 1.367 . S
C4511 C4513 1.433 . S
C4512 C4508 1.350 . S
C4512 C4509 1.463 . S
C4512 N4516 1.427 . S
C4513 H4503 0.929 . S
C4513 C4511 1.433 . S
C4513 N4516 1.384 . S
C4514 H4505 0.929 . S
C4514 C4506 1.378 . S
C4514 C4509 1.350 . S
C4515 H4502 0.929 . S
C4515 C4507 1.433 . S
C4515 N4517 1.384 . S
N4516 C4512 1.427 . S
N4516 C4513 1.384 . S
N4517 C4509 1.427 . S
N4517 C4515 1.384 . S
H4518 C4524 0.930 . S
H4519 C4528 0.930 . S
H4520 C4533 0.929 . S
H4521 C4531 0.929 . S
H4522 C4526 0.929 . S
H4523 C4532 0.929 . S
C4524 H4518 0.930 . S
C4524 C4525 1.367 . S
C4524 C4532 1.378 . S
C4525 C4524 1.367 . S
C4525 C4533 1.433 . S
C4526 H4522 0.929 . S
C4526 C4528 1.378 . S
C4526 C4530 1.350 . S
C4527 C4530 1.463 . S
C4527 C4532 1.350 . S
C4527 N4535 1.427 . S
C4528 H4519 0.930 . S
C4528 C4526 1.378 . S
C4528 C4529 1.367 . S
C4529 C4528 1.367 . S
C4529 C4531 1.433 . S
C4530 C4526 1.350 . S
C4530 C4527 1.463 . S
C4530 N4534 1.427 . S
C4531 H4521 0.929 . S
C4531 C4529 1.433 . S
C4531 N4534 1.384 . S
C4532 H4523 0.929 . S
C4532 C4524 1.378 . S
C4532 C4527 1.350 . S
C4533 H4520 0.929 . S
C4533 C4525 1.433 . S
C4533 N4535 1.384 . S
N4534 C4530 1.427 . S
N4534 C4531 1.384 . S
N4535 C4527 1.427 . S
N4535 C4533 1.384 . S
H4536 C4542 0.930 . S
H4537 C4546 0.930 . S
H4538 C4551 0.929 . S
H4539 C4549 0.929 . S
H4540 C4544 0.929 . S
H4541 C4550 0.929 . S
C4542 H4536 0.930 . S
C4542 C4543 1.367 . S
C4542 C4550 1.378 . S
C4543 C4542 1.367 . S
C4543 C4551 1.433 . S
C4544 H4540 0.929 . S
C4544 C4546 1.378 . S
C4544 C4548 1.350 . S
C4545 C4548 1.463 . S
C4545 C4550 1.350 . S
C4545 N4553 1.427 . S
C4546 H4537 0.930 . S
C4546 C4544 1.378 . S
C4546 C4547 1.367 . S
C4547 C4546 1.367 . S
C4547 C4549 1.433 . S
C4548 C4544 1.350 . S
C4548 C4545 1.463 . S
C4548 N4552 1.427 . S
C4549 H4539 0.929 . S
C4549 C4547 1.433 . S
C4549 N4552 1.384 . S
C4550 H4541 0.929 . S
C4550 C4542 1.378 . S
C4550 C4545 1.350 . S
C4551 H4538 0.929 . S
C4551 C4543 1.433 . S
C4551 N4553 1.384 . S
N4552 C4548 1.427 . S
N4552 C4549 1.384 . S
N4553 C4545 1.427 . S
N4553 C4551 1.384 . S
H4554 C4560 0.930 . S
H4555 C4564 0.930 . S
H4556 C4569 0.929 . S
H4557 C4567 0.929 . S
H4558 C4562 0.929 . S
H4559 C4568 0.929 . S
C4560 H4554 0.930 . S
C4560 C4561 1.367 . S
C4560 C4568 1.378 . S
C4561 C4560 1.367 . S
C4561 C4569 1.433 . S
C4562 H4558 0.929 . S
C4562 C4564 1.378 . S
C4562 C4566 1.350 . S
C4563 C4566 1.463 . S
C4563 C4568 1.350 . S
C4563 N4571 1.427 . S
C4564 H4555 0.930 . S
C4564 C4562 1.378 . S
C4564 C4565 1.367 . S
C4565 C4564 1.367 . S
C4565 C4567 1.433 . S
C4566 C4562 1.350 . S
C4566 C4563 1.463 . S
C4566 N4570 1.427 . S
C4567 H4557 0.929 . S
C4567 C4565 1.433 . S
C4567 N4570 1.384 . S
C4568 H4559 0.929 . S
C4568 C4560 1.378 . S
C4568 C4563 1.350 . S
C4569 H4556 0.929 . S
C4569 C4561 1.433 . S
C4569 N4571 1.384 . S
N4570 C4566 1.427 . S
N4570 C4567 1.384 . S
N4571 C4563 1.427 . S
N4571 C4569 1.384 . S
H4572 C4578 0.930 . S
H4573 C4582 0.930 . S
H4574 C4587 0.929 . S
H4575 C4585 0.929 . S
H4576 C4580 0.929 . S
H4577 C4586 0.929 . S
C4578 H4572 0.930 . S
C4578 C4579 1.367 . S
C4578 C4586 1.378 . S
C4579 C4578 1.367 . S
C4579 C4587 1.433 . S
C4580 H4576 0.929 . S
C4580 C4582 1.378 . S
C4580 C4584 1.350 . S
C4581 C4584 1.463 . S
C4581 C4586 1.350 . S
C4581 N4589 1.427 . S
C4582 H4573 0.930 . S
C4582 C4580 1.378 . S
C4582 C4583 1.367 . S
C4583 C4582 1.367 . S
C4583 C4585 1.433 . S
C4584 C4580 1.350 . S
C4584 C4581 1.463 . S
C4584 N4588 1.427 . S
C4585 H4575 0.929 . S
C4585 C4583 1.433 . S
C4585 N4588 1.384 . S
C4586 H4577 0.929 . S
C4586 C4578 1.378 . S
C4586 C4581 1.350 . S
C4587 H4574 0.929 . S
C4587 C4579 1.433 . S
C4587 N4589 1.384 . S
N4588 C4584 1.427 . S
N4588 C4585 1.384 . S
N4589 C4581 1.427 . S
N4589 C4587 1.384 . S
H4590 C4596 0.930 . S
H4591 C4600 0.930 . S
H4592 C4605 0.929 . S
H4593 C4603 0.929 . S
H4594 C4598 0.929 . S
H4595 C4604 0.929 . S
C4596 H4590 0.930 . S
C4596 C4597 1.367 . S
C4596 C4604 1.378 . S
C4597 C4596 1.367 . S
C4597 C4605 1.433 . S
C4598 H4594 0.929 . S
C4598 C4600 1.378 . S
C4598 C4602 1.350 . S
C4599 C4602 1.463 . S
C4599 C4604 1.350 . S
C4599 N4607 1.427 . S
C4600 H4591 0.930 . S
C4600 C4598 1.378 . S
C4600 C4601 1.367 . S
C4601 C4600 1.367 . S
C4601 C4603 1.433 . S
C4602 C4598 1.350 . S
C4602 C4599 1.463 . S
C4602 N4606 1.427 . S
C4603 H4593 0.929 . S
C4603 C4601 1.433 . S
C4603 N4606 1.384 . S
C4604 H4595 0.929 . S
C4604 C4596 1.378 . S
C4604 C4599 1.350 . S
C4605 H4592 0.929 . S
C4605 C4597 1.433 . S
C4605 N4607 1.384 . S
N4606 C4602 1.427 . S
N4606 C4603 1.384 . S
N4607 C4599 1.427 . S
N4607 C4605 1.384 . S
H4608 C4614 0.930 . S
H4609 C4618 0.930 . S
H4610 C4623 0.929 . S
H4611 C4621 0.929 . S
H4612 C4616 0.929 . S
H4613 C4622 0.929 . S
C4614 H4608 0.930 . S
C4614 C4615 1.367 . S
C4614 C4622 1.378 . S
C4615 C4614 1.367 . S
C4615 C4623 1.433 . S
C4616 H4612 0.929 . S
C4616 C4618 1.378 . S
C4616 C4620 1.350 . S
C4617 C4620 1.463 . S
C4617 C4622 1.350 . S
C4617 N4625 1.427 . S
C4618 H4609 0.930 . S
C4618 C4616 1.378 . S
C4618 C4619 1.367 . S
C4619 C4618 1.367 . S
C4619 C4621 1.433 . S
C4620 C4616 1.350 . S
C4620 C4617 1.463 . S
C4620 N4624 1.427 . S
C4621 H4611 0.929 . S
C4621 C4619 1.433 . S
C4621 N4624 1.384 . S
C4622 H4613 0.929 . S
C4622 C4614 1.378 . S
C4622 C4617 1.350 . S
C4623 H4610 0.929 . S
C4623 C4615 1.433 . S
C4623 N4625 1.384 . S
N4624 C4620 1.427 . S
N4624 C4621 1.384 . S
N4625 C4617 1.427 . S
N4625 C4623 1.384 . S
H4626 C4632 0.930 . S
H4627 C4636 0.930 . S
H4628 C4641 0.929 . S
H4629 C4639 0.929 . S
H4630 C4634 0.929 . S
H4631 C4640 0.929 . S
C4632 H4626 0.930 . S
C4632 C4633 1.367 . S
C4632 C4640 1.378 . S
C4633 C4632 1.367 . S
C4633 C4641 1.433 . S
C4634 H4630 0.929 . S
C4634 C4636 1.378 . S
C4634 C4638 1.350 . S
C4635 C4638 1.463 . S
C4635 C4640 1.350 . S
C4635 N4643 1.427 . S
C4636 H4627 0.930 . S
C4636 C4634 1.378 . S
C4636 C4637 1.367 . S
C4637 C4636 1.367 . S
C4637 C4639 1.433 . S
C4638 C4634 1.350 . S
C4638 C4635 1.463 . S
C4638 N4642 1.427 . S
C4639 H4629 0.929 . S
C4639 C4637 1.433 . S
C4639 N4642 1.384 . S
C4640 H4631 0.929 . S
C4640 C4632 1.378 . S
C4640 C4635 1.350 . S
C4641 H4628 0.929 . S
C4641 C4633 1.433 . S
C4641 N4643 1.384 . S
N4642 C4638 1.427 . S
N4642 C4639 1.384 . S
N4643 C4635 1.427 . S
N4643 C4641 1.384 . S
H4644 C4650 0.930 . S
H4645 C4654 0.930 . S
H4646 C4659 0.929 . S
H4647 C4657 0.929 . S
H4648 C4652 0.929 . S
H4649 C4658 0.929 . S
C4650 H4644 0.930 . S
C4650 C4651 1.367 . S
C4650 C4658 1.378 . S
C4651 C4650 1.367 . S
C4651 C4659 1.433 . S
C4652 H4648 0.929 . S
C4652 C4654 1.378 . S
C4652 C4656 1.350 . S
C4653 C4656 1.463 . S
C4653 C4658 1.350 . S
C4653 N4661 1.427 . S
C4654 H4645 0.930 . S
C4654 C4652 1.378 . S
C4654 C4655 1.367 . S
C4655 C4654 1.367 . S
C4655 C4657 1.433 . S
C4656 C4652 1.350 . S
C4656 C4653 1.463 . S
C4656 N4660 1.427 . S
C4657 H4647 0.929 . S
C4657 C4655 1.433 . S
C4657 N4660 1.384 . S
C4658 H4649 0.929 . S
C4658 C4650 1.378 . S
C4658 C4653 1.350 . S
C4659 H4646 0.929 . S
C4659 C4651 1.433 . S
C4659 N4661 1.384 . S
N4660 C4656 1.427 . S
N4660 C4657 1.384 . S
N4661 C4653 1.427 . S
N4661 C4659 1.384 . S
H4662 C4668 0.930 . S
H4663 C4672 0.930 . S
H4664 C4677 0.929 . S
H4665 C4675 0.929 . S
H4666 C4670 0.929 . S
H4667 C4676 0.929 . S
C4668 H4662 0.930 . S
C4668 C4669 1.367 . S
C4668 C4676 1.378 . S
C4669 C4668 1.367 . S
C4669 C4677 1.433 . S
C4670 H4666 0.929 . S
C4670 C4672 1.378 . S
C4670 C4674 1.350 . S
C4671 C4674 1.463 . S
C4671 C4676 1.350 . S
C4671 N4679 1.427 . S
C4672 H4663 0.930 . S
C4672 C4670 1.378 . S
C4672 C4673 1.367 . S
C4673 C4672 1.367 . S
C4673 C4675 1.433 . S
C4674 C4670 1.350 . S
C4674 C4671 1.463 . S
C4674 N4678 1.427 . S
C4675 H4665 0.929 . S
C4675 C4673 1.433 . S
C4675 N4678 1.384 . S
C4676 H4667 0.929 . S
C4676 C4668 1.378 . S
C4676 C4671 1.350 . S
C4677 H4664 0.929 . S
C4677 C4669 1.433 . S
C4677 N4679 1.384 . S
N4678 C4674 1.427 . S
N4678 C4675 1.384 . S
N4679 C4671 1.427 . S
N4679 C4677 1.384 . S
H4680 C4686 0.930 . S
H4681 C4690 0.930 . S
H4682 C4695 0.929 . S
H4683 C4693 0.929 . S
H4684 C4688 0.929 . S
H4685 C4694 0.929 . S
C4686 H4680 0.930 . S
C4686 C4687 1.367 . S
C4686 C4694 1.378 . S
C4687 C4686 1.367 . S
C4687 C4695 1.433 . S
C4688 H4684 0.929 . S
C4688 C4690 1.378 . S
C4688 C4692 1.350 . S
C4689 C4692 1.463 . S
C4689 C4694 1.350 . S
C4689 N4697 1.427 . S
C4690 H4681 0.930 . S
C4690 C4688 1.378 . S
C4690 C4691 1.367 . S
C4691 C4690 1.367 . S
C4691 C4693 1.433 . S
C4692 C4688 1.350 . S
C4692 C4689 1.463 . S
C4692 N4696 1.427 . S
C4693 H4683 0.929 . S
C4693 C4691 1.433 . S
C4693 N4696 1.384 . S
C4694 H4685 0.929 . S
C4694 C4686 1.378 . S
C4694 C4689 1.350 . S
C4695 H4682 0.929 . S
C4695 C4687 1.433 . S
C4695 N4697 1.384 . S
N4696 C4692 1.427 . S
N4696 C4693 1.384 . S
N4697 C4689 1.427 . S
N4697 C4695 1.384 . S
H4698 C4704 0.930 . S
H4699 C4708 0.930 . S
H4700 C4713 0.929 . S
H4701 C4711 0.929 . S
H4702 C4706 0.929 . S
H4703 C4712 0.929 . S
C4704 H4698 0.930 . S
C4704 C4705 1.367 . S
C4704 C4712 1.378 . S
C4705 C4704 1.367 . S
C4705 C4713 1.433 . S
C4706 H4702 0.929 . S
C4706 C4708 1.378 . S
C4706 C4710 1.350 . S
C4707 C4710 1.463 . S
C4707 C4712 1.350 . S
C4707 N4715 1.427 . S
C4708 H4699 0.930 . S
C4708 C4706 1.378 . S
C4708 C4709 1.367 . S
C4709 C4708 1.367 . S
C4709 C4711 1.433 . S
C4710 C4706 1.350 . S
C4710 C4707 1.463 . S
C4710 N4714 1.427 . S
C4711 H4701 0.929 . S
C4711 C4709 1.433 . S
C4711 N4714 1.384 . S
C4712 H4703 0.929 . S
C4712 C4704 1.378 . S
C4712 C4707 1.350 . S
C4713 H4700 0.929 . S
C4713 C4705 1.433 . S
C4713 N4715 1.384 . S
N4714 C4710 1.427 . S
N4714 C4711 1.384 . S
N4715 C4707 1.427 . S
N4715 C4713 1.384 . S
H4716 C4722 0.930 . S
H4717 C4726 0.930 . S
H4718 C4731 0.929 . S
H4719 C4729 0.929 . S
H4720 C4724 0.929 . S
H4721 C4730 0.929 . S
C4722 H4716 0.930 . S
C4722 C4723 1.367 . S
C4722 C4730 1.378 . S
C4723 C4722 1.367 . S
C4723 C4731 1.433 . S
C4724 H4720 0.929 . S
C4724 C4726 1.378 . S
C4724 C4728 1.350 . S
C4725 C4728 1.463 . S
C4725 C4730 1.350 . S
C4725 N4733 1.427 . S
C4726 H4717 0.930 . S
C4726 C4724 1.378 . S
C4726 C4727 1.367 . S
C4727 C4726 1.367 . S
C4727 C4729 1.433 . S
C4728 C4724 1.350 . S
C4728 C4725 1.463 . S
C4728 N4732 1.427 . S
C4729 H4719 0.929 . S
C4729 C4727 1.433 . S
C4729 N4732 1.384 . S
C4730 H4721 0.929 . S
C4730 C4722 1.378 . S
C4730 C4725 1.350 . S
C4731 H4718 0.929 . S
C4731 C4723 1.433 . S
C4731 N4733 1.384 . S
N4732 C4728 1.427 . S
N4732 C4729 1.384 . S
N4733 C4725 1.427 . S
N4733 C4731 1.384 . S
H4734 C4740 0.930 . S
H4735 C4744 0.930 . S
H4736 C4749 0.929 . S
H4737 C4747 0.929 . S
H4738 C4742 0.929 . S
H4739 C4748 0.929 . S
C4740 H4734 0.930 . S
C4740 C4741 1.367 . S
C4740 C4748 1.378 . S
C4741 C4740 1.367 . S
C4741 C4749 1.433 . S
C4742 H4738 0.929 . S
C4742 C4744 1.378 . S
C4742 C4746 1.350 . S
C4743 C4746 1.463 . S
C4743 C4748 1.350 . S
C4743 N4751 1.427 . S
C4744 H4735 0.930 . S
C4744 C4742 1.378 . S
C4744 C4745 1.367 . S
C4745 C4744 1.367 . S
C4745 C4747 1.433 . S
C4746 C4742 1.350 . S
C4746 C4743 1.463 . S
C4746 N4750 1.427 . S
C4747 H4737 0.929 . S
C4747 C4745 1.433 . S
C4747 N4750 1.384 . S
C4748 H4739 0.929 . S
C4748 C4740 1.378 . S
C4748 C4743 1.350 . S
C4749 H4736 0.929 . S
C4749 C4741 1.433 . S
C4749 N4751 1.384 . S
N4750 C4746 1.427 . S
N4750 C4747 1.384 . S
N4751 C4743 1.427 . S
N4751 C4749 1.384 . S
H4752 C4758 0.930 . S
H4753 C4762 0.930 . S
H4754 C4767 0.929 . S
H4755 C4765 0.929 . S
H4756 C4760 0.929 . S
H4757 C4766 0.929 . S
C4758 H4752 0.930 . S
C4758 C4759 1.367 . S
C4758 C4766 1.378 . S
C4759 C4758 1.367 . S
C4759 C4767 1.433 . S
C4760 H4756 0.929 . S
C4760 C4762 1.378 . S
C4760 C4764 1.350 . S
C4761 C4764 1.463 . S
C4761 C4766 1.350 . S
C4761 N4769 1.427 . S
C4762 H4753 0.930 . S
C4762 C4760 1.378 . S
C4762 C4763 1.367 . S
C4763 C4762 1.367 . S
C4763 C4765 1.433 . S
C4764 C4760 1.350 . S
C4764 C4761 1.463 . S
C4764 N4768 1.427 . S
C4765 H4755 0.929 . S
C4765 C4763 1.433 . S
C4765 N4768 1.384 . S
C4766 H4757 0.929 . S
C4766 C4758 1.378 . S
C4766 C4761 1.350 . S
C4767 H4754 0.929 . S
C4767 C4759 1.433 . S
C4767 N4769 1.384 . S
N4768 C4764 1.427 . S
N4768 C4765 1.384 . S
N4769 C4761 1.427 . S
N4769 C4767 1.384 . S
H4770 C4776 0.930 . S
H4771 C4780 0.930 . S
H4772 C4785 0.929 . S
H4773 C4783 0.929 . S
H4774 C4778 0.929 . S
H4775 C4784 0.929 . S
C4776 H4770 0.930 . S
C4776 C4777 1.367 . S
C4776 C4784 1.378 . S
C4777 C4776 1.367 . S
C4777 C4785 1.433 . S
C4778 H4774 0.929 . S
C4778 C4780 1.378 . S
C4778 C4782 1.350 . S
C4779 C4782 1.463 . S
C4779 C4784 1.350 . S
C4779 N4787 1.427 . S
C4780 H4771 0.930 . S
C4780 C4778 1.378 . S
C4780 C4781 1.367 . S
C4781 C4780 1.367 . S
C4781 C4783 1.433 . S
C4782 C4778 1.350 . S
C4782 C4779 1.463 . S
C4782 N4786 1.427 . S
C4783 H4773 0.929 . S
C4783 C4781 1.433 . S
C4783 N4786 1.384 . S
C4784 H4775 0.929 . S
C4784 C4776 1.378 . S
C4784 C4779 1.350 . S
C4785 H4772 0.929 . S
C4785 C4777 1.433 . S
C4785 N4787 1.384 . S
N4786 C4782 1.427 . S
N4786 C4783 1.384 . S
N4787 C4779 1.427 . S
N4787 C4785 1.384 . S
H4788 C4794 0.930 . S
H4789 C4798 0.930 . S
H4790 C4803 0.929 . S
H4791 C4801 0.929 . S
H4792 C4796 0.929 . S
H4793 C4802 0.929 . S
C4794 H4788 0.930 . S
C4794 C4795 1.367 . S
C4794 C4802 1.378 . S
C4795 C4794 1.367 . S
C4795 C4803 1.433 . S
C4796 H4792 0.929 . S
C4796 C4798 1.378 . S
C4796 C4800 1.350 . S
C4797 C4800 1.463 . S
C4797 C4802 1.350 . S
C4797 N4805 1.427 . S
C4798 H4789 0.930 . S
C4798 C4796 1.378 . S
C4798 C4799 1.367 . S
C4799 C4798 1.367 . S
C4799 C4801 1.433 . S
C4800 C4796 1.350 . S
C4800 C4797 1.463 . S
C4800 N4804 1.427 . S
C4801 H4791 0.929 . S
C4801 C4799 1.433 . S
C4801 N4804 1.384 . S
C4802 H4793 0.929 . S
C4802 C4794 1.378 . S
C4802 C4797 1.350 . S
C4803 H4790 0.929 . S
C4803 C4795 1.433 . S
C4803 N4805 1.384 . S
N4804 C4800 1.427 . S
N4804 C4801 1.384 . S
N4805 C4797 1.427 . S
N4805 C4803 1.384 . S
H4806 C4812 0.930 . S
H4807 C4816 0.930 . S
H4808 C4821 0.929 . S
H4809 C4819 0.929 . S
H4810 C4814 0.929 . S
H4811 C4820 0.929 . S
C4812 H4806 0.930 . S
C4812 C4813 1.367 . S
C4812 C4820 1.378 . S
C4813 C4812 1.367 . S
C4813 C4821 1.433 . S
C4814 H4810 0.929 . S
C4814 C4816 1.378 . S
C4814 C4818 1.350 . S
C4815 C4818 1.463 . S
C4815 C4820 1.350 . S
C4815 N4823 1.427 . S
C4816 H4807 0.930 . S
C4816 C4814 1.378 . S
C4816 C4817 1.367 . S
C4817 C4816 1.367 . S
C4817 C4819 1.433 . S
C4818 C4814 1.350 . S
C4818 C4815 1.463 . S
C4818 N4822 1.427 . S
C4819 H4809 0.929 . S
C4819 C4817 1.433 . S
C4819 N4822 1.384 . S
C4820 H4811 0.929 . S
C4820 C4812 1.378 . S
C4820 C4815 1.350 . S
C4821 H4808 0.929 . S
C4821 C4813 1.433 . S
C4821 N4823 1.384 . S
N4822 C4818 1.427 . S
N4822 C4819 1.384 . S
N4823 C4815 1.427 . S
N4823 C4821 1.384 . S
H4824 C4830 0.930 . S
H4825 C4834 0.930 . S
H4826 C4839 0.929 . S
H4827 C4837 0.929 . S
H4828 C4832 0.929 . S
H4829 C4838 0.929 . S
C4830 H4824 0.930 . S
C4830 C4831 1.367 . S
C4830 C4838 1.378 . S
C4831 C4830 1.367 . S
C4831 C4839 1.433 . S
C4832 H4828 0.929 . S
C4832 C4834 1.378 . S
C4832 C4836 1.350 . S
C4833 C4836 1.463 . S
C4833 C4838 1.350 . S
C4833 N4841 1.427 . S
C4834 H4825 0.930 . S
C4834 C4832 1.378 . S
C4834 C4835 1.367 . S
C4835 C4834 1.367 . S
C4835 C4837 1.433 . S
C4836 C4832 1.350 . S
C4836 C4833 1.463 . S
C4836 N4840 1.427 . S
C4837 H4827 0.929 . S
C4837 C4835 1.433 . S
C4837 N4840 1.384 . S
C4838 H4829 0.929 . S
C4838 C4830 1.378 . S
C4838 C4833 1.350 . S
C4839 H4826 0.929 . S
C4839 C4831 1.433 . S
C4839 N4841 1.384 . S
N4840 C4836 1.427 . S
N4840 C4837 1.384 . S
N4841 C4833 1.427 . S
N4841 C4839 1.384 . S
H4842 C4848 0.930 . S
H4843 C4852 0.930 . S
H4844 C4857 0.929 . S
H4845 C4855 0.929 . S
H4846 C4850 0.929 . S
H4847 C4856 0.929 . S
C4848 H4842 0.930 . S
C4848 C4849 1.367 . S
C4848 C4856 1.378 . S
C4849 C4848 1.367 . S
C4849 C4857 1.433 . S
C4850 H4846 0.929 . S
C4850 C4852 1.378 . S
C4850 C4854 1.350 . S
C4851 C4854 1.463 . S
C4851 C4856 1.350 . S
C4851 N4859 1.427 . S
C4852 H4843 0.930 . S
C4852 C4850 1.378 . S
C4852 C4853 1.367 . S
C4853 C4852 1.367 . S
C4853 C4855 1.433 . S
C4854 C4850 1.350 . S
C4854 C4851 1.463 . S
C4854 N4858 1.427 . S
C4855 H4845 0.929 . S
C4855 C4853 1.433 . S
C4855 N4858 1.384 . S
C4856 H4847 0.929 . S
C4856 C4848 1.378 . S
C4856 C4851 1.350 . S
C4857 H4844 0.929 . S
C4857 C4849 1.433 . S
C4857 N4859 1.384 . S
N4858 C4854 1.427 . S
N4858 C4855 1.384 . S
N4859 C4851 1.427 . S
N4859 C4857 1.384 . S
H4860 C4866 0.930 . S
H4861 C4870 0.930 . S
H4862 C4875 0.929 . S
H4863 C4873 0.929 . S
H4864 C4868 0.929 . S
H4865 C4874 0.929 . S
C4866 H4860 0.930 . S
C4866 C4867 1.367 . S
C4866 C4874 1.378 . S
C4867 C4866 1.367 . S
C4867 C4875 1.433 . S
C4868 H4864 0.929 . S
C4868 C4870 1.378 . S
C4868 C4872 1.350 . S
C4869 C4872 1.463 . S
C4869 C4874 1.350 . S
C4869 N4877 1.427 . S
C4870 H4861 0.930 . S
C4870 C4868 1.378 . S
C4870 C4871 1.367 . S
C4871 C4870 1.367 . S
C4871 C4873 1.433 . S
C4872 C4868 1.350 . S
C4872 C4869 1.463 . S
C4872 N4876 1.427 . S
C4873 H4863 0.929 . S
C4873 C4871 1.433 . S
C4873 N4876 1.384 . S
C4874 H4865 0.929 . S
C4874 C4866 1.378 . S
C4874 C4869 1.350 . S
C4875 H4862 0.929 . S
C4875 C4867 1.433 . S
C4875 N4877 1.384 . S
N4876 C4872 1.427 . S
N4876 C4873 1.384 . S
N4877 C4869 1.427 . S
N4877 C4875 1.384 . S
H4878 C4884 0.930 . S
H4879 C4888 0.930 . S
H4880 C4893 0.929 . S
H4881 C4891 0.929 . S
H4882 C4886 0.929 . S
H4883 C4892 0.929 . S
C4884 H4878 0.930 . S
C4884 C4885 1.367 . S
C4884 C4892 1.378 . S
C4885 C4884 1.367 . S
C4885 C4893 1.433 . S
C4886 H4882 0.929 . S
C4886 C4888 1.378 . S
C4886 C4890 1.350 . S
C4887 C4890 1.463 . S
C4887 C4892 1.350 . S
C4887 N4895 1.427 . S
C4888 H4879 0.930 . S
C4888 C4886 1.378 . S
C4888 C4889 1.367 . S
C4889 C4888 1.367 . S
C4889 C4891 1.433 . S
C4890 C4886 1.350 . S
C4890 C4887 1.463 . S
C4890 N4894 1.427 . S
C4891 H4881 0.929 . S
C4891 C4889 1.433 . S
C4891 N4894 1.384 . S
C4892 H4883 0.929 . S
C4892 C4884 1.378 . S
C4892 C4887 1.350 . S
C4893 H4880 0.929 . S
C4893 C4885 1.433 . S
C4893 N4895 1.384 . S
N4894 C4890 1.427 . S
N4894 C4891 1.384 . S
N4895 C4887 1.427 . S
N4895 C4893 1.384 . S
H4896 C4902 0.930 . S
H4897 C4906 0.930 . S
H4898 C4911 0.929 . S
H4899 C4909 0.929 . S
H4900 C4904 0.929 . S
H4901 C4910 0.929 . S
C4902 H4896 0.930 . S
C4902 C4903 1.367 . S
C4902 C4910 1.378 . S
C4903 C4902 1.367 . S
C4903 C4911 1.433 . S
C4904 H4900 0.929 . S
C4904 C4906 1.378 . S
C4904 C4908 1.350 . S
C4905 C4908 1.463 . S
C4905 C4910 1.350 . S
C4905 N4913 1.427 . S
C4906 H4897 0.930 . S
C4906 C4904 1.378 . S
C4906 C4907 1.367 . S
C4907 C4906 1.367 . S
C4907 C4909 1.433 . S
C4908 C4904 1.350 . S
C4908 C4905 1.463 . S
C4908 N4912 1.427 . S
C4909 H4899 0.929 . S
C4909 C4907 1.433 . S
C4909 N4912 1.384 . S
C4910 H4901 0.929 . S
C4910 C4902 1.378 . S
C4910 C4905 1.350 . S
C4911 H4898 0.929 . S
C4911 C4903 1.433 . S
C4911 N4913 1.384 . S
N4912 C4908 1.427 . S
N4912 C4909 1.384 . S
N4913 C4905 1.427 . S
N4913 C4911 1.384 . S
H4914 C4920 0.930 . S
H4915 C4924 0.930 . S
H4916 C4929 0.929 . S
H4917 C4927 0.929 . S
H4918 C4922 0.929 . S
H4919 C4928 0.929 . S
C4920 H4914 0.930 . S
C4920 C4921 1.367 . S
C4920 C4928 1.378 . S
C4921 C4920 1.367 . S
C4921 C4929 1.433 . S
C4922 H4918 0.929 . S
C4922 C4924 1.378 . S
C4922 C4926 1.350 . S
C4923 C4926 1.463 . S
C4923 C4928 1.350 . S
C4923 N4931 1.427 . S
C4924 H4915 0.930 . S
C4924 C4922 1.378 . S
C4924 C4925 1.367 . S
C4925 C4924 1.367 . S
C4925 C4927 1.433 . S
C4926 C4922 1.350 . S
C4926 C4923 1.463 . S
C4926 N4930 1.427 . S
C4927 H4917 0.929 . S
C4927 C4925 1.433 . S
C4927 N4930 1.384 . S
C4928 H4919 0.929 . S
C4928 C4920 1.378 . S
C4928 C4923 1.350 . S
C4929 H4916 0.929 . S
C4929 C4921 1.433 . S
C4929 N4931 1.384 . S
N4930 C4926 1.427 . S
N4930 C4927 1.384 . S
N4931 C4923 1.427 . S
N4931 C4929 1.384 . S
H4932 C4938 0.930 . S
H4933 C4942 0.930 . S
H4934 C4947 0.929 . S
H4935 C4945 0.929 . S
H4936 C4940 0.929 . S
H4937 C4946 0.929 . S
C4938 H4932 0.930 . S
C4938 C4939 1.367 . S
C4938 C4946 1.378 . S
C4939 C4938 1.367 . S
C4939 C4947 1.433 . S
C4940 H4936 0.929 . S
C4940 C4942 1.378 . S
C4940 C4944 1.350 . S
C4941 C4944 1.463 . S
C4941 C4946 1.350 . S
C4941 N4949 1.427 . S
C4942 H4933 0.930 . S
C4942 C4940 1.378 . S
C4942 C4943 1.367 . S
C4943 C4942 1.367 . S
C4943 C4945 1.433 . S
C4944 C4940 1.350 . S
C4944 C4941 1.463 . S
C4944 N4948 1.427 . S
C4945 H4935 0.929 . S
C4945 C4943 1.433 . S
C4945 N4948 1.384 . S
C4946 H4937 0.929 . S
C4946 C4938 1.378 . S
C4946 C4941 1.350 . S
C4947 H4934 0.929 . S
C4947 C4939 1.433 . S
C4947 N4949 1.384 . S
N4948 C4944 1.427 . S
N4948 C4945 1.384 . S
N4949 C4941 1.427 . S
N4949 C4947 1.384 . S
H4950 C4956 0.930 . S
H4951 C4960 0.930 . S
H4952 C4965 0.929 . S
H4953 C4963 0.929 . S
H4954 C4958 0.929 . S
H4955 C4964 0.929 . S
C4956 H4950 0.930 . S
C4956 C4957 1.367 . S
C4956 C4964 1.378 . S
C4957 C4956 1.367 . S
C4957 C4965 1.433 . S
C4958 H4954 0.929 . S
C4958 C4960 1.378 . S
C4958 C4962 1.350 . S
C4959 C4962 1.463 . S
C4959 C4964 1.350 . S
C4959 N4967 1.427 . S
C4960 H4951 0.930 . S
C4960 C4958 1.378 . S
C4960 C4961 1.367 . S
C4961 C4960 1.367 . S
C4961 C4963 1.433 . S
C4962 C4958 1.350 . S
C4962 C4959 1.463 . S
C4962 N4966 1.427 . S
C4963 H4953 0.929 . S
C4963 C4961 1.433 . S
C4963 N4966 1.384 . S
C4964 H4955 0.929 . S
C4964 C4956 1.378 . S
C4964 C4959 1.350 . S
C4965 H4952 0.929 . S
C4965 C4957 1.433 . S
C4965 N4967 1.384 . S
N4966 C4962 1.427 . S
N4966 C4963 1.384 . S
N4967 C4959 1.427 . S
N4967 C4965 1.384 . S
H4968 C4974 0.930 . S
H4969 C4978 0.930 . S
H4970 C4983 0.929 . S
H4971 C4981 0.929 . S
H4972 C4976 0.929 . S
H4973 C4982 0.929 . S
C4974 H4968 0.930 . S
C4974 C4975 1.367 . S
C4974 C4982 1.378 . S
C4975 C4974 1.367 . S
C4975 C4983 1.433 . S
C4976 H4972 0.929 . S
C4976 C4978 1.378 . S
C4976 C4980 1.350 . S
C4977 C4980 1.463 . S
C4977 C4982 1.350 . S
C4977 N4985 1.427 . S
C4978 H4969 0.930 . S
C4978 C4976 1.378 . S
C4978 C4979 1.367 . S
C4979 C4978 1.367 . S
C4979 C4981 1.433 . S
C4980 C4976 1.350 . S
C4980 C4977 1.463 . S
C4980 N4984 1.427 . S
C4981 H4971 0.929 . S
C4981 C4979 1.433 . S
C4981 N4984 1.384 . S
C4982 H4973 0.929 . S
C4982 C4974 1.378 . S
C4982 C4977 1.350 . S
C4983 H4970 0.929 . S
C4983 C4975 1.433 . S
C4983 N4985 1.384 . S
N4984 C4980 1.427 . S
N4984 C4981 1.384 . S
N4985 C4977 1.427 . S
N4985 C4983 1.384 . S
H4986 C4992 0.930 . S
H4987 C4996 0.930 . S
H4988 C5001 0.929 . S
H4989 C4999 0.929 . S
H4990 C4994 0.929 . S
H4991 C5000 0.929 . S
C4992 H4986 0.930 . S
C4992 C4993 1.367 . S
C4992 C5000 1.378 . S
C4993 C4992 1.367 . S
C4993 C5001 1.433 . S
C4994 H4990 0.929 . S
C4994 C4996 1.378 . S
C4994 C4998 1.350 . S
C4995 C4998 1.463 . S
C4995 C5000 1.350 . S
C4995 N5003 1.427 . S
C4996 H4987 0.930 . S
C4996 C4994 1.378 . S
C4996 C4997 1.367 . S
C4997 C4996 1.367 . S
C4997 C4999 1.433 . S
C4998 C4994 1.350 . S
C4998 C4995 1.463 . S
C4998 N5002 1.427 . S
C4999 H4989 0.929 . S
C4999 C4997 1.433 . S
C4999 N5002 1.384 . S
C5000 H4991 0.929 . S
C5000 C4992 1.378 . S
C5000 C4995 1.350 . S
C5001 H4988 0.929 . S
C5001 C4993 1.433 . S
C5001 N5003 1.384 . S
N5002 C4998 1.427 . S
N5002 C4999 1.384 . S
N5003 C4995 1.427 . S
N5003 C5001 1.384 . S
H5004 C5010 0.930 . S
H5005 C5014 0.930 . S
H5006 C5019 0.929 . S
H5007 C5017 0.929 . S
H5008 C5012 0.929 . S
H5009 C5018 0.929 . S
C5010 H5004 0.930 . S
C5010 C5011 1.367 . S
C5010 C5018 1.378 . S
C5011 C5010 1.367 . S
C5011 C5019 1.433 . S
C5012 H5008 0.929 . S
C5012 C5014 1.378 . S
C5012 C5016 1.350 . S
C5013 C5016 1.463 . S
C5013 C5018 1.350 . S
C5013 N5021 1.427 . S
C5014 H5005 0.930 . S
C5014 C5012 1.378 . S
C5014 C5015 1.367 . S
C5015 C5014 1.367 . S
C5015 C5017 1.433 . S
C5016 C5012 1.350 . S
C5016 C5013 1.463 . S
C5016 N5020 1.427 . S
C5017 H5007 0.929 . S
C5017 C5015 1.433 . S
C5017 N5020 1.384 . S
C5018 H5009 0.929 . S
C5018 C5010 1.378 . S
C5018 C5013 1.350 . S
C5019 H5006 0.929 . S
C5019 C5011 1.433 . S
C5019 N5021 1.384 . S
N5020 C5016 1.427 . S
N5020 C5017 1.384 . S
N5021 C5013 1.427 . S
N5021 C5019 1.384 . S
H5022 C5028 0.930 . S
H5023 C5032 0.930 . S
H5024 C5037 0.929 . S
H5025 C5035 0.929 . S
H5026 C5030 0.929 . S
H5027 C5036 0.929 . S
C5028 H5022 0.930 . S
C5028 C5029 1.367 . S
C5028 C5036 1.378 . S
C5029 C5028 1.367 . S
C5029 C5037 1.433 . S
C5030 H5026 0.929 . S
C5030 C5032 1.378 . S
C5030 C5034 1.350 . S
C5031 C5034 1.463 . S
C5031 C5036 1.350 . S
C5031 N5039 1.427 . S
C5032 H5023 0.930 . S
C5032 C5030 1.378 . S
C5032 C5033 1.367 . S
C5033 C5032 1.367 . S
C5033 C5035 1.433 . S
C5034 C5030 1.350 . S
C5034 C5031 1.463 . S
C5034 N5038 1.427 . S
C5035 H5025 0.929 . S
C5035 C5033 1.433 . S
C5035 N5038 1.384 . S
C5036 H5027 0.929 . S
C5036 C5028 1.378 . S
C5036 C5031 1.350 . S
C5037 H5024 0.929 . S
C5037 C5029 1.433 . S
C5037 N5039 1.384 . S
N5038 C5034 1.427 . S
N5038 C5035 1.384 . S
N5039 C5031 1.427 . S
N5039 C5037 1.384 . S
H5040 C5046 0.930 . S
H5041 C5050 0.930 . S
H5042 C5055 0.929 . S
H5043 C5053 0.929 . S
H5044 C5048 0.929 . S
H5045 C5054 0.929 . S
C5046 H5040 0.930 . S
C5046 C5047 1.367 . S
C5046 C5054 1.378 . S
C5047 C5046 1.367 . S
C5047 C5055 1.433 . S
C5048 H5044 0.929 . S
C5048 C5050 1.378 . S
C5048 C5052 1.350 . S
C5049 C5052 1.463 . S
C5049 C5054 1.350 . S
C5049 N5057 1.427 . S
C5050 H5041 0.930 . S
C5050 C5048 1.378 . S
C5050 C5051 1.367 . S
C5051 C5050 1.367 . S
C5051 C5053 1.433 . S
C5052 C5048 1.350 . S
C5052 C5049 1.463 . S
C5052 N5056 1.427 . S
C5053 H5043 0.929 . S
C5053 C5051 1.433 . S
C5053 N5056 1.384 . S
C5054 H5045 0.929 . S
C5054 C5046 1.378 . S
C5054 C5049 1.350 . S
C5055 H5042 0.929 . S
C5055 C5047 1.433 . S
C5055 N5057 1.384 . S
N5056 C5052 1.427 . S
N5056 C5053 1.384 . S
N5057 C5049 1.427 . S
N5057 C5055 1.384 . S
H5058 C5064 0.930 . S
H5059 C5068 0.930 . S
H5060 C5073 0.929 . S
H5061 C5071 0.929 . S
H5062 C5066 0.929 . S
H5063 C5072 0.929 . S
C5064 H5058 0.930 . S
C5064 C5065 1.367 . S
C5064 C5072 1.378 . S
C5065 C5064 1.367 . S
C5065 C5073 1.433 . S
C5066 H5062 0.929 . S
C5066 C5068 1.378 . S
C5066 C5070 1.350 . S
C5067 C5070 1.463 . S
C5067 C5072 1.350 . S
C5067 N5075 1.427 . S
C5068 H5059 0.930 . S
C5068 C5066 1.378 . S
C5068 C5069 1.367 . S
C5069 C5068 1.367 . S
C5069 C5071 1.433 . S
C5070 C5066 1.350 . S
C5070 C5067 1.463 . S
C5070 N5074 1.427 . S
C5071 H5061 0.929 . S
C5071 C5069 1.433 . S
C5071 N5074 1.384 . S
C5072 H5063 0.929 . S
C5072 C5064 1.378 . S
C5072 C5067 1.350 . S
C5073 H5060 0.929 . S
C5073 C5065 1.433 . S
C5073 N5075 1.384 . S
N5074 C5070 1.427 . S
N5074 C5071 1.384 . S
N5075 C5067 1.427 . S
N5075 C5073 1.384 . S
H5076 C5082 0.930 . S
H5077 C5086 0.930 . S
H5078 C5091 0.929 . S
H5079 C5089 0.929 . S
H5080 C5084 0.929 . S
H5081 C5090 0.929 . S
C5082 H5076 0.930 . S
C5082 C5083 1.367 . S
C5082 C5090 1.378 . S
C5083 C5082 1.367 . S
C5083 C5091 1.433 . S
C5084 H5080 0.929 . S
C5084 C5086 1.378 . S
C5084 C5088 1.350 . S
C5085 C5088 1.463 . S
C5085 C5090 1.350 . S
C5085 N5093 1.427 . S
C5086 H5077 0.930 . S
C5086 C5084 1.378 . S
C5086 C5087 1.367 . S
C5087 C5086 1.367 . S
C5087 C5089 1.433 . S
C5088 C5084 1.350 . S
C5088 C5085 1.463 . S
C5088 N5092 1.427 . S
C5089 H5079 0.929 . S
C5089 C5087 1.433 . S
C5089 N5092 1.384 . S
C5090 H5081 0.929 . S
C5090 C5082 1.378 . S
C5090 C5085 1.350 . S
C5091 H5078 0.929 . S
C5091 C5083 1.433 . S
C5091 N5093 1.384 . S
N5092 C5088 1.427 . S
N5092 C5089 1.384 . S
N5093 C5085 1.427 . S
N5093 C5091 1.384 . S
H5094 C5100 0.930 . S
H5095 C5104 0.930 . S
H5096 C5109 0.929 . S
H5097 C5107 0.929 . S
H5098 C5102 0.929 . S
H5099 C5108 0.929 . S
C5100 H5094 0.930 . S
C5100 C5101 1.367 . S
C5100 C5108 1.378 . S
C5101 C5100 1.367 . S
C5101 C5109 1.433 . S
C5102 H5098 0.929 . S
C5102 C5104 1.378 . S
C5102 C5106 1.350 . S
C5103 C5106 1.463 . S
C5103 C5108 1.350 . S
C5103 N5111 1.427 . S
C5104 H5095 0.930 . S
C5104 C5102 1.378 . S
C5104 C5105 1.367 . S
C5105 C5104 1.367 . S
C5105 C5107 1.433 . S
C5106 C5102 1.350 . S
C5106 C5103 1.463 . S
C5106 N5110 1.427 . S
C5107 H5097 0.929 . S
C5107 C5105 1.433 . S
C5107 N5110 1.384 . S
C5108 H5099 0.929 . S
C5108 C5100 1.378 . S
C5108 C5103 1.350 . S
C5109 H5096 0.929 . S
C5109 C5101 1.433 . S
C5109 N5111 1.384 . S
N5110 C5106 1.427 . S
N5110 C5107 1.384 . S
N5111 C5103 1.427 . S
N5111 C5109 1.384 . S
H5112 C5118 0.930 . S
H5113 C5122 0.930 . S
H5114 C5127 0.929 . S
H5115 C5125 0.929 . S
H5116 C5120 0.929 . S
H5117 C5126 0.929 . S
C5118 H5112 0.930 . S
C5118 C5119 1.367 . S
C5118 C5126 1.378 . S
C5119 C5118 1.367 . S
C5119 C5127 1.433 . S
C5120 H5116 0.929 . S
C5120 C5122 1.378 . S
C5120 C5124 1.350 . S
C5121 C5124 1.463 . S
C5121 C5126 1.350 . S
C5121 N5129 1.427 . S
C5122 H5113 0.930 . S
C5122 C5120 1.378 . S
C5122 C5123 1.367 . S
C5123 C5122 1.367 . S
C5123 C5125 1.433 . S
C5124 C5120 1.350 . S
C5124 C5121 1.463 . S
C5124 N5128 1.427 . S
C5125 H5115 0.929 . S
C5125 C5123 1.433 . S
C5125 N5128 1.384 . S
C5126 H5117 0.929 . S
C5126 C5118 1.378 . S
C5126 C5121 1.350 . S
C5127 H5114 0.929 . S
C5127 C5119 1.433 . S
C5127 N5129 1.384 . S
N5128 C5124 1.427 . S
N5128 C5125 1.384 . S
N5129 C5121 1.427 . S
N5129 C5127 1.384 . S
H5130 C5136 0.930 . S
H5131 C5140 0.930 . S
H5132 C5145 0.929 . S
H5133 C5143 0.929 . S
H5134 C5138 0.929 . S
H5135 C5144 0.929 . S
C5136 H5130 0.930 . S
C5136 C5137 1.367 . S
C5136 C5144 1.378 . S
C5137 C5136 1.367 . S
C5137 C5145 1.433 . S
C5138 H5134 0.929 . S
C5138 C5140 1.378 . S
C5138 C5142 1.350 . S
C5139 C5142 1.463 . S
C5139 C5144 1.350 . S
C5139 N5147 1.427 . S
C5140 H5131 0.930 . S
C5140 C5138 1.378 . S
C5140 C5141 1.367 . S
C5141 C5140 1.367 . S
C5141 C5143 1.433 . S
C5142 C5138 1.350 . S
C5142 C5139 1.463 . S
C5142 N5146 1.427 . S
C5143 H5133 0.929 . S
C5143 C5141 1.433 . S
C5143 N5146 1.384 . S
C5144 H5135 0.929 . S
C5144 C5136 1.378 . S
C5144 C5139 1.350 . S
C5145 H5132 0.929 . S
C5145 C5137 1.433 . S
C5145 N5147 1.384 . S
N5146 C5142 1.427 . S
N5146 C5143 1.384 . S
N5147 C5139 1.427 . S
N5147 C5145 1.384 . S
H5148 C5154 0.930 . S
H5149 C5158 0.930 . S
H5150 C5163 0.929 . S
H5151 C5161 0.929 . S
H5152 C5156 0.929 . S
H5153 C5162 0.929 . S
C5154 H5148 0.930 . S
C5154 C5155 1.367 . S
C5154 C5162 1.378 . S
C5155 C5154 1.367 . S
C5155 C5163 1.433 . S
C5156 H5152 0.929 . S
C5156 C5158 1.378 . S
C5156 C5160 1.350 . S
C5157 C5160 1.463 . S
C5157 C5162 1.350 . S
C5157 N5165 1.427 . S
C5158 H5149 0.930 . S
C5158 C5156 1.378 . S
C5158 C5159 1.367 . S
C5159 C5158 1.367 . S
C5159 C5161 1.433 . S
C5160 C5156 1.350 . S
C5160 C5157 1.463 . S
C5160 N5164 1.427 . S
C5161 H5151 0.929 . S
C5161 C5159 1.433 . S
C5161 N5164 1.384 . S
C5162 H5153 0.929 . S
C5162 C5154 1.378 . S
C5162 C5157 1.350 . S
C5163 H5150 0.929 . S
C5163 C5155 1.433 . S
C5163 N5165 1.384 . S
N5164 C5160 1.427 . S
N5164 C5161 1.384 . S
N5165 C5157 1.427 . S
N5165 C5163 1.384 . S
H5166 C5172 0.930 . S
H5167 C5176 0.930 . S
H5168 C5181 0.929 . S
H5169 C5179 0.929 . S
H5170 C5174 0.929 . S
H5171 C5180 0.929 . S
C5172 H5166 0.930 . S
C5172 C5173 1.367 . S
C5172 C5180 1.378 . S
C5173 C5172 1.367 . S
C5173 C5181 1.433 . S
C5174 H5170 0.929 . S
C5174 C5176 1.378 . S
C5174 C5178 1.350 . S
C5175 C5178 1.463 . S
C5175 C5180 1.350 . S
C5175 N5183 1.427 . S
C5176 H5167 0.930 . S
C5176 C5174 1.378 . S
C5176 C5177 1.367 . S
C5177 C5176 1.367 . S
C5177 C5179 1.433 . S
C5178 C5174 1.350 . S
C5178 C5175 1.463 . S
C5178 N5182 1.427 . S
C5179 H5169 0.929 . S
C5179 C5177 1.433 . S
C5179 N5182 1.384 . S
C5180 H5171 0.929 . S
C5180 C5172 1.378 . S
C5180 C5175 1.350 . S
C5181 H5168 0.929 . S
C5181 C5173 1.433 . S
C5181 N5183 1.384 . S
N5182 C5178 1.427 . S
N5182 C5179 1.384 . S
N5183 C5175 1.427 . S
N5183 C5181 1.384 . S
H5184 C5190 0.930 . S
H5185 C5194 0.930 . S
H5186 C5199 0.929 . S
H5187 C5197 0.929 . S
H5188 C5192 0.929 . S
H5189 C5198 0.929 . S
C5190 H5184 0.930 . S
C5190 C5191 1.367 . S
C5190 C5198 1.378 . S
C5191 C5190 1.367 . S
C5191 C5199 1.433 . S
C5192 H5188 0.929 . S
C5192 C5194 1.378 . S
C5192 C5196 1.350 . S
C5193 C5196 1.463 . S
C5193 C5198 1.350 . S
C5193 N5201 1.427 . S
C5194 H5185 0.930 . S
C5194 C5192 1.378 . S
C5194 C5195 1.367 . S
C5195 C5194 1.367 . S
C5195 C5197 1.433 . S
C5196 C5192 1.350 . S
C5196 C5193 1.463 . S
C5196 N5200 1.427 . S
C5197 H5187 0.929 . S
C5197 C5195 1.433 . S
C5197 N5200 1.384 . S
C5198 H5189 0.929 . S
C5198 C5190 1.378 . S
C5198 C5193 1.350 . S
C5199 H5186 0.929 . S
C5199 C5191 1.433 . S
C5199 N5201 1.384 . S
N5200 C5196 1.427 . S
N5200 C5197 1.384 . S
N5201 C5193 1.427 . S
N5201 C5199 1.384 . S
H5202 C5208 0.930 . S
H5203 C5212 0.930 . S
H5204 C5217 0.929 . S
H5205 C5215 0.929 . S
H5206 C5210 0.929 . S
H5207 C5216 0.929 . S
C5208 H5202 0.930 . S
C5208 C5209 1.367 . S
C5208 C5216 1.378 . S
C5209 C5208 1.367 . S
C5209 C5217 1.433 . S
C5210 H5206 0.929 . S
C5210 C5212 1.378 . S
C5210 C5214 1.350 . S
C5211 C5214 1.463 . S
C5211 C5216 1.350 . S
C5211 N5219 1.427 . S
C5212 H5203 0.930 . S
C5212 C5210 1.378 . S
C5212 C5213 1.367 . S
C5213 C5212 1.367 . S
C5213 C5215 1.433 . S
C5214 C5210 1.350 . S
C5214 C5211 1.463 . S
C5214 N5218 1.427 . S
C5215 H5205 0.929 . S
C5215 C5213 1.433 . S
C5215 N5218 1.384 . S
C5216 H5207 0.929 . S
C5216 C5208 1.378 . S
C5216 C5211 1.350 . S
C5217 H5204 0.929 . S
C5217 C5209 1.433 . S
C5217 N5219 1.384 . S
N5218 C5214 1.427 . S
N5218 C5215 1.384 . S
N5219 C5211 1.427 . S
N5219 C5217 1.384 . S
H5220 C5226 0.930 . S
H5221 C5230 0.930 . S
H5222 C5235 0.929 . S
H5223 C5233 0.929 . S
H5224 C5228 0.929 . S
H5225 C5234 0.929 . S
C5226 H5220 0.930 . S
C5226 C5227 1.367 . S
C5226 C5234 1.378 . S
C5227 C5226 1.367 . S
C5227 C5235 1.433 . S
C5228 H5224 0.929 . S
C5228 C5230 1.378 . S
C5228 C5232 1.350 . S
C5229 C5232 1.463 . S
C5229 C5234 1.350 . S
C5229 N5237 1.427 . S
C5230 H5221 0.930 . S
C5230 C5228 1.378 . S
C5230 C5231 1.367 . S
C5231 C5230 1.367 . S
C5231 C5233 1.433 . S
C5232 C5228 1.350 . S
C5232 C5229 1.463 . S
C5232 N5236 1.427 . S
C5233 H5223 0.929 . S
C5233 C5231 1.433 . S
C5233 N5236 1.384 . S
C5234 H5225 0.929 . S
C5234 C5226 1.378 . S
C5234 C5229 1.350 . S
C5235 H5222 0.929 . S
C5235 C5227 1.433 . S
C5235 N5237 1.384 . S
N5236 C5232 1.427 . S
N5236 C5233 1.384 . S
N5237 C5229 1.427 . S
N5237 C5235 1.384 . S
H5238 C5244 0.930 . S
H5239 C5248 0.930 . S
H5240 C5253 0.929 . S
H5241 C5251 0.929 . S
H5242 C5246 0.929 . S
H5243 C5252 0.929 . S
C5244 H5238 0.930 . S
C5244 C5245 1.367 . S
C5244 C5252 1.378 . S
C5245 C5244 1.367 . S
C5245 C5253 1.433 . S
C5246 H5242 0.929 . S
C5246 C5248 1.378 . S
C5246 C5250 1.350 . S
C5247 C5250 1.463 . S
C5247 C5252 1.350 . S
C5247 N5255 1.427 . S
C5248 H5239 0.930 . S
C5248 C5246 1.378 . S
C5248 C5249 1.367 . S
C5249 C5248 1.367 . S
C5249 C5251 1.433 . S
C5250 C5246 1.350 . S
C5250 C5247 1.463 . S
C5250 N5254 1.427 . S
C5251 H5241 0.929 . S
C5251 C5249 1.433 . S
C5251 N5254 1.384 . S
C5252 H5243 0.929 . S
C5252 C5244 1.378 . S
C5252 C5247 1.350 . S
C5253 H5240 0.929 . S
C5253 C5245 1.433 . S
C5253 N5255 1.384 . S
N5254 C5250 1.427 . S
N5254 C5251 1.384 . S
N5255 C5247 1.427 . S
N5255 C5253 1.384 . S
H5256 C5262 0.930 . S
H5257 C5266 0.930 . S
H5258 C5271 0.929 . S
H5259 C5269 0.929 . S
H5260 C5264 0.929 . S
H5261 C5270 0.929 . S
C5262 H5256 0.930 . S
C5262 C5263 1.367 . S
C5262 C5270 1.378 . S
C5263 C5262 1.367 . S
C5263 C5271 1.433 . S
C5264 H5260 0.929 . S
C5264 C5266 1.378 . S
C5264 C5268 1.350 . S
C5265 C5268 1.463 . S
C5265 C5270 1.350 . S
C5265 N5273 1.427 . S
C5266 H5257 0.930 . S
C5266 C5264 1.378 . S
C5266 C5267 1.367 . S
C5267 C5266 1.367 . S
C5267 C5269 1.433 . S
C5268 C5264 1.350 . S
C5268 C5265 1.463 . S
C5268 N5272 1.427 . S
C5269 H5259 0.929 . S
C5269 C5267 1.433 . S
C5269 N5272 1.384 . S
C5270 H5261 0.929 . S
C5270 C5262 1.378 . S
C5270 C5265 1.350 . S
C5271 H5258 0.929 . S
C5271 C5263 1.433 . S
C5271 N5273 1.384 . S
N5272 C5268 1.427 . S
N5272 C5269 1.384 . S
N5273 C5265 1.427 . S
N5273 C5271 1.384 . S
H5274 C5280 0.930 . S
H5275 C5284 0.930 . S
H5276 C5289 0.929 . S
H5277 C5287 0.929 . S
H5278 C5282 0.929 . S
H5279 C5288 0.929 . S
C5280 H5274 0.930 . S
C5280 C5281 1.367 . S
C5280 C5288 1.378 . S
C5281 C5280 1.367 . S
C5281 C5289 1.433 . S
C5282 H5278 0.929 . S
C5282 C5284 1.378 . S
C5282 C5286 1.350 . S
C5283 C5286 1.463 . S
C5283 C5288 1.350 . S
C5283 N5291 1.427 . S
C5284 H5275 0.930 . S
C5284 C5282 1.378 . S
C5284 C5285 1.367 . S
C5285 C5284 1.367 . S
C5285 C5287 1.433 . S
C5286 C5282 1.350 . S
C5286 C5283 1.463 . S
C5286 N5290 1.427 . S
C5287 H5277 0.929 . S
C5287 C5285 1.433 . S
C5287 N5290 1.384 . S
C5288 H5279 0.929 . S
C5288 C5280 1.378 . S
C5288 C5283 1.350 . S
C5289 H5276 0.929 . S
C5289 C5281 1.433 . S
C5289 N5291 1.384 . S
N5290 C5286 1.427 . S
N5290 C5287 1.384 . S
N5291 C5283 1.427 . S
N5291 C5289 1.384 . S
H5292 C5298 0.930 . S
H5293 C5302 0.930 . S
H5294 C5307 0.929 . S
H5295 C5305 0.929 . S
H5296 C5300 0.929 . S
H5297 C5306 0.929 . S
C5298 H5292 0.930 . S
C5298 C5299 1.367 . S
C5298 C5306 1.378 . S
C5299 C5298 1.367 . S
C5299 C5307 1.433 . S
C5300 H5296 0.929 . S
C5300 C5302 1.378 . S
C5300 C5304 1.350 . S
C5301 C5304 1.463 . S
C5301 C5306 1.350 . S
C5301 N5309 1.427 . S
C5302 H5293 0.930 . S
C5302 C5300 1.378 . S
C5302 C5303 1.367 . S
C5303 C5302 1.367 . S
C5303 C5305 1.433 . S
C5304 C5300 1.350 . S
C5304 C5301 1.463 . S
C5304 N5308 1.427 . S
C5305 H5295 0.929 . S
C5305 C5303 1.433 . S
C5305 N5308 1.384 . S
C5306 H5297 0.929 . S
C5306 C5298 1.378 . S
C5306 C5301 1.350 . S
C5307 H5294 0.929 . S
C5307 C5299 1.433 . S
C5307 N5309 1.384 . S
N5308 C5304 1.427 . S
N5308 C5305 1.384 . S
N5309 C5301 1.427 . S
N5309 C5307 1.384 . S
H5310 C5316 0.930 . S
H5311 C5320 0.930 . S
H5312 C5325 0.929 . S
H5313 C5323 0.929 . S
H5314 C5318 0.929 . S
H5315 C5324 0.929 . S
C5316 H5310 0.930 . S
C5316 C5317 1.367 . S
C5316 C5324 1.378 . S
C5317 C5316 1.367 . S
C5317 C5325 1.433 . S
C5318 H5314 0.929 . S
C5318 C5320 1.378 . S
C5318 C5322 1.350 . S
C5319 C5322 1.463 . S
C5319 C5324 1.350 . S
C5319 N5327 1.427 . S
C5320 H5311 0.930 . S
C5320 C5318 1.378 . S
C5320 C5321 1.367 . S
C5321 C5320 1.367 . S
C5321 C5323 1.433 . S
C5322 C5318 1.350 . S
C5322 C5319 1.463 . S
C5322 N5326 1.427 . S
C5323 H5313 0.929 . S
C5323 C5321 1.433 . S
C5323 N5326 1.384 . S
C5324 H5315 0.929 . S
C5324 C5316 1.378 . S
C5324 C5319 1.350 . S
C5325 H5312 0.929 . S
C5325 C5317 1.433 . S
C5325 N5327 1.384 . S
N5326 C5322 1.427 . S
N5326 C5323 1.384 . S
N5327 C5319 1.427 . S
N5327 C5325 1.384 . S
H5328 C5334 0.930 . S
H5329 C5338 0.930 . S
H5330 C5343 0.929 . S
H5331 C5341 0.929 . S
H5332 C5336 0.929 . S
H5333 C5342 0.929 . S
C5334 H5328 0.930 . S
C5334 C5335 1.367 . S
C5334 C5342 1.378 . S
C5335 C5334 1.367 . S
C5335 C5343 1.433 . S
C5336 H5332 0.929 . S
C5336 C5338 1.378 . S
C5336 C5340 1.350 . S
C5337 C5340 1.463 . S
C5337 C5342 1.350 . S
C5337 N5345 1.427 . S
C5338 H5329 0.930 . S
C5338 C5336 1.378 . S
C5338 C5339 1.367 . S
C5339 C5338 1.367 . S
C5339 C5341 1.433 . S
C5340 C5336 1.350 . S
C5340 C5337 1.463 . S
C5340 N5344 1.427 . S
C5341 H5331 0.929 . S
C5341 C5339 1.433 . S
C5341 N5344 1.384 . S
C5342 H5333 0.929 . S
C5342 C5334 1.378 . S
C5342 C5337 1.350 . S
C5343 H5330 0.929 . S
C5343 C5335 1.433 . S
C5343 N5345 1.384 . S
N5344 C5340 1.427 . S
N5344 C5341 1.384 . S
N5345 C5337 1.427 . S
N5345 C5343 1.384 . S
H5346 C5352 0.930 . S
H5347 C5356 0.930 . S
H5348 C5361 0.929 . S
H5349 C5359 0.929 . S
H5350 C5354 0.929 . S
H5351 C5360 0.929 . S
C5352 H5346 0.930 . S
C5352 C5353 1.367 . S
C5352 C5360 1.378 . S
C5353 C5352 1.367 . S
C5353 C5361 1.433 . S
C5354 H5350 0.929 . S
C5354 C5356 1.378 . S
C5354 C5358 1.350 . S
C5355 C5358 1.463 . S
C5355 C5360 1.350 . S
C5355 N5363 1.427 . S
C5356 H5347 0.930 . S
C5356 C5354 1.378 . S
C5356 C5357 1.367 . S
C5357 C5356 1.367 . S
C5357 C5359 1.433 . S
C5358 C5354 1.350 . S
C5358 C5355 1.463 . S
C5358 N5362 1.427 . S
C5359 H5349 0.929 . S
C5359 C5357 1.433 . S
C5359 N5362 1.384 . S
C5360 H5351 0.929 . S
C5360 C5352 1.378 . S
C5360 C5355 1.350 . S
C5361 H5348 0.929 . S
C5361 C5353 1.433 . S
C5361 N5363 1.384 . S
N5362 C5358 1.427 . S
N5362 C5359 1.384 . S
N5363 C5355 1.427 . S
N5363 C5361 1.384 . S
H5364 C5370 0.930 . S
H5365 C5374 0.930 . S
H5366 C5379 0.929 . S
H5367 C5377 0.929 . S
H5368 C5372 0.929 . S
H5369 C5378 0.929 . S
C5370 H5364 0.930 . S
C5370 C5371 1.367 . S
C5370 C5378 1.378 . S
C5371 C5370 1.367 . S
C5371 C5379 1.433 . S
C5372 H5368 0.929 . S
C5372 C5374 1.378 . S
C5372 C5376 1.350 . S
C5373 C5376 1.463 . S
C5373 C5378 1.350 . S
C5373 N5381 1.427 . S
C5374 H5365 0.930 . S
C5374 C5372 1.378 . S
C5374 C5375 1.367 . S
C5375 C5374 1.367 . S
C5375 C5377 1.433 . S
C5376 C5372 1.350 . S
C5376 C5373 1.463 . S
C5376 N5380 1.427 . S
C5377 H5367 0.929 . S
C5377 C5375 1.433 . S
C5377 N5380 1.384 . S
C5378 H5369 0.929 . S
C5378 C5370 1.378 . S
C5378 C5373 1.350 . S
C5379 H5366 0.929 . S
C5379 C5371 1.433 . S
C5379 N5381 1.384 . S
N5380 C5376 1.427 . S
N5380 C5377 1.384 . S
N5381 C5373 1.427 . S
N5381 C5379 1.384 . S
H5382 C5388 0.930 . S
H5383 C5392 0.930 . S
H5384 C5397 0.929 . S
H5385 C5395 0.929 . S
H5386 C5390 0.929 . S
H5387 C5396 0.929 . S
C5388 H5382 0.930 . S
C5388 C5389 1.367 . S
C5388 C5396 1.378 . S
C5389 C5388 1.367 . S
C5389 C5397 1.433 . S
C5390 H5386 0.929 . S
C5390 C5392 1.378 . S
C5390 C5394 1.350 . S
C5391 C5394 1.463 . S
C5391 C5396 1.350 . S
C5391 N5399 1.427 . S
C5392 H5383 0.930 . S
C5392 C5390 1.378 . S
C5392 C5393 1.367 . S
C5393 C5392 1.367 . S
C5393 C5395 1.433 . S
C5394 C5390 1.350 . S
C5394 C5391 1.463 . S
C5394 N5398 1.427 . S
C5395 H5385 0.929 . S
C5395 C5393 1.433 . S
C5395 N5398 1.384 . S
C5396 H5387 0.929 . S
C5396 C5388 1.378 . S
C5396 C5391 1.350 . S
C5397 H5384 0.929 . S
C5397 C5389 1.433 . S
C5397 N5399 1.384 . S
N5398 C5394 1.427 . S
N5398 C5395 1.384 . S
N5399 C5391 1.427 . S
N5399 C5397 1.384 . S
H5400 C5406 0.930 . S
H5401 C5410 0.930 . S
H5402 C5415 0.929 . S
H5403 C5413 0.929 . S
H5404 C5408 0.929 . S
H5405 C5414 0.929 . S
C5406 H5400 0.930 . S
C5406 C5407 1.367 . S
C5406 C5414 1.378 . S
C5407 C5406 1.367 . S
C5407 C5415 1.433 . S
C5408 H5404 0.929 . S
C5408 C5410 1.378 . S
C5408 C5412 1.350 . S
C5409 C5412 1.463 . S
C5409 C5414 1.350 . S
C5409 N5417 1.427 . S
C5410 H5401 0.930 . S
C5410 C5408 1.378 . S
C5410 C5411 1.367 . S
C5411 C5410 1.367 . S
C5411 C5413 1.433 . S
C5412 C5408 1.350 . S
C5412 C5409 1.463 . S
C5412 N5416 1.427 . S
C5413 H5403 0.929 . S
C5413 C5411 1.433 . S
C5413 N5416 1.384 . S
C5414 H5405 0.929 . S
C5414 C5406 1.378 . S
C5414 C5409 1.350 . S
C5415 H5402 0.929 . S
C5415 C5407 1.433 . S
C5415 N5417 1.384 . S
N5416 C5412 1.427 . S
N5416 C5413 1.384 . S
N5417 C5409 1.427 . S
N5417 C5415 1.384 . S
H5418 C5424 0.930 . S
H5419 C5428 0.930 . S
H5420 C5433 0.929 . S
H5421 C5431 0.929 . S
H5422 C5426 0.929 . S
H5423 C5432 0.929 . S
C5424 H5418 0.930 . S
C5424 C5425 1.367 . S
C5424 C5432 1.378 . S
C5425 C5424 1.367 . S
C5425 C5433 1.433 . S
C5426 H5422 0.929 . S
C5426 C5428 1.378 . S
C5426 C5430 1.350 . S
C5427 C5430 1.463 . S
C5427 C5432 1.350 . S
C5427 N5435 1.427 . S
C5428 H5419 0.930 . S
C5428 C5426 1.378 . S
C5428 C5429 1.367 . S
C5429 C5428 1.367 . S
C5429 C5431 1.433 . S
C5430 C5426 1.350 . S
C5430 C5427 1.463 . S
C5430 N5434 1.427 . S
C5431 H5421 0.929 . S
C5431 C5429 1.433 . S
C5431 N5434 1.384 . S
C5432 H5423 0.929 . S
C5432 C5424 1.378 . S
C5432 C5427 1.350 . S
C5433 H5420 0.929 . S
C5433 C5425 1.433 . S
C5433 N5435 1.384 . S
N5434 C5430 1.427 . S
N5434 C5431 1.384 . S
N5435 C5427 1.427 . S
N5435 C5433 1.384 . S
H5436 C5442 0.930 . S
H5437 C5446 0.930 . S
H5438 C5451 0.929 . S
H5439 C5449 0.929 . S
H5440 C5444 0.929 . S
H5441 C5450 0.929 . S
C5442 H5436 0.930 . S
C5442 C5443 1.367 . S
C5442 C5450 1.378 . S
C5443 C5442 1.367 . S
C5443 C5451 1.433 . S
C5444 H5440 0.929 . S
C5444 C5446 1.378 . S
C5444 C5448 1.350 . S
C5445 C5448 1.463 . S
C5445 C5450 1.350 . S
C5445 N5453 1.427 . S
C5446 H5437 0.930 . S
C5446 C5444 1.378 . S
C5446 C5447 1.367 . S
C5447 C5446 1.367 . S
C5447 C5449 1.433 . S
C5448 C5444 1.350 . S
C5448 C5445 1.463 . S
C5448 N5452 1.427 . S
C5449 H5439 0.929 . S
C5449 C5447 1.433 . S
C5449 N5452 1.384 . S
C5450 H5441 0.929 . S
C5450 C5442 1.378 . S
C5450 C5445 1.350 . S
C5451 H5438 0.929 . S
C5451 C5443 1.433 . S
C5451 N5453 1.384 . S
N5452 C5448 1.427 . S
N5452 C5449 1.384 . S
N5453 C5445 1.427 . S
N5453 C5451 1.384 . S
H5454 C5460 0.930 . S
H5455 C5464 0.930 . S
H5456 C5469 0.929 . S
H5457 C5467 0.929 . S
H5458 C5462 0.929 . S
H5459 C5468 0.929 . S
C5460 H5454 0.930 . S
C5460 C5461 1.367 . S
C5460 C5468 1.378 . S
C5461 C5460 1.367 . S
C5461 C5469 1.433 . S
C5462 H5458 0.929 . S
C5462 C5464 1.378 . S
C5462 C5466 1.350 . S
C5463 C5466 1.463 . S
C5463 C5468 1.350 . S
C5463 N5471 1.427 . S
C5464 H5455 0.930 . S
C5464 C5462 1.378 . S
C5464 C5465 1.367 . S
C5465 C5464 1.367 . S
C5465 C5467 1.433 . S
C5466 C5462 1.350 . S
C5466 C5463 1.463 . S
C5466 N5470 1.427 . S
C5467 H5457 0.929 . S
C5467 C5465 1.433 . S
C5467 N5470 1.384 . S
C5468 H5459 0.929 . S
C5468 C5460 1.378 . S
C5468 C5463 1.350 . S
C5469 H5456 0.929 . S
C5469 C5461 1.433 . S
C5469 N5471 1.384 . S
N5470 C5466 1.427 . S
N5470 C5467 1.384 . S
N5471 C5463 1.427 . S
N5471 C5469 1.384 . S
H5472 C5478 0.930 . S
H5473 C5482 0.930 . S
H5474 C5487 0.929 . S
H5475 C5485 0.929 . S
H5476 C5480 0.929 . S
H5477 C5486 0.929 . S
C5478 H5472 0.930 . S
C5478 C5479 1.367 . S
C5478 C5486 1.378 . S
C5479 C5478 1.367 . S
C5479 C5487 1.433 . S
C5480 H5476 0.929 . S
C5480 C5482 1.378 . S
C5480 C5484 1.350 . S
C5481 C5484 1.463 . S
C5481 C5486 1.350 . S
C5481 N5489 1.427 . S
C5482 H5473 0.930 . S
C5482 C5480 1.378 . S
C5482 C5483 1.367 . S
C5483 C5482 1.367 . S
C5483 C5485 1.433 . S
C5484 C5480 1.350 . S
C5484 C5481 1.463 . S
C5484 N5488 1.427 . S
C5485 H5475 0.929 . S
C5485 C5483 1.433 . S
C5485 N5488 1.384 . S
C5486 H5477 0.929 . S
C5486 C5478 1.378 . S
C5486 C5481 1.350 . S
C5487 H5474 0.929 . S
C5487 C5479 1.433 . S
C5487 N5489 1.384 . S
N5488 C5484 1.427 . S
N5488 C5485 1.384 . S
N5489 C5481 1.427 . S
N5489 C5487 1.384 . S
H5490 C5496 0.930 . S
H5491 C5500 0.930 . S
H5492 C5505 0.929 . S
H5493 C5503 0.929 . S
H5494 C5498 0.929 . S
H5495 C5504 0.929 . S
C5496 H5490 0.930 . S
C5496 C5497 1.367 . S
C5496 C5504 1.378 . S
C5497 C5496 1.367 . S
C5497 C5505 1.433 . S
C5498 H5494 0.929 . S
C5498 C5500 1.378 . S
C5498 C5502 1.350 . S
C5499 C5502 1.463 . S
C5499 C5504 1.350 . S
C5499 N5507 1.427 . S
C5500 H5491 0.930 . S
C5500 C5498 1.378 . S
C5500 C5501 1.367 . S
C5501 C5500 1.367 . S
C5501 C5503 1.433 . S
C5502 C5498 1.350 . S
C5502 C5499 1.463 . S
C5502 N5506 1.427 . S
C5503 H5493 0.929 . S
C5503 C5501 1.433 . S
C5503 N5506 1.384 . S
C5504 H5495 0.929 . S
C5504 C5496 1.378 . S
C5504 C5499 1.350 . S
C5505 H5492 0.929 . S
C5505 C5497 1.433 . S
C5505 N5507 1.384 . S
N5506 C5502 1.427 . S
N5506 C5503 1.384 . S
N5507 C5499 1.427 . S
N5507 C5505 1.384 . S
H5508 C5514 0.930 . S
H5509 C5518 0.930 . S
H5510 C5523 0.929 . S
H5511 C5521 0.929 . S
H5512 C5516 0.929 . S
H5513 C5522 0.929 . S
C5514 H5508 0.930 . S
C5514 C5515 1.367 . S
C5514 C5522 1.378 . S
C5515 C5514 1.367 . S
C5515 C5523 1.433 . S
C5516 H5512 0.929 . S
C5516 C5518 1.378 . S
C5516 C5520 1.350 . S
C5517 C5520 1.463 . S
C5517 C5522 1.350 . S
C5517 N5525 1.427 . S
C5518 H5509 0.930 . S
C5518 C5516 1.378 . S
C5518 C5519 1.367 . S
C5519 C5518 1.367 . S
C5519 C5521 1.433 . S
C5520 C5516 1.350 . S
C5520 C5517 1.463 . S
C5520 N5524 1.427 . S
C5521 H5511 0.929 . S
C5521 C5519 1.433 . S
C5521 N5524 1.384 . S
C5522 H5513 0.929 . S
C5522 C5514 1.378 . S
C5522 C5517 1.350 . S
C5523 H5510 0.929 . S
C5523 C5515 1.433 . S
C5523 N5525 1.384 . S
N5524 C5520 1.427 . S
N5524 C5521 1.384 . S
N5525 C5517 1.427 . S
N5525 C5523 1.384 . S
H5526 C5532 0.930 . S
H5527 C5536 0.930 . S
H5528 C5541 0.929 . S
H5529 C5539 0.929 . S
H5530 C5534 0.929 . S
H5531 C5540 0.929 . S
C5532 H5526 0.930 . S
C5532 C5533 1.367 . S
C5532 C5540 1.378 . S
C5533 C5532 1.367 . S
C5533 C5541 1.433 . S
C5534 H5530 0.929 . S
C5534 C5536 1.378 . S
C5534 C5538 1.350 . S
C5535 C5538 1.463 . S
C5535 C5540 1.350 . S
C5535 N5543 1.427 . S
C5536 H5527 0.930 . S
C5536 C5534 1.378 . S
C5536 C5537 1.367 . S
C5537 C5536 1.367 . S
C5537 C5539 1.433 . S
C5538 C5534 1.350 . S
C5538 C5535 1.463 . S
C5538 N5542 1.427 . S
C5539 H5529 0.929 . S
C5539 C5537 1.433 . S
C5539 N5542 1.384 . S
C5540 H5531 0.929 . S
C5540 C5532 1.378 . S
C5540 C5535 1.350 . S
C5541 H5528 0.929 . S
C5541 C5533 1.433 . S
C5541 N5543 1.384 . S
N5542 C5538 1.427 . S
N5542 C5539 1.384 . S
N5543 C5535 1.427 . S
N5543 C5541 1.384 . S
H5544 C5550 0.930 . S
H5545 C5554 0.930 . S
H5546 C5559 0.929 . S
H5547 C5557 0.929 . S
H5548 C5552 0.929 . S
H5549 C5558 0.929 . S
C5550 H5544 0.930 . S
C5550 C5551 1.367 . S
C5550 C5558 1.378 . S
C5551 C5550 1.367 . S
C5551 C5559 1.433 . S
C5552 H5548 0.929 . S
C5552 C5554 1.378 . S
C5552 C5556 1.350 . S
C5553 C5556 1.463 . S
C5553 C5558 1.350 . S
C5553 N5561 1.427 . S
C5554 H5545 0.930 . S
C5554 C5552 1.378 . S
C5554 C5555 1.367 . S
C5555 C5554 1.367 . S
C5555 C5557 1.433 . S
C5556 C5552 1.350 . S
C5556 C5553 1.463 . S
C5556 N5560 1.427 . S
C5557 H5547 0.929 . S
C5557 C5555 1.433 . S
C5557 N5560 1.384 . S
C5558 H5549 0.929 . S
C5558 C5550 1.378 . S
C5558 C5553 1.350 . S
C5559 H5546 0.929 . S
C5559 C5551 1.433 . S
C5559 N5561 1.384 . S
N5560 C5556 1.427 . S
N5560 C5557 1.384 . S
N5561 C5553 1.427 . S
N5561 C5559 1.384 . S
H5562 C5568 0.930 . S
H5563 C5572 0.930 . S
H5564 C5577 0.929 . S
H5565 C5575 0.929 . S
H5566 C5570 0.929 . S
H5567 C5576 0.929 . S
C5568 H5562 0.930 . S
C5568 C5569 1.367 . S
C5568 C5576 1.378 . S
C5569 C5568 1.367 . S
C5569 C5577 1.433 . S
C5570 H5566 0.929 . S
C5570 C5572 1.378 . S
C5570 C5574 1.350 . S
C5571 C5574 1.463 . S
C5571 C5576 1.350 . S
C5571 N5579 1.427 . S
C5572 H5563 0.930 . S
C5572 C5570 1.378 . S
C5572 C5573 1.367 . S
C5573 C5572 1.367 . S
C5573 C5575 1.433 . S
C5574 C5570 1.350 . S
C5574 C5571 1.463 . S
C5574 N5578 1.427 . S
C5575 H5565 0.929 . S
C5575 C5573 1.433 . S
C5575 N5578 1.384 . S
C5576 H5567 0.929 . S
C5576 C5568 1.378 . S
C5576 C5571 1.350 . S
C5577 H5564 0.929 . S
C5577 C5569 1.433 . S
C5577 N5579 1.384 . S
N5578 C5574 1.427 . S
N5578 C5575 1.384 . S
N5579 C5571 1.427 . S
N5579 C5577 1.384 . S
H5580 C5586 0.930 . S
H5581 C5590 0.930 . S
H5582 C5595 0.929 . S
H5583 C5593 0.929 . S
H5584 C5588 0.929 . S
H5585 C5594 0.929 . S
C5586 H5580 0.930 . S
C5586 C5587 1.367 . S
C5586 C5594 1.378 . S
C5587 C5586 1.367 . S
C5587 C5595 1.433 . S
C5588 H5584 0.929 . S
C5588 C5590 1.378 . S
C5588 C5592 1.350 . S
C5589 C5592 1.463 . S
C5589 C5594 1.350 . S
C5589 N5597 1.427 . S
C5590 H5581 0.930 . S
C5590 C5588 1.378 . S
C5590 C5591 1.367 . S
C5591 C5590 1.367 . S
C5591 C5593 1.433 . S
C5592 C5588 1.350 . S
C5592 C5589 1.463 . S
C5592 N5596 1.427 . S
C5593 H5583 0.929 . S
C5593 C5591 1.433 . S
C5593 N5596 1.384 . S
C5594 H5585 0.929 . S
C5594 C5586 1.378 . S
C5594 C5589 1.350 . S
C5595 H5582 0.929 . S
C5595 C5587 1.433 . S
C5595 N5597 1.384 . S
N5596 C5592 1.427 . S
N5596 C5593 1.384 . S
N5597 C5589 1.427 . S
N5597 C5595 1.384 . S
H5598 C5604 0.930 . S
H5599 C5608 0.930 . S
H5600 C5613 0.929 . S
H5601 C5611 0.929 . S
H5602 C5606 0.929 . S
H5603 C5612 0.929 . S
C5604 H5598 0.930 . S
C5604 C5605 1.367 . S
C5604 C5612 1.378 . S
C5605 C5604 1.367 . S
C5605 C5613 1.433 . S
C5606 H5602 0.929 . S
C5606 C5608 1.378 . S
C5606 C5610 1.350 . S
C5607 C5610 1.463 . S
C5607 C5612 1.350 . S
C5607 N5615 1.427 . S
C5608 H5599 0.930 . S
C5608 C5606 1.378 . S
C5608 C5609 1.367 . S
C5609 C5608 1.367 . S
C5609 C5611 1.433 . S
C5610 C5606 1.350 . S
C5610 C5607 1.463 . S
C5610 N5614 1.427 . S
C5611 H5601 0.929 . S
C5611 C5609 1.433 . S
C5611 N5614 1.384 . S
C5612 H5603 0.929 . S
C5612 C5604 1.378 . S
C5612 C5607 1.350 . S
C5613 H5600 0.929 . S
C5613 C5605 1.433 . S
C5613 N5615 1.384 . S
N5614 C5610 1.427 . S
N5614 C5611 1.384 . S
N5615 C5607 1.427 . S
N5615 C5613 1.384 . S
H5616 C5622 0.930 . S
H5617 C5626 0.930 . S
H5618 C5631 0.929 . S
H5619 C5629 0.929 . S
H5620 C5624 0.929 . S
H5621 C5630 0.929 . S
C5622 H5616 0.930 . S
C5622 C5623 1.367 . S
C5622 C5630 1.378 . S
C5623 C5622 1.367 . S
C5623 C5631 1.433 . S
C5624 H5620 0.929 . S
C5624 C5626 1.378 . S
C5624 C5628 1.350 . S
C5625 C5628 1.463 . S
C5625 C5630 1.350 . S
C5625 N5633 1.427 . S
C5626 H5617 0.930 . S
C5626 C5624 1.378 . S
C5626 C5627 1.367 . S
C5627 C5626 1.367 . S
C5627 C5629 1.433 . S
C5628 C5624 1.350 . S
C5628 C5625 1.463 . S
C5628 N5632 1.427 . S
C5629 H5619 0.929 . S
C5629 C5627 1.433 . S
C5629 N5632 1.384 . S
C5630 H5621 0.929 . S
C5630 C5622 1.378 . S
C5630 C5625 1.350 . S
C5631 H5618 0.929 . S
C5631 C5623 1.433 . S
C5631 N5633 1.384 . S
N5632 C5628 1.427 . S
N5632 C5629 1.384 . S
N5633 C5625 1.427 . S
N5633 C5631 1.384 . S
H5634 C5640 0.930 . S
H5635 C5644 0.930 . S
H5636 C5649 0.929 . S
H5637 C5647 0.929 . S
H5638 C5642 0.929 . S
H5639 C5648 0.929 . S
C5640 H5634 0.930 . S
C5640 C5641 1.367 . S
C5640 C5648 1.378 . S
C5641 C5640 1.367 . S
C5641 C5649 1.433 . S
C5642 H5638 0.929 . S
C5642 C5644 1.378 . S
C5642 C5646 1.350 . S
C5643 C5646 1.463 . S
C5643 C5648 1.350 . S
C5643 N5651 1.427 . S
C5644 H5635 0.930 . S
C5644 C5642 1.378 . S
C5644 C5645 1.367 . S
C5645 C5644 1.367 . S
C5645 C5647 1.433 . S
C5646 C5642 1.350 . S
C5646 C5643 1.463 . S
C5646 N5650 1.427 . S
C5647 H5637 0.929 . S
C5647 C5645 1.433 . S
C5647 N5650 1.384 . S
C5648 H5639 0.929 . S
C5648 C5640 1.378 . S
C5648 C5643 1.350 . S
C5649 H5636 0.929 . S
C5649 C5641 1.433 . S
C5649 N5651 1.384 . S
N5650 C5646 1.427 . S
N5650 C5647 1.384 . S
N5651 C5643 1.427 . S
N5651 C5649 1.384 . S
H5652 C5658 0.930 . S
H5653 C5662 0.930 . S
H5654 C5667 0.929 . S
H5655 C5665 0.929 . S
H5656 C5660 0.929 . S
H5657 C5666 0.929 . S
C5658 H5652 0.930 . S
C5658 C5659 1.367 . S
C5658 C5666 1.378 . S
C5659 C5658 1.367 . S
C5659 C5667 1.433 . S
C5660 H5656 0.929 . S
C5660 C5662 1.378 . S
C5660 C5664 1.350 . S
C5661 C5664 1.463 . S
C5661 C5666 1.350 . S
C5661 N5669 1.427 . S
C5662 H5653 0.930 . S
C5662 C5660 1.378 . S
C5662 C5663 1.367 . S
C5663 C5662 1.367 . S
C5663 C5665 1.433 . S
C5664 C5660 1.350 . S
C5664 C5661 1.463 . S
C5664 N5668 1.427 . S
C5665 H5655 0.929 . S
C5665 C5663 1.433 . S
C5665 N5668 1.384 . S
C5666 H5657 0.929 . S
C5666 C5658 1.378 . S
C5666 C5661 1.350 . S
C5667 H5654 0.929 . S
C5667 C5659 1.433 . S
C5667 N5669 1.384 . S
N5668 C5664 1.427 . S
N5668 C5665 1.384 . S
N5669 C5661 1.427 . S
N5669 C5667 1.384 . S
H5670 C5676 0.930 . S
H5671 C5680 0.930 . S
H5672 C5685 0.929 . S
H5673 C5683 0.929 . S
H5674 C5678 0.929 . S
H5675 C5684 0.929 . S
C5676 H5670 0.930 . S
C5676 C5677 1.367 . S
C5676 C5684 1.378 . S
C5677 C5676 1.367 . S
C5677 C5685 1.433 . S
C5678 H5674 0.929 . S
C5678 C5680 1.378 . S
C5678 C5682 1.350 . S
C5679 C5682 1.463 . S
C5679 C5684 1.350 . S
C5679 N5687 1.427 . S
C5680 H5671 0.930 . S
C5680 C5678 1.378 . S
C5680 C5681 1.367 . S
C5681 C5680 1.367 . S
C5681 C5683 1.433 . S
C5682 C5678 1.350 . S
C5682 C5679 1.463 . S
C5682 N5686 1.427 . S
C5683 H5673 0.929 . S
C5683 C5681 1.433 . S
C5683 N5686 1.384 . S
C5684 H5675 0.929 . S
C5684 C5676 1.378 . S
C5684 C5679 1.350 . S
C5685 H5672 0.929 . S
C5685 C5677 1.433 . S
C5685 N5687 1.384 . S
N5686 C5682 1.427 . S
N5686 C5683 1.384 . S
N5687 C5679 1.427 . S
N5687 C5685 1.384 . S
H5688 C5694 0.930 . S
H5689 C5698 0.930 . S
H5690 C5703 0.929 . S
H5691 C5701 0.929 . S
H5692 C5696 0.929 . S
H5693 C5702 0.929 . S
C5694 H5688 0.930 . S
C5694 C5695 1.367 . S
C5694 C5702 1.378 . S
C5695 C5694 1.367 . S
C5695 C5703 1.433 . S
C5696 H5692 0.929 . S
C5696 C5698 1.378 . S
C5696 C5700 1.350 . S
C5697 C5700 1.463 . S
C5697 C5702 1.350 . S
C5697 N5705 1.427 . S
C5698 H5689 0.930 . S
C5698 C5696 1.378 . S
C5698 C5699 1.367 . S
C5699 C5698 1.367 . S
C5699 C5701 1.433 . S
C5700 C5696 1.350 . S
C5700 C5697 1.463 . S
C5700 N5704 1.427 . S
C5701 H5691 0.929 . S
C5701 C5699 1.433 . S
C5701 N5704 1.384 . S
C5702 H5693 0.929 . S
C5702 C5694 1.378 . S
C5702 C5697 1.350 . S
C5703 H5690 0.929 . S
C5703 C5695 1.433 . S
C5703 N5705 1.384 . S
N5704 C5700 1.427 . S
N5704 C5701 1.384 . S
N5705 C5697 1.427 . S
N5705 C5703 1.384 . S
H5706 C5712 0.930 . S
H5707 C5716 0.930 . S
H5708 C5721 0.929 . S
H5709 C5719 0.929 . S
H5710 C5714 0.929 . S
H5711 C5720 0.929 . S
C5712 H5706 0.930 . S
C5712 C5713 1.367 . S
C5712 C5720 1.378 . S
C5713 C5712 1.367 . S
C5713 C5721 1.433 . S
C5714 H5710 0.929 . S
C5714 C5716 1.378 . S
C5714 C5718 1.350 . S
C5715 C5718 1.463 . S
C5715 C5720 1.350 . S
C5715 N5723 1.427 . S
C5716 H5707 0.930 . S
C5716 C5714 1.378 . S
C5716 C5717 1.367 . S
C5717 C5716 1.367 . S
C5717 C5719 1.433 . S
C5718 C5714 1.350 . S
C5718 C5715 1.463 . S
C5718 N5722 1.427 . S
C5719 H5709 0.929 . S
C5719 C5717 1.433 . S
C5719 N5722 1.384 . S
C5720 H5711 0.929 . S
C5720 C5712 1.378 . S
C5720 C5715 1.350 . S
C5721 H5708 0.929 . S
C5721 C5713 1.433 . S
C5721 N5723 1.384 . S
N5722 C5718 1.427 . S
N5722 C5719 1.384 . S
N5723 C5715 1.427 . S
N5723 C5721 1.384 . S
H5724 C5730 0.930 . S
H5725 C5734 0.930 . S
H5726 C5739 0.929 . S
H5727 C5737 0.929 . S
H5728 C5732 0.929 . S
H5729 C5738 0.929 . S
C5730 H5724 0.930 . S
C5730 C5731 1.367 . S
C5730 C5738 1.378 . S
C5731 C5730 1.367 . S
C5731 C5739 1.433 . S
C5732 H5728 0.929 . S
C5732 C5734 1.378 . S
C5732 C5736 1.350 . S
C5733 C5736 1.463 . S
C5733 C5738 1.350 . S
C5733 N5741 1.427 . S
C5734 H5725 0.930 . S
C5734 C5732 1.378 . S
C5734 C5735 1.367 . S
C5735 C5734 1.367 . S
C5735 C5737 1.433 . S
C5736 C5732 1.350 . S
C5736 C5733 1.463 . S
C5736 N5740 1.427 . S
C5737 H5727 0.929 . S
C5737 C5735 1.433 . S
C5737 N5740 1.384 . S
C5738 H5729 0.929 . S
C5738 C5730 1.378 . S
C5738 C5733 1.350 . S
C5739 H5726 0.929 . S
C5739 C5731 1.433 . S
C5739 N5741 1.384 . S
N5740 C5736 1.427 . S
N5740 C5737 1.384 . S
N5741 C5733 1.427 . S
N5741 C5739 1.384 . S
H5742 C5748 0.930 . S
H5743 C5752 0.930 . S
H5744 C5757 0.929 . S
H5745 C5755 0.929 . S
H5746 C5750 0.929 . S
H5747 C5756 0.929 . S
C5748 H5742 0.930 . S
C5748 C5749 1.367 . S
C5748 C5756 1.378 . S
C5749 C5748 1.367 . S
C5749 C5757 1.433 . S
C5750 H5746 0.929 . S
C5750 C5752 1.378 . S
C5750 C5754 1.350 . S
C5751 C5754 1.463 . S
C5751 C5756 1.350 . S
C5751 N5759 1.427 . S
C5752 H5743 0.930 . S
C5752 C5750 1.378 . S
C5752 C5753 1.367 . S
C5753 C5752 1.367 . S
C5753 C5755 1.433 . S
C5754 C5750 1.350 . S
C5754 C5751 1.463 . S
C5754 N5758 1.427 . S
C5755 H5745 0.929 . S
C5755 C5753 1.433 . S
C5755 N5758 1.384 . S
C5756 H5747 0.929 . S
C5756 C5748 1.378 . S
C5756 C5751 1.350 . S
C5757 H5744 0.929 . S
C5757 C5749 1.433 . S
C5757 N5759 1.384 . S
N5758 C5754 1.427 . S
N5758 C5755 1.384 . S
N5759 C5751 1.427 . S
N5759 C5757 1.384 . S
H5760 C5766 0.930 . S
H5761 C5770 0.930 . S
H5762 C5775 0.929 . S
H5763 C5773 0.929 . S
H5764 C5768 0.929 . S
H5765 C5774 0.929 . S
C5766 H5760 0.930 . S
C5766 C5767 1.367 . S
C5766 C5774 1.378 . S
C5767 C5766 1.367 . S
C5767 C5775 1.433 . S
C5768 H5764 0.929 . S
C5768 C5770 1.378 . S
C5768 C5772 1.350 . S
C5769 C5772 1.463 . S
C5769 C5774 1.350 . S
C5769 N5777 1.427 . S
C5770 H5761 0.930 . S
C5770 C5768 1.378 . S
C5770 C5771 1.367 . S
C5771 C5770 1.367 . S
C5771 C5773 1.433 . S
C5772 C5768 1.350 . S
C5772 C5769 1.463 . S
C5772 N5776 1.427 . S
C5773 H5763 0.929 . S
C5773 C5771 1.433 . S
C5773 N5776 1.384 . S
C5774 H5765 0.929 . S
C5774 C5766 1.378 . S
C5774 C5769 1.350 . S
C5775 H5762 0.929 . S
C5775 C5767 1.433 . S
C5775 N5777 1.384 . S
N5776 C5772 1.427 . S
N5776 C5773 1.384 . S
N5777 C5769 1.427 . S
N5777 C5775 1.384 . S
H5778 C5784 0.930 . S
H5779 C5788 0.930 . S
H5780 C5793 0.929 . S
H5781 C5791 0.929 . S
H5782 C5786 0.929 . S
H5783 C5792 0.929 . S
C5784 H5778 0.930 . S
C5784 C5785 1.367 . S
C5784 C5792 1.378 . S
C5785 C5784 1.367 . S
C5785 C5793 1.433 . S
C5786 H5782 0.929 . S
C5786 C5788 1.378 . S
C5786 C5790 1.350 . S
C5787 C5790 1.463 . S
C5787 C5792 1.350 . S
C5787 N5795 1.427 . S
C5788 H5779 0.930 . S
C5788 C5786 1.378 . S
C5788 C5789 1.367 . S
C5789 C5788 1.367 . S
C5789 C5791 1.433 . S
C5790 C5786 1.350 . S
C5790 C5787 1.463 . S
C5790 N5794 1.427 . S
C5791 H5781 0.929 . S
C5791 C5789 1.433 . S
C5791 N5794 1.384 . S
C5792 H5783 0.929 . S
C5792 C5784 1.378 . S
C5792 C5787 1.350 . S
C5793 H5780 0.929 . S
C5793 C5785 1.433 . S
C5793 N5795 1.384 . S
N5794 C5790 1.427 . S
N5794 C5791 1.384 . S
N5795 C5787 1.427 . S
N5795 C5793 1.384 . S
H5796 C5802 0.930 . S
H5797 C5806 0.930 . S
H5798 C5811 0.929 . S
H5799 C5809 0.929 . S
H5800 C5804 0.929 . S
H5801 C5810 0.929 . S
C5802 H5796 0.930 . S
C5802 C5803 1.367 . S
C5802 C5810 1.378 . S
C5803 C5802 1.367 . S
C5803 C5811 1.433 . S
C5804 H5800 0.929 . S
C5804 C5806 1.378 . S
C5804 C5808 1.350 . S
C5805 C5808 1.463 . S
C5805 C5810 1.350 . S
C5805 N5813 1.427 . S
C5806 H5797 0.930 . S
C5806 C5804 1.378 . S
C5806 C5807 1.367 . S
C5807 C5806 1.367 . S
C5807 C5809 1.433 . S
C5808 C5804 1.350 . S
C5808 C5805 1.463 . S
C5808 N5812 1.427 . S
C5809 H5799 0.929 . S
C5809 C5807 1.433 . S
C5809 N5812 1.384 . S
C5810 H5801 0.929 . S
C5810 C5802 1.378 . S
C5810 C5805 1.350 . S
C5811 H5798 0.929 . S
C5811 C5803 1.433 . S
C5811 N5813 1.384 . S
N5812 C5808 1.427 . S
N5812 C5809 1.384 . S
N5813 C5805 1.427 . S
N5813 C5811 1.384 . S
H5814 C5820 0.930 . S
H5815 C5824 0.930 . S
H5816 C5829 0.929 . S
H5817 C5827 0.929 . S
H5818 C5822 0.929 . S
H5819 C5828 0.929 . S
C5820 H5814 0.930 . S
C5820 C5821 1.367 . S
C5820 C5828 1.378 . S
C5821 C5820 1.367 . S
C5821 C5829 1.433 . S
C5822 H5818 0.929 . S
C5822 C5824 1.378 . S
C5822 C5826 1.350 . S
C5823 C5826 1.463 . S
C5823 C5828 1.350 . S
C5823 N5831 1.427 . S
C5824 H5815 0.930 . S
C5824 C5822 1.378 . S
C5824 C5825 1.367 . S
C5825 C5824 1.367 . S
C5825 C5827 1.433 . S
C5826 C5822 1.350 . S
C5826 C5823 1.463 . S
C5826 N5830 1.427 . S
C5827 H5817 0.929 . S
C5827 C5825 1.433 . S
C5827 N5830 1.384 . S
C5828 H5819 0.929 . S
C5828 C5820 1.378 . S
C5828 C5823 1.350 . S
C5829 H5816 0.929 . S
C5829 C5821 1.433 . S
C5829 N5831 1.384 . S
N5830 C5826 1.427 . S
N5830 C5827 1.384 . S
N5831 C5823 1.427 . S
N5831 C5829 1.384 . S
H5832 C5838 0.930 . S
H5833 C5842 0.930 . S
H5834 C5847 0.929 . S
H5835 C5845 0.929 . S
H5836 C5840 0.929 . S
H5837 C5846 0.929 . S
C5838 H5832 0.930 . S
C5838 C5839 1.367 . S
C5838 C5846 1.378 . S
C5839 C5838 1.367 . S
C5839 C5847 1.433 . S
C5840 H5836 0.929 . S
C5840 C5842 1.378 . S
C5840 C5844 1.350 . S
C5841 C5844 1.463 . S
C5841 C5846 1.350 . S
C5841 N5849 1.427 . S
C5842 H5833 0.930 . S
C5842 C5840 1.378 . S
C5842 C5843 1.367 . S
C5843 C5842 1.367 . S
C5843 C5845 1.433 . S
C5844 C5840 1.350 . S
C5844 C5841 1.463 . S
C5844 N5848 1.427 . S
C5845 H5835 0.929 . S
C5845 C5843 1.433 . S
C5845 N5848 1.384 . S
C5846 H5837 0.929 . S
C5846 C5838 1.378 . S
C5846 C5841 1.350 . S
C5847 H5834 0.929 . S
C5847 C5839 1.433 . S
C5847 N5849 1.384 . S
N5848 C5844 1.427 . S
N5848 C5845 1.384 . S
N5849 C5841 1.427 . S
N5849 C5847 1.384 . S
H5850 C5856 0.930 . S
H5851 C5860 0.930 . S
H5852 C5865 0.929 . S
H5853 C5863 0.929 . S
H5854 C5858 0.929 . S
H5855 C5864 0.929 . S
C5856 H5850 0.930 . S
C5856 C5857 1.367 . S
C5856 C5864 1.378 . S
C5857 C5856 1.367 . S
C5857 C5865 1.433 . S
C5858 H5854 0.929 . S
C5858 C5860 1.378 . S
C5858 C5862 1.350 . S
C5859 C5862 1.463 . S
C5859 C5864 1.350 . S
C5859 N5867 1.427 . S
C5860 H5851 0.930 . S
C5860 C5858 1.378 . S
C5860 C5861 1.367 . S
C5861 C5860 1.367 . S
C5861 C5863 1.433 . S
C5862 C5858 1.350 . S
C5862 C5859 1.463 . S
C5862 N5866 1.427 . S
C5863 H5853 0.929 . S
C5863 C5861 1.433 . S
C5863 N5866 1.384 . S
C5864 H5855 0.929 . S
C5864 C5856 1.378 . S
C5864 C5859 1.350 . S
C5865 H5852 0.929 . S
C5865 C5857 1.433 . S
C5865 N5867 1.384 . S
N5866 C5862 1.427 . S
N5866 C5863 1.384 . S
N5867 C5859 1.427 . S
N5867 C5865 1.384 . S
H5868 C5874 0.930 . S
H5869 C5878 0.930 . S
H5870 C5883 0.929 . S
H5871 C5881 0.929 . S
H5872 C5876 0.929 . S
H5873 C5882 0.929 . S
C5874 H5868 0.930 . S
C5874 C5875 1.367 . S
C5874 C5882 1.378 . S
C5875 C5874 1.367 . S
C5875 C5883 1.433 . S
C5876 H5872 0.929 . S
C5876 C5878 1.378 . S
C5876 C5880 1.350 . S
C5877 C5880 1.463 . S
C5877 C5882 1.350 . S
C5877 N5885 1.427 . S
C5878 H5869 0.930 . S
C5878 C5876 1.378 . S
C5878 C5879 1.367 . S
C5879 C5878 1.367 . S
C5879 C5881 1.433 . S
C5880 C5876 1.350 . S
C5880 C5877 1.463 . S
C5880 N5884 1.427 . S
C5881 H5871 0.929 . S
C5881 C5879 1.433 . S
C5881 N5884 1.384 . S
C5882 H5873 0.929 . S
C5882 C5874 1.378 . S
C5882 C5877 1.350 . S
C5883 H5870 0.929 . S
C5883 C5875 1.433 . S
C5883 N5885 1.384 . S
N5884 C5880 1.427 . S
N5884 C5881 1.384 . S
N5885 C5877 1.427 . S
N5885 C5883 1.384 . S
H5886 C5892 0.930 . S
H5887 C5896 0.930 . S
H5888 C5901 0.929 . S
H5889 C5899 0.929 . S
H5890 C5894 0.929 . S
H5891 C5900 0.929 . S
C5892 H5886 0.930 . S
C5892 C5893 1.367 . S
C5892 C5900 1.378 . S
C5893 C5892 1.367 . S
C5893 C5901 1.433 . S
C5894 H5890 0.929 . S
C5894 C5896 1.378 . S
C5894 C5898 1.350 . S
C5895 C5898 1.463 . S
C5895 C5900 1.350 . S
C5895 N5903 1.427 . S
C5896 H5887 0.930 . S
C5896 C5894 1.378 . S
C5896 C5897 1.367 . S
C5897 C5896 1.367 . S
C5897 C5899 1.433 . S
C5898 C5894 1.350 . S
C5898 C5895 1.463 . S
C5898 N5902 1.427 . S
C5899 H5889 0.929 . S
C5899 C5897 1.433 . S
C5899 N5902 1.384 . S
C5900 H5891 0.929 . S
C5900 C5892 1.378 . S
C5900 C5895 1.350 . S
C5901 H5888 0.929 . S
C5901 C5893 1.433 . S
C5901 N5903 1.384 . S
N5902 C5898 1.427 . S
N5902 C5899 1.384 . S
N5903 C5895 1.427 . S
N5903 C5901 1.384 . S
H5904 C5910 0.930 . S
H5905 C5914 0.930 . S
H5906 C5919 0.929 . S
H5907 C5917 0.929 . S
H5908 C5912 0.929 . S
H5909 C5918 0.929 . S
C5910 H5904 0.930 . S
C5910 C5911 1.367 . S
C5910 C5918 1.378 . S
C5911 C5910 1.367 . S
C5911 C5919 1.433 . S
C5912 H5908 0.929 . S
C5912 C5914 1.378 . S
C5912 C5916 1.350 . S
C5913 C5916 1.463 . S
C5913 C5918 1.350 . S
C5913 N5921 1.427 . S
C5914 H5905 0.930 . S
C5914 C5912 1.378 . S
C5914 C5915 1.367 . S
C5915 C5914 1.367 . S
C5915 C5917 1.433 . S
C5916 C5912 1.350 . S
C5916 C5913 1.463 . S
C5916 N5920 1.427 . S
C5917 H5907 0.929 . S
C5917 C5915 1.433 . S
C5917 N5920 1.384 . S
C5918 H5909 0.929 . S
C5918 C5910 1.378 . S
C5918 C5913 1.350 . S
C5919 H5906 0.929 . S
C5919 C5911 1.433 . S
C5919 N5921 1.384 . S
N5920 C5916 1.427 . S
N5920 C5917 1.384 . S
N5921 C5913 1.427 . S
N5921 C5919 1.384 . S
H5922 C5928 0.930 . S
H5923 C5932 0.930 . S
H5924 C5937 0.929 . S
H5925 C5935 0.929 . S
H5926 C5930 0.929 . S
H5927 C5936 0.929 . S
C5928 H5922 0.930 . S
C5928 C5929 1.367 . S
C5928 C5936 1.378 . S
C5929 C5928 1.367 . S
C5929 C5937 1.433 . S
C5930 H5926 0.929 . S
C5930 C5932 1.378 . S
C5930 C5934 1.350 . S
C5931 C5934 1.463 . S
C5931 C5936 1.350 . S
C5931 N5939 1.427 . S
C5932 H5923 0.930 . S
C5932 C5930 1.378 . S
C5932 C5933 1.367 . S
C5933 C5932 1.367 . S
C5933 C5935 1.433 . S
C5934 C5930 1.350 . S
C5934 C5931 1.463 . S
C5934 N5938 1.427 . S
C5935 H5925 0.929 . S
C5935 C5933 1.433 . S
C5935 N5938 1.384 . S
C5936 H5927 0.929 . S
C5936 C5928 1.378 . S
C5936 C5931 1.350 . S
C5937 H5924 0.929 . S
C5937 C5929 1.433 . S
C5937 N5939 1.384 . S
N5938 C5934 1.427 . S
N5938 C5935 1.384 . S
N5939 C5931 1.427 . S
N5939 C5937 1.384 . S
H5940 C5946 0.930 . S
H5941 C5950 0.930 . S
H5942 C5955 0.929 . S
H5943 C5953 0.929 . S
H5944 C5948 0.929 . S
H5945 C5954 0.929 . S
C5946 H5940 0.930 . S
C5946 C5947 1.367 . S
C5946 C5954 1.378 . S
C5947 C5946 1.367 . S
C5947 C5955 1.433 . S
C5948 H5944 0.929 . S
C5948 C5950 1.378 . S
C5948 C5952 1.350 . S
C5949 C5952 1.463 . S
C5949 C5954 1.350 . S
C5949 N5957 1.427 . S
C5950 H5941 0.930 . S
C5950 C5948 1.378 . S
C5950 C5951 1.367 . S
C5951 C5950 1.367 . S
C5951 C5953 1.433 . S
C5952 C5948 1.350 . S
C5952 C5949 1.463 . S
C5952 N5956 1.427 . S
C5953 H5943 0.929 . S
C5953 C5951 1.433 . S
C5953 N5956 1.384 . S
C5954 H5945 0.929 . S
C5954 C5946 1.378 . S
C5954 C5949 1.350 . S
C5955 H5942 0.929 . S
C5955 C5947 1.433 . S
C5955 N5957 1.384 . S
N5956 C5952 1.427 . S
N5956 C5953 1.384 . S
N5957 C5949 1.427 . S
N5957 C5955 1.384 . S
H5958 C5964 0.930 . S
H5959 C5968 0.930 . S
H5960 C5973 0.929 . S
H5961 C5971 0.929 . S
H5962 C5966 0.929 . S
H5963 C5972 0.929 . S
C5964 H5958 0.930 . S
C5964 C5965 1.367 . S
C5964 C5972 1.378 . S
C5965 C5964 1.367 . S
C5965 C5973 1.433 . S
C5966 H5962 0.929 . S
C5966 C5968 1.378 . S
C5966 C5970 1.350 . S
C5967 C5970 1.463 . S
C5967 C5972 1.350 . S
C5967 N5975 1.427 . S
C5968 H5959 0.930 . S
C5968 C5966 1.378 . S
C5968 C5969 1.367 . S
C5969 C5968 1.367 . S
C5969 C5971 1.433 . S
C5970 C5966 1.350 . S
C5970 C5967 1.463 . S
C5970 N5974 1.427 . S
C5971 H5961 0.929 . S
C5971 C5969 1.433 . S
C5971 N5974 1.384 . S
C5972 H5963 0.929 . S
C5972 C5964 1.378 . S
C5972 C5967 1.350 . S
C5973 H5960 0.929 . S
C5973 C5965 1.433 . S
C5973 N5975 1.384 . S
N5974 C5970 1.427 . S
N5974 C5971 1.384 . S
N5975 C5967 1.427 . S
N5975 C5973 1.384 . S
H5976 C5982 0.930 . S
H5977 C5986 0.930 . S
H5978 C5991 0.929 . S
H5979 C5989 0.929 . S
H5980 C5984 0.929 . S
H5981 C5990 0.929 . S
C5982 H5976 0.930 . S
C5982 C5983 1.367 . S
C5982 C5990 1.378 . S
C5983 C5982 1.367 . S
C5983 C5991 1.433 . S
C5984 H5980 0.929 . S
C5984 C5986 1.378 . S
C5984 C5988 1.350 . S
C5985 C5988 1.463 . S
C5985 C5990 1.350 . S
C5985 N5993 1.427 . S
C5986 H5977 0.930 . S
C5986 C5984 1.378 . S
C5986 C5987 1.367 . S
C5987 C5986 1.367 . S
C5987 C5989 1.433 . S
C5988 C5984 1.350 . S
C5988 C5985 1.463 . S
C5988 N5992 1.427 . S
C5989 H5979 0.929 . S
C5989 C5987 1.433 . S
C5989 N5992 1.384 . S
C5990 H5981 0.929 . S
C5990 C5982 1.378 . S
C5990 C5985 1.350 . S
C5991 H5978 0.929 . S
C5991 C5983 1.433 . S
C5991 N5993 1.384 . S
N5992 C5988 1.427 . S
N5992 C5989 1.384 . S
N5993 C5985 1.427 . S
N5993 C5991 1.384 . S
H5994 C6000 0.930 . S
H5995 C6004 0.930 . S
H5996 C6009 0.929 . S
H5997 C6007 0.929 . S
H5998 C6002 0.929 . S
H5999 C6008 0.929 . S
C6000 H5994 0.930 . S
C6000 C6001 1.367 . S
C6000 C6008 1.378 . S
C6001 C6000 1.367 . S
C6001 C6009 1.433 . S
C6002 H5998 0.929 . S
C6002 C6004 1.378 . S
C6002 C6006 1.350 . S
C6003 C6006 1.463 . S
C6003 C6008 1.350 . S
C6003 N6011 1.427 . S
C6004 H5995 0.930 . S
C6004 C6002 1.378 . S
C6004 C6005 1.367 . S
C6005 C6004 1.367 . S
C6005 C6007 1.433 . S
C6006 C6002 1.350 . S
C6006 C6003 1.463 . S
C6006 N6010 1.427 . S
C6007 H5997 0.929 . S
C6007 C6005 1.433 . S
C6007 N6010 1.384 . S
C6008 H5999 0.929 . S
C6008 C6000 1.378 . S
C6008 C6003 1.350 . S
C6009 H5996 0.929 . S
C6009 C6001 1.433 . S
C6009 N6011 1.384 . S
N6010 C6006 1.427 . S
N6010 C6007 1.384 . S
N6011 C6003 1.427 . S
N6011 C6009 1.384 . S
H6012 C6018 0.930 . S
H6013 C6022 0.930 . S
H6014 C6027 0.929 . S
H6015 C6025 0.929 . S
H6016 C6020 0.929 . S
H6017 C6026 0.929 . S
C6018 H6012 0.930 . S
C6018 C6019 1.367 . S
C6018 C6026 1.378 . S
C6019 C6018 1.367 . S
C6019 C6027 1.433 . S
C6020 H6016 0.929 . S
C6020 C6022 1.378 . S
C6020 C6024 1.350 . S
C6021 C6024 1.463 . S
C6021 C6026 1.350 . S
C6021 N6029 1.427 . S
C6022 H6013 0.930 . S
C6022 C6020 1.378 . S
C6022 C6023 1.367 . S
C6023 C6022 1.367 . S
C6023 C6025 1.433 . S
C6024 C6020 1.350 . S
C6024 C6021 1.463 . S
C6024 N6028 1.427 . S
C6025 H6015 0.929 . S
C6025 C6023 1.433 . S
C6025 N6028 1.384 . S
C6026 H6017 0.929 . S
C6026 C6018 1.378 . S
C6026 C6021 1.350 . S
C6027 H6014 0.929 . S
C6027 C6019 1.433 . S
C6027 N6029 1.384 . S
N6028 C6024 1.427 . S
N6028 C6025 1.384 . S
N6029 C6021 1.427 . S
N6029 C6027 1.384 . S
H6030 C6036 0.930 . S
H6031 C6040 0.930 . S
H6032 C6045 0.929 . S
H6033 C6043 0.929 . S
H6034 C6038 0.929 . S
H6035 C6044 0.929 . S
C6036 H6030 0.930 . S
C6036 C6037 1.367 . S
C6036 C6044 1.378 . S
C6037 C6036 1.367 . S
C6037 C6045 1.433 . S
C6038 H6034 0.929 . S
C6038 C6040 1.378 . S
C6038 C6042 1.350 . S
C6039 C6042 1.463 . S
C6039 C6044 1.350 . S
C6039 N6047 1.427 . S
C6040 H6031 0.930 . S
C6040 C6038 1.378 . S
C6040 C6041 1.367 . S
C6041 C6040 1.367 . S
C6041 C6043 1.433 . S
C6042 C6038 1.350 . S
C6042 C6039 1.463 . S
C6042 N6046 1.427 . S
C6043 H6033 0.929 . S
C6043 C6041 1.433 . S
C6043 N6046 1.384 . S
C6044 H6035 0.929 . S
C6044 C6036 1.378 . S
C6044 C6039 1.350 . S
C6045 H6032 0.929 . S
C6045 C6037 1.433 . S
C6045 N6047 1.384 . S
N6046 C6042 1.427 . S
N6046 C6043 1.384 . S
N6047 C6039 1.427 . S
N6047 C6045 1.384 . S
C3463 C1781 1.633 . S
C3467 C1949 1.558 . S
C3481 C981 1.654 . S
C3485 C1981 1.723 . S
C3503 C2013 1.704 . S
C3499 C1861 1.707 . S
C3517 C1061 1.715 . S
C3521 C2045 1.590 . S
C3535 C1901 1.660 . S
C3539 C2077 1.597 . S
C3553 C941 1.631 . S
C3557 C2109 1.562 . S
C3571 C1821 1.727 . S
C3575 C2141 1.726 . S
C3589 C1021 1.709 . S
C3593 C2173 1.709 . S
C3607 C661 1.595 . S
C3611 C2205 1.637 . S
C3625 C1621 1.697 . S
C3629 C2237 1.584 . S
C3643 C741 1.623 . S
C3647 C2269 1.676 . S
C3661 C1581 1.662 . S
C3665 C2301 1.708 . S
C3679 C901 1.627 . S
C3683 C2333 1.521 . S
C3701 C2365 1.719 . S
C3697 C1661 1.722 . S
C3719 C2397 1.694 . S
C3715 C821 1.645 . S
C3733 C1141 1.700 . S
C3737 C2429 1.590 . S
C3755 C2461 1.715 . S
C3751 C781 1.716 . S
C3773 C2493 1.695 . S
C3769 C1701 1.640 . S
C3787 C861 1.705 . S
C3791 C2525 1.592 . S
C3805 C1181 1.614 . S
C3809 C2557 1.670 . S
C3827 C2589 1.640 . S
C3823 C1101 1.595 . S
C3841 C1421 1.614 . S
C3845 C2621 1.547 . S
C3863 C2653 1.534 . S
C3859 C381 1.648 . S
C3881 C2685 1.546 . S
C3877 C1501 1.640 . S
C3899 C2717 1.574 . S
C3895 C461 1.633 . S
C3917 C2749 1.570 . S
C3913 C1541 1.618 . S
C3931 C341 1.607 . S
C3935 C2781 1.560 . S
C3953 C2813 1.556 . S
C3949 C1461 1.654 . S
C3967 C421 1.635 . S
C3971 C2845 1.536 . S
C3989 C2877 1.682 . S
C3985 C61 1.631 . S
C4007 C2909 1.660 . S
C4003 C1261 1.703 . S
C4021 C141 1.638 . S
C4025 C2941 1.686 . S
C4043 C2973 1.684 . S
C4039 C1221 1.696 . S
C4061 C3005 1.612 . S
C4057 C301 1.714 . S
C4075 C1301 1.710 . S
C4079 C3037 1.697 . S
C4097 C3069 1.689 . S
C4093 C221 1.642 . S
C4115 C3101 1.597 . S
C4111 C541 1.707 . S
C4129 C181 1.702 . S
C4133 C3133 1.684 . S
C4151 C3165 1.690 . S
C4147 C1341 1.650 . S
C4165 C261 1.714 . S
C4169 C3197 1.607 . S
C4187 C3229 1.697 . S
C4183 C581 1.654 . S
C4201 C501 1.635 . S
C4205 C3261 1.680 . S
C4219 C701 1.699 . S
C4223 C3293 1.584 . S
C4241 C3325 1.707 . S
C4237 C621 1.661 . S
C4255 C1741 1.623 . S
C4259 C3357 1.501 . S
C4273 C101 1.695 . S
C4277 C3389 1.646 . S
C4295 C3421 1.698 . S
C4291 C21 1.710 . S
C4313 C3453 1.605 . S
C4309 C1381 1.716 . S
C4327 C1335 2.009 . S
C4331 C1943 1.869 . S
C4345 C535 1.552 . S
C4349 C1975 1.562 . S
C4363 C1362 2.149 . S
C4367 C2001 2.159 . S
C4385 C2033 1.457 . S
C4381 C1295 1.543 . S
C4399 C575 2.019 . S
C4403 C2071 1.882 . S
C4417 C1215 1.527 . S
C4421 C2097 1.447 . S
C4439 C2129 2.138 . S
C4435 C495 2.057 . S
C4453 C1242 1.554 . S
C4457 C2167 1.604 . S
C4471 C1255 1.964 . S
C4475 C2193 2.035 . S
C4493 C2225 1.484 . S
C4489 C562 1.525 . S
C4507 C1202 1.976 . S
C4511 C2257 1.983 . S
C4529 C2295 1.590 . S
C4525 C482 1.542 . S
C4543 C522 2.013 . S
C4547 C2327 1.809 . S
C4561 C1375 1.622 . S
C4565 C2359 1.644 . S
C4583 C2385 1.982 . S
C4579 C1282 1.973 . S
C4601 C2417 1.482 . S
C4597 C1322 1.518 . S
C4615 C455 1.930 . S
C4619 C2289 1.996 . S
C4633 C1415 1.961 . S
C4637 C2449 2.034 . S
C4651 C1455 1.550 . S
C4655 C2487 1.561 . S
C4673 C2519 1.813 . S
C4669 C1482 1.997 . S
C4691 C2321 1.465 . S
C4687 C442 1.504 . S
C4705 C362 2.007 . S
C4709 C2231 1.808 . S
C4723 C1495 1.541 . S
C4727 C2551 1.552 . S
C4745 C2583 1.549 . S
C4741 C1402 1.513 . S
C4763 C2615 1.491 . S
C4759 C1695 1.563 . S
C4777 C1135 1.953 . S
C4781 C2641 1.824 . S
C4799 C2679 1.393 . S
C4795 C1722 1.485 . S
C4817 C2705 1.825 . S
C4813 C1655 1.963 . S
C4831 C1175 1.566 . S
C4835 C2743 1.479 . S
C4849 C1562 1.910 . S
C4853 C2769 1.819 . S
C4867 C1095 1.504 . S
C4871 C2807 1.431 . S
C4889 C2833 1.772 . S
C4885 C1615 1.903 . S
C4907 C2865 1.542 . S
C4903 C1602 1.543 . S
C4921 C1162 1.955 . S
C4925 C2897 1.866 . S
C4943 C2929 1.576 . S
C4939 C1575 1.557 . S
C4957 C1082 1.867 . S
C4961 C2967 1.968 . S
C4979 C2999 1.473 . S
C4975 C1122 1.551 . S
C4993 C1735 1.896 . S
C4997 C3031 1.958 . S
C5015 C3057 1.579 . S
C5011 C1642 1.580 . S
C5029 C1682 1.921 . S
C5033 C3089 1.831 . S
C5047 C1042 1.580 . S
C5051 C2961 1.580 . S
C5065 C1775 1.528 . S
C5069 C3121 1.544 . S
C5083 C1815 2.098 . S
C5087 C3159 2.171 . S
C5105 C3191 1.547 . S
C5101 C1842 1.627 . S
C5119 C1055 2.004 . S
C5123 C2993 1.865 . S
C5137 C975 1.630 . S
C5141 C2903 1.553 . S
C5159 C3223 2.185 . S
C5155 C1855 2.114 . S
C5173 C1762 1.940 . S
C5177 C3255 2.050 . S
C5195 C2103 1.870 . S
C5191 C215 2.009 . S
C5213 C2135 1.575 . S
C5209 C255 1.567 . S
C5231 C2161 2.151 . S
C5227 C282 2.142 . S
C5249 C2065 1.458 . S
C5245 C175 1.526 . S
C5267 C2039 1.889 . S
C5263 C135 2.036 . S
C5281 C15 1.528 . S
C5285 C1937 1.458 . S
C5299 C55 2.042 . S
C5303 C1969 2.116 . S
C5317 C82 1.565 . S
C5321 C2007 1.600 . S
C5335 C95 1.937 . S
C5339 C2577 2.017 . S
C5353 C122 1.526 . S
C5357 C3281 1.503 . S
C5371 C2 1.997 . S
C5375 C2545 2.007 . S
C5389 C42 1.541 . S
C5393 C3319 1.585 . S
C5407 C242 2.005 . S
C5411 C3351 1.800 . S
C5429 C2455 1.634 . S
C5425 C295 1.615 . S
C5443 C162 1.980 . S
C5447 C2481 1.991 . S
C5461 C202 1.533 . S
C5465 C2513 1.491 . S
C5483 C3313 1.994 . S
C5479 C1535 1.930 . S
C5497 C335 1.967 . S
C5501 C2353 2.040 . S
C5515 C375 1.544 . S
C5519 C2391 1.553 . S
C5533 C402 1.987 . S
C5537 C2423 1.791 . S
C5555 C3345 1.441 . S
C5551 C1522 1.495 . S
C5573 C3287 1.830 . S
C5569 C1442 2.017 . S
C5591 C2263 1.538 . S
C5587 C415 1.533 . S
C5605 C322 1.525 . S
C5609 C2199 1.559 . S
C5623 C815 1.567 . S
C5627 C2775 1.490 . S
C5641 C855 1.941 . S
C5645 C2801 1.804 . S
C5659 C882 1.481 . S
C5663 C2839 1.401 . S
C5677 C775 1.957 . S
C5681 C2737 1.818 . S
C5699 C2711 1.490 . S
C5695 C735 1.564 . S
C5717 C2609 1.819 . S
C5713 C602 1.909 . S
C5735 C2647 1.416 . S
C5731 C655 1.506 . S
C5749 C695 1.911 . S
C5753 C2673 1.784 . S
C5771 C3249 1.544 . S
C5767 C682 1.545 . S
C5785 C722 1.945 . S
C5789 C3377 1.853 . S
C5803 C615 1.556 . S
C5807 C3217 1.574 . S
C5825 C3415 1.975 . S
C5821 C642 1.879 . S
C5839 C842 1.565 . S
C5843 C3447 1.487 . S
C5861 C3127 1.951 . S
C5857 C895 1.897 . S
C5875 C762 1.566 . S
C5879 C3153 1.565 . S
C5893 C802 1.927 . S
C5897 C3185 1.838 . S
C5911 C1895 1.567 . S
C5915 C3409 1.588 . S
C5933 C3025 1.548 . S
C5929 C935 1.530 . S
C5947 C962 2.058 . S
C5951 C3063 2.179 . S
C5965 C1002 1.621 . S
C5969 C3095 1.529 . S
C5983 C1882 1.967 . S
C5987 C3441 1.881 . S
C6001 C1802 1.647 . S
C6005 C3383 1.550 . S
C6023 C2935 2.180 . S
C6019 C1015 2.109 . S
C6041 C2871 2.050 . S
C6037 C922 1.940 . S
