# Generated by pormake.
# Topology pyr, (3,6)-cn, num edge types: 1
# Building blocks:
#     Node 0, Type 0, BuildingBlock: MIDCAF_clean_linker_0, # of connection points: 3
#     Node 1, Type 0, BuildingBlock: MIDCAF_clean_linker_0, # of connection points: 3
#     Node 2, Type 0, BuildingBlock: MIDCAF_clean_linker_0, # of connection points: 3
#     Node 3, Type 0, BuildingBlock: MIDCAF_clean_linker_0, # of connection points: 3
#     Node 4, Type 0, BuildingBlock: MIDCAF_clean_linker_0, # of connection points: 3
#     Node 5, Type 0, BuildingBlock: MIDCAF_clean_linker_0, # of connection points: 3
#     Node 6, Type 0, BuildingBlock: MIDCAF_clean_linker_0, # of connection points: 3
#     Node 7, Type 0, BuildingBlock: MIDCAF_clean_linker_0, # of connection points: 3
#     Node 8, Type 1, BuildingBlock: MIDCAF_clean_sbu_0, # of connection points: 6
#     Node 9, Type 1, BuildingBlock: MIDCAF_clean_sbu_0, # of connection points: 6
#     Node 10, Type 1, BuildingBlock: MIDCAF_clean_sbu_0, # of connection points: 6
#     Node 11, Type 1, BuildingBlock: MIDCAF_clean_sbu_0, # of connection points: 6
#     Edge 12, Type (0, 1), None
#     Edge 13, Type (0, 1), None
#     Edge 14, Type (0, 1), None
#     Edge 15, Type (0, 1), None
#     Edge 16, Type (0, 1), None
#     Edge 17, Type (0, 1), None
#     Edge 18, Type (0, 1), None
#     Edge 19, Type (0, 1), None
#     Edge 20, Type (0, 1), None
#     Edge 21, Type (0, 1), None
#     Edge 22, Type (0, 1), None
#     Edge 23, Type (0, 1), None
#     Edge 24, Type (0, 1), None
#     Edge 25, Type (0, 1), None
#     Edge 26, Type (0, 1), None
#     Edge 27, Type (0, 1), None
#     Edge 28, Type (0, 1), None
#     Edge 29, Type (0, 1), None
#     Edge 30, Type (0, 1), None
#     Edge 31, Type (0, 1), None
#     Edge 32, Type (0, 1), None
#     Edge 33, Type (0, 1), None
#     Edge 34, Type (0, 1), None
#     Edge 35, Type (0, 1), None
# Relax obj value: 0.019
# Max RMSD: 0.063
# Mean RMSD: 0.022
data_MOF--net-pyr--node1-MIDCAF_clean_sbu_0--node2-MIDCAF_clean_linker_0--edge1-none
_symmetry_space_group_name_H-M    P1
_symmetry_Int_Tables_number       1
_symmetry_cell_setting            triclinic
loop_
_symmetry_equiv_pos_as_xyz
'x, y, z'
_cell_length_a     23.542648
_cell_length_b     23.607411
_cell_length_c     23.576572
_cell_angle_alpha  89.901636
_cell_angle_beta   90.126482
_cell_angle_gamma 90.155319
loop_
_atom_site_label
_atom_site_type_symbol
_atom_site_fract_x
_atom_site_fract_y
_atom_site_fract_z
_atom_type_partial_charge
C0 C 0.12319 0.17248 0.4049 0.0
C1 C 0.14987 0.12301 0.42438 0.0
C2 C 0.20663 0.11305 0.4091 0.0
C3 C 0.23499 0.14968 0.37217 0.0
H4 H 0.35035 0.12992 0.2445 0.0
H5 H 0.41355 0.08011 0.1795 0.0
H6 H 0.42171 0.22876 0.0731 0.0
H7 H 0.3582 0.27838 0.13701 0.0
H8 H 0.24384 0.35197 0.12877 0.0
H9 H 0.17872 0.41568 0.07931 0.0
H10 H 0.07411 0.42443 0.22903 0.0
H11 H 0.13816 0.36045 0.27833 0.0
H12 H 0.1289 0.24567 0.35137 0.0
H13 H 0.07918 0.18074 0.41515 0.0
H14 H 0.22837 0.07531 0.42364 0.0
H15 H 0.2779 0.13917 0.35958 0.0
N16 N 0.28035 0.20892 0.27541 0.0
N17 N 0.27502 0.28161 0.20774 0.0
N18 N 0.2079 0.2766 0.2809 0.0
C19 C 0.30154 0.23473 0.22839 0.0
C20 C 0.22842 0.30309 0.23388 0.0
C21 C 0.23375 0.22973 0.30221 0.0
C22 C 0.34819 0.20798 0.19554 0.0
C23 C 0.36666 0.15254 0.20798 0.0
C24 C 0.40334 0.12401 0.17102 0.0
C25 C 0.42263 0.15054 0.12131 0.0
C26 C 0.40734 0.20714 0.11105 0.0
C27 C 0.37074 0.23556 0.14771 0.0
C28 C 0.19577 0.35008 0.20735 0.0
C29 C 0.20772 0.36853 0.1517 0.0
C30 C 0.1707 0.40549 0.12337 0.0
C31 C 0.12141 0.42506 0.1503 0.0
C32 C 0.11172 0.40984 0.20711 0.0
C33 C 0.14846 0.37296 0.23534 0.0
C34 C 0.2072 0.19716 0.34932 0.0
C35 C 0.15168 0.2094 0.36789 0.0
C36 C 0.13799 0.92011 0.67124 0.0
C37 C 0.11862 0.89375 0.62147 0.0
C38 C 0.13394 0.8372 0.61121 0.0
C39 C 0.17074 0.80871 0.64789 0.0
H40 H 0.29794 0.69275 0.62884 0.0
H41 H 0.36294 0.62939 0.57929 0.0
H42 H 0.46887 0.62102 0.7286 0.0
H43 H 0.40495 0.68468 0.77799 0.0
H44 H 0.41385 0.79934 0.85114 0.0
H45 H 0.46342 0.86445 0.91486 0.0
H46 H 0.31339 0.96856 0.92371 0.0
H47 H 0.26398 0.90451 0.85975 0.0
H48 H 0.19125 0.91402 0.74473 0.0
H49 H 0.12774 0.96395 0.67972 0.0
H50 H 0.11949 0.81571 0.57324 0.0
H51 H 0.18335 0.76596 0.63717 0.0
N52 N 0.26703 0.76285 0.70778 0.0
N53 N 0.33457 0.76797 0.78084 0.0
N54 N 0.26166 0.83521 0.77551 0.0
C55 C 0.31392 0.74154 0.73383 0.0
C56 C 0.30854 0.81459 0.80222 0.0
C57 C 0.24035 0.80948 0.7285 0.0
C58 C 0.34667 0.69482 0.70722 0.0
C59 C 0.33435 0.67637 0.65167 0.0
C60 C 0.3713 0.6396 0.62327 0.0
C61 C 0.4209 0.62021 0.65006 0.0
C62 C 0.43101 0.63548 0.70678 0.0
C63 C 0.39435 0.67216 0.73506 0.0
C64 C 0.33512 0.84717 0.8493 0.0
C65 C 0.39088 0.83534 0.86774 0.0
C66 C 0.41927 0.87236 0.9047 0.0
C67 C 0.39229 0.92152 0.92427 0.0
C68 C 0.33536 0.93106 0.9091 0.0
C69 C 0.30707 0.89433 0.87223 0.0
C70 C 0.19342 0.83616 0.69573 0.0
C71 C 0.17485 0.8915 0.7082 0.0
C72 C 0.67033 0.13939 0.92004 0.0
C73 C 0.62064 0.11998 0.89334 0.0
C74 C 0.61056 0.13522 0.83657 0.0
C75 C 0.64736 0.17197 0.80817 0.0
H76 H 0.62788 0.2994 0.69227 0.0
H77 H 0.57809 0.3646 0.6289 0.0
H78 H 0.72784 0.46998 0.62034 0.0
H79 H 0.77747 0.40584 0.68399 0.0
H80 H 0.85031 0.41494 0.79896 0.0
H81 H 0.91359 0.4649 0.86426 0.0
H82 H 0.92203 0.31597 0.97022 0.0
H83 H 0.85841 0.26618 0.906 0.0
H84 H 0.74388 0.19264 0.91431 0.0
H85 H 0.67868 0.12917 0.96406 0.0
H86 H 0.57264 0.12073 0.81482 0.0
H87 H 0.63677 0.18452 0.76523 0.0
N88 N 0.7072 0.2682 0.76241 0.0
N89 N 0.78008 0.33584 0.76787 0.0
N90 N 0.77479 0.26303 0.83539 0.0
C91 C 0.73319 0.3151 0.74113 0.0
C92 C 0.80143 0.30993 0.81478 0.0
C93 C 0.7279 0.24161 0.80932 0.0
C94 C 0.70649 0.34784 0.69424 0.0
C95 C 0.65075 0.33572 0.67582 0.0
C96 C 0.62222 0.3728 0.63906 0.0
C97 C 0.64906 0.42232 0.61967 0.0
C98 C 0.70598 0.43221 0.63483 0.0
C99 C 0.7344 0.39541 0.6715 0.0
C100 C 0.84827 0.33672 0.84768 0.0
C101 C 0.8667 0.39229 0.83544 0.0
C102 C 0.90343 0.42091 0.87257 0.0
C103 C 0.92278 0.39434 0.92226 0.0
C104 C 0.90758 0.33762 0.9323 0.0
C105 C 0.87093 0.3091 0.89546 0.0
C106 C 0.69511 0.19469 0.83595 0.0
C107 C 0.70741 0.17621 0.89153 0.0
C108 C 0.63399 0.70737 0.43142 0.0
C109 C 0.61877 0.65061 0.42167 0.0
C110 C 0.63826 0.62386 0.3723 0.0
C111 C 0.67509 0.65235 0.33522 0.0
H112 H 0.76449 0.63857 0.18421 0.0
H113 H 0.81398 0.5747 0.12063 0.0
H114 H 0.96348 0.68046 0.12893 0.0
H115 H 0.91382 0.74541 0.19225 0.0
H116 H 0.90482 0.86036 0.26493 0.0
H117 H 0.96874 0.92448 0.31444 0.0
H118 H 0.8627 0.91608 0.46325 0.0
H119 H 0.79771 0.85227 0.41356 0.0
H120 H 0.68324 0.7787 0.40496 0.0
H121 H 0.61946 0.72914 0.4691 0.0
H122 H 0.62809 0.57985 0.36423 0.0
H123 H 0.69157 0.62956 0.29901 0.0
N124 N 0.76181 0.7087 0.26772 0.0
N125 N 0.83461 0.77644 0.26224 0.0
N126 N 0.76699 0.78164 0.33488 0.0
C127 C 0.80869 0.72946 0.24109 0.0
C128 C 0.81386 0.80308 0.30893 0.0
C129 C 0.74042 0.73466 0.31441 0.0
C130 C 0.83534 0.69676 0.19433 0.0
C131 C 0.80747 0.64914 0.17169 0.0
C132 C 0.83581 0.6125 0.13505 0.0
C133 C 0.89262 0.62258 0.1198 0.0
C134 C 0.91943 0.67212 0.13914 0.0
C135 C 0.89097 0.70905 0.17588 0.0
C136 C 0.84652 0.85016 0.33544 0.0
C137 C 0.89419 0.87298 0.30775 0.0
C138 C 0.93085 0.90994 0.3361 0.0
C139 C 0.92074 0.92529 0.39275 0.0
C140 C 0.87108 0.9058 0.41933 0.0
C141 C 0.83413 0.86877 0.39086 0.0
C142 C 0.69351 0.70796 0.34719 0.0
C143 C 0.67074 0.73574 0.39463 0.0
C144 C 0.73169 0.01292 0.95127 0.0
C145 C 0.72285 0.01822 0.00999 0.0
C146 C 0.76966 0.01285 0.04686 0.0
C147 C 0.82246 0.9962 0.02634 0.0
H148 H 0.88423 0.79232 0.99001 0.0
H149 H 0.92055 0.69832 0.01528 0.0
H150 H 0.09144 0.76576 0.01631 0.0
H151 H 0.05532 0.858 0.98791 0.0
H152 H 0.98868 0.88603 0.79178 0.0
H153 H 0.01432 0.92222 0.69767 0.0
H154 H 0.01574 0.09261 0.76455 0.0
H155 H 0.98694 0.05663 0.85686 0.0
H156 H 0.79044 0.99045 0.88547 0.0
H157 H 0.69645 0.01597 0.92185 0.0
H158 H 0.76449 0.0171 0.09231 0.0
H159 H 0.85668 0.98841 0.05614 0.0
N160 N 0.90105 0.9114 0.97648 0.0
N161 N 0.97534 0.90265 0.91077 0.0
N162 N 0.90978 0.97697 0.90194 0.0
C163 C 0.9478 0.88371 0.95776 0.0
C164 C 0.95664 0.9494 0.88297 0.0
C165 C 0.8821 0.95828 0.94881 0.0
C166 C 0.96732 0.83167 0.986 0.0
C167 C 0.92936 0.78704 0.99729 0.0
C168 C 0.95009 0.73342 0.01229 0.0
C169 C 0.00889 0.72444 0.01744 0.0
C170 C 0.04592 0.77107 0.01216 0.0
C171 C 0.02542 0.82389 0.99568 0.0
C172 C 0.98481 0.96889 0.83083 0.0
C173 C 0.99609 0.93103 0.78635 0.0
C174 C 0.0113 0.95168 0.73268 0.0
C175 C 0.01673 0.0103 0.72348 0.0
C176 C 0.0114 0.04723 0.77 0.0
C177 C 0.99468 0.02681 0.82286 0.0
C178 C 0.83008 0.98646 0.96835 0.0
C179 C 0.7853 0.99777 0.93051 0.0
C180 C 0.52979 0.99805 0.27053 0.0
C181 C 0.52478 0.03487 0.22376 0.0
C182 C 0.5301 0.09352 0.23268 0.0
C183 C 0.545 0.11429 0.28638 0.0
H184 H 0.48591 0.18725 0.48781 0.0
H185 H 0.44982 0.27935 0.51621 0.0
H186 H 0.62067 0.34692 0.51541 0.0
H187 H 0.65697 0.25304 0.49016 0.0
H188 H 0.68557 0.0574 0.55649 0.0
H189 H 0.77795 0.0284 0.5924 0.0
H190 H 0.84453 0.02906 0.42165 0.0
H191 H 0.75032 0.05488 0.38555 0.0
H192 H 0.55378 0.98883 0.35767 0.0
H193 H 0.52552 0.95265 0.26526 0.0
H194 H 0.52731 0.12289 0.19746 0.0
H195 H 0.55244 0.15929 0.29161 0.0
N196 N 0.56565 0.14271 0.41097 0.0
N197 N 0.64031 0.13406 0.47666 0.0
N198 N 0.63135 0.06856 0.40228 0.0
C199 C 0.59339 0.16167 0.4579 0.0
C200 C 0.65923 0.08726 0.44908 0.0
C201 C 0.58433 0.09603 0.38329 0.0
C202 C 0.5739 0.21363 0.48604 0.0
C203 C 0.51581 0.22136 0.49563 0.0
C204 C 0.49534 0.2741 0.51211 0.0
C205 C 0.53235 0.32074 0.51749 0.0
C206 C 0.59114 0.31181 0.51236 0.0
C207 C 0.61186 0.25826 0.49738 0.0
C208 C 0.71142 0.05916 0.46858 0.0
C209 C 0.71952 0.04948 0.52659 0.0
C210 C 0.77242 0.03263 0.54696 0.0
C211 C 0.81889 0.02701 0.50991 0.0
C212 C 0.80956 0.03231 0.45121 0.0
C213 C 0.75584 0.04763 0.43061 0.0
C214 C 0.55605 0.07652 0.33117 0.0
C215 C 0.54619 0.01858 0.32344 0.0
C216 C 0.23248 0.53186 0.09207 0.0
C217 C 0.22298 0.52704 0.03339 0.0
C218 C 0.26945 0.53237 0.99625 0.0
C219 C 0.32264 0.54855 0.01656 0.0
H220 H 0.38528 0.75136 0.05286 0.0
H221 H 0.42111 0.84582 0.02818 0.0
H222 H 0.5924 0.78031 0.02815 0.0
H223 H 0.55675 0.68757 0.05601 0.0
H224 H 0.49011 0.65831 0.25115 0.0
H225 H 0.51457 0.62228 0.34567 0.0
H226 H 0.51555 0.45175 0.27918 0.0
H227 H 0.48791 0.48758 0.18638 0.0
H228 H 0.29215 0.55356 0.15767 0.0
H229 H 0.19751 0.52882 0.12168 0.0
H230 H 0.26373 0.52847 0.95081 0.0
H231 H 0.35663 0.55637 0.98661 0.0
N232 N 0.40234 0.63284 0.06644 0.0
N233 N 0.47689 0.6416 0.13222 0.0
N234 N 0.41112 0.56712 0.14081 0.0
C235 C 0.44925 0.66058 0.08525 0.0
C236 C 0.45815 0.59473 0.15987 0.0
C237 C 0.38335 0.58585 0.09396 0.0
C238 C 0.46859 0.71291 0.05734 0.0
C239 C 0.4304 0.75716 0.04593 0.0
C240 C 0.45085 0.81105 0.03127 0.0
C241 C 0.5096 0.8207 0.02655 0.0
C242 C 0.5469 0.77447 0.03197 0.0
C243 C 0.52667 0.72138 0.04814 0.0
C244 C 0.48613 0.57538 0.2122 0.0
C245 C 0.49723 0.61332 0.25676 0.0
C246 C 0.51176 0.59276 0.31067 0.0
C247 C 0.51665 0.53415 0.32005 0.0
C248 C 0.51159 0.49713 0.27355 0.0
C249 C 0.49556 0.51746 0.22041 0.0
C250 C 0.33096 0.55787 0.07457 0.0
C251 C 0.28646 0.54653 0.11261 0.0
C252 C 0.09124 0.23369 0.53164 0.0
C253 C 0.03248 0.22417 0.5265 0.0
C254 C 0.99524 0.27039 0.53213 0.0
C255 C 0.01553 0.32327 0.54885 0.0
H256 H 0.05226 0.38627 0.75249 0.0
H257 H 0.02715 0.42262 0.8465 0.0
H258 H 0.02557 0.59282 0.77858 0.0
H259 H 0.05383 0.55669 0.68633 0.0
H260 H 0.25051 0.49078 0.65851 0.0
H261 H 0.34477 0.51596 0.62215 0.0
H262 H 0.27699 0.5172 0.4516 0.0
H263 H 0.18447 0.48888 0.48776 0.0
H264 H 0.15688 0.29307 0.55399 0.0
H265 H 0.12094 0.19892 0.52837 0.0
H266 H 0.94974 0.26469 0.52801 0.0
H267 H 0.98549 0.35704 0.55679 0.0
N268 N 0.06543 0.40267 0.63328 0.0
N269 N 0.13107 0.47729 0.64184 0.0
N270 N 0.13986 0.41163 0.56768 0.0
C271 C 0.08413 0.44957 0.66086 0.0
C272 C 0.15881 0.45863 0.59512 0.0
C273 C 0.09305 0.38376 0.58644 0.0
C274 C 0.05598 0.46903 0.71289 0.0
C275 C 0.04489 0.43124 0.75767 0.0
C276 C 0.02999 0.45199 0.81129 0.0
C277 C 0.0247 0.51062 0.82014 0.0
C278 C 0.0298 0.54743 0.77338 0.0
C279 C 0.04621 0.52693 0.72055 0.0
C280 C 0.21096 0.48688 0.57559 0.0
C281 C 0.25577 0.49809 0.61345 0.0
C282 C 0.30954 0.51304 0.5927 0.0
C283 C 0.3185 0.51821 0.53398 0.0
C284 C 0.27169 0.51303 0.49706 0.0
C285 C 0.21872 0.4966 0.51758 0.0
C286 C 0.07361 0.33158 0.55839 0.0
C287 C 0.11175 0.28739 0.54684 0.0
Zn288 Zn 0.95691 0.0862 0.58592 0.0
Zn289 Zn 0.07579 0.9682 0.46687 0.0
Zn290 Zn 0.0132 0.03035 0.52949 0.0
C291 C 0.11706 0.07726 0.45225 0.0
C292 C 0.9665 0.95327 0.42556 0.0
O293 O 0.02266 0.00414 0.62071 0.0
O294 O 0.99433 0.08342 0.66012 0.0
C295 C 0.00862 0.16616 0.52858 0.0
O296 O 0.07393 0.08755 0.48426 0.0
O297 O 0.12972 0.02678 0.44028 0.0
O298 O 0.01717 0.94154 0.41291 0.0
O299 O 0.95605 0.9851 0.46871 0.0
O300 O 0.95949 0.16042 0.54878 0.0
O301 O 0.03916 0.12158 0.52031 0.0
O302 O 0.92177 0.021 0.50346 0.0
O303 O 0.8826 0.04882 0.58314 0.0
C304 C 0.87698 0.02896 0.53392 0.0
O305 O 0.05866 0.96961 0.58639 0.0
O306 O 0.10262 0.91424 0.52522 0.0
C307 C 0.01453 0.03439 0.66555 0.0
C308 C 0.09071 0.92667 0.57584 0.0
Zn309 Zn 0.46552 0.07671 0.9668 0.0
Zn310 Zn 0.58541 0.95867 0.08682 0.0
Zn311 Zn 0.52856 0.0145 0.02986 0.0
C312 C 0.66497 0.01599 0.03423 0.0
C313 C 0.53335 0.87869 0.02928 0.0
O314 O 0.48282 0.075 0.08643 0.0
O315 O 0.43845 0.13031 0.02509 0.0
C316 C 0.5749 0.092 0.92606 0.0
O317 O 0.61992 0.02415 0.00398 0.0
O318 O 0.65981 0.99579 0.0834 0.0
O319 O 0.58226 0.88433 0.05024 0.0
O320 O 0.50289 0.92329 0.02054 0.0
O321 O 0.5242 0.10369 0.91319 0.0
O322 O 0.58544 0.06006 0.96925 0.0
O323 O 0.46802 0.95726 0.9844 0.0
O324 O 0.41195 0.01784 0.94002 0.0
C325 C 0.42487 0.9674 0.95215 0.0
O326 O 0.51892 0.04062 0.12093 0.0
O327 O 0.54851 0.96194 0.16106 0.0
C328 C 0.45051 0.1178 0.07576 0.0
C329 C 0.52754 0.01067 0.16601 0.0
Zn330 Zn 0.57584 0.57722 0.57674 0.0
Zn331 Zn 0.45573 0.45799 0.4576 0.0
Zn332 Zn 0.51271 0.51453 0.51402 0.0
C333 C 0.50819 0.37848 0.51504 0.0
C334 C 0.51365 0.51022 0.37798 0.0
O335 O 0.45596 0.56014 0.5745 0.0
O336 O 0.51729 0.60419 0.63023 0.0
C337 C 0.61638 0.46804 0.59181 0.0
O338 O 0.53845 0.42339 0.52357 0.0
O339 O 0.45911 0.38366 0.49441 0.0
O340 O 0.49249 0.46148 0.38328 0.0
O341 O 0.52236 0.54037 0.42283 0.0
O342 O 0.62932 0.51855 0.60375 0.0
O343 O 0.5732 0.45766 0.55965 0.0
O344 O 0.55846 0.57503 0.45708 0.0
O345 O 0.60293 0.63073 0.51803 0.0
C346 C 0.59083 0.61799 0.46746 0.0
O347 O 0.42146 0.52413 0.53993 0.0
O348 O 0.38139 0.49474 0.46098 0.0
C349 C 0.46657 0.59228 0.61747 0.0
C350 C 0.37636 0.51556 0.50983 0.0
Zn351 Zn 0.08503 0.58735 0.95731 0.0
Zn352 Zn 0.96602 0.46795 0.07711 0.0
Zn353 Zn 0.02871 0.53071 0.01413 0.0
C354 C 0.07553 0.45305 0.11777 0.0
C355 C 0.95072 0.42712 0.96794 0.0
O356 O 0.00283 0.62176 0.02358 0.0
O357 O 0.08188 0.6616 0.99399 0.0
C358 C 0.1649 0.52979 0.00953 0.0
O359 O 0.08586 0.4852 0.07467 0.0
O360 O 0.0249 0.44109 0.13065 0.0
O361 O 0.93883 0.41439 0.01856 0.0
O362 O 0.98291 0.47016 0.95741 0.0
O363 O 0.15943 0.55065 0.96065 0.0
O364 O 0.12008 0.52122 0.03987 0.0
O365 O 0.01893 0.50476 0.92295 0.0
O366 O 0.04791 0.58385 0.88299 0.0
C367 C 0.02729 0.53486 0.87792 0.0
O368 O 0.96825 0.58746 0.05972 0.0
O369 O 0.91251 0.52642 0.10404 0.0
C370 C 0.033 0.6667 0.01487 0.0
C371 C 0.92527 0.57697 0.09197 0.0
loop_
_geom_bond_atom_site_label_1
_geom_bond_atom_site_label_2
_geom_bond_distance
_geom_bond_site_symmetry_2
_ccdc_geom_bond_type
C0 C1 1.384 . S
C0 H13 0.947 . S
C0 C35 1.382 . S
C1 C0 1.384 . S
C1 C2 1.378 . S
C2 C1 1.378 . S
C2 C3 1.378 . S
C2 H14 0.952 . S
C3 C2 1.378 . S
C3 H15 0.950 . S
C3 C34 1.383 . S
H4 C23 0.947 . S
H5 C24 0.946 . S
H6 C26 0.953 . S
H7 C27 0.945 . S
H8 C29 0.952 . S
H9 C30 0.949 . S
H10 C32 0.950 . S
H11 C33 0.948 . S
H12 C35 0.951 . S
H13 C0 0.947 . S
H14 C2 0.952 . S
H15 C3 0.950 . S
N16 C19 1.382 . S
N16 C21 1.363 . S
N17 C19 1.371 . S
N17 C20 1.372 . S
N18 C20 1.361 . S
N18 C21 1.377 . S
C19 N16 1.382 . S
C19 N17 1.371 . S
C19 C22 1.480 . S
C20 N17 1.372 . S
C20 N18 1.361 . S
C20 C28 1.457 . S
C21 N16 1.363 . S
C21 N18 1.377 . S
C21 C34 1.479 . S
C22 C19 1.480 . S
C22 C23 1.383 . S
C22 C27 1.385 . S
C23 H4 0.947 . S
C23 C22 1.383 . S
C23 C24 1.388 . S
C24 H5 0.946 . S
C24 C23 1.388 . S
C24 C25 1.384 . S
C25 C24 1.384 . S
C25 C26 1.377 . S
C26 H6 0.953 . S
C26 C25 1.377 . S
C26 C27 1.369 . S
C27 H7 0.945 . S
C27 C22 1.385 . S
C27 C26 1.369 . S
C28 C20 1.457 . S
C28 C29 1.372 . S
C28 C33 1.364 . S
C29 H8 0.952 . S
C29 C28 1.372 . S
C29 C30 1.389 . S
C30 H9 0.949 . S
C30 C29 1.389 . S
C30 C31 1.387 . S
C31 C30 1.387 . S
C31 C32 1.372 . S
C32 H10 0.950 . S
C32 C31 1.372 . S
C32 C33 1.379 . S
C33 H11 0.948 . S
C33 C28 1.364 . S
C33 C32 1.379 . S
C34 C3 1.383 . S
C34 C21 1.479 . S
C34 C35 1.398 . S
C35 C0 1.382 . S
C35 H12 0.951 . S
C35 C34 1.398 . S
C36 C37 1.384 . S
C36 H49 0.947 1_565 S
C36 C71 1.382 . S
C37 C36 1.384 . S
C37 C38 1.378 . S
C38 C37 1.378 . S
C38 C39 1.378 . S
C38 H50 0.952 . S
C39 C38 1.378 . S
C39 H51 0.950 . S
C39 C70 1.383 . S
H40 C59 0.947 . S
H41 C60 0.946 . S
H42 C62 0.953 . S
H43 C63 0.945 . S
H44 C65 0.952 . S
H45 C66 0.949 . S
H46 C68 0.950 . S
H47 C69 0.948 . S
H48 C71 0.951 . S
H49 C36 0.947 1_545 S
H50 C38 0.952 . S
H51 C39 0.950 . S
N52 C55 1.382 . S
N52 C57 1.363 . S
N53 C55 1.371 . S
N53 C56 1.372 . S
N54 C56 1.361 . S
N54 C57 1.377 . S
C55 N52 1.382 . S
C55 N53 1.371 . S
C55 C58 1.480 . S
C56 N53 1.372 . S
C56 N54 1.361 . S
C56 C64 1.457 . S
C57 N52 1.363 . S
C57 N54 1.377 . S
C57 C70 1.479 . S
C58 C55 1.480 . S
C58 C59 1.383 . S
C58 C63 1.385 . S
C59 H40 0.947 . S
C59 C58 1.383 . S
C59 C60 1.388 . S
C60 H41 0.946 . S
C60 C59 1.388 . S
C60 C61 1.384 . S
C61 C60 1.384 . S
C61 C62 1.377 . S
C62 H42 0.953 . S
C62 C61 1.377 . S
C62 C63 1.369 . S
C63 H43 0.945 . S
C63 C58 1.385 . S
C63 C62 1.369 . S
C64 C56 1.457 . S
C64 C65 1.372 . S
C64 C69 1.364 . S
C65 H44 0.952 . S
C65 C64 1.372 . S
C65 C66 1.389 . S
C66 H45 0.949 . S
C66 C65 1.389 . S
C66 C67 1.387 . S
C67 C66 1.387 . S
C67 C68 1.372 . S
C68 H46 0.950 . S
C68 C67 1.372 . S
C68 C69 1.379 . S
C69 H47 0.948 . S
C69 C64 1.364 . S
C69 C68 1.379 . S
C70 C39 1.383 . S
C70 C57 1.479 . S
C70 C71 1.398 . S
C71 C36 1.382 . S
C71 H48 0.951 . S
C71 C70 1.398 . S
C72 C73 1.384 . S
C72 H85 0.947 1_556 S
C72 C107 1.382 . S
C73 C72 1.384 . S
C73 C74 1.378 . S
C74 C73 1.378 . S
C74 C75 1.378 . S
C74 H86 0.952 . S
C75 C74 1.378 . S
C75 H87 0.950 . S
C75 C106 1.383 . S
H76 C95 0.947 . S
H77 C96 0.946 . S
H78 C98 0.953 . S
H79 C99 0.945 . S
H80 C101 0.952 . S
H81 C102 0.949 . S
H82 C104 0.950 . S
H83 C105 0.948 . S
H84 C107 0.951 . S
H85 C72 0.947 1_554 S
H86 C74 0.952 . S
H87 C75 0.950 . S
N88 C91 1.382 . S
N88 C93 1.363 . S
N89 C91 1.371 . S
N89 C92 1.372 . S
N90 C92 1.361 . S
N90 C93 1.377 . S
C91 N88 1.382 . S
C91 N89 1.371 . S
C91 C94 1.480 . S
C92 N89 1.372 . S
C92 N90 1.361 . S
C92 C100 1.457 . S
C93 N88 1.363 . S
C93 N90 1.377 . S
C93 C106 1.479 . S
C94 C91 1.480 . S
C94 C95 1.383 . S
C94 C99 1.385 . S
C95 H76 0.947 . S
C95 C94 1.383 . S
C95 C96 1.388 . S
C96 H77 0.946 . S
C96 C95 1.388 . S
C96 C97 1.384 . S
C97 C96 1.384 . S
C97 C98 1.377 . S
C98 H78 0.953 . S
C98 C97 1.377 . S
C98 C99 1.369 . S
C99 H79 0.945 . S
C99 C94 1.385 . S
C99 C98 1.369 . S
C100 C92 1.457 . S
C100 C101 1.372 . S
C100 C105 1.364 . S
C101 H80 0.952 . S
C101 C100 1.372 . S
C101 C102 1.389 . S
C102 H81 0.949 . S
C102 C101 1.389 . S
C102 C103 1.387 . S
C103 C102 1.387 . S
C103 C104 1.372 . S
C104 H82 0.950 . S
C104 C103 1.372 . S
C104 C105 1.379 . S
C105 H83 0.948 . S
C105 C100 1.364 . S
C105 C104 1.379 . S
C106 C75 1.383 . S
C106 C93 1.479 . S
C106 C107 1.398 . S
C107 C72 1.382 . S
C107 H84 0.951 . S
C107 C106 1.398 . S
C108 C109 1.384 . S
C108 H121 0.947 . S
C108 C143 1.382 . S
C109 C108 1.384 . S
C109 C110 1.378 . S
C110 C109 1.378 . S
C110 C111 1.378 . S
C110 H122 0.952 . S
C111 C110 1.378 . S
C111 H123 0.950 . S
C111 C142 1.383 . S
H112 C131 0.947 . S
H113 C132 0.946 . S
H114 C134 0.953 1_455 S
H115 C135 0.945 . S
H116 C137 0.952 . S
H117 C138 0.949 . S
H118 C140 0.950 . S
H119 C141 0.948 . S
H120 C143 0.951 . S
H121 C108 0.947 . S
H122 C110 0.952 . S
H123 C111 0.950 . S
N124 C127 1.382 . S
N124 C129 1.363 . S
N125 C127 1.371 . S
N125 C128 1.372 . S
N126 C128 1.361 . S
N126 C129 1.377 . S
C127 N124 1.382 . S
C127 N125 1.371 . S
C127 C130 1.480 . S
C128 N125 1.372 . S
C128 N126 1.361 . S
C128 C136 1.457 . S
C129 N124 1.363 . S
C129 N126 1.377 . S
C129 C142 1.479 . S
C130 C127 1.480 . S
C130 C131 1.383 . S
C130 C135 1.385 . S
C131 H112 0.947 . S
C131 C130 1.383 . S
C131 C132 1.388 . S
C132 H113 0.946 . S
C132 C131 1.388 . S
C132 C133 1.384 . S
C133 C132 1.384 . S
C133 C134 1.377 . S
C134 H114 0.953 1_655 S
C134 C133 1.377 . S
C134 C135 1.369 . S
C135 H115 0.945 . S
C135 C130 1.385 . S
C135 C134 1.369 . S
C136 C128 1.457 . S
C136 C137 1.372 . S
C136 C141 1.364 . S
C137 H116 0.952 . S
C137 C136 1.372 . S
C137 C138 1.389 . S
C138 H117 0.949 . S
C138 C137 1.389 . S
C138 C139 1.387 . S
C139 C138 1.387 . S
C139 C140 1.372 . S
C140 H118 0.950 . S
C140 C139 1.372 . S
C140 C141 1.379 . S
C141 H119 0.948 . S
C141 C136 1.364 . S
C141 C140 1.379 . S
C142 C111 1.383 . S
C142 C129 1.479 . S
C142 C143 1.398 . S
C143 C108 1.382 . S
C143 H120 0.951 . S
C143 C142 1.398 . S
C144 C145 1.384 1_556 S
C144 H157 0.947 . S
C144 C179 1.382 . S
C145 C144 1.384 1_554 S
C145 C146 1.378 1_545 S
C146 C145 1.378 1_565 S
C146 C147 1.378 . S
C146 H158 0.952 . S
C147 C146 1.378 . S
C147 H159 0.950 . S
C147 C178 1.383 1_554 S
H148 C167 0.947 . S
H149 C168 0.946 . S
H150 C170 0.953 . S
H151 C171 0.945 . S
H152 C173 0.952 . S
H153 C174 0.949 . S
H154 C176 0.950 . S
H155 C177 0.948 . S
H156 C179 0.951 . S
H157 C144 0.947 . S
H158 C146 0.952 . S
H159 C147 0.950 . S
N160 C163 1.382 . S
N160 C165 1.363 . S
N161 C163 1.371 . S
N161 C164 1.372 . S
N162 C164 1.361 . S
N162 C165 1.377 . S
C163 N160 1.382 . S
C163 N161 1.371 . S
C163 C166 1.480 . S
C164 N161 1.372 . S
C164 N162 1.361 . S
C164 C172 1.457 . S
C165 N160 1.363 . S
C165 N162 1.377 . S
C165 C178 1.479 . S
C166 C163 1.480 . S
C166 C167 1.383 1_556 S
C166 C171 1.385 1_655 S
C167 H148 0.947 . S
C167 C166 1.383 1_554 S
C167 C168 1.388 . S
C168 H149 0.946 . S
C168 C167 1.388 . S
C168 C169 1.384 1_655 S
C169 C168 1.384 1_455 S
C169 C170 1.377 1_554 S
C170 H150 0.953 . S
C170 C169 1.377 1_556 S
C170 C171 1.369 . S
C171 H151 0.945 . S
C171 C166 1.385 1_455 S
C171 C170 1.369 . S
C172 C164 1.457 . S
C172 C173 1.372 1_655 S
C172 C177 1.364 1_565 S
C173 H152 0.952 . S
C173 C172 1.372 1_455 S
C173 C174 1.389 . S
C174 H153 0.949 . S
C174 C173 1.389 . S
C174 C175 1.387 1_565 S
C175 C174 1.387 1_545 S
C175 C176 1.372 1_455 S
C176 H154 0.950 . S
C176 C175 1.372 1_655 S
C176 C177 1.379 . S
C177 H155 0.948 . S
C177 C172 1.364 1_545 S
C177 C176 1.379 . S
C178 C147 1.383 1_556 S
C178 C165 1.479 . S
C178 C179 1.398 1_565 S
C179 C144 1.382 . S
C179 H156 0.951 . S
C179 C178 1.398 1_545 S
C180 C181 1.384 1_565 S
C180 H193 0.947 . S
C180 C215 1.382 1_565 S
C181 C180 1.384 1_545 S
C181 C182 1.378 . S
C182 C181 1.378 . S
C182 C183 1.378 . S
C182 H194 0.952 . S
C183 C182 1.378 . S
C183 H195 0.950 . S
C183 C214 1.383 . S
H184 C203 0.947 . S
H185 C204 0.946 . S
H186 C206 0.953 . S
H187 C207 0.945 . S
H188 C209 0.952 . S
H189 C210 0.949 . S
H190 C212 0.950 1_565 S
H191 C213 0.948 . S
H192 C215 0.951 1_565 S
H193 C180 0.947 . S
H194 C182 0.952 . S
H195 C183 0.950 . S
N196 C199 1.382 . S
N196 C201 1.363 . S
N197 C199 1.371 . S
N197 C200 1.372 . S
N198 C200 1.361 . S
N198 C201 1.377 . S
C199 N196 1.382 . S
C199 N197 1.371 . S
C199 C202 1.480 . S
C200 N197 1.372 . S
C200 N198 1.361 . S
C200 C208 1.457 . S
C201 N196 1.363 . S
C201 N198 1.377 . S
C201 C214 1.479 . S
C202 C199 1.480 . S
C202 C203 1.383 . S
C202 C207 1.385 . S
C203 H184 0.947 . S
C203 C202 1.383 . S
C203 C204 1.388 . S
C204 H185 0.946 . S
C204 C203 1.388 . S
C204 C205 1.384 . S
C205 C204 1.384 . S
C205 C206 1.377 . S
C206 H186 0.953 . S
C206 C205 1.377 . S
C206 C207 1.369 . S
C207 H187 0.945 . S
C207 C202 1.385 . S
C207 C206 1.369 . S
C208 C200 1.457 . S
C208 C209 1.372 . S
C208 C213 1.364 . S
C209 H188 0.952 . S
C209 C208 1.372 . S
C209 C210 1.389 . S
C210 H189 0.949 . S
C210 C209 1.389 . S
C210 C211 1.387 . S
C211 C210 1.387 . S
C211 C212 1.372 . S
C212 H190 0.950 1_545 S
C212 C211 1.372 . S
C212 C213 1.379 . S
C213 H191 0.948 . S
C213 C208 1.364 . S
C213 C212 1.379 . S
C214 C183 1.383 . S
C214 C201 1.479 . S
C214 C215 1.398 . S
C215 C180 1.382 1_545 S
C215 H192 0.951 1_545 S
C215 C214 1.398 . S
C216 C217 1.379 1_554 S
C216 H229 0.947 . S
C216 C251 1.382 . S
C217 C216 1.379 1_556 S
C217 C218 1.381 . S
C218 C217 1.381 . S
C218 C219 1.378 . S
C218 H230 0.952 . S
C219 C218 1.378 . S
C219 H231 0.950 . S
C219 C250 1.383 1_556 S
H220 C239 0.947 1_556 S
H221 C240 0.946 . S
H222 C242 0.953 . S
H223 C243 0.945 . S
H224 C245 0.952 . S
H225 C246 0.949 . S
H226 C248 0.950 . S
H227 C249 0.948 . S
H228 C251 0.951 . S
H229 C216 0.947 . S
H230 C218 0.952 . S
H231 C219 0.950 . S
N232 C235 1.382 . S
N232 C237 1.363 . S
N233 C235 1.371 . S
N233 C236 1.372 . S
N234 C236 1.361 . S
N234 C237 1.377 . S
C235 N232 1.382 . S
C235 N233 1.371 . S
C235 C238 1.480 . S
C236 N233 1.372 . S
C236 N234 1.361 . S
C236 C244 1.457 . S
C237 N232 1.363 . S
C237 N234 1.377 . S
C237 C250 1.479 . S
C238 C235 1.480 . S
C238 C239 1.383 . S
C238 C243 1.385 . S
C239 H220 0.947 1_554 S
C239 C238 1.383 . S
C239 C240 1.388 1_554 S
C240 H221 0.946 . S
C240 C239 1.388 1_556 S
C240 C241 1.384 1_556 S
C241 C240 1.384 1_554 S
C241 C242 1.377 . S
C242 H222 0.953 . S
C242 C241 1.377 . S
C242 C243 1.369 . S
C243 H223 0.945 . S
C243 C238 1.385 . S
C243 C242 1.369 . S
C244 C236 1.457 . S
C244 C245 1.372 . S
C244 C249 1.364 . S
C245 H224 0.952 . S
C245 C244 1.372 . S
C245 C246 1.389 . S
C246 H225 0.949 . S
C246 C245 1.389 . S
C246 C247 1.387 . S
C247 C246 1.387 . S
C247 C248 1.372 . S
C248 H226 0.950 . S
C248 C247 1.372 . S
C248 C249 1.379 . S
C249 H227 0.948 . S
C249 C244 1.364 . S
C249 C248 1.379 . S
C250 C219 1.383 1_554 S
C250 C237 1.479 . S
C250 C251 1.398 . S
C251 C216 1.382 . S
C251 H228 0.951 . S
C251 C250 1.398 . S
C252 C253 1.384 1_455 S
C252 H265 0.947 . S
C252 C287 1.382 . S
C253 C252 1.384 1_655 S
C253 C254 1.378 . S
C254 C253 1.378 . S
C254 C255 1.378 . S
C254 H266 0.952 . S
C255 C254 1.378 . S
C255 H267 0.950 . S
C255 C286 1.383 1_655 S
H256 C275 0.947 1_655 S
H257 C276 0.946 . S
H258 C278 0.953 . S
H259 C279 0.945 . S
H260 C281 0.952 . S
H261 C282 0.949 . S
H262 C284 0.950 . S
H263 C285 0.948 . S
H264 C287 0.951 . S
H265 C252 0.947 . S
H266 C254 0.952 . S
H267 C255 0.950 . S
N268 C271 1.382 . S
N268 C273 1.363 . S
N269 C271 1.371 . S
N269 C272 1.372 . S
N270 C272 1.361 . S
N270 C273 1.377 . S
C271 N268 1.382 . S
C271 N269 1.371 . S
C271 C274 1.480 . S
C272 N269 1.372 . S
C272 N270 1.361 . S
C272 C280 1.457 . S
C273 N268 1.363 . S
C273 N270 1.377 . S
C273 C286 1.479 . S
C274 C271 1.480 . S
C274 C275 1.383 . S
C274 C279 1.385 . S
C275 H256 0.947 1_455 S
C275 C274 1.383 . S
C275 C276 1.388 1_455 S
C276 H257 0.946 . S
C276 C275 1.388 1_655 S
C276 C277 1.384 1_655 S
C277 C276 1.384 1_455 S
C277 C278 1.377 . S
C278 H258 0.953 . S
C278 C277 1.377 . S
C278 C279 1.369 . S
C279 H259 0.945 . S
C279 C274 1.385 . S
C279 C278 1.369 . S
C280 C272 1.457 . S
C280 C281 1.372 . S
C280 C285 1.364 . S
C281 H260 0.952 . S
C281 C280 1.372 . S
C281 C282 1.389 . S
C282 H261 0.949 . S
C282 C281 1.389 . S
C282 C283 1.387 . S
C283 C282 1.387 . S
C283 C284 1.372 . S
C284 H262 0.950 . S
C284 C283 1.372 . S
C284 C285 1.379 . S
C285 H263 0.948 . S
C285 C280 1.364 . S
C285 C284 1.379 . S
C286 C255 1.383 1_455 S
C286 C273 1.479 . S
C286 C287 1.398 . S
C287 C252 1.382 . S
C287 H264 0.951 . S
C287 C286 1.398 . S
Zn288 O294 1.920 . S
Zn288 O300 1.898 . S
Zn288 O303 1.905 . S
Zn289 O297 1.905 1_565 S
Zn289 O298 1.898 . S
Zn289 O306 1.920 . S
Zn290 O293 2.080 1_455 S
Zn290 O296 2.114 . S
Zn290 O299 2.120 1_445 S
Zn290 O301 2.120 . S
Zn290 O302 2.114 1_455 S
Zn290 O305 2.080 . S
C291 O296 1.166 . S
C291 O297 1.182 . S
C292 O298 1.167 1_655 S
C292 O299 1.299 . S
O293 Zn290 2.080 1_655 S
O293 C307 1.305 . S
O294 Zn288 1.920 . S
O294 C307 1.234 . S
C295 O300 1.167 1_455 S
C295 O301 1.299 . S
O296 Zn290 2.114 . S
O296 C291 1.166 . S
O297 Zn289 1.905 1_545 S
O297 C291 1.182 . S
O298 Zn289 1.898 . S
O298 C292 1.167 1_455 S
O299 Zn290 2.120 1_665 S
O299 C292 1.299 . S
O300 Zn288 1.898 . S
O300 C295 1.167 1_655 S
O301 Zn290 2.120 . S
O301 C295 1.299 . S
O302 Zn290 2.114 1_655 S
O302 C304 1.166 . S
O303 Zn288 1.905 . S
O303 C304 1.182 . S
C304 O302 1.166 . S
C304 O303 1.182 . S
O305 Zn290 2.080 . S
O305 C308 1.305 1_545 S
O306 Zn289 1.920 . S
O306 C308 1.234 . S
C307 O293 1.305 . S
C307 O294 1.234 . S
C308 O305 1.305 1_565 S
C308 O306 1.234 . S
Zn309 O315 1.920 1_556 S
Zn309 O321 1.898 . S
Zn309 O324 1.905 . S
Zn310 O318 1.905 . S
Zn310 O319 1.898 . S
Zn310 O327 1.920 . S
Zn311 O314 2.080 . S
Zn311 O317 2.114 1_545 S
Zn311 O320 2.120 1_545 S
Zn311 O322 2.120 . S
Zn311 O323 2.114 1_544 S
Zn311 O326 2.080 . S
C312 O317 1.166 . S
C312 O318 1.182 . S
C313 O319 1.167 . S
C313 O320 1.299 . S
O314 Zn311 2.080 . S
O314 C328 1.305 . S
O315 Zn309 1.920 1_554 S
O315 C328 1.234 . S
C316 O321 1.167 . S
C316 O322 1.299 1_556 S
O317 Zn311 2.114 1_565 S
O317 C312 1.166 . S
O318 Zn310 1.905 . S
O318 C312 1.182 . S
O319 Zn310 1.898 . S
O319 C313 1.167 . S
O320 Zn311 2.120 1_565 S
O320 C313 1.299 . S
O321 Zn309 1.898 . S
O321 C316 1.167 . S
O322 Zn311 2.120 . S
O322 C316 1.299 1_554 S
O323 Zn311 2.114 1_566 S
O323 C325 1.166 . S
O324 Zn309 1.905 . S
O324 C325 1.182 1_545 S
C325 O323 1.166 . S
C325 O324 1.182 1_565 S
O326 Zn311 2.080 . S
O326 C329 1.305 . S
O327 Zn310 1.920 . S
O327 C329 1.234 1_565 S
C328 O314 1.305 . S
C328 O315 1.234 . S
C329 O326 1.305 . S
C329 O327 1.234 1_545 S
Zn330 O336 1.920 . S
Zn330 O342 1.898 . S
Zn330 O345 1.905 . S
Zn331 O339 1.905 . S
Zn331 O340 1.898 . S
Zn331 O348 1.920 . S
Zn332 O335 2.080 . S
Zn332 O338 2.114 . S
Zn332 O341 2.120 . S
Zn332 O343 2.120 . S
Zn332 O344 2.114 . S
Zn332 O347 2.080 . S
C333 O338 1.166 . S
C333 O339 1.182 . S
C334 O340 1.167 . S
C334 O341 1.299 . S
O335 Zn332 2.080 . S
O335 C349 1.305 . S
O336 Zn330 1.920 . S
O336 C349 1.234 . S
C337 O342 1.167 . S
C337 O343 1.299 . S
O338 Zn332 2.114 . S
O338 C333 1.166 . S
O339 Zn331 1.905 . S
O339 C333 1.182 . S
O340 Zn331 1.898 . S
O340 C334 1.167 . S
O341 Zn332 2.120 . S
O341 C334 1.299 . S
O342 Zn330 1.898 . S
O342 C337 1.167 . S
O343 Zn332 2.120 . S
O343 C337 1.299 . S
O344 Zn332 2.114 . S
O344 C346 1.166 . S
O345 Zn330 1.905 . S
O345 C346 1.182 . S
C346 O344 1.166 . S
C346 O345 1.182 . S
O347 Zn332 2.080 . S
O347 C350 1.305 . S
O348 Zn331 1.920 . S
O348 C350 1.234 . S
C349 O335 1.305 . S
C349 O336 1.234 . S
C350 O347 1.305 . S
C350 O348 1.234 . S
Zn351 O357 1.920 . S
Zn351 O363 1.898 . S
Zn351 O366 1.905 . S
Zn352 O360 1.905 1_655 S
Zn352 O361 1.898 . S
Zn352 O369 1.920 . S
Zn353 O356 2.080 1_554 S
Zn353 O359 2.114 . S
Zn353 O362 2.120 1_454 S
Zn353 O364 2.120 . S
Zn353 O365 2.114 1_554 S
Zn353 O368 2.080 . S
C354 O359 1.166 . S
C354 O360 1.182 . S
C355 O361 1.167 1_556 S
C355 O362 1.299 . S
O356 Zn353 2.080 1_556 S
O356 C370 1.305 . S
O357 Zn351 1.920 . S
O357 C370 1.234 . S
C358 O363 1.167 1_554 S
C358 O364 1.299 . S
O359 Zn353 2.114 . S
O359 C354 1.166 . S
O360 Zn352 1.905 1_455 S
O360 C354 1.182 . S
O361 Zn352 1.898 . S
O361 C355 1.167 1_554 S
O362 Zn353 2.120 1_656 S
O362 C355 1.299 . S
O363 Zn351 1.898 . S
O363 C358 1.167 1_556 S
O364 Zn353 2.120 . S
O364 C358 1.299 . S
O365 Zn353 2.114 1_556 S
O365 C367 1.166 . S
O366 Zn351 1.905 . S
O366 C367 1.182 . S
C367 O365 1.166 . S
C367 O366 1.182 . S
O368 Zn353 2.080 . S
O368 C371 1.305 1_455 S
O369 Zn352 1.920 . S
O369 C371 1.234 . S
C370 O356 1.305 . S
C370 O357 1.234 . S
C371 O368 1.305 1_655 S
C371 O369 1.234 . S
C1 C291 1.522 . S
C67 C325 1.510 . S
C337 C97 1.484 . S
C133 C371 1.525 . S
C328 C25 1.489 . S
C308 C37 1.492 . S
C355 C103 1.509 . S
C346 C109 1.496 . S
C31 C354 1.509 . S
C316 C73 1.502 . S
C139 C292 1.496 . S
C61 C349 1.459 . S
C307 C175 2.338 1_655 S
C181 C329 2.190 . S
C247 C334 2.404 . S
C277 C367 2.410 . S
C145 C312 2.357 1_545 S
C304 C211 2.209 . S
C358 C217 2.370 1_554 S
C350 C283 2.366 . S
C169 C370 2.331 1_554 S
C313 C241 2.388 . S
C295 C253 2.301 1_455 S
C205 C333 2.234 . S
