# Generated by pormake.
# Topology zzz, (3,6)-cn, num edge types: 1
# Building blocks:
#     Node 0, Type 0, BuildingBlock: MIDCAF_clean_linker_0, # of connection points: 3
#     Node 1, Type 0, BuildingBlock: MIDCAF_clean_linker_0, # of connection points: 3
#     Node 2, Type 0, BuildingBlock: MIDCAF_clean_linker_0, # of connection points: 3
#     Node 3, Type 0, BuildingBlock: MIDCAF_clean_linker_0, # of connection points: 3
#     Node 4, Type 0, BuildingBlock: MIDCAF_clean_linker_0, # of connection points: 3
#     Node 5, Type 0, BuildingBlock: MIDCAF_clean_linker_0, # of connection points: 3
#     Node 6, Type 0, BuildingBlock: MIDCAF_clean_linker_0, # of connection points: 3
#     Node 7, Type 0, BuildingBlock: MIDCAF_clean_linker_0, # of connection points: 3
#     Node 8, Type 1, BuildingBlock: PAMTOO_clean_sbu_0, # of connection points: 6
#     Node 9, Type 1, BuildingBlock: PAMTOO_clean_sbu_0, # of connection points: 6
#     Node 10, Type 1, BuildingBlock: PAMTOO_clean_sbu_0, # of connection points: 6
#     Node 11, Type 1, BuildingBlock: PAMTOO_clean_sbu_0, # of connection points: 6
#     Edge 12, Type (0, 1), BuildingBlock: KIFKEQ_clean_linker_1, # of connection points: 2
#     Edge 13, Type (0, 1), BuildingBlock: KIFKEQ_clean_linker_1, # of connection points: 2
#     Edge 14, Type (0, 1), BuildingBlock: KIFKEQ_clean_linker_1, # of connection points: 2
#     Edge 15, Type (0, 1), BuildingBlock: KIFKEQ_clean_linker_1, # of connection points: 2
#     Edge 16, Type (0, 1), BuildingBlock: KIFKEQ_clean_linker_1, # of connection points: 2
#     Edge 17, Type (0, 1), BuildingBlock: KIFKEQ_clean_linker_1, # of connection points: 2
#     Edge 18, Type (0, 1), BuildingBlock: KIFKEQ_clean_linker_1, # of connection points: 2
#     Edge 19, Type (0, 1), BuildingBlock: KIFKEQ_clean_linker_1, # of connection points: 2
#     Edge 20, Type (0, 1), BuildingBlock: KIFKEQ_clean_linker_1, # of connection points: 2
#     Edge 21, Type (0, 1), BuildingBlock: KIFKEQ_clean_linker_1, # of connection points: 2
#     Edge 22, Type (0, 1), BuildingBlock: KIFKEQ_clean_linker_1, # of connection points: 2
#     Edge 23, Type (0, 1), BuildingBlock: KIFKEQ_clean_linker_1, # of connection points: 2
#     Edge 24, Type (0, 1), BuildingBlock: KIFKEQ_clean_linker_1, # of connection points: 2
#     Edge 25, Type (0, 1), BuildingBlock: KIFKEQ_clean_linker_1, # of connection points: 2
#     Edge 26, Type (0, 1), BuildingBlock: KIFKEQ_clean_linker_1, # of connection points: 2
#     Edge 27, Type (0, 1), BuildingBlock: KIFKEQ_clean_linker_1, # of connection points: 2
#     Edge 28, Type (0, 1), BuildingBlock: KIFKEQ_clean_linker_1, # of connection points: 2
#     Edge 29, Type (0, 1), BuildingBlock: KIFKEQ_clean_linker_1, # of connection points: 2
#     Edge 30, Type (0, 1), BuildingBlock: KIFKEQ_clean_linker_1, # of connection points: 2
#     Edge 31, Type (0, 1), BuildingBlock: KIFKEQ_clean_linker_1, # of connection points: 2
#     Edge 32, Type (0, 1), BuildingBlock: KIFKEQ_clean_linker_1, # of connection points: 2
#     Edge 33, Type (0, 1), BuildingBlock: KIFKEQ_clean_linker_1, # of connection points: 2
#     Edge 34, Type (0, 1), BuildingBlock: KIFKEQ_clean_linker_1, # of connection points: 2
#     Edge 35, Type (0, 1), BuildingBlock: KIFKEQ_clean_linker_1, # of connection points: 2
# Relax obj value: 0.350
# Max RMSD: 0.277
# Mean RMSD: 0.220
data_MOF--net-zzz--node1-PAMTOO_clean_sbu_0--node2-MIDCAF_clean_linker_0--edge1-KIFKEQ_clean_linker_1
_symmetry_space_group_name_H-M    P1
_symmetry_Int_Tables_number       1
_symmetry_cell_setting            triclinic
loop_
_symmetry_equiv_pos_as_xyz
'x, y, z'
_cell_length_a     64.899729
_cell_length_b     56.359931
_cell_length_c     21.219876
_cell_angle_alpha  91.333761
_cell_angle_beta   81.850729
_cell_angle_gamma 84.639968
loop_
_atom_site_label
_atom_site_type_symbol
_atom_site_fract_x
_atom_site_fract_y
_atom_site_fract_z
_atom_type_partial_charge
C0 C 0.82051 0.54291 0.51073 0.0
C1 C 0.82647 0.52101 0.53652 0.0
C2 C 0.8148 0.50161 0.52799 0.0
C3 C 0.79805 0.50386 0.49241 0.0
H4 H 0.71094 0.54616 0.41352 0.0
H5 H 0.67827 0.54021 0.37305 0.0
H6 H 0.70575 0.47174 0.29015 0.0
H7 H 0.73789 0.47758 0.33258 0.0
H8 H 0.75717 0.53577 0.19829 0.0
H9 H 0.77434 0.52986 0.08877 0.0
H10 H 0.83444 0.53218 0.15249 0.0
H11 H 0.8174 0.53804 0.26216 0.0
H12 H 0.80079 0.56168 0.45152 0.0
H13 H 0.82927 0.55811 0.51589 0.0
H14 H 0.81901 0.48451 0.54738 0.0
H15 H 0.78997 0.48837 0.48409 0.0
N16 N 0.75943 0.51936 0.42274 0.0
N17 N 0.75651 0.52679 0.31561 0.0
N18 N 0.78742 0.53322 0.35458 0.0
C19 C 0.74796 0.51999 0.37337 0.0
C20 C 0.77614 0.53337 0.30545 0.0
C21 C 0.77925 0.52644 0.41327 0.0
C22 C 0.72679 0.51212 0.37739 0.0
C23 C 0.70946 0.52925 0.39002 0.0
C24 C 0.69092 0.52603 0.36535 0.0
C25 C 0.68942 0.50573 0.32672 0.0
C26 C 0.7061 0.48755 0.31979 0.0
C27 C 0.72455 0.49076 0.34475 0.0
C28 C 0.78597 0.53666 0.23931 0.0
C29 C 0.77403 0.53563 0.189 0.0
C30 C 0.78381 0.53226 0.12614 0.0
C31 C 0.80569 0.53011 0.11232 0.0
C32 C 0.81751 0.53381 0.16173 0.0
C33 C 0.80773 0.53706 0.22474 0.0
C34 C 0.79299 0.5254 0.46354 0.0
C35 C 0.80417 0.54497 0.47399 0.0
C36 C 0.99286 0.79404 0.45693 0.0
C37 C 1.00422 0.79704 0.50796 0.0
C38 C 0.01913 0.77847 0.51945 0.0
C39 C 0.02413 0.75868 0.47724 0.0
H40 H 0.05261 0.67495 0.22075 0.0
H41 H 0.0416 0.64482 0.1528 0.0
H42 H 0.97698 0.66721 0.22422 0.0
H43 H 0.98805 0.69812 0.29292 0.0
H44 H 0.07547 0.72284 0.16866 0.0
H45 H 0.09635 0.74654 0.09451 0.0
H46 H 0.09135 0.80268 0.2396 0.0
H47 H 0.071 0.77896 0.31393 0.0
H48 H 0.99029 0.77336 0.37247 0.0
H49 H 0.98136 0.80801 0.44639 0.0
H50 H 0.0279 0.77993 0.55894 0.0
H51 H 0.03704 0.7458 0.48403 0.0
N52 N 0.0175 0.72259 0.34409 0.0
N53 N 0.04638 0.71862 0.26249 0.0
N54 N 0.04302 0.7499 0.338 0.0
C55 C 0.02853 0.71041 0.29153 0.0
C56 C 0.0537 0.73833 0.28506 0.0
C57 C 0.02513 0.7422 0.36794 0.0
C58 C 0.02119 0.68927 0.26154 0.0
C59 C 0.03601 0.6734 0.22288 0.0
C60 C 0.02974 0.6561 0.18377 0.0
C61 C 0.00847 0.65401 0.18233 0.0
C62 C 0.99351 0.66857 0.22436 0.0
C63 C 0.99983 0.68616 0.26374 0.0
C64 C 0.07094 0.74934 0.24667 0.0
C65 C 0.07935 0.73993 0.18543 0.0
C66 C 0.09131 0.75352 0.14278 0.0
C67 C 0.09508 0.77672 0.1606 0.0
C68 C 0.08877 0.78489 0.22414 0.0
C69 C 0.07687 0.77132 0.26677 0.0
C70 C 0.01411 0.75677 0.42322 0.0
C71 C 0.99782 0.77408 0.41481 0.0
C72 C 0.69805 0.98757 0.36357 0.0
C73 C 0.69624 0.99718 0.42618 0.0
C74 C 0.71217 0.01071 0.44177 0.0
C75 C 0.7286 0.01584 0.39493 0.0
H76 H 0.80064 0.98869 0.22483 0.0
H77 H 0.83742 0.98254 0.17453 0.0
H78 H 0.83164 0.05292 0.09851 0.0
H79 H 0.79581 0.05915 0.14928 0.0
H80 H 0.75252 0.07068 0.08895 0.0
H81 H 0.7307 0.09313 0.02174 0.0
H82 H 0.67553 0.07995 0.1508 0.0
H83 H 0.69712 0.05824 0.21828 0.0
H84 H 0.71428 0.98678 0.26811 0.0
H85 H 0.68606 0.97737 0.34921 0.0
H86 H 0.71146 0.01819 0.48957 0.0
H87 H 0.73969 0.02777 0.40717 0.0
N88 N 0.76255 0.01591 0.26285 0.0
N89 N 0.76039 0.04303 0.18059 0.0
N90 N 0.73 0.03481 0.24549 0.0
C91 C 0.77218 0.02781 0.21306 0.0
C92 C 0.73937 0.04667 0.19642 0.0
C93 C 0.74128 0.01962 0.27907 0.0
C94 C 0.79518 0.02437 0.19106 0.0
C95 C 0.80745 0.00296 0.19847 0.0
C96 C 0.82846 0.99937 0.16903 0.0
C97 C 0.83765 0.01723 0.13227 0.0
C98 C 0.82543 0.03884 0.12709 0.0
C99 C 0.80465 0.04235 0.15598 0.0
C100 C 0.72658 0.06237 0.15871 0.0
C101 C 0.73575 0.0729 0.10347 0.0
C102 C 0.72326 0.08573 0.06482 0.0
C103 C 0.70136 0.08834 0.08073 0.0
C104 C 0.69235 0.0787 0.13748 0.0
C105 C 0.70477 0.06595 0.17598 0.0
C106 C 0.72945 0.00754 0.33163 0.0
C107 C 0.71434 0.99283 0.31694 0.0
C108 C 0.44089 0.68171 0.18671 0.0
C109 C 0.44329 0.68011 0.11985 0.0
C110 C 0.45373 0.69754 0.0851 0.0
C111 C 0.46276 0.71514 0.11634 0.0
H112 H 0.50391 0.76865 0.08709 0.0
H113 H 0.51369 0.80416 0.03152 0.0
H114 H 0.51425 0.84108 0.21168 0.0
H115 H 0.50471 0.80515 0.26782 0.0
H116 H 0.46652 0.73544 0.41269 0.0
H117 H 0.47218 0.70717 0.49526 0.0
H118 H 0.5361 0.69012 0.40653 0.0
H119 H 0.53042 0.71902 0.32438 0.0
H120 H 0.44862 0.69923 0.26936 0.0
H121 H 0.43259 0.66889 0.21497 0.0
H122 H 0.45608 0.69675 0.03352 0.0
H123 H 0.4716 0.72751 0.08798 0.0
N124 N 0.48262 0.74998 0.18602 0.0
N125 N 0.50039 0.75718 0.27303 0.0
N126 N 0.47917 0.72558 0.27356 0.0
C127 C 0.49539 0.76325 0.21472 0.0
C128 C 0.49215 0.73825 0.30243 0.0
C129 C 0.47433 0.73121 0.21546 0.0
C130 C 0.50349 0.78412 0.18186 0.0
C131 C 0.50637 0.78422 0.11496 0.0
C132 C 0.51208 0.80452 0.08306 0.0
C133 C 0.51471 0.82538 0.11726 0.0
C134 C 0.51226 0.82523 0.1842 0.0
C135 C 0.50694 0.80466 0.21623 0.0
C136 C 0.49807 0.72946 0.36268 0.0
C137 C 0.48206 0.72657 0.41281 0.0
C138 C 0.48525 0.71017 0.45954 0.0
C139 C 0.50443 0.69604 0.45641 0.0
C140 C 0.52117 0.70078 0.41017 0.0
C141 C 0.51798 0.71743 0.36344 0.0
C142 C 0.46171 0.71555 0.18292 0.0
C143 C 0.45006 0.69916 0.21787 0.0
C144 C 0.19293 0.49159 0.9678 0.0
C145 C 0.18819 0.47442 0.92392 0.0
C146 C 0.20236 0.45384 0.90964 0.0
C147 C 0.21969 0.44968 0.94188 0.0
H148 H 0.27223 0.50638 0.11849 0.0
H149 H 0.30043 0.51937 0.17297 0.0
H150 H 0.33308 0.44879 0.14189 0.0
H151 H 0.305 0.43608 0.08805 0.0
H152 H 0.25614 0.42505 0.23711 0.0
H153 H 0.23411 0.42306 0.33913 0.0
H154 H 0.18052 0.41733 0.24221 0.0
H155 H 0.20239 0.4191 0.14039 0.0
H156 H 0.21284 0.50023 0.03618 0.0
H157 H 0.18241 0.50754 0.98092 0.0
H158 H 0.19969 0.44043 0.87517 0.0
H159 H 0.22938 0.43288 0.93318 0.0
N160 N 0.25577 0.46794 0.0402 0.0
N161 N 0.25973 0.44428 0.1285 0.0
N162 N 0.23029 0.44247 0.0778 0.0
C163 C 0.26724 0.46024 0.08648 0.0
C164 C 0.24123 0.43545 0.1251 0.0
C165 C 0.23744 0.45836 0.03493 0.0
C166 C 0.28664 0.47035 0.09808 0.0
C167 C 0.28592 0.49405 0.12084 0.0
C168 C 0.30191 0.50133 0.153 0.0
C169 C 0.31898 0.48507 0.16249 0.0
C170 C 0.32036 0.4619 0.13509 0.0
C171 C 0.3043 0.4546 0.10384 0.0
C172 C 0.23078 0.42359 0.18075 0.0
C173 C 0.23984 0.42233 0.23721 0.0
C174 C 0.22723 0.42113 0.29587 0.0
C175 C 0.2055 0.42104 0.29866 0.0
C176 C 0.1972 0.41773 0.24175 0.0
C177 C 0.20977 0.41897 0.1831 0.0
C178 C 0.22368 0.46623 0.98797 0.0
C179 C 0.21049 0.48753 0.99937 0.0
C180 C 0.023 0.23135 0.97192 0.0
C181 C 0.03677 0.22092 0.91919 0.0
C182 C 0.05617 0.23011 0.90301 0.0
C183 C 0.06269 0.24712 0.94289 0.0
H184 H 0.0306 0.32406 0.13821 0.0
H185 H 0.02181 0.35958 0.20967 0.0
H186 H 0.07909 0.34343 0.28873 0.0
H187 H 0.08801 0.30892 0.21723 0.0
H188 H 0.09732 0.25247 0.2427 0.0
H189 H 0.10252 0.21851 0.30941 0.0
H190 H 0.09403 0.17094 0.15444 0.0
H191 H 0.08977 0.20451 0.08736 0.0
H192 H 0.01958 0.25425 0.0559 0.0
H193 H 1.00799 0.22463 0.98589 0.0
H194 H 0.067 0.22278 0.86213 0.0
H195 H 0.07858 0.25193 0.93285 0.0
N196 N 0.05535 0.28517 0.0835 0.0
N197 N 0.07763 0.27313 0.15779 0.0
N198 N 0.07321 0.24668 0.07597 0.0
C199 C 0.06464 0.2903 0.13558 0.0
C200 C 0.08195 0.25127 0.12852 0.0
C201 C 0.06012 0.26333 0.05288 0.0
C202 C 0.05993 0.31349 0.17215 0.0
C203 C 0.04145 0.32843 0.17005 0.0
C204 C 0.03634 0.34865 0.21145 0.0
C205 C 0.04971 0.35443 0.25528 0.0
C206 C 0.06851 0.3399 0.25527 0.0
C207 C 0.07354 0.31984 0.21439 0.0
C208 C 0.09219 0.2313 0.16057 0.0
C209 C 0.09734 0.23471 0.22209 0.0
C210 C 0.10024 0.21522 0.26049 0.0
C211 C 0.09785 0.19207 0.2382 0.0
C212 C 0.09581 0.18847 0.17368 0.0
C213 C 0.09313 0.20789 0.13514 0.0
C214 C 0.04988 0.25554 0.99936 0.0
C215 C 0.02954 0.24852 0.01179 0.0
C216 C 0.31047 0.99222 0.03311 0.0
C217 C 0.32093 0.01285 0.03785 0.0
C218 C 0.31213 0.03061 0.08443 0.0
C219 C 0.29437 0.02698 0.128 0.0
H220 H 0.21661 0.03905 0.26404 0.0
H221 H 0.1802 0.04695 0.31712 0.0
H222 H 0.17716 0.97135 0.33985 0.0
H223 H 0.21306 0.9637 0.28761 0.0
H224 H 0.26021 0.96704 0.40111 0.0
H225 H 0.28161 0.94656 0.47322 0.0
H226 H 0.33067 0.92819 0.31517 0.0
H227 H 0.30947 0.94849 0.2434 0.0
H228 H 0.28624 0.97166 0.07515 0.0
H229 H 0.3168 0.97798 0.99867 0.0
H230 H 0.31953 0.04687 0.08912 0.0
H231 H 0.28901 0.04007 0.16641 0.0
N232 N 0.25119 0.00437 0.19911 0.0
N233 N 0.25097 0.98084 0.28965 0.0
N234 N 0.28213 0.98292 0.22104 0.0
C235 C 0.24051 0.99555 0.2525 0.0
C236 C 0.27174 0.97454 0.27441 0.0
C237 C 0.27217 0.99776 0.18332 0.0
C238 C 0.21761 0.00076 0.27144 0.0
C239 C 0.20787 0.02419 0.27886 0.0
C240 C 0.18714 0.02868 0.30991 0.0
C241 C 0.17572 0.00978 0.33302 0.0
C242 C 0.18527 0.98634 0.3222 0.0
C243 C 0.20592 0.98194 0.29229 0.0
C244 C 0.28327 0.9596 0.3167 0.0
C245 C 0.2754 0.95821 0.38162 0.0
C246 C 0.28763 0.94656 0.42293 0.0
C247 C 0.30776 0.93578 0.39977 0.0
C248 C 0.3151 0.93605 0.33428 0.0
C249 C 0.30303 0.94792 0.29325 0.0
C250 C 0.28493 0.00562 0.12569 0.0
C251 C 0.29281 0.98861 0.07672 0.0
C252 C 0.52554 0.33048 0.344 0.0
C253 C 0.52467 0.3286 0.41003 0.0
C254 C 0.52012 0.30698 0.43796 0.0
C255 C 0.51527 0.288 0.40064 0.0
H256 H 0.48148 0.22583 0.40689 0.0
H257 H 0.4783 0.18742 0.45579 0.0
H258 H 0.49588 0.15157 0.27139 0.0
H259 H 0.49874 0.19035 0.22184 0.0
H260 H 0.5221 0.26214 0.08971 0.0
H261 H 0.51836 0.29188 0.0092 0.0
H262 H 0.45478 0.31222 0.0976 0.0
H263 H 0.45849 0.28183 0.17607 0.0
H264 H 0.52115 0.31407 0.25626 0.0
H265 H 0.5293 0.34686 0.32127 0.0
H266 H 0.51932 0.30517 0.48894 0.0
H267 H 0.51095 0.27188 0.4237 0.0
N268 N 0.50275 0.25061 0.31931 0.0
N269 N 0.49113 0.23972 0.22315 0.0
N270 N 0.50367 0.277 0.23617 0.0
C271 C 0.49484 0.23432 0.28327 0.0
C272 C 0.49562 0.26125 0.19982 0.0
C273 C 0.50736 0.27194 0.29571 0.0
C274 C 0.49045 0.21107 0.31057 0.0
C275 C 0.48435 0.20979 0.37655 0.0
C276 C 0.48239 0.1878 0.40454 0.0
C277 C 0.48685 0.1665 0.36743 0.0
C278 C 0.49238 0.16774 0.30109 0.0
C279 C 0.49391 0.18988 0.27276 0.0
C280 C 0.49048 0.26949 0.13831 0.0
C281 C 0.50696 0.272 0.08931 0.0
C282 C 0.50492 0.28943 0.04412 0.0
C283 C 0.48646 0.305 0.04794 0.0
C284 C 0.46921 0.30061 0.09286 0.0
C285 C 0.47123 0.28299 0.13763 0.0
C286 C 0.515 0.29041 0.33489 0.0
C287 C 0.52083 0.31162 0.30685 0.0
Dy288 Dy 0.99255 0.01892 0.68034 0.0
Dy289 Dy 0.02219 0.0012 0.78502 0.0
C290 C 0.04193 0.01419 0.64553 0.0
O291 O 0.98805 0.9803 0.69166 0.0
O292 O 0.01933 0.96864 0.72554 0.0
O293 O 0.98195 0.01333 0.58958 0.0
O294 O 0.97069 0.04534 0.6469 0.0
O295 O 0.98965 0.99467 0.82924 0.0
O296 O 0.97085 0.02084 0.77238 0.0
O297 O 0.01253 0.03966 0.80966 0.0
O298 O 1.0072 0.05117 0.71028 0.0
O299 O 0.02786 0.99335 0.88086 0.0
O300 O 0.05345 0.99041 0.80297 0.0
C301 C 1.00276 0.96356 0.70053 0.0
O302 O 0.02448 0.00921 0.62637 0.0
O303 O 0.04282 0.01726 0.7065 0.0
C304 C 0.98317 0.0501 0.5385 0.0
C305 C 0.011 0.07798 0.46639 0.0
C306 C 0.0121 0.05334 0.45346 0.0
C307 C 0.99829 0.0395 0.48913 0.0
C308 C 0.98071 0.07508 0.54646 0.0
C309 C 0.99459 0.08887 0.51103 0.0
C310 C 0.97374 0.03538 0.58973 0.0
C311 C 0.97212 0.00741 0.82182 0.0
C312 C 0.01059 0.05639 0.76838 0.0
C313 C 0.0567 0.96514 0.88741 0.0
C314 C 0.07598 0.92292 0.92997 0.0
C315 C 0.06074 0.92197 0.8891 0.0
C316 C 0.05118 0.94296 0.8679 0.0
C317 C 0.07188 0.9662 0.92784 0.0
C318 C 0.08145 0.94527 0.94902 0.0
C319 C 0.04776 0.9873 0.86323 0.0
H320 H 0.02453 0.04452 0.419 0.0
H321 H 1.00056 0.02032 0.48122 0.0
H322 H 0.9691 0.08383 0.58354 0.0
H323 H 0.99311 0.10796 0.52072 0.0
H324 H 0.05598 0.90504 0.87433 0.0
H325 H 0.03956 0.94191 0.83622 0.0
H326 H 0.07646 0.98324 0.9426 0.0
H327 H 0.09327 0.94658 0.97987 0.0
Dy328 Dy 0.50586 0.97706 0.69829 0.0
Dy329 Dy 0.51631 0.01911 0.79375 0.0
C330 C 0.5038 0.03043 0.65826 0.0
O331 O 0.53823 0.98472 0.65719 0.0
O332 O 0.54784 0.00397 0.74377 0.0
O333 O 0.50123 0.96312 0.60614 0.0
O334 O 0.49878 0.9407 0.68784 0.0
O335 O 0.51144 0.98672 0.85105 0.0
O336 O 0.52437 0.96044 0.76937 0.0
O337 O 0.48125 0.0216 0.80744 0.0
O338 O 0.47683 0.9842 0.76975 0.0
O339 O 0.53046 0.02994 0.87428 0.0
O340 O 0.51352 0.05637 0.82334 0.0
C341 C 0.55253 0.99356 0.68659 0.0
O342 O 0.49312 0.01174 0.66282 0.0
O343 O 0.51767 0.03345 0.69625 0.0
C344 C 0.47551 0.93623 0.61522 0.0
C345 C 0.43654 0.92316 0.59088 0.0
C346 C 0.43778 0.94417 0.62664 0.0
C347 C 0.45711 0.95064 0.63871 0.0
C348 C 0.47441 0.91508 0.58051 0.0
C349 C 0.45505 0.90858 0.5683 0.0
C350 C 0.49571 0.94297 0.62885 0.0
C351 C 0.51948 0.96526 0.8306 0.0
C352 C 0.46939 0.00423 0.80138 0.0
C353 C 0.54342 0.06713 0.86375 0.0
C354 C 0.58028 0.08932 0.86789 0.0
C355 C 0.57788 0.07544 0.81393 0.0
C356 C 0.55958 0.0644 0.81192 0.0
C357 C 0.54519 0.08208 0.91587 0.0
C358 C 0.56346 0.09316 0.91792 0.0
C359 C 0.52578 0.0526 0.86652 0.0
H360 H 0.42388 0.95599 0.6438 0.0
H361 H 0.45773 0.96699 0.66595 0.0
H362 H 0.4885 0.90366 0.56274 0.0
H363 H 0.45456 0.8922 0.54108 0.0
H364 H 0.59049 0.0723 0.77449 0.0
H365 H 0.5584 0.0529 0.7712 0.0
H366 H 0.53285 0.08427 0.95631 0.0
H367 H 0.56491 0.10346 0.96053 0.0
Dy368 Dy 0.51421 0.50914 0.80772 0.0
Dy369 Dy 0.47188 0.50112 0.73621 0.0
C370 C 0.48617 0.46584 0.84396 0.0
O371 O 0.52138 0.47671 0.74312 0.0
O372 O 0.50121 0.49051 0.66944 0.0
O373 O 0.54779 0.50803 0.80986 0.0
O374 O 0.52547 0.52224 0.89114 0.0
O375 O 0.48205 0.53621 0.70532 0.0
O376 O 0.51638 0.5334 0.72463 0.0
O377 O 0.46033 0.51786 0.83285 0.0
O378 O 0.48891 0.53844 0.83592 0.0
O379 O 0.44196 0.51372 0.70894 0.0
O380 O 0.45563 0.47769 0.68234 0.0
C381 C 0.51619 0.47565 0.68564 0.0
O382 O 0.49771 0.48162 0.86437 0.0
O383 O 0.4772 0.46877 0.79252 0.0
C384 C 0.55961 0.50829 0.91303 0.0
C385 C 0.58779 0.50137 0.00361 0.0
C386 C 0.56611 0.50084 0.02182 0.0
C387 C 0.5522 0.50428 0.97716 0.0
C388 C 0.58129 0.50759 0.89417 0.0
C389 C 0.59521 0.50408 0.93872 0.0
C390 C 0.54516 0.517 0.86819 0.0
C391 C 0.50066 0.5441 0.6995 0.0
C392 C 0.46905 0.53607 0.85333 0.0
C393 C 0.43189 0.49519 0.61624 0.0
C394 C 0.41176 0.49697 0.50558 0.0
C395 C 0.41917 0.51755 0.52995 0.0
C396 C 0.42911 0.51668 0.58468 0.0
C397 C 0.42488 0.47461 0.59129 0.0
C398 C 0.41499 0.47546 0.53681 0.0
C399 C 0.44024 0.4939 0.67789 0.0
H400 H 0.55973 0.49898 0.07124 0.0
H401 H 0.53557 0.50488 0.99361 0.0
H402 H 0.58748 0.5108 0.84528 0.0
H403 H 0.61179 0.50412 0.92247 0.0
H404 H 0.41722 0.53438 0.50689 0.0
H405 H 0.43428 0.5329 0.60279 0.0
H406 H 0.42656 0.45788 0.61507 0.0
H407 H 0.40924 0.45932 0.52048 0.0
Dy408 Dy 0.01365 0.52393 0.68913 0.0
Dy409 Dy 0.99825 0.4812 0.77939 0.0
C410 C 0.01661 0.47161 0.63361 0.0
O411 O 0.98233 0.51747 0.66281 0.0
O412 O 0.96875 0.50059 0.75488 0.0
O413 O 0.01867 0.53908 0.59625 0.0
O414 O 0.02641 0.55797 0.6783 0.0
O415 O 1.00237 0.51191 0.84377 0.0
O416 O 0.99448 0.5413 0.77666 0.0
O417 O 0.03294 0.47707 0.77948 0.0
O418 O 0.04069 0.51358 0.74135 0.0
O419 O 0.98164 0.46951 0.86659 0.0
O420 O 0.99608 0.44351 0.79296 0.0
C421 C 0.96636 0.5104 0.70044 0.0
O422 O 0.0276 0.48968 0.63917 0.0
O423 O 1.00091 0.46835 0.67765 0.0
C424 C 0.05166 0.5532 0.58575 0.0
C425 C 0.0907 0.53038 0.53065 0.0
C426 C 0.08697 0.53682 0.5959 0.0
C427 C 0.0677 0.54829 0.62308 0.0
C428 C 0.05628 0.5496 0.51943 0.0
C429 C 0.0757 0.53837 0.49202 0.0
C430 C 0.02964 0.55521 0.61627 0.0
C431 C 0.99646 0.53431 0.83426 0.0
C432 C 0.04599 0.49353 0.7682 0.0
C433 C 0.96194 0.43905 0.84342 0.0
C434 C 0.91828 0.44064 0.85162 0.0
C435 C 0.92819 0.43492 0.905 0.0
C436 C 0.9499 0.4342 0.90089 0.0
C437 C 0.95235 0.44178 0.78832 0.0
C438 C 0.93066 0.44242 0.79233 0.0
C439 C 0.98255 0.44758 0.84464 0.0
H440 H 0.09814 0.53118 0.62723 0.0
H441 H 0.06477 0.55114 0.67433 0.0
H442 H 0.04425 0.55339 0.48952 0.0
H443 H 0.07838 0.53449 0.44114 0.0
H444 H 0.91914 0.43361 0.95154 0.0
H445 H 0.95701 0.43229 0.94395 0.0
H446 H 0.96133 0.44575 0.74342 0.0
H447 H 0.92349 0.44652 0.75027 0.0
H448 H 0.14136 0.98541 0.32688 0.0
H449 H 0.1623 0.04351 0.4293 0.0
H450 H 0.10872 0.9885 0.40047 0.0
H451 H 0.12931 0.04707 0.5022 0.0
H452 H 0.08149 0.02251 0.6666 0.0
H453 H 0.1126 0.02412 0.58791 0.0
H454 H 0.07614 0.0127 0.43671 0.0
H455 H 0.04512 0.01077 0.51529 0.0
C456 C 0.13889 0.99907 0.36467 0.0
C457 C 0.15458 0.01411 0.37226 0.0
C458 C 0.12006 0.00097 0.4067 0.0
C459 C 0.11635 0.01793 0.45778 0.0
C460 C 0.13171 0.03357 0.464 0.0
C461 C 0.15054 0.03175 0.42166 0.0
C462 C 0.08006 0.02045 0.61658 0.0
C463 C 0.06077 0.01628 0.59755 0.0
C464 C 0.09791 0.02154 0.57131 0.0
C465 C 0.09698 0.01845 0.50574 0.0
C466 C 0.07757 0.0148 0.48672 0.0
C467 C 0.05972 0.01376 0.53193 0.0
H468 H 0.51808 0.13008 0.35048 0.0
H469 H 0.45721 0.15098 0.45773 0.0
H470 H 0.52157 0.09482 0.41474 0.0
H471 H 0.46066 0.11563 0.52183 0.0
H472 H 0.47015 0.03861 0.59375 0.0
H473 H 0.46492 0.06921 0.51555 0.0
H474 H 0.5254 0.09248 0.5333 0.0
H475 H 0.53053 0.06234 0.61157 0.0
C476 C 0.50525 0.12682 0.38675 0.0
C477 C 0.48741 0.1433 0.39928 0.0
C478 C 0.50731 0.10676 0.42383 0.0
C479 C 0.49145 0.10258 0.47354 0.0
C480 C 0.47309 0.11833 0.48366 0.0
C481 C 0.47116 0.1386 0.44722 0.0
C482 C 0.48235 0.05019 0.58062 0.0
C483 C 0.5007 0.04814 0.60907 0.0
C484 C 0.47933 0.06771 0.53605 0.0
C485 C 0.4948 0.08313 0.51816 0.0
C486 C 0.51331 0.08067 0.54559 0.0
C487 C 0.51616 0.06352 0.59083 0.0
H488 H 0.36162 0.47391 0.14733 0.0
H489 H 0.31037 0.50926 0.27819 0.0
H490 H 0.38526 0.47915 0.22522 0.0
H491 H 0.33384 0.51419 0.35642 0.0
H492 H 0.3831 0.53255 0.47539 0.0
H493 H 0.36242 0.53275 0.38795 0.0
H494 H 0.3923 0.46303 0.32305 0.0
H495 H 0.41366 0.46339 0.4083 0.0
C496 C 0.35541 0.48293 0.19259 0.0
C497 C 0.33403 0.4911 0.20635 0.0
C498 C 0.36896 0.48585 0.23752 0.0
C499 C 0.36153 0.49689 0.29776 0.0
C500 C 0.3403 0.50587 0.31048 0.0
C501 C 0.32678 0.50306 0.2654 0.0
C502 C 0.38558 0.51746 0.44176 0.0
C503 C 0.40005 0.49789 0.44947 0.0
C504 C 0.37348 0.51743 0.39191 0.0
C505 C 0.37548 0.49784 0.34826 0.0
C506 C 0.39037 0.47859 0.35504 0.0
C507 C 0.40248 0.47864 0.40471 0.0
H508 H 0.011 0.36882 0.32277 0.0
H509 H 0.0752 0.3855 0.29843 0.0
H510 H 1.00241 0.39857 0.41004 0.0
H511 H 0.06696 0.41408 0.38791 0.0
H512 H 0.0434 0.47707 0.52393 0.0
H513 H 0.05014 0.45118 0.42824 0.0
H514 H 1.00739 0.40339 0.51758 0.0
H515 H 1.00009 0.42975 0.61216 0.0
C516 C 0.02326 0.37898 0.33548 0.0
C517 C 0.04385 0.37452 0.30368 0.0
C518 C 0.01841 0.39582 0.38637 0.0
C519 C 0.03403 0.4086 0.40704 0.0
C520 C 0.05443 0.40479 0.37347 0.0
C521 C 0.05924 0.38811 0.32241 0.0
C522 C 0.03543 0.46103 0.52315 0.0
C523 C 0.02122 0.45549 0.57588 0.0
C524 C 0.03936 0.44609 0.46821 0.0
C525 C 0.02931 0.42509 0.4647 0.0
C526 C 0.01513 0.41958 0.5177 0.0
C527 C 0.01108 0.43462 0.57238 0.0
H528 H 0.85801 0.9765 0.06816 0.0
H529 H 0.86688 0.04955 0.11455 0.0
H530 H 0.89158 0.97267 0.99741 0.0
H531 H 0.89983 0.04586 0.04258 0.0
H532 H 0.93785 0.04 0.84068 0.0
H533 H 0.90701 0.04068 0.92093 0.0
H534 H 0.93218 0.97516 0.99455 0.0
H535 H 0.96351 0.97457 0.91414 0.0
C536 C 0.86721 0.9916 0.06431 0.0
C537 C 0.85944 0.01347 0.09649 0.0
C538 C 0.88642 0.98941 0.02351 0.0
C539 C 0.89819 0.00909 0.01356 0.0
C540 C 0.89095 0.03051 0.0482 0.0
C541 C 0.87197 0.03262 0.08937 0.0
C542 C 0.93691 0.02567 0.87378 0.0
C543 C 0.95324 0.00724 0.87082 0.0
C544 C 0.91924 0.02615 0.92012 0.0
C545 C 0.91718 0.00805 0.96439 0.0
C546 C 0.93331 0.98934 0.96102 0.0
C547 C 0.95126 0.98907 0.91515 0.0
H548 H 0.49405 0.86987 0.14088 0.0
H549 H 0.5442 0.83051 0.01452 0.0
H550 H 0.49724 0.90454 0.0747 0.0
H551 H 0.54808 0.86536 0.9495 0.0
H552 H 0.52905 0.9177 0.80243 0.0
H553 H 0.52995 0.88533 0.87549 0.0
H554 H 0.51631 0.93617 0.03514 0.0
H555 H 0.51458 0.96869 0.96135 0.0
C556 C 0.50612 0.86887 0.09977 0.0
C557 C 0.51876 0.84745 0.08255 0.0
C558 C 0.50801 0.88877 0.06178 0.0
C559 C 0.52276 0.88778 0.00602 0.0
C560 C 0.53616 0.86667 0.99099 0.0
C561 C 0.53407 0.84671 0.02848 0.0
C562 C 0.52641 0.92206 0.8531 0.0
C563 C 0.52168 0.94583 0.87594 0.0
C564 C 0.52708 0.90342 0.89524 0.0
C565 C 0.52326 0.90799 0.96158 0.0
C566 C 0.51903 0.93187 0.98447 0.0
C567 C 0.51817 0.95056 0.94215 0.0
H568 H 0.66968 0.46687 0.29294 0.0
H569 H 0.67021 0.54269 0.26793 0.0
H570 H 0.6451 0.46514 0.21618 0.0
H571 H 0.64501 0.54112 0.1941 0.0
H572 H 0.62159 0.52692 0.00716 0.0
H573 H 0.64481 0.52724 0.08731 0.0
H574 H 0.6099 0.47604 0.19393 0.0
H575 H 0.5871 0.47489 0.1118 0.0
C576 C 0.6644 0.48323 0.27181 0.0
C577 C 0.67211 0.50491 0.28693 0.0
C578 C 0.65013 0.48227 0.22806 0.0
C579 C 0.64318 0.50294 0.19808 0.0
C580 C 0.65027 0.52472 0.21508 0.0
C581 C 0.66453 0.52568 0.25859 0.0
C582 C 0.61899 0.51538 0.04703 0.0
C583 C 0.60241 0.50079 0.05247 0.0
C584 C 0.63217 0.51587 0.09378 0.0
C585 C 0.62919 0.50186 0.14779 0.0
C586 C 0.61279 0.487 0.15298 0.0
C587 C 0.59956 0.48651 0.10606 0.0
H588 H 0.98237 0.61808 0.19777 0.0
H589 H 0.02135 0.65365 0.0554 0.0
H590 H 0.97584 0.58939 0.11529 0.0
H591 H 0.01499 0.62531 0.97373 0.0
H592 H 0.98831 0.58275 0.82993 0.0
H593 H 0.98737 0.61246 0.91585 0.0
H594 H 0.99765 0.55645 0.04649 0.0
H595 H 0.99844 0.52659 0.96061 0.0
C596 C 0.98927 0.61993 0.14879 0.0
C597 C 1.00245 0.63796 0.13293 0.0
C598 C 0.98567 0.60347 0.10172 0.0
C599 C 0.9949 0.60507 0.0379 0.0
C600 C 1.00744 0.62369 0.02213 0.0
C601 C 0.01121 0.63984 0.06901 0.0
C602 C 0.99011 0.57669 0.87709 0.0
C603 C 0.99367 0.55224 0.88807 0.0
C604 C 0.98964 0.59376 0.92634 0.0
C605 C 0.99261 0.58685 0.98794 0.0
C606 C 0.99517 0.56238 0.99972 0.0
C607 C 0.99576 0.54527 0.95031 0.0
H608 H 0.10865 0.1435 0.22332 0.0
H609 H 0.07421 0.19768 0.35516 0.0
H610 H 0.09145 0.11281 0.28449 0.0
H611 H 0.05742 0.16736 0.41564 0.0
H612 H 0.03186 0.10887 0.5274 0.0
H613 H 0.05877 0.13326 0.48088 0.0
H614 H 0.05525 0.10286 0.29424 0.0
H615 H 0.0286 0.07806 0.34132 0.0
C616 C 0.09785 0.14884 0.26607 0.0
C617 C 0.09266 0.17312 0.28372 0.0
C618 C 0.08795 0.13128 0.30092 0.0
C619 C 0.07281 0.13768 0.35427 0.0
C620 C 0.06912 0.16173 0.37514 0.0
C621 C 0.07891 0.17922 0.34036 0.0
C622 C 0.03687 0.10743 0.47642 0.0
C623 C 0.02785 0.092 0.43765 0.0
C624 C 0.05235 0.12127 0.44985 0.0
C625 C 0.05906 0.12013 0.38383 0.0
C626 C 0.05064 0.10394 0.3454 0.0
C627 C 0.03524 0.08991 0.37214 0.0
H628 H 0.33355 0.89421 0.38892 0.0
H629 H 0.3151 0.95777 0.50873 0.0
H630 H 0.363 0.88456 0.44691 0.0
H631 H 0.34458 0.94846 0.56585 0.0
H632 H 0.39834 0.92695 0.66649 0.0
H633 H 0.36425 0.9236 0.63256 0.0
H634 H 0.39482 0.90385 0.44166 0.0
H635 H 0.42863 0.9071 0.47547 0.0
C636 C 0.33555 0.90582 0.42855 0.0
C637 C 0.32224 0.92689 0.4438 0.0
C638 C 0.35242 0.90035 0.46161 0.0
C639 C 0.35636 0.91596 0.51019 0.0
C640 C 0.34194 0.93593 0.52903 0.0
C641 C 0.32501 0.94131 0.49622 0.0
C642 C 0.39772 0.92159 0.61749 0.0
C643 C 0.41615 0.91754 0.57345 0.0
C644 C 0.37823 0.91963 0.59813 0.0
C645 C 0.3768 0.91359 0.53435 0.0
C646 C 0.39532 0.90815 0.49139 0.0
C647 C 0.41477 0.91008 0.51074 0.0
H648 H 0.50378 0.37213 0.40616 0.0
H649 H 0.54952 0.33311 0.50324 0.0
H650 H 0.50601 0.40768 0.47022 0.0
H651 H 0.5525 0.36925 0.56665 0.0
H652 H 0.52844 0.43071 0.71878 0.0
H653 H 0.53354 0.39477 0.65014 0.0
H654 H 0.5272 0.43798 0.48687 0.0
H655 H 0.52093 0.4737 0.55634 0.0
C656 C 0.51462 0.37135 0.44067 0.0
C657 C 0.5266 0.34999 0.44953 0.0
C658 C 0.51605 0.3918 0.47714 0.0
C659 C 0.52973 0.39154 0.52299 0.0
C660 C 0.54175 0.37007 0.53197 0.0
C661 C 0.54009 0.34941 0.49576 0.0
C662 C 0.52864 0.43251 0.66797 0.0
C663 C 0.52407 0.45489 0.64277 0.0
C664 C 0.53159 0.41189 0.62854 0.0
C665 C 0.53034 0.41339 0.56308 0.0
C666 C 0.5276 0.43608 0.53736 0.0
C667 C 0.52422 0.45659 0.57694 0.0
H668 H 0.21021 0.4601 0.36984 0.0
H669 H 0.16825 0.40586 0.35367 0.0
H670 H 0.18288 0.48456 0.43694 0.0
H671 H 0.14075 0.43013 0.4238 0.0
H672 H 0.0913 0.4941 0.44267 0.0
H673 H 0.11982 0.46446 0.40311 0.0
H674 H 0.15863 0.49495 0.52721 0.0
H675 H 0.13052 0.52603 0.56285 0.0
C676 C 0.1954 0.45284 0.38322 0.0
C677 C 0.19131 0.43113 0.35579 0.0
C678 C 0.17959 0.467 0.42181 0.0
C679 C 0.15937 0.45966 0.43454 0.0
C680 C 0.15596 0.43669 0.41314 0.0
C681 C 0.17176 0.42263 0.37364 0.0
C682 C 0.10605 0.49491 0.46054 0.0
C683 C 0.10867 0.51284 0.50511 0.0
C684 C 0.1223 0.47741 0.43909 0.0
C685 C 0.14156 0.47705 0.46235 0.0
C686 C 0.14409 0.49474 0.50778 0.0
C687 C 0.12791 0.51251 0.52854 0.0
H688 H 0.08224 0.78146 0.04453 0.0
H689 H 0.12171 0.81165 0.16677 0.0
H690 H 0.08409 0.81593 0.97898 0.0
H691 H 0.12361 0.84646 0.10042 0.0
H692 H 0.08355 0.91521 0.05127 0.0
H693 H 0.09577 0.87799 0.09514 0.0
H694 H 0.10215 0.84301 0.90902 0.0
H695 H 0.08977 0.8805 0.86493 0.0
C696 C 0.09208 0.79498 0.05596 0.0
C697 C 0.10156 0.79397 0.11159 0.0
C698 C 0.0931 0.81487 0.01821 0.0
C699 C 0.10364 0.83418 0.03522 0.0
C700 C 0.11496 0.83207 0.08699 0.0
C701 C 0.11392 0.81214 0.12486 0.0
C702 C 0.08803 0.89975 0.01932 0.0
C703 C 0.08549 0.90074 0.95477 0.0
C704 C 0.09517 0.87839 0.04443 0.0
C705 C 0.09994 0.85749 0.00558 0.0
C706 C 0.09838 0.85874 0.9403 0.0
C707 C 0.09119 0.88016 0.91515 0.0
H708 H 0.66468 0.11724 0.10868 0.0
H709 H 0.70681 0.08234 0.95075 0.0
H710 H 0.63793 0.12412 0.04038 0.0
H711 H 0.6805 0.09065 0.88114 0.0
H712 H 0.61792 0.06303 0.84027 0.0
H713 H 0.6503 0.07064 0.87715 0.0
H714 H 0.62239 0.13989 0.95372 0.0
H715 H 0.58954 0.13191 0.91734 0.0
C716 C 0.66844 0.11165 0.05886 0.0
C717 C 0.68764 0.09857 0.03573 0.0
C718 C 0.65317 0.11592 0.01927 0.0
C719 C 0.65686 0.10743 0.9554 0.0
C720 C 0.67695 0.09687 0.93051 0.0
C721 C 0.69216 0.09235 0.97034 0.0
C722 C 0.61885 0.08025 0.86292 0.0
C723 C 0.60106 0.09673 0.8767 0.0
C724 C 0.63754 0.08469 0.88408 0.0
C725 C 0.63895 0.10578 0.91934 0.0
C726 C 0.62171 0.12324 0.92793 0.0
C727 C 0.60291 0.11871 0.90705 0.0
H728 H 0.42613 0.67807 0.00876 0.0
H729 H 0.4477 0.63372 0.15434 0.0
H730 H 0.42408 0.64238 0.94321 0.0
H731 H 0.44542 0.59834 0.08944 0.0
H732 H 0.44071 0.53593 0.96223 0.0
H733 H 0.42589 0.57113 0.03026 0.0
H734 H 0.45473 0.61674 0.88965 0.0
H735 H 0.46939 0.58192 0.82307 0.0
C736 C 0.43001 0.66075 0.02737 0.0
C737 C 0.43743 0.65881 0.08632 0.0
C738 C 0.42872 0.64032 0.99 0.0
C739 C 0.43481 0.61757 0.01088 0.0
C740 C 0.44039 0.61556 0.07223 0.0
C741 C 0.44174 0.63595 0.10948 0.0
C742 C 0.44323 0.55358 0.94547 0.0
C743 C 0.45626 0.55639 0.88807 0.0
C744 C 0.43488 0.57366 0.98428 0.0
C745 C 0.4392 0.5967 0.96539 0.0
C746 C 0.45086 0.59934 0.90538 0.0
C747 C 0.45941 0.5794 0.86742 0.0
H748 H 0.83994 0.54485 0.03904 0.0
H749 H 0.79578 0.49186 0.04636 0.0
H750 H 0.8623 0.52188 0.95248 0.0
H751 H 0.81802 0.46901 0.95921 0.0
H752 H 0.88531 0.42345 0.92673 0.0
H753 H 0.85255 0.44669 0.96959 0.0
H754 H 0.86812 0.50319 0.84262 0.0
H755 H 0.90102 0.48028 0.80111 0.0
C756 C 0.83472 0.5287 0.02068 0.0
C757 C 0.81629 0.52001 0.04983 0.0
C758 C 0.8474 0.51562 0.97076 0.0
C759 C 0.84195 0.49352 0.94953 0.0
C760 C 0.82263 0.48589 0.97496 0.0
C761 C 0.80985 0.49909 0.02453 0.0
C762 C 0.8814 0.44048 0.90652 0.0
C763 C 0.89594 0.45021 0.86144 0.0
C764 C 0.86256 0.45374 0.93068 0.0
C765 C 0.85801 0.47696 0.91018 0.0
C766 C 0.87139 0.48548 0.85979 0.0
C767 C 0.89016 0.4722 0.83557 0.0
H768 H 0.06381 0.18106 0.8907 0.0
H769 H 1.00015 0.20885 0.8798 0.0
H770 H 0.0568 0.14232 0.85047 0.0
H771 H 0.99313 0.1696 0.83916 0.0
H772 H 1.00042 0.09781 0.70838 0.0
H773 H 1.00597 0.13867 0.74016 0.0
H774 H 0.03292 0.11192 0.90223 0.0
H775 H 0.02722 0.07145 0.87149 0.0
C776 C 0.04841 0.17907 0.87845 0.0
C777 C 0.03258 0.19818 0.88812 0.0
C778 C 0.04435 0.15675 0.85599 0.0
C779 C 0.0244 0.15289 0.84202 0.0
C780 C 0.00868 0.17212 0.84935 0.0
C781 C 0.01267 0.19451 0.87284 0.0
C782 C 1.00746 0.10069 0.7509 0.0
C783 C 0.0134 0.08131 0.78731 0.0
C784 C 0.01053 0.12408 0.76918 0.0
C785 C 0.01998 0.12845 0.82346 0.0
C786 C 0.02578 0.10909 0.85984 0.0
C787 C 0.02242 0.08588 0.84229 0.0
H788 H 0.33423 0.99852 0.91224 0.0
H789 H 0.35555 0.0305 0.07518 0.0
H790 H 0.36936 0.99768 0.85277 0.0
H791 H 0.39057 0.02969 0.01585 0.0
H792 H 0.44847 0.04182 0.87651 0.0
H793 H 0.41233 0.04581 0.92928 0.0
H794 H 0.40359 0.97677 0.85031 0.0
H795 H 0.43955 0.97298 0.79656 0.0
C796 C 0.34635 0.00544 0.93545 0.0
C797 C 0.34188 0.01457 0.99879 0.0
C798 C 0.36658 0.0049 0.9013 0.0
C799 C 0.38298 0.01349 0.92939 0.0
C800 C 0.37837 0.02321 0.99209 0.0
C801 C 0.35816 0.02374 0.02623 0.0
C802 C 0.43884 0.02752 0.87008 0.0
C803 C 0.44708 0.00703 0.83229 0.0
C804 C 0.41808 0.02975 0.90075 0.0
C805 C 0.4049 0.0116 0.89445 0.0
C806 C 0.41308 0.99128 0.85582 0.0
C807 C 0.43384 0.98902 0.82526 0.0
H808 H 0.51805 0.33388 0.0238 0.0
H809 H 0.4542 0.32797 0.99392 0.0
H810 H 0.51712 0.37243 0.97523 0.0
H811 H 0.45296 0.3673 0.94794 0.0
H812 H 0.46626 0.42779 0.81016 0.0
H813 H 0.46618 0.38885 0.85686 0.0
H814 H 0.50194 0.41266 0.999 0.0
H815 H 0.50253 0.45157 0.95116 0.0
C816 C 0.50386 0.34061 0.00609 0.0
C817 C 0.48623 0.32759 0.01248 0.0
C818 C 0.50321 0.36303 0.97928 0.0
C819 C 0.48489 0.3732 0.95833 0.0
C820 C 0.46738 0.36 0.9633 0.0
C821 C 0.46804 0.33749 0.99007 0.0
C822 C 0.47399 0.42487 0.85172 0.0
C823 C 0.48447 0.44291 0.87672 0.0
C824 C 0.47386 0.40247 0.87868 0.0
C825 C 0.48417 0.39747 0.93149 0.0
C826 C 0.49417 0.41571 0.95759 0.0
C827 C 0.49435 0.43813 0.93049 0.0
H828 H 0.16368 0.43926 0.89649 0.0
H829 H 0.16612 0.51554 0.89087 0.0
H830 H 0.13058 0.44327 0.85539 0.0
H831 H 0.13218 0.51972 0.85402 0.0
H832 H 0.07944 0.51921 0.73515 0.0
H833 H 0.11383 0.51418 0.76852 0.0
H834 H 0.09492 0.45528 0.88265 0.0
H835 H 0.06079 0.45974 0.84661 0.0
C836 C 0.15731 0.45694 0.88616 0.0
C837 C 0.16791 0.47705 0.89689 0.0
C838 C 0.13797 0.45928 0.86353 0.0
C839 C 0.12839 0.48185 0.85144 0.0
C840 C 0.13903 0.50197 0.86183 0.0
C841 C 0.15849 0.4996 0.88395 0.0
C842 C 0.08263 0.50508 0.767 0.0
C843 C 0.06724 0.48988 0.7879 0.0
C844 C 0.1024 0.5023 0.78677 0.0
C845 C 0.10738 0.48438 0.82883 0.0
C846 C 0.09197 0.46907 0.84949 0.0
C847 C 0.07225 0.4717 0.82905 0.0
H848 H 0.96886 0.82716 0.55288 0.0
H849 H 0.0361 0.82052 0.54181 0.0
H850 H 0.9671 0.86661 0.60523 0.0
H851 H 0.03445 0.85971 0.59269 0.0
H852 H 0.02622 0.92318 0.72784 0.0
H853 H 0.02499 0.8825 0.68859 0.0
H854 H 0.97487 0.9065 0.58424 0.0
H855 H 0.97562 0.94711 0.62543 0.0
C856 C 0.98325 0.83406 0.56176 0.0
C857 C 1.00259 0.82047 0.54369 0.0
C858 C 0.98227 0.85673 0.59157 0.0
C859 C 1.00063 0.86647 0.60363 0.0
C860 C 0.01991 0.85273 0.58581 0.0
C861 C 0.02086 0.83012 0.55648 0.0
C862 C 0.01482 0.91979 0.69687 0.0
C863 C 1.00112 0.93851 0.67953 0.0
C864 C 0.01419 0.89641 0.67398 0.0
C865 C 0.99998 0.89108 0.6325 0.0
C866 C 0.98588 0.90975 0.61655 0.0
C867 C 0.9864 0.93314 0.63994 0.0
H868 H 0.67436 0.03123 0.51125 0.0
H869 H 0.6736 0.95831 0.44526 0.0
H870 H 0.64071 0.02925 0.57739 0.0
H871 H 0.63991 0.95632 0.51148 0.0
H872 H 0.5688 0.97197 0.57066 0.0
H873 H 0.60405 0.97186 0.51335 0.0
H874 H 0.62166 0.01245 0.66897 0.0
H875 H 0.58619 0.01296 0.72599 0.0
C876 C 0.66727 0.01458 0.51178 0.0
C877 C 0.67681 0.99496 0.47245 0.0
C878 C 0.64786 0.01346 0.54977 0.0
C879 C 0.63736 0.99269 0.54961 0.0
C880 C 0.64724 0.9728 0.51198 0.0
C881 C 0.66665 0.97392 0.47402 0.0
C882 C 0.58017 0.98079 0.59299 0.0
C883 C 0.5745 0.99248 0.65316 0.0
C884 C 0.60052 0.98059 0.56015 0.0
C885 C 0.61587 0.99211 0.58632 0.0
C886 C 0.61027 0.0036 0.64684 0.0
C887 C 0.5899 0.00375 0.67982 0.0
H888 H 0.47665 0.66307 0.46808 0.0
H889 H 0.53513 0.6788 0.5263 0.0
H890 H 0.47753 0.62678 0.52671 0.0
H891 H 0.5358 0.64226 0.58759 0.0
H892 H 0.53662 0.56115 0.63893 0.0
H893 H 0.53906 0.59833 0.58112 0.0
H894 H 0.47251 0.61601 0.63406 0.0
H895 H 0.47002 0.57901 0.6887 0.0
C896 C 0.48955 0.65895 0.49457 0.0
C897 C 0.50556 0.67411 0.49386 0.0
C898 C 0.49007 0.63808 0.52832 0.0
C899 C 0.50651 0.63176 0.56317 0.0
C900 C 0.5229 0.64658 0.5613 0.0
C901 C 0.52248 0.66754 0.52661 0.0
C902 C 0.52259 0.57307 0.63796 0.0
C903 C 0.50307 0.56688 0.66708 0.0
C904 C 0.52398 0.5944 0.60523 0.0
C905 C 0.50591 0.60998 0.60179 0.0
C906 C 0.48666 0.60415 0.63375 0.0
C907 C 0.48524 0.58287 0.66534 0.0
H908 H 0.83778 0.54935 0.63038 0.0
H909 H 0.85931 0.48654 0.5104 0.0
H910 H 0.87114 0.54657 0.673 0.0
H911 H 0.89274 0.48403 0.55207 0.0
H912 H 0.95743 0.51027 0.57858 0.0
H913 H 0.92311 0.51177 0.54297 0.0
H914 H 0.89329 0.51713 0.73842 0.0
H915 H 0.92775 0.51471 0.77439 0.0
C916 C 0.84957 0.53485 0.61353 0.0
C917 C 0.84587 0.51812 0.56717 0.0
C918 C 0.86864 0.53323 0.63803 0.0
C919 C 0.88462 0.51517 0.6156 0.0
C920 C 0.88079 0.49825 0.56996 0.0
C921 C 0.86158 0.49956 0.54651 0.0
C922 C 0.94357 0.51181 0.61405 0.0
C923 C 0.94535 0.51242 0.67936 0.0
C924 C 0.92392 0.5125 0.59361 0.0
C925 C 0.90549 0.51441 0.6379 0.0
C926 C 0.90721 0.5156 0.70321 0.0
C927 C 0.92693 0.51421 0.72375 0.0
loop_
_geom_bond_atom_site_label_1
_geom_bond_atom_site_label_2
_geom_bond_distance
_geom_bond_site_symmetry_2
_ccdc_geom_bond_type
C0 C1 1.384 . S
C0 H13 0.947 . S
C0 C35 1.382 . S
C1 C0 1.384 . S
C1 C2 1.378 . S
C2 C1 1.378 . S
C2 C3 1.378 . S
C2 H14 0.952 . S
C3 C2 1.378 . S
C3 H15 0.950 . S
C3 C34 1.383 . S
H4 C23 0.947 . S
H5 C24 0.946 . S
H6 C26 0.953 . S
H7 C27 0.945 . S
H8 C29 0.952 . S
H9 C30 0.949 . S
H10 C32 0.950 . S
H11 C33 0.948 . S
H12 C35 0.951 . S
H13 C0 0.947 . S
H14 C2 0.952 . S
H15 C3 0.950 . S
N16 C19 1.382 . S
N16 C21 1.363 . S
N17 C19 1.371 . S
N17 C20 1.372 . S
N18 C20 1.361 . S
N18 C21 1.377 . S
C19 N16 1.382 . S
C19 N17 1.371 . S
C19 C22 1.480 . S
C20 N17 1.372 . S
C20 N18 1.361 . S
C20 C28 1.457 . S
C21 N16 1.363 . S
C21 N18 1.377 . S
C21 C34 1.479 . S
C22 C19 1.480 . S
C22 C23 1.383 . S
C22 C27 1.385 . S
C23 H4 0.947 . S
C23 C22 1.383 . S
C23 C24 1.388 . S
C24 H5 0.946 . S
C24 C23 1.388 . S
C24 C25 1.384 . S
C25 C24 1.384 . S
C25 C26 1.377 . S
C26 H6 0.953 . S
C26 C25 1.377 . S
C26 C27 1.369 . S
C27 H7 0.945 . S
C27 C22 1.385 . S
C27 C26 1.369 . S
C28 C20 1.457 . S
C28 C29 1.372 . S
C28 C33 1.364 . S
C29 H8 0.952 . S
C29 C28 1.372 . S
C29 C30 1.389 . S
C30 H9 0.949 . S
C30 C29 1.389 . S
C30 C31 1.387 . S
C31 C30 1.387 . S
C31 C32 1.372 . S
C32 H10 0.950 . S
C32 C31 1.372 . S
C32 C33 1.379 . S
C33 H11 0.948 . S
C33 C28 1.364 . S
C33 C32 1.379 . S
C34 C3 1.383 . S
C34 C21 1.479 . S
C34 C35 1.398 . S
C35 C0 1.382 . S
C35 H12 0.951 . S
C35 C34 1.398 . S
C36 C37 1.384 . S
C36 H49 0.947 . S
C36 C71 1.382 . S
C37 C36 1.384 . S
C37 C38 1.378 . S
C38 C37 1.378 . S
C38 C39 1.378 . S
C38 H50 0.952 . S
C39 C38 1.378 . S
C39 H51 0.950 1_655 S
C39 C70 1.383 . S
H40 C59 0.947 . S
H41 C60 0.946 . S
H42 C62 0.953 . S
H43 C63 0.939 1_455 S
H44 C65 0.952 . S
H45 C66 0.949 . S
H46 C68 0.952 . S
H47 C69 0.945 1_455 S
H48 C71 0.951 . S
H49 C36 0.947 . S
H50 C38 0.952 . S
H51 C39 0.950 1_455 S
N52 C55 1.382 . S
N52 C57 1.363 . S
N53 C55 1.371 . S
N53 C56 1.372 . S
N54 C56 1.361 . S
N54 C57 1.377 . S
C55 N52 1.382 . S
C55 N53 1.371 . S
C55 C58 1.480 . S
C56 N53 1.372 . S
C56 N54 1.361 . S
C56 C64 1.457 . S
C57 N52 1.363 . S
C57 N54 1.377 . S
C57 C70 1.479 . S
C58 C55 1.480 . S
C58 C59 1.383 . S
C58 C63 1.382 . S
C59 H40 0.947 . S
C59 C58 1.383 . S
C59 C60 1.388 . S
C60 H41 0.946 . S
C60 C59 1.388 . S
C60 C61 1.384 . S
C61 C60 1.384 . S
C61 C62 1.377 . S
C62 H42 0.953 . S
C62 C61 1.377 . S
C62 C63 1.383 . S
C63 H43 0.939 1_655 S
C63 C58 1.382 . S
C63 C62 1.383 . S
C64 C56 1.457 . S
C64 C65 1.372 . S
C64 C69 1.366 . S
C65 H44 0.952 . S
C65 C64 1.372 . S
C65 C66 1.389 . S
C66 H45 0.949 . S
C66 C65 1.389 . S
C66 C67 1.387 . S
C67 C66 1.387 . S
C67 C68 1.372 . S
C68 H46 0.952 . S
C68 C67 1.372 . S
C68 C69 1.380 . S
C69 H47 0.945 1_655 S
C69 C64 1.366 . S
C69 C68 1.380 . S
C70 C39 1.383 . S
C70 C57 1.479 . S
C70 C71 1.398 . S
C71 C36 1.382 . S
C71 H48 0.951 . S
C71 C70 1.398 . S
C72 C73 1.383 1_565 S
C72 H85 0.948 . S
C72 C107 1.381 1_565 S
C73 C72 1.383 1_545 S
C73 C74 1.378 . S
C74 C73 1.378 . S
C74 C75 1.378 . S
C74 H86 0.952 . S
C75 C74 1.378 . S
C75 H87 0.950 . S
C75 C106 1.383 . S
H76 C95 0.947 . S
H77 C96 0.951 . S
H78 C98 0.953 . S
H79 C99 0.945 . S
H80 C101 0.951 1_565 S
H81 C102 0.954 . S
H82 C104 0.950 . S
H83 C105 0.948 . S
H84 C107 0.951 1_565 S
H85 C72 0.948 . S
H86 C74 0.952 . S
H87 C75 0.950 . S
N88 C91 1.382 . S
N88 C93 1.363 . S
N89 C91 1.371 . S
N89 C92 1.372 . S
N90 C92 1.361 . S
N90 C93 1.377 . S
C91 N88 1.382 . S
C91 N89 1.371 . S
C91 C94 1.480 . S
C92 N89 1.372 . S
C92 N90 1.361 . S
C92 C100 1.457 . S
C93 N88 1.363 . S
C93 N90 1.377 . S
C93 C106 1.479 . S
C94 C91 1.480 . S
C94 C95 1.383 . S
C94 C99 1.385 . S
C95 H76 0.947 . S
C95 C94 1.383 . S
C95 C96 1.389 1_545 S
C96 H77 0.951 . S
C96 C95 1.389 1_565 S
C96 C97 1.380 1_565 S
C97 C96 1.380 1_545 S
C97 C98 1.377 . S
C98 H78 0.953 . S
C98 C97 1.377 . S
C98 C99 1.369 . S
C99 H79 0.945 . S
C99 C94 1.385 . S
C99 C98 1.369 . S
C100 C92 1.457 . S
C100 C101 1.375 . S
C100 C105 1.364 . S
C101 H80 0.951 1_545 S
C101 C100 1.375 . S
C101 C102 1.384 1_545 S
C102 H81 0.954 . S
C102 C101 1.384 1_565 S
C102 C103 1.387 1_565 S
C103 C102 1.387 1_545 S
C103 C104 1.372 . S
C104 H82 0.950 . S
C104 C103 1.372 . S
C104 C105 1.379 . S
C105 H83 0.948 . S
C105 C100 1.364 . S
C105 C104 1.379 . S
C106 C75 1.383 . S
C106 C93 1.479 . S
C106 C107 1.398 . S
C107 C72 1.381 1_545 S
C107 H84 0.951 1_545 S
C107 C106 1.398 . S
C108 C109 1.384 . S
C108 H121 0.947 . S
C108 C143 1.382 1_556 S
C109 C108 1.384 . S
C109 C110 1.378 . S
C110 C109 1.378 . S
C110 C111 1.378 . S
C110 H122 0.952 . S
C111 C110 1.378 . S
C111 H123 0.950 . S
C111 C142 1.383 1_556 S
H112 C131 0.947 1_556 S
H113 C132 0.946 1_556 S
H114 C134 0.953 . S
H115 C135 0.945 . S
H116 C137 0.952 . S
H117 C138 0.949 . S
H118 C140 0.950 . S
H119 C141 0.948 . S
H120 C143 0.951 . S
H121 C108 0.947 . S
H122 C110 0.952 . S
H123 C111 0.950 . S
N124 C127 1.382 . S
N124 C129 1.363 . S
N125 C127 1.371 . S
N125 C128 1.372 . S
N126 C128 1.361 . S
N126 C129 1.377 . S
C127 N124 1.382 . S
C127 N125 1.371 . S
C127 C130 1.480 . S
C128 N125 1.372 . S
C128 N126 1.361 . S
C128 C136 1.457 . S
C129 N124 1.363 . S
C129 N126 1.377 . S
C129 C142 1.479 . S
C130 C127 1.480 . S
C130 C131 1.383 . S
C130 C135 1.385 . S
C131 H112 0.947 1_554 S
C131 C130 1.383 . S
C131 C132 1.388 . S
C132 H113 0.946 1_554 S
C132 C131 1.388 . S
C132 C133 1.384 . S
C133 C132 1.384 . S
C133 C134 1.377 . S
C134 H114 0.953 . S
C134 C133 1.377 . S
C134 C135 1.369 . S
C135 H115 0.945 . S
C135 C130 1.385 . S
C135 C134 1.369 . S
C136 C128 1.457 . S
C136 C137 1.372 . S
C136 C141 1.364 . S
C137 H116 0.952 . S
C137 C136 1.372 . S
C137 C138 1.389 . S
C138 H117 0.949 . S
C138 C137 1.389 . S
C138 C139 1.387 . S
C139 C138 1.387 . S
C139 C140 1.372 . S
C140 H118 0.950 . S
C140 C139 1.372 . S
C140 C141 1.379 . S
C141 H119 0.948 . S
C141 C136 1.364 . S
C141 C140 1.379 . S
C142 C111 1.383 1_554 S
C142 C129 1.479 . S
C142 C143 1.398 . S
C143 C108 1.382 1_554 S
C143 H120 0.951 . S
C143 C142 1.398 . S
C144 C145 1.384 . S
C144 H157 0.947 . S
C144 C179 1.382 . S
C145 C144 1.384 . S
C145 C146 1.378 . S
C146 C145 1.378 . S
C146 C147 1.378 . S
C146 H158 0.952 . S
C147 C146 1.378 . S
C147 H159 0.950 . S
C147 C178 1.383 . S
H148 C167 0.947 . S
H149 C168 0.946 . S
H150 C170 0.953 . S
H151 C171 0.945 . S
H152 C173 0.952 . S
H153 C174 0.949 . S
H154 C176 0.950 . S
H155 C177 0.948 . S
H156 C179 0.951 . S
H157 C144 0.947 . S
H158 C146 0.952 . S
H159 C147 0.950 . S
N160 C163 1.382 1_556 S
N160 C165 1.363 . S
N161 C163 1.371 . S
N161 C164 1.372 . S
N162 C164 1.361 1_556 S
N162 C165 1.377 . S
C163 N160 1.382 1_554 S
C163 N161 1.371 . S
C163 C166 1.480 . S
C164 N161 1.372 . S
C164 N162 1.361 1_554 S
C164 C172 1.457 . S
C165 N160 1.363 . S
C165 N162 1.377 . S
C165 C178 1.479 . S
C166 C163 1.480 . S
C166 C167 1.383 1_554 S
C166 C171 1.385 . S
C167 H148 0.947 . S
C167 C166 1.383 1_556 S
C167 C168 1.388 . S
C168 H149 0.946 . S
C168 C167 1.388 . S
C168 C169 1.384 1_556 S
C169 C168 1.384 1_554 S
C169 C170 1.377 . S
C170 H150 0.953 . S
C170 C169 1.377 . S
C170 C171 1.369 . S
C171 H151 0.945 . S
C171 C166 1.385 . S
C171 C170 1.369 . S
C172 C164 1.457 . S
C172 C173 1.372 . S
C172 C177 1.364 . S
C173 H152 0.952 . S
C173 C172 1.372 . S
C173 C174 1.389 . S
C174 H153 0.949 . S
C174 C173 1.389 . S
C174 C175 1.387 . S
C175 C174 1.387 . S
C175 C176 1.372 . S
C176 H154 0.950 . S
C176 C175 1.372 . S
C176 C177 1.379 . S
C177 H155 0.948 . S
C177 C172 1.364 . S
C177 C176 1.379 . S
C178 C147 1.383 . S
C178 C165 1.479 . S
C178 C179 1.398 . S
C179 C144 1.382 . S
C179 H156 0.951 . S
C179 C178 1.398 . S
C180 C181 1.384 . S
C180 H193 0.947 . S
C180 C215 1.382 . S
C181 C180 1.384 . S
C181 C182 1.378 . S
C182 C181 1.378 . S
C182 C183 1.378 . S
C182 H194 0.952 . S
C183 C182 1.378 . S
C183 H195 0.950 . S
C183 C214 1.383 . S
H184 C203 0.947 . S
H185 C204 0.946 . S
H186 C206 0.953 . S
H187 C207 0.945 . S
H188 C209 0.952 . S
H189 C210 0.949 . S
H190 C212 0.950 . S
H191 C213 0.948 . S
H192 C215 0.951 1_554 S
H193 C180 0.947 . S
H194 C182 0.952 . S
H195 C183 0.950 . S
N196 C199 1.382 . S
N196 C201 1.363 . S
N197 C199 1.371 . S
N197 C200 1.372 . S
N198 C200 1.361 . S
N198 C201 1.377 . S
C199 N196 1.382 . S
C199 N197 1.371 . S
C199 C202 1.480 . S
C200 N197 1.372 . S
C200 N198 1.361 . S
C200 C208 1.457 . S
C201 N196 1.363 . S
C201 N198 1.377 . S
C201 C214 1.479 1_554 S
C202 C199 1.480 . S
C202 C203 1.383 . S
C202 C207 1.385 . S
C203 H184 0.947 . S
C203 C202 1.383 . S
C203 C204 1.388 . S
C204 H185 0.946 . S
C204 C203 1.388 . S
C204 C205 1.384 . S
C205 C204 1.384 . S
C205 C206 1.377 . S
C206 H186 0.953 . S
C206 C205 1.377 . S
C206 C207 1.369 . S
C207 H187 0.945 . S
C207 C202 1.385 . S
C207 C206 1.369 . S
C208 C200 1.457 . S
C208 C209 1.372 . S
C208 C213 1.364 . S
C209 H188 0.952 . S
C209 C208 1.372 . S
C209 C210 1.389 . S
C210 H189 0.949 . S
C210 C209 1.389 . S
C210 C211 1.387 . S
C211 C210 1.387 . S
C211 C212 1.372 . S
C212 H190 0.950 . S
C212 C211 1.372 . S
C212 C213 1.379 . S
C213 H191 0.948 . S
C213 C208 1.364 . S
C213 C212 1.379 . S
C214 C183 1.383 . S
C214 C201 1.479 1_556 S
C214 C215 1.398 . S
C215 C180 1.382 . S
C215 H192 0.951 1_556 S
C215 C214 1.398 . S
C216 C217 1.384 . S
C216 H229 0.947 1_545 S
C216 C251 1.383 1_556 S
C217 C216 1.384 . S
C217 C218 1.378 . S
C218 C217 1.378 . S
C218 C219 1.378 1_556 S
C218 H230 0.952 . S
C219 C218 1.378 1_554 S
C219 H231 0.950 . S
C219 C250 1.383 . S
H220 C239 0.947 . S
H221 C240 0.950 . S
H222 C242 0.953 . S
H223 C243 0.945 . S
H224 C245 0.944 1_565 S
H225 C246 0.956 . S
H226 C248 0.950 . S
H227 C249 0.948 . S
H228 C251 0.951 1_565 S
H229 C216 0.947 1_565 S
H230 C218 0.952 . S
H231 C219 0.950 . S
N232 C235 1.382 . S
N232 C237 1.363 . S
N233 C235 1.371 . S
N233 C236 1.372 . S
N234 C236 1.361 . S
N234 C237 1.377 . S
C235 N232 1.382 . S
C235 N233 1.371 . S
C235 C238 1.480 . S
C236 N233 1.372 . S
C236 N234 1.361 . S
C236 C244 1.457 . S
C237 N232 1.363 . S
C237 N234 1.377 . S
C237 C250 1.479 . S
C238 C235 1.480 . S
C238 C239 1.383 . S
C238 C243 1.385 . S
C239 H220 0.947 . S
C239 C238 1.383 . S
C239 C240 1.385 1_545 S
C240 H221 0.950 . S
C240 C239 1.385 1_565 S
C240 C241 1.383 1_565 S
C241 C240 1.383 1_545 S
C241 C242 1.377 . S
C242 H222 0.953 . S
C242 C241 1.377 . S
C242 C243 1.369 . S
C243 H223 0.945 . S
C243 C238 1.385 . S
C243 C242 1.369 . S
C244 C236 1.457 . S
C244 C245 1.381 . S
C244 C249 1.364 . S
C245 H224 0.944 1_545 S
C245 C244 1.381 . S
C245 C246 1.390 1_545 S
C246 H225 0.956 . S
C246 C245 1.390 1_565 S
C246 C247 1.380 1_565 S
C247 C246 1.380 1_545 S
C247 C248 1.372 . S
C248 H226 0.950 . S
C248 C247 1.372 . S
C248 C249 1.379 . S
C249 H227 0.948 . S
C249 C244 1.364 . S
C249 C248 1.379 . S
C250 C219 1.383 . S
C250 C237 1.479 . S
C250 C251 1.398 . S
C251 C216 1.383 1_554 S
C251 H228 0.951 1_545 S
C251 C250 1.398 . S
C252 C253 1.384 . S
C252 H265 0.947 . S
C252 C287 1.382 . S
C253 C252 1.384 . S
C253 C254 1.378 . S
C254 C253 1.378 . S
C254 C255 1.378 . S
C254 H266 0.952 . S
C255 C254 1.378 . S
C255 H267 0.950 . S
C255 C286 1.383 . S
H256 C275 0.947 . S
H257 C276 0.946 . S
H258 C278 0.953 . S
H259 C279 0.945 . S
H260 C281 0.952 . S
H261 C282 0.949 . S
H262 C284 0.950 . S
H263 C285 0.948 . S
H264 C287 0.951 . S
H265 C252 0.947 . S
H266 C254 0.952 . S
H267 C255 0.950 . S
N268 C271 1.382 . S
N268 C273 1.363 . S
N269 C271 1.371 . S
N269 C272 1.372 . S
N270 C272 1.361 . S
N270 C273 1.377 . S
C271 N268 1.382 . S
C271 N269 1.371 . S
C271 C274 1.480 . S
C272 N269 1.372 . S
C272 N270 1.361 . S
C272 C280 1.457 . S
C273 N268 1.363 . S
C273 N270 1.377 . S
C273 C286 1.479 . S
C274 C271 1.480 . S
C274 C275 1.383 . S
C274 C279 1.385 . S
C275 H256 0.947 . S
C275 C274 1.383 . S
C275 C276 1.388 . S
C276 H257 0.946 . S
C276 C275 1.388 . S
C276 C277 1.384 . S
C277 C276 1.384 . S
C277 C278 1.377 . S
C278 H258 0.953 . S
C278 C277 1.377 . S
C278 C279 1.369 . S
C279 H259 0.945 . S
C279 C274 1.385 . S
C279 C278 1.369 . S
C280 C272 1.457 . S
C280 C281 1.372 . S
C280 C285 1.364 . S
C281 H260 0.952 . S
C281 C280 1.372 . S
C281 C282 1.389 . S
C282 H261 0.949 . S
C282 C281 1.389 . S
C282 C283 1.387 . S
C283 C282 1.387 . S
C283 C284 1.372 . S
C284 H262 0.950 . S
C284 C283 1.372 . S
C284 C285 1.379 . S
C285 H263 0.948 . S
C285 C280 1.364 . S
C285 C284 1.379 . S
C286 C255 1.383 . S
C286 C273 1.479 . S
C286 C287 1.398 . S
C287 C252 1.382 . S
C287 H264 0.951 . S
C287 C286 1.398 . S
Dy288 O291 2.307 1_545 S
Dy288 O293 2.395 1_655 S
Dy288 O294 2.379 . S
Dy288 O296 2.339 . S
Dy288 O298 2.298 . S
Dy288 O302 2.275 1_655 S
Dy288 C310 2.738 . S
Dy289 O292 2.298 . S
Dy289 O295 2.275 1_455 S
Dy289 O297 2.307 1_565 S
Dy289 O299 2.395 . S
Dy289 O300 2.379 . S
Dy289 O303 2.339 . S
Dy289 C319 2.738 . S
C290 O302 1.254 1_565 S
C290 O303 1.257 . S
O291 Dy288 2.307 1_565 S
O291 C301 1.266 . S
O292 Dy289 2.298 . S
O292 C301 1.236 1_455 S
O293 Dy288 2.395 1_455 S
O293 C310 1.255 1_455 S
O294 Dy288 2.379 . S
O294 C310 1.249 . S
O295 Dy289 2.275 1_655 S
O295 C311 1.254 1_565 S
O296 Dy288 2.339 . S
O296 C311 1.257 . S
O297 Dy289 2.307 1_545 S
O297 C312 1.266 . S
O298 Dy288 2.298 . S
O298 C312 1.236 1_655 S
O299 Dy289 2.395 . S
O299 C319 1.257 . S
O300 Dy289 2.379 . S
O300 C319 1.249 . S
C301 O291 1.266 . S
C301 O292 1.236 1_655 S
O302 Dy288 2.275 1_455 S
O302 C290 1.254 1_545 S
O303 Dy289 2.339 . S
O303 C290 1.257 . S
C304 C307 1.344 1_655 S
C304 C308 1.328 . S
C304 C310 1.516 . S
C305 C306 1.304 1_655 S
C305 C309 1.323 . S
C306 C305 1.304 1_455 S
C306 C307 1.371 . S
C306 H320 0.930 . S
C307 C304 1.344 1_455 S
C307 C306 1.371 . S
C307 H321 0.931 . S
C308 C304 1.328 . S
C308 C309 1.433 . S
C308 H322 0.931 . S
C309 C305 1.323 . S
C309 C308 1.433 . S
C309 H323 0.933 . S
C310 Dy288 2.738 . S
C310 O293 1.255 1_655 S
C310 O294 1.249 . S
C310 C304 1.516 . S
C311 O295 1.254 1_545 S
C311 O296 1.257 . S
C312 O297 1.266 . S
C312 O298 1.236 1_455 S
C313 C316 1.344 . S
C313 C317 1.328 . S
C313 C319 1.516 . S
C314 C315 1.304 . S
C314 C318 1.323 . S
C315 C314 1.304 . S
C315 C316 1.371 . S
C315 H324 0.930 1_455 S
C316 C313 1.344 . S
C316 C315 1.371 . S
C316 H325 0.931 1_455 S
C317 C313 1.328 . S
C317 C318 1.433 . S
C317 H326 0.931 . S
C318 C314 1.323 . S
C318 C317 1.433 . S
C318 H327 0.933 . S
C319 Dy289 2.738 . S
C319 O299 1.257 . S
C319 O300 1.249 . S
C319 C313 1.516 . S
H320 C306 0.930 . S
H321 C307 0.931 . S
H322 C308 0.931 . S
H323 C309 0.933 . S
H324 C315 0.930 1_655 S
H325 C316 0.931 1_655 S
H326 C317 0.931 . S
H327 C318 0.933 . S
Dy328 O331 2.307 . S
Dy328 O333 2.395 1_565 S
Dy328 O334 2.379 . S
Dy328 O336 2.339 . S
Dy328 O338 2.298 . S
Dy328 O342 2.275 1_565 S
Dy328 C350 2.738 . S
Dy329 O332 2.298 . S
Dy329 O335 2.275 1_545 S
Dy329 O337 2.307 . S
Dy329 O339 2.395 1_545 S
Dy329 O340 2.379 . S
Dy329 O343 2.339 . S
Dy329 C359 2.738 . S
C330 O342 1.254 . S
C330 O343 1.257 . S
O331 Dy328 2.307 . S
O331 C341 1.266 . S
O332 Dy329 2.298 . S
O332 C341 1.236 1_545 S
O333 Dy328 2.395 1_545 S
O333 C350 1.255 1_545 S
O334 Dy328 2.379 . S
O334 C350 1.249 . S
O335 Dy329 2.275 1_565 S
O335 C351 1.254 . S
O336 Dy328 2.339 . S
O336 C351 1.257 . S
O337 Dy329 2.307 . S
O337 C352 1.266 . S
O338 Dy328 2.298 . S
O338 C352 1.236 1_565 S
O339 Dy329 2.395 1_565 S
O339 C359 1.255 1_565 S
O340 Dy329 2.379 . S
O340 C359 1.249 . S
C341 O331 1.266 . S
C341 O332 1.236 1_565 S
O342 Dy328 2.275 1_545 S
O342 C330 1.254 . S
O343 Dy329 2.339 . S
O343 C330 1.257 . S
C344 C347 1.329 1_565 S
C344 C348 1.328 . S
C344 C350 1.516 . S
C345 C346 1.304 . S
C345 C349 1.323 . S
C346 C345 1.304 . S
C346 C347 1.368 1_565 S
C346 H360 0.930 1_565 S
C347 C344 1.329 1_545 S
C347 C346 1.368 1_545 S
C347 H361 0.949 . S
C348 C344 1.328 . S
C348 C349 1.433 . S
C348 H362 0.931 . S
C349 C345 1.323 . S
C349 C348 1.433 . S
C349 H363 0.933 . S
C350 Dy328 2.738 . S
C350 O333 1.255 1_565 S
C350 O334 1.249 . S
C350 C344 1.516 . S
C351 O335 1.254 . S
C351 O336 1.257 . S
C352 O337 1.266 . S
C352 O338 1.236 1_545 S
C353 C356 1.338 1_545 S
C353 C357 1.328 . S
C353 C359 1.516 . S
C354 C355 1.304 . S
C354 C358 1.323 . S
C355 C354 1.304 . S
C355 C356 1.370 1_545 S
C355 H364 0.930 1_545 S
C356 C353 1.338 1_565 S
C356 C355 1.370 1_565 S
C356 H365 0.938 . S
C357 C353 1.328 . S
C357 C358 1.433 . S
C357 H366 0.931 . S
C358 C354 1.323 . S
C358 C357 1.433 . S
C358 H367 0.933 . S
C359 Dy329 2.738 . S
C359 O339 1.255 1_545 S
C359 O340 1.249 . S
C359 C353 1.516 . S
H360 C346 0.930 1_545 S
H361 C347 0.949 . S
H362 C348 0.931 . S
H363 C349 0.933 . S
H364 C355 0.930 1_565 S
H365 C356 0.938 . S
H366 C357 0.931 . S
H367 C358 0.933 . S
Dy368 O371 2.307 . S
Dy368 O373 2.395 . S
Dy368 O374 2.379 . S
Dy368 O376 2.339 . S
Dy368 O378 2.298 . S
Dy368 O382 2.275 . S
Dy368 C390 2.738 . S
Dy369 O372 2.298 . S
Dy369 O375 2.275 . S
Dy369 O377 2.307 . S
Dy369 O379 2.395 . S
Dy369 O380 2.379 . S
Dy369 O383 2.339 . S
Dy369 C399 2.738 . S
C370 O382 1.254 . S
C370 O383 1.257 . S
O371 Dy368 2.307 . S
O371 C381 1.266 . S
O372 Dy369 2.298 . S
O372 C381 1.236 . S
O373 Dy368 2.395 . S
O373 C390 1.255 . S
O374 Dy368 2.379 . S
O374 C390 1.249 . S
O375 Dy369 2.275 . S
O375 C391 1.254 . S
O376 Dy368 2.339 . S
O376 C391 1.257 . S
O377 Dy369 2.307 . S
O377 C392 1.266 . S
O378 Dy368 2.298 . S
O378 C392 1.236 . S
O379 Dy369 2.395 . S
O379 C399 1.255 . S
O380 Dy369 2.379 . S
O380 C399 1.249 . S
C381 O371 1.266 . S
C381 O372 1.236 . S
O382 Dy368 2.275 . S
O382 C370 1.254 . S
O383 Dy369 2.339 . S
O383 C370 1.257 . S
C384 C387 1.344 . S
C384 C388 1.328 . S
C384 C390 1.516 . S
C385 C386 1.304 . S
C385 C389 1.323 . S
C386 C385 1.304 . S
C386 C387 1.371 . S
C386 H400 0.930 . S
C387 C384 1.344 . S
C387 C386 1.371 . S
C387 H401 0.931 . S
C388 C384 1.328 . S
C388 C389 1.433 . S
C388 H402 0.931 . S
C389 C385 1.323 . S
C389 C388 1.433 . S
C389 H403 0.933 . S
C390 Dy368 2.738 . S
C390 O373 1.255 . S
C390 O374 1.249 . S
C390 C384 1.516 . S
C391 O375 1.254 . S
C391 O376 1.257 . S
C392 O377 1.266 . S
C392 O378 1.236 . S
C393 C396 1.344 . S
C393 C397 1.328 . S
C393 C399 1.516 . S
C394 C395 1.304 . S
C394 C398 1.323 . S
C395 C394 1.304 . S
C395 C396 1.371 . S
C395 H404 0.930 . S
C396 C393 1.344 . S
C396 C395 1.371 . S
C396 H405 0.931 . S
C397 C393 1.328 . S
C397 C398 1.433 . S
C397 H406 0.931 . S
C398 C394 1.323 . S
C398 C397 1.433 . S
C398 H407 0.933 . S
C399 Dy369 2.738 . S
C399 O379 1.255 . S
C399 O380 1.249 . S
C399 C393 1.516 . S
H400 C386 0.930 . S
H401 C387 0.931 . S
H402 C388 0.931 . S
H403 C389 0.933 . S
H404 C395 0.930 . S
H405 C396 0.931 . S
H406 C397 0.931 . S
H407 C398 0.933 . S
Dy408 O411 2.307 1_455 S
Dy408 O413 2.395 . S
Dy408 O414 2.379 . S
Dy408 O416 2.339 . S
Dy408 O418 2.298 . S
Dy408 O422 2.275 . S
Dy408 C430 2.738 . S
Dy409 O412 2.298 . S
Dy409 O415 2.275 . S
Dy409 O417 2.307 1_655 S
Dy409 O419 2.395 . S
Dy409 O420 2.379 . S
Dy409 O423 2.339 . S
Dy409 C439 2.738 . S
C410 O422 1.254 . S
C410 O423 1.257 1_455 S
O411 Dy408 2.307 1_655 S
O411 C421 1.266 . S
O412 Dy409 2.298 . S
O412 C421 1.236 . S
O413 Dy408 2.395 . S
O413 C430 1.255 . S
O414 Dy408 2.379 . S
O414 C430 1.249 . S
O415 Dy409 2.275 . S
O415 C431 1.254 1_655 S
O416 Dy408 2.339 . S
O416 C431 1.257 . S
O417 Dy409 2.307 1_455 S
O417 C432 1.266 . S
O418 Dy408 2.298 . S
O418 C432 1.236 . S
O419 Dy409 2.395 . S
O419 C439 1.255 . S
O420 Dy409 2.379 . S
O420 C439 1.249 . S
C421 O411 1.266 . S
C421 O412 1.236 . S
O422 Dy408 2.275 . S
O422 C410 1.254 . S
O423 Dy409 2.339 . S
O423 C410 1.257 1_655 S
C424 C427 1.344 . S
C424 C428 1.328 . S
C424 C430 1.516 . S
C425 C426 1.304 . S
C425 C429 1.323 . S
C426 C425 1.304 . S
C426 C427 1.371 . S
C426 H440 0.930 . S
C427 C424 1.344 . S
C427 C426 1.371 . S
C427 H441 0.931 . S
C428 C424 1.328 . S
C428 C429 1.433 . S
C428 H442 0.931 . S
C429 C425 1.323 . S
C429 C428 1.433 . S
C429 H443 0.933 . S
C430 Dy408 2.738 . S
C430 O413 1.255 . S
C430 O414 1.249 . S
C430 C424 1.516 . S
C431 O415 1.254 1_455 S
C431 O416 1.257 . S
C432 O417 1.266 . S
C432 O418 1.236 . S
C433 C436 1.344 . S
C433 C437 1.328 . S
C433 C439 1.516 . S
C434 C435 1.304 . S
C434 C438 1.323 . S
C435 C434 1.304 . S
C435 C436 1.371 . S
C435 H444 0.930 1_556 S
C436 C433 1.344 . S
C436 C435 1.371 . S
C436 H445 0.931 . S
C437 C433 1.328 . S
C437 C438 1.433 . S
C437 H446 0.931 . S
C438 C434 1.323 . S
C438 C437 1.433 . S
C438 H447 0.933 . S
C439 Dy409 2.738 . S
C439 O419 1.255 . S
C439 O420 1.249 . S
C439 C433 1.516 . S
H440 C426 0.930 . S
H441 C427 0.931 . S
H442 C428 0.931 . S
H443 C429 0.933 . S
H444 C435 0.930 1_554 S
H445 C436 0.931 . S
H446 C437 0.931 . S
H447 C438 0.933 . S
H448 C456 0.950 . S
H449 C461 0.950 . S
H450 C458 0.950 . S
H451 C460 0.950 . S
H452 C462 0.950 . S
H453 C464 0.950 . S
H454 C466 0.950 . S
H455 C467 0.950 . S
C456 H448 0.950 . S
C456 C457 1.398 . S
C456 C458 1.391 . S
C457 C456 1.398 . S
C457 C461 1.382 1_565 S
C458 H450 0.950 . S
C458 C456 1.391 . S
C458 C459 1.398 . S
C459 C458 1.398 . S
C459 C460 1.400 1_565 S
C459 C465 1.493 1_565 S
C460 H451 0.950 . S
C460 C459 1.400 1_545 S
C460 C461 1.391 . S
C461 H449 0.950 . S
C461 C457 1.382 1_545 S
C461 C460 1.391 . S
C462 H452 0.950 . S
C462 C463 1.386 . S
C462 C464 1.391 . S
C463 C462 1.386 . S
C463 C467 1.393 1_545 S
C464 H453 0.950 . S
C464 C462 1.391 . S
C464 C465 1.418 . S
C465 C459 1.493 1_545 S
C465 C464 1.418 . S
C465 C466 1.379 1_545 S
C466 H454 0.950 . S
C466 C465 1.379 1_565 S
C466 C467 1.391 . S
C467 H455 0.950 . S
C467 C463 1.393 1_565 S
C467 C466 1.391 . S
H468 C476 0.950 . S
H469 C481 0.950 . S
H470 C478 0.950 . S
H471 C480 0.950 . S
H472 C482 0.950 . S
H473 C484 0.950 . S
H474 C486 0.950 . S
H475 C487 0.950 . S
C476 H468 0.950 . S
C476 C477 1.386 . S
C476 C478 1.391 . S
C477 C476 1.386 . S
C477 C481 1.393 . S
C478 H470 0.950 . S
C478 C476 1.391 . S
C478 C479 1.400 . S
C479 C478 1.400 . S
C479 C480 1.398 . S
C479 C485 1.491 . S
C480 H471 0.950 . S
C480 C479 1.398 . S
C480 C481 1.391 . S
C481 H469 0.950 . S
C481 C477 1.393 . S
C481 C480 1.391 . S
C482 H472 0.950 . S
C482 C483 1.386 . S
C482 C484 1.391 . S
C483 C482 1.386 . S
C483 C487 1.393 . S
C484 H473 0.950 . S
C484 C482 1.391 . S
C484 C485 1.400 . S
C485 C479 1.491 . S
C485 C484 1.400 . S
C485 C486 1.398 . S
C486 H474 0.950 . S
C486 C485 1.398 . S
C486 C487 1.391 . S
C487 H475 0.950 . S
C487 C483 1.393 . S
C487 C486 1.391 . S
H488 C496 0.950 . S
H489 C501 0.950 . S
H490 C498 0.950 . S
H491 C500 0.950 . S
H492 C502 0.950 . S
H493 C504 0.950 . S
H494 C506 0.950 . S
H495 C507 0.950 . S
C496 H488 0.950 . S
C496 C497 1.386 . S
C496 C498 1.391 . S
C497 C496 1.386 . S
C497 C501 1.393 . S
C498 H490 0.950 . S
C498 C496 1.391 . S
C498 C499 1.400 . S
C499 C498 1.400 . S
C499 C500 1.398 . S
C499 C505 1.491 . S
C500 H491 0.950 . S
C500 C499 1.398 . S
C500 C501 1.391 . S
C501 H489 0.950 . S
C501 C497 1.393 . S
C501 C500 1.391 . S
C502 H492 0.950 . S
C502 C503 1.386 . S
C502 C504 1.391 . S
C503 C502 1.386 . S
C503 C507 1.393 . S
C504 H493 0.950 . S
C504 C502 1.391 . S
C504 C505 1.400 . S
C505 C499 1.491 . S
C505 C504 1.400 . S
C505 C506 1.398 . S
C506 H494 0.950 . S
C506 C505 1.398 . S
C506 C507 1.391 . S
C507 H495 0.950 . S
C507 C503 1.393 . S
C507 C506 1.391 . S
H508 C516 0.967 . S
H509 C521 0.950 . S
H510 C518 0.950 . S
H511 C520 0.950 . S
H512 C522 0.950 . S
H513 C524 0.950 . S
H514 C526 0.950 . S
H515 C527 0.950 . S
C516 H508 0.967 . S
C516 C517 1.372 1_655 S
C516 C518 1.388 . S
C517 C516 1.372 1_455 S
C517 C521 1.393 . S
C518 H510 0.950 . S
C518 C516 1.388 . S
C518 C519 1.400 1_655 S
C519 C518 1.400 1_455 S
C519 C520 1.398 . S
C519 C525 1.491 . S
C520 H511 0.950 . S
C520 C519 1.398 . S
C520 C521 1.391 . S
C521 H509 0.950 . S
C521 C517 1.393 . S
C521 C520 1.391 . S
C522 H512 0.950 . S
C522 C523 1.386 . S
C522 C524 1.391 . S
C523 C522 1.386 . S
C523 C527 1.393 1_455 S
C524 H513 0.950 . S
C524 C522 1.391 . S
C524 C525 1.400 . S
C525 C519 1.491 . S
C525 C524 1.400 . S
C525 C526 1.398 1_455 S
C526 H514 0.950 . S
C526 C525 1.398 1_655 S
C526 C527 1.391 . S
C527 H515 0.950 . S
C527 C523 1.393 1_655 S
C527 C526 1.391 . S
H528 C536 0.950 . S
H529 C541 0.950 . S
H530 C538 0.950 . S
H531 C540 0.950 1_556 S
H532 C542 0.950 . S
H533 C544 0.950 . S
H534 C546 0.950 1_554 S
H535 C547 0.950 . S
C536 H528 0.950 . S
C536 C537 1.389 . S
C536 C538 1.391 . S
C537 C536 1.389 . S
C537 C541 1.388 1_565 S
C538 H530 0.950 . S
C538 C536 1.391 . S
C538 C539 1.404 . S
C539 C538 1.404 . S
C539 C540 1.398 1_565 S
C539 C545 1.487 1_564 S
C540 H531 0.950 1_554 S
C540 C539 1.398 1_545 S
C540 C541 1.391 . S
C541 H529 0.950 . S
C541 C537 1.388 1_545 S
C541 C540 1.391 . S
C542 H532 0.950 . S
C542 C543 1.388 . S
C542 C544 1.391 . S
C543 C542 1.388 . S
C543 C547 1.389 1_545 S
C544 H533 0.950 . S
C544 C542 1.391 . S
C544 C545 1.402 . S
C545 C539 1.487 1_546 S
C545 C544 1.402 . S
C545 C546 1.398 1_545 S
C546 H534 0.950 1_556 S
C546 C545 1.398 1_565 S
C546 C547 1.391 . S
C547 H535 0.950 . S
C547 C543 1.389 1_565 S
C547 C546 1.391 . S
H548 C556 0.950 . S
H549 C561 0.950 . S
H550 C558 0.950 1_554 S
H551 C560 0.950 . S
H552 C562 0.950 . S
H553 C564 0.950 . S
H554 C566 0.950 . S
H555 C567 0.950 . S
C556 H548 0.950 . S
C556 C557 1.386 . S
C556 C558 1.391 1_554 S
C557 C556 1.386 . S
C557 C561 1.393 1_554 S
C558 H550 0.950 1_556 S
C558 C556 1.391 1_556 S
C558 C559 1.400 . S
C559 C558 1.400 . S
C559 C560 1.398 . S
C559 C565 1.491 . S
C560 H551 0.950 . S
C560 C559 1.398 . S
C560 C561 1.391 . S
C561 H549 0.950 . S
C561 C557 1.393 1_556 S
C561 C560 1.391 . S
C562 H552 0.950 . S
C562 C563 1.386 . S
C562 C564 1.391 . S
C563 C562 1.386 . S
C563 C567 1.393 . S
C564 H553 0.950 . S
C564 C562 1.391 . S
C564 C565 1.400 . S
C565 C559 1.491 . S
C565 C564 1.400 . S
C565 C566 1.398 . S
C566 H554 0.950 . S
C566 C565 1.398 . S
C566 C567 1.391 . S
C567 H555 0.950 . S
C567 C563 1.393 . S
C567 C566 1.391 . S
H568 C576 0.950 . S
H569 C581 0.950 . S
H570 C578 0.950 . S
H571 C580 0.950 . S
H572 C582 0.950 . S
H573 C584 0.950 . S
H574 C586 0.950 . S
H575 C587 0.950 . S
C576 H568 0.950 . S
C576 C577 1.386 . S
C576 C578 1.391 . S
C577 C576 1.386 . S
C577 C581 1.393 . S
C578 H570 0.950 . S
C578 C576 1.391 . S
C578 C579 1.400 . S
C579 C578 1.400 . S
C579 C580 1.398 . S
C579 C585 1.491 . S
C580 H571 0.950 . S
C580 C579 1.398 . S
C580 C581 1.391 . S
C581 H569 0.950 . S
C581 C577 1.393 . S
C581 C580 1.391 . S
C582 H572 0.950 . S
C582 C583 1.386 . S
C582 C584 1.391 . S
C583 C582 1.386 . S
C583 C587 1.393 . S
C584 H573 0.950 . S
C584 C582 1.391 . S
C584 C585 1.400 . S
C585 C579 1.491 . S
C585 C584 1.400 . S
C585 C586 1.398 . S
C586 H574 0.950 . S
C586 C585 1.398 . S
C586 C587 1.391 . S
C587 H575 0.950 . S
C587 C583 1.393 . S
C587 C586 1.391 . S
H588 C596 0.950 . S
H589 C601 0.950 . S
H590 C598 0.950 . S
H591 C600 0.950 . S
H592 C602 0.950 . S
H593 C604 0.950 . S
H594 C606 0.950 1_554 S
H595 C607 0.950 . S
C596 H588 0.950 . S
C596 C597 1.386 . S
C596 C598 1.391 . S
C597 C596 1.386 . S
C597 C601 1.393 1_655 S
C598 H590 0.950 . S
C598 C596 1.391 . S
C598 C599 1.400 . S
C599 C598 1.400 . S
C599 C600 1.398 1_655 S
C599 C605 1.491 . S
C600 H591 0.950 . S
C600 C599 1.398 1_455 S
C600 C601 1.391 . S
C601 H589 0.950 . S
C601 C597 1.393 1_455 S
C601 C600 1.391 . S
C602 H592 0.950 . S
C602 C603 1.333 1_455 S
C602 C604 1.391 . S
C603 C602 1.333 1_655 S
C603 C607 1.439 . S
C604 H593 0.950 . S
C604 C602 1.391 . S
C604 C605 1.400 1_456 S
C605 C599 1.491 . S
C605 C604 1.400 1_654 S
C605 C606 1.398 1_554 S
C606 H594 0.950 1_556 S
C606 C605 1.398 1_556 S
C606 C607 1.391 . S
C607 H595 0.950 . S
C607 C603 1.439 . S
C607 C606 1.391 . S
H608 C616 0.950 . S
H609 C621 0.950 1_655 S
H610 C618 0.950 . S
H611 C620 0.950 . S
H612 C622 0.950 . S
H613 C624 0.950 . S
H614 C626 0.943 1_455 S
H615 C627 0.950 . S
C616 H608 0.950 . S
C616 C617 1.386 . S
C616 C618 1.391 . S
C617 C616 1.386 . S
C617 C621 1.393 . S
C618 H610 0.950 . S
C618 C616 1.391 . S
C618 C619 1.400 . S
C619 C618 1.400 . S
C619 C620 1.398 1_455 S
C619 C625 1.491 1_455 S
C620 H611 0.950 . S
C620 C619 1.398 1_655 S
C620 C621 1.391 1_655 S
C621 H609 0.950 1_455 S
C621 C617 1.393 . S
C621 C620 1.391 1_455 S
C622 H612 0.950 . S
C622 C623 1.386 . S
C622 C624 1.391 . S
C623 C622 1.386 . S
C623 C627 1.393 . S
C624 H613 0.950 . S
C624 C622 1.391 . S
C624 C625 1.400 . S
C625 C619 1.491 1_655 S
C625 C624 1.400 . S
C625 C626 1.401 . S
C626 H614 0.943 1_655 S
C626 C625 1.401 . S
C626 C627 1.395 . S
C627 H615 0.950 . S
C627 C623 1.393 . S
C627 C626 1.395 . S
H628 C636 0.950 . S
H629 C641 0.950 . S
H630 C638 0.950 . S
H631 C640 0.950 . S
H632 C642 0.950 1_545 S
H633 C644 0.950 . S
H634 C646 0.950 . S
H635 C647 0.950 . S
C636 H628 0.950 . S
C636 C637 1.386 1_565 S
C636 C638 1.391 . S
C637 C636 1.386 1_545 S
C637 C641 1.393 . S
C638 H630 0.950 . S
C638 C636 1.391 . S
C638 C639 1.400 . S
C639 C638 1.400 . S
C639 C640 1.398 1_565 S
C639 C645 1.491 . S
C640 H631 0.950 . S
C640 C639 1.398 1_545 S
C640 C641 1.391 . S
C641 H629 0.950 . S
C641 C637 1.393 . S
C641 C640 1.391 . S
C642 H632 0.950 1_565 S
C642 C643 1.386 . S
C642 C644 1.391 1_565 S
C643 C642 1.386 . S
C643 C647 1.393 . S
C644 H633 0.950 . S
C644 C642 1.391 1_545 S
C644 C645 1.400 1_545 S
C645 C639 1.491 . S
C645 C644 1.400 1_565 S
C645 C646 1.398 . S
C646 H634 0.950 . S
C646 C645 1.398 . S
C646 C647 1.391 . S
C647 H635 0.950 . S
C647 C643 1.393 . S
C647 C646 1.391 . S
H648 C656 0.950 . S
H649 C661 0.950 . S
H650 C658 0.950 . S
H651 C660 0.950 . S
H652 C662 0.950 . S
H653 C664 0.950 . S
H654 C666 0.950 . S
H655 C667 0.950 . S
C656 H648 0.950 . S
C656 C657 1.386 . S
C656 C658 1.391 . S
C657 C656 1.386 . S
C657 C661 1.393 . S
C658 H650 0.950 . S
C658 C656 1.391 . S
C658 C659 1.400 . S
C659 C658 1.400 . S
C659 C660 1.398 . S
C659 C665 1.491 . S
C660 H651 0.950 . S
C660 C659 1.398 . S
C660 C661 1.391 . S
C661 H649 0.950 . S
C661 C657 1.393 . S
C661 C660 1.391 . S
C662 H652 0.950 . S
C662 C663 1.386 . S
C662 C664 1.391 . S
C663 C662 1.386 . S
C663 C667 1.393 . S
C664 H653 0.950 . S
C664 C662 1.391 . S
C664 C665 1.400 . S
C665 C659 1.491 . S
C665 C664 1.400 . S
C665 C666 1.398 . S
C666 H654 0.950 . S
C666 C665 1.398 . S
C666 C667 1.391 . S
C667 H655 0.950 . S
C667 C663 1.393 . S
C667 C666 1.391 . S
H668 C676 0.950 . S
H669 C681 0.950 . S
H670 C678 0.950 . S
H671 C680 0.950 . S
H672 C682 0.950 . S
H673 C684 0.950 . S
H674 C686 0.950 . S
H675 C687 0.950 . S
C676 H668 0.950 . S
C676 C677 1.386 . S
C676 C678 1.391 . S
C677 C676 1.386 . S
C677 C681 1.393 . S
C678 H670 0.950 . S
C678 C676 1.391 . S
C678 C679 1.400 . S
C679 C678 1.400 . S
C679 C680 1.398 . S
C679 C685 1.491 . S
C680 H671 0.950 . S
C680 C679 1.398 . S
C680 C681 1.391 . S
C681 H669 0.950 . S
C681 C677 1.393 . S
C681 C680 1.391 . S
C682 H672 0.950 . S
C682 C683 1.386 . S
C682 C684 1.391 . S
C683 C682 1.386 . S
C683 C687 1.393 . S
C684 H673 0.950 . S
C684 C682 1.391 . S
C684 C685 1.400 . S
C685 C679 1.491 . S
C685 C684 1.400 . S
C685 C686 1.398 . S
C686 H674 0.950 . S
C686 C685 1.398 . S
C686 C687 1.391 . S
C687 H675 0.950 . S
C687 C683 1.393 . S
C687 C686 1.391 . S
H688 C696 0.950 . S
H689 C701 0.950 . S
H690 C698 0.950 . S
H691 C700 0.950 . S
H692 C702 0.950 . S
H693 C704 0.950 . S
H694 C706 0.950 1_655 S
H695 C707 0.950 . S
C696 H688 0.950 . S
C696 C697 1.386 . S
C696 C698 1.391 . S
C697 C696 1.386 . S
C697 C701 1.393 1_655 S
C698 H690 0.950 . S
C698 C696 1.391 . S
C698 C699 1.400 1_655 S
C699 C698 1.400 1_455 S
C699 C700 1.398 . S
C699 C705 1.491 . S
C700 H691 0.950 . S
C700 C699 1.398 . S
C700 C701 1.391 . S
C701 H689 0.950 . S
C701 C697 1.393 1_455 S
C701 C700 1.391 . S
C702 H692 0.950 . S
C702 C703 1.386 1_554 S
C702 C704 1.391 . S
C703 C702 1.386 1_556 S
C703 C707 1.393 . S
C704 H693 0.950 . S
C704 C702 1.391 . S
C704 C705 1.400 . S
C705 C699 1.491 . S
C705 C704 1.400 . S
C705 C706 1.398 1_554 S
C706 H694 0.950 1_455 S
C706 C705 1.398 1_556 S
C706 C707 1.391 . S
C707 H695 0.950 . S
C707 C703 1.393 . S
C707 C706 1.391 . S
H708 C716 0.950 1_556 S
H709 C721 0.950 . S
H710 C718 0.950 . S
H711 C720 0.950 . S
H712 C722 0.950 . S
H713 C724 0.950 . S
H714 C726 0.950 . S
H715 C727 0.950 . S
C716 H708 0.950 1_554 S
C716 C717 1.386 1_545 S
C716 C718 1.391 1_554 S
C717 C716 1.386 1_565 S
C717 C721 1.393 . S
C718 H710 0.950 . S
C718 C716 1.391 1_556 S
C718 C719 1.400 1_556 S
C719 C718 1.400 1_554 S
C719 C720 1.398 1_545 S
C719 C725 1.491 1_554 S
C720 H711 0.950 . S
C720 C719 1.398 1_565 S
C720 C721 1.391 . S
C721 H709 0.950 . S
C721 C717 1.393 . S
C721 C720 1.391 . S
C722 H712 0.950 . S
C722 C723 1.386 1_554 S
C722 C724 1.391 . S
C723 C722 1.386 1_556 S
C723 C727 1.393 . S
C724 H713 0.950 . S
C724 C722 1.391 . S
C724 C725 1.400 1_554 S
C725 C719 1.491 1_556 S
C725 C724 1.400 1_556 S
C725 C726 1.398 . S
C726 H714 0.950 . S
C726 C725 1.398 . S
C726 C727 1.391 . S
C727 H715 0.950 . S
C727 C723 1.393 . S
C727 C726 1.391 . S
H728 C736 0.950 . S
H729 C741 0.950 . S
H730 C738 0.950 . S
H731 C740 0.950 . S
H732 C742 0.950 . S
H733 C744 0.950 . S
H734 C746 0.950 . S
H735 C747 0.950 . S
C736 H728 0.950 . S
C736 C737 1.386 . S
C736 C738 1.391 . S
C737 C736 1.386 . S
C737 C741 1.393 . S
C738 H730 0.950 . S
C738 C736 1.391 . S
C738 C739 1.400 . S
C739 C738 1.400 . S
C739 C740 1.398 . S
C739 C745 1.491 . S
C740 H731 0.950 . S
C740 C739 1.398 . S
C740 C741 1.391 . S
C741 H729 0.950 . S
C741 C737 1.393 . S
C741 C740 1.391 . S
C742 H732 0.950 . S
C742 C743 1.386 . S
C742 C744 1.391 . S
C743 C742 1.386 . S
C743 C747 1.393 . S
C744 H733 0.950 . S
C744 C742 1.391 . S
C744 C745 1.400 . S
C745 C739 1.491 . S
C745 C744 1.400 . S
C745 C746 1.398 . S
C746 H734 0.950 . S
C746 C745 1.398 . S
C746 C747 1.391 . S
C747 H735 0.950 . S
C747 C743 1.393 . S
C747 C746 1.391 . S
H748 C756 0.950 . S
H749 C761 0.950 . S
H750 C758 0.950 . S
H751 C760 0.950 . S
H752 C762 0.950 . S
H753 C764 0.950 . S
H754 C766 0.950 . S
H755 C767 0.950 . S
C756 H748 0.950 . S
C756 C757 1.386 . S
C756 C758 1.391 . S
C757 C756 1.386 . S
C757 C761 1.393 . S
C758 H750 0.950 . S
C758 C756 1.391 . S
C758 C759 1.400 . S
C759 C758 1.400 . S
C759 C760 1.398 . S
C759 C765 1.491 . S
C760 H751 0.950 . S
C760 C759 1.398 . S
C760 C761 1.391 . S
C761 H749 0.950 . S
C761 C757 1.393 . S
C761 C760 1.391 . S
C762 H752 0.950 . S
C762 C763 1.386 . S
C762 C764 1.391 . S
C763 C762 1.386 . S
C763 C767 1.393 1_554 S
C764 H753 0.950 . S
C764 C762 1.391 . S
C764 C765 1.400 . S
C765 C759 1.491 . S
C765 C764 1.400 . S
C765 C766 1.398 . S
C766 H754 0.950 . S
C766 C765 1.398 . S
C766 C767 1.391 1_554 S
C767 H755 0.950 . S
C767 C763 1.393 1_556 S
C767 C766 1.391 1_556 S
H768 C776 0.950 . S
H769 C781 0.950 . S
H770 C778 0.950 . S
H771 C780 0.950 . S
H772 C782 0.950 . S
H773 C784 0.950 . S
H774 C786 0.950 . S
H775 C787 0.950 . S
C776 H768 0.950 . S
C776 C777 1.386 . S
C776 C778 1.391 . S
C777 C776 1.386 . S
C777 C781 1.393 1_455 S
C778 H770 0.950 . S
C778 C776 1.391 . S
C778 C779 1.400 . S
C779 C778 1.400 . S
C779 C780 1.398 1_455 S
C779 C785 1.491 . S
C780 H771 0.950 . S
C780 C779 1.398 1_655 S
C780 C781 1.391 . S
C781 H769 0.950 . S
C781 C777 1.393 1_655 S
C781 C780 1.391 . S
C782 H772 0.950 . S
C782 C783 1.386 1_655 S
C782 C784 1.391 . S
C783 C782 1.386 1_455 S
C783 C787 1.393 . S
C784 H773 0.950 . S
C784 C782 1.391 . S
C784 C785 1.400 1_655 S
C785 C779 1.491 . S
C785 C784 1.400 1_455 S
C785 C786 1.398 . S
C786 H774 0.950 . S
C786 C785 1.398 . S
C786 C787 1.391 . S
C787 H775 0.950 . S
C787 C783 1.393 . S
C787 C786 1.391 . S
H788 C796 0.950 . S
H789 C801 0.950 . S
H790 C798 0.950 . S
H791 C800 0.950 . S
H792 C802 0.950 . S
H793 C804 0.950 . S
H794 C806 0.950 . S
H795 C807 0.950 . S
C796 H788 0.950 . S
C796 C797 1.386 1_565 S
C796 C798 1.391 . S
C797 C796 1.386 1_545 S
C797 C801 1.393 . S
C798 H790 0.950 . S
C798 C796 1.391 . S
C798 C799 1.400 1_565 S
C799 C798 1.400 1_545 S
C799 C800 1.398 . S
C799 C805 1.491 . S
C800 H791 0.950 . S
C800 C799 1.398 . S
C800 C801 1.391 . S
C801 H789 0.950 . S
C801 C797 1.393 . S
C801 C800 1.391 . S
C802 H792 0.950 . S
C802 C803 1.386 . S
C802 C804 1.391 . S
C803 C802 1.386 . S
C803 C807 1.393 1_545 S
C804 H793 0.950 . S
C804 C802 1.391 . S
C804 C805 1.400 . S
C805 C799 1.491 . S
C805 C804 1.400 . S
C805 C806 1.398 1_545 S
C806 H794 0.950 . S
C806 C805 1.398 1_565 S
C806 C807 1.391 . S
C807 H795 0.950 . S
C807 C803 1.393 1_565 S
C807 C806 1.391 . S
H808 C816 0.950 . S
H809 C821 0.950 . S
H810 C818 0.950 . S
H811 C820 0.950 . S
H812 C822 0.950 . S
H813 C824 0.950 . S
H814 C826 0.950 1_554 S
H815 C827 0.950 . S
C816 H808 0.950 . S
C816 C817 1.386 . S
C816 C818 1.391 . S
C817 C816 1.386 . S
C817 C821 1.393 1_554 S
C818 H810 0.950 . S
C818 C816 1.391 . S
C818 C819 1.400 1_554 S
C819 C818 1.400 1_556 S
C819 C820 1.398 . S
C819 C825 1.491 . S
C820 H811 0.950 . S
C820 C819 1.398 . S
C820 C821 1.391 . S
C821 H809 0.950 . S
C821 C817 1.393 1_556 S
C821 C820 1.391 . S
C822 H812 0.950 . S
C822 C823 1.386 . S
C822 C824 1.391 . S
C823 C822 1.386 . S
C823 C827 1.393 . S
C824 H813 0.950 . S
C824 C822 1.391 . S
C824 C825 1.400 . S
C825 C819 1.491 . S
C825 C824 1.400 . S
C825 C826 1.398 . S
C826 H814 0.950 1_556 S
C826 C825 1.398 . S
C826 C827 1.391 . S
C827 H815 0.950 . S
C827 C823 1.393 . S
C827 C826 1.391 . S
H828 C836 0.950 . S
H829 C841 0.950 . S
H830 C838 0.950 . S
H831 C840 0.950 . S
H832 C842 0.950 . S
H833 C844 0.950 . S
H834 C846 0.950 . S
H835 C847 0.950 . S
C836 H828 0.950 . S
C836 C837 1.386 . S
C836 C838 1.391 . S
C837 C836 1.386 . S
C837 C841 1.393 . S
C838 H830 0.950 . S
C838 C836 1.391 . S
C838 C839 1.400 . S
C839 C838 1.400 . S
C839 C840 1.398 . S
C839 C845 1.491 . S
C840 H831 0.950 . S
C840 C839 1.398 . S
C840 C841 1.391 . S
C841 H829 0.950 . S
C841 C837 1.393 . S
C841 C840 1.391 . S
C842 H832 0.950 . S
C842 C843 1.386 . S
C842 C844 1.391 . S
C843 C842 1.386 . S
C843 C847 1.393 . S
C844 H833 0.950 . S
C844 C842 1.391 . S
C844 C845 1.400 . S
C845 C839 1.491 . S
C845 C844 1.400 . S
C845 C846 1.398 . S
C846 H834 0.950 . S
C846 C845 1.398 . S
C846 C847 1.391 . S
C847 H835 0.950 . S
C847 C843 1.393 . S
C847 C846 1.391 . S
H848 C856 0.950 . S
H849 C861 0.950 . S
H850 C858 0.950 . S
H851 C860 0.950 . S
H852 C862 0.950 . S
H853 C864 0.950 . S
H854 C866 0.950 . S
H855 C867 0.950 . S
C856 H848 0.950 . S
C856 C857 1.386 . S
C856 C858 1.391 . S
C857 C856 1.386 . S
C857 C861 1.393 1_655 S
C858 H850 0.950 . S
C858 C856 1.391 . S
C858 C859 1.400 . S
C859 C858 1.400 . S
C859 C860 1.398 1_655 S
C859 C865 1.491 . S
C860 H851 0.950 . S
C860 C859 1.398 1_455 S
C860 C861 1.391 . S
C861 H849 0.950 . S
C861 C857 1.393 1_455 S
C861 C860 1.391 . S
C862 H852 0.950 . S
C862 C863 1.386 1_455 S
C862 C864 1.391 . S
C863 C862 1.386 1_655 S
C863 C867 1.393 . S
C864 H853 0.950 . S
C864 C862 1.391 . S
C864 C865 1.400 1_455 S
C865 C859 1.491 . S
C865 C864 1.400 1_655 S
C865 C866 1.398 . S
C866 H854 0.950 . S
C866 C865 1.398 . S
C866 C867 1.391 . S
C867 H855 0.950 . S
C867 C863 1.393 . S
C867 C866 1.391 . S
H868 C876 0.950 . S
H869 C881 0.950 . S
H870 C878 0.950 . S
H871 C880 0.950 . S
H872 C882 0.950 . S
H873 C884 0.950 . S
H874 C886 0.950 . S
H875 C887 0.950 . S
C876 H868 0.950 . S
C876 C877 1.386 1_545 S
C876 C878 1.391 . S
C877 C876 1.386 1_565 S
C877 C881 1.393 . S
C878 H870 0.950 . S
C878 C876 1.391 . S
C878 C879 1.400 1_545 S
C879 C878 1.400 1_565 S
C879 C880 1.398 . S
C879 C885 1.491 . S
C880 H871 0.950 . S
C880 C879 1.398 . S
C880 C881 1.391 . S
C881 H869 0.950 . S
C881 C877 1.393 . S
C881 C880 1.391 . S
C882 H872 0.950 . S
C882 C883 1.386 . S
C882 C884 1.391 . S
C883 C882 1.386 . S
C883 C887 1.393 1_565 S
C884 H873 0.950 . S
C884 C882 1.391 . S
C884 C885 1.400 . S
C885 C879 1.491 . S
C885 C884 1.400 . S
C885 C886 1.398 1_565 S
C886 H874 0.950 . S
C886 C885 1.398 1_545 S
C886 C887 1.391 . S
C887 H875 0.950 . S
C887 C883 1.393 1_545 S
C887 C886 1.391 . S
H888 C896 0.950 . S
H889 C901 0.950 . S
H890 C898 0.950 . S
H891 C900 0.950 . S
H892 C902 0.950 . S
H893 C904 0.950 . S
H894 C906 0.950 . S
H895 C907 0.950 . S
C896 H888 0.950 . S
C896 C897 1.386 . S
C896 C898 1.391 . S
C897 C896 1.386 . S
C897 C901 1.393 . S
C898 H890 0.950 . S
C898 C896 1.391 . S
C898 C899 1.400 . S
C899 C898 1.400 . S
C899 C900 1.398 . S
C899 C905 1.491 . S
C900 H891 0.950 . S
C900 C899 1.398 . S
C900 C901 1.391 . S
C901 H889 0.950 . S
C901 C897 1.393 . S
C901 C900 1.391 . S
C902 H892 0.950 . S
C902 C903 1.386 . S
C902 C904 1.391 . S
C903 C902 1.386 . S
C903 C907 1.393 . S
C904 H893 0.950 . S
C904 C902 1.391 . S
C904 C905 1.400 . S
C905 C899 1.491 . S
C905 C904 1.400 . S
C905 C906 1.398 . S
C906 H894 0.950 . S
C906 C905 1.398 . S
C906 C907 1.391 . S
C907 H895 0.950 . S
C907 C903 1.393 . S
C907 C906 1.391 . S
H908 C916 0.950 . S
H909 C921 0.950 . S
H910 C918 0.950 . S
H911 C920 0.950 . S
H912 C922 0.950 . S
H913 C924 0.950 . S
H914 C926 0.950 . S
H915 C927 0.950 . S
C916 H908 0.950 . S
C916 C917 1.386 . S
C916 C918 1.391 . S
C917 C916 1.386 . S
C917 C921 1.393 . S
C918 H910 0.950 . S
C918 C916 1.391 . S
C918 C919 1.400 . S
C919 C918 1.400 . S
C919 C920 1.398 . S
C919 C925 1.491 . S
C920 H911 0.950 . S
C920 C919 1.398 . S
C920 C921 1.391 . S
C921 H909 0.950 . S
C921 C917 1.393 . S
C921 C920 1.391 . S
C922 H912 0.950 . S
C922 C923 1.386 . S
C922 C924 1.391 . S
C923 C922 1.386 . S
C923 C927 1.393 . S
C924 H913 0.950 . S
C924 C922 1.391 . S
C924 C925 1.400 . S
C925 C919 1.491 . S
C925 C924 1.400 . S
C925 C926 1.398 . S
C926 H914 0.950 . S
C926 C925 1.398 . S
C926 C927 1.391 . S
C927 H915 0.950 . S
C927 C923 1.393 . S
C927 C926 1.391 . S
C457 C241 1.979 1_565 S
C463 C290 2.117 1_545 S
C483 C330 2.146 . S
C477 C277 2.078 . S
C503 C394 2.498 . S
C497 C169 2.379 . S
C523 C410 2.144 . S
C517 C205 1.893 . S
C543 C311 2.113 . S
C537 C97 1.988 1_565 S
C557 C133 2.118 . S
C563 C351 2.150 . S
C577 C25 2.343 . S
C583 C385 2.499 1_554 S
C597 C61 1.880 . S
C603 C431 2.147 1_655 S
C623 C305 0.440 . S
C617 C211 0.320 . S
C643 C345 0.550 . S
C637 C247 0.521 . S
C663 C381 0.559 . S
C657 C253 0.549 . S
C677 C175 0.620 . S
C683 C425 0.665 . S
C697 C67 0.401 . S
C703 C314 0.434 . S
C723 C354 0.583 . S
C717 C103 0.588 1_565 S
C743 C392 0.574 . S
C737 C109 0.490 . S
C757 C31 0.679 . S
C763 C434 0.699 1_554 S
C777 C181 2.602 . S
C783 C312 2.906 . S
C797 C217 2.448 . S
C803 C352 2.697 . S
C823 C370 1.959 . S
C817 C283 1.868 . S
C843 C432 3.309 . S
C837 C145 2.958 . S
C857 C37 2.627 . S
C863 C301 2.921 . S
C883 C341 2.691 . S
C877 C73 2.427 1_565 S
C903 C391 1.943 . S
C897 C139 1.883 . S
C917 C1 2.946 . S
C923 C421 3.312 . S
