# Generated by pormake.
# Topology zzz, (3,6)-cn, num edge types: 1
# Building blocks:
#     Node 0, Type 0, BuildingBlock: PAMTOO_clean_linker_0, # of connection points: 3
#     Node 1, Type 0, BuildingBlock: PAMTOO_clean_linker_0, # of connection points: 3
#     Node 2, Type 0, BuildingBlock: PAMTOO_clean_linker_0, # of connection points: 3
#     Node 3, Type 0, BuildingBlock: PAMTOO_clean_linker_0, # of connection points: 3
#     Node 4, Type 0, BuildingBlock: PAMTOO_clean_linker_0, # of connection points: 3
#     Node 5, Type 0, BuildingBlock: PAMTOO_clean_linker_0, # of connection points: 3
#     Node 6, Type 0, BuildingBlock: PAMTOO_clean_linker_0, # of connection points: 3
#     Node 7, Type 0, BuildingBlock: PAMTOO_clean_linker_0, # of connection points: 3
#     Node 8, Type 1, BuildingBlock: NUHQIS_clean_sbu_0, # of connection points: 6
#     Node 9, Type 1, BuildingBlock: NUHQIS_clean_sbu_0, # of connection points: 6
#     Node 10, Type 1, BuildingBlock: NUHQIS_clean_sbu_0, # of connection points: 6
#     Node 11, Type 1, BuildingBlock: NUHQIS_clean_sbu_0, # of connection points: 6
#     Edge 12, Type (0, 1), BuildingBlock: MIFKUJ_clean_linker_0, # of connection points: 2
#     Edge 13, Type (0, 1), BuildingBlock: MIFKUJ_clean_linker_0, # of connection points: 2
#     Edge 14, Type (0, 1), BuildingBlock: MIFKUJ_clean_linker_0, # of connection points: 2
#     Edge 15, Type (0, 1), BuildingBlock: MIFKUJ_clean_linker_0, # of connection points: 2
#     Edge 16, Type (0, 1), BuildingBlock: MIFKUJ_clean_linker_0, # of connection points: 2
#     Edge 17, Type (0, 1), BuildingBlock: MIFKUJ_clean_linker_0, # of connection points: 2
#     Edge 18, Type (0, 1), BuildingBlock: MIFKUJ_clean_linker_0, # of connection points: 2
#     Edge 19, Type (0, 1), BuildingBlock: MIFKUJ_clean_linker_0, # of connection points: 2
#     Edge 20, Type (0, 1), BuildingBlock: MIFKUJ_clean_linker_0, # of connection points: 2
#     Edge 21, Type (0, 1), BuildingBlock: MIFKUJ_clean_linker_0, # of connection points: 2
#     Edge 22, Type (0, 1), BuildingBlock: MIFKUJ_clean_linker_0, # of connection points: 2
#     Edge 23, Type (0, 1), BuildingBlock: MIFKUJ_clean_linker_0, # of connection points: 2
#     Edge 24, Type (0, 1), BuildingBlock: MIFKUJ_clean_linker_0, # of connection points: 2
#     Edge 25, Type (0, 1), BuildingBlock: MIFKUJ_clean_linker_0, # of connection points: 2
#     Edge 26, Type (0, 1), BuildingBlock: MIFKUJ_clean_linker_0, # of connection points: 2
#     Edge 27, Type (0, 1), BuildingBlock: MIFKUJ_clean_linker_0, # of connection points: 2
#     Edge 28, Type (0, 1), BuildingBlock: MIFKUJ_clean_linker_0, # of connection points: 2
#     Edge 29, Type (0, 1), BuildingBlock: MIFKUJ_clean_linker_0, # of connection points: 2
#     Edge 30, Type (0, 1), BuildingBlock: MIFKUJ_clean_linker_0, # of connection points: 2
#     Edge 31, Type (0, 1), BuildingBlock: MIFKUJ_clean_linker_0, # of connection points: 2
#     Edge 32, Type (0, 1), BuildingBlock: MIFKUJ_clean_linker_0, # of connection points: 2
#     Edge 33, Type (0, 1), BuildingBlock: MIFKUJ_clean_linker_0, # of connection points: 2
#     Edge 34, Type (0, 1), BuildingBlock: MIFKUJ_clean_linker_0, # of connection points: 2
#     Edge 35, Type (0, 1), BuildingBlock: MIFKUJ_clean_linker_0, # of connection points: 2
# Relax obj value: 0.205
# Max RMSD: 0.142
# Mean RMSD: 0.134
data_MOF--net-zzz--node1-NUHQIS_clean_sbu_0--node2-PAMTOO_clean_linker_0--edge1-MIFKUJ_clean_linker_0
_symmetry_space_group_name_H-M    P1
_symmetry_Int_Tables_number       1
_symmetry_cell_setting            triclinic
loop_
_symmetry_equiv_pos_as_xyz
'x, y, z'
_cell_length_a     67.887929
_cell_length_b     67.871078
_cell_length_c     18.036076
_cell_angle_alpha  89.863318
_cell_angle_beta   89.90728
_cell_angle_gamma 90.154897
loop_
_atom_site_label
_atom_site_type_symbol
_atom_site_fract_x
_atom_site_fract_y
_atom_site_fract_z
_atom_type_partial_charge
H0 H 0.79233 0.48304 0.28642 0.0
H1 H 0.74073 0.49806 0.16097 0.0
H2 H 0.75777 0.53344 0.34827 0.0
H3 H 0.70853 0.53496 0.31309 0.0
C4 C 0.71203 0.52409 0.26907 0.0
O5 O 0.73078 0.52808 0.24204 0.0
H6 H 0.71145 0.5093 0.29605 0.0
C7 C 0.77934 0.49209 0.2792 0.0
C8 C 0.77662 0.50838 0.32552 0.0
C9 C 0.76675 0.48845 0.21922 0.0
C10 C 0.75038 0.5006 0.20782 0.0
C11 C 0.74664 0.51641 0.25556 0.0
C12 C 0.76008 0.52065 0.3136 0.0
H13 H 0.98635 0.79956 0.27901 0.0
H14 H 0.9866 0.73923 0.20643 0.0
H15 H 1.00256 0.75353 0.43101 0.0
H16 H 0.02294 0.7096 0.35864 0.0
C17 C 0.01494 0.71474 0.30854 0.0
O18 O 0.99796 0.72443 0.33124 0.0
H19 H 0.02517 0.72501 0.27919 0.0
C20 C 0.98802 0.78398 0.29101 0.0
C21 C 0.99386 0.77837 0.36242 0.0
C22 C 0.98576 0.77009 0.23396 0.0
C23 C 0.98852 0.7501 0.24969 0.0
C24 C 0.99481 0.744 0.31982 0.0
C25 C 0.99769 0.75819 0.37662 0.0
H26 H 0.72442 1.00757 0.22107 0.0
H27 H 0.78526 1.00462 0.15671 0.0
H28 H 0.76828 0.99029 0.38087 0.0
H29 H 0.81873 1.00427 0.35284 0.0
C30 C 0.81295 1.00621 0.2957 0.0
O31 O 0.79824 0.99234 0.2839 0.0
H32 H 0.80696 0.02147 0.29305 0.0
C33 C 0.73963 1.00439 0.23509 0.0
C34 C 0.7443 0.99849 0.30753 0.0
C35 C 0.75431 1.0069 0.1811 0.0
C36 C 0.77393 1.00299 0.19869 0.0
C37 C 0.77912 0.99701 0.2703 0.0
C38 C 0.76431 0.99504 0.32552 0.0
H39 H 0.54507 0.73099 0.2293 0.0
H40 H 0.53981 0.79234 0.17596 0.0
H41 H 0.52114 0.77116 0.39043 0.0
H42 H 0.50038 0.81824 0.3265 0.0
C43 C 0.50828 0.81215 0.27773 0.0
O44 O 0.5253 0.80294 0.3025 0.0
H45 H 0.49804 0.80125 0.25212 0.0
C46 C 0.54159 0.74587 0.24675 0.0
C47 C 0.53356 0.74891 0.3176 0.0
C48 C 0.54382 0.76133 0.19564 0.0
C49 C 0.53836 0.78039 0.21559 0.0
C50 C 0.53017 0.78407 0.28534 0.0
C51 C 0.5275 0.76828 0.33645 0.0
H52 H 0.22784 0.5392 0.11824 0.0
H53 H 0.28621 0.52927 0.20265 0.0
H54 H 0.26377 0.49348 0.02464 0.0
H55 H 0.30111 0.47208 0.1284 0.0
C56 C 0.29988 0.48603 0.16016 0.0
O57 O 0.29487 0.50105 0.11145 0.0
H58 H 0.28805 0.48358 0.20214 0.0
C59 C 0.24186 0.5316 0.11518 0.0
C60 C 0.24399 0.51627 0.064 0.0
C61 C 0.25679 0.5362 0.16617 0.0
C62 C 0.27457 0.52583 0.16371 0.0
C63 C 0.27725 0.51051 0.11285 0.0
C64 C 0.2618 0.50545 0.0635 0.0
H65 H 0.99164 0.22438 0.18048 0.0
H66 H 1.00224 0.282 0.27019 0.0
H67 H 0.02454 0.26723 0.054 0.0
H68 H 0.99585 0.30888 0.13445 0.0
C69 C 0.01191 0.31207 0.13926 0.0
O70 O 0.02229 0.29522 0.15869 0.0
H71 H 0.01687 0.31689 0.08333 0.0
C72 C 0.99747 0.23917 0.17396 0.0
C73 C 1.00788 0.24399 0.10895 0.0
C74 C 0.9952 0.25271 0.23215 0.0
C75 C 1.00372 0.27145 0.22564 0.0
C76 C 0.01406 0.2769 0.16164 0.0
C77 C 0.01632 0.2631 0.10316 0.0
H78 H 0.3034 0.98563 0.16736 0.0
H79 H 0.24639 0.99619 0.26303 0.0
H80 H 0.26281 0.02487 0.05908 0.0
H81 H 0.21907 0.99591 0.1337 0.0
C82 C 0.2174 0.01218 0.1385 0.0
O83 O 0.2348 0.02087 0.16241 0.0
H84 H 0.21403 0.018 0.08229 0.0
C85 C 0.28896 0.99236 0.16416 0.0
C86 C 0.2848 1.00511 0.1048 0.0
C87 C 0.27528 0.98891 0.2213 0.0
C88 C 0.25711 0.99864 0.21943 0.0
C89 C 0.25247 0.01146 0.16115 0.0
C90 C 0.26636 0.01482 0.10378 0.0
H91 H 0.51872 0.3037 0.18265 0.0
H92 H 0.50717 0.24426 0.25071 0.0
H93 H 0.49785 0.26119 0.02324 0.0
H94 H 0.52459 0.22077 0.12106 0.0
C95 C 0.50912 0.21601 0.11073 0.0
O96 O 0.49608 0.23149 0.12217 0.0
H97 H 0.50817 0.21168 0.05146 0.0
C98 C 0.51441 0.28879 0.16842 0.0
C99 C 0.50867 0.28447 0.09532 0.0
C100 C 0.5138 0.27441 0.22442 0.0
C101 C 0.50752 0.25535 0.20757 0.0
C102 C 0.50205 0.25033 0.13542 0.0
C103 C 0.50237 0.26498 0.07897 0.0
Tb104 Tb 0.02643 1.00779 0.76783 0.0
Eu105 Eu 0.99789 0.02271 0.63653 0.0
C106 C 0.04439 0.01917 0.61431 0.0
C107 C 0.0169 0.05358 0.75213 0.0
C108 C 0.04532 0.97513 0.90931 0.0
C109 C 0.05966 0.94434 0.9512 0.0
C110 C 0.06192 0.96383 0.92701 0.0
C111 C 0.02646 0.96706 0.91912 0.0
C112 C 0.02419 0.94773 0.94299 0.0
C113 C 0.04074 0.93596 0.9576 0.0
C114 C 0.04747 0.994 0.87037 0.0
O115 O 0.99656 0.9989 0.80041 0.0
O116 O 0.98112 0.02449 0.74449 0.0
O117 O 0.99452 0.98951 0.63228 0.0
O118 O 0.0229 0.9819 0.69536 0.0
C119 C 0.98125 1.01061 0.79507 0.0
O120 O 0.96807 0.02814 0.59548 0.0
O121 O 0.99323 0.0362 0.52809 0.0
O122 O 0.02723 0.0152 0.5841 0.0
O123 O 0.04574 0.0219 0.68629 0.0
O124 O 0.02071 0.03869 0.7968 0.0
O125 O 0.01151 0.05053 0.6832 0.0
C126 C 1.00807 0.97674 0.65226 0.0
O127 O 0.05188 0.99248 0.80035 0.0
O128 O 0.03336 1.00667 0.88114 0.0
C129 C 0.96805 0.05969 0.54256 0.0
C130 C 0.95554 0.0985 0.57127 0.0
C131 C 0.94181 0.08396 0.55061 0.0
C132 C 0.94802 0.0646 0.53695 0.0
C133 C 0.98174 0.07445 0.56084 0.0
C134 C 0.97557 0.09357 0.57508 0.0
C135 C 0.9745 0.03899 0.54075 0.0
H136 H 0.07268 0.93567 0.96251 0.0
H137 H 0.0766 0.96978 0.91899 0.0
H138 H 0.01342 0.97535 0.90465 0.0
H139 H 1.00942 0.9417 0.94552 0.0
H140 H 0.92629 0.08746 0.54662 0.0
H141 H 0.93718 0.05339 0.52399 0.0
H142 H 0.99728 0.07118 0.566 0.0
H143 H 0.98658 0.10457 0.58873 0.0
Tb144 Tb 0.51875 0.02617 0.74644 0.0
Eu145 Eu 0.5032 0.99708 0.6174 0.0
C146 C 0.50721 0.04288 0.59008 0.0
C147 C 0.4734 0.01626 0.73725 0.0
C148 C 0.55386 0.05231 0.86173 0.0
C149 C 0.58277 0.07337 0.8692 0.0
C150 C 0.56246 0.07113 0.85981 0.0
C151 C 0.56578 0.03578 0.87491 0.0
C152 C 0.586 0.03804 0.88518 0.0
C153 C 0.59468 0.0568 0.88137 0.0
C154 C 0.53325 0.0498 0.83888 0.0
O155 O 0.52656 0.99647 0.78506 0.0
O156 O 0.50173 0.9804 0.72571 0.0
O157 O 0.53636 0.99432 0.60821 0.0
O158 O 0.54517 0.021 0.67942 0.0
C159 C 0.51502 0.98095 0.77833 0.0
O160 O 0.49945 0.96724 0.57407 0.0
O161 O 0.48681 0.99202 0.51537 0.0
O162 O 0.51147 0.0257 0.56114 0.0
O163 O 0.50404 0.04426 0.66189 0.0
O164 O 0.48848 0.01989 0.78085 0.0
O165 O 0.47604 1.01128 0.66755 0.0
C166 C 0.54973 1.00676 0.63298 0.0
O167 O 0.52992 0.05431 0.7699 0.0
O168 O 0.52462 0.03332 0.85763 0.0
C169 C 0.46707 0.9638 0.53091 0.0
C170 C 0.42985 0.94618 0.55328 0.0
C171 C 0.44501 0.93576 0.51723 0.0
C172 C 0.46356 0.9445 0.50651 0.0
C173 C 0.45196 0.97409 0.56705 0.0
C174 C 0.43361 0.96544 0.57795 0.0
C175 C 0.48669 0.97292 0.52448 0.0
H176 H 0.58919 0.08798 0.8665 0.0
H177 H 0.55355 0.08401 0.84847 0.0
H178 H 0.55962 0.02104 0.87484 0.0
H179 H 0.59495 0.02504 0.8937 0.0
H180 H 0.44254 0.92091 0.49746 0.0
H181 H 0.47514 0.93622 0.47956 0.0
H182 H 0.45425 0.98895 0.58675 0.0
H183 H 0.4222 0.97415 0.604 0.0
Tb184 Tb 0.49698 0.52107 0.75185 0.0
Eu185 Eu 0.52634 0.5065 0.62219 0.0
C186 C 0.47874 0.50677 0.59851 0.0
C187 C 0.50703 0.47627 0.74095 0.0
C188 C 0.48084 0.55468 0.89295 0.0
C189 C 0.47371 0.58971 0.89421 0.0
C190 C 0.46784 0.57036 0.88012 0.0
C191 C 0.49907 0.55851 0.92703 0.0
C192 C 0.50484 0.57783 0.94185 0.0
C193 C 0.49261 0.59367 0.92227 0.0
C194 C 0.47721 0.53567 0.85602 0.0
O195 O 0.52624 0.51774 0.80207 0.0
O196 O 0.54527 0.52397 0.7009 0.0
O197 O 0.52135 0.53817 0.59033 0.0
O198 O 0.50821 0.5486 0.70142 0.0
C199 C 0.54333 0.52267 0.773 0.0
O200 O 0.5554 0.49479 0.5961 0.0
O201 O 0.53356 0.4971 0.50941 0.0
O202 O 0.49576 0.49907 0.57907 0.0
O203 O 0.47686 0.51722 0.65924 0.0
O204 O 0.49272 0.48897 0.75204 0.0
O205 O 0.52302 0.4817 0.7054 0.0
C206 C 0.51523 0.55232 0.63436 0.0
O207 O 0.47236 0.53723 0.78652 0.0
O208 O 0.49032 0.52192 0.86585 0.0
C209 C 0.55009 0.46671 0.52539 0.0
C210 C 0.54865 0.42625 0.56021 0.0
C211 C 0.56675 0.43636 0.55972 0.0
C212 C 0.56745 0.45647 0.54261 0.0
C213 C 0.53224 0.45624 0.52113 0.0
C214 C 0.53155 0.43625 0.53825 0.0
C215 C 0.54963 0.48834 0.53172 0.0
H216 H 0.46392 0.60158 0.87854 0.0
H217 H 0.45375 0.56779 0.85366 0.0
H218 H 0.50945 0.54677 0.93791 0.0
H219 H 0.51926 0.58039 0.9657 0.0
H220 H 0.58019 0.42895 0.57593 0.0
H221 H 0.58131 0.4643 0.54767 0.0
H222 H 0.51851 0.46367 0.50905 0.0
H223 H 0.51747 0.42871 0.53594 0.0
Tb224 Tb 1.00136 0.50033 0.78176 0.0
Eu225 Eu 0.01418 0.53064 0.65065 0.0
C226 C 0.01163 0.48411 0.62314 0.0
C227 C 0.0467 0.51188 0.76208 0.0
C228 C 0.97175 0.46424 0.88198 0.0
C229 C 0.94173 0.45305 0.82226 0.0
C230 C 0.96028 0.46189 0.81789 0.0
C231 C 0.96497 0.45674 0.94967 0.0
C232 C 0.94641 0.44785 0.95411 0.0
C233 C 0.93435 0.44646 0.89085 0.0
C234 C 0.98947 0.47659 0.87965 0.0
O235 O 1.00833 0.52836 0.83618 0.0
O236 O 0.99967 0.54853 0.74104 0.0
O237 O 0.98234 0.52446 0.62515 0.0
O238 O 0.97292 0.50968 0.73471 0.0
C239 C 1.00325 0.54589 0.8118 0.0
O240 O 0.02473 0.55993 0.62072 0.0
O241 O 0.01874 0.5386 0.53453 0.0
O242 O 0.02236 0.49996 0.61076 0.0
O243 O 0.99914 0.48364 0.67879 0.0
O244 O 0.0337 0.49852 0.78327 0.0
O245 O 0.04168 0.52671 0.71926 0.0
C246 C 0.96865 0.51724 0.66914 0.0
O247 O 1.00244 0.47205 0.82913 0.0
O248 O 0.98603 0.49547 0.88113 0.0
C249 C 0.04669 0.55937 0.52073 0.0
C250 C 0.08638 0.56588 0.48279 0.0
C251 C 0.07495 0.58131 0.51137 0.0
C252 C 0.0552 0.5781 0.52977 0.0
C253 C 0.05803 0.54408 0.4905 0.0
C254 C 0.07766 0.54734 0.47142 0.0
C255 C 0.02692 0.55547 0.55099 0.0
H256 H 0.93285 0.45206 0.77255 0.0
H257 H 0.9653 0.4677 0.7651 0.0
H258 H 0.97359 0.4586 0.99969 0.0
H259 H 0.94105 0.44319 0.00797 0.0
H260 H 0.08134 0.59576 0.52011 0.0
H261 H 0.04675 0.59006 0.55344 0.0
H262 H 0.05198 0.52941 0.48382 0.0
H263 H 0.08625 0.53515 0.45025 0.0
H264 H 0.17841 0.01429 0.10348 0.0
H265 H 0.14992 0.01718 0.18578 0.0
H266 H 0.18871 0.02076 0.37446 0.0
H267 H 0.21727 0.01734 0.292 0.0
H268 H 0.1596 0.99717 0.4068 0.0
H269 H 0.16248 0.06191 0.30247 0.0
H270 H 0.16394 0.08716 0.20406 0.0
H271 H 0.10862 0.06683 0.11765 0.0
H272 H 0.10698 0.04125 0.21487 0.0
H273 H 0.08286 0.02425 0.65816 0.0
H274 H 0.11249 0.0248 0.58071 0.0
H275 H 0.0768 0.01668 0.38562 0.0
H276 H 0.04708 0.01627 0.46262 0.0
H277 H 0.10498 0.04398 0.36057 0.0
H278 H 0.10294 0.97849 0.46221 0.0
H279 H 0.10121 0.95369 0.5622 0.0
H280 H 0.15496 0.97613 0.65499 0.0
H281 H 0.15686 1.00126 0.55609 0.0
C282 C 0.18088 0.01606 0.16241 0.0
C283 C 0.20019 0.01616 0.19069 0.0
C284 C 0.16454 0.01775 0.20961 0.0
C285 C 0.16699 0.01962 0.28672 0.0
C286 C 0.1863 0.01952 0.31531 0.0
C287 C 0.20268 0.01771 0.26797 0.0
C288 C 0.14941 0.0209 0.33729 0.0
C289 C 0.14785 1.00767 0.39724 0.0
C290 C 0.13369 0.03424 0.3245 0.0
C291 C 0.13471 0.04953 0.2656 0.0
C292 C 0.15071 0.0627 0.2621 0.0
C293 C 0.15156 0.0771 0.20658 0.0
C294 C 0.13641 0.07856 0.15452 0.0
C295 C 0.12036 0.06565 0.15793 0.0
C296 C 0.11946 0.05121 0.21327 0.0
C297 C 0.08126 0.02265 0.59875 0.0
C298 C 0.06247 0.02017 0.56691 0.0
C299 C 0.09829 0.02287 0.55442 0.0
C300 C 0.09703 0.02057 0.47706 0.0
C301 C 0.07827 0.01847 0.44503 0.0
C302 C 0.06123 0.01818 0.48932 0.0
C303 C 0.11519 0.02022 0.42954 0.0
C304 C 0.11682 0.03358 0.37019 0.0
C305 C 0.13098 1.00705 0.44295 0.0
C306 C 0.12993 0.99189 0.50219 0.0
C307 C 0.11431 0.97823 0.50426 0.0
C308 C 0.11331 0.9641 0.56069 0.0
C309 C 0.12794 0.96337 0.61503 0.0
C310 C 0.14363 0.97674 0.61293 0.0
C311 C 0.14468 0.99092 0.55667 0.0
H312 H 0.12714 0.95243 0.65867 0.0
H313 H 0.13708 0.08973 0.11163 0.0
H314 H 0.49232 0.21388 0.25295 0.0
H315 H 0.49009 0.18511 0.33482 0.0
H316 H 0.51498 0.14875 0.16314 0.0
H317 H 0.51749 0.17754 0.08155 0.0
H318 H 0.48453 0.12986 0.23257 0.0
H319 H 0.54301 0.16519 0.30702 0.0
H320 H 0.56152 0.19433 0.34974 0.0
H321 H 0.52588 0.19678 0.54639 0.0
H322 H 0.50697 0.16779 0.5043 0.0
H323 H 0.51436 0.04588 0.44025 0.0
H324 H 0.51239 0.07511 0.36124 0.0
H325 H 0.49409 0.10974 0.54914 0.0
H326 H 0.49648 0.0806 0.62887 0.0
H327 H 0.51932 0.13028 0.47409 0.0
H328 H 0.4618 0.09449 0.40607 0.0
H329 H 0.44166 0.06643 0.36376 0.0
H330 H 0.47306 0.06568 0.15699 0.0
H331 H 0.49369 0.0935 0.19862 0.0
C332 C 0.49723 0.1998 0.23229 0.0
C333 C 0.50494 0.1981 0.15999 0.0
C334 C 0.49597 0.18327 0.27942 0.0
C335 C 0.50251 0.16463 0.25574 0.0
C336 C 0.50976 0.16285 0.18304 0.0
C337 C 0.51114 0.17936 0.13624 0.0
C338 C 0.50233 0.14708 0.30679 0.0
C339 C 0.49232 0.12988 0.28502 0.0
C340 C 0.51198 0.14715 0.37647 0.0
C341 C 0.52345 0.16445 0.40213 0.0
C342 C 0.53903 0.17203 0.35911 0.0
C343 C 0.54961 0.18851 0.38324 0.0
C344 C 0.54484 0.19744 0.45063 0.0
C345 C 0.52953 0.18987 0.49414 0.0
C346 C 0.51889 0.17341 0.4702 0.0
C347 C 0.50982 0.05967 0.46492 0.0
C348 C 0.50551 0.06073 0.54126 0.0
C349 C 0.50859 0.07646 0.41934 0.0
C350 C 0.50279 0.0948 0.44841 0.0
C351 C 0.49857 0.09589 0.52476 0.0
C352 C 0.49988 0.07912 0.57047 0.0
C353 C 0.50162 0.11285 0.39977 0.0
C354 C 0.51142 0.13018 0.42189 0.0
C355 C 0.49159 0.11294 0.33065 0.0
C356 C 0.47946 0.09596 0.30588 0.0
C357 C 0.46458 0.08821 0.35192 0.0
C358 C 0.45305 0.07236 0.32799 0.0
C359 C 0.45613 0.06423 0.25784 0.0
C360 C 0.47074 0.07195 0.21141 0.0
C361 C 0.48236 0.08776 0.23516 0.0
H362 H 0.44716 0.05198 0.23939 0.0
H363 H 0.55304 0.2102 0.46921 0.0
H364 H 0.3058 0.50417 0.29477 0.0
H365 H 0.33668 0.50828 0.36344 0.0
H366 H 0.36865 0.48185 0.18245 0.0
H367 H 0.33763 0.47744 0.11438 0.0
H368 H 0.381 0.46653 0.30915 0.0
H369 H 0.37091 0.53237 0.22124 0.0
H370 H 0.35244 0.56314 0.20099 0.0
H371 H 0.34725 0.57124 0.43624 0.0
H372 H 0.36546 0.54036 0.45793 0.0
H373 H 0.47618 0.4899 0.4593 0.0
H374 H 0.44701 0.4871 0.37992 0.0
H375 H 0.41171 0.51459 0.54939 0.0
H376 H 0.44072 0.51783 0.62787 0.0
H377 H 0.402 0.52968 0.42227 0.0
H378 H 0.41055 0.4633 0.51058 0.0
H379 H 0.4286 0.43233 0.532 0.0
H380 H 0.43638 0.42514 0.29731 0.0
H381 H 0.41859 0.45623 0.27454 0.0
C382 C 0.31945 0.49942 0.26943 0.0
C383 C 0.31926 0.49035 0.19939 0.0
C384 C 0.33716 0.50181 0.30864 0.0
C385 C 0.35521 0.49546 0.27837 0.0
C386 C 0.35503 0.48682 0.2075 0.0
C387 C 0.3373 0.4844 0.16834 0.0
C388 C 0.37409 0.49731 0.3214 0.0
C389 C 0.38572 0.48044 0.33282 0.0
C390 C 0.38023 0.51529 0.35405 0.0
C391 C 0.36941 0.53395 0.34119 0.0
C392 C 0.36572 0.54064 0.26866 0.0
C393 C 0.35531 0.55811 0.25692 0.0
C394 C 0.34863 0.56912 0.31728 0.0
C395 C 0.35241 0.5627 0.38953 0.0
C396 C 0.36279 0.54522 0.40158 0.0
C397 C 0.4622 0.49526 0.47988 0.0
C398 C 0.46094 0.50407 0.5504 0.0
C399 C 0.44544 0.49359 0.43437 0.0
C400 C 0.42692 0.50047 0.45847 0.0
C401 C 0.4257 0.5092 0.52891 0.0
C402 C 0.4424 0.51097 0.5741 0.0
C403 C 0.40883 0.49886 0.41067 0.0
C404 C 0.39734 0.51578 0.39833 0.0
C405 C 0.4028 0.48092 0.37736 0.0
C406 C 0.41342 0.46219 0.39091 0.0
C407 C 0.41623 0.45519 0.46358 0.0
C408 C 0.4264 0.4376 0.47596 0.0
C409 C 0.43368 0.4268 0.41607 0.0
C410 C 0.43076 0.43354 0.34365 0.0
C411 C 0.42063 0.45113 0.33097 0.0
H412 H 0.44155 0.41319 0.42577 0.0
H413 H 0.34057 0.58264 0.30808 0.0
H414 H 0.99423 0.31692 0.27579 0.0
H415 H 0.99599 0.34531 0.35929 0.0
H416 H 0.037 0.37376 0.21055 0.0
H417 H 0.03574 0.34502 0.12838 0.0
H418 H 0.04741 0.38201 0.34678 0.0
H419 H 0.98609 0.38534 0.21571 0.0
H420 H 0.95394 0.37327 0.17105 0.0
H421 H 0.93395 0.36641 0.39566 0.0
H422 H 0.96608 0.37822 0.44168 0.0
H423 H 0.0337 0.47936 0.49516 0.0
H424 H 0.03527 0.45037 0.41432 0.0
H425 H 0.9946 0.41972 0.55803 0.0
H426 H 0.99265 0.44861 0.63772 0.0
H427 H 0.98444 0.41309 0.42156 0.0
H428 H 0.0462 0.41008 0.55215 0.0
H429 H 0.07827 0.42278 0.59512 0.0
H430 H 0.09739 0.42977 0.3695 0.0
H431 H 0.06532 0.41734 0.32517 0.0
C432 C 1.0039 0.32906 0.26165 0.0
C433 C 0.01479 0.32868 0.19523 0.0
C434 C 1.00473 0.34547 0.30904 0.0
C435 C 0.01628 0.3621 0.29089 0.0
C436 C 0.02786 0.36131 0.22613 0.0
C437 C 0.02714 0.34484 0.179 0.0
C438 C 0.01582 0.38044 0.33792 0.0
C439 C 0.03362 0.3889 0.3623 0.0
C440 C 0.9979 0.38952 0.35962 0.0
C441 C 0.97855 0.38248 0.33211 0.0
C442 C 0.97488 0.38113 0.25557 0.0
C443 C 0.95665 0.37435 0.23002 0.0
C444 C 0.94193 0.36902 0.28049 0.0
C445 C 0.94538 0.37051 0.35663 0.0
C446 C 0.96358 0.37726 0.38248 0.0
C447 C 0.02512 0.46644 0.50969 0.0
C448 C 0.01307 0.46646 0.57338 0.0
C449 C 0.02611 0.44975 0.46345 0.0
C450 C 0.01523 0.43255 0.48 0.0
C451 C 1.00316 0.43266 0.54345 0.0
C452 C 1.00211 0.44929 0.58935 0.0
C453 C 0.01602 0.41456 0.4312 0.0
C454 C 0.99825 0.40619 0.40621 0.0
C455 C 0.03396 0.40565 0.4088 0.0
C456 C 0.05329 0.41297 0.43536 0.0
C457 C 0.0572 0.41445 0.51171 0.0
C458 C 0.07538 0.42158 0.5363 0.0
C459 C 0.08984 0.42713 0.48507 0.0
C460 C 0.08617 0.42549 0.40912 0.0
C461 C 0.068 0.41839 0.38423 0.0
H462 H 0.10391 0.43266 0.50422 0.0
H463 H 0.92783 0.36378 0.2606 0.0
H464 H 0.84596 0.98278 0.30455 0.0
H465 H 0.87419 0.98138 0.21943 0.0
H466 H 0.84585 0.02351 0.07575 0.0
H467 H 0.81758 0.02475 0.16064 0.0
H468 H 0.86327 0.99594 0.99443 0.0
H469 H 0.88323 0.03695 0.19725 0.0
H470 H 0.88944 0.04562 0.32785 0.0
H471 H 0.93053 0.99788 0.34651 0.0
H472 H 0.92435 0.98875 0.21621 0.0
H473 H 0.946 0.03013 0.7893 0.0
H474 H 0.91774 0.02707 0.87245 0.0
H475 H 0.94857 0.9832 1.00027 0.0
H476 H 0.97708 0.98622 0.91699 0.0
H477 H 0.93032 1.0098 0.09042 0.0
H478 H 0.91135 0.96995 0.88434 0.0
H479 H 0.90556 0.96225 0.75263 0.0
H480 H 0.86279 1.00861 0.7394 0.0
H481 H 0.86853 0.01679 0.87083 0.0
C482 C 0.84573 0.99162 0.25451 0.0
C483 C 0.82965 1.00405 0.23978 0.0
C484 C 0.86194 0.99093 0.206 0.0
C485 C 0.86247 1.00264 0.14143 0.0
C486 C 0.84598 0.0144 0.12514 0.0
C487 C 0.82979 0.01512 0.17372 0.0
C488 C 0.88026 1.00291 0.09164 0.0
C489 C 0.87788 0.99919 0.01549 0.0
C490 C 0.89953 1.00668 0.1187 0.0
C491 C 0.90315 0.01203 0.19722 0.0
C492 C 0.89345 0.02818 0.2294 0.0
C493 C 0.89699 0.0332 0.30333 0.0
C494 C 0.91033 0.02227 0.34552 0.0
C495 C 0.92017 1.00631 0.31381 0.0
C496 C 0.91666 1.00121 0.23991 0.0
C497 C 0.94684 0.01976 0.83492 0.0
C498 C 0.96393 1.00838 0.84601 0.0
C499 C 0.93055 0.01797 0.88245 0.0
C500 C 0.9308 1.00475 0.94257 0.0
C501 C 0.9479 0.99348 0.95434 0.0
C502 C 0.96421 0.99518 0.90641 0.0
C503 C 0.9133 1.00295 0.99326 0.0
C504 C 0.91573 1.00642 0.06951 0.0
C505 C 0.89407 0.99902 0.96627 0.0
C506 C 0.89051 0.9941 0.88729 0.0
C507 C 0.90082 0.97861 0.85321 0.0
C508 C 0.89753 0.97414 0.77862 0.0
C509 C 0.88385 0.98497 0.73762 0.0
C510 C 0.8734 1.00025 0.77121 0.0
C511 C 0.87665 1.0048 0.84577 0.0
H512 H 0.88132 0.98148 0.67988 0.0
H513 H 0.91308 0.0262 0.40271 0.0
H514 H 0.52913 0.84647 0.30254 0.0
H515 H 0.53312 0.87504 0.21985 0.0
H516 H 0.5004 0.84467 0.04987 0.0
H517 H 0.49694 0.81602 0.13167 0.0
H518 H 0.52853 0.86387 0.98582 0.0
H519 H 0.4799 0.88177 0.16583 0.0
H520 H 0.46618 0.88729 0.29072 0.0
H521 H 0.5112 0.93025 0.33453 0.0
H522 H 0.52536 0.92478 0.21012 0.0
H523 H 0.49687 0.94499 0.76761 0.0
H524 H 0.49859 0.91702 0.85253 0.0
H525 H 0.5381 0.94956 0.99367 0.0
H526 H 0.53647 0.97783 0.90829 0.0
H527 H 0.50891 0.93012 0.07437 0.0
H528 H 0.55566 0.91299 0.88566 0.0
H529 H 0.56711 0.90764 0.75748 0.0
H530 H 0.52286 0.86308 0.72721 0.0
H531 H 0.51095 0.86835 0.85492 0.0
C532 C 0.52306 0.84583 0.24709 0.0
C533 C 0.51274 0.82895 0.22379 0.0
C534 C 0.52515 0.86227 0.19995 0.0
C535 C 0.51674 0.86237 0.1285 0.0
C536 C 0.50702 0.84519 0.10444 0.0
C537 C 0.50503 0.82874 0.15138 0.0
C538 C 0.51769 0.88034 0.07923 0.0
C539 C 0.52404 0.87828 0.00533 0.0
C540 C 0.51223 0.89943 0.10408 0.0
C541 C 0.50383 0.90268 0.17902 0.0
C542 C 0.48698 0.89226 0.20233 0.0
C543 C 0.4791 0.89541 0.27297 0.0
C544 C 0.48785 0.90906 0.32061 0.0
C545 C 0.50447 0.91964 0.29762 0.0
C546 C 0.51242 0.91653 0.22704 0.0
C547 C 0.50601 0.94629 0.81653 0.0
C548 C 0.51659 0.96379 0.8306 0.0
C549 C 0.50702 0.93016 0.86514 0.0
C550 C 0.51862 0.93095 0.92958 0.0
C551 C 0.52907 0.94847 0.94439 0.0
C552 C 0.52819 0.96463 0.89526 0.0
C553 C 0.51959 0.91353 0.98119 0.0
C554 C 0.51356 0.91571 0.05532 0.0
C555 C 0.52509 0.89451 0.95633 0.0
C556 C 0.53232 0.89119 0.8797 0.0
C557 C 0.54828 0.90215 0.85151 0.0
C558 C 0.55487 0.89911 0.77896 0.0
C559 C 0.54569 0.88506 0.73418 0.0
C560 C 0.52994 0.87397 0.76194 0.0
C561 C 0.52328 0.87696 0.83444 0.0
H562 H 0.55081 0.88273 0.67802 0.0
H563 H 0.48173 0.91146 0.37526 0.0
H564 H 0.69409 0.49373 0.19346 0.0
H565 H 0.66654 0.4954 0.10612 0.0
H566 H 0.66736 0.55885 0.1197 0.0
H567 H 0.69467 0.55709 0.20879 0.0
H568 H 0.63083 0.54717 0.12619 0.0
H569 H 0.68417 0.533 0.96307 0.0
H570 H 0.71334 0.51522 0.917 0.0
H571 H 0.67886 0.46246 0.89394 0.0
H572 H 0.64954 0.47986 0.94089 0.0
H573 H 0.58106 0.53326 0.73329 0.0
H574 H 0.61015 0.53582 0.81263 0.0
H575 H 0.57504 0.51939 1.00253 0.0
H576 H 0.54582 0.51732 0.92388 0.0
H577 H 0.62981 0.51046 0.88883 0.0
H578 H 0.59409 0.53885 0.16183 0.0
H579 H 0.56616 0.55962 0.20072 0.0
H580 H 0.5675 0.58963 0.99095 0.0
H581 H 0.59568 0.56933 0.95135 0.0
C582 C 0.68851 0.50804 0.1772 0.0
C583 C 0.69651 0.52528 0.20831 0.0
C584 C 0.67275 0.50901 0.12699 0.0
C585 C 0.66473 0.52728 0.10548 0.0
C586 C 0.67308 0.54455 0.13528 0.0
C587 C 0.68881 0.54356 0.18581 0.0
C588 C 0.64743 0.52829 0.05351 0.0
C589 C 0.63065 0.53913 0.0743 0.0
C590 C 0.64712 0.51821 0.98469 0.0
C591 C 0.6647 0.5077 0.95612 0.0
C592 C 0.68284 0.51757 0.94867 0.0
C593 C 0.6994 0.50756 0.92233 0.0
C594 C 0.69797 0.48771 0.90273 0.0
C595 C 0.67996 0.47784 0.90924 0.0
C596 C 0.66336 0.48777 0.93564 0.0
C597 C 0.57945 0.53036 0.79206 0.0
C598 C 0.56096 0.52514 0.82191 0.0
C599 C 0.59619 0.53174 0.83751 0.0
C600 C 0.59496 0.52797 0.91416 0.0
C601 C 0.57648 0.52276 0.94406 0.0
C602 C 0.55972 0.5215 0.89873 0.0
C603 C 0.61303 0.52898 0.96221 0.0
C604 C 0.62996 0.51851 0.9407 0.0
C605 C 0.61361 0.5398 0.02946 0.0
C606 C 0.59689 0.55239 0.05335 0.0
C607 C 0.5885 0.54995 0.12414 0.0
C608 C 0.57262 0.56164 0.14631 0.0
C609 C 0.56502 0.57589 0.09824 0.0
C610 C 0.57336 0.57855 0.02804 0.0
C611 C 0.58929 0.56694 0.00571 0.0
H612 H 0.5527 0.58489 0.11543 0.0
H613 H 0.7108 0.47999 0.88235 0.0
H614 H 1.00966 0.71447 0.15682 0.0
H615 H 1.0057 0.68603 0.07429 0.0
H616 H 1.00667 0.64707 0.26342 0.0
H617 H 1.0105 0.67555 0.34598 0.0
H618 H 0.03112 0.63392 0.15529 0.0
H619 H 0.96398 0.65592 0.16693 0.0
H620 H 0.93705 0.68007 0.15665 0.0
H621 H 0.95065 0.68888 0.92634 0.0
H622 H 0.97786 0.66496 0.9355 0.0
H623 H 1.00654 0.5458 0.96397 0.0
H624 H 1.00662 0.57398 0.04823 0.0
H625 H 0.99933 0.61338 0.86243 0.0
H626 H 0.99865 0.5852 0.77817 0.0
H627 H 0.9778 0.62642 0.96982 0.0
H628 H 0.04498 0.60591 0.95549 0.0
H629 H 0.07292 0.58285 0.96259 0.0
H630 H 0.06079 0.57259 0.19322 0.0
H631 H 0.03256 0.59537 0.18722 0.0
C632 C 1.00865 0.69987 0.18086 0.0
C633 C 1.01037 0.6973 0.25806 0.0
C634 C 1.00643 0.68356 0.13357 0.0
C635 C 1.00584 0.66424 0.16221 0.0
C636 C 1.00714 0.66173 0.23955 0.0
C637 C 1.00922 0.67804 0.28685 0.0
C638 C 1.00456 0.64666 0.11166 0.0
C639 C 0.01927 0.63215 0.11557 0.0
C640 C 0.9895 0.64449 0.05785 0.0
C641 C 0.97307 0.65878 0.0521 0.0
C642 C 0.96132 0.66311 0.11423 0.0
C643 C 0.94599 0.67674 0.10858 0.0
C644 C 0.94218 0.68604 0.04094 0.0
C645 C 0.95365 0.68168 0.97873 0.0
C646 C 0.96901 0.66808 0.98411 0.0
C647 C 1.00489 0.56044 0.94089 0.0
C648 C 1.00266 0.5631 0.86386 0.0
C649 C 1.00506 0.57665 0.98932 0.0
C650 C 1.00335 0.59607 0.9622 0.0
C651 C 1.00073 0.59869 0.88538 0.0
C652 C 1.00038 0.58248 0.83698 0.0
C653 C 1.00436 0.61356 0.01349 0.0
C654 C 0.98963 0.62811 0.00965 0.0
C655 C 0.01956 0.61589 0.06685 0.0
C656 C 0.03652 0.60219 0.07068 0.0
C657 C 0.04817 0.59861 0.00757 0.0
C658 C 0.06407 0.58561 0.01142 0.0
C659 C 0.06859 0.57622 0.07826 0.0
C660 C 0.05724 0.57985 0.14145 0.0
C661 C 0.0413 0.59281 0.13786 0.0
H662 H 0.08092 0.56616 0.08113 0.0
H663 H 0.9303 0.69659 0.03668 0.0
H664 H 1.00503 0.26064 0.37698 0.0
H665 H 0.99078 0.24561 0.48824 0.0
H666 H 0.94791 0.21544 0.35291 0.0
H667 H 0.96123 0.23132 0.2427 0.0
H668 H 0.93269 0.22182 0.48572 0.0
H669 H 0.99629 0.19681 0.38848 0.0
H670 H 0.03173 0.20028 0.36032 0.0
H671 H 0.04314 0.21591 0.5869 0.0
H672 H 1.00771 0.21272 0.61601 0.0
H673 H 0.93142 0.1213 0.48657 0.0
H674 H 0.92993 0.1571 0.48744 0.0
H675 H 0.96563 0.15838 0.68517 0.0
H676 H 0.96706 0.12248 0.68459 0.0
H677 H 0.98356 0.17619 0.58174 0.0
H678 H 0.92032 0.1839 0.67762 0.0
H679 H 0.88508 0.17746 0.69999 0.0
H680 H 0.87214 0.19167 0.4732 0.0
H681 H 0.90733 0.19791 0.44906 0.0
C682 C 0.99212 0.25137 0.37125 0.0
C683 C 0.9846 0.2467 0.30074 0.0
C684 C 0.98404 0.24272 0.43495 0.0
C685 C 0.96861 0.22899 0.42879 0.0
C686 C 0.9599 0.22587 0.35924 0.0
C687 C 0.96775 0.23471 0.29595 0.0
C688 C 0.96365 0.21522 0.49013 0.0
C689 C 0.94374 0.21188 0.50755 0.0
C690 C 0.97817 0.20285 0.52168 0.0
C691 C 0.99939 0.20487 0.50408 0.0
C692 C 1.00637 0.20112 0.43208 0.0
C693 C 0.02644 0.20302 0.41598 0.0
C694 C 0.03967 0.2084 0.47171 0.0
C695 C 0.03286 0.21183 0.54372 0.0
C696 C 0.0128 0.21001 0.56003 0.0
C697 C 0.93814 0.12917 0.53222 0.0
C698 C 0.94967 0.11918 0.58457 0.0
C699 C 0.9372 0.14972 0.53307 0.0
C700 C 0.94764 0.16057 0.58664 0.0
C701 C 0.95734 0.15041 0.64371 0.0
C702 C 0.95831 0.12989 0.64283 0.0
C703 C 0.95236 0.18157 0.5716 0.0
C704 C 0.97234 0.18648 0.56347 0.0
C705 C 0.93785 0.1951 0.54785 0.0
C706 C 0.91655 0.19144 0.56166 0.0
C707 C 0.91 0.18558 0.63241 0.0
C708 C 0.89001 0.18196 0.6454 0.0
C709 C 0.87638 0.18418 0.58808 0.0
C710 C 0.88271 0.19002 0.51763 0.0
C711 C 0.90269 0.19366 0.50433 0.0
H712 H 0.8609 0.18136 0.59823 0.0
H713 H 0.0552 0.20984 0.45917 0.0
H714 H 0.26769 0.99446 0.36965 0.0
H715 H 0.28312 0.97718 0.47331 0.0
H716 H 0.31175 0.93787 0.31957 0.0
H717 H 0.29528 0.95406 0.21668 0.0
H718 H 0.30773 0.91961 0.44616 0.0
H719 H 0.33161 0.98488 0.36743 0.0
H720 H 0.328 0.02068 0.34744 0.0
H721 H 0.31283 0.02828 0.57691 0.0
H722 H 0.31612 0.99247 0.59761 0.0
H723 H 0.40917 0.92566 0.44887 0.0
H724 H 0.37356 0.92182 0.44401 0.0
H725 H 0.36855 0.94583 0.66438 0.0
H726 H 0.40433 0.94912 0.67068 0.0
H727 H 0.35236 0.96911 0.55867 0.0
H728 H 0.34544 0.90319 0.63201 0.0
H729 H 0.35303 0.86776 0.64001 0.0
H730 H 0.34055 0.8611 0.40813 0.0
H731 H 0.33318 0.89654 0.39829 0.0
C732 C 0.27662 0.98163 0.35812 0.0
C733 C 0.28081 0.97604 0.28469 0.0
C734 C 0.28553 0.97182 0.41751 0.0
C735 C 0.29913 0.95665 0.40412 0.0
C736 C 0.30151 0.94967 0.3315 0.0
C737 C 0.29233 0.95917 0.27244 0.0
C738 C 0.31358 0.95054 0.46135 0.0
C739 C 0.31743 0.93037 0.47148 0.0
C740 C 0.32588 0.96458 0.49651 0.0
C741 C 0.32384 0.98605 0.48393 0.0
C742 C 0.3274 0.9942 0.41343 0.0
C743 C 0.32541 0.01448 0.40195 0.0
C744 C 0.32012 0.02675 0.46081 0.0
C745 C 0.31686 0.01877 0.53129 0.0
C746 C 0.31876 0.99849 0.54294 0.0
C747 C 0.40063 0.92919 0.49781 0.0
C748 C 0.40952 0.93819 0.55935 0.0
C749 C 0.3802 0.92694 0.49509 0.0
C750 C 0.36836 0.93368 0.55371 0.0
C751 C 0.37739 0.94055 0.61858 0.0
C752 C 0.39783 0.94261 0.62167 0.0
C753 C 0.34742 0.9382 0.53876 0.0
C754 C 0.34225 0.95818 0.53671 0.0
C755 C 0.33438 0.92399 0.50923 0.0
C756 C 0.33873 0.90259 0.51448 0.0
C757 C 0.34441 0.89421 0.58257 0.0
C758 C 0.34867 0.87411 0.58745 0.0
C759 C 0.34726 0.86219 0.52463 0.0
C760 C 0.34159 0.87035 0.45679 0.0
C761 C 0.33732 0.89044 0.45158 0.0
H762 H 0.35057 0.84663 0.52852 0.0
H763 H 0.31861 0.04244 0.45184 0.0
H764 H 0.49243 0.26731 0.35005 0.0
H765 H 0.49788 0.2819 0.47262 0.0
H766 H 0.55198 0.3081 0.39376 0.0
H767 H 0.54663 0.29357 0.27174 0.0
H768 H 0.55238 0.29886 0.55003 0.0
H769 H 0.51169 0.33325 0.35853 0.0
H770 H 0.48317 0.33344 0.27378 0.0
H771 H 0.44456 0.3198 0.45582 0.0
H772 H 0.47294 0.31927 0.54116 0.0
H773 H 0.57305 0.39626 0.51999 0.0
H774 H 0.56673 0.36114 0.53381 0.0
H775 H 0.5148 0.37355 0.66343 0.0
H776 H 0.52107 0.40888 0.6498 0.0
H777 H 0.50537 0.35464 0.54539 0.0
H778 H 0.55033 0.34301 0.73199 0.0
H779 H 0.58047 0.34473 0.80719 0.0
H780 H 0.61331 0.31732 0.63217 0.0
H781 H 0.58345 0.31561 0.55535 0.0
C782 C 0.50581 0.27562 0.35985 0.0
C783 C 0.51894 0.27972 0.30139 0.0
C784 C 0.50895 0.28382 0.42987 0.0
C785 C 0.52527 0.29612 0.44198 0.0
C786 C 0.53937 0.29853 0.38567 0.0
C787 C 0.53617 0.2905 0.31572 0.0
C788 C 0.52551 0.31022 0.50414 0.0
C789 C 0.54206 0.31102 0.55052 0.0
C790 C 0.51148 0.32554 0.50674 0.0
C791 C 0.49437 0.32609 0.456 0.0
C792 C 0.4971 0.33025 0.38029 0.0
C793 C 0.48099 0.33039 0.33216 0.0
C794 C 0.46206 0.32661 0.35939 0.0
C795 C 0.45923 0.3227 0.4348 0.0
C796 C 0.47532 0.32247 0.48307 0.0
C797 C 0.56072 0.39153 0.55385 0.0
C798 C 0.54732 0.40527 0.58234 0.0
C799 C 0.55718 0.3714 0.56237 0.0
C800 C 0.54027 0.36469 0.59998 0.0
C801 C 0.52793 0.37842 0.63459 0.0
C802 C 0.53143 0.39856 0.62592 0.0
C803 C 0.53331 0.3443 0.58694 0.0
C804 C 0.51531 0.3422 0.54958 0.0
C805 C 0.5462 0.328 0.59234 0.0
C806 C 0.56444 0.32898 0.63798 0.0
C807 C 0.56393 0.3373 0.70938 0.0
C808 C 0.58102 0.33832 0.75234 0.0
C809 C 0.59879 0.33107 0.72458 0.0
C810 C 0.59951 0.32283 0.65375 0.0
C811 C 0.58246 0.32177 0.61054 0.0
H812 H 0.61201 0.33189 0.7579 0.0
H813 H 0.44959 0.32673 0.32208 0.0
H814 H 0.26268 0.52966 0.3136 0.0
H815 H 0.24183 0.54318 0.41112 0.0
H816 H 0.2183 0.58547 0.2562 0.0
H817 H 0.2396 0.57249 0.15935 0.0
H818 H 0.21108 0.59694 0.39942 0.0
H819 H 0.20335 0.53854 0.24237 0.0
H820 H 0.21246 0.50583 0.19404 0.0
H821 H 0.21249 0.48237 0.41532 0.0
H822 H 0.20325 0.51498 0.46486 0.0
H823 H 0.10608 0.55523 0.35836 0.0
H824 H 0.14151 0.55661 0.33656 0.0
H825 H 0.14999 0.58386 0.55022 0.0
H826 H 0.11429 0.5826 0.57212 0.0
H827 H 0.1683 0.53764 0.41462 0.0
H828 H 0.19482 0.61095 0.53506 0.0
H829 H 0.18223 0.64423 0.56274 0.0
H830 H 0.14039 0.63912 0.38544 0.0
H831 H 0.1529 0.60593 0.35624 0.0
C832 C 0.25403 0.54267 0.30152 0.0
C833 C 0.2521 0.54957 0.22836 0.0
C834 C 0.24206 0.55037 0.35743 0.0
C835 C 0.22796 0.56474 0.3399 0.0
C836 C 0.22885 0.57415 0.27063 0.0
C837 C 0.24093 0.5666 0.21501 0.0
C838 C 0.2092 0.56561 0.38156 0.0
C839 C 0.20184 0.58393 0.4045 0.0
C840 C 0.19699 0.54869 0.38669 0.0
C841 C 0.20292 0.52921 0.35733 0.0
C842 C 0.20544 0.52642 0.2807 0.0
C843 C 0.2106 0.50792 0.25308 0.0
C844 C 0.2132 0.49207 0.30161 0.0
C845 C 0.21055 0.49468 0.37783 0.0
C846 C 0.20533 0.51316 0.4057 0.0
C847 C 0.11549 0.56164 0.40041 0.0
C848 C 0.10754 0.5687 0.46698 0.0
C849 C 0.13569 0.56243 0.38803 0.0
C850 C 0.14837 0.57021 0.44205 0.0
C851 C 0.14044 0.57793 0.50768 0.0
C852 C 0.1201 0.57722 0.52001 0.0
C853 C 0.16986 0.56908 0.42977 0.0
C854 C 0.17774 0.55058 0.4127 0.0
C855 C 0.18218 0.58592 0.42775 0.0
C856 C 0.17462 0.60588 0.44424 0.0
C857 C 0.18295 0.61696 0.50199 0.0
C858 C 0.17583 0.6358 0.51791 0.0
C859 C 0.16046 0.64375 0.47608 0.0
C860 C 0.15223 0.63291 0.41803 0.0
C861 C 0.15931 0.61407 0.40186 0.0
H862 H 0.15496 0.65832 0.48851 0.0
H863 H 0.21718 0.47775 0.28011 0.0
H864 H 1.00572 0.75677 0.11247 0.0
H865 H 0.01404 0.77712 0.00562 0.0
H866 H 0.97157 0.82039 0.07523 0.0
H867 H 0.96239 0.7997 0.18022 0.0
H868 H 0.98589 0.82171 0.91182 0.0
H869 H 0.01413 0.83429 0.18371 0.0
H870 H 0.02574 0.81834 0.29806 0.0
H871 H 0.05757 0.77575 0.16947 0.0
H872 H 0.04659 0.79204 0.05399 0.0
H873 H 0.01234 0.91799 0.04186 0.0
H874 H 1.00361 0.88309 0.04145 0.0
H875 H 0.05354 0.87051 0.90191 0.0
H876 H 0.06297 0.90541 0.90458 0.0
H877 H 0.04168 0.84838 0.05876 0.0
H878 H 1.0075 0.83618 0.77952 0.0
H879 H 0.99064 0.85266 0.67559 0.0
H880 H 0.96812 0.89649 0.82406 0.0
H881 H 0.98362 0.87949 0.92946 0.0
C882 C 0.99717 0.76996 0.10254 0.0
C883 C 0.98401 0.77712 0.15645 0.0
C884 C 1.00199 0.7816 0.04118 0.0
C885 C 0.99394 0.8005 0.03453 0.0
C886 C 0.97811 0.80589 0.0801 0.0
C887 C 0.97307 0.79416 0.14075 0.0
C888 C 1.00586 0.81652 1.00226 0.0
C889 C 0.99852 0.82729 0.94208 0.0
C890 C 0.02222 0.82382 0.04236 0.0
C891 C 0.02933 0.81414 0.11071 0.0
C892 C 0.02361 0.82153 0.18004 0.0
C893 C 0.03011 0.81244 0.24501 0.0
C894 C 0.04221 0.79584 0.24127 0.0
C895 C 0.04811 0.78853 0.17234 0.0
C896 C 0.04185 0.79776 0.1071 0.0
C897 C 0.02149 0.90784 0.011 0.0
C898 C 0.03791 0.91458 0.97065 0.0
C899 C 0.01633 0.888 0.00998 0.0
C900 C 0.02718 0.87465 0.96732 0.0
C901 C 0.04448 0.8809 0.93204 0.0
C902 C 0.04997 0.90074 0.93459 0.0
C903 C 0.02159 0.85377 0.96894 0.0
C904 C 0.03 0.84226 0.02471 0.0
C905 C 1.00619 0.84599 0.92489 0.0
C906 C 0.99743 0.85699 0.86209 0.0
C907 C 0.9991 0.84944 0.78987 0.0
C908 C 0.98961 0.85876 0.73074 0.0
C909 C 0.9786 0.87581 0.74291 0.0
C910 C 0.97685 0.88342 0.81451 0.0
C911 C 0.98599 0.87392 0.8741 0.0
H912 H 0.97138 0.88307 0.69691 0.0
H913 H 0.04711 0.78873 0.2917 0.0
H914 H 0.72843 0.99125 0.08306 0.0
H915 H 0.71254 1.00871 0.98117 0.0
H916 H 0.75116 0.05846 0.01532 0.0
H917 H 0.76736 0.04074 0.11699 0.0
H918 H 0.71302 0.06628 0.04612 0.0
H919 H 0.74727 0.04206 0.84157 0.0
H920 H 0.76431 0.01867 0.75939 0.0
H921 H 0.71032 0.98674 0.72743 0.0
H922 H 0.69304 1.00958 0.81076 0.0
H923 H 0.62032 0.07611 0.78923 0.0
H924 H 0.65646 0.07773 0.80048 0.0
H925 H 0.65316 0.04347 1.00196 0.0
H926 H 0.61737 0.04174 0.99083 0.0
H927 H 0.68307 0.04403 0.81013 0.0
H928 H 0.68257 0.06367 0.12363 0.0
H929 H 0.66387 0.08515 0.20803 0.0
H930 H 0.64969 0.12359 0.02645 0.0
H931 H 0.66853 0.10245 0.94103 0.0
C932 C 0.73407 1.00555 0.06649 0.0
C933 C 0.74888 0.01482 0.10787 0.0
C934 C 0.72515 0.01547 0.00782 0.0
C935 C 0.7307 0.03489 0.99055 0.0
C936 C 0.74682 0.04342 0.0273 0.0
C937 C 0.75598 0.03334 0.0854 0.0
C938 C 0.71635 0.0474 0.95099 0.0
C939 C 0.70675 0.06177 0.99353 0.0
C940 C 0.70844 0.04184 0.8816 0.0
C941 C 0.71881 0.02768 0.83243 0.0
C942 C 0.73904 0.02997 0.81755 0.0
C943 C 0.74875 0.01679 0.77069 0.0
C944 C 0.7384 1.00124 0.73812 0.0
C945 C 0.71832 0.99881 0.75254 0.0
C946 C 0.70854 0.01191 0.79952 0.0
C947 C 0.6274 0.06918 0.83629 0.0
C948 C 0.61619 0.05888 0.88946 0.0
C949 C 0.64794 0.07004 0.84239 0.0
C950 C 0.65732 0.06096 0.9025 0.0
C951 C 0.64609 0.05083 0.95576 0.0
C952 C 0.62571 0.04976 0.94923 0.0
C953 C 0.67895 0.06086 0.90976 0.0
C954 C 0.68983 0.04902 0.86115 0.0
C955 C 0.68792 0.06836 0.97435 0.0
C956 C 0.67706 0.08149 0.02593 0.0
C957 C 0.67566 0.07682 0.1018 0.0
C958 C 0.66497 0.0889 0.1498 0.0
C959 C 0.65561 0.10574 0.12264 0.0
C960 C 0.65695 0.11054 0.04741 0.0
C961 C 0.66762 0.09849 0.99916 0.0
H962 H 0.64732 0.11507 0.15987 0.0
H963 H 0.74594 0.99108 0.70174 0.0
H964 H 0.57571 0.74149 0.14222 0.0
H965 H 0.57309 0.71855 0.0388 0.0
H966 H 0.51832 0.74543 0.97413 0.0
H967 H 0.52109 0.76862 0.07608 0.0
H968 H 0.52642 0.70667 0.08886 0.0
H969 H 0.53685 0.73965 0.85247 0.0
H970 H 0.55834 0.75612 0.76149 0.0
H971 H 0.59182 0.70301 0.73579 0.0
H972 H 0.57119 0.68648 0.82975 0.0
H973 H 0.47255 0.62673 0.96492 0.0
H974 H 0.48512 0.66039 0.97188 0.0
H975 H 0.54214 0.64065 0.89712 0.0
H976 H 0.52942 0.60709 0.88633 0.0
H977 H 0.5346 0.67641 0.84082 0.0
H978 H 0.53343 0.64529 0.0749 0.0
H979 H 0.52085 0.62716 0.18338 0.0
H980 H 0.48 0.67377 0.22865 0.0
H981 H 0.49183 0.69194 0.11854 0.0
C982 C 0.56392 0.74344 0.10249 0.0
C983 C 0.54828 0.7563 0.11798 0.0
C984 C 0.56249 0.73041 0.04303 0.0
C985 C 0.54532 0.7301 0.99992 0.0
C986 C 0.53173 0.74553 0.00661 0.0
C987 C 0.53328 0.75874 0.06538 0.0
C988 C 0.53759 0.71072 0.97805 0.0
C989 C 0.52786 0.70016 0.03414 0.0
C990 C 0.54064 0.70204 0.90797 0.0
C991 C 0.55263 0.7119 0.84962 0.0
C992 C 0.54906 0.73158 0.82899 0.0
C993 C 0.56113 0.74095 0.77678 0.0
C994 C 0.57653 0.73067 0.74325 0.0
C995 C 0.57992 0.71099 0.76197 0.0
C996 C 0.56808 0.70164 0.81497 0.0
C997 C 0.48766 0.62958 0.94878 0.0
C998 C 0.50007 0.61418 0.9263 0.0
C999 C 0.49484 0.64881 0.95289 0.0
C1000 C 0.51461 0.65294 0.93576 0.0
C1001 C 0.52684 0.63776 0.91057 0.0
C1002 C 0.51963 0.61854 0.90582 0.0
C1003 C 0.52292 0.67264 0.95135 0.0
C1004 C 0.53289 0.68308 0.89503 0.0
C1005 C 0.52104 0.68105 0.02263 0.0
C1006 C 0.51333 0.66985 0.08758 0.0
C1007 C 0.52154 0.65156 0.10717 0.0
C1008 C 0.51458 0.64129 0.1692 0.0
C1009 C 0.49965 0.64929 0.21302 0.0
C1010 C 0.49154 0.66756 0.19457 0.0
C1011 C 0.49832 0.67782 0.13215 0.0
H1012 H 0.49439 0.64137 0.26133 0.0
H1013 H 0.58575 0.7379 0.70237 0.0
H1014 H 0.77598 0.44977 0.23998 0.0
H1015 H 0.79818 0.43081 0.1607 0.0
H1016 H 0.79554 0.47657 0.9946 0.0
H1017 H 0.77303 0.4953 0.07297 0.0
H1018 H 0.80468 0.44098 0.93186 0.0
H1019 H 0.82779 0.4826 0.1297 0.0
H1020 H 0.82982 0.49504 0.25797 0.0
H1021 H 0.84696 0.43764 0.33439 0.0
H1022 H 0.84503 0.42487 0.2064 0.0
H1023 H 0.90248 0.4643 0.8287 0.0
H1024 H 0.8681 0.45973 0.86263 0.0
H1025 H 0.88412 0.41155 0.00675 0.0
H1026 H 0.91878 0.41611 0.97297 0.0
H1027 H 0.86629 0.44054 0.07947 0.0
H1028 H 0.85237 0.40476 0.85601 0.0
H1029 H 0.85327 0.39914 0.72101 0.0
H1030 H 0.82113 0.4527 0.6847 0.0
H1031 H 0.82016 0.45869 0.81942 0.0
C1032 C 0.77937 0.45526 0.18494 0.0
C1033 C 0.77311 0.47407 0.16282 0.0
C1034 C 0.79208 0.44447 0.13981 0.0
C1035 C 0.79891 0.45259 0.07284 0.0
C1036 C 0.79051 0.4701 0.04626 0.0
C1037 C 0.77762 0.48079 0.09107 0.0
C1038 C 0.81751 0.44545 0.03958 0.0
C1039 C 0.81817 0.44067 0.96396 0.0
C1040 C 0.8351 0.44523 0.08161 0.0
C1041 C 0.836 0.45272 0.15879 0.0
C1042 C 0.83185 0.4726 0.17398 0.0
C1043 C 0.83307 0.47973 0.24652 0.0
C1044 C 0.83844 0.46712 0.30432 0.0
C1045 C 0.84273 0.44737 0.28959 0.0
C1046 C 0.84163 0.44019 0.21706 0.0
C1047 C 0.89866 0.45222 0.86538 0.0
C1048 C 0.91337 0.44068 0.89877 0.0
C1049 C 0.87892 0.44958 0.8846 0.0
C1050 C 0.87349 0.43523 0.937 0.0
C1051 C 0.88799 0.42269 0.96608 0.0
C1052 C 0.90778 0.42538 0.94711 0.0
C1053 C 0.85366 0.43593 0.97128 0.0
C1054 C 0.85277 0.43988 0.04751 0.0
C1055 C 0.83611 0.43609 0.92891 0.0
C1056 C 0.83626 0.43221 0.84791 0.0
C1057 C 0.84555 0.41537 0.81925 0.0
C1058 C 0.84606 0.4121 0.74275 0.0
C1059 C 0.83728 0.42555 0.6943 0.0
C1060 C 0.8279 0.44226 0.72226 0.0
C1061 C 0.82732 0.44557 0.7987 0.0
H1062 H 0.83773 0.42302 0.63509 0.0
H1063 H 0.83933 0.47266 0.36045 0.0
H1064 H 0.0414 0.23125 0.03568 0.0
H1065 H 0.0449 0.20149 0.95908 0.0
H1066 H 0.9825 0.19058 0.97888 0.0
H1067 H 0.97893 0.2204 0.05231 0.0
H1068 H 0.04057 0.16518 0.99272 0.0
H1069 H 0.9638 0.16326 0.8542 0.0
H1070 H 0.94043 0.18548 0.79151 0.0
H1071 H 0.98788 0.22452 0.73325 0.0
H1072 H 0.01153 0.20257 0.79618 0.0
H1073 H 0.0194 0.06603 0.89698 0.0
H1074 H 0.01941 0.09973 0.94423 0.0
H1075 H 0.01695 0.1221 0.72037 0.0
H1076 H 0.01621 0.08837 0.67311 0.0
H1077 H 0.99467 0.14364 0.79512 0.0
H1078 H 0.06067 0.12314 0.83824 0.0
H1079 H 0.08745 0.10187 0.88396 0.0
H1080 H 0.06754 0.11008 0.10781 0.0
H1081 H 0.04047 0.13119 0.06336 0.0
C1082 C 0.02836 0.22284 0.02158 0.0
C1083 C 1.00989 0.22832 0.05039 0.0
C1084 C 0.03038 0.20564 0.97835 0.0
C1085 C 0.01397 0.19355 0.9622 0.0
C1086 C 0.99543 0.19959 0.9885 0.0
C1087 C 0.99341 0.21669 0.03131 0.0
C1088 C 0.01625 0.17393 0.92368 0.0
C1089 C 0.03057 0.16058 0.94922 0.0
C1090 C 1.00358 0.1677 0.86565 0.0
C1091 C 0.98939 0.18134 0.83025 0.0
C1092 C 0.96922 0.17662 0.82825 0.0
C1093 C 0.95593 0.18917 0.79267 0.0
C1094 C 0.96266 0.20637 0.75817 0.0
C1095 C 0.98268 0.21119 0.76 0.0
C1096 C 0.99603 0.19876 0.79597 0.0
C1097 C 0.01901 0.0781 0.85762 0.0
C1098 C 0.01791 0.07431 0.78096 0.0
C1099 C 0.01913 0.09751 0.88483 0.0
C1100 C 0.01858 0.11381 0.83628 0.0
C1101 C 0.01744 0.11001 0.75961 0.0
C1102 C 0.01707 0.09059 0.73243 0.0
C1103 C 0.01871 0.1347 0.86532 0.0
C1104 C 1.00479 0.14826 0.83823 0.0
C1105 C 0.03216 0.14129 0.92034 0.0
C1106 C 0.04844 0.12862 0.94736 0.0
C1107 C 0.06192 0.12031 0.89717 0.0
C1108 C 0.07717 0.10829 0.92287 0.0
C1109 C 0.07917 0.10459 0.99873 0.0
C1110 C 0.06596 0.11294 0.04906 0.0
C1111 C 0.05067 0.12495 0.02365 0.0
H1112 H 0.09099 0.09529 0.01853 0.0
H1113 H 0.95237 0.21596 0.72998 0.0
H1114 H 0.29919 0.04008 0.04706 0.0
H1115 H 0.32886 0.04462 0.97029 0.0
H1116 H 0.33639 0.9816 0.96062 0.0
H1117 H 0.30664 0.97708 0.0344 0.0
H1118 H 0.36517 0.0368 0.99998 0.0
H1119 H 0.36259 0.96708 0.80974 0.0
H1120 H 0.33788 0.94726 0.74274 0.0
H1121 H 0.2983 0.99645 0.74077 0.0
H1122 H 0.32284 0.0167 0.80648 0.0
H1123 H 0.46183 0.01397 0.8827 0.0
H1124 H 0.42843 0.01395 0.93293 0.0
H1125 H 0.40503 0.02122 0.71225 0.0
H1126 H 0.43847 0.02006 0.66147 0.0
H1127 H 0.38235 0.99805 0.77643 0.0
H1128 H 0.40796 0.06024 0.85441 0.0
H1129 H 0.43162 0.08306 0.91272 0.0
H1130 H 0.42287 0.05449 0.1229 0.0
H1131 H 0.39934 0.03134 0.06567 0.0
C1132 C 0.30685 0.02721 0.02657 0.0
C1133 C 0.30048 1.00822 0.04708 0.0
C1134 C 0.32399 0.0298 0.98333 0.0
C1135 C 0.33505 0.01347 0.959 0.0
C1136 C 0.32816 0.99451 0.97714 0.0
C1137 C 0.31111 0.99193 0.01995 0.0
C1138 C 0.35442 0.01606 0.91937 0.0
C1139 C 0.36883 0.0284 0.9508 0.0
C1140 C 0.35934 1.00542 0.85419 0.0
C1141 C 0.34452 0.99336 0.81398 0.0
C1142 C 0.34865 0.97371 0.7948 0.0
C1143 C 0.33467 0.9624 0.757 0.0
C1144 C 0.31652 0.97056 0.7378 0.0
C1145 C 0.31232 0.9901 0.75614 0.0
C1146 C 0.32626 1.00151 0.79364 0.0
C1147 C 0.44959 0.0157 0.8448 0.0
C1148 C 0.45294 0.01719 0.76797 0.0
C1149 C 0.43038 0.01582 0.87375 0.0
C1150 C 0.41392 0.01809 0.82703 0.0
C1151 C 0.41729 0.01952 0.75008 0.0
C1152 C 0.4365 0.01894 0.72094 0.0
C1153 C 0.39328 0.01844 0.85809 0.0
C1154 C 0.37865 1.0066 0.82521 0.0
C1155 C 0.38799 0.02992 0.9208 0.0
C1156 C 0.40199 0.04396 0.95558 0.0
C1157 C 0.41115 0.05876 0.91298 0.0
C1158 C 0.42454 0.07176 0.94586 0.0
C1159 C 0.42879 0.07019 0.02144 0.0
C1160 C 0.41959 0.05567 0.06436 0.0
C1161 C 0.4062 0.04263 0.03175 0.0
H1162 H 0.43917 0.08024 0.04678 0.0
H1163 H 0.30575 0.96179 0.70836 0.0
H1164 H 0.47925 0.29693 1.00005 0.0
H1165 H 0.47822 0.32797 0.92932 0.0
H1166 H 0.53784 0.34082 0.99614 0.0
H1167 H 0.5388 0.3101 0.06665 0.0
H1168 H 0.51749 0.37161 0.02117 0.0
H1169 H 0.525 0.33022 0.8152 0.0
H1170 H 0.51961 0.30365 0.72465 0.0
H1171 H 0.46256 0.32711 0.67329 0.0
H1172 H 0.46768 0.35394 0.7632 0.0
H1173 H 0.53707 0.44972 0.75668 0.0
H1174 H 0.53587 0.41638 0.80817 0.0
H1175 H 0.47335 0.4219 0.84253 0.0
H1176 H 0.47447 0.45574 0.79287 0.0
H1177 H 0.49364 0.38249 0.76474 0.0
H1178 H 0.4902 0.42474 0.98435 0.0
H1179 H 0.50211 0.45251 0.0602 0.0
H1180 H 0.5595 0.42623 0.07135 0.0
H1181 H 0.54799 0.39845 0.99453 0.0
C1182 C 0.4923 0.30613 0.99792 0.0
C1183 C 0.50908 0.30097 0.03941 0.0
C1184 C 0.4917 0.32399 0.95761 0.0
C1185 C 0.50791 0.33707 0.95745 0.0
C1186 C 0.52499 0.33131 0.99569 0.0
C1187 C 0.52558 0.3136 0.03583 0.0
C1188 C 0.50679 0.35727 0.92238 0.0
C1189 C 0.51241 0.37377 0.96476 0.0
C1190 C 0.5002 0.36054 0.84862 0.0
C1191 C 0.49663 0.34398 0.79672 0.0
C1192 C 0.51122 0.32962 0.78514 0.0
C1193 C 0.50826 0.31455 0.73367 0.0
C1194 C 0.49072 0.31362 0.69348 0.0
C1195 C 0.47614 0.32782 0.7045 0.0
C1196 C 0.47909 0.34301 0.75558 0.0
C1197 C 0.52299 0.44396 0.77513 0.0
C1198 C 0.50586 0.45564 0.77093 0.0
C1199 C 0.52236 0.42479 0.80455 0.0
C1200 C 0.50454 0.41654 0.82929 0.0
C1201 C 0.48729 0.4279 0.82364 0.0
C1202 C 0.48797 0.4473 0.79554 0.0
C1203 C 0.5043 0.39639 0.86366 0.0
C1204 C 0.49856 0.38004 0.82114 0.0
C1205 C 0.51146 0.3931 0.93621 0.0
C1206 C 0.51829 0.40965 0.9831 0.0
C1207 C 0.50541 0.42499 1.0024 0.0
C1208 C 0.51207 0.4407 0.04569 0.0
C1209 C 0.53157 0.44117 0.0704 0.0
C1210 C 0.54442 0.42587 0.05208 0.0
C1211 C 0.53782 0.41013 0.00873 0.0
H1212 H 0.5367 0.45335 0.1039 0.0
H1213 H 0.48847 0.30194 0.65361 0.0
H1214 H 0.2276 0.54019 0.95996 0.0
H1215 H 0.19521 0.53685 0.90154 0.0
H1216 H 0.18794 0.47985 0.00426 0.0
H1217 H 0.22049 0.48326 0.0629 0.0
H1218 H 0.17693 0.51267 0.80724 0.0
H1219 H 0.14208 0.47404 0.05994 0.0
H1220 H 0.14584 0.47287 0.19614 0.0
H1221 H 0.16925 0.5317 0.19456 0.0
H1222 H 0.16606 0.53302 0.0585 0.0
H1223 H 0.06448 0.48236 0.84372 0.0
H1224 H 0.09882 0.48048 0.88495 0.0
H1225 H 0.11084 0.53662 0.78179 0.0
H1226 H 0.07683 0.53834 0.73892 0.0
H1227 H 0.12004 0.50205 0.97559 0.0
H1228 H 0.16006 0.54051 0.73101 0.0
H1229 H 0.15624 0.54577 0.59663 0.0
H1230 H 0.12119 0.49321 0.58087 0.0
H1231 H 0.12534 0.48724 0.71487 0.0
C1232 C 0.21934 0.52667 0.9682 0.0
C1233 C 0.22678 0.51183 0.01504 0.0
C1234 C 0.20073 0.52481 0.93509 0.0
C1235 C 0.18884 0.50821 0.94891 0.0
C1236 C 0.19663 0.49294 0.99314 0.0
C1237 C 0.21539 0.49473 0.02581 0.0
C1238 C 0.16804 0.50747 0.92011 0.0
C1239 C 0.16448 0.51045 0.8441 0.0
C1240 C 0.15165 0.50446 0.96764 0.0
C1241 C 0.15401 0.50353 0.04918 0.0
C1242 C 0.14813 0.48666 0.08877 0.0
C1243 C 0.15025 0.48595 0.16588 0.0
C1244 C 0.15797 0.50213 0.20396 0.0
C1245 C 0.16357 0.51907 0.165 0.0
C1246 C 0.1617 0.51977 0.08789 0.0
C1247 C 0.07444 0.49426 0.82932 0.0
C1248 C 0.06772 0.51045 0.78741 0.0
C1249 C 0.09415 0.49319 0.85317 0.0
C1250 C 0.10776 0.50823 0.83576 0.0
C1251 C 0.10097 0.52452 0.79472 0.0
C1252 C 0.08135 0.52554 0.77048 0.0
C1253 C 0.12878 0.50718 0.86223 0.0
C1254 C 0.13242 0.50396 0.93814 0.0
C1255 C 0.1452 0.51039 0.81451 0.0
C1256 C 0.14281 0.51357 0.73341 0.0
C1257 C 0.15161 0.53 0.69889 0.0
C1258 C 0.14938 0.53312 0.62272 0.0
C1259 C 0.13832 0.51994 0.58029 0.0
C1260 C 0.12965 0.50348 0.61387 0.0
C1261 C 0.13197 0.5002 0.68998 0.0
H1262 H 0.13654 0.52246 0.52138 0.0
H1263 H 0.15953 0.5016 0.26366 0.0
H1264 H 0.96507 0.79992 0.42825 0.0
H1265 H 0.96857 0.83237 0.48546 0.0
H1266 H 0.03178 0.82765 0.46907 0.0
H1267 H 0.02816 0.79454 0.41582 0.0
H1268 H 0.02462 0.84907 0.58236 0.0
H1269 H 1.00203 0.8519 0.33533 0.0
H1270 H 0.98087 0.84403 0.22834 0.0
H1271 H 0.9313 0.87014 0.33831 0.0
H1272 H 0.95203 0.87777 0.4468 0.0
H1273 H 0.03878 0.95319 0.60996 0.0
H1274 H 0.03765 0.91954 0.56155 0.0
H1275 H 0.97437 0.91929 0.58364 0.0
H1276 H 0.97544 0.95358 0.62662 0.0
H1277 H 0.98341 0.9004 0.46347 0.0
H1278 H 0.01155 0.89992 0.71047 0.0
H1279 H 0.03688 0.91105 0.79729 0.0
H1280 H 0.08132 0.88102 0.67129 0.0
H1281 H 0.0563 0.87086 0.58015 0.0
C1282 C 0.97973 0.80545 0.43982 0.0
C1283 C 0.99633 0.79454 0.418 0.0
C1284 C 0.98176 0.82426 0.47123 0.0
C1285 C 1.00045 0.83307 0.47931 0.0
C1286 C 0.01713 0.82149 0.46306 0.0
C1287 C 0.01509 0.80241 0.43307 0.0
C1288 C 1.0024 0.85457 0.50006 0.0
C1289 C 0.01572 0.86028 0.55568 0.0
C1290 C 0.99102 0.86952 0.46529 0.0
C1291 C 0.97856 0.86526 0.39959 0.0
C1292 C 0.98659 0.85587 0.33694 0.0
C1293 C 0.97468 0.85144 0.27603 0.0
C1294 C 0.95477 0.85656 0.27659 0.0
C1295 C 0.94673 0.86616 0.33802 0.0
C1296 C 0.95855 0.87053 0.39928 0.0
C1297 C 0.02461 0.94598 0.60433 0.0
C1298 C 1.00722 0.95608 0.62304 0.0
C1299 C 0.02396 0.92661 0.57679 0.0
C1300 C 1.00595 0.91632 0.57057 0.0
C1301 C 0.98852 0.9266 0.58803 0.0
C1302 C 0.98913 0.94625 0.61308 0.0
C1303 C 1.00519 0.89488 0.54746 0.0
C1304 C 0.9922 0.88919 0.4906 0.0
C1305 C 0.01734 0.88006 0.57965 0.0
C1306 C 0.032 0.88472 0.63802 0.0
C1307 C 0.02667 0.89557 0.70125 0.0
C1308 C 0.04105 0.90183 0.75113 0.0
C1309 C 0.06074 0.8966 0.74035 0.0
C1310 C 0.06606 0.88507 0.67958 0.0
C1311 C 0.0518 0.8792 0.62838 0.0
H1312 H 0.07194 0.90157 0.7786 0.0
H1313 H 0.94558 0.85313 0.22936 0.0
H1314 H 0.71392 0.9726 0.29793 0.0
H1315 H 0.68257 0.97349 0.36472 0.0
H1316 H 0.70445 0.02082 0.50094 0.0
H1317 H 0.73618 0.01968 0.43429 0.0
H1318 H 0.67938 0.99698 0.58166 0.0
H1319 H 0.67702 0.03114 0.35304 0.0
H1320 H 0.68172 0.03653 0.21907 0.0
H1321 H 0.6411 0.98965 0.17158 0.0
H1322 H 0.63649 0.98365 0.30552 0.0
H1323 H 0.58173 0.02894 0.67575 0.0
H1324 H 0.6156 0.02726 0.63039 0.0
H1325 H 0.59954 0.97951 0.48517 0.0
H1326 H 0.56545 0.98131 0.52947 0.0
H1327 H 0.62235 1.00594 0.4131 0.0
H1328 H 0.62737 0.97134 0.6489 0.0
H1329 H 0.62141 0.96921 0.78368 0.0
H1330 H 0.65553 0.02169 0.81739 0.0
H1331 H 0.66192 0.02408 0.68268 0.0
C1332 C 0.71228 0.98279 0.34368 0.0
C1333 C 0.72761 0.99597 0.36108 0.0
C1334 C 0.69424 0.98343 0.38149 0.0
C1335 C 0.69082 0.99752 0.43709 0.0
C1336 C 0.70658 1.00985 0.45821 0.0
C1337 C 0.72479 1.00912 0.42039 0.0
C1338 C 0.67037 1.00027 0.46777 0.0
C1339 C 0.66698 0.99914 0.54472 0.0
C1340 C 0.65396 1.00321 0.42021 0.0
C1341 C 0.65656 1.00681 0.33945 0.0
C1342 C 0.6692 0.02185 0.31408 0.0
C1343 C 0.67184 0.02504 0.23811 0.0
C1344 C 0.66172 0.01344 0.18679 0.0
C1345 C 0.64894 0.99862 0.21141 0.0
C1346 C 0.64632 0.99531 0.28738 0.0
C1347 C 0.58532 0.01801 0.63426 0.0
C1348 C 0.57066 1.00524 0.60652 0.0
C1349 C 0.60485 0.01699 0.60856 0.0
C1350 C 0.6104 1.00309 0.55472 0.0
C1351 C 0.59578 0.99037 0.52675 0.0
C1352 C 0.57622 0.99136 0.55244 0.0
C1353 C 0.63126 1.00201 0.52657 0.0
C1354 C 0.63474 1.00365 0.44996 0.0
C1355 C 0.64771 0.99994 0.57452 0.0
C1356 C 0.64505 0.99791 0.65577 0.0
C1357 C 0.6337 0.98237 0.68512 0.0
C1358 C 0.63027 0.98113 0.76145 0.0
C1359 C 0.63813 0.99533 0.80899 0.0
C1360 C 0.64958 1.0107 0.78037 0.0
C1361 C 0.65319 0.01194 0.70411 0.0
H1362 H 0.63533 0.99444 0.86801 0.0
H1363 H 0.66376 0.01596 0.12797 0.0
H1364 H 0.50142 0.73692 0.40269 0.0
H1365 H 0.49672 0.70469 0.46408 0.0
H1366 H 0.55572 0.68808 0.4026 0.0
H1367 H 0.56066 0.72009 0.34389 0.0
H1368 H 0.52759 0.65996 0.36139 0.0
H1369 H 0.54403 0.70006 0.57176 0.0
H1370 H 0.539 0.72745 0.65828 0.0
H1371 H 0.48462 0.70159 0.73216 0.0
H1372 H 0.48853 0.67472 0.64163 0.0
H1373 H 0.54218 0.56832 0.53807 0.0
H1374 H 0.54457 0.60222 0.49364 0.0
H1375 H 0.49323 0.61757 0.62238 0.0
H1376 H 0.49184 0.58388 0.67153 0.0
H1377 H 0.51461 0.64691 0.62754 0.0
H1378 H 0.49485 0.60981 0.41286 0.0
H1379 H 0.49698 0.58312 0.32052 0.0
H1380 H 0.5548 0.60278 0.25731 0.0
H1381 H 0.55298 0.62961 0.34916 0.0
C1382 C 0.51355 0.7266 0.40406 0.0
C1383 C 0.53138 0.73119 0.36764 0.0
C1384 C 0.51079 0.70806 0.4386 0.0
C1385 C 0.52579 0.6937 0.43731 0.0
C1386 C 0.5438 0.69866 0.40379 0.0
C1387 C 0.54662 0.7171 0.37031 0.0
C1388 C 0.52288 0.67324 0.46811 0.0
C1389 C 0.52485 0.65714 0.41976 0.0
C1390 C 0.51869 0.66937 0.54388 0.0
C1391 C 0.51641 0.68551 0.59867 0.0
C1392 C 0.5308 0.70035 0.60532 0.0
C1393 C 0.52817 0.71579 0.65537 0.0
C1394 C 0.51158 0.71622 0.70123 0.0
C1395 C 0.49746 0.70127 0.69655 0.0
C1396 C 0.49979 0.68602 0.64534 0.0
C1397 C 0.53139 0.57892 0.55702 0.0
C1398 C 0.51672 0.57324 0.608 0.0
C1399 C 0.53261 0.5984 0.53076 0.0
C1400 C 0.51867 0.61271 0.55199 0.0
C1401 C 0.50417 0.60706 0.60409 0.0
C1402 C 0.50333 0.58769 0.63223 0.0
C1403 C 0.51939 0.63346 0.52087 0.0
C1404 C 0.51707 0.64965 0.569 0.0
C1405 C 0.52286 0.63749 0.4445 0.0
C1406 C 0.52384 0.62159 0.38833 0.0
C1407 C 0.50803 0.60839 0.37938 0.0
C1408 C 0.50918 0.59327 0.32706 0.0
C1409 C 0.52605 0.59121 0.28328 0.0
C1410 C 0.54177 0.60435 0.29142 0.0
C1411 C 0.54065 0.61958 0.34331 0.0
H1412 H 0.52692 0.57947 0.24289 0.0
H1413 H 0.50966 0.72814 0.74032 0.0
H1414 H 0.78896 0.48576 0.44174 0.0
H1415 H 0.82013 0.4886 0.50962 0.0
H1416 H 0.83318 0.54259 0.39307 0.0
H1417 H 0.80179 0.53989 0.32587 0.0
H1418 H 0.86359 0.5146 0.38505 0.0
H1419 H 0.82295 0.54377 0.57517 0.0
H1420 H 0.79498 0.54471 0.66246 0.0
H1421 H 0.81611 0.49235 0.7696 0.0
H1422 H 0.84405 0.49087 0.68213 0.0
H1423 H 0.95262 0.54008 0.55947 0.0
H1424 H 0.91908 0.5397 0.51153 0.0
H1425 H 0.90356 0.49396 0.66767 0.0
H1426 H 0.93708 0.49493 0.71824 0.0
H1427 H 0.87375 0.51663 0.65718 0.0
H1428 H 0.91276 0.48539 0.47376 0.0
H1429 H 0.9402 0.48092 0.3857 0.0
H1430 H 0.92176 0.53213 0.26433 0.0
H1431 H 0.89436 0.53708 0.35229 0.0
C1432 C 0.79814 0.49863 0.43274 0.0
C1433 C 0.79266 0.51286 0.37972 0.0
C1434 C 0.81605 0.50017 0.47121 0.0
C1435 C 0.82912 0.51584 0.45683 0.0
C1436 C 0.82338 0.5304 0.40551 0.0
C1437 C 0.8053 0.52901 0.36781 0.0
C1438 C 0.84925 0.51626 0.4912 0.0
C1439 C 0.86581 0.51542 0.44452 0.0
C1440 C 0.85227 0.51627 0.56898 0.0
C1441 C 0.83549 0.51712 0.62163 0.0
C1442 C 0.82154 0.53235 0.6169 0.0
C1443 C 0.8057 0.53298 0.66648 0.0
C1444 C 0.80374 0.51855 0.72139 0.0
C1445 C 0.81763 0.50347 0.72692 0.0
C1446 C 0.83348 0.50274 0.67739 0.0
C1447 C 0.9421 0.52995 0.58396 0.0
C1448 C 0.94773 0.51745 0.64262 0.0
C1449 C 0.92283 0.52963 0.55595 0.0
C1450 C 0.90863 0.51644 0.58421 0.0
C1451 C 0.91408 0.50425 0.64417 0.0
C1452 C 0.93334 0.5048 0.67316 0.0
C1453 C 0.88827 0.51542 0.55093 0.0
C1454 C 0.87163 0.51594 0.59766 0.0
C1455 C 0.88513 0.51459 0.47307 0.0
C1456 C 0.90163 0.51172 0.42011 0.0
C1457 C 0.91465 0.49579 0.42864 0.0
C1458 C 0.93018 0.49316 0.37868 0.0
C1459 C 0.93276 0.50626 0.31958 0.0
C1460 C 0.91977 0.52201 0.31021 0.0
C1461 C 0.90423 0.52473 0.36007 0.0
H1462 H 0.94478 0.50419 0.28094 0.0
H1463 H 0.79148 0.51908 0.75976 0.0
loop_
_geom_bond_atom_site_label_1
_geom_bond_atom_site_label_2
_geom_bond_distance
_geom_bond_site_symmetry_2
_ccdc_geom_bond_type
H0 C7 0.929 . S
H1 C10 0.930 . S
H2 C12 0.929 . S
H3 C4 0.969 . S
C4 H3 0.969 . S
C4 O5 1.550 . S
C4 H6 0.973 . S
O5 C4 1.550 . S
O5 C11 1.412 . S
H6 C4 0.973 . S
C7 H0 0.929 . S
C7 C8 1.400 . S
C7 C9 1.364 . S
C8 C7 1.400 . S
C8 C12 1.377 . S
C9 C7 1.364 . S
C9 C10 1.374 . S
C10 H1 0.930 . S
C10 C9 1.374 . S
C10 C11 1.383 . S
C11 O5 1.412 . S
C11 C10 1.383 . S
C11 C12 1.394 . S
C12 H2 0.929 . S
C12 C8 1.377 . S
C12 C11 1.394 . S
H13 C20 0.928 . S
H14 C23 0.930 . S
H15 C25 0.928 1_655 S
H16 C17 0.969 . S
C17 H16 0.969 . S
C17 O18 1.550 1_455 S
C17 H19 0.973 1_455 S
O18 C17 1.550 1_655 S
O18 C24 1.406 1_655 S
H19 C17 0.973 1_655 S
C20 H13 0.928 . S
C20 C21 1.400 1_655 S
C20 C22 1.364 1_655 S
C21 C20 1.400 1_455 S
C21 C25 1.377 . S
C22 C20 1.364 1_455 S
C22 C23 1.374 1_455 S
C23 H14 0.930 . S
C23 C22 1.374 1_655 S
C23 C24 1.382 1_655 S
C24 O18 1.406 1_455 S
C24 C23 1.382 1_455 S
C24 C25 1.394 . S
C25 H15 0.928 1_455 S
C25 C21 1.377 . S
C25 C24 1.394 . S
H26 C33 0.928 . S
H27 C36 0.930 . S
H28 C38 0.928 1_565 S
H29 C30 0.969 . S
C30 H29 0.969 . S
C30 O31 1.550 1_545 S
C30 H32 0.973 1_545 S
O31 C30 1.550 1_565 S
O31 C37 1.406 1_565 S
H32 C30 0.973 1_565 S
C33 H26 0.928 . S
C33 C34 1.400 1_565 S
C33 C35 1.364 1_565 S
C34 C33 1.400 1_545 S
C34 C38 1.377 . S
C35 C33 1.364 1_545 S
C35 C36 1.374 1_545 S
C36 H27 0.930 . S
C36 C35 1.374 1_565 S
C36 C37 1.382 1_565 S
C37 O31 1.406 1_545 S
C37 C36 1.382 1_545 S
C37 C38 1.394 . S
C38 H28 0.928 1_545 S
C38 C34 1.377 . S
C38 C37 1.394 . S
H39 C46 0.929 . S
H40 C49 0.930 . S
H41 C51 0.929 . S
H42 C43 0.969 . S
C43 H42 0.969 . S
C43 O44 1.550 . S
C43 H45 0.973 . S
O44 C43 1.550 . S
O44 C50 1.412 . S
H45 C43 0.973 . S
C46 H39 0.929 . S
C46 C47 1.400 . S
C46 C48 1.364 . S
C47 C46 1.400 . S
C47 C51 1.377 . S
C48 C46 1.364 . S
C48 C49 1.374 . S
C49 H40 0.930 . S
C49 C48 1.374 . S
C49 C50 1.383 . S
C50 O44 1.412 . S
C50 C49 1.383 . S
C50 C51 1.394 . S
C51 H41 0.929 . S
C51 C47 1.377 . S
C51 C50 1.394 . S
H52 C59 0.929 . S
H53 C62 0.930 . S
H54 C64 0.929 . S
H55 C56 0.969 . S
C56 H55 0.969 . S
C56 O57 1.550 . S
C56 H58 0.973 . S
O57 C56 1.550 . S
O57 C63 1.412 . S
H58 C56 0.973 . S
C59 H52 0.929 . S
C59 C60 1.400 1_554 S
C59 C61 1.364 . S
C60 C59 1.400 1_556 S
C60 C64 1.377 . S
C61 C59 1.364 . S
C61 C62 1.374 . S
C62 H53 0.930 . S
C62 C61 1.374 . S
C62 C63 1.383 . S
C63 O57 1.412 . S
C63 C62 1.383 . S
C63 C64 1.394 1_554 S
C64 H54 0.929 . S
C64 C60 1.377 . S
C64 C63 1.394 1_556 S
H65 C72 0.929 1_655 S
H66 C75 0.930 . S
H67 C77 0.928 1_655 S
H68 C69 0.969 . S
C69 H68 0.969 . S
C69 O70 1.550 1_455 S
C69 H71 0.973 1_455 S
O70 C69 1.550 1_655 S
O70 C76 1.402 1_655 S
H71 C69 0.973 1_655 S
C72 H65 0.929 1_455 S
C72 C73 1.400 1_554 S
C72 C74 1.364 . S
C73 C72 1.400 1_556 S
C73 C77 1.377 . S
C74 C72 1.364 . S
C74 C75 1.374 1_455 S
C75 H66 0.930 . S
C75 C74 1.374 1_655 S
C75 C76 1.382 1_655 S
C76 O70 1.402 1_455 S
C76 C75 1.382 1_455 S
C76 C77 1.394 1_554 S
C77 H67 0.928 1_455 S
C77 C73 1.377 . S
C77 C76 1.394 1_556 S
H78 C85 0.929 1_565 S
H79 C88 0.930 . S
H80 C90 0.928 1_565 S
H81 C82 0.969 . S
C82 H81 0.969 . S
C82 O83 1.550 1_545 S
C82 H84 0.973 1_545 S
O83 C82 1.550 1_565 S
O83 C89 1.402 1_565 S
H84 C82 0.973 1_565 S
C85 H78 0.929 1_545 S
C85 C86 1.400 1_554 S
C85 C87 1.364 . S
C86 C85 1.400 1_556 S
C86 C90 1.377 . S
C87 C85 1.364 . S
C87 C88 1.374 1_545 S
C88 H79 0.930 . S
C88 C87 1.374 1_565 S
C88 C89 1.382 1_565 S
C89 O83 1.402 1_545 S
C89 C88 1.382 1_545 S
C89 C90 1.394 1_554 S
C90 H80 0.928 1_545 S
C90 C86 1.377 . S
C90 C89 1.394 1_556 S
H91 C98 0.929 . S
H92 C101 0.930 . S
H93 C103 0.929 . S
H94 C95 0.969 . S
C95 H94 0.969 . S
C95 O96 1.550 . S
C95 H97 0.973 . S
O96 C95 1.550 . S
O96 C102 1.412 . S
H97 C95 0.973 . S
C98 H91 0.929 . S
C98 C99 1.400 1_554 S
C98 C100 1.364 . S
C99 C98 1.400 1_556 S
C99 C103 1.377 . S
C100 C98 1.364 . S
C100 C101 1.374 . S
C101 H92 0.930 . S
C101 C100 1.374 . S
C101 C102 1.383 . S
C102 O96 1.412 . S
C102 C101 1.383 . S
C102 C103 1.394 1_554 S
C103 H93 0.929 . S
C103 C99 1.377 . S
C103 C102 1.394 1_556 S
Tb104 C114 2.825 . S
Tb104 O115 2.347 1_455 S
Tb104 O118 2.366 . S
Tb104 O123 2.418 . S
Tb104 O124 2.384 1_565 S
Tb104 O127 2.479 . S
Tb104 O128 2.471 . S
Eu105 O116 2.418 . S
Eu105 O117 2.384 1_545 S
Eu105 O120 2.479 . S
Eu105 O121 2.471 . S
Eu105 O122 2.347 1_655 S
Eu105 O125 2.366 . S
Eu105 C135 2.825 . S
C106 O122 1.259 1_565 S
C106 O123 1.265 . S
C107 O124 1.255 . S
C107 O125 1.265 1_455 S
C108 C110 1.380 . S
C108 C111 1.374 . S
C108 C114 1.507 . S
C109 C110 1.384 . S
C109 C113 1.387 . S
C109 H136 0.930 . S
C110 C108 1.380 . S
C110 C109 1.384 . S
C110 H137 0.931 . S
C111 C108 1.374 . S
C111 C112 1.390 . S
C111 H138 0.930 1_455 S
C112 C111 1.390 . S
C112 C113 1.391 . S
C112 H139 0.930 1_455 S
C113 C109 1.387 . S
C113 C112 1.391 . S
C114 Tb104 2.825 . S
C114 C108 1.507 . S
C114 O127 1.238 . S
C114 O128 1.247 . S
O115 Tb104 2.347 1_655 S
O115 C119 1.259 1_565 S
O116 Eu105 2.418 . S
O116 C119 1.265 . S
O117 Eu105 2.384 1_565 S
O117 C126 1.255 . S
O118 Tb104 2.366 . S
O118 C126 1.265 1_455 S
C119 O115 1.259 1_545 S
C119 O116 1.265 . S
O120 Eu105 2.479 . S
O120 C135 1.238 . S
O121 Eu105 2.471 . S
O121 C135 1.247 . S
O122 Eu105 2.347 1_455 S
O122 C106 1.259 1_545 S
O123 Tb104 2.418 . S
O123 C106 1.265 . S
O124 Tb104 2.384 1_545 S
O124 C107 1.255 . S
O125 Eu105 2.366 . S
O125 C107 1.265 1_655 S
C126 O117 1.255 . S
C126 O118 1.265 1_655 S
O127 Tb104 2.479 . S
O127 C114 1.238 . S
O128 Tb104 2.471 . S
O128 C114 1.247 . S
C129 C132 1.380 . S
C129 C133 1.374 . S
C129 C135 1.507 . S
C130 C131 1.387 . S
C130 C134 1.391 . S
C131 C130 1.387 . S
C131 C132 1.384 . S
C131 H140 0.930 . S
C132 C129 1.380 . S
C132 C131 1.384 . S
C132 H141 0.931 . S
C133 C129 1.374 . S
C133 C134 1.390 . S
C133 H142 0.930 1_655 S
C134 C130 1.391 . S
C134 C133 1.390 . S
C134 H143 0.930 1_655 S
C135 Eu105 2.825 . S
C135 O120 1.238 . S
C135 O121 1.247 . S
C135 C129 1.507 . S
H136 C109 0.930 . S
H137 C110 0.931 . S
H138 C111 0.930 1_655 S
H139 C112 0.930 1_655 S
H140 C131 0.930 . S
H141 C132 0.931 . S
H142 C133 0.930 1_455 S
H143 C134 0.930 1_455 S
Tb144 C154 2.825 . S
Tb144 O155 2.347 1_545 S
Tb144 O158 2.366 . S
Tb144 O163 2.418 . S
Tb144 O164 2.384 . S
Tb144 O167 2.479 . S
Tb144 O168 2.471 . S
Eu145 O156 2.418 . S
Eu145 O157 2.384 . S
Eu145 O160 2.479 . S
Eu145 O161 2.471 . S
Eu145 O162 2.347 1_565 S
Eu145 O165 2.366 . S
Eu145 C175 2.825 . S
C146 O162 1.259 . S
C146 O163 1.265 . S
C147 O164 1.255 . S
C147 O165 1.265 1_545 S
C148 C150 1.380 . S
C148 C151 1.374 . S
C148 C154 1.507 . S
C149 C150 1.384 . S
C149 C153 1.387 . S
C149 H176 0.930 . S
C150 C148 1.380 . S
C150 C149 1.384 . S
C150 H177 0.931 . S
C151 C148 1.374 . S
C151 C152 1.390 . S
C151 H178 0.930 1_545 S
C152 C151 1.390 . S
C152 C153 1.391 . S
C152 H179 0.930 1_545 S
C153 C149 1.387 . S
C153 C152 1.391 . S
C154 Tb144 2.825 . S
C154 C148 1.507 . S
C154 O167 1.238 . S
C154 O168 1.247 . S
O155 Tb144 2.347 1_565 S
O155 C159 1.259 . S
O156 Eu145 2.418 . S
O156 C159 1.265 . S
O157 Eu145 2.384 . S
O157 C166 1.255 . S
O158 Tb144 2.366 . S
O158 C166 1.265 1_545 S
C159 O155 1.259 . S
C159 O156 1.265 . S
O160 Eu145 2.479 . S
O160 C175 1.238 . S
O161 Eu145 2.471 . S
O161 C175 1.247 . S
O162 Eu145 2.347 1_545 S
O162 C146 1.259 . S
O163 Tb144 2.418 . S
O163 C146 1.265 . S
O164 Tb144 2.384 . S
O164 C147 1.255 . S
O165 Eu145 2.366 . S
O165 C147 1.265 1_565 S
C166 O157 1.255 . S
C166 O158 1.265 1_565 S
O167 Tb144 2.479 . S
O167 C154 1.238 . S
O168 Tb144 2.471 . S
O168 C154 1.247 . S
C169 C172 1.380 . S
C169 C173 1.374 . S
C169 C175 1.507 . S
C170 C171 1.387 . S
C170 C174 1.391 . S
C171 C170 1.387 . S
C171 C172 1.384 . S
C171 H180 0.930 . S
C172 C169 1.380 . S
C172 C171 1.384 . S
C172 H181 0.931 . S
C173 C169 1.374 . S
C173 C174 1.390 . S
C173 H182 0.930 1_565 S
C174 C170 1.391 . S
C174 C173 1.390 . S
C174 H183 0.930 1_565 S
C175 Eu145 2.825 . S
C175 O160 1.238 . S
C175 O161 1.247 . S
C175 C169 1.507 . S
H176 C149 0.930 . S
H177 C150 0.931 . S
H178 C151 0.930 1_565 S
H179 C152 0.930 1_565 S
H180 C171 0.930 . S
H181 C172 0.931 . S
H182 C173 0.930 1_545 S
H183 C174 0.930 1_545 S
Tb184 C194 2.825 . S
Tb184 O195 2.347 . S
Tb184 O198 2.366 . S
Tb184 O203 2.418 . S
Tb184 O204 2.384 . S
Tb184 O207 2.479 . S
Tb184 O208 2.471 . S
Eu185 O196 2.418 . S
Eu185 O197 2.384 . S
Eu185 O200 2.479 . S
Eu185 O201 2.471 . S
Eu185 O202 2.347 . S
Eu185 O205 2.366 . S
Eu185 C215 2.825 . S
C186 O202 1.259 . S
C186 O203 1.265 . S
C187 O204 1.255 . S
C187 O205 1.265 . S
C188 C190 1.380 . S
C188 C191 1.374 . S
C188 C194 1.507 . S
C189 C190 1.384 . S
C189 C193 1.387 . S
C189 H216 0.930 . S
C190 C188 1.380 . S
C190 C189 1.384 . S
C190 H217 0.931 . S
C191 C188 1.374 . S
C191 C192 1.390 . S
C191 H218 0.930 . S
C192 C191 1.390 . S
C192 C193 1.391 . S
C192 H219 0.930 . S
C193 C189 1.387 . S
C193 C192 1.391 . S
C194 Tb184 2.825 . S
C194 C188 1.507 . S
C194 O207 1.238 . S
C194 O208 1.247 . S
O195 Tb184 2.347 . S
O195 C199 1.259 . S
O196 Eu185 2.418 . S
O196 C199 1.265 . S
O197 Eu185 2.384 . S
O197 C206 1.255 . S
O198 Tb184 2.366 . S
O198 C206 1.265 . S
C199 O195 1.259 . S
C199 O196 1.265 . S
O200 Eu185 2.479 . S
O200 C215 1.238 . S
O201 Eu185 2.471 . S
O201 C215 1.247 . S
O202 Eu185 2.347 . S
O202 C186 1.259 . S
O203 Tb184 2.418 . S
O203 C186 1.265 . S
O204 Tb184 2.384 . S
O204 C187 1.255 . S
O205 Eu185 2.366 . S
O205 C187 1.265 . S
C206 O197 1.255 . S
C206 O198 1.265 . S
O207 Tb184 2.479 . S
O207 C194 1.238 . S
O208 Tb184 2.471 . S
O208 C194 1.247 . S
C209 C212 1.380 . S
C209 C213 1.374 . S
C209 C215 1.507 . S
C210 C211 1.387 . S
C210 C214 1.391 . S
C211 C210 1.387 . S
C211 C212 1.384 . S
C211 H220 0.930 . S
C212 C209 1.380 . S
C212 C211 1.384 . S
C212 H221 0.931 . S
C213 C209 1.374 . S
C213 C214 1.390 . S
C213 H222 0.930 . S
C214 C210 1.391 . S
C214 C213 1.390 . S
C214 H223 0.930 . S
C215 Eu185 2.825 . S
C215 O200 1.238 . S
C215 O201 1.247 . S
C215 C209 1.507 . S
H216 C189 0.930 . S
H217 C190 0.931 . S
H218 C191 0.930 . S
H219 C192 0.930 . S
H220 C211 0.930 . S
H221 C212 0.931 . S
H222 C213 0.930 . S
H223 C214 0.930 . S
Tb224 C234 2.825 . S
Tb224 O235 2.347 . S
Tb224 O238 2.366 . S
Tb224 O243 2.418 . S
Tb224 O244 2.384 1_655 S
Tb224 O247 2.479 . S
Tb224 O248 2.471 . S
Eu225 O236 2.418 . S
Eu225 O237 2.384 1_455 S
Eu225 O240 2.479 . S
Eu225 O241 2.471 . S
Eu225 O242 2.347 . S
Eu225 O245 2.366 . S
Eu225 C255 2.825 . S
C226 O242 1.259 1_655 S
C226 O243 1.265 . S
C227 O244 1.255 . S
C227 O245 1.265 . S
C228 C230 1.380 . S
C228 C231 1.374 . S
C228 C234 1.507 . S
C229 C230 1.384 . S
C229 C233 1.387 . S
C229 H256 0.930 . S
C230 C228 1.380 . S
C230 C229 1.384 . S
C230 H257 0.931 . S
C231 C228 1.374 . S
C231 C232 1.390 . S
C231 H258 0.930 . S
C232 C231 1.390 . S
C232 C233 1.391 . S
C232 H259 0.930 . S
C233 C229 1.387 . S
C233 C232 1.391 . S
C234 Tb224 2.825 . S
C234 C228 1.507 . S
C234 O247 1.238 . S
C234 O248 1.247 . S
O235 Tb224 2.347 . S
O235 C239 1.259 1_655 S
O236 Eu225 2.418 . S
O236 C239 1.265 . S
O237 Eu225 2.384 1_655 S
O237 C246 1.255 . S
O238 Tb224 2.366 . S
O238 C246 1.265 . S
C239 O235 1.259 1_455 S
C239 O236 1.265 . S
O240 Eu225 2.479 . S
O240 C255 1.238 . S
O241 Eu225 2.471 . S
O241 C255 1.247 . S
O242 Eu225 2.347 . S
O242 C226 1.259 1_455 S
O243 Tb224 2.418 . S
O243 C226 1.265 . S
O244 Tb224 2.384 1_455 S
O244 C227 1.255 . S
O245 Eu225 2.366 . S
O245 C227 1.265 . S
C246 O237 1.255 . S
C246 O238 1.265 . S
O247 Tb224 2.479 . S
O247 C234 1.238 . S
O248 Tb224 2.471 . S
O248 C234 1.247 . S
C249 C252 1.380 . S
C249 C253 1.374 . S
C249 C255 1.507 . S
C250 C251 1.387 . S
C250 C254 1.391 . S
C251 C250 1.387 . S
C251 C252 1.384 . S
C251 H260 0.930 . S
C252 C249 1.380 . S
C252 C251 1.384 . S
C252 H261 0.931 . S
C253 C249 1.374 . S
C253 C254 1.390 . S
C253 H262 0.930 . S
C254 C250 1.391 . S
C254 C253 1.390 . S
C254 H263 0.930 . S
C255 Eu225 2.825 . S
C255 O240 1.238 . S
C255 O241 1.247 . S
C255 C249 1.507 . S
H256 C229 0.930 . S
H257 C230 0.931 . S
H258 C231 0.930 . S
H259 C232 0.930 . S
H260 C251 0.930 . S
H261 C252 0.931 . S
H262 C253 0.930 . S
H263 C254 0.930 . S
H264 C282 0.951 . S
H265 C284 0.951 . S
H266 C286 0.950 . S
H267 C287 0.950 . S
H268 C289 0.950 . S
H269 C292 0.950 . S
H270 C293 0.950 . S
H271 C295 0.950 . S
H272 C296 0.961 . S
H273 C297 0.951 . S
H274 C299 0.951 . S
H275 C301 0.950 . S
H276 C302 0.950 . S
H277 C304 0.950 . S
H278 C307 0.950 . S
H279 C308 0.950 . S
H280 C310 0.950 . S
H281 C311 0.929 1_545 S
C282 H264 0.951 . S
C282 C283 1.365 1_565 S
C282 C284 1.388 . S
C283 C282 1.365 1_545 S
C283 C287 1.385 . S
C284 H265 0.951 . S
C284 C282 1.388 . S
C284 C285 1.366 1_565 S
C285 C284 1.366 1_545 S
C285 C286 1.414 . S
C285 C288 1.499 . S
C286 H266 0.950 . S
C286 C285 1.414 . S
C286 C287 1.374 . S
C287 H267 0.950 . S
C287 C283 1.385 . S
C287 C286 1.374 . S
C288 C285 1.499 . S
C288 C289 1.373 1_545 S
C288 C290 1.389 . S
C289 H268 0.950 . S
C289 C288 1.373 1_565 S
C289 C305 1.377 . S
C290 C288 1.389 . S
C290 C291 1.524 . S
C290 C304 1.377 . S
C291 C290 1.524 . S
C291 C292 1.397 . S
C291 C296 1.363 . S
C292 H269 0.950 . S
C292 C291 1.397 . S
C292 C293 1.334 . S
C293 H270 0.950 . S
C293 C292 1.334 . S
C293 C294 1.287 . S
C294 C293 1.287 . S
C294 C295 1.524 . S
C294 H313 0.913 . S
C295 H271 0.950 . S
C295 C294 1.524 . S
C295 C296 1.415 . S
C296 H272 0.961 . S
C296 C291 1.363 . S
C296 C295 1.415 . S
C297 H273 0.951 . S
C297 C298 1.382 . S
C297 C299 1.388 . S
C298 C297 1.382 . S
C298 C302 1.369 1_545 S
C299 H274 0.951 . S
C299 C297 1.388 . S
C299 C300 1.357 1_545 S
C300 C299 1.357 1_565 S
C300 C301 1.422 . S
C300 C303 1.498 . S
C301 H275 0.950 . S
C301 C300 1.422 . S
C301 C302 1.374 . S
C302 H276 0.950 . S
C302 C298 1.369 1_565 S
C302 C301 1.374 . S
C303 C300 1.498 . S
C303 C304 1.357 1_565 S
C303 C305 1.405 . S
C304 H277 0.950 . S
C304 C290 1.377 . S
C304 C303 1.357 1_545 S
C305 C289 1.377 . S
C305 C303 1.405 . S
C305 C306 1.524 . S
C306 C305 1.524 . S
C306 C307 1.397 . S
C306 C311 1.363 . S
C307 H278 0.950 . S
C307 C306 1.397 . S
C307 C308 1.334 . S
C308 H279 0.950 . S
C308 C307 1.334 . S
C308 C309 1.287 . S
C309 C308 1.287 . S
C309 C310 1.524 . S
C309 H312 0.999 . S
C310 H280 0.950 . S
C310 C309 1.524 . S
C310 C311 1.415 . S
C311 H281 0.929 1_565 S
C311 C306 1.363 . S
C311 C310 1.415 . S
H312 C309 0.999 . S
H313 C294 0.913 . S
H314 C332 0.951 . S
H315 C334 0.951 . S
H316 C336 0.950 . S
H317 C337 0.950 . S
H318 C339 0.950 . S
H319 C342 0.950 . S
H320 C343 0.950 . S
H321 C345 0.950 . S
H322 C346 0.950 . S
H323 C347 0.951 . S
H324 C349 0.951 . S
H325 C351 0.950 . S
H326 C352 0.950 . S
H327 C354 0.950 . S
H328 C357 0.950 . S
H329 C358 0.950 . S
H330 C360 0.950 . S
H331 C361 0.950 . S
C332 H314 0.951 . S
C332 C333 1.366 . S
C332 C334 1.388 . S
C333 C332 1.366 . S
C333 C337 1.385 . S
C334 H315 0.951 . S
C334 C332 1.388 . S
C334 C335 1.366 . S
C335 C334 1.366 . S
C335 C336 1.414 . S
C335 C338 1.499 . S
C336 H316 0.950 . S
C336 C335 1.414 . S
C336 C337 1.374 . S
C337 H317 0.950 . S
C337 C333 1.385 . S
C337 C336 1.374 . S
C338 C335 1.499 . S
C338 C339 1.373 . S
C338 C340 1.389 . S
C339 H318 0.950 . S
C339 C338 1.373 . S
C339 C355 1.377 . S
C340 C338 1.389 . S
C340 C341 1.524 . S
C340 C354 1.377 . S
C341 C340 1.524 . S
C341 C342 1.397 . S
C341 C346 1.363 . S
C342 H319 0.950 . S
C342 C341 1.397 . S
C342 C343 1.334 . S
C343 H320 0.950 . S
C343 C342 1.334 . S
C343 C344 1.287 . S
C344 C343 1.287 . S
C344 C345 1.524 . S
C344 H363 0.913 . S
C345 H321 0.950 . S
C345 C344 1.524 . S
C345 C346 1.415 . S
C346 H322 0.950 . S
C346 C341 1.363 . S
C346 C345 1.415 . S
C347 H323 0.951 . S
C347 C348 1.366 . S
C347 C349 1.388 . S
C348 C347 1.366 . S
C348 C352 1.385 . S
C349 H324 0.951 . S
C349 C347 1.388 . S
C349 C350 1.366 . S
C350 C349 1.366 . S
C350 C351 1.414 . S
C350 C353 1.499 . S
C351 H325 0.950 . S
C351 C350 1.414 . S
C351 C352 1.374 . S
C352 H326 0.950 . S
C352 C348 1.385 . S
C352 C351 1.374 . S
C353 C350 1.499 . S
C353 C354 1.373 . S
C353 C355 1.389 . S
C354 H327 0.950 . S
C354 C340 1.377 . S
C354 C353 1.373 . S
C355 C339 1.377 . S
C355 C353 1.389 . S
C355 C356 1.524 . S
C356 C355 1.524 . S
C356 C357 1.397 . S
C356 C361 1.363 . S
C357 H328 0.950 . S
C357 C356 1.397 . S
C357 C358 1.334 . S
C358 H329 0.950 . S
C358 C357 1.334 . S
C358 C359 1.287 . S
C359 C358 1.287 . S
C359 C360 1.524 . S
C359 H362 0.999 . S
C360 H330 0.950 . S
C360 C359 1.524 . S
C360 C361 1.415 . S
C361 H331 0.950 . S
C361 C356 1.363 . S
C361 C360 1.415 . S
H362 C359 0.999 . S
H363 C344 0.913 . S
H364 C382 0.951 . S
H365 C384 0.951 . S
H366 C386 0.950 . S
H367 C387 0.950 . S
H368 C389 0.950 . S
H369 C392 0.950 . S
H370 C393 0.950 . S
H371 C395 0.950 . S
H372 C396 0.950 . S
H373 C397 0.951 . S
H374 C399 0.951 . S
H375 C401 0.950 . S
H376 C402 0.950 . S
H377 C404 0.950 . S
H378 C407 0.950 . S
H379 C408 0.950 . S
H380 C410 0.950 . S
H381 C411 0.950 . S
C382 H364 0.951 . S
C382 C383 1.366 . S
C382 C384 1.388 . S
C383 C382 1.366 . S
C383 C387 1.385 . S
C384 H365 0.951 . S
C384 C382 1.388 . S
C384 C385 1.366 . S
C385 C384 1.366 . S
C385 C386 1.414 . S
C385 C388 1.499 . S
C386 H366 0.950 . S
C386 C385 1.414 . S
C386 C387 1.374 . S
C387 H367 0.950 . S
C387 C383 1.385 . S
C387 C386 1.374 . S
C388 C385 1.499 . S
C388 C389 1.373 . S
C388 C390 1.389 . S
C389 H368 0.950 . S
C389 C388 1.373 . S
C389 C405 1.377 . S
C390 C388 1.389 . S
C390 C391 1.524 . S
C390 C404 1.377 . S
C391 C390 1.524 . S
C391 C392 1.397 . S
C391 C396 1.363 . S
C392 H369 0.950 . S
C392 C391 1.397 . S
C392 C393 1.334 . S
C393 H370 0.950 . S
C393 C392 1.334 . S
C393 C394 1.287 . S
C394 C393 1.287 . S
C394 C395 1.524 . S
C394 H413 0.913 . S
C395 H371 0.950 . S
C395 C394 1.524 . S
C395 C396 1.415 . S
C396 H372 0.950 . S
C396 C391 1.363 . S
C396 C395 1.415 . S
C397 H373 0.951 . S
C397 C398 1.366 . S
C397 C399 1.388 . S
C398 C397 1.366 . S
C398 C402 1.385 . S
C399 H374 0.951 . S
C399 C397 1.388 . S
C399 C400 1.366 . S
C400 C399 1.366 . S
C400 C401 1.414 . S
C400 C403 1.499 . S
C401 H375 0.950 . S
C401 C400 1.414 . S
C401 C402 1.374 . S
C402 H376 0.950 . S
C402 C398 1.385 . S
C402 C401 1.374 . S
C403 C400 1.499 . S
C403 C404 1.373 . S
C403 C405 1.389 . S
C404 H377 0.950 . S
C404 C390 1.377 . S
C404 C403 1.373 . S
C405 C389 1.377 . S
C405 C403 1.389 . S
C405 C406 1.524 . S
C406 C405 1.524 . S
C406 C407 1.397 . S
C406 C411 1.363 . S
C407 H378 0.950 . S
C407 C406 1.397 . S
C407 C408 1.334 . S
C408 H379 0.950 . S
C408 C407 1.334 . S
C408 C409 1.287 . S
C409 C408 1.287 . S
C409 C410 1.524 . S
C409 H412 0.999 . S
C410 H380 0.950 . S
C410 C409 1.524 . S
C410 C411 1.415 . S
C411 H381 0.950 . S
C411 C406 1.363 . S
C411 C410 1.415 . S
H412 C409 0.999 . S
H413 C394 0.913 . S
H414 C432 0.951 . S
H415 C434 0.951 . S
H416 C436 0.950 . S
H417 C437 0.950 . S
H418 C439 0.950 . S
H419 C442 0.950 . S
H420 C443 0.950 . S
H421 C445 0.950 . S
H422 C446 0.950 . S
H423 C447 0.951 . S
H424 C449 0.951 . S
H425 C451 0.950 . S
H426 C452 0.950 . S
H427 C454 0.950 . S
H428 C457 0.950 . S
H429 C458 0.950 . S
H430 C460 0.950 . S
H431 C461 0.950 . S
C432 H414 0.951 . S
C432 C433 1.369 . S
C432 C434 1.388 . S
C433 C432 1.369 . S
C433 C437 1.382 1_455 S
C434 H415 0.951 . S
C434 C432 1.388 . S
C434 C435 1.356 1_455 S
C435 C434 1.356 1_655 S
C435 C436 1.423 . S
C435 C438 1.498 . S
C436 H416 0.950 . S
C436 C435 1.423 . S
C436 C437 1.374 . S
C437 H417 0.950 . S
C437 C433 1.382 1_655 S
C437 C436 1.374 . S
C438 C435 1.498 . S
C438 C439 1.379 . S
C438 C440 1.382 1_655 S
C439 H418 0.950 . S
C439 C438 1.379 . S
C439 C455 1.377 . S
C440 C438 1.382 1_455 S
C440 C441 1.524 . S
C440 C454 1.377 . S
C441 C440 1.524 . S
C441 C442 1.397 1_455 S
C441 C446 1.363 . S
C442 H419 0.950 . S
C442 C441 1.397 1_655 S
C442 C443 1.334 . S
C443 H420 0.950 . S
C443 C442 1.334 . S
C443 C444 1.287 1_655 S
C444 C443 1.287 1_455 S
C444 C445 1.524 . S
C444 H463 0.913 . S
C445 H421 0.950 . S
C445 C444 1.524 . S
C445 C446 1.415 . S
C446 H422 0.950 . S
C446 C441 1.363 . S
C446 C445 1.415 . S
C447 H423 0.951 . S
C447 C448 1.334 1_655 S
C447 C449 1.388 . S
C448 C447 1.334 1_455 S
C448 C452 1.418 . S
C449 H424 0.951 . S
C449 C447 1.388 . S
C449 C450 1.366 1_655 S
C450 C449 1.366 1_455 S
C450 C451 1.414 . S
C450 C453 1.499 . S
C451 H425 0.950 . S
C451 C450 1.414 . S
C451 C452 1.374 . S
C452 H426 0.950 . S
C452 C448 1.418 . S
C452 C451 1.374 . S
C453 C450 1.499 . S
C453 C454 1.373 . S
C453 C455 1.389 1_455 S
C454 H427 0.950 . S
C454 C440 1.377 . S
C454 C453 1.373 . S
C455 C439 1.377 . S
C455 C453 1.389 1_655 S
C455 C456 1.524 . S
C456 C455 1.524 . S
C456 C457 1.397 1_655 S
C456 C461 1.363 . S
C457 H428 0.950 . S
C457 C456 1.397 1_455 S
C457 C458 1.334 . S
C458 H429 0.950 . S
C458 C457 1.334 . S
C458 C459 1.265 1_455 S
C459 C458 1.265 1_655 S
C459 C460 1.548 . S
C459 H462 1.001 . S
C460 H430 0.950 . S
C460 C459 1.548 . S
C460 C461 1.415 . S
C461 H431 0.950 . S
C461 C456 1.363 . S
C461 C460 1.415 . S
H462 C459 1.001 . S
H463 C444 0.913 . S
H464 C482 0.951 . S
H465 C484 0.951 . S
H466 C486 0.950 . S
H467 C487 0.950 . S
H468 C489 0.950 . S
H469 C492 0.950 . S
H470 C493 0.950 . S
H471 C495 0.950 . S
H472 C496 0.950 . S
H473 C497 0.951 . S
H474 C499 0.951 . S
H475 C501 0.950 1_554 S
H476 C502 0.950 . S
H477 C504 0.950 . S
H478 C507 0.950 . S
H479 C508 0.950 . S
H480 C510 0.950 . S
H481 C511 0.950 . S
C482 H464 0.951 . S
C482 C483 1.365 . S
C482 C484 1.388 . S
C483 C482 1.365 . S
C483 C487 1.385 1_545 S
C484 H465 0.951 . S
C484 C482 1.388 . S
C484 C485 1.375 . S
C485 C484 1.375 . S
C485 C486 1.404 1_545 S
C485 C488 1.499 . S
C486 H466 0.950 . S
C486 C485 1.404 1_565 S
C486 C487 1.374 . S
C487 H467 0.950 . S
C487 C483 1.385 1_565 S
C487 C486 1.374 . S
C488 C485 1.499 . S
C488 C489 1.334 1_545 S
C488 C490 1.426 . S
C489 H468 0.950 . S
C489 C488 1.334 1_565 S
C489 C505 1.377 . S
C490 C488 1.426 . S
C490 C491 1.524 . S
C490 C504 1.377 . S
C491 C490 1.524 . S
C491 C492 1.397 . S
C491 C496 1.363 . S
C492 H469 0.950 . S
C492 C491 1.397 . S
C492 C493 1.334 . S
C493 H470 0.950 . S
C493 C492 1.334 . S
C493 C494 1.287 . S
C494 C493 1.287 . S
C494 C495 1.524 . S
C494 H513 0.913 . S
C495 H471 0.950 . S
C495 C494 1.524 . S
C495 C496 1.415 . S
C496 H472 0.950 . S
C496 C491 1.363 . S
C496 C495 1.415 . S
C497 H473 0.951 . S
C497 C498 1.370 . S
C497 C499 1.388 . S
C498 C497 1.370 . S
C498 C502 1.381 1_565 S
C499 H474 0.951 . S
C499 C497 1.388 . S
C499 C500 1.366 . S
C500 C499 1.366 . S
C500 C501 1.414 1_565 S
C500 C503 1.488 1_556 S
C501 H475 0.950 1_556 S
C501 C500 1.414 1_545 S
C501 C502 1.374 . S
C502 H476 0.950 . S
C502 C498 1.381 1_545 S
C502 C501 1.374 . S
C503 C500 1.488 1_554 S
C503 C504 1.382 1_565 S
C503 C505 1.390 . S
C504 H477 0.950 . S
C504 C490 1.377 . S
C504 C503 1.382 1_545 S
C505 C489 1.377 . S
C505 C503 1.390 . S
C505 C506 1.524 1_554 S
C506 C505 1.524 1_556 S
C506 C507 1.397 . S
C506 C511 1.363 . S
C507 H478 0.950 . S
C507 C506 1.397 . S
C507 C508 1.334 . S
C508 H479 0.950 . S
C508 C507 1.334 . S
C508 C509 1.287 . S
C509 C508 1.287 . S
C509 C510 1.524 . S
C509 H512 0.999 . S
C510 H480 0.950 . S
C510 C509 1.524 . S
C510 C511 1.415 . S
C511 H481 0.950 . S
C511 C506 1.363 . S
C511 C510 1.415 . S
H512 C509 0.999 . S
H513 C494 0.913 . S
H514 C532 0.951 . S
H515 C534 0.951 . S
H516 C536 0.950 . S
H517 C537 0.950 . S
H518 C539 0.950 . S
H519 C542 0.950 . S
H520 C543 0.950 . S
H521 C545 0.950 . S
H522 C546 0.950 . S
H523 C547 0.951 . S
H524 C549 0.951 . S
H525 C551 0.943 1_554 S
H526 C552 0.950 . S
H527 C554 0.950 . S
H528 C557 0.950 . S
H529 C558 0.950 . S
H530 C560 0.950 . S
H531 C561 0.950 . S
C532 H514 0.951 . S
C532 C533 1.366 . S
C532 C534 1.388 . S
C533 C532 1.366 . S
C533 C537 1.385 . S
C534 H515 0.951 . S
C534 C532 1.388 . S
C534 C535 1.366 . S
C535 C534 1.366 . S
C535 C536 1.414 . S
C535 C538 1.499 . S
C536 H516 0.950 . S
C536 C535 1.414 . S
C536 C537 1.374 . S
C537 H517 0.950 . S
C537 C533 1.385 . S
C537 C536 1.374 . S
C538 C535 1.499 . S
C538 C539 1.373 . S
C538 C540 1.389 . S
C539 H518 0.950 . S
C539 C538 1.373 . S
C539 C555 1.377 1_554 S
C540 C538 1.389 . S
C540 C541 1.524 . S
C540 C554 1.377 . S
C541 C540 1.524 . S
C541 C542 1.397 . S
C541 C546 1.363 . S
C542 H519 0.950 . S
C542 C541 1.397 . S
C542 C543 1.334 . S
C543 H520 0.950 . S
C543 C542 1.334 . S
C543 C544 1.287 . S
C544 C543 1.287 . S
C544 C545 1.524 . S
C544 H563 0.913 . S
C545 H521 0.950 . S
C545 C544 1.524 . S
C545 C546 1.415 . S
C546 H522 0.950 . S
C546 C541 1.363 . S
C546 C545 1.415 . S
C547 H523 0.951 . S
C547 C548 1.366 . S
C547 C549 1.388 . S
C548 C547 1.366 . S
C548 C552 1.385 . S
C549 H524 0.951 . S
C549 C547 1.388 . S
C549 C550 1.366 . S
C550 C549 1.366 . S
C550 C551 1.414 . S
C550 C553 1.499 . S
C551 H525 0.943 1_556 S
C551 C550 1.414 . S
C551 C552 1.374 . S
C552 H526 0.950 . S
C552 C548 1.385 . S
C552 C551 1.374 . S
C553 C550 1.499 . S
C553 C554 1.373 1_556 S
C553 C555 1.389 . S
C554 H527 0.950 . S
C554 C540 1.377 . S
C554 C553 1.373 1_554 S
C555 C539 1.377 1_556 S
C555 C553 1.389 . S
C555 C556 1.524 . S
C556 C555 1.524 . S
C556 C557 1.397 . S
C556 C561 1.363 . S
C557 H528 0.950 . S
C557 C556 1.397 . S
C557 C558 1.334 . S
C558 H529 0.950 . S
C558 C557 1.334 . S
C558 C559 1.287 . S
C559 C558 1.287 . S
C559 C560 1.524 . S
C559 H562 0.999 . S
C560 H530 0.950 . S
C560 C559 1.524 . S
C560 C561 1.415 . S
C561 H531 0.950 . S
C561 C556 1.363 . S
C561 C560 1.415 . S
H562 C559 0.999 . S
H563 C544 0.913 . S
H564 C582 0.951 . S
H565 C584 0.951 . S
H566 C586 0.950 . S
H567 C587 0.950 . S
H568 C589 0.950 . S
H569 C592 0.950 . S
H570 C593 0.951 . S
H571 C595 0.950 . S
H572 C596 0.950 . S
H573 C597 0.951 . S
H574 C599 0.951 . S
H575 C601 0.950 . S
H576 C602 0.950 . S
H577 C604 0.950 . S
H578 C607 0.950 . S
H579 C608 0.950 . S
H580 C610 0.950 . S
H581 C611 0.950 . S
C582 H564 0.951 . S
C582 C583 1.366 . S
C582 C584 1.388 . S
C583 C582 1.366 . S
C583 C587 1.385 . S
C584 H565 0.951 . S
C584 C582 1.388 . S
C584 C585 1.366 . S
C585 C584 1.366 . S
C585 C586 1.414 . S
C585 C588 1.499 . S
C586 H566 0.950 . S
C586 C585 1.414 . S
C586 C587 1.374 . S
C587 H567 0.950 . S
C587 C583 1.385 . S
C587 C586 1.374 . S
C588 C585 1.499 . S
C588 C589 1.373 . S
C588 C590 1.389 . S
C589 H568 0.950 . S
C589 C588 1.373 . S
C589 C605 1.377 . S
C590 C588 1.389 . S
C590 C591 1.524 . S
C590 C604 1.377 1_554 S
C591 C590 1.524 . S
C591 C592 1.397 . S
C591 C596 1.363 . S
C592 H569 0.950 . S
C592 C591 1.397 . S
C592 C593 1.334 . S
C593 H570 0.951 . S
C593 C592 1.334 . S
C593 C594 1.287 1_554 S
C594 C593 1.287 1_556 S
C594 C595 1.524 . S
C594 H613 0.913 . S
C595 H571 0.950 . S
C595 C594 1.524 . S
C595 C596 1.415 1_556 S
C596 H572 0.950 . S
C596 C591 1.363 . S
C596 C595 1.415 1_554 S
C597 H573 0.951 . S
C597 C598 1.366 . S
C597 C599 1.388 . S
C598 C597 1.366 . S
C598 C602 1.385 . S
C599 H574 0.951 . S
C599 C597 1.388 . S
C599 C600 1.366 . S
C600 C599 1.366 . S
C600 C601 1.414 . S
C600 C603 1.499 1_556 S
C601 H575 0.950 . S
C601 C600 1.414 . S
C601 C602 1.374 . S
C602 H576 0.950 . S
C602 C598 1.385 . S
C602 C601 1.374 . S
C603 C600 1.499 1_554 S
C603 C604 1.373 1_554 S
C603 C605 1.389 . S
C604 H577 0.950 . S
C604 C590 1.377 1_556 S
C604 C603 1.373 1_556 S
C605 C589 1.377 . S
C605 C603 1.389 . S
C605 C606 1.524 . S
C606 C605 1.524 . S
C606 C607 1.397 . S
C606 C611 1.363 . S
C607 H578 0.950 . S
C607 C606 1.397 . S
C607 C608 1.334 . S
C608 H579 0.950 . S
C608 C607 1.334 . S
C608 C609 1.287 . S
C609 C608 1.287 . S
C609 C610 1.524 . S
C609 H612 0.999 . S
C610 H580 0.950 . S
C610 C609 1.524 . S
C610 C611 1.415 . S
C611 H581 0.950 . S
C611 C606 1.363 . S
C611 C610 1.415 . S
H612 C609 0.999 . S
H613 C594 0.913 . S
H614 C632 0.951 . S
H615 C634 0.951 . S
H616 C636 0.950 . S
H617 C637 0.950 . S
H618 C639 0.950 . S
H619 C642 0.950 . S
H620 C643 0.950 . S
H621 C645 0.950 . S
H622 C646 0.950 . S
H623 C647 0.951 . S
H624 C649 0.951 . S
H625 C651 0.950 . S
H626 C652 0.950 . S
H627 C654 0.950 . S
H628 C657 0.950 . S
H629 C658 0.950 . S
H630 C660 0.950 . S
H631 C661 0.950 1_554 S
C632 H614 0.951 . S
C632 C633 1.367 . S
C632 C634 1.388 . S
C633 C632 1.367 . S
C633 C637 1.383 1_655 S
C634 H615 0.951 . S
C634 C632 1.388 . S
C634 C635 1.400 . S
C635 C634 1.400 . S
C635 C636 1.379 1_655 S
C635 C638 1.498 . S
C636 H616 0.950 . S
C636 C635 1.379 1_455 S
C636 C637 1.374 . S
C637 H617 0.950 . S
C637 C633 1.383 1_455 S
C637 C636 1.374 . S
C638 C635 1.498 . S
C638 C639 1.358 1_655 S
C638 C640 1.404 . S
C639 H618 0.950 . S
C639 C638 1.358 1_455 S
C639 C655 1.377 . S
C640 C638 1.404 . S
C640 C641 1.524 . S
C640 C654 1.377 . S
C641 C640 1.524 . S
C641 C642 1.397 . S
C641 C646 1.363 . S
C642 H619 0.950 . S
C642 C641 1.397 . S
C642 C643 1.334 . S
C643 H620 0.950 . S
C643 C642 1.334 . S
C643 C644 1.287 . S
C644 C643 1.287 . S
C644 C645 1.524 . S
C644 H663 0.913 . S
C645 H621 0.950 . S
C645 C644 1.524 . S
C645 C646 1.415 . S
C646 H622 0.950 . S
C646 C641 1.363 . S
C646 C645 1.415 . S
C647 H623 0.951 . S
C647 C648 1.332 1_455 S
C647 C649 1.388 . S
C648 C647 1.332 1_655 S
C648 C652 1.419 . S
C649 H624 0.951 . S
C649 C647 1.388 . S
C649 C650 1.364 1_455 S
C650 C649 1.364 1_655 S
C650 C651 1.415 . S
C650 C653 1.498 . S
C651 H625 0.950 . S
C651 C650 1.415 . S
C651 C652 1.374 . S
C652 H626 0.950 . S
C652 C648 1.419 . S
C652 C651 1.374 . S
C653 C650 1.498 . S
C653 C654 1.397 1_556 S
C653 C655 1.366 1_656 S
C654 H627 0.950 . S
C654 C640 1.377 . S
C654 C653 1.397 1_554 S
C655 C639 1.377 . S
C655 C653 1.366 1_454 S
C655 C656 1.524 1_554 S
C656 C655 1.524 1_556 S
C656 C657 1.397 . S
C656 C661 1.363 . S
C657 H628 0.950 . S
C657 C656 1.397 . S
C657 C658 1.334 . S
C658 H629 0.950 . S
C658 C657 1.334 . S
C658 C659 1.287 . S
C659 C658 1.287 . S
C659 C660 1.524 . S
C659 H662 0.999 . S
C660 H630 0.950 . S
C660 C659 1.524 . S
C660 C661 1.415 . S
C661 H631 0.950 1_556 S
C661 C656 1.363 . S
C661 C660 1.415 . S
H662 C659 0.999 . S
H663 C644 0.913 . S
H664 C682 0.951 . S
H665 C684 0.951 . S
H666 C686 0.950 . S
H667 C687 0.950 . S
H668 C689 0.950 . S
H669 C692 0.950 . S
H670 C693 0.964 . S
H671 C695 0.950 . S
H672 C696 0.950 . S
H673 C697 0.951 . S
H674 C699 0.951 . S
H675 C701 0.933 1_455 S
H676 C702 0.950 1_455 S
H677 C704 0.950 . S
H678 C707 0.950 . S
H679 C708 0.950 . S
H680 C710 0.950 . S
H681 C711 0.950 . S
C682 H664 0.951 . S
C682 C683 1.411 . S
C682 C684 1.388 . S
C683 C682 1.411 . S
C683 C687 1.331 1_455 S
C684 H665 0.951 . S
C684 C682 1.388 . S
C684 C685 1.366 1_455 S
C685 C684 1.366 1_655 S
C685 C686 1.414 . S
C685 C688 1.499 . S
C686 H666 0.950 . S
C686 C685 1.414 . S
C686 C687 1.374 . S
C687 H667 0.950 . S
C687 C683 1.331 1_655 S
C687 C686 1.374 . S
C688 C685 1.499 . S
C688 C689 1.373 . S
C688 C690 1.389 1_655 S
C689 H668 0.950 . S
C689 C688 1.373 . S
C689 C705 1.377 . S
C690 C688 1.389 1_455 S
C690 C691 1.524 . S
C690 C704 1.377 . S
C691 C690 1.524 . S
C691 C692 1.397 . S
C691 C696 1.363 . S
C692 H669 0.950 . S
C692 C691 1.397 . S
C692 C693 1.334 . S
C693 H670 0.964 . S
C693 C692 1.334 . S
C693 C694 1.287 . S
C694 C693 1.287 . S
C694 C695 1.524 . S
C694 H713 0.913 . S
C695 H671 0.950 . S
C695 C694 1.524 . S
C695 C696 1.415 . S
C696 H672 0.950 . S
C696 C691 1.363 . S
C696 C695 1.415 . S
C697 H673 0.951 . S
C697 C698 1.366 . S
C697 C699 1.388 . S
C698 C697 1.366 . S
C698 C702 1.385 . S
C699 H674 0.951 . S
C699 C697 1.388 . S
C699 C700 1.366 . S
C700 C699 1.366 . S
C700 C701 1.429 . S
C700 C703 1.499 . S
C701 H675 0.933 1_655 S
C701 C700 1.429 . S
C701 C702 1.377 . S
C702 H676 0.950 1_655 S
C702 C698 1.385 . S
C702 C701 1.377 . S
C703 C700 1.499 . S
C703 C704 1.373 1_655 S
C703 C705 1.389 . S
C704 H677 0.950 . S
C704 C690 1.377 . S
C704 C703 1.373 1_455 S
C705 C689 1.377 . S
C705 C703 1.389 . S
C705 C706 1.524 . S
C706 C705 1.524 . S
C706 C707 1.397 . S
C706 C711 1.363 . S
C707 H678 0.950 . S
C707 C706 1.397 . S
C707 C708 1.334 . S
C708 H679 0.950 . S
C708 C707 1.334 . S
C708 C709 1.287 . S
C709 C708 1.287 . S
C709 C710 1.524 . S
C709 H712 0.999 . S
C710 H680 0.950 . S
C710 C709 1.524 . S
C710 C711 1.415 . S
C711 H681 0.950 . S
C711 C706 1.363 . S
C711 C710 1.415 . S
H712 C709 0.999 . S
H713 C694 0.913 . S
H714 C732 0.951 . S
H715 C734 0.949 1_545 S
H716 C736 0.950 . S
H717 C737 0.950 . S
H718 C739 0.950 . S
H719 C742 0.950 . S
H720 C743 0.950 . S
H721 C745 0.950 . S
H722 C746 0.950 . S
H723 C747 0.951 . S
H724 C749 0.951 . S
H725 C751 0.950 . S
H726 C752 0.950 . S
H727 C754 0.950 . S
H728 C757 0.950 . S
H729 C758 0.950 . S
H730 C760 0.950 . S
H731 C761 0.950 . S
C732 H714 0.951 . S
C732 C733 1.371 . S
C732 C734 1.388 1_545 S
C733 C732 1.371 . S
C733 C737 1.375 1_545 S
C734 H715 0.949 1_565 S
C734 C732 1.388 1_565 S
C734 C735 1.365 . S
C735 C734 1.365 . S
C735 C736 1.414 . S
C735 C738 1.499 . S
C736 H716 0.950 . S
C736 C735 1.414 . S
C736 C737 1.374 . S
C737 H717 0.950 . S
C737 C733 1.375 1_565 S
C737 C736 1.374 . S
C738 C735 1.499 . S
C738 C739 1.373 . S
C738 C740 1.389 1_565 S
C739 H718 0.950 . S
C739 C738 1.373 . S
C739 C755 1.377 . S
C740 C738 1.389 1_545 S
C740 C741 1.524 . S
C740 C754 1.377 . S
C741 C740 1.524 . S
C741 C742 1.397 . S
C741 C746 1.363 . S
C742 H719 0.950 . S
C742 C741 1.397 . S
C742 C743 1.334 . S
C743 H720 0.950 . S
C743 C742 1.334 . S
C743 C744 1.287 . S
C744 C743 1.287 . S
C744 C745 1.524 . S
C744 H763 0.913 . S
C745 H721 0.950 . S
C745 C744 1.524 . S
C745 C746 1.415 . S
C746 H722 0.950 . S
C746 C741 1.363 . S
C746 C745 1.415 . S
C747 H723 0.951 . S
C747 C748 1.366 . S
C747 C749 1.388 . S
C748 C747 1.366 . S
C748 C752 1.385 . S
C749 H724 0.951 . S
C749 C747 1.388 . S
C749 C750 1.366 . S
C750 C749 1.366 . S
C750 C751 1.414 . S
C750 C753 1.499 . S
C751 H725 0.950 . S
C751 C750 1.414 . S
C751 C752 1.374 . S
C752 H726 0.950 . S
C752 C748 1.385 . S
C752 C751 1.374 . S
C753 C750 1.499 . S
C753 C754 1.373 1_565 S
C753 C755 1.389 . S
C754 H727 0.950 . S
C754 C740 1.377 . S
C754 C753 1.373 1_545 S
C755 C739 1.377 . S
C755 C753 1.389 . S
C755 C756 1.524 . S
C756 C755 1.524 . S
C756 C757 1.397 . S
C756 C761 1.363 . S
C757 H728 0.950 . S
C757 C756 1.397 . S
C757 C758 1.334 . S
C758 H729 0.950 . S
C758 C757 1.334 . S
C758 C759 1.287 . S
C759 C758 1.287 . S
C759 C760 1.524 . S
C759 H762 0.999 . S
C760 H730 0.950 . S
C760 C759 1.524 . S
C760 C761 1.415 . S
C761 H731 0.950 . S
C761 C756 1.363 . S
C761 C760 1.415 . S
H762 C759 0.999 . S
H763 C744 0.913 . S
H764 C782 0.951 . S
H765 C784 0.951 . S
H766 C786 0.950 . S
H767 C787 0.950 . S
H768 C789 0.950 . S
H769 C792 0.950 . S
H770 C793 0.950 . S
H771 C795 0.950 . S
H772 C796 0.950 . S
H773 C797 0.951 . S
H774 C799 0.951 . S
H775 C801 0.950 . S
H776 C802 0.950 . S
H777 C804 0.950 . S
H778 C807 0.950 . S
H779 C808 0.950 . S
H780 C810 0.950 . S
H781 C811 0.950 . S
C782 H764 0.951 . S
C782 C783 1.366 . S
C782 C784 1.388 . S
C783 C782 1.366 . S
C783 C787 1.385 . S
C784 H765 0.951 . S
C784 C782 1.388 . S
C784 C785 1.366 . S
C785 C784 1.366 . S
C785 C786 1.414 . S
C785 C788 1.499 . S
C786 H766 0.950 . S
C786 C785 1.414 . S
C786 C787 1.374 . S
C787 H767 0.950 . S
C787 C783 1.385 . S
C787 C786 1.374 . S
C788 C785 1.499 . S
C788 C789 1.373 . S
C788 C790 1.389 . S
C789 H768 0.950 . S
C789 C788 1.373 . S
C789 C805 1.377 . S
C790 C788 1.389 . S
C790 C791 1.524 . S
C790 C804 1.377 . S
C791 C790 1.524 . S
C791 C792 1.397 . S
C791 C796 1.363 . S
C792 H769 0.950 . S
C792 C791 1.397 . S
C792 C793 1.334 . S
C793 H770 0.950 . S
C793 C792 1.334 . S
C793 C794 1.287 . S
C794 C793 1.287 . S
C794 C795 1.524 . S
C794 H813 0.913 . S
C795 H771 0.950 . S
C795 C794 1.524 . S
C795 C796 1.415 . S
C796 H772 0.950 . S
C796 C791 1.363 . S
C796 C795 1.415 . S
C797 H773 0.951 . S
C797 C798 1.366 . S
C797 C799 1.388 . S
C798 C797 1.366 . S
C798 C802 1.385 . S
C799 H774 0.951 . S
C799 C797 1.388 . S
C799 C800 1.366 . S
C800 C799 1.366 . S
C800 C801 1.414 . S
C800 C803 1.499 . S
C801 H775 0.950 . S
C801 C800 1.414 . S
C801 C802 1.374 . S
C802 H776 0.950 . S
C802 C798 1.385 . S
C802 C801 1.374 . S
C803 C800 1.499 . S
C803 C804 1.373 . S
C803 C805 1.389 . S
C804 H777 0.950 . S
C804 C790 1.377 . S
C804 C803 1.373 . S
C805 C789 1.377 . S
C805 C803 1.389 . S
C805 C806 1.524 . S
C806 C805 1.524 . S
C806 C807 1.397 . S
C806 C811 1.363 . S
C807 H778 0.950 . S
C807 C806 1.397 . S
C807 C808 1.334 . S
C808 H779 0.950 . S
C808 C807 1.334 . S
C808 C809 1.287 . S
C809 C808 1.287 . S
C809 C810 1.524 . S
C809 H812 0.999 . S
C810 H780 0.950 . S
C810 C809 1.524 . S
C810 C811 1.415 . S
C811 H781 0.950 . S
C811 C806 1.363 . S
C811 C810 1.415 . S
H812 C809 0.999 . S
H813 C794 0.913 . S
H814 C832 0.951 . S
H815 C834 0.951 . S
H816 C836 0.950 . S
H817 C837 0.950 . S
H818 C839 0.950 . S
H819 C842 0.950 . S
H820 C843 0.950 . S
H821 C845 0.950 . S
H822 C846 0.950 . S
H823 C847 0.951 . S
H824 C849 0.951 . S
H825 C851 0.950 . S
H826 C852 0.950 . S
H827 C854 0.950 . S
H828 C857 0.950 . S
H829 C858 0.950 . S
H830 C860 0.950 . S
H831 C861 0.950 . S
C832 H814 0.951 . S
C832 C833 1.366 . S
C832 C834 1.388 . S
C833 C832 1.366 . S
C833 C837 1.385 . S
C834 H815 0.951 . S
C834 C832 1.388 . S
C834 C835 1.366 . S
C835 C834 1.366 . S
C835 C836 1.414 . S
C835 C838 1.499 . S
C836 H816 0.950 . S
C836 C835 1.414 . S
C836 C837 1.374 . S
C837 H817 0.950 . S
C837 C833 1.385 . S
C837 C836 1.374 . S
C838 C835 1.499 . S
C838 C839 1.373 . S
C838 C840 1.389 . S
C839 H818 0.950 . S
C839 C838 1.373 . S
C839 C855 1.377 . S
C840 C838 1.389 . S
C840 C841 1.524 . S
C840 C854 1.377 . S
C841 C840 1.524 . S
C841 C842 1.397 . S
C841 C846 1.363 . S
C842 H819 0.950 . S
C842 C841 1.397 . S
C842 C843 1.334 . S
C843 H820 0.950 . S
C843 C842 1.334 . S
C843 C844 1.287 . S
C844 C843 1.287 . S
C844 C845 1.524 . S
C844 H863 0.913 . S
C845 H821 0.950 . S
C845 C844 1.524 . S
C845 C846 1.415 . S
C846 H822 0.950 . S
C846 C841 1.363 . S
C846 C845 1.415 . S
C847 H823 0.951 . S
C847 C848 1.366 . S
C847 C849 1.388 . S
C848 C847 1.366 . S
C848 C852 1.385 . S
C849 H824 0.951 . S
C849 C847 1.388 . S
C849 C850 1.366 . S
C850 C849 1.366 . S
C850 C851 1.414 . S
C850 C853 1.499 . S
C851 H825 0.950 . S
C851 C850 1.414 . S
C851 C852 1.374 . S
C852 H826 0.950 . S
C852 C848 1.385 . S
C852 C851 1.374 . S
C853 C850 1.499 . S
C853 C854 1.373 . S
C853 C855 1.389 . S
C854 H827 0.950 . S
C854 C840 1.377 . S
C854 C853 1.373 . S
C855 C839 1.377 . S
C855 C853 1.389 . S
C855 C856 1.524 . S
C856 C855 1.524 . S
C856 C857 1.397 . S
C856 C861 1.363 . S
C857 H828 0.950 . S
C857 C856 1.397 . S
C857 C858 1.334 . S
C858 H829 0.950 . S
C858 C857 1.334 . S
C858 C859 1.287 . S
C859 C858 1.287 . S
C859 C860 1.524 . S
C859 H862 0.999 . S
C860 H830 0.950 . S
C860 C859 1.524 . S
C860 C861 1.415 . S
C861 H831 0.950 . S
C861 C856 1.363 . S
C861 C860 1.415 . S
H862 C859 0.999 . S
H863 C844 0.913 . S
H864 C882 0.951 . S
H865 C884 0.951 . S
H866 C886 0.950 . S
H867 C887 0.950 . S
H868 C889 0.950 . S
H869 C892 0.950 . S
H870 C893 0.950 . S
H871 C895 0.950 . S
H872 C896 0.950 . S
H873 C897 0.951 1_655 S
H874 C899 0.932 1_655 S
H875 C901 0.950 . S
H876 C902 0.950 . S
H877 C904 0.950 . S
H878 C907 0.950 1_455 S
H879 C908 0.950 . S
H880 C910 0.950 . S
H881 C911 0.950 . S
C882 H864 0.951 . S
C882 C883 1.310 1_455 S
C882 C884 1.388 . S
C883 C882 1.310 1_655 S
C883 C887 1.433 . S
C884 H865 0.951 . S
C884 C882 1.388 . S
C884 C885 1.366 . S
C885 C884 1.366 . S
C885 C886 1.414 1_455 S
C885 C888 1.499 . S
C886 H866 0.950 . S
C886 C885 1.414 1_655 S
C886 C887 1.374 . S
C887 H867 0.950 . S
C887 C883 1.433 . S
C887 C886 1.374 . S
C888 C885 1.499 . S
C888 C889 1.373 1_455 S
C888 C890 1.389 . S
C889 H868 0.950 . S
C889 C888 1.373 1_655 S
C889 C905 1.377 . S
C890 C888 1.389 . S
C890 C891 1.524 . S
C890 C904 1.377 . S
C891 C890 1.524 . S
C891 C892 1.397 . S
C891 C896 1.363 . S
C892 H869 0.950 . S
C892 C891 1.397 . S
C892 C893 1.334 . S
C893 H870 0.950 . S
C893 C892 1.334 . S
C893 C894 1.287 . S
C894 C893 1.287 . S
C894 C895 1.524 . S
C894 H913 0.913 . S
C895 H871 0.950 . S
C895 C894 1.524 . S
C895 C896 1.415 . S
C896 H872 0.950 . S
C896 C891 1.363 . S
C896 C895 1.415 . S
C897 H873 0.951 1_455 S
C897 C898 1.366 . S
C897 C899 1.391 1_556 S
C898 C897 1.366 . S
C898 C902 1.385 . S
C899 H874 0.932 1_455 S
C899 C897 1.391 1_554 S
C899 C900 1.382 . S
C900 C899 1.382 . S
C900 C901 1.414 . S
C900 C903 1.499 . S
C901 H875 0.950 . S
C901 C900 1.414 . S
C901 C902 1.374 1_554 S
C902 H876 0.950 . S
C902 C898 1.385 . S
C902 C901 1.374 1_556 S
C903 C900 1.499 . S
C903 C904 1.373 . S
C903 C905 1.389 1_455 S
C904 H877 0.950 . S
C904 C890 1.377 . S
C904 C903 1.373 . S
C905 C889 1.377 . S
C905 C903 1.389 1_655 S
C905 C906 1.524 . S
C906 C905 1.524 . S
C906 C907 1.397 1_554 S
C906 C911 1.363 . S
C907 H878 0.950 1_655 S
C907 C906 1.397 1_556 S
C907 C908 1.334 . S
C908 H879 0.950 . S
C908 C907 1.334 . S
C908 C909 1.287 . S
C909 C908 1.287 . S
C909 C910 1.524 . S
C909 H912 0.999 . S
C910 H880 0.950 . S
C910 C909 1.524 . S
C910 C911 1.415 1_556 S
C911 H881 0.950 . S
C911 C906 1.363 . S
C911 C910 1.415 1_554 S
H912 C909 0.999 . S
H913 C894 0.913 . S
H914 C932 0.951 . S
H915 C934 0.951 . S
H916 C936 0.950 . S
H917 C937 0.950 . S
H918 C939 0.950 . S
H919 C942 0.950 . S
H920 C943 0.950 . S
H921 C945 0.950 . S
H922 C946 0.950 . S
H923 C947 0.951 . S
H924 C949 0.951 . S
H925 C951 0.950 . S
H926 C952 0.950 . S
H927 C954 0.950 . S
H928 C957 0.950 . S
H929 C958 0.950 . S
H930 C960 0.950 1_556 S
H931 C961 0.950 . S
C932 H914 0.951 . S
C932 C933 1.378 . S
C932 C934 1.388 . S
C933 C932 1.378 . S
C933 C937 1.369 1_565 S
C934 H915 0.951 . S
C934 C932 1.388 . S
C934 C935 1.366 1_565 S
C935 C934 1.366 1_545 S
C935 C936 1.414 . S
C935 C938 1.499 . S
C936 H916 0.950 . S
C936 C935 1.414 . S
C936 C937 1.374 . S
C937 H917 0.950 . S
C937 C933 1.369 1_545 S
C937 C936 1.374 . S
C938 C935 1.499 . S
C938 C939 1.373 . S
C938 C940 1.389 1_545 S
C939 H918 0.950 . S
C939 C938 1.373 . S
C939 C955 1.377 . S
C940 C938 1.389 1_565 S
C940 C941 1.524 . S
C940 C954 1.377 . S
C941 C940 1.524 . S
C941 C942 1.397 . S
C941 C946 1.363 . S
C942 H919 0.950 . S
C942 C941 1.397 . S
C942 C943 1.334 . S
C943 H920 0.950 . S
C943 C942 1.334 . S
C943 C944 1.287 . S
C944 C943 1.287 . S
C944 C945 1.524 . S
C944 H963 0.913 . S
C945 H921 0.950 . S
C945 C944 1.524 . S
C945 C946 1.415 . S
C946 H922 0.950 . S
C946 C941 1.363 . S
C946 C945 1.415 . S
C947 H923 0.951 . S
C947 C948 1.366 . S
C947 C949 1.388 . S
C948 C947 1.366 . S
C948 C952 1.385 1_556 S
C949 H924 0.951 . S
C949 C947 1.388 . S
C949 C950 1.366 1_556 S
C950 C949 1.366 1_554 S
C950 C951 1.414 . S
C950 C953 1.499 . S
C951 H925 0.950 . S
C951 C950 1.414 . S
C951 C952 1.374 . S
C952 H926 0.950 . S
C952 C948 1.385 1_554 S
C952 C951 1.374 . S
C953 C950 1.499 . S
C953 C954 1.373 1_545 S
C953 C955 1.389 . S
C954 H927 0.950 . S
C954 C940 1.377 . S
C954 C953 1.373 1_565 S
C955 C939 1.377 . S
C955 C953 1.389 . S
C955 C956 1.524 . S
C956 C955 1.524 . S
C956 C957 1.397 . S
C956 C961 1.363 . S
C957 H928 0.950 . S
C957 C956 1.397 . S
C957 C958 1.334 . S
C958 H929 0.950 . S
C958 C957 1.334 . S
C958 C959 1.287 . S
C959 C958 1.287 . S
C959 C960 1.524 . S
C959 H962 0.999 . S
C960 H930 0.950 1_554 S
C960 C959 1.524 . S
C960 C961 1.415 . S
C961 H931 0.950 . S
C961 C956 1.363 . S
C961 C960 1.415 . S
H962 C959 0.999 . S
H963 C944 0.913 . S
H964 C982 0.951 . S
H965 C984 0.951 . S
H966 C986 0.950 . S
H967 C987 0.950 . S
H968 C989 0.950 . S
H969 C992 0.950 . S
H970 C993 0.950 . S
H971 C995 0.950 . S
H972 C996 0.950 . S
H973 C997 0.951 . S
H974 C999 0.951 . S
H975 C1001 0.950 . S
H976 C1002 0.950 . S
H977 C1004 0.950 . S
H978 C1007 0.950 . S
H979 C1008 0.950 . S
H980 C1010 0.950 . S
H981 C1011 0.950 . S
C982 H964 0.951 . S
C982 C983 1.366 . S
C982 C984 1.388 . S
C983 C982 1.366 . S
C983 C987 1.385 . S
C984 H965 0.951 . S
C984 C982 1.388 . S
C984 C985 1.366 . S
C985 C984 1.366 . S
C985 C986 1.414 . S
C985 C988 1.499 . S
C986 H966 0.950 . S
C986 C985 1.414 . S
C986 C987 1.374 . S
C987 H967 0.950 . S
C987 C983 1.385 . S
C987 C986 1.374 . S
C988 C985 1.499 . S
C988 C989 1.373 . S
C988 C990 1.389 . S
C989 H968 0.950 . S
C989 C988 1.373 . S
C989 C1005 1.377 . S
C990 C988 1.389 . S
C990 C991 1.524 . S
C990 C1004 1.377 . S
C991 C990 1.524 . S
C991 C992 1.397 . S
C991 C996 1.363 . S
C992 H969 0.950 . S
C992 C991 1.397 . S
C992 C993 1.334 . S
C993 H970 0.950 . S
C993 C992 1.334 . S
C993 C994 1.287 1_554 S
C994 C993 1.287 1_556 S
C994 C995 1.524 . S
C994 H1013 0.913 . S
C995 H971 0.950 . S
C995 C994 1.524 . S
C995 C996 1.415 1_556 S
C996 H972 0.950 . S
C996 C991 1.363 . S
C996 C995 1.415 1_554 S
C997 H973 0.951 . S
C997 C998 1.366 1_554 S
C997 C999 1.388 . S
C998 C997 1.366 1_556 S
C998 C1002 1.385 . S
C999 H974 0.951 . S
C999 C997 1.388 . S
C999 C1000 1.366 . S
C1000 C999 1.366 . S
C1000 C1001 1.414 . S
C1000 C1003 1.499 . S
C1001 H975 0.950 . S
C1001 C1000 1.414 . S
C1001 C1002 1.374 1_554 S
C1002 H976 0.950 . S
C1002 C998 1.385 . S
C1002 C1001 1.374 1_556 S
C1003 C1000 1.499 . S
C1003 C1004 1.373 . S
C1003 C1005 1.389 . S
C1004 H977 0.950 . S
C1004 C990 1.377 . S
C1004 C1003 1.373 . S
C1005 C989 1.377 . S
C1005 C1003 1.389 . S
C1005 C1006 1.524 . S
C1006 C1005 1.524 . S
C1006 C1007 1.397 . S
C1006 C1011 1.363 . S
C1007 H978 0.950 . S
C1007 C1006 1.397 . S
C1007 C1008 1.334 . S
C1008 H979 0.950 . S
C1008 C1007 1.334 . S
C1008 C1009 1.287 . S
C1009 C1008 1.287 . S
C1009 C1010 1.524 . S
C1009 H1012 0.999 . S
C1010 H980 0.950 . S
C1010 C1009 1.524 . S
C1010 C1011 1.415 . S
C1011 H981 0.950 . S
C1011 C1006 1.363 . S
C1011 C1010 1.415 . S
H1012 C1009 0.999 . S
H1013 C994 0.913 . S
H1014 C1032 0.951 . S
H1015 C1034 0.951 . S
H1016 C1036 0.950 . S
H1017 C1037 0.950 . S
H1018 C1039 0.950 . S
H1019 C1042 0.950 . S
H1020 C1043 0.950 . S
H1021 C1045 0.950 . S
H1022 C1046 0.950 . S
H1023 C1047 0.951 . S
H1024 C1049 0.951 . S
H1025 C1051 0.950 . S
H1026 C1052 0.950 . S
H1027 C1054 0.950 . S
H1028 C1057 0.950 . S
H1029 C1058 0.950 . S
H1030 C1060 0.950 . S
H1031 C1061 0.950 . S
C1032 H1014 0.951 . S
C1032 C1033 1.366 . S
C1032 C1034 1.388 . S
C1033 C1032 1.366 . S
C1033 C1037 1.385 . S
C1034 H1015 0.951 . S
C1034 C1032 1.388 . S
C1034 C1035 1.366 . S
C1035 C1034 1.366 . S
C1035 C1036 1.414 . S
C1035 C1038 1.499 . S
C1036 H1016 0.950 . S
C1036 C1035 1.414 . S
C1036 C1037 1.374 . S
C1037 H1017 0.950 . S
C1037 C1033 1.385 . S
C1037 C1036 1.374 . S
C1038 C1035 1.499 . S
C1038 C1039 1.373 . S
C1038 C1040 1.389 . S
C1039 H1018 0.950 . S
C1039 C1038 1.373 . S
C1039 C1055 1.377 . S
C1040 C1038 1.389 . S
C1040 C1041 1.524 . S
C1040 C1054 1.377 . S
C1041 C1040 1.524 . S
C1041 C1042 1.397 . S
C1041 C1046 1.363 . S
C1042 H1019 0.950 . S
C1042 C1041 1.397 . S
C1042 C1043 1.334 . S
C1043 H1020 0.950 . S
C1043 C1042 1.334 . S
C1043 C1044 1.287 . S
C1044 C1043 1.287 . S
C1044 C1045 1.524 . S
C1044 H1063 0.913 . S
C1045 H1021 0.950 . S
C1045 C1044 1.524 . S
C1045 C1046 1.415 . S
C1046 H1022 0.950 . S
C1046 C1041 1.363 . S
C1046 C1045 1.415 . S
C1047 H1023 0.951 . S
C1047 C1048 1.366 . S
C1047 C1049 1.388 1_556 S
C1048 C1047 1.366 . S
C1048 C1052 1.385 1_556 S
C1049 H1024 0.951 . S
C1049 C1047 1.388 1_554 S
C1049 C1050 1.366 . S
C1050 C1049 1.366 . S
C1050 C1051 1.414 . S
C1050 C1053 1.499 . S
C1051 H1025 0.950 . S
C1051 C1050 1.414 . S
C1051 C1052 1.374 . S
C1052 H1026 0.950 . S
C1052 C1048 1.385 1_554 S
C1052 C1051 1.374 . S
C1053 C1050 1.499 . S
C1053 C1054 1.373 . S
C1053 C1055 1.389 . S
C1054 H1027 0.950 . S
C1054 C1040 1.377 . S
C1054 C1053 1.373 . S
C1055 C1039 1.377 . S
C1055 C1053 1.389 . S
C1055 C1056 1.524 1_554 S
C1056 C1055 1.524 1_556 S
C1056 C1057 1.397 . S
C1056 C1061 1.363 . S
C1057 H1028 0.950 . S
C1057 C1056 1.397 . S
C1057 C1058 1.334 . S
C1058 H1029 0.950 . S
C1058 C1057 1.334 . S
C1058 C1059 1.287 . S
C1059 C1058 1.287 . S
C1059 C1060 1.524 . S
C1059 H1062 0.999 . S
C1060 H1030 0.950 . S
C1060 C1059 1.524 . S
C1060 C1061 1.415 . S
C1061 H1031 0.950 . S
C1061 C1056 1.363 . S
C1061 C1060 1.415 . S
H1062 C1059 0.999 . S
H1063 C1044 0.913 . S
H1064 C1082 0.951 . S
H1065 C1084 0.951 . S
H1066 C1086 0.950 . S
H1067 C1087 0.950 1_554 S
H1068 C1089 0.950 . S
H1069 C1092 0.950 . S
H1070 C1093 0.950 . S
H1071 C1095 0.950 . S
H1072 C1096 0.950 . S
H1073 C1097 0.951 1_655 S
H1074 C1099 0.951 1_655 S
H1075 C1101 0.950 . S
H1076 C1102 0.950 . S
H1077 C1104 0.950 . S
H1078 C1107 0.950 . S
H1079 C1108 0.950 . S
H1080 C1110 0.950 . S
H1081 C1111 0.950 . S
C1082 H1064 0.951 . S
C1082 C1083 1.380 . S
C1082 C1084 1.388 . S
C1083 C1082 1.380 . S
C1083 C1087 1.373 1_455 S
C1084 H1065 0.951 . S
C1084 C1082 1.388 . S
C1084 C1085 1.366 . S
C1085 C1084 1.366 . S
C1085 C1086 1.414 1_455 S
C1085 C1088 1.499 . S
C1086 H1066 0.950 . S
C1086 C1085 1.414 1_655 S
C1086 C1087 1.374 . S
C1087 H1067 0.950 1_556 S
C1087 C1083 1.373 1_655 S
C1087 C1086 1.374 . S
C1088 C1085 1.499 . S
C1088 C1089 1.373 . S
C1088 C1090 1.389 1_455 S
C1089 H1068 0.950 . S
C1089 C1088 1.373 . S
C1089 C1105 1.377 . S
C1090 C1088 1.389 1_655 S
C1090 C1091 1.524 . S
C1090 C1104 1.377 . S
C1091 C1090 1.524 . S
C1091 C1092 1.397 . S
C1091 C1096 1.363 . S
C1092 H1069 0.950 . S
C1092 C1091 1.397 . S
C1092 C1093 1.334 . S
C1093 H1070 0.950 . S
C1093 C1092 1.334 . S
C1093 C1094 1.287 . S
C1094 C1093 1.287 . S
C1094 C1095 1.524 . S
C1094 H1113 0.913 . S
C1095 H1071 0.950 . S
C1095 C1094 1.524 . S
C1095 C1096 1.415 . S
C1096 H1072 0.950 . S
C1096 C1091 1.363 . S
C1096 C1095 1.415 . S
C1097 H1073 0.951 1_455 S
C1097 C1098 1.366 . S
C1097 C1099 1.388 . S
C1098 C1097 1.366 . S
C1098 C1102 1.385 . S
C1099 H1074 0.951 1_455 S
C1099 C1097 1.388 . S
C1099 C1100 1.366 . S
C1100 C1099 1.366 . S
C1100 C1101 1.414 . S
C1100 C1103 1.499 . S
C1101 H1075 0.950 . S
C1101 C1100 1.414 . S
C1101 C1102 1.374 . S
C1102 H1076 0.950 . S
C1102 C1098 1.385 . S
C1102 C1101 1.374 . S
C1103 C1100 1.499 . S
C1103 C1104 1.373 1_455 S
C1103 C1105 1.389 . S
C1104 H1077 0.950 . S
C1104 C1090 1.377 . S
C1104 C1103 1.373 1_655 S
C1105 C1089 1.377 . S
C1105 C1103 1.389 . S
C1105 C1106 1.524 . S
C1106 C1105 1.524 . S
C1106 C1107 1.397 . S
C1106 C1111 1.363 1_556 S
C1107 H1078 0.950 . S
C1107 C1106 1.397 . S
C1107 C1108 1.334 . S
C1108 H1079 0.950 . S
C1108 C1107 1.334 . S
C1108 C1109 1.287 1_556 S
C1109 C1108 1.287 1_554 S
C1109 C1110 1.524 . S
C1109 H1112 0.999 . S
C1110 H1080 0.950 . S
C1110 C1109 1.524 . S
C1110 C1111 1.415 . S
C1111 H1081 0.950 . S
C1111 C1106 1.363 1_554 S
C1111 C1110 1.415 . S
H1112 C1109 0.999 . S
H1113 C1094 0.913 . S
H1114 C1132 0.951 . S
H1115 C1134 0.951 . S
H1116 C1136 0.950 . S
H1117 C1137 0.950 1_554 S
H1118 C1139 0.950 . S
H1119 C1142 0.950 . S
H1120 C1143 0.950 . S
H1121 C1145 0.950 . S
H1122 C1146 0.950 . S
H1123 C1147 0.960 . S
H1124 C1149 0.953 . S
H1125 C1151 0.950 . S
H1126 C1152 0.950 . S
H1127 C1154 0.950 . S
H1128 C1157 0.950 . S
H1129 C1158 0.950 . S
H1130 C1160 0.950 . S
H1131 C1161 0.950 . S
C1132 H1114 0.951 . S
C1132 C1133 1.376 . S
C1132 C1134 1.388 . S
C1133 C1132 1.376 . S
C1133 C1137 1.377 1_545 S
C1134 H1115 0.951 . S
C1134 C1132 1.388 . S
C1134 C1135 1.366 . S
C1135 C1134 1.366 . S
C1135 C1136 1.414 1_545 S
C1135 C1138 1.499 . S
C1136 H1116 0.950 . S
C1136 C1135 1.414 1_565 S
C1136 C1137 1.374 . S
C1137 H1117 0.950 1_556 S
C1137 C1133 1.377 1_565 S
C1137 C1136 1.374 . S
C1138 C1135 1.499 . S
C1138 C1139 1.373 . S
C1138 C1140 1.389 1_545 S
C1139 H1118 0.950 . S
C1139 C1138 1.373 . S
C1139 C1155 1.377 . S
C1140 C1138 1.389 1_565 S
C1140 C1141 1.524 . S
C1140 C1154 1.377 . S
C1141 C1140 1.524 . S
C1141 C1142 1.397 . S
C1141 C1146 1.363 . S
C1142 H1119 0.950 . S
C1142 C1141 1.397 . S
C1142 C1143 1.334 . S
C1143 H1120 0.950 . S
C1143 C1142 1.334 . S
C1143 C1144 1.287 . S
C1144 C1143 1.287 . S
C1144 C1145 1.524 . S
C1144 H1163 0.913 . S
C1145 H1121 0.950 . S
C1145 C1144 1.524 . S
C1145 C1146 1.415 . S
C1146 H1122 0.950 . S
C1146 C1141 1.363 . S
C1146 C1145 1.415 . S
C1147 H1123 0.960 . S
C1147 C1148 1.366 . S
C1147 C1149 1.388 . S
C1148 C1147 1.366 . S
C1148 C1152 1.385 . S
C1149 H1124 0.953 . S
C1149 C1147 1.388 . S
C1149 C1150 1.366 . S
C1150 C1149 1.366 . S
C1150 C1151 1.414 . S
C1150 C1153 1.499 . S
C1151 H1125 0.950 . S
C1151 C1150 1.414 . S
C1151 C1152 1.374 . S
C1152 H1126 0.950 . S
C1152 C1148 1.385 . S
C1152 C1151 1.374 . S
C1153 C1150 1.499 . S
C1153 C1154 1.373 1_545 S
C1153 C1155 1.389 . S
C1154 H1127 0.950 . S
C1154 C1140 1.377 . S
C1154 C1153 1.373 1_565 S
C1155 C1139 1.377 . S
C1155 C1153 1.389 . S
C1155 C1156 1.524 . S
C1156 C1155 1.524 . S
C1156 C1157 1.397 . S
C1156 C1161 1.363 1_556 S
C1157 H1128 0.950 . S
C1157 C1156 1.397 . S
C1157 C1158 1.334 . S
C1158 H1129 0.950 . S
C1158 C1157 1.334 . S
C1158 C1159 1.287 1_556 S
C1159 C1158 1.287 1_554 S
C1159 C1160 1.524 . S
C1159 H1162 0.999 . S
C1160 H1130 0.950 . S
C1160 C1159 1.524 . S
C1160 C1161 1.415 . S
C1161 H1131 0.950 . S
C1161 C1156 1.363 1_554 S
C1161 C1160 1.415 . S
H1162 C1159 0.999 . S
H1163 C1144 0.913 . S
H1164 C1182 0.951 . S
H1165 C1184 0.951 . S
H1166 C1186 0.950 . S
H1167 C1187 0.950 . S
H1168 C1189 0.950 . S
H1169 C1192 0.950 . S
H1170 C1193 0.950 . S
H1171 C1195 0.950 . S
H1172 C1196 0.950 . S
H1173 C1197 0.951 . S
H1174 C1199 0.951 . S
H1175 C1201 0.950 . S
H1176 C1202 0.950 . S
H1177 C1204 0.950 . S
H1178 C1207 0.950 . S
H1179 C1208 0.950 . S
H1180 C1210 0.950 . S
H1181 C1211 0.950 . S
C1182 H1164 0.951 . S
C1182 C1183 1.366 . S
C1182 C1184 1.388 . S
C1183 C1182 1.366 . S
C1183 C1187 1.385 . S
C1184 H1165 0.951 . S
C1184 C1182 1.388 . S
C1184 C1185 1.366 . S
C1185 C1184 1.366 . S
C1185 C1186 1.414 . S
C1185 C1188 1.499 . S
C1186 H1166 0.950 . S
C1186 C1185 1.414 . S
C1186 C1187 1.374 . S
C1187 H1167 0.950 . S
C1187 C1183 1.385 . S
C1187 C1186 1.374 . S
C1188 C1185 1.499 . S
C1188 C1189 1.373 . S
C1188 C1190 1.389 . S
C1189 H1168 0.950 . S
C1189 C1188 1.373 . S
C1189 C1205 1.377 . S
C1190 C1188 1.389 . S
C1190 C1191 1.524 . S
C1190 C1204 1.377 . S
C1191 C1190 1.524 . S
C1191 C1192 1.397 . S
C1191 C1196 1.363 . S
C1192 H1169 0.950 . S
C1192 C1191 1.397 . S
C1192 C1193 1.334 . S
C1193 H1170 0.950 . S
C1193 C1192 1.334 . S
C1193 C1194 1.287 . S
C1194 C1193 1.287 . S
C1194 C1195 1.524 . S
C1194 H1213 0.913 . S
C1195 H1171 0.950 . S
C1195 C1194 1.524 . S
C1195 C1196 1.415 . S
C1196 H1172 0.950 . S
C1196 C1191 1.363 . S
C1196 C1195 1.415 . S
C1197 H1173 0.951 . S
C1197 C1198 1.366 . S
C1197 C1199 1.388 . S
C1198 C1197 1.366 . S
C1198 C1202 1.385 . S
C1199 H1174 0.951 . S
C1199 C1197 1.388 . S
C1199 C1200 1.366 . S
C1200 C1199 1.366 . S
C1200 C1201 1.414 . S
C1200 C1203 1.499 . S
C1201 H1175 0.950 . S
C1201 C1200 1.414 . S
C1201 C1202 1.374 . S
C1202 H1176 0.950 . S
C1202 C1198 1.385 . S
C1202 C1201 1.374 . S
C1203 C1200 1.499 . S
C1203 C1204 1.373 . S
C1203 C1205 1.389 . S
C1204 H1177 0.950 . S
C1204 C1190 1.377 . S
C1204 C1203 1.373 . S
C1205 C1189 1.377 . S
C1205 C1203 1.389 . S
C1205 C1206 1.524 . S
C1206 C1205 1.524 . S
C1206 C1207 1.397 . S
C1206 C1211 1.363 . S
C1207 H1178 0.950 . S
C1207 C1206 1.397 . S
C1207 C1208 1.334 1_556 S
C1208 H1179 0.950 . S
C1208 C1207 1.334 1_554 S
C1208 C1209 1.287 . S
C1209 C1208 1.287 . S
C1209 C1210 1.524 . S
C1209 H1212 0.999 . S
C1210 H1180 0.950 . S
C1210 C1209 1.524 . S
C1210 C1211 1.415 1_554 S
C1211 H1181 0.950 . S
C1211 C1206 1.363 . S
C1211 C1210 1.415 1_556 S
H1212 C1209 0.999 . S
H1213 C1194 0.913 . S
H1214 C1232 0.951 . S
H1215 C1234 0.951 . S
H1216 C1236 0.950 . S
H1217 C1237 0.950 . S
H1218 C1239 0.950 . S
H1219 C1242 0.945 1_556 S
H1220 C1243 0.950 . S
H1221 C1245 0.950 . S
H1222 C1246 0.950 . S
H1223 C1247 0.951 . S
H1224 C1249 0.951 . S
H1225 C1251 0.950 . S
H1226 C1252 0.950 . S
H1227 C1254 0.950 . S
H1228 C1257 0.950 . S
H1229 C1258 0.950 . S
H1230 C1260 0.950 . S
H1231 C1261 0.950 . S
C1232 H1214 0.951 . S
C1232 C1233 1.366 . S
C1232 C1234 1.388 . S
C1233 C1232 1.366 . S
C1233 C1237 1.385 . S
C1234 H1215 0.951 . S
C1234 C1232 1.388 . S
C1234 C1235 1.366 . S
C1235 C1234 1.366 . S
C1235 C1236 1.414 . S
C1235 C1238 1.499 . S
C1236 H1216 0.950 . S
C1236 C1235 1.414 . S
C1236 C1237 1.374 . S
C1237 H1217 0.950 . S
C1237 C1233 1.385 . S
C1237 C1236 1.374 . S
C1238 C1235 1.499 . S
C1238 C1239 1.373 . S
C1238 C1240 1.389 . S
C1239 H1218 0.950 . S
C1239 C1238 1.373 . S
C1239 C1255 1.377 . S
C1240 C1238 1.389 . S
C1240 C1241 1.524 1_556 S
C1240 C1254 1.377 . S
C1241 C1240 1.524 1_554 S
C1241 C1242 1.397 . S
C1241 C1246 1.363 . S
C1242 H1219 0.945 1_554 S
C1242 C1241 1.397 . S
C1242 C1243 1.334 . S
C1243 H1220 0.950 . S
C1243 C1242 1.334 . S
C1243 C1244 1.287 . S
C1244 C1243 1.287 . S
C1244 C1245 1.524 . S
C1244 H1263 0.913 . S
C1245 H1221 0.950 . S
C1245 C1244 1.524 . S
C1245 C1246 1.415 . S
C1246 H1222 0.950 . S
C1246 C1241 1.363 . S
C1246 C1245 1.415 . S
C1247 H1223 0.951 . S
C1247 C1248 1.366 . S
C1247 C1249 1.388 . S
C1248 C1247 1.366 . S
C1248 C1252 1.385 . S
C1249 H1224 0.951 . S
C1249 C1247 1.388 . S
C1249 C1250 1.366 . S
C1250 C1249 1.366 . S
C1250 C1251 1.414 . S
C1250 C1253 1.499 . S
C1251 H1225 0.950 . S
C1251 C1250 1.414 . S
C1251 C1252 1.374 . S
C1252 H1226 0.950 . S
C1252 C1248 1.385 . S
C1252 C1251 1.374 . S
C1253 C1250 1.499 . S
C1253 C1254 1.373 . S
C1253 C1255 1.389 . S
C1254 H1227 0.950 . S
C1254 C1240 1.377 . S
C1254 C1253 1.373 . S
C1255 C1239 1.377 . S
C1255 C1253 1.389 . S
C1255 C1256 1.524 . S
C1256 C1255 1.524 . S
C1256 C1257 1.397 . S
C1256 C1261 1.363 . S
C1257 H1228 0.950 . S
C1257 C1256 1.397 . S
C1257 C1258 1.334 . S
C1258 H1229 0.950 . S
C1258 C1257 1.334 . S
C1258 C1259 1.287 . S
C1259 C1258 1.287 . S
C1259 C1260 1.524 . S
C1259 H1262 0.999 . S
C1260 H1230 0.950 . S
C1260 C1259 1.524 . S
C1260 C1261 1.415 . S
C1261 H1231 0.950 . S
C1261 C1256 1.363 . S
C1261 C1260 1.415 . S
H1262 C1259 0.999 . S
H1263 C1244 0.913 . S
H1264 C1282 0.951 . S
H1265 C1284 0.951 . S
H1266 C1286 0.950 . S
H1267 C1287 0.950 . S
H1268 C1289 0.950 . S
H1269 C1292 0.950 1_455 S
H1270 C1293 0.950 . S
H1271 C1295 0.950 . S
H1272 C1296 0.950 . S
H1273 C1297 0.951 . S
H1274 C1299 0.951 . S
H1275 C1301 0.950 . S
H1276 C1302 0.950 . S
H1277 C1304 0.950 . S
H1278 C1307 0.950 1_655 S
H1279 C1308 0.980 . S
H1280 C1310 0.950 . S
H1281 C1311 0.950 . S
C1282 H1264 0.951 . S
C1282 C1283 1.408 . S
C1282 C1284 1.388 . S
C1283 C1282 1.408 . S
C1283 C1287 1.344 1_655 S
C1284 H1265 0.951 . S
C1284 C1282 1.388 . S
C1284 C1285 1.366 . S
C1285 C1284 1.366 . S
C1285 C1286 1.414 1_655 S
C1285 C1288 1.499 . S
C1286 H1266 0.950 . S
C1286 C1285 1.414 1_455 S
C1286 C1287 1.374 . S
C1287 H1267 0.950 . S
C1287 C1283 1.344 1_455 S
C1287 C1286 1.374 . S
C1288 C1285 1.499 . S
C1288 C1289 1.373 1_655 S
C1288 C1290 1.389 . S
C1289 H1268 0.950 . S
C1289 C1288 1.373 1_455 S
C1289 C1305 1.377 . S
C1290 C1288 1.389 . S
C1290 C1291 1.524 . S
C1290 C1304 1.377 . S
C1291 C1290 1.524 . S
C1291 C1292 1.397 . S
C1291 C1296 1.363 . S
C1292 H1269 0.950 1_655 S
C1292 C1291 1.397 . S
C1292 C1293 1.334 . S
C1293 H1270 0.950 . S
C1293 C1292 1.334 . S
C1293 C1294 1.287 . S
C1294 C1293 1.287 . S
C1294 C1295 1.524 . S
C1294 H1313 0.913 . S
C1295 H1271 0.950 . S
C1295 C1294 1.524 . S
C1295 C1296 1.415 . S
C1296 H1272 0.950 . S
C1296 C1291 1.363 . S
C1296 C1295 1.415 . S
C1297 H1273 0.951 . S
C1297 C1298 1.366 1_455 S
C1297 C1299 1.388 . S
C1298 C1297 1.366 1_655 S
C1298 C1302 1.385 . S
C1299 H1274 0.951 . S
C1299 C1297 1.388 . S
C1299 C1300 1.366 1_455 S
C1300 C1299 1.366 1_655 S
C1300 C1301 1.414 . S
C1300 C1303 1.499 . S
C1301 H1275 0.950 . S
C1301 C1300 1.414 . S
C1301 C1302 1.374 . S
C1302 H1276 0.950 . S
C1302 C1298 1.385 . S
C1302 C1301 1.374 . S
C1303 C1300 1.499 . S
C1303 C1304 1.373 . S
C1303 C1305 1.389 1_655 S
C1304 H1277 0.950 . S
C1304 C1290 1.377 . S
C1304 C1303 1.373 . S
C1305 C1289 1.377 . S
C1305 C1303 1.389 1_455 S
C1305 C1306 1.524 . S
C1306 C1305 1.524 . S
C1306 C1307 1.397 . S
C1306 C1311 1.363 . S
C1307 H1278 0.950 1_455 S
C1307 C1306 1.397 . S
C1307 C1308 1.334 . S
C1308 H1279 0.980 . S
C1308 C1307 1.334 . S
C1308 C1309 1.287 . S
C1309 C1308 1.287 . S
C1309 C1310 1.524 . S
C1309 H1312 0.999 . S
C1310 H1280 0.950 . S
C1310 C1309 1.524 . S
C1310 C1311 1.415 . S
C1311 H1281 0.950 . S
C1311 C1306 1.363 . S
C1311 C1310 1.415 . S
H1312 C1309 0.999 . S
H1313 C1294 0.913 . S
H1314 C1332 0.951 . S
H1315 C1334 0.951 . S
H1316 C1336 0.950 . S
H1317 C1337 0.950 . S
H1318 C1339 0.950 . S
H1319 C1342 0.950 1_545 S
H1320 C1343 0.950 1_545 S
H1321 C1345 0.950 . S
H1322 C1346 0.950 . S
H1323 C1347 0.951 . S
H1324 C1349 0.951 . S
H1325 C1351 0.950 . S
H1326 C1352 0.950 . S
H1327 C1354 0.950 . S
H1328 C1357 0.950 . S
H1329 C1358 0.950 . S
H1330 C1360 0.950 . S
H1331 C1361 0.950 . S
C1332 H1314 0.951 . S
C1332 C1333 1.395 . S
C1332 C1334 1.388 . S
C1333 C1332 1.395 . S
C1333 C1337 1.356 1_565 S
C1334 H1315 0.951 . S
C1334 C1332 1.388 . S
C1334 C1335 1.366 . S
C1335 C1334 1.366 . S
C1335 C1336 1.414 1_565 S
C1335 C1338 1.499 . S
C1336 H1316 0.950 . S
C1336 C1335 1.414 1_545 S
C1336 C1337 1.374 . S
C1337 H1317 0.950 . S
C1337 C1333 1.356 1_545 S
C1337 C1336 1.374 . S
C1338 C1335 1.499 . S
C1338 C1339 1.373 1_565 S
C1338 C1340 1.389 . S
C1339 H1318 0.950 . S
C1339 C1338 1.373 1_545 S
C1339 C1355 1.377 . S
C1340 C1338 1.389 . S
C1340 C1341 1.524 . S
C1340 C1354 1.377 . S
C1341 C1340 1.524 . S
C1341 C1342 1.397 . S
C1341 C1346 1.363 . S
C1342 H1319 0.950 1_565 S
C1342 C1341 1.397 . S
C1342 C1343 1.334 . S
C1343 H1320 0.950 1_565 S
C1343 C1342 1.334 . S
C1343 C1344 1.287 . S
C1344 C1343 1.287 . S
C1344 C1345 1.524 . S
C1344 H1363 0.913 . S
C1345 H1321 0.950 . S
C1345 C1344 1.524 . S
C1345 C1346 1.415 . S
C1346 H1322 0.950 . S
C1346 C1341 1.363 . S
C1346 C1345 1.415 . S
C1347 H1323 0.951 . S
C1347 C1348 1.366 1_545 S
C1347 C1349 1.388 . S
C1348 C1347 1.366 1_565 S
C1348 C1352 1.385 . S
C1349 H1324 0.951 . S
C1349 C1347 1.388 . S
C1349 C1350 1.366 1_545 S
C1350 C1349 1.366 1_565 S
C1350 C1351 1.414 . S
C1350 C1353 1.499 . S
C1351 H1325 0.950 . S
C1351 C1350 1.414 . S
C1351 C1352 1.374 . S
C1352 H1326 0.950 . S
C1352 C1348 1.385 . S
C1352 C1351 1.374 . S
C1353 C1350 1.499 . S
C1353 C1354 1.373 . S
C1353 C1355 1.389 1_565 S
C1354 H1327 0.950 . S
C1354 C1340 1.377 . S
C1354 C1353 1.373 . S
C1355 C1339 1.377 . S
C1355 C1353 1.389 1_545 S
C1355 C1356 1.524 . S
C1356 C1355 1.524 . S
C1356 C1357 1.397 1_545 S
C1356 C1361 1.363 . S
C1357 H1328 0.950 . S
C1357 C1356 1.397 1_565 S
C1357 C1358 1.334 . S
C1358 H1329 0.950 . S
C1358 C1357 1.334 . S
C1358 C1359 1.287 1_565 S
C1359 C1358 1.287 1_545 S
C1359 C1360 1.524 . S
C1359 H1362 0.999 . S
C1360 H1330 0.950 . S
C1360 C1359 1.524 . S
C1360 C1361 1.415 . S
C1361 H1331 0.950 . S
C1361 C1356 1.363 . S
C1361 C1360 1.415 . S
H1362 C1359 0.999 . S
H1363 C1344 0.913 . S
H1364 C1382 0.951 . S
H1365 C1384 0.951 . S
H1366 C1386 0.950 . S
H1367 C1387 0.950 . S
H1368 C1389 0.950 . S
H1369 C1392 0.950 . S
H1370 C1393 0.950 . S
H1371 C1395 0.950 . S
H1372 C1396 0.950 . S
H1373 C1397 0.951 . S
H1374 C1399 0.951 . S
H1375 C1401 0.950 . S
H1376 C1402 0.950 . S
H1377 C1404 0.950 . S
H1378 C1407 0.950 . S
H1379 C1408 0.950 . S
H1380 C1410 0.950 . S
H1381 C1411 0.950 . S
C1382 H1364 0.951 . S
C1382 C1383 1.366 . S
C1382 C1384 1.388 . S
C1383 C1382 1.366 . S
C1383 C1387 1.385 . S
C1384 H1365 0.951 . S
C1384 C1382 1.388 . S
C1384 C1385 1.366 . S
C1385 C1384 1.366 . S
C1385 C1386 1.414 . S
C1385 C1388 1.499 . S
C1386 H1366 0.950 . S
C1386 C1385 1.414 . S
C1386 C1387 1.374 . S
C1387 H1367 0.950 . S
C1387 C1383 1.385 . S
C1387 C1386 1.374 . S
C1388 C1385 1.499 . S
C1388 C1389 1.373 . S
C1388 C1390 1.389 . S
C1389 H1368 0.950 . S
C1389 C1388 1.373 . S
C1389 C1405 1.377 . S
C1390 C1388 1.389 . S
C1390 C1391 1.524 . S
C1390 C1404 1.377 . S
C1391 C1390 1.524 . S
C1391 C1392 1.397 . S
C1391 C1396 1.363 . S
C1392 H1369 0.950 . S
C1392 C1391 1.397 . S
C1392 C1393 1.334 . S
C1393 H1370 0.950 . S
C1393 C1392 1.334 . S
C1393 C1394 1.287 . S
C1394 C1393 1.287 . S
C1394 C1395 1.524 . S
C1394 H1413 0.913 . S
C1395 H1371 0.950 . S
C1395 C1394 1.524 . S
C1395 C1396 1.415 . S
C1396 H1372 0.950 . S
C1396 C1391 1.363 . S
C1396 C1395 1.415 . S
C1397 H1373 0.951 . S
C1397 C1398 1.366 . S
C1397 C1399 1.388 . S
C1398 C1397 1.366 . S
C1398 C1402 1.385 . S
C1399 H1374 0.951 . S
C1399 C1397 1.388 . S
C1399 C1400 1.366 . S
C1400 C1399 1.366 . S
C1400 C1401 1.414 . S
C1400 C1403 1.499 . S
C1401 H1375 0.950 . S
C1401 C1400 1.414 . S
C1401 C1402 1.374 . S
C1402 H1376 0.950 . S
C1402 C1398 1.385 . S
C1402 C1401 1.374 . S
C1403 C1400 1.499 . S
C1403 C1404 1.373 . S
C1403 C1405 1.389 . S
C1404 H1377 0.950 . S
C1404 C1390 1.377 . S
C1404 C1403 1.373 . S
C1405 C1389 1.377 . S
C1405 C1403 1.389 . S
C1405 C1406 1.524 . S
C1406 C1405 1.524 . S
C1406 C1407 1.397 . S
C1406 C1411 1.363 . S
C1407 H1378 0.950 . S
C1407 C1406 1.397 . S
C1407 C1408 1.334 . S
C1408 H1379 0.950 . S
C1408 C1407 1.334 . S
C1408 C1409 1.287 . S
C1409 C1408 1.287 . S
C1409 C1410 1.524 . S
C1409 H1412 0.999 . S
C1410 H1380 0.950 . S
C1410 C1409 1.524 . S
C1410 C1411 1.415 . S
C1411 H1381 0.950 . S
C1411 C1406 1.363 . S
C1411 C1410 1.415 . S
H1412 C1409 0.999 . S
H1413 C1394 0.913 . S
H1414 C1432 0.951 . S
H1415 C1434 0.951 . S
H1416 C1436 0.950 . S
H1417 C1437 0.950 . S
H1418 C1439 0.950 . S
H1419 C1442 0.950 . S
H1420 C1443 0.950 . S
H1421 C1445 0.950 . S
H1422 C1446 0.950 . S
H1423 C1447 0.951 . S
H1424 C1449 0.951 . S
H1425 C1451 0.950 . S
H1426 C1452 0.950 . S
H1427 C1454 0.950 . S
H1428 C1457 0.950 . S
H1429 C1458 0.950 . S
H1430 C1460 0.950 . S
H1431 C1461 0.950 . S
C1432 H1414 0.951 . S
C1432 C1433 1.366 . S
C1432 C1434 1.388 . S
C1433 C1432 1.366 . S
C1433 C1437 1.385 . S
C1434 H1415 0.951 . S
C1434 C1432 1.388 . S
C1434 C1435 1.366 . S
C1435 C1434 1.366 . S
C1435 C1436 1.414 . S
C1435 C1438 1.499 . S
C1436 H1416 0.950 . S
C1436 C1435 1.414 . S
C1436 C1437 1.374 . S
C1437 H1417 0.950 . S
C1437 C1433 1.385 . S
C1437 C1436 1.374 . S
C1438 C1435 1.499 . S
C1438 C1439 1.373 . S
C1438 C1440 1.389 . S
C1439 H1418 0.950 . S
C1439 C1438 1.373 . S
C1439 C1455 1.377 . S
C1440 C1438 1.389 . S
C1440 C1441 1.524 . S
C1440 C1454 1.377 . S
C1441 C1440 1.524 . S
C1441 C1442 1.397 . S
C1441 C1446 1.363 . S
C1442 H1419 0.950 . S
C1442 C1441 1.397 . S
C1442 C1443 1.334 . S
C1443 H1420 0.950 . S
C1443 C1442 1.334 . S
C1443 C1444 1.287 . S
C1444 C1443 1.287 . S
C1444 C1445 1.524 . S
C1444 H1463 0.913 . S
C1445 H1421 0.950 . S
C1445 C1444 1.524 . S
C1445 C1446 1.415 . S
C1446 H1422 0.950 . S
C1446 C1441 1.363 . S
C1446 C1445 1.415 . S
C1447 H1423 0.951 . S
C1447 C1448 1.366 . S
C1447 C1449 1.388 . S
C1448 C1447 1.366 . S
C1448 C1452 1.385 . S
C1449 H1424 0.951 . S
C1449 C1447 1.388 . S
C1449 C1450 1.366 . S
C1450 C1449 1.366 . S
C1450 C1451 1.414 . S
C1450 C1453 1.499 . S
C1451 H1425 0.950 . S
C1451 C1450 1.414 . S
C1451 C1452 1.374 . S
C1452 H1426 0.950 . S
C1452 C1448 1.385 . S
C1452 C1451 1.374 . S
C1453 C1450 1.499 . S
C1453 C1454 1.373 . S
C1453 C1455 1.389 . S
C1454 H1427 0.950 . S
C1454 C1440 1.377 . S
C1454 C1453 1.373 . S
C1455 C1439 1.377 . S
C1455 C1453 1.389 . S
C1455 C1456 1.524 . S
C1456 C1455 1.524 . S
C1456 C1457 1.397 . S
C1456 C1461 1.363 . S
C1457 H1428 0.950 . S
C1457 C1456 1.397 . S
C1457 C1458 1.334 . S
C1458 H1429 0.950 . S
C1458 C1457 1.334 . S
C1458 C1459 1.287 . S
C1459 C1458 1.287 . S
C1459 C1460 1.524 . S
C1459 H1462 0.999 . S
C1460 H1430 0.950 . S
C1460 C1459 1.524 . S
C1460 C1461 1.415 . S
C1461 H1431 0.950 . S
C1461 C1456 1.363 . S
C1461 C1460 1.415 . S
H1462 C1459 0.999 . S
H1463 C1444 0.913 . S
C283 C82 1.623 . S
C298 C106 1.833 1_545 S
C348 C146 1.843 . S
C333 C95 1.619 . S
C398 C186 1.844 . S
C383 C56 1.626 . S
C448 C226 1.838 1_455 S
C433 C69 1.626 . S
C498 C119 1.840 1_565 S
C483 C30 1.629 . S
C533 C43 1.626 . S
C548 C159 1.847 . S
C583 C4 1.629 . S
C598 C199 1.843 . S
C633 C17 1.625 1_655 S
C648 C239 1.840 1_655 S
C698 C130 0.315 . S
C683 C74 0.381 . S
C748 C170 0.318 . S
C733 C87 0.382 . S
C798 C210 0.321 . S
C783 C100 0.388 . S
C833 C61 0.385 . S
C848 C250 0.312 . S
C883 C22 0.382 1_655 S
C898 C113 0.319 . S
C948 C153 0.318 . S
C933 C35 0.383 1_565 S
C998 C193 0.322 . S
C983 C48 0.389 . S
C1033 C9 0.390 . S
C1048 C233 0.323 . S
C1083 C73 1.885 . S
C1098 C107 2.076 . S
C1133 C86 1.880 . S
C1148 C147 2.077 . S
C1198 C187 2.075 . S
C1183 C99 1.878 . S
C1248 C227 2.080 . S
C1233 C60 1.878 . S
C1283 C21 1.888 1_655 S
C1298 C126 2.092 . S
C1348 C166 2.078 . S
C1333 C34 1.882 1_565 S
C1398 C206 2.074 . S
C1383 C47 1.878 . S
C1433 C8 1.884 . S
C1448 C246 2.086 . S
