# Generated by pormake.
# Topology dag, (6,3)-cn, num edge types: 1
# Building blocks:
#     Node 0, Type 0, BuildingBlock: IZENUY_clean_sbu_0, # of connection points: 6
#     Node 1, Type 0, BuildingBlock: IZENUY_clean_sbu_0, # of connection points: 6
#     Node 2, Type 0, BuildingBlock: IZENUY_clean_sbu_0, # of connection points: 6
#     Node 3, Type 0, BuildingBlock: IZENUY_clean_sbu_0, # of connection points: 6
#     Node 4, Type 1, BuildingBlock: BELTOD_clean_linker_0, # of connection points: 3
#     Node 5, Type 1, BuildingBlock: BELTOD_clean_linker_0, # of connection points: 3
#     Node 6, Type 1, BuildingBlock: BELTOD_clean_linker_0, # of connection points: 3
#     Node 7, Type 1, BuildingBlock: BELTOD_clean_linker_0, # of connection points: 3
#     Node 8, Type 1, BuildingBlock: BELTOD_clean_linker_0, # of connection points: 3
#     Node 9, Type 1, BuildingBlock: BELTOD_clean_linker_0, # of connection points: 3
#     Node 10, Type 1, BuildingBlock: BELTOD_clean_linker_0, # of connection points: 3
#     Node 11, Type 1, BuildingBlock: BELTOD_clean_linker_0, # of connection points: 3
#     Edge 12, Type (0, 1), BuildingBlock: MIFKUJ_clean_linker_0, # of connection points: 2
#     Edge 13, Type (0, 1), BuildingBlock: MIFKUJ_clean_linker_0, # of connection points: 2
#     Edge 14, Type (0, 1), BuildingBlock: MIFKUJ_clean_linker_0, # of connection points: 2
#     Edge 15, Type (0, 1), BuildingBlock: MIFKUJ_clean_linker_0, # of connection points: 2
#     Edge 16, Type (0, 1), BuildingBlock: MIFKUJ_clean_linker_0, # of connection points: 2
#     Edge 17, Type (0, 1), BuildingBlock: MIFKUJ_clean_linker_0, # of connection points: 2
#     Edge 18, Type (0, 1), BuildingBlock: MIFKUJ_clean_linker_0, # of connection points: 2
#     Edge 19, Type (0, 1), BuildingBlock: MIFKUJ_clean_linker_0, # of connection points: 2
#     Edge 20, Type (0, 1), BuildingBlock: MIFKUJ_clean_linker_0, # of connection points: 2
#     Edge 21, Type (0, 1), BuildingBlock: MIFKUJ_clean_linker_0, # of connection points: 2
#     Edge 22, Type (0, 1), BuildingBlock: MIFKUJ_clean_linker_0, # of connection points: 2
#     Edge 23, Type (0, 1), BuildingBlock: MIFKUJ_clean_linker_0, # of connection points: 2
#     Edge 24, Type (0, 1), BuildingBlock: MIFKUJ_clean_linker_0, # of connection points: 2
#     Edge 25, Type (0, 1), BuildingBlock: MIFKUJ_clean_linker_0, # of connection points: 2
#     Edge 26, Type (0, 1), BuildingBlock: MIFKUJ_clean_linker_0, # of connection points: 2
#     Edge 27, Type (0, 1), BuildingBlock: MIFKUJ_clean_linker_0, # of connection points: 2
#     Edge 28, Type (0, 1), BuildingBlock: MIFKUJ_clean_linker_0, # of connection points: 2
#     Edge 29, Type (0, 1), BuildingBlock: MIFKUJ_clean_linker_0, # of connection points: 2
#     Edge 30, Type (0, 1), BuildingBlock: MIFKUJ_clean_linker_0, # of connection points: 2
#     Edge 31, Type (0, 1), BuildingBlock: MIFKUJ_clean_linker_0, # of connection points: 2
#     Edge 32, Type (0, 1), BuildingBlock: MIFKUJ_clean_linker_0, # of connection points: 2
#     Edge 33, Type (0, 1), BuildingBlock: MIFKUJ_clean_linker_0, # of connection points: 2
#     Edge 34, Type (0, 1), BuildingBlock: MIFKUJ_clean_linker_0, # of connection points: 2
#     Edge 35, Type (0, 1), BuildingBlock: MIFKUJ_clean_linker_0, # of connection points: 2
# Relax obj value: 0.240
# Max RMSD: 0.186
# Mean RMSD: 0.154
data_MOF--net-dag--node1-IZENUY_clean_sbu_0--node2-BELTOD_clean_linker_0--edge1-MIFKUJ_clean_linker_0
_symmetry_space_group_name_H-M    P1
_symmetry_Int_Tables_number       1
_symmetry_cell_setting            triclinic
loop_
_symmetry_equiv_pos_as_xyz
'x, y, z'
_cell_length_a     53.866532
_cell_length_b     57.242273
_cell_length_c     48.015551
_cell_angle_alpha  94.905217
_cell_angle_beta   90.382772
_cell_angle_gamma 90.202311
loop_
_atom_site_label
_atom_site_type_symbol
_atom_site_fract_x
_atom_site_fract_y
_atom_site_fract_z
_atom_type_partial_charge
Fe0 Fe 0.18318 0.85249 0.07867 0.0
Fe1 Fe 0.13899 0.87197 0.04784 0.0
O2 O 0.15527 0.84774 0.05924 0.0
Fe3 Fe 0.14352 0.81894 0.05126 0.0
O4 O 0.14154 0.81395 0.0879 0.0
O5 O 0.17859 0.82768 0.09992 0.0
O6 O 0.16749 0.87048 0.1061 0.0
C7 C 0.15481 0.88835 0.10204 0.0
C8 C 0.19555 0.81398 0.04383 0.0
O9 O 0.14823 0.89242 0.0776 0.0
C10 C 0.13341 0.83763 0.00211 0.0
O11 O 0.19274 0.87818 0.06077 0.0
O12 O 0.16511 0.88014 0.02718 0.0
O13 O 0.17433 0.80522 0.04777 0.0
O14 O 0.20062 0.83484 0.05267 0.0
C15 C 0.10072 0.84583 0.06572 0.0
O16 O 0.12638 0.85612 0.0161 0.0
O17 O 0.14455 0.82183 0.01391 0.0
C18 C 0.18649 0.8847 0.03713 0.0
O19 O 0.11211 0.86517 0.06792 0.0
O20 O 0.11059 0.82766 0.05352 0.0
C21 C 0.15911 0.81651 0.10534 0.0
Fe22 Fe 0.66552 0.6461 0.4672 0.0
Fe23 Fe 0.62568 0.68099 0.48991 0.0
O24 O 0.63618 0.6518 0.4826 0.0
Fe25 Fe 0.61728 0.62809 0.49079 0.0
O26 O 0.64041 0.61844 0.51485 0.0
O27 O 0.67131 0.61965 0.48536 0.0
O28 O 0.6812 0.6624 0.4961 0.0
C29 C 0.67671 0.68334 0.50488 0.0
C30 C 0.63815 0.61149 0.43909 0.0
O31 O 0.65674 0.69322 0.49825 0.0
C32 C 0.58298 0.65618 0.46863 0.0
O33 O 0.66503 0.67153 0.44651 0.0
O34 O 0.62807 0.68703 0.45356 0.0
O35 O 0.62851 0.60769 0.46222 0.0
O36 O 0.65169 0.62928 0.43715 0.0
C37 C 0.60926 0.66166 0.53644 0.0
O38 O 0.59268 0.67371 0.4827 0.0
O39 O 0.59335 0.63641 0.46712 0.0
C40 C 0.64738 0.68415 0.43898 0.0
O41 O 0.62264 0.67718 0.52694 0.0
O42 O 0.60224 0.64394 0.52082 0.0
C43 C 0.66229 0.61299 0.5077 0.0
Fe44 Fe 0.86947 0.20661 0.00792 0.0
Fe45 Fe 0.87982 0.15372 0.00466 0.0
O46 O 0.86098 0.17742 0.99627 0.0
Fe47 Fe 0.83367 0.17184 0.97614 0.0
O48 O 0.84512 0.18895 0.94911 0.0
O49 O 0.85691 0.21954 0.9769 0.0
O50 O 0.89887 0.20401 0.98967 0.0
C51 C 0.91485 0.18848 0.99316 0.0
C52 C 0.81932 0.20803 0.01648 0.0
O53 O 0.90909 0.1702 0.00477 0.0
C54 C 0.83103 0.13629 0.01011 0.0
O55 O 0.88345 0.19877 0.041 0.0
O56 O 0.87552 0.16107 0.04165 0.0
O57 O 0.8163 0.19667 0.9929 0.0
O58 O 0.84071 0.21114 0.02695 0.0
C59 C 0.86827 0.13977 0.95049 0.0
O60 O 0.85399 0.13282 0.00612 0.0
O61 O 0.82061 0.15423 0.0021 0.0
C62 C 0.88071 0.18071 0.05431 0.0
O63 O 0.88531 0.14486 0.96811 0.0
O64 O 0.84609 0.14602 0.95553 0.0
C65 C 0.85211 0.21001 0.95263 0.0
Fe66 Fe 0.37532 0.3543 0.55988 0.0
Fe67 Fe 0.32813 0.33723 0.58688 0.0
O68 O 0.35669 0.33103 0.56992 0.0
Fe69 Fe 0.36657 0.30162 0.56306 0.0
O70 O 0.39986 0.3085 0.56723 0.0
O71 O 0.40083 0.34599 0.58167 0.0
O72 O 0.36602 0.37515 0.58914 0.0
C73 C 0.35748 0.37148 0.6129 0.0
C74 C 0.37986 0.31972 0.51445 0.0
O75 O 0.34362 0.35406 0.61578 0.0
C76 C 0.31503 0.29952 0.55105 0.0
O77 O 0.35096 0.364 0.53739 0.0
O78 O 0.32158 0.36358 0.56878 0.0
O79 O 0.36747 0.30435 0.52566 0.0
O80 O 0.38799 0.33771 0.52888 0.0
C81 C 0.34782 0.3005 0.61568 0.0
O82 O 0.31112 0.32075 0.55904 0.0
O83 O 0.335 0.28959 0.55761 0.0
C84 C 0.32946 0.36962 0.54564 0.0
O85 O 0.3294 0.31206 0.60796 0.0
O86 O 0.36638 0.29704 0.60001 0.0
C87 C 0.41092 0.32607 0.5796 0.0
P88 P 0.04906 0.12369 0.37551 0.0
H89 H 0.06398 0.0762 0.38716 0.0
H90 H 0.07756 0.04196 0.35671 0.0
H91 H 0.07109 0.08234 0.28508 0.0
H92 H 0.05803 0.11627 0.31529 0.0
H93 H 0.05195 0.17065 0.40402 0.0
H94 H 0.08665 0.1948 0.42311 0.0
H95 H 0.13767 0.13959 0.39554 0.0
H96 H 0.10309 0.11592 0.37597 0.0
H97 H 0.996 0.1186 0.36419 0.0
H98 H 0.0559 0.16292 0.34076 0.0
O99 O 0.03411 0.11457 0.40293 0.0
H100 H 0.96873 0.13518 0.33006 0.0
H101 H 0.02872 0.17965 0.30674 0.0
C102 C 0.05932 0.09859 0.35342 0.0
C103 C 0.06541 0.07759 0.36488 0.0
C104 C 0.07327 0.05812 0.34754 0.0
C105 C 0.07496 0.05944 0.31852 0.0
C106 C 0.06942 0.08069 0.3073 0.0
C107 C 0.06192 0.10014 0.32462 0.0
C108 C 0.07493 0.14165 0.38825 0.0
C109 C 0.07066 0.16389 0.40187 0.0
C110 C 0.0905 0.17759 0.41293 0.0
C111 C 0.11499 0.16916 0.41081 0.0
C112 C 0.11913 0.14681 0.39711 0.0
C113 C 0.09928 0.13317 0.386 0.0
C114 C 0.02782 0.13981 0.35535 0.0
C115 C 0.00305 0.13243 0.35233 0.0
C116 C 0.98748 0.1419 0.3328 0.0
C117 C 0.99662 0.15866 0.31567 0.0
C118 C 0.02122 0.16666 0.31954 0.0
C119 C 0.03669 0.15729 0.33919 0.0
P120 P 0.44962 0.62268 0.87237 0.0
H121 H 0.50298 0.62764 0.86229 0.0
H122 H 0.52611 0.64093 0.82283 0.0
H123 H 0.45711 0.65912 0.78385 0.0
H124 H 0.43416 0.64569 0.82325 0.0
H125 H 0.40504 0.61311 0.90341 0.0
H126 H 0.37248 0.63817 0.92461 0.0
H127 H 0.40882 0.69886 0.89534 0.0
H128 H 0.44175 0.67372 0.8751 0.0
H129 H 0.46555 0.57365 0.86897 0.0
H130 H 0.40548 0.61369 0.83744 0.0
O131 O 0.4686 0.61625 0.89821 0.0
H132 H 0.45035 0.53848 0.84133 0.0
H133 H 0.3902 0.57867 0.80982 0.0
C134 C 0.46687 0.63589 0.8458 0.0
C135 C 0.49287 0.63491 0.84552 0.0
C136 C 0.50608 0.64255 0.82297 0.0
C137 C 0.49342 0.65098 0.80018 0.0
C138 C 0.46737 0.65248 0.80096 0.0
C139 C 0.45424 0.64494 0.82353 0.0
C140 C 0.42545 0.64147 0.88708 0.0
C141 C 0.40589 0.6318 0.90142 0.0
C142 C 0.38722 0.64616 0.91341 0.0
C143 C 0.38784 0.67055 0.91144 0.0
C144 C 0.40779 0.6802 0.8974 0.0
C145 C 0.42652 0.66579 0.88553 0.0
C146 C 0.43642 0.59617 0.85555 0.0
C147 C 0.44879 0.57476 0.85657 0.0
C148 C 0.44008 0.55468 0.8408 0.0
C149 C 0.41909 0.55584 0.82341 0.0
C150 C 0.40651 0.57728 0.82288 0.0
C151 C 0.41514 0.59726 0.83878 0.0
P152 P 0.79178 0.90147 0.2289 0.0
H153 H 0.78304 0.95201 0.23783 0.0
H154 H 0.77004 0.98083 0.20611 0.0
H155 H 0.7556 0.92509 0.14153 0.0
H156 H 0.76854 0.8962 0.17356 0.0
H157 H 0.76207 0.89982 0.27909 0.0
H158 H 0.73386 0.87047 0.29504 0.0
H159 H 0.74258 0.82857 0.21645 0.0
H160 H 0.77137 0.85797 0.20089 0.0
H161 H 0.8208 0.91308 0.18029 0.0
H162 H 0.81974 0.85891 0.23752 0.0
O163 O 0.80382 0.91581 0.25761 0.0
H164 H 0.85647 0.89474 0.15672 0.0
H165 H 0.85605 0.84062 0.21408 0.0
C166 C 0.77706 0.92202 0.20786 0.0
C167 C 0.77652 0.9459 0.21709 0.0
C168 C 0.76894 0.96237 0.19899 0.0
C169 C 0.76198 0.95518 0.17132 0.0
C170 C 0.76104 0.93109 0.16271 0.0
C171 C 0.76833 0.9146 0.18098 0.0
C172 C 0.76923 0.88073 0.23914 0.0
C173 C 0.75783 0.88437 0.26524 0.0
C174 C 0.74146 0.86767 0.27421 0.0
C175 C 0.73602 0.8471 0.25706 0.0
C176 C 0.74666 0.84406 0.2303 0.0
C177 C 0.76306 0.86084 0.22136 0.0
C178 C 0.81704 0.88695 0.21016 0.0
C179 C 0.82781 0.89693 0.18744 0.0
C180 C 0.84829 0.88643 0.17394 0.0
C181 C 0.85879 0.86606 0.18332 0.0
C182 C 0.8482 0.85623 0.20632 0.0
C183 C 0.82744 0.8666 0.21962 0.0
P184 P 0.75872 0.32399 0.61885 0.0
H185 H 0.76517 0.34935 0.56917 0.0
H186 H 0.761 0.39072 0.56133 0.0
H187 H 0.75042 0.40754 0.64994 0.0
H188 H 0.75403 0.36598 0.65746 0.0
H189 H 0.75194 0.28651 0.65551 0.0
H190 H 0.77309 0.2768 0.6981 0.0
H191 H 0.82301 0.33545 0.69241 0.0
H192 H 0.80155 0.34519 0.64982 0.0
H193 H 0.72261 0.30386 0.57769 0.0
H194 H 0.72293 0.33176 0.66399 0.0
O195 O 0.77116 0.30828 0.59159 0.0
H196 H 0.67739 0.30017 0.57877 0.0
H197 H 0.67776 0.32784 0.66538 0.0
C198 C 0.76045 0.3547 0.61395 0.0
C199 C 0.76256 0.36201 0.58698 0.0
C200 C 0.76021 0.3857 0.58255 0.0
C201 C 0.75545 0.40246 0.60504 0.0
C202 C 0.75391 0.39506 0.63216 0.0
C203 C 0.75622 0.37135 0.63653 0.0
C204 C 0.77468 0.31699 0.65005 0.0
C205 C 0.76733 0.29737 0.66352 0.0
C206 C 0.7796 0.29172 0.68771 0.0
C207 C 0.79966 0.30545 0.69868 0.0
C208 C 0.80737 0.32479 0.6847 0.0
C209 C 0.79511 0.33036 0.66039 0.0
C210 C 0.72612 0.31765 0.62091 0.0
C211 C 0.71299 0.30864 0.59706 0.0
C212 C 0.68715 0.30652 0.59773 0.0
C213 C 0.674 0.31369 0.62219 0.0
C214 C 0.68733 0.32233 0.64618 0.0
C215 C 0.71316 0.32439 0.64548 0.0
P216 P 0.53936 0.35928 0.1865 0.0
H217 H 0.55321 0.40664 0.17325 0.0
H218 H 0.5708 0.44035 0.20155 0.0
H219 H 0.57386 0.39915 0.2729 0.0
H220 H 0.55539 0.36607 0.24486 0.0
H221 H 0.54971 0.3363 0.13099 0.0
H222 H 0.58504 0.31377 0.11203 0.0
H223 H 0.61874 0.31783 0.19429 0.0
H224 H 0.58367 0.34092 0.21287 0.0
H225 H 0.48987 0.37184 0.2054 0.0
H226 H 0.54196 0.31631 0.21654 0.0
O227 O 0.5236 0.36889 0.15973 0.0
H228 H 0.46257 0.35671 0.24009 0.0
H229 H 0.51462 0.3009 0.25107 0.0
C230 C 0.55256 0.38403 0.2071 0.0
C231 C 0.55751 0.40499 0.19505 0.0
C232 C 0.5678 0.42417 0.2112 0.0
C233 C 0.57358 0.42257 0.23961 0.0
C234 C 0.56912 0.40124 0.25131 0.0
C235 C 0.55866 0.38221 0.23523 0.0
C236 C 0.56418 0.34054 0.17327 0.0
C237 C 0.56464 0.33226 0.14497 0.0
C238 C 0.58482 0.31921 0.13419 0.0
C239 C 0.60485 0.31408 0.1516 0.0
C240 C 0.60387 0.32182 0.18018 0.0
C241 C 0.58374 0.33495 0.19088 0.0
C242 C 0.51781 0.3451 0.20816 0.0
C243 C 0.49513 0.35603 0.21481 0.0
C244 C 0.47951 0.34732 0.23462 0.0
C245 C 0.48641 0.32759 0.24837 0.0
C246 C 0.50887 0.31625 0.24102 0.0
C247 C 0.52447 0.32497 0.22112 0.0
P248 P 0.26053 0.1817 0.95416 0.0
H249 H 0.30104 0.15115 0.96878 0.0
H250 H 0.30392 0.10868 0.97101 0.0
H251 H 0.22781 0.10121 0.94216 0.0
H252 H 0.22565 0.14316 0.93859 0.0
H253 H 0.27419 0.22853 0.94094 0.0
H254 H 0.29273 0.24379 0.89971 0.0
H255 H 0.29849 0.17321 0.86061 0.0
H256 H 0.27988 0.15808 0.9018 0.0
H257 H 0.22267 0.18002 0.99663 0.0
H258 H 0.22704 0.19994 0.9122 0.0
O259 O 0.27403 0.19404 0.98318 0.0
H260 H 0.178 0.18684 0.99652 0.0
H261 H 0.18265 0.20796 0.91233 0.0
C262 C 0.26297 0.15035 0.95422 0.0
C263 C 0.28508 0.14025 0.96278 0.0
C264 C 0.28664 0.11598 0.96415 0.0
C265 C 0.26603 0.10142 0.95704 0.0
C266 C 0.24419 0.1117 0.9475 0.0
C267 C 0.24279 0.13587 0.94583 0.0
C268 C 0.27593 0.19222 0.92453 0.0
C269 C 0.27971 0.21635 0.9236 0.0
C270 C 0.29016 0.22503 0.90001 0.0
C271 C 0.29709 0.20966 0.877 0.0
C272 C 0.29362 0.18542 0.8782 0.0
C273 C 0.28293 0.17677 0.90172 0.0
C274 C 0.22824 0.18979 0.95464 0.0
C275 C 0.21407 0.18641 0.9783 0.0
C276 C 0.18851 0.19043 0.97821 0.0
C277 C 0.1766 0.19806 0.95443 0.0
C278 C 0.19106 0.20182 0.93088 0.0
C279 C 0.2166 0.19751 0.93091 0.0
P280 P 0.25925 0.60016 0.32556 0.0
H281 H 0.24191 0.5515 0.31988 0.0
H282 H 0.23453 0.52363 0.35455 0.0
H283 H 0.24261 0.57944 0.42056 0.0
H284 H 0.25025 0.6073 0.38553 0.0
H285 H 0.26961 0.64387 0.30173 0.0
H286 H 0.24365 0.6765 0.29035 0.0
H287 H 0.17945 0.6423 0.3221 0.0
H288 H 0.2059 0.60964 0.33429 0.0
H289 H 0.30705 0.57684 0.32494 0.0
H290 H 0.2771 0.64328 0.35756 0.0
O291 O 0.2631 0.58482 0.29476 0.0
H292 H 0.34764 0.58818 0.34442 0.0
H293 H 0.31795 0.65564 0.37513 0.0
C294 C 0.24688 0.58138 0.35021 0.0
C295 C 0.24143 0.55789 0.34174 0.0
C296 C 0.23709 0.54197 0.36163 0.0
C297 C 0.23826 0.54929 0.39032 0.0
C298 C 0.24191 0.57324 0.39861 0.0
C299 C 0.24614 0.58918 0.37865 0.0
C300 C 0.23984 0.62476 0.31974 0.0
C301 C 0.2501 0.64364 0.30702 0.0
C302 C 0.23525 0.66229 0.30055 0.0
C303 C 0.20966 0.66211 0.30592 0.0
C304 C 0.19921 0.64296 0.31818 0.0
C305 C 0.21428 0.62439 0.32517 0.0
C306 C 0.28932 0.60954 0.33884 0.0
C307 C 0.3094 0.59413 0.33573 0.0
C308 C 0.33267 0.60075 0.34678 0.0
C309 C 0.33638 0.62306 0.36101 0.0
C310 C 0.31594 0.63828 0.36449 0.0
C311 C 0.29255 0.6314 0.35395 0.0
P312 P 0.87928 0.84656 0.77478 0.0
H313 H 0.84114 0.88228 0.78314 0.0
H314 H 0.84311 0.92501 0.78993 0.0
H315 H 0.92171 0.92271 0.7724 0.0
H316 H 0.9196 0.87988 0.7659 0.0
H317 H 0.87035 0.79765 0.75734 0.0
H318 H 0.85092 0.7777 0.71583 0.0
H319 H 0.84616 0.84373 0.67861 0.0
H320 H 0.86511 0.86363 0.72061 0.0
H321 H 0.90311 0.84827 0.82892 0.0
H322 H 0.92127 0.82355 0.74421 0.0
O323 O 0.85868 0.83999 0.79876 0.0
H324 H 0.94394 0.83669 0.84462 0.0
H325 H 0.96224 0.81115 0.7599 0.0
C326 C 0.88031 0.87796 0.77475 0.0
C327 C 0.85872 0.89101 0.7804 0.0
C328 C 0.85986 0.91545 0.78406 0.0
C329 C 0.88265 0.92725 0.78202 0.0
C330 C 0.90398 0.9141 0.77459 0.0
C331 C 0.90278 0.88963 0.77083 0.0
C332 C 0.86908 0.83206 0.74205 0.0
C333 C 0.86548 0.80775 0.74003 0.0
C334 C 0.85448 0.79636 0.71619 0.0
C335 C 0.84686 0.80913 0.6939 0.0
C336 C 0.85148 0.83344 0.69557 0.0
C337 C 0.86246 0.84482 0.71951 0.0
C338 C 0.909 0.83624 0.78559 0.0
C339 C 0.91578 0.8399 0.81378 0.0
C340 C 0.93913 0.83315 0.82272 0.0
C341 C 0.95626 0.82259 0.80359 0.0
C342 C 0.94948 0.81919 0.77516 0.0
C343 C 0.92601 0.82608 0.76621 0.0
H344 H 0.11548 0.9178 0.10483 0.0
H345 H 0.10311 0.94524 0.14373 0.0
H346 H 0.16657 0.92522 0.19152 0.0
H347 H 0.17834 0.89664 0.15287 0.0
H348 H 0.12864 0.92948 0.22415 0.0
H349 H 0.16379 0.98203 0.16031 0.0
H350 H 0.1693 -0.00019 0.11566 0.0
H351 H 0.09134 0.01443 0.11227 0.0
H352 H 0.08543 0.9974 0.15729 0.0
H353 H 0.11479 0.03047 0.32376 0.0
H354 H 0.12926 0.99931 0.28948 0.0
H355 H 0.06608 0.01096 0.23673 0.0
H356 H 0.05193 0.04227 0.27057 0.0
H357 H 0.10708 0.01139 0.20796 0.0
H358 H 0.07229 0.96107 0.27313 0.0
H359 H 0.06695 0.94557 0.31909 0.0
H360 H 0.14395 0.92653 0.32024 0.0
H361 H 0.14983 0.94221 0.27444 0.0
C362 C 0.12693 0.91936 0.12354 0.0
C363 C 0.14805 0.90529 0.1257 0.0
C364 C 0.11992 0.93519 0.14576 0.0
C365 C 0.13428 0.93786 0.17035 0.0
C366 C 0.15529 0.92363 0.17269 0.0
C367 C 0.16203 0.90735 0.15061 0.0
C368 C 0.12685 0.95508 0.19376 0.0
C369 C 0.12434 0.94751 0.22071 0.0
C370 C 0.12069 0.9785 0.1893 0.0
C371 C 0.12415 0.98827 0.16199 0.0
C372 C 0.14781 0.98891 0.14994 0.0
C373 C 0.15102 0.99889 0.12461 0.0
C374 C 0.13068 0.00796 0.11098 0.0
C375 C 0.10708 0.00733 0.1228 0.0
C376 C 0.10382 0.99768 0.1483 0.0
C377 C 0.10384 0.02605 0.30504 0.0
C378 C 0.08239 0.03887 0.29964 0.0
C379 C 0.11207 0.00824 0.2855 0.0
C380 C 0.09874 0.00277 0.26051 0.0
C381 C 0.07677 0.01497 0.25575 0.0
C382 C 0.06871 0.03286 0.27506 0.0
C383 C 0.10847 0.98573 0.23821 0.0
C384 C 0.11151 0.99339 0.21147 0.0
C385 C 0.11508 0.96249 0.24297 0.0
C386 C 0.11156 0.95305 0.27049 0.0
C387 C 0.08813 0.95376 0.28329 0.0
C388 C 0.085 0.94491 0.3093 0.0
C389 C 0.10511 0.93513 0.32262 0.0
C390 C 0.1284 0.93414 0.30992 0.0
C391 C 0.13164 0.94299 0.28393 0.0
H392 H 0.10265 0.92829 0.34275 0.0
H393 H 0.13322 0.0156 0.09133 0.0
H394 H 0.62726 0.69038 0.58087 0.0
H395 H 0.61045 0.69512 0.62853 0.0
H396 H 0.55196 0.64583 0.60391 0.0
H397 H 0.56862 0.6408 0.55676 0.0
H398 H 0.53567 0.68786 0.63451 0.0
H399 H 0.59884 0.62686 0.63819 0.0
H400 H 0.64181 0.61241 0.63293 0.0
H401 H 0.66732 0.66762 0.69254 0.0
H402 H 0.62449 0.68251 0.69797 0.0
H403 H 0.48126 0.6382 0.74594 0.0
H404 H 0.5037 0.64666 0.70408 0.0
H405 H 0.5592 0.68483 0.75495 0.0
H406 H 0.53679 0.67609 0.79725 0.0
H407 H 0.58076 0.65765 0.71436 0.0
H408 H 0.51673 0.71429 0.71758 0.0
H409 H 0.4742 0.72974 0.72271 0.0
H410 H 0.45082 0.68591 0.65017 0.0
H411 H 0.49313 0.66993 0.64483 0.0
C412 C 0.61077 0.68065 0.58567 0.0
C413 C 0.59929 0.66519 0.56509 0.0
C414 C 0.60125 0.68334 0.61284 0.0
C415 C 0.57997 0.67083 0.61963 0.0
C416 C 0.56834 0.6557 0.59902 0.0
C417 C 0.57799 0.65276 0.57212 0.0
C418 C 0.56971 0.67286 0.64824 0.0
C419 C 0.54547 0.68129 0.65203 0.0
C420 C 0.58292 0.66508 0.67121 0.0
C421 C 0.60854 0.65592 0.66829 0.0
C422 C 0.61364 0.63599 0.65005 0.0
C423 C 0.63795 0.6277 0.64707 0.0
C424 C 0.65726 0.63912 0.66236 0.0
C425 C 0.65232 0.65881 0.68071 0.0
C426 C 0.62804 0.66716 0.68378 0.0
C427 C 0.49805 0.64868 0.74825 0.0
C428 C 0.50709 0.65673 0.77488 0.0
C429 C 0.5109 0.65351 0.72429 0.0
C430 C 0.53289 0.66681 0.72631 0.0
C431 C 0.54219 0.67466 0.75288 0.0
C432 C 0.5294 0.66965 0.77699 0.0
C433 C 0.5462 0.67183 0.70046 0.0
C434 C 0.57105 0.66478 0.69715 0.0
C435 C 0.53362 0.68115 0.67792 0.0
C436 C 0.50812 0.69083 0.68089 0.0
C437 C 0.5025 0.70784 0.70282 0.0
C438 C 0.47842 0.7167 0.70575 0.0
C439 C 0.45981 0.70879 0.6868 0.0
C440 C 0.46525 0.69203 0.66483 0.0
C441 C 0.4893 0.68309 0.66181 0.0
H442 H 0.44118 0.71567 0.68911 0.0
H443 H 0.67603 0.63266 0.66006 0.0
H444 H 0.84155 0.08987 0.01006 0.0
H445 H 0.81866 0.0602 0.03313 0.0
H446 H 0.76427 0.11187 0.06141 0.0
H447 H 0.78701 0.14178 0.03793 0.0
H448 H 0.78599 0.08664 0.10394 0.0
H449 H 0.74555 0.07059 0.01529 0.0
H450 H 0.74305 0.06237 0.96409 0.0
H451 H 0.78568 -0.00035 0.96928 0.0
H452 H 0.78871 0.00761 0.02047 0.0
H453 H 0.73467 0.99565 0.17639 0.0
H454 H 0.73551 0.02747 0.14527 0.0
H455 H 0.78487 0.98677 0.0899 0.0
H456 H 0.78338 0.95486 0.12031 0.0
H457 H 0.75593 0.01007 0.06001 0.0
H458 H 0.80522 0.02887 0.14328 0.0
H459 H 0.81358 0.03665 0.19379 0.0
H460 H 0.7615 0.09345 0.19814 0.0
H461 H 0.75256 0.08575 0.14769 0.0
C462 C 0.82458 0.09489 0.02094 0.0
C463 C 0.81611 0.11815 0.02236 0.0
C464 C 0.81142 0.07788 0.0339 0.0
C465 C 0.78969 0.08384 0.04874 0.0
C466 C 0.78091 0.10695 0.04984 0.0
C467 C 0.79389 0.12396 0.03645 0.0
C468 C 0.77777 0.06629 0.0652 0.0
C469 C 0.77873 0.07011 0.0944 0.0
C470 C 0.76911 0.04454 0.0526 0.0
C471 C 0.7674 0.03974 0.02176 0.0
C472 C 0.75454 0.05512 0.00551 0.0
C473 C 0.75299 0.05049 0.97648 0.0
C474 C 0.76416 0.03048 0.96345 0.0
C475 C 0.77698 0.01511 0.97941 0.0
C476 C 0.77858 0.01965 0.00844 0.0
C477 C 0.74528 0.99342 0.15727 0.0
C478 C 0.75902 0.97286 0.15077 0.0
C479 C 0.74585 0.0116 0.13958 0.0
C480 C 0.76066 0.00973 0.11551 0.0
C481 C 0.77327 0.98867 0.10829 0.0
C482 C 0.77238 0.97039 0.12569 0.0
C483 C 0.76482 0.0301 0.09888 0.0
C484 C 0.76248 0.02681 0.06964 0.0
C485 C 0.77294 0.05217 0.11141 0.0
C486 C 0.77792 0.05648 0.14184 0.0
C487 C 0.79535 0.04284 0.15508 0.0
C488 C 0.80023 0.04727 0.18368 0.0
C489 C 0.788 0.06547 0.19919 0.0
C490 C 0.77089 0.0793 0.18612 0.0
C491 C 0.76588 0.0749 0.15754 0.0
H492 H 0.79185 0.06891 0.22131 0.0
H493 H 0.76287 0.02686 0.941 0.0
H494 H 0.44122 0.28792 0.57082 0.0
H495 H 0.48519 0.28529 0.58255 0.0
H496 H 0.48399 0.35633 0.62061 0.0
H497 H 0.44006 0.35931 0.60843 0.0
H498 H 0.52231 0.35018 0.58696 0.0
H499 H 0.48811 0.30889 0.66013 0.0
H500 H 0.46217 0.27934 0.68072 0.0
H501 H 0.50256 0.22414 0.63516 0.0
H502 H 0.52852 0.25337 0.61395 0.0
H503 H 0.64304 0.34787 0.64461 0.0
H504 H 0.59777 0.34891 0.64182 0.0
H505 H 0.59726 0.28071 0.59606 0.0
H506 H 0.64265 0.2793 0.5993 0.0
H507 H 0.55979 0.28586 0.63591 0.0
H508 H 0.59236 0.32779 0.56119 0.0
H509 H 0.61824 0.35763 0.54104 0.0
H510 H 0.58044 0.41217 0.59082 0.0
H511 H 0.55456 0.3826 0.61157 0.0
C512 C 0.45021 0.30294 0.58191 0.0
C513 C 0.43711 0.32387 0.58856 0.0
C514 C 0.47536 0.30136 0.58873 0.0
C515 C 0.48786 0.32055 0.60268 0.0
C516 C 0.47473 0.34131 0.60983 0.0
C517 C 0.4496 0.34296 0.60288 0.0
C518 C 0.51492 0.31936 0.60843 0.0
C519 C 0.53042 0.33634 0.59812 0.0
C520 C 0.5256 0.301 0.62242 0.0
C521 C 0.51012 0.28335 0.63526 0.0
C522 C 0.49134 0.29046 0.65433 0.0
C523 C 0.47665 0.27376 0.66614 0.0
C524 C 0.48068 0.24988 0.65921 0.0
C525 C 0.49945 0.24264 0.6405 0.0
C526 C 0.51417 0.25927 0.62859 0.0
C527 C 0.6333 0.33289 0.6344 0.0
C528 C 0.64643 0.31352 0.6221 0.0
C529 C 0.60744 0.3336 0.63264 0.0
C530 C 0.59421 0.315 0.61847 0.0
C531 C 0.60715 0.29526 0.60702 0.0
C532 C 0.63306 0.29457 0.6087 0.0
C533 C 0.567 0.31666 0.61444 0.0
C534 C 0.55155 0.29976 0.62498 0.0
C535 C 0.5563 0.33515 0.60077 0.0
C536 C 0.57171 0.35297 0.58814 0.0
C537 C 0.5897 0.34613 0.568 0.0
C538 C 0.60434 0.363 0.55644 0.0
C539 C 0.60103 0.38678 0.5647 0.0
C540 C 0.58301 0.39374 0.58448 0.0
C541 C 0.56834 0.37694 0.59613 0.0
H542 H 0.61239 0.39981 0.55574 0.0
H543 H 0.46928 0.23698 0.66837 0.0
H544 H 0.61087 0.57138 0.4376 0.0
H545 H 0.60668 0.54085 0.39955 0.0
H546 H 0.65457 0.57956 0.34828 0.0
H547 H 0.65881 0.61071 0.3866 0.0
H548 H 0.61313 0.56128 0.31953 0.0
H549 H 0.67755 0.53268 0.37478 0.0
H550 H 0.699 0.52316 0.41787 0.0
H551 H 0.64117 0.47428 0.43357 0.0
H552 H 0.61913 0.48378 0.39082 0.0
H553 H 0.60777 0.45525 0.22522 0.0
H554 H 0.62447 0.48874 0.25483 0.0
H555 H 0.57972 0.46937 0.32341 0.0
H556 H 0.56243 0.43645 0.29395 0.0
H557 H 0.62912 0.47874 0.33836 0.0
H558 H 0.56209 0.51315 0.28721 0.0
H559 H 0.54055 0.52322 0.24439 0.0
H560 H 0.60484 0.56122 0.2207 0.0
H561 H 0.62688 0.55109 0.26324 0.0
C562 C 0.62062 0.57352 0.41832 0.0
C563 C 0.6354 0.59343 0.41528 0.0
C564 C 0.61826 0.55594 0.39659 0.0
C565 C 0.6307 0.55772 0.37131 0.0
C566 C 0.645 0.5778 0.36777 0.0
C567 C 0.64742 0.59552 0.38966 0.0
C568 C 0.62816 0.53848 0.3488 0.0
C569 C 0.6172 0.54328 0.32333 0.0
C570 C 0.63335 0.51498 0.35389 0.0
C571 C 0.64661 0.50904 0.3796 0.0
C572 C 0.6693 0.52001 0.3875 0.0
C573 C 0.68158 0.5146 0.41187 0.0
C574 C 0.67145 0.49814 0.42846 0.0
C575 C 0.64901 0.48703 0.42069 0.0
C576 C 0.63663 0.49239 0.39636 0.0
C577 C 0.60128 0.45827 0.24651 0.0
C578 C 0.58382 0.44305 0.25722 0.0
C579 C 0.61095 0.47733 0.26342 0.0
C580 C 0.60336 0.48145 0.2913 0.0
C581 C 0.58599 0.46634 0.30201 0.0
C582 C 0.57621 0.44745 0.28514 0.0
C583 C 0.61323 0.50151 0.30963 0.0
C584 C 0.62562 0.4968 0.33431 0.0
C585 C 0.6095 0.52504 0.30372 0.0
C586 C 0.59624 0.5311 0.27819 0.0
C587 C 0.57171 0.52346 0.27273 0.0
C588 C 0.55939 0.52922 0.24854 0.0
C589 C 0.57135 0.54278 0.22978 0.0
C590 C 0.59562 0.55067 0.23521 0.0
C591 C 0.60803 0.54493 0.25936 0.0
H592 H 0.56178 0.54723 0.21107 0.0
H593 H 0.68099 0.49397 0.44732 0.0
H594 H 0.93431 0.2232 0.96357 0.0
H595 H 0.97776 0.22822 0.9502 0.0
H596 H 0.99793 0.1675 0.99259 0.0
H597 H 0.95483 0.16209 0.00547 0.0
H598 H 0.01938 0.23647 0.97946 0.0
H599 H 0.04218 0.13682 0.95861 0.0
H600 H 0.02074 0.10048 0.94043 0.0
H601 H 0.9695 0.14052 0.89507 0.0
H602 H 0.99086 0.17707 0.91258 0.0
H603 H 0.14642 0.21516 0.99726 0.0
H604 H 0.10127 0.21694 0.99747 0.0
H605 H 0.09923 0.19107 0.91039 0.0
H606 H 0.14435 0.18771 0.91051 0.0
H607 H 0.06675 0.16892 0.93575 0.0
H608 H 0.08475 0.24958 0.93338 0.0
H609 H 0.10496 0.28763 0.94678 0.0
H610 H 0.07308 0.28878 0.02861 0.0
H611 H 0.05295 0.25056 0.01585 0.0
C612 C 0.94803 0.21093 0.97002 0.0
C613 C 0.94107 0.19218 0.98549 0.0
C614 C 0.97283 0.21384 0.96239 0.0
C615 C 0.99102 0.19802 0.97003 0.0
C616 C 0.98414 0.17962 0.98593 0.0
C617 C 0.95946 0.17662 0.9934 0.0
C618 C 0.01734 0.20065 0.96183 0.0
C619 C 0.02975 0.22179 0.96973 0.0
C620 C 0.03066 0.18173 0.94825 0.0
C621 C 0.01805 0.15972 0.9371 0.0
C622 C 0.02645 0.13787 0.94461 0.0
C623 C 0.01428 0.11723 0.93444 0.0
C624 C 0.99374 0.11819 0.91666 0.0
C625 C 0.98537 0.1398 0.9089 0.0
C626 C 0.99749 0.16048 0.91896 0.0
C627 C 0.13642 0.20972 0.97815 0.0
C628 C 0.14915 0.20118 0.9539 0.0
C629 C 0.11054 0.2111 0.97818 0.0
C630 C 0.09676 0.20446 0.95383 0.0
C631 C 0.10941 0.19639 0.92942 0.0
C632 C 0.1353 0.19472 0.92946 0.0
C633 C 0.06915 0.20447 0.95445 0.0
C634 C 0.05643 0.18378 0.94511 0.0
C635 C 0.05545 0.22406 0.96588 0.0
C636 C 0.06745 0.24711 0.97369 0.0
C637 C 0.08217 0.25787 0.9543 0.0
C638 C 0.0936 0.27948 0.96177 0.0
C639 C 0.09034 0.2906 0.98854 0.0
C640 C 0.0756 0.28014 0.00788 0.0
C641 C 0.06414 0.25852 0.00052 0.0
H642 H 0.0992 0.30733 0.99429 0.0
H643 H 0.98431 0.10219 0.90886 0.0
H644 H 0.28374 0.3877 0.55907 0.0
H645 H 0.25968 0.41545 0.5341 0.0
H646 H 0.31681 0.41559 0.47154 0.0
H647 H 0.34084 0.38756 0.49613 0.0
H648 H 0.27056 0.4585 0.52502 0.0
H649 H 0.29141 0.42616 0.40844 0.0
H650 H 0.29614 0.38897 0.37913 0.0
H651 H 0.25567 0.35263 0.43904 0.0
H652 H 0.25013 0.38966 0.46838 0.0
H653 H 0.27016 0.54797 0.43431 0.0
H654 H 0.27654 0.5159 0.46368 0.0
H655 H 0.21538 0.47793 0.42244 0.0
H656 H 0.20905 0.51009 0.39259 0.0
H657 H 0.25362 0.45081 0.423 0.0
H658 H 0.21223 0.49903 0.49243 0.0
H659 H 0.20187 0.53508 0.52178 0.0
H660 H 0.27518 0.53691 0.55756 0.0
H661 H 0.28613 0.50106 0.52813 0.0
C662 C 0.29113 0.39348 0.53988 0.0
C663 C 0.31433 0.38554 0.52973 0.0
C664 C 0.27733 0.40936 0.52565 0.0
C665 C 0.28636 0.41752 0.5009 0.0
C666 C 0.30929 0.40929 0.4904 0.0
C667 C 0.3231 0.39338 0.50461 0.0
C668 C 0.27262 0.43575 0.48697 0.0
C669 C 0.2667 0.45676 0.50274 0.0
C670 C 0.26687 0.43322 0.45806 0.0
C671 C 0.2705 0.41073 0.44073 0.0
C672 C 0.28339 0.41027 0.41531 0.0
C673 C 0.28616 0.38921 0.39864 0.0
C674 C 0.27614 0.36847 0.40716 0.0
C675 C 0.26341 0.36871 0.43243 0.0
C676 C 0.26046 0.38974 0.44911 0.0
C677 C 0.25755 0.53314 0.43203 0.0
C678 C 0.23907 0.53158 0.41114 0.0
C679 C 0.26124 0.51475 0.44886 0.0
C680 C 0.24633 0.49453 0.44544 0.0
C681 C 0.22713 0.49335 0.42542 0.0
C682 C 0.22353 0.51171 0.40841 0.0
C683 C 0.25256 0.47389 0.46084 0.0
C684 C 0.25713 0.45242 0.44535 0.0
C685 C 0.25649 0.4758 0.49012 0.0
C686 C 0.25003 0.49739 0.50793 0.0
C687 C 0.22621 0.5072 0.50641 0.0
C688 C 0.22022 0.5276 0.52309 0.0
C689 C 0.23787 0.5383 0.54149 0.0
C690 C 0.26153 0.5286 0.54329 0.0
C691 C 0.26762 0.50822 0.52665 0.0
H692 H 0.23319 0.55409 0.55438 0.0
H693 H 0.27831 0.35222 0.39418 0.0
H694 H 0.1451 0.8007 0.96389 0.0
H695 H 0.12744 0.79226 0.91684 0.0
H696 H 0.08387 0.85548 0.92804 0.0
H697 H 0.10197 0.86441 0.97395 0.0
H698 H 0.08345 0.78195 0.9019 0.0
H699 H 0.0688 0.87895 0.8724 0.0
H700 H 0.09316 0.91556 0.87421 0.0
H701 H 0.1608 0.87636 0.87702 0.0
H702 H 0.13691 0.83945 0.87476 0.0
H703 H 0.96767 0.80257 0.85158 0.0
H704 H 0.00843 0.79789 0.87201 0.0
H705 H 0.0426 0.82156 0.79828 0.0
H706 H 0.00142 0.82781 0.7784 0.0
H707 H 0.06252 0.84382 0.83949 0.0
H708 H 0.05206 0.76379 0.81891 0.0
H709 H 0.03163 0.72507 0.81309 0.0
H710 H 0.02172 0.72643 0.90186 0.0
H711 H 0.04172 0.7653 0.90824 0.0
C712 C 0.13211 0.813 0.95601 0.0
C713 C 0.12489 0.83319 0.97273 0.0
C714 C 0.12203 0.80815 0.92913 0.0
C715 C 0.10458 0.8234 0.91859 0.0
C716 C 0.09785 0.84376 0.93515 0.0
C717 C 0.10807 0.84874 0.96169 0.0
C718 C 0.0911 0.81721 0.89183 0.0
C719 C 0.07916 0.79532 0.88795 0.0
C720 C 0.08651 0.83413 0.87258 0.0
C721 C 0.101 0.85636 0.87341 0.0
C722 C 0.08887 0.87807 0.87311 0.0
C723 C 0.10261 0.89891 0.8743 0.0
C724 C 0.12851 0.89829 0.87574 0.0
C725 C 0.14074 0.87682 0.87595 0.0
C726 C 0.1271 0.85593 0.87474 0.0
C727 C 0.98382 0.80668 0.83958 0.0
C728 C 0.98124 0.81596 0.81356 0.0
C729 C 0.00726 0.80356 0.85109 0.0
C730 C 0.02878 0.80907 0.83661 0.0
C731 C 0.02632 0.81711 0.80987 0.0
C732 C 0.00275 0.82052 0.79843 0.0
C733 C 0.05322 0.80937 0.85128 0.0
C734 C 0.06735 0.83011 0.85278 0.0
C735 C 0.0605 0.79103 0.86756 0.0
C736 C 0.04845 0.76754 0.86403 0.0
C737 C 0.04542 0.7559 0.8372 0.0
C738 C 0.03391 0.73391 0.8338 0.0
C739 C 0.02539 0.7233 0.85709 0.0
C740 C 0.02838 0.73465 0.88384 0.0
C741 C 0.03987 0.75665 0.88736 0.0
H742 H 0.01647 0.70627 0.85441 0.0
H743 H 0.1391 0.91444 0.87671 0.0
H744 H 0.84008 0.13187 0.90327 0.0
H745 H 0.84524 0.10077 0.86565 0.0
H746 H 0.91243 0.07859 0.90492 0.0
H747 H 0.90786 0.11018 0.9421 0.0
H748 H 0.91615 0.0729 0.84879 0.0
H749 H 0.85561 0.05356 0.91807 0.0
H750 H 0.81786 0.0618 0.94604 0.0
H751 H 0.77428 0.06186 0.87083 0.0
H752 H 0.81181 0.05385 0.84244 0.0
H753 H 0.91835 0.95018 0.81445 0.0
H754 H 0.9182 0.9909 0.83393 0.0
H755 H 0.85057 0.00287 0.78873 0.0
H756 H 0.8506 0.96195 0.76913 0.0
H757 H 0.84569 0.01657 0.84216 0.0
H758 H 0.9059 0.02954 0.77293 0.0
H759 H 0.94392 0.02242 0.74525 0.0
H760 H 0.98844 0.03435 0.81964 0.0
H761 H 0.95068 0.04121 0.84786 0.0
C762 C 0.85616 0.12059 0.90366 0.0
C763 C 0.8733 0.12316 0.92592 0.0
C764 C 0.85908 0.10283 0.88216 0.0
C765 C 0.87888 0.08699 0.88287 0.0
C766 C 0.89694 0.09052 0.90404 0.0
C767 C 0.89424 0.10853 0.92535 0.0
C768 C 0.87947 0.0655 0.86332 0.0
C769 C 0.90083 0.06049 0.84738 0.0
C770 C 0.85922 0.04959 0.86104 0.0
C771 C 0.83653 0.05336 0.87815 0.0
C772 C 0.83797 0.05537 0.90752 0.0
C773 C 0.81663 0.06002 0.92344 0.0
C774 C 0.79373 0.0625 0.9102 0.0
C775 C 0.79205 0.06002 0.88104 0.0
C776 C 0.81334 0.05539 0.86503 0.0
C777 C 0.90382 0.96162 0.80798 0.0
C778 C 0.88444 0.9528 0.79029 0.0
C779 C 0.90376 0.98495 0.81916 0.0
C780 C 0.88445 2e-05 0.81268 0.0
C781 C 0.86564 0.99154 0.79405 0.0
C782 C 0.86564 0.96816 0.78293 0.0
C783 C 0.88255 0.0237 0.82771 0.0
C784 C 0.86092 0.02908 0.84305 0.0
C785 C 0.90261 0.03984 0.82945 0.0
C786 C 0.9254 0.03572 0.81255 0.0
C787 C 0.92378 0.03046 0.78343 0.0
C788 C 0.94529 0.02651 0.76763 0.0
C789 C 0.96858 0.02789 0.78068 0.0
C790 C 0.9704 0.03328 0.80956 0.0
C791 C 0.94894 0.03723 0.82546 0.0
H792 H 0.98521 0.02483 0.76841 0.0
H793 H 0.77727 0.06636 0.9225 0.0
H794 H 0.40762 0.34872 0.48496 0.0
H795 H 0.41889 0.3436 0.43591 0.0
H796 H 0.37899 0.27792 0.42654 0.0
H797 H 0.36767 0.28277 0.47617 0.0
H798 H 0.42459 0.27527 0.4006 0.0
H799 H 0.35377 0.32333 0.40147 0.0
H800 H 0.32716 0.35593 0.41966 0.0
H801 H 0.3817 0.40558 0.39678 0.0
H802 H 0.40913 0.37323 0.37938 0.0
H803 H 0.43563 0.32431 0.25138 0.0
H804 H 0.41084 0.31599 0.292 0.0
H805 H 0.47804 0.30653 0.33906 0.0
H806 H 0.50278 0.31473 0.29873 0.0
H807 H 0.40817 0.34 0.34057 0.0
H808 H 0.47031 0.26942 0.38772 0.0
H809 H 0.49561 0.23534 0.37088 0.0
H810 H 0.45289 0.22751 0.29482 0.0
H811 H 0.42709 0.26131 0.31134 0.0
C812 C 0.40119 0.33313 0.47261 0.0
C813 C 0.38669 0.31616 0.48455 0.0
C814 C 0.4076 0.33028 0.44449 0.0
C815 C 0.39952 0.31053 0.42752 0.0
C816 C 0.38534 0.29332 0.43931 0.0
C817 C 0.37886 0.29616 0.46762 0.0
C818 C 0.40617 0.30825 0.39751 0.0
C819 C 0.42082 0.28925 0.38731 0.0
C820 C 0.40048 0.32616 0.37993 0.0
C821 C 0.3836 0.34578 0.3892 0.0
C822 C 0.36017 0.34119 0.4004 0.0
C823 C 0.34493 0.35964 0.41061 0.0
C824 C 0.35269 0.38283 0.40933 0.0
C825 C 0.3757 0.3876 0.39775 0.0
C826 C 0.39113 0.3692 0.38773 0.0
C827 C 0.44509 0.32022 0.27033 0.0
C828 C 0.47119 0.32013 0.27179 0.0
C829 C 0.4309 0.31542 0.29349 0.0
C830 C 0.44253 0.31038 0.31852 0.0
C831 C 0.46858 0.30981 0.31981 0.0
C832 C 0.48275 0.31451 0.29668 0.0
C833 C 0.42777 0.3076 0.34408 0.0
C834 C 0.41153 0.32569 0.3535 0.0
C835 C 0.43157 0.28859 0.36067 0.0
C836 C 0.44683 0.26801 0.35074 0.0
C837 C 0.46619 0.26034 0.36748 0.0
C838 C 0.48065 0.24109 0.35796 0.0
C839 C 0.47589 0.2293 0.33178 0.0
C840 C 0.45661 0.2367 0.31507 0.0
C841 C 0.44208 0.25593 0.32448 0.0
H842 H 0.48712 0.21441 0.32444 0.0
H843 H 0.3409 0.3971 0.41733 0.0
H844 H 0.23245 0.90091 0.05418 0.0
H845 H 0.2559 0.93282 0.03599 0.0
H846 H 0.20086 0.9378 0.97116 0.0
H847 H 0.17737 0.90575 0.98896 0.0
H848 H 0.2506 0.94721 0.95407 0.0
H849 H 0.19328 0.96884 0.03058 0.0
H850 H 0.17835 0.96383 0.07815 0.0
H851 H 0.2498 0.98465 0.1121 0.0
H852 H 0.26536 0.98914 0.06459 0.0
H853 H 0.24399 0.06523 0.92446 0.0
H854 H 0.23955 0.02466 0.9351 0.0
H855 H 0.28608 0.03853 0.00821 0.0
H856 H 0.28904 0.07963 0.9989 0.0
H857 H 0.24773 0.01721 0.02249 0.0
H858 H 0.30428 0.00173 0.9482 0.0
H859 H 0.32227 0.00342 0.90135 0.0
H860 H 0.25717 0.97006 0.86406 0.0
H861 H 0.2386 0.96847 0.91067 0.0
C862 C 0.22555 0.90845 0.03571 0.0
C863 C 0.20271 0.90116 0.02343 0.0
C864 C 0.23906 0.92661 0.02528 0.0
C865 C 0.22989 0.93785 0.00252 0.0
C866 C 0.20821 0.92934 0.98879 0.0
C867 C 0.1947 0.91115 0.99916 0.0
C868 C 0.24057 0.9605 0.99569 0.0
C869 C 0.25 0.9626 0.96888 0.0
C870 C 0.24039 0.98031 0.01542 0.0
C871 C 0.23055 0.97908 0.04405 0.0
C872 C 0.20582 0.97229 0.04819 0.0
C873 C 0.19728 0.96946 0.07512 0.0
C874 C 0.21316 0.97381 0.09813 0.0
C875 C 0.23756 0.9812 0.09425 0.0
C876 C 0.24625 0.98386 0.06733 0.0
C877 C 0.2533 0.05972 0.94283 0.0
C878 C 0.2666 0.0759 0.961 0.0
C879 C 0.2511 0.03632 0.94863 0.0
C880 C 0.26267 0.02837 0.97235 0.0
C881 C 0.27699 0.0442 0.98976 0.0
C882 C 0.27887 0.06771 0.98423 0.0
C883 C 0.25764 0.00431 0.98046 0.0
C884 C 0.24899 0.00189 0.00762 0.0
C885 C 0.25893 0.9842 0.96111 0.0
C886 C 0.26997 0.98514 0.93297 0.0
C887 C 0.29371 0.99492 0.93001 0.0
C888 C 0.30403 0.99583 0.90348 0.0
C889 C 0.29085 0.98689 0.87974 0.0
C890 C 0.26735 0.97699 0.88247 0.0
C891 C 0.25693 0.97605 0.90895 0.0
H892 H 0.29888 0.98761 0.85922 0.0
H893 H 0.20655 0.97154 0.11896 0.0
H894 H 0.5629 0.62831 0.42561 0.0
H895 H 0.5205 0.62903 0.4073 0.0
H896 H 0.5037 0.68802 0.46601 0.0
H897 H 0.5464 0.68767 0.48427 0.0
H898 H 0.4697 0.648 0.46482 0.0
H899 H 0.50757 0.69907 0.40268 0.0
H900 H 0.53916 0.71034 0.36934 0.0
H901 H 0.51971 0.65061 0.3131 0.0
H902 H 0.48832 0.63873 0.34631 0.0
H903 H 0.34791 0.65136 0.40878 0.0
H904 H 0.3889 0.66316 0.42656 0.0
H905 H 0.42272 0.62159 0.35788 0.0
H906 H 0.38191 0.61154 0.3385 0.0
H907 H 0.44766 0.65885 0.3663 0.0
H908 H 0.41643 0.60346 0.42754 0.0
H909 H 0.38693 0.58746 0.46015 0.0
H910 H 0.39587 0.64913 0.51688 0.0
H911 H 0.42521 0.66562 0.48442 0.0
C912 C 0.55026 0.64158 0.43447 0.0
C913 C 0.55791 0.6579 0.45641 0.0
C914 C 0.5261 0.64202 0.42392 0.0
C915 C 0.50909 0.65862 0.43528 0.0
C916 C 0.51667 0.67513 0.45697 0.0
C917 C 0.54103 0.67496 0.46727 0.0
C918 C 0.48307 0.65771 0.42528 0.0
C919 C 0.46468 0.65086 0.44346 0.0
C920 C 0.47688 0.66069 0.39717 0.0
C921 C 0.49567 0.66794 0.37709 0.0
C922 C 0.51016 0.68823 0.38331 0.0
C923 C 0.52802 0.69475 0.3644 0.0
C924 C 0.53144 0.68118 0.33913 0.0
C925 C 0.51702 0.6611 0.33269 0.0
C926 C 0.49918 0.65448 0.35153 0.0
C927 C 0.364 0.64506 0.39707 0.0
C928 C 0.36141 0.6303 0.37219 0.0
C929 C 0.38752 0.65157 0.40757 0.0
C930 C 0.409 0.6429 0.39392 0.0
C931 C 0.40648 0.62846 0.36892 0.0
C932 C 0.38302 0.6224 0.35807 0.0
C933 C 0.43416 0.64854 0.40565 0.0
C934 C 0.45245 0.6563 0.38781 0.0
C935 C 0.44043 0.64575 0.4339 0.0
C936 C 0.42276 0.63589 0.4534 0.0
C937 C 0.41195 0.61368 0.44687 0.0
C938 C 0.39528 0.60452 0.46534 0.0
C939 C 0.38946 0.61731 0.49053 0.0
C940 C 0.40035 0.63927 0.49734 0.0
C941 C 0.417 0.64853 0.47892 0.0
H942 H 0.37656 0.61018 0.50481 0.0
H943 H 0.54522 0.68624 0.32448 0.0
H944 H 0.35693 0.36472 0.66873 0.0
H945 H 0.36759 0.39341 0.7079 0.0
H946 H 0.37895 0.44618 0.65016 0.0
H947 H 0.3695 0.41746 0.6111 0.0
H948 H 0.41483 0.44838 0.68564 0.0
H949 H 0.32565 0.44197 0.69305 0.0
H950 H 0.28596 0.42131 0.69851 0.0
H951 H 0.3104 0.40052 0.778 0.0
H952 H 0.35046 0.42062 0.77273 0.0
H953 H 0.40688 0.55505 0.76823 0.0
H954 H 0.3961 0.52106 0.73613 0.0
H955 H 0.4034 0.47597 0.80318 0.0
H956 H 0.41413 0.5101 0.83565 0.0
H957 H 0.36046 0.46654 0.76759 0.0
H958 H 0.44861 0.47554 0.76087 0.0
H959 H 0.48757 0.49736 0.75539 0.0
H960 H 0.46375 0.51458 0.67414 0.0
H961 H 0.42445 0.49315 0.67932 0.0
C962 C 0.36156 0.3825 0.66449 0.0
C963 C 0.36238 0.38887 0.63687 0.0
C964 C 0.36755 0.39889 0.68688 0.0
C965 C 0.37383 0.42207 0.68207 0.0
C966 C 0.3743 0.42842 0.65447 0.0
C967 C 0.36881 0.41199 0.63213 0.0
C968 C 0.38055 0.43977 0.70543 0.0
C969 C 0.40276 0.45244 0.70339 0.0
C970 C 0.3653 0.44461 0.72916 0.0
C971 C 0.34119 0.43254 0.73232 0.0
C972 C 0.32266 0.43279 0.71156 0.0
C973 C 0.30009 0.42119 0.71463 0.0
C974 C 0.29571 0.4095 0.73852 0.0
C975 C 0.31385 0.40949 0.75945 0.0
C976 C 0.3365 0.42098 0.75643 0.0
C977 C 0.40587 0.53796 0.77626 0.0
C978 C 0.41133 0.53523 0.80446 0.0
C979 C 0.39986 0.51855 0.75786 0.0
C980 C 0.39914 0.49602 0.76727 0.0
C981 C 0.4039 0.49323 0.79556 0.0
C982 C 0.41017 0.51268 0.81399 0.0
C983 C 0.39418 0.47545 0.74711 0.0
C984 C 0.3725 0.46224 0.74987 0.0
C985 C 0.40978 0.47016 0.72389 0.0
C986 C 0.4335 0.48288 0.72059 0.0
C987 C 0.45159 0.48412 0.74192 0.0
C988 C 0.47375 0.4964 0.73885 0.0
C989 C 0.47811 0.50739 0.71445 0.0
C990 C 0.46034 0.50607 0.69304 0.0
C991 C 0.43813 0.49384 0.69602 0.0
H992 H 0.49528 0.51688 0.71212 0.0
H993 H 0.27823 0.40053 0.74087 0.0
H994 H 0.07655 0.8796 0.09836 0.0
H995 H 0.03458 0.87818 0.11665 0.0
H996 H 0.02433 0.80894 0.07505 0.0
H997 H 0.06674 0.80999 0.05705 0.0
H998 H 0.99111 0.87516 0.09188 0.0
H999 H 0.98382 0.77807 0.11768 0.0
H1000 H 0.01189 0.74584 0.12774 0.0
H1001 H 0.06753 0.79574 0.15805 0.0
H1002 H 0.03935 0.82822 0.14967 0.0
H1003 H 0.86794 0.85691 0.12765 0.0
H1004 H 0.90791 0.8472 0.10576 0.0
H1005 H 0.94152 0.84432 0.1872 0.0
H1006 H 0.90144 0.85359 0.20917 0.0
H1007 H 0.96257 0.81243 0.14954 0.0
H1008 H 0.94261 0.89457 0.15595 0.0
H1009 H 0.91645 0.92884 0.14875 0.0
H1010 H 0.91972 0.91265 0.05987 0.0
H1011 H 0.94558 0.87804 0.06658 0.0
C1012 C 0.0654 0.86405 0.09299 0.0
C1013 C 0.07501 0.84489 0.07622 0.0
C1014 C 0.04136 0.8633 0.10343 0.0
C1015 C 0.02635 0.84343 0.09734 0.0
C1016 C 0.03571 0.82435 0.08029 0.0
C1017 C 0.05992 0.825 0.06997 0.0
C1018 C 0.00099 0.8429 0.10914 0.0
C1019 C 0.98486 0.86133 0.10431 0.0
C1020 C 0.99296 0.82504 0.12575 0.0
C1021 C 0.00956 0.80562 0.13258 0.0
C1022 C 0.00192 0.78218 0.12683 0.0
C1023 C 0.01783 0.76385 0.13236 0.0
C1024 C 0.04147 0.76874 0.14357 0.0
C1025 C 0.04916 0.79196 0.14954 0.0
C1026 C 0.03318 0.81034 0.1445 0.0
C1027 C 0.88378 0.85377 0.14083 0.0
C1028 C 0.88172 0.8563 0.17009 0.0
C1029 C 0.90656 0.84819 0.12833 0.0
C1030 C 0.92779 0.84549 0.14488 0.0
C1031 C 0.92539 0.84635 0.17404 0.0
C1032 C 0.9025 0.85168 0.18657 0.0
C1033 C 0.95279 0.84461 0.13206 0.0
C1034 C 0.96881 0.82602 0.13676 0.0
C1035 C 0.96108 0.86263 0.11589 0.0
C1036 C 0.9458 0.88359 0.11178 0.0
C1037 C 0.93761 0.89824 0.13488 0.0
C1038 C 0.92285 0.91773 0.13089 0.0
C1039 C 0.91638 0.92289 0.10387 0.0
C1040 C 0.92471 0.90861 0.08078 0.0
C1041 C 0.93943 0.88905 0.08467 0.0
H1042 H 0.90495 0.93799 0.10082 0.0
H1043 H 0.05384 0.75454 0.14763 0.0
H1044 H 0.6485 0.59296 0.55523 0.0
H1045 H 0.66908 0.56066 0.57629 0.0
H1046 H 0.72747 0.5612 0.51531 0.0
H1047 H 0.70713 0.59333 0.4941 0.0
H1048 H 0.70663 0.51817 0.51704 0.0
H1049 H 0.74014 0.5781 0.58209 0.0
H1050 H 0.73936 0.61249 0.61661 0.0
H1051 H 0.69371 0.57476 0.67059 0.0
H1052 H 0.69399 0.54015 0.6362 0.0
H1053 H 0.77946 0.4296 0.56927 0.0
H1054 H 0.76759 0.46861 0.5568 0.0
H1055 H 0.70793 0.47016 0.61639 0.0
H1056 H 0.71945 0.43111 0.62873 0.0
H1057 H 0.73128 0.51314 0.6161 0.0
H1058 H 0.69608 0.45413 0.55003 0.0
H1059 H 0.69644 0.4198 0.51533 0.0
H1060 H 0.74431 0.45653 0.46262 0.0
H1061 H 0.74459 0.49096 0.49725 0.0
C1062 C 0.6659 0.58642 0.54654 0.0
C1063 C 0.67599 0.59552 0.52275 0.0
C1064 C 0.67769 0.56805 0.5587 0.0
C1065 C 0.69977 0.55855 0.54731 0.0
C1066 C 0.7104 0.56826 0.52434 0.0
C1067 C 0.69872 0.58664 0.51227 0.0
C1068 C 0.71053 0.53712 0.55757 0.0
C1069 C 0.71247 0.5172 0.53859 0.0
C1070 C 0.71741 0.53574 0.58585 0.0
C1071 C 0.71694 0.55658 0.60646 0.0
C1072 C 0.72974 0.57719 0.6012 0.0
C1073 C 0.72944 0.59671 0.62078 0.0
C1074 C 0.71651 0.59581 0.64579 0.0
C1075 C 0.70375 0.57541 0.65122 0.0
C1076 C 0.70401 0.55582 0.63171 0.0
C1077 C 0.7639 0.4383 0.57982 0.0
C1078 C 0.75027 0.42717 0.59981 0.0
C1079 C 0.75721 0.4606 0.57276 0.0
C1080 C 0.73671 0.47211 0.58546 0.0
C1081 C 0.72385 0.46158 0.60641 0.0
C1082 C 0.73051 0.43927 0.61347 0.0
C1083 C 0.72755 0.4943 0.57547 0.0
C1084 C 0.7257 0.51424 0.5945 0.0
C1085 C 0.72064 0.49576 0.54719 0.0
C1086 C 0.72062 0.47501 0.52642 0.0
C1087 C 0.7069 0.4548 0.53118 0.0
C1088 C 0.70695 0.43533 0.5115 0.0
C1089 C 0.72046 0.43595 0.48683 0.0
C1090 C 0.73391 0.45606 0.48177 0.0
C1091 C 0.73398 0.47555 0.50142 0.0
H1092 H 0.72046 0.42088 0.4716 0.0
H1093 H 0.71647 0.61088 0.66102 0.0
H1094 H 0.88967 0.14426 0.08607 0.0
H1095 H 0.90293 0.14622 0.13474 0.0
H1096 H 0.89795 0.22172 0.1402 0.0
H1097 H 0.88555 0.2199 0.09091 0.0
H1098 H 0.93881 0.21087 0.162 0.0
H1099 H 0.85632 0.18643 0.17481 0.0
H1100 H 0.818 0.1632 0.1661 0.0
H1101 H 0.85594 0.10126 0.18731 0.0
H1102 H 0.89465 0.12399 0.19566 0.0
H1103 H 0.94762 0.1718 0.31609 0.0
H1104 H 0.92227 0.18181 0.27617 0.0
H1105 H 0.98568 0.17082 0.2222 0.0
H1106 H 0.011 0.16137 0.26188 0.0
H1107 H 0.90847 0.15757 0.23066 0.0
H1108 H 0.98528 0.20424 0.16993 0.0
H1109 H 0.02105 0.23057 0.18055 0.0
H1110 H 0.98873 0.2546 0.2593 0.0
H1111 H 0.95259 0.22867 0.24899 0.0
C1112 C 0.89112 0.1613 0.09765 0.0
C1113 C 0.88669 0.18195 0.08455 0.0
C1114 C 0.89853 0.16239 0.12564 0.0
C1115 C 0.90113 0.18411 0.14137 0.0
C1116 C 0.89607 0.20475 0.12853 0.0
C1117 C 0.88899 0.20369 0.10036 0.0
C1118 C 0.91113 0.18517 0.17041 0.0
C1119 C 0.93198 0.19939 0.1771 0.0
C1120 C 0.90181 0.17074 0.19054 0.0
C1121 C 0.87848 0.15695 0.18575 0.0
C1122 C 0.85657 0.16783 0.17746 0.0
C1123 C 0.83476 0.15474 0.17259 0.0
C1124 C 0.83454 0.13077 0.17614 0.0
C1125 C 0.85614 0.11983 0.18459 0.0
C1126 C 0.87802 0.13282 0.18942 0.0
C1127 C 0.95613 0.17176 0.29571 0.0
C1128 C 0.98136 0.16608 0.29216 0.0
C1129 C 0.94165 0.17746 0.27294 0.0
C1130 C 0.95213 0.17746 0.24622 0.0
C1131 C 0.97729 0.17163 0.2427 0.0
C1132 C 0.99178 0.16621 0.26543 0.0
C1133 C 0.93677 0.18245 0.22158 0.0
C1134 C 0.91495 0.16938 0.21574 0.0
C1135 C 0.94472 0.19847 0.20255 0.0
C1136 C 0.96627 0.21439 0.20873 0.0
C1137 C 0.98571 0.21525 0.18943 0.0
C1138 C 0.00608 0.23008 0.19542 0.0
C1139 C 0.00719 0.24422 0.22061 0.0
C1140 C 0.98789 0.2436 0.23983 0.0
C1141 C 0.96747 0.22881 0.23394 0.0
H1142 H 0.02298 0.25567 0.22521 0.0
H1143 H 0.81764 0.12067 0.17236 0.0
H1144 H 0.1266 0.78217 0.1185 0.0
H1145 H 0.1277 0.75995 0.15976 0.0
H1146 H 0.18955 0.80204 0.19272 0.0
H1147 H 0.18904 0.8238 0.15124 0.0
H1148 H 0.20046 0.75843 0.19282 0.0
H1149 H 0.13035 0.80449 0.2233 0.0
H1150 H 0.08868 0.82203 0.22165 0.0
H1151 H 0.05572 0.7534 0.21183 0.0
H1152 H 0.09722 0.73542 0.21311 0.0
H1153 H 0.21676 0.70908 0.31639 0.0
H1154 H 0.1991 0.73959 0.28971 0.0
H1155 H 0.15074 0.68845 0.24594 0.0
H1156 H 0.16829 0.65781 0.27279 0.0
H1157 H 0.13109 0.73729 0.25352 0.0
H1158 H 0.20267 0.6923 0.21882 0.0
H1159 H 0.24429 0.67554 0.22483 0.0
H1160 H 0.27439 0.74461 0.24438 0.0
H1161 H 0.23281 0.76173 0.23903 0.0
C1162 C 0.14027 0.78685 0.13468 0.0
C1163 C 0.15803 0.80448 0.13138 0.0
C1164 C 0.14073 0.77426 0.1584 0.0
C1165 C 0.15868 0.77935 0.17942 0.0
C1166 C 0.17562 0.79771 0.17672 0.0
C1167 C 0.17536 0.81009 0.15293 0.0
C1168 C 0.16176 0.76398 0.20258 0.0
C1169 C 0.1853 0.75425 0.20634 0.0
C1170 C 0.14188 0.75786 0.2198 0.0
C1171 C 0.11694 0.76861 0.2181 0.0
C1172 C 0.11425 0.79313 0.2205 0.0
C1173 C 0.09064 0.80315 0.21977 0.0
C1174 C 0.06957 0.78883 0.21681 0.0
C1175 C 0.07206 0.76446 0.21431 0.0
C1176 C 0.09562 0.75435 0.21503 0.0
C1177 C 0.20172 0.70454 0.30181 0.0
C1178 C 0.19414 0.6811 0.29624 0.0
C1179 C 0.19158 0.72197 0.2867 0.0
C1180 C 0.17394 0.71613 0.2656 0.0
C1181 C 0.16432 0.69325 0.2622 0.0
C1182 C 0.17438 0.67577 0.27748 0.0
C1183 C 0.16971 0.73235 0.2437 0.0
C1184 C 0.14609 0.74187 0.24002 0.0
C1185 C 0.18948 0.73847 0.22649 0.0
C1186 C 0.21462 0.72826 0.22878 0.0
C1187 C 0.21815 0.70389 0.22455 0.0
C1188 C 0.24172 0.69433 0.22783 0.0
C1189 C 0.26196 0.709 0.23503 0.0
C1190 C 0.25869 0.73327 0.23884 0.0
C1191 C 0.23512 0.74291 0.23568 0.0
H1192 H 0.28019 0.70156 0.23761 0.0
H1193 H 0.05131 0.79663 0.21627 0.0
H1194 H 0.72113 0.66769 0.52381 0.0
H1195 H 0.75178 0.68967 0.55324 0.0
H1196 H 0.70585 0.75132 0.55474 0.0
H1197 H 0.67511 0.72956 0.52502 0.0
H1198 H 0.75471 0.76161 0.54685 0.0
H1199 H 0.70657 0.71923 0.60959 0.0
H1200 H 0.68713 0.68427 0.62702 0.0
H1201 H 0.75891 0.65319 0.63554 0.0
H1202 H 0.77877 0.6878 0.61773 0.0
H1203 H 0.80624 0.82576 0.66752 0.0
H1204 H 0.78001 0.80485 0.63194 0.0
H1205 H 0.82788 0.74459 0.63161 0.0
H1206 H 0.85456 0.76557 0.66691 0.0
H1207 H 0.7791 0.73323 0.63789 0.0
H1208 H 0.82719 0.77695 0.57659 0.0
H1209 H 0.84599 0.81237 0.55963 0.0
H1210 H 0.77357 0.84163 0.54925 0.0
H1211 H 0.75432 0.80651 0.56654 0.0
C1212 C 0.71754 0.68596 0.53027 0.0
C1213 C 0.6956 0.69685 0.5221 0.0
C1214 C 0.73507 0.69846 0.54717 0.0
C1215 C 0.73096 0.72204 0.55638 0.0
C1216 C 0.70935 0.73312 0.54784 0.0
C1217 C 0.69177 0.72062 0.53094 0.0
C1218 C 0.74902 0.73502 0.57533 0.0
C1219 C 0.75986 0.75557 0.56691 0.0
C1220 C 0.75605 0.72683 0.60122 0.0
C1221 C 0.74414 0.70601 0.61203 0.0
C1222 C 0.7182 0.70485 0.61494 0.0
C1223 C 0.7071 0.68511 0.62492 0.0
C1224 C 0.72177 0.6665 0.63228 0.0
C1225 C 0.74757 0.6676 0.62976 0.0
C1226 C 0.75876 0.68728 0.61974 0.0
C1227 C 0.81159 0.80829 0.65941 0.0
C1228 C 0.83251 0.79734 0.67012 0.0
C1229 C 0.79649 0.79631 0.63913 0.0
C1230 C 0.80204 0.77319 0.62911 0.0
C1231 C 0.82324 0.76241 0.63918 0.0
C1232 C 0.83841 0.7744 0.65939 0.0
C1233 C 0.78487 0.75982 0.60941 0.0
C1234 C 0.77409 0.7392 0.61776 0.0
C1235 C 0.77781 0.76804 0.58356 0.0
C1236 C 0.78933 0.78918 0.57311 0.0
C1237 C 0.81527 0.79102 0.57092 0.0
C1238 C 0.82601 0.81103 0.5612 0.0
C1239 C 0.81099 0.82926 0.55343 0.0
C1240 C 0.78518 0.8275 0.55531 0.0
C1241 C 0.77435 0.80754 0.56504 0.0
H1242 H 0.81934 0.84473 0.5459 0.0
H1243 H 0.71317 0.65125 0.63999 0.0
H1244 H 0.81887 0.23987 0.06253 0.0
H1245 H 0.78263 0.2571 0.08669 0.0
H1246 H 0.7343 0.21699 0.02849 0.0
H1247 H 0.77036 0.2002 0.00381 0.0
H1248 H 0.71832 0.26017 0.03645 0.0
H1249 H 0.74479 0.20178 0.09622 0.0
H1250 H 0.77469 0.18161 0.12494 0.0
H1251 H 0.78469 0.24471 0.17898 0.0
H1252 H 0.75511 0.26536 0.15035 0.0
H1253 H 0.60627 0.27687 0.11164 0.0
H1254 H 0.64295 0.2581 0.09011 0.0
H1255 H 0.69029 0.30376 0.14336 0.0
H1256 H 0.65377 0.32294 0.16465 0.0
H1257 H 0.70676 0.25777 0.13861 0.0
H1258 H 0.68059 0.31597 0.07809 0.0
H1259 H 0.65068 0.33591 0.04916 0.0
H1260 H 0.63996 0.27221 0.99636 0.0
H1261 H 0.66955 0.2518 0.02524 0.0
C1262 C 0.80053 0.23474 0.05486 0.0
C1263 C 0.79752 0.2187 0.03119 0.0
C1264 C 0.77982 0.2445 0.06879 0.0
C1265 C 0.75572 0.23811 0.05963 0.0
C1266 C 0.7527 0.22219 0.03594 0.0
C1267 C 0.77336 0.2126 0.02186 0.0
C1268 C 0.73358 0.24828 0.07435 0.0
C1269 C 0.71565 0.25932 0.05872 0.0
C1270 C 0.73033 0.24766 0.10353 0.0
C1271 C 0.7479 0.23518 0.12098 0.0
C1272 C 0.75348 0.2114 0.11412 0.0
C1273 C 0.77036 0.19987 0.1304 0.0
C1274 C 0.78163 0.21189 0.15373 0.0
C1275 C 0.77597 0.23544 0.16088 0.0
C1276 C 0.75913 0.24705 0.14466 0.0
C1277 C 0.62447 0.283 0.11872 0.0
C1278 C 0.62704 0.30153 0.13977 0.0
C1279 C 0.64541 0.27218 0.10647 0.0
C1280 C 0.66932 0.2797 0.11497 0.0
C1281 C 0.672 0.29766 0.13656 0.0
C1282 C 0.65107 0.30854 0.14876 0.0
C1283 C 0.69154 0.26944 0.10063 0.0
C1284 C 0.70947 0.25849 0.11633 0.0
C1285 C 0.69477 0.27002 0.07148 0.0
C1286 C 0.67709 0.2823 0.05399 0.0
C1287 C 0.6717 0.30617 0.06044 0.0
C1288 C 0.65484 0.31756 0.04403 0.0
C1289 C 0.64338 0.30532 0.02098 0.0
C1290 C 0.64882 0.28167 0.01424 0.0
C1291 C 0.66565 0.27018 0.03061 0.0
H1292 H 0.63033 0.31417 0.0083 0.0
H1293 H 0.79471 0.20296 0.16629 0.0
H1294 H 0.31222 0.30741 0.65544 0.0
H1295 H 0.31036 0.29139 0.70069 0.0
H1296 H 0.3789 0.25439 0.68343 0.0
H1297 H 0.38096 0.27039 0.63764 0.0
H1298 H 0.34146 0.22692 0.70558 0.0
H1299 H 0.38074 0.30132 0.72731 0.0
H1300 H 0.3858 0.34408 0.72632 0.0
H1301 H 0.31594 0.35523 0.76779 0.0
H1302 H 0.31021 0.31256 0.76857 0.0
H1303 H 0.33734 0.19449 0.84605 0.0
H1304 H 0.35245 0.2095 0.80292 0.0
H1305 H 0.29333 0.26038 0.80677 0.0
H1306 H 0.27861 0.24581 0.85004 0.0
H1307 H 0.33437 0.28021 0.79224 0.0
H1308 H 0.29125 0.20773 0.76347 0.0
H1309 H 0.28314 0.16524 0.76271 0.0
H1310 H 0.35709 0.15083 0.73328 0.0
H1311 H 0.36572 0.19327 0.73422 0.0
C1312 C 0.32692 0.29582 0.6611 0.0
C1313 C 0.34674 0.29016 0.64286 0.0
C1314 C 0.32588 0.28678 0.68709 0.0
C1315 C 0.34464 0.27196 0.69551 0.0
C1316 C 0.3643 0.26591 0.67729 0.0
C1317 C 0.36545 0.27508 0.6512 0.0
C1318 C 0.34321 0.26272 0.72331 0.0
C1319 C 0.34048 0.23848 0.72467 0.0
C1320 C 0.34145 0.27793 0.74803 0.0
C1321 C 0.34501 0.30369 0.7479 0.0
C1322 C 0.36637 0.31288 0.73606 0.0
C1323 C 0.36937 0.33711 0.73555 0.0
C1324 C 0.35122 0.35236 0.74701 0.0
C1325 C 0.33001 0.34341 0.75896 0.0
C1326 C 0.32689 0.3192 0.75947 0.0
C1327 C 0.32764 0.20889 0.83764 0.0
C1328 C 0.30681 0.21899 0.85135 0.0
C1329 C 0.33625 0.21743 0.81301 0.0
C1330 C 0.32387 0.23592 0.80142 0.0
C1331 C 0.30328 0.24619 0.81536 0.0
C1332 C 0.29487 0.23786 0.84009 0.0
C1333 C 0.3318 0.24441 0.77448 0.0
C1334 C 0.33582 0.26855 0.77329 0.0
C1335 C 0.33442 0.22914 0.74986 0.0
C1336 C 0.32923 0.20365 0.74925 0.0
C1337 C 0.30584 0.19549 0.75705 0.0
C1338 C 0.30114 0.17143 0.75655 0.0
C1339 C 0.31962 0.15535 0.74804 0.0
C1340 C 0.34281 0.1633 0.73993 0.0
C1341 C 0.34762 0.18736 0.74044 0.0
H1342 H 0.31594 0.13672 0.74766 0.0
H1343 H 0.35362 0.37109 0.74671 0.0
H1344 H 0.62343 0.72428 0.4268 0.0
H1345 H 0.63365 0.74937 0.3897 0.0
H1346 H 0.68936 0.69989 0.3588 0.0
H1347 H 0.6798 0.67517 0.39629 0.0
H1348 H 0.70852 0.74145 0.36557 0.0
H1349 H 0.63395 0.7095 0.3223 0.0
H1350 H 0.58955 0.69906 0.3192 0.0
H1351 H 0.56999 0.77168 0.33423 0.0
H1352 H 0.61433 0.78254 0.33778 0.0
H1353 H 0.74456 0.79992 0.25095 0.0
H1354 H 0.72397 0.76957 0.27522 0.0
H1355 H 0.67379 0.82109 0.31364 0.0
H1356 H 0.69376 0.8515 0.28864 0.0
H1357 H 0.65086 0.77774 0.30092 0.0
H1358 H 0.72486 0.809 0.34765 0.0
H1359 H 0.7692 0.81983 0.35067 0.0
H1360 H 0.78938 0.74802 0.32952 0.0
H1361 H 0.74511 0.73683 0.32595 0.0
C1362 C 0.63758 0.71859 0.41182 0.0
C1363 C 0.65102 0.69789 0.41463 0.0
C1364 C 0.64332 0.73289 0.39052 0.0
C1365 C 0.66224 0.7265 0.37137 0.0
C1366 C 0.6748 0.70526 0.37341 0.0
C1367 C 0.66931 0.69115 0.39485 0.0
C1368 C 0.67066 0.74284 0.35092 0.0
C1369 C 0.69592 0.74897 0.35107 0.0
C1370 C 0.65415 0.7533 0.33259 0.0
C1371 C 0.62747 0.74681 0.33054 0.0
C1372 C 0.62018 0.72323 0.32518 0.0
C1373 C 0.59501 0.71724 0.3233 0.0
C1374 C 0.57694 0.73469 0.32657 0.0
C1375 C 0.58401 0.75818 0.33171 0.0
C1376 C 0.60916 0.76426 0.33363 0.0
C1377 C 0.72867 0.80471 0.26387 0.0
C1378 C 0.72101 0.8282 0.26815 0.0
C1379 C 0.71703 0.78736 0.27788 0.0
C1380 C 0.69767 0.79319 0.29659 0.0
C1381 C 0.68879 0.81627 0.29939 0.0
C1382 C 0.70039 0.83365 0.28531 0.0
C1383 C 0.68863 0.7759 0.31545 0.0
C1384 C 0.66336 0.76986 0.31521 0.0
C1385 C 0.70506 0.76547 0.33381 0.0
C1386 C 0.73168 0.77212 0.33625 0.0
C1387 C 0.73875 0.79555 0.34345 0.0
C1388 C 0.76387 0.80175 0.34528 0.0
C1389 C 0.7821 0.78463 0.34022 0.0
C1390 C 0.77524 0.76126 0.33339 0.0
C1391 C 0.75014 0.75498 0.33147 0.0
H1392 H 0.80154 0.78946 0.34165 0.0
H1393 H 0.55746 0.73006 0.32502 0.0
H1394 H 0.84951 0.19361 0.89784 0.0
H1395 H 0.84872 0.21614 0.85715 0.0
H1396 H 0.85555 0.28041 0.91054 0.0
H1397 H 0.85622 0.25785 0.9518 0.0
H1398 H 0.81804 0.28184 0.87164 0.0
H1399 H 0.90363 0.26316 0.87097 0.0
H1400 H 0.94039 0.23796 0.87402 0.0
H1401 H 0.91622 0.19562 0.80066 0.0
H1402 H 0.87908 0.22031 0.79741 0.0
H1403 H 0.81403 0.33562 0.74325 0.0
H1404 H 0.83117 0.3255 0.78805 0.0
H1405 H 0.82979 0.25224 0.75819 0.0
H1406 H 0.81333 0.26225 0.71324 0.0
H1407 H 0.87147 0.26341 0.78892 0.0
H1408 H 0.78246 0.27653 0.79664 0.0
H1409 H 0.74439 0.30012 0.7942 0.0
H1410 H 0.77488 0.35203 0.85491 0.0
H1411 H 0.81328 0.32885 0.85741 0.0
C1412 C 0.85097 0.21254 0.90105 0.0
C1413 C 0.85279 0.22395 0.9281 0.0
C1414 C 0.85073 0.22538 0.8777 0.0
C1415 C 0.85239 0.24991 0.88082 0.0
C1416 C 0.8544 0.26146 0.90774 0.0
C1417 C 0.8548 0.24855 0.93124 0.0
C1418 C 0.85036 0.26321 0.85579 0.0
C1419 C 0.83014 0.27835 0.8538 0.0
C1420 C 0.86597 0.25835 0.83243 0.0
C1421 C 0.88848 0.24358 0.83402 0.0
C1422 C 0.90606 0.2484 0.85557 0.0
C1423 C 0.92698 0.2342 0.85733 0.0
C1424 C 0.93063 0.21519 0.83756 0.0
C1425 C 0.91338 0.21036 0.81595 0.0
C1426 C 0.89241 0.22449 0.81411 0.0
C1427 C 0.81785 0.3174 0.74607 0.0
C1428 C 0.81209 0.29969 0.72486 0.0
C1429 C 0.8275 0.31165 0.7717 0.0
C1430 C 0.83148 0.2881 0.77652 0.0
C1431 C 0.82683 0.27052 0.75492 0.0
C1432 C 0.81719 0.27624 0.72936 0.0
C1433 C 0.8387 0.28137 0.80455 0.0
C1434 C 0.85985 0.26744 0.80705 0.0
C1435 C 0.82392 0.28727 0.82838 0.0
C1436 C 0.80084 0.30114 0.82693 0.0
C1437 C 0.78111 0.29307 0.80929 0.0
C1438 C 0.75947 0.30634 0.80792 0.0
C1439 C 0.75726 0.3276 0.82431 0.0
C1440 C 0.77665 0.33559 0.84217 0.0
C1441 C 0.79835 0.3224 0.84357 0.0
H1442 H 0.74048 0.33785 0.82324 0.0
H1443 H 0.94683 0.20421 0.83897 0.0
H1444 H 0.31309 0.25196 0.53878 0.0
H1445 H 0.28057 0.22916 0.51303 0.0
H1446 H 0.24002 0.29266 0.50245 0.0
H1447 H 0.27243 0.31565 0.52812 0.0
H1448 H 0.2316 0.22434 0.52443 0.0
H1449 H 0.21271 0.28659 0.43687 0.0
H1450 H 0.23594 0.31466 0.4106 0.0
H1451 H 0.30398 0.27898 0.42605 0.0
H1452 H 0.28114 0.25042 0.45186 0.0
H1453 H 0.11618 0.19564 0.4611 0.0
H1454 H 0.15121 0.21758 0.4828 0.0
H1455 H 0.19687 0.19585 0.41185 0.0
H1456 H 0.16157 0.17459 0.38946 0.0
H1457 H 0.20572 0.24064 0.42861 0.0
H1458 H 0.20162 0.16871 0.47178 0.0
H1459 H 0.18196 0.13738 0.49625 0.0
H1460 H 0.16618 0.18671 0.56629 0.0
H1461 H 0.18544 0.21842 0.54207 0.0
C1462 C 0.29727 0.26111 0.53097 0.0
C1463 C 0.29533 0.28564 0.53556 0.0
C1464 C 0.27867 0.24802 0.51634 0.0
C1465 C 0.25798 0.25923 0.50572 0.0
C1466 C 0.25597 0.2837 0.51026 0.0
C1467 C 0.27445 0.29678 0.52505 0.0
C1468 C 0.23833 0.24533 0.4901 0.0
C1469 C 0.22591 0.22791 0.5035 0.0
C1470 C 0.23138 0.24961 0.46253 0.0
C1471 C 0.24521 0.26651 0.44658 0.0
C1472 C 0.23261 0.28467 0.43455 0.0
C1473 C 0.24571 0.30066 0.41973 0.0
C1474 C 0.27143 0.29865 0.41676 0.0
C1475 C 0.28408 0.28057 0.42847 0.0
C1476 C 0.27106 0.26448 0.4432 0.0
C1477 C 0.13354 0.19581 0.44987 0.0
C1478 C 0.13607 0.18325 0.42356 0.0
C1479 C 0.15364 0.20818 0.46245 0.0
C1480 C 0.17677 0.20808 0.44914 0.0
C1481 C 0.17922 0.19609 0.42257 0.0
C1482 C 0.15909 0.18376 0.40992 0.0
C1483 C 0.19851 0.22006 0.46325 0.0
C1484 C 0.21135 0.23711 0.44957 0.0
C1485 C 0.20631 0.21501 0.49031 0.0
C1486 C 0.19477 0.19598 0.505 0.0
C1487 C 0.19379 0.17291 0.49232 0.0
C1488 C 0.18274 0.15508 0.50615 0.0
C1489 C 0.17277 0.16006 0.53278 0.0
C1490 C 0.17388 0.18288 0.54565 0.0
C1491 C 0.18488 0.20079 0.53189 0.0
H1492 H 0.16424 0.14623 0.54346 0.0
H1493 H 0.28156 0.31102 0.40531 0.0
H1494 H 0.24466 0.8249 0.03802 0.0
H1495 H 0.27691 0.80059 0.01504 0.0
H1496 H 0.22331 0.74545 0.99484 0.0
H1497 H 0.19098 0.76947 0.01837 0.0
H1498 H 0.26518 0.7278 0.01321 0.0
H1499 H 0.24376 0.78108 0.94533 0.0
H1500 H 0.23628 0.81977 0.92796 0.0
H1501 H 0.31201 0.8396 0.9461 0.0
H1502 H 0.31985 0.80113 0.96396 0.0
H1503 H 0.33787 0.66148 0.91227 0.0
H1504 H 0.3053 0.68596 0.93452 0.0
H1505 H 0.3597 0.73879 0.96113 0.0
H1506 H 0.39254 0.71422 0.93945 0.0
H1507 H 0.31734 0.75749 0.93897 0.0
H1508 H 0.33824 0.70387 0.00717 0.0
H1509 H 0.34529 0.66497 0.02417 0.0
H1510 H 0.26973 0.64551 0.00445 0.0
H1511 H 0.26233 0.68419 0.98695 0.0
C1512 C 0.23968 0.8076 0.02872 0.0
C1513 C 0.21519 0.79915 0.03003 0.0
C1514 C 0.25815 0.79375 0.01545 0.0
C1515 C 0.25247 0.77131 0.00285 0.0
C1516 C 0.22811 0.76273 0.00437 0.0
C1517 C 0.20964 0.7765 0.0178 0.0
C1518 C 0.27201 0.75672 0.98835 0.0
C1519 C 0.27633 0.73417 0.99669 0.0
C1520 C 0.28692 0.76521 0.96718 0.0
C1521 C 0.28233 0.78829 0.95622 0.0
C1522 C 0.25877 0.79375 0.9458 0.0
C1523 C 0.25447 0.81563 0.93584 0.0
C1524 C 0.27364 0.83215 0.93599 0.0
C1525 C 0.29717 0.82679 0.94602 0.0
C1526 C 0.30156 0.80494 0.95604 0.0
C1527 C 0.34299 0.6782 0.92308 0.0
C1528 C 0.36789 0.68579 0.9242 0.0
C1529 C 0.32432 0.69221 0.93568 0.0
C1530 C 0.33013 0.71409 0.94968 0.0
C1531 C 0.35483 0.72197 0.95038 0.0
C1532 C 0.37356 0.70792 0.93788 0.0
C1533 C 0.31044 0.72863 0.96385 0.0
C1534 C 0.30612 0.75114 0.95545 0.0
C1535 C 0.29544 0.72008 0.98486 0.0
C1536 C 0.29981 0.69684 0.99549 0.0
C1537 C 0.32319 0.69123 0.00625 0.0
C1538 C 0.32723 0.66923 0.01601 0.0
C1539 C 0.30799 0.65276 0.01532 0.0
C1540 C 0.28463 0.65827 0.00494 0.0
C1541 C 0.2805 0.68024 0.99511 0.0
H1542 H 0.31116 0.63574 0.0229 0.0
H1543 H 0.27027 0.84909 0.92828 0.0
loop_
_geom_bond_atom_site_label_1
_geom_bond_atom_site_label_2
_geom_bond_distance
_geom_bond_site_symmetry_2
_ccdc_geom_bond_type
Fe0 O2 1.918 . S
Fe0 O5 1.997 . S
Fe0 O6 2.002 . S
Fe0 O11 1.976 . S
Fe0 O14 1.996 . S
Fe1 O2 1.918 . S
Fe1 O9 1.997 . S
Fe1 O12 1.996 . S
Fe1 O16 1.976 . S
Fe1 O19 2.002 . S
O2 Fe0 1.918 . S
O2 Fe1 1.918 . S
O2 Fe3 1.918 . S
Fe3 O2 1.918 . S
Fe3 O4 2.002 . S
Fe3 O13 1.976 . S
Fe3 O17 1.996 . S
Fe3 O20 1.997 . S
O4 Fe3 2.002 . S
O4 C21 1.295 . S
O5 Fe0 1.997 . S
O5 C21 1.235 . S
O6 Fe0 2.002 . S
O6 C7 1.295 . S
C7 O6 1.295 . S
C7 O9 1.235 . S
C8 O13 1.287 . S
C8 O14 1.255 . S
O9 Fe1 1.997 . S
O9 C7 1.235 . S
C10 O16 1.287 1_556 S
C10 O17 1.255 1_556 S
O11 Fe0 1.976 . S
O11 C18 1.287 . S
O12 Fe1 1.996 . S
O12 C18 1.255 . S
O13 Fe3 1.976 . S
O13 C8 1.287 . S
O14 Fe0 1.996 . S
O14 C8 1.255 . S
C15 O19 1.295 . S
C15 O20 1.235 . S
O16 Fe1 1.976 . S
O16 C10 1.287 1_554 S
O17 Fe3 1.996 . S
O17 C10 1.255 1_554 S
C18 O11 1.287 . S
C18 O12 1.255 . S
O19 Fe1 2.002 . S
O19 C15 1.295 . S
O20 Fe3 1.997 . S
O20 C15 1.235 . S
C21 O4 1.295 . S
C21 O5 1.235 . S
Fe22 O24 1.918 . S
Fe22 O27 1.997 . S
Fe22 O28 2.002 . S
Fe22 O33 1.976 . S
Fe22 O36 1.996 . S
Fe23 O24 1.918 . S
Fe23 O31 1.997 . S
Fe23 O34 1.996 . S
Fe23 O38 1.976 . S
Fe23 O41 2.002 . S
O24 Fe22 1.918 . S
O24 Fe23 1.918 . S
O24 Fe25 1.918 . S
Fe25 O24 1.918 . S
Fe25 O26 2.002 . S
Fe25 O35 1.976 . S
Fe25 O39 1.996 . S
Fe25 O42 1.997 . S
O26 Fe25 2.002 . S
O26 C43 1.295 . S
O27 Fe22 1.997 . S
O27 C43 1.235 . S
O28 Fe22 2.002 . S
O28 C29 1.295 . S
C29 O28 1.295 . S
C29 O31 1.235 . S
C30 O35 1.287 . S
C30 O36 1.255 . S
O31 Fe23 1.997 . S
O31 C29 1.235 . S
C32 O38 1.287 . S
C32 O39 1.255 . S
O33 Fe22 1.976 . S
O33 C40 1.287 . S
O34 Fe23 1.996 . S
O34 C40 1.255 . S
O35 Fe25 1.976 . S
O35 C30 1.287 . S
O36 Fe22 1.996 . S
O36 C30 1.255 . S
C37 O41 1.295 . S
C37 O42 1.235 . S
O38 Fe23 1.976 . S
O38 C32 1.287 . S
O39 Fe25 1.996 . S
O39 C32 1.255 . S
C40 O33 1.287 . S
C40 O34 1.255 . S
O41 Fe23 2.002 . S
O41 C37 1.295 . S
O42 Fe25 1.997 . S
O42 C37 1.235 . S
C43 O26 1.295 . S
C43 O27 1.235 . S
Fe44 O46 1.918 . S
Fe44 O49 1.997 1_554 S
Fe44 O50 2.002 1_554 S
Fe44 O55 1.976 . S
Fe44 O58 1.996 . S
Fe45 O46 1.918 . S
Fe45 O53 1.997 1_554 S
Fe45 O56 1.996 . S
Fe45 O60 1.976 . S
Fe45 O63 2.002 1_554 S
O46 Fe44 1.918 . S
O46 Fe45 1.918 . S
O46 Fe47 1.918 1_554 S
Fe47 O46 1.918 1_556 S
Fe47 O48 2.002 . S
Fe47 O57 1.976 1_556 S
Fe47 O61 1.996 1_556 S
Fe47 O64 1.997 . S
O48 Fe47 2.002 . S
O48 C65 1.295 . S
O49 Fe44 1.997 1_556 S
O49 C65 1.235 . S
O50 Fe44 2.002 1_556 S
O50 C51 1.295 . S
C51 O50 1.295 . S
C51 O53 1.235 . S
C52 O57 1.287 . S
C52 O58 1.255 . S
O53 Fe45 1.997 1_556 S
O53 C51 1.235 . S
C54 O60 1.287 . S
C54 O61 1.255 . S
O55 Fe44 1.976 . S
O55 C62 1.287 . S
O56 Fe45 1.996 . S
O56 C62 1.255 . S
O57 Fe47 1.976 1_554 S
O57 C52 1.287 . S
O58 Fe44 1.996 . S
O58 C52 1.255 . S
C59 O63 1.295 . S
C59 O64 1.235 . S
O60 Fe45 1.976 . S
O60 C54 1.287 . S
O61 Fe47 1.996 1_554 S
O61 C54 1.255 . S
C62 O55 1.287 . S
C62 O56 1.255 . S
O63 Fe45 2.002 1_556 S
O63 C59 1.295 . S
O64 Fe47 1.997 . S
O64 C59 1.235 . S
C65 O48 1.295 . S
C65 O49 1.235 . S
Fe66 O68 1.918 . S
Fe66 O71 1.997 . S
Fe66 O72 2.002 . S
Fe66 O77 1.976 . S
Fe66 O80 1.996 . S
Fe67 O68 1.918 . S
Fe67 O75 1.997 . S
Fe67 O78 1.996 . S
Fe67 O82 1.976 . S
Fe67 O85 2.002 . S
O68 Fe66 1.918 . S
O68 Fe67 1.918 . S
O68 Fe69 1.918 . S
Fe69 O68 1.918 . S
Fe69 O70 2.002 . S
Fe69 O79 1.976 . S
Fe69 O83 1.996 . S
Fe69 O86 1.997 . S
O70 Fe69 2.002 . S
O70 C87 1.295 . S
O71 Fe66 1.997 . S
O71 C87 1.235 . S
O72 Fe66 2.002 . S
O72 C73 1.295 . S
C73 O72 1.295 . S
C73 O75 1.235 . S
C74 O79 1.287 . S
C74 O80 1.255 . S
O75 Fe67 1.997 . S
O75 C73 1.235 . S
C76 O82 1.287 . S
C76 O83 1.255 . S
O77 Fe66 1.976 . S
O77 C84 1.287 . S
O78 Fe67 1.996 . S
O78 C84 1.255 . S
O79 Fe69 1.976 . S
O79 C74 1.287 . S
O80 Fe66 1.996 . S
O80 C74 1.255 . S
C81 O85 1.295 . S
C81 O86 1.235 . S
O82 Fe67 1.976 . S
O82 C76 1.287 . S
O83 Fe69 1.996 . S
O83 C76 1.255 . S
C84 O77 1.287 . S
C84 O78 1.255 . S
O85 Fe67 2.002 . S
O85 C81 1.295 . S
O86 Fe69 1.997 . S
O86 C81 1.235 . S
C87 O70 1.295 . S
C87 O71 1.235 . S
P88 O99 1.490 . S
P88 C102 1.812 . S
P88 C108 1.803 . S
P88 C114 1.819 . S
H89 C103 0.941 . S
H90 C104 0.939 . S
H91 C106 0.940 . S
H92 C107 0.940 . S
H93 C109 0.939 . S
H94 C110 0.942 . S
H95 C112 0.940 . S
H96 C113 0.939 . S
H97 C115 0.941 . S
H98 C119 0.939 . S
O99 P88 1.490 . S
H100 C116 0.939 1_655 S
H101 C118 0.940 . S
C102 P88 1.812 . S
C102 C103 1.389 . S
C102 C107 1.391 . S
C103 H89 0.941 . S
C103 C102 1.389 . S
C103 C104 1.397 . S
C104 H90 0.939 . S
C104 C103 1.397 . S
C104 C105 1.378 . S
C105 C104 1.378 . S
C105 C106 1.378 . S
C106 H91 0.940 . S
C106 C105 1.378 . S
C106 C107 1.396 . S
C107 H92 0.940 . S
C107 C102 1.391 . S
C107 C106 1.396 . S
C108 P88 1.803 . S
C108 C109 1.378 . S
C108 C113 1.400 . S
C109 H93 0.939 . S
C109 C108 1.378 . S
C109 C110 1.361 . S
C110 H94 0.942 . S
C110 C109 1.361 . S
C110 C111 1.369 . S
C111 C110 1.369 . S
C111 C112 1.404 . S
C112 H95 0.940 . S
C112 C111 1.404 . S
C112 C113 1.389 . S
C113 H96 0.939 . S
C113 C108 1.400 . S
C113 C112 1.389 . S
C114 P88 1.819 . S
C114 C115 1.391 . S
C114 C119 1.391 . S
C115 H97 0.941 . S
C115 C114 1.391 . S
C115 C116 1.396 . S
C116 H100 0.939 1_455 S
C116 C115 1.396 . S
C116 C117 1.397 . S
C117 C116 1.397 . S
C117 C118 1.385 . S
C118 H101 0.940 . S
C118 C117 1.385 . S
C118 C119 1.388 . S
C119 H98 0.939 . S
C119 C114 1.391 . S
C119 C118 1.388 . S
P120 O131 1.490 . S
P120 C134 1.812 . S
P120 C140 1.803 . S
P120 C146 1.819 . S
H121 C135 0.941 . S
H122 C136 0.939 . S
H123 C138 0.940 . S
H124 C139 0.940 . S
H125 C141 0.939 . S
H126 C142 0.942 . S
H127 C144 0.940 . S
H128 C145 0.939 . S
H129 C147 0.941 . S
H130 C151 0.939 . S
O131 P120 1.490 . S
H132 C148 0.939 . S
H133 C150 0.940 . S
C134 P120 1.812 . S
C134 C135 1.389 . S
C134 C139 1.391 . S
C135 H121 0.941 . S
C135 C134 1.389 . S
C135 C136 1.397 . S
C136 H122 0.939 . S
C136 C135 1.397 . S
C136 C137 1.378 . S
C137 C136 1.378 . S
C137 C138 1.378 . S
C138 H123 0.940 . S
C138 C137 1.378 . S
C138 C139 1.396 . S
C139 H124 0.940 . S
C139 C134 1.391 . S
C139 C138 1.396 . S
C140 P120 1.803 . S
C140 C141 1.378 . S
C140 C145 1.400 . S
C141 H125 0.939 . S
C141 C140 1.378 . S
C141 C142 1.361 . S
C142 H126 0.942 . S
C142 C141 1.361 . S
C142 C143 1.369 . S
C143 C142 1.369 . S
C143 C144 1.404 . S
C144 H127 0.940 . S
C144 C143 1.404 . S
C144 C145 1.389 . S
C145 H128 0.939 . S
C145 C140 1.400 . S
C145 C144 1.389 . S
C146 P120 1.819 . S
C146 C147 1.391 . S
C146 C151 1.391 . S
C147 H129 0.941 . S
C147 C146 1.391 . S
C147 C148 1.396 . S
C148 H132 0.939 . S
C148 C147 1.396 . S
C148 C149 1.397 . S
C149 C148 1.397 . S
C149 C150 1.385 . S
C150 H133 0.940 . S
C150 C149 1.385 . S
C150 C151 1.388 . S
C151 H130 0.939 . S
C151 C146 1.391 . S
C151 C150 1.388 . S
P152 O163 1.490 . S
P152 C166 1.812 . S
P152 C172 1.803 . S
P152 C178 1.819 . S
H153 C167 0.941 . S
H154 C168 0.939 . S
H155 C170 0.940 . S
H156 C171 0.940 . S
H157 C173 0.939 . S
H158 C174 0.942 . S
H159 C176 0.940 . S
H160 C177 0.939 . S
H161 C179 0.941 . S
H162 C183 0.939 . S
O163 P152 1.490 . S
H164 C180 0.939 . S
H165 C182 0.940 . S
C166 P152 1.812 . S
C166 C167 1.389 . S
C166 C171 1.391 . S
C167 H153 0.941 . S
C167 C166 1.389 . S
C167 C168 1.397 . S
C168 H154 0.939 . S
C168 C167 1.397 . S
C168 C169 1.378 . S
C169 C168 1.378 . S
C169 C170 1.378 . S
C170 H155 0.940 . S
C170 C169 1.378 . S
C170 C171 1.396 . S
C171 H156 0.940 . S
C171 C166 1.391 . S
C171 C170 1.396 . S
C172 P152 1.803 . S
C172 C173 1.378 . S
C172 C177 1.400 . S
C173 H157 0.939 . S
C173 C172 1.378 . S
C173 C174 1.361 . S
C174 H158 0.942 . S
C174 C173 1.361 . S
C174 C175 1.369 . S
C175 C174 1.369 . S
C175 C176 1.404 . S
C176 H159 0.940 . S
C176 C175 1.404 . S
C176 C177 1.389 . S
C177 H160 0.939 . S
C177 C172 1.400 . S
C177 C176 1.389 . S
C178 P152 1.819 . S
C178 C179 1.391 . S
C178 C183 1.391 . S
C179 H161 0.941 . S
C179 C178 1.391 . S
C179 C180 1.396 . S
C180 H164 0.939 . S
C180 C179 1.396 . S
C180 C181 1.397 . S
C181 C180 1.397 . S
C181 C182 1.385 . S
C182 H165 0.940 . S
C182 C181 1.385 . S
C182 C183 1.388 . S
C183 H162 0.939 . S
C183 C178 1.391 . S
C183 C182 1.388 . S
P184 O195 1.490 . S
P184 C198 1.812 . S
P184 C204 1.803 . S
P184 C210 1.819 . S
H185 C199 0.941 . S
H186 C200 0.939 . S
H187 C202 0.940 . S
H188 C203 0.940 . S
H189 C205 0.939 . S
H190 C206 0.942 . S
H191 C208 0.940 . S
H192 C209 0.939 . S
H193 C211 0.941 . S
H194 C215 0.939 . S
O195 P184 1.490 . S
H196 C212 0.939 . S
H197 C214 0.940 . S
C198 P184 1.812 . S
C198 C199 1.389 . S
C198 C203 1.391 . S
C199 H185 0.941 . S
C199 C198 1.389 . S
C199 C200 1.397 . S
C200 H186 0.939 . S
C200 C199 1.397 . S
C200 C201 1.378 . S
C201 C200 1.378 . S
C201 C202 1.378 . S
C202 H187 0.940 . S
C202 C201 1.378 . S
C202 C203 1.396 . S
C203 H188 0.940 . S
C203 C198 1.391 . S
C203 C202 1.396 . S
C204 P184 1.803 . S
C204 C205 1.378 . S
C204 C209 1.400 . S
C205 H189 0.939 . S
C205 C204 1.378 . S
C205 C206 1.361 . S
C206 H190 0.942 . S
C206 C205 1.361 . S
C206 C207 1.369 . S
C207 C206 1.369 . S
C207 C208 1.404 . S
C208 H191 0.940 . S
C208 C207 1.404 . S
C208 C209 1.389 . S
C209 H192 0.939 . S
C209 C204 1.400 . S
C209 C208 1.389 . S
C210 P184 1.819 . S
C210 C211 1.391 . S
C210 C215 1.391 . S
C211 H193 0.941 . S
C211 C210 1.391 . S
C211 C212 1.396 . S
C212 H196 0.939 . S
C212 C211 1.396 . S
C212 C213 1.397 . S
C213 C212 1.397 . S
C213 C214 1.385 . S
C214 H197 0.940 . S
C214 C213 1.385 . S
C214 C215 1.388 . S
C215 H194 0.939 . S
C215 C210 1.391 . S
C215 C214 1.388 . S
P216 O227 1.490 . S
P216 C230 1.812 . S
P216 C236 1.803 . S
P216 C242 1.819 . S
H217 C231 0.941 . S
H218 C232 0.939 . S
H219 C234 0.940 . S
H220 C235 0.940 . S
H221 C237 0.939 . S
H222 C238 0.942 . S
H223 C240 0.940 . S
H224 C241 0.939 . S
H225 C243 0.941 . S
H226 C247 0.939 . S
O227 P216 1.490 . S
H228 C244 0.939 . S
H229 C246 0.940 . S
C230 P216 1.812 . S
C230 C231 1.389 . S
C230 C235 1.391 . S
C231 H217 0.941 . S
C231 C230 1.389 . S
C231 C232 1.397 . S
C232 H218 0.939 . S
C232 C231 1.397 . S
C232 C233 1.378 . S
C233 C232 1.378 . S
C233 C234 1.378 . S
C234 H219 0.940 . S
C234 C233 1.378 . S
C234 C235 1.396 . S
C235 H220 0.940 . S
C235 C230 1.391 . S
C235 C234 1.396 . S
C236 P216 1.803 . S
C236 C237 1.378 . S
C236 C241 1.400 . S
C237 H221 0.939 . S
C237 C236 1.378 . S
C237 C238 1.361 . S
C238 H222 0.942 . S
C238 C237 1.361 . S
C238 C239 1.369 . S
C239 C238 1.369 . S
C239 C240 1.404 . S
C240 H223 0.940 . S
C240 C239 1.404 . S
C240 C241 1.389 . S
C241 H224 0.939 . S
C241 C236 1.400 . S
C241 C240 1.389 . S
C242 P216 1.819 . S
C242 C243 1.391 . S
C242 C247 1.391 . S
C243 H225 0.941 . S
C243 C242 1.391 . S
C243 C244 1.396 . S
C244 H228 0.939 . S
C244 C243 1.396 . S
C244 C245 1.397 . S
C245 C244 1.397 . S
C245 C246 1.385 . S
C246 H229 0.940 . S
C246 C245 1.385 . S
C246 C247 1.388 . S
C247 H226 0.939 . S
C247 C242 1.391 . S
C247 C246 1.388 . S
P248 O259 1.490 . S
P248 C262 1.812 . S
P248 C268 1.803 . S
P248 C274 1.819 . S
H249 C263 0.941 . S
H250 C264 0.939 . S
H251 C266 0.940 . S
H252 C267 0.940 . S
H253 C269 0.939 . S
H254 C270 0.942 . S
H255 C272 0.940 . S
H256 C273 0.939 . S
H257 C275 0.941 . S
H258 C279 0.939 . S
O259 P248 1.490 . S
H260 C276 0.939 . S
H261 C278 0.940 . S
C262 P248 1.812 . S
C262 C263 1.389 . S
C262 C267 1.391 . S
C263 H249 0.941 . S
C263 C262 1.389 . S
C263 C264 1.397 . S
C264 H250 0.939 . S
C264 C263 1.397 . S
C264 C265 1.378 . S
C265 C264 1.378 . S
C265 C266 1.378 . S
C266 H251 0.940 . S
C266 C265 1.378 . S
C266 C267 1.396 . S
C267 H252 0.940 . S
C267 C262 1.391 . S
C267 C266 1.396 . S
C268 P248 1.803 . S
C268 C269 1.378 . S
C268 C273 1.400 . S
C269 H253 0.939 . S
C269 C268 1.378 . S
C269 C270 1.361 . S
C270 H254 0.942 . S
C270 C269 1.361 . S
C270 C271 1.369 . S
C271 C270 1.369 . S
C271 C272 1.404 . S
C272 H255 0.940 . S
C272 C271 1.404 . S
C272 C273 1.389 . S
C273 H256 0.939 . S
C273 C268 1.400 . S
C273 C272 1.389 . S
C274 P248 1.819 . S
C274 C275 1.391 . S
C274 C279 1.391 . S
C275 H257 0.941 . S
C275 C274 1.391 . S
C275 C276 1.396 . S
C276 H260 0.939 . S
C276 C275 1.396 . S
C276 C277 1.397 . S
C277 C276 1.397 . S
C277 C278 1.385 . S
C278 H261 0.940 . S
C278 C277 1.385 . S
C278 C279 1.388 . S
C279 H258 0.939 . S
C279 C274 1.391 . S
C279 C278 1.388 . S
P280 O291 1.490 . S
P280 C294 1.812 . S
P280 C300 1.803 . S
P280 C306 1.819 . S
H281 C295 0.941 . S
H282 C296 0.939 . S
H283 C298 0.940 . S
H284 C299 0.940 . S
H285 C301 0.939 . S
H286 C302 0.942 . S
H287 C304 0.940 . S
H288 C305 0.939 . S
H289 C307 0.941 . S
H290 C311 0.939 . S
O291 P280 1.490 . S
H292 C308 0.939 . S
H293 C310 0.940 . S
C294 P280 1.812 . S
C294 C295 1.389 . S
C294 C299 1.391 . S
C295 H281 0.941 . S
C295 C294 1.389 . S
C295 C296 1.397 . S
C296 H282 0.939 . S
C296 C295 1.397 . S
C296 C297 1.378 . S
C297 C296 1.378 . S
C297 C298 1.378 . S
C298 H283 0.940 . S
C298 C297 1.378 . S
C298 C299 1.396 . S
C299 H284 0.940 . S
C299 C294 1.391 . S
C299 C298 1.396 . S
C300 P280 1.803 . S
C300 C301 1.378 . S
C300 C305 1.400 . S
C301 H285 0.939 . S
C301 C300 1.378 . S
C301 C302 1.361 . S
C302 H286 0.942 . S
C302 C301 1.361 . S
C302 C303 1.369 . S
C303 C302 1.369 . S
C303 C304 1.404 . S
C304 H287 0.940 . S
C304 C303 1.404 . S
C304 C305 1.389 . S
C305 H288 0.939 . S
C305 C300 1.400 . S
C305 C304 1.389 . S
C306 P280 1.819 . S
C306 C307 1.391 . S
C306 C311 1.391 . S
C307 H289 0.941 . S
C307 C306 1.391 . S
C307 C308 1.396 . S
C308 H292 0.939 . S
C308 C307 1.396 . S
C308 C309 1.397 . S
C309 C308 1.397 . S
C309 C310 1.385 . S
C310 H293 0.940 . S
C310 C309 1.385 . S
C310 C311 1.388 . S
C311 H290 0.939 . S
C311 C306 1.391 . S
C311 C310 1.388 . S
P312 O323 1.490 . S
P312 C326 1.812 . S
P312 C332 1.803 . S
P312 C338 1.819 . S
H313 C327 0.941 . S
H314 C328 0.939 . S
H315 C330 0.940 . S
H316 C331 0.940 . S
H317 C333 0.939 . S
H318 C334 0.942 . S
H319 C336 0.940 . S
H320 C337 0.939 . S
H321 C339 0.941 . S
H322 C343 0.939 . S
O323 P312 1.490 . S
H324 C340 0.939 . S
H325 C342 0.940 . S
C326 P312 1.812 . S
C326 C327 1.389 . S
C326 C331 1.391 . S
C327 H313 0.941 . S
C327 C326 1.389 . S
C327 C328 1.397 . S
C328 H314 0.939 . S
C328 C327 1.397 . S
C328 C329 1.378 . S
C329 C328 1.378 . S
C329 C330 1.378 . S
C330 H315 0.940 . S
C330 C329 1.378 . S
C330 C331 1.396 . S
C331 H316 0.940 . S
C331 C326 1.391 . S
C331 C330 1.396 . S
C332 P312 1.803 . S
C332 C333 1.378 . S
C332 C337 1.400 . S
C333 H317 0.939 . S
C333 C332 1.378 . S
C333 C334 1.361 . S
C334 H318 0.942 . S
C334 C333 1.361 . S
C334 C335 1.369 . S
C335 C334 1.369 . S
C335 C336 1.404 . S
C336 H319 0.940 . S
C336 C335 1.404 . S
C336 C337 1.389 . S
C337 H320 0.939 . S
C337 C332 1.400 . S
C337 C336 1.389 . S
C338 P312 1.819 . S
C338 C339 1.391 . S
C338 C343 1.391 . S
C339 H321 0.941 . S
C339 C338 1.391 . S
C339 C340 1.396 . S
C340 H324 0.939 . S
C340 C339 1.396 . S
C340 C341 1.397 . S
C341 C340 1.397 . S
C341 C342 1.385 . S
C342 H325 0.940 . S
C342 C341 1.385 . S
C342 C343 1.388 . S
C343 H322 0.939 . S
C343 C338 1.391 . S
C343 C342 1.388 . S
H344 C362 0.951 . S
H345 C364 0.951 . S
H346 C366 0.950 . S
H347 C367 0.950 . S
H348 C369 0.950 . S
H349 C372 0.950 . S
H350 C373 0.950 . S
H351 C375 0.950 . S
H352 C376 0.950 . S
H353 C377 0.951 . S
H354 C379 0.951 . S
H355 C381 0.950 . S
H356 C382 0.950 . S
H357 C384 0.939 1_545 S
H358 C387 0.950 . S
H359 C388 0.950 . S
H360 C390 0.950 . S
H361 C391 0.950 . S
C362 H344 0.951 . S
C362 C363 1.366 . S
C362 C364 1.388 . S
C363 C362 1.366 . S
C363 C367 1.385 . S
C364 H345 0.951 . S
C364 C362 1.388 . S
C364 C365 1.366 . S
C365 C364 1.366 . S
C365 C366 1.414 . S
C365 C368 1.499 . S
C366 H346 0.950 . S
C366 C365 1.414 . S
C366 C367 1.374 . S
C367 H347 0.950 . S
C367 C363 1.385 . S
C367 C366 1.374 . S
C368 C365 1.499 . S
C368 C369 1.373 . S
C368 C370 1.389 . S
C369 H348 0.950 . S
C369 C368 1.373 . S
C369 C385 1.377 . S
C370 C368 1.389 . S
C370 C371 1.524 . S
C370 C384 1.377 . S
C371 C370 1.524 . S
C371 C372 1.397 . S
C371 C376 1.363 . S
C372 H349 0.950 . S
C372 C371 1.397 . S
C372 C373 1.334 . S
C373 H350 0.950 . S
C373 C372 1.334 . S
C373 C374 1.287 . S
C374 C373 1.287 . S
C374 C375 1.524 . S
C374 H393 0.913 . S
C375 H351 0.950 . S
C375 C374 1.524 . S
C375 C376 1.415 . S
C376 H352 0.950 . S
C376 C371 1.363 . S
C376 C375 1.415 . S
C377 H353 0.951 . S
C377 C378 1.366 . S
C377 C379 1.388 . S
C378 C377 1.366 . S
C378 C382 1.385 . S
C379 H354 0.951 . S
C379 C377 1.388 . S
C379 C380 1.366 . S
C380 C379 1.366 . S
C380 C381 1.414 . S
C380 C383 1.499 1_545 S
C381 H355 0.950 . S
C381 C380 1.414 . S
C381 C382 1.374 . S
C382 H356 0.950 . S
C382 C378 1.385 . S
C382 C381 1.374 . S
C383 C380 1.499 1_565 S
C383 C384 1.373 . S
C383 C385 1.389 . S
C384 H357 0.939 1_565 S
C384 C370 1.377 . S
C384 C383 1.373 . S
C385 C369 1.377 . S
C385 C383 1.389 . S
C385 C386 1.524 . S
C386 C385 1.524 . S
C386 C387 1.397 . S
C386 C391 1.363 . S
C387 H358 0.950 . S
C387 C386 1.397 . S
C387 C388 1.334 . S
C388 H359 0.950 . S
C388 C387 1.334 . S
C388 C389 1.287 . S
C389 C388 1.287 . S
C389 C390 1.524 . S
C389 H392 0.999 . S
C390 H360 0.950 . S
C390 C389 1.524 . S
C390 C391 1.415 . S
C391 H361 0.950 . S
C391 C386 1.363 . S
C391 C390 1.415 . S
H392 C389 0.999 . S
H393 C374 0.913 . S
H394 C412 0.951 . S
H395 C414 0.951 . S
H396 C416 0.950 . S
H397 C417 0.950 . S
H398 C419 0.950 . S
H399 C422 0.950 . S
H400 C423 0.950 . S
H401 C425 0.950 . S
H402 C426 0.950 . S
H403 C427 0.951 . S
H404 C429 0.951 . S
H405 C431 0.950 . S
H406 C432 0.950 . S
H407 C434 0.950 . S
H408 C437 0.950 . S
H409 C438 0.950 . S
H410 C440 0.950 . S
H411 C441 0.950 . S
C412 H394 0.951 . S
C412 C413 1.366 . S
C412 C414 1.388 . S
C413 C412 1.366 . S
C413 C417 1.385 . S
C414 H395 0.951 . S
C414 C412 1.388 . S
C414 C415 1.366 . S
C415 C414 1.366 . S
C415 C416 1.414 . S
C415 C418 1.499 . S
C416 H396 0.950 . S
C416 C415 1.414 . S
C416 C417 1.374 . S
C417 H397 0.950 . S
C417 C413 1.385 . S
C417 C416 1.374 . S
C418 C415 1.499 . S
C418 C419 1.373 . S
C418 C420 1.389 . S
C419 H398 0.950 . S
C419 C418 1.373 . S
C419 C435 1.377 . S
C420 C418 1.389 . S
C420 C421 1.524 . S
C420 C434 1.377 . S
C421 C420 1.524 . S
C421 C422 1.397 . S
C421 C426 1.363 . S
C422 H399 0.950 . S
C422 C421 1.397 . S
C422 C423 1.334 . S
C423 H400 0.950 . S
C423 C422 1.334 . S
C423 C424 1.287 . S
C424 C423 1.287 . S
C424 C425 1.524 . S
C424 H443 0.913 . S
C425 H401 0.950 . S
C425 C424 1.524 . S
C425 C426 1.415 . S
C426 H402 0.950 . S
C426 C421 1.363 . S
C426 C425 1.415 . S
C427 H403 0.951 . S
C427 C428 1.366 . S
C427 C429 1.388 . S
C428 C427 1.366 . S
C428 C432 1.385 . S
C429 H404 0.951 . S
C429 C427 1.388 . S
C429 C430 1.366 . S
C430 C429 1.366 . S
C430 C431 1.414 . S
C430 C433 1.499 . S
C431 H405 0.950 . S
C431 C430 1.414 . S
C431 C432 1.374 . S
C432 H406 0.950 . S
C432 C428 1.385 . S
C432 C431 1.374 . S
C433 C430 1.499 . S
C433 C434 1.373 . S
C433 C435 1.389 . S
C434 H407 0.950 . S
C434 C420 1.377 . S
C434 C433 1.373 . S
C435 C419 1.377 . S
C435 C433 1.389 . S
C435 C436 1.524 . S
C436 C435 1.524 . S
C436 C437 1.397 . S
C436 C441 1.363 . S
C437 H408 0.950 . S
C437 C436 1.397 . S
C437 C438 1.334 . S
C438 H409 0.950 . S
C438 C437 1.334 . S
C438 C439 1.287 . S
C439 C438 1.287 . S
C439 C440 1.524 . S
C439 H442 0.999 . S
C440 H410 0.950 . S
C440 C439 1.524 . S
C440 C441 1.415 . S
C441 H411 0.950 . S
C441 C436 1.363 . S
C441 C440 1.415 . S
H442 C439 0.999 . S
H443 C424 0.913 . S
H444 C462 0.951 . S
H445 C464 0.951 . S
H446 C466 0.950 . S
H447 C467 0.950 . S
H448 C469 0.950 . S
H449 C472 0.950 . S
H450 C473 0.950 . S
H451 C475 0.950 . S
H452 C476 0.950 . S
H453 C477 0.951 . S
H454 C479 0.951 . S
H455 C481 0.950 . S
H456 C482 0.950 . S
H457 C484 0.950 . S
H458 C487 0.950 1_565 S
H459 C488 0.950 1_565 S
H460 C490 0.950 . S
H461 C491 0.950 . S
C462 H444 0.951 . S
C462 C463 1.366 . S
C462 C464 1.388 . S
C463 C462 1.366 . S
C463 C467 1.385 . S
C464 H445 0.951 . S
C464 C462 1.388 . S
C464 C465 1.366 . S
C465 C464 1.366 . S
C465 C466 1.414 . S
C465 C468 1.499 . S
C466 H446 0.950 . S
C466 C465 1.414 . S
C466 C467 1.374 . S
C467 H447 0.950 . S
C467 C463 1.385 . S
C467 C466 1.374 . S
C468 C465 1.499 . S
C468 C469 1.373 . S
C468 C470 1.389 . S
C469 H448 0.950 . S
C469 C468 1.373 . S
C469 C485 1.377 . S
C470 C468 1.389 . S
C470 C471 1.524 . S
C470 C484 1.377 1_545 S
C471 C470 1.524 . S
C471 C472 1.397 . S
C471 C476 1.363 1_545 S
C472 H449 0.950 . S
C472 C471 1.397 . S
C472 C473 1.334 1_554 S
C473 H450 0.950 . S
C473 C472 1.334 1_556 S
C473 C474 1.287 1_556 S
C474 C473 1.287 1_554 S
C474 C475 1.524 1_545 S
C474 H493 0.913 1_554 S
C475 H451 0.950 . S
C475 C474 1.524 1_565 S
C475 C476 1.415 . S
C476 H452 0.950 . S
C476 C471 1.363 1_565 S
C476 C475 1.415 . S
C477 H453 0.951 . S
C477 C478 1.366 . S
C477 C479 1.388 . S
C478 C477 1.366 . S
C478 C482 1.385 . S
C479 H454 0.951 . S
C479 C477 1.388 . S
C479 C480 1.366 . S
C480 C479 1.366 . S
C480 C481 1.414 . S
C480 C483 1.499 . S
C481 H455 0.950 . S
C481 C480 1.414 . S
C481 C482 1.374 . S
C482 H456 0.950 . S
C482 C478 1.385 . S
C482 C481 1.374 . S
C483 C480 1.499 . S
C483 C484 1.373 . S
C483 C485 1.389 1_565 S
C484 H457 0.950 . S
C484 C470 1.377 1_565 S
C484 C483 1.373 . S
C485 C469 1.377 . S
C485 C483 1.389 1_545 S
C485 C486 1.524 . S
C486 C485 1.524 . S
C486 C487 1.397 . S
C486 C491 1.363 . S
C487 H458 0.950 1_545 S
C487 C486 1.397 . S
C487 C488 1.334 . S
C488 H459 0.950 1_545 S
C488 C487 1.334 . S
C488 C489 1.287 . S
C489 C488 1.287 . S
C489 C490 1.524 . S
C489 H492 0.999 . S
C490 H460 0.950 . S
C490 C489 1.524 . S
C490 C491 1.415 . S
C491 H461 0.950 . S
C491 C486 1.363 . S
C491 C490 1.415 . S
H492 C489 0.999 . S
H493 C474 0.913 1_556 S
H494 C512 0.951 . S
H495 C514 0.951 . S
H496 C516 0.950 . S
H497 C517 0.950 . S
H498 C519 0.950 . S
H499 C522 0.950 . S
H500 C523 0.950 . S
H501 C525 0.950 . S
H502 C526 0.950 . S
H503 C527 0.951 . S
H504 C529 0.951 . S
H505 C531 0.950 . S
H506 C532 0.950 . S
H507 C534 0.950 . S
H508 C537 0.950 . S
H509 C538 0.950 . S
H510 C540 0.950 . S
H511 C541 0.950 . S
C512 H494 0.951 . S
C512 C513 1.366 . S
C512 C514 1.388 . S
C513 C512 1.366 . S
C513 C517 1.385 . S
C514 H495 0.951 . S
C514 C512 1.388 . S
C514 C515 1.366 . S
C515 C514 1.366 . S
C515 C516 1.414 . S
C515 C518 1.499 . S
C516 H496 0.950 . S
C516 C515 1.414 . S
C516 C517 1.374 . S
C517 H497 0.950 . S
C517 C513 1.385 . S
C517 C516 1.374 . S
C518 C515 1.499 . S
C518 C519 1.373 . S
C518 C520 1.389 . S
C519 H498 0.950 . S
C519 C518 1.373 . S
C519 C535 1.377 . S
C520 C518 1.389 . S
C520 C521 1.524 . S
C520 C534 1.377 . S
C521 C520 1.524 . S
C521 C522 1.397 . S
C521 C526 1.363 . S
C522 H499 0.950 . S
C522 C521 1.397 . S
C522 C523 1.334 . S
C523 H500 0.950 . S
C523 C522 1.334 . S
C523 C524 1.287 . S
C524 C523 1.287 . S
C524 C525 1.524 . S
C524 H543 0.913 . S
C525 H501 0.950 . S
C525 C524 1.524 . S
C525 C526 1.415 . S
C526 H502 0.950 . S
C526 C521 1.363 . S
C526 C525 1.415 . S
C527 H503 0.951 . S
C527 C528 1.366 . S
C527 C529 1.388 . S
C528 C527 1.366 . S
C528 C532 1.385 . S
C529 H504 0.951 . S
C529 C527 1.388 . S
C529 C530 1.366 . S
C530 C529 1.366 . S
C530 C531 1.414 . S
C530 C533 1.499 . S
C531 H505 0.950 . S
C531 C530 1.414 . S
C531 C532 1.374 . S
C532 H506 0.950 . S
C532 C528 1.385 . S
C532 C531 1.374 . S
C533 C530 1.499 . S
C533 C534 1.373 . S
C533 C535 1.389 . S
C534 H507 0.950 . S
C534 C520 1.377 . S
C534 C533 1.373 . S
C535 C519 1.377 . S
C535 C533 1.389 . S
C535 C536 1.524 . S
C536 C535 1.524 . S
C536 C537 1.397 . S
C536 C541 1.363 . S
C537 H508 0.950 . S
C537 C536 1.397 . S
C537 C538 1.334 . S
C538 H509 0.950 . S
C538 C537 1.334 . S
C538 C539 1.287 . S
C539 C538 1.287 . S
C539 C540 1.524 . S
C539 H542 0.999 . S
C540 H510 0.950 . S
C540 C539 1.524 . S
C540 C541 1.415 . S
C541 H511 0.950 . S
C541 C536 1.363 . S
C541 C540 1.415 . S
H542 C539 0.999 . S
H543 C524 0.913 . S
H544 C562 0.951 . S
H545 C564 0.951 . S
H546 C566 0.950 . S
H547 C567 0.950 . S
H548 C569 0.950 . S
H549 C572 0.950 . S
H550 C573 0.950 . S
H551 C575 0.950 . S
H552 C576 0.950 . S
H553 C577 0.951 . S
H554 C579 0.951 . S
H555 C581 0.950 . S
H556 C582 0.950 . S
H557 C584 0.950 . S
H558 C587 0.950 . S
H559 C588 0.950 . S
H560 C590 0.950 . S
H561 C591 0.950 . S
C562 H544 0.951 . S
C562 C563 1.366 . S
C562 C564 1.388 . S
C563 C562 1.366 . S
C563 C567 1.385 . S
C564 H545 0.951 . S
C564 C562 1.388 . S
C564 C565 1.366 . S
C565 C564 1.366 . S
C565 C566 1.414 . S
C565 C568 1.499 . S
C566 H546 0.950 . S
C566 C565 1.414 . S
C566 C567 1.374 . S
C567 H547 0.950 . S
C567 C563 1.385 . S
C567 C566 1.374 . S
C568 C565 1.499 . S
C568 C569 1.373 . S
C568 C570 1.389 . S
C569 H548 0.950 . S
C569 C568 1.373 . S
C569 C585 1.377 . S
C570 C568 1.389 . S
C570 C571 1.524 . S
C570 C584 1.377 . S
C571 C570 1.524 . S
C571 C572 1.397 . S
C571 C576 1.363 . S
C572 H549 0.950 . S
C572 C571 1.397 . S
C572 C573 1.334 . S
C573 H550 0.950 . S
C573 C572 1.334 . S
C573 C574 1.287 . S
C574 C573 1.287 . S
C574 C575 1.524 . S
C574 H593 0.913 . S
C575 H551 0.950 . S
C575 C574 1.524 . S
C575 C576 1.415 . S
C576 H552 0.950 . S
C576 C571 1.363 . S
C576 C575 1.415 . S
C577 H553 0.951 . S
C577 C578 1.366 . S
C577 C579 1.388 . S
C578 C577 1.366 . S
C578 C582 1.385 . S
C579 H554 0.951 . S
C579 C577 1.388 . S
C579 C580 1.366 . S
C580 C579 1.366 . S
C580 C581 1.414 . S
C580 C583 1.499 . S
C581 H555 0.950 . S
C581 C580 1.414 . S
C581 C582 1.374 . S
C582 H556 0.950 . S
C582 C578 1.385 . S
C582 C581 1.374 . S
C583 C580 1.499 . S
C583 C584 1.373 . S
C583 C585 1.389 . S
C584 H557 0.950 . S
C584 C570 1.377 . S
C584 C583 1.373 . S
C585 C569 1.377 . S
C585 C583 1.389 . S
C585 C586 1.524 . S
C586 C585 1.524 . S
C586 C587 1.397 . S
C586 C591 1.363 . S
C587 H558 0.950 . S
C587 C586 1.397 . S
C587 C588 1.334 . S
C588 H559 0.950 . S
C588 C587 1.334 . S
C588 C589 1.287 . S
C589 C588 1.287 . S
C589 C590 1.524 . S
C589 H592 0.999 . S
C590 H560 0.950 . S
C590 C589 1.524 . S
C590 C591 1.415 . S
C591 H561 0.950 . S
C591 C586 1.363 . S
C591 C590 1.415 . S
H592 C589 0.999 . S
H593 C574 0.913 . S
H594 C612 0.951 . S
H595 C614 0.951 . S
H596 C616 0.937 1_554 S
H597 C617 0.950 . S
H598 C619 0.943 1_554 S
H599 C622 0.950 . S
H600 C623 0.950 . S
H601 C625 0.951 . S
H602 C626 0.950 . S
H603 C627 0.951 . S
H604 C629 0.951 . S
H605 C631 0.950 . S
H606 C632 0.950 . S
H607 C634 0.950 . S
H608 C637 0.950 . S
H609 C638 0.950 . S
H610 C640 0.950 . S
H611 C641 0.950 . S
C612 H594 0.951 . S
C612 C613 1.366 . S
C612 C614 1.388 . S
C613 C612 1.366 . S
C613 C617 1.385 1_556 S
C614 H595 0.951 . S
C614 C612 1.388 . S
C614 C615 1.366 . S
C615 C614 1.366 . S
C615 C616 1.429 . S
C615 C618 1.499 1_655 S
C616 H596 0.937 1_556 S
C616 C615 1.429 . S
C616 C617 1.371 1_556 S
C617 H597 0.950 . S
C617 C613 1.385 1_554 S
C617 C616 1.371 1_554 S
C618 C615 1.499 1_455 S
C618 C619 1.373 . S
C618 C620 1.389 . S
C619 H598 0.943 1_556 S
C619 C618 1.373 . S
C619 C635 1.377 . S
C620 C618 1.389 . S
C620 C621 1.524 . S
C620 C634 1.377 . S
C621 C620 1.524 . S
C621 C622 1.397 1_455 S
C621 C626 1.363 . S
C622 H599 0.950 . S
C622 C621 1.397 1_655 S
C622 C623 1.334 . S
C623 H600 0.950 . S
C623 C622 1.334 . S
C623 C624 1.287 . S
C624 C623 1.287 . S
C624 C625 1.508 1_655 S
C624 H643 0.913 . S
C625 H601 0.951 . S
C625 C624 1.508 1_455 S
C625 C626 1.431 . S
C626 H602 0.950 . S
C626 C621 1.363 . S
C626 C625 1.431 . S
C627 H603 0.951 . S
C627 C628 1.366 . S
C627 C629 1.388 . S
C628 C627 1.366 . S
C628 C632 1.385 . S
C629 H604 0.951 . S
C629 C627 1.388 . S
C629 C630 1.366 . S
C630 C629 1.366 . S
C630 C631 1.414 . S
C630 C633 1.499 . S
C631 H605 0.950 . S
C631 C630 1.414 . S
C631 C632 1.374 . S
C632 H606 0.950 . S
C632 C628 1.385 . S
C632 C631 1.374 . S
C633 C630 1.499 . S
C633 C634 1.373 . S
C633 C635 1.389 . S
C634 H607 0.950 . S
C634 C620 1.377 . S
C634 C633 1.373 . S
C635 C619 1.377 . S
C635 C633 1.389 . S
C635 C636 1.524 . S
C636 C635 1.524 . S
C636 C637 1.397 . S
C636 C641 1.363 1_556 S
C637 H608 0.950 . S
C637 C636 1.397 . S
C637 C638 1.334 . S
C638 H609 0.950 . S
C638 C637 1.334 . S
C638 C639 1.287 1_556 S
C639 C638 1.287 1_554 S
C639 C640 1.524 . S
C639 H642 0.999 . S
C640 H610 0.950 . S
C640 C639 1.524 . S
C640 C641 1.415 . S
C641 H611 0.950 . S
C641 C636 1.363 1_554 S
C641 C640 1.415 . S
H642 C639 0.999 . S
H643 C624 0.913 . S
H644 C662 0.951 . S
H645 C664 0.951 . S
H646 C666 0.950 . S
H647 C667 0.950 . S
H648 C669 0.950 . S
H649 C672 0.950 . S
H650 C673 0.950 . S
H651 C675 0.950 . S
H652 C676 0.950 . S
H653 C677 0.951 . S
H654 C679 0.951 . S
H655 C681 0.950 . S
H656 C682 0.950 . S
H657 C684 0.950 . S
H658 C687 0.950 . S
H659 C688 0.950 . S
H660 C690 0.950 . S
H661 C691 0.950 . S
C662 H644 0.951 . S
C662 C663 1.366 . S
C662 C664 1.388 . S
C663 C662 1.366 . S
C663 C667 1.385 . S
C664 H645 0.951 . S
C664 C662 1.388 . S
C664 C665 1.366 . S
C665 C664 1.366 . S
C665 C666 1.414 . S
C665 C668 1.499 . S
C666 H646 0.950 . S
C666 C665 1.414 . S
C666 C667 1.374 . S
C667 H647 0.950 . S
C667 C663 1.385 . S
C667 C666 1.374 . S
C668 C665 1.499 . S
C668 C669 1.373 . S
C668 C670 1.389 . S
C669 H648 0.950 . S
C669 C668 1.373 . S
C669 C685 1.377 . S
C670 C668 1.389 . S
C670 C671 1.524 . S
C670 C684 1.377 . S
C671 C670 1.524 . S
C671 C672 1.397 . S
C671 C676 1.363 . S
C672 H649 0.950 . S
C672 C671 1.397 . S
C672 C673 1.334 . S
C673 H650 0.950 . S
C673 C672 1.334 . S
C673 C674 1.287 . S
C674 C673 1.287 . S
C674 C675 1.524 . S
C674 H693 0.913 . S
C675 H651 0.950 . S
C675 C674 1.524 . S
C675 C676 1.415 . S
C676 H652 0.950 . S
C676 C671 1.363 . S
C676 C675 1.415 . S
C677 H653 0.951 . S
C677 C678 1.366 . S
C677 C679 1.388 . S
C678 C677 1.366 . S
C678 C682 1.385 . S
C679 H654 0.951 . S
C679 C677 1.388 . S
C679 C680 1.366 . S
C680 C679 1.366 . S
C680 C681 1.414 . S
C680 C683 1.499 . S
C681 H655 0.950 . S
C681 C680 1.414 . S
C681 C682 1.374 . S
C682 H656 0.950 . S
C682 C678 1.385 . S
C682 C681 1.374 . S
C683 C680 1.499 . S
C683 C684 1.373 . S
C683 C685 1.389 . S
C684 H657 0.950 . S
C684 C670 1.377 . S
C684 C683 1.373 . S
C685 C669 1.377 . S
C685 C683 1.389 . S
C685 C686 1.524 . S
C686 C685 1.524 . S
C686 C687 1.397 . S
C686 C691 1.363 . S
C687 H658 0.950 . S
C687 C686 1.397 . S
C687 C688 1.334 . S
C688 H659 0.950 . S
C688 C687 1.334 . S
C688 C689 1.287 . S
C689 C688 1.287 . S
C689 C690 1.524 . S
C689 H692 0.999 . S
C690 H660 0.950 . S
C690 C689 1.524 . S
C690 C691 1.415 . S
C691 H661 0.950 . S
C691 C686 1.363 . S
C691 C690 1.415 . S
H692 C689 0.999 . S
H693 C674 0.913 . S
H694 C712 0.951 . S
H695 C714 0.951 . S
H696 C716 0.950 . S
H697 C717 0.950 . S
H698 C719 0.950 . S
H699 C722 0.950 . S
H700 C723 0.950 . S
H701 C725 0.950 . S
H702 C726 0.950 . S
H703 C727 0.951 . S
H704 C729 0.951 1_655 S
H705 C731 0.950 . S
H706 C732 0.950 . S
H707 C734 0.950 . S
H708 C737 0.950 . S
H709 C738 0.950 . S
H710 C740 0.950 . S
H711 C741 0.950 . S
C712 H694 0.951 . S
C712 C713 1.366 . S
C712 C714 1.388 . S
C713 C712 1.366 . S
C713 C717 1.385 . S
C714 H695 0.951 . S
C714 C712 1.388 . S
C714 C715 1.366 . S
C715 C714 1.366 . S
C715 C716 1.414 . S
C715 C718 1.499 . S
C716 H696 0.950 . S
C716 C715 1.414 . S
C716 C717 1.374 . S
C717 H697 0.950 . S
C717 C713 1.385 . S
C717 C716 1.374 . S
C718 C715 1.499 . S
C718 C719 1.373 . S
C718 C720 1.389 . S
C719 H698 0.950 . S
C719 C718 1.373 . S
C719 C735 1.377 . S
C720 C718 1.389 . S
C720 C721 1.524 . S
C720 C734 1.377 . S
C721 C720 1.524 . S
C721 C722 1.397 . S
C721 C726 1.363 . S
C722 H699 0.950 . S
C722 C721 1.397 . S
C722 C723 1.334 . S
C723 H700 0.950 . S
C723 C722 1.334 . S
C723 C724 1.287 . S
C724 C723 1.287 . S
C724 C725 1.524 . S
C724 H743 0.913 . S
C725 H701 0.950 . S
C725 C724 1.524 . S
C725 C726 1.415 . S
C726 H702 0.950 . S
C726 C721 1.363 . S
C726 C725 1.415 . S
C727 H703 0.951 . S
C727 C728 1.367 1_655 S
C727 C729 1.388 1_655 S
C728 C727 1.367 1_455 S
C728 C732 1.382 . S
C729 H704 0.951 1_455 S
C729 C727 1.388 1_455 S
C729 C730 1.366 . S
C730 C729 1.366 . S
C730 C731 1.414 . S
C730 C733 1.499 . S
C731 H705 0.950 . S
C731 C730 1.414 . S
C731 C732 1.374 . S
C732 H706 0.950 . S
C732 C728 1.382 . S
C732 C731 1.374 . S
C733 C730 1.499 . S
C733 C734 1.373 . S
C733 C735 1.389 . S
C734 H707 0.950 . S
C734 C720 1.377 . S
C734 C733 1.373 . S
C735 C719 1.377 . S
C735 C733 1.389 . S
C735 C736 1.524 . S
C736 C735 1.524 . S
C736 C737 1.397 . S
C736 C741 1.363 . S
C737 H708 0.950 . S
C737 C736 1.397 . S
C737 C738 1.334 . S
C738 H709 0.950 . S
C738 C737 1.334 . S
C738 C739 1.287 . S
C739 C738 1.287 . S
C739 C740 1.524 1_455 S
C739 H742 0.999 1_455 S
C740 H710 0.950 . S
C740 C739 1.524 1_655 S
C740 C741 1.415 1_655 S
C741 H711 0.950 . S
C741 C736 1.363 . S
C741 C740 1.415 1_455 S
H742 C739 0.999 1_655 S
H743 C724 0.913 . S
H744 C762 0.951 . S
H745 C764 0.951 . S
H746 C766 0.950 . S
H747 C767 0.950 . S
H748 C769 0.950 . S
H749 C772 0.950 . S
H750 C773 0.950 . S
H751 C775 0.951 1_565 S
H752 C776 0.950 . S
H753 C777 0.951 . S
H754 C779 0.970 . S
H755 C781 0.950 . S
H756 C782 0.950 . S
H757 C784 0.950 1_565 S
H758 C787 0.950 . S
H759 C788 0.950 . S
H760 C790 0.950 . S
H761 C791 0.950 . S
C762 H744 0.951 . S
C762 C763 1.366 . S
C762 C764 1.388 . S
C763 C762 1.366 . S
C763 C767 1.385 . S
C764 H745 0.951 . S
C764 C762 1.388 . S
C764 C765 1.366 . S
C765 C764 1.366 . S
C765 C766 1.414 . S
C765 C768 1.499 . S
C766 H746 0.950 . S
C766 C765 1.414 . S
C766 C767 1.374 . S
C767 H747 0.950 . S
C767 C763 1.385 . S
C767 C766 1.374 . S
C768 C765 1.499 . S
C768 C769 1.373 . S
C768 C770 1.389 . S
C769 H748 0.950 . S
C769 C768 1.373 . S
C769 C785 1.377 . S
C770 C768 1.389 . S
C770 C771 1.524 . S
C770 C784 1.377 . S
C771 C770 1.524 . S
C771 C772 1.397 . S
C771 C776 1.363 . S
C772 H749 0.950 . S
C772 C771 1.397 . S
C772 C773 1.334 . S
C773 H750 0.950 . S
C773 C772 1.334 . S
C773 C774 1.287 . S
C774 C773 1.287 . S
C774 C775 1.524 . S
C774 H793 0.910 1_545 S
C775 H751 0.951 1_545 S
C775 C774 1.524 . S
C775 C776 1.413 . S
C776 H752 0.950 . S
C776 C771 1.363 . S
C776 C775 1.413 . S
C777 H753 0.951 . S
C777 C778 1.366 . S
C777 C779 1.388 . S
C778 C777 1.366 . S
C778 C782 1.385 . S
C779 H754 0.970 . S
C779 C777 1.388 . S
C779 C780 1.366 . S
C780 C779 1.366 . S
C780 C781 1.414 . S
C780 C783 1.499 1_565 S
C781 H755 0.950 . S
C781 C780 1.414 . S
C781 C782 1.374 . S
C782 H756 0.950 . S
C782 C778 1.385 . S
C782 C781 1.374 . S
C783 C780 1.499 1_545 S
C783 C784 1.373 . S
C783 C785 1.389 . S
C784 H757 0.950 1_545 S
C784 C770 1.377 . S
C784 C783 1.373 . S
C785 C769 1.377 . S
C785 C783 1.389 . S
C785 C786 1.524 . S
C786 C785 1.524 . S
C786 C787 1.397 . S
C786 C791 1.363 . S
C787 H758 0.950 . S
C787 C786 1.397 . S
C787 C788 1.334 . S
C788 H759 0.950 . S
C788 C787 1.334 . S
C788 C789 1.287 . S
C789 C788 1.287 . S
C789 C790 1.524 . S
C789 H792 0.999 . S
C790 H760 0.950 . S
C790 C789 1.524 . S
C790 C791 1.415 . S
C791 H761 0.950 . S
C791 C786 1.363 . S
C791 C790 1.415 . S
H792 C789 0.999 . S
H793 C774 0.910 1_565 S
H794 C812 0.951 . S
H795 C814 0.951 . S
H796 C816 0.950 . S
H797 C817 0.950 . S
H798 C819 0.950 . S
H799 C822 0.950 . S
H800 C823 0.950 . S
H801 C825 0.950 . S
H802 C826 0.950 . S
H803 C827 0.951 . S
H804 C829 0.951 . S
H805 C831 0.950 . S
H806 C832 0.950 . S
H807 C834 0.950 . S
H808 C837 0.950 . S
H809 C838 0.950 . S
H810 C840 0.950 . S
H811 C841 0.950 . S
C812 H794 0.951 . S
C812 C813 1.366 . S
C812 C814 1.388 . S
C813 C812 1.366 . S
C813 C817 1.385 . S
C814 H795 0.951 . S
C814 C812 1.388 . S
C814 C815 1.366 . S
C815 C814 1.366 . S
C815 C816 1.414 . S
C815 C818 1.499 . S
C816 H796 0.950 . S
C816 C815 1.414 . S
C816 C817 1.374 . S
C817 H797 0.950 . S
C817 C813 1.385 . S
C817 C816 1.374 . S
C818 C815 1.499 . S
C818 C819 1.373 . S
C818 C820 1.389 . S
C819 H798 0.950 . S
C819 C818 1.373 . S
C819 C835 1.377 . S
C820 C818 1.389 . S
C820 C821 1.524 . S
C820 C834 1.377 . S
C821 C820 1.524 . S
C821 C822 1.397 . S
C821 C826 1.363 . S
C822 H799 0.950 . S
C822 C821 1.397 . S
C822 C823 1.334 . S
C823 H800 0.950 . S
C823 C822 1.334 . S
C823 C824 1.287 . S
C824 C823 1.287 . S
C824 C825 1.524 . S
C824 H843 0.913 . S
C825 H801 0.950 . S
C825 C824 1.524 . S
C825 C826 1.415 . S
C826 H802 0.950 . S
C826 C821 1.363 . S
C826 C825 1.415 . S
C827 H803 0.951 . S
C827 C828 1.366 . S
C827 C829 1.388 . S
C828 C827 1.366 . S
C828 C832 1.385 . S
C829 H804 0.951 . S
C829 C827 1.388 . S
C829 C830 1.366 . S
C830 C829 1.366 . S
C830 C831 1.414 . S
C830 C833 1.499 . S
C831 H805 0.950 . S
C831 C830 1.414 . S
C831 C832 1.374 . S
C832 H806 0.950 . S
C832 C828 1.385 . S
C832 C831 1.374 . S
C833 C830 1.499 . S
C833 C834 1.373 . S
C833 C835 1.389 . S
C834 H807 0.950 . S
C834 C820 1.377 . S
C834 C833 1.373 . S
C835 C819 1.377 . S
C835 C833 1.389 . S
C835 C836 1.524 . S
C836 C835 1.524 . S
C836 C837 1.397 . S
C836 C841 1.363 . S
C837 H808 0.950 . S
C837 C836 1.397 . S
C837 C838 1.334 . S
C838 H809 0.950 . S
C838 C837 1.334 . S
C838 C839 1.287 . S
C839 C838 1.287 . S
C839 C840 1.524 . S
C839 H842 0.999 . S
C840 H810 0.950 . S
C840 C839 1.524 . S
C840 C841 1.415 . S
C841 H811 0.950 . S
C841 C836 1.363 . S
C841 C840 1.415 . S
H842 C839 0.999 . S
H843 C824 0.913 . S
H844 C862 0.951 . S
H845 C864 0.951 . S
H846 C866 0.950 . S
H847 C867 0.950 . S
H848 C869 0.950 . S
H849 C872 0.950 . S
H850 C873 0.950 . S
H851 C875 0.950 . S
H852 C876 0.950 . S
H853 C877 0.951 . S
H854 C879 0.951 . S
H855 C881 0.950 1_554 S
H856 C882 0.950 . S
H857 C884 0.950 . S
H858 C887 0.947 1_545 S
H859 C888 0.950 1_545 S
H860 C890 0.950 . S
H861 C891 0.950 . S
C862 H844 0.951 . S
C862 C863 1.366 . S
C862 C864 1.388 . S
C863 C862 1.366 . S
C863 C867 1.385 1_554 S
C864 H845 0.951 . S
C864 C862 1.388 . S
C864 C865 1.366 . S
C865 C864 1.366 . S
C865 C866 1.414 1_554 S
C865 C868 1.499 1_554 S
C866 H846 0.950 . S
C866 C865 1.414 1_556 S
C866 C867 1.374 . S
C867 H847 0.950 . S
C867 C863 1.385 1_556 S
C867 C866 1.374 . S
C868 C865 1.499 1_556 S
C868 C869 1.373 . S
C868 C870 1.389 1_556 S
C869 H848 0.950 . S
C869 C868 1.373 . S
C869 C885 1.377 . S
C870 C868 1.389 1_554 S
C870 C871 1.524 . S
C870 C884 1.377 1_565 S
C871 C870 1.524 . S
C871 C872 1.397 . S
C871 C876 1.363 1_565 S
C872 H849 0.950 . S
C872 C871 1.397 . S
C872 C873 1.334 . S
C873 H850 0.950 . S
C873 C872 1.334 . S
C873 C874 1.287 . S
C874 C873 1.287 . S
C874 C875 1.524 1_565 S
C874 H893 0.913 . S
C875 H851 0.950 . S
C875 C874 1.524 1_545 S
C875 C876 1.415 . S
C876 H852 0.950 . S
C876 C871 1.363 1_545 S
C876 C875 1.415 . S
C877 H853 0.951 . S
C877 C878 1.366 . S
C877 C879 1.388 . S
C878 C877 1.366 . S
C878 C882 1.385 . S
C879 H854 0.951 . S
C879 C877 1.388 . S
C879 C880 1.366 . S
C880 C879 1.366 . S
C880 C881 1.414 . S
C880 C883 1.499 . S
C881 H855 0.950 1_556 S
C881 C880 1.414 . S
C881 C882 1.374 . S
C882 H856 0.950 . S
C882 C878 1.385 . S
C882 C881 1.374 . S
C883 C880 1.499 . S
C883 C884 1.373 1_556 S
C883 C885 1.389 1_545 S
C884 H857 0.950 . S
C884 C870 1.377 1_545 S
C884 C883 1.373 1_554 S
C885 C869 1.377 . S
C885 C883 1.389 1_565 S
C885 C886 1.524 . S
C886 C885 1.524 . S
C886 C887 1.399 . S
C886 C891 1.363 . S
C887 H858 0.947 1_565 S
C887 C886 1.399 . S
C887 C888 1.334 . S
C888 H859 0.950 1_565 S
C888 C887 1.334 . S
C888 C889 1.287 . S
C889 C888 1.287 . S
C889 C890 1.524 . S
C889 H892 0.999 . S
C890 H860 0.950 . S
C890 C889 1.524 . S
C890 C891 1.415 . S
C891 H861 0.950 . S
C891 C886 1.363 . S
C891 C890 1.415 . S
H892 C889 0.999 . S
H893 C874 0.913 . S
H894 C912 0.951 . S
H895 C914 0.951 . S
H896 C916 0.950 . S
H897 C917 0.950 . S
H898 C919 0.950 . S
H899 C922 0.950 . S
H900 C923 0.950 . S
H901 C925 0.950 . S
H902 C926 0.950 . S
H903 C927 0.951 . S
H904 C929 0.951 . S
H905 C931 0.950 . S
H906 C932 0.950 . S
H907 C934 0.950 . S
H908 C937 0.950 . S
H909 C938 0.950 . S
H910 C940 0.950 . S
H911 C941 0.950 . S
C912 H894 0.951 . S
C912 C913 1.366 . S
C912 C914 1.388 . S
C913 C912 1.366 . S
C913 C917 1.385 . S
C914 H895 0.951 . S
C914 C912 1.388 . S
C914 C915 1.366 . S
C915 C914 1.366 . S
C915 C916 1.414 . S
C915 C918 1.499 . S
C916 H896 0.950 . S
C916 C915 1.414 . S
C916 C917 1.374 . S
C917 H897 0.950 . S
C917 C913 1.385 . S
C917 C916 1.374 . S
C918 C915 1.499 . S
C918 C919 1.373 . S
C918 C920 1.389 . S
C919 H898 0.950 . S
C919 C918 1.373 . S
C919 C935 1.377 . S
C920 C918 1.389 . S
C920 C921 1.524 . S
C920 C934 1.377 . S
C921 C920 1.524 . S
C921 C922 1.397 . S
C921 C926 1.363 . S
C922 H899 0.950 . S
C922 C921 1.397 . S
C922 C923 1.334 . S
C923 H900 0.950 . S
C923 C922 1.334 . S
C923 C924 1.287 . S
C924 C923 1.287 . S
C924 C925 1.524 . S
C924 H943 0.913 . S
C925 H901 0.950 . S
C925 C924 1.524 . S
C925 C926 1.415 . S
C926 H902 0.950 . S
C926 C921 1.363 . S
C926 C925 1.415 . S
C927 H903 0.951 . S
C927 C928 1.366 . S
C927 C929 1.388 . S
C928 C927 1.366 . S
C928 C932 1.385 . S
C929 H904 0.951 . S
C929 C927 1.388 . S
C929 C930 1.366 . S
C930 C929 1.366 . S
C930 C931 1.414 . S
C930 C933 1.499 . S
C931 H905 0.950 . S
C931 C930 1.414 . S
C931 C932 1.374 . S
C932 H906 0.950 . S
C932 C928 1.385 . S
C932 C931 1.374 . S
C933 C930 1.499 . S
C933 C934 1.373 . S
C933 C935 1.389 . S
C934 H907 0.950 . S
C934 C920 1.377 . S
C934 C933 1.373 . S
C935 C919 1.377 . S
C935 C933 1.389 . S
C935 C936 1.524 . S
C936 C935 1.524 . S
C936 C937 1.397 . S
C936 C941 1.363 . S
C937 H908 0.950 . S
C937 C936 1.397 . S
C937 C938 1.334 . S
C938 H909 0.950 . S
C938 C937 1.334 . S
C938 C939 1.287 . S
C939 C938 1.287 . S
C939 C940 1.524 . S
C939 H942 0.999 . S
C940 H910 0.950 . S
C940 C939 1.524 . S
C940 C941 1.415 . S
C941 H911 0.950 . S
C941 C936 1.363 . S
C941 C940 1.415 . S
H942 C939 0.999 . S
H943 C924 0.913 . S
H944 C962 0.951 . S
H945 C964 0.951 . S
H946 C966 0.950 . S
H947 C967 0.950 . S
H948 C969 0.950 . S
H949 C972 0.950 . S
H950 C973 0.950 . S
H951 C975 0.950 . S
H952 C976 0.950 . S
H953 C977 0.951 . S
H954 C979 0.951 . S
H955 C981 0.950 . S
H956 C982 0.950 . S
H957 C984 0.950 . S
H958 C987 0.950 . S
H959 C988 0.950 . S
H960 C990 0.950 . S
H961 C991 0.950 . S
C962 H944 0.951 . S
C962 C963 1.366 . S
C962 C964 1.388 . S
C963 C962 1.366 . S
C963 C967 1.385 . S
C964 H945 0.951 . S
C964 C962 1.388 . S
C964 C965 1.366 . S
C965 C964 1.366 . S
C965 C966 1.414 . S
C965 C968 1.499 . S
C966 H946 0.950 . S
C966 C965 1.414 . S
C966 C967 1.374 . S
C967 H947 0.950 . S
C967 C963 1.385 . S
C967 C966 1.374 . S
C968 C965 1.499 . S
C968 C969 1.373 . S
C968 C970 1.389 . S
C969 H948 0.950 . S
C969 C968 1.373 . S
C969 C985 1.377 . S
C970 C968 1.389 . S
C970 C971 1.524 . S
C970 C984 1.377 . S
C971 C970 1.524 . S
C971 C972 1.397 . S
C971 C976 1.363 . S
C972 H949 0.950 . S
C972 C971 1.397 . S
C972 C973 1.334 . S
C973 H950 0.950 . S
C973 C972 1.334 . S
C973 C974 1.287 . S
C974 C973 1.287 . S
C974 C975 1.524 . S
C974 H993 0.913 . S
C975 H951 0.950 . S
C975 C974 1.524 . S
C975 C976 1.415 . S
C976 H952 0.950 . S
C976 C971 1.363 . S
C976 C975 1.415 . S
C977 H953 0.951 . S
C977 C978 1.366 . S
C977 C979 1.388 . S
C978 C977 1.366 . S
C978 C982 1.385 . S
C979 H954 0.951 . S
C979 C977 1.388 . S
C979 C980 1.366 . S
C980 C979 1.366 . S
C980 C981 1.414 . S
C980 C983 1.499 . S
C981 H955 0.950 . S
C981 C980 1.414 . S
C981 C982 1.374 . S
C982 H956 0.950 . S
C982 C978 1.385 . S
C982 C981 1.374 . S
C983 C980 1.499 . S
C983 C984 1.373 . S
C983 C985 1.389 . S
C984 H957 0.950 . S
C984 C970 1.377 . S
C984 C983 1.373 . S
C985 C969 1.377 . S
C985 C983 1.389 . S
C985 C986 1.524 . S
C986 C985 1.524 . S
C986 C987 1.397 . S
C986 C991 1.363 . S
C987 H958 0.950 . S
C987 C986 1.397 . S
C987 C988 1.334 . S
C988 H959 0.950 . S
C988 C987 1.334 . S
C988 C989 1.287 . S
C989 C988 1.287 . S
C989 C990 1.524 . S
C989 H992 0.999 . S
C990 H960 0.950 . S
C990 C989 1.524 . S
C990 C991 1.415 . S
C991 H961 0.950 . S
C991 C986 1.363 . S
C991 C990 1.415 . S
H992 C989 0.999 . S
H993 C974 0.913 . S
H994 C1012 0.951 . S
H995 C1014 0.951 . S
H996 C1016 0.950 . S
H997 C1017 0.950 . S
H998 C1019 0.950 . S
H999 C1022 0.950 . S
H1000 C1023 0.950 . S
H1001 C1025 0.950 . S
H1002 C1026 0.950 . S
H1003 C1027 0.951 . S
H1004 C1029 0.951 . S
H1005 C1031 0.950 . S
H1006 C1032 0.950 . S
H1007 C1034 0.950 . S
H1008 C1037 0.950 . S
H1009 C1038 0.950 . S
H1010 C1040 0.950 . S
H1011 C1041 0.950 . S
C1012 H994 0.951 . S
C1012 C1013 1.366 . S
C1012 C1014 1.388 . S
C1013 C1012 1.366 . S
C1013 C1017 1.385 . S
C1014 H995 0.951 . S
C1014 C1012 1.388 . S
C1014 C1015 1.366 . S
C1015 C1014 1.366 . S
C1015 C1016 1.414 . S
C1015 C1018 1.499 1_455 S
C1016 H996 0.950 . S
C1016 C1015 1.414 . S
C1016 C1017 1.374 . S
C1017 H997 0.950 . S
C1017 C1013 1.385 . S
C1017 C1016 1.374 . S
C1018 C1015 1.499 1_655 S
C1018 C1019 1.373 . S
C1018 C1020 1.389 . S
C1019 H998 0.950 . S
C1019 C1018 1.373 . S
C1019 C1035 1.377 . S
C1020 C1018 1.389 . S
C1020 C1021 1.524 . S
C1020 C1034 1.377 . S
C1021 C1020 1.524 . S
C1021 C1022 1.397 1_655 S
C1021 C1026 1.363 . S
C1022 H999 0.950 . S
C1022 C1021 1.397 1_455 S
C1022 C1023 1.334 . S
C1023 H1000 0.950 . S
C1023 C1022 1.334 . S
C1023 C1024 1.287 . S
C1024 C1023 1.287 . S
C1024 C1025 1.524 . S
C1024 H1043 0.913 . S
C1025 H1001 0.950 . S
C1025 C1024 1.524 . S
C1025 C1026 1.415 1_455 S
C1026 H1002 0.950 . S
C1026 C1021 1.363 . S
C1026 C1025 1.415 1_655 S
C1027 H1003 0.951 . S
C1027 C1028 1.366 . S
C1027 C1029 1.388 . S
C1028 C1027 1.366 . S
C1028 C1032 1.385 . S
C1029 H1004 0.951 . S
C1029 C1027 1.388 . S
C1029 C1030 1.366 . S
C1030 C1029 1.366 . S
C1030 C1031 1.414 . S
C1030 C1033 1.499 . S
C1031 H1005 0.950 . S
C1031 C1030 1.414 . S
C1031 C1032 1.374 . S
C1032 H1006 0.950 . S
C1032 C1028 1.385 . S
C1032 C1031 1.374 . S
C1033 C1030 1.499 . S
C1033 C1034 1.373 . S
C1033 C1035 1.389 . S
C1034 H1007 0.950 . S
C1034 C1020 1.377 . S
C1034 C1033 1.373 . S
C1035 C1019 1.377 . S
C1035 C1033 1.389 . S
C1035 C1036 1.524 . S
C1036 C1035 1.524 . S
C1036 C1037 1.397 . S
C1036 C1041 1.363 . S
C1037 H1008 0.950 . S
C1037 C1036 1.397 . S
C1037 C1038 1.334 . S
C1038 H1009 0.950 . S
C1038 C1037 1.334 . S
C1038 C1039 1.287 . S
C1039 C1038 1.287 . S
C1039 C1040 1.524 . S
C1039 H1042 0.999 . S
C1040 H1010 0.950 . S
C1040 C1039 1.524 . S
C1040 C1041 1.415 . S
C1041 H1011 0.950 . S
C1041 C1036 1.363 . S
C1041 C1040 1.415 . S
H1042 C1039 0.999 . S
H1043 C1024 0.913 . S
H1044 C1062 0.951 . S
H1045 C1064 0.951 . S
H1046 C1066 0.950 . S
H1047 C1067 0.950 . S
H1048 C1069 0.950 . S
H1049 C1072 0.950 . S
H1050 C1073 0.950 . S
H1051 C1075 0.950 . S
H1052 C1076 0.950 . S
H1053 C1077 0.951 . S
H1054 C1079 0.951 . S
H1055 C1081 0.950 . S
H1056 C1082 0.950 . S
H1057 C1084 0.950 . S
H1058 C1087 0.950 . S
H1059 C1088 0.950 . S
H1060 C1090 0.950 . S
H1061 C1091 0.950 . S
C1062 H1044 0.951 . S
C1062 C1063 1.366 . S
C1062 C1064 1.388 . S
C1063 C1062 1.366 . S
C1063 C1067 1.385 . S
C1064 H1045 0.951 . S
C1064 C1062 1.388 . S
C1064 C1065 1.366 . S
C1065 C1064 1.366 . S
C1065 C1066 1.414 . S
C1065 C1068 1.499 . S
C1066 H1046 0.950 . S
C1066 C1065 1.414 . S
C1066 C1067 1.374 . S
C1067 H1047 0.950 . S
C1067 C1063 1.385 . S
C1067 C1066 1.374 . S
C1068 C1065 1.499 . S
C1068 C1069 1.373 . S
C1068 C1070 1.389 . S
C1069 H1048 0.950 . S
C1069 C1068 1.373 . S
C1069 C1085 1.377 . S
C1070 C1068 1.389 . S
C1070 C1071 1.524 . S
C1070 C1084 1.377 . S
C1071 C1070 1.524 . S
C1071 C1072 1.397 . S
C1071 C1076 1.363 . S
C1072 H1049 0.950 . S
C1072 C1071 1.397 . S
C1072 C1073 1.334 . S
C1073 H1050 0.950 . S
C1073 C1072 1.334 . S
C1073 C1074 1.287 . S
C1074 C1073 1.287 . S
C1074 C1075 1.524 . S
C1074 H1093 0.913 . S
C1075 H1051 0.950 . S
C1075 C1074 1.524 . S
C1075 C1076 1.415 . S
C1076 H1052 0.950 . S
C1076 C1071 1.363 . S
C1076 C1075 1.415 . S
C1077 H1053 0.951 . S
C1077 C1078 1.366 . S
C1077 C1079 1.388 . S
C1078 C1077 1.366 . S
C1078 C1082 1.385 . S
C1079 H1054 0.951 . S
C1079 C1077 1.388 . S
C1079 C1080 1.366 . S
C1080 C1079 1.366 . S
C1080 C1081 1.414 . S
C1080 C1083 1.499 . S
C1081 H1055 0.950 . S
C1081 C1080 1.414 . S
C1081 C1082 1.374 . S
C1082 H1056 0.950 . S
C1082 C1078 1.385 . S
C1082 C1081 1.374 . S
C1083 C1080 1.499 . S
C1083 C1084 1.373 . S
C1083 C1085 1.389 . S
C1084 H1057 0.950 . S
C1084 C1070 1.377 . S
C1084 C1083 1.373 . S
C1085 C1069 1.377 . S
C1085 C1083 1.389 . S
C1085 C1086 1.524 . S
C1086 C1085 1.524 . S
C1086 C1087 1.397 . S
C1086 C1091 1.363 . S
C1087 H1058 0.950 . S
C1087 C1086 1.397 . S
C1087 C1088 1.334 . S
C1088 H1059 0.950 . S
C1088 C1087 1.334 . S
C1088 C1089 1.287 . S
C1089 C1088 1.287 . S
C1089 C1090 1.524 . S
C1089 H1092 0.999 . S
C1090 H1060 0.950 . S
C1090 C1089 1.524 . S
C1090 C1091 1.415 . S
C1091 H1061 0.950 . S
C1091 C1086 1.363 . S
C1091 C1090 1.415 . S
H1092 C1089 0.999 . S
H1093 C1074 0.913 . S
H1094 C1112 0.951 . S
H1095 C1114 0.951 . S
H1096 C1116 0.950 . S
H1097 C1117 0.950 . S
H1098 C1119 0.950 . S
H1099 C1122 0.950 . S
H1100 C1123 0.950 . S
H1101 C1125 0.950 . S
H1102 C1126 0.950 . S
H1103 C1127 0.951 . S
H1104 C1129 0.951 . S
H1105 C1131 0.946 1_455 S
H1106 C1132 0.950 . S
H1107 C1134 0.950 . S
H1108 C1137 0.950 . S
H1109 C1138 0.950 1_455 S
H1110 C1140 0.950 . S
H1111 C1141 0.950 . S
C1112 H1094 0.951 . S
C1112 C1113 1.366 . S
C1112 C1114 1.388 . S
C1113 C1112 1.366 . S
C1113 C1117 1.385 . S
C1114 H1095 0.951 . S
C1114 C1112 1.388 . S
C1114 C1115 1.366 . S
C1115 C1114 1.366 . S
C1115 C1116 1.414 . S
C1115 C1118 1.499 . S
C1116 H1096 0.950 . S
C1116 C1115 1.414 . S
C1116 C1117 1.374 . S
C1117 H1097 0.950 . S
C1117 C1113 1.385 . S
C1117 C1116 1.374 . S
C1118 C1115 1.499 . S
C1118 C1119 1.373 . S
C1118 C1120 1.389 . S
C1119 H1098 0.950 . S
C1119 C1118 1.373 . S
C1119 C1135 1.377 . S
C1120 C1118 1.389 . S
C1120 C1121 1.524 . S
C1120 C1134 1.377 . S
C1121 C1120 1.524 . S
C1121 C1122 1.397 . S
C1121 C1126 1.363 . S
C1122 H1099 0.950 . S
C1122 C1121 1.397 . S
C1122 C1123 1.334 . S
C1123 H1100 0.950 . S
C1123 C1122 1.334 . S
C1123 C1124 1.287 . S
C1124 C1123 1.287 . S
C1124 C1125 1.524 . S
C1124 H1143 0.913 . S
C1125 H1101 0.950 . S
C1125 C1124 1.524 . S
C1125 C1126 1.415 . S
C1126 H1102 0.950 . S
C1126 C1121 1.363 . S
C1126 C1125 1.415 . S
C1127 H1103 0.951 . S
C1127 C1128 1.389 . S
C1127 C1129 1.388 . S
C1128 C1127 1.389 . S
C1128 C1132 1.376 1_655 S
C1129 H1104 0.951 . S
C1129 C1127 1.388 . S
C1129 C1130 1.366 . S
C1130 C1129 1.366 . S
C1130 C1131 1.414 . S
C1130 C1133 1.499 . S
C1131 H1105 0.946 1_655 S
C1131 C1130 1.414 . S
C1131 C1132 1.374 1_655 S
C1132 H1106 0.950 . S
C1132 C1128 1.376 1_455 S
C1132 C1131 1.374 1_455 S
C1133 C1130 1.499 . S
C1133 C1134 1.373 . S
C1133 C1135 1.389 . S
C1134 H1107 0.950 . S
C1134 C1120 1.377 . S
C1134 C1133 1.373 . S
C1135 C1119 1.377 . S
C1135 C1133 1.389 . S
C1135 C1136 1.524 . S
C1136 C1135 1.524 . S
C1136 C1137 1.397 . S
C1136 C1141 1.363 . S
C1137 H1108 0.950 . S
C1137 C1136 1.397 . S
C1137 C1138 1.334 . S
C1138 H1109 0.950 1_655 S
C1138 C1137 1.334 . S
C1138 C1139 1.287 . S
C1139 C1138 1.287 . S
C1139 C1140 1.524 . S
C1139 H1142 0.999 . S
C1140 H1110 0.950 . S
C1140 C1139 1.524 . S
C1140 C1141 1.415 . S
C1141 H1111 0.950 . S
C1141 C1136 1.363 . S
C1141 C1140 1.415 . S
H1142 C1139 0.999 . S
H1143 C1124 0.913 . S
H1144 C1162 0.951 . S
H1145 C1164 0.951 . S
H1146 C1166 0.950 . S
H1147 C1167 0.950 . S
H1148 C1169 0.950 . S
H1149 C1172 0.950 . S
H1150 C1173 0.950 . S
H1151 C1175 0.950 . S
H1152 C1176 0.950 . S
H1153 C1177 0.951 . S
H1154 C1179 0.951 . S
H1155 C1181 0.950 . S
H1156 C1182 0.950 . S
H1157 C1184 0.950 . S
H1158 C1187 0.950 . S
H1159 C1188 0.950 . S
H1160 C1190 0.950 . S
H1161 C1191 0.950 . S
C1162 H1144 0.951 . S
C1162 C1163 1.366 . S
C1162 C1164 1.388 . S
C1163 C1162 1.366 . S
C1163 C1167 1.385 . S
C1164 H1145 0.951 . S
C1164 C1162 1.388 . S
C1164 C1165 1.366 . S
C1165 C1164 1.366 . S
C1165 C1166 1.414 . S
C1165 C1168 1.499 . S
C1166 H1146 0.950 . S
C1166 C1165 1.414 . S
C1166 C1167 1.374 . S
C1167 H1147 0.950 . S
C1167 C1163 1.385 . S
C1167 C1166 1.374 . S
C1168 C1165 1.499 . S
C1168 C1169 1.373 . S
C1168 C1170 1.389 . S
C1169 H1148 0.950 . S
C1169 C1168 1.373 . S
C1169 C1185 1.377 . S
C1170 C1168 1.389 . S
C1170 C1171 1.524 . S
C1170 C1184 1.377 . S
C1171 C1170 1.524 . S
C1171 C1172 1.397 . S
C1171 C1176 1.363 . S
C1172 H1149 0.950 . S
C1172 C1171 1.397 . S
C1172 C1173 1.334 . S
C1173 H1150 0.950 . S
C1173 C1172 1.334 . S
C1173 C1174 1.287 . S
C1174 C1173 1.287 . S
C1174 C1175 1.524 . S
C1174 H1193 0.913 . S
C1175 H1151 0.950 . S
C1175 C1174 1.524 . S
C1175 C1176 1.415 . S
C1176 H1152 0.950 . S
C1176 C1171 1.363 . S
C1176 C1175 1.415 . S
C1177 H1153 0.951 . S
C1177 C1178 1.366 . S
C1177 C1179 1.388 . S
C1178 C1177 1.366 . S
C1178 C1182 1.385 . S
C1179 H1154 0.951 . S
C1179 C1177 1.388 . S
C1179 C1180 1.366 . S
C1180 C1179 1.366 . S
C1180 C1181 1.414 . S
C1180 C1183 1.499 . S
C1181 H1155 0.950 . S
C1181 C1180 1.414 . S
C1181 C1182 1.374 . S
C1182 H1156 0.950 . S
C1182 C1178 1.385 . S
C1182 C1181 1.374 . S
C1183 C1180 1.499 . S
C1183 C1184 1.373 . S
C1183 C1185 1.389 . S
C1184 H1157 0.950 . S
C1184 C1170 1.377 . S
C1184 C1183 1.373 . S
C1185 C1169 1.377 . S
C1185 C1183 1.389 . S
C1185 C1186 1.524 . S
C1186 C1185 1.524 . S
C1186 C1187 1.397 . S
C1186 C1191 1.363 . S
C1187 H1158 0.950 . S
C1187 C1186 1.397 . S
C1187 C1188 1.334 . S
C1188 H1159 0.950 . S
C1188 C1187 1.334 . S
C1188 C1189 1.287 . S
C1189 C1188 1.287 . S
C1189 C1190 1.524 . S
C1189 H1192 0.999 . S
C1190 H1160 0.950 . S
C1190 C1189 1.524 . S
C1190 C1191 1.415 . S
C1191 H1161 0.950 . S
C1191 C1186 1.363 . S
C1191 C1190 1.415 . S
H1192 C1189 0.999 . S
H1193 C1174 0.913 . S
H1194 C1212 0.951 . S
H1195 C1214 0.951 . S
H1196 C1216 0.950 . S
H1197 C1217 0.950 . S
H1198 C1219 0.950 . S
H1199 C1222 0.950 . S
H1200 C1223 0.950 . S
H1201 C1225 0.950 . S
H1202 C1226 0.950 . S
H1203 C1227 0.951 . S
H1204 C1229 0.951 . S
H1205 C1231 0.950 . S
H1206 C1232 0.950 . S
H1207 C1234 0.950 . S
H1208 C1237 0.950 . S
H1209 C1238 0.950 . S
H1210 C1240 0.950 . S
H1211 C1241 0.950 . S
C1212 H1194 0.951 . S
C1212 C1213 1.366 . S
C1212 C1214 1.388 . S
C1213 C1212 1.366 . S
C1213 C1217 1.385 . S
C1214 H1195 0.951 . S
C1214 C1212 1.388 . S
C1214 C1215 1.366 . S
C1215 C1214 1.366 . S
C1215 C1216 1.414 . S
C1215 C1218 1.499 . S
C1216 H1196 0.950 . S
C1216 C1215 1.414 . S
C1216 C1217 1.374 . S
C1217 H1197 0.950 . S
C1217 C1213 1.385 . S
C1217 C1216 1.374 . S
C1218 C1215 1.499 . S
C1218 C1219 1.373 . S
C1218 C1220 1.389 . S
C1219 H1198 0.950 . S
C1219 C1218 1.373 . S
C1219 C1235 1.377 . S
C1220 C1218 1.389 . S
C1220 C1221 1.524 . S
C1220 C1234 1.377 . S
C1221 C1220 1.524 . S
C1221 C1222 1.397 . S
C1221 C1226 1.363 . S
C1222 H1199 0.950 . S
C1222 C1221 1.397 . S
C1222 C1223 1.334 . S
C1223 H1200 0.950 . S
C1223 C1222 1.334 . S
C1223 C1224 1.287 . S
C1224 C1223 1.287 . S
C1224 C1225 1.524 . S
C1224 H1243 0.913 . S
C1225 H1201 0.950 . S
C1225 C1224 1.524 . S
C1225 C1226 1.415 . S
C1226 H1202 0.950 . S
C1226 C1221 1.363 . S
C1226 C1225 1.415 . S
C1227 H1203 0.951 . S
C1227 C1228 1.366 . S
C1227 C1229 1.388 . S
C1228 C1227 1.366 . S
C1228 C1232 1.385 . S
C1229 H1204 0.951 . S
C1229 C1227 1.388 . S
C1229 C1230 1.366 . S
C1230 C1229 1.366 . S
C1230 C1231 1.414 . S
C1230 C1233 1.499 . S
C1231 H1205 0.950 . S
C1231 C1230 1.414 . S
C1231 C1232 1.374 . S
C1232 H1206 0.950 . S
C1232 C1228 1.385 . S
C1232 C1231 1.374 . S
C1233 C1230 1.499 . S
C1233 C1234 1.373 . S
C1233 C1235 1.389 . S
C1234 H1207 0.950 . S
C1234 C1220 1.377 . S
C1234 C1233 1.373 . S
C1235 C1219 1.377 . S
C1235 C1233 1.389 . S
C1235 C1236 1.524 . S
C1236 C1235 1.524 . S
C1236 C1237 1.397 . S
C1236 C1241 1.363 . S
C1237 H1208 0.950 . S
C1237 C1236 1.397 . S
C1237 C1238 1.334 . S
C1238 H1209 0.950 . S
C1238 C1237 1.334 . S
C1238 C1239 1.287 . S
C1239 C1238 1.287 . S
C1239 C1240 1.524 . S
C1239 H1242 0.999 . S
C1240 H1210 0.950 . S
C1240 C1239 1.524 . S
C1240 C1241 1.415 . S
C1241 H1211 0.950 . S
C1241 C1236 1.363 . S
C1241 C1240 1.415 . S
H1242 C1239 0.999 . S
H1243 C1224 0.913 . S
H1244 C1262 0.951 . S
H1245 C1264 0.951 . S
H1246 C1266 0.950 . S
H1247 C1267 0.950 . S
H1248 C1269 0.950 . S
H1249 C1272 0.950 . S
H1250 C1273 0.950 . S
H1251 C1275 0.950 . S
H1252 C1276 0.950 . S
H1253 C1277 0.951 . S
H1254 C1279 0.951 . S
H1255 C1281 0.950 . S
H1256 C1282 0.950 . S
H1257 C1284 0.950 . S
H1258 C1287 0.950 . S
H1259 C1288 0.950 . S
H1260 C1290 0.950 . S
H1261 C1291 0.950 . S
C1262 H1244 0.951 . S
C1262 C1263 1.366 . S
C1262 C1264 1.388 . S
C1263 C1262 1.366 . S
C1263 C1267 1.385 . S
C1264 H1245 0.951 . S
C1264 C1262 1.388 . S
C1264 C1265 1.366 . S
C1265 C1264 1.366 . S
C1265 C1266 1.414 . S
C1265 C1268 1.499 . S
C1266 H1246 0.950 . S
C1266 C1265 1.414 . S
C1266 C1267 1.374 . S
C1267 H1247 0.950 . S
C1267 C1263 1.385 . S
C1267 C1266 1.374 . S
C1268 C1265 1.499 . S
C1268 C1269 1.373 . S
C1268 C1270 1.389 . S
C1269 H1248 0.950 . S
C1269 C1268 1.373 . S
C1269 C1285 1.377 . S
C1270 C1268 1.389 . S
C1270 C1271 1.524 . S
C1270 C1284 1.377 . S
C1271 C1270 1.524 . S
C1271 C1272 1.397 . S
C1271 C1276 1.363 . S
C1272 H1249 0.950 . S
C1272 C1271 1.397 . S
C1272 C1273 1.334 . S
C1273 H1250 0.950 . S
C1273 C1272 1.334 . S
C1273 C1274 1.287 . S
C1274 C1273 1.287 . S
C1274 C1275 1.524 . S
C1274 H1293 0.913 . S
C1275 H1251 0.950 . S
C1275 C1274 1.524 . S
C1275 C1276 1.415 . S
C1276 H1252 0.950 . S
C1276 C1271 1.363 . S
C1276 C1275 1.415 . S
C1277 H1253 0.951 . S
C1277 C1278 1.366 . S
C1277 C1279 1.388 . S
C1278 C1277 1.366 . S
C1278 C1282 1.385 . S
C1279 H1254 0.951 . S
C1279 C1277 1.388 . S
C1279 C1280 1.366 . S
C1280 C1279 1.366 . S
C1280 C1281 1.414 . S
C1280 C1283 1.499 . S
C1281 H1255 0.950 . S
C1281 C1280 1.414 . S
C1281 C1282 1.374 . S
C1282 H1256 0.950 . S
C1282 C1278 1.385 . S
C1282 C1281 1.374 . S
C1283 C1280 1.499 . S
C1283 C1284 1.373 . S
C1283 C1285 1.389 . S
C1284 H1257 0.950 . S
C1284 C1270 1.377 . S
C1284 C1283 1.373 . S
C1285 C1269 1.377 . S
C1285 C1283 1.389 . S
C1285 C1286 1.524 . S
C1286 C1285 1.524 . S
C1286 C1287 1.397 . S
C1286 C1291 1.363 . S
C1287 H1258 0.950 . S
C1287 C1286 1.397 . S
C1287 C1288 1.334 . S
C1288 H1259 0.950 . S
C1288 C1287 1.334 . S
C1288 C1289 1.287 . S
C1289 C1288 1.287 . S
C1289 C1290 1.524 . S
C1289 H1292 0.999 . S
C1290 H1260 0.950 . S
C1290 C1289 1.524 . S
C1290 C1291 1.415 . S
C1291 H1261 0.950 . S
C1291 C1286 1.363 . S
C1291 C1290 1.415 . S
H1292 C1289 0.999 . S
H1293 C1274 0.913 . S
H1294 C1312 0.951 . S
H1295 C1314 0.951 . S
H1296 C1316 0.950 . S
H1297 C1317 0.950 . S
H1298 C1319 0.950 . S
H1299 C1322 0.950 . S
H1300 C1323 0.950 . S
H1301 C1325 0.950 . S
H1302 C1326 0.950 . S
H1303 C1327 0.951 . S
H1304 C1329 0.951 . S
H1305 C1331 0.950 . S
H1306 C1332 0.950 . S
H1307 C1334 0.950 . S
H1308 C1337 0.950 . S
H1309 C1338 0.950 . S
H1310 C1340 0.950 . S
H1311 C1341 0.950 . S
C1312 H1294 0.951 . S
C1312 C1313 1.366 . S
C1312 C1314 1.388 . S
C1313 C1312 1.366 . S
C1313 C1317 1.385 . S
C1314 H1295 0.951 . S
C1314 C1312 1.388 . S
C1314 C1315 1.366 . S
C1315 C1314 1.366 . S
C1315 C1316 1.414 . S
C1315 C1318 1.499 . S
C1316 H1296 0.950 . S
C1316 C1315 1.414 . S
C1316 C1317 1.374 . S
C1317 H1297 0.950 . S
C1317 C1313 1.385 . S
C1317 C1316 1.374 . S
C1318 C1315 1.499 . S
C1318 C1319 1.373 . S
C1318 C1320 1.389 . S
C1319 H1298 0.950 . S
C1319 C1318 1.373 . S
C1319 C1335 1.377 . S
C1320 C1318 1.389 . S
C1320 C1321 1.524 . S
C1320 C1334 1.377 . S
C1321 C1320 1.524 . S
C1321 C1322 1.397 . S
C1321 C1326 1.363 . S
C1322 H1299 0.950 . S
C1322 C1321 1.397 . S
C1322 C1323 1.334 . S
C1323 H1300 0.950 . S
C1323 C1322 1.334 . S
C1323 C1324 1.287 . S
C1324 C1323 1.287 . S
C1324 C1325 1.524 . S
C1324 H1343 0.913 . S
C1325 H1301 0.950 . S
C1325 C1324 1.524 . S
C1325 C1326 1.415 . S
C1326 H1302 0.950 . S
C1326 C1321 1.363 . S
C1326 C1325 1.415 . S
C1327 H1303 0.951 . S
C1327 C1328 1.366 . S
C1327 C1329 1.388 . S
C1328 C1327 1.366 . S
C1328 C1332 1.385 . S
C1329 H1304 0.951 . S
C1329 C1327 1.388 . S
C1329 C1330 1.366 . S
C1330 C1329 1.366 . S
C1330 C1331 1.414 . S
C1330 C1333 1.499 . S
C1331 H1305 0.950 . S
C1331 C1330 1.414 . S
C1331 C1332 1.374 . S
C1332 H1306 0.950 . S
C1332 C1328 1.385 . S
C1332 C1331 1.374 . S
C1333 C1330 1.499 . S
C1333 C1334 1.373 . S
C1333 C1335 1.389 . S
C1334 H1307 0.950 . S
C1334 C1320 1.377 . S
C1334 C1333 1.373 . S
C1335 C1319 1.377 . S
C1335 C1333 1.389 . S
C1335 C1336 1.524 . S
C1336 C1335 1.524 . S
C1336 C1337 1.397 . S
C1336 C1341 1.363 . S
C1337 H1308 0.950 . S
C1337 C1336 1.397 . S
C1337 C1338 1.334 . S
C1338 H1309 0.950 . S
C1338 C1337 1.334 . S
C1338 C1339 1.287 . S
C1339 C1338 1.287 . S
C1339 C1340 1.524 . S
C1339 H1342 0.999 . S
C1340 H1310 0.950 . S
C1340 C1339 1.524 . S
C1340 C1341 1.415 . S
C1341 H1311 0.950 . S
C1341 C1336 1.363 . S
C1341 C1340 1.415 . S
H1342 C1339 0.999 . S
H1343 C1324 0.913 . S
H1344 C1362 0.951 . S
H1345 C1364 0.951 . S
H1346 C1366 0.950 . S
H1347 C1367 0.950 . S
H1348 C1369 0.950 . S
H1349 C1372 0.950 . S
H1350 C1373 0.950 . S
H1351 C1375 0.950 . S
H1352 C1376 0.950 . S
H1353 C1377 0.951 . S
H1354 C1379 0.951 . S
H1355 C1381 0.950 . S
H1356 C1382 0.950 . S
H1357 C1384 0.950 . S
H1358 C1387 0.950 . S
H1359 C1388 0.950 . S
H1360 C1390 0.950 . S
H1361 C1391 0.950 . S
C1362 H1344 0.951 . S
C1362 C1363 1.366 . S
C1362 C1364 1.388 . S
C1363 C1362 1.366 . S
C1363 C1367 1.385 . S
C1364 H1345 0.951 . S
C1364 C1362 1.388 . S
C1364 C1365 1.366 . S
C1365 C1364 1.366 . S
C1365 C1366 1.414 . S
C1365 C1368 1.499 . S
C1366 H1346 0.950 . S
C1366 C1365 1.414 . S
C1366 C1367 1.374 . S
C1367 H1347 0.950 . S
C1367 C1363 1.385 . S
C1367 C1366 1.374 . S
C1368 C1365 1.499 . S
C1368 C1369 1.373 . S
C1368 C1370 1.389 . S
C1369 H1348 0.950 . S
C1369 C1368 1.373 . S
C1369 C1385 1.377 . S
C1370 C1368 1.389 . S
C1370 C1371 1.524 . S
C1370 C1384 1.377 . S
C1371 C1370 1.524 . S
C1371 C1372 1.397 . S
C1371 C1376 1.363 . S
C1372 H1349 0.950 . S
C1372 C1371 1.397 . S
C1372 C1373 1.334 . S
C1373 H1350 0.950 . S
C1373 C1372 1.334 . S
C1373 C1374 1.287 . S
C1374 C1373 1.287 . S
C1374 C1375 1.524 . S
C1374 H1393 0.913 . S
C1375 H1351 0.950 . S
C1375 C1374 1.524 . S
C1375 C1376 1.415 . S
C1376 H1352 0.950 . S
C1376 C1371 1.363 . S
C1376 C1375 1.415 . S
C1377 H1353 0.951 . S
C1377 C1378 1.366 . S
C1377 C1379 1.388 . S
C1378 C1377 1.366 . S
C1378 C1382 1.385 . S
C1379 H1354 0.951 . S
C1379 C1377 1.388 . S
C1379 C1380 1.366 . S
C1380 C1379 1.366 . S
C1380 C1381 1.414 . S
C1380 C1383 1.499 . S
C1381 H1355 0.950 . S
C1381 C1380 1.414 . S
C1381 C1382 1.374 . S
C1382 H1356 0.950 . S
C1382 C1378 1.385 . S
C1382 C1381 1.374 . S
C1383 C1380 1.499 . S
C1383 C1384 1.373 . S
C1383 C1385 1.389 . S
C1384 H1357 0.950 . S
C1384 C1370 1.377 . S
C1384 C1383 1.373 . S
C1385 C1369 1.377 . S
C1385 C1383 1.389 . S
C1385 C1386 1.524 . S
C1386 C1385 1.524 . S
C1386 C1387 1.397 . S
C1386 C1391 1.363 . S
C1387 H1358 0.950 . S
C1387 C1386 1.397 . S
C1387 C1388 1.334 . S
C1388 H1359 0.950 . S
C1388 C1387 1.334 . S
C1388 C1389 1.287 . S
C1389 C1388 1.287 . S
C1389 C1390 1.524 . S
C1389 H1392 0.999 . S
C1390 H1360 0.950 . S
C1390 C1389 1.524 . S
C1390 C1391 1.415 . S
C1391 H1361 0.950 . S
C1391 C1386 1.363 . S
C1391 C1390 1.415 . S
H1392 C1389 0.999 . S
H1393 C1374 0.913 . S
H1394 C1412 0.951 . S
H1395 C1414 0.951 . S
H1396 C1416 0.950 . S
H1397 C1417 0.950 . S
H1398 C1419 0.950 . S
H1399 C1422 0.950 . S
H1400 C1423 0.950 . S
H1401 C1425 0.950 . S
H1402 C1426 0.950 . S
H1403 C1427 0.951 . S
H1404 C1429 0.951 . S
H1405 C1431 0.950 . S
H1406 C1432 0.950 . S
H1407 C1434 0.950 . S
H1408 C1437 0.950 . S
H1409 C1438 0.950 . S
H1410 C1440 0.950 . S
H1411 C1441 0.950 . S
C1412 H1394 0.951 . S
C1412 C1413 1.366 . S
C1412 C1414 1.388 . S
C1413 C1412 1.366 . S
C1413 C1417 1.385 . S
C1414 H1395 0.951 . S
C1414 C1412 1.388 . S
C1414 C1415 1.366 . S
C1415 C1414 1.366 . S
C1415 C1416 1.414 . S
C1415 C1418 1.499 . S
C1416 H1396 0.950 . S
C1416 C1415 1.414 . S
C1416 C1417 1.374 . S
C1417 H1397 0.950 . S
C1417 C1413 1.385 . S
C1417 C1416 1.374 . S
C1418 C1415 1.499 . S
C1418 C1419 1.373 . S
C1418 C1420 1.389 . S
C1419 H1398 0.950 . S
C1419 C1418 1.373 . S
C1419 C1435 1.377 . S
C1420 C1418 1.389 . S
C1420 C1421 1.524 . S
C1420 C1434 1.377 . S
C1421 C1420 1.524 . S
C1421 C1422 1.397 . S
C1421 C1426 1.363 . S
C1422 H1399 0.950 . S
C1422 C1421 1.397 . S
C1422 C1423 1.334 . S
C1423 H1400 0.950 . S
C1423 C1422 1.334 . S
C1423 C1424 1.287 . S
C1424 C1423 1.287 . S
C1424 C1425 1.524 . S
C1424 H1443 0.913 . S
C1425 H1401 0.950 . S
C1425 C1424 1.524 . S
C1425 C1426 1.415 . S
C1426 H1402 0.950 . S
C1426 C1421 1.363 . S
C1426 C1425 1.415 . S
C1427 H1403 0.951 . S
C1427 C1428 1.366 . S
C1427 C1429 1.388 . S
C1428 C1427 1.366 . S
C1428 C1432 1.385 . S
C1429 H1404 0.951 . S
C1429 C1427 1.388 . S
C1429 C1430 1.366 . S
C1430 C1429 1.366 . S
C1430 C1431 1.414 . S
C1430 C1433 1.499 . S
C1431 H1405 0.950 . S
C1431 C1430 1.414 . S
C1431 C1432 1.374 . S
C1432 H1406 0.950 . S
C1432 C1428 1.385 . S
C1432 C1431 1.374 . S
C1433 C1430 1.499 . S
C1433 C1434 1.373 . S
C1433 C1435 1.389 . S
C1434 H1407 0.950 . S
C1434 C1420 1.377 . S
C1434 C1433 1.373 . S
C1435 C1419 1.377 . S
C1435 C1433 1.389 . S
C1435 C1436 1.524 . S
C1436 C1435 1.524 . S
C1436 C1437 1.397 . S
C1436 C1441 1.363 . S
C1437 H1408 0.950 . S
C1437 C1436 1.397 . S
C1437 C1438 1.334 . S
C1438 H1409 0.950 . S
C1438 C1437 1.334 . S
C1438 C1439 1.287 . S
C1439 C1438 1.287 . S
C1439 C1440 1.524 . S
C1439 H1442 0.999 . S
C1440 H1410 0.950 . S
C1440 C1439 1.524 . S
C1440 C1441 1.415 . S
C1441 H1411 0.950 . S
C1441 C1436 1.363 . S
C1441 C1440 1.415 . S
H1442 C1439 0.999 . S
H1443 C1424 0.913 . S
H1444 C1462 0.951 . S
H1445 C1464 0.951 . S
H1446 C1466 0.950 . S
H1447 C1467 0.950 . S
H1448 C1469 0.950 . S
H1449 C1472 0.950 . S
H1450 C1473 0.950 . S
H1451 C1475 0.950 . S
H1452 C1476 0.950 . S
H1453 C1477 0.951 . S
H1454 C1479 0.951 . S
H1455 C1481 0.950 . S
H1456 C1482 0.950 . S
H1457 C1484 0.950 . S
H1458 C1487 0.950 . S
H1459 C1488 0.950 . S
H1460 C1490 0.950 . S
H1461 C1491 0.950 . S
C1462 H1444 0.951 . S
C1462 C1463 1.366 . S
C1462 C1464 1.388 . S
C1463 C1462 1.366 . S
C1463 C1467 1.385 . S
C1464 H1445 0.951 . S
C1464 C1462 1.388 . S
C1464 C1465 1.366 . S
C1465 C1464 1.366 . S
C1465 C1466 1.414 . S
C1465 C1468 1.499 . S
C1466 H1446 0.950 . S
C1466 C1465 1.414 . S
C1466 C1467 1.374 . S
C1467 H1447 0.950 . S
C1467 C1463 1.385 . S
C1467 C1466 1.374 . S
C1468 C1465 1.499 . S
C1468 C1469 1.373 . S
C1468 C1470 1.389 . S
C1469 H1448 0.950 . S
C1469 C1468 1.373 . S
C1469 C1485 1.377 . S
C1470 C1468 1.389 . S
C1470 C1471 1.524 . S
C1470 C1484 1.377 . S
C1471 C1470 1.524 . S
C1471 C1472 1.397 . S
C1471 C1476 1.363 . S
C1472 H1449 0.950 . S
C1472 C1471 1.397 . S
C1472 C1473 1.334 . S
C1473 H1450 0.950 . S
C1473 C1472 1.334 . S
C1473 C1474 1.287 . S
C1474 C1473 1.287 . S
C1474 C1475 1.524 . S
C1474 H1493 0.913 . S
C1475 H1451 0.950 . S
C1475 C1474 1.524 . S
C1475 C1476 1.415 . S
C1476 H1452 0.950 . S
C1476 C1471 1.363 . S
C1476 C1475 1.415 . S
C1477 H1453 0.951 . S
C1477 C1478 1.366 . S
C1477 C1479 1.388 . S
C1478 C1477 1.366 . S
C1478 C1482 1.385 . S
C1479 H1454 0.951 . S
C1479 C1477 1.388 . S
C1479 C1480 1.366 . S
C1480 C1479 1.366 . S
C1480 C1481 1.414 . S
C1480 C1483 1.499 . S
C1481 H1455 0.950 . S
C1481 C1480 1.414 . S
C1481 C1482 1.374 . S
C1482 H1456 0.950 . S
C1482 C1478 1.385 . S
C1482 C1481 1.374 . S
C1483 C1480 1.499 . S
C1483 C1484 1.373 . S
C1483 C1485 1.389 . S
C1484 H1457 0.950 . S
C1484 C1470 1.377 . S
C1484 C1483 1.373 . S
C1485 C1469 1.377 . S
C1485 C1483 1.389 . S
C1485 C1486 1.524 . S
C1486 C1485 1.524 . S
C1486 C1487 1.397 . S
C1486 C1491 1.363 . S
C1487 H1458 0.950 . S
C1487 C1486 1.397 . S
C1487 C1488 1.334 . S
C1488 H1459 0.950 . S
C1488 C1487 1.334 . S
C1488 C1489 1.287 . S
C1489 C1488 1.287 . S
C1489 C1490 1.524 . S
C1489 H1492 0.999 . S
C1490 H1460 0.950 . S
C1490 C1489 1.524 . S
C1490 C1491 1.415 . S
C1491 H1461 0.950 . S
C1491 C1486 1.363 . S
C1491 C1490 1.415 . S
H1492 C1489 0.999 . S
H1493 C1474 0.913 . S
H1494 C1512 0.951 . S
H1495 C1514 0.951 . S
H1496 C1516 0.953 1_556 S
H1497 C1517 0.950 . S
H1498 C1519 0.950 1_554 S
H1499 C1522 0.950 . S
H1500 C1523 0.950 . S
H1501 C1525 0.950 . S
H1502 C1526 0.950 . S
H1503 C1527 0.951 . S
H1504 C1529 0.951 . S
H1505 C1531 0.950 . S
H1506 C1532 0.950 . S
H1507 C1534 0.950 . S
H1508 C1537 0.941 1_556 S
H1509 C1538 0.950 . S
H1510 C1540 0.950 . S
H1511 C1541 0.950 . S
C1512 H1494 0.951 . S
C1512 C1513 1.366 . S
C1512 C1514 1.388 1_554 S
C1513 C1512 1.366 . S
C1513 C1517 1.385 . S
C1514 H1495 0.951 . S
C1514 C1512 1.388 1_556 S
C1514 C1515 1.366 . S
C1515 C1514 1.366 . S
C1515 C1516 1.402 1_556 S
C1515 C1518 1.499 . S
C1516 H1496 0.953 1_554 S
C1516 C1515 1.402 1_554 S
C1516 C1517 1.386 . S
C1517 H1497 0.950 . S
C1517 C1513 1.385 . S
C1517 C1516 1.386 . S
C1518 C1515 1.499 . S
C1518 C1519 1.373 . S
C1518 C1520 1.389 . S
C1519 H1498 0.950 1_556 S
C1519 C1518 1.373 . S
C1519 C1535 1.377 . S
C1520 C1518 1.389 . S
C1520 C1521 1.524 . S
C1520 C1534 1.377 . S
C1521 C1520 1.524 . S
C1521 C1522 1.397 . S
C1521 C1526 1.363 . S
C1522 H1499 0.950 . S
C1522 C1521 1.397 . S
C1522 C1523 1.334 . S
C1523 H1500 0.950 . S
C1523 C1522 1.334 . S
C1523 C1524 1.287 . S
C1524 C1523 1.287 . S
C1524 C1525 1.524 . S
C1524 H1543 0.913 . S
C1525 H1501 0.950 . S
C1525 C1524 1.524 . S
C1525 C1526 1.415 . S
C1526 H1502 0.950 . S
C1526 C1521 1.363 . S
C1526 C1525 1.415 . S
C1527 H1503 0.951 . S
C1527 C1528 1.366 . S
C1527 C1529 1.388 . S
C1528 C1527 1.366 . S
C1528 C1532 1.385 . S
C1529 H1504 0.951 . S
C1529 C1527 1.388 . S
C1529 C1530 1.366 . S
C1530 C1529 1.366 . S
C1530 C1531 1.414 . S
C1530 C1533 1.499 . S
C1531 H1505 0.950 . S
C1531 C1530 1.414 . S
C1531 C1532 1.374 . S
C1532 H1506 0.950 . S
C1532 C1528 1.385 . S
C1532 C1531 1.374 . S
C1533 C1530 1.499 . S
C1533 C1534 1.373 . S
C1533 C1535 1.389 . S
C1534 H1507 0.950 . S
C1534 C1520 1.377 . S
C1534 C1533 1.373 . S
C1535 C1519 1.377 . S
C1535 C1533 1.389 . S
C1535 C1536 1.524 . S
C1536 C1535 1.524 . S
C1536 C1537 1.397 1_556 S
C1536 C1541 1.363 1_556 S
C1537 H1508 0.941 1_554 S
C1537 C1536 1.397 1_554 S
C1537 C1538 1.334 . S
C1538 H1509 0.950 . S
C1538 C1537 1.334 . S
C1538 C1539 1.287 . S
C1539 C1538 1.287 . S
C1539 C1540 1.524 . S
C1539 H1542 0.999 . S
C1540 H1510 0.950 . S
C1540 C1539 1.524 . S
C1540 C1541 1.415 . S
C1541 H1511 0.950 . S
C1541 C1536 1.363 1_554 S
C1541 C1540 1.415 . S
H1542 C1539 0.999 . S
H1543 C1524 0.913 . S
C363 C7 1.413 . S
C378 C105 1.412 . S
C413 C37 1.193 . S
C428 C137 1.184 . S
C463 C54 1.446 . S
C478 C169 1.330 . S
C528 C213 1.387 . S
C513 C87 1.367 . S
C578 C233 1.313 . S
C563 C30 1.317 . S
C613 C51 1.399 . S
C628 C277 1.419 . S
C663 C84 1.468 . S
C678 C297 1.348 . S
C713 C10 1.179 . S
C728 C341 1.083 1_455 S
C763 C59 1.424 . S
C778 C329 1.339 . S
C828 C245 1.205 . S
C813 C74 1.221 . S
C878 C265 1.483 . S
C863 C18 1.511 . S
C913 C32 1.369 . S
C928 C309 1.287 . S
C978 C149 1.448 . S
C963 C73 1.444 . S
C1013 C15 1.373 . S
C1028 C181 1.301 . S
C1078 C201 1.479 . S
C1063 C43 1.494 . S
C1128 C117 1.171 1_655 S
C1113 C62 1.196 . S
C1178 C303 1.316 . S
C1163 C21 1.420 . S
C1228 C335 1.176 . S
C1213 C29 1.250 . S
C1263 C52 1.208 . S
C1278 C239 1.203 . S
C1328 C271 1.440 . S
C1313 C81 1.441 . S
C1378 C175 1.290 . S
C1363 C40 1.390 . S
C1413 C65 1.403 . S
C1428 C207 1.401 . S
C1478 C111 1.239 . S
C1463 C76 1.241 . S
C1528 C143 1.255 . S
C1513 C8 1.253 . S
