# Generated by pormake.
# Topology ptr, (4,4)-cn, num edge types: 1
# Building blocks:
#     Node 0, Type 0, BuildingBlock: QUQFOY_clean_sbu_3, # of connection points: 4
#     Node 1, Type 0, BuildingBlock: QUQFOY_clean_sbu_3, # of connection points: 4
#     Node 2, Type 0, BuildingBlock: QUQFOY_clean_sbu_3, # of connection points: 4
#     Node 3, Type 0, BuildingBlock: QUQFOY_clean_sbu_3, # of connection points: 4
#     Node 4, Type 0, BuildingBlock: QUQFOY_clean_sbu_3, # of connection points: 4
#     Node 5, Type 0, BuildingBlock: QUQFOY_clean_sbu_3, # of connection points: 4
#     Node 6, Type 0, BuildingBlock: QUQFOY_clean_sbu_3, # of connection points: 4
#     Node 7, Type 0, BuildingBlock: QUQFOY_clean_sbu_3, # of connection points: 4
#     Node 8, Type 0, BuildingBlock: QUQFOY_clean_sbu_3, # of connection points: 4
#     Node 9, Type 0, BuildingBlock: QUQFOY_clean_sbu_3, # of connection points: 4
#     Node 10, Type 0, BuildingBlock: QUQFOY_clean_sbu_3, # of connection points: 4
#     Node 11, Type 0, BuildingBlock: QUQFOY_clean_sbu_3, # of connection points: 4
#     Node 12, Type 0, BuildingBlock: QUQFOY_clean_sbu_3, # of connection points: 4
#     Node 13, Type 0, BuildingBlock: QUQFOY_clean_sbu_3, # of connection points: 4
#     Node 14, Type 0, BuildingBlock: QUQFOY_clean_sbu_3, # of connection points: 4
#     Node 15, Type 0, BuildingBlock: QUQFOY_clean_sbu_3, # of connection points: 4
#     Node 16, Type 0, BuildingBlock: QUQFOY_clean_sbu_3, # of connection points: 4
#     Node 17, Type 0, BuildingBlock: QUQFOY_clean_sbu_3, # of connection points: 4
#     Node 18, Type 1, BuildingBlock: AZAVOO_clean_linker_0, # of connection points: 4
#     Node 19, Type 1, BuildingBlock: AZAVOO_clean_linker_0, # of connection points: 4
#     Node 20, Type 1, BuildingBlock: AZAVOO_clean_linker_0, # of connection points: 4
#     Node 21, Type 1, BuildingBlock: AZAVOO_clean_linker_0, # of connection points: 4
#     Node 22, Type 1, BuildingBlock: AZAVOO_clean_linker_0, # of connection points: 4
#     Node 23, Type 1, BuildingBlock: AZAVOO_clean_linker_0, # of connection points: 4
#     Node 24, Type 1, BuildingBlock: AZAVOO_clean_linker_0, # of connection points: 4
#     Node 25, Type 1, BuildingBlock: AZAVOO_clean_linker_0, # of connection points: 4
#     Node 26, Type 1, BuildingBlock: AZAVOO_clean_linker_0, # of connection points: 4
#     Node 27, Type 1, BuildingBlock: AZAVOO_clean_linker_0, # of connection points: 4
#     Node 28, Type 1, BuildingBlock: AZAVOO_clean_linker_0, # of connection points: 4
#     Node 29, Type 1, BuildingBlock: AZAVOO_clean_linker_0, # of connection points: 4
#     Node 30, Type 1, BuildingBlock: AZAVOO_clean_linker_0, # of connection points: 4
#     Node 31, Type 1, BuildingBlock: AZAVOO_clean_linker_0, # of connection points: 4
#     Node 32, Type 1, BuildingBlock: AZAVOO_clean_linker_0, # of connection points: 4
#     Node 33, Type 1, BuildingBlock: AZAVOO_clean_linker_0, # of connection points: 4
#     Node 34, Type 1, BuildingBlock: AZAVOO_clean_linker_0, # of connection points: 4
#     Node 35, Type 1, BuildingBlock: AZAVOO_clean_linker_0, # of connection points: 4
#     Edge 36, Type (0, 1), BuildingBlock: XIVTED_clean_linker_0, # of connection points: 2
#     Edge 37, Type (0, 1), BuildingBlock: XIVTED_clean_linker_0, # of connection points: 2
#     Edge 38, Type (0, 1), BuildingBlock: XIVTED_clean_linker_0, # of connection points: 2
#     Edge 39, Type (0, 1), BuildingBlock: XIVTED_clean_linker_0, # of connection points: 2
#     Edge 40, Type (0, 1), BuildingBlock: XIVTED_clean_linker_0, # of connection points: 2
#     Edge 41, Type (0, 1), BuildingBlock: XIVTED_clean_linker_0, # of connection points: 2
#     Edge 42, Type (0, 1), BuildingBlock: XIVTED_clean_linker_0, # of connection points: 2
#     Edge 43, Type (0, 1), BuildingBlock: XIVTED_clean_linker_0, # of connection points: 2
#     Edge 44, Type (0, 1), BuildingBlock: XIVTED_clean_linker_0, # of connection points: 2
#     Edge 45, Type (0, 1), BuildingBlock: XIVTED_clean_linker_0, # of connection points: 2
#     Edge 46, Type (0, 1), BuildingBlock: XIVTED_clean_linker_0, # of connection points: 2
#     Edge 47, Type (0, 1), BuildingBlock: XIVTED_clean_linker_0, # of connection points: 2
#     Edge 48, Type (0, 1), BuildingBlock: XIVTED_clean_linker_0, # of connection points: 2
#     Edge 49, Type (0, 1), BuildingBlock: XIVTED_clean_linker_0, # of connection points: 2
#     Edge 50, Type (0, 1), BuildingBlock: XIVTED_clean_linker_0, # of connection points: 2
#     Edge 51, Type (0, 1), BuildingBlock: XIVTED_clean_linker_0, # of connection points: 2
#     Edge 52, Type (0, 1), BuildingBlock: XIVTED_clean_linker_0, # of connection points: 2
#     Edge 53, Type (0, 1), BuildingBlock: XIVTED_clean_linker_0, # of connection points: 2
#     Edge 54, Type (0, 1), BuildingBlock: XIVTED_clean_linker_0, # of connection points: 2
#     Edge 55, Type (0, 1), BuildingBlock: XIVTED_clean_linker_0, # of connection points: 2
#     Edge 56, Type (0, 1), BuildingBlock: XIVTED_clean_linker_0, # of connection points: 2
#     Edge 57, Type (0, 1), BuildingBlock: XIVTED_clean_linker_0, # of connection points: 2
#     Edge 58, Type (0, 1), BuildingBlock: XIVTED_clean_linker_0, # of connection points: 2
#     Edge 59, Type (0, 1), BuildingBlock: XIVTED_clean_linker_0, # of connection points: 2
#     Edge 60, Type (0, 1), BuildingBlock: XIVTED_clean_linker_0, # of connection points: 2
#     Edge 61, Type (0, 1), BuildingBlock: XIVTED_clean_linker_0, # of connection points: 2
#     Edge 62, Type (0, 1), BuildingBlock: XIVTED_clean_linker_0, # of connection points: 2
#     Edge 63, Type (0, 1), BuildingBlock: XIVTED_clean_linker_0, # of connection points: 2
#     Edge 64, Type (0, 1), BuildingBlock: XIVTED_clean_linker_0, # of connection points: 2
#     Edge 65, Type (0, 1), BuildingBlock: XIVTED_clean_linker_0, # of connection points: 2
#     Edge 66, Type (0, 1), BuildingBlock: XIVTED_clean_linker_0, # of connection points: 2
#     Edge 67, Type (0, 1), BuildingBlock: XIVTED_clean_linker_0, # of connection points: 2
#     Edge 68, Type (0, 1), BuildingBlock: XIVTED_clean_linker_0, # of connection points: 2
#     Edge 69, Type (0, 1), BuildingBlock: XIVTED_clean_linker_0, # of connection points: 2
#     Edge 70, Type (0, 1), BuildingBlock: XIVTED_clean_linker_0, # of connection points: 2
#     Edge 71, Type (0, 1), BuildingBlock: XIVTED_clean_linker_0, # of connection points: 2
#     Edge 72, Type (0, 1), BuildingBlock: XIVTED_clean_linker_0, # of connection points: 2
#     Edge 73, Type (0, 1), BuildingBlock: XIVTED_clean_linker_0, # of connection points: 2
#     Edge 74, Type (0, 1), BuildingBlock: XIVTED_clean_linker_0, # of connection points: 2
#     Edge 75, Type (0, 1), BuildingBlock: XIVTED_clean_linker_0, # of connection points: 2
#     Edge 76, Type (0, 1), BuildingBlock: XIVTED_clean_linker_0, # of connection points: 2
#     Edge 77, Type (0, 1), BuildingBlock: XIVTED_clean_linker_0, # of connection points: 2
#     Edge 78, Type (0, 1), BuildingBlock: XIVTED_clean_linker_0, # of connection points: 2
#     Edge 79, Type (0, 1), BuildingBlock: XIVTED_clean_linker_0, # of connection points: 2
#     Edge 80, Type (0, 1), BuildingBlock: XIVTED_clean_linker_0, # of connection points: 2
#     Edge 81, Type (0, 1), BuildingBlock: XIVTED_clean_linker_0, # of connection points: 2
#     Edge 82, Type (0, 1), BuildingBlock: XIVTED_clean_linker_0, # of connection points: 2
#     Edge 83, Type (0, 1), BuildingBlock: XIVTED_clean_linker_0, # of connection points: 2
#     Edge 84, Type (0, 1), BuildingBlock: XIVTED_clean_linker_0, # of connection points: 2
#     Edge 85, Type (0, 1), BuildingBlock: XIVTED_clean_linker_0, # of connection points: 2
#     Edge 86, Type (0, 1), BuildingBlock: XIVTED_clean_linker_0, # of connection points: 2
#     Edge 87, Type (0, 1), BuildingBlock: XIVTED_clean_linker_0, # of connection points: 2
#     Edge 88, Type (0, 1), BuildingBlock: XIVTED_clean_linker_0, # of connection points: 2
#     Edge 89, Type (0, 1), BuildingBlock: XIVTED_clean_linker_0, # of connection points: 2
#     Edge 90, Type (0, 1), BuildingBlock: XIVTED_clean_linker_0, # of connection points: 2
#     Edge 91, Type (0, 1), BuildingBlock: XIVTED_clean_linker_0, # of connection points: 2
#     Edge 92, Type (0, 1), BuildingBlock: XIVTED_clean_linker_0, # of connection points: 2
#     Edge 93, Type (0, 1), BuildingBlock: XIVTED_clean_linker_0, # of connection points: 2
#     Edge 94, Type (0, 1), BuildingBlock: XIVTED_clean_linker_0, # of connection points: 2
#     Edge 95, Type (0, 1), BuildingBlock: XIVTED_clean_linker_0, # of connection points: 2
#     Edge 96, Type (0, 1), BuildingBlock: XIVTED_clean_linker_0, # of connection points: 2
#     Edge 97, Type (0, 1), BuildingBlock: XIVTED_clean_linker_0, # of connection points: 2
#     Edge 98, Type (0, 1), BuildingBlock: XIVTED_clean_linker_0, # of connection points: 2
#     Edge 99, Type (0, 1), BuildingBlock: XIVTED_clean_linker_0, # of connection points: 2
#     Edge 100, Type (0, 1), BuildingBlock: XIVTED_clean_linker_0, # of connection points: 2
#     Edge 101, Type (0, 1), BuildingBlock: XIVTED_clean_linker_0, # of connection points: 2
#     Edge 102, Type (0, 1), BuildingBlock: XIVTED_clean_linker_0, # of connection points: 2
#     Edge 103, Type (0, 1), BuildingBlock: XIVTED_clean_linker_0, # of connection points: 2
#     Edge 104, Type (0, 1), BuildingBlock: XIVTED_clean_linker_0, # of connection points: 2
#     Edge 105, Type (0, 1), BuildingBlock: XIVTED_clean_linker_0, # of connection points: 2
#     Edge 106, Type (0, 1), BuildingBlock: XIVTED_clean_linker_0, # of connection points: 2
#     Edge 107, Type (0, 1), BuildingBlock: XIVTED_clean_linker_0, # of connection points: 2
# Relax obj value: 0.054
# Max RMSD: 0.178
# Mean RMSD: 0.120
data_MOF--net-ptr--node1-QUQFOY_clean_sbu_3--node2-AZAVOO_clean_linker_0--edge1-XIVTED_clean_linker_0
_symmetry_space_group_name_H-M    P1
_symmetry_Int_Tables_number       1
_symmetry_cell_setting            triclinic
loop_
_symmetry_equiv_pos_as_xyz
'x, y, z'
_cell_length_a     82.8799
_cell_length_b     81.974249
_cell_length_c     70.520941
_cell_angle_alpha  92.962004
_cell_angle_beta   91.975435
_cell_angle_gamma 120.73736
loop_
_atom_site_label
_atom_site_type_symbol
_atom_site_fract_x
_atom_site_fract_y
_atom_site_fract_z
_atom_type_partial_charge
C0 C 0.96046 0.31328 0.00155 0.0
O1 O 0.95134 0.32072 0.00792 0.0
Cd2 Cd 0.96585 0.35274 0.0216 0.0
O3 O 0.97837 0.32235 0.00355 0.0
Cd4 Cd 0.00471 0.35259 0.0194 0.0
C5 C -0.00306 0.37703 0.98711 0.0
O6 O 0.98875 0.35736 0.04557 0.0
O7 O 0.01543 0.38168 0.04001 0.0
O8 O 0.01199 0.33189 0.03581 0.0
C9 C 0.00138 0.37455 0.0501 0.0
O10 O 0.98251 0.37252 -0.00361 0.0
C11 C 0.02922 0.33991 0.03246 0.0
O12 O 0.00792 0.37087 0.9913 0.0
O13 O 0.03544 0.35404 0.02228 0.0
C14 C 0.62776 0.65803 0.08264 0.0
O15 O 0.61008 0.65058 0.07989 0.0
Cd16 Cd 0.59142 0.6203 0.06217 0.0
O17 O 0.63594 0.6499 0.07536 0.0
Cd18 Cd 0.6291 0.62161 0.05464 0.0
C19 C 0.60383 0.59345 0.08823 0.0
O20 O 0.60551 0.62173 0.03252 0.0
O21 O 0.60973 0.59783 0.02906 0.0
O22 O 0.65823 0.64561 0.04266 0.0
C23 C 0.602 0.60663 0.02288 0.0
O24 O 0.59202 0.59836 0.08364 0.0
C25 C 0.66554 0.63534 0.04107 0.0
O26 O 0.61922 0.59991 0.0802 0.0
O27 O 0.65597 0.61845 0.04605 0.0
C28 C 0.34065 0.95626 0.02616 0.0
O29 O 0.34617 0.94573 0.01862 0.0
Cd30 Cd 0.37655 0.9612 0.00519 0.0
O31 O 0.35004 0.97413 0.02495 0.0
Cd32 Cd 0.37684 0.00017 0.01139 0.0
C33 C 0.40419 0.99402 0.04283 0.0
O34 O 0.37737 0.98256 0.98263 0.0
O35 O 0.40145 0.01088 0.9895 0.0
O36 O 0.3523 0.00564 0.00101 0.0
C37 C 0.39311 -0.00398 0.97809 0.0
O38 O 0.39933 0.97889 0.03229 0.0
C39 C 0.36084 0.02326 0.00624 0.0
O40 O 0.39739 0.0045 0.03926 0.0
O41 O 0.37744 0.03067 0.014 0.0
C42 C 0.9485 0.63013 0.023 0.0
O43 O 0.93875 0.61304 0.02729 0.0
Cd44 Cd 0.95282 0.59745 0.0433 0.0
O45 O 0.96592 0.64 0.02824 0.0
Cd46 Cd 0.99002 0.63751 0.0468 0.0
C47 C 0.98827 0.6055 0.01393 0.0
O48 O 0.97262 0.61562 0.07105 0.0
O49 O 0.00013 0.62025 0.0654 0.0
O50 O -0.00211 0.66537 0.06734 0.0
C51 C 0.9859 0.61265 0.07524 0.0
O52 O 0.97291 0.59408 0.02107 0.0
C53 C 0.01442 0.67574 0.06217 0.0
O54 O -0.00266 0.62322 0.01937 0.0
O55 O 0.01985 0.6684 0.04944 0.0
C56 C 0.33635 0.37942 0.01742 0.0
O57 O 0.34486 0.39737 0.01679 0.0
Cd58 Cd 0.37484 0.41434 0.00296 0.0
O59 O 0.34325 0.36997 0.01028 0.0
Cd60 Cd 0.37006 0.37429 0.99302 0.0
C61 C 0.40078 0.4011 0.03013 0.0
O62 O 0.37199 0.3984 0.97237 0.0
O63 O 0.39426 0.39199 0.97179 0.0
O64 O 0.34617 0.34471 0.97579 0.0
C65 C 0.38675 0.40078 0.96506 0.0
O66 O 0.39814 0.41432 0.02515 0.0
C67 C 0.35579 0.33667 0.97638 0.0
O68 O 0.39138 0.38444 0.02171 0.0
O69 O 0.37212 0.34612 0.98487 0.0
C70 C 0.66523 0.04065 0.02991 0.0
O71 O 0.65932 0.05136 0.036 0.0
Cd72 Cd 0.62863 0.03706 0.04846 0.0
O73 O 0.65562 0.02283 0.03145 0.0
Cd74 Cd 0.62687 -0.00211 0.04416 0.0
C75 C 0.60243 0.00506 0.00999 0.0
O76 O 0.62482 0.0156 0.0724 0.0
O77 O 0.60019 0.98837 0.06301 0.0
O78 O 0.64962 0.99055 0.05667 0.0
C79 C 0.60818 0.00257 0.07524 0.0
O80 O 0.60737 0.02032 0.02032 0.0
C81 C 0.63995 0.97275 0.05239 0.0
O82 O 0.6081 0.99387 0.01458 0.0
O83 O 0.62368 0.96618 0.04411 0.0
C84 C 0.62524 0.654 0.32582 0.0
O85 O 0.61626 0.66233 0.32978 0.0
Cd86 Cd 0.62915 0.69263 0.34705 0.0
O87 O 0.64256 0.66158 0.33142 0.0
Cd88 Cd 0.66695 0.69062 0.35111 0.0
C89 C 0.6668 0.72074 0.32047 0.0
O90 O 0.6459 0.69127 0.37419 0.0
O91 O 0.67369 0.71614 0.37544 0.0
O92 O 0.67401 0.66815 0.36475 0.0
C93 C 0.65779 0.7074 0.38238 0.0
O94 O 0.6511 0.7163 0.32712 0.0
C95 C 0.69176 0.67874 0.36534 0.0
O96 O 0.67561 0.71243 0.32534 0.0
O97 O 0.69824 0.6949 0.35869 0.0
C98 C 0.29096 0.99094 0.41253 0.0
O99 O 0.27319 0.983 0.41031 0.0
Cd100 Cd 0.2532 0.95132 0.39681 0.0
O101 O 0.29916 0.98217 0.4069 0.0
Cd102 Cd 0.2903 0.95103 0.38957 0.0
C103 C 0.26598 0.92666 0.42583 0.0
O104 O 0.26677 0.95077 0.36749 0.0
O105 O 0.26835 0.92531 0.36589 0.0
O106 O 0.31973 0.97127 0.37529 0.0
C107 C 0.26155 0.93468 0.35902 0.0
O108 O 0.25412 0.93136 0.42078 0.0
C109 C 0.32525 0.95941 0.37496 0.0
O110 O 0.28092 0.93211 0.41719 0.0
O111 O 0.31463 0.94359 0.38175 0.0
C112 C 0.01829 0.28914 0.36657 0.0
O113 O 0.02522 0.2786 0.36382 0.0
Cd114 Cd 0.05479 0.29034 0.34951 0.0
O115 O 0.02679 0.30609 0.36163 0.0
Cd116 Cd 0.05512 0.32835 0.34639 0.0
C117 C 0.08404 0.32842 0.3811 0.0
O118 O 0.05419 0.30578 0.32165 0.0
O119 O 0.0793 0.33377 0.3249 0.0
O120 O 0.03449 0.33643 0.33003 0.0
C121 C 0.06984 0.31767 0.31553 0.0
O122 O 0.07934 0.31198 0.37362 0.0
C123 C 0.04422 0.35419 0.33459 0.0
O124 O 0.07639 0.33735 0.37486 0.0
O125 O 0.05941 0.36024 0.34484 0.0
C126 C 0.6212 0.94834 0.34973 0.0
O127 O 0.61367 0.93099 0.35327 0.0
Cd128 Cd 0.62862 0.91898 0.37346 0.0
O129 O 0.63739 0.96072 0.35736 0.0
Cd130 Cd 0.66222 0.96304 0.37965 0.0
C131 C 0.66933 0.93332 0.35059 0.0
O132 O 0.64176 0.94036 0.40138 0.0
O133 O 0.67139 0.95032 0.40574 0.0
O134 O 0.66624 0.99191 0.39585 0.0
C135 C 0.65488 0.94028 0.4111 0.0
O136 O 0.65376 0.91996 0.35571 0.0
C137 C 0.68314 0.00261 0.39181 0.0
O138 O 0.67533 0.95064 0.35617 0.0
O139 O 0.69042 0.99493 0.38195 0.0
C140 C -0.00463 0.71229 0.3515 0.0
O141 O 0.00251 0.73017 0.35159 0.0
Cd142 Cd 0.03421 0.75089 0.34349 0.0
O143 O 0.0047 0.70466 0.34621 0.0
Cd144 Cd 0.03542 0.71413 0.33361 0.0
C145 C 0.05939 0.73972 0.37444 0.0
O146 O 0.03825 0.73868 0.31343 0.0
O147 O 0.06328 0.73713 0.31873 0.0
O148 O 0.02066 0.68774 0.30924 0.0
C149 C 0.05511 0.74426 0.30981 0.0
O150 O 0.05493 0.75175 0.36964 0.0
C151 C 0.02855 0.67911 0.31551 0.0
O152 O 0.05349 0.72419 0.36427 0.0
O153 O 0.03988 0.68689 0.33019 0.0
C154 C 0.31958 0.36955 0.35434 0.0
O155 O 0.31125 0.37883 0.35655 0.0
Cd156 Cd 0.28274 0.36584 0.3733 0.0
O157 O 0.31296 0.35329 0.36076 0.0
Cd158 Cd 0.28652 0.33037 0.378 0.0
C159 C 0.25442 0.32592 0.34366 0.0
O160 O 0.28692 0.35348 0.40223 0.0
O161 O 0.26428 0.32422 0.40215 0.0
O162 O 0.31154 0.32595 0.3905 0.0
C163 C 0.2727 0.34101 0.41009 0.0
O164 O 0.25776 0.34202 0.35081 0.0
C165 C 0.302 0.3079 0.38922 0.0
O166 O 0.26377 0.31863 0.34986 0.0
O167 O 0.28495 0.30003 0.3827 0.0
C168 C 0.29479 0.98767 0.65979 0.0
O169 O 0.28461 0.9951 0.66081 0.0
Cd170 Cd 0.29602 0.02715 0.67192 0.0
O171 O 0.31212 -0.00284 0.66573 0.0
Cd172 Cd 0.33457 0.02909 0.68269 0.0
C173 C 0.33386 0.05151 0.64433 0.0
O174 O 0.31133 0.0301 0.70219 0.0
O175 O 0.33813 0.05622 0.70311 0.0
O176 O 0.34298 0.00973 0.70081 0.0
C177 C 0.32197 0.04697 0.70942 0.0
O178 O 0.31721 0.04647 0.64852 0.0
C179 C 0.36057 0.02145 0.7022 0.0
O180 O 0.34384 0.04677 0.65406 0.0
O181 O 0.36635 0.03682 0.69415 0.0
C182 C 0.95033 0.31361 0.73522 0.0
O183 O 0.933 0.30396 0.72965 0.0
Cd184 Cd 0.91871 0.27357 0.71289 0.0
O185 O 0.9614 0.30764 0.73103 0.0
Cd186 Cd 0.96032 0.28043 0.71192 0.0
C187 C 0.93307 0.25123 0.74393 0.0
O188 O 0.93838 0.27888 0.68729 0.0
O189 O 0.94332 0.25555 0.68524 0.0
O190 O 0.9903 0.30589 0.70245 0.0
C191 C 0.93564 0.26398 0.67801 0.0
O192 O 0.9205 0.25411 0.73682 0.0
C193 C -0.00154 0.29636 0.70219 0.0
O194 O 0.94947 0.25915 0.73783 0.0
O195 O 0.98903 0.27938 0.70694 0.0
C196 C 0.68157 0.6236 0.69744 0.0
O197 O 0.6881 0.61322 0.69211 0.0
Cd198 Cd 0.71748 0.62762 0.67705 0.0
O199 O 0.68966 0.64091 0.69362 0.0
Cd200 Cd 0.71545 0.66494 0.67671 0.0
C201 C 0.74595 0.66564 0.70979 0.0
O202 O 0.71431 0.64347 0.65064 0.0
O203 O 0.73818 0.67225 0.65288 0.0
O204 O 0.6903 0.66975 0.66611 0.0
C205 C 0.72911 0.65604 0.64367 0.0
O206 O 0.74156 0.64948 0.70175 0.0
C207 C 0.69974 0.68778 0.66841 0.0
O208 O 0.7379 0.67441 0.70417 0.0
O209 O 0.71689 0.6955 0.67456 0.0
C210 C 0.29014 0.29946 0.68884 0.0
O211 O 0.27878 0.28228 0.69198 0.0
Cd212 Cd 0.29047 0.2632 0.70437 0.0
O213 O 0.30747 0.30752 0.69442 0.0
Cd214 Cd 0.32912 0.30148 0.71353 0.0
C215 C 0.32767 0.2733 0.67654 0.0
O216 O 0.30778 0.27792 0.73433 0.0
O217 O 0.33527 0.28117 0.73247 0.0
O218 O 0.33767 0.32873 0.73557 0.0
C219 C 0.31963 0.27347 0.74004 0.0
O220 O 0.31088 0.26194 0.68076 0.0
C221 C 0.35459 0.33852 0.73124 0.0
O222 O 0.3379 0.28937 0.68592 0.0
O223 O 0.35994 0.331 0.71863 0.0
C224 C 0.67692 0.05218 0.68201 0.0
O225 O 0.68688 0.06987 0.67992 0.0
Cd226 Cd 0.71614 0.08306 0.66511 0.0
O227 O 0.68195 0.04077 0.67565 0.0
Cd228 Cd 0.70699 0.04086 0.65773 0.0
C229 C 0.73928 0.06733 0.69359 0.0
O230 O 0.71001 0.06418 0.63573 0.0
O231 O 0.73183 0.05722 0.63624 0.0
O232 O 0.68063 0.01098 0.6433 0.0
C233 C 0.72459 0.06589 0.62865 0.0
O234 O 0.73816 0.08118 0.68769 0.0
C235 C 0.68961 0.00227 0.64261 0.0
O236 O 0.72849 0.05045 0.6861 0.0
O237 O 0.7067 0.01144 0.64913 0.0
C238 C 0.98301 0.70341 0.68619 0.0
O239 O 0.97521 0.71323 0.68812 0.0
Cd240 Cd 0.946 0.70105 0.7035 0.0
O241 O 0.97544 0.68686 0.69211 0.0
Cd242 Cd 0.94747 0.66437 0.7078 0.0
C243 C 0.91713 0.66234 0.67289 0.0
O244 O 0.94795 0.68725 0.7323 0.0
O245 O 0.92421 0.65841 0.73064 0.0
O246 O 0.96961 0.65703 0.72253 0.0
C247 C 0.93302 0.67489 0.73928 0.0
O248 O 0.92106 0.6786 0.68015 0.0
C249 C 0.95951 0.63912 0.71909 0.0
O250 O 0.92565 0.65428 0.67927 0.0
O251 O 0.9435 0.63271 0.71032 0.0
H252 H 0.16251 0.32224 0.02239 0.0
H253 H 0.25141 0.26002 0.1729 0.0
H254 H 0.15365 0.32368 0.12728 0.0
H255 H 0.13241 0.33131 0.11047 0.0
H256 H 0.08984 0.27145 0.10364 0.0
H257 H 0.11117 0.26407 0.12106 0.0
H258 H 0.18116 0.32256 0.10324 0.0
H259 H 0.17763 0.328 0.06995 0.0
H260 H 0.13343 0.26901 0.05901 0.0
H261 H 0.13724 0.26375 0.09232 0.0
H262 H 0.21003 0.32085 0.13393 0.0
H263 H 0.23613 0.33432 0.11345 0.0
H264 H 0.20615 0.28431 0.07389 0.0
H265 H 0.18013 0.27055 0.095 0.0
H266 H 0.2082 0.30991 0.17105 0.0
H267 H 0.23437 0.30659 0.18293 0.0
H268 H 0.21055 0.25262 0.14948 0.0
H269 H 0.18432 0.25601 0.1379 0.0
H270 H 0.17562 0.31297 0.1865 0.0
H271 H 0.18526 0.31442 0.21985 0.0
H272 H 0.17279 0.25637 0.21205 0.0
H273 H 0.16297 0.25501 0.17846 0.0
H274 H 0.1484 0.3177 0.16297 0.0
H275 H 0.13186 0.32177 0.18898 0.0
H276 H 0.10821 0.26261 0.19964 0.0
H277 H 0.12424 0.25846 0.17287 0.0
O278 O 0.1638 0.31974 0.03547 0.0
O279 O 0.1412 0.28928 0.03058 0.0
O280 O 0.2528 0.28945 0.18547 0.0
O281 O 0.2412 0.26168 0.16845 0.0
C282 C 0.14806 0.28888 0.13284 0.0
C283 C 0.16132 0.28951 0.12041 0.0
C284 C 0.17676 0.2883 0.12751 0.0
C285 C 0.17817 0.28489 0.14673 0.0
C286 C 0.16487 0.28413 0.15926 0.0
C287 C 0.14988 0.28633 0.1523 0.0
C288 C 0.13385 0.29335 0.12557 0.0
C289 C 0.13955 0.31227 0.12256 0.0
C290 C 0.12749 0.31656 0.11269 0.0
C291 C 0.10949 0.30198 0.10544 0.0
C292 C 0.10354 0.28305 0.10913 0.0
C293 C 0.11566 0.27878 0.11913 0.0
C294 C 0.15957 0.29273 0.10009 0.0
C295 C 0.17085 0.31081 0.09357 0.0
C296 C 0.16875 0.31388 0.07458 0.0
C297 C 0.15526 0.29893 0.06181 0.0
C298 C 0.14397 0.28082 0.06845 0.0
C299 C 0.14612 0.27777 0.08744 0.0
C300 C 0.19327 0.29468 0.11601 0.0
C301 C 0.20927 0.31257 0.12108 0.0
C302 C 0.22404 0.32037 0.10922 0.0
C303 C 0.22303 0.31051 0.09192 0.0
C304 C 0.2073 0.29221 0.08717 0.0
C305 C 0.19247 0.28434 0.09916 0.0
C306 C 0.19423 0.28307 0.15383 0.0
C307 C 0.20858 0.2973 0.16644 0.0
C308 C 0.22355 0.29541 0.17314 0.0
C309 C 0.22452 0.27929 0.1672 0.0
C310 C 0.21021 0.26518 0.15438 0.0
C311 C 0.19522 0.26708 0.14773 0.0
C312 C 0.16836 0.28381 0.18006 0.0
C313 C 0.17443 0.30036 0.19208 0.0
C314 C 0.17999 0.30117 0.21117 0.0
C315 C 0.17977 0.28549 0.21866 0.0
C316 C 0.17324 0.26873 0.20669 0.0
C317 C 0.16752 0.26788 0.18756 0.0
C318 C 0.13732 0.28773 0.16586 0.0
C319 C 0.13907 0.30543 0.17041 0.0
C320 C 0.12988 0.3078 0.18551 0.0
C321 C 0.11895 0.29257 0.19651 0.0
C322 C 0.11643 0.27457 0.19133 0.0
C323 C 0.12557 0.27218 0.1761 0.0
C324 C 0.15294 0.30228 0.04168 0.0
C325 C 0.24038 0.27719 0.1743 0.0
H326 H 0.69353 0.81673 0.04457 0.0
H327 H 0.73412 0.98108 0.19857 0.0
H328 H 0.67793 0.81834 0.15786 0.0
H329 H 0.66669 0.78498 0.14919 0.0
H330 H 0.72408 0.79855 0.14431 0.0
H331 H 0.73519 0.83237 0.15266 0.0
H332 H 0.68301 0.83124 0.12388 0.0
H333 H 0.68189 0.82098 0.09048 0.0
H334 H 0.74102 0.86298 0.08904 0.0
H335 H 0.74199 0.87296 0.12259 0.0
H336 H 0.68018 0.86019 0.13186 0.0
H337 H 0.66839 0.87406 0.10981 0.0
H338 H 0.72222 0.92677 0.11646 0.0
H339 H 0.73444 0.91192 0.1372 0.0
H340 H 0.68677 0.88767 0.17333 0.0
H341 H 0.6867 0.9169 0.18231 0.0
H342 H 0.74758 0.94833 0.18736 0.0
H343 H 0.7474 0.91899 0.17833 0.0
H344 H 0.68692 0.86039 0.2044 0.0
H345 H 0.68489 0.87095 0.23675 0.0
H346 H 0.74498 0.91017 0.24157 0.0
H347 H 0.74699 0.89892 0.20912 0.0
H348 H 0.68281 0.82869 0.19355 0.0
H349 H 0.67813 0.80752 0.21854 0.0
H350 H 0.73815 0.83062 0.22543 0.0
H351 H 0.74269 0.85183 0.20003 0.0
O352 O 0.69432 0.82093 0.05784 0.0
O353 O 0.72477 0.84267 0.05788 0.0
O354 O 0.70244 0.95249 0.19226 0.0
O355 O 0.73373 0.96932 0.19492 0.0
C356 C 0.71338 0.84785 0.16063 0.0
C357 C 0.71355 0.85909 0.14604 0.0
C358 C 0.71432 0.87644 0.15072 0.0
C359 C 0.71705 0.88352 0.17 0.0
C360 C 0.71773 0.87265 0.18458 0.0
C361 C 0.71549 0.85462 0.17989 0.0
C362 C 0.70732 0.82767 0.15585 0.0
C363 C 0.68808 0.81407 0.15506 0.0
C364 C 0.68172 0.79499 0.15026 0.0
C365 C 0.6945 0.78903 0.14626 0.0
C366 C 0.71389 0.80271 0.14723 0.0
C367 C 0.72026 0.82196 0.15203 0.0
C368 C 0.71266 0.85265 0.12575 0.0
C369 C 0.69577 0.83804 0.11643 0.0
C370 C 0.69514 0.83229 0.09729 0.0
C371 C 0.71138 0.84111 0.08709 0.0
C372 C 0.72826 0.85584 0.09648 0.0
C373 C 0.72886 0.86157 0.11563 0.0
C374 C 0.70825 0.88493 0.136 0.0
C375 C 0.68965 0.87452 0.12806 0.0
C376 C 0.68279 0.88267 0.11573 0.0
C377 C 0.69419 0.90171 0.11151 0.0
C378 C 0.71304 0.91202 0.11916 0.0
C379 C 0.72005 0.90363 0.13117 0.0
C380 C 0.71709 0.9013 0.17514 0.0
C381 C 0.70006 0.90092 0.17633 0.0
C382 C 0.70007 0.91761 0.18148 0.0
C383 C 0.71715 0.93497 0.18555 0.0
C384 C 0.73419 0.93523 0.18431 0.0
C385 C 0.73414 0.91852 0.17916 0.0
C386 C 0.71714 0.87858 0.20463 0.0
C387 C 0.69972 0.87088 0.21261 0.0
C388 C 0.69859 0.87697 0.23104 0.0
C389 C 0.71482 0.89122 0.24169 0.0
C390 C 0.7323 0.8991 0.23364 0.0
C391 C 0.73347 0.89268 0.21523 0.0
C392 C 0.71308 0.84187 0.19511 0.0
C393 C 0.69496 0.82921 0.20045 0.0
C394 C 0.69234 0.81719 0.21478 0.0
C395 C 0.70781 0.81755 0.22409 0.0
C396 C 0.72598 0.83001 0.21847 0.0
C397 C 0.72861 0.84217 0.20409 0.0
C398 C 0.71064 0.83501 0.06673 0.0
C399 C 0.71725 0.95274 0.1911 0.0
H400 H 0.13583 0.84614 0.02724 0.0
H401 H 0.28603 0.9712 0.1827 0.0
H402 H 0.12047 0.85315 0.12488 0.0
H403 H 0.09401 0.82263 0.11079 0.0
H404 H 0.11548 0.79271 0.14152 0.0
H405 H 0.14236 0.82307 0.15464 0.0
H406 H 0.15612 0.88508 0.10374 0.0
H407 H 0.14733 0.87335 0.07018 0.0
H408 H 0.1503 0.82365 0.0819 0.0
H409 H 0.15934 0.83568 0.11536 0.0
H410 H 0.19622 0.91834 0.12102 0.0
H411 H 0.22144 0.93064 0.099 0.0
H412 H 0.22401 0.87939 0.10163 0.0
H413 H 0.19866 0.86718 0.12305 0.0
H414 H 0.1924 0.92618 0.16974 0.0
H415 H 0.22245 0.95518 0.17951 0.0
H416 H 0.25165 0.92526 0.16644 0.0
H417 H 0.22149 0.89632 0.15692 0.0
H418 H 0.1623 0.89672 0.19892 0.0
H419 H 0.17303 0.90374 0.23289 0.0
H420 H 0.21254 0.88527 0.22237 0.0
H421 H 0.20156 0.87804 0.18877 0.0
H422 H 0.12389 0.86106 0.17764 0.0
H423 H 0.10599 0.84303 0.20388 0.0
H424 H 0.14609 0.82493 0.21365 0.0
H425 H 0.16389 0.84317 0.18786 0.0
O426 O 0.1394 0.85056 0.04059 0.0
O427 O 0.14095 0.82518 0.04739 0.0
O428 O 0.25827 0.97468 0.18536 0.0
O429 O 0.27396 0.95996 0.17887 0.0
C430 C 0.15104 0.85858 0.14654 0.0
C431 C 0.1634 0.86835 0.13238 0.0
C432 C 0.18125 0.88453 0.13763 0.0
C433 C 0.18642 0.89167 0.15688 0.0
C434 C 0.17433 0.8817 0.17107 0.0
C435 C 0.15673 0.86506 0.16592 0.0
C436 C 0.13325 0.84036 0.141 0.0
C437 C 0.11926 0.83999 0.12884 0.0
C438 C 0.10425 0.82264 0.12076 0.0
C439 C 0.1028 0.80545 0.12517 0.0
C440 C 0.11623 0.80581 0.13813 0.0
C441 C 0.13146 0.82313 0.14577 0.0
C442 C 0.15816 0.86114 0.112 0.0
C443 C 0.15488 0.87168 0.09901 0.0
C444 C 0.14984 0.86493 0.07986 0.0
C445 C 0.14804 0.84752 0.07336 0.0
C446 C 0.1515 0.83708 0.08643 0.0
C447 C 0.1566 0.84387 0.10556 0.0
C448 C 0.19563 0.89187 0.12349 0.0
C449 C 0.20214 0.90976 0.11659 0.0
C450 C 0.21659 0.91676 0.10414 0.0
C451 C 0.22473 0.90597 0.09852 0.0
C452 C 0.21785 0.88792 0.10531 0.0
C453 C 0.20343 0.88095 0.11764 0.0
C454 C 0.2048 0.90925 0.1624 0.0
C455 C 0.20532 0.92595 0.16894 0.0
C456 C 0.22249 0.94248 0.17452 0.0
C457 C 0.23947 0.94255 0.1737 0.0
C458 C 0.23886 0.92572 0.16718 0.0
C459 C 0.22166 0.9092 0.16164 0.0
C460 C 0.18129 0.88706 0.19141 0.0
C461 C 0.17333 0.89432 0.20402 0.0
C462 C 0.17948 0.89832 0.22335 0.0
C463 C 0.19354 0.89493 0.2303 0.0
C464 C 0.20149 0.88775 0.21752 0.0
C465 C 0.19542 0.88385 0.19829 0.0
C466 C 0.14521 0.8535 0.18102 0.0
C467 C 0.12869 0.85313 0.18548 0.0
C468 C 0.11851 0.84282 0.20041 0.0
C469 C 0.12475 0.83273 0.21099 0.0
C470 C 0.14114 0.8329 0.20612 0.0
C471 C 0.15127 0.8432 0.19131 0.0
C472 C 0.14259 0.84035 0.05302 0.0
C473 C 0.25775 0.96006 0.17967 0.0
H474 H 0.28251 0.16301 0.01449 0.0
H475 H 0.29039 0.02673 0.84991 0.0
H476 H 0.26822 0.16387 0.89677 0.0
H477 H 0.27827 0.19699 0.90707 0.0
H478 H 0.33255 0.20647 0.92718 0.0
H479 H 0.32277 0.17401 0.91595 0.0
H480 H 0.26282 0.1366 0.93377 0.0
H481 H 0.26578 0.14684 0.96758 0.0
H482 H 0.32207 0.15606 0.97221 0.0
H483 H 0.31901 0.14602 0.93838 0.0
H484 H 0.2667 0.09532 0.93534 0.0
H485 H 0.27706 0.08088 0.95903 0.0
H486 H 0.32983 0.1026 0.93271 0.0
H487 H 0.31956 0.11702 0.90953 0.0
H488 H 0.255 0.0757 0.89113 0.0
H489 H 0.25172 0.0451 0.88083 0.0
H490 H 0.30721 0.07477 0.85966 0.0
H491 H 0.31038 0.10522 0.87025 0.0
H492 H 0.25587 0.09564 0.84983 0.0
H493 H 0.25817 0.08456 0.81762 0.0
H494 H 0.31718 0.12816 0.82061 0.0
H495 H 0.31457 0.13923 0.85238 0.0
H496 H 0.26045 0.13887 0.85433 0.0
H497 H 0.26489 0.16062 0.8297 0.0
H498 H 0.32374 0.19548 0.84895 0.0
H499 H 0.31927 0.17346 0.87303 0.0
O500 O 0.28162 0.15894 0.00116 0.0
O501 O 0.31044 0.16333 0.00282 0.0
O502 O 0.26296 0.02403 0.86548 0.0
O503 O 0.29134 0.03862 0.85421 0.0
C504 C 0.28916 0.14671 0.89947 0.0
C505 C 0.28871 0.13444 0.91306 0.0
C506 C 0.28723 0.11703 0.90699 0.0
C507 C 0.28459 0.11113 0.88741 0.0
C508 C 0.28464 0.12322 0.87379 0.0
C509 C 0.28717 0.14113 0.87983 0.0
C510 C 0.2947 0.16652 0.90585 0.0
C511 C 0.28228 0.17321 0.90335 0.0
C512 C 0.28802 0.19206 0.90932 0.0
C513 C 0.30625 0.20443 0.91791 0.0
C514 C 0.31856 0.19753 0.92032 0.0
C515 C 0.3129 0.17886 0.91419 0.0
C516 C 0.29058 0.14031 0.9337 0.0
C517 C 0.27575 0.14077 0.94215 0.0
C518 C 0.27748 0.14664 0.96145 0.0
C519 C 0.29414 0.1522 0.97262 0.0
C520 C 0.30902 0.15179 0.96405 0.0
C521 C 0.30727 0.14595 0.94474 0.0
C522 C 0.29234 0.10703 0.92067 0.0
C523 C 0.28042 0.0968 0.93472 0.0
C524 C 0.28636 0.08864 0.9482 0.0
C525 C 0.30435 0.09085 0.94784 0.0
C526 C 0.31607 0.10099 0.9336 0.0
C527 C 0.31013 0.10899 0.92018 0.0
C528 C 0.28281 0.09264 0.88121 0.0
C529 C 0.26641 0.07553 0.88426 0.0
C530 C 0.26458 0.05809 0.87835 0.0
C531 C 0.27918 0.05749 0.86933 0.0
C532 C 0.29567 0.07471 0.86647 0.0
C533 C 0.29749 0.09213 0.87244 0.0
C534 C 0.28502 0.11829 0.85335 0.0
C535 C 0.26913 0.10302 0.84326 0.0
C536 C 0.27054 0.09665 0.82496 0.0
C537 C 0.28789 0.10541 0.81653 0.0
C538 C 0.30352 0.12126 0.82645 0.0
C539 C 0.30208 0.12763 0.84466 0.0
C540 C 0.28951 0.1547 0.86553 0.0
C541 C 0.27425 0.15127 0.85323 0.0
C542 C 0.2768 0.16373 0.83926 0.0
C543 C 0.29468 0.17973 0.83735 0.0
C544 C 0.30985 0.18316 0.84988 0.0
C545 C 0.3073 0.17072 0.86378 0.0
C546 C 0.29596 0.1585 0.9931 0.0
C547 C 0.27727 0.03901 0.86293 0.0
H548 H 0.84812 0.15591 0.0193 0.0
H549 H 0.73108 9e-05 0.85641 0.0
H550 H 0.84757 0.16101 0.90297 0.0
H551 H 0.86936 0.19228 0.91884 0.0
H552 H 0.90441 0.17138 0.9401 0.0
H553 H 0.88256 0.13993 0.92347 0.0
H554 H 0.83131 0.14425 0.93683 0.0
H555 H 0.83706 0.1533 0.97106 0.0
H556 H 0.85276 0.11106 0.97851 0.0
H557 H 0.84707 0.10224 0.94417 0.0
H558 H 0.7985 0.11718 0.91936 0.0
H559 H 0.77336 0.10682 0.94078 0.0
H560 H 0.77625 0.05639 0.9491 0.0
H561 H 0.8025 0.06773 0.9283 0.0
H562 H 0.78387 0.09423 0.87605 0.0
H563 H 0.7541 0.06622 0.86342 0.0
H564 H 0.77643 0.0302 0.87627 0.0
H565 H 0.80616 0.05837 0.8887 0.0
H566 H 0.81327 0.12222 0.85614 0.0
H567 H 0.80329 0.11509 0.82234 0.0
H568 H 0.82045 0.07338 0.81925 0.0
H569 H 0.83089 0.08102 0.85336 0.0
H570 H 0.84169 0.15122 0.86905 0.0
H571 H 0.8621 0.17385 0.84735 0.0
H572 H 0.8974 0.1492 0.84867 0.0
H573 H 0.87641 0.12614 0.87042 0.0
O574 O 0.846 0.15215 0.00578 0.0
O575 O 0.85419 0.13042 0.00882 0.0
O576 O 0.73201 0.03057 0.85467 0.0
O577 O 0.74269 0.01139 0.86132 0.0
C578 C 0.8486 0.12891 0.90453 0.0
C579 C 0.83553 0.11721 0.91725 0.0
C580 C 0.81843 0.10095 0.91017 0.0
C581 C 0.81521 0.09524 0.89055 0.0
C582 C 0.82846 0.10666 0.87778 0.0
C583 C 0.84504 0.12367 0.88476 0.0
C584 C 0.8637 0.14834 0.91172 0.0
C585 C 0.8603 0.16333 0.91042 0.0
C586 C 0.8726 0.18109 0.91979 0.0
C587 C 0.88845 0.18418 0.93089 0.0
C588 C 0.89233 0.16939 0.93155 0.0
C589 C 0.87994 0.15149 0.92207 0.0
C590 C 0.83899 0.12275 0.93803 0.0
C591 C 0.83613 0.13708 0.94586 0.0
C592 C 0.83936 0.14216 0.96543 0.0
C593 C 0.84542 0.13293 0.97752 0.0
C594 C 0.84814 0.11848 0.96959 0.0
C595 C 0.84491 0.11341 0.95001 0.0
C596 C 0.80235 0.09326 0.9224 0.0
C597 C 0.79371 0.10389 0.92584 0.0
C598 C 0.77916 0.0978 0.93797 0.0
C599 C 0.77258 0.08065 0.94665 0.0
C600 C 0.78109 0.06979 0.94288 0.0
C601 C 0.79595 0.07611 0.93088 0.0
C602 C 0.79712 0.07826 0.88317 0.0
C603 C 0.78228 0.08026 0.87607 0.0
C604 C 0.76531 0.06426 0.86889 0.0
C605 C 0.7629 0.04596 0.86881 0.0
C606 C 0.77782 0.04406 0.87609 0.0
C607 C 0.7948 0.0601 0.88321 0.0
C608 C 0.82329 0.10253 0.85704 0.0
C609 C 0.81536 0.11191 0.84808 0.0
C610 C 0.80961 0.10777 0.82879 0.0
C611 C 0.81135 0.09387 0.8181 0.0
C612 C 0.81905 0.08423 0.82715 0.0
C613 C 0.82507 0.0886 0.84653 0.0
C614 C 0.85759 0.13708 0.87131 0.0
C615 C 0.85381 0.15067 0.86467 0.0
C616 C 0.86561 0.16371 0.85239 0.0
C617 C 0.88156 0.16352 0.8465 0.0
C618 C 0.88522 0.14969 0.85296 0.0
C619 C 0.87332 0.13658 0.86538 0.0
C620 C 0.84882 0.13837 -0.00168 0.0
C621 C 0.74491 0.0289 0.86116 0.0
H622 H 0.87038 0.71021 0.03813 0.0
H623 H 0.72518 0.69255 0.88841 0.0
H624 H 0.88596 0.72447 0.94116 0.0
H625 H 0.90515 0.71299 0.95578 0.0
H626 H 0.87199 0.65913 0.92234 0.0
H627 H 0.85239 0.67033 0.90861 0.0
H628 H 0.8533 0.72892 0.96398 0.0
H629 H 0.86166 0.72642 -0.00311 0.0
H630 H 0.84813 0.66875 0.98193 0.0
H631 H 0.83952 0.67132 0.94919 0.0
H632 H 0.8114 0.72428 0.94593 0.0
H633 H 0.78567 0.71378 0.96716 0.0
H634 H 0.78142 0.65892 0.96725 0.0
H635 H 0.80581 0.66899 0.94496 0.0
H636 H 0.81873 0.7356 0.9007 0.0
H637 H 0.7906 0.73707 0.89239 0.0
H638 H 0.7557 0.6774 0.90158 0.0
H639 H 0.78394 0.6761 0.90967 0.0
H640 H 0.84723 0.73366 0.87147 0.0
H641 H 0.83712 0.73113 0.83761 0.0
H642 H 0.79288 0.67299 0.84237 0.0
H643 H 0.80289 0.67564 0.87592 0.0
H644 H 0.88387 0.72949 0.89168 0.0
H645 H 0.90106 0.72566 0.86578 0.0
H646 H 0.8524 0.67041 0.8483 0.0
H647 H 0.83585 0.67405 0.87451 0.0
O648 O 0.86688 0.71085 0.02507 0.0
O649 O 0.85987 0.68131 0.01659 0.0
O650 O 0.75511 0.723 0.88704 0.0
O651 O 0.73653 0.69237 0.89161 0.0
C652 C 0.8528 0.70266 0.91949 0.0
C653 C 0.84133 0.70224 0.93412 0.0
C654 C 0.82483 0.7027 0.92966 0.0
C655 C 0.82053 0.70505 0.91081 0.0
C656 C 0.83205 0.70565 0.89622 0.0
C657 C 0.84802 0.70415 0.9005 0.0
C658 C 0.86774 0.69823 0.92387 0.0
C659 C 0.88326 0.71042 0.93657 0.0
C660 C 0.89419 0.70382 0.94491 0.0
C661 C 0.88982 0.685 0.9405 0.0
C662 C 0.87542 0.67354 0.92636 0.0
C663 C 0.86441 0.68005 0.91821 0.0
C664 C 0.84605 0.70041 0.95415 0.0
C665 C 0.85212 0.71576 0.96787 0.0
C666 C 0.85691 0.71429 0.98664 0.0
C667 C 0.85565 0.69741 0.99203 0.0
C668 C 0.84934 0.68198 0.97826 0.0
C669 C 0.84449 0.68344 0.95952 0.0
C670 C 0.81056 0.69745 0.94398 0.0
C671 C 0.80487 0.71002 0.95061 0.0
C672 C 0.79026 0.70401 0.96286 0.0
C673 C 0.7813 0.68541 0.96887 0.0
C674 C 0.78759 0.67317 0.96263 0.0
C675 C 0.80182 0.67902 0.95013 0.0
C676 C 0.80335 0.70581 0.90597 0.0
C677 C 0.80499 0.72289 0.90093 0.0
C678 C 0.78891 0.72368 0.8962 0.0
C679 C 0.77089 0.70736 0.89639 0.0
C680 C 0.76934 0.69024 0.90135 0.0
C681 C 0.78544 0.68946 0.90605 0.0
C682 C 0.82572 0.70485 0.87609 0.0
C683 C 0.83528 0.72047 0.86516 0.0
C684 C 0.82951 0.71901 0.84592 0.0
C685 C 0.81435 0.70181 0.83742 0.0
C686 C 0.80475 0.68633 0.84853 0.0
C687 C 0.81034 0.68786 0.86769 0.0
C688 C 0.85856 0.70214 0.88482 0.0
C689 C 0.87702 0.71658 0.88223 0.0
C690 C 0.88674 0.7144 0.86739 0.0
C691 C 0.87813 0.6977 0.85499 0.0
C692 C 0.8596 0.68332 0.85773 0.0
C693 C 0.85 0.68547 0.87256 0.0
C694 C 0.8609 0.69596 0.01194 0.0
C695 C 0.75376 0.70813 0.89139 0.0
H696 H 0.82311 0.6475 0.34937 0.0
H697 H 0.90649 0.58829 0.50631 0.0
H698 H 0.81709 0.6572 0.45089 0.0
H699 H 0.79643 0.66599 0.43511 0.0
H700 H 0.74841 0.61085 0.44395 0.0
H701 H 0.76962 0.6018 0.45879 0.0
H702 H 0.84277 0.65265 0.43078 0.0
H703 H 0.83919 0.65581 0.39684 0.0
H704 H 0.7899 0.5992 0.39073 0.0
H705 H 0.7938 0.59612 0.42467 0.0
H706 H 0.86962 0.65154 0.46335 0.0
H707 H 0.89491 0.66343 0.44187 0.0
H708 H 0.86296 0.61208 0.40449 0.0
H709 H 0.83751 0.59997 0.42647 0.0
H710 H 0.86784 0.64226 0.50099 0.0
H711 H 0.89307 0.63774 0.51347 0.0
H712 H 0.86629 0.5822 0.4826 0.0
H713 H 0.84101 0.58682 0.47041 0.0
H714 H 0.83656 0.6483 0.5158 0.0
H715 H 0.84641 0.65093 0.5493 0.0
H716 H 0.8311 0.59187 0.54457 0.0
H717 H 0.82111 0.58935 0.51082 0.0
H718 H 0.80918 0.65332 0.49158 0.0
H719 H 0.79255 0.6589 0.5166 0.0
H720 H 0.76824 0.60047 0.53038 0.0
H721 H 0.78427 0.5948 0.50463 0.0
O722 O 0.82432 0.6459 0.36276 0.0
O723 O 0.79901 0.61676 0.36039 0.0
O724 O 0.90983 0.61906 0.51725 0.0
O725 O 0.89668 0.59044 0.5016 0.0
C726 C 0.80816 0.62311 0.46316 0.0
C727 C 0.82071 0.62207 0.45077 0.0
C728 C 0.83555 0.61995 0.45811 0.0
C729 C 0.83697 0.61732 0.47758 0.0
C730 C 0.82428 0.61806 0.49 0.0
C731 C 0.80991 0.62106 0.48278 0.0
C732 C 0.79489 0.62877 0.45573 0.0
C733 C 0.80209 0.64702 0.44942 0.0
C734 C 0.79018 0.65209 0.44057 0.0
C735 C 0.77067 0.63914 0.43815 0.0
C736 C 0.76338 0.62107 0.44523 0.0
C737 C 0.77542 0.61592 0.4539 0.0
C738 C 0.81869 0.62405 0.43012 0.0
C739 C 0.83133 0.64087 0.42205 0.0
C740 C 0.82919 0.64268 0.40267 0.0
C741 C 0.81428 0.62773 0.39105 0.0
C742 C 0.80156 0.61095 0.39925 0.0
C743 C 0.80376 0.60915 0.41863 0.0
C744 C 0.85177 0.62488 0.4465 0.0
C745 C 0.86825 0.64257 0.45083 0.0
C746 C 0.88257 0.64945 0.43843 0.0
C747 C 0.88069 0.63879 0.4214 0.0
C748 C 0.86468 0.62054 0.41755 0.0
C749 C 0.85021 0.61362 0.43004 0.0
C750 C 0.85247 0.61475 0.48501 0.0
C751 C 0.86737 0.62907 0.49707 0.0
C752 C 0.8818 0.62648 0.50411 0.0
C753 C 0.88166 0.60956 0.49908 0.0
C754 C 0.8668 0.59536 0.4868 0.0
C755 C 0.85236 0.59796 0.47981 0.0
C756 C 0.82793 0.61858 0.51089 0.0
C757 C 0.83483 0.63577 0.5221 0.0
C758 C 0.84048 0.63724 0.54127 0.0
C759 C 0.83952 0.62159 0.54964 0.0
C760 C 0.83214 0.60421 0.5385 0.0
C761 C 0.82633 0.6027 0.51928 0.0
C762 C 0.7978 0.62361 0.49618 0.0
C763 C 0.7998 0.64157 0.4996 0.0
C764 C 0.79051 0.6448 0.51411 0.0
C765 C 0.77924 0.63019 0.52564 0.0
C766 C 0.77666 0.61198 0.52165 0.0
C767 C 0.78586 0.60872 0.50701 0.0
C768 C 0.81202 0.62973 0.37048 0.0
C769 C 0.89693 0.60672 0.50656 0.0
H770 H 0.36526 0.15559 0.37395 0.0
H771 H 0.39276 0.31162 0.53433 0.0
H772 H 0.34651 0.15257 0.4925 0.0
H773 H 0.33486 0.12006 0.47994 0.0
H774 H 0.38968 0.13669 0.46051 0.0
H775 H 0.40165 0.16951 0.47418 0.0
H776 H 0.35221 0.16632 0.45334 0.0
H777 H 0.35228 0.15734 0.41978 0.0
H778 H 0.41002 0.20338 0.41931 0.0
H779 H 0.40984 0.21204 0.45301 0.0
H780 H 0.34815 0.19568 0.4601 0.0
H781 H 0.3363 0.21071 0.43966 0.0
H782 H 0.38865 0.26438 0.45129 0.0
H783 H 0.40104 0.2486 0.47042 0.0
H784 H 0.3506 0.22024 0.50147 0.0
H785 H 0.34848 0.24809 0.51152 0.0
H786 H 0.40895 0.2812 0.52273 0.0
H787 H 0.41084 0.25323 0.51259 0.0
H788 H 0.34827 0.19207 0.52959 0.0
H789 H 0.34095 0.2029 0.55889 0.0
H790 H 0.40019 0.24351 0.57213 0.0
H791 H 0.40747 0.23114 0.54328 0.0
H792 H 0.34951 0.16443 0.52636 0.0
H793 H 0.34531 0.14075 0.54812 0.0
H794 H 0.40412 0.15861 0.54662 0.0
H795 H 0.40835 0.18297 0.52505 0.0
O796 O 0.36558 0.15934 0.38728 0.0
O797 O 0.39524 0.18323 0.38777 0.0
O798 O 0.36215 0.28277 0.5242 0.0
O799 O 0.3932 0.30042 0.53014 0.0
C800 C 0.38068 0.18332 0.49034 0.0
C801 C 0.38127 0.19517 0.47615 0.0
C802 C 0.38111 0.21197 0.48129 0.0
C803 C 0.38204 0.21773 0.50073 0.0
C804 C 0.38192 0.20615 0.51496 0.0
C805 C 0.38123 0.18892 0.50979 0.0
C806 C 0.37501 0.16333 0.4846 0.0
C807 C 0.35624 0.14913 0.48619 0.0
C808 C 0.34952 0.13062 0.47867 0.0
C809 C 0.36129 0.12591 0.46897 0.0
C810 C 0.38034 0.13995 0.46798 0.0
C811 C 0.38717 0.15862 0.47573 0.0
C812 C 0.38113 0.18964 0.45571 0.0
C813 C 0.36493 0.17431 0.44605 0.0
C814 C 0.36498 0.16928 0.42683 0.0
C815 C 0.38118 0.1796 0.41687 0.0
C816 C 0.39732 0.19509 0.42657 0.0
C817 C 0.39726 0.20007 0.44581 0.0
C818 C 0.37555 0.22096 0.46666 0.0
C819 C 0.35737 0.21051 0.45765 0.0
C820 C 0.35044 0.21928 0.44627 0.0
C821 C 0.36131 0.23891 0.44411 0.0
C822 C 0.37988 0.24923 0.45249 0.0
C823 C 0.38699 0.24027 0.46354 0.0
C824 C 0.38087 0.23481 0.50625 0.0
C825 C 0.36336 0.23356 0.506 0.0
C826 C 0.3622 0.24947 0.51179 0.0
C827 C 0.37856 0.26688 0.51794 0.0
C828 C 0.39609 0.26803 0.51807 0.0
C829 C 0.39722 0.25211 0.51228 0.0
C830 C 0.37843 0.21036 0.53459 0.0
C831 C 0.35976 0.20256 0.5393 0.0
C832 C 0.35558 0.20921 0.55584 0.0
C833 C 0.36994 0.22442 0.5677 0.0
C834 C 0.38879 0.2317 0.5634 0.0
C835 C 0.393 0.22465 0.54696 0.0
C836 C 0.37932 0.17576 0.52444 0.0
C837 C 0.36164 0.1637 0.53113 0.0
C838 C 0.35919 0.14988 0.54329 0.0
C839 C 0.37434 0.14765 0.54893 0.0
C840 C 0.39221 0.16005 0.54259 0.0
C841 C 0.39464 0.17394 0.53031 0.0
C842 C 0.38117 0.17423 0.39644 0.0
C843 C 0.3774 0.28378 0.52425 0.0
H844 H 0.80331 0.18554 0.34881 0.0
H845 H 0.95201 0.29876 0.50934 0.0
H846 H 0.78612 0.18339 0.44744 0.0
H847 H 0.75898 0.15303 0.43369 0.0
H848 H 0.78184 0.12247 0.46073 0.0
H849 H 0.80937 0.15258 0.47327 0.0
H850 H 0.82358 0.21874 0.42762 0.0
H851 H 0.81498 0.20962 0.39356 0.0
H852 H 0.81532 0.15767 0.40037 0.0
H853 H 0.82419 0.16708 0.43432 0.0
H854 H 0.86744 0.25135 0.44825 0.0
H855 H 0.89604 0.26449 0.43081 0.0
H856 H 0.88901 0.20845 0.42344 0.0
H857 H 0.86145 0.19587 0.44181 0.0
H858 H 0.85858 0.25484 0.49475 0.0
H859 H 0.88859 0.2832 0.50608 0.0
H860 H 0.91768 0.25378 0.49041 0.0
H861 H 0.88756 0.22546 0.47932 0.0
H862 H 0.82887 0.22364 0.52283 0.0
H863 H 0.84102 0.2303 0.55635 0.0
H864 H 0.88 0.21197 0.54232 0.0
H865 H 0.86742 0.20487 0.50925 0.0
H866 H 0.79017 0.18848 0.5009 0.0
H867 H 0.77227 0.16789 0.5257 0.0
H868 H 0.81233 0.14907 0.53036 0.0
H869 H 0.83027 0.17007 0.50629 0.0
O870 O 0.80673 0.18888 0.36233 0.0
O871 O 0.80694 0.1623 0.36664 0.0
O872 O 0.92433 0.30224 0.5127 0.0
O873 O 0.93997 0.28777 0.50492 0.0
C874 C 0.81721 0.18838 0.46792 0.0
C875 C 0.82956 0.19921 0.45416 0.0
C876 C 0.84751 0.21505 0.46003 0.0
C877 C 0.85254 0.22098 0.47959 0.0
C878 C 0.84043 0.20998 0.4933 0.0
C879 C 0.82289 0.19359 0.4875 0.0
C880 C 0.79956 0.17022 0.46172 0.0
C881 C 0.78512 0.17012 0.45059 0.0
C882 C 0.76971 0.15288 0.44277 0.0
C883 C 0.76838 0.13559 0.44643 0.0
C884 C 0.7825 0.13568 0.45804 0.0
C885 C 0.7981 0.15285 0.46537 0.0
C886 C 0.82425 0.19346 0.43349 0.0
C887 C 0.82177 0.20539 0.42172 0.0
C888 C 0.81685 0.20014 0.40228 0.0
C889 C 0.81438 0.18287 0.39425 0.0
C890 C 0.81703 0.17102 0.4061 0.0
C891 C 0.822 0.17631 0.42552 0.0
C892 C 0.86237 0.22266 0.44632 0.0
C893 C 0.87197 0.24193 0.44259 0.0
C894 C 0.88826 0.24937 0.43258 0.0
C895 C 0.89499 0.23756 0.42604 0.0
C896 C 0.88452 0.21804 0.42871 0.0
C897 C 0.86853 0.21073 0.43891 0.0
C898 C 0.87094 0.23821 0.48599 0.0
C899 C 0.87147 0.25459 0.49372 0.0
C900 C 0.88862 0.27075 0.50019 0.0
C901 C 0.90555 0.27078 0.49909 0.0
C902 C 0.90492 0.25427 0.4914 0.0
C903 C 0.88775 0.2381 0.48498 0.0
C904 C 0.84745 0.21401 0.51364 0.0
C905 C 0.83998 0.22103 0.52711 0.0
C906 C 0.84697 0.22487 0.54617 0.0
C907 C 0.86147 0.22164 0.552 0.0
C908 C 0.86866 0.21434 0.53841 0.0
C909 C 0.86167 0.21051 0.51946 0.0
C910 C 0.81154 0.18082 0.50197 0.0
C911 C 0.795 0.17989 0.50738 0.0
C912 C 0.78479 0.16807 0.52145 0.0
C913 C 0.79096 0.15695 0.53018 0.0
C914 C 0.8074 0.15777 0.52436 0.0
C915 C 0.81763 0.16966 0.51051 0.0
C916 C 0.80913 0.17733 0.3736 0.0
C917 C 0.9238 0.2879 0.50599 0.0
H918 H -0.00251 0.51219 0.35339 0.0
H919 H 0.00716 0.38671 0.19335 0.0
H920 H 0.96652 0.50509 0.2559 0.0
H921 H 0.97132 0.53586 0.26849 0.0
H922 H 0.02106 0.56497 0.23729 0.0
H923 H 0.01674 0.5343 0.2255 0.0
H924 H 0.96971 0.47354 0.27706 0.0
H925 H 0.97632 0.48547 0.31065 0.0
H926 H 0.03054 0.53211 0.2978 0.0
H927 H 0.02383 0.5199 0.26431 0.0
H928 H 0.96662 0.43798 0.25601 0.0
H929 H 0.97364 0.41868 0.27622 0.0
H930 H 0.03267 0.46225 0.27979 0.0
H931 H 0.02534 0.48162 0.26012 0.0
H932 H 0.95911 0.43038 0.21038 0.0
H933 H 0.95948 0.40175 0.19938 0.0
H934 H 0.01987 0.43209 0.21128 0.0
H935 H 0.01929 0.46065 0.22202 0.0
H936 H 0.9563 0.45517 0.18384 0.0
H937 H 0.95575 0.44058 0.15231 0.0
H938 H 0.01641 0.46811 0.15821 0.0
H939 H 0.01675 0.48267 0.18935 0.0
H940 H 0.95662 0.49587 0.20566 0.0
H941 H 0.95347 0.51451 0.18124 0.0
H942 H 0.01036 0.53351 0.16663 0.0
H943 H 0.01308 0.51448 0.19059 0.0
O944 O -0.00484 0.5077 0.34003 0.0
O945 O 0.02281 0.5315 0.33264 0.0
O946 O 0.97553 0.3828 0.19187 0.0
O947 O 0.00658 0.39776 0.19775 0.0
C948 C 0.98969 0.49905 0.23393 0.0
C949 C 0.99221 0.4886 0.24791 0.0
C950 C 0.99168 0.47154 0.24239 0.0
C951 C 0.98894 0.46505 0.22299 0.0
C952 C 0.98692 0.47572 0.20904 0.0
C953 C 0.98699 0.49254 0.21447 0.0
C954 C 0.99121 0.51746 0.23968 0.0
C955 C 0.97835 0.51811 0.25167 0.0
C956 C 0.9811 0.53562 0.25884 0.0
C957 C -0.00348 0.55266 0.25377 0.0
C958 C 0.00895 0.55198 0.2412 0.0
C959 C 0.00644 0.5345 0.23439 0.0
C960 C -0.00375 0.4959 0.26827 0.0
C961 C 0.98302 0.4863 0.28156 0.0
C962 C 0.98682 0.49317 0.30072 0.0
C963 C 0.00395 0.50977 0.30691 0.0
C964 C 0.0172 0.51931 0.29352 0.0
C965 C 0.01339 0.5124 0.27438 0.0
C966 C -0.00451 0.46112 0.25667 0.0
C967 C 0.98099 0.44346 0.26153 0.0
C968 C 0.98506 0.43243 0.27292 0.0
C969 C 0.00375 0.43884 0.27946 0.0
C970 C 0.01812 0.45698 0.27521 0.0
C971 C 0.01399 0.46804 0.26393 0.0
C972 C 0.98915 0.44751 0.21708 0.0
C973 C 0.97238 0.43077 0.21065 0.0
C974 C 0.97264 0.41446 0.20437 0.0
C975 C 0.98972 0.41463 0.20447 0.0
C976 C 0.00648 0.43145 0.21104 0.0
C977 C 0.0062 0.44776 0.21726 0.0
C978 C 0.98657 0.46995 0.18874 0.0
C979 C 0.96945 0.45842 0.17799 0.0
C980 C 0.96917 0.45 0.16012 0.0
C981 C 0.98603 0.45312 0.15282 0.0
C982 C 0.0032 0.46561 0.16326 0.0
C983 C 0.00345 0.47392 0.18108 0.0
C984 C 0.98499 0.50371 0.1997 0.0
C985 C 0.96831 0.504 0.19706 0.0
C986 C 0.9666 0.51475 0.18321 0.0
C987 C 0.98161 0.52541 0.17186 0.0
C988 C -0.00164 0.52513 0.17476 0.0
C989 C -1e-05 0.51433 0.18849 0.0
C990 C 0.00794 0.51703 0.32727 0.0
C991 C 0.9901 0.39741 0.19765 0.0
H992 H 0.49921 0.48424 0.35464 0.0
H993 H 0.3957 0.33549 0.18744 0.0
H994 H 0.50476 0.49313 0.24716 0.0
H995 H 0.52668 0.5251 0.26132 0.0
H996 H 0.57002 0.51079 0.26727 0.0
H997 H 0.5478 0.47861 0.25228 0.0
H998 H 0.48131 0.4693 0.27234 0.0
H999 H 0.48533 0.47773 0.30666 0.0
H1000 H 0.52113 0.45395 0.31289 0.0
H1001 H 0.51686 0.44549 0.27852 0.0
H1002 H 0.45347 0.44484 0.24401 0.0
H1003 H 0.42647 0.43295 0.26316 0.0
H1004 H 0.44102 0.39395 0.28658 0.0
H1005 H 0.46889 0.40701 0.26795 0.0
H1006 H 0.44981 0.42995 0.20303 0.0
H1007 H 0.42098 0.40197 0.18865 0.0
H1008 H 0.43887 0.3655 0.21196 0.0
H1009 H 0.46774 0.39364 0.22608 0.0
H1010 H 0.48396 0.46255 0.18904 0.0
H1011 H 0.47409 0.45521 0.15531 0.0
H1012 H 0.48216 0.40711 0.15499 0.0
H1013 H 0.49227 0.41476 0.18909 0.0
H1014 H 0.51047 0.49183 0.21068 0.0
H1015 H 0.53268 0.51547 0.19082 0.0
H1016 H 0.55979 0.48267 0.18295 0.0
H1017 H 0.53714 0.45878 0.20297 0.0
O1018 O 0.49768 0.48065 0.34112 0.0
O1019 O 0.51594 0.46818 0.34356 0.0
O1020 O 0.39852 0.36619 0.18116 0.0
O1021 O 0.40701 0.34681 0.19293 0.0
C1022 C 0.51058 0.46416 0.24063 0.0
C1023 C 0.49654 0.45178 0.25217 0.0
C1024 C 0.48009 0.4356 0.24376 0.0
C1025 C 0.47845 0.43075 0.22402 0.0
C1026 C 0.49276 0.4428 0.21245 0.0
C1027 C 0.50875 0.45967 0.22076 0.0
C1028 C 0.52469 0.4836 0.24882 0.0
C1029 C 0.51901 0.49691 0.25146 0.0
C1030 C 0.53154 0.51513 0.25969 0.0
C1031 C 0.55003 0.52041 0.26576 0.0
C1032 C 0.55588 0.50715 0.26272 0.0
C1033 C 0.54324 0.4888 0.25427 0.0
C1034 C 0.4986 0.45657 0.27303 0.0
C1035 C 0.48984 0.46575 0.28117 0.0
C1036 C 0.49224 0.47063 0.30077 0.0
C1037 C 0.50352 0.46648 0.31253 0.0
C1038 C 0.51232 0.45731 0.30425 0.0
C1039 C 0.50989 0.45244 0.28465 0.0
C1040 C 0.46304 0.42674 0.2546 0.0
C1041 C 0.45073 0.43363 0.25321 0.0
C1042 C 0.43519 0.42667 0.2641 0.0
C1043 C 0.43136 0.41232 0.2764 0.0
C1044 C 0.44363 0.40517 0.27748 0.0
C1045 C 0.45945 0.41244 0.26674 0.0
C1046 C 0.46093 0.41379 0.21536 0.0
C1047 C 0.44753 0.41591 0.20487 0.0
C1048 C 0.43105 0.3999 0.19674 0.0
C1049 C 0.42765 0.38148 0.1991 0.0
C1050 C 0.44107 0.37946 0.20981 0.0
C1051 C 0.45756 0.39549 0.2179 0.0
C1052 C 0.48924 0.43946 0.19143 0.0
C1053 C 0.48426 0.45083 0.18158 0.0
C1054 C 0.47854 0.44655 0.16227 0.0
C1055 C 0.47747 0.43064 0.1524 0.0
C1056 C 0.48281 0.41943 0.16222 0.0
C1057 C 0.4887 0.42384 0.18161 0.0
C1058 C 0.5224 0.47377 0.2085 0.0
C1059 C 0.52134 0.48985 0.20487 0.0
C1060 C 0.5341 0.50337 0.19356 0.0
C1061 C 0.54822 0.50112 0.18557 0.0
C1062 C 0.54908 0.4848 0.18894 0.0
C1063 C 0.53624 0.47121 0.20038 0.0
C1064 C 0.50613 0.47178 0.33333 0.0
C1065 C 0.41017 0.36442 0.1905 0.0
H1066 H 0.51754 0.00111 0.36832 0.0
H1067 H 0.37689 0.98555 0.21435 0.0
H1068 H 0.53801 0.02454 0.27281 0.0
H1069 H 0.5603 0.01613 0.28585 0.0
H1070 H 0.53208 0.96327 0.25012 0.0
H1071 H 0.50936 0.97137 0.23797 0.0
H1072 H 0.50403 0.02458 0.2954 0.0
H1073 H 0.51077 0.01996 0.3281 0.0
H1074 H 0.49925 0.96364 0.30962 0.0
H1075 H 0.49228 0.96834 0.27707 0.0
H1076 H 0.46692 0.0249 0.27369 0.0
H1077 H 0.44251 0.01822 0.29565 0.0
H1078 H 0.43352 0.96171 0.29996 0.0
H1079 H 0.45686 0.9681 0.27689 0.0
H1080 H 0.47038 0.03307 0.23047 0.0
H1081 H 0.44154 0.03284 0.22107 0.0
H1082 H 0.40885 0.97265 0.22885 0.0
H1083 H 0.43781 0.97305 0.23803 0.0
H1084 H 0.50052 0.03662 0.20619 0.0
H1085 H 0.49117 0.03844 0.17323 0.0
H1086 H 0.45121 0.97787 0.16892 0.0
H1087 H 0.46057 0.97625 0.20171 0.0
H1088 H 0.53651 0.0341 0.22374 0.0
H1089 H 0.55588 0.03579 0.19751 0.0
H1090 H 0.51486 0.97727 0.17853 0.0
H1091 H 0.49546 0.97605 0.20429 0.0
O1092 O 0.51475 0.00261 0.35531 0.0
O1093 O 0.50881 0.97382 0.34504 0.0
O1094 O 0.40596 0.017 0.21423 0.0
O1095 O 0.38851 0.98606 0.21803 0.0
C1096 C 0.50619 0.00151 0.2498 0.0
C1097 C 0.49387 -0.00017 0.26401 0.0
C1098 C 0.47752 0.00051 0.25925 0.0
C1099 C 0.4737 0.00323 0.24036 0.0
C1100 C 0.48613 0.00513 0.22628 0.0
C1101 C 0.50232 0.00421 0.23096 0.0
C1102 C 0.52207 -0.00144 0.25446 0.0
C1103 C 0.53694 0.01135 0.26752 0.0
C1104 C 0.54969 0.00653 0.2749 0.0
C1105 C 0.54782 0.9889 0.2692 0.0
C1106 C 0.53369 0.97678 0.25508 0.0
C1107 C 0.52086 0.98152 0.24788 0.0
C1108 C 0.49781 -0.00314 0.28386 0.0
C1109 C 0.50293 0.01125 0.29847 0.0
C1110 C 0.5068 0.00858 0.31712 0.0
C1111 C 0.5056 0.99145 0.32147 0.0
C1112 C 0.50035 0.97702 0.30676 0.0
C1113 C 0.49643 0.97969 0.28814 0.0
C1114 C 0.46369 -0.00299 0.2737 0.0
C1115 C 0.45962 0.01108 0.27938 0.0
C1116 C 0.44578 0.00727 0.29211 0.0
C1117 C 0.43595 0.98938 0.29965 0.0
C1118 C 0.44048 0.97551 0.29423 0.0
C1119 C 0.45404 0.97922 0.28124 0.0
C1120 C 0.45615 0.0031 0.23499 0.0
C1121 C 0.45697 0.01986 0.23012 0.0
C1122 C 0.44048 0.01969 0.22477 0.0
C1123 C 0.42288 0.00272 0.22423 0.0
C1124 C 0.42216 0.98595 0.22914 0.0
C1125 C 0.43866 0.98615 0.23444 0.0
C1126 C 0.48119 0.00631 0.20622 0.0
C1127 C 0.48983 0.02378 0.19802 0.0
C1128 C 0.48444 0.0248 0.1793 0.0
C1129 C 0.47052 0.00828 0.16853 0.0
C1130 C 0.46214 0.99078 0.1768 0.0
C1131 C 0.46738 0.98983 0.19551 0.0
C1132 C 0.51459 0.00499 0.2158 0.0
C1133 C 0.53181 0.02168 0.21389 0.0
C1134 C 0.54287 0.02257 0.19897 0.0
C1135 C 0.53687 0.00672 0.18578 0.0
C1136 C 0.51974 0.98989 0.18811 0.0
C1137 C 0.50868 0.98909 0.2029 0.0
C1138 C 0.5098 0.98869 0.34128 0.0
C1139 C 0.40533 0.00244 0.21852 0.0
H1140 H 0.50232 0.01503 0.69015 0.0
H1141 H 0.60094 0.96647 0.84089 0.0
H1142 H 0.49613 0.01985 0.79155 0.0
H1143 H 0.47283 0.02564 0.77669 0.0
H1144 H 0.42909 0.96821 0.78569 0.0
H1145 H 0.45296 0.96225 0.79957 0.0
H1146 H 0.52458 0.01895 0.77063 0.0
H1147 H 0.51977 0.02273 0.73711 0.0
H1148 H 0.4722 0.96505 0.73053 0.0
H1149 H 0.47733 0.96139 0.76404 0.0
H1150 H 0.5539 0.019 0.79943 0.0
H1151 H 0.57926 0.02847 0.77815 0.0
H1152 H 0.54583 0.97513 0.74389 0.0
H1153 H 0.52057 0.96551 0.76575 0.0
H1154 H 0.55182 0.01041 0.83973 0.0
H1155 H 0.57957 0.00956 0.85114 0.0
H1156 H 0.55855 0.95571 0.81824 0.0
H1157 H 0.53073 0.95662 0.80714 0.0
H1158 H 0.51646 0.00881 0.85808 0.0
H1159 H 0.52764 0.00967 0.89066 0.0
H1160 H 0.52301 0.95518 0.87785 0.0
H1161 H 0.51021 0.95374 0.84568 0.0
H1162 H 0.48912 0.01379 0.83318 0.0
H1163 H 0.46973 0.01533 0.85764 0.0
H1164 H 0.45022 0.95679 0.86807 0.0
H1165 H 0.46915 0.95517 0.84293 0.0
O1166 O 0.50405 0.01318 0.70336 0.0
O1167 O 0.47968 0.98346 0.70073 0.0
O1168 O 0.60022 0.9948 0.85337 0.0
O1169 O 0.59009 0.96715 0.83663 0.0
C1170 C 0.49115 0.98673 0.80304 0.0
C1171 C 0.50416 0.98754 0.79013 0.0
C1172 C 0.51997 0.98674 0.79674 0.0
C1173 C 0.52222 0.98391 0.81599 0.0
C1174 C 0.50886 0.98238 0.82886 0.0
C1175 C 0.49342 0.98405 0.8224 0.0
C1176 C 0.47628 0.99056 0.79638 0.0
C1177 C 0.4815 0.00853 0.79035 0.0
C1178 C 0.46807 0.01187 0.78203 0.0
C1179 C 0.44898 -0.00262 0.77987 0.0
C1180 C 0.44368 0.97959 0.78676 0.0
C1181 C 0.45724 0.97619 0.79489 0.0
C1182 C 0.50143 0.98982 0.76969 0.0
C1183 C 0.51326 0.00709 0.76187 0.0
C1184 C 0.51041 0.00923 0.74274 0.0
C1185 C 0.49562 0.99418 0.73112 0.0
C1186 C 0.48375 0.97692 0.73907 0.0
C1187 C 0.48664 0.97478 0.75819 0.0
C1188 C 0.53549 0.99155 0.78416 0.0
C1189 C 0.55215 0.00926 0.78747 0.0
C1190 C 0.56651 0.01473 0.77518 0.0
C1191 C 0.56444 0.00262 0.75924 0.0
C1192 C 0.54784 0.98469 0.75612 0.0
C1193 C 0.53342 0.9792 0.76851 0.0
C1194 C 0.53919 0.98348 0.82276 0.0
C1195 C 0.55318 -0.00161 0.83511 0.0
C1196 C 0.56904 -0.0021 0.84155 0.0
C1197 C 0.57126 0.98254 0.83564 0.0
C1198 C 0.55727 0.96772 0.82311 0.0
C1199 C 0.54138 0.96821 0.81672 0.0
C1200 C 0.51247 0.98121 0.84944 0.0
C1201 C 0.51716 -0.00328 0.8625 0.0
C1202 C 0.52395 -0.00266 0.88107 0.0
C1203 C 0.52675 0.98273 0.88685 0.0
C1204 C 0.52101 0.96668 0.87403 0.0
C1205 C 0.51376 0.96586 0.85556 0.0
C1206 C 0.48045 0.98433 0.8362 0.0
C1207 C 0.48034 0.00117 0.84045 0.0
C1208 C 0.46943 0.00209 0.85459 0.0
C1209 C 0.45855 0.98623 0.86491 0.0
C1210 C 0.45829 0.96919 0.86026 0.0
C1211 C 0.46916 0.96826 0.846 0.0
C1212 C 0.49258 -0.00346 0.71082 0.0
C1213 C 0.58808 0.98194 0.84245 0.0
H1214 H 0.97078 0.46232 0.71389 0.0
H1215 H 0.03566 0.63245 0.85784 0.0
H1216 H 0.97899 0.46604 0.82437 0.0
H1217 H 0.96984 0.43405 0.81165 0.0
H1218 H 0.02781 0.45364 0.80099 0.0
H1219 H 0.03693 0.48559 0.81475 0.0
H1220 H 0.97711 0.49002 0.7935 0.0
H1221 H 0.96885 0.47654 0.76038 0.0
H1222 H 0.02743 0.49606 0.75305 0.0
H1223 H 0.03546 0.50954 0.78621 0.0
H1224 H 0.98 0.52435 0.81313 0.0
H1225 H 0.9714 0.54149 0.79156 0.0
H1226 H 0.02633 0.56651 0.76926 0.0
H1227 H 0.03487 0.54932 0.79118 0.0
H1228 H 0.9911 0.53763 0.85511 0.0
H1229 H 0.99227 0.5674 0.86443 0.0
H1230 H 0.04611 0.59897 0.8402 0.0
H1231 H 0.04486 0.56908 0.8312 0.0
H1232 H 0.99271 0.5079 0.87669 0.0
H1233 H 0.99336 0.52248 0.90788 0.0
H1234 H 0.05044 0.56772 0.90181 0.0
H1235 H 0.04968 0.55278 0.87045 0.0
H1236 H 0.98622 0.47549 0.85947 0.0
H1237 H 0.98492 0.45441 0.88328 0.0
H1238 H 0.04571 0.48466 0.88926 0.0
H1239 H 0.04682 0.50553 0.86482 0.0
O1240 O 0.97436 0.46785 0.72689 0.0
O1241 O 0.00465 0.47819 0.72386 0.0
O1242 O 0.00731 0.60358 0.8669 0.0
O1243 O 0.03488 0.62048 0.8544 0.0
C1244 C 0.01335 0.49764 0.82629 0.0
C1245 C 0.01173 0.50854 0.81233 0.0
C1246 C 0.01325 0.52606 0.81776 0.0
C1247 C 0.01724 0.53313 0.83706 0.0
C1248 C 0.01917 0.52237 0.85107 0.0
C1249 C 0.01695 0.50444 0.84569 0.0
C1250 C 0.00861 0.47798 0.82064 0.0
C1251 C 0.98976 0.46328 0.81974 0.0
C1252 C 0.98455 0.44509 0.81222 0.0
C1253 C -0.00194 0.44135 0.80503 0.0
C1254 C 0.0171 0.45602 0.80654 0.0
C1255 C 0.02234 0.47425 0.81433 0.0
C1256 C 0.00687 0.50081 0.79214 0.0
C1257 C 0.98812 0.49145 0.78466 0.0
C1258 C 0.98346 0.48373 0.76577 0.0
C1259 C -0.00251 0.48523 0.75406 0.0
C1260 C 0.01629 0.49467 0.76167 0.0
C1261 C 0.02093 0.5024 0.78057 0.0
C1262 C 0.00806 0.53572 0.80373 0.0
C1263 C 0.9901 0.53342 0.80346 0.0
C1264 C 0.98518 0.5431 0.79104 0.0
C1265 C -0.00182 0.55532 0.77868 0.0
C1266 C 0.01609 0.5573 0.77873 0.0
C1267 C 0.02097 0.54749 0.79114 0.0
C1268 C 0.018 0.55125 0.84268 0.0
C1269 C 0.0032 0.55101 0.85197 0.0
C1270 C 0.00387 0.56802 0.85721 0.0
C1271 C 0.01932 0.58558 0.85309 0.0
C1272 C 0.03404 0.58572 0.84362 0.0
C1273 C 0.03337 0.56868 0.83846 0.0
C1274 C 0.02124 0.52909 0.87143 0.0
C1275 C 0.00563 0.5205 0.88241 0.0
C1276 C 0.00601 0.52895 0.90021 0.0
C1277 C 0.02196 0.54629 0.90731 0.0
C1278 C 0.03791 0.55444 0.89665 0.0
C1279 C 0.03757 0.54585 0.87886 0.0
C1280 C 0.01659 0.49198 0.8604 0.0
C1281 C -0.00074 0.47749 0.86581 0.0
C1282 C -0.00143 0.46557 0.87954 0.0
C1283 C 0.01523 0.46795 0.88828 0.0
C1284 C 0.03265 0.4824 0.8827 0.0
C1285 C 0.03331 0.49438 0.86887 0.0
C1286 C 0.99247 0.47691 0.73403 0.0
C1287 C 0.02007 0.6037 0.85858 0.0
H1288 H 0.47544 0.51012 0.69191 0.0
H1289 H 0.62133 0.63786 0.85149 0.0
H1290 H 0.45678 0.51737 0.78863 0.0
H1291 H 0.43125 0.48583 0.77546 0.0
H1292 H 0.45537 0.4593 0.80797 0.0
H1293 H 0.48132 0.49065 0.82013 0.0
H1294 H 0.49255 0.55038 0.76755 0.0
H1295 H 0.48489 0.53792 0.73412 0.0
H1296 H 0.49061 0.49029 0.74815 0.0
H1297 H 0.49849 0.50304 0.78147 0.0
H1298 H 0.5328 0.58496 0.785 0.0
H1299 H 0.55924 0.59741 0.76444 0.0
H1300 H 0.56312 0.54729 0.77081 0.0
H1301 H 0.53658 0.53491 0.79072 0.0
H1302 H 0.52856 0.59445 0.8311 0.0
H1303 H 0.55851 0.6234 0.84139 0.0
H1304 H 0.58695 0.59163 0.8361 0.0
H1305 H 0.55689 0.56279 0.82596 0.0
H1306 H 0.50421 0.57135 0.86177 0.0
H1307 H 0.5189 0.58271 0.8943 0.0
H1308 H 0.54588 0.54959 0.88756 0.0
H1309 H 0.53228 0.5396 0.85502 0.0
H1310 H 0.45826 0.52567 0.83935 0.0
H1311 H 0.4371 0.50306 0.8612 0.0
H1312 H 0.47966 0.48951 0.87641 0.0
H1313 H 0.50007 0.51118 0.85407 0.0
O1314 O 0.47859 0.51485 0.7052 0.0
O1315 O 0.48159 0.49059 0.71318 0.0
O1316 O 0.59402 0.64234 0.8498 0.0
O1317 O 0.60931 0.62665 0.84737 0.0
C1318 C 0.48779 0.52521 0.8112 0.0
C1319 C 0.50034 0.53511 0.79724 0.0
C1320 C 0.5178 0.55171 0.80268 0.0
C1321 C 0.52232 0.55909 0.82188 0.0
C1322 C 0.51006 0.54903 0.83591 0.0
C1323 C 0.4928 0.53206 0.83062 0.0
C1324 C 0.47075 0.50633 0.80562 0.0
C1325 C 0.45636 0.50473 0.79313 0.0
C1326 C 0.44188 0.4868 0.7856 0.0
C1327 C 0.44139 0.47026 0.79085 0.0
C1328 C 0.45533 0.47187 0.80396 0.0
C1329 C 0.47004 0.48975 0.81105 0.0
C1330 C 0.49584 0.5275 0.77694 0.0
C1331 C 0.49215 0.53727 0.76335 0.0
C1332 C 0.48776 0.53011 0.74428 0.0
C1333 C 0.48705 0.51306 0.73847 0.0
C1334 C 0.49095 0.50341 0.75215 0.0
C1335 C 0.49539 0.51062 0.7712 0.0
C1336 C 0.53275 0.559 0.78915 0.0
C1337 C 0.53926 0.57664 0.78166 0.0
C1338 C 0.55441 0.58374 0.77007 0.0
C1339 C 0.56328 0.57332 0.76593 0.0
C1340 C 0.55642 0.55552 0.77333 0.0
C1341 C 0.5413 0.54844 0.78478 0.0
C1342 C 0.54063 0.57663 0.82762 0.0
C1343 C 0.5413 0.59383 0.83211 0.0
C1344 C 0.55841 0.61031 0.838 0.0
C1345 C 0.57515 0.60984 0.83953 0.0
C1346 C 0.57436 0.59252 0.83503 0.0
C1347 C 0.55723 0.57604 0.82916 0.0
C1348 C 0.51708 0.55454 0.85619 0.0
C1349 C 0.51322 0.56654 0.86749 0.0
C1350 C 0.52159 0.57294 0.88606 0.0
C1351 C 0.5338 0.56727 0.89356 0.0
C1352 C 0.53703 0.55474 0.88221 0.0
C1353 C 0.52902 0.54872 0.86367 0.0
C1354 C 0.48085 0.52035 0.84542 0.0
C1355 C 0.46303 0.51798 0.84765 0.0
C1356 C 0.45101 0.50511 0.86011 0.0
C1357 C 0.45667 0.4944 0.87039 0.0
C1358 C 0.47476 0.49732 0.86849 0.0
C1359 C 0.48664 0.51003 0.85602 0.0
C1360 C 0.48226 0.50543 0.71822 0.0
C1361 C 0.59335 0.62729 0.84587 0.0
H1362 H 0.60363 0.817 0.68434 0.0
H1363 H 0.64075 0.69906 0.53818 0.0
H1364 H 0.59813 0.82441 0.57997 0.0
H1365 H 0.60669 0.85729 0.58929 0.0
H1366 H 0.66437 0.87659 0.57736 0.0
H1367 H 0.65544 0.84413 0.56733 0.0
H1368 H 0.59269 0.78414 0.60597 0.0
H1369 H 0.59188 0.79358 0.63926 0.0
H1370 H 0.64882 0.8411 0.6384 0.0
H1371 H 0.64955 0.83135 0.60526 0.0
H1372 H 0.60219 0.74791 0.58996 0.0
H1373 H 0.61475 0.73293 0.61005 0.0
H1374 H 0.66594 0.78749 0.62262 0.0
H1375 H 0.65406 0.80174 0.60118 0.0
H1376 H 0.59251 0.74381 0.54409 0.0
H1377 H 0.59348 0.71508 0.53516 0.0
H1378 H 0.65234 0.74446 0.55488 0.0
H1379 H 0.65121 0.77313 0.56357 0.0
H1380 H 0.59432 0.77079 0.51502 0.0
H1381 H 0.59847 0.75929 0.48367 0.0
H1382 H 0.6576 0.78353 0.49985 0.0
H1383 H 0.65331 0.79488 0.53081 0.0
H1384 H 0.59578 0.81479 0.5357 0.0
H1385 H 0.60021 0.83794 0.51274 0.0
H1386 H 0.65642 0.84889 0.50544 0.0
H1387 H 0.65215 0.82654 0.52902 0.0
O1388 O 0.60424 0.81355 0.67114 0.0
O1389 O 0.63346 0.83787 0.66989 0.0
O1390 O 0.60966 0.69572 0.53177 0.0
O1391 O 0.63995 0.71018 0.54167 0.0
C1392 C 0.62176 0.81229 0.56816 0.0
C1393 C 0.62136 0.80113 0.58295 0.0
C1394 C 0.62187 0.78438 0.57867 0.0
C1395 C 0.62112 0.77797 0.55947 0.0
C1396 C 0.62106 0.78892 0.54468 0.0
C1397 C 0.62155 0.80616 0.54901 0.0
C1398 C 0.62617 0.83201 0.57289 0.0
C1399 C 0.61252 0.83588 0.57915 0.0
C1400 C 0.61749 0.85463 0.58459 0.0
C1401 C 0.63624 0.86969 0.58403 0.0
C1402 C 0.64973 0.86556 0.57754 0.0
C1403 C 0.6447 0.84696 0.57191 0.0
C1404 C 0.62104 0.80723 0.60309 0.0
C1405 C 0.60495 0.79662 0.61299 0.0
C1406 C 0.60453 0.80204 0.632 0.0
C1407 C 0.62026 0.81815 0.64147 0.0
C1408 C 0.63642 0.82868 0.63151 0.0
C1409 C 0.63683 0.82322 0.61252 0.0
C1410 C 0.6272 0.77592 0.59404 0.0
C1411 C 0.616 0.75662 0.59728 0.0
C1412 C 0.62319 0.74812 0.60889 0.0
C1413 C 0.64155 0.75893 0.61773 0.0
C1414 C 0.652 0.77859 0.61563 0.0
C1415 C 0.64504 0.78689 0.60367 0.0
C1416 C 0.62173 0.76044 0.55465 0.0
C1417 C 0.60557 0.74396 0.54653 0.0
C1418 C 0.60617 0.7276 0.54143 0.0
C1419 C 0.62299 0.72746 0.54435 0.0
C1420 C 0.63916 0.74406 0.55248 0.0
C1421 C 0.63855 0.76043 0.55753 0.0
C1422 C 0.62354 0.78371 0.52504 0.0
C1423 C 0.60818 0.77384 0.51157 0.0
C1424 C 0.61056 0.76722 0.49379 0.0
C1425 C 0.62838 0.77059 0.4893 0.0
C1426 C 0.64378 0.78099 0.50273 0.0
C1427 C 0.64135 0.78741 0.52044 0.0
C1428 C 0.62352 0.81874 0.53375 0.0
C1429 C 0.60896 0.82209 0.52896 0.0
C1430 C 0.61151 0.83527 0.51581 0.0
C1431 C 0.6287 0.84532 0.50726 0.0
C1432 C 0.64311 0.84163 0.51193 0.0
C1433 C 0.64059 0.82859 0.52515 0.0
C1434 C 0.61979 0.82384 0.66168 0.0
C1435 C 0.62372 0.71013 0.53887 0.0
H1436 H 0.17217 0.80834 0.69929 0.0
H1437 H 0.06099 0.67601 0.52421 0.0
H1438 H 0.17642 0.82605 0.59692 0.0
H1439 H 0.20007 0.85672 0.61246 0.0
H1440 H 0.24299 0.84253 0.60384 0.0
H1441 H 0.2188 0.81135 0.58807 0.0
H1442 H 0.15175 0.80053 0.61777 0.0
H1443 H 0.15677 0.80586 0.65241 0.0
H1444 H 0.19311 0.78239 0.65141 0.0
H1445 H 0.18778 0.77692 0.61671 0.0
H1446 H 0.12511 0.78238 0.58699 0.0
H1447 H 0.09725 0.77026 0.60484 0.0
H1448 H 0.10676 0.72632 0.62393 0.0
H1449 H 0.13553 0.73947 0.60659 0.0
H1450 H 0.11934 0.76915 0.54599 0.0
H1451 H 0.08963 0.74304 0.53078 0.0
H1452 H 0.10465 0.70259 0.54883 0.0
H1453 H 0.13442 0.72887 0.56377 0.0
H1454 H 0.15647 0.8036 0.53373 0.0
H1455 H 0.14332 0.79874 0.50128 0.0
H1456 H 0.14093 0.74478 0.49461 0.0
H1457 H 0.15584 0.75071 0.52681 0.0
H1458 H 0.18377 0.82978 0.55783 0.0
H1459 H 0.2047 0.85319 0.53712 0.0
H1460 H 0.22547 0.81621 0.51988 0.0
H1461 H 0.20371 0.7924 0.54037 0.0
O1462 O 0.17024 0.80592 0.68557 0.0
O1463 O 0.18877 0.7937 0.68429 0.0
O1464 O 0.06562 0.70799 0.52107 0.0
O1465 O 0.07264 0.68661 0.5301 0.0
C1466 C 0.18076 0.79779 0.58252 0.0
C1467 C 0.16646 0.78505 0.59366 0.0
C1468 C 0.14936 0.77018 0.58475 0.0
C1469 C 0.14727 0.76669 0.56478 0.0
C1470 C 0.16172 0.77911 0.55351 0.0
C1471 C 0.17842 0.79484 0.56243 0.0
C1472 C 0.19584 0.81634 0.59178 0.0
C1473 C 0.19087 0.82941 0.5986 0.0
C1474 C 0.20442 0.84692 0.6075 0.0
C1475 C 0.22333 0.85186 0.60973 0.0
C1476 C 0.22848 0.83899 0.60241 0.0
C1477 C 0.21475 0.82124 0.5935 0.0
C1478 C 0.16913 0.78802 0.61476 0.0
C1479 C 0.16055 0.79627 0.62506 0.0
C1480 C 0.16356 0.79944 0.64486 0.0
C1481 C 0.17529 0.79449 0.6547 0.0
C1482 C 0.18394 0.7863 0.64429 0.0
C1483 C 0.1809 0.78314 0.62448 0.0
C1484 C 0.13227 0.7618 0.59555 0.0
C1485 C 0.12115 0.77012 0.59504 0.0
C1486 C 0.1051 0.76302 0.60514 0.0
C1487 C 0.09953 0.74712 0.61571 0.0
C1488 C 0.11072 0.73869 0.61611 0.0
C1489 C 0.12706 0.74606 0.60615 0.0
C1490 C 0.12911 0.75088 0.55573 0.0
C1491 C 0.11623 0.75464 0.54652 0.0
C1492 C 0.09925 0.7397 0.53791 0.0
C1493 C 0.09479 0.72072 0.53853 0.0
C1494 C 0.10766 0.71703 0.54802 0.0
C1495 C 0.12466 0.732 0.55658 0.0
C1496 C 0.15746 0.77769 0.53262 0.0
C1497 C 0.15407 0.79121 0.52499 0.0
C1498 C 0.14605 0.78813 0.50652 0.0
C1499 C 0.14058 0.77112 0.49544 0.0
C1500 C 0.14501 0.75808 0.50268 0.0
C1501 C 0.15351 0.76142 0.5211 0.0
C1502 C 0.19234 0.80947 0.55073 0.0
C1503 C 0.19307 0.82686 0.54984 0.0
C1504 C 0.20516 0.8403 0.538 0.0
C1505 C 0.21699 0.83675 0.52688 0.0
C1506 C 0.21646 0.81938 0.52808 0.0
C1507 C 0.20415 0.8058 0.53986 0.0
C1508 C 0.17855 0.79798 0.67573 0.0
C1509 C 0.07679 0.70479 0.52936 0.0
H1510 H 0.20884 0.37879 0.70949 0.0
H1511 H 0.06211 0.35083 0.55512 0.0
H1512 H 0.22437 0.39631 0.6136 0.0
H1513 H 0.24696 0.38969 0.62963 0.0
H1514 H 0.22262 0.33602 0.59592 0.0
H1515 H 0.19935 0.342 0.58086 0.0
H1516 H 0.1897 0.3952 0.63502 0.0
H1517 H 0.19823 0.39339 0.6681 0.0
H1518 H 0.19126 0.33824 0.65295 0.0
H1519 H 0.18248 0.3401 0.62003 0.0
H1520 H 0.14843 0.38879 0.61415 0.0
H1521 H 0.12193 0.37763 0.63436 0.0
H1522 H 0.12118 0.32472 0.63818 0.0
H1523 H 0.1464 0.33535 0.61678 0.0
H1524 H 0.15577 0.39914 0.5694 0.0
H1525 H 0.12668 0.39836 0.5599 0.0
H1526 H 0.09455 0.33873 0.57021 0.0
H1527 H 0.12375 0.33967 0.57948 0.0
H1528 H 0.18593 0.39944 0.54196 0.0
H1529 H 0.17598 0.39656 0.50801 0.0
H1530 H 0.13418 0.33739 0.51224 0.0
H1531 H 0.14405 0.34038 0.54589 0.0
H1532 H 0.22361 0.3977 0.56152 0.0
H1533 H 0.24106 0.39396 0.53581 0.0
H1534 H 0.19439 0.33676 0.52112 0.0
H1535 H 0.17762 0.34038 0.5471 0.0
O1536 O 0.20522 0.37912 0.69638 0.0
O1537 O 0.2018 0.35098 0.68775 0.0
O1538 O 0.091 0.3822 0.5537 0.0
O1539 O 0.07383 0.35153 0.55881 0.0
C1540 C 0.19336 0.37087 0.5907 0.0
C1541 C 0.18106 0.36937 0.60491 0.0
C1542 C 0.16392 0.36841 0.59988 0.0
C1543 C 0.1596 0.37011 0.58079 0.0
C1544 C 0.17172 0.37135 0.5666 0.0
C1545 C 0.18838 0.37128 0.57143 0.0
C1546 C 0.2102 0.36966 0.59602 0.0
C1547 C 0.2243 0.3834 0.60924 0.0
C1548 C 0.23714 0.37964 0.61838 0.0
C1549 C 0.23643 0.36241 0.61387 0.0
C1550 C 0.22351 0.3495 0.59939 0.0
C1551 C 0.21033 0.35299 0.59066 0.0
C1552 C 0.18567 0.36789 0.6251 0.0
C1553 C 0.18995 0.38271 0.63891 0.0
C1554 C 0.19486 0.38166 0.65777 0.0
C1555 C 0.19553 0.36571 0.66315 0.0
C1556 C 0.19096 0.35075 0.64929 0.0
C1557 C 0.186 0.3518 0.63046 0.0
C1558 C 0.14939 0.36291 0.61398 0.0
C1559 C 0.14252 0.37482 0.61942 0.0
C1560 C 0.12745 0.36844 0.63112 0.0
C1561 C 0.1192 0.35015 0.63784 0.0
C1562 C 0.12676 0.33867 0.63296 0.0
C1563 C 0.14147 0.34487 0.62097 0.0
C1564 C 0.14183 0.36952 0.5753 0.0
C1565 C 0.14242 0.38594 0.56961 0.0
C1566 C 0.12579 0.38545 0.5642 0.0
C1567 C 0.10827 0.36849 0.56435 0.0
C1568 C 0.10778 0.35204 0.56998 0.0
C1569 C 0.12443 0.35254 0.57535 0.0
C1570 C 0.16563 0.37012 0.54631 0.0
C1571 C 0.17459 0.38592 0.53549 0.0
C1572 C 0.1689 0.38427 0.51622 0.0
C1573 C 0.15444 0.36672 0.50756 0.0
C1574 C 0.14552 0.35101 0.51852 0.0
C1575 C 0.15102 0.35272 0.53773 0.0
C1576 C 0.1993 0.36937 0.55607 0.0
C1577 C 0.21728 0.38437 0.55276 0.0
C1578 C 0.22714 0.38223 0.538 0.0
C1579 C 0.21917 0.36502 0.52642 0.0
C1580 C 0.20114 0.35008 0.52991 0.0
C1581 C 0.1914 0.3522 0.54462 0.0
C1582 C 0.20102 0.36475 0.68313 0.0
C1583 C 0.09057 0.3679 0.55862 0.0
H1584 H 0.02399 0.41279 0.05945 0.0
H1585 H 0.9619 0.41528 0.14236 0.0
H1586 H 0.9723 0.36346 0.07326 0.0
H1587 H 0.01001 0.46548 0.12404 0.0
H1588 H 0.96452 0.39626 0.11621 0.0
H1589 H 0.01872 0.4324 0.08269 0.0
C1590 C 0.01155 0.40607 0.06742 0.0
C1591 C -0.00139 0.38645 0.06449 0.0
C1592 C 0.97439 0.41147 0.11778 0.0
C1593 C 0.99243 0.40883 0.09106 0.0
C1594 C 0.97279 0.42238 0.13261 0.0
C1595 C 0.98582 0.442 0.13545 0.0
C1596 C 0.9892 0.42022 0.10577 0.0
C1597 C -0.00016 0.45035 0.12255 0.0
C1598 C 0.0085 0.4173 0.08062 0.0
C1599 C 0.98268 0.37853 0.07513 0.0
N1600 N 0.00126 0.43939 0.10838 0.0
N1601 N 0.98007 0.38974 0.08799 0.0
H1602 H 0.61141 0.56468 0.09177 0.0
H1603 H 0.56562 0.53976 0.19178 0.0
H1604 H 0.58682 0.59382 0.12008 0.0
H1605 H 0.56116 0.49578 0.15168 0.0
H1606 H 0.58296 0.56334 0.1693 0.0
H1607 H 0.60168 0.54258 0.11726 0.0
C1608 C 0.6042 0.56654 0.10346 0.0
C1609 C 0.5997 0.58089 0.10382 0.0
C1610 C 0.57836 0.54855 0.16552 0.0
C1611 C 0.58906 0.55625 0.13288 0.0
C1612 C 0.56842 0.53507 0.17829 0.0
C1613 C 0.5615 0.5157 0.17339 0.0
C1614 C 0.5816 0.5427 0.14775 0.0
C1615 C 0.56612 0.51056 0.15598 0.0
C1616 C 0.59864 0.55397 0.11788 0.0
C1617 C 0.59034 0.58278 0.11918 0.0
N1618 N 0.57572 0.52398 0.14362 0.0
N1619 N 0.58538 0.57064 0.1331 0.0
H1620 H 0.42341 0.97654 0.05286 0.0
H1621 H 0.46173 0.03385 0.15525 0.0
H1622 H 0.41451 0.02212 0.07176 0.0
H1623 H 0.46494 0.98456 0.1372 0.0
H1624 H 0.44831 0.03284 0.12336 0.0
H1625 H 0.44247 0.98236 0.08222 0.0
C1626 C 0.42554 0.98787 0.06314 0.0
C1627 C 0.41714 -0.00129 0.05991 0.0
C1628 C 0.45211 0.02235 0.12635 0.0
C1629 C 0.43898 0.00541 0.09374 0.0
C1630 C 0.45986 0.02299 0.14449 0.0
C1631 C 0.46427 0.00915 0.14888 0.0
C1632 C 0.44885 0.00781 0.11254 0.0
C1633 C 0.46144 0.99531 0.13448 0.0
C1634 C 0.43646 0.99119 0.07994 0.0
C1635 C 0.42061 0.01333 0.07371 0.0
N1636 N 0.45383 0.99494 0.11701 0.0
N1637 N 0.43115 0.01615 0.09012 0.0
H1638 H 0.37946 0.96561 0.95134 0.0
H1639 H 0.47083 0.01605 0.89182 0.0
H1640 H 0.42661 0.02252 0.96546 0.0
H1641 H 0.42325 0.96002 0.87514 0.0
H1642 H 0.45436 0.01856 0.91866 0.0
H1643 H 0.39483 0.9631 0.92319 0.0
C1644 C 0.393 0.97758 0.94849 0.0
C1645 C 0.4018 0.99428 0.96077 0.0
C1646 C 0.44745 0.00572 0.90912 0.0
C1647 C 0.41942 0.9915 0.92871 0.0
C1648 C 0.45681 0.00433 0.89368 0.0
C1649 C 0.44837 0.98784 0.88111 0.0
C1650 C 0.42948 0.99048 0.91214 0.0
C1651 C 0.43035 0.97293 0.88456 0.0
C1652 C 0.40176 0.97614 0.93244 0.0
C1653 C 0.41933 0.00936 0.95642 0.0
N1654 N 0.42149 0.9746 0.89976 0.0
N1655 N 0.42756 0.00758 0.94078 0.0
H1656 H 0.02688 0.39238 0.96385 0.0
H1657 H 0.99181 0.45698 0.9172 0.0
H1658 H 0.97572 0.39171 0.97554 0.0
H1659 H 0.03623 0.45092 0.89421 0.0
H1660 H 0.98826 0.43506 0.94081 0.0
H1661 H 0.03271 0.4153 0.93984 0.0
C1662 C 0.01687 0.39694 0.96136 0.0
C1663 C 0.00081 0.3901 0.97182 0.0
C1664 C -0.00121 0.43844 0.93062 0.0
C1665 C 0.00748 0.41632 0.94468 0.0
C1666 C 0.00079 0.45095 0.91707 0.0
C1667 C 0.01413 0.45558 0.90349 0.0
C1668 C 0.01025 0.43041 0.93079 0.0
C1669 C 0.02576 0.44773 0.90442 0.0
C1670 C 0.02022 0.41002 0.9477 0.0
C1671 C 0.98834 0.39654 0.96798 0.0
N1672 N 0.02349 0.43542 0.9178 0.0
N1673 N 0.99198 0.40925 0.95485 0.0
H1674 H 0.60261 0.58349 0.99424 0.0
H1675 H 0.5207 0.57531 0.92622 0.0
H1676 H 0.57657 0.61599 0.0093 0.0
H1677 H 0.56949 0.57622 0.90513 0.0
H1678 H 0.53693 0.58555 0.95818 0.0
H1679 H 0.58572 0.57472 0.96287 0.0
C1680 C 0.59322 0.58866 0.99099 0.0
C1681 C 0.59102 0.60055 0.00432 0.0
C1682 C 0.54397 0.5835 0.94645 0.0
C1683 C 0.57159 0.59044 0.96856 0.0
C1684 C 0.5348 0.57775 0.9282 0.0
C1685 C 0.54356 0.57454 0.91291 0.0
C1686 C 0.56182 0.5857 0.94942 0.0
C1687 C 0.56183 0.57783 0.91648 0.0
C1688 C 0.58369 0.58375 0.97307 0.0
C1689 C 0.5787 0.60689 -0.00067 0.0
N1690 N 0.57022 0.58298 0.93436 0.0
N1691 N 0.56931 0.60166 0.98181 0.0
H1692 H 0.97783 0.5684 0.00645 0.0
H1693 H 0.03457 0.58436 0.91392 0.0
H1694 H 0.01539 0.62454 0.98874 0.0
H1695 H 0.00698 0.53135 0.94059 0.0
H1696 H 0.02891 0.59989 0.94132 0.0
H1697 H 0.9889 0.55499 0.98231 0.0
C1698 C 0.98843 0.57795 -0.00255 0.0
C1699 C -0.00443 0.59763 -0.00048 0.0
C1700 C 0.02433 0.58493 0.94127 0.0
C1701 C 0.00837 0.58226 0.97169 0.0
C1702 C 0.02767 0.57607 0.9257 0.0
C1703 C 0.0211 0.55647 0.9249 0.0
C1704 C 0.01424 0.57407 0.95604 0.0
C1705 C 0.01199 0.5464 0.94045 0.0
C1706 C -0.00516 0.57026 0.98371 0.0
C1707 C 0.00947 0.60928 0.98759 0.0
N1708 N 0.00868 0.55527 0.95526 0.0
N1709 N 0.0153 0.60138 0.97402 0.0
H1710 H 0.41281 0.40213 0.94188 0.0
H1711 H 0.43266 0.49629 0.89526 0.0
H1712 H 0.37991 0.42827 0.95337 0.0
H1713 H 0.45102 0.45884 0.87308 0.0
H1714 H 0.41348 0.47238 0.91708 0.0
H1715 H 0.42777 0.42388 0.91733 0.0
C1716 C 0.40871 0.41245 0.93919 0.0
C1717 C 0.39517 0.41347 0.9497 0.0
C1718 C 0.42162 0.4694 0.90731 0.0
C1719 C 0.41232 0.43853 0.92164 0.0
C1720 C 0.43251 0.48299 0.89485 0.0
C1721 C 0.44372 0.47968 0.8826 0.0
C1722 C 0.42208 0.45252 0.90752 0.0
C1723 C 0.44303 0.46222 0.88265 0.0
C1724 C 0.41719 0.42482 0.9251 0.0
C1725 C 0.3903 0.42704 0.94554 0.0
N1726 N 0.43256 0.4494 0.89503 0.0
N1727 N 0.39902 0.43921 0.93191 0.0
H1728 H 0.59585 0.02982 0.99188 0.0
H1729 H 0.52163 0.95514 0.9111 0.0
H1730 H 0.582 0.97125 0.98747 0.0
H1731 H 0.55575 0.01557 0.9052 0.0
H1732 H 0.53979 0.95972 0.94116 0.0
H1733 H 0.57685 0.0237 0.96241 0.0
C1734 C 0.58875 0.01561 0.98476 0.0
C1735 C 0.59058 0.00102 0.99217 0.0
C1736 C 0.54318 0.97191 0.93322 0.0
C1737 C 0.56865 0.99393 0.9583 0.0
C1738 C 0.53287 0.96934 0.91604 0.0
C1739 C 0.53696 0.98501 0.90555 0.0
C1740 C 0.55749 0.99029 0.94007 0.0
C1741 C 0.55161 0.00309 0.9129 0.0
C1742 C 0.57795 0.01217 0.96786 0.0
C1743 C 0.58105 0.98292 0.9822 0.0
N1744 N 0.56122 0.00521 0.92968 0.0
N1745 N 0.57039 0.97984 0.96577 0.0
H1746 H 0.57086 0.98042 0.08026 0.0
H1747 H 0.57548 0.02472 0.18493 0.0
H1748 H 0.6223 0.02792 0.10711 0.0
H1749 H 0.52402 0.99097 0.14924 0.0
H1750 H 0.59338 0.02491 0.15789 0.0
H1751 H 0.55394 0.98245 0.10694 0.0
C1752 C 0.57862 0.9913 0.0918 0.0
C1753 C 0.59804 0.00402 0.09146 0.0
C1754 C 0.57817 0.01754 0.15603 0.0
C1755 C 0.57868 0.00638 0.12219 0.0
C1756 C 0.56793 0.01747 0.17142 0.0
C1757 C 0.54816 0.00764 0.16947 0.0
C1758 C 0.56856 0.00758 0.13863 0.0
C1759 C 0.53919 -0.00166 0.15163 0.0
C1760 C 0.56892 0.99249 0.10701 0.0
C1761 C 0.60732 0.01786 0.10681 0.0
N1762 N 0.54943 -0.00155 0.137 0.0
N1763 N 0.59756 0.01861 0.12165 0.0
H1764 H 0.00764 0.59696 0.07967 0.0
H1765 H 0.96444 0.54667 0.17351 0.0
H1766 H 0.9605 0.59783 0.10276 0.0
H1767 H -0.00486 0.53037 0.13646 0.0
H1768 H 0.96398 0.56708 0.14954 0.0
H1769 H 0.00508 0.57473 0.10259 0.0
C1770 C -0.00325 0.5925 0.08962 0.0
C1771 C 0.98427 0.59927 0.08933 0.0
C1772 C 0.9707 0.55892 0.14668 0.0
C1773 C 0.98129 0.57377 0.11571 0.0
C1774 C 0.97091 0.5472 0.16029 0.0
C1775 C 0.98005 0.53693 0.15711 0.0
C1776 C 0.97985 0.56049 0.1299 0.0
C1777 C 0.98835 0.53837 0.13979 0.0
C1778 C -0.00477 0.5797 0.10264 0.0
C1779 C 0.97037 0.59291 0.10251 0.0
N1780 N 0.98819 0.55004 0.12694 0.0
N1781 N 0.96932 0.58057 0.11531 0.0
H1782 H 0.42826 0.43586 0.04624 0.0
H1783 H 0.45228 0.39497 0.13565 0.0
H1784 H 0.40466 0.37564 0.05081 0.0
H1785 H 0.48406 0.454 0.12361 0.0
H1786 H 0.43576 0.38713 0.10408 0.0
H1787 H 0.44948 0.4425 0.07414 0.0
C1788 C 0.42759 0.42401 0.05307 0.0
C1789 C 0.41454 0.40516 0.04626 0.0
C1790 C 0.44653 0.40175 0.10826 0.0
C1791 C 0.43881 0.41268 0.07836 0.0
C1792 C 0.45606 0.40623 0.12624 0.0
C1793 C 0.46943 0.42522 0.13237 0.0
C1794 C 0.45031 0.4164 0.09641 0.0
C1795 C 0.47358 0.43924 0.11963 0.0
C1796 C 0.43979 0.42782 0.06897 0.0
C1797 C 0.41446 0.39039 0.0556 0.0
N1798 N 0.46391 0.43458 0.10237 0.0
N1799 N 0.42627 0.39446 0.07132 0.0
H1800 H 0.62452 0.69236 0.39952 0.0
H1801 H 0.65697 0.78779 0.46569 0.0
H1802 H 0.6789 0.74364 0.39915 0.0
H1803 H 0.60586 0.73459 0.4721 0.0
H1804 H 0.66338 0.77272 0.4386 0.0
H1805 H 0.61588 0.70832 0.42389 0.0
C1806 C 0.63465 0.70696 0.40459 0.0
C1807 C 0.65249 0.71667 0.39738 0.0
C1808 C 0.65069 0.76435 0.44583 0.0
C1809 C 0.64265 0.73503 0.42509 0.0
C1810 C 0.64703 0.77296 0.46129 0.0
C1811 C 0.63096 0.76237 0.47127 0.0
C1812 C 0.63822 0.74499 0.4403 0.0
C1813 C 0.61837 0.74329 0.46475 0.0
C1814 C 0.62969 0.71607 0.41846 0.0
C1815 C 0.66503 0.73559 0.40438 0.0
N1816 N 0.62236 0.73515 0.44977 0.0
N1817 N 0.65987 0.74414 0.41785 0.0
H1818 H 0.24931 0.9281 0.45777 0.0
H1819 H 0.22558 0.82978 0.49104 0.0
H1820 H 0.27393 0.89844 0.4306 0.0
H1821 H 0.23552 0.87582 0.53168 0.0
H1822 H 0.24128 0.85295 0.46755 0.0
H1823 H 0.24124 0.90729 0.48385 0.0
C1824 C 0.25307 0.91723 0.45737 0.0
C1825 C 0.26223 0.91489 0.44206 0.0
C1826 C 0.24021 0.85792 0.48173 0.0
C1827 C 0.25279 0.89092 0.4716 0.0
C1828 C 0.23133 0.84473 0.4952 0.0
C1829 C 0.22885 0.85075 0.51334 0.0
C1830 C 0.2463 0.87714 0.48632 0.0
C1831 C 0.23649 0.87037 0.51772 0.0
C1832 C 0.24858 0.90547 0.47228 0.0
C1833 C 0.26691 0.90068 0.44224 0.0
N1834 N 0.24452 0.8828 0.50421 0.0
N1835 N 0.26183 0.88894 0.45666 0.0
H1836 H 0.10531 0.31481 0.39595 0.0
H1837 H 0.14525 0.38914 0.48785 0.0
H1838 H 0.09452 0.36087 0.40415 0.0
H1839 H 0.14972 0.33905 0.48109 0.0
H1840 H 0.1312 0.38237 0.45505 0.0
H1841 H 0.12606 0.32683 0.4249 0.0
C1842 C 0.10737 0.32753 0.40378 0.0
C1843 C 0.09792 0.33668 0.39774 0.0
C1844 C 0.13546 0.37299 0.46069 0.0
C1845 C 0.1217 0.35052 0.43106 0.0
C1846 C 0.14355 0.37691 0.47933 0.0
C1847 C 0.14838 0.36447 0.48717 0.0
C1848 C 0.13233 0.3566 0.44991 0.0
C1849 C 0.14587 0.34879 0.47563 0.0
C1850 C 0.11926 0.3344 0.42034 0.0
C1851 C 0.10139 0.35326 0.40837 0.0
N1852 N 0.1379 0.34523 0.45765 0.0
N1853 N 0.11286 0.35955 0.42464 0.0
H1854 H 0.05212 0.28508 0.29149 0.0
H1855 H 0.13704 0.32273 0.22313 0.0
H1856 H 0.1034 0.33987 0.30033 0.0
H1857 H 0.08431 0.2699 0.2104 0.0
H1858 H 0.12509 0.3284 0.25219 0.0
H1859 H 0.06389 0.27833 0.26254 0.0
C1860 C 0.06586 0.29566 0.28737 0.0
C1861 C 0.07679 0.31308 0.2983 0.0
C1862 C 0.11607 0.31558 0.24305 0.0
C1863 C 0.09029 0.30547 0.26529 0.0
C1864 C 0.12284 0.3124 0.22636 0.0
C1865 C 0.11155 0.29594 0.21418 0.0
C1866 C 0.09786 0.30219 0.24773 0.0
C1867 C 0.09348 0.28277 0.21941 0.0
C1868 C 0.07254 0.29181 0.27084 0.0
C1869 C 0.09448 0.32628 0.29232 0.0
N1870 N 0.08715 0.28621 0.2358 0.0
N1871 N 0.10066 0.3222 0.27623 0.0
H1872 H 0.65515 0.74551 0.31355 0.0
H1873 H 0.72322 0.79528 0.2307 0.0
H1874 H 0.69648 0.73118 0.29745 0.0
H1875 H 0.68524 0.8115 0.25326 0.0
H1876 H 0.71513 0.77264 0.25534 0.0
H1877 H 0.66709 0.77023 0.29166 0.0
C1878 C 0.66677 0.74753 0.30537 0.0
C1879 C 0.6747 0.73608 0.30727 0.0
C1880 C 0.70869 0.78127 0.25493 0.0
C1881 C 0.6886 0.7647 0.28191 0.0
C1882 C 0.71336 0.79423 0.24095 0.0
C1883 C 0.70467 0.80508 0.23978 0.0
C1884 C 0.6953 0.77924 0.26777 0.0
C1885 C 0.69197 0.80314 0.25336 0.0
C1886 C 0.67367 0.76178 0.29286 0.0
C1887 C 0.6899 0.73963 0.29638 0.0
N1888 N 0.68761 0.79042 0.26665 0.0
N1889 N 0.6963 0.75357 0.28403 0.0
H1890 H 0.2458 0.95236 0.34072 0.0
H1891 H 0.2006 0.87295 0.25304 0.0
H1892 H 0.24821 0.90093 0.33756 0.0
H1893 H 0.20173 0.9262 0.25401 0.0
H1894 H 0.21476 0.88135 0.28563 0.0
H1895 H 0.22646 0.94142 0.31065 0.0
C1896 C 0.24216 0.9387 0.33376 0.0
C1897 C 0.24876 0.9276 0.34157 0.0
C1898 C 0.21181 0.89116 0.27878 0.0
C1899 C 0.22666 0.91502 0.30713 0.0
C1900 C 0.20379 0.8864 0.26015 0.0
C1901 C 0.20023 0.89902 0.25071 0.0
C1902 C 0.21638 0.90871 0.28807 0.0
C1903 C 0.20423 0.91605 0.26076 0.0
C1904 C 0.23112 0.93247 0.31659 0.0
C1905 C 0.24353 0.90999 0.33199 0.0
N1906 N 0.21226 0.92048 0.27885 0.0
N1907 N 0.23288 0.9043 0.31522 0.0
H1908 H 0.69887 0.95725 0.32997 0.0
H1909 H 0.69652 0.87016 0.27081 0.0
H1910 H 0.66408 0.89819 0.34109 0.0
H1911 H 0.72857 0.92811 0.25564 0.0
H1912 H 0.68894 0.88128 0.30003 0.0
H1913 H 0.71396 0.94792 0.30593 0.0
C1914 C 0.69455 0.94237 0.32752 0.0
C1915 C 0.67999 0.92845 0.33737 0.0
C1916 C 0.69781 0.89165 0.29046 0.0
C1917 C 0.6972 0.91773 0.30999 0.0
C1918 C 0.70215 0.88528 0.27381 0.0
C1919 C 0.71298 0.89823 0.26076 0.0
C1920 C 0.70417 0.9111 0.29402 0.0
C1921 C 0.72016 0.91769 0.26538 0.0
C1922 C 0.70316 0.93706 0.31379 0.0
C1923 C 0.67503 0.9094 0.33367 0.0
N1924 N 0.71539 0.92354 0.28154 0.0
N1925 N 0.68352 0.90462 0.32021 0.0
H1926 H 0.03998 0.75763 0.28416 0.0
H1927 H 0.1393 0.83021 0.24536 0.0
H1928 H 0.09267 0.76385 0.30465 0.0
H1929 H 0.08646 0.8107 0.21325 0.0
H1930 H 0.1222 0.81 0.27039 0.0
H1931 H 0.05673 0.78101 0.26105 0.0
C1932 C 0.05507 0.76398 0.28386 0.0
C1933 C 0.06496 0.75874 0.29624 0.0
C1934 C 0.11435 0.81019 0.25789 0.0
C1935 C 0.08412 0.78548 0.27007 0.0
C1936 C 0.12409 0.82166 0.24356 0.0
C1937 C 0.11432 0.82191 0.22702 0.0
C1938 C 0.09465 0.79895 0.25579 0.0
C1939 C 0.09456 0.81098 0.22576 0.0
C1940 C 0.06458 0.77726 0.27067 0.0
C1941 C 0.08449 0.76739 0.29527 0.0
N1942 N 0.08536 0.79983 0.23992 0.0
N1943 N 0.09343 0.78035 0.28242 0.0
H1944 H 0.22708 0.3331 0.33199 0.0
H1945 H 0.20258 0.27272 0.232 0.0
H1946 H 0.2498 0.29734 0.31767 0.0
H1947 H 0.17483 0.30257 0.25057 0.0
H1948 H 0.21821 0.27934 0.26392 0.0
H1949 H 0.2063 0.32014 0.30304 0.0
C1950 C 0.2276 0.32239 0.32282 0.0
C1951 C 0.24035 0.31644 0.3272 0.0
C1952 C 0.20853 0.28425 0.26107 0.0
C1953 C 0.21659 0.3016 0.29377 0.0
C1954 C 0.19951 0.28037 0.24287 0.0
C1955 C 0.1875 0.28727 0.23852 0.0
C1956 C 0.2056 0.29518 0.27501 0.0
C1957 C 0.18425 0.29731 0.25314 0.0
C1958 C 0.21568 0.31496 0.30626 0.0
C1959 C 0.24023 0.30237 0.31483 0.0
N1960 N 0.19337 0.30109 0.27063 0.0
N1961 N 0.2287 0.2956 0.29855 0.0
H1962 H 0.28327 0.37626 0.42729 0.0
H1963 H 0.22061 0.33325 0.51562 0.0
H1964 H 0.24766 0.31613 0.4334 0.0
H1965 H 0.24099 0.39084 0.50119 0.0
H1966 H 0.23473 0.32804 0.48799 0.0
H1967 H 0.27188 0.38306 0.45665 0.0
C1968 C 0.27312 0.36451 0.43483 0.0
C1969 C 0.26634 0.34559 0.42786 0.0
C1970 C 0.23616 0.34184 0.49087 0.0
C1971 C 0.25346 0.35327 0.46142 0.0
C1972 C 0.22803 0.34482 0.50662 0.0
C1973 C 0.22932 0.36243 0.51061 0.0
C1974 C 0.24583 0.35659 0.47898 0.0
C1975 C 0.23965 0.37705 0.49872 0.0
C1976 C 0.26662 0.3684 0.45153 0.0
C1977 C 0.25319 0.33092 0.43818 0.0
N1978 N 0.24744 0.37378 0.48337 0.0
N1979 N 0.24724 0.33507 0.45443 0.0
H1980 H 0.68012 0.93947 0.43639 0.0
H1981 H 0.60374 0.84419 0.47971 0.0
H1982 H 0.62061 0.91174 0.42064 0.0
H1983 H 0.66075 0.87979 0.50422 0.0
H1984 H 0.60963 0.86814 0.45732 0.0
H1985 H 0.67341 0.917 0.46063 0.0
C1986 C 0.66563 0.9287 0.43809 0.0
C1987 C 0.6509 0.92744 0.42646 0.0
C1988 C 0.62082 0.87071 0.46765 0.0
C1989 C 0.64312 0.90158 0.45407 0.0
C1990 C 0.61745 0.85708 0.4805 0.0
C1991 C 0.63181 0.85988 0.49381 0.0
C1992 C 0.63871 0.88721 0.46803 0.0
C1993 C 0.64937 0.87678 0.49396 0.0
C1994 C 0.6618 0.91589 0.45195 0.0
C1995 C 0.63238 0.91323 0.42932 0.0
N1996 N 0.65234 0.88974 0.48122 0.0
N1997 N 0.62902 0.90076 0.44275 0.0
H1998 H 0.07859 0.72223 0.38535 0.0
H1999 H 0.11282 0.77896 0.48751 0.0
H2000 H 0.06794 0.76676 0.40355 0.0
H2001 H 0.1409 0.75195 0.46213 0.0
H2002 H 0.09357 0.77141 0.45799 0.0
H2003 H 0.09877 0.7297 0.41462 0.0
C2004 C 0.08045 0.73353 0.3955 0.0
C2005 C 0.07156 0.74389 0.39201 0.0
C2006 C 0.10402 0.76724 0.45882 0.0
C2007 C 0.09446 0.75237 0.42544 0.0
C2008 C 0.11518 0.77168 0.47566 0.0
C2009 C 0.12884 0.76643 0.47728 0.0
C2010 C 0.10622 0.75717 0.44346 0.0
C2011 C 0.13056 0.75627 0.46158 0.0
C2012 C 0.09202 0.73783 0.41213 0.0
C2013 C 0.07454 0.75845 0.40561 0.0
N2014 N 0.11935 0.75194 0.4453 0.0
N2015 N 0.08565 0.76217 0.42175 0.0
H2016 H 0.28987 0.02921 0.72826 0.0
H2017 H 0.3094 0.12419 0.78732 0.0
H2018 H 0.33899 0.08441 0.72301 0.0
H2019 H 0.27215 0.06768 0.80441 0.0
H2020 H 0.31653 0.11016 0.75982 0.0
H2021 H 0.2795 0.04358 0.75251 0.0
C2022 C 0.29844 0.04437 0.73216 0.0
C2023 C 0.31539 0.05563 0.72372 0.0
C2024 C 0.30668 0.10087 0.76953 0.0
C2025 C 0.30353 0.07214 0.75131 0.0
C2026 C 0.30262 0.10885 0.78525 0.0
C2027 C 0.29029 0.09713 0.79836 0.0
C2028 C 0.29825 0.08102 0.76679 0.0
C2029 C 0.2816 0.07731 0.79465 0.0
C2030 C 0.29252 0.05254 0.746 0.0
C2031 C 0.32591 0.0752 0.72927 0.0
N2032 N 0.28583 0.06989 0.77928 0.0
N2033 N 0.3198 0.08285 0.74274 0.0
H2034 H 0.91119 0.24978 0.77202 0.0
H2035 H 0.89779 0.15803 0.81519 0.0
H2036 H 0.94473 0.22638 0.75317 0.0
H2037 H 0.8935 0.20137 0.8481 0.0
H2038 H 0.91392 0.18089 0.79133 0.0
H2039 H 0.90242 0.22988 0.7987 0.0
C2040 C 0.91672 0.24041 0.77354 0.0
C2041 C 0.92861 0.23961 0.76037 0.0
C2042 C 0.90969 0.18539 0.80395 0.0
C2043 C 0.91846 0.21664 0.7908 0.0
C2044 C 0.90053 0.17241 0.81758 0.0
C2045 C 0.89391 0.17768 0.83345 0.0
C2046 C 0.91196 0.20359 0.8062 0.0
C2047 C 0.89783 0.1965 0.83581 0.0
C2048 C 0.91182 0.22917 0.78884 0.0
C2049 C 0.93553 0.22738 0.76309 0.0
N2050 N 0.9063 0.20864 0.82219 0.0
N2051 N 0.9301 0.21607 0.77791 0.0
H2052 H 0.76678 0.65151 0.7247 0.0
H2053 H 0.80672 0.72514 0.8173 0.0
H2054 H 0.75651 0.69791 0.73319 0.0
H2055 H 0.80834 0.6734 0.81125 0.0
H2056 H 0.79317 0.7188 0.78431 0.0
H2057 H 0.7869 0.66283 0.75411 0.0
C2058 C 0.76885 0.66418 0.73267 0.0
C2059 C 0.75971 0.67362 0.72657 0.0
C2060 C 0.79668 0.70896 0.79017 0.0
C2061 C 0.78275 0.68663 0.76041 0.0
C2062 C 0.80448 0.71262 0.80891 0.0
C2063 C 0.8084 0.69963 0.81699 0.0
C2064 C 0.79295 0.69228 0.7795 0.0
C2065 C 0.80522 0.6836 0.8056 0.0
C2066 C 0.78036 0.67063 0.74949 0.0
C2067 C 0.76314 0.69009 0.73742 0.0
N2068 N 0.79759 0.68032 0.78749 0.0
N2069 N 0.77426 0.69598 0.75393 0.0
H2070 H 0.71224 0.62304 0.62025 0.0
H2071 H 0.79615 0.66191 0.55066 0.0
H2072 H 0.76119 0.67971 0.62673 0.0
H2073 H 0.7445 0.60774 0.53942 0.0
H2074 H 0.78355 0.6683 0.57886 0.0
H2075 H 0.72389 0.61666 0.59102 0.0
C2076 C 0.72542 0.63414 0.61552 0.0
C2077 C 0.73578 0.65193 0.62594 0.0
C2078 C 0.7749 0.65504 0.5702 0.0
C2079 C 0.74917 0.64473 0.5926 0.0
C2080 C 0.78204 0.65144 0.55398 0.0
C2081 C 0.77132 0.63431 0.54253 0.0
C2082 C 0.75691 0.64139 0.57517 0.0
C2083 C 0.75332 0.62107 0.5479 0.0
C2084 C 0.73204 0.6305 0.59883 0.0
C2085 C 0.75275 0.66579 0.61916 0.0
N2086 N 0.74668 0.62488 0.56386 0.0
N2087 N 0.75892 0.66188 0.60295 0.0
H2088 H 0.3143 0.05147 0.61271 0.0
H2089 H 0.39622 0.1488 0.57993 0.0
H2090 H 0.37061 0.07865 0.63934 0.0
H2091 H 0.34506 0.11091 0.54533 0.0
H2092 H 0.3882 0.12355 0.60154 0.0
H2093 H 0.32599 0.07326 0.58768 0.0
C2094 C 0.3292 0.06198 0.61318 0.0
C2095 C 0.3415 0.06336 0.62816 0.0
C2096 C 0.37888 0.12074 0.58909 0.0
C2097 C 0.355 0.08864 0.59963 0.0
C2098 C 0.38346 0.13511 0.57674 0.0
C2099 C 0.37109 0.13208 0.56103 0.0
C2100 C 0.36179 0.10332 0.58568 0.0
C2101 C 0.35474 0.11408 0.55756 0.0
C2102 C 0.33589 0.0744 0.59884 0.0
C2103 C 0.36069 0.07713 0.628 0.0
N2104 N 0.35049 0.1005 0.56989 0.0
N2105 N 0.36685 0.08949 0.61408 0.0
H2106 H 0.92526 0.23119 0.65578 0.0
H2107 H 0.86969 0.25292 0.57565 0.0
H2108 H 0.91769 0.27956 0.66002 0.0
H2109 H 0.87225 0.20157 0.57375 0.0
H2110 H 0.88604 0.26216 0.60729 0.0
H2111 H 0.90512 0.21954 0.62613 0.0
C2112 C 0.91933 0.23932 0.6505 0.0
C2113 C 0.92322 0.2564 0.66032 0.0
C2114 C 0.88292 0.2488 0.60001 0.0
C2115 C 0.90021 0.24321 0.62646 0.0
C2116 C 0.87345 0.24345 0.58199 0.0
C2117 C 0.86972 0.22652 0.57195 0.0
C2118 C 0.88879 0.23719 0.60805 0.0
C2119 C 0.87516 0.21494 0.58081 0.0
C2120 C 0.9078 0.23266 0.6336 0.0
C2121 C 0.91512 0.26635 0.65287 0.0
N2122 N 0.88454 0.22055 0.59829 0.0
N2123 N 0.90408 0.25965 0.63636 0.0
H2124 H 0.36454 0.28534 0.67042 0.0
H2125 H 0.34025 0.23017 0.56807 0.0
H2126 H 0.30772 0.24818 0.64612 0.0
H2127 H 0.38843 0.23964 0.60331 0.0
H2128 H 0.33081 0.24294 0.59445 0.0
H2129 H 0.37613 0.27459 0.64372 0.0
C2130 C 0.35454 0.27503 0.65943 0.0
C2131 C 0.33514 0.26759 0.66046 0.0
C2132 C 0.34343 0.24219 0.59641 0.0
C2133 C 0.34826 0.25555 0.63003 0.0
C2134 C 0.34879 0.23475 0.5814 0.0
C2135 C 0.36492 0.2333 0.58357 0.0
C2136 C 0.35443 0.24864 0.61369 0.0
C2137 C 0.37585 0.24039 0.60099 0.0
C2138 C 0.36115 0.26886 0.64432 0.0
C2139 C 0.32277 0.2542 0.64594 0.0
N2140 N 0.37038 0.24774 0.61545 0.0
N2141 N 0.32955 0.24871 0.63127 0.0
H2142 H 0.76028 0.0796 0.61799 0.0
H2143 H 0.75259 0.13532 0.53265 0.0
H2144 H 0.71036 0.0824 0.60599 0.0
H2145 H 0.80539 0.15012 0.56227 0.0
H2146 H 0.73591 0.11338 0.55689 0.0
H2147 H 0.77614 0.10242 0.59438 0.0
C2148 C 0.75263 0.08496 0.61032 0.0
C2149 C 0.73401 0.07916 0.61396 0.0
C2150 C 0.75115 0.12153 0.55805 0.0
C2151 C 0.75204 0.10519 0.58691 0.0
C2152 C 0.76068 0.13412 0.5443 0.0
C2153 C 0.78045 0.14445 0.54527 0.0
C2154 C 0.76146 0.11912 0.57269 0.0
C2155 C 0.79017 0.14211 0.56061 0.0
C2156 C 0.76172 0.09806 0.59693 0.0
C2157 C 0.72477 0.08659 0.60364 0.0
N2158 N 0.78059 0.12958 0.57359 0.0
N2159 N 0.73386 0.0992 0.59047 0.0
H2160 H 0.90984 0.63159 0.64864 0.0
H2161 H 0.836 0.64087 0.58061 0.0
H2162 H 0.89244 0.67248 0.65943 0.0
H2163 H 0.86128 0.60803 0.56391 0.0
H2164 H 0.85261 0.64835 0.612 0.0
H2165 H 0.88826 0.61873 0.61995 0.0
C2166 C 0.90137 0.63775 0.6451 0.0
C2167 C 0.9031 0.65327 0.65637 0.0
C2168 C 0.85441 0.63937 0.60153 0.0
C2169 C 0.87838 0.6386 0.62363 0.0
C2170 C 0.84496 0.63513 0.58359 0.0
C2171 C 0.84742 0.624 0.56951 0.0
C2172 C 0.86646 0.63246 0.6055 0.0
C2173 C 0.85889 0.6166 0.57433 0.0
C2174 C 0.88909 0.63043 0.6287 0.0
C2175 C 0.89174 0.66064 0.65108 0.0
N2176 N 0.86813 0.62111 0.59187 0.0
N2177 N 0.87995 0.6533 0.63508 0.0
H2178 H 0.94474 0.70984 0.75791 0.0
H2179 H 0.87766 0.66521 0.8428 0.0
H2180 H 0.90605 0.64968 0.76084 0.0
H2181 H 0.90173 0.72413 0.83121 0.0
H2182 H 0.89203 0.66021 0.81529 0.0
H2183 H 0.93287 0.71621 0.78712 0.0
C2184 C 0.9338 0.69799 0.76472 0.0
C2185 C 0.92631 0.67921 0.75691 0.0
C2186 C 0.8942 0.67425 0.81876 0.0
C2187 C 0.91289 0.68637 0.79028 0.0
C2188 C 0.88593 0.67711 0.83444 0.0
C2189 C 0.88822 0.69506 0.83919 0.0
C2190 C 0.905 0.68945 0.80772 0.0
C2191 C 0.89961 0.71007 0.82813 0.0
C2192 C 0.92704 0.70164 0.78133 0.0
C2193 C 0.91216 0.66439 0.76628 0.0
N2194 N 0.90752 0.70691 0.81283 0.0
N2195 N 0.90596 0.66829 0.78247 0.0
H2196 H 0.2875 0.25461 0.75907 0.0
H2197 H 0.32412 0.19556 0.8146 0.0
H2198 H 0.34159 0.25991 0.75292 0.0
H2199 H 0.27213 0.19335 0.82547 0.0
H2200 H 0.32977 0.21795 0.79066 0.0
H2201 H 0.28066 0.231 0.78224 0.0
C2202 C 0.29793 0.25081 0.7626 0.0
C2203 C 0.31517 0.25926 0.7541 0.0
C2204 C 0.31711 0.21259 0.79826 0.0
C2205 C 0.30741 0.23228 0.78048 0.0
C2206 C 0.31392 0.19986 0.812 0.0
C2207 C 0.29772 0.19272 0.8222 0.0
C2208 C 0.304 0.21826 0.79459 0.0
C2209 C 0.28477 0.19844 0.81789 0.0
C2210 C 0.29401 0.23734 0.77581 0.0
C2211 C 0.32815 0.2538 0.75915 0.0
N2212 N 0.28822 0.21095 0.80445 0.0
N2213 N 0.324 0.24067 0.77199 0.0
H2214 H 0.76782 0.10169 0.70944 0.0
H2215 H 0.78919 0.05855 0.7992 0.0
H2216 H 0.74144 0.04128 0.71494 0.0
H2217 H 0.81726 0.1185 0.79093 0.0
H2218 H 0.77403 0.05148 0.76694 0.0
H2219 H 0.78823 0.10772 0.73783 0.0
C2220 C 0.76637 0.08966 0.71656 0.0
C2221 C 0.75273 0.07095 0.7099 0.0
C2222 C 0.78369 0.06616 0.77211 0.0
C2223 C 0.77608 0.07778 0.7426 0.0
C2224 C 0.79242 0.07019 0.79046 0.0
C2225 C 0.8043 0.08914 0.7978 0.0
C2226 C 0.78687 0.08122 0.76109 0.0
C2227 C 0.80792 0.1037 0.78594 0.0
C2228 C 0.77809 0.09312 0.73279 0.0
C2229 C 0.75169 0.05594 0.71963 0.0
N2230 N 0.79911 0.09944 0.76826 0.0
N2231 N 0.76307 0.05969 0.73563 0.0
H2232 H 0.06746 0.35524 0.03079 0.0
H2233 H 0.07122 0.28649 0.10538 0.0
H2234 H 0.01853 0.30987 0.05403 0.0
H2235 H 0.11997 0.32782 0.07836 0.0
H2236 H 0.0517 0.29467 0.08613 0.0
H2237 H 0.08706 0.34526 0.04751 0.0
C2238 C 0.06083 0.34311 0.03926 0.0
C2239 C 0.04134 0.33344 0.04106 0.0
C2240 C 0.06667 0.30194 0.08438 0.0
C2241 C 0.06363 0.32204 0.06032 0.0
C2242 C 0.07782 0.2972 0.09533 0.0
C2243 C 0.09731 0.30655 0.09362 0.0
C2244 C 0.07503 0.31617 0.07161 0.0
C2245 C 0.10507 0.32049 0.08046 0.0
C2246 C 0.07201 0.33744 0.04883 0.0
C2247 C 0.0335 0.31782 0.05226 0.0
N2248 N 0.09393 0.32492 0.07003 0.0
N2249 N 0.04466 0.3127 0.06152 0.0
H2250 H 0.66569 0.68297 0.08305 0.0
H2251 H 0.66551 0.7575 0.16024 0.0
H2252 H 0.61559 0.67499 0.10811 0.0
H2253 H 0.70678 0.77421 0.1183 0.0
H2254 H 0.65035 0.72464 0.14652 0.0
H2255 H 0.68393 0.71413 0.10101 0.0
C2256 C 0.65855 0.6877 0.09243 0.0
C2257 C 0.63906 0.67646 0.09399 0.0
C2258 C 0.66283 0.7355 0.14046 0.0
C2259 C 0.65987 0.71186 0.11466 0.0
C2260 C 0.67148 0.75426 0.14823 0.0
C2261 C 0.68723 0.76873 0.14015 0.0
C2262 C 0.67009 0.7311 0.12464 0.0
C2263 C 0.69468 0.76355 0.12498 0.0
C2264 C 0.66897 0.70547 0.10262 0.0
C2265 C 0.63054 0.68328 0.10634 0.0
N2266 N 0.68593 0.74514 0.11759 0.0
N2267 N 0.64101 0.70055 0.11623 0.0
H2268 H 0.31326 0.91855 0.02781 0.0
H2269 H 0.2546 0.94256 0.09987 0.0
H2270 H 0.32816 0.97565 0.04747 0.0
H2271 H 0.23215 0.88712 0.06997 0.0
H2272 H 0.28236 0.95461 0.08163 0.0
H2273 H 0.28424 0.90617 0.04451 0.0
C2274 C 0.31047 0.92846 0.03563 0.0
C2275 C 0.32316 0.94815 0.03623 0.0
C2276 C 0.27131 0.93983 0.07898 0.0
C2277 C 0.29015 0.93416 0.0553 0.0
C2278 C 0.25537 0.93297 0.08929 0.0
C2279 C 0.241 0.91379 0.08648 0.0
C2280 C 0.27302 0.9274 0.06585 0.0
C2281 C 0.24301 0.90194 0.07283 0.0
C2282 C 0.29389 0.92141 0.04508 0.0
C2283 C 0.3188 0.96036 0.04655 0.0
N2284 N 0.25878 0.90891 0.06309 0.0
N2285 N 0.30272 0.95316 0.0557 0.0
H2286 H 0.37695 0.06218 0.00871 0.0
H2287 H 0.28476 0.05492 0.95985 0.0
H2288 H 0.32406 0.00966 -0.00451 0.0
H2289 H 0.3389 0.10689 0.96715 0.0
H2290 H 0.29747 0.03931 0.97873 0.0
H2291 H 0.36189 0.07986 -0.00098 0.0
C2292 C 0.36214 0.0544 0.004 0.0
C2293 C 0.35181 0.03444 0.0026 0.0
C2294 C 0.30652 0.0542 0.9764 0.0
C2295 C 0.33454 0.05446 0.99155 0.0
C2296 C 0.29922 0.06314 0.96574 0.0
C2297 C 0.31089 0.08211 0.96168 0.0
C2298 C 0.32562 0.06432 0.98301 0.0
C2299 C 0.32955 0.09208 0.9696 0.0
C2300 C 0.35356 0.06447 -0.00155 0.0
C2301 C 0.33264 0.02505 -0.0035 0.0
N2302 N 0.33641 0.08301 0.9797 0.0
N2303 N 0.32467 0.03512 0.99106 0.0
H2304 H 0.92242 0.28882 -0.00247 0.0
H2305 H 0.92705 0.20683 0.93558 0.0
H2306 H 0.97486 0.29327 0.98383 0.0
H2307 H 0.87587 0.20284 0.95313 0.0
H2308 H 0.94522 0.23801 0.95381 0.0
H2309 H 0.90544 0.25691 0.98161 0.0
C2310 C 0.93039 0.2831 0.99116 0.0
C2311 C 0.95011 0.2938 0.99197 0.0
C2312 C 0.93002 0.23025 0.95369 0.0
C2313 C 0.93066 0.25709 0.97363 0.0
C2314 C 0.91968 0.21247 0.94337 0.0
C2315 C 0.89995 0.20242 0.94263 0.0
C2316 C 0.92049 0.23789 0.96334 0.0
C2317 C 0.89105 0.21031 0.95296 0.0
C2318 C 0.92066 0.26481 0.98209 0.0
C2319 C 0.95964 0.28554 0.98352 0.0
N2320 N 0.90137 0.22758 0.96278 0.0
N2321 N 0.94981 0.26768 0.97463 0.0
H2322 H 0.68043 0.61482 0.02615 0.0
H2323 H 0.77523 0.70523 -0.00219 0.0
H2324 H 0.69228 0.67233 0.03715 0.0
H2325 H 0.75002 0.64954 0.9676 0.0
H2326 H 0.74797 0.69315 0.01708 0.0
H2327 H 0.70963 0.62715 0.00987 0.0
C2328 C 0.68929 0.63004 0.02533 0.0
C2329 C 0.6839 0.64257 0.03286 0.0
C2330 C 0.74855 0.68362 0.00627 0.0
C2331 C 0.71721 0.65672 0.01439 0.0
C2332 C 0.76402 0.69052 -0.00484 0.0
C2333 C 0.76505 0.67842 0.98102 0.0
C2334 C 0.73412 0.66446 0.00339 0.0
C2335 C 0.75017 0.65936 0.97856 0.0
C2336 C 0.70586 0.63705 0.01597 0.0
C2337 C 0.69586 0.66217 0.03138 0.0
N2338 N 0.73539 0.65298 0.98965 0.0
N2339 N 0.71198 0.66867 0.0223 0.0
H2340 H 0.96562 0.66603 0.01078 0.0
H2341 H 0.87271 0.64981 0.9541 0.0
H2342 H 0.91189 0.61356 0.00834 0.0
H2343 H 0.92695 0.70125 0.95368 0.0
H2344 H 0.88688 0.63647 0.9741 0.0
H2345 H 0.95165 0.67942 0.99047 0.0
C2346 C 0.95086 0.65731 0.00604 0.0
C2347 C 0.93991 0.63859 0.01129 0.0
C2348 C 0.89573 0.65063 0.96957 0.0
C2349 C 0.92385 0.6539 0.98793 0.0
C2350 C 0.88769 0.65822 0.95798 0.0
C2351 C 0.89871 0.67662 0.95199 0.0
C2352 C 0.91497 0.66152 0.97536 0.0
C2353 C 0.91792 0.68704 0.958 0.0
C2354 C 0.94291 0.66499 0.99439 0.0
C2355 C 0.92087 0.62803 0.00468 0.0
N2356 N 0.92544 0.67933 0.96936 0.0
N2357 N 0.91346 0.63583 0.99332 0.0
H2358 H 0.37544 0.31924 0.96742 0.0
H2359 H 0.28582 0.21818 0.93519 0.0
H2360 H 0.31929 0.31019 0.96473 0.0
H2361 H 0.34109 0.23623 0.9162 0.0
H2362 H 0.2975 0.25074 0.94862 0.0
H2363 H 0.36289 0.2873 0.95185 0.0
C2364 C 0.36047 0.3105 0.9636 0.0
C2365 C 0.34837 0.31733 0.96733 0.0
C2366 C 0.30699 0.24752 0.9414 0.0
C2367 C 0.33396 0.28086 0.94964 0.0
C2368 C 0.30032 0.22898 0.93363 0.0
C2369 C 0.31253 0.22436 0.92472 0.0
C2370 C 0.32602 0.26143 0.94045 0.0
C2371 C 0.33127 0.23896 0.92336 0.0
C2372 C 0.35334 0.29235 0.95462 0.0
C2373 C 0.3291 0.30546 0.96203 0.0
N2374 N 0.33748 0.25678 0.93131 0.0
N2375 N 0.32244 0.28771 0.95354 0.0
H2376 H 0.68179 0.07262 0.01031 0.0
H2377 H 0.76766 0.06198 0.97934 0.0
H2378 H 0.68822 0.0261 0.02655 0.0
H2379 H 0.74199 0.08524 0.94389 0.0
H2380 H 0.74256 0.05322 0.00108 0.0
H2381 H 0.70874 0.0829 0.9907 0.0
C2382 C 0.68905 0.06477 0.00998 0.0
C2383 C 0.68273 0.04844 0.01994 0.0
C2384 C 0.74254 0.06028 0.98852 0.0
C2385 C 0.71345 0.06009 -0.0023 0.0
C2386 C 0.75675 0.06515 0.976 0.0
C2387 C 0.75708 0.07447 0.95971 0.0
C2388 C 0.72876 0.06504 0.9849 0.0
C2389 C 0.74267 0.0785 0.95644 0.0
C2390 C 0.70429 0.07053 -0.0013 0.0
C2391 C 0.69257 0.03868 0.01894 0.0
N2392 N 0.7292 0.07389 0.96897 0.0
N2393 N 0.70748 0.04467 0.00801 0.0
H2394 H 0.62017 0.93479 0.05842 0.0
H2395 H 0.71151 0.92937 0.08628 0.0
H2396 H 0.67663 0.98299 0.05825 0.0
H2397 H 0.6582 0.89535 0.11071 0.0
H2398 H 0.69804 0.94542 0.06925 0.0
H2399 H 0.63319 0.91597 0.07051 0.0
C2400 C 0.63529 0.9413 0.06066 0.0
C2401 C 0.64736 0.96048 0.05754 0.0
C2402 C 0.68933 0.9343 0.07824 0.0
C2403 C 0.66225 0.93914 0.07111 0.0
C2404 C 0.69702 0.92521 0.08809 0.0
C2405 C 0.68606 0.91095 0.10008 0.0
C2406 C 0.67048 0.92892 0.08016 0.0
C2407 C 0.66719 0.90594 0.10142 0.0
C2408 C 0.64268 0.93062 0.06763 0.0
C2409 C 0.66684 0.96828 0.06069 0.0
N2410 N 0.66002 0.91491 0.0916 0.0
N2411 N 0.6737 0.95759 0.06733 0.0
H2412 H 0.0102 0.69098 0.09547 0.0
H2413 H 0.09596 0.79608 0.08696 0.0
H2414 H 0.04642 0.70493 0.04897 0.0
H2415 H 0.07714 0.77338 0.14098 0.0
H2416 H 0.07372 0.76461 0.0708 0.0
H2417 H 0.03074 0.72317 0.11042 0.0
C2418 C 0.02244 0.70086 0.08836 0.0
C2419 C 0.02669 0.69529 0.07099 0.0
C2420 C 0.0744 0.76659 0.08617 0.0
C2421 C 0.05005 0.73214 0.08793 0.0
C2422 C 0.08691 0.7845 0.09535 0.0
C2423 C 0.08823 0.78719 0.11526 0.0
C2424 C 0.06298 0.75146 0.09703 0.0
C2425 C 0.07647 0.77177 0.12559 0.0
C2426 C 0.03416 0.71918 0.09694 0.0
C2427 C 0.04274 0.70865 0.06242 0.0
N2428 N 0.06425 0.75454 0.11633 0.0
N2429 N 0.05383 0.72654 0.07095 0.0
H2430 H 0.31688 0.39428 0.03462 0.0
H2431 H 0.23999 0.29476 0.07143 0.0
H2432 H 0.31501 0.34126 0.02142 0.0
H2433 H 0.24045 0.34728 0.08244 0.0
H2434 H 0.26645 0.31116 0.05147 0.0
H2435 H 0.28795 0.377 0.05097 0.0
C2436 C 0.31037 0.37901 0.03509 0.0
C2437 C 0.31846 0.36924 0.02674 0.0
C2438 C 0.26071 0.31907 0.0582 0.0
C2439 C 0.28539 0.34938 0.04544 0.0
C2440 C 0.24556 0.30969 0.06951 0.0
C2441 C 0.2382 0.31974 0.07879 0.0
C2442 C 0.2685 0.33862 0.05619 0.0
C2443 C 0.24598 0.3391 0.07589 0.0
C2444 C 0.29384 0.36915 0.04442 0.0
C2445 C 0.30935 0.34943 0.02773 0.0
N2446 N 0.26077 0.34793 0.06493 0.0
N2447 N 0.29336 0.34018 0.03699 0.0
H2448 H 0.72877 0.7012 0.3784 0.0
H2449 H 0.73934 0.61612 0.41383 0.0
H2450 H 0.68265 0.64292 0.37344 0.0
H2451 H 0.77364 0.67418 0.4382 0.0
H2452 H 0.7203 0.62551 0.39543 0.0
H2453 H 0.74791 0.69136 0.39616 0.0
C2454 C 0.72275 0.68632 0.38086 0.0
C2455 C 0.7041 0.67286 0.37449 0.0
C2456 C 0.732 0.63615 0.40485 0.0
C2457 C 0.72585 0.66155 0.39474 0.0
C2458 C 0.7428 0.63078 0.41551 0.0
C2459 C 0.75824 0.64436 0.42764 0.0
C2460 C 0.73678 0.65527 0.40608 0.0
C2461 C 0.76218 0.66325 0.4288 0.0
C2462 C 0.73362 0.68075 0.39111 0.0
C2463 C 0.69696 0.65377 0.37817 0.0
N2464 N 0.75161 0.66815 0.41808 0.0
N2465 N 0.70786 0.64867 0.38802 0.0
H2466 H 0.27838 0.01521 0.4205 0.0
H2467 H 0.3752 0.10164 0.46812 0.0
H2468 H 0.32891 0.01217 0.42344 0.0
H2469 H 0.32853 0.10658 0.44691 0.0
H2470 H 0.35896 0.06859 0.45375 0.0
H2471 H 0.29664 0.04825 0.4331 0.0
C2472 C 0.29334 0.02146 0.42386 0.0
C2473 C 0.30211 0.01086 0.42087 0.0
C2474 C 0.3524 0.07702 0.4522 0.0
C2475 C 0.32324 0.04895 0.43532 0.0
C2476 C 0.36166 0.09584 0.46031 0.0
C2477 C 0.353 0.10669 0.45902 0.0
C2478 C 0.33442 0.06916 0.44286 0.0
C2479 C 0.33549 0.09855 0.44872 0.0
C2480 C 0.3038 0.04042 0.43097 0.0
C2481 C 0.32159 0.01984 0.42548 0.0
N2482 N 0.32674 0.08027 0.44122 0.0
N2483 N 0.33154 0.03841 0.43256 0.0
H2484 H -0.00354 0.30524 0.36829 0.0
H2485 H 0.9217 0.22788 0.43188 0.0
H2486 H -0.00117 0.25647 0.38485 0.0
H2487 H 0.91054 0.26573 0.40119 0.0
H2488 H 0.95157 0.24034 0.41736 0.0
H2489 H 0.96654 0.29308 0.3829 0.0
C2490 C 0.99071 0.29198 0.37502 0.0
C2491 C 0.00017 0.28183 0.37535 0.0
C2492 C 0.94256 0.24587 0.41373 0.0
C2493 C 0.96597 0.26794 0.39214 0.0
C2494 C 0.92542 0.23869 0.42192 0.0
C2495 C 0.9134 0.24555 0.41751 0.0
C2496 C 0.94791 0.26021 0.40118 0.0
C2497 C 0.91936 0.26005 0.40503 0.0
C2498 C 0.9736 0.28504 0.38329 0.0
C2499 C 0.992 0.26472 0.38421 0.0
N2500 N 0.93622 0.2669 0.39728 0.0
N2501 N 0.97539 0.25834 0.39233 0.0
H2502 H 0.06103 0.39286 0.34264 0.0
H2503 H 0.98851 0.40057 0.27162 0.0
H2504 H 0.01321 0.34467 0.31147 0.0
H2505 H 0.03004 0.44802 0.30931 0.0
H2506 H -0.00238 0.38003 0.28631 0.0
H2507 H 0.05042 0.41362 0.33059 0.0
C2508 C 0.0483 0.38666 0.33332 0.0
C2509 C 0.03802 0.36704 0.32798 0.0
C2510 C 0.00467 0.3949 0.29149 0.0
C2511 C 0.02587 0.39059 0.31419 0.0
C2512 C -0.00065 0.40664 0.28321 0.0
C2513 C 0.00845 0.42607 0.28929 0.0
C2514 C 0.01934 0.40262 0.30589 0.0
C2515 C 0.02278 0.43317 0.30403 0.0
C2516 C 0.04224 0.39848 0.32649 0.0
C2517 C 0.02161 0.35972 0.31592 0.0
N2518 N 0.02785 0.42146 0.31178 0.0
N2519 N 0.0161 0.3715 0.30938 0.0
H2520 H 0.5874 0.6314 0.31782 0.0
H2521 H 0.58788 0.54508 0.26183 0.0
H2522 H 0.63955 0.63244 0.31129 0.0
H2523 H 0.54113 0.53955 0.29208 0.0
H2524 H 0.60733 0.57794 0.27628 0.0
H2525 H 0.57018 0.59883 0.30358 0.0
C2526 C 0.59528 0.62484 0.31328 0.0
C2527 C 0.61497 0.63468 0.31586 0.0
C2528 C 0.59283 0.56941 0.27974 0.0
C2529 C 0.5952 0.59719 0.29954 0.0
C2530 C 0.58176 0.55067 0.27161 0.0
C2531 C 0.56274 0.53964 0.27548 0.0
C2532 C 0.58469 0.57711 0.29162 0.0
C2533 C 0.55553 0.54766 0.28821 0.0
C2534 C 0.58539 0.60616 0.30525 0.0
C2535 C 0.62435 0.62534 0.30965 0.0
N2536 N 0.56644 0.56591 0.29563 0.0
N2537 N 0.61437 0.60707 0.30172 0.0
H2538 H 0.33583 0.93425 0.36269 0.0
H2539 H 0.43387 0.0134 0.32699 0.0
H2540 H 0.35439 0.9941 0.3672 0.0
H2541 H 0.40297 0.95533 0.30201 0.0
H2542 H 0.40782 0.00613 0.34692 0.0
H2543 H 0.36381 0.94142 0.34581 0.0
C2544 C 0.34589 0.94891 0.36032 0.0
C2545 C 0.34276 0.9636 0.36623 0.0
C2546 C 0.40686 0.995 0.33711 0.0
C2547 C 0.37472 0.97186 0.3471 0.0
C2548 C 0.42166 -0.00085 0.32562 0.0
C2549 C 0.42067 0.98501 0.31263 0.0
C2550 C 0.39105 0.97653 0.33584 0.0
C2551 C 0.4046 0.96666 0.31195 0.0
C2552 C 0.36177 0.95296 0.35062 0.0
C2553 C 0.35621 0.98234 0.36274 0.0
N2554 N 0.39045 0.96296 0.32339 0.0
N2555 N 0.37163 0.98594 0.35341 0.0
H2556 H 0.63361 0.9839 0.33779 0.0
H2557 H 0.53635 0.95327 0.28015 0.0
H2558 H 0.58585 0.92644 0.33195 0.0
H2559 H 0.5854 0.00972 0.28151 0.0
H2560 H 0.55468 0.94309 0.29833 0.0
H2561 H 0.6165 0.99358 0.3168 0.0
C2562 C 0.61954 0.97329 0.33208 0.0
C2563 C 0.61113 0.95432 0.33673 0.0
C2564 C 0.5615 0.95767 0.29456 0.0
C2565 C 0.59147 0.96536 0.31267 0.0
C2566 C 0.55107 0.96348 0.284 0.0
C2567 C 0.55935 0.98239 0.27918 0.0
C2568 C 0.58036 0.97088 0.30051 0.0
C2569 C 0.57837 0.99507 0.28505 0.0
C2570 C 0.60979 0.97885 0.32006 0.0
C2571 C 0.59289 0.94122 0.32883 0.0
N2572 N 0.58822 0.98909 0.29547 0.0
N2573 N 0.58366 0.94701 0.31725 0.0
H2574 H 0.03493 0.65267 0.33049 0.0
H2575 H 0.00257 0.58377 0.23571 0.0
H2576 H 0.0125 0.66362 0.27978 0.0
H2577 H -0.0004 0.5635 0.29145 0.0
H2578 H 0.01057 0.61497 0.25068 0.0
H2579 H 0.02667 0.62154 0.31533 0.0
C2580 C 0.02837 0.64856 0.31614 0.0
C2581 C 0.02434 0.66067 0.30636 0.0
C2582 C 0.00806 0.60364 0.25959 0.0
C2583 C 0.01501 0.62531 0.28899 0.0
C2584 C 0.00355 0.58594 0.2511 0.0
C2585 C 0.00035 0.57116 0.26243 0.0
C2586 C 0.00975 0.6066 0.27953 0.0
C2587 C 0.00178 0.57455 0.28228 0.0
C2588 C 0.02357 0.63079 0.30756 0.0
C2589 C 0.01576 0.65464 0.28782 0.0
N2590 N 0.00654 0.59201 0.29023 0.0
N2591 N 0.01146 0.6374 0.27967 0.0
H2592 H 0.33094 0.39537 0.32728 0.0
H2593 H 0.42814 0.4007 0.31282 0.0
H2594 H 0.34714 0.36079 0.35729 0.0
H2595 H 0.39677 0.40803 0.2672 0.0
H2596 H 0.4013 0.39072 0.33235 0.0
H2597 H 0.35843 0.40582 0.30842 0.0
C2598 C 0.34038 0.39015 0.33002 0.0
C2599 C 0.33675 0.37715 0.34378 0.0
C2600 C 0.40039 0.39454 0.31804 0.0
C2601 C 0.36812 0.38909 0.32245 0.0
C2602 C 0.41563 0.40009 0.30679 0.0
C2603 C 0.41487 0.40535 0.28827 0.0
C2604 C 0.3844 0.39456 0.31087 0.0
C2605 C 0.39831 0.40459 0.2815 0.0
C2606 C 0.35594 0.39599 0.3192 0.0
C2607 C 0.34937 0.37073 0.34671 0.0
N2608 N 0.38382 0.39947 0.29284 0.0
N2609 N 0.36456 0.37683 0.33618 0.0
H2610 H 0.28394 0.27041 0.39689 0.0
H2611 H 0.37818 0.26937 0.42184 0.0
H2612 H 0.33929 0.32016 0.39563 0.0
H2613 H 0.32486 0.23097 0.44414 0.0
H2614 H 0.36376 0.28571 0.40711 0.0
H2615 H 0.29841 0.25293 0.40883 0.0
C2616 C 0.29913 0.2776 0.39899 0.0
C2617 C 0.31043 0.29678 0.39541 0.0
C2618 C 0.35526 0.27362 0.41516 0.0
C2619 C 0.32703 0.2769 0.40888 0.0
C2620 C 0.36349 0.26433 0.42366 0.0
C2621 C 0.35277 0.24866 0.43425 0.0
C2622 C 0.33614 0.26708 0.41707 0.0
C2623 C 0.33367 0.24265 0.4358 0.0
C2624 C 0.30736 0.26766 0.40586 0.0
C2625 C 0.33005 0.30542 0.39838 0.0
N2626 N 0.32599 0.25183 0.42729 0.0
N2627 N 0.33774 0.29542 0.40492 0.0
H2628 H 0.67561 0.02014 0.42115 0.0
H2629 H 0.76191 0.12428 0.40868 0.0
H2630 H 0.71513 0.03122 0.37827 0.0
H2631 H 0.74109 0.10557 0.46336 0.0
H2632 H 0.73945 0.09213 0.39399 0.0
H2633 H 0.69451 0.05359 0.43356 0.0
C2634 C 0.68817 0.02965 0.41425 0.0
C2635 C 0.69393 0.02292 0.39876 0.0
C2636 C 0.73965 0.09518 0.40916 0.0
C2637 C 0.71534 0.06109 0.41268 0.0
C2638 C 0.75229 0.11346 0.41747 0.0
C2639 C 0.75315 0.11739 0.43716 0.0
C2640 C 0.72769 0.08095 0.42065 0.0
C2641 C 0.7407 0.10296 0.4481 0.0
C2642 C 0.69894 0.04867 0.42136 0.0
C2643 C 0.71032 0.03583 0.39035 0.0
N2644 N 0.72842 0.08532 0.43968 0.0
N2645 N 0.72046 0.05435 0.3974 0.0
H2646 H 0.97051 0.72314 0.36193 0.0
H2647 H 0.89916 0.62365 0.4026 0.0
H2648 H 0.97707 0.67414 0.35673 0.0
H2649 H 0.89467 0.67379 0.40845 0.0
H2650 H 0.92543 0.64034 0.38227 0.0
H2651 H 0.94047 0.7038 0.37563 0.0
C2652 C 0.96559 0.70828 0.36356 0.0
C2653 C 0.97644 0.70033 0.35837 0.0
C2654 C 0.91857 0.64761 0.38788 0.0
C2655 C 0.94203 0.67806 0.37417 0.0
C2656 C 0.90357 0.63807 0.39939 0.0
C2657 C 0.89504 0.64752 0.40743 0.0
C2658 C 0.9249 0.66663 0.3844 0.0
C2659 C 0.90119 0.66616 0.40285 0.0
C2660 C 0.94841 0.69722 0.37138 0.0
C2661 C 0.96923 0.68092 0.36066 0.0
N2662 N 0.91582 0.67515 0.39177 0.0
N2663 N 0.95255 0.67048 0.36856 0.0
H2664 H 0.35379 0.98712 0.713 0.0
H2665 H 0.4477 0.03033 0.78031 0.0
H2666 H 0.39656 0.04677 0.71679 0.0
H2667 H 0.4183 0.97208 0.75588 0.0
H2668 H 0.42639 0.03618 0.76109 0.0
H2669 H 0.3748 0.98094 0.73254 0.0
C2670 C 0.36762 -0.00109 0.71791 0.0
C2671 C 0.37349 0.01749 0.71323 0.0
C2672 C 0.42463 0.02213 0.76 0.0
C2673 C 0.39738 0.01054 0.73581 0.0
C2674 C 0.43682 0.01875 0.77092 0.0
C2675 C 0.435 0.00069 0.76964 0.0
C2676 C 0.41027 0.0073 0.74792 0.0
C2677 C 0.4202 0.98616 0.75757 0.0
C2678 C 0.37958 0.99536 0.72902 0.0
C2679 C 0.39154 0.03222 0.71997 0.0
N2680 N 0.40841 0.98978 0.74719 0.0
N2681 N 0.40282 0.02846 0.73106 0.0
H2682 H 0.93149 0.33214 0.74267 0.0
H2683 H 0.01535 0.42018 0.80609 0.0
H2684 H 0.98576 0.33747 0.7527 0.0
H2685 H 0.967 0.4198 0.78066 0.0
H2686 H 0.00429 0.38888 0.7893 0.0
H2687 H 0.94355 0.36302 0.75988 0.0
C2688 C 0.94596 0.33978 0.74853 0.0
C2689 C 0.95765 0.3322 0.74616 0.0
C2690 C -0.00384 0.39572 0.78746 0.0
C2691 C 0.9716 0.36775 0.76595 0.0
C2692 C 0.00247 0.41357 0.79697 0.0
C2693 C 0.99196 0.42253 0.79499 0.0
C2694 C 0.9792 0.3868 0.77601 0.0
C2695 C 0.97532 0.41326 0.78306 0.0
C2696 C 0.95287 0.35748 0.75832 0.0
C2697 C 0.97629 0.34282 0.75413 0.0
N2698 N 0.96945 0.39592 0.77412 0.0
N2699 N 0.98271 0.3601 0.76372 0.0
H2700 H 0.65583 0.5861 0.70211 0.0
H2701 H 0.59261 0.61026 0.7671 0.0
H2702 H 0.66768 0.64329 0.716 0.0
H2703 H 0.57266 0.5543 0.73951 0.0
H2704 H 0.62131 0.62245 0.75028 0.0
H2705 H 0.62653 0.5738 0.71822 0.0
C2706 C 0.65233 0.59605 0.70861 0.0
C2707 C 0.66419 0.61573 0.70768 0.0
C2708 C 0.6106 0.60751 0.74785 0.0
C2709 C 0.63082 0.60181 0.72606 0.0
C2710 C 0.59413 0.60057 0.75733 0.0
C2711 C 0.58017 0.5812 0.75476 0.0
C2712 C 0.61324 0.59499 0.73583 0.0
C2713 C 0.58316 0.56927 0.7422 0.0
C2714 C 0.63558 0.58904 0.71769 0.0
C2715 C 0.65893 0.628 0.71629 0.0
N2716 N 0.59941 0.57633 0.73328 0.0
N2717 N 0.64267 0.62084 0.72515 0.0
H2718 H 0.66237 0.67536 0.66326 0.0
H2719 H 0.67832 0.76804 0.6179 0.0
H2720 H 0.71739 0.72571 0.66261 0.0
H2721 H 0.62523 0.72822 0.6397 0.0
H2722 H 0.69263 0.75201 0.63282 0.0
H2723 H 0.64815 0.69358 0.65318 0.0
C2724 C 0.67145 0.69029 0.66108 0.0
C2725 C 0.69109 0.69904 0.66364 0.0
C2726 C 0.67791 0.74692 0.63452 0.0
C2727 C 0.67493 0.71985 0.65198 0.0
C2728 C 0.66968 0.75615 0.6261 0.0
C2729 C 0.65048 0.74963 0.62763 0.0
C2730 C 0.66684 0.73077 0.64426 0.0
C2731 C 0.63999 0.73366 0.63792 0.0
C2732 C 0.66332 0.70067 0.65543 0.0
C2733 C 0.7022 0.71843 0.66077 0.0
N2734 N 0.64828 0.72467 0.64572 0.0
N2735 N 0.69396 0.72815 0.65487 0.0
H2736 H 0.25787 0.96067 0.65974 0.0
H2737 H 0.25847 0.87828 0.5991 0.0
H2738 H 0.31129 0.96842 0.64474 0.0
H2739 H 0.21975 0.86819 0.6426 0.0
H2740 H 0.27815 0.91149 0.61268 0.0
H2741 H 0.24284 0.927 0.6495 0.0
C2742 C 0.26644 0.95529 0.65419 0.0
C2743 C 0.28585 0.96737 0.65305 0.0
C2744 C 0.26549 0.90183 0.61936 0.0
C2745 C 0.26865 0.92872 0.64126 0.0
C2746 C 0.25433 0.88293 0.6117 0.0
C2747 C 0.23727 0.87063 0.61951 0.0
C2748 C 0.25932 0.90833 0.6347 0.0
C2749 C 0.23252 0.87735 0.63582 0.0
C2750 C 0.25787 0.93603 0.64851 0.0
C2751 C 0.29627 0.95954 0.64587 0.0
N2752 N 0.2433 0.89581 0.64265 0.0
N2753 N 0.28749 0.94065 0.64002 0.0
H2754 H 0.01597 0.27723 0.6908 0.0
H2755 H 0.11019 0.36965 0.66444 0.0
H2756 H 0.02432 0.3337 0.69808 0.0
H2757 H 0.08933 0.3134 0.63706 0.0
H2758 H 0.08173 0.35683 0.68195 0.0
H2759 H 0.04636 0.29054 0.67669 0.0
C2760 C 0.0243 0.29245 0.68965 0.0
C2761 C 0.01757 0.30437 0.69549 0.0
C2762 C 0.08352 0.34735 0.67216 0.0
C2763 C 0.05229 0.31964 0.67945 0.0
C2764 C 0.09971 0.35465 0.66205 0.0
C2765 C 0.10231 0.34264 0.64919 0.0
C2766 C 0.06995 0.32786 0.66959 0.0
C2767 C 0.08828 0.32322 0.64705 0.0
C2768 C 0.04157 0.30001 0.68151 0.0
C2769 C 0.02893 0.32399 0.69363 0.0
N2770 N 0.07278 0.31646 0.65716 0.0
N2771 N 0.04574 0.33103 0.68575 0.0
H2772 H 0.30974 0.328 0.66584 0.0
H2773 H 0.23083 0.35428 0.65053 0.0
H2774 H 0.25526 0.29536 0.68824 0.0
H2775 H 0.26464 0.35601 0.60472 0.0
H2776 H 0.2448 0.33987 0.66977 0.0
H2777 H 0.29807 0.34535 0.64809 0.0
C2778 C 0.29538 0.32459 0.66711 0.0
C2779 C 0.28338 0.31021 0.67843 0.0
C2780 C 0.24929 0.34363 0.65559 0.0
C2781 C 0.27023 0.33017 0.65861 0.0
C2782 C 0.2415 0.35196 0.64473 0.0
C2783 C 0.24677 0.35636 0.62617 0.0
C2784 C 0.26268 0.34007 0.64791 0.0
C2785 C 0.26038 0.35286 0.61906 0.0
C2786 C 0.28876 0.33442 0.65696 0.0
C2787 C 0.26489 0.30626 0.67955 0.0
N2788 N 0.26798 0.34495 0.63001 0.0
N2789 N 0.2589 0.31632 0.66986 0.0
H2790 H 0.65234 0.97478 0.64028 0.0
H2791 H 0.66297 0.90304 0.57027 0.0
H2792 H 0.70668 0.98523 0.62527 0.0
H2793 H 0.62309 0.88185 0.61369 0.0
H2794 H 0.67548 0.93534 0.58456 0.0
H2795 H 0.63782 0.94222 0.6251 0.0
C2796 C 0.66117 0.97021 0.63377 0.0
C2797 C 0.68071 0.98259 0.63404 0.0
C2798 C 0.66392 0.92356 0.59083 0.0
C2799 C 0.66424 0.94588 0.6164 0.0
C2800 C 0.65679 0.9051 0.58278 0.0
C2801 C 0.64216 0.88954 0.59099 0.0
C2802 C 0.65608 0.92661 0.60691 0.0
C2803 C 0.6343 0.89332 0.60677 0.0
C2804 C 0.65291 0.95171 0.62519 0.0
C2805 C 0.69158 0.97604 0.62546 0.0
N2806 N 0.64139 0.91151 0.61426 0.0
N2807 N 0.68317 0.95816 0.61679 0.0
H2808 H -0.00273 0.73097 0.66092 0.0
H2809 H 0.09289 0.73178 0.65052 0.0
H2810 H 0.009 0.69252 0.68964 0.0
H2811 H 0.06648 0.74549 0.60518 0.0
H2812 H 0.06476 0.72134 0.6682 0.0
H2813 H 0.02582 0.74142 0.64385 0.0
C2814 C 0.00593 0.72486 0.66375 0.0
C2815 C 0.00074 0.71081 0.67663 0.0
C2816 C 0.06522 0.72664 0.65436 0.0
C2817 C 0.03334 0.72275 0.65731 0.0
C2818 C 0.0812 0.73248 0.64418 0.0
C2819 C 0.08222 0.73971 0.62633 0.0
C2820 C 0.05029 0.72832 0.6468 0.0
C2821 C 0.06664 0.74052 0.61906 0.0
C2822 C 0.02212 0.73073 0.65393 0.0
C2823 C 0.01243 0.7033 0.67971 0.0
N2824 N 0.05142 0.73506 0.62938 0.0
N2825 N 0.02825 0.70942 0.67017 0.0
H2826 H 0.99411 0.64941 0.73526 0.0
H2827 H 0.96503 0.54368 0.7578 0.0
H2828 H 0.93993 0.60006 0.71738 0.0
H2829 H 0.02009 0.59298 0.77248 0.0
H2830 H 0.95613 0.56363 0.74109 0.0
H2831 H 0.00442 0.62859 0.74719 0.0
C2832 C 0.98439 0.63417 0.73378 0.0
C2833 C 0.96608 0.62646 0.72544 0.0
C2834 C 0.97022 0.57005 0.74781 0.0
C2835 C 0.97779 0.60249 0.73914 0.0
C2836 C 0.97528 0.55869 0.7574 0.0
C2837 C 0.99329 0.56671 0.76666 0.0
C2838 C 0.98321 0.58963 0.74759 0.0
C2839 C 0.00611 0.58617 0.76544 0.0
C2840 C 0.9903 0.62227 0.74057 0.0
C2841 C 0.95414 0.6066 0.72378 0.0
N2842 N 0.00076 0.59698 0.75624 0.0
N2843 N 0.96017 0.5953 0.73071 0.0
H2844 H 0.35089 0.35379 0.76487 0.0
H2845 H 0.43405 0.45924 0.75296 0.0
H2846 H 0.38673 0.3673 0.71808 0.0
H2847 H 0.41724 0.43848 0.80809 0.0
H2848 H 0.4126 0.42695 0.73811 0.0
H2849 H 0.37136 0.38627 0.77934 0.0
C2850 C 0.36308 0.3636 0.75765 0.0
C2851 C 0.3672 0.35788 0.74029 0.0
C2852 C 0.41356 0.42953 0.75344 0.0
C2853 C 0.39038 0.39502 0.75658 0.0
C2854 C 0.42561 0.4479 0.76186 0.0
C2855 C 0.42726 0.45138 0.78171 0.0
C2856 C 0.40291 0.41471 0.76496 0.0
C2857 C 0.41629 0.43625 0.79272 0.0
C2858 C 0.37473 0.38208 0.76593 0.0
C2859 C 0.38315 0.37114 0.73154 0.0
N2860 N 0.40447 0.41854 0.78419 0.0
N2861 N 0.39412 0.38919 0.73972 0.0
H2862 H 0.66092 0.07184 0.69652 0.0
H2863 H 0.57854 0.98197 0.74254 0.0
H2864 H 0.65301 0.01546 0.69031 0.0
H2865 H 0.58485 0.03769 0.74569 0.0
H2866 H 0.60498 0.99352 0.72223 0.0
H2867 H 0.63244 0.05926 0.71376 0.0
C2868 C 0.65318 0.05681 0.69874 0.0
C2869 C 0.65943 0.04472 0.69203 0.0
C2870 C 0.60052 0.00319 0.72731 0.0
C2871 C 0.6268 0.0302 0.71178 0.0
C2872 C 0.58537 -0.00343 0.73881 0.0
C2873 C 0.57962 0.00894 0.74596 0.0
C2874 C 0.60996 0.02231 0.72295 0.0
C2875 C 0.58907 0.02777 0.74081 0.0
C2876 C 0.63689 0.04962 0.70857 0.0
C2877 C 0.64877 0.02533 0.69527 0.0
N2878 N 0.60382 0.0339 0.7297 0.0
N2879 N 0.63302 0.0187 0.70499 0.0
loop_
_geom_bond_atom_site_label_1
_geom_bond_atom_site_label_2
_geom_bond_distance
_geom_bond_site_symmetry_2
_ccdc_geom_bond_type
C0 O1 1.306 . S
C0 O3 1.160 . S
O1 C0 1.306 . S
O1 Cd2 2.228 . S
Cd2 O1 2.228 . S
Cd2 O6 2.273 . S
Cd2 O10 2.277 . S
O3 C0 1.160 . S
O3 Cd4 2.203 1_655 S
Cd4 O3 2.203 1_455 S
Cd4 O6 2.411 1_455 S
Cd4 O7 2.333 . S
Cd4 O8 2.352 . S
Cd4 O12 2.277 1_554 S
Cd4 O13 2.356 . S
C5 O10 1.209 1_456 S
C5 O12 1.226 . S
O6 Cd2 2.273 . S
O6 Cd4 2.411 1_655 S
O6 C9 1.320 1_655 S
O7 Cd4 2.333 . S
O7 C9 1.214 . S
O8 Cd4 2.352 . S
O8 C11 1.258 . S
C9 O6 1.320 1_455 S
C9 O7 1.214 . S
O10 Cd2 2.277 . S
O10 C5 1.209 1_654 S
C11 O8 1.258 . S
C11 O13 1.282 . S
O12 Cd4 2.277 1_556 S
O12 C5 1.226 . S
O13 Cd4 2.356 . S
O13 C11 1.282 . S
C14 O15 1.306 . S
C14 O17 1.160 . S
O15 C14 1.306 . S
O15 Cd16 2.228 . S
Cd16 O15 2.228 . S
Cd16 O20 2.273 . S
Cd16 O24 2.277 . S
O17 C14 1.160 . S
O17 Cd18 2.203 . S
Cd18 O17 2.203 . S
Cd18 O20 2.411 . S
Cd18 O21 2.333 . S
Cd18 O22 2.352 . S
Cd18 O26 2.277 . S
Cd18 O27 2.356 . S
C19 O24 1.209 . S
C19 O26 1.226 . S
O20 Cd16 2.273 . S
O20 Cd18 2.411 . S
O20 C23 1.320 . S
O21 Cd18 2.333 . S
O21 C23 1.214 . S
O22 Cd18 2.352 . S
O22 C25 1.258 . S
C23 O20 1.320 . S
C23 O21 1.214 . S
O24 Cd16 2.277 . S
O24 C19 1.209 . S
C25 O22 1.258 . S
C25 O27 1.282 . S
O26 Cd18 2.277 . S
O26 C19 1.226 . S
O27 Cd18 2.356 . S
O27 C25 1.282 . S
C28 O29 1.306 . S
C28 O31 1.160 . S
O29 C28 1.306 . S
O29 Cd30 2.228 . S
Cd30 O29 2.228 . S
Cd30 O34 2.273 . S
Cd30 O38 2.277 . S
O31 C28 1.160 . S
O31 Cd32 2.203 1_565 S
Cd32 O31 2.203 1_545 S
Cd32 O34 2.411 1_545 S
Cd32 O35 2.333 . S
Cd32 O36 2.392 . S
Cd32 O40 2.277 . S
Cd32 O41 2.356 . S
C33 O38 1.209 1_545 S
C33 O40 1.226 . S
O34 Cd30 2.273 . S
O34 Cd32 2.411 1_565 S
O34 C37 1.320 1_554 S
O35 Cd32 2.333 . S
O35 C37 1.214 1_544 S
O36 Cd32 2.392 . S
O36 C39 1.271 . S
C37 O34 1.320 1_556 S
C37 O35 1.214 1_566 S
O38 Cd30 2.277 . S
O38 C33 1.209 1_565 S
C39 O36 1.271 . S
C39 O41 1.282 . S
O40 Cd32 2.277 . S
O40 C33 1.226 . S
O41 Cd32 2.356 . S
O41 C39 1.282 . S
C42 O43 1.306 . S
C42 O45 1.160 . S
O43 C42 1.306 . S
O43 Cd44 2.228 . S
Cd44 O43 2.228 . S
Cd44 O48 2.273 . S
Cd44 O52 2.277 . S
O45 C42 1.160 . S
O45 Cd46 2.203 1_655 S
Cd46 O45 2.203 1_455 S
Cd46 O48 2.411 1_455 S
Cd46 O49 2.333 . S
Cd46 O50 2.352 . S
Cd46 O54 2.277 . S
Cd46 O55 2.356 . S
C47 O52 1.209 1_455 S
C47 O54 1.226 . S
O48 Cd44 2.273 . S
O48 Cd46 2.411 1_655 S
O48 C51 1.320 . S
O49 Cd46 2.333 . S
O49 C51 1.214 1_455 S
O50 Cd46 2.352 . S
O50 C53 1.258 . S
C51 O48 1.320 . S
C51 O49 1.214 1_655 S
O52 Cd44 2.277 . S
O52 C47 1.209 1_655 S
C53 O50 1.258 . S
C53 O55 1.282 . S
O54 Cd46 2.277 . S
O54 C47 1.226 . S
O55 Cd46 2.356 . S
O55 C53 1.282 . S
C56 O57 1.306 . S
C56 O59 1.160 . S
O57 C56 1.306 . S
O57 Cd58 2.228 . S
Cd58 O57 2.228 . S
Cd58 O62 2.273 1_554 S
Cd58 O66 2.277 . S
O59 C56 1.160 . S
O59 Cd60 2.203 . S
Cd60 O59 2.203 . S
Cd60 O62 2.411 1_554 S
Cd60 O63 2.333 1_554 S
Cd60 O64 2.352 1_554 S
Cd60 O68 2.277 . S
Cd60 O69 2.356 1_554 S
C61 O66 1.209 . S
C61 O68 1.226 . S
O62 Cd58 2.273 1_556 S
O62 Cd60 2.411 1_556 S
O62 C65 1.320 . S
O63 Cd60 2.333 1_556 S
O63 C65 1.214 . S
O64 Cd60 2.352 1_556 S
O64 C67 1.258 . S
C65 O62 1.320 . S
C65 O63 1.214 . S
O66 Cd58 2.277 . S
O66 C61 1.209 . S
C67 O64 1.258 . S
C67 O69 1.282 . S
O68 Cd60 2.277 . S
O68 C61 1.226 . S
O69 Cd60 2.356 1_556 S
O69 C67 1.282 . S
C70 O71 1.306 . S
C70 O73 1.160 . S
O71 C70 1.306 . S
O71 Cd72 2.228 . S
Cd72 O71 2.228 . S
Cd72 O76 2.273 . S
Cd72 O80 2.277 . S
O73 C70 1.160 . S
O73 Cd74 2.203 1_545 S
Cd74 O73 2.203 1_565 S
Cd74 O76 2.411 1_565 S
Cd74 O77 2.333 . S
Cd74 O78 2.352 . S
Cd74 O82 2.277 . S
Cd74 O83 2.356 . S
C75 O80 1.209 1_565 S
C75 O82 1.226 . S
O76 Cd72 2.273 . S
O76 Cd74 2.411 1_545 S
O76 C79 1.320 . S
O77 Cd74 2.333 . S
O77 C79 1.214 1_565 S
O78 Cd74 2.352 . S
O78 C81 1.258 . S
C79 O76 1.320 . S
C79 O77 1.214 1_545 S
O80 Cd72 2.277 . S
O80 C75 1.209 1_545 S
C81 O78 1.258 . S
C81 O83 1.282 . S
O82 Cd74 2.277 . S
O82 C75 1.226 . S
O83 Cd74 2.356 . S
O83 C81 1.282 . S
C84 O85 1.306 . S
C84 O87 1.160 . S
O85 C84 1.306 . S
O85 Cd86 2.228 . S
Cd86 O85 2.228 . S
Cd86 O90 2.273 . S
Cd86 O94 2.277 . S
O87 C84 1.160 . S
O87 Cd88 2.203 . S
Cd88 O87 2.203 . S
Cd88 O90 2.411 . S
Cd88 O91 2.333 . S
Cd88 O92 2.352 . S
Cd88 O96 2.277 . S
Cd88 O97 2.356 . S
C89 O94 1.209 . S
C89 O96 1.226 . S
O90 Cd86 2.273 . S
O90 Cd88 2.411 . S
O90 C93 1.320 . S
O91 Cd88 2.333 . S
O91 C93 1.214 . S
O92 Cd88 2.352 . S
O92 C95 1.258 . S
C93 O90 1.320 . S
C93 O91 1.214 . S
O94 Cd86 2.277 . S
O94 C89 1.209 . S
C95 O92 1.258 . S
C95 O97 1.282 . S
O96 Cd88 2.277 . S
O96 C89 1.226 . S
O97 Cd88 2.356 . S
O97 C95 1.282 . S
C98 O99 1.306 . S
C98 O101 1.160 . S
O99 C98 1.306 . S
O99 Cd100 2.228 . S
Cd100 O99 2.228 . S
Cd100 O104 2.273 . S
Cd100 O108 2.277 . S
O101 C98 1.160 . S
O101 Cd102 2.203 . S
Cd102 O101 2.203 . S
Cd102 O104 2.411 . S
Cd102 O105 2.333 . S
Cd102 O106 2.352 . S
Cd102 O110 2.277 . S
Cd102 O111 2.356 . S
C103 O108 1.209 . S
C103 O110 1.226 . S
O104 Cd100 2.273 . S
O104 Cd102 2.411 . S
O104 C107 1.320 . S
O105 Cd102 2.333 . S
O105 C107 1.214 . S
O106 Cd102 2.352 . S
O106 C109 1.258 . S
C107 O104 1.320 . S
C107 O105 1.214 . S
O108 Cd100 2.277 . S
O108 C103 1.209 . S
C109 O106 1.258 . S
C109 O111 1.282 . S
O110 Cd102 2.277 . S
O110 C103 1.226 . S
O111 Cd102 2.356 . S
O111 C109 1.282 . S
C112 O113 1.306 . S
C112 O115 1.160 . S
O113 C112 1.306 . S
O113 Cd114 2.228 . S
Cd114 O113 2.228 . S
Cd114 O118 2.273 . S
Cd114 O122 2.277 . S
O115 C112 1.160 . S
O115 Cd116 2.203 . S
Cd116 O115 2.203 . S
Cd116 O118 2.411 . S
Cd116 O119 2.333 . S
Cd116 O120 2.352 . S
Cd116 O124 2.277 . S
Cd116 O125 2.356 . S
C117 O122 1.209 . S
C117 O124 1.226 . S
O118 Cd114 2.273 . S
O118 Cd116 2.411 . S
O118 C121 1.320 . S
O119 Cd116 2.333 . S
O119 C121 1.214 . S
O120 Cd116 2.352 . S
O120 C123 1.258 . S
C121 O118 1.320 . S
C121 O119 1.214 . S
O122 Cd114 2.277 . S
O122 C117 1.209 . S
C123 O120 1.258 . S
C123 O125 1.282 . S
O124 Cd116 2.277 . S
O124 C117 1.226 . S
O125 Cd116 2.356 . S
O125 C123 1.282 . S
C126 O127 1.306 . S
C126 O129 1.160 . S
O127 C126 1.306 . S
O127 Cd128 2.228 . S
Cd128 O127 2.228 . S
Cd128 O132 2.273 . S
Cd128 O136 2.277 . S
O129 C126 1.160 . S
O129 Cd130 2.203 . S
Cd130 O129 2.203 . S
Cd130 O132 2.411 . S
Cd130 O133 2.333 . S
Cd130 O134 2.352 . S
Cd130 O138 2.277 . S
Cd130 O139 2.356 . S
C131 O136 1.209 . S
C131 O138 1.226 . S
O132 Cd128 2.273 . S
O132 Cd130 2.411 . S
O132 C135 1.320 . S
O133 Cd130 2.333 . S
O133 C135 1.214 . S
O134 Cd130 2.352 . S
O134 C137 1.258 1_565 S
C135 O132 1.320 . S
C135 O133 1.214 . S
O136 Cd128 2.277 . S
O136 C131 1.209 . S
C137 O134 1.258 1_545 S
C137 O139 1.282 1_545 S
O138 Cd130 2.277 . S
O138 C131 1.226 . S
O139 Cd130 2.356 . S
O139 C137 1.282 1_565 S
C140 O141 1.306 . S
C140 O143 1.160 . S
O141 C140 1.306 . S
O141 Cd142 2.228 . S
Cd142 O141 2.228 . S
Cd142 O146 2.273 . S
Cd142 O150 2.277 . S
O143 C140 1.160 . S
O143 Cd144 2.203 . S
Cd144 O143 2.203 . S
Cd144 O146 2.411 . S
Cd144 O147 2.333 . S
Cd144 O148 2.352 . S
Cd144 O152 2.277 . S
Cd144 O153 2.356 . S
C145 O150 1.209 . S
C145 O152 1.226 . S
O146 Cd142 2.273 . S
O146 Cd144 2.411 . S
O146 C149 1.320 . S
O147 Cd144 2.333 . S
O147 C149 1.214 . S
O148 Cd144 2.352 . S
O148 C151 1.258 . S
C149 O146 1.320 . S
C149 O147 1.214 . S
O150 Cd142 2.277 . S
O150 C145 1.209 . S
C151 O148 1.258 . S
C151 O153 1.282 . S
O152 Cd144 2.277 . S
O152 C145 1.226 . S
O153 Cd144 2.356 . S
O153 C151 1.282 . S
C154 O155 1.306 . S
C154 O157 1.160 . S
O155 C154 1.306 . S
O155 Cd156 2.228 . S
Cd156 O155 2.228 . S
Cd156 O160 2.273 . S
Cd156 O164 2.277 . S
O157 C154 1.160 . S
O157 Cd158 2.203 . S
Cd158 O157 2.203 . S
Cd158 O160 2.411 . S
Cd158 O161 2.333 . S
Cd158 O162 2.352 . S
Cd158 O166 2.277 . S
Cd158 O167 2.356 . S
C159 O164 1.209 . S
C159 O166 1.226 . S
O160 Cd156 2.273 . S
O160 Cd158 2.411 . S
O160 C163 1.320 . S
O161 Cd158 2.333 . S
O161 C163 1.214 . S
O162 Cd158 2.352 . S
O162 C165 1.258 . S
C163 O160 1.320 . S
C163 O161 1.214 . S
O164 Cd156 2.277 . S
O164 C159 1.209 . S
C165 O162 1.258 . S
C165 O167 1.282 . S
O166 Cd158 2.277 . S
O166 C159 1.226 . S
O167 Cd158 2.356 . S
O167 C165 1.282 . S
C168 O169 1.306 . S
C168 O171 1.160 . S
O169 C168 1.306 . S
O169 Cd170 2.228 . S
Cd170 O169 2.228 . S
Cd170 O174 2.273 . S
Cd170 O178 2.277 . S
O171 C168 1.160 . S
O171 Cd172 2.203 . S
Cd172 O171 2.203 . S
Cd172 O174 2.411 . S
Cd172 O175 2.333 . S
Cd172 O176 2.352 . S
Cd172 O180 2.277 . S
Cd172 O181 2.356 . S
C173 O178 1.209 . S
C173 O180 1.226 . S
O174 Cd170 2.273 . S
O174 Cd172 2.411 . S
O174 C177 1.320 . S
O175 Cd172 2.333 . S
O175 C177 1.214 . S
O176 Cd172 2.352 . S
O176 C179 1.258 . S
C177 O174 1.320 . S
C177 O175 1.214 . S
O178 Cd170 2.277 . S
O178 C173 1.209 . S
C179 O176 1.258 . S
C179 O181 1.282 . S
O180 Cd172 2.277 . S
O180 C173 1.226 . S
O181 Cd172 2.356 . S
O181 C179 1.282 . S
C182 O183 1.306 . S
C182 O185 1.160 . S
O183 C182 1.306 . S
O183 Cd184 2.228 . S
Cd184 O183 2.228 . S
Cd184 O188 2.273 . S
Cd184 O192 2.277 . S
O185 C182 1.160 . S
O185 Cd186 2.203 . S
Cd186 O185 2.203 . S
Cd186 O188 2.411 . S
Cd186 O189 2.333 . S
Cd186 O190 2.352 . S
Cd186 O194 2.277 . S
Cd186 O195 2.425 . S
C187 O192 1.209 . S
C187 O194 1.226 . S
O188 Cd184 2.273 . S
O188 Cd186 2.411 . S
O188 C191 1.320 . S
O189 Cd186 2.333 . S
O189 C191 1.214 . S
O190 Cd186 2.352 . S
O190 C193 1.258 1_655 S
C191 O188 1.320 . S
C191 O189 1.214 . S
O192 Cd184 2.277 . S
O192 C187 1.209 . S
C193 O190 1.258 1_455 S
C193 O195 1.294 1_455 S
O194 Cd186 2.277 . S
O194 C187 1.226 . S
O195 Cd186 2.425 . S
O195 C193 1.294 1_655 S
C196 O197 1.306 . S
C196 O199 1.160 . S
O197 C196 1.306 . S
O197 Cd198 2.228 . S
Cd198 O197 2.228 . S
Cd198 O202 2.273 . S
Cd198 O206 2.277 . S
O199 C196 1.160 . S
O199 Cd200 2.203 . S
Cd200 O199 2.203 . S
Cd200 O202 2.411 . S
Cd200 O203 2.333 . S
Cd200 O204 2.352 . S
Cd200 O208 2.277 . S
Cd200 O209 2.356 . S
C201 O206 1.209 . S
C201 O208 1.226 . S
O202 Cd198 2.273 . S
O202 Cd200 2.411 . S
O202 C205 1.320 . S
O203 Cd200 2.333 . S
O203 C205 1.214 . S
O204 Cd200 2.352 . S
O204 C207 1.258 . S
C205 O202 1.320 . S
C205 O203 1.214 . S
O206 Cd198 2.277 . S
O206 C201 1.209 . S
C207 O204 1.258 . S
C207 O209 1.282 . S
O208 Cd200 2.277 . S
O208 C201 1.226 . S
O209 Cd200 2.356 . S
O209 C207 1.282 . S
C210 O211 1.306 . S
C210 O213 1.160 . S
O211 C210 1.306 . S
O211 Cd212 2.228 . S
Cd212 O211 2.228 . S
Cd212 O216 2.273 . S
Cd212 O220 2.277 . S
O213 C210 1.160 . S
O213 Cd214 2.203 . S
Cd214 O213 2.203 . S
Cd214 O216 2.411 . S
Cd214 O217 2.333 . S
Cd214 O218 2.352 . S
Cd214 O222 2.277 . S
Cd214 O223 2.356 . S
C215 O220 1.209 . S
C215 O222 1.226 . S
O216 Cd212 2.273 . S
O216 Cd214 2.411 . S
O216 C219 1.320 . S
O217 Cd214 2.333 . S
O217 C219 1.214 . S
O218 Cd214 2.352 . S
O218 C221 1.258 . S
C219 O216 1.320 . S
C219 O217 1.214 . S
O220 Cd212 2.277 . S
O220 C215 1.209 . S
C221 O218 1.258 . S
C221 O223 1.282 . S
O222 Cd214 2.277 . S
O222 C215 1.226 . S
O223 Cd214 2.356 . S
O223 C221 1.282 . S
C224 O225 1.306 . S
C224 O227 1.160 . S
O225 C224 1.306 . S
O225 Cd226 2.228 . S
Cd226 O225 2.228 . S
Cd226 O230 2.273 . S
Cd226 O234 2.277 . S
O227 C224 1.160 . S
O227 Cd228 2.203 . S
Cd228 O227 2.203 . S
Cd228 O230 2.411 . S
Cd228 O231 2.333 . S
Cd228 O232 2.352 . S
Cd228 O236 2.277 . S
Cd228 O237 2.356 . S
C229 O234 1.209 . S
C229 O236 1.226 . S
O230 Cd226 2.273 . S
O230 Cd228 2.411 . S
O230 C233 1.320 . S
O231 Cd228 2.333 . S
O231 C233 1.214 . S
O232 Cd228 2.352 . S
O232 C235 1.258 . S
C233 O230 1.320 . S
C233 O231 1.214 . S
O234 Cd226 2.277 . S
O234 C229 1.209 . S
C235 O232 1.258 . S
C235 O237 1.282 . S
O236 Cd228 2.277 . S
O236 C229 1.226 . S
O237 Cd228 2.356 . S
O237 C235 1.282 . S
C238 O239 1.306 . S
C238 O241 1.160 . S
O239 C238 1.306 . S
O239 Cd240 2.228 . S
Cd240 O239 2.228 . S
Cd240 O244 2.273 . S
Cd240 O248 2.277 . S
O241 C238 1.160 . S
O241 Cd242 2.203 . S
Cd242 O241 2.203 . S
Cd242 O244 2.411 . S
Cd242 O245 2.333 . S
Cd242 O246 2.352 . S
Cd242 O250 2.277 . S
Cd242 O251 2.356 . S
C243 O248 1.209 . S
C243 O250 1.226 . S
O244 Cd240 2.273 . S
O244 Cd242 2.411 . S
O244 C247 1.320 . S
O245 Cd242 2.333 . S
O245 C247 1.214 . S
O246 Cd242 2.352 . S
O246 C249 1.258 . S
C247 O244 1.320 . S
C247 O245 1.214 . S
O248 Cd240 2.277 . S
O248 C243 1.209 . S
C249 O246 1.258 . S
C249 O251 1.282 . S
O250 Cd242 2.277 . S
O250 C243 1.226 . S
O251 Cd242 2.356 . S
O251 C249 1.282 . S
H252 O278 0.856 . S
H253 O281 0.854 . S
H254 C289 0.930 . S
H255 C290 0.930 . S
H256 C292 0.930 . S
H257 C293 0.930 . S
H258 C295 0.931 . S
H259 C296 0.930 . S
H260 C298 0.930 . S
H261 C299 0.929 . S
H262 C301 0.930 . S
H263 C302 0.931 . S
H264 C304 0.930 . S
H265 C305 0.929 . S
H266 C307 0.931 . S
H267 C308 0.930 . S
H268 C310 0.930 . S
H269 C311 0.932 . S
H270 C313 0.930 . S
H271 C314 0.929 . S
H272 C316 0.931 . S
H273 C317 0.930 . S
H274 C319 0.929 . S
H275 C320 0.931 . S
H276 C322 0.930 . S
H277 C323 0.929 . S
O278 H252 0.856 . S
O278 C324 1.300 . S
O279 C324 1.209 . S
O280 C325 1.199 . S
O281 H253 0.854 . S
O281 C325 1.297 . S
C282 C283 1.404 . S
C282 C287 1.397 . S
C282 C288 1.492 . S
C283 C282 1.404 . S
C283 C284 1.396 . S
C283 C294 1.492 . S
C284 C283 1.396 . S
C284 C285 1.397 . S
C284 C300 1.509 . S
C285 C284 1.397 . S
C285 C286 1.412 . S
C285 C306 1.485 . S
C286 C285 1.412 . S
C286 C287 1.388 . S
C286 C312 1.490 . S
C287 C282 1.397 . S
C287 C286 1.388 . S
C287 C318 1.519 . S
C288 C282 1.492 . S
C288 C289 1.363 . S
C288 C293 1.390 . S
C289 H254 0.930 . S
C289 C288 1.363 . S
C289 C290 1.372 . S
C290 H255 0.930 . S
C290 C289 1.372 . S
C290 C291 1.383 . S
C291 C290 1.383 . S
C291 C292 1.395 . S
C292 H256 0.930 . S
C292 C291 1.395 . S
C292 C293 1.362 . S
C293 H257 0.930 . S
C293 C288 1.390 . S
C293 C292 1.362 . S
C294 C283 1.492 . S
C294 C295 1.377 . S
C294 C299 1.397 . S
C295 H258 0.931 . S
C295 C294 1.377 . S
C295 C296 1.376 . S
C296 H259 0.930 . S
C296 C295 1.376 . S
C296 C297 1.376 . S
C297 C296 1.376 . S
C297 C298 1.378 . S
C297 C324 1.486 . S
C298 H260 0.930 . S
C298 C297 1.378 . S
C298 C299 1.376 . S
C299 H261 0.929 . S
C299 C294 1.397 . S
C299 C298 1.376 . S
C300 C284 1.509 . S
C300 C301 1.391 . S
C300 C305 1.386 . S
C301 H262 0.930 . S
C301 C300 1.391 . S
C301 C302 1.375 . S
C302 H263 0.931 . S
C302 C301 1.375 . S
C302 C303 1.375 . S
C303 C302 1.375 . S
C303 C304 1.361 . S
C304 H264 0.930 . S
C304 C303 1.361 . S
C304 C305 1.399 . S
C305 H265 0.929 . S
C305 C300 1.386 . S
C305 C304 1.399 . S
C306 C285 1.485 . S
C306 C307 1.394 . S
C306 C311 1.360 . S
C307 H266 0.931 . S
C307 C306 1.394 . S
C307 C308 1.372 . S
C308 H267 0.930 . S
C308 C307 1.372 . S
C308 C309 1.397 . S
C309 C308 1.397 . S
C309 C310 1.390 . S
C309 C325 1.476 . S
C310 H268 0.930 . S
C310 C309 1.390 . S
C310 C311 1.366 . S
C311 H269 0.932 . S
C311 C306 1.360 . S
C311 C310 1.366 . S
C312 C286 1.490 . S
C312 C313 1.380 . S
C312 C317 1.386 . S
C313 H270 0.930 . S
C313 C312 1.380 . S
C313 C314 1.381 . S
C314 H271 0.929 . S
C314 C313 1.381 . S
C314 C315 1.371 . S
C315 C314 1.371 . S
C315 C316 1.380 . S
C316 H272 0.931 . S
C316 C315 1.380 . S
C316 C317 1.387 . S
C317 H273 0.930 . S
C317 C312 1.386 . S
C317 C316 1.387 . S
C318 C287 1.519 . S
C318 C319 1.377 . S
C318 C323 1.361 . S
C319 H274 0.929 . S
C319 C318 1.377 . S
C319 C320 1.386 . S
C320 H275 0.931 . S
C320 C319 1.386 . S
C320 C321 1.363 . S
C321 C320 1.363 . S
C321 C322 1.385 . S
C322 H276 0.930 . S
C322 C321 1.385 . S
C322 C323 1.396 . S
C323 H277 0.929 . S
C323 C318 1.361 . S
C323 C322 1.396 . S
C324 O278 1.300 . S
C324 O279 1.209 . S
C324 C297 1.486 . S
C325 O280 1.199 . S
C325 O281 1.297 . S
C325 C309 1.476 . S
H326 O352 0.856 . S
H327 O355 0.854 . S
H328 C363 0.930 . S
H329 C364 0.930 . S
H330 C366 0.930 . S
H331 C367 0.930 . S
H332 C369 0.931 . S
H333 C370 0.930 . S
H334 C372 0.930 . S
H335 C373 0.929 . S
H336 C375 0.930 . S
H337 C376 0.931 . S
H338 C378 0.930 . S
H339 C379 0.929 . S
H340 C381 0.931 . S
H341 C382 0.930 . S
H342 C384 0.930 . S
H343 C385 0.932 . S
H344 C387 0.930 . S
H345 C388 0.929 . S
H346 C390 0.931 . S
H347 C391 0.930 . S
H348 C393 0.929 . S
H349 C394 0.931 . S
H350 C396 0.930 . S
H351 C397 0.929 . S
O352 H326 0.856 . S
O352 C398 1.300 . S
O353 C398 1.209 . S
O354 C399 1.199 . S
O355 H327 0.854 . S
O355 C399 1.297 . S
C356 C357 1.404 . S
C356 C361 1.397 . S
C356 C362 1.492 . S
C357 C356 1.404 . S
C357 C358 1.396 . S
C357 C368 1.492 . S
C358 C357 1.396 . S
C358 C359 1.397 . S
C358 C374 1.509 . S
C359 C358 1.397 . S
C359 C360 1.412 . S
C359 C380 1.485 . S
C360 C359 1.412 . S
C360 C361 1.388 . S
C360 C386 1.490 . S
C361 C356 1.397 . S
C361 C360 1.388 . S
C361 C392 1.519 . S
C362 C356 1.492 . S
C362 C363 1.363 . S
C362 C367 1.390 . S
C363 H328 0.930 . S
C363 C362 1.363 . S
C363 C364 1.372 . S
C364 H329 0.930 . S
C364 C363 1.372 . S
C364 C365 1.383 . S
C365 C364 1.383 . S
C365 C366 1.395 . S
C366 H330 0.930 . S
C366 C365 1.395 . S
C366 C367 1.362 . S
C367 H331 0.930 . S
C367 C362 1.390 . S
C367 C366 1.362 . S
C368 C357 1.492 . S
C368 C369 1.377 . S
C368 C373 1.397 . S
C369 H332 0.931 . S
C369 C368 1.377 . S
C369 C370 1.376 . S
C370 H333 0.930 . S
C370 C369 1.376 . S
C370 C371 1.376 . S
C371 C370 1.376 . S
C371 C372 1.378 . S
C371 C398 1.486 . S
C372 H334 0.930 . S
C372 C371 1.378 . S
C372 C373 1.376 . S
C373 H335 0.929 . S
C373 C368 1.397 . S
C373 C372 1.376 . S
C374 C358 1.509 . S
C374 C375 1.391 . S
C374 C379 1.386 . S
C375 H336 0.930 . S
C375 C374 1.391 . S
C375 C376 1.375 . S
C376 H337 0.931 . S
C376 C375 1.375 . S
C376 C377 1.375 . S
C377 C376 1.375 . S
C377 C378 1.361 . S
C378 H338 0.930 . S
C378 C377 1.361 . S
C378 C379 1.399 . S
C379 H339 0.929 . S
C379 C374 1.386 . S
C379 C378 1.399 . S
C380 C359 1.485 . S
C380 C381 1.394 . S
C380 C385 1.360 . S
C381 H340 0.931 . S
C381 C380 1.394 . S
C381 C382 1.372 . S
C382 H341 0.930 . S
C382 C381 1.372 . S
C382 C383 1.397 . S
C383 C382 1.397 . S
C383 C384 1.390 . S
C383 C399 1.476 . S
C384 H342 0.930 . S
C384 C383 1.390 . S
C384 C385 1.366 . S
C385 H343 0.932 . S
C385 C380 1.360 . S
C385 C384 1.366 . S
C386 C360 1.490 . S
C386 C387 1.380 . S
C386 C391 1.386 . S
C387 H344 0.930 . S
C387 C386 1.380 . S
C387 C388 1.381 . S
C388 H345 0.929 . S
C388 C387 1.381 . S
C388 C389 1.371 . S
C389 C388 1.371 . S
C389 C390 1.380 . S
C390 H346 0.931 . S
C390 C389 1.380 . S
C390 C391 1.387 . S
C391 H347 0.930 . S
C391 C386 1.386 . S
C391 C390 1.387 . S
C392 C361 1.519 . S
C392 C393 1.377 . S
C392 C397 1.361 . S
C393 H348 0.929 . S
C393 C392 1.377 . S
C393 C394 1.386 . S
C394 H349 0.931 . S
C394 C393 1.386 . S
C394 C395 1.363 . S
C395 C394 1.363 . S
C395 C396 1.385 . S
C396 H350 0.930 . S
C396 C395 1.385 . S
C396 C397 1.396 . S
C397 H351 0.929 . S
C397 C392 1.361 . S
C397 C396 1.396 . S
C398 O352 1.300 . S
C398 O353 1.209 . S
C398 C371 1.486 . S
C399 O354 1.199 . S
C399 O355 1.297 . S
C399 C383 1.476 . S
H400 O426 0.856 . S
H401 O429 0.854 . S
H402 C437 0.930 . S
H403 C438 0.930 . S
H404 C440 0.930 . S
H405 C441 0.930 . S
H406 C443 0.931 . S
H407 C444 0.930 . S
H408 C446 0.930 . S
H409 C447 0.929 . S
H410 C449 0.930 . S
H411 C450 0.931 . S
H412 C452 0.930 . S
H413 C453 0.929 . S
H414 C455 0.931 . S
H415 C456 0.930 . S
H416 C458 0.930 . S
H417 C459 0.932 . S
H418 C461 0.930 . S
H419 C462 0.929 . S
H420 C464 0.931 . S
H421 C465 0.930 . S
H422 C467 0.929 . S
H423 C468 0.931 . S
H424 C470 0.930 . S
H425 C471 0.929 . S
O426 H400 0.856 . S
O426 C472 1.300 . S
O427 C472 1.209 . S
O428 C473 1.199 . S
O429 H401 0.854 . S
O429 C473 1.297 . S
C430 C431 1.404 . S
C430 C435 1.397 . S
C430 C436 1.492 . S
C431 C430 1.404 . S
C431 C432 1.396 . S
C431 C442 1.492 . S
C432 C431 1.396 . S
C432 C433 1.397 . S
C432 C448 1.509 . S
C433 C432 1.397 . S
C433 C434 1.412 . S
C433 C454 1.485 . S
C434 C433 1.412 . S
C434 C435 1.388 . S
C434 C460 1.490 . S
C435 C430 1.397 . S
C435 C434 1.388 . S
C435 C466 1.519 . S
C436 C430 1.492 . S
C436 C437 1.363 . S
C436 C441 1.390 . S
C437 H402 0.930 . S
C437 C436 1.363 . S
C437 C438 1.372 . S
C438 H403 0.930 . S
C438 C437 1.372 . S
C438 C439 1.383 . S
C439 C438 1.383 . S
C439 C440 1.395 . S
C440 H404 0.930 . S
C440 C439 1.395 . S
C440 C441 1.362 . S
C441 H405 0.930 . S
C441 C436 1.390 . S
C441 C440 1.362 . S
C442 C431 1.492 . S
C442 C443 1.377 . S
C442 C447 1.397 . S
C443 H406 0.931 . S
C443 C442 1.377 . S
C443 C444 1.376 . S
C444 H407 0.930 . S
C444 C443 1.376 . S
C444 C445 1.376 . S
C445 C444 1.376 . S
C445 C446 1.378 . S
C445 C472 1.486 . S
C446 H408 0.930 . S
C446 C445 1.378 . S
C446 C447 1.376 . S
C447 H409 0.929 . S
C447 C442 1.397 . S
C447 C446 1.376 . S
C448 C432 1.509 . S
C448 C449 1.391 . S
C448 C453 1.386 . S
C449 H410 0.930 . S
C449 C448 1.391 . S
C449 C450 1.375 . S
C450 H411 0.931 . S
C450 C449 1.375 . S
C450 C451 1.375 . S
C451 C450 1.375 . S
C451 C452 1.361 . S
C452 H412 0.930 . S
C452 C451 1.361 . S
C452 C453 1.399 . S
C453 H413 0.929 . S
C453 C448 1.386 . S
C453 C452 1.399 . S
C454 C433 1.485 . S
C454 C455 1.394 . S
C454 C459 1.360 . S
C455 H414 0.931 . S
C455 C454 1.394 . S
C455 C456 1.372 . S
C456 H415 0.930 . S
C456 C455 1.372 . S
C456 C457 1.397 . S
C457 C456 1.397 . S
C457 C458 1.390 . S
C457 C473 1.476 . S
C458 H416 0.930 . S
C458 C457 1.390 . S
C458 C459 1.366 . S
C459 H417 0.932 . S
C459 C454 1.360 . S
C459 C458 1.366 . S
C460 C434 1.490 . S
C460 C461 1.380 . S
C460 C465 1.386 . S
C461 H418 0.930 . S
C461 C460 1.380 . S
C461 C462 1.381 . S
C462 H419 0.929 . S
C462 C461 1.381 . S
C462 C463 1.371 . S
C463 C462 1.371 . S
C463 C464 1.380 . S
C464 H420 0.931 . S
C464 C463 1.380 . S
C464 C465 1.387 . S
C465 H421 0.930 . S
C465 C460 1.386 . S
C465 C464 1.387 . S
C466 C435 1.519 . S
C466 C467 1.377 . S
C466 C471 1.361 . S
C467 H422 0.929 . S
C467 C466 1.377 . S
C467 C468 1.386 . S
C468 H423 0.931 . S
C468 C467 1.386 . S
C468 C469 1.363 . S
C469 C468 1.363 . S
C469 C470 1.385 . S
C470 H424 0.930 . S
C470 C469 1.385 . S
C470 C471 1.396 . S
C471 H425 0.929 . S
C471 C466 1.361 . S
C471 C470 1.396 . S
C472 O426 1.300 . S
C472 O427 1.209 . S
C472 C445 1.486 . S
C473 O428 1.199 . S
C473 O429 1.297 . S
C473 C457 1.476 . S
H474 O500 0.894 . S
H475 O503 0.854 . S
H476 C511 0.930 . S
H477 C512 0.930 . S
H478 C514 0.930 . S
H479 C515 0.930 . S
H480 C517 0.931 . S
H481 C518 0.930 . S
H482 C520 0.930 . S
H483 C521 0.929 . S
H484 C523 0.930 . S
H485 C524 0.931 . S
H486 C526 0.930 . S
H487 C527 0.929 . S
H488 C529 0.931 . S
H489 C530 0.930 . S
H490 C532 0.930 . S
H491 C533 0.932 . S
H492 C535 0.930 . S
H493 C536 0.929 . S
H494 C538 0.931 . S
H495 C539 0.930 . S
H496 C541 0.929 . S
H497 C542 0.931 . S
H498 C544 0.930 . S
H499 C545 0.929 . S
O500 H474 0.894 . S
O500 C546 1.271 1_554 S
O501 C546 1.209 . S
O502 C547 1.199 . S
O503 H475 0.854 . S
O503 C547 1.297 . S
C504 C505 1.404 . S
C504 C509 1.397 . S
C504 C510 1.492 . S
C505 C504 1.404 . S
C505 C506 1.396 . S
C505 C516 1.492 . S
C506 C505 1.396 . S
C506 C507 1.397 . S
C506 C522 1.509 . S
C507 C506 1.397 . S
C507 C508 1.412 . S
C507 C528 1.485 . S
C508 C507 1.412 . S
C508 C509 1.388 . S
C508 C534 1.490 . S
C509 C504 1.397 . S
C509 C508 1.388 . S
C509 C540 1.519 . S
C510 C504 1.492 . S
C510 C511 1.363 . S
C510 C515 1.390 . S
C511 H476 0.930 . S
C511 C510 1.363 . S
C511 C512 1.372 . S
C512 H477 0.930 . S
C512 C511 1.372 . S
C512 C513 1.383 . S
C513 C512 1.383 . S
C513 C514 1.395 . S
C514 H478 0.930 . S
C514 C513 1.395 . S
C514 C515 1.362 . S
C515 H479 0.930 . S
C515 C510 1.390 . S
C515 C514 1.362 . S
C516 C505 1.492 . S
C516 C517 1.377 . S
C516 C521 1.397 . S
C517 H480 0.931 . S
C517 C516 1.377 . S
C517 C518 1.376 . S
C518 H481 0.930 . S
C518 C517 1.376 . S
C518 C519 1.376 . S
C519 C518 1.376 . S
C519 C520 1.378 . S
C519 C546 1.486 . S
C520 H482 0.930 . S
C520 C519 1.378 . S
C520 C521 1.376 . S
C521 H483 0.929 . S
C521 C516 1.397 . S
C521 C520 1.376 . S
C522 C506 1.509 . S
C522 C523 1.391 . S
C522 C527 1.386 . S
C523 H484 0.930 . S
C523 C522 1.391 . S
C523 C524 1.375 . S
C524 H485 0.931 . S
C524 C523 1.375 . S
C524 C525 1.375 . S
C525 C524 1.375 . S
C525 C526 1.361 . S
C526 H486 0.930 . S
C526 C525 1.361 . S
C526 C527 1.399 . S
C527 H487 0.929 . S
C527 C522 1.386 . S
C527 C526 1.399 . S
C528 C507 1.485 . S
C528 C529 1.394 . S
C528 C533 1.360 . S
C529 H488 0.931 . S
C529 C528 1.394 . S
C529 C530 1.372 . S
C530 H489 0.930 . S
C530 C529 1.372 . S
C530 C531 1.397 . S
C531 C530 1.397 . S
C531 C532 1.390 . S
C531 C547 1.476 . S
C532 H490 0.930 . S
C532 C531 1.390 . S
C532 C533 1.366 . S
C533 H491 0.932 . S
C533 C528 1.360 . S
C533 C532 1.366 . S
C534 C508 1.490 . S
C534 C535 1.380 . S
C534 C539 1.386 . S
C535 H492 0.930 . S
C535 C534 1.380 . S
C535 C536 1.381 . S
C536 H493 0.929 . S
C536 C535 1.381 . S
C536 C537 1.371 . S
C537 C536 1.371 . S
C537 C538 1.380 . S
C538 H494 0.931 . S
C538 C537 1.380 . S
C538 C539 1.387 . S
C539 H495 0.930 . S
C539 C534 1.386 . S
C539 C538 1.387 . S
C540 C509 1.519 . S
C540 C541 1.377 . S
C540 C545 1.361 . S
C541 H496 0.929 . S
C541 C540 1.377 . S
C541 C542 1.386 . S
C542 H497 0.931 . S
C542 C541 1.386 . S
C542 C543 1.363 . S
C543 C542 1.363 . S
C543 C544 1.385 . S
C544 H498 0.930 . S
C544 C543 1.385 . S
C544 C545 1.396 . S
C545 H499 0.929 . S
C545 C540 1.361 . S
C545 C544 1.396 . S
C546 O500 1.271 1_556 S
C546 O501 1.209 . S
C546 C519 1.486 . S
C547 O502 1.199 . S
C547 O503 1.297 . S
C547 C531 1.476 . S
H548 O574 0.856 . S
H549 O577 0.854 . S
H550 C585 0.930 . S
H551 C586 0.930 . S
H552 C588 0.930 . S
H553 C589 0.930 . S
H554 C591 0.931 . S
H555 C592 0.930 . S
H556 C594 0.930 . S
H557 C595 0.929 . S
H558 C597 0.930 . S
H559 C598 0.931 . S
H560 C600 0.930 . S
H561 C601 0.929 . S
H562 C603 0.931 . S
H563 C604 0.930 . S
H564 C606 0.930 . S
H565 C607 0.932 . S
H566 C609 0.930 . S
H567 C610 0.929 . S
H568 C612 0.931 . S
H569 C613 0.930 . S
H570 C615 0.929 . S
H571 C616 0.931 . S
H572 C618 0.930 . S
H573 C619 0.929 . S
O574 H548 0.856 . S
O574 C620 1.300 . S
O575 C620 1.209 . S
O576 C621 1.199 . S
O577 H549 0.854 . S
O577 C621 1.297 . S
C578 C579 1.404 . S
C578 C583 1.397 . S
C578 C584 1.492 . S
C579 C578 1.404 . S
C579 C580 1.396 . S
C579 C590 1.492 . S
C580 C579 1.396 . S
C580 C581 1.397 . S
C580 C596 1.509 . S
C581 C580 1.397 . S
C581 C582 1.412 . S
C581 C602 1.485 . S
C582 C581 1.412 . S
C582 C583 1.388 . S
C582 C608 1.490 . S
C583 C578 1.397 . S
C583 C582 1.388 . S
C583 C614 1.519 . S
C584 C578 1.492 . S
C584 C585 1.363 . S
C584 C589 1.390 . S
C585 H550 0.930 . S
C585 C584 1.363 . S
C585 C586 1.372 . S
C586 H551 0.930 . S
C586 C585 1.372 . S
C586 C587 1.383 . S
C587 C586 1.383 . S
C587 C588 1.395 . S
C588 H552 0.930 . S
C588 C587 1.395 . S
C588 C589 1.362 . S
C589 H553 0.930 . S
C589 C584 1.390 . S
C589 C588 1.362 . S
C590 C579 1.492 . S
C590 C591 1.377 . S
C590 C595 1.397 . S
C591 H554 0.931 . S
C591 C590 1.377 . S
C591 C592 1.376 . S
C592 H555 0.930 . S
C592 C591 1.376 . S
C592 C593 1.376 . S
C593 C592 1.376 . S
C593 C594 1.378 . S
C593 C620 1.486 1_556 S
C594 H556 0.930 . S
C594 C593 1.378 . S
C594 C595 1.376 . S
C595 H557 0.929 . S
C595 C590 1.397 . S
C595 C594 1.376 . S
C596 C580 1.509 . S
C596 C597 1.391 . S
C596 C601 1.386 . S
C597 H558 0.930 . S
C597 C596 1.391 . S
C597 C598 1.375 . S
C598 H559 0.931 . S
C598 C597 1.375 . S
C598 C599 1.375 . S
C599 C598 1.375 . S
C599 C600 1.361 . S
C600 H560 0.930 . S
C600 C599 1.361 . S
C600 C601 1.399 . S
C601 H561 0.929 . S
C601 C596 1.386 . S
C601 C600 1.399 . S
C602 C581 1.485 . S
C602 C603 1.394 . S
C602 C607 1.360 . S
C603 H562 0.931 . S
C603 C602 1.394 . S
C603 C604 1.372 . S
C604 H563 0.930 . S
C604 C603 1.372 . S
C604 C605 1.397 . S
C605 C604 1.397 . S
C605 C606 1.390 . S
C605 C621 1.476 . S
C606 H564 0.930 . S
C606 C605 1.390 . S
C606 C607 1.366 . S
C607 H565 0.932 . S
C607 C602 1.360 . S
C607 C606 1.366 . S
C608 C582 1.490 . S
C608 C609 1.380 . S
C608 C613 1.386 . S
C609 H566 0.930 . S
C609 C608 1.380 . S
C609 C610 1.381 . S
C610 H567 0.929 . S
C610 C609 1.381 . S
C610 C611 1.371 . S
C611 C610 1.371 . S
C611 C612 1.380 . S
C612 H568 0.931 . S
C612 C611 1.380 . S
C612 C613 1.387 . S
C613 H569 0.930 . S
C613 C608 1.386 . S
C613 C612 1.387 . S
C614 C583 1.519 . S
C614 C615 1.377 . S
C614 C619 1.361 . S
C615 H570 0.929 . S
C615 C614 1.377 . S
C615 C616 1.386 . S
C616 H571 0.931 . S
C616 C615 1.386 . S
C616 C617 1.363 . S
C617 C616 1.363 . S
C617 C618 1.385 . S
C618 H572 0.930 . S
C618 C617 1.385 . S
C618 C619 1.396 . S
C619 H573 0.929 . S
C619 C614 1.361 . S
C619 C618 1.396 . S
C620 O574 1.300 . S
C620 O575 1.209 . S
C620 C593 1.486 1_554 S
C621 O576 1.199 . S
C621 O577 1.297 . S
C621 C605 1.476 . S
H622 O648 0.856 . S
H623 O651 0.854 . S
H624 C659 0.930 . S
H625 C660 0.930 . S
H626 C662 0.930 . S
H627 C663 0.930 . S
H628 C665 0.931 . S
H629 C666 0.930 . S
H630 C668 0.930 . S
H631 C669 0.929 . S
H632 C671 0.930 . S
H633 C672 0.931 . S
H634 C674 0.930 . S
H635 C675 0.929 . S
H636 C677 0.931 . S
H637 C678 0.930 . S
H638 C680 0.930 . S
H639 C681 0.932 . S
H640 C683 0.930 . S
H641 C684 0.929 . S
H642 C686 0.931 . S
H643 C687 0.930 . S
H644 C689 0.929 . S
H645 C690 0.931 . S
H646 C692 0.930 . S
H647 C693 0.929 . S
O648 H622 0.856 . S
O648 C694 1.300 . S
O649 C694 1.209 . S
O650 C695 1.199 . S
O651 H623 0.854 . S
O651 C695 1.297 . S
C652 C653 1.404 . S
C652 C657 1.397 . S
C652 C658 1.492 . S
C653 C652 1.404 . S
C653 C654 1.396 . S
C653 C664 1.492 . S
C654 C653 1.396 . S
C654 C655 1.397 . S
C654 C670 1.509 . S
C655 C654 1.397 . S
C655 C656 1.412 . S
C655 C676 1.485 . S
C656 C655 1.412 . S
C656 C657 1.388 . S
C656 C682 1.490 . S
C657 C652 1.397 . S
C657 C656 1.388 . S
C657 C688 1.519 . S
C658 C652 1.492 . S
C658 C659 1.363 . S
C658 C663 1.390 . S
C659 H624 0.930 . S
C659 C658 1.363 . S
C659 C660 1.372 . S
C660 H625 0.930 . S
C660 C659 1.372 . S
C660 C661 1.383 . S
C661 C660 1.383 . S
C661 C662 1.395 . S
C662 H626 0.930 . S
C662 C661 1.395 . S
C662 C663 1.362 . S
C663 H627 0.930 . S
C663 C658 1.390 . S
C663 C662 1.362 . S
C664 C653 1.492 . S
C664 C665 1.377 . S
C664 C669 1.397 . S
C665 H628 0.931 . S
C665 C664 1.377 . S
C665 C666 1.376 . S
C666 H629 0.930 . S
C666 C665 1.376 . S
C666 C667 1.376 . S
C667 C666 1.376 . S
C667 C668 1.378 . S
C667 C694 1.486 1_556 S
C668 H630 0.930 . S
C668 C667 1.378 . S
C668 C669 1.376 . S
C669 H631 0.929 . S
C669 C664 1.397 . S
C669 C668 1.376 . S
C670 C654 1.509 . S
C670 C671 1.391 . S
C670 C675 1.386 . S
C671 H632 0.930 . S
C671 C670 1.391 . S
C671 C672 1.375 . S
C672 H633 0.931 . S
C672 C671 1.375 . S
C672 C673 1.375 . S
C673 C672 1.375 . S
C673 C674 1.361 . S
C674 H634 0.930 . S
C674 C673 1.361 . S
C674 C675 1.399 . S
C675 H635 0.929 . S
C675 C670 1.386 . S
C675 C674 1.399 . S
C676 C655 1.485 . S
C676 C677 1.394 . S
C676 C681 1.360 . S
C677 H636 0.931 . S
C677 C676 1.394 . S
C677 C678 1.372 . S
C678 H637 0.930 . S
C678 C677 1.372 . S
C678 C679 1.397 . S
C679 C678 1.397 . S
C679 C680 1.390 . S
C679 C695 1.476 . S
C680 H638 0.930 . S
C680 C679 1.390 . S
C680 C681 1.366 . S
C681 H639 0.932 . S
C681 C676 1.360 . S
C681 C680 1.366 . S
C682 C656 1.490 . S
C682 C683 1.380 . S
C682 C687 1.386 . S
C683 H640 0.930 . S
C683 C682 1.380 . S
C683 C684 1.381 . S
C684 H641 0.929 . S
C684 C683 1.381 . S
C684 C685 1.371 . S
C685 C684 1.371 . S
C685 C686 1.380 . S
C686 H642 0.931 . S
C686 C685 1.380 . S
C686 C687 1.387 . S
C687 H643 0.930 . S
C687 C682 1.386 . S
C687 C686 1.387 . S
C688 C657 1.519 . S
C688 C689 1.377 . S
C688 C693 1.361 . S
C689 H644 0.929 . S
C689 C688 1.377 . S
C689 C690 1.386 . S
C690 H645 0.931 . S
C690 C689 1.386 . S
C690 C691 1.363 . S
C691 C690 1.363 . S
C691 C692 1.385 . S
C692 H646 0.930 . S
C692 C691 1.385 . S
C692 C693 1.396 . S
C693 H647 0.929 . S
C693 C688 1.361 . S
C693 C692 1.396 . S
C694 O648 1.300 . S
C694 O649 1.209 . S
C694 C667 1.486 1_554 S
C695 O650 1.199 . S
C695 O651 1.297 . S
C695 C679 1.476 . S
H696 O722 0.856 . S
H697 O725 0.854 . S
H698 C733 0.930 . S
H699 C734 0.930 . S
H700 C736 0.930 . S
H701 C737 0.930 . S
H702 C739 0.931 . S
H703 C740 0.930 . S
H704 C742 0.930 . S
H705 C743 0.929 . S
H706 C745 0.930 . S
H707 C746 0.931 . S
H708 C748 0.930 . S
H709 C749 0.929 . S
H710 C751 0.931 . S
H711 C752 0.930 . S
H712 C754 0.930 . S
H713 C755 0.932 . S
H714 C757 0.930 . S
H715 C758 0.929 . S
H716 C760 0.931 . S
H717 C761 0.930 . S
H718 C763 0.929 . S
H719 C764 0.931 . S
H720 C766 0.930 . S
H721 C767 0.929 . S
O722 H696 0.856 . S
O722 C768 1.300 . S
O723 C768 1.209 . S
O724 C769 1.199 . S
O725 H697 0.854 . S
O725 C769 1.297 . S
C726 C727 1.404 . S
C726 C731 1.397 . S
C726 C732 1.492 . S
C727 C726 1.404 . S
C727 C728 1.396 . S
C727 C738 1.492 . S
C728 C727 1.396 . S
C728 C729 1.397 . S
C728 C744 1.509 . S
C729 C728 1.397 . S
C729 C730 1.412 . S
C729 C750 1.485 . S
C730 C729 1.412 . S
C730 C731 1.388 . S
C730 C756 1.490 . S
C731 C726 1.397 . S
C731 C730 1.388 . S
C731 C762 1.519 . S
C732 C726 1.492 . S
C732 C733 1.363 . S
C732 C737 1.390 . S
C733 H698 0.930 . S
C733 C732 1.363 . S
C733 C734 1.372 . S
C734 H699 0.930 . S
C734 C733 1.372 . S
C734 C735 1.383 . S
C735 C734 1.383 . S
C735 C736 1.395 . S
C736 H700 0.930 . S
C736 C735 1.395 . S
C736 C737 1.362 . S
C737 H701 0.930 . S
C737 C732 1.390 . S
C737 C736 1.362 . S
C738 C727 1.492 . S
C738 C739 1.377 . S
C738 C743 1.397 . S
C739 H702 0.931 . S
C739 C738 1.377 . S
C739 C740 1.376 . S
C740 H703 0.930 . S
C740 C739 1.376 . S
C740 C741 1.376 . S
C741 C740 1.376 . S
C741 C742 1.378 . S
C741 C768 1.486 . S
C742 H704 0.930 . S
C742 C741 1.378 . S
C742 C743 1.376 . S
C743 H705 0.929 . S
C743 C738 1.397 . S
C743 C742 1.376 . S
C744 C728 1.509 . S
C744 C745 1.391 . S
C744 C749 1.386 . S
C745 H706 0.930 . S
C745 C744 1.391 . S
C745 C746 1.375 . S
C746 H707 0.931 . S
C746 C745 1.375 . S
C746 C747 1.375 . S
C747 C746 1.375 . S
C747 C748 1.361 . S
C748 H708 0.930 . S
C748 C747 1.361 . S
C748 C749 1.399 . S
C749 H709 0.929 . S
C749 C744 1.386 . S
C749 C748 1.399 . S
C750 C729 1.485 . S
C750 C751 1.394 . S
C750 C755 1.360 . S
C751 H710 0.931 . S
C751 C750 1.394 . S
C751 C752 1.372 . S
C752 H711 0.930 . S
C752 C751 1.372 . S
C752 C753 1.397 . S
C753 C752 1.397 . S
C753 C754 1.390 . S
C753 C769 1.476 . S
C754 H712 0.930 . S
C754 C753 1.390 . S
C754 C755 1.366 . S
C755 H713 0.932 . S
C755 C750 1.360 . S
C755 C754 1.366 . S
C756 C730 1.490 . S
C756 C757 1.380 . S
C756 C761 1.386 . S
C757 H714 0.930 . S
C757 C756 1.380 . S
C757 C758 1.381 . S
C758 H715 0.929 . S
C758 C757 1.381 . S
C758 C759 1.371 . S
C759 C758 1.371 . S
C759 C760 1.380 . S
C760 H716 0.931 . S
C760 C759 1.380 . S
C760 C761 1.387 . S
C761 H717 0.930 . S
C761 C756 1.386 . S
C761 C760 1.387 . S
C762 C731 1.519 . S
C762 C763 1.377 . S
C762 C767 1.361 . S
C763 H718 0.929 . S
C763 C762 1.377 . S
C763 C764 1.386 . S
C764 H719 0.931 . S
C764 C763 1.386 . S
C764 C765 1.363 . S
C765 C764 1.363 . S
C765 C766 1.385 . S
C766 H720 0.930 . S
C766 C765 1.385 . S
C766 C767 1.396 . S
C767 H721 0.929 . S
C767 C762 1.361 . S
C767 C766 1.396 . S
C768 O722 1.300 . S
C768 O723 1.209 . S
C768 C741 1.486 . S
C769 O724 1.199 . S
C769 O725 1.297 . S
C769 C753 1.476 . S
H770 O796 0.856 . S
H771 O799 0.854 . S
H772 C807 0.930 . S
H773 C808 0.930 . S
H774 C810 0.930 . S
H775 C811 0.930 . S
H776 C813 0.931 . S
H777 C814 0.930 . S
H778 C816 0.930 . S
H779 C817 0.929 . S
H780 C819 0.930 . S
H781 C820 0.931 . S
H782 C822 0.930 . S
H783 C823 0.929 . S
H784 C825 0.931 . S
H785 C826 0.930 . S
H786 C828 0.930 . S
H787 C829 0.932 . S
H788 C831 0.930 . S
H789 C832 0.929 . S
H790 C834 0.931 . S
H791 C835 0.930 . S
H792 C837 0.929 . S
H793 C838 0.931 . S
H794 C840 0.930 . S
H795 C841 0.929 . S
O796 H770 0.856 . S
O796 C842 1.300 . S
O797 C842 1.209 . S
O798 C843 1.199 . S
O799 H771 0.854 . S
O799 C843 1.297 . S
C800 C801 1.404 . S
C800 C805 1.397 . S
C800 C806 1.492 . S
C801 C800 1.404 . S
C801 C802 1.396 . S
C801 C812 1.492 . S
C802 C801 1.396 . S
C802 C803 1.397 . S
C802 C818 1.509 . S
C803 C802 1.397 . S
C803 C804 1.412 . S
C803 C824 1.485 . S
C804 C803 1.412 . S
C804 C805 1.388 . S
C804 C830 1.490 . S
C805 C800 1.397 . S
C805 C804 1.388 . S
C805 C836 1.519 . S
C806 C800 1.492 . S
C806 C807 1.363 . S
C806 C811 1.390 . S
C807 H772 0.930 . S
C807 C806 1.363 . S
C807 C808 1.372 . S
C808 H773 0.930 . S
C808 C807 1.372 . S
C808 C809 1.383 . S
C809 C808 1.383 . S
C809 C810 1.395 . S
C810 H774 0.930 . S
C810 C809 1.395 . S
C810 C811 1.362 . S
C811 H775 0.930 . S
C811 C806 1.390 . S
C811 C810 1.362 . S
C812 C801 1.492 . S
C812 C813 1.377 . S
C812 C817 1.397 . S
C813 H776 0.931 . S
C813 C812 1.377 . S
C813 C814 1.376 . S
C814 H777 0.930 . S
C814 C813 1.376 . S
C814 C815 1.376 . S
C815 C814 1.376 . S
C815 C816 1.378 . S
C815 C842 1.486 . S
C816 H778 0.930 . S
C816 C815 1.378 . S
C816 C817 1.376 . S
C817 H779 0.929 . S
C817 C812 1.397 . S
C817 C816 1.376 . S
C818 C802 1.509 . S
C818 C819 1.391 . S
C818 C823 1.386 . S
C819 H780 0.930 . S
C819 C818 1.391 . S
C819 C820 1.375 . S
C820 H781 0.931 . S
C820 C819 1.375 . S
C820 C821 1.375 . S
C821 C820 1.375 . S
C821 C822 1.361 . S
C822 H782 0.930 . S
C822 C821 1.361 . S
C822 C823 1.399 . S
C823 H783 0.929 . S
C823 C818 1.386 . S
C823 C822 1.399 . S
C824 C803 1.485 . S
C824 C825 1.394 . S
C824 C829 1.360 . S
C825 H784 0.931 . S
C825 C824 1.394 . S
C825 C826 1.372 . S
C826 H785 0.930 . S
C826 C825 1.372 . S
C826 C827 1.397 . S
C827 C826 1.397 . S
C827 C828 1.390 . S
C827 C843 1.476 . S
C828 H786 0.930 . S
C828 C827 1.390 . S
C828 C829 1.366 . S
C829 H787 0.932 . S
C829 C824 1.360 . S
C829 C828 1.366 . S
C830 C804 1.490 . S
C830 C831 1.380 . S
C830 C835 1.386 . S
C831 H788 0.930 . S
C831 C830 1.380 . S
C831 C832 1.381 . S
C832 H789 0.929 . S
C832 C831 1.381 . S
C832 C833 1.371 . S
C833 C832 1.371 . S
C833 C834 1.380 . S
C834 H790 0.931 . S
C834 C833 1.380 . S
C834 C835 1.387 . S
C835 H791 0.930 . S
C835 C830 1.386 . S
C835 C834 1.387 . S
C836 C805 1.519 . S
C836 C837 1.377 . S
C836 C841 1.361 . S
C837 H792 0.929 . S
C837 C836 1.377 . S
C837 C838 1.386 . S
C838 H793 0.931 . S
C838 C837 1.386 . S
C838 C839 1.363 . S
C839 C838 1.363 . S
C839 C840 1.385 . S
C840 H794 0.930 . S
C840 C839 1.385 . S
C840 C841 1.396 . S
C841 H795 0.929 . S
C841 C836 1.361 . S
C841 C840 1.396 . S
C842 O796 1.300 . S
C842 O797 1.209 . S
C842 C815 1.486 . S
C843 O798 1.199 . S
C843 O799 1.297 . S
C843 C827 1.476 . S
H844 O870 0.856 . S
H845 O873 0.854 . S
H846 C881 0.930 . S
H847 C882 0.930 . S
H848 C884 0.930 . S
H849 C885 0.930 . S
H850 C887 0.931 . S
H851 C888 0.930 . S
H852 C890 0.930 . S
H853 C891 0.929 . S
H854 C893 0.930 . S
H855 C894 0.931 . S
H856 C896 0.930 . S
H857 C897 0.929 . S
H858 C899 0.931 . S
H859 C900 0.930 . S
H860 C902 0.930 . S
H861 C903 0.932 . S
H862 C905 0.930 . S
H863 C906 0.929 . S
H864 C908 0.931 . S
H865 C909 0.930 . S
H866 C911 0.929 . S
H867 C912 0.931 . S
H868 C914 0.930 . S
H869 C915 0.929 . S
O870 H844 0.856 . S
O870 C916 1.300 . S
O871 C916 1.209 . S
O872 C917 1.199 . S
O873 H845 0.854 . S
O873 C917 1.297 . S
C874 C875 1.404 . S
C874 C879 1.397 . S
C874 C880 1.492 . S
C875 C874 1.404 . S
C875 C876 1.396 . S
C875 C886 1.492 . S
C876 C875 1.396 . S
C876 C877 1.397 . S
C876 C892 1.509 . S
C877 C876 1.397 . S
C877 C878 1.412 . S
C877 C898 1.485 . S
C878 C877 1.412 . S
C878 C879 1.388 . S
C878 C904 1.490 . S
C879 C874 1.397 . S
C879 C878 1.388 . S
C879 C910 1.519 . S
C880 C874 1.492 . S
C880 C881 1.363 . S
C880 C885 1.390 . S
C881 H846 0.930 . S
C881 C880 1.363 . S
C881 C882 1.372 . S
C882 H847 0.930 . S
C882 C881 1.372 . S
C882 C883 1.383 . S
C883 C882 1.383 . S
C883 C884 1.395 . S
C884 H848 0.930 . S
C884 C883 1.395 . S
C884 C885 1.362 . S
C885 H849 0.930 . S
C885 C880 1.390 . S
C885 C884 1.362 . S
C886 C875 1.492 . S
C886 C887 1.377 . S
C886 C891 1.397 . S
C887 H850 0.931 . S
C887 C886 1.377 . S
C887 C888 1.376 . S
C888 H851 0.930 . S
C888 C887 1.376 . S
C888 C889 1.376 . S
C889 C888 1.376 . S
C889 C890 1.378 . S
C889 C916 1.486 . S
C890 H852 0.930 . S
C890 C889 1.378 . S
C890 C891 1.376 . S
C891 H853 0.929 . S
C891 C886 1.397 . S
C891 C890 1.376 . S
C892 C876 1.509 . S
C892 C893 1.391 . S
C892 C897 1.386 . S
C893 H854 0.930 . S
C893 C892 1.391 . S
C893 C894 1.375 . S
C894 H855 0.931 . S
C894 C893 1.375 . S
C894 C895 1.375 . S
C895 C894 1.375 . S
C895 C896 1.361 . S
C896 H856 0.930 . S
C896 C895 1.361 . S
C896 C897 1.399 . S
C897 H857 0.929 . S
C897 C892 1.386 . S
C897 C896 1.399 . S
C898 C877 1.485 . S
C898 C899 1.394 . S
C898 C903 1.360 . S
C899 H858 0.931 . S
C899 C898 1.394 . S
C899 C900 1.372 . S
C900 H859 0.930 . S
C900 C899 1.372 . S
C900 C901 1.397 . S
C901 C900 1.397 . S
C901 C902 1.390 . S
C901 C917 1.476 . S
C902 H860 0.930 . S
C902 C901 1.390 . S
C902 C903 1.366 . S
C903 H861 0.932 . S
C903 C898 1.360 . S
C903 C902 1.366 . S
C904 C878 1.490 . S
C904 C905 1.380 . S
C904 C909 1.386 . S
C905 H862 0.930 . S
C905 C904 1.380 . S
C905 C906 1.381 . S
C906 H863 0.929 . S
C906 C905 1.381 . S
C906 C907 1.371 . S
C907 C906 1.371 . S
C907 C908 1.380 . S
C908 H864 0.931 . S
C908 C907 1.380 . S
C908 C909 1.387 . S
C909 H865 0.930 . S
C909 C904 1.386 . S
C909 C908 1.387 . S
C910 C879 1.519 . S
C910 C911 1.377 . S
C910 C915 1.361 . S
C911 H866 0.929 . S
C911 C910 1.377 . S
C911 C912 1.386 . S
C912 H867 0.931 . S
C912 C911 1.386 . S
C912 C913 1.363 . S
C913 C912 1.363 . S
C913 C914 1.385 . S
C914 H868 0.930 . S
C914 C913 1.385 . S
C914 C915 1.396 . S
C915 H869 0.929 . S
C915 C910 1.361 . S
C915 C914 1.396 . S
C916 O870 1.300 . S
C916 O871 1.209 . S
C916 C889 1.486 . S
C917 O872 1.199 . S
C917 O873 1.297 . S
C917 C901 1.476 . S
H918 O944 0.856 . S
H919 O947 0.854 . S
H920 C955 0.930 . S
H921 C956 0.930 . S
H922 C958 0.930 . S
H923 C959 0.930 . S
H924 C961 0.931 . S
H925 C962 0.930 1_655 S
H926 C964 0.930 . S
H927 C965 0.929 . S
H928 C967 0.930 . S
H929 C968 0.931 1_655 S
H930 C970 0.930 . S
H931 C971 0.929 . S
H932 C973 0.931 . S
H933 C974 0.930 . S
H934 C976 0.930 . S
H935 C977 0.932 . S
H936 C979 0.930 . S
H937 C980 0.929 . S
H938 C982 0.931 . S
H939 C983 0.930 . S
H940 C985 0.929 . S
H941 C986 0.931 . S
H942 C988 0.930 . S
H943 C989 0.929 . S
O944 H918 0.856 . S
O944 C990 1.300 . S
O945 C990 1.209 . S
O946 C991 1.199 1_655 S
O947 H919 0.854 . S
O947 C991 1.297 . S
C948 C949 1.404 . S
C948 C953 1.395 . S
C948 C954 1.492 . S
C949 C948 1.404 . S
C949 C950 1.396 . S
C949 C960 1.492 . S
C950 C949 1.396 . S
C950 C951 1.397 . S
C950 C966 1.509 . S
C951 C950 1.397 . S
C951 C952 1.427 . S
C951 C972 1.485 . S
C952 C951 1.427 . S
C952 C953 1.402 . S
C952 C978 1.490 1_455 S
C953 C948 1.395 . S
C953 C952 1.402 . S
C953 C984 1.484 1_455 S
C954 C948 1.492 . S
C954 C955 1.363 1_455 S
C954 C959 1.390 . S
C955 H920 0.930 . S
C955 C954 1.363 1_655 S
C955 C956 1.372 . S
C956 H921 0.930 . S
C956 C955 1.372 . S
C956 C957 1.383 . S
C957 C956 1.383 . S
C957 C958 1.395 1_655 S
C958 H922 0.930 . S
C958 C957 1.395 1_455 S
C958 C959 1.362 . S
C959 H923 0.930 . S
C959 C954 1.390 . S
C959 C958 1.362 . S
C960 C949 1.492 . S
C960 C961 1.377 1_455 S
C960 C965 1.397 . S
C961 H924 0.931 . S
C961 C960 1.377 1_655 S
C961 C962 1.376 1_655 S
C962 H925 0.930 1_455 S
C962 C961 1.376 1_455 S
C962 C963 1.376 . S
C963 C962 1.376 . S
C963 C964 1.378 . S
C963 C990 1.486 . S
C964 H926 0.930 . S
C964 C963 1.378 . S
C964 C965 1.376 . S
C965 H927 0.929 . S
C965 C960 1.397 . S
C965 C964 1.376 . S
C966 C950 1.509 . S
C966 C967 1.391 1_455 S
C966 C971 1.386 . S
C967 H928 0.930 . S
C967 C966 1.391 1_655 S
C967 C968 1.375 1_655 S
C968 H929 0.931 1_455 S
C968 C967 1.375 1_455 S
C968 C969 1.375 . S
C969 C968 1.375 . S
C969 C970 1.361 . S
C970 H930 0.930 . S
C970 C969 1.361 . S
C970 C971 1.399 . S
C971 H931 0.929 . S
C971 C966 1.386 . S
C971 C970 1.399 . S
C972 C951 1.485 . S
C972 C973 1.394 1_455 S
C972 C977 1.360 . S
C973 H932 0.931 . S
C973 C972 1.394 1_655 S
C973 C974 1.372 . S
C974 H933 0.930 . S
C974 C973 1.372 . S
C974 C975 1.397 1_655 S
C975 C974 1.397 1_455 S
C975 C976 1.390 . S
C975 C991 1.476 . S
C976 H934 0.930 . S
C976 C975 1.390 . S
C976 C977 1.366 . S
C977 H935 0.932 . S
C977 C972 1.360 . S
C977 C976 1.366 . S
C978 C952 1.490 1_655 S
C978 C979 1.380 . S
C978 C983 1.386 1_655 S
C979 H936 0.930 . S
C979 C978 1.380 . S
C979 C980 1.381 . S
C980 H937 0.929 . S
C980 C979 1.381 . S
C980 C981 1.371 . S
C981 C980 1.371 . S
C981 C982 1.380 1_655 S
C982 H938 0.931 . S
C982 C981 1.380 1_455 S
C982 C983 1.387 . S
C983 H939 0.930 . S
C983 C978 1.386 1_455 S
C983 C982 1.387 . S
C984 C953 1.484 1_655 S
C984 C985 1.417 . S
C984 C989 1.335 1_655 S
C985 H940 0.929 . S
C985 C984 1.417 . S
C985 C986 1.386 . S
C986 H941 0.931 . S
C986 C985 1.386 . S
C986 C987 1.396 . S
C987 C986 1.396 . S
C987 C988 1.334 1_655 S
C988 H942 0.930 . S
C988 C987 1.334 1_455 S
C988 C989 1.396 . S
C989 H943 0.929 . S
C989 C984 1.335 1_455 S
C989 C988 1.396 . S
C990 O944 1.300 . S
C990 O945 1.209 . S
C990 C963 1.486 . S
C991 O946 1.199 1_455 S
C991 O947 1.297 . S
C991 C975 1.476 . S
H992 O1018 0.856 . S
H993 O1021 0.854 . S
H994 C1029 0.930 . S
H995 C1030 0.930 . S
H996 C1032 0.930 . S
H997 C1033 0.930 . S
H998 C1035 0.931 . S
H999 C1036 0.930 . S
H1000 C1038 0.930 . S
H1001 C1039 0.929 . S
H1002 C1041 0.930 . S
H1003 C1042 0.931 . S
H1004 C1044 0.930 . S
H1005 C1045 0.929 . S
H1006 C1047 0.931 . S
H1007 C1048 0.930 . S
H1008 C1050 0.930 . S
H1009 C1051 0.932 . S
H1010 C1053 0.930 . S
H1011 C1054 0.929 . S
H1012 C1056 0.931 . S
H1013 C1057 0.930 . S
H1014 C1059 0.929 . S
H1015 C1060 0.931 . S
H1016 C1062 0.930 . S
H1017 C1063 0.929 . S
O1018 H992 0.856 . S
O1018 C1064 1.300 . S
O1019 C1064 1.209 . S
O1020 C1065 1.199 . S
O1021 H993 0.854 . S
O1021 C1065 1.297 . S
C1022 C1023 1.404 . S
C1022 C1027 1.397 . S
C1022 C1028 1.492 . S
C1023 C1022 1.404 . S
C1023 C1024 1.396 . S
C1023 C1034 1.492 . S
C1024 C1023 1.396 . S
C1024 C1025 1.397 . S
C1024 C1040 1.509 . S
C1025 C1024 1.397 . S
C1025 C1026 1.412 . S
C1025 C1046 1.485 . S
C1026 C1025 1.412 . S
C1026 C1027 1.388 . S
C1026 C1052 1.490 . S
C1027 C1022 1.397 . S
C1027 C1026 1.388 . S
C1027 C1058 1.519 . S
C1028 C1022 1.492 . S
C1028 C1029 1.363 . S
C1028 C1033 1.390 . S
C1029 H994 0.930 . S
C1029 C1028 1.363 . S
C1029 C1030 1.372 . S
C1030 H995 0.930 . S
C1030 C1029 1.372 . S
C1030 C1031 1.383 . S
C1031 C1030 1.383 . S
C1031 C1032 1.395 . S
C1032 H996 0.930 . S
C1032 C1031 1.395 . S
C1032 C1033 1.362 . S
C1033 H997 0.930 . S
C1033 C1028 1.390 . S
C1033 C1032 1.362 . S
C1034 C1023 1.492 . S
C1034 C1035 1.377 . S
C1034 C1039 1.397 . S
C1035 H998 0.931 . S
C1035 C1034 1.377 . S
C1035 C1036 1.376 . S
C1036 H999 0.930 . S
C1036 C1035 1.376 . S
C1036 C1037 1.376 . S
C1037 C1036 1.376 . S
C1037 C1038 1.378 . S
C1037 C1064 1.486 . S
C1038 H1000 0.930 . S
C1038 C1037 1.378 . S
C1038 C1039 1.376 . S
C1039 H1001 0.929 . S
C1039 C1034 1.397 . S
C1039 C1038 1.376 . S
C1040 C1024 1.509 . S
C1040 C1041 1.391 . S
C1040 C1045 1.386 . S
C1041 H1002 0.930 . S
C1041 C1040 1.391 . S
C1041 C1042 1.375 . S
C1042 H1003 0.931 . S
C1042 C1041 1.375 . S
C1042 C1043 1.375 . S
C1043 C1042 1.375 . S
C1043 C1044 1.361 . S
C1044 H1004 0.930 . S
C1044 C1043 1.361 . S
C1044 C1045 1.399 . S
C1045 H1005 0.929 . S
C1045 C1040 1.386 . S
C1045 C1044 1.399 . S
C1046 C1025 1.485 . S
C1046 C1047 1.394 . S
C1046 C1051 1.360 . S
C1047 H1006 0.931 . S
C1047 C1046 1.394 . S
C1047 C1048 1.372 . S
C1048 H1007 0.930 . S
C1048 C1047 1.372 . S
C1048 C1049 1.397 . S
C1049 C1048 1.397 . S
C1049 C1050 1.390 . S
C1049 C1065 1.476 . S
C1050 H1008 0.930 . S
C1050 C1049 1.390 . S
C1050 C1051 1.366 . S
C1051 H1009 0.932 . S
C1051 C1046 1.360 . S
C1051 C1050 1.366 . S
C1052 C1026 1.490 . S
C1052 C1053 1.380 . S
C1052 C1057 1.386 . S
C1053 H1010 0.930 . S
C1053 C1052 1.380 . S
C1053 C1054 1.381 . S
C1054 H1011 0.929 . S
C1054 C1053 1.381 . S
C1054 C1055 1.371 . S
C1055 C1054 1.371 . S
C1055 C1056 1.380 . S
C1056 H1012 0.931 . S
C1056 C1055 1.380 . S
C1056 C1057 1.387 . S
C1057 H1013 0.930 . S
C1057 C1052 1.386 . S
C1057 C1056 1.387 . S
C1058 C1027 1.519 . S
C1058 C1059 1.377 . S
C1058 C1063 1.361 . S
C1059 H1014 0.929 . S
C1059 C1058 1.377 . S
C1059 C1060 1.386 . S
C1060 H1015 0.931 . S
C1060 C1059 1.386 . S
C1060 C1061 1.363 . S
C1061 C1060 1.363 . S
C1061 C1062 1.385 . S
C1062 H1016 0.930 . S
C1062 C1061 1.385 . S
C1062 C1063 1.396 . S
C1063 H1017 0.929 . S
C1063 C1058 1.361 . S
C1063 C1062 1.396 . S
C1064 O1018 1.300 . S
C1064 O1019 1.209 . S
C1064 C1037 1.486 . S
C1065 O1020 1.199 . S
C1065 O1021 1.297 . S
C1065 C1049 1.476 . S
H1066 O1092 0.856 . S
H1067 O1095 0.854 . S
H1068 C1103 0.930 . S
H1069 C1104 0.930 . S
H1070 C1106 0.930 . S
H1071 C1107 0.930 . S
H1072 C1109 0.931 . S
H1073 C1110 0.960 . S
H1074 C1112 0.930 . S
H1075 C1113 0.929 . S
H1076 C1115 0.930 . S
H1077 C1116 0.931 . S
H1078 C1118 0.930 . S
H1079 C1119 0.929 . S
H1080 C1121 0.931 . S
H1081 C1122 0.930 . S
H1082 C1124 0.930 . S
H1083 C1125 0.932 . S
H1084 C1127 0.930 . S
H1085 C1128 0.929 . S
H1086 C1130 0.931 . S
H1087 C1131 0.930 . S
H1088 C1133 0.929 . S
H1089 C1134 0.931 . S
H1090 C1136 0.930 . S
H1091 C1137 0.929 . S
O1092 H1066 0.856 . S
O1092 C1138 1.300 . S
O1093 C1138 1.209 . S
O1094 C1139 1.199 1_545 S
O1095 H1067 0.854 . S
O1095 C1139 1.297 . S
C1096 C1097 1.404 . S
C1096 C1101 1.413 . S
C1096 C1102 1.492 . S
C1097 C1096 1.404 . S
C1097 C1098 1.396 . S
C1097 C1108 1.492 . S
C1098 C1097 1.396 . S
C1098 C1099 1.397 . S
C1098 C1114 1.509 . S
C1099 C1098 1.397 . S
C1099 C1100 1.411 . S
C1099 C1120 1.485 . S
C1100 C1099 1.411 . S
C1100 C1101 1.366 . S
C1100 C1126 1.489 1_565 S
C1101 C1096 1.413 . S
C1101 C1100 1.366 . S
C1101 C1132 1.531 1_565 S
C1102 C1096 1.492 . S
C1102 C1103 1.363 1_565 S
C1102 C1107 1.390 . S
C1103 H1068 0.930 . S
C1103 C1102 1.363 1_545 S
C1103 C1104 1.372 . S
C1104 H1069 0.930 . S
C1104 C1103 1.372 . S
C1104 C1105 1.383 . S
C1105 C1104 1.383 . S
C1105 C1106 1.395 1_545 S
C1106 H1070 0.930 . S
C1106 C1105 1.395 1_565 S
C1106 C1107 1.362 . S
C1107 H1071 0.930 . S
C1107 C1102 1.390 . S
C1107 C1106 1.362 . S
C1108 C1097 1.492 . S
C1108 C1109 1.377 1_565 S
C1108 C1113 1.397 . S
C1109 H1072 0.931 . S
C1109 C1108 1.377 1_545 S
C1109 C1110 1.391 . S
C1110 H1073 0.960 . S
C1110 C1109 1.391 . S
C1110 C1111 1.331 1_545 S
C1111 C1110 1.331 1_565 S
C1111 C1112 1.378 . S
C1111 C1138 1.486 . S
C1112 H1074 0.930 . S
C1112 C1111 1.378 . S
C1112 C1113 1.376 . S
C1113 H1075 0.929 . S
C1113 C1108 1.397 . S
C1113 C1112 1.376 . S
C1114 C1098 1.509 . S
C1114 C1115 1.391 1_565 S
C1114 C1119 1.386 . S
C1115 H1076 0.930 . S
C1115 C1114 1.391 1_545 S
C1115 C1116 1.375 . S
C1116 H1077 0.931 . S
C1116 C1115 1.375 . S
C1116 C1117 1.375 1_545 S
C1117 C1116 1.375 1_565 S
C1117 C1118 1.361 . S
C1118 H1078 0.930 . S
C1118 C1117 1.361 . S
C1118 C1119 1.399 . S
C1119 H1079 0.929 . S
C1119 C1114 1.386 . S
C1119 C1118 1.399 . S
C1120 C1099 1.485 . S
C1120 C1121 1.394 1_565 S
C1120 C1125 1.360 . S
C1121 H1080 0.931 . S
C1121 C1120 1.394 1_545 S
C1121 C1122 1.372 . S
C1122 H1081 0.930 . S
C1122 C1121 1.372 . S
C1122 C1123 1.397 1_545 S
C1123 C1122 1.397 1_565 S
C1123 C1124 1.390 . S
C1123 C1139 1.476 . S
C1124 H1082 0.930 . S
C1124 C1123 1.390 . S
C1124 C1125 1.366 . S
C1125 H1083 0.932 . S
C1125 C1120 1.360 . S
C1125 C1124 1.366 . S
C1126 C1100 1.489 1_545 S
C1126 C1127 1.380 . S
C1126 C1131 1.386 1_545 S
C1127 H1084 0.930 . S
C1127 C1126 1.380 . S
C1127 C1128 1.381 . S
C1128 H1085 0.929 . S
C1128 C1127 1.381 . S
C1128 C1129 1.371 . S
C1129 C1128 1.371 . S
C1129 C1130 1.380 1_545 S
C1130 H1086 0.931 . S
C1130 C1129 1.380 1_565 S
C1130 C1131 1.387 . S
C1131 H1087 0.930 . S
C1131 C1126 1.386 1_565 S
C1131 C1130 1.387 . S
C1132 C1101 1.531 1_545 S
C1132 C1133 1.375 . S
C1132 C1137 1.366 1_545 S
C1133 H1088 0.929 . S
C1133 C1132 1.375 . S
C1133 C1134 1.386 . S
C1134 H1089 0.931 . S
C1134 C1133 1.386 . S
C1134 C1135 1.363 1_545 S
C1135 C1134 1.363 1_565 S
C1135 C1136 1.385 . S
C1136 H1090 0.930 . S
C1136 C1135 1.385 . S
C1136 C1137 1.396 . S
C1137 H1091 0.929 . S
C1137 C1132 1.366 1_565 S
C1137 C1136 1.396 . S
C1138 O1092 1.300 . S
C1138 O1093 1.209 . S
C1138 C1111 1.486 . S
C1139 O1094 1.199 1_565 S
C1139 O1095 1.297 . S
C1139 C1123 1.476 . S
H1140 O1166 0.856 . S
H1141 O1169 0.854 . S
H1142 C1177 0.930 . S
H1143 C1178 0.930 . S
H1144 C1180 0.930 . S
H1145 C1181 0.930 . S
H1146 C1183 0.931 . S
H1147 C1184 0.930 . S
H1148 C1186 0.930 . S
H1149 C1187 0.929 . S
H1150 C1189 0.930 . S
H1151 C1190 0.931 . S
H1152 C1192 0.930 . S
H1153 C1193 0.929 . S
H1154 C1195 0.931 . S
H1155 C1196 0.930 . S
H1156 C1198 0.930 . S
H1157 C1199 0.932 . S
H1158 C1201 0.930 . S
H1159 C1202 0.929 . S
H1160 C1204 0.931 . S
H1161 C1205 0.930 . S
H1162 C1207 0.929 . S
H1163 C1208 0.931 . S
H1164 C1210 0.930 . S
H1165 C1211 0.929 . S
O1166 H1140 0.856 . S
O1166 C1212 1.300 . S
O1167 C1212 1.209 1_565 S
O1168 C1213 1.199 1_545 S
O1169 H1141 0.854 . S
O1169 C1213 1.297 . S
C1170 C1171 1.404 . S
C1170 C1175 1.397 1_545 S
C1170 C1176 1.492 . S
C1171 C1170 1.404 . S
C1171 C1172 1.427 . S
C1171 C1182 1.492 . S
C1172 C1171 1.427 . S
C1172 C1173 1.378 1_545 S
C1172 C1188 1.503 . S
C1173 C1172 1.378 1_565 S
C1173 C1174 1.416 . S
C1173 C1194 1.504 . S
C1174 C1173 1.416 . S
C1174 C1175 1.365 . S
C1174 C1200 1.488 . S
C1175 C1170 1.397 1_565 S
C1175 C1174 1.365 . S
C1175 C1206 1.519 . S
C1176 C1170 1.492 . S
C1176 C1177 1.363 . S
C1176 C1181 1.390 1_545 S
C1177 H1142 0.930 . S
C1177 C1176 1.363 . S
C1177 C1178 1.372 . S
C1178 H1143 0.930 . S
C1178 C1177 1.372 . S
C1178 C1179 1.383 . S
C1179 C1178 1.383 . S
C1179 C1180 1.395 1_545 S
C1180 H1144 0.930 . S
C1180 C1179 1.395 1_565 S
C1180 C1181 1.362 . S
C1181 H1145 0.930 . S
C1181 C1176 1.390 1_565 S
C1181 C1180 1.362 . S
C1182 C1171 1.492 . S
C1182 C1183 1.377 . S
C1182 C1187 1.397 1_545 S
C1183 H1146 0.931 . S
C1183 C1182 1.377 . S
C1183 C1184 1.376 . S
C1184 H1147 0.930 . S
C1184 C1183 1.376 . S
C1184 C1185 1.376 . S
C1185 C1184 1.376 . S
C1185 C1186 1.378 1_545 S
C1185 C1212 1.486 . S
C1186 H1148 0.930 . S
C1186 C1185 1.378 1_565 S
C1186 C1187 1.376 . S
C1187 H1149 0.929 . S
C1187 C1182 1.397 1_565 S
C1187 C1186 1.376 . S
C1188 C1172 1.503 . S
C1188 C1189 1.407 . S
C1188 C1193 1.360 1_545 S
C1189 H1150 0.930 . S
C1189 C1188 1.407 . S
C1189 C1190 1.375 . S
C1190 H1151 0.931 . S
C1190 C1189 1.375 . S
C1190 C1191 1.374 . S
C1191 C1190 1.374 . S
C1191 C1192 1.362 1_545 S
C1192 H1152 0.930 . S
C1192 C1191 1.362 1_565 S
C1192 C1193 1.399 . S
C1193 H1153 0.929 . S
C1193 C1188 1.360 1_565 S
C1193 C1192 1.399 . S
C1194 C1173 1.504 . S
C1194 C1195 1.394 1_565 S
C1194 C1199 1.360 . S
C1195 H1154 0.931 . S
C1195 C1194 1.394 1_545 S
C1195 C1196 1.372 . S
C1196 H1155 0.930 . S
C1196 C1195 1.372 . S
C1196 C1197 1.397 1_545 S
C1197 C1196 1.397 1_565 S
C1197 C1198 1.390 . S
C1197 C1213 1.476 . S
C1198 H1156 0.930 . S
C1198 C1197 1.390 . S
C1198 C1199 1.366 . S
C1199 H1157 0.932 . S
C1199 C1194 1.360 . S
C1199 C1198 1.366 . S
C1200 C1174 1.488 . S
C1200 C1201 1.338 1_565 S
C1200 C1205 1.439 . S
C1201 H1158 0.930 . S
C1201 C1200 1.338 1_545 S
C1201 C1202 1.381 . S
C1202 H1159 0.929 . S
C1202 C1201 1.381 . S
C1202 C1203 1.382 . S
C1203 C1202 1.382 . S
C1203 C1204 1.371 1_545 S
C1204 H1160 0.931 . S
C1204 C1203 1.371 1_565 S
C1204 C1205 1.387 . S
C1205 H1161 0.930 . S
C1205 C1200 1.439 . S
C1205 C1204 1.387 . S
C1206 C1175 1.519 . S
C1206 C1207 1.377 1_565 S
C1206 C1211 1.361 . S
C1207 H1162 0.929 . S
C1207 C1206 1.377 1_545 S
C1207 C1208 1.386 . S
C1208 H1163 0.931 . S
C1208 C1207 1.386 . S
C1208 C1209 1.363 1_545 S
C1209 C1208 1.363 1_565 S
C1209 C1210 1.385 . S
C1210 H1164 0.930 . S
C1210 C1209 1.385 . S
C1210 C1211 1.396 . S
C1211 H1165 0.929 . S
C1211 C1206 1.361 . S
C1211 C1210 1.396 . S
C1212 O1166 1.300 . S
C1212 O1167 1.209 1_545 S
C1212 C1185 1.486 . S
C1213 O1168 1.199 1_565 S
C1213 O1169 1.297 . S
C1213 C1197 1.476 . S
H1214 O1240 0.856 . S
H1215 O1243 0.854 . S
H1216 C1251 0.930 . S
H1217 C1252 0.930 . S
H1218 C1254 0.930 . S
H1219 C1255 0.930 . S
H1220 C1257 0.931 . S
H1221 C1258 0.930 . S
H1222 C1260 0.930 . S
H1223 C1261 0.929 . S
H1224 C1263 0.930 . S
H1225 C1264 0.931 . S
H1226 C1266 0.930 . S
H1227 C1267 0.929 . S
H1228 C1269 0.931 . S
H1229 C1270 0.930 . S
H1230 C1272 0.930 . S
H1231 C1273 0.932 . S
H1232 C1275 0.930 . S
H1233 C1276 0.929 . S
H1234 C1278 0.931 . S
H1235 C1279 0.930 . S
H1236 C1281 0.929 . S
H1237 C1282 0.931 . S
H1238 C1284 0.930 . S
H1239 C1285 0.929 . S
O1240 H1214 0.856 . S
O1240 C1286 1.300 . S
O1241 C1286 1.209 1_455 S
O1242 C1287 1.199 1_655 S
O1243 H1215 0.854 . S
O1243 C1287 1.297 . S
C1244 C1245 1.404 . S
C1244 C1249 1.396 1_655 S
C1244 C1250 1.492 . S
C1245 C1244 1.404 . S
C1245 C1246 1.396 . S
C1245 C1256 1.492 . S
C1246 C1245 1.396 . S
C1246 C1247 1.396 . S
C1246 C1262 1.509 . S
C1247 C1246 1.396 . S
C1247 C1248 1.397 1_655 S
C1247 C1268 1.521 1_655 S
C1248 C1247 1.397 1_455 S
C1248 C1249 1.409 . S
C1248 C1274 1.486 . S
C1249 C1244 1.396 1_455 S
C1249 C1248 1.409 . S
C1249 C1280 1.515 . S
C1250 C1244 1.492 . S
C1250 C1251 1.363 . S
C1250 C1255 1.390 1_655 S
C1251 H1216 0.930 . S
C1251 C1250 1.363 . S
C1251 C1252 1.372 . S
C1252 H1217 0.930 . S
C1252 C1251 1.372 . S
C1252 C1253 1.383 . S
C1253 C1252 1.383 . S
C1253 C1254 1.395 1_655 S
C1254 H1218 0.930 . S
C1254 C1253 1.395 1_455 S
C1254 C1255 1.362 . S
C1255 H1219 0.930 . S
C1255 C1250 1.390 1_455 S
C1255 C1254 1.362 . S
C1256 C1245 1.492 . S
C1256 C1257 1.377 . S
C1256 C1261 1.397 1_655 S
C1257 H1220 0.931 . S
C1257 C1256 1.377 . S
C1257 C1258 1.376 . S
C1258 H1221 0.930 . S
C1258 C1257 1.376 . S
C1258 C1259 1.376 . S
C1259 C1258 1.376 . S
C1259 C1260 1.378 1_655 S
C1259 C1286 1.486 . S
C1260 H1222 0.930 . S
C1260 C1259 1.378 1_455 S
C1260 C1261 1.376 . S
C1261 H1223 0.929 . S
C1261 C1256 1.397 1_455 S
C1261 C1260 1.376 . S
C1262 C1246 1.509 . S
C1262 C1263 1.391 . S
C1262 C1267 1.386 1_655 S
C1263 H1224 0.930 . S
C1263 C1262 1.391 . S
C1263 C1264 1.375 . S
C1264 H1225 0.931 . S
C1264 C1263 1.375 . S
C1264 C1265 1.375 . S
C1265 C1264 1.375 . S
C1265 C1266 1.361 1_655 S
C1266 H1226 0.930 . S
C1266 C1265 1.361 1_455 S
C1266 C1267 1.399 . S
C1267 H1227 0.929 . S
C1267 C1262 1.386 1_455 S
C1267 C1266 1.399 . S
C1268 C1247 1.521 1_455 S
C1268 C1269 1.340 1_455 S
C1268 C1273 1.385 . S
C1269 H1228 0.931 . S
C1269 C1268 1.340 1_655 S
C1269 C1270 1.372 . S
C1270 H1229 0.930 . S
C1270 C1269 1.372 . S
C1270 C1271 1.397 1_655 S
C1271 C1270 1.397 1_455 S
C1271 C1272 1.390 . S
C1271 C1287 1.476 . S
C1272 H1230 0.930 . S
C1272 C1271 1.390 . S
C1272 C1273 1.366 . S
C1273 H1231 0.932 . S
C1273 C1268 1.385 . S
C1273 C1272 1.366 . S
C1274 C1248 1.486 . S
C1274 C1275 1.380 1_455 S
C1274 C1279 1.386 . S
C1275 H1232 0.930 . S
C1275 C1274 1.380 1_655 S
C1275 C1276 1.381 . S
C1276 H1233 0.929 . S
C1276 C1275 1.381 . S
C1276 C1277 1.371 1_655 S
C1277 C1276 1.371 1_455 S
C1277 C1278 1.380 . S
C1278 H1234 0.931 . S
C1278 C1277 1.380 . S
C1278 C1279 1.387 . S
C1279 H1235 0.930 . S
C1279 C1274 1.386 . S
C1279 C1278 1.387 . S
C1280 C1249 1.515 . S
C1280 C1281 1.377 1_455 S
C1280 C1285 1.361 . S
C1281 H1236 0.929 . S
C1281 C1280 1.377 1_655 S
C1281 C1282 1.386 . S
C1282 H1237 0.931 . S
C1282 C1281 1.386 . S
C1282 C1283 1.363 1_655 S
C1283 C1282 1.363 1_455 S
C1283 C1284 1.385 . S
C1284 H1238 0.930 . S
C1284 C1283 1.385 . S
C1284 C1285 1.396 . S
C1285 H1239 0.929 . S
C1285 C1280 1.361 . S
C1285 C1284 1.396 . S
C1286 O1240 1.300 . S
C1286 O1241 1.209 1_655 S
C1286 C1259 1.486 . S
C1287 O1242 1.199 1_455 S
C1287 O1243 1.297 . S
C1287 C1271 1.476 . S
H1288 O1314 0.856 . S
H1289 O1317 0.854 . S
H1290 C1325 0.930 . S
H1291 C1326 0.930 . S
H1292 C1328 0.930 . S
H1293 C1329 0.930 . S
H1294 C1331 0.931 . S
H1295 C1332 0.930 . S
H1296 C1334 0.930 . S
H1297 C1335 0.929 . S
H1298 C1337 0.930 . S
H1299 C1338 0.931 . S
H1300 C1340 0.930 . S
H1301 C1341 0.929 . S
H1302 C1343 0.931 . S
H1303 C1344 0.930 . S
H1304 C1346 0.930 . S
H1305 C1347 0.932 . S
H1306 C1349 0.930 . S
H1307 C1350 0.929 . S
H1308 C1352 0.931 . S
H1309 C1353 0.930 . S
H1310 C1355 0.929 . S
H1311 C1356 0.931 . S
H1312 C1358 0.930 . S
H1313 C1359 0.929 . S
O1314 H1288 0.856 . S
O1314 C1360 1.300 . S
O1315 C1360 1.209 . S
O1316 C1361 1.199 . S
O1317 H1289 0.854 . S
O1317 C1361 1.297 . S
C1318 C1319 1.404 . S
C1318 C1323 1.397 . S
C1318 C1324 1.492 . S
C1319 C1318 1.404 . S
C1319 C1320 1.396 . S
C1319 C1330 1.492 . S
C1320 C1319 1.396 . S
C1320 C1321 1.397 . S
C1320 C1336 1.509 . S
C1321 C1320 1.397 . S
C1321 C1322 1.412 . S
C1321 C1342 1.485 . S
C1322 C1321 1.412 . S
C1322 C1323 1.388 . S
C1322 C1348 1.490 . S
C1323 C1318 1.397 . S
C1323 C1322 1.388 . S
C1323 C1354 1.519 . S
C1324 C1318 1.492 . S
C1324 C1325 1.363 . S
C1324 C1329 1.390 . S
C1325 H1290 0.930 . S
C1325 C1324 1.363 . S
C1325 C1326 1.372 . S
C1326 H1291 0.930 . S
C1326 C1325 1.372 . S
C1326 C1327 1.383 . S
C1327 C1326 1.383 . S
C1327 C1328 1.395 . S
C1328 H1292 0.930 . S
C1328 C1327 1.395 . S
C1328 C1329 1.362 . S
C1329 H1293 0.930 . S
C1329 C1324 1.390 . S
C1329 C1328 1.362 . S
C1330 C1319 1.492 . S
C1330 C1331 1.377 . S
C1330 C1335 1.397 . S
C1331 H1294 0.931 . S
C1331 C1330 1.377 . S
C1331 C1332 1.376 . S
C1332 H1295 0.930 . S
C1332 C1331 1.376 . S
C1332 C1333 1.376 . S
C1333 C1332 1.376 . S
C1333 C1334 1.378 . S
C1333 C1360 1.486 . S
C1334 H1296 0.930 . S
C1334 C1333 1.378 . S
C1334 C1335 1.376 . S
C1335 H1297 0.929 . S
C1335 C1330 1.397 . S
C1335 C1334 1.376 . S
C1336 C1320 1.509 . S
C1336 C1337 1.391 . S
C1336 C1341 1.386 . S
C1337 H1298 0.930 . S
C1337 C1336 1.391 . S
C1337 C1338 1.375 . S
C1338 H1299 0.931 . S
C1338 C1337 1.375 . S
C1338 C1339 1.375 . S
C1339 C1338 1.375 . S
C1339 C1340 1.361 . S
C1340 H1300 0.930 . S
C1340 C1339 1.361 . S
C1340 C1341 1.399 . S
C1341 H1301 0.929 . S
C1341 C1336 1.386 . S
C1341 C1340 1.399 . S
C1342 C1321 1.485 . S
C1342 C1343 1.394 . S
C1342 C1347 1.360 . S
C1343 H1302 0.931 . S
C1343 C1342 1.394 . S
C1343 C1344 1.372 . S
C1344 H1303 0.930 . S
C1344 C1343 1.372 . S
C1344 C1345 1.397 . S
C1345 C1344 1.397 . S
C1345 C1346 1.390 . S
C1345 C1361 1.476 . S
C1346 H1304 0.930 . S
C1346 C1345 1.390 . S
C1346 C1347 1.366 . S
C1347 H1305 0.932 . S
C1347 C1342 1.360 . S
C1347 C1346 1.366 . S
C1348 C1322 1.490 . S
C1348 C1349 1.380 . S
C1348 C1353 1.386 . S
C1349 H1306 0.930 . S
C1349 C1348 1.380 . S
C1349 C1350 1.381 . S
C1350 H1307 0.929 . S
C1350 C1349 1.381 . S
C1350 C1351 1.371 . S
C1351 C1350 1.371 . S
C1351 C1352 1.380 . S
C1352 H1308 0.931 . S
C1352 C1351 1.380 . S
C1352 C1353 1.387 . S
C1353 H1309 0.930 . S
C1353 C1348 1.386 . S
C1353 C1352 1.387 . S
C1354 C1323 1.519 . S
C1354 C1355 1.377 . S
C1354 C1359 1.361 . S
C1355 H1310 0.929 . S
C1355 C1354 1.377 . S
C1355 C1356 1.386 . S
C1356 H1311 0.931 . S
C1356 C1355 1.386 . S
C1356 C1357 1.363 . S
C1357 C1356 1.363 . S
C1357 C1358 1.385 . S
C1358 H1312 0.930 . S
C1358 C1357 1.385 . S
C1358 C1359 1.396 . S
C1359 H1313 0.929 . S
C1359 C1354 1.361 . S
C1359 C1358 1.396 . S
C1360 O1314 1.300 . S
C1360 O1315 1.209 . S
C1360 C1333 1.486 . S
C1361 O1316 1.199 . S
C1361 O1317 1.297 . S
C1361 C1345 1.476 . S
H1362 O1388 0.856 . S
H1363 O1391 0.854 . S
H1364 C1399 0.930 . S
H1365 C1400 0.930 . S
H1366 C1402 0.930 . S
H1367 C1403 0.930 . S
H1368 C1405 0.931 . S
H1369 C1406 0.930 . S
H1370 C1408 0.930 . S
H1371 C1409 0.929 . S
H1372 C1411 0.930 . S
H1373 C1412 0.931 . S
H1374 C1414 0.930 . S
H1375 C1415 0.929 . S
H1376 C1417 0.931 . S
H1377 C1418 0.930 . S
H1378 C1420 0.930 . S
H1379 C1421 0.932 . S
H1380 C1423 0.930 . S
H1381 C1424 0.929 . S
H1382 C1426 0.931 . S
H1383 C1427 0.930 . S
H1384 C1429 0.929 . S
H1385 C1430 0.931 . S
H1386 C1432 0.930 . S
H1387 C1433 0.929 . S
O1388 H1362 0.856 . S
O1388 C1434 1.300 . S
O1389 C1434 1.209 . S
O1390 C1435 1.199 . S
O1391 H1363 0.854 . S
O1391 C1435 1.297 . S
C1392 C1393 1.404 . S
C1392 C1397 1.397 . S
C1392 C1398 1.492 . S
C1393 C1392 1.404 . S
C1393 C1394 1.396 . S
C1393 C1404 1.492 . S
C1394 C1393 1.396 . S
C1394 C1395 1.397 . S
C1394 C1410 1.509 . S
C1395 C1394 1.397 . S
C1395 C1396 1.412 . S
C1395 C1416 1.485 . S
C1396 C1395 1.412 . S
C1396 C1397 1.388 . S
C1396 C1422 1.490 . S
C1397 C1392 1.397 . S
C1397 C1396 1.388 . S
C1397 C1428 1.519 . S
C1398 C1392 1.492 . S
C1398 C1399 1.363 . S
C1398 C1403 1.390 . S
C1399 H1364 0.930 . S
C1399 C1398 1.363 . S
C1399 C1400 1.372 . S
C1400 H1365 0.930 . S
C1400 C1399 1.372 . S
C1400 C1401 1.383 . S
C1401 C1400 1.383 . S
C1401 C1402 1.395 . S
C1402 H1366 0.930 . S
C1402 C1401 1.395 . S
C1402 C1403 1.362 . S
C1403 H1367 0.930 . S
C1403 C1398 1.390 . S
C1403 C1402 1.362 . S
C1404 C1393 1.492 . S
C1404 C1405 1.377 . S
C1404 C1409 1.397 . S
C1405 H1368 0.931 . S
C1405 C1404 1.377 . S
C1405 C1406 1.376 . S
C1406 H1369 0.930 . S
C1406 C1405 1.376 . S
C1406 C1407 1.376 . S
C1407 C1406 1.376 . S
C1407 C1408 1.378 . S
C1407 C1434 1.486 . S
C1408 H1370 0.930 . S
C1408 C1407 1.378 . S
C1408 C1409 1.376 . S
C1409 H1371 0.929 . S
C1409 C1404 1.397 . S
C1409 C1408 1.376 . S
C1410 C1394 1.509 . S
C1410 C1411 1.391 . S
C1410 C1415 1.386 . S
C1411 H1372 0.930 . S
C1411 C1410 1.391 . S
C1411 C1412 1.375 . S
C1412 H1373 0.931 . S
C1412 C1411 1.375 . S
C1412 C1413 1.375 . S
C1413 C1412 1.375 . S
C1413 C1414 1.361 . S
C1414 H1374 0.930 . S
C1414 C1413 1.361 . S
C1414 C1415 1.399 . S
C1415 H1375 0.929 . S
C1415 C1410 1.386 . S
C1415 C1414 1.399 . S
C1416 C1395 1.485 . S
C1416 C1417 1.394 . S
C1416 C1421 1.360 . S
C1417 H1376 0.931 . S
C1417 C1416 1.394 . S
C1417 C1418 1.372 . S
C1418 H1377 0.930 . S
C1418 C1417 1.372 . S
C1418 C1419 1.397 . S
C1419 C1418 1.397 . S
C1419 C1420 1.390 . S
C1419 C1435 1.476 . S
C1420 H1378 0.930 . S
C1420 C1419 1.390 . S
C1420 C1421 1.366 . S
C1421 H1379 0.932 . S
C1421 C1416 1.360 . S
C1421 C1420 1.366 . S
C1422 C1396 1.490 . S
C1422 C1423 1.380 . S
C1422 C1427 1.386 . S
C1423 H1380 0.930 . S
C1423 C1422 1.380 . S
C1423 C1424 1.381 . S
C1424 H1381 0.929 . S
C1424 C1423 1.381 . S
C1424 C1425 1.371 . S
C1425 C1424 1.371 . S
C1425 C1426 1.380 . S
C1426 H1382 0.931 . S
C1426 C1425 1.380 . S
C1426 C1427 1.387 . S
C1427 H1383 0.930 . S
C1427 C1422 1.386 . S
C1427 C1426 1.387 . S
C1428 C1397 1.519 . S
C1428 C1429 1.377 . S
C1428 C1433 1.361 . S
C1429 H1384 0.929 . S
C1429 C1428 1.377 . S
C1429 C1430 1.386 . S
C1430 H1385 0.931 . S
C1430 C1429 1.386 . S
C1430 C1431 1.363 . S
C1431 C1430 1.363 . S
C1431 C1432 1.385 . S
C1432 H1386 0.930 . S
C1432 C1431 1.385 . S
C1432 C1433 1.396 . S
C1433 H1387 0.929 . S
C1433 C1428 1.361 . S
C1433 C1432 1.396 . S
C1434 O1388 1.300 . S
C1434 O1389 1.209 . S
C1434 C1407 1.486 . S
C1435 O1390 1.199 . S
C1435 O1391 1.297 . S
C1435 C1419 1.476 . S
H1436 O1462 0.856 . S
H1437 O1465 0.854 . S
H1438 C1473 0.930 . S
H1439 C1474 0.930 . S
H1440 C1476 0.930 . S
H1441 C1477 0.930 . S
H1442 C1479 0.931 . S
H1443 C1480 0.930 . S
H1444 C1482 0.930 . S
H1445 C1483 0.929 . S
H1446 C1485 0.930 . S
H1447 C1486 0.931 . S
H1448 C1488 0.930 . S
H1449 C1489 0.929 . S
H1450 C1491 0.931 . S
H1451 C1492 0.930 . S
H1452 C1494 0.930 . S
H1453 C1495 0.932 . S
H1454 C1497 0.930 . S
H1455 C1498 0.929 . S
H1456 C1500 0.931 . S
H1457 C1501 0.930 . S
H1458 C1503 0.929 . S
H1459 C1504 0.931 . S
H1460 C1506 0.930 . S
H1461 C1507 0.929 . S
O1462 H1436 0.856 . S
O1462 C1508 1.300 . S
O1463 C1508 1.209 . S
O1464 C1509 1.199 . S
O1465 H1437 0.854 . S
O1465 C1509 1.297 . S
C1466 C1467 1.404 . S
C1466 C1471 1.397 . S
C1466 C1472 1.492 . S
C1467 C1466 1.404 . S
C1467 C1468 1.396 . S
C1467 C1478 1.492 . S
C1468 C1467 1.396 . S
C1468 C1469 1.397 . S
C1468 C1484 1.509 . S
C1469 C1468 1.397 . S
C1469 C1470 1.412 . S
C1469 C1490 1.485 . S
C1470 C1469 1.412 . S
C1470 C1471 1.388 . S
C1470 C1496 1.490 . S
C1471 C1466 1.397 . S
C1471 C1470 1.388 . S
C1471 C1502 1.519 . S
C1472 C1466 1.492 . S
C1472 C1473 1.363 . S
C1472 C1477 1.390 . S
C1473 H1438 0.930 . S
C1473 C1472 1.363 . S
C1473 C1474 1.372 . S
C1474 H1439 0.930 . S
C1474 C1473 1.372 . S
C1474 C1475 1.383 . S
C1475 C1474 1.383 . S
C1475 C1476 1.395 . S
C1476 H1440 0.930 . S
C1476 C1475 1.395 . S
C1476 C1477 1.362 . S
C1477 H1441 0.930 . S
C1477 C1472 1.390 . S
C1477 C1476 1.362 . S
C1478 C1467 1.492 . S
C1478 C1479 1.377 . S
C1478 C1483 1.397 . S
C1479 H1442 0.931 . S
C1479 C1478 1.377 . S
C1479 C1480 1.376 . S
C1480 H1443 0.930 . S
C1480 C1479 1.376 . S
C1480 C1481 1.376 . S
C1481 C1480 1.376 . S
C1481 C1482 1.378 . S
C1481 C1508 1.486 . S
C1482 H1444 0.930 . S
C1482 C1481 1.378 . S
C1482 C1483 1.376 . S
C1483 H1445 0.929 . S
C1483 C1478 1.397 . S
C1483 C1482 1.376 . S
C1484 C1468 1.509 . S
C1484 C1485 1.391 . S
C1484 C1489 1.386 . S
C1485 H1446 0.930 . S
C1485 C1484 1.391 . S
C1485 C1486 1.375 . S
C1486 H1447 0.931 . S
C1486 C1485 1.375 . S
C1486 C1487 1.375 . S
C1487 C1486 1.375 . S
C1487 C1488 1.361 . S
C1488 H1448 0.930 . S
C1488 C1487 1.361 . S
C1488 C1489 1.399 . S
C1489 H1449 0.929 . S
C1489 C1484 1.386 . S
C1489 C1488 1.399 . S
C1490 C1469 1.485 . S
C1490 C1491 1.394 . S
C1490 C1495 1.360 . S
C1491 H1450 0.931 . S
C1491 C1490 1.394 . S
C1491 C1492 1.372 . S
C1492 H1451 0.930 . S
C1492 C1491 1.372 . S
C1492 C1493 1.397 . S
C1493 C1492 1.397 . S
C1493 C1494 1.390 . S
C1493 C1509 1.476 . S
C1494 H1452 0.930 . S
C1494 C1493 1.390 . S
C1494 C1495 1.366 . S
C1495 H1453 0.932 . S
C1495 C1490 1.360 . S
C1495 C1494 1.366 . S
C1496 C1470 1.490 . S
C1496 C1497 1.380 . S
C1496 C1501 1.386 . S
C1497 H1454 0.930 . S
C1497 C1496 1.380 . S
C1497 C1498 1.381 . S
C1498 H1455 0.929 . S
C1498 C1497 1.381 . S
C1498 C1499 1.371 . S
C1499 C1498 1.371 . S
C1499 C1500 1.380 . S
C1500 H1456 0.931 . S
C1500 C1499 1.380 . S
C1500 C1501 1.387 . S
C1501 H1457 0.930 . S
C1501 C1496 1.386 . S
C1501 C1500 1.387 . S
C1502 C1471 1.519 . S
C1502 C1503 1.377 . S
C1502 C1507 1.361 . S
C1503 H1458 0.929 . S
C1503 C1502 1.377 . S
C1503 C1504 1.386 . S
C1504 H1459 0.931 . S
C1504 C1503 1.386 . S
C1504 C1505 1.363 . S
C1505 C1504 1.363 . S
C1505 C1506 1.385 . S
C1506 H1460 0.930 . S
C1506 C1505 1.385 . S
C1506 C1507 1.396 . S
C1507 H1461 0.929 . S
C1507 C1502 1.361 . S
C1507 C1506 1.396 . S
C1508 O1462 1.300 . S
C1508 O1463 1.209 . S
C1508 C1481 1.486 . S
C1509 O1464 1.199 . S
C1509 O1465 1.297 . S
C1509 C1493 1.476 . S
H1510 O1536 0.856 . S
H1511 O1539 0.854 . S
H1512 C1547 0.930 . S
H1513 C1548 0.930 . S
H1514 C1550 0.930 . S
H1515 C1551 0.930 . S
H1516 C1553 0.931 . S
H1517 C1554 0.930 . S
H1518 C1556 0.930 . S
H1519 C1557 0.929 . S
H1520 C1559 0.930 . S
H1521 C1560 0.931 . S
H1522 C1562 0.930 . S
H1523 C1563 0.929 . S
H1524 C1565 0.931 . S
H1525 C1566 0.930 . S
H1526 C1568 0.930 . S
H1527 C1569 0.932 . S
H1528 C1571 0.930 . S
H1529 C1572 0.929 . S
H1530 C1574 0.931 . S
H1531 C1575 0.930 . S
H1532 C1577 0.929 . S
H1533 C1578 0.931 . S
H1534 C1580 0.930 . S
H1535 C1581 0.929 . S
O1536 H1510 0.856 . S
O1536 C1582 1.300 . S
O1537 C1582 1.209 . S
O1538 C1583 1.199 . S
O1539 H1511 0.854 . S
O1539 C1583 1.297 . S
C1540 C1541 1.404 . S
C1540 C1545 1.397 . S
C1540 C1546 1.492 . S
C1541 C1540 1.404 . S
C1541 C1542 1.396 . S
C1541 C1552 1.492 . S
C1542 C1541 1.396 . S
C1542 C1543 1.397 . S
C1542 C1558 1.509 . S
C1543 C1542 1.397 . S
C1543 C1544 1.412 . S
C1543 C1564 1.485 . S
C1544 C1543 1.412 . S
C1544 C1545 1.388 . S
C1544 C1570 1.490 . S
C1545 C1540 1.397 . S
C1545 C1544 1.388 . S
C1545 C1576 1.519 . S
C1546 C1540 1.492 . S
C1546 C1547 1.363 . S
C1546 C1551 1.390 . S
C1547 H1512 0.930 . S
C1547 C1546 1.363 . S
C1547 C1548 1.372 . S
C1548 H1513 0.930 . S
C1548 C1547 1.372 . S
C1548 C1549 1.383 . S
C1549 C1548 1.383 . S
C1549 C1550 1.395 . S
C1550 H1514 0.930 . S
C1550 C1549 1.395 . S
C1550 C1551 1.362 . S
C1551 H1515 0.930 . S
C1551 C1546 1.390 . S
C1551 C1550 1.362 . S
C1552 C1541 1.492 . S
C1552 C1553 1.377 . S
C1552 C1557 1.397 . S
C1553 H1516 0.931 . S
C1553 C1552 1.377 . S
C1553 C1554 1.376 . S
C1554 H1517 0.930 . S
C1554 C1553 1.376 . S
C1554 C1555 1.376 . S
C1555 C1554 1.376 . S
C1555 C1556 1.378 . S
C1555 C1582 1.486 . S
C1556 H1518 0.930 . S
C1556 C1555 1.378 . S
C1556 C1557 1.376 . S
C1557 H1519 0.929 . S
C1557 C1552 1.397 . S
C1557 C1556 1.376 . S
C1558 C1542 1.509 . S
C1558 C1559 1.391 . S
C1558 C1563 1.386 . S
C1559 H1520 0.930 . S
C1559 C1558 1.391 . S
C1559 C1560 1.375 . S
C1560 H1521 0.931 . S
C1560 C1559 1.375 . S
C1560 C1561 1.375 . S
C1561 C1560 1.375 . S
C1561 C1562 1.361 . S
C1562 H1522 0.930 . S
C1562 C1561 1.361 . S
C1562 C1563 1.399 . S
C1563 H1523 0.929 . S
C1563 C1558 1.386 . S
C1563 C1562 1.399 . S
C1564 C1543 1.485 . S
C1564 C1565 1.394 . S
C1564 C1569 1.360 . S
C1565 H1524 0.931 . S
C1565 C1564 1.394 . S
C1565 C1566 1.372 . S
C1566 H1525 0.930 . S
C1566 C1565 1.372 . S
C1566 C1567 1.397 . S
C1567 C1566 1.397 . S
C1567 C1568 1.390 . S
C1567 C1583 1.476 . S
C1568 H1526 0.930 . S
C1568 C1567 1.390 . S
C1568 C1569 1.366 . S
C1569 H1527 0.932 . S
C1569 C1564 1.360 . S
C1569 C1568 1.366 . S
C1570 C1544 1.490 . S
C1570 C1571 1.380 . S
C1570 C1575 1.386 . S
C1571 H1528 0.930 . S
C1571 C1570 1.380 . S
C1571 C1572 1.381 . S
C1572 H1529 0.929 . S
C1572 C1571 1.381 . S
C1572 C1573 1.371 . S
C1573 C1572 1.371 . S
C1573 C1574 1.380 . S
C1574 H1530 0.931 . S
C1574 C1573 1.380 . S
C1574 C1575 1.387 . S
C1575 H1531 0.930 . S
C1575 C1570 1.386 . S
C1575 C1574 1.387 . S
C1576 C1545 1.519 . S
C1576 C1577 1.377 . S
C1576 C1581 1.361 . S
C1577 H1532 0.929 . S
C1577 C1576 1.377 . S
C1577 C1578 1.386 . S
C1578 H1533 0.931 . S
C1578 C1577 1.386 . S
C1578 C1579 1.363 . S
C1579 C1578 1.363 . S
C1579 C1580 1.385 . S
C1580 H1534 0.930 . S
C1580 C1579 1.385 . S
C1580 C1581 1.396 . S
C1581 H1535 0.929 . S
C1581 C1576 1.361 . S
C1581 C1580 1.396 . S
C1582 O1536 1.300 . S
C1582 O1537 1.209 . S
C1582 C1555 1.486 . S
C1583 O1538 1.199 . S
C1583 O1539 1.297 . S
C1583 C1567 1.476 . S
H1584 C1590 0.931 1_455 S
H1585 C1594 0.930 . S
H1586 C1599 0.929 . S
H1587 C1597 0.929 . S
H1588 C1592 0.929 . S
H1589 C1598 0.929 . S
C1590 H1584 0.931 1_655 S
C1590 C1591 1.397 . S
C1590 C1598 1.378 . S
C1591 C1590 1.397 . S
C1591 C1599 1.436 . S
C1592 H1588 0.929 . S
C1592 C1594 1.378 . S
C1592 C1596 1.350 . S
C1593 C1596 1.463 . S
C1593 C1598 1.350 . S
C1593 N1601 1.427 . S
C1594 H1585 0.930 . S
C1594 C1592 1.378 . S
C1594 C1595 1.367 . S
C1595 C1594 1.367 . S
C1595 C1597 1.433 . S
C1596 C1592 1.350 . S
C1596 C1593 1.463 . S
C1596 N1600 1.427 . S
C1597 H1587 0.929 . S
C1597 C1595 1.433 . S
C1597 N1600 1.384 . S
C1598 H1589 0.929 . S
C1598 C1590 1.378 . S
C1598 C1593 1.350 . S
C1599 H1586 0.929 . S
C1599 C1591 1.436 . S
C1599 N1601 1.384 . S
N1600 C1596 1.427 . S
N1600 C1597 1.384 . S
N1601 C1593 1.427 . S
N1601 C1599 1.384 . S
H1602 C1608 0.930 . S
H1603 C1612 0.930 . S
H1604 C1617 0.929 . S
H1605 C1615 0.929 . S
H1606 C1610 0.929 . S
H1607 C1616 0.929 . S
C1608 H1602 0.930 . S
C1608 C1609 1.367 . S
C1608 C1616 1.378 . S
C1609 C1608 1.367 . S
C1609 C1617 1.433 . S
C1610 H1606 0.929 . S
C1610 C1612 1.378 . S
C1610 C1614 1.350 . S
C1611 C1614 1.463 . S
C1611 C1616 1.350 . S
C1611 N1619 1.427 . S
C1612 H1603 0.930 . S
C1612 C1610 1.378 . S
C1612 C1613 1.367 . S
C1613 C1612 1.367 . S
C1613 C1615 1.433 . S
C1614 C1610 1.350 . S
C1614 C1611 1.463 . S
C1614 N1618 1.427 . S
C1615 H1605 0.929 . S
C1615 C1613 1.433 . S
C1615 N1618 1.384 . S
C1616 H1607 0.929 . S
C1616 C1608 1.378 . S
C1616 C1611 1.350 . S
C1617 H1604 0.929 . S
C1617 C1609 1.433 . S
C1617 N1619 1.384 . S
N1618 C1614 1.427 . S
N1618 C1615 1.384 . S
N1619 C1611 1.427 . S
N1619 C1617 1.384 . S
H1620 C1626 0.930 . S
H1621 C1630 0.930 . S
H1622 C1635 0.929 . S
H1623 C1633 0.929 . S
H1624 C1628 0.929 . S
H1625 C1634 0.929 . S
C1626 H1620 0.930 . S
C1626 C1627 1.367 1_565 S
C1626 C1634 1.378 . S
C1627 C1626 1.367 1_545 S
C1627 C1635 1.433 . S
C1628 H1624 0.929 . S
C1628 C1630 1.378 . S
C1628 C1632 1.350 . S
C1629 C1632 1.463 . S
C1629 C1634 1.350 1_545 S
C1629 N1637 1.427 . S
C1630 H1621 0.930 . S
C1630 C1628 1.378 . S
C1630 C1631 1.367 . S
C1631 C1630 1.367 . S
C1631 C1633 1.433 1_545 S
C1632 C1628 1.350 . S
C1632 C1629 1.463 . S
C1632 N1636 1.427 1_545 S
C1633 H1623 0.929 . S
C1633 C1631 1.433 1_565 S
C1633 N1636 1.384 . S
C1634 H1625 0.929 . S
C1634 C1626 1.378 . S
C1634 C1629 1.350 1_565 S
C1635 H1622 0.929 . S
C1635 C1627 1.433 . S
C1635 N1637 1.384 . S
N1636 C1632 1.427 1_565 S
N1636 C1633 1.384 . S
N1637 C1629 1.427 . S
N1637 C1635 1.384 . S
H1638 C1644 0.930 . S
H1639 C1648 0.930 . S
H1640 C1653 0.929 . S
H1641 C1651 0.929 . S
H1642 C1646 0.929 . S
H1643 C1652 0.929 . S
C1644 H1638 0.930 . S
C1644 C1645 1.367 . S
C1644 C1652 1.378 . S
C1645 C1644 1.367 . S
C1645 C1653 1.433 1_565 S
C1646 H1642 0.929 . S
C1646 C1648 1.378 . S
C1646 C1650 1.350 1_545 S
C1647 C1650 1.463 . S
C1647 C1652 1.350 . S
C1647 N1655 1.427 1_565 S
C1648 H1639 0.930 . S
C1648 C1646 1.378 . S
C1648 C1649 1.367 1_545 S
C1649 C1648 1.367 1_565 S
C1649 C1651 1.433 . S
C1650 C1646 1.350 1_565 S
C1650 C1647 1.463 . S
C1650 N1654 1.427 . S
C1651 H1641 0.929 . S
C1651 C1649 1.433 . S
C1651 N1654 1.384 . S
C1652 H1643 0.929 . S
C1652 C1644 1.378 . S
C1652 C1647 1.350 . S
C1653 H1640 0.929 . S
C1653 C1645 1.433 1_545 S
C1653 N1655 1.384 . S
N1654 C1650 1.427 . S
N1654 C1651 1.384 . S
N1655 C1647 1.427 1_545 S
N1655 C1653 1.384 . S
H1656 C1662 0.930 . S
H1657 C1666 0.930 . S
H1658 C1671 0.929 . S
H1659 C1669 0.929 . S
H1660 C1664 0.929 . S
H1661 C1670 0.929 . S
C1662 H1656 0.930 . S
C1662 C1663 1.367 . S
C1662 C1670 1.378 . S
C1663 C1662 1.367 . S
C1663 C1671 1.433 1_455 S
C1664 H1660 0.929 . S
C1664 C1666 1.378 . S
C1664 C1668 1.350 1_655 S
C1665 C1668 1.463 . S
C1665 C1670 1.350 . S
C1665 N1673 1.427 1_455 S
C1666 H1657 0.930 . S
C1666 C1664 1.378 . S
C1666 C1667 1.367 1_655 S
C1667 C1666 1.367 1_455 S
C1667 C1669 1.433 . S
C1668 C1664 1.350 1_455 S
C1668 C1665 1.463 . S
C1668 N1672 1.427 . S
C1669 H1659 0.929 . S
C1669 C1667 1.433 . S
C1669 N1672 1.384 . S
C1670 H1661 0.929 . S
C1670 C1662 1.378 . S
C1670 C1665 1.350 . S
C1671 H1658 0.929 . S
C1671 C1663 1.433 1_655 S
C1671 N1673 1.384 . S
N1672 C1668 1.427 . S
N1672 C1669 1.384 . S
N1673 C1665 1.427 1_655 S
N1673 C1671 1.384 . S
H1674 C1680 0.930 . S
H1675 C1684 0.930 . S
H1676 C1689 0.929 . S
H1677 C1687 0.929 . S
H1678 C1682 0.929 . S
H1679 C1688 0.929 . S
C1680 H1674 0.930 . S
C1680 C1681 1.367 1_556 S
C1680 C1688 1.378 . S
C1681 C1680 1.367 1_554 S
C1681 C1689 1.433 . S
C1682 H1678 0.929 . S
C1682 C1684 1.378 . S
C1682 C1686 1.350 . S
C1683 C1686 1.463 . S
C1683 C1688 1.350 . S
C1683 N1691 1.423 1_556 S
C1684 H1675 0.930 . S
C1684 C1682 1.378 . S
C1684 C1685 1.367 . S
C1685 C1684 1.367 . S
C1685 C1687 1.433 . S
C1686 C1682 1.350 . S
C1686 C1683 1.463 . S
C1686 N1690 1.427 . S
C1687 H1677 0.929 . S
C1687 C1685 1.433 . S
C1687 N1690 1.384 . S
C1688 H1679 0.929 . S
C1688 C1680 1.378 . S
C1688 C1683 1.350 . S
C1689 H1676 0.929 . S
C1689 C1681 1.433 . S
C1689 N1691 1.387 . S
N1690 C1686 1.427 . S
N1690 C1687 1.384 . S
N1691 C1683 1.423 1_554 S
N1691 C1689 1.387 . S
H1692 C1698 0.930 . S
H1693 C1702 0.930 . S
H1694 C1707 0.929 . S
H1695 C1705 0.929 . S
H1696 C1700 0.929 . S
H1697 C1706 0.929 . S
C1698 H1692 0.930 . S
C1698 C1699 1.358 1_654 S
C1698 C1706 1.378 1_554 S
C1699 C1698 1.358 1_456 S
C1699 C1707 1.463 . S
C1700 H1696 0.929 . S
C1700 C1702 1.378 . S
C1700 C1704 1.350 . S
C1701 C1704 1.463 . S
C1701 C1706 1.350 1_455 S
C1701 N1709 1.427 . S
C1702 H1693 0.930 . S
C1702 C1700 1.378 . S
C1702 C1703 1.367 . S
C1703 C1702 1.367 . S
C1703 C1705 1.433 1_455 S
C1704 C1700 1.350 . S
C1704 C1701 1.463 . S
C1704 N1708 1.427 1_455 S
C1705 H1695 0.929 . S
C1705 C1703 1.433 1_655 S
C1705 N1708 1.384 . S
C1706 H1697 0.929 . S
C1706 C1698 1.378 1_556 S
C1706 C1701 1.350 1_655 S
C1707 H1694 0.929 . S
C1707 C1699 1.463 . S
C1707 N1709 1.384 . S
N1708 C1704 1.427 1_655 S
N1708 C1705 1.384 . S
N1709 C1701 1.427 . S
N1709 C1707 1.384 . S
H1710 C1716 0.930 . S
H1711 C1720 0.930 . S
H1712 C1725 0.929 . S
H1713 C1723 0.929 . S
H1714 C1718 0.929 . S
H1715 C1724 0.929 . S
C1716 H1710 0.930 . S
C1716 C1717 1.367 . S
C1716 C1724 1.378 . S
C1717 C1716 1.367 . S
C1717 C1725 1.433 . S
C1718 H1714 0.929 . S
C1718 C1720 1.378 . S
C1718 C1722 1.350 . S
C1719 C1722 1.463 . S
C1719 C1724 1.350 . S
C1719 N1727 1.427 . S
C1720 H1711 0.930 . S
C1720 C1718 1.378 . S
C1720 C1721 1.367 . S
C1721 C1720 1.367 . S
C1721 C1723 1.433 . S
C1722 C1718 1.350 . S
C1722 C1719 1.463 . S
C1722 N1726 1.427 . S
C1723 H1713 0.929 . S
C1723 C1721 1.433 . S
C1723 N1726 1.384 . S
C1724 H1715 0.929 . S
C1724 C1716 1.378 . S
C1724 C1719 1.350 . S
C1725 H1712 0.929 . S
C1725 C1717 1.433 . S
C1725 N1727 1.384 . S
N1726 C1722 1.427 . S
N1726 C1723 1.384 . S
N1727 C1719 1.427 . S
N1727 C1725 1.384 . S
H1728 C1734 0.930 . S
H1729 C1738 0.930 . S
H1730 C1743 0.929 1_554 S
H1731 C1741 0.929 . S
H1732 C1736 0.929 . S
H1733 C1742 0.929 . S
C1734 H1728 0.930 . S
C1734 C1735 1.367 1_545 S
C1734 C1742 1.378 . S
C1735 C1734 1.367 1_565 S
C1735 C1743 1.433 . S
C1736 H1732 0.929 . S
C1736 C1738 1.378 . S
C1736 C1740 1.350 . S
C1737 C1740 1.463 . S
C1737 C1742 1.350 1_565 S
C1737 N1745 1.427 . S
C1738 H1729 0.930 . S
C1738 C1736 1.378 . S
C1738 C1739 1.362 1_565 S
C1739 C1738 1.362 1_545 S
C1739 C1741 1.434 . S
C1740 C1736 1.350 . S
C1740 C1737 1.463 . S
C1740 N1744 1.427 1_565 S
C1741 H1731 0.929 . S
C1741 C1739 1.434 . S
C1741 N1744 1.384 . S
C1742 H1733 0.929 . S
C1742 C1734 1.378 . S
C1742 C1737 1.350 1_545 S
C1743 H1730 0.929 1_556 S
C1743 C1735 1.433 . S
C1743 N1745 1.384 . S
N1744 C1740 1.427 1_545 S
N1744 C1741 1.384 . S
N1745 C1737 1.427 . S
N1745 C1743 1.384 . S
H1746 C1752 0.930 . S
H1747 C1756 0.930 . S
H1748 C1761 0.929 . S
H1749 C1759 0.929 . S
H1750 C1754 0.929 . S
H1751 C1760 0.929 . S
C1752 H1746 0.930 . S
C1752 C1753 1.367 1_565 S
C1752 C1760 1.378 . S
C1753 C1752 1.367 1_545 S
C1753 C1761 1.433 . S
C1754 H1750 0.929 . S
C1754 C1756 1.378 . S
C1754 C1758 1.350 . S
C1755 C1758 1.463 . S
C1755 C1760 1.350 1_545 S
C1755 N1763 1.427 . S
C1756 H1747 0.930 . S
C1756 C1754 1.378 . S
C1756 C1757 1.368 1_545 S
C1757 C1756 1.368 1_565 S
C1757 C1759 1.432 . S
C1758 C1754 1.350 . S
C1758 C1755 1.463 . S
C1758 N1762 1.427 1_545 S
C1759 H1749 0.929 . S
C1759 C1757 1.432 . S
C1759 N1762 1.384 . S
C1760 H1751 0.929 . S
C1760 C1752 1.378 . S
C1760 C1755 1.350 1_565 S
C1761 H1748 0.929 . S
C1761 C1753 1.433 . S
C1761 N1763 1.384 . S
N1762 C1758 1.427 1_565 S
N1762 C1759 1.384 . S
N1763 C1755 1.427 . S
N1763 C1761 1.384 . S
H1764 C1770 0.948 . S
H1765 C1774 0.930 . S
H1766 C1779 0.929 . S
H1767 C1777 0.966 . S
H1768 C1772 0.929 . S
H1769 C1778 0.921 1_455 S
C1770 H1764 0.948 . S
C1770 C1771 1.367 . S
C1770 C1778 1.378 . S
C1771 C1770 1.367 . S
C1771 C1779 1.433 . S
C1772 H1768 0.929 . S
C1772 C1774 1.378 . S
C1772 C1776 1.350 . S
C1773 C1776 1.463 . S
C1773 C1778 1.350 . S
C1773 N1781 1.427 . S
C1774 H1765 0.930 . S
C1774 C1772 1.378 . S
C1774 C1775 1.404 . S
C1775 C1774 1.404 . S
C1775 C1777 1.406 1_655 S
C1776 C1772 1.350 . S
C1776 C1773 1.463 . S
C1776 N1780 1.426 1_655 S
C1777 H1767 0.966 . S
C1777 C1775 1.406 1_455 S
C1777 N1780 1.364 . S
C1778 H1769 0.921 1_655 S
C1778 C1770 1.378 . S
C1778 C1773 1.350 . S
C1779 H1766 0.929 . S
C1779 C1771 1.433 . S
C1779 N1781 1.384 . S
N1780 C1776 1.426 1_455 S
N1780 C1777 1.364 . S
N1781 C1773 1.427 . S
N1781 C1779 1.384 . S
H1782 C1788 0.930 . S
H1783 C1792 0.930 . S
H1784 C1797 0.929 . S
H1785 C1795 0.929 . S
H1786 C1790 0.929 . S
H1787 C1796 0.929 . S
C1788 H1782 0.930 . S
C1788 C1789 1.367 . S
C1788 C1796 1.378 . S
C1789 C1788 1.367 . S
C1789 C1797 1.433 . S
C1790 H1786 0.929 . S
C1790 C1792 1.378 . S
C1790 C1794 1.350 . S
C1791 C1794 1.463 . S
C1791 C1796 1.350 . S
C1791 N1799 1.427 . S
C1792 H1783 0.930 . S
C1792 C1790 1.378 . S
C1792 C1793 1.367 . S
C1793 C1792 1.367 . S
C1793 C1795 1.433 . S
C1794 C1790 1.350 . S
C1794 C1791 1.463 . S
C1794 N1798 1.427 . S
C1795 H1785 0.929 . S
C1795 C1793 1.433 . S
C1795 N1798 1.384 . S
C1796 H1787 0.929 . S
C1796 C1788 1.378 . S
C1796 C1791 1.350 . S
C1797 H1784 0.929 . S
C1797 C1789 1.433 . S
C1797 N1799 1.384 . S
N1798 C1794 1.427 . S
N1798 C1795 1.384 . S
N1799 C1791 1.427 . S
N1799 C1797 1.384 . S
H1800 C1806 0.930 . S
H1801 C1810 0.930 . S
H1802 C1815 0.929 . S
H1803 C1813 0.929 . S
H1804 C1808 0.929 . S
H1805 C1814 0.929 . S
C1806 H1800 0.930 . S
C1806 C1807 1.367 . S
C1806 C1814 1.378 . S
C1807 C1806 1.367 . S
C1807 C1815 1.433 . S
C1808 H1804 0.929 . S
C1808 C1810 1.378 . S
C1808 C1812 1.350 . S
C1809 C1812 1.463 . S
C1809 C1814 1.350 . S
C1809 N1817 1.427 . S
C1810 H1801 0.930 . S
C1810 C1808 1.378 . S
C1810 C1811 1.367 . S
C1811 C1810 1.367 . S
C1811 C1813 1.433 . S
C1812 C1808 1.350 . S
C1812 C1809 1.463 . S
C1812 N1816 1.427 . S
C1813 H1803 0.929 . S
C1813 C1811 1.433 . S
C1813 N1816 1.384 . S
C1814 H1805 0.929 . S
C1814 C1806 1.378 . S
C1814 C1809 1.350 . S
C1815 H1802 0.929 . S
C1815 C1807 1.433 . S
C1815 N1817 1.384 . S
N1816 C1812 1.427 . S
N1816 C1813 1.384 . S
N1817 C1809 1.427 . S
N1817 C1815 1.384 . S
H1818 C1824 0.930 . S
H1819 C1828 0.930 . S
H1820 C1833 0.929 . S
H1821 C1831 0.929 . S
H1822 C1826 0.929 . S
H1823 C1832 0.929 . S
C1824 H1818 0.930 . S
C1824 C1825 1.367 . S
C1824 C1832 1.378 . S
C1825 C1824 1.367 . S
C1825 C1833 1.433 . S
C1826 H1822 0.929 . S
C1826 C1828 1.378 . S
C1826 C1830 1.350 . S
C1827 C1830 1.463 . S
C1827 C1832 1.350 . S
C1827 N1835 1.427 . S
C1828 H1819 0.930 . S
C1828 C1826 1.378 . S
C1828 C1829 1.367 . S
C1829 C1828 1.367 . S
C1829 C1831 1.433 . S
C1830 C1826 1.350 . S
C1830 C1827 1.463 . S
C1830 N1834 1.427 . S
C1831 H1821 0.929 . S
C1831 C1829 1.433 . S
C1831 N1834 1.384 . S
C1832 H1823 0.929 . S
C1832 C1824 1.378 . S
C1832 C1827 1.350 . S
C1833 H1820 0.929 . S
C1833 C1825 1.433 . S
C1833 N1835 1.384 . S
N1834 C1830 1.427 . S
N1834 C1831 1.384 . S
N1835 C1827 1.427 . S
N1835 C1833 1.384 . S
H1836 C1842 0.930 . S
H1837 C1846 0.930 . S
H1838 C1851 0.929 . S
H1839 C1849 0.929 . S
H1840 C1844 0.929 . S
H1841 C1850 0.929 . S
C1842 H1836 0.930 . S
C1842 C1843 1.367 . S
C1842 C1850 1.378 . S
C1843 C1842 1.367 . S
C1843 C1851 1.433 . S
C1844 H1840 0.929 . S
C1844 C1846 1.378 . S
C1844 C1848 1.350 . S
C1845 C1848 1.463 . S
C1845 C1850 1.350 . S
C1845 N1853 1.427 . S
C1846 H1837 0.930 . S
C1846 C1844 1.378 . S
C1846 C1847 1.367 . S
C1847 C1846 1.367 . S
C1847 C1849 1.433 . S
C1848 C1844 1.350 . S
C1848 C1845 1.463 . S
C1848 N1852 1.427 . S
C1849 H1839 0.929 . S
C1849 C1847 1.433 . S
C1849 N1852 1.384 . S
C1850 H1841 0.929 . S
C1850 C1842 1.378 . S
C1850 C1845 1.350 . S
C1851 H1838 0.929 . S
C1851 C1843 1.433 . S
C1851 N1853 1.384 . S
N1852 C1848 1.427 . S
N1852 C1849 1.384 . S
N1853 C1845 1.427 . S
N1853 C1851 1.384 . S
H1854 C1860 0.930 . S
H1855 C1864 0.930 . S
H1856 C1869 0.929 . S
H1857 C1867 0.929 . S
H1858 C1862 0.929 . S
H1859 C1868 0.929 . S
C1860 H1854 0.930 . S
C1860 C1861 1.367 . S
C1860 C1868 1.378 . S
C1861 C1860 1.367 . S
C1861 C1869 1.433 . S
C1862 H1858 0.929 . S
C1862 C1864 1.378 . S
C1862 C1866 1.350 . S
C1863 C1866 1.463 . S
C1863 C1868 1.350 . S
C1863 N1871 1.427 . S
C1864 H1855 0.930 . S
C1864 C1862 1.378 . S
C1864 C1865 1.367 . S
C1865 C1864 1.367 . S
C1865 C1867 1.433 . S
C1866 C1862 1.350 . S
C1866 C1863 1.463 . S
C1866 N1870 1.427 . S
C1867 H1857 0.929 . S
C1867 C1865 1.433 . S
C1867 N1870 1.384 . S
C1868 H1859 0.929 . S
C1868 C1860 1.378 . S
C1868 C1863 1.350 . S
C1869 H1856 0.929 . S
C1869 C1861 1.433 . S
C1869 N1871 1.384 . S
N1870 C1866 1.427 . S
N1870 C1867 1.384 . S
N1871 C1863 1.427 . S
N1871 C1869 1.384 . S
H1872 C1878 0.930 . S
H1873 C1882 0.930 . S
H1874 C1887 0.929 . S
H1875 C1885 0.929 . S
H1876 C1880 0.929 . S
H1877 C1886 0.929 . S
C1878 H1872 0.930 . S
C1878 C1879 1.367 . S
C1878 C1886 1.378 . S
C1879 C1878 1.367 . S
C1879 C1887 1.433 . S
C1880 H1876 0.929 . S
C1880 C1882 1.378 . S
C1880 C1884 1.350 . S
C1881 C1884 1.463 . S
C1881 C1886 1.350 . S
C1881 N1889 1.427 . S
C1882 H1873 0.930 . S
C1882 C1880 1.378 . S
C1882 C1883 1.367 . S
C1883 C1882 1.367 . S
C1883 C1885 1.433 . S
C1884 C1880 1.350 . S
C1884 C1881 1.463 . S
C1884 N1888 1.427 . S
C1885 H1875 0.929 . S
C1885 C1883 1.433 . S
C1885 N1888 1.384 . S
C1886 H1877 0.929 . S
C1886 C1878 1.378 . S
C1886 C1881 1.350 . S
C1887 H1874 0.929 . S
C1887 C1879 1.433 . S
C1887 N1889 1.384 . S
N1888 C1884 1.427 . S
N1888 C1885 1.384 . S
N1889 C1881 1.427 . S
N1889 C1887 1.384 . S
H1890 C1896 0.930 . S
H1891 C1900 0.930 . S
H1892 C1905 0.929 . S
H1893 C1903 0.929 . S
H1894 C1898 0.929 . S
H1895 C1904 0.929 . S
C1896 H1890 0.930 . S
C1896 C1897 1.367 . S
C1896 C1904 1.378 . S
C1897 C1896 1.367 . S
C1897 C1905 1.433 . S
C1898 H1894 0.929 . S
C1898 C1900 1.378 . S
C1898 C1902 1.350 . S
C1899 C1902 1.463 . S
C1899 C1904 1.350 . S
C1899 N1907 1.427 . S
C1900 H1891 0.930 . S
C1900 C1898 1.378 . S
C1900 C1901 1.367 . S
C1901 C1900 1.367 . S
C1901 C1903 1.433 . S
C1902 C1898 1.350 . S
C1902 C1899 1.463 . S
C1902 N1906 1.427 . S
C1903 H1893 0.929 . S
C1903 C1901 1.433 . S
C1903 N1906 1.384 . S
C1904 H1895 0.929 . S
C1904 C1896 1.378 . S
C1904 C1899 1.350 . S
C1905 H1892 0.929 . S
C1905 C1897 1.433 . S
C1905 N1907 1.384 . S
N1906 C1902 1.427 . S
N1906 C1903 1.384 . S
N1907 C1899 1.427 . S
N1907 C1905 1.384 . S
H1908 C1914 0.930 . S
H1909 C1918 0.930 . S
H1910 C1923 0.929 . S
H1911 C1921 0.929 . S
H1912 C1916 0.929 . S
H1913 C1922 0.929 . S
C1914 H1908 0.930 . S
C1914 C1915 1.367 . S
C1914 C1922 1.378 . S
C1915 C1914 1.367 . S
C1915 C1923 1.433 . S
C1916 H1912 0.929 . S
C1916 C1918 1.378 . S
C1916 C1920 1.350 . S
C1917 C1920 1.463 . S
C1917 C1922 1.350 . S
C1917 N1925 1.427 . S
C1918 H1909 0.930 . S
C1918 C1916 1.378 . S
C1918 C1919 1.367 . S
C1919 C1918 1.367 . S
C1919 C1921 1.433 . S
C1920 C1916 1.350 . S
C1920 C1917 1.463 . S
C1920 N1924 1.427 . S
C1921 H1911 0.929 . S
C1921 C1919 1.433 . S
C1921 N1924 1.384 . S
C1922 H1913 0.929 . S
C1922 C1914 1.378 . S
C1922 C1917 1.350 . S
C1923 H1910 0.929 . S
C1923 C1915 1.433 . S
C1923 N1925 1.384 . S
N1924 C1920 1.427 . S
N1924 C1921 1.384 . S
N1925 C1917 1.427 . S
N1925 C1923 1.384 . S
H1926 C1932 0.930 . S
H1927 C1936 0.930 . S
H1928 C1941 0.929 . S
H1929 C1939 0.929 . S
H1930 C1934 0.929 . S
H1931 C1940 0.929 . S
C1932 H1926 0.930 . S
C1932 C1933 1.367 . S
C1932 C1940 1.378 . S
C1933 C1932 1.367 . S
C1933 C1941 1.433 . S
C1934 H1930 0.929 . S
C1934 C1936 1.378 . S
C1934 C1938 1.350 . S
C1935 C1938 1.463 . S
C1935 C1940 1.350 . S
C1935 N1943 1.427 . S
C1936 H1927 0.930 . S
C1936 C1934 1.378 . S
C1936 C1937 1.367 . S
C1937 C1936 1.367 . S
C1937 C1939 1.433 . S
C1938 C1934 1.350 . S
C1938 C1935 1.463 . S
C1938 N1942 1.427 . S
C1939 H1929 0.929 . S
C1939 C1937 1.433 . S
C1939 N1942 1.384 . S
C1940 H1931 0.929 . S
C1940 C1932 1.378 . S
C1940 C1935 1.350 . S
C1941 H1928 0.929 . S
C1941 C1933 1.433 . S
C1941 N1943 1.384 . S
N1942 C1938 1.427 . S
N1942 C1939 1.384 . S
N1943 C1935 1.427 . S
N1943 C1941 1.384 . S
H1944 C1950 0.930 . S
H1945 C1954 0.930 . S
H1946 C1959 0.929 . S
H1947 C1957 0.929 . S
H1948 C1952 0.929 . S
H1949 C1958 0.929 . S
C1950 H1944 0.930 . S
C1950 C1951 1.367 . S
C1950 C1958 1.378 . S
C1951 C1950 1.367 . S
C1951 C1959 1.433 . S
C1952 H1948 0.929 . S
C1952 C1954 1.378 . S
C1952 C1956 1.350 . S
C1953 C1956 1.463 . S
C1953 C1958 1.350 . S
C1953 N1961 1.427 . S
C1954 H1945 0.930 . S
C1954 C1952 1.378 . S
C1954 C1955 1.367 . S
C1955 C1954 1.367 . S
C1955 C1957 1.433 . S
C1956 C1952 1.350 . S
C1956 C1953 1.463 . S
C1956 N1960 1.427 . S
C1957 H1947 0.929 . S
C1957 C1955 1.433 . S
C1957 N1960 1.384 . S
C1958 H1949 0.929 . S
C1958 C1950 1.378 . S
C1958 C1953 1.350 . S
C1959 H1946 0.929 . S
C1959 C1951 1.433 . S
C1959 N1961 1.384 . S
N1960 C1956 1.427 . S
N1960 C1957 1.384 . S
N1961 C1953 1.427 . S
N1961 C1959 1.384 . S
H1962 C1968 0.930 . S
H1963 C1972 0.930 . S
H1964 C1977 0.929 . S
H1965 C1975 0.929 . S
H1966 C1970 0.929 . S
H1967 C1976 0.929 . S
C1968 H1962 0.930 . S
C1968 C1969 1.367 . S
C1968 C1976 1.378 . S
C1969 C1968 1.367 . S
C1969 C1977 1.433 . S
C1970 H1966 0.929 . S
C1970 C1972 1.378 . S
C1970 C1974 1.350 . S
C1971 C1974 1.463 . S
C1971 C1976 1.350 . S
C1971 N1979 1.427 . S
C1972 H1963 0.930 . S
C1972 C1970 1.378 . S
C1972 C1973 1.367 . S
C1973 C1972 1.367 . S
C1973 C1975 1.433 . S
C1974 C1970 1.350 . S
C1974 C1971 1.463 . S
C1974 N1978 1.427 . S
C1975 H1965 0.929 . S
C1975 C1973 1.433 . S
C1975 N1978 1.384 . S
C1976 H1967 0.929 . S
C1976 C1968 1.378 . S
C1976 C1971 1.350 . S
C1977 H1964 0.929 . S
C1977 C1969 1.433 . S
C1977 N1979 1.384 . S
N1978 C1974 1.427 . S
N1978 C1975 1.384 . S
N1979 C1971 1.427 . S
N1979 C1977 1.384 . S
H1980 C1986 0.930 . S
H1981 C1990 0.930 . S
H1982 C1995 0.929 . S
H1983 C1993 0.929 . S
H1984 C1988 0.929 . S
H1985 C1994 0.929 . S
C1986 H1980 0.930 . S
C1986 C1987 1.367 . S
C1986 C1994 1.378 . S
C1987 C1986 1.367 . S
C1987 C1995 1.433 . S
C1988 H1984 0.929 . S
C1988 C1990 1.378 . S
C1988 C1992 1.350 . S
C1989 C1992 1.463 . S
C1989 C1994 1.350 . S
C1989 N1997 1.427 . S
C1990 H1981 0.930 . S
C1990 C1988 1.378 . S
C1990 C1991 1.367 . S
C1991 C1990 1.367 . S
C1991 C1993 1.433 . S
C1992 C1988 1.350 . S
C1992 C1989 1.463 . S
C1992 N1996 1.427 . S
C1993 H1983 0.929 . S
C1993 C1991 1.433 . S
C1993 N1996 1.384 . S
C1994 H1985 0.929 . S
C1994 C1986 1.378 . S
C1994 C1989 1.350 . S
C1995 H1982 0.929 . S
C1995 C1987 1.433 . S
C1995 N1997 1.384 . S
N1996 C1992 1.427 . S
N1996 C1993 1.384 . S
N1997 C1989 1.427 . S
N1997 C1995 1.384 . S
H1998 C2004 0.930 . S
H1999 C2008 0.930 . S
H2000 C2013 0.929 . S
H2001 C2011 0.929 . S
H2002 C2006 0.929 . S
H2003 C2012 0.929 . S
C2004 H1998 0.930 . S
C2004 C2005 1.367 . S
C2004 C2012 1.378 . S
C2005 C2004 1.367 . S
C2005 C2013 1.433 . S
C2006 H2002 0.929 . S
C2006 C2008 1.378 . S
C2006 C2010 1.350 . S
C2007 C2010 1.463 . S
C2007 C2012 1.350 . S
C2007 N2015 1.427 . S
C2008 H1999 0.930 . S
C2008 C2006 1.378 . S
C2008 C2009 1.367 . S
C2009 C2008 1.367 . S
C2009 C2011 1.433 . S
C2010 C2006 1.350 . S
C2010 C2007 1.463 . S
C2010 N2014 1.427 . S
C2011 H2001 0.929 . S
C2011 C2009 1.433 . S
C2011 N2014 1.384 . S
C2012 H2003 0.929 . S
C2012 C2004 1.378 . S
C2012 C2007 1.350 . S
C2013 H2000 0.929 . S
C2013 C2005 1.433 . S
C2013 N2015 1.384 . S
N2014 C2010 1.427 . S
N2014 C2011 1.384 . S
N2015 C2007 1.427 . S
N2015 C2013 1.384 . S
H2016 C2022 0.930 . S
H2017 C2026 0.930 . S
H2018 C2031 0.929 . S
H2019 C2029 0.929 . S
H2020 C2024 0.929 . S
H2021 C2030 0.929 . S
C2022 H2016 0.930 . S
C2022 C2023 1.367 . S
C2022 C2030 1.378 . S
C2023 C2022 1.367 . S
C2023 C2031 1.433 . S
C2024 H2020 0.929 . S
C2024 C2026 1.378 . S
C2024 C2028 1.350 . S
C2025 C2028 1.463 . S
C2025 C2030 1.350 . S
C2025 N2033 1.427 . S
C2026 H2017 0.930 . S
C2026 C2024 1.378 . S
C2026 C2027 1.367 . S
C2027 C2026 1.367 . S
C2027 C2029 1.433 . S
C2028 C2024 1.350 . S
C2028 C2025 1.463 . S
C2028 N2032 1.427 . S
C2029 H2019 0.929 . S
C2029 C2027 1.433 . S
C2029 N2032 1.384 . S
C2030 H2021 0.929 . S
C2030 C2022 1.378 . S
C2030 C2025 1.350 . S
C2031 H2018 0.929 . S
C2031 C2023 1.433 . S
C2031 N2033 1.384 . S
N2032 C2028 1.427 . S
N2032 C2029 1.384 . S
N2033 C2025 1.427 . S
N2033 C2031 1.384 . S
H2034 C2040 0.930 . S
H2035 C2044 0.930 . S
H2036 C2049 0.929 . S
H2037 C2047 0.929 . S
H2038 C2042 0.929 . S
H2039 C2048 0.929 . S
C2040 H2034 0.930 . S
C2040 C2041 1.367 . S
C2040 C2048 1.378 . S
C2041 C2040 1.367 . S
C2041 C2049 1.433 . S
C2042 H2038 0.929 . S
C2042 C2044 1.378 . S
C2042 C2046 1.350 . S
C2043 C2046 1.463 . S
C2043 C2048 1.350 . S
C2043 N2051 1.427 . S
C2044 H2035 0.930 . S
C2044 C2042 1.378 . S
C2044 C2045 1.367 . S
C2045 C2044 1.367 . S
C2045 C2047 1.433 . S
C2046 C2042 1.350 . S
C2046 C2043 1.463 . S
C2046 N2050 1.427 . S
C2047 H2037 0.929 . S
C2047 C2045 1.433 . S
C2047 N2050 1.384 . S
C2048 H2039 0.929 . S
C2048 C2040 1.378 . S
C2048 C2043 1.350 . S
C2049 H2036 0.929 . S
C2049 C2041 1.433 . S
C2049 N2051 1.384 . S
N2050 C2046 1.427 . S
N2050 C2047 1.384 . S
N2051 C2043 1.427 . S
N2051 C2049 1.384 . S
H2052 C2058 0.930 . S
H2053 C2062 0.930 . S
H2054 C2067 0.929 . S
H2055 C2065 0.929 . S
H2056 C2060 0.929 . S
H2057 C2066 0.929 . S
C2058 H2052 0.930 . S
C2058 C2059 1.367 . S
C2058 C2066 1.378 . S
C2059 C2058 1.367 . S
C2059 C2067 1.433 . S
C2060 H2056 0.929 . S
C2060 C2062 1.378 . S
C2060 C2064 1.350 . S
C2061 C2064 1.463 . S
C2061 C2066 1.350 . S
C2061 N2069 1.427 . S
C2062 H2053 0.930 . S
C2062 C2060 1.378 . S
C2062 C2063 1.367 . S
C2063 C2062 1.367 . S
C2063 C2065 1.433 . S
C2064 C2060 1.350 . S
C2064 C2061 1.463 . S
C2064 N2068 1.427 . S
C2065 H2055 0.929 . S
C2065 C2063 1.433 . S
C2065 N2068 1.384 . S
C2066 H2057 0.929 . S
C2066 C2058 1.378 . S
C2066 C2061 1.350 . S
C2067 H2054 0.929 . S
C2067 C2059 1.433 . S
C2067 N2069 1.384 . S
N2068 C2064 1.427 . S
N2068 C2065 1.384 . S
N2069 C2061 1.427 . S
N2069 C2067 1.384 . S
H2070 C2076 0.930 . S
H2071 C2080 0.930 . S
H2072 C2085 0.929 . S
H2073 C2083 0.929 . S
H2074 C2078 0.929 . S
H2075 C2084 0.929 . S
C2076 H2070 0.930 . S
C2076 C2077 1.367 . S
C2076 C2084 1.378 . S
C2077 C2076 1.367 . S
C2077 C2085 1.433 . S
C2078 H2074 0.929 . S
C2078 C2080 1.378 . S
C2078 C2082 1.350 . S
C2079 C2082 1.463 . S
C2079 C2084 1.350 . S
C2079 N2087 1.427 . S
C2080 H2071 0.930 . S
C2080 C2078 1.378 . S
C2080 C2081 1.367 . S
C2081 C2080 1.367 . S
C2081 C2083 1.433 . S
C2082 C2078 1.350 . S
C2082 C2079 1.463 . S
C2082 N2086 1.427 . S
C2083 H2073 0.929 . S
C2083 C2081 1.433 . S
C2083 N2086 1.384 . S
C2084 H2075 0.929 . S
C2084 C2076 1.378 . S
C2084 C2079 1.350 . S
C2085 H2072 0.929 . S
C2085 C2077 1.433 . S
C2085 N2087 1.384 . S
N2086 C2082 1.427 . S
N2086 C2083 1.384 . S
N2087 C2079 1.427 . S
N2087 C2085 1.384 . S
H2088 C2094 0.930 . S
H2089 C2098 0.930 . S
H2090 C2103 0.929 . S
H2091 C2101 0.929 . S
H2092 C2096 0.929 . S
H2093 C2102 0.929 . S
C2094 H2088 0.930 . S
C2094 C2095 1.367 . S
C2094 C2102 1.378 . S
C2095 C2094 1.367 . S
C2095 C2103 1.433 . S
C2096 H2092 0.929 . S
C2096 C2098 1.378 . S
C2096 C2100 1.350 . S
C2097 C2100 1.463 . S
C2097 C2102 1.350 . S
C2097 N2105 1.427 . S
C2098 H2089 0.930 . S
C2098 C2096 1.378 . S
C2098 C2099 1.367 . S
C2099 C2098 1.367 . S
C2099 C2101 1.433 . S
C2100 C2096 1.350 . S
C2100 C2097 1.463 . S
C2100 N2104 1.427 . S
C2101 H2091 0.929 . S
C2101 C2099 1.433 . S
C2101 N2104 1.384 . S
C2102 H2093 0.929 . S
C2102 C2094 1.378 . S
C2102 C2097 1.350 . S
C2103 H2090 0.929 . S
C2103 C2095 1.433 . S
C2103 N2105 1.384 . S
N2104 C2100 1.427 . S
N2104 C2101 1.384 . S
N2105 C2097 1.427 . S
N2105 C2103 1.384 . S
H2106 C2112 0.930 . S
H2107 C2116 0.930 . S
H2108 C2121 0.929 . S
H2109 C2119 0.929 . S
H2110 C2114 0.929 . S
H2111 C2120 0.929 . S
C2112 H2106 0.930 . S
C2112 C2113 1.367 . S
C2112 C2120 1.378 . S
C2113 C2112 1.367 . S
C2113 C2121 1.433 . S
C2114 H2110 0.929 . S
C2114 C2116 1.378 . S
C2114 C2118 1.350 . S
C2115 C2118 1.463 . S
C2115 C2120 1.350 . S
C2115 N2123 1.427 . S
C2116 H2107 0.930 . S
C2116 C2114 1.378 . S
C2116 C2117 1.367 . S
C2117 C2116 1.367 . S
C2117 C2119 1.433 . S
C2118 C2114 1.350 . S
C2118 C2115 1.463 . S
C2118 N2122 1.427 . S
C2119 H2109 0.929 . S
C2119 C2117 1.433 . S
C2119 N2122 1.384 . S
C2120 H2111 0.929 . S
C2120 C2112 1.378 . S
C2120 C2115 1.350 . S
C2121 H2108 0.929 . S
C2121 C2113 1.433 . S
C2121 N2123 1.384 . S
N2122 C2118 1.427 . S
N2122 C2119 1.384 . S
N2123 C2115 1.427 . S
N2123 C2121 1.384 . S
H2124 C2130 0.930 . S
H2125 C2134 0.930 . S
H2126 C2139 0.929 . S
H2127 C2137 0.929 . S
H2128 C2132 0.929 . S
H2129 C2138 0.929 . S
C2130 H2124 0.930 . S
C2130 C2131 1.367 . S
C2130 C2138 1.378 . S
C2131 C2130 1.367 . S
C2131 C2139 1.433 . S
C2132 H2128 0.929 . S
C2132 C2134 1.378 . S
C2132 C2136 1.350 . S
C2133 C2136 1.463 . S
C2133 C2138 1.350 . S
C2133 N2141 1.427 . S
C2134 H2125 0.930 . S
C2134 C2132 1.378 . S
C2134 C2135 1.367 . S
C2135 C2134 1.367 . S
C2135 C2137 1.433 . S
C2136 C2132 1.350 . S
C2136 C2133 1.463 . S
C2136 N2140 1.427 . S
C2137 H2127 0.929 . S
C2137 C2135 1.433 . S
C2137 N2140 1.384 . S
C2138 H2129 0.929 . S
C2138 C2130 1.378 . S
C2138 C2133 1.350 . S
C2139 H2126 0.929 . S
C2139 C2131 1.433 . S
C2139 N2141 1.384 . S
N2140 C2136 1.427 . S
N2140 C2137 1.384 . S
N2141 C2133 1.427 . S
N2141 C2139 1.384 . S
H2142 C2148 0.930 . S
H2143 C2152 0.930 . S
H2144 C2157 0.929 . S
H2145 C2155 0.929 . S
H2146 C2150 0.929 . S
H2147 C2156 0.929 . S
C2148 H2142 0.930 . S
C2148 C2149 1.367 . S
C2148 C2156 1.378 . S
C2149 C2148 1.367 . S
C2149 C2157 1.433 . S
C2150 H2146 0.929 . S
C2150 C2152 1.378 . S
C2150 C2154 1.350 . S
C2151 C2154 1.463 . S
C2151 C2156 1.350 . S
C2151 N2159 1.427 . S
C2152 H2143 0.930 . S
C2152 C2150 1.378 . S
C2152 C2153 1.367 . S
C2153 C2152 1.367 . S
C2153 C2155 1.433 . S
C2154 C2150 1.350 . S
C2154 C2151 1.463 . S
C2154 N2158 1.427 . S
C2155 H2145 0.929 . S
C2155 C2153 1.433 . S
C2155 N2158 1.384 . S
C2156 H2147 0.929 . S
C2156 C2148 1.378 . S
C2156 C2151 1.350 . S
C2157 H2144 0.929 . S
C2157 C2149 1.433 . S
C2157 N2159 1.384 . S
N2158 C2154 1.427 . S
N2158 C2155 1.384 . S
N2159 C2151 1.427 . S
N2159 C2157 1.384 . S
H2160 C2166 0.930 . S
H2161 C2170 0.930 . S
H2162 C2175 0.929 . S
H2163 C2173 0.929 . S
H2164 C2168 0.929 . S
H2165 C2174 0.929 . S
C2166 H2160 0.930 . S
C2166 C2167 1.367 . S
C2166 C2174 1.378 . S
C2167 C2166 1.367 . S
C2167 C2175 1.433 . S
C2168 H2164 0.929 . S
C2168 C2170 1.378 . S
C2168 C2172 1.350 . S
C2169 C2172 1.463 . S
C2169 C2174 1.350 . S
C2169 N2177 1.427 . S
C2170 H2161 0.930 . S
C2170 C2168 1.378 . S
C2170 C2171 1.367 . S
C2171 C2170 1.367 . S
C2171 C2173 1.433 . S
C2172 C2168 1.350 . S
C2172 C2169 1.463 . S
C2172 N2176 1.427 . S
C2173 H2163 0.929 . S
C2173 C2171 1.433 . S
C2173 N2176 1.384 . S
C2174 H2165 0.929 . S
C2174 C2166 1.378 . S
C2174 C2169 1.350 . S
C2175 H2162 0.929 . S
C2175 C2167 1.433 . S
C2175 N2177 1.384 . S
N2176 C2172 1.427 . S
N2176 C2173 1.384 . S
N2177 C2169 1.427 . S
N2177 C2175 1.384 . S
H2178 C2184 0.930 . S
H2179 C2188 0.930 . S
H2180 C2193 0.929 . S
H2181 C2191 0.929 . S
H2182 C2186 0.929 . S
H2183 C2192 0.929 . S
C2184 H2178 0.930 . S
C2184 C2185 1.367 . S
C2184 C2192 1.378 . S
C2185 C2184 1.367 . S
C2185 C2193 1.433 . S
C2186 H2182 0.929 . S
C2186 C2188 1.378 . S
C2186 C2190 1.350 . S
C2187 C2190 1.463 . S
C2187 C2192 1.350 . S
C2187 N2195 1.427 . S
C2188 H2179 0.930 . S
C2188 C2186 1.378 . S
C2188 C2189 1.367 . S
C2189 C2188 1.367 . S
C2189 C2191 1.433 . S
C2190 C2186 1.350 . S
C2190 C2187 1.463 . S
C2190 N2194 1.427 . S
C2191 H2181 0.929 . S
C2191 C2189 1.433 . S
C2191 N2194 1.384 . S
C2192 H2183 0.929 . S
C2192 C2184 1.378 . S
C2192 C2187 1.350 . S
C2193 H2180 0.929 . S
C2193 C2185 1.433 . S
C2193 N2195 1.384 . S
N2194 C2190 1.427 . S
N2194 C2191 1.384 . S
N2195 C2187 1.427 . S
N2195 C2193 1.384 . S
H2196 C2202 0.930 . S
H2197 C2206 0.930 . S
H2198 C2211 0.929 . S
H2199 C2209 0.929 . S
H2200 C2204 0.929 . S
H2201 C2210 0.929 . S
C2202 H2196 0.930 . S
C2202 C2203 1.367 . S
C2202 C2210 1.378 . S
C2203 C2202 1.367 . S
C2203 C2211 1.433 . S
C2204 H2200 0.929 . S
C2204 C2206 1.378 . S
C2204 C2208 1.350 . S
C2205 C2208 1.463 . S
C2205 C2210 1.350 . S
C2205 N2213 1.427 . S
C2206 H2197 0.930 . S
C2206 C2204 1.378 . S
C2206 C2207 1.367 . S
C2207 C2206 1.367 . S
C2207 C2209 1.433 . S
C2208 C2204 1.350 . S
C2208 C2205 1.463 . S
C2208 N2212 1.427 . S
C2209 H2199 0.929 . S
C2209 C2207 1.433 . S
C2209 N2212 1.384 . S
C2210 H2201 0.929 . S
C2210 C2202 1.378 . S
C2210 C2205 1.350 . S
C2211 H2198 0.929 . S
C2211 C2203 1.433 . S
C2211 N2213 1.384 . S
N2212 C2208 1.427 . S
N2212 C2209 1.384 . S
N2213 C2205 1.427 . S
N2213 C2211 1.384 . S
H2214 C2220 0.930 . S
H2215 C2224 0.930 . S
H2216 C2229 0.929 . S
H2217 C2227 0.929 . S
H2218 C2222 0.929 . S
H2219 C2228 0.929 . S
C2220 H2214 0.930 . S
C2220 C2221 1.367 . S
C2220 C2228 1.378 . S
C2221 C2220 1.367 . S
C2221 C2229 1.433 . S
C2222 H2218 0.929 . S
C2222 C2224 1.378 . S
C2222 C2226 1.350 . S
C2223 C2226 1.463 . S
C2223 C2228 1.350 . S
C2223 N2231 1.427 . S
C2224 H2215 0.930 . S
C2224 C2222 1.378 . S
C2224 C2225 1.367 . S
C2225 C2224 1.367 . S
C2225 C2227 1.433 . S
C2226 C2222 1.350 . S
C2226 C2223 1.463 . S
C2226 N2230 1.427 . S
C2227 H2217 0.929 . S
C2227 C2225 1.433 . S
C2227 N2230 1.384 . S
C2228 H2219 0.929 . S
C2228 C2220 1.378 . S
C2228 C2223 1.350 . S
C2229 H2216 0.929 . S
C2229 C2221 1.433 . S
C2229 N2231 1.384 . S
N2230 C2226 1.427 . S
N2230 C2227 1.384 . S
N2231 C2223 1.427 . S
N2231 C2229 1.384 . S
H2232 C2238 0.930 . S
H2233 C2242 0.930 . S
H2234 C2247 0.929 . S
H2235 C2245 0.929 . S
H2236 C2240 0.929 . S
H2237 C2246 0.929 . S
C2238 H2232 0.930 . S
C2238 C2239 1.367 . S
C2238 C2246 1.378 . S
C2239 C2238 1.367 . S
C2239 C2247 1.433 . S
C2240 H2236 0.929 . S
C2240 C2242 1.378 . S
C2240 C2244 1.350 . S
C2241 C2244 1.463 . S
C2241 C2246 1.350 . S
C2241 N2249 1.427 . S
C2242 H2233 0.930 . S
C2242 C2240 1.378 . S
C2242 C2243 1.367 . S
C2243 C2242 1.367 . S
C2243 C2245 1.433 . S
C2244 C2240 1.350 . S
C2244 C2241 1.463 . S
C2244 N2248 1.427 . S
C2245 H2235 0.929 . S
C2245 C2243 1.433 . S
C2245 N2248 1.384 . S
C2246 H2237 0.929 . S
C2246 C2238 1.378 . S
C2246 C2241 1.350 . S
C2247 H2234 0.929 . S
C2247 C2239 1.433 . S
C2247 N2249 1.384 . S
N2248 C2244 1.427 . S
N2248 C2245 1.384 . S
N2249 C2241 1.427 . S
N2249 C2247 1.384 . S
H2250 C2256 0.930 . S
H2251 C2260 0.930 . S
H2252 C2265 0.929 . S
H2253 C2263 0.929 . S
H2254 C2258 0.929 . S
H2255 C2264 0.929 . S
C2256 H2250 0.930 . S
C2256 C2257 1.367 . S
C2256 C2264 1.378 . S
C2257 C2256 1.367 . S
C2257 C2265 1.433 . S
C2258 H2254 0.929 . S
C2258 C2260 1.378 . S
C2258 C2262 1.350 . S
C2259 C2262 1.463 . S
C2259 C2264 1.350 . S
C2259 N2267 1.427 . S
C2260 H2251 0.930 . S
C2260 C2258 1.378 . S
C2260 C2261 1.367 . S
C2261 C2260 1.367 . S
C2261 C2263 1.433 . S
C2262 C2258 1.350 . S
C2262 C2259 1.463 . S
C2262 N2266 1.427 . S
C2263 H2253 0.929 . S
C2263 C2261 1.433 . S
C2263 N2266 1.384 . S
C2264 H2255 0.929 . S
C2264 C2256 1.378 . S
C2264 C2259 1.350 . S
C2265 H2252 0.929 . S
C2265 C2257 1.433 . S
C2265 N2267 1.384 . S
N2266 C2262 1.427 . S
N2266 C2263 1.384 . S
N2267 C2259 1.427 . S
N2267 C2265 1.384 . S
H2268 C2274 0.930 . S
H2269 C2278 0.930 . S
H2270 C2283 0.929 . S
H2271 C2281 0.929 . S
H2272 C2276 0.929 . S
H2273 C2282 0.929 . S
C2274 H2268 0.930 . S
C2274 C2275 1.367 . S
C2274 C2282 1.378 . S
C2275 C2274 1.367 . S
C2275 C2283 1.433 . S
C2276 H2272 0.929 . S
C2276 C2278 1.378 . S
C2276 C2280 1.350 . S
C2277 C2280 1.463 . S
C2277 C2282 1.350 . S
C2277 N2285 1.427 . S
C2278 H2269 0.930 . S
C2278 C2276 1.378 . S
C2278 C2279 1.367 . S
C2279 C2278 1.367 . S
C2279 C2281 1.433 . S
C2280 C2276 1.350 . S
C2280 C2277 1.463 . S
C2280 N2284 1.427 . S
C2281 H2271 0.929 . S
C2281 C2279 1.433 . S
C2281 N2284 1.384 . S
C2282 H2273 0.929 . S
C2282 C2274 1.378 . S
C2282 C2277 1.350 . S
C2283 H2270 0.929 . S
C2283 C2275 1.433 . S
C2283 N2285 1.384 . S
N2284 C2280 1.427 . S
N2284 C2281 1.384 . S
N2285 C2277 1.427 . S
N2285 C2283 1.384 . S
H2286 C2292 0.930 1_554 S
H2287 C2296 0.930 . S
H2288 C2301 0.929 . S
H2289 C2299 0.929 . S
H2290 C2294 0.929 . S
H2291 C2300 0.929 . S
C2292 H2286 0.930 1_556 S
C2292 C2293 1.367 . S
C2292 C2300 1.378 . S
C2293 C2292 1.367 . S
C2293 C2301 1.433 . S
C2294 H2290 0.929 . S
C2294 C2296 1.378 . S
C2294 C2298 1.350 . S
C2295 C2298 1.463 . S
C2295 C2300 1.350 . S
C2295 N2303 1.427 . S
C2296 H2287 0.930 . S
C2296 C2294 1.378 . S
C2296 C2297 1.367 . S
C2297 C2296 1.367 . S
C2297 C2299 1.433 . S
C2298 C2294 1.350 . S
C2298 C2295 1.463 . S
C2298 N2302 1.427 . S
C2299 H2289 0.929 . S
C2299 C2297 1.433 . S
C2299 N2302 1.384 . S
C2300 H2291 0.929 . S
C2300 C2292 1.378 . S
C2300 C2295 1.350 . S
C2301 H2288 0.929 . S
C2301 C2293 1.433 . S
C2301 N2303 1.384 . S
N2302 C2298 1.427 . S
N2302 C2299 1.384 . S
N2303 C2295 1.427 . S
N2303 C2301 1.384 . S
H2304 C2310 0.931 . S
H2305 C2314 0.930 . S
H2306 C2319 0.929 . S
H2307 C2317 0.929 . S
H2308 C2312 0.929 . S
H2309 C2318 0.929 . S
C2310 H2304 0.931 . S
C2310 C2311 1.366 1_554 S
C2310 C2318 1.377 1_554 S
C2311 C2310 1.366 1_556 S
C2311 C2319 1.433 . S
C2312 H2308 0.929 . S
C2312 C2314 1.378 . S
C2312 C2316 1.350 . S
C2313 C2316 1.463 . S
C2313 C2318 1.350 . S
C2313 N2321 1.427 . S
C2314 H2305 0.930 . S
C2314 C2312 1.378 . S
C2314 C2315 1.367 . S
C2315 C2314 1.367 . S
C2315 C2317 1.433 . S
C2316 C2312 1.350 . S
C2316 C2313 1.463 . S
C2316 N2320 1.427 . S
C2317 H2307 0.929 . S
C2317 C2315 1.433 . S
C2317 N2320 1.384 . S
C2318 H2309 0.929 . S
C2318 C2310 1.377 1_556 S
C2318 C2313 1.350 . S
C2319 H2306 0.929 . S
C2319 C2311 1.433 . S
C2319 N2321 1.384 . S
N2320 C2316 1.427 . S
N2320 C2317 1.384 . S
N2321 C2313 1.427 . S
N2321 C2319 1.384 . S
H2322 C2328 0.930 . S
H2323 C2332 0.930 1_554 S
H2324 C2337 0.929 . S
H2325 C2335 0.929 . S
H2326 C2330 0.929 . S
H2327 C2336 0.929 1_556 S
C2328 H2322 0.930 . S
C2328 C2329 1.367 . S
C2328 C2336 1.378 . S
C2329 C2328 1.367 . S
C2329 C2337 1.433 . S
C2330 H2326 0.929 . S
C2330 C2332 1.378 1_554 S
C2330 C2334 1.350 . S
C2331 C2334 1.463 . S
C2331 C2336 1.350 . S
C2331 N2339 1.427 . S
C2332 H2323 0.930 1_556 S
C2332 C2330 1.378 1_556 S
C2332 C2333 1.367 . S
C2333 C2332 1.367 . S
C2333 C2335 1.433 . S
C2334 C2330 1.350 . S
C2334 C2331 1.463 . S
C2334 N2338 1.427 1_554 S
C2335 H2325 0.929 . S
C2335 C2333 1.433 . S
C2335 N2338 1.384 . S
C2336 H2327 0.929 1_554 S
C2336 C2328 1.378 . S
C2336 C2331 1.350 . S
C2337 H2324 0.929 . S
C2337 C2329 1.433 . S
C2337 N2339 1.384 . S
N2338 C2334 1.427 1_556 S
N2338 C2335 1.384 . S
N2339 C2331 1.427 . S
N2339 C2337 1.384 . S
H2340 C2346 0.930 . S
H2341 C2350 0.930 . S
H2342 C2355 0.929 . S
H2343 C2353 0.929 . S
H2344 C2348 0.929 . S
H2345 C2354 0.932 . S
C2346 H2340 0.930 . S
C2346 C2347 1.367 . S
C2346 C2354 1.393 . S
C2347 C2346 1.367 . S
C2347 C2355 1.433 1_554 S
C2348 H2344 0.929 . S
C2348 C2350 1.378 . S
C2348 C2352 1.350 . S
C2349 C2352 1.463 . S
C2349 C2354 1.332 1_556 S
C2349 N2357 1.427 . S
C2350 H2341 0.930 . S
C2350 C2348 1.378 . S
C2350 C2351 1.367 . S
C2351 C2350 1.367 . S
C2351 C2353 1.433 . S
C2352 C2348 1.350 . S
C2352 C2349 1.463 . S
C2352 N2356 1.427 . S
C2353 H2343 0.929 . S
C2353 C2351 1.433 . S
C2353 N2356 1.384 . S
C2354 H2345 0.932 . S
C2354 C2346 1.393 . S
C2354 C2349 1.332 1_554 S
C2355 H2342 0.929 . S
C2355 C2347 1.433 1_556 S
C2355 N2357 1.384 . S
N2356 C2352 1.427 . S
N2356 C2353 1.384 . S
N2357 C2349 1.427 . S
N2357 C2355 1.384 . S
H2358 C2364 0.930 . S
H2359 C2368 0.930 . S
H2360 C2373 0.929 . S
H2361 C2371 0.929 . S
H2362 C2366 0.929 . S
H2363 C2372 0.929 . S
C2364 H2358 0.930 . S
C2364 C2365 1.367 . S
C2364 C2372 1.378 . S
C2365 C2364 1.367 . S
C2365 C2373 1.433 . S
C2366 H2362 0.929 . S
C2366 C2368 1.378 . S
C2366 C2370 1.350 . S
C2367 C2370 1.463 . S
C2367 C2372 1.350 . S
C2367 N2375 1.427 . S
C2368 H2359 0.930 . S
C2368 C2366 1.378 . S
C2368 C2369 1.367 . S
C2369 C2368 1.367 . S
C2369 C2371 1.433 . S
C2370 C2366 1.350 . S
C2370 C2367 1.463 . S
C2370 N2374 1.427 . S
C2371 H2361 0.929 . S
C2371 C2369 1.433 . S
C2371 N2374 1.384 . S
C2372 H2363 0.929 . S
C2372 C2364 1.378 . S
C2372 C2367 1.350 . S
C2373 H2360 0.929 . S
C2373 C2365 1.433 . S
C2373 N2375 1.384 . S
N2374 C2370 1.427 . S
N2374 C2371 1.384 . S
N2375 C2367 1.427 . S
N2375 C2373 1.384 . S
H2376 C2382 0.930 1_556 S
H2377 C2386 0.930 . S
H2378 C2391 0.929 . S
H2379 C2389 0.929 . S
H2380 C2384 0.929 1_554 S
H2381 C2390 0.929 . S
C2382 H2376 0.930 1_554 S
C2382 C2383 1.367 . S
C2382 C2390 1.378 1_554 S
C2383 C2382 1.367 . S
C2383 C2391 1.433 . S
C2384 H2380 0.929 1_556 S
C2384 C2386 1.378 . S
C2384 C2388 1.350 . S
C2385 C2388 1.463 . S
C2385 C2390 1.350 . S
C2385 N2393 1.427 1_556 S
C2386 H2377 0.930 . S
C2386 C2384 1.378 . S
C2386 C2387 1.367 . S
C2387 C2386 1.367 . S
C2387 C2389 1.433 . S
C2388 C2384 1.350 . S
C2388 C2385 1.463 . S
C2388 N2392 1.427 . S
C2389 H2379 0.929 . S
C2389 C2387 1.433 . S
C2389 N2392 1.384 . S
C2390 H2381 0.929 . S
C2390 C2382 1.378 1_556 S
C2390 C2385 1.350 . S
C2391 H2378 0.929 . S
C2391 C2383 1.433 . S
C2391 N2393 1.384 . S
N2392 C2388 1.427 . S
N2392 C2389 1.384 . S
N2393 C2385 1.427 1_554 S
N2393 C2391 1.384 . S
H2394 C2400 0.930 . S
H2395 C2404 0.930 . S
H2396 C2409 0.929 . S
H2397 C2407 0.929 . S
H2398 C2402 0.929 . S
H2399 C2408 0.929 . S
C2400 H2394 0.930 . S
C2400 C2401 1.367 . S
C2400 C2408 1.378 . S
C2401 C2400 1.367 . S
C2401 C2409 1.433 . S
C2402 H2398 0.929 . S
C2402 C2404 1.378 . S
C2402 C2406 1.350 . S
C2403 C2406 1.463 . S
C2403 C2408 1.350 . S
C2403 N2411 1.427 . S
C2404 H2395 0.930 . S
C2404 C2402 1.378 . S
C2404 C2405 1.367 . S
C2405 C2404 1.367 . S
C2405 C2407 1.433 . S
C2406 C2402 1.350 . S
C2406 C2403 1.463 . S
C2406 N2410 1.427 . S
C2407 H2397 0.929 . S
C2407 C2405 1.433 . S
C2407 N2410 1.384 . S
C2408 H2399 0.929 . S
C2408 C2400 1.378 . S
C2408 C2403 1.350 . S
C2409 H2396 0.929 . S
C2409 C2401 1.433 . S
C2409 N2411 1.384 . S
N2410 C2406 1.427 . S
N2410 C2407 1.384 . S
N2411 C2403 1.427 . S
N2411 C2409 1.384 . S
H2412 C2418 0.930 . S
H2413 C2422 0.930 . S
H2414 C2427 0.929 . S
H2415 C2425 0.929 . S
H2416 C2420 0.929 . S
H2417 C2426 0.929 . S
C2418 H2412 0.930 . S
C2418 C2419 1.367 . S
C2418 C2426 1.378 . S
C2419 C2418 1.367 . S
C2419 C2427 1.433 . S
C2420 H2416 0.929 . S
C2420 C2422 1.378 . S
C2420 C2424 1.350 . S
C2421 C2424 1.463 . S
C2421 C2426 1.350 . S
C2421 N2429 1.427 . S
C2422 H2413 0.930 . S
C2422 C2420 1.378 . S
C2422 C2423 1.367 . S
C2423 C2422 1.367 . S
C2423 C2425 1.433 . S
C2424 C2420 1.350 . S
C2424 C2421 1.463 . S
C2424 N2428 1.427 . S
C2425 H2415 0.929 . S
C2425 C2423 1.433 . S
C2425 N2428 1.384 . S
C2426 H2417 0.929 . S
C2426 C2418 1.378 . S
C2426 C2421 1.350 . S
C2427 H2414 0.929 . S
C2427 C2419 1.433 . S
C2427 N2429 1.384 . S
N2428 C2424 1.427 . S
N2428 C2425 1.384 . S
N2429 C2421 1.427 . S
N2429 C2427 1.384 . S
H2430 C2436 0.930 . S
H2431 C2440 0.930 . S
H2432 C2445 0.929 . S
H2433 C2443 0.929 . S
H2434 C2438 0.929 . S
H2435 C2444 0.929 . S
C2436 H2430 0.930 . S
C2436 C2437 1.367 . S
C2436 C2444 1.378 . S
C2437 C2436 1.367 . S
C2437 C2445 1.433 . S
C2438 H2434 0.929 . S
C2438 C2440 1.378 . S
C2438 C2442 1.350 . S
C2439 C2442 1.463 . S
C2439 C2444 1.350 . S
C2439 N2447 1.427 . S
C2440 H2431 0.930 . S
C2440 C2438 1.378 . S
C2440 C2441 1.367 . S
C2441 C2440 1.367 . S
C2441 C2443 1.433 . S
C2442 C2438 1.350 . S
C2442 C2439 1.463 . S
C2442 N2446 1.427 . S
C2443 H2433 0.929 . S
C2443 C2441 1.433 . S
C2443 N2446 1.384 . S
C2444 H2435 0.929 . S
C2444 C2436 1.378 . S
C2444 C2439 1.350 . S
C2445 H2432 0.929 . S
C2445 C2437 1.433 . S
C2445 N2447 1.384 . S
N2446 C2442 1.427 . S
N2446 C2443 1.384 . S
N2447 C2439 1.427 . S
N2447 C2445 1.384 . S
H2448 C2454 0.930 . S
H2449 C2458 0.930 . S
H2450 C2463 0.929 . S
H2451 C2461 0.929 . S
H2452 C2456 0.929 . S
H2453 C2462 0.929 . S
C2454 H2448 0.930 . S
C2454 C2455 1.367 . S
C2454 C2462 1.378 . S
C2455 C2454 1.367 . S
C2455 C2463 1.433 . S
C2456 H2452 0.929 . S
C2456 C2458 1.378 . S
C2456 C2460 1.350 . S
C2457 C2460 1.463 . S
C2457 C2462 1.350 . S
C2457 N2465 1.427 . S
C2458 H2449 0.930 . S
C2458 C2456 1.378 . S
C2458 C2459 1.367 . S
C2459 C2458 1.367 . S
C2459 C2461 1.433 . S
C2460 C2456 1.350 . S
C2460 C2457 1.463 . S
C2460 N2464 1.427 . S
C2461 H2451 0.929 . S
C2461 C2459 1.433 . S
C2461 N2464 1.384 . S
C2462 H2453 0.929 . S
C2462 C2454 1.378 . S
C2462 C2457 1.350 . S
C2463 H2450 0.929 . S
C2463 C2455 1.433 . S
C2463 N2465 1.384 . S
N2464 C2460 1.427 . S
N2464 C2461 1.384 . S
N2465 C2457 1.427 . S
N2465 C2463 1.384 . S
H2466 C2472 0.930 . S
H2467 C2476 0.930 . S
H2468 C2481 0.929 . S
H2469 C2479 0.929 . S
H2470 C2474 0.929 . S
H2471 C2480 0.929 . S
C2472 H2466 0.930 . S
C2472 C2473 1.367 . S
C2472 C2480 1.378 . S
C2473 C2472 1.367 . S
C2473 C2481 1.433 . S
C2474 H2470 0.929 . S
C2474 C2476 1.378 . S
C2474 C2478 1.350 . S
C2475 C2478 1.463 . S
C2475 C2480 1.350 . S
C2475 N2483 1.427 . S
C2476 H2467 0.930 . S
C2476 C2474 1.378 . S
C2476 C2477 1.367 . S
C2477 C2476 1.367 . S
C2477 C2479 1.433 . S
C2478 C2474 1.350 . S
C2478 C2475 1.463 . S
C2478 N2482 1.427 . S
C2479 H2469 0.929 . S
C2479 C2477 1.433 . S
C2479 N2482 1.384 . S
C2480 H2471 0.929 . S
C2480 C2472 1.378 . S
C2480 C2475 1.350 . S
C2481 H2468 0.929 . S
C2481 C2473 1.433 . S
C2481 N2483 1.384 . S
N2482 C2478 1.427 . S
N2482 C2479 1.384 . S
N2483 C2475 1.427 . S
N2483 C2481 1.384 . S
H2484 C2490 0.930 . S
H2485 C2494 0.930 . S
H2486 C2499 0.929 . S
H2487 C2497 0.929 . S
H2488 C2492 0.929 . S
H2489 C2498 0.929 . S
C2490 H2484 0.930 . S
C2490 C2491 1.343 1_655 S
C2490 C2498 1.378 . S
C2491 C2490 1.343 1_455 S
C2491 C2499 1.435 . S
C2492 H2488 0.929 . S
C2492 C2494 1.378 . S
C2492 C2496 1.350 . S
C2493 C2496 1.463 . S
C2493 C2498 1.350 . S
C2493 N2501 1.427 . S
C2494 H2485 0.930 . S
C2494 C2492 1.378 . S
C2494 C2495 1.367 . S
C2495 C2494 1.367 . S
C2495 C2497 1.433 . S
C2496 C2492 1.350 . S
C2496 C2493 1.463 . S
C2496 N2500 1.427 . S
C2497 H2487 0.929 . S
C2497 C2495 1.433 . S
C2497 N2500 1.384 . S
C2498 H2489 0.929 . S
C2498 C2490 1.378 . S
C2498 C2493 1.350 . S
C2499 H2486 0.929 . S
C2499 C2491 1.435 . S
C2499 N2501 1.384 1_455 S
N2500 C2496 1.427 . S
N2500 C2497 1.384 . S
N2501 C2493 1.427 . S
N2501 C2499 1.384 1_655 S
H2502 C2508 0.930 . S
H2503 C2512 0.930 . S
H2504 C2517 0.929 . S
H2505 C2515 0.929 . S
H2506 C2510 0.929 . S
H2507 C2516 0.929 . S
C2508 H2502 0.930 . S
C2508 C2509 1.367 . S
C2508 C2516 1.378 . S
C2509 C2508 1.367 . S
C2509 C2517 1.433 . S
C2510 H2506 0.929 . S
C2510 C2512 1.378 . S
C2510 C2514 1.350 . S
C2511 C2514 1.463 . S
C2511 C2516 1.350 . S
C2511 N2519 1.427 . S
C2512 H2503 0.930 . S
C2512 C2510 1.378 . S
C2512 C2513 1.367 . S
C2513 C2512 1.367 . S
C2513 C2515 1.433 . S
C2514 C2510 1.350 . S
C2514 C2511 1.463 . S
C2514 N2518 1.427 . S
C2515 H2505 0.929 . S
C2515 C2513 1.433 . S
C2515 N2518 1.384 . S
C2516 H2507 0.929 . S
C2516 C2508 1.378 . S
C2516 C2511 1.350 . S
C2517 H2504 0.929 . S
C2517 C2509 1.433 . S
C2517 N2519 1.384 . S
N2518 C2514 1.427 . S
N2518 C2515 1.384 . S
N2519 C2511 1.427 . S
N2519 C2517 1.384 . S
H2520 C2526 0.930 . S
H2521 C2530 0.930 . S
H2522 C2535 0.929 . S
H2523 C2533 0.929 . S
H2524 C2528 0.929 . S
H2525 C2534 0.929 . S
C2526 H2520 0.930 . S
C2526 C2527 1.367 . S
C2526 C2534 1.378 . S
C2527 C2526 1.367 . S
C2527 C2535 1.433 . S
C2528 H2524 0.929 . S
C2528 C2530 1.378 . S
C2528 C2532 1.350 . S
C2529 C2532 1.463 . S
C2529 C2534 1.350 . S
C2529 N2537 1.427 . S
C2530 H2521 0.930 . S
C2530 C2528 1.378 . S
C2530 C2531 1.367 . S
C2531 C2530 1.367 . S
C2531 C2533 1.433 . S
C2532 C2528 1.350 . S
C2532 C2529 1.463 . S
C2532 N2536 1.427 . S
C2533 H2523 0.929 . S
C2533 C2531 1.433 . S
C2533 N2536 1.384 . S
C2534 H2525 0.929 . S
C2534 C2526 1.378 . S
C2534 C2529 1.350 . S
C2535 H2522 0.929 . S
C2535 C2527 1.433 . S
C2535 N2537 1.384 . S
N2536 C2532 1.427 . S
N2536 C2533 1.384 . S
N2537 C2529 1.427 . S
N2537 C2535 1.384 . S
H2538 C2544 0.930 . S
H2539 C2548 0.930 1_545 S
H2540 C2553 0.927 . S
H2541 C2551 0.929 . S
H2542 C2546 0.929 1_545 S
H2543 C2552 0.929 . S
C2544 H2538 0.930 . S
C2544 C2545 1.367 . S
C2544 C2552 1.378 . S
C2545 C2544 1.367 . S
C2545 C2553 1.433 . S
C2546 H2542 0.929 1_565 S
C2546 C2548 1.378 . S
C2546 C2550 1.350 . S
C2547 C2550 1.463 . S
C2547 C2552 1.350 . S
C2547 N2555 1.427 . S
C2548 H2539 0.930 1_565 S
C2548 C2546 1.378 . S
C2548 C2549 1.367 . S
C2549 C2548 1.367 . S
C2549 C2551 1.433 . S
C2550 C2546 1.350 . S
C2550 C2547 1.463 . S
C2550 N2554 1.427 . S
C2551 H2541 0.929 . S
C2551 C2549 1.433 . S
C2551 N2554 1.384 . S
C2552 H2543 0.929 . S
C2552 C2544 1.378 . S
C2552 C2547 1.350 . S
C2553 H2540 0.927 . S
C2553 C2545 1.433 . S
C2553 N2555 1.384 . S
N2554 C2550 1.427 . S
N2554 C2551 1.384 . S
N2555 C2547 1.427 . S
N2555 C2553 1.384 . S
H2556 C2562 0.930 . S
H2557 C2566 0.930 . S
H2558 C2571 0.929 . S
H2559 C2569 0.929 . S
H2560 C2564 0.929 . S
H2561 C2570 0.929 1_545 S
C2562 H2556 0.930 . S
C2562 C2563 1.367 . S
C2562 C2570 1.378 . S
C2563 C2562 1.367 . S
C2563 C2571 1.433 . S
C2564 H2560 0.929 . S
C2564 C2566 1.378 . S
C2564 C2568 1.350 . S
C2565 C2568 1.463 . S
C2565 C2570 1.350 . S
C2565 N2573 1.427 . S
C2566 H2557 0.930 . S
C2566 C2564 1.378 . S
C2566 C2567 1.402 . S
C2567 C2566 1.402 . S
C2567 C2569 1.435 1_565 S
C2568 C2564 1.350 . S
C2568 C2565 1.463 . S
C2568 N2572 1.427 1_565 S
C2569 H2559 0.929 . S
C2569 C2567 1.435 1_545 S
C2569 N2572 1.384 . S
C2570 H2561 0.929 1_565 S
C2570 C2562 1.378 . S
C2570 C2565 1.350 . S
C2571 H2558 0.929 . S
C2571 C2563 1.433 . S
C2571 N2573 1.384 . S
N2572 C2568 1.427 1_545 S
N2572 C2569 1.384 . S
N2573 C2565 1.427 . S
N2573 C2571 1.384 . S
H2574 C2580 0.930 . S
H2575 C2584 0.930 . S
H2576 C2589 0.929 . S
H2577 C2587 0.929 . S
H2578 C2582 0.929 . S
H2579 C2588 0.929 . S
C2580 H2574 0.930 . S
C2580 C2581 1.367 . S
C2580 C2588 1.378 . S
C2581 C2580 1.367 . S
C2581 C2589 1.433 . S
C2582 H2578 0.929 . S
C2582 C2584 1.378 . S
C2582 C2586 1.350 . S
C2583 C2586 1.463 . S
C2583 C2588 1.350 . S
C2583 N2591 1.427 . S
C2584 H2575 0.930 . S
C2584 C2582 1.378 . S
C2584 C2585 1.371 1_455 S
C2585 C2584 1.371 1_655 S
C2585 C2587 1.439 . S
C2586 C2582 1.350 . S
C2586 C2583 1.463 . S
C2586 N2590 1.427 . S
C2587 H2577 0.929 . S
C2587 C2585 1.439 . S
C2587 N2590 1.384 1_655 S
C2588 H2579 0.929 . S
C2588 C2580 1.378 . S
C2588 C2583 1.350 . S
C2589 H2576 0.929 . S
C2589 C2581 1.433 . S
C2589 N2591 1.384 . S
N2590 C2586 1.427 . S
N2590 C2587 1.384 1_455 S
N2591 C2583 1.427 . S
N2591 C2589 1.384 . S
H2592 C2598 0.930 . S
H2593 C2602 0.930 . S
H2594 C2607 0.929 . S
H2595 C2605 0.929 . S
H2596 C2600 0.929 . S
H2597 C2606 0.929 . S
C2598 H2592 0.930 . S
C2598 C2599 1.367 . S
C2598 C2606 1.378 . S
C2599 C2598 1.367 . S
C2599 C2607 1.433 . S
C2600 H2596 0.929 . S
C2600 C2602 1.378 . S
C2600 C2604 1.350 . S
C2601 C2604 1.463 . S
C2601 C2606 1.350 . S
C2601 N2609 1.427 . S
C2602 H2593 0.930 . S
C2602 C2600 1.378 . S
C2602 C2603 1.367 . S
C2603 C2602 1.367 . S
C2603 C2605 1.433 . S
C2604 C2600 1.350 . S
C2604 C2601 1.463 . S
C2604 N2608 1.427 . S
C2605 H2595 0.929 . S
C2605 C2603 1.433 . S
C2605 N2608 1.384 . S
C2606 H2597 0.929 . S
C2606 C2598 1.378 . S
C2606 C2601 1.350 . S
C2607 H2594 0.929 . S
C2607 C2599 1.433 . S
C2607 N2609 1.384 . S
N2608 C2604 1.427 . S
N2608 C2605 1.384 . S
N2609 C2601 1.427 . S
N2609 C2607 1.384 . S
H2610 C2616 0.930 . S
H2611 C2620 0.930 . S
H2612 C2625 0.929 . S
H2613 C2623 0.929 . S
H2614 C2618 0.929 . S
H2615 C2624 0.929 . S
C2616 H2610 0.930 . S
C2616 C2617 1.367 . S
C2616 C2624 1.378 . S
C2617 C2616 1.367 . S
C2617 C2625 1.433 . S
C2618 H2614 0.929 . S
C2618 C2620 1.378 . S
C2618 C2622 1.350 . S
C2619 C2622 1.463 . S
C2619 C2624 1.350 . S
C2619 N2627 1.427 . S
C2620 H2611 0.930 . S
C2620 C2618 1.378 . S
C2620 C2621 1.367 . S
C2621 C2620 1.367 . S
C2621 C2623 1.433 . S
C2622 C2618 1.350 . S
C2622 C2619 1.463 . S
C2622 N2626 1.427 . S
C2623 H2613 0.929 . S
C2623 C2621 1.433 . S
C2623 N2626 1.384 . S
C2624 H2615 0.929 . S
C2624 C2616 1.378 . S
C2624 C2619 1.350 . S
C2625 H2612 0.929 . S
C2625 C2617 1.433 . S
C2625 N2627 1.384 . S
N2626 C2622 1.427 . S
N2626 C2623 1.384 . S
N2627 C2619 1.427 . S
N2627 C2625 1.384 . S
H2628 C2634 0.930 . S
H2629 C2638 0.930 . S
H2630 C2643 0.929 . S
H2631 C2641 0.929 . S
H2632 C2636 0.929 . S
H2633 C2642 0.929 . S
C2634 H2628 0.930 . S
C2634 C2635 1.367 . S
C2634 C2642 1.378 . S
C2635 C2634 1.367 . S
C2635 C2643 1.433 . S
C2636 H2632 0.929 . S
C2636 C2638 1.378 . S
C2636 C2640 1.350 . S
C2637 C2640 1.463 . S
C2637 C2642 1.350 . S
C2637 N2645 1.427 . S
C2638 H2629 0.930 . S
C2638 C2636 1.378 . S
C2638 C2639 1.367 . S
C2639 C2638 1.367 . S
C2639 C2641 1.433 . S
C2640 C2636 1.350 . S
C2640 C2637 1.463 . S
C2640 N2644 1.427 . S
C2641 H2631 0.929 . S
C2641 C2639 1.433 . S
C2641 N2644 1.384 . S
C2642 H2633 0.929 . S
C2642 C2634 1.378 . S
C2642 C2637 1.350 . S
C2643 H2630 0.929 . S
C2643 C2635 1.433 . S
C2643 N2645 1.384 . S
N2644 C2640 1.427 . S
N2644 C2641 1.384 . S
N2645 C2637 1.427 . S
N2645 C2643 1.384 . S
H2646 C2652 0.930 . S
H2647 C2656 0.930 . S
H2648 C2661 0.929 . S
H2649 C2659 0.929 . S
H2650 C2654 0.929 . S
H2651 C2660 0.929 . S
C2652 H2646 0.930 . S
C2652 C2653 1.367 . S
C2652 C2660 1.378 . S
C2653 C2652 1.367 . S
C2653 C2661 1.433 . S
C2654 H2650 0.929 . S
C2654 C2656 1.378 . S
C2654 C2658 1.350 . S
C2655 C2658 1.463 . S
C2655 C2660 1.350 . S
C2655 N2663 1.427 . S
C2656 H2647 0.930 . S
C2656 C2654 1.378 . S
C2656 C2657 1.367 . S
C2657 C2656 1.367 . S
C2657 C2659 1.433 . S
C2658 C2654 1.350 . S
C2658 C2655 1.463 . S
C2658 N2662 1.427 . S
C2659 H2649 0.929 . S
C2659 C2657 1.433 . S
C2659 N2662 1.384 . S
C2660 H2651 0.929 . S
C2660 C2652 1.378 . S
C2660 C2655 1.350 . S
C2661 H2648 0.929 . S
C2661 C2653 1.433 . S
C2661 N2663 1.384 . S
N2662 C2658 1.427 . S
N2662 C2659 1.384 . S
N2663 C2655 1.427 . S
N2663 C2661 1.384 . S
H2664 C2670 0.930 1_565 S
H2665 C2674 0.930 . S
H2666 C2679 0.929 . S
H2667 C2677 0.929 . S
H2668 C2672 0.929 . S
H2669 C2678 0.929 1_565 S
C2670 H2664 0.930 1_545 S
C2670 C2671 1.367 . S
C2670 C2678 1.378 . S
C2671 C2670 1.367 . S
C2671 C2679 1.433 . S
C2672 H2668 0.929 . S
C2672 C2674 1.378 . S
C2672 C2676 1.350 . S
C2673 C2676 1.463 . S
C2673 C2678 1.350 . S
C2673 N2681 1.427 . S
C2674 H2665 0.930 . S
C2674 C2672 1.378 . S
C2674 C2675 1.367 . S
C2675 C2674 1.367 . S
C2675 C2677 1.433 1_545 S
C2676 C2672 1.350 . S
C2676 C2673 1.463 . S
C2676 N2680 1.481 . S
C2677 H2667 0.929 . S
C2677 C2675 1.433 1_565 S
C2677 N2680 1.355 1_565 S
C2678 H2669 0.929 1_545 S
C2678 C2670 1.378 . S
C2678 C2673 1.350 . S
C2679 H2666 0.929 . S
C2679 C2671 1.433 . S
C2679 N2681 1.384 . S
N2680 C2676 1.481 . S
N2680 C2677 1.355 1_545 S
N2681 C2673 1.427 . S
N2681 C2679 1.384 . S
H2682 C2688 0.930 . S
H2683 C2692 0.956 . S
H2684 C2697 0.929 1_455 S
H2685 C2695 0.929 . S
H2686 C2690 0.929 1_455 S
H2687 C2696 0.929 . S
C2688 H2682 0.930 . S
C2688 C2689 1.367 . S
C2688 C2696 1.378 . S
C2689 C2688 1.367 . S
C2689 C2697 1.433 . S
C2690 H2686 0.929 1_655 S
C2690 C2692 1.394 1_655 S
C2690 C2694 1.350 . S
C2691 C2694 1.463 . S
C2691 C2696 1.350 . S
C2691 N2699 1.427 . S
C2692 H2683 0.956 . S
C2692 C2690 1.394 1_455 S
C2692 C2693 1.326 1_455 S
C2693 C2692 1.326 1_655 S
C2693 C2695 1.433 . S
C2694 C2690 1.350 . S
C2694 C2691 1.463 . S
C2694 N2698 1.427 . S
C2695 H2685 0.929 . S
C2695 C2693 1.433 . S
C2695 N2698 1.384 . S
C2696 H2687 0.929 . S
C2696 C2688 1.378 . S
C2696 C2691 1.350 . S
C2697 H2684 0.929 1_655 S
C2697 C2689 1.433 . S
C2697 N2699 1.384 . S
N2698 C2694 1.427 . S
N2698 C2695 1.384 . S
N2699 C2691 1.427 . S
N2699 C2697 1.384 . S
H2700 C2706 0.930 . S
H2701 C2710 0.930 . S
H2702 C2715 0.929 . S
H2703 C2713 0.929 . S
H2704 C2708 0.929 . S
H2705 C2714 0.929 . S
C2706 H2700 0.930 . S
C2706 C2707 1.367 . S
C2706 C2714 1.378 . S
C2707 C2706 1.367 . S
C2707 C2715 1.433 . S
C2708 H2704 0.929 . S
C2708 C2710 1.378 . S
C2708 C2712 1.350 . S
C2709 C2712 1.463 . S
C2709 C2714 1.350 . S
C2709 N2717 1.427 . S
C2710 H2701 0.930 . S
C2710 C2708 1.378 . S
C2710 C2711 1.367 . S
C2711 C2710 1.367 . S
C2711 C2713 1.433 . S
C2712 C2708 1.350 . S
C2712 C2709 1.463 . S
C2712 N2716 1.427 . S
C2713 H2703 0.929 . S
C2713 C2711 1.433 . S
C2713 N2716 1.384 . S
C2714 H2705 0.929 . S
C2714 C2706 1.378 . S
C2714 C2709 1.350 . S
C2715 H2702 0.929 . S
C2715 C2707 1.433 . S
C2715 N2717 1.384 . S
N2716 C2712 1.427 . S
N2716 C2713 1.384 . S
N2717 C2709 1.427 . S
N2717 C2715 1.384 . S
H2718 C2724 0.930 . S
H2719 C2728 0.930 . S
H2720 C2733 0.929 . S
H2721 C2731 0.929 . S
H2722 C2726 0.929 . S
H2723 C2732 0.929 . S
C2724 H2718 0.930 . S
C2724 C2725 1.367 . S
C2724 C2732 1.378 . S
C2725 C2724 1.367 . S
C2725 C2733 1.433 . S
C2726 H2722 0.929 . S
C2726 C2728 1.378 . S
C2726 C2730 1.350 . S
C2727 C2730 1.463 . S
C2727 C2732 1.350 . S
C2727 N2735 1.427 . S
C2728 H2719 0.930 . S
C2728 C2726 1.378 . S
C2728 C2729 1.367 . S
C2729 C2728 1.367 . S
C2729 C2731 1.433 . S
C2730 C2726 1.350 . S
C2730 C2727 1.463 . S
C2730 N2734 1.427 . S
C2731 H2721 0.929 . S
C2731 C2729 1.433 . S
C2731 N2734 1.384 . S
C2732 H2723 0.929 . S
C2732 C2724 1.378 . S
C2732 C2727 1.350 . S
C2733 H2720 0.929 . S
C2733 C2725 1.433 . S
C2733 N2735 1.384 . S
N2734 C2730 1.427 . S
N2734 C2731 1.384 . S
N2735 C2727 1.427 . S
N2735 C2733 1.384 . S
H2736 C2742 0.930 . S
H2737 C2746 0.930 . S
H2738 C2751 0.929 . S
H2739 C2749 0.929 . S
H2740 C2744 0.929 . S
H2741 C2750 0.929 . S
C2742 H2736 0.930 . S
C2742 C2743 1.367 . S
C2742 C2750 1.378 . S
C2743 C2742 1.367 . S
C2743 C2751 1.433 . S
C2744 H2740 0.929 . S
C2744 C2746 1.378 . S
C2744 C2748 1.350 . S
C2745 C2748 1.463 . S
C2745 C2750 1.350 . S
C2745 N2753 1.427 . S
C2746 H2737 0.930 . S
C2746 C2744 1.378 . S
C2746 C2747 1.367 . S
C2747 C2746 1.367 . S
C2747 C2749 1.433 . S
C2748 C2744 1.350 . S
C2748 C2745 1.463 . S
C2748 N2752 1.427 . S
C2749 H2739 0.929 . S
C2749 C2747 1.433 . S
C2749 N2752 1.384 . S
C2750 H2741 0.929 . S
C2750 C2742 1.378 . S
C2750 C2745 1.350 . S
C2751 H2738 0.929 . S
C2751 C2743 1.433 . S
C2751 N2753 1.384 . S
N2752 C2748 1.427 . S
N2752 C2749 1.384 . S
N2753 C2745 1.427 . S
N2753 C2751 1.384 . S
H2754 C2760 0.930 . S
H2755 C2764 0.930 . S
H2756 C2769 0.929 . S
H2757 C2767 0.929 . S
H2758 C2762 0.929 . S
H2759 C2768 0.929 . S
C2760 H2754 0.930 . S
C2760 C2761 1.367 . S
C2760 C2768 1.378 . S
C2761 C2760 1.367 . S
C2761 C2769 1.433 . S
C2762 H2758 0.929 . S
C2762 C2764 1.378 . S
C2762 C2766 1.350 . S
C2763 C2766 1.463 . S
C2763 C2768 1.350 . S
C2763 N2771 1.427 . S
C2764 H2755 0.930 . S
C2764 C2762 1.378 . S
C2764 C2765 1.367 . S
C2765 C2764 1.367 . S
C2765 C2767 1.433 . S
C2766 C2762 1.350 . S
C2766 C2763 1.463 . S
C2766 N2770 1.427 . S
C2767 H2757 0.929 . S
C2767 C2765 1.433 . S
C2767 N2770 1.384 . S
C2768 H2759 0.929 . S
C2768 C2760 1.378 . S
C2768 C2763 1.350 . S
C2769 H2756 0.929 . S
C2769 C2761 1.433 . S
C2769 N2771 1.384 . S
N2770 C2766 1.427 . S
N2770 C2767 1.384 . S
N2771 C2763 1.427 . S
N2771 C2769 1.384 . S
H2772 C2778 0.930 . S
H2773 C2782 0.930 . S
H2774 C2787 0.929 . S
H2775 C2785 0.929 . S
H2776 C2780 0.929 . S
H2777 C2786 0.929 . S
C2778 H2772 0.930 . S
C2778 C2779 1.367 . S
C2778 C2786 1.378 . S
C2779 C2778 1.367 . S
C2779 C2787 1.433 . S
C2780 H2776 0.929 . S
C2780 C2782 1.378 . S
C2780 C2784 1.350 . S
C2781 C2784 1.463 . S
C2781 C2786 1.350 . S
C2781 N2789 1.427 . S
C2782 H2773 0.930 . S
C2782 C2780 1.378 . S
C2782 C2783 1.367 . S
C2783 C2782 1.367 . S
C2783 C2785 1.433 . S
C2784 C2780 1.350 . S
C2784 C2781 1.463 . S
C2784 N2788 1.427 . S
C2785 H2775 0.929 . S
C2785 C2783 1.433 . S
C2785 N2788 1.384 . S
C2786 H2777 0.929 . S
C2786 C2778 1.378 . S
C2786 C2781 1.350 . S
C2787 H2774 0.929 . S
C2787 C2779 1.433 . S
C2787 N2789 1.384 . S
N2788 C2784 1.427 . S
N2788 C2785 1.384 . S
N2789 C2781 1.427 . S
N2789 C2787 1.384 . S
H2790 C2796 0.930 . S
H2791 C2800 0.930 . S
H2792 C2805 0.929 . S
H2793 C2803 0.929 . S
H2794 C2798 0.929 . S
H2795 C2804 0.929 . S
C2796 H2790 0.930 . S
C2796 C2797 1.367 . S
C2796 C2804 1.378 . S
C2797 C2796 1.367 . S
C2797 C2805 1.433 . S
C2798 H2794 0.929 . S
C2798 C2800 1.378 . S
C2798 C2802 1.350 . S
C2799 C2802 1.463 . S
C2799 C2804 1.350 . S
C2799 N2807 1.427 . S
C2800 H2791 0.930 . S
C2800 C2798 1.378 . S
C2800 C2801 1.367 . S
C2801 C2800 1.367 . S
C2801 C2803 1.433 . S
C2802 C2798 1.350 . S
C2802 C2799 1.463 . S
C2802 N2806 1.427 . S
C2803 H2793 0.929 . S
C2803 C2801 1.433 . S
C2803 N2806 1.384 . S
C2804 H2795 0.929 . S
C2804 C2796 1.378 . S
C2804 C2799 1.350 . S
C2805 H2792 0.929 . S
C2805 C2797 1.433 . S
C2805 N2807 1.384 . S
N2806 C2802 1.427 . S
N2806 C2803 1.384 . S
N2807 C2799 1.427 . S
N2807 C2805 1.384 . S
H2808 C2814 0.930 . S
H2809 C2818 0.930 . S
H2810 C2823 0.929 . S
H2811 C2821 0.929 . S
H2812 C2816 0.929 . S
H2813 C2822 0.929 . S
C2814 H2808 0.930 . S
C2814 C2815 1.367 . S
C2814 C2822 1.378 . S
C2815 C2814 1.367 . S
C2815 C2823 1.433 . S
C2816 H2812 0.929 . S
C2816 C2818 1.378 . S
C2816 C2820 1.350 . S
C2817 C2820 1.463 . S
C2817 C2822 1.350 . S
C2817 N2825 1.427 . S
C2818 H2809 0.930 . S
C2818 C2816 1.378 . S
C2818 C2819 1.367 . S
C2819 C2818 1.367 . S
C2819 C2821 1.433 . S
C2820 C2816 1.350 . S
C2820 C2817 1.463 . S
C2820 N2824 1.427 . S
C2821 H2811 0.929 . S
C2821 C2819 1.433 . S
C2821 N2824 1.384 . S
C2822 H2813 0.929 . S
C2822 C2814 1.378 . S
C2822 C2817 1.350 . S
C2823 H2810 0.929 . S
C2823 C2815 1.433 . S
C2823 N2825 1.384 . S
N2824 C2820 1.427 . S
N2824 C2821 1.384 . S
N2825 C2817 1.427 . S
N2825 C2823 1.384 . S
H2826 C2832 0.930 . S
H2827 C2836 0.930 . S
H2828 C2841 0.929 . S
H2829 C2839 0.929 . S
H2830 C2834 0.929 . S
H2831 C2840 0.939 . S
C2832 H2826 0.930 . S
C2832 C2833 1.367 . S
C2832 C2840 1.378 . S
C2833 C2832 1.367 . S
C2833 C2841 1.433 . S
C2834 H2830 0.929 . S
C2834 C2836 1.378 . S
C2834 C2838 1.350 . S
C2835 C2838 1.463 . S
C2835 C2840 1.350 . S
C2835 N2843 1.427 . S
C2836 H2827 0.930 . S
C2836 C2834 1.378 . S
C2836 C2837 1.367 . S
C2837 C2836 1.367 . S
C2837 C2839 1.433 1_655 S
C2838 C2834 1.350 . S
C2838 C2835 1.463 . S
C2838 N2842 1.419 1_655 S
C2839 H2829 0.929 . S
C2839 C2837 1.433 1_455 S
C2839 N2842 1.392 . S
C2840 H2831 0.939 . S
C2840 C2832 1.378 . S
C2840 C2835 1.350 . S
C2841 H2828 0.929 . S
C2841 C2833 1.433 . S
C2841 N2843 1.384 . S
N2842 C2838 1.419 1_455 S
N2842 C2839 1.392 . S
N2843 C2835 1.427 . S
N2843 C2841 1.384 . S
H2844 C2850 0.930 . S
H2845 C2854 0.930 . S
H2846 C2859 0.929 . S
H2847 C2857 0.929 . S
H2848 C2852 0.929 . S
H2849 C2858 0.929 . S
C2850 H2844 0.930 . S
C2850 C2851 1.367 . S
C2850 C2858 1.378 . S
C2851 C2850 1.367 . S
C2851 C2859 1.433 . S
C2852 H2848 0.929 . S
C2852 C2854 1.378 . S
C2852 C2856 1.350 . S
C2853 C2856 1.463 . S
C2853 C2858 1.350 . S
C2853 N2861 1.427 . S
C2854 H2845 0.930 . S
C2854 C2852 1.378 . S
C2854 C2855 1.367 . S
C2855 C2854 1.367 . S
C2855 C2857 1.433 . S
C2856 C2852 1.350 . S
C2856 C2853 1.463 . S
C2856 N2860 1.427 . S
C2857 H2847 0.929 . S
C2857 C2855 1.433 . S
C2857 N2860 1.384 . S
C2858 H2849 0.929 . S
C2858 C2850 1.378 . S
C2858 C2853 1.350 . S
C2859 H2846 0.929 . S
C2859 C2851 1.433 . S
C2859 N2861 1.384 . S
N2860 C2856 1.427 . S
N2860 C2857 1.384 . S
N2861 C2853 1.427 . S
N2861 C2859 1.384 . S
H2862 C2868 0.930 . S
H2863 C2872 0.930 . S
H2864 C2877 0.929 . S
H2865 C2875 0.929 . S
H2866 C2870 0.929 . S
H2867 C2876 0.929 . S
C2868 H2862 0.930 . S
C2868 C2869 1.367 . S
C2868 C2876 1.378 . S
C2869 C2868 1.367 . S
C2869 C2877 1.433 . S
C2870 H2866 0.929 . S
C2870 C2872 1.378 . S
C2870 C2874 1.350 1_565 S
C2871 C2874 1.463 . S
C2871 C2876 1.350 . S
C2871 N2879 1.427 . S
C2872 H2863 0.930 . S
C2872 C2870 1.378 . S
C2872 C2873 1.367 1_565 S
C2873 C2872 1.367 1_545 S
C2873 C2875 1.433 . S
C2874 C2870 1.350 1_545 S
C2874 C2871 1.463 . S
C2874 N2878 1.427 . S
C2875 H2865 0.929 . S
C2875 C2873 1.433 . S
C2875 N2878 1.384 . S
C2876 H2867 0.929 . S
C2876 C2868 1.378 . S
C2876 C2871 1.350 . S
C2877 H2864 0.929 . S
C2877 C2869 1.433 . S
C2877 N2879 1.384 . S
N2878 C2874 1.427 . S
N2878 C2875 1.384 . S
N2879 C2871 1.427 . S
N2879 C2877 1.384 . S
C1591 C9 1.194 1_655 S
C1595 C981 1.152 . S
C1609 C19 1.612 . S
C1613 C1061 1.559 . S
C1631 C1129 1.372 . S
C1627 C33 1.410 . S
C1645 C37 1.737 . S
C1649 C1209 1.728 . S
C1663 C5 1.499 . S
C1667 C1283 1.485 . S
C1681 C23 1.695 . S
C1685 C1351 1.609 . S
C1699 C47 1.120 1_556 S
C1703 C1277 1.100 . S
C1721 C1357 1.510 . S
C1717 C65 1.503 . S
C1739 C1203 1.295 . S
C1735 C75 1.308 1_556 S
C1753 C79 1.612 . S
C1757 C1135 1.639 . S
C1775 C987 1.499 . S
C1771 C51 1.483 . S
C1789 C61 1.492 . S
C1793 C1055 1.462 . S
C1807 C93 1.571 . S
C1811 C1425 1.438 . S
C1825 C103 1.665 . S
C1829 C1505 1.607 . S
C1847 C1573 1.549 . S
C1843 C117 1.635 . S
C1861 C121 1.953 . S
C1865 C321 1.888 . S
C1879 C89 1.771 . S
C1883 C395 1.710 . S
C1897 C107 1.731 . S
C1901 C463 1.631 . S
C1915 C131 1.203 . S
C1919 C389 1.167 . S
C1933 C149 1.547 . S
C1937 C469 1.543 . S
C1955 C315 1.394 . S
C1951 C159 1.422 . S
C1973 C1579 1.854 . S
C1969 C163 1.857 . S
C1991 C1431 1.612 . S
C1987 C135 1.618 . S
C2009 C1499 1.505 . S
C2005 C145 1.532 . S
C2023 C177 1.458 . S
C2027 C537 1.340 . S
C2041 C187 1.666 . S
C2045 C617 1.610 . S
C2059 C201 1.675 . S
C2063 C685 1.575 . S
C2077 C205 2.056 . S
C2081 C765 1.988 . S
C2099 C839 1.692 . S
C2095 C173 1.754 . S
C2117 C907 1.659 . S
C2113 C191 1.766 . S
C2135 C833 1.275 . S
C2131 C215 1.324 . S
C2153 C913 1.544 . S
C2149 C233 1.544 . S
C2167 C243 1.367 . S
C2171 C759 1.352 . S
C2189 C691 1.739 . S
C2185 C247 1.740 . S
C2203 C219 1.649 . S
C2207 C543 1.640 . S
C2225 C611 1.489 . S
C2221 C229 1.514 . S
C2243 C291 1.927 . S
C2239 C11 1.971 . S
C2257 C14 1.467 . S
C2261 C365 1.446 . S
C2279 C451 1.587 . S
C2275 C28 1.603 . S
C2297 C525 1.303 . S
C2293 C39 1.331 1_556 S
C2315 C587 1.639 . S
C2311 C0 1.659 1_556 S
C2333 C673 1.496 . S
C2329 C25 1.507 . S
C2347 C42 2.230 . S
C2351 C661 2.111 . S
C2365 C67 1.707 . S
C2369 C513 1.613 . S
C2383 C70 1.737 . S
C2387 C599 1.679 . S
C2401 C81 1.522 . S
C2405 C377 1.455 . S
C2423 C439 1.778 . S
C2419 C53 1.883 . S
C2437 C56 1.825 . S
C2441 C303 1.758 . S
C2459 C735 1.868 . S
C2455 C95 1.909 . S
C2473 C98 1.615 1_545 S
C2477 C809 1.602 . S
C2491 C112 1.686 . S
C2495 C895 1.638 . S
C2513 C969 1.071 . S
C2509 C123 1.082 . S
C2527 C84 1.582 . S
C2531 C1031 1.566 . S
C2545 C109 1.369 . S
C2549 C1117 1.374 . S
C2563 C126 1.905 . S
C2567 C1105 1.804 1_565 S
C2581 C151 1.417 . S
C2585 C957 1.361 . S
C2603 C1043 1.628 . S
C2599 C154 1.682 . S
C2617 C165 1.504 . S
C2621 C821 1.428 . S
C2635 C137 1.889 . S
C2639 C883 1.793 . S
C2657 C747 1.851 . S
C2653 C140 1.923 1_655 S
C2675 C1179 1.747 . S
C2671 C179 1.776 . S
C2689 C182 1.303 . S
C2693 C1253 1.307 . S
C2707 C196 1.557 . S
C2711 C1339 1.542 . S
C2729 C1413 1.274 . S
C2725 C207 1.308 . S
C2747 C1475 1.671 . S
C2743 C168 1.684 1_565 S
C2761 C193 1.618 . S
C2765 C1561 1.607 . S
C2779 C210 2.177 . S
C2783 C1549 2.061 . S
C2797 C235 1.835 1_565 S
C2801 C1401 1.735 . S
C2819 C1487 1.722 . S
C2815 C238 1.784 1_455 S
C2837 C1265 1.095 . S
C2833 C249 1.119 . S
C2855 C1327 1.699 . S
C2851 C221 1.792 . S
C2869 C224 1.536 . S
C2873 C1191 1.522 . S
