# Generated by pormake.
# Topology pyr, (3,6)-cn, num edge types: 1
# Building blocks:
#     Node 0, Type 0, BuildingBlock: BETDAH_clean_linker_0, # of connection points: 3
#     Node 1, Type 0, BuildingBlock: BETDAH_clean_linker_0, # of connection points: 3
#     Node 2, Type 0, BuildingBlock: BETDAH_clean_linker_0, # of connection points: 3
#     Node 3, Type 0, BuildingBlock: BETDAH_clean_linker_0, # of connection points: 3
#     Node 4, Type 0, BuildingBlock: BETDAH_clean_linker_0, # of connection points: 3
#     Node 5, Type 0, BuildingBlock: BETDAH_clean_linker_0, # of connection points: 3
#     Node 6, Type 0, BuildingBlock: BETDAH_clean_linker_0, # of connection points: 3
#     Node 7, Type 0, BuildingBlock: BETDAH_clean_linker_0, # of connection points: 3
#     Node 8, Type 1, BuildingBlock: BETFAJ_clean_sbu_0, # of connection points: 6
#     Node 9, Type 1, BuildingBlock: BETFAJ_clean_sbu_0, # of connection points: 6
#     Node 10, Type 1, BuildingBlock: BETFAJ_clean_sbu_0, # of connection points: 6
#     Node 11, Type 1, BuildingBlock: BETFAJ_clean_sbu_0, # of connection points: 6
#     Edge 12, Type (0, 1), BuildingBlock: UVAHIK_clean_linker_0, # of connection points: 2
#     Edge 13, Type (0, 1), BuildingBlock: UVAHIK_clean_linker_0, # of connection points: 2
#     Edge 14, Type (0, 1), BuildingBlock: UVAHIK_clean_linker_0, # of connection points: 2
#     Edge 15, Type (0, 1), BuildingBlock: UVAHIK_clean_linker_0, # of connection points: 2
#     Edge 16, Type (0, 1), BuildingBlock: UVAHIK_clean_linker_0, # of connection points: 2
#     Edge 17, Type (0, 1), BuildingBlock: UVAHIK_clean_linker_0, # of connection points: 2
#     Edge 18, Type (0, 1), BuildingBlock: UVAHIK_clean_linker_0, # of connection points: 2
#     Edge 19, Type (0, 1), BuildingBlock: UVAHIK_clean_linker_0, # of connection points: 2
#     Edge 20, Type (0, 1), BuildingBlock: UVAHIK_clean_linker_0, # of connection points: 2
#     Edge 21, Type (0, 1), BuildingBlock: UVAHIK_clean_linker_0, # of connection points: 2
#     Edge 22, Type (0, 1), BuildingBlock: UVAHIK_clean_linker_0, # of connection points: 2
#     Edge 23, Type (0, 1), BuildingBlock: UVAHIK_clean_linker_0, # of connection points: 2
#     Edge 24, Type (0, 1), BuildingBlock: UVAHIK_clean_linker_0, # of connection points: 2
#     Edge 25, Type (0, 1), BuildingBlock: UVAHIK_clean_linker_0, # of connection points: 2
#     Edge 26, Type (0, 1), BuildingBlock: UVAHIK_clean_linker_0, # of connection points: 2
#     Edge 27, Type (0, 1), BuildingBlock: UVAHIK_clean_linker_0, # of connection points: 2
#     Edge 28, Type (0, 1), BuildingBlock: UVAHIK_clean_linker_0, # of connection points: 2
#     Edge 29, Type (0, 1), BuildingBlock: UVAHIK_clean_linker_0, # of connection points: 2
#     Edge 30, Type (0, 1), BuildingBlock: UVAHIK_clean_linker_0, # of connection points: 2
#     Edge 31, Type (0, 1), BuildingBlock: UVAHIK_clean_linker_0, # of connection points: 2
#     Edge 32, Type (0, 1), BuildingBlock: UVAHIK_clean_linker_0, # of connection points: 2
#     Edge 33, Type (0, 1), BuildingBlock: UVAHIK_clean_linker_0, # of connection points: 2
#     Edge 34, Type (0, 1), BuildingBlock: UVAHIK_clean_linker_0, # of connection points: 2
#     Edge 35, Type (0, 1), BuildingBlock: UVAHIK_clean_linker_0, # of connection points: 2
# Relax obj value: 0.113
# Max RMSD: 0.192
# Mean RMSD: 0.140
data_MOF--net-pyr--node1-BETFAJ_clean_sbu_0--node2-BETDAH_clean_linker_0--edge1-UVAHIK_clean_linker_0
_symmetry_space_group_name_H-M    P1
_symmetry_Int_Tables_number       1
_symmetry_cell_setting            triclinic
loop_
_symmetry_equiv_pos_as_xyz
'x, y, z'
_cell_length_a     49.45664
_cell_length_b     51.492353
_cell_length_c     48.335283
_cell_angle_alpha  91.851725
_cell_angle_beta   89.368448
_cell_angle_gamma 104.92294
loop_
_atom_site_label
_atom_site_type_symbol
_atom_site_fract_x
_atom_site_fract_y
_atom_site_fract_z
_atom_type_partial_charge
H0 H 0.35421 0.2771 0.27779 0.0
H1 H 0.36501 0.32049 0.20216 0.0
H2 H 0.30796 0.33572 0.26413 0.0
C3 C 0.34892 0.2915 0.26445 0.0
C4 C 0.32846 0.30454 0.27344 0.0
C5 C 0.36119 0.2955 0.23803 0.0
C6 C 0.35594 0.31647 0.22254 0.0
C7 C 0.33778 0.33183 0.23235 0.0
C8 C 0.32349 0.32534 0.25754 0.0
N9 N 0.33381 0.35273 0.21543 0.0
C10 C 0.31431 0.36803 0.21887 0.0
H11 H 0.28668 0.86715 0.67791 0.0
H12 H 0.2956 0.95203 0.66709 0.0
H13 H 0.28789 0.89871 0.5971 0.0
C14 C 0.28791 0.88424 0.66527 0.0
C15 C 0.28902 0.88041 0.63647 0.0
C16 C 0.29187 0.91019 0.67737 0.0
C17 C 0.29278 0.93156 0.65955 0.0
C18 C 0.29045 0.92706 0.63099 0.0
C19 C 0.28849 0.90162 0.61943 0.0
N20 N 0.28656 0.94744 0.61416 0.0
C21 C 0.25927 0.94877 0.61194 0.0
H22 H 0.69849 0.36648 0.93464 0.0
H23 H 0.6955 0.42058 0.86843 0.0
H24 H 0.63136 0.34685 0.87619 0.0
C25 C 0.68862 0.37165 0.91646 0.0
C26 C 0.66379 0.35367 0.90692 0.0
C27 C 0.70104 0.39571 0.90254 0.0
C28 C 0.68666 0.4024 0.87953 0.0
C29 C 0.66123 0.38484 0.87024 0.0
C30 C 0.65057 0.36049 0.88371 0.0
N31 N 0.64563 0.38971 0.84708 0.0
C32 C 0.64876 0.41258 0.83117 0.0
H33 H 0.82125 0.73768 0.42223 0.0
H34 H 0.89119 0.73254 0.37009 0.0
H35 H 0.82118 0.6636 0.37901 0.0
C36 C 0.83125 0.72645 0.40784 0.0
C37 C 0.81778 0.69959 0.40133 0.0
C38 C 0.85796 0.73856 0.39727 0.0
C39 C 0.87036 0.7238 0.37798 0.0
C40 C 0.85683 0.69678 0.37086 0.0
C41 C 0.83094 0.68472 0.38327 0.0
N42 N 0.87116 0.67992 0.35614 0.0
C43 C 0.87983 0.6821 0.32847 0.0
H44 H 0.72866 0.78438 0.80953 0.0
H45 H 0.67407 0.76931 0.88011 0.0
H46 H 0.66447 0.82677 0.82056 0.0
C47 C 0.7108 0.78766 0.82101 0.0
C48 C 0.69715 0.80652 0.81168 0.0
C49 C 0.70338 0.77473 0.84602 0.0
C50 C 0.68061 0.77972 0.86108 0.0
C51 C 0.66636 0.79835 0.85211 0.0
C52 C 0.67514 0.81229 0.8276 0.0
N53 N 0.64197 0.80055 0.86704 0.0
C54 C 0.63362 0.82397 0.87363 0.0
H55 H 0.73577 0.1733 0.4556 0.0
H56 H 0.77893 0.24675 0.49785 0.0
H57 H 0.71631 0.2477 0.43775 0.0
C58 C 0.73762 0.19437 0.4607 0.0
C59 C 0.72273 0.2086 0.44549 0.0
C60 C 0.75807 0.20826 0.47933 0.0
C61 C 0.76243 0.23587 0.48406 0.0
C62 C 0.74719 0.24989 0.46932 0.0
C63 C 0.72719 0.23639 0.4501 0.0
N64 N 0.75296 0.27784 0.47319 0.0
C65 C 0.73485 0.28791 0.48948 0.0
H66 H 0.3212 0.7598 0.19932 0.0
H67 H 0.32605 0.69782 0.25575 0.0
H68 H 0.3906 0.77225 0.25495 0.0
C69 C 0.33174 0.75284 0.21603 0.0
C70 C 0.35696 0.76943 0.22617 0.0
C71 C 0.32016 0.72708 0.22639 0.0
C72 C 0.33397 0.71803 0.24842 0.0
C73 C 0.35954 0.73462 0.25906 0.0
C74 C 0.37047 0.76013 0.24775 0.0
N75 N 0.37801 0.72512 0.27648 0.0
C76 C 0.37279 0.70963 0.30027 0.0
H77 H 0.19532 0.38674 0.65911 0.0
H78 H 0.18768 0.44594 0.72218 0.0
H79 H 0.12222 0.37332 0.71091 0.0
C80 C 0.18353 0.39344 0.67565 0.0
C81 C 0.15756 0.37661 0.68339 0.0
C82 C 0.19485 0.41848 0.68949 0.0
C83 C 0.17922 0.42701 0.71111 0.0
C84 C 0.15298 0.4105 0.71886 0.0
C85 C 0.1425 0.38568 0.70484 0.0
N86 N 0.13619 0.41725 0.7408 0.0
C87 C 0.14158 0.43985 0.7587 0.0
Sm88 Sm 0.01673 0.06838 0.50863 0.0
Sm89 Sm 0.99409 0.04882 0.56522 0.0
C90 C 0.03513 0.09641 0.46444 0.0
C91 C 0.06106 0.11699 0.45797 0.0
C92 C 0.05953 0.14188 0.4481 0.0
C93 C 0.08388 0.16103 0.44057 0.0
C94 C 0.11016 0.15548 0.44264 0.0
C95 C 0.11173 0.13105 0.45379 0.0
C96 C 0.08745 0.11202 0.46146 0.0
C97 C 0.04932 0.04348 0.5372 0.0
C98 C 0.03274 0.10953 0.56443 0.0
C99 C 0.97507 1.01916 0.6083 0.0
C100 C 0.95094 0.99587 0.61365 0.0
C101 C 0.95573 0.97104 0.62014 0.0
C102 C 0.9336 0.94972 0.62824 0.0
C103 C 0.9062 0.95273 0.62977 0.0
C104 C 0.90102 0.97688 0.6215 0.0
C105 C 0.9232 0.99832 0.6136 0.0
C106 C 0.96133 0.0736 0.53671 0.0
C107 C 0.97888 1.00781 0.50972 0.0
O108 O 0.01822 0.10352 0.48245 0.0
O109 O 0.03756 0.07198 0.46771 0.0
O110 O 0.03726 0.06013 0.54746 0.0
O111 O 0.04556 0.04015 0.51074 0.0
O112 O 0.02936 0.10683 0.53722 0.0
O113 O 0.02417 0.08865 0.58055 0.0
O114 O 0.99493 1.01474 0.5921 0.0
O115 O 0.9696 0.04228 0.60421 0.0
O116 O 0.97349 0.05717 0.5261 0.0
O117 O 0.964 0.07556 0.56334 0.0
O118 O 0.98306 1.01041 0.53676 0.0
O119 O 0.98598 0.02892 0.49379 0.0
H120 H 0.03943 0.14629 0.44564 0.0
H121 H 0.08201 0.17967 0.43203 0.0
H122 H 0.13175 0.12645 0.45616 0.0
H123 H 0.08939 0.09325 0.46965 0.0
H124 H 0.97678 0.96845 0.61999 0.0
H125 H 0.93802 0.9312 0.63443 0.0
H126 H 0.88008 0.97973 0.62276 0.0
H127 H 0.91866 1.01707 0.60843 0.0
Sm128 Sm 0.53277 0.067 0.08359 0.0
Sm129 Sm 0.47907 0.05469 0.04262 0.0
C130 C 0.57817 0.09161 0.11022 0.0
C131 C 0.58095 0.10291 0.13865 0.0
C132 C 0.58323 0.13045 0.14329 0.0
C133 C 0.58448 0.14122 0.17012 0.0
C134 C 0.58379 0.12468 0.19271 0.0
C135 C 0.58042 0.09699 0.18823 0.0
C136 C 0.57905 0.08616 0.16138 0.0
C137 C 0.49061 0.02463 0.10282 0.0
C138 C 0.47987 0.09528 0.09648 0.0
C139 C 0.43513 0.02674 1.01617 0.0
C140 C 0.43384 1.01344 0.98882 0.0
C141 C 0.423 0.9855 0.98638 0.0
C142 C 0.42094 0.9726 0.96046 0.0
C143 C 0.42964 0.98759 0.93685 0.0
C144 C 0.44277 1.01508 0.93946 0.0
C145 C 0.44502 0.02799 0.96539 0.0
C146 C 0.52129 0.09774 0.02403 0.0
C147 C 0.53125 0.02621 0.02897 0.0
O148 O 0.56587 0.10396 0.09291 0.0
O149 O 0.57017 0.06531 0.10746 0.0
O150 O 0.49052 0.03836 0.08169 0.0
O151 O 0.51396 0.03445 0.1159 0.0
O152 O 0.506 0.09463 0.10178 0.0
O153 O 0.46438 0.08038 0.07667 0.0
O154 O 0.44757 1.01624 0.035 0.0
O155 O 0.44186 0.05317 1.01701 0.0
O156 O 0.52134 0.08347 0.04475 0.0
O157 O 0.49762 0.0885 1.01123 0.0
O158 O 0.50591 0.02847 0.02311 0.0
O159 O 0.54643 0.03993 0.04972 0.0
H160 H 0.58422 0.14373 0.12617 0.0
H161 H 0.58699 0.16264 0.17323 0.0
H162 H 0.58028 0.08394 0.20541 0.0
H163 H 0.57684 0.06476 0.15852 0.0
H164 H 0.41517 0.97383 1.00437 0.0
H165 H 0.41035 0.9514 0.95857 0.0
H166 H 0.44908 0.02693 0.92125 0.0
H167 H 0.45445 0.04944 0.96685 0.0
Sm168 Sm 0.52015 0.56034 0.55979 0.0
Sm169 Sm 0.52045 0.60766 0.59744 0.0
C170 C 0.54415 0.52904 0.53024 0.0
C171 C 0.55397 0.50559 0.53771 0.0
C172 C 0.58287 0.50819 0.53935 0.0
C173 C 0.59285 0.48673 0.5475 0.0
C174 C 0.57409 0.46218 0.55382 0.0
C175 C 0.54519 0.45975 0.55304 0.0
C176 C 0.53517 0.48137 0.54519 0.0
C177 C 0.47204 0.54487 0.59076 0.0
C178 C 0.54269 0.56055 0.62464 0.0
C179 C 0.51256 0.65032 0.62416 0.0
C180 C 0.49741 0.66997 0.61705 0.0
C181 C 0.47106 0.66167 0.60438 0.0
C182 C 0.45613 0.68043 0.59926 0.0
C183 C 0.46754 0.7076 0.60651 0.0
C184 C 0.49486 0.71622 0.61678 0.0
C185 C 0.50974 0.69738 0.62215 0.0
C186 C 0.56874 0.61057 0.56844 0.0
C187 C 0.49097 0.60359 0.53418 0.0
O188 O 0.55814 0.55173 0.54193 0.0
O189 O 0.51701 0.52632 0.52955 0.0
O190 O 0.48956 0.56757 0.59316 0.0
O191 O 0.4796 0.5298 0.57174 0.0
O192 O 0.54201 0.55072 0.599 0.0
O193 O 0.53311 0.58176 0.63065 0.0
O194 O 0.49741 0.62594 0.62876 0.0
O195 O 0.53467 0.65092 0.60901 0.0
O196 O 0.54428 0.60359 0.55885 0.0
O197 O 0.56851 0.61517 0.59496 0.0
O198 O 0.49484 0.61574 0.55912 0.0
O199 O 0.50002 0.58201 0.52851 0.0
H200 H 0.59779 0.52683 0.53417 0.0
H201 H 0.61525 0.48901 0.54771 0.0
H202 H 0.53041 0.441 0.55807 0.0
H203 H 0.51277 0.47902 0.54482 0.0
H204 H 0.4616 0.64065 0.59936 0.0
H205 H 0.43508 0.6736 0.5911 0.0
H206 H 0.50387 0.73718 0.62245 0.0
H207 H 0.53044 0.70407 0.63113 0.0
Sm208 Sm 0.02725 0.56162 0.04869 0.0
Sm209 Sm 0.01527 0.61326 0.02017 0.0
C210 C 0.05278 0.52515 0.06539 0.0
C211 C 0.07674 0.52153 0.08222 0.0
C212 C 0.10419 0.52726 0.07152 0.0
C213 C 0.12576 0.52039 0.08595 0.0
C214 C 0.12058 0.5075 0.1115 0.0
C215 C 0.0934 0.50282 0.12271 0.0
C216 C 0.07181 0.50961 0.10823 0.0
C217 C 0.99441 0.58828 0.07906 0.0
C218 C 0.07211 0.62236 0.05839 0.0
C219 C 0.98882 0.65048 1.00805 0.0
C220 C 0.96547 0.65463 0.99044 0.0
C221 C 0.93857 0.65133 1.00197 0.0
C222 C 0.91705 0.65784 0.98727 0.0
C223 C 0.92155 0.66801 0.96045 0.0
C224 C 0.94809 0.6703 0.94828 0.0
C225 C 0.96983 0.66388 0.96316 0.0
C226 C 0.03897 0.58357 0.98183 0.0
C227 C 0.97037 0.55252 1.01262 0.0
O228 O 0.05831 0.53748 0.0419 0.0
O229 O 0.03137 0.53051 0.07838 0.0
O230 O 0.01555 0.59947 0.06458 0.0
O231 O 0.99081 0.56228 0.07844 0.0
O232 O 0.06509 0.59614 0.06229 0.0
O233 O 0.05661 0.63451 0.04357 0.0
O234 O 0.98176 0.63398 0.02855 0.0
O235 O 0.01263 0.64929 0.99643 0.0
O236 O 0.03323 0.5789 1.00693 0.0
O237 O 0.03224 0.60555 0.9761 0.0
O238 O 0.97481 0.57903 1.01378 0.0
O239 O 0.98911 0.5404 0.02168 0.0
H240 H 0.10893 0.53639 0.05157 0.0
H241 H 0.14647 0.52477 0.07681 0.0
H242 H 0.08842 0.49275 0.14215 0.0
H243 H 0.05094 0.50464 0.11702 0.0
H244 H 0.93422 0.64432 0.02284 0.0
H245 H 0.89683 0.65529 0.99719 0.0
H246 H 0.9524 0.67808 0.9277 0.0
H247 H 0.99022 0.66682 0.95352 0.0
C248 C 0.30234 0.26553 0.30092 0.0
C249 C 0.31002 0.29351 0.29727 0.0
C250 C 0.28389 0.25424 0.32178 0.0
C251 C 0.22549 0.26505 0.36296 0.0
H252 H 0.23555 0.20304 0.40106 0.0
C253 C 0.14076 0.20205 0.43533 0.0
C254 C 0.13555 0.17405 0.43116 0.0
C255 C 0.16401 0.21933 0.42303 0.0
C256 C 0.2324 0.2203 0.39057 0.0
H257 H 0.30412 0.33152 0.31332 0.0
H258 H 0.27102 0.31146 0.34973 0.0
H259 H 0.27359 0.22931 0.37326 0.0
H260 H 0.15035 0.14226 0.41055 0.0
H261 H 0.19066 0.17224 0.38915 0.0
H262 H 0.1839 0.25544 0.37967 0.0
C263 C 0.27973 0.29846 0.33624 0.0
C264 C 0.25421 0.2354 0.3747 0.0
C265 C 0.29861 0.30992 0.31536 0.0
C266 C 0.15413 0.1637 0.41467 0.0
C267 C 0.17725 0.18091 0.40239 0.0
C268 C 0.2036 0.24992 0.37892 0.0
C269 C 0.27213 0.27045 0.33954 0.0
C270 C 0.25074 0.25747 0.36007 0.0
C271 C 0.18245 0.20892 0.40635 0.0
C272 C 0.2066 0.22696 0.39227 0.0
H273 H 0.30975 0.25196 0.28699 0.0
H274 H 0.27798 0.23256 0.32325 0.0
H275 H 0.22208 0.28178 0.35172 0.0
H276 H 0.12689 0.21058 0.44811 0.0
H277 H 0.1676 0.24082 0.42663 0.0
C278 C 0.30828 0.89648 0.72291 0.0
C279 C 0.29924 0.91545 0.70741 0.0
C280 C 0.32022 0.90327 0.74887 0.0
C281 C 0.3405 0.96102 0.80083 0.0
H282 H 0.38993 0.91868 0.82467 0.0
C283 C 0.38966 0.98102 0.90637 0.0
C284 C 0.41627 0.97737 0.91069 0.0
C285 C 0.37598 0.97262 0.88166 0.0
C286 C 0.37671 0.93107 0.818 0.0
H287 H 0.29245 0.9557 0.71052 0.0
H288 H 0.3173 0.96872 0.7524 0.0
H289 H 0.3647 0.90658 0.7819 0.0
H290 H 0.44982 0.96192 0.89362 0.0
H291 H 0.42624 0.94794 0.84903 0.0
H292 H 0.35545 0.98753 0.83497 0.0
C293 C 0.31443 0.94811 0.74525 0.0
C294 C 0.36138 0.92366 0.79372 0.0
C295 C 0.3007 0.94075 0.72014 0.0
C296 C 0.42925 0.96494 0.89023 0.0
C297 C 0.41564 0.95685 0.86499 0.0
C298 C 0.35695 0.96922 0.82412 0.0
C299 C 0.32524 0.9297 0.75966 0.0
C300 C 0.34236 0.93808 0.78514 0.0
C301 C 0.389 0.96106 0.86035 0.0
C302 C 0.37443 0.95382 0.8336 0.0
H303 H 0.30772 0.8765 0.71515 0.0
H304 H 0.32633 0.88772 0.75983 0.0
H305 H 0.32614 0.97276 0.79574 0.0
H306 H 0.37946 0.99054 0.92222 0.0
H307 H 0.35511 0.97527 0.8794 0.0
C308 C 0.64805 0.45786 0.81342 0.0
C309 C 0.64294 0.42984 0.80974 0.0
C310 C 0.63884 0.47322 0.79356 0.0
C311 C 0.58778 0.46452 0.73404 0.0
H312 H 0.6251 0.53901 0.72084 0.0
C313 C 0.55624 0.52026 0.64245 0.0
C314 C 0.5547 0.54702 0.64672 0.0
C315 C 0.56766 0.50716 0.66255 0.0
C316 C 0.61425 0.51827 0.72441 0.0
H317 H 0.62467 0.39603 0.78234 0.0
H318 H 0.60962 0.42236 0.74761 0.0
H319 H 0.64446 0.51425 0.75447 0.0
H320 H 0.56472 0.58109 0.67569 0.0
H321 H 0.58503 0.55828 0.7108 0.0
H322 H 0.55791 0.46838 0.70372 0.0
C323 C 0.62003 0.43285 0.76585 0.0
C324 C 0.62536 0.50397 0.74386 0.0
C325 C 0.62909 0.41764 0.78565 0.0
C326 C 0.56529 0.56042 0.67174 0.0
C327 C 0.57717 0.54737 0.69179 0.0
C328 C 0.57693 0.47868 0.71448 0.0
C329 C 0.62415 0.4609 0.76959 0.0
C330 C 0.61241 0.47671 0.74897 0.0
C331 C 0.5783 0.5204 0.68761 0.0
C332 C 0.58997 0.50576 0.70919 0.0
H333 H 0.65847 0.46779 0.83193 0.0
H334 H 0.64245 0.49463 0.79757 0.0
H335 H 0.5764 0.44397 0.73765 0.0
H336 H 0.54837 0.50921 0.6235 0.0
H337 H 0.56842 0.48659 0.65824 0.0
C338 C 0.91337 0.69365 0.28894 0.0
C339 C 0.88894 0.67722 0.30039 0.0
C340 C 0.92396 0.68638 0.26345 0.0
C341 C 0.9196 0.62553 0.2169 0.0
H342 H 0.96039 0.67722 0.16497 0.0
C343 C 0.95543 0.58822 0.1125 0.0
C344 C 0.9809 0.60216 0.10071 0.0
C345 C 0.9437 0.59925 0.13507 0.0
C346 C 0.94931 0.66241 0.17928 0.0
H347 H 0.85612 0.64068 0.29411 0.0
H348 H 0.87379 0.62833 0.24964 0.0
H349 H 0.94095 0.69287 0.20706 0.0
H350 H 0.0137 0.63925 0.10308 0.0
H351 H 0.99378 0.65831 0.14315 0.0
H352 H 0.92821 0.59512 0.1898 0.0
C353 C 0.88535 0.64659 0.26022 0.0
C354 C 0.93805 0.67146 0.2036 0.0
C355 C 0.8749 0.65383 0.28563 0.0
C356 C 0.99396 0.62799 0.11159 0.0
C357 C 0.98241 0.63893 0.13464 0.0
C358 C 0.93085 0.61654 0.19278 0.0
C359 C 0.91044 0.66238 0.24889 0.0
C360 C 0.92277 0.65314 0.22277 0.0
C361 C 0.95732 0.62445 0.14721 0.0
C362 C 0.94572 0.6347 0.17329 0.0
H363 H 0.92477 0.71166 0.30008 0.0
H364 H 0.94335 0.6991 0.25577 0.0
H365 H 0.90882 0.61062 0.23126 0.0
H366 H 0.94464 0.56842 0.10447 0.0
H367 H 0.92392 0.58767 0.14314 0.0
C368 C 0.37107 0.24939 0.23508 0.0
C369 C 0.37686 0.27606 0.22597 0.0
C370 C 0.384 0.23059 0.223 0.0
C371 C 0.43935 0.22303 0.17018 0.0
H372 H 0.39969 0.14789 0.17446 0.0
C373 C 0.4731 0.14153 0.10238 0.0
C374 C 0.46831 0.11533 0.11198 0.0
C375 C 0.46255 0.16091 0.11681 0.0
C376 C 0.41144 0.16868 0.17319 0.0
H377 H 0.40218 0.30331 0.19675 0.0
H378 H 0.42243 0.27026 0.1741 0.0
H379 H 0.38127 0.18143 0.19816 0.0
H380 H 0.44878 0.08866 0.1442 0.0
H381 H 0.43113 0.12248 0.17014 0.0
H382 H 0.46926 0.21006 0.14472 0.0
C383 C 0.40864 0.26392 0.19148 0.0
C384 C 0.40079 0.1883 0.18709 0.0
C385 C 0.39641 0.28307 0.20428 0.0
C386 C 0.45274 0.10878 0.13637 0.0
C387 C 0.44242 0.12825 0.15107 0.0
C388 C 0.44989 0.2034 0.15612 0.0
C389 C 0.40247 0.23712 0.20038 0.0
C390 C 0.41444 0.21597 0.18587 0.0
C391 C 0.44715 0.15476 0.14159 0.0
C392 C 0.43609 0.17582 0.15722 0.0
H393 H 0.35582 0.24236 0.25116 0.0
H394 H 0.37904 0.21077 0.23153 0.0
H395 H 0.45121 0.24376 0.16889 0.0
H396 H 0.48499 0.14703 0.08353 0.0
H397 H 0.46625 0.18063 0.10816 0.0
C398 C 0.21295 0.93172 0.59195 0.0
C399 C 0.22985 0.9454 0.61333 0.0
C400 C 0.18455 0.93045 0.59214 0.0
C401 C 0.13742 0.96966 0.62723 0.0
H402 H 0.10106 0.95001 0.55652 0.0
C403 C 0.07875 0.03667 0.57565 0.0
C404 C 0.06075 0.02597 0.55373 0.0
C405 C 0.09201 1.02018 0.58955 0.0
C406 C 0.11012 0.95529 0.57685 0.0
H407 H 0.23079 0.96343 0.65436 0.0
H408 H 0.1814 0.96073 0.65566 0.0
H409 H 0.13333 0.92675 0.57115 0.0
H410 H 0.03922 0.98986 0.53098 0.0
H411 H 0.06018 0.96042 0.55678 0.0
H412 H 0.11176 0.99687 0.63335 0.0
C413 C 0.18943 0.95295 0.63724 0.0
C414 C 0.1298 0.94224 0.58516 0.0
C415 C 0.21794 0.95445 0.63677 0.0
C416 C 0.0539 0.99842 0.54737 0.0
C417 C 0.06609 0.9817 0.56206 0.0
C418 C 0.11673 0.98185 0.61942 0.0
C419 C 0.17263 0.94319 0.61374 0.0
C420 C 0.14549 0.95053 0.60953 0.0
C421 C 0.08642 0.99254 0.58235 0.0
C422 C 0.10393 0.97588 0.59345 0.0
H423 H 0.22187 0.92297 0.57453 0.0
H424 H 0.17302 0.92081 0.57423 0.0
H425 H 0.14771 0.97676 0.64658 0.0
H426 H 0.08376 0.05799 0.58093 0.0
H427 H 0.10763 0.02951 0.6048 0.0
C428 C 0.7491 0.40096 0.92333 0.0
C429 C 0.72929 0.4129 0.91187 0.0
C430 C 0.77491 0.41649 0.9333 0.0
C431 C 0.81402 0.48762 0.95341 0.0
H432 H 0.87684 0.4556 0.95423 0.0
C433 C 0.92546 0.54942 0.98696 0.0
C434 C 0.94308 0.53644 1.0007 0.0
C435 C 0.89978 0.53487 0.9757 0.0
C436 C 0.85953 0.46488 0.9546 0.0
H437 H 0.72237 0.45133 0.90141 0.0
H438 H 0.76792 0.47829 0.91727 0.0
H439 H 0.83276 0.43037 0.93455 0.0
H440 H 0.94684 0.49763 1.01355 0.0
H441 H 0.90181 0.47227 0.99462 0.0
H442 H 0.84118 0.52235 0.97315 0.0
C443 C 0.76302 0.45675 0.91953 0.0
C444 C 0.83391 0.45025 0.94323 0.0
C445 C 0.73683 0.44113 0.90994 0.0
C446 C 0.93405 0.50836 1.00295 0.0
C447 C 0.90816 0.49377 0.99188 0.0
C448 C 0.83977 0.50234 0.96465 0.0
C449 C 0.78253 0.44471 0.93161 0.0
C450 C 0.81048 0.46115 0.94266 0.0
C451 C 0.89056 0.50676 0.97795 0.0
C452 C 0.86296 0.49116 0.96567 0.0
H453 H 0.74484 0.37934 0.92464 0.0
H454 H 0.78868 0.40609 0.94276 0.0
H455 H 0.79673 0.49691 0.95386 0.0
H456 H 0.93159 0.571 0.98458 0.0
H457 H 0.88739 0.54577 0.96481 0.0
C458 C 0.78904 0.66599 0.4335 0.0
C459 C 0.79095 0.68709 0.41538 0.0
C460 C 0.76512 0.65696 0.44995 0.0
C461 C 0.69747 0.67547 0.47071 0.0
H462 H 0.6838 0.60785 0.50804 0.0
C463 C 0.59253 0.62726 0.5244 0.0
C464 C 0.59407 0.61781 0.55109 0.0
C465 C 0.61666 0.63544 0.50827 0.0
C466 C 0.68742 0.62685 0.4978 0.0
H467 H 0.76905 0.71456 0.39923 0.0
H468 H 0.72662 0.69751 0.42532 0.0
H469 H 0.7241 0.62117 0.4781 0.0
H470 H 0.62163 0.60882 0.58175 0.0
H471 H 0.66393 0.62231 0.55308 0.0
H472 H 0.6595 0.67996 0.48965 0.0
C473 C 0.74376 0.6886 0.42872 0.0
C474 C 0.71088 0.63481 0.48058 0.0
C475 C 0.76805 0.6982 0.41307 0.0
C476 C 0.62002 0.61614 0.56122 0.0
C477 C 0.64412 0.62374 0.5448 0.0
C478 C 0.67363 0.66707 0.48724 0.0
C479 C 0.74197 0.66825 0.44815 0.0
C480 C 0.71651 0.65936 0.46659 0.0
C481 C 0.64273 0.63377 0.51825 0.0
C482 C 0.66833 0.6427 0.501 0.0
H483 H 0.80662 0.65734 0.43594 0.0
H484 H 0.76559 0.64171 0.4646 0.0
H485 H 0.7008 0.69492 0.46164 0.0
H486 H 0.57274 0.62891 0.51623 0.0
H487 H 0.61488 0.6429 0.48785 0.0
C488 C 0.27061 0.38348 0.22655 0.0
C489 C 0.29718 0.38671 0.21455 0.0
C490 C 0.25323 0.39983 0.21874 0.0
C491 C 0.24623 0.44533 0.16061 0.0
H492 H 0.18328 0.45487 0.20424 0.0
C493 C 0.16048 0.48521 0.1095 0.0
C494 C 0.14279 0.49731 0.12535 0.0
C495 C 0.1801 0.47406 0.12211 0.0
C496 C 0.20095 0.45294 0.19173 0.0
H497 H 0.32715 0.41027 0.18636 0.0
H498 H 0.29813 0.43943 0.17386 0.0
H499 H 0.21637 0.43334 0.22424 0.0
H500 H 0.13276 0.50772 0.16733 0.0
H501 H 0.16769 0.48948 0.18934 0.0
H502 H 0.23242 0.46657 0.12895 0.0
C503 C 0.28961 0.42379 0.18831 0.0
C504 C 0.21987 0.43995 0.20318 0.0
C505 C 0.30665 0.4073 0.19583 0.0
C506 C 0.14581 0.49837 0.15436 0.0
C507 C 0.16589 0.48764 0.16704 0.0
C508 C 0.22792 0.45896 0.14954 0.0
C509 C 0.26212 0.41985 0.19879 0.0
C510 C 0.24266 0.43543 0.18765 0.0
C511 C 0.18336 0.47503 0.15117 0.0
C512 C 0.20439 0.46245 0.16447 0.0
H513 H 0.26289 0.36776 0.2412 0.0
H514 H 0.23244 0.39588 0.22756 0.0
H515 H 0.26289 0.44213 0.14734 0.0
H516 H 0.15854 0.48345 0.08718 0.0
H517 H 0.19211 0.46399 0.10874 0.0
C518 C 0.64585 0.303 0.90546 0.0
C519 C 0.65175 0.32748 0.9208 0.0
C520 C 0.63421 0.27843 0.91822 0.0
C521 C 0.59424 0.24915 0.98124 0.0
H522 H 0.61662 0.18521 0.95735 0.0
C523 C 0.54825 0.146 0.03367 0.0
C524 C 0.54241 0.12283 1.01625 0.0
C525 C 0.56373 0.17102 0.02382 0.0
C526 C 0.60974 0.20269 0.96419 0.0
H527 H 0.64983 0.3452 0.96172 0.0
H528 H 0.62928 0.30251 0.98403 0.0
H529 H 0.63833 0.22798 0.93655 0.0
H530 H 0.5487 0.10768 0.97516 0.0
H531 H 0.57597 0.1506 0.95817 0.0
H532 H 0.56532 0.2238 1.00855 0.0
C533 C 0.63364 0.30216 0.96205 0.0
C534 C 0.62233 0.22743 0.95215 0.0
C535 C 0.64567 0.32671 0.94932 0.0
C536 C 0.55318 0.12509 0.98919 0.0
C537 C 0.56893 0.14988 0.97947 0.0
C538 C 0.58153 0.22434 0.9932 0.0
C539 C 0.62771 0.27753 0.94675 0.0
C540 C 0.6147 0.25112 0.96029 0.0
C541 C 0.57402 0.17352 0.99633 0.0
C542 C 0.58885 0.20053 0.98476 0.0
H543 H 0.6504 0.30284 0.88348 0.0
H544 H 0.62982 0.26014 0.90552 0.0
H545 H 0.58741 0.2667 0.98795 0.0
H546 H 0.53969 0.14506 0.05445 0.0
H547 H 0.56728 0.18847 0.03772 0.0
C548 C 0.88754 0.78607 0.39096 0.0
C549 C 0.87307 0.7658 0.40841 0.0
C550 C 0.89963 0.81214 0.40167 0.0
C551 C 0.92192 0.85099 0.46797 0.0
H552 H 0.91689 0.91186 0.42511 0.0
C553 C 0.95331 0.95934 0.51491 0.0
C554 C 0.96591 0.98056 0.49759 0.0
C555 C 0.94185 0.93338 0.50393 0.0
C556 C 0.9189 0.89518 0.43728 0.0
H557 H 0.86129 0.75678 0.45113 0.0
H558 H 0.88157 0.80194 0.4695 0.0
H559 H 0.8984 0.86646 0.40623 0.0
H560 H 0.97636 0.99097 0.45503 0.0
H561 H 0.95722 0.9456 0.43589 0.0
H562 H 0.9425 0.87958 0.49898 0.0
C563 C 0.88381 0.79794 0.44758 0.0
C564 C 0.90824 0.86901 0.42638 0.0
C565 C 0.87184 0.772 0.43693 0.0
C566 C 0.96664 0.97516 0.46895 0.0
C567 C 0.95547 0.94907 0.45797 0.0
C568 C 0.93268 0.87714 0.47883 0.0
C569 C 0.89767 0.81852 0.43011 0.0
C570 C 0.90958 0.8465 0.44154 0.0
C571 C 0.94296 0.92772 0.47529 0.0
C572 C 0.93136 0.8997 0.46367 0.0
H573 H 0.88887 0.78199 0.36894 0.0
H574 H 0.91052 0.8273 0.3876 0.0
H575 H 0.92372 0.83427 0.48021 0.0
H576 H 0.95216 0.96274 0.53708 0.0
H577 H 0.93193 0.91781 0.518 0.0
C578 C 0.29153 0.83255 0.63759 0.0
C579 C 0.29946 0.85782 0.62541 0.0
C580 C 0.30872 0.81501 0.63487 0.0
C581 C 0.38268 0.81878 0.62319 0.0
H582 H 0.35717 0.74159 0.61117 0.0
C583 C 0.45545 0.75031 0.59571 0.0
C584 C 0.44908 0.72556 0.60876 0.0
C585 C 0.43754 0.76715 0.599 0.0
C586 C 0.36452 0.76312 0.61485 0.0
H587 H 0.32989 0.88317 0.59829 0.0
H588 H 0.35864 0.85204 0.59242 0.0
H589 H 0.32311 0.76828 0.61325 0.0
H590 H 0.42074 0.69942 0.63664 0.0
H591 H 0.38974 0.7289 0.64271 0.0
H592 H 0.42418 0.81354 0.62462 0.0
C593 C 0.33986 0.84628 0.60494 0.0
C594 C 0.34506 0.7783 0.61603 0.0
C595 C 0.32292 0.86381 0.60781 0.0
C596 C 0.42543 0.71816 0.62579 0.0
C597 C 0.40784 0.73499 0.62932 0.0
C598 C 0.40218 0.80357 0.62199 0.0
C599 C 0.33367 0.82245 0.61956 0.0
C600 C 0.35403 0.80624 0.61977 0.0
C601 C 0.41344 0.75934 0.61558 0.0
C602 C 0.39319 0.77566 0.61757 0.0
H603 H 0.27337 0.8273 0.65099 0.0
H604 H 0.30345 0.79652 0.64613 0.0
H605 H 0.38997 0.84033 0.62677 0.0
H606 H 0.47389 0.75632 0.58277 0.0
H607 H 0.44212 0.78587 0.58814 0.0
C608 C 0.7143 0.80746 0.76275 0.0
C609 C 0.70865 0.82152 0.78665 0.0
C610 C 0.73291 0.8206 0.74258 0.0
C611 C 0.79223 0.88189 0.73791 0.0
H612 H 0.79465 0.85793 0.66133 0.0
C613 C 0.88828 0.92756 0.67194 0.0
C614 C 0.88413 0.93272 0.64424 0.0
C615 C 0.86672 0.91144 0.68731 0.0
C616 C 0.79421 0.86515 0.68257 0.0
H617 H 0.71578 0.86075 0.80683 0.0
H618 H 0.74691 0.88411 0.77104 0.0
H619 H 0.75462 0.83739 0.69009 0.0
H620 H 0.85473 0.92409 0.61029 0.0
H621 H 0.81659 0.89604 0.63718 0.0
H622 H 0.83068 0.91067 0.73026 0.0
C623 C 0.73806 0.86267 0.76829 0.0
C624 C 0.7713 0.85307 0.69927 0.0
C625 C 0.71967 0.84945 0.7886 0.0
C626 C 0.85829 0.92053 0.63174 0.0
C627 C 0.83656 0.9043 0.64718 0.0
C628 C 0.81468 0.89429 0.72116 0.0
C629 C 0.74615 0.84821 0.74574 0.0
C630 C 0.76991 0.86137 0.72722 0.0
C631 C 0.84019 0.90023 0.6755 0.0
C632 C 0.81618 0.88613 0.69323 0.0
H633 H 0.70591 0.78587 0.76071 0.0
H634 H 0.73828 0.80862 0.72561 0.0
H635 H 0.79268 0.8884 0.75945 0.0
H636 H 0.90799 0.93689 0.68207 0.0
H637 H 0.87085 0.90827 0.70871 0.0
C638 C 0.71988 0.20372 0.39489 0.0
C639 C 0.70793 0.19595 0.42068 0.0
C640 C 0.70548 0.19355 0.37084 0.0
C641 C 0.64632 0.1431 0.34077 0.0
H642 H 0.64274 0.20175 0.29361 0.0
C643 C 0.57743 0.12532 0.24401 0.0
C644 C 0.59164 0.13675 0.22028 0.0
C645 C 0.58876 0.13345 0.27013 0.0
C646 C 0.6436 0.18517 0.30651 0.0
H647 H 0.67327 0.17006 0.44228 0.0
H648 H 0.64716 0.15265 0.39969 0.0
H649 H 0.67102 0.21107 0.33523 0.0
H650 H 0.62788 0.16617 0.20493 0.0
H651 H 0.64775 0.18004 0.25015 0.0
H652 H 0.6194 0.11709 0.31149 0.0
C653 C 0.6677 0.16648 0.39816 0.0
C654 C 0.65987 0.19046 0.33021 0.0
C655 C 0.68234 0.17653 0.42236 0.0
C656 C 0.61629 0.15742 0.22298 0.0
C657 C 0.62769 0.16533 0.24891 0.0
C658 C 0.63015 0.13773 0.31682 0.0
C659 C 0.67881 0.17574 0.37235 0.0
C660 C 0.66156 0.16947 0.34735 0.0
C661 C 0.61446 0.15288 0.27263 0.0
C662 C 0.6289 0.15874 0.2994 0.0
H663 H 0.74008 0.21816 0.39343 0.0
H664 H 0.7147 0.20041 0.35107 0.0
H665 H 0.64744 0.12665 0.35375 0.0
H666 H 0.55827 0.10941 0.24227 0.0
H667 H 0.57797 0.12392 0.28822 0.0
C668 C 0.38421 0.67154 0.32411 0.0
C669 C 0.37805 0.6967 0.32563 0.0
C670 C 0.39467 0.6613 0.34725 0.0
C671 C 0.40706 0.67198 0.42472 0.0
H672 H 0.45983 0.62918 0.41016 0.0
C673 C 0.46903 0.63896 0.51467 0.0
C674 C 0.47689 0.6146 0.51141 0.0
C675 C 0.4567 0.64927 0.49268 0.0
C676 C 0.44482 0.6407 0.41493 0.0
H677 H 0.3782 0.7309 0.35281 0.0
H678 H 0.39639 0.71334 0.39308 0.0
H679 H 0.43836 0.64544 0.37186 0.0
H680 H 0.47725 0.58197 0.48199 0.0
H681 H 0.45532 0.59913 0.44461 0.0
H682 H 0.41365 0.66724 0.46789 0.0
C683 C 0.39266 0.70098 0.37428 0.0
C684 C 0.43233 0.65015 0.39263 0.0
C685 C 0.3821 0.71115 0.3511 0.0
C686 C 0.47171 0.60083 0.48554 0.0
C687 C 0.45925 0.61095 0.46374 0.0
C688 C 0.41953 0.66244 0.44709 0.0
C689 C 0.39971 0.67604 0.37271 0.0
C690 C 0.41304 0.66588 0.39697 0.0
C691 C 0.45162 0.63551 0.46666 0.0
C692 C 0.43858 0.64643 0.4427 0.0
H693 H 0.38185 0.66012 0.30467 0.0
H694 H 0.39913 0.64184 0.34495 0.0
H695 H 0.39224 0.68374 0.42935 0.0
H696 H 0.4727 0.65031 0.53414 0.0
H697 H 0.45164 0.66835 0.49607 0.0
C698 C 0.1486 0.45791 0.80721 0.0
C699 C 0.1384 0.45918 0.78042 0.0
C700 C 0.14017 0.47225 0.82958 0.0
C701 C 0.08122 0.50253 0.84951 0.0
H702 H 0.12682 0.53094 0.91367 0.0
C703 C 0.04169 0.56655 0.93328 0.0
C704 C 0.05009 0.56691 0.96097 0.0
C705 C 0.05299 0.55291 0.91247 0.0
C706 C 0.11354 0.52284 0.89615 0.0
H707 H 0.11211 0.47697 0.75578 0.0
H708 H 0.09811 0.50262 0.79422 0.0
H709 H 0.14667 0.51008 0.87513 0.0
H710 H 0.07738 0.55325 0.9885 0.0
H711 H 0.09718 0.52902 0.95218 0.0
H712 H 0.04796 0.51451 0.87037 0.0
C713 C 0.1122 0.49026 0.79842 0.0
C714 C 0.12506 0.51088 0.87383 0.0
C715 C 0.12059 0.4759 0.77617 0.0
C716 C 0.07011 0.55298 0.96742 0.0
C717 C 0.08173 0.53939 0.94641 0.0
C718 C 0.0697 0.51425 0.87177 0.0
C719 C 0.12109 0.48804 0.82571 0.0
C720 C 0.10918 0.50081 0.84993 0.0
C721 C 0.07335 0.53911 0.91846 0.0
C722 C 0.08568 0.52504 0.89541 0.0
H723 H 0.16202 0.44479 0.81112 0.0
H724 H 0.14751 0.46978 0.8501 0.0
H725 H 0.06782 0.49435 0.83209 0.0
H726 H 0.02633 0.57709 0.92758 0.0
H727 H 0.04613 0.55393 0.89145 0.0
C728 C 0.61647 0.86584 0.87403 0.0
C729 C 0.62105 0.84362 0.88746 0.0
C730 C 0.6043 0.88428 0.88842 0.0
C731 C 0.58752 0.90397 0.96198 0.0
H732 H 0.55504 0.95329 0.92359 0.0
C733 C 0.56274 0.99481 0.02176 0.0
C734 C 0.54204 1.00635 1.01183 0.0
C735 C 0.57087 0.97443 1.00633 0.0
C736 C 0.56356 0.93953 0.93502 0.0
H737 H 0.61507 0.82221 0.92565 0.0
H738 H 0.59286 0.85294 0.95019 0.0
H739 H 0.56856 0.91778 0.89772 0.0
H740 H 0.514 1.00559 0.97748 0.0
H741 H 0.52723 0.97002 0.95126 0.0
H742 H 0.58042 0.92415 0.99948 0.0
C743 C 0.59973 0.85754 0.92919 0.0
C744 C 0.57201 0.9192 0.91983 0.0
C745 C 0.61229 0.83954 0.91499 0.0
C746 C 0.53 0.99719 0.9859 0.0
C747 C 0.53791 0.97673 0.9706 0.0
C748 C 0.57828 0.9237 0.97722 0.0
C749 C 0.59605 0.88072 0.91652 0.0
C750 C 0.5848 0.90133 0.93289 0.0
C751 C 0.55842 0.96473 0.9805 0.0
C752 C 0.56674 0.9424 0.96407 0.0
H753 H 0.62256 0.86915 0.85258 0.0
H754 H 0.6021 0.90162 0.87751 0.0
H755 H 0.59744 0.89124 0.97336 0.0
H756 H 0.57228 1.00111 0.04175 0.0
H757 H 0.58712 0.96651 1.01483 0.0
C758 C 0.80604 0.20478 0.47372 0.0
C759 C 0.78007 0.19602 0.48689 0.0
C760 C 0.82675 0.19174 0.47792 0.0
C761 C 0.84969 0.14806 0.52413 0.0
H762 H 0.88257 0.12381 0.45793 0.0
C763 C 0.91207 0.07293 0.53303 0.0
C764 C 0.93933 0.08166 0.52289 0.0
C765 C 0.89176 0.08486 0.52423 0.0
C766 C 0.87358 0.13063 0.47645 0.0
H767 H 0.75472 0.16757 0.51476 0.0
H768 H 0.79156 0.14449 0.52262 0.0
H769 H 0.84944 0.15149 0.45364 0.0
H770 H 0.96702 0.10747 0.49438 0.0
H771 H 0.93136 0.12933 0.47939 0.0
H772 H 0.87374 0.12736 0.54698 0.0
C773 C 0.79582 0.16156 0.50922 0.0
C774 C 0.85487 0.14643 0.47407 0.0
C775 C 0.77491 0.17453 0.50479 0.0
C776 C 0.94587 0.10068 0.50222 0.0
C777 C 0.92559 0.113 0.49368 0.0
C778 C 0.86834 0.13233 0.52649 0.0
C779 C 0.82159 0.16986 0.49535 0.0
C780 C 0.84258 0.15482 0.49792 0.0
C781 C 0.89889 0.106 0.50577 0.0
C782 C 0.87989 0.12309 0.50266 0.0
H783 H 0.80993 0.22117 0.45946 0.0
H784 H 0.84657 0.19843 0.46721 0.0
H785 H 0.84076 0.15486 0.54271 0.0
H786 H 0.90691 0.05794 0.54883 0.0
H787 H 0.87101 0.0789 0.53328 0.0
C788 C 0.2973 0.70519 0.18258 0.0
C789 C 0.29528 0.70979 0.21131 0.0
C790 C 0.27341 0.69457 0.16641 0.0
C791 C 0.19666 0.66041 0.16892 0.0
H792 H 0.19646 0.69295 0.09775 0.0
C793 C 0.09494 0.63785 0.10374 0.0
C794 C 0.09659 0.63801 0.07471 0.0
C795 C 0.11894 0.64706 0.12014 0.0
C796 C 0.19603 0.68319 0.1173 0.0
H797 H 0.26627 0.70587 0.24564 0.0
H798 H 0.22429 0.687 0.21748 0.0
H799 H 0.23788 0.70582 0.1266 0.0
H800 H 0.12492 0.64776 0.04005 0.0
H801 H 0.16706 0.66343 0.06836 0.0
H802 H 0.15511 0.63734 0.1595 0.0
C803 C 0.24455 0.69147 0.2074 0.0
C804 C 0.22004 0.6907 0.13405 0.0
C805 C 0.26864 0.70216 0.22368 0.0
C806 C 0.12288 0.6481 0.06239 0.0
C807 C 0.14712 0.657 0.07882 0.0
C808 C 0.17273 0.65267 0.15204 0.0
C809 C 0.24649 0.68825 0.17832 0.0
C810 C 0.22078 0.67957 0.16025 0.0
C811 C 0.14571 0.65617 0.10808 0.0
C812 C 0.17177 0.6641 0.12596 0.0
H813 H 0.31748 0.71097 0.17236 0.0
H814 H 0.2761 0.69184 0.14434 0.0
H815 H 0.19637 0.65097 0.18866 0.0
H816 H 0.075 0.62973 0.11382 0.0
H817 H 0.11635 0.64661 0.14238 0.0
C818 C 0.2448 0.42183 0.67569 0.0
C819 C 0.22353 0.43477 0.68183 0.0
C820 C 0.2713 0.43637 0.66715 0.0
C821 C 0.32044 0.50421 0.66593 0.0
H822 H 0.35493 0.47051 0.60743 0.0
C823 C 0.42938 0.55382 0.61441 0.0
C824 C 0.44555 0.53601 0.60642 0.0
C825 C 0.40222 0.54387 0.6252 0.0
C826 C 0.34586 0.48015 0.62404 0.0
H827 H 0.21403 0.4736 0.68435 0.0
H828 H 0.26065 0.49917 0.66945 0.0
H829 H 0.30779 0.44904 0.62239 0.0
H830 H 0.44714 0.4944 0.60547 0.0
H831 H 0.40085 0.4773 0.62525 0.0
H832 H 0.35897 0.53536 0.66747 0.0
C833 C 0.25662 0.47761 0.67137 0.0
C834 C 0.31868 0.46779 0.63261 0.0
C835 C 0.2299 0.46295 0.67992 0.0
C836 C 0.43494 0.50852 0.61104 0.0
C837 C 0.40825 0.49871 0.62217 0.0
C838 C 0.34788 0.51665 0.65733 0.0
C839 C 0.27755 0.46441 0.66448 0.0
C840 C 0.30574 0.47927 0.65408 0.0
C841 C 0.39102 0.51602 0.6284 0.0
C842 C 0.36119 0.5044 0.63669 0.0
H843 H 0.24105 0.40029 0.67759 0.0
H844 H 0.28702 0.42554 0.66274 0.0
H845 H 0.31112 0.51367 0.68249 0.0
H846 H 0.4371 0.57514 0.61097 0.0
H847 H 0.38961 0.55783 0.62982 0.0
C848 C 0.73166 0.7403 0.84034 0.0
C849 C 0.7215 0.75844 0.85738 0.0
C850 C 0.75179 0.72797 0.85015 0.0
C851 C 0.78509 0.71434 0.91544 0.0
H852 H 0.84651 0.70806 0.86744 0.0
C853 C 0.88352 0.69253 0.96165 0.0
C854 C 0.89898 0.67753 0.9464 0.0
C855 C 0.8618 0.70098 0.94946 0.0
C856 C 0.82941 0.70927 0.88115 0.0
H857 H 0.72456 0.77764 0.89811 0.0
H858 H 0.75957 0.75652 0.91514 0.0
H859 H 0.80811 0.724 0.84903 0.0
H860 H 0.9037 0.66019 0.90577 0.0
H861 H 0.86516 0.67425 0.88455 0.0
H862 H 0.80579 0.69943 0.94744 0.0
C863 C 0.75165 0.75122 0.89437 0.0
C864 C 0.80726 0.71849 0.87051 0.0
C865 C 0.73144 0.76336 0.88464 0.0
C866 C 0.8923 0.6717 0.91822 0.0
C867 C 0.87016 0.67989 0.90601 0.0
C868 C 0.80701 0.70501 0.92599 0.0
C869 C 0.76241 0.73354 0.87725 0.0
C870 C 0.78501 0.72166 0.88767 0.0
C871 C 0.85427 0.69445 0.92156 0.0
C872 C 0.82993 0.70281 0.90927 0.0
H873 H 0.72434 0.73598 0.81922 0.0
H874 H 0.75913 0.71417 0.83644 0.0
H875 H 0.76808 0.71576 0.92921 0.0
H876 H 0.8884 0.69804 0.98317 0.0
H877 H 0.85107 0.71294 0.9621 0.0
C878 C 0.37132 0.79698 0.18365 0.0
C879 C 0.37005 0.79554 0.21266 0.0
C880 C 0.38344 0.82128 0.17073 0.0
C881 C 0.42512 0.89355 0.1866 0.0
H882 H 0.406 0.90294 0.1107 0.0
C883 C 0.46056 0.99803 0.139 0.0
C884 C 0.46967 0.99988 0.11137 0.0
C885 C 0.44631 0.97328 0.14979 0.0
C886 C 0.41175 0.90073 0.13188 0.0
H887 H 0.38044 0.8189 0.25082 0.0
H888 H 0.39985 0.86137 0.22884 0.0
H889 H 0.38607 0.86054 0.13246 0.0
H890 H 0.47063 0.97713 0.07314 0.0
H891 H 0.4463 0.93356 0.09205 0.0
H892 H 0.45032 0.93404 0.18601 0.0
C893 C 0.39269 0.84372 0.21553 0.0
C894 C 0.40035 0.87604 0.14457 0.0
C895 C 0.38121 0.8192 0.22842 0.0
C896 C 0.46327 0.97643 0.09437 0.0
C897 C 0.44942 0.9514 0.10534 0.0
C898 C 0.4361 0.91828 0.17406 0.0
C899 C 0.39418 0.84538 0.18632 0.0
C900 C 0.40667 0.87187 0.17233 0.0
C901 C 0.44145 0.94931 0.13353 0.0
C902 C 0.42952 0.92245 0.14654 0.0
H903 H 0.36334 0.77906 0.17079 0.0
H904 H 0.38455 0.82077 0.14839 0.0
H905 H 0.43171 0.89164 0.2075 0.0
H906 H 0.46535 1.01572 0.15264 0.0
H907 H 0.4398 0.97292 0.17126 0.0
C908 C 0.14982 0.3443 0.64149 0.0
C909 C 0.14656 0.34914 0.67006 0.0
C910 C 0.13932 0.31847 0.6294 0.0
C911 C 0.11356 0.24584 0.64758 0.0
H912 H 0.07945 0.23791 0.57503 0.0
C913 C 0.04783 0.14205 0.60515 0.0
C914 C 0.04738 0.13654 0.57645 0.0
C915 C 0.06119 0.16775 0.61605 0.0
C916 C 0.08922 0.23956 0.59516 0.0
H917 H 0.13014 0.32992 0.70819 0.0
H918 H 0.11124 0.28561 0.68719 0.0
H919 H 0.10077 0.28261 0.59427 0.0
H920 H 0.06141 0.15386 0.53682 0.0
H921 H 0.08525 0.19798 0.55568 0.0
H922 H 0.10216 0.20287 0.64852 0.0
C923 C 0.1222 0.30159 0.67403 0.0
C924 C 0.10152 0.26542 0.60626 0.0
C925 C 0.13271 0.32729 0.68609 0.0
C926 C 0.06102 0.15732 0.55903 0.0
C927 C 0.07462 0.18286 0.56991 0.0
C928 C 0.10137 0.22001 0.63646 0.0
C929 C 0.1253 0.29667 0.6455 0.0
C930 C 0.11358 0.26902 0.63283 0.0
C931 C 0.07477 0.18866 0.59861 0.0
C932 C 0.08869 0.21637 0.61017 0.0
H933 H 0.16018 0.36055 0.62835 0.0
H934 H 0.14245 0.31559 0.60742 0.0
H935 H 0.12317 0.24758 0.66781 0.0
H936 H 0.0375 0.12663 0.61922 0.0
H937 H 0.06033 0.17128 0.6382 0.0
C938 C 0.68696 0.29049 0.49757 0.0
C939 C 0.71492 0.297 0.5059 0.0
C940 C 0.66835 0.30307 0.51071 0.0
C941 C 0.67352 0.36827 0.54311 0.0
H942 H 0.59333 0.34197 0.55323 0.0
C943 C 0.60822 0.44033 0.57461 0.0
C944 C 0.58484 0.43849 0.55778 0.0
C945 C 0.62158 0.41961 0.57408 0.0
C946 C 0.61573 0.34949 0.55054 0.0
H947 H 0.74539 0.31861 0.53575 0.0
H948 H 0.71275 0.34055 0.55922 0.0
H949 H 0.62146 0.30999 0.54321 0.0
H950 H 0.55624 0.41334 0.52822 0.0
H951 H 0.57975 0.37718 0.5271 0.0
H952 H 0.66789 0.40768 0.54927 0.0
C953 C 0.70522 0.32639 0.54223 0.0
C954 C 0.63176 0.33126 0.54488 0.0
C955 C 0.72381 0.31394 0.52894 0.0
C956 C 0.57401 0.415 0.5417 0.0
C957 C 0.58746 0.39434 0.54104 0.0
C958 C 0.65758 0.38638 0.54878 0.0
C959 C 0.67778 0.32215 0.53225 0.0
C960 C 0.66079 0.34057 0.54107 0.0
C961 C 0.61182 0.39685 0.55661 0.0
C962 C 0.62856 0.37719 0.55249 0.0
H963 H 0.67994 0.27694 0.47996 0.0
H964 H 0.64732 0.2994 0.50262 0.0
H965 H 0.69571 0.37611 0.53925 0.0
H966 H 0.61678 0.45823 0.58732 0.0
H967 H 0.64014 0.42179 0.58657 0.0
loop_
_geom_bond_atom_site_label_1
_geom_bond_atom_site_label_2
_geom_bond_distance
_geom_bond_site_symmetry_2
_ccdc_geom_bond_type
H0 C3 0.929 . S
H1 C6 0.929 . S
H2 C8 0.930 . S
C3 H0 0.929 . S
C3 C4 1.398 . S
C3 C5 1.396 . S
C4 C3 1.398 . S
C4 C8 1.407 . S
C5 C3 1.396 . S
C5 C6 1.394 . S
C6 H1 0.929 . S
C6 C5 1.394 . S
C6 C7 1.382 . S
C7 C6 1.382 . S
C7 C8 1.392 . S
C7 N9 1.420 . S
C8 H2 0.930 . S
C8 C4 1.407 . S
C8 C7 1.392 . S
N9 C7 1.420 . S
N9 C10 1.244 . S
C10 N9 1.244 . S
H11 C14 0.929 . S
H12 C17 0.929 . S
H13 C19 0.930 . S
C14 H11 0.929 . S
C14 C15 1.398 . S
C14 C16 1.396 . S
C15 C14 1.398 . S
C15 C19 1.407 . S
C16 C14 1.396 . S
C16 C17 1.394 . S
C17 H12 0.929 . S
C17 C16 1.394 . S
C17 C18 1.382 . S
C18 C17 1.382 . S
C18 C19 1.392 . S
C18 N20 1.420 . S
C19 H13 0.930 . S
C19 C15 1.407 . S
C19 C18 1.392 . S
N20 C18 1.420 . S
N20 C21 1.244 . S
C21 N20 1.244 . S
H22 C25 0.929 . S
H23 C28 0.929 . S
H24 C30 0.930 . S
C25 H22 0.929 . S
C25 C26 1.398 . S
C25 C27 1.396 . S
C26 C25 1.398 . S
C26 C30 1.407 . S
C27 C25 1.396 . S
C27 C28 1.394 . S
C28 H23 0.929 . S
C28 C27 1.394 . S
C28 C29 1.382 . S
C29 C28 1.382 . S
C29 C30 1.392 . S
C29 N31 1.420 . S
C30 H24 0.930 . S
C30 C26 1.407 . S
C30 C29 1.392 . S
N31 C29 1.420 . S
N31 C32 1.244 . S
C32 N31 1.244 . S
H33 C36 0.929 . S
H34 C39 0.929 . S
H35 C41 0.930 . S
C36 H33 0.929 . S
C36 C37 1.398 . S
C36 C38 1.396 . S
C37 C36 1.398 . S
C37 C41 1.407 . S
C38 C36 1.396 . S
C38 C39 1.394 . S
C39 H34 0.929 . S
C39 C38 1.394 . S
C39 C40 1.382 . S
C40 C39 1.382 . S
C40 C41 1.392 . S
C40 N42 1.420 . S
C41 H35 0.930 . S
C41 C37 1.407 . S
C41 C40 1.392 . S
N42 C40 1.420 . S
N42 C43 1.244 . S
C43 N42 1.244 . S
H44 C47 0.929 . S
H45 C50 0.929 . S
H46 C52 0.930 . S
C47 H44 0.929 . S
C47 C48 1.398 . S
C47 C49 1.396 . S
C48 C47 1.398 . S
C48 C52 1.407 . S
C49 C47 1.396 . S
C49 C50 1.394 . S
C50 H45 0.929 . S
C50 C49 1.394 . S
C50 C51 1.382 . S
C51 C50 1.382 . S
C51 C52 1.392 . S
C51 N53 1.420 . S
C52 H46 0.930 . S
C52 C48 1.407 . S
C52 C51 1.392 . S
N53 C51 1.420 . S
N53 C54 1.244 . S
C54 N53 1.244 . S
H55 C58 0.929 . S
H56 C61 0.929 . S
H57 C63 0.930 . S
C58 H55 0.929 . S
C58 C59 1.398 . S
C58 C60 1.396 . S
C59 C58 1.398 . S
C59 C63 1.407 . S
C60 C58 1.396 . S
C60 C61 1.394 . S
C61 H56 0.929 . S
C61 C60 1.394 . S
C61 C62 1.382 . S
C62 C61 1.382 . S
C62 C63 1.392 . S
C62 N64 1.420 . S
C63 H57 0.930 . S
C63 C59 1.407 . S
C63 C62 1.392 . S
N64 C62 1.420 . S
N64 C65 1.244 . S
C65 N64 1.244 . S
H66 C69 0.929 . S
H67 C72 0.929 . S
H68 C74 0.930 . S
C69 H66 0.929 . S
C69 C70 1.398 . S
C69 C71 1.396 . S
C70 C69 1.398 . S
C70 C74 1.407 . S
C71 C69 1.396 . S
C71 C72 1.394 . S
C72 H67 0.929 . S
C72 C71 1.394 . S
C72 C73 1.382 . S
C73 C72 1.382 . S
C73 C74 1.392 . S
C73 N75 1.420 . S
C74 H68 0.930 . S
C74 C70 1.407 . S
C74 C73 1.392 . S
N75 C73 1.420 . S
N75 C76 1.244 . S
C76 N75 1.244 . S
H77 C80 0.929 . S
H78 C83 0.929 . S
H79 C85 0.930 . S
C80 H77 0.929 . S
C80 C81 1.398 . S
C80 C82 1.396 . S
C81 C80 1.398 . S
C81 C85 1.407 . S
C82 C80 1.396 . S
C82 C83 1.394 . S
C83 H78 0.929 . S
C83 C82 1.394 . S
C83 C84 1.382 . S
C84 C83 1.382 . S
C84 C85 1.392 . S
C84 N86 1.420 . S
C85 H79 0.930 . S
C85 C81 1.407 . S
C85 C84 1.392 . S
N86 C84 1.420 . S
N86 C87 1.244 . S
C87 N86 1.244 . S
Sm88 C90 2.846 . S
Sm88 O108 2.543 . S
Sm88 O109 2.450 . S
Sm88 O110 2.681 . S
Sm88 O111 2.464 . S
Sm88 O112 2.396 . S
Sm88 O116 2.386 1_455 S
Sm88 O119 2.408 1_545 S
Sm89 C99 2.846 1_545 S
Sm89 O110 2.386 1_655 S
Sm89 O113 2.408 1_655 S
Sm89 O114 2.543 1_545 S
Sm89 O115 2.450 1_545 S
Sm89 O116 2.681 . S
Sm89 O117 2.464 . S
Sm89 O118 2.396 1_545 S
C90 Sm88 2.846 . S
C90 C91 1.506 . S
C90 O108 1.261 . S
C90 O109 1.242 . S
C91 C90 1.506 . S
C91 C92 1.358 . S
C91 C96 1.382 . S
C92 C91 1.358 . S
C92 C93 1.385 . S
C92 H120 0.930 . S
C93 C92 1.385 . S
C93 C94 1.395 . S
C93 H121 0.929 . S
C94 C93 1.395 . S
C94 C95 1.335 . S
C95 C94 1.335 . S
C95 C96 1.398 . S
C95 H122 0.930 . S
C96 C91 1.382 . S
C96 C95 1.398 . S
C96 H123 0.929 . S
C97 O110 1.271 . S
C97 O111 1.251 . S
C98 O112 1.252 . S
C98 O113 1.272 . S
C99 Sm89 2.846 1_565 S
C99 C100 1.506 . S
C99 O114 1.261 . S
C99 O115 1.242 . S
C100 C99 1.506 . S
C100 C101 1.358 . S
C100 C105 1.382 . S
C101 C100 1.358 . S
C101 C102 1.385 . S
C101 H124 0.930 . S
C102 C101 1.385 . S
C102 C103 1.395 . S
C102 H125 0.929 . S
C103 C102 1.395 . S
C103 C104 1.335 . S
C104 C103 1.335 . S
C104 C105 1.398 . S
C104 H126 0.930 . S
C105 C100 1.382 . S
C105 C104 1.398 . S
C105 H127 0.929 . S
C106 O116 1.271 . S
C106 O117 1.251 . S
C107 O118 1.252 . S
C107 O119 1.272 1_655 S
O108 Sm88 2.543 . S
O108 C90 1.261 . S
O109 Sm88 2.450 . S
O109 C90 1.242 . S
O110 Sm88 2.681 . S
O110 Sm89 2.386 1_455 S
O110 C97 1.271 . S
O111 Sm88 2.464 . S
O111 C97 1.251 . S
O112 Sm88 2.396 . S
O112 C98 1.252 . S
O113 Sm89 2.408 1_455 S
O113 C98 1.272 . S
O114 Sm89 2.543 1_565 S
O114 C99 1.261 . S
O115 Sm89 2.450 1_565 S
O115 C99 1.242 . S
O116 Sm88 2.386 1_655 S
O116 Sm89 2.681 . S
O116 C106 1.271 . S
O117 Sm89 2.464 . S
O117 C106 1.251 . S
O118 Sm89 2.396 1_565 S
O118 C107 1.252 . S
O119 Sm88 2.408 1_565 S
O119 C107 1.272 1_455 S
H120 C92 0.930 . S
H121 C93 0.929 . S
H122 C95 0.930 . S
H123 C96 0.929 . S
H124 C101 0.930 . S
H125 C102 0.929 . S
H126 C104 0.930 . S
H127 C105 0.929 . S
Sm128 C130 2.846 . S
Sm128 O148 2.543 . S
Sm128 O149 2.450 . S
Sm128 O150 2.681 . S
Sm128 O151 2.464 1_545 S
Sm128 O152 2.396 . S
Sm128 O156 2.386 . S
Sm128 O159 2.408 . S
Sm129 C139 2.846 1_544 S
Sm129 O150 2.386 . S
Sm129 O153 2.408 . S
Sm129 O154 2.543 1_544 S
Sm129 O155 2.450 1_554 S
Sm129 O156 2.681 . S
Sm129 O157 2.466 . S
Sm129 O158 2.396 . S
C130 Sm128 2.846 . S
C130 C131 1.506 . S
C130 O148 1.261 . S
C130 O149 1.242 . S
C131 C130 1.506 . S
C131 C132 1.358 . S
C131 C136 1.382 . S
C132 C131 1.358 . S
C132 C133 1.385 . S
C132 H160 0.930 . S
C133 C132 1.385 . S
C133 C134 1.395 . S
C133 H161 0.929 . S
C134 C133 1.395 . S
C134 C135 1.335 . S
C135 C134 1.335 . S
C135 C136 1.398 . S
C135 H162 0.930 . S
C136 C131 1.382 . S
C136 C135 1.398 . S
C136 H163 0.929 . S
C137 O150 1.271 1_565 S
C137 O151 1.251 . S
C138 O152 1.252 . S
C138 O153 1.272 . S
C139 Sm129 2.846 1_566 S
C139 C140 1.506 . S
C139 O154 1.261 . S
C139 O155 1.242 1_565 S
C140 C139 1.506 . S
C140 C141 1.358 . S
C140 C145 1.382 . S
C141 C140 1.358 . S
C141 C142 1.385 . S
C141 H164 0.930 . S
C142 C141 1.385 . S
C142 C143 1.395 . S
C142 H165 0.929 . S
C143 C142 1.395 . S
C143 C144 1.335 . S
C144 C143 1.335 . S
C144 C145 1.398 . S
C144 H166 0.930 . S
C145 C140 1.382 . S
C145 C144 1.398 . S
C145 H167 0.929 1_565 S
C146 O156 1.271 . S
C146 O157 1.256 . S
C147 O158 1.242 1_565 S
C147 O159 1.271 1_565 S
O148 Sm128 2.543 . S
O148 C130 1.261 . S
O149 Sm128 2.450 . S
O149 C130 1.242 . S
O150 Sm128 2.681 . S
O150 Sm129 2.386 . S
O150 C137 1.271 1_545 S
O151 Sm128 2.464 1_565 S
O151 C137 1.251 . S
O152 Sm128 2.396 . S
O152 C138 1.252 . S
O153 Sm129 2.408 . S
O153 C138 1.272 . S
O154 Sm129 2.543 1_566 S
O154 C139 1.261 . S
O155 Sm129 2.450 1_556 S
O155 C139 1.242 1_545 S
O156 Sm128 2.386 . S
O156 Sm129 2.681 . S
O156 C146 1.271 . S
O157 Sm129 2.466 . S
O157 C146 1.256 . S
O158 Sm129 2.396 . S
O158 C147 1.242 1_545 S
O159 Sm128 2.408 . S
O159 C147 1.271 1_545 S
H160 C132 0.930 . S
H161 C133 0.929 . S
H162 C135 0.930 . S
H163 C136 0.929 . S
H164 C141 0.930 . S
H165 C142 0.929 . S
H166 C144 0.930 . S
H167 C145 0.929 1_545 S
Sm168 C170 2.846 . S
Sm168 O188 2.543 . S
Sm168 O189 2.450 . S
Sm168 O190 2.681 . S
Sm168 O191 2.464 . S
Sm168 O192 2.396 . S
Sm168 O196 2.386 . S
Sm168 O199 2.408 . S
Sm169 C179 2.846 . S
Sm169 O190 2.386 . S
Sm169 O193 2.408 . S
Sm169 O194 2.543 . S
Sm169 O195 2.450 . S
Sm169 O196 2.681 . S
Sm169 O197 2.464 . S
Sm169 O198 2.396 . S
C170 Sm168 2.846 . S
C170 C171 1.506 . S
C170 O188 1.261 . S
C170 O189 1.242 . S
C171 C170 1.506 . S
C171 C172 1.358 . S
C171 C176 1.382 . S
C172 C171 1.358 . S
C172 C173 1.385 . S
C172 H200 0.930 . S
C173 C172 1.385 . S
C173 C174 1.395 . S
C173 H201 0.929 . S
C174 C173 1.395 . S
C174 C175 1.335 . S
C175 C174 1.335 . S
C175 C176 1.398 . S
C175 H202 0.930 . S
C176 C171 1.382 . S
C176 C175 1.398 . S
C176 H203 0.929 . S
C177 O190 1.271 . S
C177 O191 1.251 . S
C178 O192 1.252 . S
C178 O193 1.272 . S
C179 Sm169 2.846 . S
C179 C180 1.506 . S
C179 O194 1.261 . S
C179 O195 1.242 . S
C180 C179 1.506 . S
C180 C181 1.358 . S
C180 C185 1.382 . S
C181 C180 1.358 . S
C181 C182 1.385 . S
C181 H204 0.930 . S
C182 C181 1.385 . S
C182 C183 1.395 . S
C182 H205 0.929 . S
C183 C182 1.395 . S
C183 C184 1.335 . S
C184 C183 1.335 . S
C184 C185 1.398 . S
C184 H206 0.930 . S
C185 C180 1.382 . S
C185 C184 1.398 . S
C185 H207 0.929 . S
C186 O196 1.271 . S
C186 O197 1.251 . S
C187 O198 1.252 . S
C187 O199 1.272 . S
O188 Sm168 2.543 . S
O188 C170 1.261 . S
O189 Sm168 2.450 . S
O189 C170 1.242 . S
O190 Sm168 2.681 . S
O190 Sm169 2.386 . S
O190 C177 1.271 . S
O191 Sm168 2.464 . S
O191 C177 1.251 . S
O192 Sm168 2.396 . S
O192 C178 1.252 . S
O193 Sm169 2.408 . S
O193 C178 1.272 . S
O194 Sm169 2.543 . S
O194 C179 1.261 . S
O195 Sm169 2.450 . S
O195 C179 1.242 . S
O196 Sm168 2.386 . S
O196 Sm169 2.681 . S
O196 C186 1.271 . S
O197 Sm169 2.464 . S
O197 C186 1.251 . S
O198 Sm169 2.396 . S
O198 C187 1.252 . S
O199 Sm168 2.408 . S
O199 C187 1.272 . S
H200 C172 0.930 . S
H201 C173 0.929 . S
H202 C175 0.930 . S
H203 C176 0.929 . S
H204 C181 0.930 . S
H205 C182 0.929 . S
H206 C184 0.930 . S
H207 C185 0.929 . S
Sm208 C210 2.846 . S
Sm208 O228 2.543 . S
Sm208 O229 2.450 . S
Sm208 O230 2.681 . S
Sm208 O231 2.464 . S
Sm208 O232 2.396 . S
Sm208 O236 2.386 1_554 S
Sm208 O239 2.408 1_455 S
Sm209 C219 2.846 1_455 S
Sm209 O230 2.386 1_556 S
Sm209 O233 2.408 1_556 S
Sm209 O234 2.543 1_455 S
Sm209 O235 2.450 . S
Sm209 O236 2.681 . S
Sm209 O237 2.464 . S
Sm209 O238 2.396 1_455 S
C210 Sm208 2.846 . S
C210 C211 1.506 . S
C210 O228 1.261 . S
C210 O229 1.242 . S
C211 C210 1.506 . S
C211 C212 1.358 . S
C211 C216 1.382 . S
C212 C211 1.358 . S
C212 C213 1.385 . S
C212 H240 0.930 . S
C213 C212 1.385 . S
C213 C214 1.395 . S
C213 H241 0.929 . S
C214 C213 1.395 . S
C214 C215 1.335 . S
C215 C214 1.335 . S
C215 C216 1.398 . S
C215 H242 0.930 . S
C216 C211 1.382 . S
C216 C215 1.398 . S
C216 H243 0.929 . S
C217 O230 1.271 . S
C217 O231 1.251 . S
C218 O232 1.252 . S
C218 O233 1.272 . S
C219 Sm209 2.846 1_655 S
C219 C220 1.506 . S
C219 O234 1.261 . S
C219 O235 1.242 1_655 S
C220 C219 1.506 . S
C220 C221 1.358 . S
C220 C225 1.382 . S
C221 C220 1.358 . S
C221 C222 1.385 . S
C221 H244 0.930 . S
C222 C221 1.385 . S
C222 C223 1.395 . S
C222 H245 0.929 . S
C223 C222 1.395 . S
C223 C224 1.335 . S
C224 C223 1.335 . S
C224 C225 1.398 . S
C224 H246 0.930 . S
C225 C220 1.382 . S
C225 C224 1.398 . S
C225 H247 0.929 . S
C226 O236 1.271 . S
C226 O237 1.251 . S
C227 O238 1.252 . S
C227 O239 1.272 1_556 S
O228 Sm208 2.543 . S
O228 C210 1.261 . S
O229 Sm208 2.450 . S
O229 C210 1.242 . S
O230 Sm208 2.681 . S
O230 Sm209 2.386 1_554 S
O230 C217 1.271 . S
O231 Sm208 2.464 . S
O231 C217 1.251 . S
O232 Sm208 2.396 . S
O232 C218 1.252 . S
O233 Sm209 2.408 1_554 S
O233 C218 1.272 . S
O234 Sm209 2.543 1_655 S
O234 C219 1.261 . S
O235 Sm209 2.450 . S
O235 C219 1.242 1_455 S
O236 Sm208 2.386 1_556 S
O236 Sm209 2.681 . S
O236 C226 1.271 . S
O237 Sm209 2.464 . S
O237 C226 1.251 . S
O238 Sm209 2.396 1_655 S
O238 C227 1.252 . S
O239 Sm208 2.408 1_655 S
O239 C227 1.272 1_554 S
H240 C212 0.930 . S
H241 C213 0.929 . S
H242 C215 0.930 . S
H243 C216 0.929 . S
H244 C221 0.930 . S
H245 C222 0.929 . S
H246 C224 0.930 . S
H247 C225 0.929 . S
C248 C249 1.349 . S
C248 C250 1.327 . S
C248 H273 0.950 . S
C249 C248 1.349 . S
C249 C265 1.349 . S
C250 C248 1.327 . S
C250 C269 1.429 . S
C250 H274 0.950 . S
C251 C268 1.574 . S
C251 C270 1.368 . S
C251 H275 0.949 . S
H252 C256 0.949 . S
C253 C254 1.349 . S
C253 C255 1.327 . S
C253 H276 0.950 . S
C254 C253 1.349 . S
C254 C266 1.349 . S
C255 C253 1.327 . S
C255 C271 1.429 . S
C255 H277 0.950 . S
C256 H252 0.949 . S
C256 C264 1.574 . S
C256 C272 1.368 . S
H257 C265 0.950 . S
H258 C263 0.950 . S
H259 C264 0.949 . S
H260 C266 0.950 . S
H261 C267 0.950 . S
H262 C268 0.949 . S
C263 H258 0.950 . S
C263 C265 1.327 . S
C263 C269 1.429 . S
C264 C256 1.574 . S
C264 H259 0.949 . S
C264 C270 1.368 . S
C265 C249 1.349 . S
C265 H257 0.950 . S
C265 C263 1.327 . S
C266 C254 1.349 . S
C266 H260 0.950 . S
C266 C267 1.327 . S
C267 H261 0.950 . S
C267 C266 1.327 . S
C267 C271 1.429 . S
C268 C251 1.574 . S
C268 H262 0.949 . S
C268 C272 1.368 . S
C269 C250 1.429 . S
C269 C263 1.429 . S
C269 C270 1.523 . S
C270 C251 1.368 . S
C270 C264 1.368 . S
C270 C269 1.523 . S
C271 C255 1.429 . S
C271 C267 1.429 . S
C271 C272 1.523 . S
C272 C256 1.368 . S
C272 C268 1.368 . S
C272 C271 1.523 . S
H273 C248 0.950 . S
H274 C250 0.950 . S
H275 C251 0.949 . S
H276 C253 0.950 . S
H277 C255 0.950 . S
C278 C279 1.349 . S
C278 C280 1.327 . S
C278 H303 0.950 . S
C279 C278 1.349 . S
C279 C295 1.349 . S
C280 C278 1.327 . S
C280 C299 1.429 . S
C280 H304 0.950 . S
C281 C298 1.574 . S
C281 C300 1.368 . S
C281 H305 0.949 . S
H282 C286 0.949 . S
C283 C284 1.349 . S
C283 C285 1.327 . S
C283 H306 0.950 . S
C284 C283 1.349 . S
C284 C296 1.349 . S
C285 C283 1.327 . S
C285 C301 1.429 . S
C285 H307 0.950 . S
C286 H282 0.949 . S
C286 C294 1.574 . S
C286 C302 1.368 . S
H287 C295 0.950 . S
H288 C293 0.950 . S
H289 C294 0.949 . S
H290 C296 0.950 . S
H291 C297 0.950 . S
H292 C298 0.949 . S
C293 H288 0.950 . S
C293 C295 1.327 . S
C293 C299 1.429 . S
C294 C286 1.574 . S
C294 H289 0.949 . S
C294 C300 1.368 . S
C295 C279 1.349 . S
C295 H287 0.950 . S
C295 C293 1.327 . S
C296 C284 1.349 . S
C296 H290 0.950 . S
C296 C297 1.327 . S
C297 H291 0.950 . S
C297 C296 1.327 . S
C297 C301 1.429 . S
C298 C281 1.574 . S
C298 H292 0.949 . S
C298 C302 1.368 . S
C299 C280 1.429 . S
C299 C293 1.429 . S
C299 C300 1.523 . S
C300 C281 1.368 . S
C300 C294 1.368 . S
C300 C299 1.523 . S
C301 C285 1.429 . S
C301 C297 1.429 . S
C301 C302 1.523 . S
C302 C286 1.368 . S
C302 C298 1.368 . S
C302 C301 1.523 . S
H303 C278 0.950 . S
H304 C280 0.950 . S
H305 C281 0.949 . S
H306 C283 0.950 . S
H307 C285 0.950 . S
C308 C309 1.349 . S
C308 C310 1.327 . S
C308 H333 0.950 . S
C309 C308 1.349 . S
C309 C325 1.349 . S
C310 C308 1.327 . S
C310 C329 1.429 . S
C310 H334 0.950 . S
C311 C328 1.574 . S
C311 C330 1.368 . S
C311 H335 0.949 . S
H312 C316 0.949 . S
C313 C314 1.349 . S
C313 C315 1.327 . S
C313 H336 0.950 . S
C314 C313 1.349 . S
C314 C326 1.349 . S
C315 C313 1.327 . S
C315 C331 1.429 . S
C315 H337 0.950 . S
C316 H312 0.949 . S
C316 C324 1.574 . S
C316 C332 1.368 . S
H317 C325 0.950 . S
H318 C323 0.950 . S
H319 C324 0.949 . S
H320 C326 0.950 . S
H321 C327 0.950 . S
H322 C328 0.949 . S
C323 H318 0.950 . S
C323 C325 1.327 . S
C323 C329 1.429 . S
C324 C316 1.574 . S
C324 H319 0.949 . S
C324 C330 1.368 . S
C325 C309 1.349 . S
C325 H317 0.950 . S
C325 C323 1.327 . S
C326 C314 1.349 . S
C326 H320 0.950 . S
C326 C327 1.327 . S
C327 H321 0.950 . S
C327 C326 1.327 . S
C327 C331 1.429 . S
C328 C311 1.574 . S
C328 H322 0.949 . S
C328 C332 1.368 . S
C329 C310 1.429 . S
C329 C323 1.429 . S
C329 C330 1.523 . S
C330 C311 1.368 . S
C330 C324 1.368 . S
C330 C329 1.523 . S
C331 C315 1.429 . S
C331 C327 1.429 . S
C331 C332 1.523 . S
C332 C316 1.368 . S
C332 C328 1.368 . S
C332 C331 1.523 . S
H333 C308 0.950 . S
H334 C310 0.950 . S
H335 C311 0.949 . S
H336 C313 0.950 . S
H337 C315 0.950 . S
C338 C339 1.349 . S
C338 C340 1.327 . S
C338 H363 0.950 . S
C339 C338 1.349 . S
C339 C355 1.349 . S
C340 C338 1.327 . S
C340 C359 1.429 . S
C340 H364 0.950 . S
C341 C358 1.574 . S
C341 C360 1.368 . S
C341 H365 0.949 . S
H342 C346 0.949 . S
C343 C344 1.349 . S
C343 C345 1.327 . S
C343 H366 0.950 . S
C344 C343 1.349 . S
C344 C356 1.349 . S
C345 C343 1.327 . S
C345 C361 1.429 . S
C345 H367 0.950 . S
C346 H342 0.949 . S
C346 C354 1.574 . S
C346 C362 1.368 . S
H347 C355 0.950 . S
H348 C353 0.950 . S
H349 C354 0.949 . S
H350 C356 0.950 1_455 S
H351 C357 0.950 . S
H352 C358 0.949 . S
C353 H348 0.950 . S
C353 C355 1.327 . S
C353 C359 1.429 . S
C354 C346 1.574 . S
C354 H349 0.949 . S
C354 C360 1.368 . S
C355 C339 1.349 . S
C355 H347 0.950 . S
C355 C353 1.327 . S
C356 C344 1.349 . S
C356 H350 0.950 1_655 S
C356 C357 1.327 . S
C357 H351 0.950 . S
C357 C356 1.327 . S
C357 C361 1.429 . S
C358 C341 1.574 . S
C358 H352 0.949 . S
C358 C362 1.368 . S
C359 C340 1.429 . S
C359 C353 1.429 . S
C359 C360 1.523 . S
C360 C341 1.368 . S
C360 C354 1.368 . S
C360 C359 1.523 . S
C361 C345 1.429 . S
C361 C357 1.429 . S
C361 C362 1.523 . S
C362 C346 1.368 . S
C362 C358 1.368 . S
C362 C361 1.523 . S
H363 C338 0.950 . S
H364 C340 0.950 . S
H365 C341 0.949 . S
H366 C343 0.950 . S
H367 C345 0.950 . S
C368 C369 1.349 . S
C368 C370 1.327 . S
C368 H393 0.950 . S
C369 C368 1.349 . S
C369 C385 1.349 . S
C370 C368 1.327 . S
C370 C389 1.429 . S
C370 H394 0.950 . S
C371 C388 1.574 . S
C371 C390 1.368 . S
C371 H395 0.949 . S
H372 C376 0.949 . S
C373 C374 1.349 . S
C373 C375 1.327 . S
C373 H396 0.950 . S
C374 C373 1.349 . S
C374 C386 1.349 . S
C375 C373 1.327 . S
C375 C391 1.429 . S
C375 H397 0.950 . S
C376 H372 0.949 . S
C376 C384 1.574 . S
C376 C392 1.368 . S
H377 C385 0.950 . S
H378 C383 0.950 . S
H379 C384 0.949 . S
H380 C386 0.950 . S
H381 C387 0.950 . S
H382 C388 0.949 . S
C383 H378 0.950 . S
C383 C385 1.327 . S
C383 C389 1.429 . S
C384 C376 1.574 . S
C384 H379 0.949 . S
C384 C390 1.368 . S
C385 C369 1.349 . S
C385 H377 0.950 . S
C385 C383 1.327 . S
C386 C374 1.349 . S
C386 H380 0.950 . S
C386 C387 1.327 . S
C387 H381 0.950 . S
C387 C386 1.327 . S
C387 C391 1.429 . S
C388 C371 1.574 . S
C388 H382 0.949 . S
C388 C392 1.368 . S
C389 C370 1.429 . S
C389 C383 1.429 . S
C389 C390 1.523 . S
C390 C371 1.368 . S
C390 C384 1.368 . S
C390 C389 1.523 . S
C391 C375 1.429 . S
C391 C387 1.429 . S
C391 C392 1.523 . S
C392 C376 1.368 . S
C392 C388 1.368 . S
C392 C391 1.523 . S
H393 C368 0.950 . S
H394 C370 0.950 . S
H395 C371 0.949 . S
H396 C373 0.950 . S
H397 C375 0.950 . S
C398 C399 1.349 . S
C398 C400 1.327 . S
C398 H423 0.950 . S
C399 C398 1.349 . S
C399 C415 1.349 . S
C400 C398 1.327 . S
C400 C419 1.429 . S
C400 H424 0.950 . S
C401 C418 1.574 . S
C401 C420 1.368 . S
C401 H425 0.949 . S
H402 C406 0.949 . S
C403 C404 1.349 . S
C403 C405 1.327 . S
C403 H426 0.950 . S
C404 C403 1.349 . S
C404 C416 1.349 1_545 S
C405 C403 1.327 . S
C405 C421 1.429 1_545 S
C405 H427 0.950 . S
C406 H402 0.949 . S
C406 C414 1.574 . S
C406 C422 1.368 . S
H407 C415 0.950 . S
H408 C413 0.950 . S
H409 C414 0.949 . S
H410 C416 0.950 . S
H411 C417 0.950 . S
H412 C418 0.949 . S
C413 H408 0.950 . S
C413 C415 1.327 . S
C413 C419 1.429 . S
C414 C406 1.574 . S
C414 H409 0.949 . S
C414 C420 1.368 . S
C415 C399 1.349 . S
C415 H407 0.950 . S
C415 C413 1.327 . S
C416 C404 1.349 1_565 S
C416 H410 0.950 . S
C416 C417 1.327 . S
C417 H411 0.950 . S
C417 C416 1.327 . S
C417 C421 1.429 . S
C418 C401 1.574 . S
C418 H412 0.949 . S
C418 C422 1.368 . S
C419 C400 1.429 . S
C419 C413 1.429 . S
C419 C420 1.523 . S
C420 C401 1.368 . S
C420 C414 1.368 . S
C420 C419 1.523 . S
C421 C405 1.429 1_565 S
C421 C417 1.429 . S
C421 C422 1.523 . S
C422 C406 1.368 . S
C422 C418 1.368 . S
C422 C421 1.523 . S
H423 C398 0.950 . S
H424 C400 0.950 . S
H425 C401 0.949 . S
H426 C403 0.950 . S
H427 C405 0.950 . S
C428 C429 1.349 . S
C428 C430 1.327 . S
C428 H453 0.950 . S
C429 C428 1.349 . S
C429 C445 1.349 . S
C430 C428 1.327 . S
C430 C449 1.429 . S
C430 H454 0.950 . S
C431 C448 1.574 . S
C431 C450 1.368 . S
C431 H455 0.949 . S
H432 C436 0.949 . S
C433 C434 1.349 . S
C433 C435 1.327 . S
C433 H456 0.950 . S
C434 C433 1.349 . S
C434 C446 1.349 . S
C435 C433 1.327 . S
C435 C451 1.429 . S
C435 H457 0.950 . S
C436 H432 0.949 . S
C436 C444 1.574 . S
C436 C452 1.368 . S
H437 C445 0.950 . S
H438 C443 0.950 . S
H439 C444 0.949 . S
H440 C446 0.950 . S
H441 C447 0.950 . S
H442 C448 0.949 . S
C443 H438 0.950 . S
C443 C445 1.327 . S
C443 C449 1.429 . S
C444 C436 1.574 . S
C444 H439 0.949 . S
C444 C450 1.368 . S
C445 C429 1.349 . S
C445 H437 0.950 . S
C445 C443 1.327 . S
C446 C434 1.349 . S
C446 H440 0.950 . S
C446 C447 1.327 . S
C447 H441 0.950 . S
C447 C446 1.327 . S
C447 C451 1.429 . S
C448 C431 1.574 . S
C448 H442 0.949 . S
C448 C452 1.368 . S
C449 C430 1.429 . S
C449 C443 1.429 . S
C449 C450 1.523 . S
C450 C431 1.368 . S
C450 C444 1.368 . S
C450 C449 1.523 . S
C451 C435 1.429 . S
C451 C447 1.429 . S
C451 C452 1.523 . S
C452 C436 1.368 . S
C452 C448 1.368 . S
C452 C451 1.523 . S
H453 C428 0.950 . S
H454 C430 0.950 . S
H455 C431 0.949 . S
H456 C433 0.950 . S
H457 C435 0.950 . S
C458 C459 1.349 . S
C458 C460 1.327 . S
C458 H483 0.950 . S
C459 C458 1.349 . S
C459 C475 1.349 . S
C460 C458 1.327 . S
C460 C479 1.429 . S
C460 H484 0.950 . S
C461 C478 1.574 . S
C461 C480 1.368 . S
C461 H485 0.949 . S
H462 C466 0.949 . S
C463 C464 1.349 . S
C463 C465 1.327 . S
C463 H486 0.950 . S
C464 C463 1.349 . S
C464 C476 1.349 . S
C465 C463 1.327 . S
C465 C481 1.429 . S
C465 H487 0.950 . S
C466 H462 0.949 . S
C466 C474 1.574 . S
C466 C482 1.368 . S
H467 C475 0.950 . S
H468 C473 0.950 . S
H469 C474 0.949 . S
H470 C476 0.950 . S
H471 C477 0.950 . S
H472 C478 0.949 . S
C473 H468 0.950 . S
C473 C475 1.327 . S
C473 C479 1.429 . S
C474 C466 1.574 . S
C474 H469 0.949 . S
C474 C480 1.368 . S
C475 C459 1.349 . S
C475 H467 0.950 . S
C475 C473 1.327 . S
C476 C464 1.349 . S
C476 H470 0.950 . S
C476 C477 1.327 . S
C477 H471 0.950 . S
C477 C476 1.327 . S
C477 C481 1.429 . S
C478 C461 1.574 . S
C478 H472 0.949 . S
C478 C482 1.368 . S
C479 C460 1.429 . S
C479 C473 1.429 . S
C479 C480 1.523 . S
C480 C461 1.368 . S
C480 C474 1.368 . S
C480 C479 1.523 . S
C481 C465 1.429 . S
C481 C477 1.429 . S
C481 C482 1.523 . S
C482 C466 1.368 . S
C482 C478 1.368 . S
C482 C481 1.523 . S
H483 C458 0.950 . S
H484 C460 0.950 . S
H485 C461 0.949 . S
H486 C463 0.950 . S
H487 C465 0.950 . S
C488 C489 1.349 . S
C488 C490 1.327 . S
C488 H513 0.950 . S
C489 C488 1.349 . S
C489 C505 1.349 . S
C490 C488 1.327 . S
C490 C509 1.429 . S
C490 H514 0.950 . S
C491 C508 1.574 . S
C491 C510 1.368 . S
C491 H515 0.949 . S
H492 C496 0.949 . S
C493 C494 1.349 . S
C493 C495 1.327 . S
C493 H516 0.950 . S
C494 C493 1.349 . S
C494 C506 1.349 . S
C495 C493 1.327 . S
C495 C511 1.429 . S
C495 H517 0.950 . S
C496 H492 0.949 . S
C496 C504 1.574 . S
C496 C512 1.368 . S
H497 C505 0.950 . S
H498 C503 0.950 . S
H499 C504 0.949 . S
H500 C506 0.950 . S
H501 C507 0.950 . S
H502 C508 0.949 . S
C503 H498 0.950 . S
C503 C505 1.327 . S
C503 C509 1.429 . S
C504 C496 1.574 . S
C504 H499 0.949 . S
C504 C510 1.368 . S
C505 C489 1.349 . S
C505 H497 0.950 . S
C505 C503 1.327 . S
C506 C494 1.349 . S
C506 H500 0.950 . S
C506 C507 1.327 . S
C507 H501 0.950 . S
C507 C506 1.327 . S
C507 C511 1.429 . S
C508 C491 1.574 . S
C508 H502 0.949 . S
C508 C512 1.368 . S
C509 C490 1.429 . S
C509 C503 1.429 . S
C509 C510 1.523 . S
C510 C491 1.368 . S
C510 C504 1.368 . S
C510 C509 1.523 . S
C511 C495 1.429 . S
C511 C507 1.429 . S
C511 C512 1.523 . S
C512 C496 1.368 . S
C512 C508 1.368 . S
C512 C511 1.523 . S
H513 C488 0.950 . S
H514 C490 0.950 . S
H515 C491 0.949 . S
H516 C493 0.950 . S
H517 C495 0.950 . S
C518 C519 1.349 . S
C518 C520 1.327 . S
C518 H543 0.950 . S
C519 C518 1.349 . S
C519 C535 1.349 . S
C520 C518 1.327 . S
C520 C539 1.429 . S
C520 H544 0.950 . S
C521 C538 1.574 . S
C521 C540 1.368 . S
C521 H545 0.949 . S
H522 C526 0.949 . S
C523 C524 1.348 . S
C523 C525 1.335 . S
C523 H546 0.950 . S
C524 C523 1.348 . S
C524 C536 1.350 1_554 S
C525 C523 1.335 . S
C525 C541 1.414 1_554 S
C525 H547 0.956 . S
C526 H522 0.949 . S
C526 C534 1.574 . S
C526 C542 1.368 . S
H527 C535 0.950 . S
H528 C533 0.950 . S
H529 C534 0.949 . S
H530 C536 0.950 . S
H531 C537 0.950 . S
H532 C538 0.949 . S
C533 H528 0.950 . S
C533 C535 1.327 . S
C533 C539 1.429 . S
C534 C526 1.574 . S
C534 H529 0.949 . S
C534 C540 1.368 . S
C535 C519 1.349 . S
C535 H527 0.950 . S
C535 C533 1.327 . S
C536 C524 1.350 1_556 S
C536 H530 0.950 . S
C536 C537 1.327 . S
C537 H531 0.950 . S
C537 C536 1.327 . S
C537 C541 1.429 . S
C538 C521 1.574 . S
C538 H532 0.949 . S
C538 C542 1.368 . S
C539 C520 1.429 . S
C539 C533 1.429 . S
C539 C540 1.523 . S
C540 C521 1.368 . S
C540 C534 1.368 . S
C540 C539 1.523 . S
C541 C525 1.414 1_556 S
C541 C537 1.429 . S
C541 C542 1.523 . S
C542 C526 1.368 . S
C542 C538 1.368 . S
C542 C541 1.523 . S
H543 C518 0.950 . S
H544 C520 0.950 . S
H545 C521 0.949 . S
H546 C523 0.950 . S
H547 C525 0.956 . S
C548 C549 1.349 . S
C548 C550 1.327 . S
C548 H573 0.950 . S
C549 C548 1.349 . S
C549 C565 1.349 . S
C550 C548 1.327 . S
C550 C569 1.429 . S
C550 H574 0.950 . S
C551 C568 1.574 . S
C551 C570 1.368 . S
C551 H575 0.949 . S
H552 C556 0.949 . S
C553 C554 1.349 . S
C553 C555 1.327 . S
C553 H576 0.950 . S
C554 C553 1.349 . S
C554 C566 1.349 . S
C555 C553 1.327 . S
C555 C571 1.429 . S
C555 H577 0.950 . S
C556 H552 0.949 . S
C556 C564 1.574 . S
C556 C572 1.368 . S
H557 C565 0.950 . S
H558 C563 0.950 . S
H559 C564 0.949 . S
H560 C566 0.950 . S
H561 C567 0.950 . S
H562 C568 0.949 . S
C563 H558 0.950 . S
C563 C565 1.327 . S
C563 C569 1.429 . S
C564 C556 1.574 . S
C564 H559 0.949 . S
C564 C570 1.368 . S
C565 C549 1.349 . S
C565 H557 0.950 . S
C565 C563 1.327 . S
C566 C554 1.349 . S
C566 H560 0.950 . S
C566 C567 1.327 . S
C567 H561 0.950 . S
C567 C566 1.327 . S
C567 C571 1.429 . S
C568 C551 1.574 . S
C568 H562 0.949 . S
C568 C572 1.368 . S
C569 C550 1.429 . S
C569 C563 1.429 . S
C569 C570 1.523 . S
C570 C551 1.368 . S
C570 C564 1.368 . S
C570 C569 1.523 . S
C571 C555 1.429 . S
C571 C567 1.429 . S
C571 C572 1.523 . S
C572 C556 1.368 . S
C572 C568 1.368 . S
C572 C571 1.523 . S
H573 C548 0.950 . S
H574 C550 0.950 . S
H575 C551 0.949 . S
H576 C553 0.950 . S
H577 C555 0.950 . S
C578 C579 1.349 . S
C578 C580 1.327 . S
C578 H603 0.950 . S
C579 C578 1.349 . S
C579 C595 1.349 . S
C580 C578 1.327 . S
C580 C599 1.429 . S
C580 H604 0.950 . S
C581 C598 1.574 . S
C581 C600 1.368 . S
C581 H605 0.949 . S
H582 C586 0.949 . S
C583 C584 1.349 . S
C583 C585 1.327 . S
C583 H606 0.950 . S
C584 C583 1.349 . S
C584 C596 1.349 . S
C585 C583 1.327 . S
C585 C601 1.429 . S
C585 H607 0.950 . S
C586 H582 0.949 . S
C586 C594 1.574 . S
C586 C602 1.368 . S
H587 C595 0.950 . S
H588 C593 0.950 . S
H589 C594 0.949 . S
H590 C596 0.950 . S
H591 C597 0.950 . S
H592 C598 0.949 . S
C593 H588 0.950 . S
C593 C595 1.327 . S
C593 C599 1.429 . S
C594 C586 1.574 . S
C594 H589 0.949 . S
C594 C600 1.368 . S
C595 C579 1.349 . S
C595 H587 0.950 . S
C595 C593 1.327 . S
C596 C584 1.349 . S
C596 H590 0.950 . S
C596 C597 1.327 . S
C597 H591 0.950 . S
C597 C596 1.327 . S
C597 C601 1.429 . S
C598 C581 1.574 . S
C598 H592 0.949 . S
C598 C602 1.368 . S
C599 C580 1.429 . S
C599 C593 1.429 . S
C599 C600 1.523 . S
C600 C581 1.368 . S
C600 C594 1.368 . S
C600 C599 1.523 . S
C601 C585 1.429 . S
C601 C597 1.429 . S
C601 C602 1.523 . S
C602 C586 1.368 . S
C602 C598 1.368 . S
C602 C601 1.523 . S
H603 C578 0.950 . S
H604 C580 0.950 . S
H605 C581 0.949 . S
H606 C583 0.950 . S
H607 C585 0.950 . S
C608 C609 1.349 . S
C608 C610 1.327 . S
C608 H633 0.950 . S
C609 C608 1.349 . S
C609 C625 1.349 . S
C610 C608 1.327 . S
C610 C629 1.429 . S
C610 H634 0.950 . S
C611 C628 1.574 . S
C611 C630 1.368 . S
C611 H635 0.949 . S
H612 C616 0.949 . S
C613 C614 1.349 . S
C613 C615 1.327 . S
C613 H636 0.950 . S
C614 C613 1.349 . S
C614 C626 1.349 . S
C615 C613 1.327 . S
C615 C631 1.429 . S
C615 H637 0.950 . S
C616 H612 0.949 . S
C616 C624 1.574 . S
C616 C632 1.368 . S
H617 C625 0.950 . S
H618 C623 0.950 . S
H619 C624 0.949 . S
H620 C626 0.950 . S
H621 C627 0.950 . S
H622 C628 0.949 . S
C623 H618 0.950 . S
C623 C625 1.327 . S
C623 C629 1.429 . S
C624 C616 1.574 . S
C624 H619 0.949 . S
C624 C630 1.368 . S
C625 C609 1.349 . S
C625 H617 0.950 . S
C625 C623 1.327 . S
C626 C614 1.349 . S
C626 H620 0.950 . S
C626 C627 1.327 . S
C627 H621 0.950 . S
C627 C626 1.327 . S
C627 C631 1.429 . S
C628 C611 1.574 . S
C628 H622 0.949 . S
C628 C632 1.368 . S
C629 C610 1.429 . S
C629 C623 1.429 . S
C629 C630 1.523 . S
C630 C611 1.368 . S
C630 C624 1.368 . S
C630 C629 1.523 . S
C631 C615 1.429 . S
C631 C627 1.429 . S
C631 C632 1.523 . S
C632 C616 1.368 . S
C632 C628 1.368 . S
C632 C631 1.523 . S
H633 C608 0.950 . S
H634 C610 0.950 . S
H635 C611 0.949 . S
H636 C613 0.950 . S
H637 C615 0.950 . S
C638 C639 1.349 . S
C638 C640 1.327 . S
C638 H663 0.950 . S
C639 C638 1.349 . S
C639 C655 1.349 . S
C640 C638 1.327 . S
C640 C659 1.429 . S
C640 H664 0.950 . S
C641 C658 1.574 . S
C641 C660 1.368 . S
C641 H665 0.949 . S
H642 C646 0.949 . S
C643 C644 1.349 . S
C643 C645 1.327 . S
C643 H666 0.950 . S
C644 C643 1.349 . S
C644 C656 1.349 . S
C645 C643 1.327 . S
C645 C661 1.429 . S
C645 H667 0.950 . S
C646 H642 0.949 . S
C646 C654 1.574 . S
C646 C662 1.368 . S
H647 C655 0.950 . S
H648 C653 0.950 . S
H649 C654 0.949 . S
H650 C656 0.950 . S
H651 C657 0.950 . S
H652 C658 0.949 . S
C653 H648 0.950 . S
C653 C655 1.327 . S
C653 C659 1.429 . S
C654 C646 1.574 . S
C654 H649 0.949 . S
C654 C660 1.368 . S
C655 C639 1.349 . S
C655 H647 0.950 . S
C655 C653 1.327 . S
C656 C644 1.349 . S
C656 H650 0.950 . S
C656 C657 1.327 . S
C657 H651 0.950 . S
C657 C656 1.327 . S
C657 C661 1.429 . S
C658 C641 1.574 . S
C658 H652 0.949 . S
C658 C662 1.368 . S
C659 C640 1.429 . S
C659 C653 1.429 . S
C659 C660 1.523 . S
C660 C641 1.368 . S
C660 C654 1.368 . S
C660 C659 1.523 . S
C661 C645 1.429 . S
C661 C657 1.429 . S
C661 C662 1.523 . S
C662 C646 1.368 . S
C662 C658 1.368 . S
C662 C661 1.523 . S
H663 C638 0.950 . S
H664 C640 0.950 . S
H665 C641 0.949 . S
H666 C643 0.950 . S
H667 C645 0.950 . S
C668 C669 1.349 . S
C668 C670 1.327 . S
C668 H693 0.950 . S
C669 C668 1.349 . S
C669 C685 1.349 . S
C670 C668 1.327 . S
C670 C689 1.429 . S
C670 H694 0.950 . S
C671 C688 1.574 . S
C671 C690 1.368 . S
C671 H695 0.949 . S
H672 C676 0.949 . S
C673 C674 1.349 . S
C673 C675 1.327 . S
C673 H696 0.950 . S
C674 C673 1.349 . S
C674 C686 1.349 . S
C675 C673 1.327 . S
C675 C691 1.429 . S
C675 H697 0.950 . S
C676 H672 0.949 . S
C676 C684 1.574 . S
C676 C692 1.368 . S
H677 C685 0.950 . S
H678 C683 0.950 . S
H679 C684 0.949 . S
H680 C686 0.950 . S
H681 C687 0.950 . S
H682 C688 0.949 . S
C683 H678 0.950 . S
C683 C685 1.327 . S
C683 C689 1.429 . S
C684 C676 1.574 . S
C684 H679 0.949 . S
C684 C690 1.368 . S
C685 C669 1.349 . S
C685 H677 0.950 . S
C685 C683 1.327 . S
C686 C674 1.349 . S
C686 H680 0.950 . S
C686 C687 1.327 . S
C687 H681 0.950 . S
C687 C686 1.327 . S
C687 C691 1.429 . S
C688 C671 1.574 . S
C688 H682 0.949 . S
C688 C692 1.368 . S
C689 C670 1.429 . S
C689 C683 1.429 . S
C689 C690 1.523 . S
C690 C671 1.368 . S
C690 C684 1.368 . S
C690 C689 1.523 . S
C691 C675 1.429 . S
C691 C687 1.429 . S
C691 C692 1.523 . S
C692 C676 1.368 . S
C692 C688 1.368 . S
C692 C691 1.523 . S
H693 C668 0.950 . S
H694 C670 0.950 . S
H695 C671 0.949 . S
H696 C673 0.950 . S
H697 C675 0.950 . S
C698 C699 1.349 . S
C698 C700 1.327 . S
C698 H723 0.950 . S
C699 C698 1.349 . S
C699 C715 1.349 . S
C700 C698 1.327 . S
C700 C719 1.429 . S
C700 H724 0.950 . S
C701 C718 1.574 . S
C701 C720 1.368 . S
C701 H725 0.949 . S
H702 C706 0.949 . S
C703 C704 1.349 . S
C703 C705 1.327 . S
C703 H726 0.950 . S
C704 C703 1.349 . S
C704 C716 1.349 . S
C705 C703 1.327 . S
C705 C721 1.429 . S
C705 H727 0.950 . S
C706 H702 0.949 . S
C706 C714 1.574 . S
C706 C722 1.368 . S
H707 C715 0.950 . S
H708 C713 0.950 . S
H709 C714 0.949 . S
H710 C716 0.950 . S
H711 C717 0.950 . S
H712 C718 0.949 . S
C713 H708 0.950 . S
C713 C715 1.327 . S
C713 C719 1.429 . S
C714 C706 1.574 . S
C714 H709 0.949 . S
C714 C720 1.368 . S
C715 C699 1.349 . S
C715 H707 0.950 . S
C715 C713 1.327 . S
C716 C704 1.349 . S
C716 H710 0.950 . S
C716 C717 1.327 . S
C717 H711 0.950 . S
C717 C716 1.327 . S
C717 C721 1.429 . S
C718 C701 1.574 . S
C718 H712 0.949 . S
C718 C722 1.368 . S
C719 C700 1.429 . S
C719 C713 1.429 . S
C719 C720 1.523 . S
C720 C701 1.368 . S
C720 C714 1.368 . S
C720 C719 1.523 . S
C721 C705 1.429 . S
C721 C717 1.429 . S
C721 C722 1.523 . S
C722 C706 1.368 . S
C722 C718 1.368 . S
C722 C721 1.523 . S
H723 C698 0.950 . S
H724 C700 0.950 . S
H725 C701 0.949 . S
H726 C703 0.950 . S
H727 C705 0.950 . S
C728 C729 1.349 . S
C728 C730 1.327 . S
C728 H753 0.950 . S
C729 C728 1.349 . S
C729 C745 1.349 . S
C730 C728 1.327 . S
C730 C749 1.429 . S
C730 H754 0.950 . S
C731 C748 1.574 . S
C731 C750 1.368 . S
C731 H755 0.949 . S
H732 C736 0.949 . S
C733 C734 1.359 . S
C733 C735 1.338 . S
C733 H756 0.928 1_556 S
C734 C733 1.359 . S
C734 C746 1.349 . S
C735 C733 1.338 . S
C735 C751 1.429 . S
C735 H757 0.950 . S
C736 H732 0.949 . S
C736 C744 1.574 . S
C736 C752 1.368 . S
H737 C745 0.950 . S
H738 C743 0.950 . S
H739 C744 0.949 . S
H740 C746 0.950 . S
H741 C747 0.950 . S
H742 C748 0.949 . S
C743 H738 0.950 . S
C743 C745 1.327 . S
C743 C749 1.429 . S
C744 C736 1.574 . S
C744 H739 0.949 . S
C744 C750 1.368 . S
C745 C729 1.349 . S
C745 H737 0.950 . S
C745 C743 1.327 . S
C746 C734 1.349 . S
C746 H740 0.950 . S
C746 C747 1.327 . S
C747 H741 0.950 . S
C747 C746 1.327 . S
C747 C751 1.429 . S
C748 C731 1.574 . S
C748 H742 0.949 . S
C748 C752 1.368 . S
C749 C730 1.429 . S
C749 C743 1.429 . S
C749 C750 1.523 . S
C750 C731 1.368 . S
C750 C744 1.368 . S
C750 C749 1.523 . S
C751 C735 1.429 . S
C751 C747 1.429 . S
C751 C752 1.523 . S
C752 C736 1.368 . S
C752 C748 1.368 . S
C752 C751 1.523 . S
H753 C728 0.950 . S
H754 C730 0.950 . S
H755 C731 0.949 . S
H756 C733 0.928 1_554 S
H757 C735 0.950 . S
C758 C759 1.349 . S
C758 C760 1.327 . S
C758 H783 0.950 . S
C759 C758 1.349 . S
C759 C775 1.349 . S
C760 C758 1.327 . S
C760 C779 1.429 . S
C760 H784 0.950 . S
C761 C778 1.574 . S
C761 C780 1.368 . S
C761 H785 0.949 . S
H762 C766 0.949 . S
C763 C764 1.349 . S
C763 C765 1.327 . S
C763 H786 0.950 . S
C764 C763 1.349 . S
C764 C776 1.349 . S
C765 C763 1.327 . S
C765 C781 1.429 . S
C765 H787 0.950 . S
C766 H762 0.949 . S
C766 C774 1.574 . S
C766 C782 1.368 . S
H767 C775 0.950 . S
H768 C773 0.950 . S
H769 C774 0.949 . S
H770 C776 0.950 . S
H771 C777 0.950 . S
H772 C778 0.949 . S
C773 H768 0.950 . S
C773 C775 1.327 . S
C773 C779 1.429 . S
C774 C766 1.574 . S
C774 H769 0.949 . S
C774 C780 1.368 . S
C775 C759 1.349 . S
C775 H767 0.950 . S
C775 C773 1.327 . S
C776 C764 1.349 . S
C776 H770 0.950 . S
C776 C777 1.327 . S
C777 H771 0.950 . S
C777 C776 1.327 . S
C777 C781 1.429 . S
C778 C761 1.574 . S
C778 H772 0.949 . S
C778 C782 1.368 . S
C779 C760 1.429 . S
C779 C773 1.429 . S
C779 C780 1.523 . S
C780 C761 1.368 . S
C780 C774 1.368 . S
C780 C779 1.523 . S
C781 C765 1.429 . S
C781 C777 1.429 . S
C781 C782 1.523 . S
C782 C766 1.368 . S
C782 C778 1.368 . S
C782 C781 1.523 . S
H783 C758 0.950 . S
H784 C760 0.950 . S
H785 C761 0.949 . S
H786 C763 0.950 . S
H787 C765 0.950 . S
C788 C789 1.349 . S
C788 C790 1.327 . S
C788 H813 0.950 . S
C789 C788 1.349 . S
C789 C805 1.349 . S
C790 C788 1.327 . S
C790 C809 1.429 . S
C790 H814 0.950 . S
C791 C808 1.574 . S
C791 C810 1.368 . S
C791 H815 0.949 . S
H792 C796 0.949 . S
C793 C794 1.349 . S
C793 C795 1.327 . S
C793 H816 0.950 . S
C794 C793 1.349 . S
C794 C806 1.349 . S
C795 C793 1.327 . S
C795 C811 1.429 . S
C795 H817 0.950 . S
C796 H792 0.949 . S
C796 C804 1.574 . S
C796 C812 1.368 . S
H797 C805 0.950 . S
H798 C803 0.950 . S
H799 C804 0.949 . S
H800 C806 0.950 . S
H801 C807 0.950 . S
H802 C808 0.949 . S
C803 H798 0.950 . S
C803 C805 1.327 . S
C803 C809 1.429 . S
C804 C796 1.574 . S
C804 H799 0.949 . S
C804 C810 1.368 . S
C805 C789 1.349 . S
C805 H797 0.950 . S
C805 C803 1.327 . S
C806 C794 1.349 . S
C806 H800 0.950 . S
C806 C807 1.327 . S
C807 H801 0.950 . S
C807 C806 1.327 . S
C807 C811 1.429 . S
C808 C791 1.574 . S
C808 H802 0.949 . S
C808 C812 1.368 . S
C809 C790 1.429 . S
C809 C803 1.429 . S
C809 C810 1.523 . S
C810 C791 1.368 . S
C810 C804 1.368 . S
C810 C809 1.523 . S
C811 C795 1.429 . S
C811 C807 1.429 . S
C811 C812 1.523 . S
C812 C796 1.368 . S
C812 C808 1.368 . S
C812 C811 1.523 . S
H813 C788 0.950 . S
H814 C790 0.950 . S
H815 C791 0.949 . S
H816 C793 0.950 . S
H817 C795 0.950 . S
C818 C819 1.349 . S
C818 C820 1.327 . S
C818 H843 0.950 . S
C819 C818 1.349 . S
C819 C835 1.349 . S
C820 C818 1.327 . S
C820 C839 1.429 . S
C820 H844 0.950 . S
C821 C838 1.574 . S
C821 C840 1.368 . S
C821 H845 0.949 . S
H822 C826 0.949 . S
C823 C824 1.349 . S
C823 C825 1.327 . S
C823 H846 0.950 . S
C824 C823 1.349 . S
C824 C836 1.349 . S
C825 C823 1.327 . S
C825 C841 1.429 . S
C825 H847 0.950 . S
C826 H822 0.949 . S
C826 C834 1.574 . S
C826 C842 1.368 . S
H827 C835 0.950 . S
H828 C833 0.950 . S
H829 C834 0.949 . S
H830 C836 0.950 . S
H831 C837 0.950 . S
H832 C838 0.949 . S
C833 H828 0.950 . S
C833 C835 1.327 . S
C833 C839 1.429 . S
C834 C826 1.574 . S
C834 H829 0.949 . S
C834 C840 1.368 . S
C835 C819 1.349 . S
C835 H827 0.950 . S
C835 C833 1.327 . S
C836 C824 1.349 . S
C836 H830 0.950 . S
C836 C837 1.327 . S
C837 H831 0.950 . S
C837 C836 1.327 . S
C837 C841 1.429 . S
C838 C821 1.574 . S
C838 H832 0.949 . S
C838 C842 1.368 . S
C839 C820 1.429 . S
C839 C833 1.429 . S
C839 C840 1.523 . S
C840 C821 1.368 . S
C840 C834 1.368 . S
C840 C839 1.523 . S
C841 C825 1.429 . S
C841 C837 1.429 . S
C841 C842 1.523 . S
C842 C826 1.368 . S
C842 C838 1.368 . S
C842 C841 1.523 . S
H843 C818 0.950 . S
H844 C820 0.950 . S
H845 C821 0.949 . S
H846 C823 0.950 . S
H847 C825 0.950 . S
C848 C849 1.349 . S
C848 C850 1.327 . S
C848 H873 0.950 . S
C849 C848 1.349 . S
C849 C865 1.349 . S
C850 C848 1.327 . S
C850 C869 1.429 . S
C850 H874 0.950 . S
C851 C868 1.574 . S
C851 C870 1.368 . S
C851 H875 0.949 . S
H852 C856 0.949 . S
C853 C854 1.349 . S
C853 C855 1.327 . S
C853 H876 0.950 . S
C854 C853 1.349 . S
C854 C866 1.349 . S
C855 C853 1.327 . S
C855 C871 1.429 . S
C855 H877 0.950 . S
C856 H852 0.949 . S
C856 C864 1.574 . S
C856 C872 1.368 . S
H857 C865 0.950 . S
H858 C863 0.950 . S
H859 C864 0.949 . S
H860 C866 0.950 . S
H861 C867 0.950 . S
H862 C868 0.949 . S
C863 H858 0.950 . S
C863 C865 1.327 . S
C863 C869 1.429 . S
C864 C856 1.574 . S
C864 H859 0.949 . S
C864 C870 1.368 . S
C865 C849 1.349 . S
C865 H857 0.950 . S
C865 C863 1.327 . S
C866 C854 1.349 . S
C866 H860 0.950 . S
C866 C867 1.327 . S
C867 H861 0.950 . S
C867 C866 1.327 . S
C867 C871 1.429 . S
C868 C851 1.574 . S
C868 H862 0.949 . S
C868 C872 1.368 . S
C869 C850 1.429 . S
C869 C863 1.429 . S
C869 C870 1.523 . S
C870 C851 1.368 . S
C870 C864 1.368 . S
C870 C869 1.523 . S
C871 C855 1.429 . S
C871 C867 1.429 . S
C871 C872 1.523 . S
C872 C856 1.368 . S
C872 C868 1.368 . S
C872 C871 1.523 . S
H873 C848 0.950 . S
H874 C850 0.950 . S
H875 C851 0.949 . S
H876 C853 0.950 . S
H877 C855 0.950 . S
C878 C879 1.349 . S
C878 C880 1.327 . S
C878 H903 0.950 . S
C879 C878 1.349 . S
C879 C895 1.349 . S
C880 C878 1.327 . S
C880 C899 1.429 . S
C880 H904 0.950 . S
C881 C898 1.574 . S
C881 C900 1.368 . S
C881 H905 0.949 . S
H882 C886 0.949 . S
C883 C884 1.349 . S
C883 C885 1.327 . S
C883 H906 0.950 . S
C884 C883 1.349 . S
C884 C896 1.349 . S
C885 C883 1.327 . S
C885 C901 1.429 . S
C885 H907 0.950 . S
C886 H882 0.949 . S
C886 C894 1.574 . S
C886 C902 1.368 . S
H887 C895 0.950 . S
H888 C893 0.950 . S
H889 C894 0.949 . S
H890 C896 0.950 . S
H891 C897 0.950 . S
H892 C898 0.949 . S
C893 H888 0.950 . S
C893 C895 1.327 . S
C893 C899 1.429 . S
C894 C886 1.574 . S
C894 H889 0.949 . S
C894 C900 1.368 . S
C895 C879 1.349 . S
C895 H887 0.950 . S
C895 C893 1.327 . S
C896 C884 1.349 . S
C896 H890 0.950 . S
C896 C897 1.327 . S
C897 H891 0.950 . S
C897 C896 1.327 . S
C897 C901 1.429 . S
C898 C881 1.574 . S
C898 H892 0.949 . S
C898 C902 1.368 . S
C899 C880 1.429 . S
C899 C893 1.429 . S
C899 C900 1.523 . S
C900 C881 1.368 . S
C900 C894 1.368 . S
C900 C899 1.523 . S
C901 C885 1.429 . S
C901 C897 1.429 . S
C901 C902 1.523 . S
C902 C886 1.368 . S
C902 C898 1.368 . S
C902 C901 1.523 . S
H903 C878 0.950 . S
H904 C880 0.950 . S
H905 C881 0.949 . S
H906 C883 0.950 . S
H907 C885 0.950 . S
C908 C909 1.349 . S
C908 C910 1.327 . S
C908 H933 0.950 . S
C909 C908 1.349 . S
C909 C925 1.349 . S
C910 C908 1.327 . S
C910 C929 1.429 . S
C910 H934 0.950 . S
C911 C928 1.574 . S
C911 C930 1.368 . S
C911 H935 0.949 . S
H912 C916 0.949 . S
C913 C914 1.349 . S
C913 C915 1.327 . S
C913 H936 0.950 . S
C914 C913 1.349 . S
C914 C926 1.349 . S
C915 C913 1.327 . S
C915 C931 1.429 . S
C915 H937 0.950 . S
C916 H912 0.949 . S
C916 C924 1.574 . S
C916 C932 1.368 . S
H917 C925 0.950 . S
H918 C923 0.950 . S
H919 C924 0.949 . S
H920 C926 0.950 . S
H921 C927 0.950 . S
H922 C928 0.949 . S
C923 H918 0.950 . S
C923 C925 1.327 . S
C923 C929 1.429 . S
C924 C916 1.574 . S
C924 H919 0.949 . S
C924 C930 1.368 . S
C925 C909 1.349 . S
C925 H917 0.950 . S
C925 C923 1.327 . S
C926 C914 1.349 . S
C926 H920 0.950 . S
C926 C927 1.327 . S
C927 H921 0.950 . S
C927 C926 1.327 . S
C927 C931 1.429 . S
C928 C911 1.574 . S
C928 H922 0.949 . S
C928 C932 1.368 . S
C929 C910 1.429 . S
C929 C923 1.429 . S
C929 C930 1.523 . S
C930 C911 1.368 . S
C930 C924 1.368 . S
C930 C929 1.523 . S
C931 C915 1.429 . S
C931 C927 1.429 . S
C931 C932 1.523 . S
C932 C916 1.368 . S
C932 C928 1.368 . S
C932 C931 1.523 . S
H933 C908 0.950 . S
H934 C910 0.950 . S
H935 C911 0.949 . S
H936 C913 0.950 . S
H937 C915 0.950 . S
C938 C939 1.349 . S
C938 C940 1.327 . S
C938 H963 0.950 . S
C939 C938 1.349 . S
C939 C955 1.349 . S
C940 C938 1.327 . S
C940 C959 1.429 . S
C940 H964 0.950 . S
C941 C958 1.574 . S
C941 C960 1.368 . S
C941 H965 0.949 . S
H942 C946 0.949 . S
C943 C944 1.349 . S
C943 C945 1.327 . S
C943 H966 0.950 . S
C944 C943 1.349 . S
C944 C956 1.349 . S
C945 C943 1.327 . S
C945 C961 1.429 . S
C945 H967 0.950 . S
C946 H942 0.949 . S
C946 C954 1.574 . S
C946 C962 1.368 . S
H947 C955 0.950 . S
H948 C953 0.950 . S
H949 C954 0.949 . S
H950 C956 0.950 . S
H951 C957 0.950 . S
H952 C958 0.949 . S
C953 H948 0.950 . S
C953 C955 1.327 . S
C953 C959 1.429 . S
C954 C946 1.574 . S
C954 H949 0.949 . S
C954 C960 1.368 . S
C955 C939 1.349 . S
C955 H947 0.950 . S
C955 C953 1.327 . S
C956 C944 1.349 . S
C956 H950 0.950 . S
C956 C957 1.327 . S
C957 H951 0.950 . S
C957 C956 1.327 . S
C957 C961 1.429 . S
C958 C941 1.574 . S
C958 H952 0.949 . S
C958 C962 1.368 . S
C959 C940 1.429 . S
C959 C953 1.429 . S
C959 C960 1.523 . S
C960 C941 1.368 . S
C960 C954 1.368 . S
C960 C959 1.523 . S
C961 C945 1.429 . S
C961 C957 1.429 . S
C961 C962 1.523 . S
C962 C946 1.368 . S
C962 C958 1.368 . S
C962 C961 1.523 . S
H963 C938 0.950 . S
H964 C940 0.950 . S
H965 C941 0.949 . S
H966 C943 0.950 . S
H967 C945 0.950 . S
C249 C4 1.110 . S
C254 C94 1.130 . S
C279 C16 1.274 . S
C284 C143 1.277 . S
C314 C178 1.946 . S
C309 C32 1.971 . S
C339 C43 2.182 . S
C344 C217 2.129 1_655 S
C374 C138 2.811 . S
C369 C5 2.729 . S
C404 C97 0.514 . S
C399 C21 0.482 . S
C434 C227 1.812 . S
C429 C27 1.849 . S
C464 C186 1.444 . S
C459 C37 1.456 . S
C489 C10 1.515 . S
C494 C214 1.534 . S
C524 C146 2.515 . S
C519 C26 2.602 . S
C549 C38 2.041 . S
C554 C107 2.036 . S
C579 C15 0.900 . S
C584 C183 0.903 . S
C614 C103 1.343 . S
C609 C48 1.328 . S
C639 C59 1.013 . S
C644 C134 1.012 . S
C669 C76 2.428 . S
C674 C187 2.389 . S
C699 C87 1.986 . S
C704 C226 1.962 . S
C729 C54 1.969 . S
C734 C147 2.038 1_556 S
C764 C106 1.539 . S
C759 C60 1.593 . S
C794 C218 1.680 . S
C789 C71 1.709 . S
C824 C177 1.399 . S
C819 C82 1.447 . S
C849 C49 1.804 . S
C854 C223 1.874 . S
C884 C137 1.911 . S
C879 C70 1.985 . S
C914 C98 2.549 . S
C909 C81 2.563 . S
C939 C65 0.760 . S
C944 C174 0.760 . S
