# Generated by pormake.
# Topology pyr, (3,6)-cn, num edge types: 1
# Building blocks:
#     Node 0, Type 0, BuildingBlock: PAMTOO_clean_linker_0, # of connection points: 3
#     Node 1, Type 0, BuildingBlock: PAMTOO_clean_linker_0, # of connection points: 3
#     Node 2, Type 0, BuildingBlock: PAMTOO_clean_linker_0, # of connection points: 3
#     Node 3, Type 0, BuildingBlock: PAMTOO_clean_linker_0, # of connection points: 3
#     Node 4, Type 0, BuildingBlock: PAMTOO_clean_linker_0, # of connection points: 3
#     Node 5, Type 0, BuildingBlock: PAMTOO_clean_linker_0, # of connection points: 3
#     Node 6, Type 0, BuildingBlock: PAMTOO_clean_linker_0, # of connection points: 3
#     Node 7, Type 0, BuildingBlock: PAMTOO_clean_linker_0, # of connection points: 3
#     Node 8, Type 1, BuildingBlock: JUFBIX_clean_sbu_0, # of connection points: 6
#     Node 9, Type 1, BuildingBlock: JUFBIX_clean_sbu_0, # of connection points: 6
#     Node 10, Type 1, BuildingBlock: JUFBIX_clean_sbu_0, # of connection points: 6
#     Node 11, Type 1, BuildingBlock: JUFBIX_clean_sbu_0, # of connection points: 6
#     Edge 12, Type (0, 1), BuildingBlock: XUDNAN_clean_linker_2, # of connection points: 2
#     Edge 13, Type (0, 1), BuildingBlock: XUDNAN_clean_linker_2, # of connection points: 2
#     Edge 14, Type (0, 1), BuildingBlock: XUDNAN_clean_linker_2, # of connection points: 2
#     Edge 15, Type (0, 1), BuildingBlock: XUDNAN_clean_linker_2, # of connection points: 2
#     Edge 16, Type (0, 1), BuildingBlock: XUDNAN_clean_linker_2, # of connection points: 2
#     Edge 17, Type (0, 1), BuildingBlock: XUDNAN_clean_linker_2, # of connection points: 2
#     Edge 18, Type (0, 1), BuildingBlock: XUDNAN_clean_linker_2, # of connection points: 2
#     Edge 19, Type (0, 1), BuildingBlock: XUDNAN_clean_linker_2, # of connection points: 2
#     Edge 20, Type (0, 1), BuildingBlock: XUDNAN_clean_linker_2, # of connection points: 2
#     Edge 21, Type (0, 1), BuildingBlock: XUDNAN_clean_linker_2, # of connection points: 2
#     Edge 22, Type (0, 1), BuildingBlock: XUDNAN_clean_linker_2, # of connection points: 2
#     Edge 23, Type (0, 1), BuildingBlock: XUDNAN_clean_linker_2, # of connection points: 2
#     Edge 24, Type (0, 1), BuildingBlock: XUDNAN_clean_linker_2, # of connection points: 2
#     Edge 25, Type (0, 1), BuildingBlock: XUDNAN_clean_linker_2, # of connection points: 2
#     Edge 26, Type (0, 1), BuildingBlock: XUDNAN_clean_linker_2, # of connection points: 2
#     Edge 27, Type (0, 1), BuildingBlock: XUDNAN_clean_linker_2, # of connection points: 2
#     Edge 28, Type (0, 1), BuildingBlock: XUDNAN_clean_linker_2, # of connection points: 2
#     Edge 29, Type (0, 1), BuildingBlock: XUDNAN_clean_linker_2, # of connection points: 2
#     Edge 30, Type (0, 1), BuildingBlock: XUDNAN_clean_linker_2, # of connection points: 2
#     Edge 31, Type (0, 1), BuildingBlock: XUDNAN_clean_linker_2, # of connection points: 2
#     Edge 32, Type (0, 1), BuildingBlock: XUDNAN_clean_linker_2, # of connection points: 2
#     Edge 33, Type (0, 1), BuildingBlock: XUDNAN_clean_linker_2, # of connection points: 2
#     Edge 34, Type (0, 1), BuildingBlock: XUDNAN_clean_linker_2, # of connection points: 2
#     Edge 35, Type (0, 1), BuildingBlock: XUDNAN_clean_linker_2, # of connection points: 2
# Relax obj value: 0.124
# Max RMSD: 0.202
# Mean RMSD: 0.138
data_MOF--net-pry--node1-JUFBIX_clean_sbu_0--node2-PAMTOO_clean_linker_0--edge1-XUDNAN_clean_linker_2
_symmetry_space_group_name_H-M    P1
_symmetry_Int_Tables_number       1
_symmetry_cell_setting            triclinic
loop_
_symmetry_equiv_pos_as_xyz
'x, y, z'
_cell_length_a     36.180999
_cell_length_b     35.594689
_cell_length_c     36.825175
_cell_angle_alpha  82.549017
_cell_angle_beta   88.366318
_cell_angle_gamma 93.843367
loop_
_atom_site_label
_atom_site_type_symbol
_atom_site_fract_x
_atom_site_fract_y
_atom_site_fract_z
_atom_type_partial_charge
H0 H 0.15156 0.20095 0.24483 0.0
H1 H 0.23828 0.12579 0.27232 0.0
H2 H 0.24209 0.19448 0.1678 0.0
H3 H 0.25826 0.11686 0.16469 0.0
C4 C 0.27512 0.11159 0.18942 0.0
O5 O 0.27462 0.1425 0.20875 0.0
H6 H 0.26246 0.08587 0.20688 0.0
C7 C 0.17749 0.18963 0.23791 0.0
C8 C 0.19465 0.20167 0.20307 0.0
C9 C 0.193 0.16267 0.26372 0.0
C10 C 0.2255 0.1463 0.25321 0.0
C11 C 0.24264 0.15738 0.21834 0.0
C12 C 0.22756 0.18534 0.19389 0.0
H13 H 0.43577 0.98762 0.66066 0.0
H14 H 0.42447 0.89385 0.59798 0.0
H15 H 0.50795 0.89636 0.67795 0.0
H16 H 0.52719 0.85788 0.60754 0.0
C17 C 0.4981 0.84712 0.60398 0.0
O18 O 0.47564 0.85654 0.63163 0.0
H19 H 0.48901 0.86015 0.57688 0.0
C20 C 0.44627 0.96212 0.65224 0.0
C21 C 0.47549 0.94538 0.67088 0.0
C22 C 0.42789 0.94386 0.6256 0.0
C23 C 0.43974 0.90933 0.61691 0.0
C24 C 0.46885 0.89256 0.63548 0.0
C25 C 0.48695 0.91067 0.66216 0.0
H26 H 0.77959 0.29475 0.95347 0.0
H27 H 0.68305 0.30473 0.8876 0.0
H28 H 0.77606 0.38591 0.86466 0.0
H29 H 0.69751 0.41246 0.86886 0.0
C30 C 0.68524 0.39239 0.85091 0.0
O31 O 0.70954 0.36525 0.8454 0.0
H32 H 0.65927 0.37836 0.86481 0.0
C33 C 0.76484 0.30954 0.93138 0.0
C34 C 0.78225 0.34202 0.91021 0.0
C35 C 0.72911 0.29536 0.92329 0.0
C36 C 0.71083 0.31449 0.89399 0.0
C37 C 0.7277 0.34704 0.8732 0.0
C38 C 0.76336 0.36061 0.88106 0.0
H39 H 0.96454 0.71256 0.49327 0.0
H40 H 0.91922 0.63068 0.4268 0.0
H41 H 1.00934 0.70902 0.38451 0.0
H42 H 0.9432 0.6957 0.33917 0.0
C43 C 0.93978 0.66416 0.34536 0.0
O44 O 0.96455 0.65194 0.37145 0.0
H45 H 0.91093 0.65602 0.35612 0.0
C46 C 0.96505 0.69919 0.46852 0.0
C47 C 0.99007 0.71449 0.43964 0.0
C48 C 0.93814 0.6698 0.46419 0.0
C49 C 0.93985 0.65264 0.43186 0.0
C50 C 0.96592 0.66632 0.40364 0.0
C51 C 0.99075 0.69733 0.40738 0.0
H52 H 0.82499 0.90298 0.84443 0.0
H53 H 0.83075 0.82734 0.9451 0.0
H54 H 0.91422 0.82888 0.8595 0.0
H55 H 0.87289 0.75377 0.89828 0.0
C56 C 0.88119 0.75964 0.926 0.0
O57 O 0.89186 0.79784 0.92547 0.0
H58 H 0.85658 0.7523 0.94501 0.0
C59 C 0.83869 0.88118 0.8612 0.0
C60 C 0.87146 0.8679 0.84738 0.0
C61 C 0.82333 0.8668 0.89632 0.0
C62 C 0.84212 0.83928 0.91823 0.0
C63 C 0.87479 0.82557 0.90484 0.0
C64 C 0.88942 0.84012 0.86969 0.0
H65 H 0.7375 0.15996 0.33938 0.0
H66 H 0.65908 0.23923 0.29891 0.0
H67 H 0.72064 0.25811 0.39362 0.0
H68 H 0.63247 0.25669 0.38854 0.0
C69 C 0.63813 0.28408 0.37019 0.0
O70 O 0.67036 0.28392 0.34916 0.0
H71 H 0.61462 0.28766 0.35159 0.0
C72 C 0.72324 0.18539 0.34196 0.0
C73 C 0.73217 0.2073 0.37001 0.0
C74 C 0.69707 0.19662 0.31624 0.0
C75 C 0.67952 0.23022 0.31854 0.0
C76 C 0.68792 0.25206 0.3466 0.0
C77 C 0.71446 0.24091 0.37204 0.0
H78 H 0.33147 0.68343 0.13372 0.0
H79 H 0.32592 0.60519 0.23322 0.0
H80 H 0.41193 0.69443 0.21715 0.0
H81 H 0.42979 0.60999 0.24005 0.0
C82 C 0.40915 0.60601 0.26351 0.0
O83 O 0.38514 0.63467 0.26019 0.0
H84 H 0.39319 0.57825 0.26314 0.0
C85 C 0.34271 0.67397 0.15999 0.0
C86 C 0.37421 0.69375 0.17221 0.0
C87 C 0.32451 0.64264 0.18214 0.0
C88 C 0.33923 0.62959 0.21592 0.0
C89 C 0.37125 0.64771 0.22767 0.0
C90 C 0.38832 0.67991 0.2063 0.0
H91 H 0.10584 0.32274 0.71618 0.0
H92 H 0.15761 0.42391 0.65306 0.0
H93 H 0.10997 0.3349 0.59797 0.0
H94 H 0.1673 0.40888 0.53835 0.0
C95 C 0.17197 0.39496 0.56645 0.0
O96 O 0.14335 0.40261 0.58942 0.0
H97 H 0.17136 0.3639 0.56482 0.0
C98 C 0.11371 0.33907 0.68987 0.0
C99 C 0.10575 0.32369 0.65732 0.0
C100 C 0.13262 0.37508 0.68878 0.0
C101 C 0.14332 0.39597 0.65462 0.0
C102 C 0.13447 0.38159 0.62215 0.0
C103 C 0.11549 0.34584 0.62352 0.0
Co104 Co 1.01138 0.02495 0.54514 0.0
C105 C 0.03754 0.95716 0.52485 0.0
Co106 Co 0.06252 0.00618 0.5704 0.0
C107 C 0.95313 0.06835 0.51125 0.0
C108 C 0.93895 0.00853 0.52219 0.0
N109 N 0.96675 0.03511 0.52443 0.0
N110 N 0.91763 0.06354 0.50098 0.0
C111 C 0.90891 0.02574 0.50798 0.0
H112 H 0.96898 0.09538 0.50977 0.0
H113 H 0.94013 0.9785 0.53125 0.0
C114 C 0.03746 0.07412 0.59055 0.0
N115 N 0.10622 0.9954 0.59268 0.0
C116 C 0.13937 0.9887 0.57804 0.0
C117 C 0.11193 0.99644 0.62852 0.0
N118 N 0.16573 0.98576 0.60342 0.0
C119 C 0.14826 0.99064 0.63518 0.0
C120 C 0.07287 0.05394 0.50247 0.0
O121 O 1.01044 0.06877 0.57008 0.0
O122 O 0.06247 0.05072 0.59332 0.0
O123 O 0.08971 0.03451 0.52765 0.0
O124 O 0.03783 0.05452 0.50515 0.0
O125 O 0.06256 0.96155 0.54769 0.0
H126 H 0.09127 1.0025 0.64836 0.0
H127 H 0.14401 0.98679 0.54922 0.0
O128 O 1.01324 0.98135 0.51984 0.0
O129 O 0.98459 0.99543 0.58553 0.0
O130 O 0.03487 0.97819 0.61236 0.0
C131 C 0.99971 0.97757 0.61257 0.0
H132 H 0.88249 0.0111 0.50405 0.0
H133 H 0.16087 0.99155 0.66134 0.0
Co134 Co 0.53685 0.99939 1.02029 0.0
C135 C 0.5172 0.92975 0.06507 0.0
Co136 Co 0.56827 0.98795 0.07039 0.0
C137 C 0.52225 0.00909 0.94325 0.0
C138 C 0.47258 0.99738 0.97706 0.0
N139 N 0.50964 1.00379 0.97852 0.0
N140 N 0.49457 1.00549 0.91996 0.0
C141 C 0.46326 0.99816 0.94106 0.0
H142 H 0.55135 0.01298 0.93492 0.0
H143 H 0.45378 0.99062 1.00073 0.0
C144 C 0.58696 0.05815 0.02566 0.0
N145 N 0.59526 0.98486 0.11247 0.0
C146 C 0.60257 0.01522 0.13005 0.0
C147 C 0.61574 0.95774 0.12907 0.0
N148 N 0.62742 0.00891 0.15611 0.0
C149 C 0.6357 0.9726 0.15616 0.0
C150 C 0.60268 0.96215 1.01127 0.0
O151 O 0.56261 0.04723 1.00446 0.0
O152 O 0.59296 0.0367 0.05486 0.0
O153 O 0.60632 0.96486 0.04514 0.0
O154 O 0.57411 0.97471 0.99576 0.0
O155 O 0.54313 0.93927 0.08542 0.0
H156 H 0.61778 0.92995 0.1206 0.0
H157 H 0.59143 0.04251 0.12245 0.0
O158 O 0.51099 0.95171 0.03617 0.0
O159 O 0.49983 0.02391 0.04533 0.0
O160 O 0.53012 0.01112 0.09546 0.0
C161 C 0.50248 0.02517 0.07951 0.0
H162 H 0.43584 0.99228 0.9312 0.0
H163 H 0.65644 0.95879 0.17267 0.0
Co164 Co 0.58639 0.55092 0.54915 0.0
C165 C 0.53073 0.55647 0.49863 0.0
Co166 Co 0.53662 0.51265 0.56566 0.0
C167 C 0.66273 0.58226 0.54124 0.0
C168 C 0.62357 0.62234 0.52239 0.0
N169 N 0.62627 0.58554 0.53581 0.0
N170 N 0.6826 0.6158 0.53233 0.0
C171 C 0.65811 0.641 0.52032 0.0
H172 H 0.67419 0.55635 0.55317 0.0
H173 H 0.59787 0.63514 0.51594 0.0
C174 C 0.59313 0.50787 0.61592 0.0
N175 N 0.49581 0.47915 0.5795 0.0
C176 C 0.45978 0.48672 0.57818 0.0
C177 C 0.49545 0.44207 0.593 0.0
N178 N 0.43684 0.45585 0.59028 0.0
C179 C 0.45925 0.42764 0.59957 0.0
C180 C 0.59066 0.48217 0.52447 0.0
O181 O 0.60965 0.53259 0.59197 0.0
O182 O 0.56031 0.4951 0.61038 0.0
O183 O 0.55926 0.47516 0.54141 0.0
O184 O 0.60786 0.51451 0.52431 0.0
O185 O 0.51365 0.53042 0.52101 0.0
H186 H 0.51995 0.42656 0.59777 0.0
H187 H 0.4506 0.5143 0.56791 0.0
O188 O 0.56277 0.56933 0.50607 0.0
O189 O 0.56505 0.58709 0.57399 0.0
O190 O 0.51426 0.55088 0.58922 0.0
C191 C 0.53306 0.58229 0.58938 0.0
H192 H 0.66469 0.67093 0.51125 0.0
H193 H 0.45019 0.39873 0.61068 0.0
Co194 Co 0.07953 0.48863 1.01542 0.0
C195 C 1.0102 0.45113 1.00692 0.0
Co196 Co 0.04097 0.48402 0.06351 0.0
C197 C 0.11252 0.46731 0.94891 0.0
C198 C 0.13652 0.52007 0.96247 0.0
N199 N 0.11107 0.49137 0.97436 0.0
N200 N 0.13788 0.47992 0.92162 0.0
C201 C 0.15308 0.51308 0.93022 0.0
H202 H 0.09505 0.44124 0.9502 0.0
H203 H 0.142 0.54509 0.97584 0.0
C204 C 0.10976 0.52159 0.0726 0.0
N205 N 1.00989 0.48337 0.10443 0.0
C206 C 1.00319 0.51469 0.11982 0.0
C207 C 0.99133 0.4545 0.12634 0.0
N208 N 0.98123 0.50689 0.15035 0.0
C209 C 0.97377 0.46893 0.15485 0.0
C210 C 0.08565 0.42319 0.06559 0.0
O211 O 0.11741 0.51396 0.0406 0.0
O212 O 0.07773 0.51157 0.08685 0.0
O213 O 0.06096 0.43736 0.08398 0.0
O214 O 0.09695 0.44067 0.03444 0.0
O215 O 1.00416 0.45632 0.04005 0.0
H216 H 0.9911 0.42495 0.12222 0.0
H217 H 1.01541 0.54277 0.10947 0.0
O218 O 0.0412 0.46334 0.99101 0.0
O219 O 0.06193 0.53652 0.99652 0.0
O220 O 1.02141 0.53069 0.04241 0.0
C221 C 0.03512 0.5495 1.01284 0.0
H222 H 0.17368 0.53176 0.91367 0.0
H223 H 0.95696 0.45282 0.17708 0.0
H224 H 0.18773 0.09327 0.30965 0.0
H225 H 0.15953 0.21054 0.30514 0.0
H226 H 0.1285 0.19558 0.36595 0.0
H227 H 0.10467 0.05003 0.35569 0.0
H228 H 0.12696 0.01394 0.38432 0.0
H229 H 0.14773 0.03353 0.34032 0.0
H230 H 0.20845 0.05191 0.37132 0.0
H231 H 0.18785 0.03237 0.41546 0.0
H232 H 0.20698 0.08094 0.40791 0.0
H233 H 0.09649 0.16771 0.42518 0.0
H234 H 0.06841 0.12885 0.48089 0.0
H235 H 0.12096 0.03061 0.45143 0.0
C236 C 0.17548 0.11599 0.32156 0.0
C237 C 0.17573 0.15309 0.30178 0.0
C238 C 0.15899 0.18166 0.31876 0.0
C239 C 0.14153 0.17356 0.35366 0.0
C240 C 0.14135 0.1368 0.372 0.0
C241 C 0.15818 0.10849 0.35683 0.0
C242 C 0.15362 0.07127 0.38266 0.0
C243 C 0.13196 0.04037 0.36467 0.0
C244 C 0.19148 0.05836 0.39507 0.0
C245 C 0.13116 0.08306 0.41437 0.0
C246 C 0.12433 0.12103 0.40742 0.0
C247 C 0.10221 0.13814 0.43123 0.0
C248 C 0.08639 0.1159 0.4628 0.0
C249 C 0.09319 0.07708 0.47082 0.0
C250 C 0.11621 0.06053 0.44644 0.0
H251 H 0.45283 0.91544 0.73908 0.0
H252 H 0.52277 0.00724 0.67852 0.0
H253 H 0.53793 0.03211 0.73689 0.0
H254 H 0.41355 0.97065 0.80066 0.0
H255 H 0.41108 0.93365 0.8392 0.0
H256 H 0.40915 0.92146 0.79334 0.0
H257 H 0.4651 0.88016 0.8049 0.0
H258 H 0.46703 0.89196 0.85095 0.0
H259 H 0.50753 0.90096 0.82062 0.0
H260 H 0.54429 0.04653 0.80289 0.0
H261 H 0.53815 0.05162 0.86949 0.0
H262 H 0.46033 0.95258 0.88426 0.0
C263 C 0.4719 0.94037 0.73835 0.0
C264 C 0.48737 0.95919 0.70488 0.0
C265 C 0.51129 0.99232 0.70431 0.0
C266 C 0.51993 0.00652 0.73719 0.0
C267 C 0.50391 0.98737 0.76997 0.0
C268 C 0.48023 0.95511 0.77063 0.0
C269 C 0.46457 0.94104 0.80877 0.0
C270 C 0.42208 0.94177 0.81058 0.0
C271 C 0.4768 0.90117 0.82209 0.0
C272 C 0.48281 0.97057 0.82963 0.0
C273 C 0.50588 0.99678 0.80706 0.0
C274 C 0.52617 0.02626 0.82073 0.0
C275 C 0.52258 0.02897 0.85839 0.0
C276 C 0.49838 1.00283 0.88153 0.0
C277 C 0.47842 0.97333 0.86688 0.0
H278 H 0.62226 0.38652 0.81078 0.0
H279 H 0.73079 0.44631 0.80929 0.0
H280 H 0.71893 0.48211 0.74898 0.0
H281 H 0.62161 0.37792 0.71432 0.0
H282 H 0.57301 0.38529 0.71026 0.0
H283 H 0.58996 0.3644 0.75324 0.0
H284 H 0.56182 0.41668 0.78593 0.0
H285 H 0.54477 0.43771 0.74305 0.0
H286 H 0.5742 0.46595 0.76934 0.0
H287 H 0.6955 0.51109 0.68971 0.0
H288 H 0.66228 0.53214 0.63427 0.0
H289 H 0.56809 0.45381 0.67371 0.0
C290 C 0.64336 0.40731 0.79772 0.0
C291 C 0.67728 0.41422 0.81463 0.0
C292 C 0.70454 0.44114 0.79673 0.0
C293 C 0.69805 0.46145 0.76259 0.0
C294 C 0.6642 0.45429 0.74675 0.0
C295 C 0.63727 0.42791 0.76364 0.0
C296 C 0.60331 0.42575 0.74056 0.0
C297 C 0.5966 0.38597 0.7289 0.0
C298 C 0.569 0.43721 0.76094 0.0
C299 C 0.61537 0.45509 0.70808 0.0
C300 C 0.65061 0.4711 0.7123 0.0
C301 C 0.6679 0.4988 0.68607 0.0
C302 C 0.64871 0.51055 0.65464 0.0
C303 C 0.61249 0.49467 0.64959 0.0
C304 C 0.59568 0.46653 0.67677 0.0
H305 H 0.94869 0.58884 0.33902 0.0
H306 H 0.94211 0.69895 0.27449 0.0
H307 H 0.94836 0.6696 0.2176 0.0
H308 H 1.01747 0.55519 0.28101 0.0
H309 H 0.99756 0.50689 0.28715 0.0
H310 H 0.99158 0.53645 0.32272 0.0
H311 H 0.92033 0.52351 0.32119 0.0
H312 H 0.9261 0.49419 0.28534 0.0
H313 H 0.89746 0.53386 0.27856 0.0
H314 H 0.95609 0.62901 0.16814 0.0
H315 H 0.96787 0.57997 0.12859 0.0
H316 H 0.97053 0.49575 0.22466 0.0
C317 C 0.94889 0.60669 0.31285 0.0
C318 C 0.94565 0.64625 0.311 0.0
C319 C 0.94521 0.66871 0.27639 0.0
C320 C 0.94852 0.65227 0.244 0.0
C321 C 0.95195 0.61327 0.24673 0.0
C322 C 0.95232 0.59073 0.2802 0.0
C323 C 0.95722 0.54967 0.27531 0.0
C324 C 0.99309 0.53627 0.29256 0.0
C325 C 0.92325 0.52379 0.29103 0.0
C326 C 0.95993 0.55277 0.23386 0.0
C327 C 0.9565 0.5897 0.218 0.0
C328 C 0.95886 0.6 0.18021 0.0
C329 C 0.96571 0.57199 0.158 0.0
C330 C 0.97031 0.53412 0.17357 0.0
C331 C 0.96669 0.52433 0.212 0.0
H332 H 0.30184 0.09731 0.12175 0.0
H333 H 0.3362 0.1061 0.23227 0.0
H334 H 0.39873 0.08774 0.21554 0.0
H335 H 0.3493 0.01559 0.10956 0.0
H336 H 0.36192 0.03043 0.06191 0.0
H337 H 0.32088 0.04674 0.08179 0.0
H338 H 0.34522 0.11655 0.0611 0.0
H339 H 0.38629 0.10043 0.04099 0.0
H340 H 0.39038 0.13309 0.07444 0.0
H341 H 0.45661 0.06504 0.1874 0.0
H342 H 0.50525 0.04049 0.15042 0.0
H343 H 0.43346 0.0465 0.0577 0.0
C344 C 0.32278 0.09611 0.14221 0.0
C345 C 0.31442 0.10405 0.17816 0.0
C346 C 0.34226 0.101 0.20442 0.0
C347 C 0.37778 0.09045 0.19516 0.0
C348 C 0.3851 0.08279 0.1595 0.0
C349 C 0.35839 0.0856 0.13339 0.0
C350 C 0.3729 0.07444 0.09743 0.0
C351 C 0.34988 0.03974 0.08708 0.0
C352 C 0.37375 0.10814 0.06668 0.0
C353 C 0.41184 0.06454 0.10743 0.0
C354 C 0.41832 0.06962 0.14336 0.0
C355 C 0.45185 0.06124 0.15919 0.0
C356 C 0.47936 0.04721 0.1379 0.0
C357 C 0.47342 0.04164 0.101 0.0
C358 C 0.43914 0.05074 0.08566 0.0
H359 H 0.36798 0.94962 0.66888 0.0
H360 H 0.40584 0.96206 0.55505 0.0
H361 H 0.3422 0.97572 0.5359 0.0
H362 H 0.28287 0.89971 0.65591 0.0
H363 H 0.25752 0.92056 0.69014 0.0
H364 H 0.30644 0.91554 0.69426 0.0
H365 H 0.31762 0.98777 0.69746 0.0
H366 H 0.26866 0.99298 0.69369 0.0
H367 H 0.30119 0.02126 0.66159 0.0
H368 H 0.27324 0.98701 0.53034 0.0
H369 H 0.20613 0.9933 0.53831 0.0
H370 H 0.21497 0.96723 0.65625 0.0
C371 C 0.36301 0.95618 0.63995 0.0
C372 C 0.39163 0.95586 0.61333 0.0
C373 C 0.38409 0.96295 0.57568 0.0
C374 C 0.34816 0.9706 0.56468 0.0
C375 C 0.32031 0.97028 0.59177 0.0
C376 C 0.32745 0.96302 0.62862 0.0
C377 C 0.29266 0.96164 0.65244 0.0
C378 C 0.2844 0.92201 0.67447 0.0
C379 C 0.2952 0.99278 0.67777 0.0
C380 C 0.26468 0.96965 0.62335 0.0
C381 C 0.28096 0.97479 0.58853 0.0
C382 C 0.26023 0.98289 0.55752 0.0
C383 C 0.22195 0.98616 0.56238 0.0
C384 C 0.20476 0.98099 0.59801 0.0
C385 C 0.22675 0.97214 0.62862 0.0
H386 H 0.80887 0.35541 0.97679 0.0
H387 H 0.84097 0.36178 0.86166 0.0
H388 H 0.90375 0.38759 0.87439 0.0
H389 H 0.85724 0.44249 0.99103 0.0
H390 H 0.87053 0.42558 0.03674 0.0
H391 H 0.82891 0.40549 1.01896 0.0
H392 H 0.85277 0.33822 0.0323 0.0
H393 H 0.89449 0.35814 0.05014 0.0
H394 H 0.89742 0.32925 1.01356 0.0
H395 H 0.96262 0.41371 0.89944 0.0
H396 H 1.01247 0.44118 0.9344 0.0
H397 H 0.94157 0.41947 0.03312 0.0
C398 C 0.82931 0.3618 0.95439 0.0
C399 C 0.8202 0.35647 0.91825 0.0
C400 C 0.8474 0.36582 0.8895 0.0
C401 C 0.88314 0.3803 0.8965 0.0
C402 C 0.89119 0.38547 0.93238 0.0
C403 C 0.86502 0.37668 0.96084 0.0
C404 C 0.88027 0.38664 0.99657 0.0
C405 C 0.85791 0.41685 1.0117 0.0
C406 C 0.8813 0.35093 0.02481 0.0
C407 C 0.91902 0.40258 0.98373 0.0
C408 C 0.92485 0.40132 0.94667 0.0
C409 C 0.95838 0.4148 0.92849 0.0
C410 C 0.98655 0.43034 0.94862 0.0
C411 C 0.98098 0.43256 0.98652 0.0
C412 C 0.94677 0.41817 1.00422 0.0
H413 H 0.8925 0.60323 0.48031 0.0
H414 H 0.90576 0.71979 0.50454 0.0
H415 H 0.846 0.71151 0.53728 0.0
H416 H 0.80499 0.61055 0.45308 0.0
H417 H 0.78699 0.56298 0.47051 0.0
H418 H 0.8356 0.57246 0.4591 0.0
H419 H 0.85139 0.54421 0.52478 0.0
H420 H 0.80262 0.53435 0.53638 0.0
H421 H 0.83112 0.56238 0.56366 0.0
H422 H 0.78082 0.69767 0.55497 0.0
H423 H 0.71408 0.67834 0.55599 0.0
H424 H 0.73852 0.57278 0.51683 0.0
C425 C 0.88338 0.62684 0.49314 0.0
C426 C 0.9049 0.66199 0.48991 0.0
C427 C 0.89131 0.69194 0.50737 0.0
C428 C 0.85684 0.68769 0.52602 0.0
C429 C 0.83571 0.65352 0.5269 0.0
C430 C 0.84839 0.62346 0.51105 0.0
C431 C 0.81768 0.59236 0.51036 0.0
C432 C 0.81093 0.58415 0.47093 0.0
C433 C 0.82622 0.55618 0.53529 0.0
C434 C 0.78535 0.61087 0.52604 0.0
C435 C 0.79673 0.64567 0.53636 0.0
C436 C 0.77163 0.6701 0.54782 0.0
C437 C 0.73383 0.6591 0.54799 0.0
C438 C 0.72145 0.62414 0.53656 0.0
C439 C 0.74754 0.59925 0.52646 0.0
H440 H 0.15673 0.26404 0.21753 0.0
H441 H 0.19524 0.20693 0.12764 0.0
H442 H 0.1714 0.25669 0.0836 0.0
H443 H 0.07068 0.29167 0.17547 0.0
H444 H 0.07198 0.3365 0.19339 0.0
H445 H 0.09248 0.29657 0.21819 0.0
H446 H 0.15492 0.33673 0.21775 0.0
H447 H 0.13466 0.37673 0.19287 0.0
H448 H 0.17595 0.35914 0.17469 0.0
H449 H 0.14602 0.31431 0.04878 0.0
H450 H 0.11757 0.37356 0.02594 0.0
H451 H 0.09065 0.3912 0.13777 0.0
C452 C 0.15976 0.26149 0.18865 0.0
C453 C 0.17848 0.23132 0.17641 0.0
C454 C 0.18202 0.22992 0.1381 0.0
C455 C 0.16822 0.258 0.11271 0.0
C456 C 0.15031 0.2873 0.12576 0.0
C457 C 0.14565 0.28906 0.16283 0.0
C458 C 0.125 0.32353 0.16952 0.0
C459 C 0.08783 0.31133 0.19038 0.0
C460 C 0.14908 0.35063 0.18991 0.0
C461 C 0.11912 0.34103 0.13041 0.0
C462 C 0.13419 0.31974 0.10563 0.0
C463 C 0.13378 0.33095 0.06795 0.0
C464 C 0.11761 0.36475 0.05522 0.0
C465 C 0.10155 0.38691 0.07997 0.0
C466 C 0.10216 0.3746 0.11811 0.0
H467 H 0.68665 0.23742 0.89871 0.0
H468 H 0.72933 0.27541 0.99785 0.0
H469 H 0.6972 0.21907 0.03456 0.0
H470 H 0.59633 0.20294 0.93711 0.0
H471 H 0.59278 0.16296 0.91165 0.0
H472 H 0.61997 0.20571 0.89298 0.0
H473 H 0.67729 0.1669 0.88618 0.0
H474 H 0.65025 0.12402 0.90471 0.0
H475 H 0.69273 0.13746 0.92563 0.0
H476 H 0.66005 0.15919 0.0605 0.0
H477 H 0.62108 0.09914 0.07391 0.0
H478 H 0.60114 0.10077 0.95817 0.0
C479 C 0.68907 0.2341 0.92817 0.0
C480 C 0.7106 0.26092 0.94537 0.0
C481 C 0.71348 0.25505 0.98396 0.0
C482 C 0.6951 0.22328 1.00508 0.0
C483 C 0.67388 0.19769 0.98723 0.0
C484 C 0.67079 0.20269 0.94966 0.0
C485 C 0.64613 0.171 0.93725 0.0
C486 C 0.61176 0.18659 0.91865 0.0
C487 C 0.66791 0.14852 0.91195 0.0
C488 C 0.63577 0.14736 0.97378 0.0
C489 C 0.65216 0.16327 1.00221 0.0
C490 C 0.64718 0.14644 0.03845 0.0
C491 C 0.62519 0.11224 0.04578 0.0
C492 C 0.60842 0.09519 1.01709 0.0
C493 C 0.61347 0.11328 0.98066 0.0
H494 H 0.02755 0.73991 0.49679 0.0
H495 H 0.99322 0.77552 0.38647 0.0
H496 H 1.00995 0.84215 0.3939 0.0
H497 H 0.98897 0.80868 0.53649 0.0
H498 H 0.02479 0.81691 0.56817 0.0
H499 H 1.01851 0.77147 0.55201 0.0
H500 H 0.08701 0.77671 0.52838 0.0
H501 H 0.09382 0.82199 0.54513 0.0
H502 H 0.10476 0.81804 0.49777 0.0
H503 H 1.01616 0.90427 0.41762 0.0
H504 H 1.01988 0.95826 0.45365 0.0
H505 H 0.05287 0.88382 0.548 0.0
C506 C 0.02493 0.76166 0.47375 0.0
C507 C 1.00937 0.75244 0.44095 0.0
C508 C 1.00582 0.78171 0.41155 0.0
C509 C 1.015 0.81976 0.41562 0.0
C510 C 0.02827 0.82806 0.44903 0.0
C511 C 0.03414 0.79983 0.47733 0.0
C512 C 0.04527 0.81658 0.51158 0.0
C513 C 1.01774 0.80258 0.54395 0.0
C514 C 0.08509 0.80781 0.52128 0.0
C515 C 0.04279 0.85849 0.49869 0.0
C516 C 0.03311 0.86447 0.46244 0.0
C517 C 0.02487 0.90015 0.44564 0.0
C518 C 0.02672 0.93053 0.46636 0.0
C519 C 0.03711 0.9251 0.5033 0.0
C520 C 0.04576 0.88876 0.51948 0.0
H521 H 0.55276 0.79741 0.61657 0.0
H522 H 0.43604 0.80193 0.59455 0.0
H523 H 0.42964 0.73173 0.59826 0.0
H524 H 0.56983 0.7266 0.56161 0.0
H525 H 0.60274 0.70417 0.59159 0.0
H526 H 0.59647 0.7539 0.591 0.0
H527 H 0.58214 0.7425 0.6612 0.0
H528 H 0.58774 0.69249 0.66178 0.0
H529 H 0.5453 0.70809 0.67959 0.0
H530 H 0.43734 0.66144 0.60015 0.0
H531 H 0.46005 0.59853 0.59301 0.0
H532 H 0.57152 0.64109 0.61372 0.0
C533 C 0.52584 0.78351 0.61283 0.0
C534 C 0.49482 0.80473 0.60537 0.0
C535 C 0.46004 0.78582 0.6003 0.0
C536 C 0.45612 0.7461 0.60268 0.0
C537 C 0.48727 0.72585 0.61024 0.0
C538 C 0.52152 0.744 0.61494 0.0
C539 C 0.55132 0.71622 0.61958 0.0
C540 C 0.58186 0.72579 0.58913 0.0
C541 C 0.56757 0.71475 0.65782 0.0
C542 C 0.52878 0.67978 0.6156 0.0
C543 C 0.49174 0.68562 0.61101 0.0
C544 C 0.46618 0.6564 0.60423 0.0
C545 C 0.47921 0.62072 0.60048 0.0
C546 C 0.51742 0.61512 0.603 0.0
C547 C 0.54207 0.6446 0.61203 0.0
H548 H 0.94395 0.88795 0.82109 0.0
H549 H 0.83041 0.87878 0.78629 0.0
H550 H 0.85165 0.90316 0.723 0.0
H551 H 0.97194 0.97459 0.76324 0.0
H552 H 1.0179 0.96138 0.75279 0.0
H553 H 0.99434 0.94181 0.79549 0.0
H554 H 1.0031 0.8738 0.78054 0.0
H555 H 0.02669 0.89319 0.73776 0.0
H556 H 0.98674 0.86004 0.73806 0.0
H557 H 0.88395 0.93032 0.66413 0.0
H558 H 0.92554 0.95935 0.61268 0.0
H559 H 1.01948 0.95103 0.68341 0.0
C560 C 0.92364 0.89071 0.80005 0.0
C561 C 0.88534 0.88166 0.80892 0.0
C562 C 0.85972 0.88607 0.78052 0.0
C563 C 0.87156 0.89966 0.74434 0.0
C564 C 0.90926 0.90869 0.73662 0.0
C565 C 0.93503 0.90442 0.76354 0.0
C566 C 0.97382 0.91733 0.74764 0.0
C567 C 0.99047 0.95077 0.76588 0.0
C568 C 0.99908 0.8841 0.75122 0.0
C569 C 0.96566 0.92981 0.70773 0.0
C570 C 0.92817 0.92435 0.70216 0.0
C571 C 0.91338 0.93455 0.6681 0.0
C572 C 0.93733 0.95111 0.63899 0.0
C573 C 0.9759 0.95745 0.64378 0.0
C574 C 0.99024 0.94621 0.67868 0.0
H575 H 0.67668 0.12064 0.3232 0.0
H576 H 0.69984 0.22041 0.24284 0.0
H577 H 0.69021 0.18088 0.1929 0.0
H578 H 0.71952 0.05298 0.27262 0.0
H579 H 0.68425 0.01526 0.28656 0.0
H580 H 0.69476 0.05084 0.3161 0.0
H581 H 0.62587 0.0666 0.31758 0.0
H582 H 0.6151 0.03078 0.28845 0.0
H583 H 0.60339 0.07892 0.27503 0.0
H584 H 0.67857 0.13127 0.15231 0.0
H585 H 0.65731 0.07575 0.12275 0.0
H586 H 0.63849 0.00812 0.22891 0.0
C587 C 0.67981 0.134 0.29502 0.0
C588 C 0.68911 0.17342 0.2866 0.0
C589 C 0.69253 0.19025 0.24962 0.0
C590 C 0.68747 0.168 0.22121 0.0
C591 C 0.67875 0.12912 0.2304 0.0
C592 C 0.67437 0.11228 0.26636 0.0
C593 C 0.66258 0.07031 0.26866 0.0
C594 C 0.69205 0.04591 0.28708 0.0
C595 C 0.62447 0.06113 0.2886 0.0
C596 C 0.66062 0.06625 0.2283 0.0
C597 C 0.67073 0.10048 0.20683 0.0
C598 C 0.67046 0.1044 0.16881 0.0
C599 C 0.65824 0.07289 0.15229 0.0
C600 C 0.64595 0.03813 0.17368 0.0
C601 C 0.64813 0.03438 0.21212 0.0
H602 H 0.40088 0.55463 0.32668 0.0
H603 H 0.46281 0.65852 0.27869 0.0
H604 H 0.49825 0.65902 0.33523 0.0
H605 H 0.39605 0.57757 0.4208 0.0
H606 H 0.40158 0.52943 0.4409 0.0
H607 H 0.37967 0.53842 0.39759 0.0
H608 H 0.42718 0.49907 0.36799 0.0
H609 H 0.4492 0.48999 0.41116 0.0
H610 H 0.47606 0.5114 0.37091 0.0
H611 H 0.52915 0.64617 0.39474 0.0
H612 H 0.55363 0.62153 0.45418 0.0
H613 H 0.47116 0.52594 0.46449 0.0
C614 C 0.42175 0.57757 0.32831 0.0
C615 C 0.42948 0.60649 0.29846 0.0
C616 C 0.45682 0.63613 0.30137 0.0
C617 C 0.47692 0.63664 0.3333 0.0
C618 C 0.46905 0.60742 0.36209 0.0
C619 C 0.44205 0.5785 0.36002 0.0
C620 C 0.44 0.54989 0.39445 0.0
C621 C 0.40207 0.54878 0.41463 0.0
C622 C 0.44864 0.51025 0.38558 0.0
C623 C 0.4705 0.56691 0.41593 0.0
C624 C 0.48674 0.60018 0.39676 0.0
C625 C 0.51648 0.62034 0.41015 0.0
C626 C 0.53025 0.60601 0.44392 0.0
C627 C 0.51426 0.57184 0.46401 0.0
C628 C 0.4837 0.55231 0.44994 0.0
H629 H 0.08695 0.37519 0.74969 0.0
H630 H 0.19815 0.41065 0.70557 0.0
H631 H 0.21253 0.43828 0.76214 0.0
H632 H 0.07313 0.45718 0.79231 0.0
H633 H 0.04762 0.43188 0.8318 0.0
H634 H 0.04674 0.4131 0.78872 0.0
H635 H 0.06981 0.34992 0.82 0.0
H636 H 0.07082 0.36861 0.86319 0.0
H637 H 0.11196 0.35078 0.84494 0.0
H638 H 0.21419 0.46385 0.82236 0.0
H639 H 0.20254 0.48729 0.8815 0.0
H640 H 0.09009 0.4357 0.88643 0.0
C641 C 0.1145 0.38828 0.75218 0.0
C642 C 0.14148 0.39074 0.72325 0.0
C643 C 0.17697 0.40875 0.72725 0.0
C644 C 0.18547 0.42428 0.75936 0.0
C645 C 0.15819 0.42155 0.78725 0.0
C646 C 0.12341 0.40405 0.784 0.0
C647 C 0.09862 0.40638 0.81743 0.0
C648 C 0.06453 0.42846 0.80692 0.0
C649 C 0.08714 0.36655 0.83758 0.0
C650 C 0.12479 0.42833 0.83977 0.0
C651 C 0.15907 0.43654 0.82196 0.0
C652 C 0.18749 0.45751 0.83661 0.0
C653 C 0.18054 0.47089 0.87013 0.0
C654 C 0.14541 0.46343 0.88864 0.0
C655 C 0.11739 0.44141 0.87333 0.0
H656 H 0.80103 0.88417 0.96502 0.0
H657 H 0.76197 0.87697 0.85557 0.0
H658 H 0.70197 0.89904 0.87367 0.0
H659 H 0.71268 0.85214 1.01364 0.0
H660 H 0.71849 0.88423 0.04744 0.0
H661 H 0.75855 0.8671 0.02643 0.0
H662 H 0.78467 0.93636 1.00602 0.0
H663 H 0.74468 0.95368 0.02693 0.0
H664 H 0.75669 0.96878 0.97919 0.0
H665 H 0.6466 0.92324 0.90245 0.0
H666 H 0.59908 0.94797 0.9403 0.0
H667 H 0.672 0.93947 0.03225 0.0
C668 C 0.77973 0.88692 0.94498 0.0
C669 C 0.78663 0.87909 0.90863 0.0
C670 C 0.7579 0.88339 0.8833 0.0
C671 C 0.7235 0.8957 0.8934 0.0
C672 C 0.7178 0.9036 0.92911 0.0
C673 C 0.74499 0.89936 0.95463 0.0
C674 C 0.73152 0.91053 0.99104 0.0
C675 C 0.73023 0.87646 1.02144 0.0
C676 C 0.75584 0.94435 1.00139 0.0
C677 C 0.69266 0.92184 0.98186 0.0
C678 C 0.68545 0.91748 0.94595 0.0
C679 C 0.65188 0.92661 0.93067 0.0
C680 C 0.62499 0.9407 0.95249 0.0
C681 C 0.6315 0.94565 0.98943 0.0
C682 C 0.66591 0.93583 1.00425 0.0
H683 H 0.73935 0.13537 0.40299 0.0
H684 H 0.78908 0.25052 0.39588 0.0
H685 H 0.84056 0.22701 0.43348 0.0
H686 H 0.76767 0.10084 0.49568 0.0
H687 H 0.77635 0.05485 0.48313 0.0
H688 H 0.74123 0.08188 0.46058 0.0
H689 H 0.77315 0.07712 0.39752 0.0
H690 H 0.80844 0.05037 0.41983 0.0
H691 H 0.8213 0.0934 0.38938 0.0
H692 H 0.88981 0.18902 0.46688 0.0
H693 H 0.93095 0.14121 0.49354 0.0
H694 H 0.84879 0.05178 0.47411 0.0
C695 C 0.76082 0.15578 0.40969 0.0
C696 C 0.76034 0.19472 0.39647 0.0
C697 C 0.78874 0.22057 0.40611 0.0
C698 C 0.81814 0.20745 0.42728 0.0
C699 C 0.81844 0.16853 0.43865 0.0
C700 C 0.79028 0.14319 0.43032 0.0
C701 C 0.79814 0.1026 0.44302 0.0
C702 C 0.76913 0.08396 0.47235 0.0
C703 C 0.80041 0.07955 0.4105 0.0
C704 C 0.83556 0.10885 0.45917 0.0
C705 C 0.84677 0.14693 0.45688 0.0
C706 C 0.88111 0.1591 0.46906 0.0
C707 C 0.90446 0.13154 0.484 0.0
C708 C 0.89354 0.09218 0.48628 0.0
C709 C 0.85842 0.08119 0.4736 0.0
H710 H 0.307 0.62027 0.11528 0.0
H711 H 0.26137 0.62556 0.22464 0.0
H712 H 0.2016 0.59646 0.20777 0.0
H713 H 0.22347 0.64157 0.06675 0.0
H714 H 0.23049 0.609 0.03399 0.0
H715 H 0.26978 0.63091 0.05422 0.0
H716 H 0.29223 0.5645 0.0765 0.0
H717 H 0.25304 0.54241 0.05631 0.0
H718 H 0.26127 0.52975 0.10425 0.0
H719 H 0.14717 0.5673 0.17973 0.0
H720 H 0.10117 0.53728 0.14267 0.0
H721 H 0.18136 0.54941 0.05103 0.0
C722 C 0.28431 0.61546 0.13553 0.0
C723 C 0.28883 0.62502 0.17134 0.0
C724 C 0.25865 0.618 0.19723 0.0
C725 C 0.22454 0.60172 0.18785 0.0
C726 C 0.22101 0.59249 0.15246 0.0
C727 C 0.25001 0.59891 0.12668 0.0
C728 C 0.23884 0.5854 0.09085 0.0
C729 C 0.24075 0.61871 0.05961 0.0
C730 C 0.26277 0.55362 0.08144 0.0
C731 C 0.19907 0.57039 0.10062 0.0
C732 C 0.18943 0.57502 0.13626 0.0
C733 C 0.15435 0.56346 0.15178 0.0
C734 C 0.1284 0.54643 0.13043 0.0
C735 C 0.13761 0.54089 0.0939 0.0
C736 C 0.17346 0.55322 0.07883 0.0
H737 H 0.23579 0.35767 0.57355 0.0
H738 H 0.19209 0.46655 0.58274 0.0
H739 H 0.2551 0.4933 0.59418 0.0
H740 H 0.30697 0.36239 0.64312 0.0
H741 H 0.33983 0.3398 0.617 0.0
H742 H 0.29083 0.32859 0.61361 0.0
H743 H 0.29717 0.34677 0.54313 0.0
H744 H 0.34605 0.35828 0.54629 0.0
H745 H 0.31719 0.39326 0.52446 0.0
H746 H 0.32376 0.5092 0.59912 0.0
H747 H 0.39218 0.51283 0.59873 0.0
H748 H 0.3906 0.39344 0.58532 0.0
C749 C 0.2394 0.38688 0.57888 0.0
C750 C 0.20914 0.40997 0.57802 0.0
C751 C 0.21496 0.44835 0.58402 0.0
C752 C 0.25058 0.46371 0.59045 0.0
C753 C 0.27999 0.44027 0.59064 0.0
C754 C 0.27471 0.40259 0.58525 0.0
C755 C 0.31112 0.38404 0.58449 0.0
C756 C 0.31225 0.3518 0.61646 0.0
C757 C 0.31829 0.36977 0.54739 0.0
C758 C 0.33787 0.41734 0.58952 0.0
C759 C 0.31941 0.44947 0.59323 0.0
C760 C 0.33846 0.48413 0.59655 0.0
C761 C 0.37735 0.48599 0.596 0.0
C762 C 0.39685 0.45342 0.59205 0.0
C763 C 0.37661 0.41867 0.58904 0.0
H764 H 0.88177 0.70205 0.98419 0.0
H765 H 0.94995 0.75999 0.89253 0.0
H766 H 0.99836 0.71466 0.90657 0.0
H767 H 0.95826 0.67834 0.04562 0.0
H768 H 0.93601 0.63269 0.06382 0.0
H769 H 0.90839 0.67154 0.04836 0.0
H770 H 0.8748 0.63027 1.00465 0.0
H771 H 0.90244 0.59143 1.01979 0.0
H772 H 0.90173 0.60917 0.97171 0.0
H773 H 0.03696 0.65964 0.92775 0.0
H774 H 0.06377 0.60107 0.95547 0.0
H775 H 0.97071 0.57929 0.03414 0.0
C776 C 0.90727 0.70567 0.9676 0.0
C777 C 0.91243 0.73488 0.93753 0.0
C778 C 0.94578 0.73817 0.91596 0.0
C779 C 0.9733 0.71248 0.9237 0.0
C780 C 0.96713 0.68365 0.95321 0.0
C781 C 0.93505 0.68031 0.97503 0.0
C782 C 0.93451 0.64584 1.00413 0.0
C783 C 0.93429 0.65783 0.04277 0.0
C784 C 0.90141 0.61751 0.99979 0.0
C785 C 0.97097 0.6299 0.9949 0.0
C786 C 0.98942 0.65217 0.9655 0.0
C787 C 0.02291 0.64227 0.95103 0.0
C788 C 0.03789 0.60884 0.96693 0.0
C789 C 1.01953 0.58554 0.99713 0.0
C790 C 0.9857 0.59658 1.01133 0.0
H791 H 0.44738 0.7244 0.16929 0.0
H792 H 0.33879 0.74671 0.12682 0.0
H793 H 0.36523 0.80621 0.0922 0.0
H794 H 0.4692 0.82055 0.18497 0.0
H795 H 0.51792 0.82014 0.17346 0.0
H796 H 0.4918 0.7767 0.19201 0.0
H797 H 0.51229 0.74528 0.13579 0.0
H798 H 0.53842 0.78867 0.11702 0.0
H799 H 0.50364 0.76758 0.09032 0.0
H800 H 0.40231 0.86351 0.06252 0.0
H801 H 0.44679 0.91834 0.04373 0.0
H802 H 0.53004 0.86399 0.11069 0.0
C803 C 0.42888 0.74165 0.15295 0.0
C804 C 0.39085 0.72979 0.15055 0.0
C805 C 0.36819 0.75375 0.12837 0.0
C806 C 0.38288 0.78808 0.10875 0.0
C807 C 0.42018 0.79876 0.112 0.0
C808 C 0.44284 0.77663 0.1339 0.0
C809 C 0.48138 0.79626 0.13454 0.0
C810 C 0.4906 0.80387 0.17356 0.0
C811 C 0.51066 0.77306 0.11845 0.0
C812 C 0.47667 0.83296 0.10967 0.0
C813 C 0.44125 0.83335 0.09656 0.0
C814 C 0.43009 0.86364 0.07268 0.0
C815 C 0.45565 0.89461 0.06208 0.0
C816 C 0.49188 0.89548 0.07579 0.0
C817 C 0.5025 0.86417 0.09994 0.0
H818 H 0.05712 0.29387 0.60987 0.0
H819 H 0.1204 0.26214 0.70629 0.0
H820 H 0.1008 0.1951 0.70448 0.0
H821 H 0.98123 0.2167 0.62872 0.0
H822 H 0.97935 0.21009 0.58108 0.0
H823 H 0.99237 0.25637 0.59359 0.0
H824 H 0.05343 0.25918 0.55451 0.0
H825 H 0.04065 0.21303 0.54195 0.0
H826 H 0.0842 0.22148 0.56313 0.0
H827 H 0.08305 0.13182 0.68759 0.0
H828 H 0.06801 0.07584 0.65645 0.0
H829 H 1.01694 0.14671 0.5699 0.0
C830 C 0.06646 0.27294 0.63097 0.0
C831 C 0.09009 0.28367 0.65849 0.0
C832 C 0.10154 0.25512 0.68549 0.0
C833 C 0.09069 0.21676 0.6846 0.0
C834 C 0.06831 0.2072 0.65658 0.0
C835 C 0.05616 0.23439 0.63029 0.0
C836 C 0.03558 0.21614 0.60096 0.0
C837 C 0.9947 0.22538 0.60111 0.0
C838 C 0.05461 0.22817 0.5629 0.0
C839 C 0.03942 0.17447 0.61414 0.0
C840 C 0.05794 0.17008 0.6466 0.0
C841 C 0.06787 0.13478 0.6626 0.0
C842 C 0.05934 0.10319 0.64464 0.0
C843 C 0.041 0.10702 0.61105 0.0
C844 C 0.03012 0.14296 0.59603 0.0
H845 H 0.58463 0.3011 0.41742 0.0
H846 H 0.69614 0.33909 0.3755 0.0
H847 H 0.69688 0.39133 0.41322 0.0
H848 H 0.55173 0.39257 0.41847 0.0
H849 H 0.52414 0.38004 0.46036 0.0
H850 H 0.53302 0.3443 0.43148 0.0
H851 H 0.56029 0.3032 0.48623 0.0
H852 H 0.55155 0.33891 0.51528 0.0
H853 H 0.59763 0.32334 0.5106 0.0
H854 H 0.6846 0.44127 0.45296 0.0
H855 H 0.65985 0.48581 0.49192 0.0
H856 H 0.55661 0.41516 0.50891 0.0
C857 C 0.60926 0.32032 0.41645 0.0
C858 C 0.64017 0.31595 0.39352 0.0
C859 C 0.67198 0.34168 0.39276 0.0
C860 C 0.67276 0.37147 0.41421 0.0
C861 C 0.64169 0.37504 0.43637 0.0
C862 C 0.61056 0.35014 0.43775 0.0
C863 C 0.58047 0.36098 0.46305 0.0
C864 C 0.54527 0.37002 0.44208 0.0
C865 C 0.572 0.32974 0.49573 0.0
C866 C 0.59932 0.39631 0.47512 0.0
C867 C 0.6347 0.40376 0.45958 0.0
C868 C 0.65705 0.43559 0.46554 0.0
C869 C 0.64271 0.46073 0.48768 0.0
C870 C 0.60634 0.4539 0.50355 0.0
C871 C 0.58463 0.42097 0.49747 0.0
loop_
_geom_bond_atom_site_label_1
_geom_bond_atom_site_label_2
_geom_bond_distance
_geom_bond_site_symmetry_2
_ccdc_geom_bond_type
H0 C7 0.929 . S
H1 C10 0.930 . S
H2 C12 0.929 . S
H3 C4 0.969 . S
C4 H3 0.969 . S
C4 O5 1.550 . S
C4 H6 0.973 . S
O5 C4 1.550 . S
O5 C11 1.412 . S
H6 C4 0.973 . S
C7 H0 0.929 . S
C7 C8 1.400 . S
C7 C9 1.364 . S
C8 C7 1.400 . S
C8 C12 1.377 . S
C9 C7 1.364 . S
C9 C10 1.374 . S
C10 H1 0.930 . S
C10 C9 1.374 . S
C10 C11 1.383 . S
C11 O5 1.412 . S
C11 C10 1.383 . S
C11 C12 1.394 . S
C12 H2 0.929 . S
C12 C8 1.377 . S
C12 C11 1.394 . S
H13 C20 0.929 . S
H14 C23 0.930 . S
H15 C25 0.929 . S
H16 C17 0.969 . S
C17 H16 0.969 . S
C17 O18 1.550 . S
C17 H19 0.973 . S
O18 C17 1.550 . S
O18 C24 1.412 . S
H19 C17 0.973 . S
C20 H13 0.929 . S
C20 C21 1.400 . S
C20 C22 1.364 . S
C21 C20 1.400 . S
C21 C25 1.377 . S
C22 C20 1.364 . S
C22 C23 1.374 . S
C23 H14 0.930 . S
C23 C22 1.374 . S
C23 C24 1.383 . S
C24 O18 1.412 . S
C24 C23 1.383 . S
C24 C25 1.394 . S
C25 H15 0.929 . S
C25 C21 1.377 . S
C25 C24 1.394 . S
H26 C33 0.929 . S
H27 C36 0.930 . S
H28 C38 0.929 . S
H29 C30 0.969 . S
C30 H29 0.969 . S
C30 O31 1.550 . S
C30 H32 0.973 . S
O31 C30 1.550 . S
O31 C37 1.412 . S
H32 C30 0.973 . S
C33 H26 0.929 . S
C33 C34 1.400 . S
C33 C35 1.364 . S
C34 C33 1.400 . S
C34 C38 1.377 . S
C35 C33 1.364 . S
C35 C36 1.374 . S
C36 H27 0.930 . S
C36 C35 1.374 . S
C36 C37 1.383 . S
C37 O31 1.412 . S
C37 C36 1.383 . S
C37 C38 1.394 . S
C38 H28 0.929 . S
C38 C34 1.377 . S
C38 C37 1.394 . S
H39 C46 0.929 . S
H40 C49 0.930 . S
H41 C51 0.929 . S
H42 C43 0.969 . S
C43 H42 0.969 . S
C43 O44 1.550 . S
C43 H45 0.973 . S
O44 C43 1.550 . S
O44 C50 1.412 . S
H45 C43 0.973 . S
C46 H39 0.929 . S
C46 C47 1.400 . S
C46 C48 1.364 . S
C47 C46 1.400 . S
C47 C51 1.377 . S
C48 C46 1.364 . S
C48 C49 1.374 . S
C49 H40 0.930 . S
C49 C48 1.374 . S
C49 C50 1.383 . S
C50 O44 1.412 . S
C50 C49 1.383 . S
C50 C51 1.394 . S
C51 H41 0.929 . S
C51 C47 1.377 . S
C51 C50 1.394 . S
H52 C59 0.929 . S
H53 C62 0.930 . S
H54 C64 0.929 . S
H55 C56 0.969 . S
C56 H55 0.969 . S
C56 O57 1.550 . S
C56 H58 0.973 . S
O57 C56 1.550 . S
O57 C63 1.412 . S
H58 C56 0.973 . S
C59 H52 0.929 . S
C59 C60 1.400 . S
C59 C61 1.364 . S
C60 C59 1.400 . S
C60 C64 1.377 . S
C61 C59 1.364 . S
C61 C62 1.374 . S
C62 H53 0.930 . S
C62 C61 1.374 . S
C62 C63 1.383 . S
C63 O57 1.412 . S
C63 C62 1.383 . S
C63 C64 1.394 . S
C64 H54 0.929 . S
C64 C60 1.377 . S
C64 C63 1.394 . S
H65 C72 0.929 . S
H66 C75 0.930 . S
H67 C77 0.929 . S
H68 C69 0.969 . S
C69 H68 0.969 . S
C69 O70 1.550 . S
C69 H71 0.973 . S
O70 C69 1.550 . S
O70 C76 1.412 . S
H71 C69 0.973 . S
C72 H65 0.929 . S
C72 C73 1.400 . S
C72 C74 1.364 . S
C73 C72 1.400 . S
C73 C77 1.377 . S
C74 C72 1.364 . S
C74 C75 1.374 . S
C75 H66 0.930 . S
C75 C74 1.374 . S
C75 C76 1.383 . S
C76 O70 1.412 . S
C76 C75 1.383 . S
C76 C77 1.394 . S
C77 H67 0.929 . S
C77 C73 1.377 . S
C77 C76 1.394 . S
H78 C85 0.929 . S
H79 C88 0.930 . S
H80 C90 0.929 . S
H81 C82 0.969 . S
C82 H81 0.969 . S
C82 O83 1.550 . S
C82 H84 0.973 . S
O83 C82 1.550 . S
O83 C89 1.412 . S
H84 C82 0.973 . S
C85 H78 0.929 . S
C85 C86 1.400 . S
C85 C87 1.364 . S
C86 C85 1.400 . S
C86 C90 1.377 . S
C87 C85 1.364 . S
C87 C88 1.374 . S
C88 H79 0.930 . S
C88 C87 1.374 . S
C88 C89 1.383 . S
C89 O83 1.412 . S
C89 C88 1.383 . S
C89 C90 1.394 . S
C90 H80 0.929 . S
C90 C86 1.377 . S
C90 C89 1.394 . S
H91 C98 0.929 . S
H92 C101 0.930 . S
H93 C103 0.929 . S
H94 C95 0.969 . S
C95 H94 0.969 . S
C95 O96 1.550 . S
C95 H97 0.973 . S
O96 C95 1.550 . S
O96 C102 1.412 . S
H97 C95 0.973 . S
C98 H91 0.929 . S
C98 C99 1.400 . S
C98 C100 1.364 . S
C99 C98 1.400 . S
C99 C103 1.377 . S
C100 C98 1.364 . S
C100 C101 1.374 . S
C101 H92 0.930 . S
C101 C100 1.374 . S
C101 C102 1.383 . S
C102 O96 1.412 . S
C102 C101 1.383 . S
C102 C103 1.394 . S
C103 H93 0.929 . S
C103 C99 1.377 . S
C103 C102 1.394 . S
Co104 N109 2.057 . S
Co104 O121 2.021 . S
Co104 O124 2.062 . S
Co104 O128 2.117 1_545 S
Co104 O129 2.020 . S
C105 O125 1.259 1_655 S
C105 O128 1.258 . S
Co106 N115 2.052 1_545 S
Co106 O122 2.117 . S
Co106 O123 2.020 . S
Co106 O125 2.021 1_545 S
Co106 O130 2.062 1_545 S
C107 N109 1.316 . S
C107 N110 1.347 . S
C107 H112 0.931 . S
C108 N109 1.375 . S
C108 C111 1.350 . S
C108 H113 0.930 1_545 S
N109 Co104 2.057 . S
N109 C107 1.316 . S
N109 C108 1.375 . S
N110 C107 1.347 . S
N110 C111 1.373 . S
C111 C108 1.350 . S
C111 N110 1.373 . S
C111 H132 0.931 . S
H112 C107 0.931 . S
H113 C108 0.930 1_565 S
C114 O121 1.259 1_455 S
C114 O122 1.258 . S
N115 Co106 2.052 1_565 S
N115 C116 1.346 . S
N115 C117 1.353 1_565 S
C116 N115 1.346 . S
C116 N118 1.347 . S
C116 H127 0.931 . S
C117 N115 1.353 1_545 S
C117 C119 1.350 . S
C117 H126 0.930 . S
N118 C116 1.347 . S
N118 C119 1.373 1_565 S
C119 C117 1.350 . S
C119 N118 1.373 1_545 S
C119 H133 0.931 . S
C120 O123 1.256 . S
C120 O124 1.255 1_455 S
O121 Co104 2.021 . S
O121 C114 1.259 1_655 S
O122 Co106 2.117 . S
O122 C114 1.258 . S
O123 Co106 2.020 . S
O123 C120 1.256 . S
O124 Co104 2.062 . S
O124 C120 1.255 1_655 S
O125 C105 1.259 1_455 S
O125 Co106 2.021 1_565 S
H126 C117 0.930 . S
H127 C116 0.931 . S
O128 Co104 2.117 1_565 S
O128 C105 1.258 . S
O129 Co104 2.020 . S
O129 C131 1.256 1_545 S
O130 Co106 2.062 1_565 S
O130 C131 1.255 1_455 S
C131 O129 1.256 1_565 S
C131 O130 1.255 1_655 S
H132 C111 0.931 . S
H133 C119 0.931 . S
Co134 N139 2.057 1_545 S
Co134 O151 2.021 . S
Co134 O154 2.062 1_545 S
Co134 O158 2.117 1_546 S
Co134 O159 2.020 . S
C135 O155 1.259 . S
C135 O158 1.258 . S
Co136 N145 2.057 . S
Co136 O152 2.117 . S
Co136 O153 2.020 . S
Co136 O155 2.021 1_545 S
Co136 O160 2.062 . S
C137 N139 1.316 . S
C137 N140 1.347 . S
C137 H142 0.931 1_565 S
C138 N139 1.375 . S
C138 C141 1.350 . S
C138 H143 0.930 . S
N139 Co134 2.057 1_565 S
N139 C137 1.316 . S
N139 C138 1.375 . S
N140 C137 1.347 . S
N140 C141 1.373 . S
C141 C138 1.350 . S
C141 N140 1.373 . S
C141 H162 0.931 . S
H142 C137 0.931 1_545 S
H143 C138 0.930 . S
C144 O151 1.259 . S
C144 O152 1.258 1_556 S
N145 Co136 2.057 . S
N145 C146 1.316 . S
N145 C147 1.375 . S
C146 N145 1.316 . S
C146 N148 1.347 . S
C146 H157 0.931 . S
C147 N145 1.375 . S
C147 C149 1.350 . S
C147 H156 0.930 . S
N148 C146 1.347 . S
N148 C149 1.373 . S
C149 C147 1.350 . S
C149 N148 1.373 . S
C149 H163 0.931 . S
C150 O153 1.256 1_566 S
C150 O154 1.255 . S
O151 Co134 2.021 . S
O151 C144 1.259 . S
O152 Co136 2.117 . S
O152 C144 1.258 1_554 S
O153 Co136 2.020 . S
O153 C150 1.256 1_544 S
O154 Co134 2.062 1_565 S
O154 C150 1.255 . S
O155 C135 1.259 . S
O155 Co136 2.021 1_565 S
H156 C147 0.930 . S
H157 C146 0.931 . S
O158 Co134 2.117 1_564 S
O158 C135 1.258 . S
O159 Co134 2.020 . S
O159 C161 1.256 1_556 S
O160 Co136 2.062 . S
O160 C161 1.255 . S
C161 O159 1.256 1_554 S
C161 O160 1.255 . S
H162 C141 0.931 . S
H163 C149 0.931 . S
Co164 N169 2.057 . S
Co164 O181 2.021 . S
Co164 O184 2.062 . S
Co164 O188 2.117 . S
Co164 O189 2.020 . S
C165 O185 1.259 . S
C165 O188 1.258 . S
Co166 N175 2.057 . S
Co166 O182 2.117 . S
Co166 O183 2.020 . S
Co166 O185 2.021 . S
Co166 O190 2.062 . S
C167 N169 1.316 . S
C167 N170 1.347 . S
C167 H172 0.931 . S
C168 N169 1.375 . S
C168 C171 1.350 . S
C168 H173 0.930 . S
N169 Co164 2.057 . S
N169 C167 1.316 . S
N169 C168 1.375 . S
N170 C167 1.347 . S
N170 C171 1.373 . S
C171 C168 1.350 . S
C171 N170 1.373 . S
C171 H192 0.931 . S
H172 C167 0.931 . S
H173 C168 0.930 . S
C174 O181 1.259 . S
C174 O182 1.258 . S
N175 Co166 2.057 . S
N175 C176 1.316 . S
N175 C177 1.375 . S
C176 N175 1.316 . S
C176 N178 1.347 . S
C176 H187 0.931 . S
C177 N175 1.375 . S
C177 C179 1.350 . S
C177 H186 0.930 . S
N178 C176 1.347 . S
N178 C179 1.373 . S
C179 C177 1.350 . S
C179 N178 1.373 . S
C179 H193 0.931 . S
C180 O183 1.256 . S
C180 O184 1.255 . S
O181 Co164 2.021 . S
O181 C174 1.259 . S
O182 Co166 2.117 . S
O182 C174 1.258 . S
O183 Co166 2.020 . S
O183 C180 1.256 . S
O184 Co164 2.062 . S
O184 C180 1.255 . S
O185 C165 1.259 . S
O185 Co166 2.021 . S
H186 C177 0.930 . S
H187 C176 0.931 . S
O188 Co164 2.117 . S
O188 C165 1.258 . S
O189 Co164 2.020 . S
O189 C191 1.256 . S
O190 Co166 2.062 . S
O190 C191 1.255 . S
C191 O189 1.256 . S
C191 O190 1.255 . S
H192 C171 0.931 . S
H193 C179 0.931 . S
Co194 N199 2.057 . S
Co194 O211 2.021 1_556 S
Co194 O214 2.062 1_556 S
Co194 O218 2.117 1_455 S
Co194 O219 2.020 . S
C195 O215 1.259 . S
C195 O218 1.258 1_554 S
Co196 N205 2.057 . S
Co196 O212 2.117 . S
Co196 O213 2.020 . S
Co196 O215 2.021 1_455 S
Co196 O220 2.062 . S
C197 N199 1.316 . S
C197 N200 1.347 . S
C197 H202 0.931 . S
C198 N199 1.375 . S
C198 C201 1.350 . S
C198 H203 0.930 1_455 S
N199 Co194 2.057 . S
N199 C197 1.316 . S
N199 C198 1.375 . S
N200 C197 1.347 . S
N200 C201 1.373 . S
C201 C198 1.350 . S
C201 N200 1.373 . S
C201 H222 0.931 . S
H202 C197 0.931 . S
H203 C198 0.930 1_655 S
C204 O211 1.259 . S
C204 O212 1.258 . S
N205 Co196 2.057 . S
N205 C206 1.316 1_455 S
N205 C207 1.375 . S
C206 N205 1.316 1_655 S
C206 N208 1.347 . S
C206 H217 0.931 . S
C207 N205 1.375 . S
C207 C209 1.350 . S
C207 H216 0.930 . S
N208 C206 1.347 . S
N208 C209 1.373 1_655 S
C209 C207 1.350 . S
C209 N208 1.373 1_455 S
C209 H223 0.931 . S
C210 O213 1.256 . S
C210 O214 1.255 . S
O211 Co194 2.021 1_554 S
O211 C204 1.259 . S
O212 Co196 2.117 . S
O212 C204 1.258 . S
O213 Co196 2.020 . S
O213 C210 1.256 . S
O214 Co194 2.062 1_554 S
O214 C210 1.255 . S
O215 C195 1.259 . S
O215 Co196 2.021 1_655 S
H216 C207 0.930 . S
H217 C206 0.931 . S
O218 Co194 2.117 1_655 S
O218 C195 1.258 1_556 S
O219 Co194 2.020 . S
O219 C221 1.256 1_556 S
O220 Co196 2.062 . S
O220 C221 1.255 . S
C221 O219 1.256 1_554 S
C221 O220 1.255 . S
H222 C201 0.931 . S
H223 C209 0.931 . S
H224 C236 0.930 . S
H225 C238 0.930 . S
H226 C239 0.930 . S
H227 C243 0.959 1_545 S
H228 C243 0.959 . S
H229 C243 0.961 . S
H230 C244 0.960 1_565 S
H231 C244 0.961 1_565 S
H232 C244 0.959 . S
H233 C247 0.929 . S
H234 C248 0.931 . S
H235 C250 0.930 . S
C236 H224 0.930 . S
C236 C237 1.399 . S
C236 C241 1.399 . S
C237 C236 1.399 . S
C237 C238 1.376 . S
C238 H225 0.930 . S
C238 C237 1.376 . S
C238 C239 1.388 . S
C239 H226 0.930 . S
C239 C238 1.388 . S
C239 C240 1.390 . S
C240 C239 1.390 . S
C240 C241 1.394 . S
C240 C246 1.465 . S
C241 C236 1.399 . S
C241 C240 1.394 . S
C241 C242 1.516 . S
C242 C241 1.516 . S
C242 C243 1.502 1_545 S
C242 C244 1.561 . S
C242 C245 1.526 . S
C243 H227 0.959 1_565 S
C243 H228 0.959 . S
C243 H229 0.961 . S
C243 C242 1.502 1_565 S
C244 H230 0.960 1_545 S
C244 H231 0.961 1_545 S
C244 H232 0.959 . S
C244 C242 1.561 . S
C245 C242 1.526 . S
C245 C246 1.396 . S
C245 C250 1.390 . S
C246 C240 1.465 . S
C246 C245 1.396 . S
C246 C247 1.399 . S
C247 H233 0.929 . S
C247 C246 1.399 . S
C247 C248 1.385 . S
C248 H234 0.931 . S
C248 C247 1.385 . S
C248 C249 1.389 . S
C249 C248 1.389 . S
C249 C250 1.387 . S
C250 H235 0.930 . S
C250 C245 1.390 . S
C250 C249 1.387 . S
H251 C263 0.930 . S
H252 C265 0.930 . S
H253 C266 0.930 . S
H254 C270 0.959 . S
H255 C270 0.959 . S
H256 C270 0.961 . S
H257 C271 0.960 . S
H258 C271 0.961 . S
H259 C271 0.959 . S
H260 C274 0.929 1_545 S
H261 C275 0.931 1_545 S
H262 C277 0.930 . S
C263 H251 0.930 . S
C263 C264 1.399 . S
C263 C268 1.399 . S
C264 C263 1.399 . S
C264 C265 1.376 . S
C265 H252 0.930 . S
C265 C264 1.376 . S
C265 C266 1.388 . S
C266 H253 0.930 . S
C266 C265 1.388 . S
C266 C267 1.390 . S
C267 C266 1.390 . S
C267 C268 1.394 . S
C267 C273 1.465 . S
C268 C263 1.399 . S
C268 C267 1.394 . S
C268 C269 1.516 . S
C269 C268 1.516 . S
C269 C270 1.502 . S
C269 C271 1.561 . S
C269 C272 1.526 . S
C270 H254 0.959 . S
C270 H255 0.959 . S
C270 H256 0.961 . S
C270 C269 1.502 . S
C271 H257 0.960 . S
C271 H258 0.961 . S
C271 H259 0.959 . S
C271 C269 1.561 . S
C272 C269 1.526 . S
C272 C273 1.396 . S
C272 C277 1.390 . S
C273 C267 1.465 . S
C273 C272 1.396 . S
C273 C274 1.399 . S
C274 H260 0.929 1_565 S
C274 C273 1.399 . S
C274 C275 1.385 . S
C275 H261 0.931 1_565 S
C275 C274 1.385 . S
C275 C276 1.389 . S
C276 C275 1.389 . S
C276 C277 1.387 . S
C277 H262 0.930 . S
C277 C272 1.390 . S
C277 C276 1.387 . S
H278 C290 0.930 . S
H279 C292 0.930 . S
H280 C293 0.930 . S
H281 C297 0.959 . S
H282 C297 0.959 . S
H283 C297 0.961 . S
H284 C298 0.960 . S
H285 C298 0.961 . S
H286 C298 0.959 . S
H287 C301 0.929 . S
H288 C302 0.931 . S
H289 C304 0.930 . S
C290 H278 0.930 . S
C290 C291 1.399 . S
C290 C295 1.399 . S
C291 C290 1.399 . S
C291 C292 1.376 . S
C292 H279 0.930 . S
C292 C291 1.376 . S
C292 C293 1.388 . S
C293 H280 0.930 . S
C293 C292 1.388 . S
C293 C294 1.390 . S
C294 C293 1.390 . S
C294 C295 1.394 . S
C294 C300 1.465 . S
C295 C290 1.399 . S
C295 C294 1.394 . S
C295 C296 1.516 . S
C296 C295 1.516 . S
C296 C297 1.502 . S
C296 C298 1.561 . S
C296 C299 1.526 . S
C297 H281 0.959 . S
C297 H282 0.959 . S
C297 H283 0.961 . S
C297 C296 1.502 . S
C298 H284 0.960 . S
C298 H285 0.961 . S
C298 H286 0.959 . S
C298 C296 1.561 . S
C299 C296 1.526 . S
C299 C300 1.396 . S
C299 C304 1.390 . S
C300 C294 1.465 . S
C300 C299 1.396 . S
C300 C301 1.399 . S
C301 H287 0.929 . S
C301 C300 1.399 . S
C301 C302 1.385 . S
C302 H288 0.931 . S
C302 C301 1.385 . S
C302 C303 1.389 . S
C303 C302 1.389 . S
C303 C304 1.387 . S
C304 H289 0.930 . S
C304 C299 1.390 . S
C304 C303 1.387 . S
H305 C317 0.930 . S
H306 C319 0.930 . S
H307 C320 0.930 . S
H308 C324 0.959 . S
H309 C324 0.959 . S
H310 C324 0.961 . S
H311 C325 0.960 . S
H312 C325 0.961 . S
H313 C325 0.959 . S
H314 C328 0.929 . S
H315 C329 0.931 . S
H316 C331 0.930 . S
C317 H305 0.930 . S
C317 C318 1.399 . S
C317 C322 1.399 . S
C318 C317 1.399 . S
C318 C319 1.376 . S
C319 H306 0.930 . S
C319 C318 1.376 . S
C319 C320 1.388 . S
C320 H307 0.930 . S
C320 C319 1.388 . S
C320 C321 1.390 . S
C321 C320 1.390 . S
C321 C322 1.394 . S
C321 C327 1.465 . S
C322 C317 1.399 . S
C322 C321 1.394 . S
C322 C323 1.516 . S
C323 C322 1.516 . S
C323 C324 1.502 1_655 S
C323 C325 1.561 . S
C323 C326 1.526 . S
C324 H308 0.959 . S
C324 H309 0.959 . S
C324 H310 0.961 . S
C324 C323 1.502 1_455 S
C325 H311 0.960 . S
C325 H312 0.961 . S
C325 H313 0.959 . S
C325 C323 1.561 . S
C326 C323 1.526 . S
C326 C327 1.396 . S
C326 C331 1.390 . S
C327 C321 1.465 . S
C327 C326 1.396 . S
C327 C328 1.399 . S
C328 H314 0.929 . S
C328 C327 1.399 . S
C328 C329 1.385 . S
C329 H315 0.931 . S
C329 C328 1.385 . S
C329 C330 1.389 . S
C330 C329 1.389 . S
C330 C331 1.387 . S
C331 H316 0.930 . S
C331 C326 1.390 . S
C331 C330 1.387 . S
H332 C344 0.930 . S
H333 C346 0.930 . S
H334 C347 0.930 . S
H335 C351 0.959 . S
H336 C351 0.959 1_556 S
H337 C351 0.961 . S
H338 C352 0.960 . S
H339 C352 0.961 . S
H340 C352 0.959 . S
H341 C355 0.929 1_565 S
H342 C356 0.931 1_565 S
H343 C358 0.930 . S
C344 H332 0.930 . S
C344 C345 1.399 . S
C344 C349 1.399 . S
C345 C344 1.399 . S
C345 C346 1.376 . S
C346 H333 0.930 . S
C346 C345 1.376 . S
C346 C347 1.388 . S
C347 H334 0.930 . S
C347 C346 1.388 . S
C347 C348 1.390 . S
C348 C347 1.390 . S
C348 C349 1.394 . S
C348 C354 1.465 . S
C349 C344 1.399 . S
C349 C348 1.394 . S
C349 C350 1.516 . S
C350 C349 1.516 . S
C350 C351 1.502 . S
C350 C352 1.561 . S
C350 C353 1.526 . S
C351 H335 0.959 . S
C351 H336 0.959 1_554 S
C351 H337 0.961 . S
C351 C350 1.502 . S
C352 H338 0.960 . S
C352 H339 0.961 . S
C352 H340 0.959 . S
C352 C350 1.561 . S
C353 C350 1.526 . S
C353 C354 1.396 . S
C353 C358 1.390 . S
C354 C348 1.465 . S
C354 C353 1.396 . S
C354 C355 1.399 . S
C355 H341 0.929 1_545 S
C355 C354 1.399 . S
C355 C356 1.385 . S
C356 H342 0.931 1_545 S
C356 C355 1.385 . S
C356 C357 1.389 . S
C357 C356 1.389 . S
C357 C358 1.387 . S
C358 H343 0.930 . S
C358 C353 1.390 . S
C358 C357 1.387 . S
H359 C371 0.930 . S
H360 C373 0.930 . S
H361 C374 0.930 . S
H362 C378 0.959 . S
H363 C378 0.959 . S
H364 C378 0.961 . S
H365 C379 0.960 . S
H366 C379 0.961 . S
H367 C379 0.959 . S
H368 C382 0.929 1_545 S
H369 C383 0.931 1_545 S
H370 C385 0.930 . S
C371 H359 0.930 . S
C371 C372 1.399 . S
C371 C376 1.399 . S
C372 C371 1.399 . S
C372 C373 1.376 . S
C373 H360 0.930 . S
C373 C372 1.376 . S
C373 C374 1.388 . S
C374 H361 0.930 . S
C374 C373 1.388 . S
C374 C375 1.390 . S
C375 C374 1.390 . S
C375 C376 1.394 . S
C375 C381 1.465 . S
C376 C371 1.399 . S
C376 C375 1.394 . S
C376 C377 1.516 . S
C377 C376 1.516 . S
C377 C378 1.502 . S
C377 C379 1.561 . S
C377 C380 1.526 . S
C378 H362 0.959 . S
C378 H363 0.959 . S
C378 H364 0.961 . S
C378 C377 1.502 . S
C379 H365 0.960 . S
C379 H366 0.961 . S
C379 H367 0.959 . S
C379 C377 1.561 . S
C380 C377 1.526 . S
C380 C381 1.396 . S
C380 C385 1.390 . S
C381 C375 1.465 . S
C381 C380 1.396 . S
C381 C382 1.399 . S
C382 H368 0.929 1_565 S
C382 C381 1.399 . S
C382 C383 1.385 . S
C383 H369 0.931 1_565 S
C383 C382 1.385 . S
C383 C384 1.389 . S
C384 C383 1.389 . S
C384 C385 1.387 . S
C385 H370 0.930 . S
C385 C380 1.390 . S
C385 C384 1.387 . S
H386 C398 0.930 . S
H387 C400 0.930 . S
H388 C401 0.930 . S
H389 C405 0.959 . S
H390 C405 0.959 . S
H391 C405 0.961 . S
H392 C406 0.960 . S
H393 C406 0.961 1_554 S
H394 C406 0.959 . S
H395 C409 0.929 . S
H396 C410 0.931 . S
H397 C412 0.930 . S
C398 H386 0.930 . S
C398 C399 1.399 . S
C398 C403 1.399 . S
C399 C398 1.399 . S
C399 C400 1.376 . S
C400 H387 0.930 . S
C400 C399 1.376 . S
C400 C401 1.388 . S
C401 H388 0.930 . S
C401 C400 1.388 . S
C401 C402 1.390 . S
C402 C401 1.390 . S
C402 C403 1.394 . S
C402 C408 1.465 . S
C403 C398 1.399 . S
C403 C402 1.394 . S
C403 C404 1.516 . S
C404 C403 1.516 . S
C404 C405 1.502 1_556 S
C404 C406 1.561 . S
C404 C407 1.526 . S
C405 H389 0.959 . S
C405 H390 0.959 . S
C405 H391 0.961 . S
C405 C404 1.502 1_554 S
C406 H392 0.960 . S
C406 H393 0.961 1_556 S
C406 H394 0.959 . S
C406 C404 1.561 . S
C407 C404 1.526 . S
C407 C408 1.396 . S
C407 C412 1.390 1_556 S
C408 C402 1.465 . S
C408 C407 1.396 . S
C408 C409 1.399 . S
C409 H395 0.929 . S
C409 C408 1.399 . S
C409 C410 1.385 . S
C410 H396 0.931 . S
C410 C409 1.385 . S
C410 C411 1.389 . S
C411 C410 1.389 . S
C411 C412 1.387 1_556 S
C412 H397 0.930 . S
C412 C407 1.390 1_554 S
C412 C411 1.387 1_554 S
H413 C425 0.930 . S
H414 C427 0.930 . S
H415 C428 0.930 . S
H416 C432 0.959 . S
H417 C432 0.959 . S
H418 C432 0.961 . S
H419 C433 0.960 . S
H420 C433 0.961 . S
H421 C433 0.959 . S
H422 C436 0.929 . S
H423 C437 0.931 . S
H424 C439 0.930 . S
C425 H413 0.930 . S
C425 C426 1.399 . S
C425 C430 1.399 . S
C426 C425 1.399 . S
C426 C427 1.376 . S
C427 H414 0.930 . S
C427 C426 1.376 . S
C427 C428 1.388 . S
C428 H415 0.930 . S
C428 C427 1.388 . S
C428 C429 1.390 . S
C429 C428 1.390 . S
C429 C430 1.394 . S
C429 C435 1.465 . S
C430 C425 1.399 . S
C430 C429 1.394 . S
C430 C431 1.516 . S
C431 C430 1.516 . S
C431 C432 1.502 . S
C431 C433 1.561 . S
C431 C434 1.526 . S
C432 H416 0.959 . S
C432 H417 0.959 . S
C432 H418 0.961 . S
C432 C431 1.502 . S
C433 H419 0.960 . S
C433 H420 0.961 . S
C433 H421 0.959 . S
C433 C431 1.561 . S
C434 C431 1.526 . S
C434 C435 1.396 . S
C434 C439 1.390 . S
C435 C429 1.465 . S
C435 C434 1.396 . S
C435 C436 1.399 . S
C436 H422 0.929 . S
C436 C435 1.399 . S
C436 C437 1.385 . S
C437 H423 0.931 . S
C437 C436 1.385 . S
C437 C438 1.389 . S
C438 C437 1.389 . S
C438 C439 1.387 . S
C439 H424 0.930 . S
C439 C434 1.390 . S
C439 C438 1.387 . S
H440 C452 0.930 . S
H441 C454 0.930 . S
H442 C455 0.930 . S
H443 C459 0.959 . S
H444 C459 0.959 . S
H445 C459 0.961 . S
H446 C460 0.960 . S
H447 C460 0.961 . S
H448 C460 0.959 . S
H449 C463 0.929 . S
H450 C464 0.931 . S
H451 C466 0.930 . S
C452 H440 0.930 . S
C452 C453 1.399 . S
C452 C457 1.399 . S
C453 C452 1.399 . S
C453 C454 1.376 . S
C454 H441 0.930 . S
C454 C453 1.376 . S
C454 C455 1.388 . S
C455 H442 0.930 . S
C455 C454 1.388 . S
C455 C456 1.390 . S
C456 C455 1.390 . S
C456 C457 1.394 . S
C456 C462 1.465 . S
C457 C452 1.399 . S
C457 C456 1.394 . S
C457 C458 1.516 . S
C458 C457 1.516 . S
C458 C459 1.502 . S
C458 C460 1.561 . S
C458 C461 1.526 . S
C459 H443 0.959 . S
C459 H444 0.959 . S
C459 H445 0.961 . S
C459 C458 1.502 . S
C460 H446 0.960 . S
C460 H447 0.961 . S
C460 H448 0.959 . S
C460 C458 1.561 . S
C461 C458 1.526 . S
C461 C462 1.396 . S
C461 C466 1.390 . S
C462 C456 1.465 . S
C462 C461 1.396 . S
C462 C463 1.399 . S
C463 H449 0.929 . S
C463 C462 1.399 . S
C463 C464 1.385 . S
C464 H450 0.931 . S
C464 C463 1.385 . S
C464 C465 1.389 . S
C465 C464 1.389 . S
C465 C466 1.387 . S
C466 H451 0.930 . S
C466 C461 1.390 . S
C466 C465 1.387 . S
H467 C479 0.930 . S
H468 C481 0.930 . S
H469 C482 0.930 1_554 S
H470 C486 0.959 . S
H471 C486 0.959 . S
H472 C486 0.961 . S
H473 C487 0.960 . S
H474 C487 0.961 . S
H475 C487 0.959 . S
H476 C490 0.929 . S
H477 C491 0.931 . S
H478 C493 0.930 . S
C479 H467 0.930 . S
C479 C480 1.399 . S
C479 C484 1.399 . S
C480 C479 1.399 . S
C480 C481 1.376 . S
C481 H468 0.930 . S
C481 C480 1.376 . S
C481 C482 1.388 . S
C482 H469 0.930 1_556 S
C482 C481 1.388 . S
C482 C483 1.390 . S
C483 C482 1.390 . S
C483 C484 1.394 . S
C483 C489 1.465 . S
C484 C479 1.399 . S
C484 C483 1.394 . S
C484 C485 1.516 . S
C485 C484 1.516 . S
C485 C486 1.502 . S
C485 C487 1.561 . S
C485 C488 1.526 . S
C486 H470 0.959 . S
C486 H471 0.959 . S
C486 H472 0.961 . S
C486 C485 1.502 . S
C487 H473 0.960 . S
C487 H474 0.961 . S
C487 H475 0.959 . S
C487 C485 1.561 . S
C488 C485 1.526 . S
C488 C489 1.396 . S
C488 C493 1.390 . S
C489 C483 1.465 . S
C489 C488 1.396 . S
C489 C490 1.399 1_556 S
C490 H476 0.929 . S
C490 C489 1.399 1_554 S
C490 C491 1.385 . S
C491 H477 0.931 . S
C491 C490 1.385 . S
C491 C492 1.389 1_554 S
C492 C491 1.389 1_556 S
C492 C493 1.387 . S
C493 H478 0.930 . S
C493 C488 1.390 . S
C493 C492 1.387 . S
H494 C506 0.930 . S
H495 C508 0.930 . S
H496 C509 0.930 . S
H497 C513 0.959 . S
H498 C513 0.959 . S
H499 C513 0.961 . S
H500 C514 0.960 1_655 S
H501 C514 0.961 . S
H502 C514 0.959 . S
H503 C517 0.929 . S
H504 C518 0.931 . S
H505 C520 0.930 . S
C506 H494 0.930 . S
C506 C507 1.399 . S
C506 C511 1.399 . S
C507 C506 1.399 . S
C507 C508 1.376 . S
C508 H495 0.930 . S
C508 C507 1.376 . S
C508 C509 1.388 . S
C509 H496 0.930 . S
C509 C508 1.388 . S
C509 C510 1.390 . S
C510 C509 1.390 . S
C510 C511 1.394 . S
C510 C516 1.465 . S
C511 C506 1.399 . S
C511 C510 1.394 . S
C511 C512 1.516 . S
C512 C511 1.516 . S
C512 C513 1.502 . S
C512 C514 1.561 1_655 S
C512 C515 1.526 . S
C513 H497 0.959 . S
C513 H498 0.959 . S
C513 H499 0.961 . S
C513 C512 1.502 . S
C514 H500 0.960 1_455 S
C514 H501 0.961 . S
C514 H502 0.959 . S
C514 C512 1.561 1_455 S
C515 C512 1.526 . S
C515 C516 1.396 . S
C515 C520 1.390 . S
C516 C510 1.465 . S
C516 C515 1.396 . S
C516 C517 1.399 . S
C517 H503 0.929 . S
C517 C516 1.399 . S
C517 C518 1.385 . S
C518 H504 0.931 . S
C518 C517 1.385 . S
C518 C519 1.389 . S
C519 C518 1.389 . S
C519 C520 1.387 . S
C520 H505 0.930 . S
C520 C515 1.390 . S
C520 C519 1.387 . S
H521 C533 0.930 . S
H522 C535 0.930 . S
H523 C536 0.930 . S
H524 C540 0.959 . S
H525 C540 0.959 . S
H526 C540 0.961 . S
H527 C541 0.960 . S
H528 C541 0.961 . S
H529 C541 0.959 . S
H530 C544 0.929 . S
H531 C545 0.931 . S
H532 C547 0.930 . S
C533 H521 0.930 . S
C533 C534 1.399 . S
C533 C538 1.399 . S
C534 C533 1.399 . S
C534 C535 1.376 . S
C535 H522 0.930 . S
C535 C534 1.376 . S
C535 C536 1.388 . S
C536 H523 0.930 . S
C536 C535 1.388 . S
C536 C537 1.390 . S
C537 C536 1.390 . S
C537 C538 1.394 . S
C537 C543 1.465 . S
C538 C533 1.399 . S
C538 C537 1.394 . S
C538 C539 1.516 . S
C539 C538 1.516 . S
C539 C540 1.502 . S
C539 C541 1.561 . S
C539 C542 1.526 . S
C540 H524 0.959 . S
C540 H525 0.959 . S
C540 H526 0.961 . S
C540 C539 1.502 . S
C541 H527 0.960 . S
C541 H528 0.961 . S
C541 H529 0.959 . S
C541 C539 1.561 . S
C542 C539 1.526 . S
C542 C543 1.396 . S
C542 C547 1.390 . S
C543 C537 1.465 . S
C543 C542 1.396 . S
C543 C544 1.399 . S
C544 H530 0.929 . S
C544 C543 1.399 . S
C544 C545 1.385 . S
C545 H531 0.931 . S
C545 C544 1.385 . S
C545 C546 1.389 . S
C546 C545 1.389 . S
C546 C547 1.387 . S
C547 H532 0.930 . S
C547 C542 1.390 . S
C547 C546 1.387 . S
H548 C560 0.930 . S
H549 C562 0.930 . S
H550 C563 0.930 1_545 S
H551 C567 0.959 . S
H552 C567 0.959 . S
H553 C567 0.961 . S
H554 C568 0.960 . S
H555 C568 0.961 . S
H556 C568 0.959 . S
H557 C571 0.929 . S
H558 C572 0.931 . S
H559 C574 0.930 . S
C560 H548 0.930 . S
C560 C561 1.399 . S
C560 C565 1.399 . S
C561 C560 1.399 . S
C561 C562 1.376 . S
C562 H549 0.930 . S
C562 C561 1.376 . S
C562 C563 1.388 . S
C563 H550 0.930 1_565 S
C563 C562 1.388 . S
C563 C564 1.390 . S
C564 C563 1.390 . S
C564 C565 1.394 . S
C564 C570 1.465 . S
C565 C560 1.399 . S
C565 C564 1.394 . S
C565 C566 1.516 . S
C566 C565 1.516 . S
C566 C567 1.502 1_655 S
C566 C568 1.561 . S
C566 C569 1.526 . S
C567 H551 0.959 . S
C567 H552 0.959 . S
C567 H553 0.961 . S
C567 C566 1.502 1_455 S
C568 H554 0.960 . S
C568 H555 0.961 . S
C568 H556 0.959 . S
C568 C566 1.561 . S
C569 C566 1.526 . S
C569 C570 1.396 . S
C569 C574 1.390 . S
C570 C564 1.465 . S
C570 C569 1.396 . S
C570 C571 1.399 1_565 S
C571 H557 0.929 . S
C571 C570 1.399 1_545 S
C571 C572 1.385 . S
C572 H558 0.931 . S
C572 C571 1.385 . S
C572 C573 1.389 1_545 S
C573 C572 1.389 1_565 S
C573 C574 1.387 . S
C574 H559 0.930 . S
C574 C569 1.390 . S
C574 C573 1.387 . S
H575 C587 0.930 . S
H576 C589 0.930 . S
H577 C590 0.930 . S
H578 C594 0.959 . S
H579 C594 0.959 . S
H580 C594 0.961 . S
H581 C595 0.960 . S
H582 C595 0.961 . S
H583 C595 0.959 . S
H584 C598 0.929 . S
H585 C599 0.931 . S
H586 C601 0.930 . S
C587 H575 0.930 . S
C587 C588 1.399 . S
C587 C592 1.399 . S
C588 C587 1.399 . S
C588 C589 1.376 . S
C589 H576 0.930 . S
C589 C588 1.376 . S
C589 C590 1.388 . S
C590 H577 0.930 . S
C590 C589 1.388 . S
C590 C591 1.390 . S
C591 C590 1.390 . S
C591 C592 1.394 . S
C591 C597 1.465 . S
C592 C587 1.399 . S
C592 C591 1.394 . S
C592 C593 1.516 . S
C593 C592 1.516 . S
C593 C594 1.502 . S
C593 C595 1.561 . S
C593 C596 1.526 . S
C594 H578 0.959 . S
C594 H579 0.959 . S
C594 H580 0.961 . S
C594 C593 1.502 . S
C595 H581 0.960 . S
C595 H582 0.961 . S
C595 H583 0.959 . S
C595 C593 1.561 . S
C596 C593 1.526 . S
C596 C597 1.396 . S
C596 C601 1.390 . S
C597 C591 1.465 . S
C597 C596 1.396 . S
C597 C598 1.399 . S
C598 H584 0.929 . S
C598 C597 1.399 . S
C598 C599 1.385 . S
C599 H585 0.931 . S
C599 C598 1.385 . S
C599 C600 1.389 . S
C600 C599 1.389 . S
C600 C601 1.387 . S
C601 H586 0.930 . S
C601 C596 1.390 . S
C601 C600 1.387 . S
H602 C614 0.930 . S
H603 C616 0.930 . S
H604 C617 0.930 . S
H605 C621 0.959 . S
H606 C621 0.959 . S
H607 C621 0.961 . S
H608 C622 0.960 . S
H609 C622 0.961 . S
H610 C622 0.959 . S
H611 C625 0.929 . S
H612 C626 0.931 . S
H613 C628 0.930 . S
C614 H602 0.930 . S
C614 C615 1.399 . S
C614 C619 1.399 . S
C615 C614 1.399 . S
C615 C616 1.376 . S
C616 H603 0.930 . S
C616 C615 1.376 . S
C616 C617 1.388 . S
C617 H604 0.930 . S
C617 C616 1.388 . S
C617 C618 1.390 . S
C618 C617 1.390 . S
C618 C619 1.394 . S
C618 C624 1.465 . S
C619 C614 1.399 . S
C619 C618 1.394 . S
C619 C620 1.516 . S
C620 C619 1.516 . S
C620 C621 1.502 . S
C620 C622 1.561 . S
C620 C623 1.526 . S
C621 H605 0.959 . S
C621 H606 0.959 . S
C621 H607 0.961 . S
C621 C620 1.502 . S
C622 H608 0.960 . S
C622 H609 0.961 . S
C622 H610 0.959 . S
C622 C620 1.561 . S
C623 C620 1.526 . S
C623 C624 1.396 . S
C623 C628 1.390 . S
C624 C618 1.465 . S
C624 C623 1.396 . S
C624 C625 1.399 . S
C625 H611 0.929 . S
C625 C624 1.399 . S
C625 C626 1.385 . S
C626 H612 0.931 . S
C626 C625 1.385 . S
C626 C627 1.389 . S
C627 C626 1.389 . S
C627 C628 1.387 . S
C628 H613 0.930 . S
C628 C623 1.390 . S
C628 C627 1.387 . S
H629 C641 0.930 . S
H630 C643 0.930 . S
H631 C644 0.930 . S
H632 C648 0.959 . S
H633 C648 0.959 . S
H634 C648 0.961 . S
H635 C649 0.960 . S
H636 C649 0.961 . S
H637 C649 0.959 . S
H638 C652 0.929 . S
H639 C653 0.931 . S
H640 C655 0.930 . S
C641 H629 0.930 . S
C641 C642 1.399 . S
C641 C646 1.399 . S
C642 C641 1.399 . S
C642 C643 1.376 . S
C643 H630 0.930 . S
C643 C642 1.376 . S
C643 C644 1.388 . S
C644 H631 0.930 . S
C644 C643 1.388 . S
C644 C645 1.390 . S
C645 C644 1.390 . S
C645 C646 1.394 . S
C645 C651 1.465 . S
C646 C641 1.399 . S
C646 C645 1.394 . S
C646 C647 1.516 . S
C647 C646 1.516 . S
C647 C648 1.502 . S
C647 C649 1.561 . S
C647 C650 1.526 . S
C648 H632 0.959 . S
C648 H633 0.959 . S
C648 H634 0.961 . S
C648 C647 1.502 . S
C649 H635 0.960 . S
C649 H636 0.961 . S
C649 H637 0.959 . S
C649 C647 1.561 . S
C650 C647 1.526 . S
C650 C651 1.396 . S
C650 C655 1.390 . S
C651 C645 1.465 . S
C651 C650 1.396 . S
C651 C652 1.399 . S
C652 H638 0.929 . S
C652 C651 1.399 . S
C652 C653 1.385 . S
C653 H639 0.931 . S
C653 C652 1.385 . S
C653 C654 1.389 . S
C654 C653 1.389 . S
C654 C655 1.387 . S
C655 H640 0.930 . S
C655 C650 1.390 . S
C655 C654 1.387 . S
H656 C668 0.930 . S
H657 C670 0.930 . S
H658 C671 0.930 . S
H659 C675 0.959 . S
H660 C675 0.959 . S
H661 C675 0.961 . S
H662 C676 0.960 . S
H663 C676 0.961 . S
H664 C676 0.959 . S
H665 C679 0.929 . S
H666 C680 0.931 . S
H667 C682 0.930 1_554 S
C668 H656 0.930 . S
C668 C669 1.399 . S
C668 C673 1.399 . S
C669 C668 1.399 . S
C669 C670 1.376 . S
C670 H657 0.930 . S
C670 C669 1.376 . S
C670 C671 1.388 . S
C671 H658 0.930 . S
C671 C670 1.388 . S
C671 C672 1.390 . S
C672 C671 1.390 . S
C672 C673 1.394 . S
C672 C678 1.465 . S
C673 C668 1.399 . S
C673 C672 1.394 . S
C673 C674 1.500 1_556 S
C674 C673 1.500 1_554 S
C674 C675 1.514 . S
C674 C676 1.571 . S
C674 C677 1.518 1_554 S
C675 H659 0.959 . S
C675 H660 0.959 . S
C675 H661 0.961 . S
C675 C674 1.514 . S
C676 H662 0.960 . S
C676 H663 0.961 . S
C676 H664 0.959 . S
C676 C674 1.571 . S
C677 C674 1.518 1_556 S
C677 C678 1.396 . S
C677 C682 1.390 . S
C678 C672 1.465 . S
C678 C677 1.396 . S
C678 C679 1.399 . S
C679 H665 0.929 . S
C679 C678 1.399 . S
C679 C680 1.385 . S
C680 H666 0.931 . S
C680 C679 1.385 . S
C680 C681 1.389 . S
C681 C680 1.389 . S
C681 C682 1.387 . S
C682 H667 0.930 1_556 S
C682 C677 1.390 . S
C682 C681 1.387 . S
H683 C695 0.930 . S
H684 C697 0.930 . S
H685 C698 0.930 . S
H686 C702 0.959 . S
H687 C702 0.959 . S
H688 C702 0.961 . S
H689 C703 0.960 . S
H690 C703 0.961 . S
H691 C703 0.959 . S
H692 C706 0.929 . S
H693 C707 0.931 . S
H694 C709 0.930 . S
C695 H683 0.930 . S
C695 C696 1.399 . S
C695 C700 1.399 . S
C696 C695 1.399 . S
C696 C697 1.376 . S
C697 H684 0.930 . S
C697 C696 1.376 . S
C697 C698 1.388 . S
C698 H685 0.930 . S
C698 C697 1.388 . S
C698 C699 1.390 . S
C699 C698 1.390 . S
C699 C700 1.394 . S
C699 C705 1.465 . S
C700 C695 1.399 . S
C700 C699 1.394 . S
C700 C701 1.516 . S
C701 C700 1.516 . S
C701 C702 1.502 . S
C701 C703 1.561 . S
C701 C704 1.526 . S
C702 H686 0.959 . S
C702 H687 0.959 . S
C702 H688 0.961 . S
C702 C701 1.502 . S
C703 H689 0.960 . S
C703 H690 0.961 . S
C703 H691 0.959 . S
C703 C701 1.561 . S
C704 C701 1.526 . S
C704 C705 1.396 . S
C704 C709 1.390 . S
C705 C699 1.465 . S
C705 C704 1.396 . S
C705 C706 1.399 . S
C706 H692 0.929 . S
C706 C705 1.399 . S
C706 C707 1.385 . S
C707 H693 0.931 . S
C707 C706 1.385 . S
C707 C708 1.389 . S
C708 C707 1.389 . S
C708 C709 1.387 . S
C709 H694 0.930 . S
C709 C704 1.390 . S
C709 C708 1.387 . S
H710 C722 0.930 . S
H711 C724 0.930 . S
H712 C725 0.930 . S
H713 C729 0.959 . S
H714 C729 0.959 . S
H715 C729 0.961 . S
H716 C730 0.960 . S
H717 C730 0.961 . S
H718 C730 0.959 . S
H719 C733 0.929 . S
H720 C734 0.931 . S
H721 C736 0.930 . S
C722 H710 0.930 . S
C722 C723 1.399 . S
C722 C727 1.399 . S
C723 C722 1.399 . S
C723 C724 1.376 . S
C724 H711 0.930 . S
C724 C723 1.376 . S
C724 C725 1.388 . S
C725 H712 0.930 . S
C725 C724 1.388 . S
C725 C726 1.390 . S
C726 C725 1.390 . S
C726 C727 1.394 . S
C726 C732 1.465 . S
C727 C722 1.399 . S
C727 C726 1.394 . S
C727 C728 1.516 . S
C728 C727 1.516 . S
C728 C729 1.502 . S
C728 C730 1.561 . S
C728 C731 1.526 . S
C729 H713 0.959 . S
C729 H714 0.959 . S
C729 H715 0.961 . S
C729 C728 1.502 . S
C730 H716 0.960 . S
C730 H717 0.961 . S
C730 H718 0.959 . S
C730 C728 1.561 . S
C731 C728 1.526 . S
C731 C732 1.396 . S
C731 C736 1.390 . S
C732 C726 1.465 . S
C732 C731 1.396 . S
C732 C733 1.399 . S
C733 H719 0.929 . S
C733 C732 1.399 . S
C733 C734 1.385 . S
C734 H720 0.931 . S
C734 C733 1.385 . S
C734 C735 1.389 . S
C735 C734 1.389 . S
C735 C736 1.387 . S
C736 H721 0.930 . S
C736 C731 1.390 . S
C736 C735 1.387 . S
H737 C749 0.930 . S
H738 C751 0.930 . S
H739 C752 0.930 . S
H740 C756 0.959 . S
H741 C756 0.959 . S
H742 C756 0.961 . S
H743 C757 0.960 . S
H744 C757 0.961 . S
H745 C757 0.959 . S
H746 C760 0.929 . S
H747 C761 0.931 . S
H748 C763 0.930 . S
C749 H737 0.930 . S
C749 C750 1.399 . S
C749 C754 1.399 . S
C750 C749 1.399 . S
C750 C751 1.376 . S
C751 H738 0.930 . S
C751 C750 1.376 . S
C751 C752 1.388 . S
C752 H739 0.930 . S
C752 C751 1.388 . S
C752 C753 1.390 . S
C753 C752 1.390 . S
C753 C754 1.394 . S
C753 C759 1.465 . S
C754 C749 1.399 . S
C754 C753 1.394 . S
C754 C755 1.516 . S
C755 C754 1.516 . S
C755 C756 1.502 . S
C755 C757 1.561 . S
C755 C758 1.526 . S
C756 H740 0.959 . S
C756 H741 0.959 . S
C756 H742 0.961 . S
C756 C755 1.502 . S
C757 H743 0.960 . S
C757 H744 0.961 . S
C757 H745 0.959 . S
C757 C755 1.561 . S
C758 C755 1.526 . S
C758 C759 1.396 . S
C758 C763 1.390 . S
C759 C753 1.465 . S
C759 C758 1.396 . S
C759 C760 1.399 . S
C760 H746 0.929 . S
C760 C759 1.399 . S
C760 C761 1.385 . S
C761 H747 0.931 . S
C761 C760 1.385 . S
C761 C762 1.389 . S
C762 C761 1.389 . S
C762 C763 1.387 . S
C763 H748 0.930 . S
C763 C758 1.390 . S
C763 C762 1.387 . S
H764 C776 0.930 1_554 S
H765 C778 0.930 . S
H766 C779 0.930 . S
H767 C783 0.959 . S
H768 C783 0.959 . S
H769 C783 0.963 . S
H770 C784 0.960 . S
H771 C784 0.961 . S
H772 C784 0.959 . S
H773 C787 0.929 . S
H774 C788 0.931 . S
H775 C790 0.928 1_455 S
C776 H764 0.930 1_556 S
C776 C777 1.399 . S
C776 C781 1.399 . S
C777 C776 1.399 . S
C777 C778 1.376 . S
C778 H765 0.930 . S
C778 C777 1.376 . S
C778 C779 1.388 . S
C779 H766 0.930 . S
C779 C778 1.388 . S
C779 C780 1.390 . S
C780 C779 1.390 . S
C780 C781 1.394 . S
C780 C786 1.465 . S
C781 C776 1.399 . S
C781 C780 1.394 . S
C781 C782 1.516 1_556 S
C782 C781 1.516 1_554 S
C782 C783 1.502 1_655 S
C782 C784 1.561 . S
C782 C785 1.544 . S
C783 H767 0.959 . S
C783 H768 0.959 . S
C783 H769 0.963 . S
C783 C782 1.502 1_455 S
C784 H770 0.960 . S
C784 H771 0.961 . S
C784 H772 0.959 . S
C784 C782 1.561 . S
C785 C782 1.544 . S
C785 C786 1.364 1_554 S
C785 C790 1.400 . S
C786 C780 1.465 . S
C786 C785 1.364 1_556 S
C786 C787 1.399 . S
C787 H773 0.929 . S
C787 C786 1.399 . S
C787 C788 1.385 . S
C788 H774 0.931 . S
C788 C787 1.385 . S
C788 C789 1.385 1_655 S
C789 C788 1.385 1_455 S
C789 C790 1.379 1_456 S
C790 H775 0.928 1_655 S
C790 C785 1.400 . S
C790 C789 1.379 1_654 S
H791 C803 0.930 . S
H792 C805 0.930 . S
H793 C806 0.930 . S
H794 C810 0.959 . S
H795 C810 0.959 . S
H796 C810 0.961 . S
H797 C811 0.960 . S
H798 C811 0.961 . S
H799 C811 0.959 . S
H800 C814 0.929 . S
H801 C815 0.931 . S
H802 C817 0.930 . S
C803 H791 0.930 . S
C803 C804 1.399 . S
C803 C808 1.399 . S
C804 C803 1.399 . S
C804 C805 1.376 . S
C805 H792 0.930 . S
C805 C804 1.376 . S
C805 C806 1.388 . S
C806 H793 0.930 . S
C806 C805 1.388 . S
C806 C807 1.390 . S
C807 C806 1.390 . S
C807 C808 1.394 . S
C807 C813 1.465 . S
C808 C803 1.399 . S
C808 C807 1.394 . S
C808 C809 1.516 . S
C809 C808 1.516 . S
C809 C810 1.502 . S
C809 C811 1.561 . S
C809 C812 1.526 . S
C810 H794 0.959 . S
C810 H795 0.959 . S
C810 H796 0.961 . S
C810 C809 1.502 . S
C811 H797 0.960 . S
C811 H798 0.961 . S
C811 H799 0.959 . S
C811 C809 1.561 . S
C812 C809 1.526 . S
C812 C813 1.396 . S
C812 C817 1.390 . S
C813 C807 1.465 . S
C813 C812 1.396 . S
C813 C814 1.399 . S
C814 H800 0.929 . S
C814 C813 1.399 . S
C814 C815 1.385 . S
C815 H801 0.931 . S
C815 C814 1.385 . S
C815 C816 1.389 . S
C816 C815 1.389 . S
C816 C817 1.387 . S
C817 H802 0.930 . S
C817 C812 1.390 . S
C817 C816 1.387 . S
H818 C830 0.930 . S
H819 C832 0.930 . S
H820 C833 0.930 . S
H821 C837 0.959 . S
H822 C837 0.959 . S
H823 C837 0.961 . S
H824 C838 0.960 . S
H825 C838 0.961 . S
H826 C838 0.959 . S
H827 C841 0.929 . S
H828 C842 0.931 . S
H829 C844 0.930 . S
C830 H818 0.930 . S
C830 C831 1.399 . S
C830 C835 1.399 . S
C831 C830 1.399 . S
C831 C832 1.376 . S
C832 H819 0.930 . S
C832 C831 1.376 . S
C832 C833 1.388 . S
C833 H820 0.930 . S
C833 C832 1.388 . S
C833 C834 1.390 . S
C834 C833 1.390 . S
C834 C835 1.394 . S
C834 C840 1.465 . S
C835 C830 1.399 . S
C835 C834 1.394 . S
C835 C836 1.516 . S
C836 C835 1.516 . S
C836 C837 1.502 . S
C836 C838 1.561 . S
C836 C839 1.526 . S
C837 H821 0.959 . S
C837 H822 0.959 . S
C837 H823 0.961 . S
C837 C836 1.502 . S
C838 H824 0.960 . S
C838 H825 0.961 . S
C838 H826 0.959 . S
C838 C836 1.561 . S
C839 C836 1.526 . S
C839 C840 1.396 . S
C839 C844 1.390 . S
C840 C834 1.465 . S
C840 C839 1.396 . S
C840 C841 1.399 . S
C841 H827 0.929 . S
C841 C840 1.399 . S
C841 C842 1.385 . S
C842 H828 0.931 . S
C842 C841 1.385 . S
C842 C843 1.389 . S
C843 C842 1.389 . S
C843 C844 1.387 . S
C844 H829 0.930 . S
C844 C839 1.390 . S
C844 C843 1.387 . S
H845 C857 0.930 . S
H846 C859 0.930 . S
H847 C860 0.930 . S
H848 C864 0.959 . S
H849 C864 0.959 . S
H850 C864 0.961 . S
H851 C865 0.960 . S
H852 C865 0.961 . S
H853 C865 0.959 . S
H854 C868 0.929 . S
H855 C869 0.931 . S
H856 C871 0.930 . S
C857 H845 0.930 . S
C857 C858 1.399 . S
C857 C862 1.399 . S
C858 C857 1.399 . S
C858 C859 1.376 . S
C859 H846 0.930 . S
C859 C858 1.376 . S
C859 C860 1.388 . S
C860 H847 0.930 . S
C860 C859 1.388 . S
C860 C861 1.390 . S
C861 C860 1.390 . S
C861 C862 1.394 . S
C861 C867 1.465 . S
C862 C857 1.399 . S
C862 C861 1.394 . S
C862 C863 1.516 . S
C863 C862 1.516 . S
C863 C864 1.502 . S
C863 C865 1.561 . S
C863 C866 1.526 . S
C864 H848 0.959 . S
C864 H849 0.959 . S
C864 H850 0.961 . S
C864 C863 1.502 . S
C865 H851 0.960 . S
C865 H852 0.961 . S
C865 H853 0.959 . S
C865 C863 1.561 . S
C866 C863 1.526 . S
C866 C867 1.396 . S
C866 C871 1.390 . S
C867 C861 1.465 . S
C867 C866 1.396 . S
C867 C868 1.399 . S
C868 H854 0.929 . S
C868 C867 1.399 . S
C868 C869 1.385 . S
C869 H855 0.931 . S
C869 C868 1.385 . S
C869 C870 1.389 . S
C870 C869 1.389 . S
C870 C871 1.387 . S
C871 H856 0.930 . S
C871 C866 1.390 . S
C871 C870 1.387 . S
C237 C9 2.498 . S
C249 C120 2.531 . S
C264 C21 1.090 . S
C276 N140 1.097 . S
C303 C174 1.671 . S
C291 C30 1.649 . S
C318 C43 0.954 . S
C330 N208 1.088 . S
C357 C161 2.211 . S
C345 C4 2.180 . S
C384 N118 1.519 . S
C372 C22 1.584 . S
C411 C195 1.647 1_556 S
C399 C34 1.635 . S
C438 N170 0.870 . S
C426 C48 0.865 . S
C453 C8 1.846 . S
C465 C210 1.857 . S
C492 C144 1.750 . S
C480 C35 1.736 . S
C507 C47 1.455 . S
C519 C105 1.462 . S
C534 C17 1.169 . S
C546 C191 1.189 . S
C573 C131 2.153 . S
C561 C60 2.142 . S
C588 C74 1.362 . S
C600 N148 1.311 . S
C615 C82 1.478 . S
C627 C165 1.481 . S
C642 C100 1.514 . S
C654 N200 1.468 . S
C669 C61 2.579 . S
C681 C150 2.607 . S
C708 N110 1.190 . S
C696 C73 1.183 . S
C735 C204 2.022 . S
C723 C87 2.011 . S
C762 N178 0.706 . S
C750 C95 0.709 . S
C777 C56 1.786 . S
C789 C221 1.897 1_556 S
C816 C135 1.762 . S
C804 C86 1.758 . S
C843 C114 1.415 . S
C831 C99 1.368 . S
C858 C69 1.310 . S
C870 C180 1.335 . S
