# Generated by pormake.
# Topology ptr, (4,4)-cn, num edge types: 1
# Building blocks:
#     Node 0, Type 0, BuildingBlock: TATPOV_clean_sbu_0, # of connection points: 4
#     Node 1, Type 0, BuildingBlock: TATPOV_clean_sbu_0, # of connection points: 4
#     Node 2, Type 0, BuildingBlock: TATPOV_clean_sbu_0, # of connection points: 4
#     Node 3, Type 0, BuildingBlock: TATPOV_clean_sbu_0, # of connection points: 4
#     Node 4, Type 0, BuildingBlock: TATPOV_clean_sbu_0, # of connection points: 4
#     Node 5, Type 0, BuildingBlock: TATPOV_clean_sbu_0, # of connection points: 4
#     Node 6, Type 0, BuildingBlock: TATPOV_clean_sbu_0, # of connection points: 4
#     Node 7, Type 0, BuildingBlock: TATPOV_clean_sbu_0, # of connection points: 4
#     Node 8, Type 0, BuildingBlock: TATPOV_clean_sbu_0, # of connection points: 4
#     Node 9, Type 0, BuildingBlock: TATPOV_clean_sbu_0, # of connection points: 4
#     Node 10, Type 0, BuildingBlock: TATPOV_clean_sbu_0, # of connection points: 4
#     Node 11, Type 0, BuildingBlock: TATPOV_clean_sbu_0, # of connection points: 4
#     Node 12, Type 0, BuildingBlock: TATPOV_clean_sbu_0, # of connection points: 4
#     Node 13, Type 0, BuildingBlock: TATPOV_clean_sbu_0, # of connection points: 4
#     Node 14, Type 0, BuildingBlock: TATPOV_clean_sbu_0, # of connection points: 4
#     Node 15, Type 0, BuildingBlock: TATPOV_clean_sbu_0, # of connection points: 4
#     Node 16, Type 0, BuildingBlock: TATPOV_clean_sbu_0, # of connection points: 4
#     Node 17, Type 0, BuildingBlock: TATPOV_clean_sbu_0, # of connection points: 4
#     Node 18, Type 1, BuildingBlock: NAWXER_clean_linker_0, # of connection points: 4
#     Node 19, Type 1, BuildingBlock: NAWXER_clean_linker_0, # of connection points: 4
#     Node 20, Type 1, BuildingBlock: NAWXER_clean_linker_0, # of connection points: 4
#     Node 21, Type 1, BuildingBlock: NAWXER_clean_linker_0, # of connection points: 4
#     Node 22, Type 1, BuildingBlock: NAWXER_clean_linker_0, # of connection points: 4
#     Node 23, Type 1, BuildingBlock: NAWXER_clean_linker_0, # of connection points: 4
#     Node 24, Type 1, BuildingBlock: NAWXER_clean_linker_0, # of connection points: 4
#     Node 25, Type 1, BuildingBlock: NAWXER_clean_linker_0, # of connection points: 4
#     Node 26, Type 1, BuildingBlock: NAWXER_clean_linker_0, # of connection points: 4
#     Node 27, Type 1, BuildingBlock: NAWXER_clean_linker_0, # of connection points: 4
#     Node 28, Type 1, BuildingBlock: NAWXER_clean_linker_0, # of connection points: 4
#     Node 29, Type 1, BuildingBlock: NAWXER_clean_linker_0, # of connection points: 4
#     Node 30, Type 1, BuildingBlock: NAWXER_clean_linker_0, # of connection points: 4
#     Node 31, Type 1, BuildingBlock: NAWXER_clean_linker_0, # of connection points: 4
#     Node 32, Type 1, BuildingBlock: NAWXER_clean_linker_0, # of connection points: 4
#     Node 33, Type 1, BuildingBlock: NAWXER_clean_linker_0, # of connection points: 4
#     Node 34, Type 1, BuildingBlock: NAWXER_clean_linker_0, # of connection points: 4
#     Node 35, Type 1, BuildingBlock: NAWXER_clean_linker_0, # of connection points: 4
#     Edge 36, Type (0, 1), BuildingBlock: EZIPEK_clean_linker_0, # of connection points: 2
#     Edge 37, Type (0, 1), BuildingBlock: EZIPEK_clean_linker_0, # of connection points: 2
#     Edge 38, Type (0, 1), BuildingBlock: EZIPEK_clean_linker_0, # of connection points: 2
#     Edge 39, Type (0, 1), BuildingBlock: EZIPEK_clean_linker_0, # of connection points: 2
#     Edge 40, Type (0, 1), BuildingBlock: EZIPEK_clean_linker_0, # of connection points: 2
#     Edge 41, Type (0, 1), BuildingBlock: EZIPEK_clean_linker_0, # of connection points: 2
#     Edge 42, Type (0, 1), BuildingBlock: EZIPEK_clean_linker_0, # of connection points: 2
#     Edge 43, Type (0, 1), BuildingBlock: EZIPEK_clean_linker_0, # of connection points: 2
#     Edge 44, Type (0, 1), BuildingBlock: EZIPEK_clean_linker_0, # of connection points: 2
#     Edge 45, Type (0, 1), BuildingBlock: EZIPEK_clean_linker_0, # of connection points: 2
#     Edge 46, Type (0, 1), BuildingBlock: EZIPEK_clean_linker_0, # of connection points: 2
#     Edge 47, Type (0, 1), BuildingBlock: EZIPEK_clean_linker_0, # of connection points: 2
#     Edge 48, Type (0, 1), BuildingBlock: EZIPEK_clean_linker_0, # of connection points: 2
#     Edge 49, Type (0, 1), BuildingBlock: EZIPEK_clean_linker_0, # of connection points: 2
#     Edge 50, Type (0, 1), BuildingBlock: EZIPEK_clean_linker_0, # of connection points: 2
#     Edge 51, Type (0, 1), BuildingBlock: EZIPEK_clean_linker_0, # of connection points: 2
#     Edge 52, Type (0, 1), BuildingBlock: EZIPEK_clean_linker_0, # of connection points: 2
#     Edge 53, Type (0, 1), BuildingBlock: EZIPEK_clean_linker_0, # of connection points: 2
#     Edge 54, Type (0, 1), BuildingBlock: EZIPEK_clean_linker_0, # of connection points: 2
#     Edge 55, Type (0, 1), BuildingBlock: EZIPEK_clean_linker_0, # of connection points: 2
#     Edge 56, Type (0, 1), BuildingBlock: EZIPEK_clean_linker_0, # of connection points: 2
#     Edge 57, Type (0, 1), BuildingBlock: EZIPEK_clean_linker_0, # of connection points: 2
#     Edge 58, Type (0, 1), BuildingBlock: EZIPEK_clean_linker_0, # of connection points: 2
#     Edge 59, Type (0, 1), BuildingBlock: EZIPEK_clean_linker_0, # of connection points: 2
#     Edge 60, Type (0, 1), BuildingBlock: EZIPEK_clean_linker_0, # of connection points: 2
#     Edge 61, Type (0, 1), BuildingBlock: EZIPEK_clean_linker_0, # of connection points: 2
#     Edge 62, Type (0, 1), BuildingBlock: EZIPEK_clean_linker_0, # of connection points: 2
#     Edge 63, Type (0, 1), BuildingBlock: EZIPEK_clean_linker_0, # of connection points: 2
#     Edge 64, Type (0, 1), BuildingBlock: EZIPEK_clean_linker_0, # of connection points: 2
#     Edge 65, Type (0, 1), BuildingBlock: EZIPEK_clean_linker_0, # of connection points: 2
#     Edge 66, Type (0, 1), BuildingBlock: EZIPEK_clean_linker_0, # of connection points: 2
#     Edge 67, Type (0, 1), BuildingBlock: EZIPEK_clean_linker_0, # of connection points: 2
#     Edge 68, Type (0, 1), BuildingBlock: EZIPEK_clean_linker_0, # of connection points: 2
#     Edge 69, Type (0, 1), BuildingBlock: EZIPEK_clean_linker_0, # of connection points: 2
#     Edge 70, Type (0, 1), BuildingBlock: EZIPEK_clean_linker_0, # of connection points: 2
#     Edge 71, Type (0, 1), BuildingBlock: EZIPEK_clean_linker_0, # of connection points: 2
#     Edge 72, Type (0, 1), BuildingBlock: EZIPEK_clean_linker_0, # of connection points: 2
#     Edge 73, Type (0, 1), BuildingBlock: EZIPEK_clean_linker_0, # of connection points: 2
#     Edge 74, Type (0, 1), BuildingBlock: EZIPEK_clean_linker_0, # of connection points: 2
#     Edge 75, Type (0, 1), BuildingBlock: EZIPEK_clean_linker_0, # of connection points: 2
#     Edge 76, Type (0, 1), BuildingBlock: EZIPEK_clean_linker_0, # of connection points: 2
#     Edge 77, Type (0, 1), BuildingBlock: EZIPEK_clean_linker_0, # of connection points: 2
#     Edge 78, Type (0, 1), BuildingBlock: EZIPEK_clean_linker_0, # of connection points: 2
#     Edge 79, Type (0, 1), BuildingBlock: EZIPEK_clean_linker_0, # of connection points: 2
#     Edge 80, Type (0, 1), BuildingBlock: EZIPEK_clean_linker_0, # of connection points: 2
#     Edge 81, Type (0, 1), BuildingBlock: EZIPEK_clean_linker_0, # of connection points: 2
#     Edge 82, Type (0, 1), BuildingBlock: EZIPEK_clean_linker_0, # of connection points: 2
#     Edge 83, Type (0, 1), BuildingBlock: EZIPEK_clean_linker_0, # of connection points: 2
#     Edge 84, Type (0, 1), BuildingBlock: EZIPEK_clean_linker_0, # of connection points: 2
#     Edge 85, Type (0, 1), BuildingBlock: EZIPEK_clean_linker_0, # of connection points: 2
#     Edge 86, Type (0, 1), BuildingBlock: EZIPEK_clean_linker_0, # of connection points: 2
#     Edge 87, Type (0, 1), BuildingBlock: EZIPEK_clean_linker_0, # of connection points: 2
#     Edge 88, Type (0, 1), BuildingBlock: EZIPEK_clean_linker_0, # of connection points: 2
#     Edge 89, Type (0, 1), BuildingBlock: EZIPEK_clean_linker_0, # of connection points: 2
#     Edge 90, Type (0, 1), BuildingBlock: EZIPEK_clean_linker_0, # of connection points: 2
#     Edge 91, Type (0, 1), BuildingBlock: EZIPEK_clean_linker_0, # of connection points: 2
#     Edge 92, Type (0, 1), BuildingBlock: EZIPEK_clean_linker_0, # of connection points: 2
#     Edge 93, Type (0, 1), BuildingBlock: EZIPEK_clean_linker_0, # of connection points: 2
#     Edge 94, Type (0, 1), BuildingBlock: EZIPEK_clean_linker_0, # of connection points: 2
#     Edge 95, Type (0, 1), BuildingBlock: EZIPEK_clean_linker_0, # of connection points: 2
#     Edge 96, Type (0, 1), BuildingBlock: EZIPEK_clean_linker_0, # of connection points: 2
#     Edge 97, Type (0, 1), BuildingBlock: EZIPEK_clean_linker_0, # of connection points: 2
#     Edge 98, Type (0, 1), BuildingBlock: EZIPEK_clean_linker_0, # of connection points: 2
#     Edge 99, Type (0, 1), BuildingBlock: EZIPEK_clean_linker_0, # of connection points: 2
#     Edge 100, Type (0, 1), BuildingBlock: EZIPEK_clean_linker_0, # of connection points: 2
#     Edge 101, Type (0, 1), BuildingBlock: EZIPEK_clean_linker_0, # of connection points: 2
#     Edge 102, Type (0, 1), BuildingBlock: EZIPEK_clean_linker_0, # of connection points: 2
#     Edge 103, Type (0, 1), BuildingBlock: EZIPEK_clean_linker_0, # of connection points: 2
#     Edge 104, Type (0, 1), BuildingBlock: EZIPEK_clean_linker_0, # of connection points: 2
#     Edge 105, Type (0, 1), BuildingBlock: EZIPEK_clean_linker_0, # of connection points: 2
#     Edge 106, Type (0, 1), BuildingBlock: EZIPEK_clean_linker_0, # of connection points: 2
#     Edge 107, Type (0, 1), BuildingBlock: EZIPEK_clean_linker_0, # of connection points: 2
# Relax obj value: 0.067
# Max RMSD: 0.243
# Mean RMSD: 0.106
data_MOF--net-ptr--node1-TATPOV_clean_sbu_0--node2-NAWXER_clean_linker_0--edge1-EZIPEK_clean_linker_0
_symmetry_space_group_name_H-M    P1
_symmetry_Int_Tables_number       1
_symmetry_cell_setting            triclinic
loop_
_symmetry_equiv_pos_as_xyz
'x, y, z'
_cell_length_a     67.70235
_cell_length_b     68.741391
_cell_length_c     48.937954
_cell_angle_alpha  89.721675
_cell_angle_beta   90.711348
_cell_angle_gamma 121.61654
loop_
_atom_site_label
_atom_site_type_symbol
_atom_site_fract_x
_atom_site_fract_y
_atom_site_fract_z
_atom_type_partial_charge
Zn0 Zn 0.96014 0.35267 0.98879 0.0
Zn1 Zn 0.00024 0.35645 0.00526 0.0
O2 O 0.97891 0.32329 0.9926 0.0
O3 O 0.94577 0.31942 0.97956 0.0
O4 O 0.02629 0.35491 0.0228 0.0
O5 O 0.956 0.36305 0.02575 0.0
O6 O 0.99051 0.36926 0.03656 0.0
C7 C 0.95842 0.3111 0.983 0.0
C8 C 0.00218 0.38453 0.95751 0.0
O9 O 0.01323 0.37855 0.97319 0.0
O10 O 0.9806 0.37624 0.96039 0.0
C11 C 0.03371 0.34301 0.01261 0.0
O12 O 0.02574 0.33303 0.98879 0.0
C13 C 0.97299 0.37063 0.04229 0.0
Zn14 Zn 0.65223 0.61643 0.99275 0.0
Zn15 Zn 0.65168 0.64951 0.00937 0.0
O16 O 0.68592 0.66272 0.99989 0.0
O17 O 0.68162 0.63612 0.97173 0.0
O18 O 0.65383 0.67708 0.02625 0.0
O19 O 0.65249 0.60438 0.03022 0.0
O20 O 0.63847 0.62581 0.04066 0.0
C21 C 0.69427 0.65587 0.98184 0.0
C22 C 0.6178 0.62029 0.96553 0.0
O23 O 0.62998 0.64046 0.97526 0.0
O24 O 0.62154 0.60505 0.97391 0.0
C25 C 0.63717 0.67844 0.03549 0.0
O26 O 0.61581 0.6609 0.03353 0.0
C27 C 0.64198 0.60982 0.04678 0.0
Zn28 Zn 0.34888 0.96473 0.03694 0.0
Zn29 Zn 0.34619 0.00083 0.01978 0.0
O30 O 0.31483 0.97883 0.03716 0.0
O31 O 0.31558 0.94832 0.04934 0.0
O32 O 0.3407 0.02509 0.00556 0.0
O33 O 0.35751 0.96115 0.99872 0.0
O34 O 0.35403 0.98978 0.98493 0.0
C35 C 0.3051 0.95905 0.04781 0.0
C36 C 0.38158 0.00792 0.06368 0.0
O37 O 0.37297 0.01654 0.04798 0.0
O38 O 0.37403 0.98672 0.06304 0.0
C39 C 0.33206 0.0333 0.02127 0.0
O40 O 0.32847 0.0271 0.04703 0.0
C41 C 0.35857 0.97437 0.97991 0.0
Zn42 Zn 0.04009 0.64909 0.02515 0.0
Zn43 Zn 0.0032 0.65265 0.01216 0.0
O44 O 0.02713 0.68299 0.0297 0.0
O45 O 0.05896 0.68236 0.03699 0.0
O46 O 0.97898 0.65941 1.0 0.0
O47 O 0.03999 0.63824 0.98666 0.0
O48 O 0.01125 0.6432 0.97614 0.0
C49 C 0.048 0.69263 0.03822 0.0
C50 C 0.99768 0.61909 0.05581 0.0
O51 O 0.98806 0.62711 0.04085 0.0
O52 O 0.01894 0.6259 0.05317 0.0
C53 C 0.98648 0.67687 0.98477 0.0
O54 O 0.00844 0.68849 0.97793 0.0
C55 C 0.02543 0.63724 0.96934 0.0
Zn56 Zn 0.34991 0.39454 0.02912 0.0
Zn57 Zn 0.34465 0.35498 0.00909 0.0
O58 O 0.3128 0.34632 0.02396 0.0
O59 O 0.31619 0.37801 0.03946 0.0
O60 O 0.33909 0.32547 0.99285 0.0
O61 O 0.36096 0.40918 0.99209 0.0
O62 O 0.35745 0.37737 0.97665 0.0
C63 C 0.30412 0.35667 0.03547 0.0
C64 C 0.37816 0.37942 0.05635 0.0
O65 O 0.36878 0.36279 0.03952 0.0
O66 O 0.37293 0.39462 0.05603 0.0
C67 C 0.32166 0.30599 0.99883 0.0
O68 O 0.30665 0.30441 0.0168 0.0
C69 C 0.3629 0.39797 0.973 0.0
Zn70 Zn 0.63951 0.0238 0.984 0.0
Zn71 Zn 0.64202 0.98877 0.00551 0.0
O72 O 0.67404 0.01002 0.98903 0.0
O73 O 0.67294 0.03927 0.97229 0.0
O74 O 0.64685 0.96569 0.02426 0.0
O75 O 0.63057 0.02997 0.02084 0.0
O76 O 0.63181 0.0007 0.03729 0.0
C77 C 0.68379 0.02913 0.97674 0.0
C78 C 0.60747 0.97869 0.96004 0.0
O79 O 0.61646 0.9712 0.97682 0.0
O80 O 0.6144 -0.00024 0.95922 0.0
C81 C 0.65489 0.95521 0.01184 0.0
O82 O 0.65913 0.95849 0.98558 0.0
C83 C 0.62811 0.01688 0.04049 0.0
Zn84 Zn 0.62017 0.68484 0.3327 0.0
Zn85 Zn 0.65841 0.68578 0.35211 0.0
O86 O 0.63643 0.65307 0.33909 0.0
O87 O 0.60454 0.65111 0.32433 0.0
O88 O 0.68372 0.683 0.36933 0.0
O89 O 0.61682 0.69696 0.36893 0.0
O90 O 0.64867 0.69861 0.3833 0.0
C91 C 0.61627 0.64183 0.32836 0.0
C92 C 0.66343 0.71424 0.30289 0.0
O93 O 0.673 0.70773 0.32014 0.0
O94 O 0.64197 0.70707 0.30415 0.0
C95 C 0.69338 0.6745 0.35599 0.0
O96 O 0.68791 0.66901 0.33016 0.0
C97 C 0.63212 0.70194 0.38723 0.0
Zn98 Zn 0.31423 0.94376 0.33004 0.0
Zn99 Zn 0.32143 0.98314 0.35188 0.0
O100 O 0.35266 0.99213 0.33499 0.0
O101 O 0.34768 0.95998 0.31859 0.0
O102 O 0.32828 0.01211 0.37006 0.0
O103 O 0.30371 0.92818 0.36666 0.0
O104 O 0.30963 0.96044 0.38389 0.0
C105 C 0.36038 0.9813 0.3225 0.0
C106 C 0.28628 0.96044 0.30586 0.0
O107 O 0.29648 0.97669 0.32308 0.0
O108 O 0.29098 0.94488 0.30476 0.0
C109 C 0.33572 0.03052 0.35675 0.0
O110 O 0.33884 0.03082 0.33028 0.0
C111 C 0.30335 0.93955 0.38669 0.0
Zn112 Zn 0.01359 0.29685 0.37533 0.0
Zn113 Zn 0.01627 0.33496 0.35605 0.0
O114 O 0.98286 0.31474 0.36947 0.0
O115 O 0.98015 0.28331 0.38516 0.0
O116 O 0.01487 0.36045 0.33811 0.0
O117 O 0.02244 0.2907 0.33853 0.0
O118 O 0.02758 0.32356 0.32468 0.0
C119 C 0.9712 0.29521 0.38067 0.0
C120 C 0.04695 0.33955 0.40367 0.0
O121 O 0.03995 0.34921 0.3873 0.0
O122 O 0.03865 0.3182 0.4024 0.0
C123 C 0.03244 0.37818 0.32852 0.0
O124 O 0.05313 0.38104 0.33112 0.0
C125 C 0.02879 0.30596 0.32037 0.0
Zn126 Zn 0.71219 0.98244 0.35789 0.0
Zn127 Zn 0.67459 0.98331 0.33994 0.0
O128 O 0.69568 0.0148 0.35673 0.0
O129 O 0.72755 0.01575 0.36935 0.0
O130 O 0.6494 0.98667 0.32309 0.0
O131 O 0.71583 0.97234 0.32038 0.0
O132 O 0.68624 0.9748 0.30631 0.0
C133 C 0.71587 0.02528 0.36745 0.0
C134 C 0.66872 0.95032 0.38507 0.0
O135 O 0.65937 0.95792 0.36893 0.0
O136 O 0.69028 0.95797 0.38423 0.0
C137 C 0.63767 0.99301 0.33622 0.0
O138 O 0.64049 0.99597 0.36281 0.0
C139 C 0.70182 0.97022 0.30156 0.0
Zn140 Zn 0.01171 0.7142 0.38172 0.0
Zn141 Zn 0.01544 0.68123 0.35744 0.0
O142 O 0.98148 0.66475 0.37027 0.0
O143 O 0.97879 0.69135 0.39181 0.0
O144 O 0.01636 0.65675 0.33613 0.0
O145 O 0.01902 0.73183 0.34635 0.0
O146 O 0.02599 0.70665 0.32867 0.0
C147 C 0.96973 0.6709 0.38383 0.0
C148 C 0.04659 0.70635 0.40605 0.0
O149 O 0.03929 0.69024 0.3886 0.0
O150 O 0.03796 0.71885 0.40686 0.0
C151 C 0.00452 0.63585 0.343 0.0
O152 O 0.99219 0.62985 0.36537 0.0
C153 C 0.0261 0.7252 0.32675 0.0
Zn154 Zn 0.31347 0.37122 0.32925 0.0
Zn155 Zn 0.31527 0.33448 0.3456 0.0
O156 O 0.34715 0.35609 0.32959 0.0
O157 O 0.34728 0.38731 0.31863 0.0
O158 O 0.31914 0.30951 0.36047 0.0
O159 O 0.30316 0.3738 0.36702 0.0
O160 O 0.30667 0.34507 0.38011 0.0
C161 C 0.3574 0.37621 0.31986 0.0
C162 C 0.28172 0.32884 0.30031 0.0
O163 O 0.28956 0.31967 0.31626 0.0
O164 O 0.28935 0.35003 0.30162 0.0
C165 C 0.32742 0.29993 0.34656 0.0
O166 O 0.3327 0.30546 0.32081 0.0
C167 C 0.30172 0.36013 0.38544 0.0
Zn168 Zn 0.29554 0.02519 0.66785 0.0
Zn169 Zn 0.33418 0.0262 0.68536 0.0
O170 O 0.31273 0.99379 0.67045 0.0
O171 O 0.2803 0.99178 0.65805 0.0
O172 O 0.3595 0.02346 0.70284 0.0
O173 O 0.29173 0.03585 0.70489 0.0
O174 O 0.32366 0.03711 0.71793 0.0
C175 C 0.29226 0.9826 0.66052 0.0
C176 C 0.33844 0.05618 0.6381 0.0
O177 O 0.34858 0.04967 0.65454 0.0
O178 O 0.31688 0.04839 0.63981 0.0
C179 C 0.3692 0.01434 0.69092 0.0
O180 O 0.36398 0.00781 0.66533 0.0
C181 C 0.30704 0.04011 0.72293 0.0
Zn182 Zn 0.97458 0.27483 0.6624 0.0
Zn183 Zn 0.98045 0.31407 0.68341 0.0
O184 O 0.01244 0.3233 0.66854 0.0
O185 O 0.00844 0.29143 0.6526 0.0
O186 O 0.98672 0.34347 0.70016 0.0
O187 O 0.9636 0.25965 0.69915 0.0
O188 O 0.96828 0.29161 0.71584 0.0
C189 C 0.02085 0.3127 0.657 0.0
C190 C 0.94655 0.29041 0.63602 0.0
O191 O 0.95613 0.30677 0.6532 0.0
O192 O 0.95164 0.27511 0.6357 0.0
C193 C 0.97061 0.34679 0.70667 0.0
O194 O 0.94886 0.3307 0.70229 0.0
C195 C 0.96245 0.27084 0.71886 0.0
Zn196 Zn 0.68598 0.63231 0.69488 0.0
Zn197 Zn 0.68755 0.67122 0.6827 0.0
O198 O 0.65443 0.65022 0.69582 0.0
O199 O 0.65283 0.61849 0.70783 0.0
O200 O 0.68776 0.6992 0.66877 0.0
O201 O 0.69372 0.62841 0.65675 0.0
O202 O 0.69647 0.66106 0.64744 0.0
C203 C 0.64335 0.63017 0.70566 0.0
C204 C 0.71935 0.67112 0.72759 0.0
O205 O 0.71086 0.68159 0.71532 0.0
O206 O 0.7126 0.65075 0.72092 0.0
C207 C 0.67111 0.70241 0.67256 0.0
O208 O 0.65403 0.6887 0.6887 0.0
C209 C 0.69831 0.64431 0.64007 0.0
Zn210 Zn 0.37709 0.31779 0.69217 0.0
Zn211 Zn 0.33631 0.31147 0.68002 0.0
O212 O 0.35549 0.34488 0.69223 0.0
O213 O 0.3887 0.34954 0.70634 0.0
O214 O 0.30807 0.31014 0.66443 0.0
O215 O 0.38344 0.31214 0.65401 0.0
O216 O 0.34662 0.30025 0.64712 0.0
C217 C 0.37544 0.3572 0.70313 0.0
C218 C 0.33874 0.28324 0.7251 0.0
O219 O 0.32681 0.29039 0.71336 0.0
O220 O 0.35942 0.29078 0.7177 0.0
C221 C 0.29891 0.31994 0.67605 0.0
O222 O 0.30635 0.32913 0.70033 0.0
C223 C 0.36544 0.30228 0.63904 0.0
Zn224 Zn 0.68443 0.06167 0.69947 0.0
Zn225 Zn 0.67827 0.0213 0.68483 0.0
O226 O 0.64836 0.01232 0.70539 0.0
O227 O 0.65093 0.04531 0.71101 0.0
O228 O 0.67401 0.99205 0.66975 0.0
O229 O 0.69302 0.07388 0.66148 0.0
O230 O 0.68416 0.03948 0.64902 0.0
C231 C 0.63966 0.02379 0.71354 0.0
C232 C 0.71613 0.05105 0.72604 0.0
O233 O 0.70633 0.0334 0.71078 0.0
O234 O 0.70964 0.0653 0.72555 0.0
C235 C 0.65531 0.97263 0.67044 0.0
O236 O 0.63725 0.97011 0.68337 0.0
C237 C 0.69074 0.06004 0.64299 0.0
Zn238 Zn 0.9797 0.71208 0.66563 0.0
Zn239 Zn 0.9782 0.67358 0.67884 0.0
O240 O 0.01154 0.69439 0.66633 0.0
O241 O 0.0128 0.72572 0.65305 0.0
O242 O 0.97875 0.64669 0.69372 0.0
O243 O 0.97231 0.71681 0.70366 0.0
O244 O 0.96754 0.68317 0.71271 0.0
C245 C 0.02243 0.71423 0.65583 0.0
C246 C 0.94664 0.672 0.63367 0.0
O247 O 0.9555 0.66204 0.64624 0.0
O248 O 0.953 0.69239 0.63976 0.0
C249 C 0.98495 0.63508 0.68026 0.0
O250 O 0.9904 0.63968 0.65439 0.0
C251 C 0.96649 0.70038 0.71992 0.0
C252 C 0.22143 0.32941 0.11661 0.0
C253 C 0.2179 0.31751 0.0921 0.0
C254 C 0.20269 0.32428 0.13313 0.0
C255 C 0.18012 0.30684 0.12565 0.0
C256 C 0.19546 0.3 0.08454 0.0
C257 C 0.17665 0.29478 0.10117 0.0
C258 C 0.15999 0.30317 0.14151 0.0
C259 C 0.20129 0.28611 0.19913 0.0
C260 C 0.21038 0.30084 0.22176 0.0
C261 C 0.18459 0.28637 0.18218 0.0
C262 C 0.17689 0.30138 0.18773 0.0
C263 C 0.20231 0.3154 0.22759 0.0
C264 C 0.18565 0.3156 0.21081 0.0
C265 C 0.15928 0.30219 0.17035 0.0
C266 C 0.06901 0.28907 0.20338 0.0
C267 C 0.07738 0.30548 0.22435 0.0
C268 C 0.08431 0.28942 0.18407 0.0
C269 C 0.1081 0.30602 0.18586 0.0
C270 C 0.10089 0.32283 0.22502 0.0
C271 C 0.11615 0.32296 0.20609 0.0
C272 C 0.12524 0.30437 0.16937 0.0
C273 C 0.09343 0.33138 0.11064 0.0
C274 C 0.08377 0.31826 0.08689 0.0
C275 C 0.10631 0.32645 0.12878 0.0
C276 C 0.10949 0.30818 0.12352 0.0
C277 C 0.08669 0.2999 0.08168 0.0
C278 C 0.09958 0.29497 0.09982 0.0
C279 C 0.12548 0.30462 0.14057 0.0
H280 H 0.23866 0.3431 0.12256 0.0
H281 H 0.20579 0.33451 0.15126 0.0
H282 H 0.19251 0.29075 0.06558 0.0
H283 H 0.15934 0.28157 0.09476 0.0
H284 H 0.20727 0.27466 0.19451 0.0
H285 H 0.17767 0.27483 0.16488 0.0
H286 H 0.20912 0.32681 0.24504 0.0
H287 H 0.1799 0.32721 0.21564 0.0
H288 H 0.05093 0.27545 0.20276 0.0
H289 H 0.07785 0.27605 0.16877 0.0
H290 H 0.10764 0.33554 0.24115 0.0
H291 H 0.13445 0.33586 0.20783 0.0
H292 H 0.09142 0.34571 0.11479 0.0
H293 H 0.11451 0.33749 0.1463 0.0
H294 H 0.07936 0.28968 0.06336 0.0
H295 H 0.10214 0.28106 0.09513 0.0
N296 N 0.14287 0.30402 0.12777 0.0
N297 N 0.14205 0.30304 0.18306 0.0
C298 C 0.66764 0.89406 0.10457 0.0
C299 C 0.6801 0.90298 0.08037 0.0
C300 C 0.67276 0.88115 0.12206 0.0
C301 C 0.69049 0.87716 0.11559 0.0
C302 C 0.6978 0.89901 0.07385 0.0
C303 C 0.70283 0.88599 0.09127 0.0
C304 C 0.69476 0.86206 0.13278 0.0
C305 C 0.71375 0.92449 0.1844 0.0
C306 C 0.70427 0.91936 0.21074 0.0
C307 C 0.71265 0.90723 0.16801 0.0
C308 C 0.70121 0.88448 0.17736 0.0
C309 C 0.69339 0.89682 0.22019 0.0
C310 C 0.69175 0.87962 0.2037 0.0
C311 C 0.69946 0.86535 0.16118 0.0
C312 C 0.7077 0.78469 0.1942 0.0
C313 C 0.69479 0.77935 0.21828 0.0
C314 C 0.70863 0.80104 0.17616 0.0
C315 C 0.69673 0.81219 0.1822 0.0
C316 C 0.68336 0.79083 0.22446 0.0
C317 C 0.68441 0.80716 0.20667 0.0
C318 C 0.69705 0.82944 0.16379 0.0
C319 C 0.6568 0.76275 0.1189 0.0
C320 C 0.66665 0.76215 0.09414 0.0
C321 C 0.66517 0.78345 0.13258 0.0
C322 C 0.68374 0.80382 0.12188 0.0
C323 C 0.68493 0.78248 0.08315 0.0
C324 C 0.69333 0.80322 0.09687 0.0
C325 C 0.69182 0.82592 0.1356 0.0
H326 H 0.65388 0.89696 0.10975 0.0
H327 H 0.66263 0.87396 0.14038 0.0
H328 H 0.70748 0.90578 0.05516 0.0
H329 H 0.7163 0.88275 0.08576 0.0
H330 H 0.72219 0.94182 0.17675 0.0
H331 H 0.72089 0.91177 0.14826 0.0
H332 H 0.68591 0.89248 0.2404 0.0
H333 H 0.68287 0.86236 0.21165 0.0
H334 H 0.71674 0.77603 0.1893 0.0
H335 H 0.71861 0.80499 0.15764 0.0
H336 H 0.67339 0.78693 0.24301 0.0
H337 H 0.67518 0.8156 0.21181 0.0
H338 H 0.64258 0.74721 0.12752 0.0
H339 H 0.65689 0.78357 0.15131 0.0
H340 H 0.69264 0.78225 0.06398 0.0
H341 H 0.70735 0.81877 0.08802 0.0
N342 N 0.69125 0.84254 0.12112 0.0
N343 N 0.70056 0.84891 0.17532 0.0
C344 C 0.09826 0.77441 0.12698 0.0
C345 C 0.08885 0.77558 0.10181 0.0
C346 C 0.10913 0.79342 0.14414 0.0
C347 C 0.11044 0.81381 0.13657 0.0
C348 C 0.08998 0.79581 0.09416 0.0
C349 C 0.10088 0.81489 0.11138 0.0
C350 C 0.12468 0.83479 0.15285 0.0
C351 C 0.0666 0.79049 0.21333 0.0
C352 C 0.07491 0.78315 0.23502 0.0
C353 C 0.08216 0.80679 0.19476 0.0
C354 C 0.10612 0.8161 0.19811 0.0
C355 C 0.09875 0.79168 0.2374 0.0
C356 C 0.11422 0.80818 0.2193 0.0
C357 C 0.12325 0.83551 0.18151 0.0
C358 C 0.20319 0.93134 0.20965 0.0
C359 C 0.21172 0.92502 0.2321 0.0
C360 C 0.1851 0.91448 0.19349 0.0
C361 C 0.17543 0.89122 0.19975 0.0
C362 C 0.20143 0.9019 0.23888 0.0
C363 C 0.1834 0.88517 0.22295 0.0
C364 C 0.15737 0.87275 0.18235 0.0
C365 C 0.22117 0.90589 0.13058 0.0
C366 C 0.21896 0.91477 0.1057 0.0
C367 C 0.20177 0.89261 0.14668 0.0
C368 C 0.1799 0.88836 0.13838 0.0
C369 C 0.19724 0.91081 0.0974 0.0
C370 C 0.17777 0.89752 0.11359 0.0
C371 C 0.15899 0.87195 0.15368 0.0
H372 H 0.09759 0.7589 0.13306 0.0
H373 H 0.11728 0.7924 0.16281 0.0
H374 H 0.08273 0.7969 0.07477 0.0
H375 H 0.10216 0.8306 0.10489 0.0
H376 H 0.04826 0.7842 0.21136 0.0
H377 H 0.07564 0.81286 0.17864 0.0
H378 H 0.10546 0.78628 0.25406 0.0
H379 H 0.13264 0.81516 0.22218 0.0
H380 H 0.21089 0.94918 0.20433 0.0
H381 H 0.1789 0.91956 0.17601 0.0
H382 H 0.20776 0.89677 0.25622 0.0
H383 H 0.17619 0.8674 0.22828 0.0
H384 H 0.23782 0.90869 0.13712 0.0
H385 H 0.20376 0.88501 0.16513 0.0
H386 H 0.19532 0.91753 0.07815 0.0
H387 H 0.16098 0.89404 0.10657 0.0
N388 N 0.14243 0.85311 0.14004 0.0
N389 N 0.1396 0.85445 0.19506 0.0
C390 C 0.31812 0.09426 0.84085 0.0
C391 C 0.30136 0.08433 0.81987 0.0
C392 C 0.31691 0.10857 0.86015 0.0
C393 C 0.29884 0.11295 0.85872 0.0
C394 C 0.28271 0.08775 0.81932 0.0
C395 C 0.28152 0.10203 0.83851 0.0
C396 C 0.29969 0.13149 0.87489 0.0
C397 C 0.29094 0.07971 0.93906 0.0
C398 C 0.30672 0.08841 0.96151 0.0
C399 C 0.28981 0.09426 0.91987 0.0
C400 C 0.30543 0.11788 0.92135 0.0
C401 C 0.32388 0.11199 0.96068 0.0
C402 C 0.32282 0.1265 0.94151 0.0
C403 C 0.3032 0.13405 0.90343 0.0
C404 C 0.288 0.21102 0.92835 0.0
C405 C 0.30727 0.22448 0.94545 0.0
C406 C 0.28604 0.19238 0.91436 0.0
C407 C 0.30336 0.18707 0.91732 0.0
C408 C 0.3241 0.21865 0.94914 0.0
C409 C 0.32205 0.19995 0.93537 0.0
C410 C 0.30254 0.1685 0.90139 0.0
C411 C 0.31736 0.2241 0.84034 0.0
C412 C 0.30872 0.21737 0.81359 0.0
C413 C 0.31474 0.20793 0.85967 0.0
C414 C 0.30133 0.18437 0.8537 0.0
C415 C 0.29539 0.19397 0.80742 0.0
C416 C 0.29127 0.17771 0.82739 0.0
C417 C 0.30019 0.1666 0.87255 0.0
H418 H 0.33274 0.09191 0.84136 0.0
H419 H 0.33078 0.11723 0.8751 0.0
H420 H 0.26972 0.08031 0.80317 0.0
H421 H 0.26756 0.10533 0.83686 0.0
H422 H 0.2794 0.0617 0.93549 0.0
H423 H 0.27643 0.08699 0.90417 0.0
H424 H 0.33854 0.11965 0.97459 0.0
H425 H 0.33574 0.14462 0.94243 0.0
H426 H 0.27479 0.21524 0.92546 0.0
H427 H 0.2713 0.18241 0.90085 0.0
H428 H 0.33901 0.22882 0.96236 0.0
H429 H 0.33548 0.19599 0.93807 0.0
H430 H 0.3278 0.24206 0.84562 0.0
H431 H 0.32444 0.21433 0.87852 0.0
H432 H 0.28865 0.18827 0.78692 0.0
H433 H 0.28105 0.15982 0.82174 0.0
N434 N 0.29852 0.14791 0.86077 0.0
N435 N 0.30434 0.15239 0.91549 0.0
C436 C 0.92906 0.21194 0.92275 0.0
C437 C 0.91865 0.22038 0.93971 0.0
C438 C 0.91535 0.19112 0.90909 0.0
C439 C 0.89111 0.17879 0.91203 0.0
C440 C 0.89474 0.20729 0.9442 0.0
C441 C 0.88108 0.18663 0.93054 0.0
C442 C 0.87563 0.15849 0.89513 0.0
C443 C 0.90934 0.2162 0.83352 0.0
C444 C 0.92068 0.21258 0.81216 0.0
C445 C 0.8962 0.19872 0.85214 0.0
C446 C 0.89461 0.17753 0.84999 0.0
C447 C 0.91968 0.19172 0.81042 0.0
C448 C 0.90665 0.17429 0.82913 0.0
C449 C 0.87766 0.15775 0.86648 0.0
C450 C 0.78401 0.0914 0.82817 0.0
C451 C 0.78841 0.0809 0.8066 0.0
C452 C 0.80105 0.10374 0.84797 0.0
C453 C 0.82265 0.10546 0.84677 0.0
C454 C 0.80964 0.0819 0.80577 0.0
C455 C 0.82674 0.09429 0.82565 0.0
C456 C 0.84194 0.1217 0.86482 0.0
C457 C 0.78624 0.06736 0.91632 0.0
C458 C 0.77617 0.07605 0.93346 0.0
C459 C 0.80755 0.08222 0.904 0.0
C460 C 0.81884 0.1059 0.90855 0.0
C461 C 0.78807 0.09946 0.93925 0.0
C462 C 0.80927 0.11426 0.92698 0.0
C463 C 0.8399 0.12245 0.89345 0.0
H464 H 0.94756 0.22192 0.91919 0.0
H465 H 0.92354 0.18511 0.89551 0.0
H466 H 0.88651 0.21364 0.95722 0.0
H467 H 0.86247 0.17737 0.93335 0.0
H468 H 0.90975 0.23213 0.83495 0.0
H469 H 0.88641 0.20143 0.86738 0.0
H470 H 0.92821 0.18862 0.7939 0.0
H471 H 0.90532 0.15797 0.82676 0.0
H472 H 0.76778 0.09093 0.82893 0.0
H473 H 0.79772 0.11285 0.86344 0.0
H474 H 0.8133 0.07399 0.78911 0.0
H475 H 0.84342 0.09577 0.82406 0.0
H476 H 0.77725 0.04926 0.91181 0.0
H477 H 0.81486 0.07531 0.89038 0.0
H478 H 0.78051 0.10638 0.95249 0.0
H479 H 0.81766 0.13241 0.93096 0.0
N480 N 0.85684 0.14081 0.90737 0.0
N481 N 0.86085 0.13925 0.85259 0.0
C482 C 0.79477 0.72435 0.91973 0.0
C483 C 0.78857 0.70979 0.94246 0.0
C484 C 0.81587 0.73191 0.90664 0.0
C485 C 0.82987 0.72329 0.91472 0.0
C486 C 0.80475 0.70501 0.95357 0.0
C487 C 0.82496 0.71126 0.93953 0.0
C488 C 0.84854 0.72488 0.89732 0.0
C489 C 0.78632 0.69738 0.83935 0.0
C490 C 0.79076 0.70635 0.81269 0.0
C491 C 0.8046 0.70256 0.85741 0.0
C492 C 0.82762 0.71894 0.85051 0.0
C493 C 0.81382 0.72204 0.80537 0.0
C494 C 0.83192 0.72865 0.82424 0.0
C495 C 0.84767 0.72349 0.86825 0.0
C496 C 0.91474 0.69782 0.83706 0.0
C497 C 0.92538 0.71254 0.81486 0.0
C498 C 0.90175 0.702 0.85544 0.0
C499 C 0.89962 0.72116 0.85204 0.0
C500 C 0.92384 0.73199 0.81192 0.0
C501 C 0.91094 0.73621 0.83031 0.0
C502 C 0.88331 0.72403 0.8687 0.0
C503 C 0.93835 0.72715 0.92236 0.0
C504 C 0.92901 0.70887 0.94086 0.0
C505 C 0.9239 0.73319 0.90912 0.0
C506 C 0.89993 0.72078 0.91402 0.0
C507 C 0.90536 0.69741 0.94701 0.0
C508 C 0.89094 0.70339 0.93377 0.0
C509 C 0.88362 0.72428 0.89746 0.0
H510 H 0.78279 0.72876 0.91121 0.0
H511 H 0.82011 0.74274 0.88884 0.0
H512 H 0.8006 0.69437 0.97158 0.0
H513 H 0.83582 0.70514 0.94717 0.0
H514 H 0.76874 0.68515 0.84559 0.0
H515 H 0.80063 0.6933 0.8765 0.0
H516 H 0.81789 0.72897 0.78487 0.0
H517 H 0.8495 0.74078 0.81788 0.0
H518 H 0.9156 0.6826 0.83937 0.0
H519 H 0.89259 0.68979 0.87157 0.0
H520 H 0.93183 0.74337 0.79472 0.0
H521 H 0.90921 0.75087 0.82714 0.0
H522 H 0.95663 0.73622 0.91755 0.0
H523 H 0.9313 0.74698 0.8944 0.0
H524 H 0.89795 0.68329 0.9613 0.0
H525 H 0.87253 0.69364 0.93797 0.0
N526 N 0.86641 0.72493 0.91049 0.0
N527 N 0.86546 0.72371 0.85538 0.0
C528 C 0.7486 0.62785 0.41025 0.0
C529 C 0.74941 0.64815 0.41638 0.0
C530 C 0.76141 0.62119 0.42597 0.0
C531 C 0.77482 0.63458 0.44824 0.0
C532 C 0.76323 0.66185 0.4382 0.0
C533 C 0.77597 0.65516 0.45398 0.0
C534 C 0.78863 0.62767 0.46444 0.0
C535 C 0.76601 0.64292 0.55401 0.0
C536 C 0.74292 0.63493 0.54656 0.0
C537 C 0.78055 0.64052 0.53631 0.0
C538 C 0.77231 0.6297 0.51082 0.0
C539 C 0.73459 0.62445 0.52094 0.0
C540 C 0.74897 0.62129 0.50353 0.0
C541 C 0.78829 0.62656 0.49328 0.0
C542 C 0.88105 0.64055 0.521 0.0
C543 C 0.8759 0.63361 0.54835 0.0
C544 C 0.86338 0.63639 0.50253 0.0
C545 C 0.83993 0.62319 0.51015 0.0
C546 C 0.85258 0.62016 0.55603 0.0
C547 C 0.83483 0.61459 0.537 0.0
C548 C 0.82094 0.62183 0.49284 0.0
C549 C 0.86327 0.60653 0.43817 0.0
C550 C 0.87687 0.62548 0.42131 0.0
C551 C 0.84373 0.60413 0.45103 0.0
C552 C 0.83758 0.62056 0.44685 0.0
C553 C 0.86946 0.64063 0.41532 0.0
C554 C 0.84986 0.63808 0.4278 0.0
C555 C 0.82014 0.62135 0.46387 0.0
H556 H 0.73798 0.61715 0.3934 0.0
H557 H 0.76062 0.60545 0.421 0.0
H558 H 0.76402 0.6776 0.44307 0.0
H559 H 0.78672 0.66603 0.47063 0.0
H560 H 0.77282 0.65106 0.57366 0.0
H561 H 0.79834 0.64713 0.54272 0.0
H562 H 0.7168 0.61814 0.51481 0.0
H563 H 0.74164 0.61196 0.48467 0.0
H564 H 0.89892 0.65106 0.51462 0.0
H565 H 0.86847 0.64494 0.48304 0.0
H566 H 0.8481 0.61468 0.57702 0.0
H567 H 0.81704 0.60467 0.54381 0.0
H568 H 0.86867 0.59456 0.44277 0.0
H569 H 0.83423 0.59027 0.46532 0.0
H570 H 0.87962 0.65521 0.40216 0.0
H571 H 0.8453 0.65081 0.42406 0.0
N572 N 0.80422 0.62462 0.45093 0.0
N573 N 0.8046 0.62387 0.50608 0.0
C574 C 0.33286 0.23094 0.43216 0.0
C575 C 0.34787 0.24185 0.41028 0.0
C576 C 0.33638 0.21698 0.44976 0.0
C577 C 0.35509 0.21389 0.44581 0.0
C578 C 0.36641 0.23863 0.40604 0.0
C579 C 0.3699 0.22457 0.42361 0.0
C580 C 0.35826 0.19833 0.46365 0.0
C581 C 0.37457 0.25649 0.52232 0.0
C582 C 0.35938 0.24958 0.54448 0.0
C583 C 0.37321 0.24019 0.50404 0.0
C584 C 0.35668 0.21689 0.5079 0.0
C585 C 0.34206 0.22649 0.54733 0.0
C586 C 0.34081 0.21027 0.52928 0.0
C587 C 0.35765 0.19903 0.4924 0.0
C588 C 0.37761 0.12734 0.52991 0.0
C589 C 0.36196 0.11871 0.55166 0.0
C590 C 0.37674 0.14225 0.51098 0.0
C591 C 0.3602 0.14861 0.51367 0.0
C592 C 0.34553 0.12509 0.55432 0.0
C593 C 0.34472 0.13996 0.53558 0.0
C594 C 0.35972 0.1655 0.49526 0.0
C595 C 0.33862 0.10477 0.44137 0.0
C596 C 0.35357 0.10907 0.41955 0.0
C597 C 0.34113 0.12281 0.45714 0.0
C598 C 0.35877 0.1454 0.4514 0.0
C599 C 0.37126 0.13156 0.41379 0.0
C600 C 0.37373 0.14964 0.42951 0.0
C601 C 0.36025 0.16469 0.46647 0.0
H602 H 0.31841 0.23322 0.43556 0.0
H603 H 0.32427 0.20833 0.46619 0.0
H604 H 0.37811 0.24697 0.38916 0.0
H605 H 0.38422 0.22214 0.41999 0.0
H606 H 0.38822 0.27423 0.52008 0.0
H607 H 0.38588 0.24563 0.48796 0.0
H608 H 0.33033 0.22089 0.56446 0.0
H609 H 0.32799 0.19238 0.53267 0.0
H610 H 0.39048 0.12265 0.52773 0.0
H611 H 0.38925 0.14915 0.49464 0.0
H612 H 0.33337 0.11859 0.57104 0.0
H613 H 0.33194 0.14474 0.53821 0.0
H614 H 0.32479 0.08748 0.44588 0.0
H615 H 0.32891 0.11915 0.47335 0.0
H616 H 0.38286 0.13509 0.39689 0.0
H617 H 0.38721 0.16696 0.42451 0.0
N618 N 0.35965 0.18124 0.45177 0.0
N619 N 0.35838 0.18259 0.507 0.0
C620 C 0.76386 0.11064 0.45031 0.0
C621 C 0.75437 0.11089 0.42481 0.0
C622 C 0.77433 0.13011 0.46674 0.0
C623 C 0.77507 0.15002 0.45815 0.0
C624 C 0.75528 0.13078 0.41594 0.0
C625 C 0.76572 0.15031 0.43248 0.0
C626 C 0.78768 0.17108 0.47472 0.0
C627 C 0.72702 0.11936 0.52473 0.0
C628 C 0.73323 0.1152 0.55061 0.0
C629 C 0.74336 0.13791 0.50915 0.0
C630 C 0.76629 0.15199 0.51891 0.0
C631 C 0.75594 0.12941 0.56043 0.0
C632 C 0.77228 0.14754 0.54477 0.0
C633 C 0.78441 0.17163 0.50312 0.0
C634 C 0.8662 0.26529 0.53665 0.0
C635 C 0.87306 0.25736 0.55918 0.0
C636 C 0.84808 0.2497 0.51942 0.0
C637 C 0.83676 0.22609 0.5246 0.0
C638 C 0.86108 0.23396 0.56492 0.0
C639 C 0.84309 0.2185 0.54789 0.0
C640 C 0.81884 0.20871 0.50592 0.0
C641 C 0.88441 0.24269 0.45665 0.0
C642 C 0.88291 0.25262 0.43227 0.0
C643 C 0.86459 0.22893 0.47191 0.0
C644 C 0.84304 0.22526 0.46324 0.0
C645 C 0.86151 0.24929 0.42367 0.0
C646 C 0.84161 0.23551 0.43902 0.0
C647 C 0.8217 0.2084 0.47742 0.0
H648 H 0.7634 0.09543 0.45731 0.0
H649 H 0.7822 0.12972 0.48598 0.0
H650 H 0.74804 0.13118 0.39623 0.0
H651 H 0.76657 0.16565 0.42524 0.0
H652 H 0.70952 0.1085 0.51688 0.0
H653 H 0.73804 0.14127 0.48963 0.0
H654 H 0.76104 0.12641 0.58034 0.0
H655 H 0.78976 0.15801 0.55288 0.0
H656 H 0.87521 0.28337 0.5321 0.0
H657 H 0.8432 0.25602 0.5019 0.0
H658 H 0.8661 0.22758 0.58228 0.0
H659 H 0.83464 0.20043 0.55243 0.0
H660 H 0.90082 0.24501 0.46339 0.0
H661 H 0.866 0.22054 0.48996 0.0
H662 H 0.86014 0.25682 0.40479 0.0
H663 H 0.82505 0.23249 0.43174 0.0
N664 N 0.80596 0.18965 0.46296 0.0
N665 N 0.80019 0.19041 0.51744 0.0
C666 C 0.96601 0.54665 0.16191 0.0
C667 C 0.98052 0.55682 0.13934 0.0
C668 C 0.96952 0.5326 0.1796 0.0
C669 C 0.98746 0.52851 0.17469 0.0
C670 C -0.00153 0.55282 0.13466 0.0
C671 C 0.00182 0.53868 0.15206 0.0
C672 C 0.99036 0.51214 0.19125 0.0
C673 C 0.01026 0.57168 0.247 0.0
C674 C 0.99736 0.56592 0.27107 0.0
C675 C 0.00857 0.55454 0.23008 0.0
C676 C 0.99369 0.53139 0.23684 0.0
C677 C 0.98264 0.54288 0.27799 0.0
C678 C 0.98091 0.52573 0.26105 0.0
C679 C 0.99266 0.51304 0.22001 0.0
C680 C 0.02466 0.44757 0.24096 0.0
C681 C 0.01311 0.43761 0.26538 0.0
C682 C 0.01909 0.46133 0.22578 0.0
C683 C 0.00165 0.46506 0.23463 0.0
C684 C 0.99601 0.44161 0.27458 0.0
C685 C 0.99039 0.45535 0.25936 0.0
C686 C 0.99619 0.48022 0.21911 0.0
C687 C 0.97184 0.42104 0.1593 0.0
C688 C 0.98507 0.42721 0.13542 0.0
C689 C 0.97545 0.4378 0.17829 0.0
C690 C 0.99214 0.46088 0.17337 0.0
C691 C 0.00251 0.45011 0.13127 0.0
C692 C 0.00586 0.46684 0.14996 0.0
C693 C 0.99342 0.47915 0.19045 0.0
H694 H 0.95196 0.54947 0.16565 0.0
H695 H 0.95793 0.52451 0.19662 0.0
H696 H 0.00976 0.56047 0.11729 0.0
H697 H 0.0156 0.53558 0.14776 0.0
H698 H 0.02184 0.58943 0.24154 0.0
H699 H 0.01926 0.55941 0.21207 0.0
H700 H 0.97264 0.53821 0.29658 0.0
H701 H 0.96958 0.50803 0.26686 0.0
H702 H 0.03803 0.44476 0.23375 0.0
H703 H 0.02868 0.46932 0.20736 0.0
H704 H 0.98701 0.43405 0.29348 0.0
H705 H 0.97715 0.45827 0.26678 0.0
H706 H 0.95817 0.40346 0.16265 0.0
H707 H 0.96442 0.4329 0.19602 0.0
H708 H 0.01278 0.45517 0.11287 0.0
H709 H 0.01871 0.48456 0.14574 0.0
N710 N 0.99083 0.49523 0.17768 0.0
N711 N 0.99545 0.497 0.23284 0.0
C712 C 0.45834 0.4064 0.15628 0.0
C713 C 0.45094 0.41412 0.13409 0.0
C714 C 0.47641 0.42216 0.17339 0.0
C715 C 0.48715 0.44575 0.16843 0.0
C716 C 0.46216 0.43756 0.12871 0.0
C717 C 0.48013 0.45321 0.14563 0.0
C718 C 0.50561 0.46314 0.18655 0.0
C719 C 0.44191 0.43019 0.2385 0.0
C720 C 0.44376 0.42028 0.2627 0.0
C721 C 0.46139 0.44344 0.22252 0.0
C722 C 0.48295 0.44662 0.23026 0.0
C723 C 0.46516 0.42319 0.27046 0.0
C724 C 0.48471 0.43644 0.25438 0.0
C725 C 0.50405 0.46301 0.21531 0.0
C726 C 0.56811 0.5593 0.24571 0.0
C727 C 0.5771 0.55701 0.27062 0.0
C728 C 0.55649 0.54075 0.22799 0.0
C729 C 0.55405 0.5197 0.23468 0.0
C730 C 0.57479 0.53609 0.27747 0.0
C731 C 0.56318 0.51747 0.25962 0.0
C732 C 0.53931 0.49939 0.21752 0.0
C733 C 0.59876 0.54568 0.1606 0.0
C734 C 0.59131 0.55299 0.13803 0.0
C735 C 0.58243 0.52884 0.17808 0.0
C736 C 0.55859 0.51913 0.1729 0.0
C737 C 0.56757 0.54397 0.13368 0.0
C738 C 0.55136 0.5271 0.15085 0.0
C739 C 0.54078 0.49956 0.18878 0.0
H740 H 0.44991 0.3883 0.16054 0.0
H741 H 0.48187 0.41597 0.19051 0.0
H742 H 0.45669 0.44377 0.1116 0.0
H743 H 0.48815 0.47127 0.14128 0.0
H744 H 0.4255 0.42819 0.23241 0.0
H745 H 0.45974 0.45186 0.20465 0.0
H746 H 0.46679 0.41565 0.28918 0.0
H747 H 0.50128 0.43909 0.26098 0.0
H748 H 0.56965 0.57534 0.24029 0.0
H749 H 0.5487 0.5427 0.20955 0.0
H750 H 0.58166 0.53414 0.2967 0.0
H751 H 0.56104 0.50125 0.26543 0.0
H752 H 0.61706 0.55232 0.16399 0.0
H753 H 0.58835 0.52276 0.19485 0.0
H754 H 0.56156 0.54932 0.11624 0.0
H755 H 0.53307 0.5199 0.14655 0.0
N756 N 0.52391 0.48143 0.17453 0.0
N757 N 0.52109 0.48103 0.22966 0.0
C758 C 0.4683 0.03589 0.27337 0.0
C759 C 0.44602 0.01912 0.26434 0.0
C760 C 0.48759 0.04145 0.25753 0.0
C761 C 0.4848 0.03049 0.23237 0.0
C762 C 0.44313 0.00837 0.23907 0.0
C763 C 0.4624 0.01387 0.22329 0.0
C764 C 0.50545 0.03451 0.21747 0.0
C765 C 0.4653 0.05374 0.16118 0.0
C766 C 0.45689 0.03959 0.13799 0.0
C767 C 0.48252 0.05407 0.17776 0.0
C768 C 0.49147 0.04026 0.17125 0.0
C769 C 0.46652 0.02658 0.13094 0.0
C770 C 0.48371 0.027 0.14733 0.0
C771 C 0.5085 0.03885 0.18913 0.0
C772 C 0.57472 0.01234 0.15622 0.0
C773 C 0.58655 0.02891 0.136 0.0
C774 C 0.56128 0.01522 0.17535 0.0
C775 C 0.55978 0.03486 0.17467 0.0
C776 C 0.58586 0.04893 0.13603 0.0
C777 C 0.57249 0.05183 0.15515 0.0
C778 C 0.54236 0.03626 0.19104 0.0
C779 C 0.59198 0.03406 0.25141 0.0
C780 C 0.58126 0.01628 0.27054 0.0
C781 C 0.57861 0.03957 0.23482 0.0
C782 C 0.55429 0.02704 0.23679 0.0
C783 C 0.55708 0.0042 0.27303 0.0
C784 C 0.54373 0.00951 0.2563 0.0
C785 C 0.53947 0.03221 0.21948 0.0
H786 H 0.47074 0.04425 0.29291 0.0
H787 H 0.50475 0.05403 0.26511 0.0
H788 H 0.42601 0.99526 0.23197 0.0
H789 H 0.45983 0.00458 0.20445 0.0
H790 H 0.45815 0.06403 0.16676 0.0
H791 H 0.48859 0.06482 0.19579 0.0
H792 H 0.4603 0.01566 0.11304 0.0
H793 H 0.49042 0.01631 0.14177 0.0
H794 H 0.57492 0.99668 0.15624 0.0
H795 H 0.55111 0.00158 0.18967 0.0
H796 H 0.59477 0.06178 0.12042 0.0
H797 H 0.57134 0.06696 0.15404 0.0
H798 H 0.61067 0.04369 0.24942 0.0
H799 H 0.58729 0.05365 0.22064 0.0
H800 H 0.54856 0.99051 0.28779 0.0
H801 H 0.52505 -0.00031 0.25842 0.0
N802 N 0.52112 0.03155 0.23147 0.0
N803 N 0.52681 0.03951 0.17712 0.0
C804 C 0.55148 0.98149 0.79788 0.0
C805 C 0.55123 0.98001 0.76927 0.0
C806 C 0.53104 0.97439 0.81197 0.0
C807 C 0.50947 0.96358 0.79814 0.0
C808 C 0.52987 0.96968 0.75523 0.0
C809 C 0.5092 0.96115 0.76957 0.0
C810 C 0.48771 0.9581 0.81213 0.0
C811 C 0.52158 0.93035 0.86554 0.0
C812 C 0.53058 0.94363 0.88937 0.0
C813 C 0.50491 0.93162 0.84966 0.0
C814 C 0.49715 0.94612 0.85763 0.0
C815 C 0.52149 0.95668 0.89826 0.0
C816 C 0.50481 0.9578 0.88264 0.0
C817 C 0.48246 0.95088 0.83967 0.0
C818 C 0.39532 0.9534 0.86148 0.0
C819 C 0.40221 0.96274 0.88786 0.0
C820 C 0.4107 0.95097 0.84499 0.0
C821 C 0.43339 0.9586 0.85437 0.0
C822 C 0.42465 0.96996 0.89728 0.0
C823 C 0.44005 0.96799 0.88074 0.0
C824 C 0.45054 0.95664 0.83793 0.0
C825 C 0.4298 0.99705 0.78384 0.0
C826 C 0.4194 0.98565 0.75926 0.0
C827 C 0.44116 0.98941 0.80073 0.0
C828 C 0.44204 0.97016 0.79326 0.0
C829 C 0.42052 0.96663 0.75163 0.0
C830 C 0.43194 0.95905 0.76843 0.0
C831 C 0.45492 0.96251 0.81005 0.0
H832 H 0.56776 0.98964 0.80916 0.0
H833 H 0.53256 0.97852 0.83344 0.0
H834 H 0.52923 0.96862 0.73313 0.0
H835 H 0.49301 0.95344 0.75813 0.0
H836 H 0.52829 0.92 0.8586 0.0
H837 H 0.49887 0.92215 0.83066 0.0
H838 H 0.5281 0.96685 0.91674 0.0
H839 H 0.49893 0.96891 0.88934 0.0
H840 H 0.37803 0.94773 0.85391 0.0
H841 H 0.40477 0.94299 0.82513 0.0
H842 H 0.43028 0.97725 0.91754 0.0
H843 H 0.45736 0.97399 0.8886 0.0
H844 H 0.42908 0.0118 0.78992 0.0
H845 H 0.4494 0.99859 0.81946 0.0
H846 H 0.41256 0.9577 0.73267 0.0
H847 H 0.43278 0.94441 0.76214 0.0
N848 N 0.47328 0.96301 0.79838 0.0
N849 N 0.46437 0.95082 0.8514 0.0
C850 C 0.98648 0.56322 0.76765 0.0
C851 C -0.00018 0.573 0.74419 0.0
C852 C 0.99057 0.54918 0.78449 0.0
C853 C 0.00817 0.54495 0.77812 0.0
C854 C 0.01708 0.56845 0.73752 0.0
C855 C 0.02109 0.55435 0.75428 0.0
C856 C 0.01243 0.52982 0.79531 0.0
C857 C 0.03063 0.59143 0.84878 0.0
C858 C 0.02127 0.58582 0.87517 0.0
C859 C 0.02929 0.57445 0.83162 0.0
C860 C 0.01775 0.55151 0.84025 0.0
C861 C 0.00984 0.56299 0.88369 0.0
C862 C 0.00799 0.54608 0.86643 0.0
C863 C 0.01689 0.53294 0.8238 0.0
C864 C 0.03634 0.45861 0.85242 0.0
C865 C 0.02386 0.45128 0.87684 0.0
C866 C 0.03465 0.47422 0.8356 0.0
C867 C 0.02049 0.48263 0.84312 0.0
C868 C 0.01028 0.46016 0.88465 0.0
C869 C 0.0087 0.47579 0.86801 0.0
C870 C 0.01788 0.49872 0.82558 0.0
C871 C 0.98343 0.43209 0.78146 0.0
C872 C 0.99456 0.43247 0.75733 0.0
C873 C 0.9892 0.45248 0.79438 0.0
C874 C 0.0064 0.47358 0.78354 0.0
C875 C 0.01136 0.45351 0.74607 0.0
C876 C 0.01713 0.47397 0.75902 0.0
C877 C 0.01253 0.49514 0.79744 0.0
H878 H 0.97308 0.5666 0.77298 0.0
H879 H 0.98001 0.54162 0.80243 0.0
H880 H 0.02748 0.57591 0.71945 0.0
H881 H 0.03451 0.55101 0.74884 0.0
H882 H 0.03947 0.60897 0.84181 0.0
H883 H 0.03772 0.57941 0.812 0.0
H884 H 0.00242 0.55826 0.9039 0.0
H885 H -0.00097 0.52862 0.87377 0.0
H886 H 0.04705 0.45201 0.84628 0.0
H887 H 0.04434 0.47968 0.81678 0.0
H888 H 0.00064 0.45474 0.90352 0.0
H889 H 0.99783 0.48216 0.8743 0.0
H890 H 0.97032 0.41599 0.79027 0.0
H891 H 0.98018 0.45177 0.81284 0.0
H892 H 0.02001 0.45404 0.72737 0.0
H893 H 0.0302 0.49007 0.75016 0.0
N894 N 0.01043 0.51103 0.78325 0.0
N895 N 0.01958 0.51727 0.8376 0.0
C896 C 0.5427 0.59797 0.76825 0.0
C897 C 0.55212 0.58846 0.75133 0.0
C898 C 0.52181 0.58369 0.78182 0.0
C899 C 0.51054 0.55984 0.77892 0.0
C900 C 0.53989 0.56488 0.74676 0.0
C901 C 0.51925 0.5507 0.76037 0.0
C902 C 0.49067 0.54378 0.79599 0.0
C903 C 0.55121 0.5825 0.85467 0.0
C904 C 0.54635 0.58695 0.88092 0.0
C905 C 0.53325 0.56896 0.83634 0.0
C906 C 0.5101 0.56163 0.84251 0.0
C907 C 0.52332 0.57961 0.88736 0.0
C908 C 0.50549 0.56753 0.86815 0.0
C909 C 0.49032 0.54478 0.82494 0.0
C910 C 0.42042 0.45092 0.85946 0.0
C911 C 0.40964 0.45561 0.88053 0.0
C912 C 0.43433 0.46794 0.84069 0.0
C913 C 0.43722 0.48972 0.84237 0.0
C914 C 0.41215 0.47717 0.88197 0.0
C915 C 0.42591 0.49412 0.86309 0.0
C916 C 0.45426 0.50877 0.82507 0.0
C917 C 0.40151 0.45348 0.76974 0.0
C918 C 0.41188 0.4453 0.75228 0.0
C919 C 0.41524 0.47427 0.78354 0.0
C920 C 0.43944 0.48681 0.78017 0.0
C921 C 0.43576 0.45847 0.7477 0.0
C922 C 0.44941 0.47906 0.76147 0.0
C923 C 0.45507 0.50753 0.79637 0.0
H924 H 0.55199 0.61622 0.77184 0.0
H925 H 0.51513 0.59113 0.7956 0.0
H926 H 0.54693 0.55734 0.73371 0.0
H927 H 0.5108 0.53239 0.75755 0.0
H928 H 0.5688 0.58777 0.84925 0.0
H929 H 0.53764 0.5633 0.81815 0.0
H930 H 0.51902 0.58255 0.90756 0.0
H931 H 0.48785 0.56175 0.87393 0.0
H932 H 0.41886 0.43443 0.85831 0.0
H933 H 0.44352 0.46432 0.82555 0.0
H934 H 0.40408 0.48108 0.89826 0.0
H935 H 0.42822 0.51089 0.86507 0.0
H936 H 0.38302 0.44344 0.77336 0.0
H937 H 0.40709 0.48018 0.79732 0.0
H938 H 0.44396 0.45235 0.73429 0.0
H939 H 0.46798 0.48846 0.75836 0.0
N940 N 0.47312 0.52514 0.78314 0.0
N941 N 0.4718 0.52739 0.83805 0.0
C942 C 0.65008 0.76548 0.49739 0.0
C943 C 0.63114 0.75349 0.47942 0.0
C944 C 0.65054 0.78105 0.51604 0.0
C945 C 0.63193 0.78462 0.51714 0.0
C946 C 0.61218 0.75637 0.48117 0.0
C947 C 0.61262 0.77191 0.49982 0.0
C948 C 0.63375 0.80365 0.53327 0.0
C949 C 0.63518 0.75534 0.59434 0.0
C950 C 0.65599 0.76494 0.60943 0.0
C951 C 0.63016 0.76925 0.57854 0.0
C952 C 0.64598 0.79295 0.5775 0.0
C953 C 0.67166 0.78862 0.6087 0.0
C954 C 0.6666 0.80253 0.59301 0.0
C955 C 0.64105 0.80802 0.56091 0.0
C956 C 0.62793 0.886 0.58847 0.0
C957 C 0.64675 0.89793 0.60661 0.0
C958 C 0.62575 0.86799 0.57288 0.0
C959 C 0.6425 0.86182 0.57504 0.0
C960 C 0.66337 0.89171 0.609 0.0
C961 C 0.6612 0.8737 0.59343 0.0
C962 C 0.63999 0.84221 0.55947 0.0
C963 C 0.65333 0.89269 0.49206 0.0
C964 C 0.63596 0.88517 0.47184 0.0
C965 C 0.65183 0.87783 0.51264 0.0
C966 C 0.63283 0.85522 0.51342 0.0
C967 C 0.61637 0.863 0.47337 0.0
C968 C 0.61493 0.84806 0.49387 0.0
C969 C 0.63339 0.8382 0.53159 0.0
H970 H 0.66496 0.76361 0.496 0.0
H971 H 0.66594 0.79111 0.52856 0.0
H972 H 0.59754 0.74738 0.46725 0.0
H973 H 0.59822 0.77459 0.50009 0.0
H974 H 0.62286 0.73709 0.59481 0.0
H975 H 0.61389 0.76152 0.56729 0.0
H976 H 0.68779 0.79627 0.62025 0.0
H977 H 0.67898 0.82078 0.59265 0.0
H978 H 0.6149 0.89056 0.58656 0.0
H979 H 0.61079 0.85868 0.55949 0.0
H980 H 0.67798 0.90078 0.62296 0.0
H981 H 0.6742 0.86912 0.59563 0.0
H982 H 0.66863 0.90971 0.49107 0.0
H983 H 0.66619 0.88364 0.52693 0.0
H984 H 0.60285 0.85692 0.45786 0.0
H985 H 0.60025 0.83065 0.49388 0.0
N986 N 0.63029 0.81894 0.51976 0.0
N987 N 0.64378 0.82708 0.57293 0.0
C988 C 0.13029 0.73892 0.50298 0.0
C989 C 0.12377 0.74659 0.47991 0.0
C990 C 0.1486 0.75461 0.51988 0.0
C991 C 0.16057 0.77809 0.51378 0.0
C992 C 0.13644 0.76984 0.47318 0.0
C993 C 0.15473 0.78542 0.48987 0.0
C994 C 0.17835 0.79552 0.53251 0.0
C995 C 0.11104 0.76535 0.57821 0.0
C996 C 0.11104 0.75567 0.60347 0.0
C997 C 0.13159 0.77797 0.56374 0.0
C998 C 0.15236 0.78075 0.57412 0.0
C999 C 0.13165 0.75815 0.6138 0.0
C1000 C 0.15225 0.77077 0.59926 0.0
C1001 C 0.17458 0.79647 0.56066 0.0
C1002 C 0.2272 0.88051 0.61385 0.0
C1003 C 0.25135 0.89345 0.6114 0.0
C1004 C 0.21417 0.86023 0.5992 0.0
C1005 C 0.22506 0.85258 0.58174 0.0
C1006 C 0.26251 0.88533 0.59522 0.0
C1007 C 0.24943 0.86487 0.58062 0.0
C1008 C 0.21038 0.8323 0.56432 0.0
C1009 C 0.25953 0.864 0.48297 0.0
C1010 C 0.26027 0.88476 0.48227 0.0
C1011 C 0.2455 0.84718 0.50182 0.0
C1012 C 0.23224 0.85099 0.52039 0.0
C1013 C 0.24789 0.88907 0.50159 0.0
C1014 C 0.23385 0.87223 0.52047 0.0
C1015 C 0.21397 0.83154 0.53604 0.0
H1016 H 0.12079 0.72096 0.50828 0.0
H1017 H 0.15307 0.7485 0.53794 0.0
H1018 H 0.13173 0.77601 0.45536 0.0
H1019 H 0.16372 0.80339 0.48466 0.0
H1020 H 0.09525 0.76367 0.5701 0.0
H1021 H 0.13137 0.78621 0.54492 0.0
H1022 H 0.13186 0.7508 0.63336 0.0
H1023 H 0.16818 0.77309 0.60785 0.0
H1024 H 0.21838 0.88662 0.62622 0.0
H1025 H 0.19544 0.85104 0.60062 0.0
H1026 H 0.2812 0.89518 0.59321 0.0
H1027 H 0.2583 0.85901 0.56796 0.0
H1028 H 0.26882 0.86037 0.46798 0.0
H1029 H 0.24421 0.8308 0.50112 0.0
H1030 H 0.24808 0.90493 0.50104 0.0
H1031 H 0.22326 0.87534 0.53402 0.0
N1032 N 0.1979 0.81312 0.52139 0.0
N1033 N 0.19082 0.81467 0.57542 0.0
C1034 C 0.26208 0.37465 0.50573 0.0
C1035 C 0.25489 0.36476 0.47965 0.0
C1036 C 0.24621 0.37532 0.52327 0.0
C1037 C 0.22277 0.36529 0.51531 0.0
C1038 C 0.23161 0.35494 0.47173 0.0
C1039 C 0.21575 0.35508 0.48936 0.0
C1040 C 0.20533 0.36623 0.53245 0.0
C1041 C 0.2318 0.3312 0.5866 0.0
C1042 C 0.24325 0.34373 0.61021 0.0
C1043 C 0.21906 0.3376 0.57028 0.0
C1044 C 0.21777 0.35669 0.57732 0.0
C1045 C 0.24179 0.36265 0.61744 0.0
C1046 C 0.22894 0.36896 0.60121 0.0
C1047 C 0.20335 0.36285 0.56105 0.0
C1048 C 0.10702 0.33833 0.582 0.0
C1049 C 0.10949 0.34996 0.60645 0.0
C1050 C 0.12649 0.34354 0.56686 0.0
C1051 C 0.14872 0.36078 0.57568 0.0
C1052 C 0.13164 0.36709 0.61549 0.0
C1053 C 0.15118 0.37236 0.60025 0.0
C1054 C 0.16941 0.36528 0.56047 0.0
C1055 C 0.12786 0.38342 0.50473 0.0
C1056 C 0.11953 0.3694 0.48143 0.0
C1057 C 0.14505 0.38367 0.52126 0.0
C1058 C 0.15399 0.36987 0.51459 0.0
C1059 C 0.12897 0.35625 0.47438 0.0
C1060 C 0.14609 0.35654 0.49073 0.0
C1061 C 0.17147 0.36882 0.53195 0.0
H1062 H 0.28001 0.38227 0.5122 0.0
H1063 H 0.2524 0.38401 0.54271 0.0
H1064 H 0.22569 0.34715 0.45174 0.0
H1065 H 0.19787 0.34723 0.48255 0.0
H1066 H 0.23278 0.31653 0.58084 0.0
H1067 H 0.21004 0.32751 0.55234 0.0
H1068 H 0.25055 0.37245 0.63565 0.0
H1069 H 0.22782 0.38351 0.60719 0.0
H1070 H 0.09002 0.32494 0.57491 0.0
H1071 H 0.12419 0.33377 0.54852 0.0
H1072 H 0.13376 0.37612 0.63443 0.0
H1073 H 0.16822 0.38543 0.60763 0.0
H1074 H 0.12081 0.3938 0.51028 0.0
H1075 H 0.15124 0.39447 0.53924 0.0
H1076 H 0.12278 0.34542 0.45639 0.0
H1077 H 0.15276 0.34585 0.48506 0.0
N1078 N 0.1893 0.36913 0.51923 0.0
N1079 N 0.18557 0.3627 0.57394 0.0
C1080 C 0.97006 0.40186 0.06447 0.0
C1081 C 0.9737 0.38336 0.06703 0.0
C1082 C 0.98442 0.39309 0.11534 0.0
C1083 C 0.97916 0.41047 0.11303 0.0
N1084 N 0.96071 0.42695 0.08763 0.0
N1085 N 0.97932 0.35823 0.09624 0.0
C1086 C 0.96987 0.41334 0.08831 0.0
C1087 C 0.97937 0.378 0.09292 0.0
N1088 N 0.96846 0.40967 0.03928 0.0
N1089 N 0.99502 0.39153 0.13847 0.0
H1090 H 0.97512 0.34652 0.08042 0.0
H1091 H 0.98119 0.35237 0.11519 0.0
H1092 H -0.00117 0.40219 0.15535 0.0
H1093 H 0.00159 0.38085 0.14012 0.0
H1094 H 0.96825 0.4246 0.03651 0.0
H1095 H 0.96998 0.40288 0.02099 0.0
H1096 H 0.95168 0.42786 0.07075 0.0
H1097 H 0.95997 0.43544 0.10485 0.0
C1098 C 0.61623 0.57142 0.0679 0.0
C1099 C 0.63098 0.59545 0.07118 0.0
C1100 C 0.62111 0.59181 0.11979 0.0
C1101 C 0.60766 0.56774 0.1166 0.0
N1102 N 0.5976 0.53443 0.08973 0.0
N1103 N 0.65117 0.62809 0.10117 0.0
C1104 C 0.60707 0.55752 0.09134 0.0
C1105 C 0.63456 0.60556 0.09745 0.0
N1106 N 0.60944 0.56192 0.04242 0.0
N1107 N 0.6204 0.60151 0.14376 0.0
H1108 H 0.66162 0.63849 0.08537 0.0
H1109 H 0.65602 0.63592 0.12029 0.0
H1110 H 0.61121 0.59187 0.1607 0.0
H1111 H 0.62769 0.61902 0.14628 0.0
H1112 H 0.59682 0.54479 0.03918 0.0
H1113 H 0.61425 0.57145 0.02445 0.0
H1114 H 0.59877 0.52637 0.07239 0.0
H1115 H 0.59072 0.52367 0.10662 0.0
C1116 C 0.39552 0.01694 0.1118 0.0
C1117 C 0.4002 0.02212 0.0837 0.0
C1118 C 0.44169 0.04626 0.09435 0.0
C1119 C 0.43729 0.0372 0.12121 0.0
N1120 N 0.41007 0.01367 0.15596 0.0
N1121 N 0.42751 0.04199 0.04764 0.0
C1122 C 0.41417 0.02285 0.1303 0.0
C1123 C 0.4232 0.03731 0.07484 0.0
N1124 N 0.37313 0.00625 0.1206 0.0
N1125 N 0.46361 0.06325 0.08762 0.0
H1126 H 0.41436 0.03615 0.0329 0.0
H1127 H 0.4441 0.05066 0.03947 0.0
H1128 H 0.47736 0.07002 0.10169 0.0
H1129 H 0.46772 0.072 0.06913 0.0
H1130 H 0.36861 0.00372 0.14114 0.0
H1131 H 0.35922 0.00193 0.10733 0.0
H1132 H 0.39375 0.00091 0.16256 0.0
H1133 H 0.42321 0.01776 0.17029 0.0
C1134 C 0.35601 0.95009 0.94048 0.0
C1135 C 0.3661 0.97216 0.95232 0.0
C1136 C 0.39314 0.98798 0.91418 0.0
C1137 C 0.38657 0.96557 0.90621 0.0
N1138 N 0.36233 0.92481 0.91283 0.0
N1139 N 0.39649 0.01226 0.95162 0.0
C1140 C 0.36788 0.94642 0.91932 0.0
C1141 C 0.38499 0.9913 0.93924 0.0
N1142 N 0.33499 0.93273 0.94931 0.0
N1143 N 0.40754 0.00607 0.89795 0.0
H1144 H 0.39212 0.01557 0.97061 0.0
H1145 H 0.4119 0.026 0.94418 0.0
H1146 H 0.41367 0.00399 0.87939 0.0
H1147 H 0.41133 0.02262 0.90148 0.0
H1148 H 0.32586 0.9168 0.93982 0.0
H1149 H 0.32555 0.9351 0.96424 0.0
H1150 H 0.35069 0.91046 0.92405 0.0
H1151 H 0.37055 0.92131 0.89746 0.0
C1152 C 0.00644 0.39397 0.90809 0.0
C1153 C 0.01401 0.40118 0.93531 0.0
C1154 C 0.03589 0.44098 0.9202 0.0
C1155 C 0.02427 0.43397 0.89458 0.0
N1156 N -0.00142 0.40389 0.86339 0.0
N1157 N 0.03631 0.43141 0.96787 0.0
C1158 C 0.00995 0.41045 0.88804 0.0
C1159 C 0.02934 0.42464 0.94148 0.0
N1160 N 0.99585 0.37132 0.90163 0.0
N1161 N 0.05298 0.46331 0.9241 0.0
H1162 H 0.03221 0.41991 0.9839 0.0
H1163 H 0.04512 0.4484 0.97418 0.0
H1164 H 0.05801 0.47553 0.90869 0.0
H1165 H 0.06353 0.46926 0.94149 0.0
H1166 H 0.9916 0.36505 0.88174 0.0
H1167 H 0.99344 0.35906 0.91607 0.0
H1168 H 0.98575 0.38711 0.85872 0.0
H1169 H 0.00102 0.41543 0.84796 0.0
C1170 C 0.59893 0.5985 0.92271 0.0
C1171 C 0.60086 0.61441 0.94258 0.0
C1172 C 0.56968 0.6159 0.91843 0.0
C1173 C 0.56499 0.59668 0.90241 0.0
N1174 N 0.5716 0.56553 0.89666 0.0
N1175 N 0.58463 0.63545 0.96168 0.0
C1176 C 0.57855 0.58672 0.90669 0.0
C1177 C 0.58536 0.6225 0.94111 0.0
N1178 N 0.61679 0.59511 0.91833 0.0
N1179 N 0.5598 0.62824 0.91167 0.0
H1180 H 0.5949 0.63982 0.97927 0.0
H1181 H 0.57207 0.63986 0.96247 0.0
H1182 H 0.54904 0.62452 0.89457 0.0
H1183 H 0.56429 0.64352 0.92135 0.0
H1184 H 0.61635 0.58463 0.90267 0.0
H1185 H 0.63303 0.60502 0.92771 0.0
H1186 H 0.58046 0.55723 0.90121 0.0
H1187 H 0.55564 0.55517 0.8869 0.0
C1188 C 0.0025 0.61042 0.93018 0.0
C1189 C 0.02413 0.62761 0.94169 0.0
C1190 C 0.04462 0.61985 0.90649 0.0
C1191 C 0.02301 0.6033 0.89458 0.0
N1192 N 0.98217 0.58876 0.8896 0.0
N1193 N 0.06514 0.65362 0.93498 0.0
C1194 C 0.00224 0.60078 0.90451 0.0
C1195 C 0.04501 0.63396 0.92789 0.0
N1196 N 0.98238 0.6017 0.94451 0.0
N1197 N 0.06464 0.62127 0.89869 0.0
H1198 H 0.06581 0.66481 0.94982 0.0
H1199 H 0.08044 0.66002 0.92405 0.0
H1200 H 0.06522 0.61108 0.88341 0.0
H1201 H 0.0804 0.6313 0.90896 0.0
H1202 H 0.96674 0.58757 0.93787 0.0
H1203 H 0.98152 0.60665 0.96429 0.0
H1204 H 0.9669 0.58803 0.89475 0.0
H1205 H 0.98158 0.58165 0.87058 0.0
C1206 C 0.39893 0.42256 0.9468 0.0
C1207 C 0.37439 0.41004 0.94754 0.0
C1208 C 0.37285 0.4248 0.90223 0.0
C1209 C 0.39744 0.43878 0.90267 0.0
N1210 N 0.43408 0.45039 0.9257 0.0
N1211 N 0.33753 0.39947 0.92723 0.0
C1212 C 0.41046 0.4374 0.92476 0.0
C1213 C 0.36117 0.41105 0.92546 0.0
N1214 N 0.41156 0.42082 0.96765 0.0
N1215 N 0.36082 0.4244 0.87937 0.0
H1216 H 0.32855 0.38866 0.94351 0.0
H1217 H 0.3268 0.40127 0.91339 0.0
H1218 H 0.36892 0.43439 0.86221 0.0
H1219 H 0.34309 0.41316 0.87649 0.0
H1220 H 0.42967 0.42994 0.96789 0.0
H1221 H 0.40399 0.40999 0.98435 0.0
H1222 H 0.44432 0.46211 0.91071 0.0
H1223 H 0.44432 0.46211 0.91071 0.0
C1224 C 0.56631 0.94721 0.9504 0.0
C1225 C 0.58884 0.9632 0.94077 0.0
C1226 C 0.57352 0.96077 0.89458 0.0
C1227 C 0.55078 0.94583 0.90451 0.0
N1228 N 0.52606 0.91941 0.93879 0.0
N1229 N 0.61494 0.97912 0.90296 0.0
C1230 C 0.54744 0.93708 0.93143 0.0
C1231 C 0.59275 0.9678 0.91248 0.0
N1232 N 0.56265 0.94299 0.97776 0.0
N1233 N 0.57666 0.96957 0.86878 0.0
H1234 H 0.62926 0.98427 0.91585 0.0
H1235 H 0.61896 0.98135 0.88227 0.0
H1236 H 0.56311 0.96465 0.85482 0.0
H1237 H 0.59257 0.98275 0.86169 0.0
H1238 H 0.54624 0.9337 0.98633 0.0
H1239 H 0.57606 0.94983 0.99222 0.0
H1240 H 0.52277 0.91094 0.95742 0.0
H1241 H 0.51209 0.91187 0.92503 0.0
C1242 C 0.59342 0.00552 0.06886 0.0
C1243 C 0.61788 0.01854 0.06617 0.0
C1244 C 0.62191 0.03538 0.1115 0.0
C1245 C 0.59741 0.02427 0.1128 0.0
N1246 N 0.55969 0.00109 0.09145 0.0
N1247 N 0.65568 0.04692 0.08343 0.0
C1248 C 0.58309 0.00981 0.09123 0.0
C1249 C 0.63225 0.03373 0.08714 0.0
N1250 N 0.58007 0.9889 0.05008 0.0
N1251 N 0.63517 0.04708 0.13378 0.0
H1252 H 0.66381 0.04549 0.06624 0.0
H1253 H 0.66693 0.06014 0.0965 0.0
H1254 H 0.62806 0.04863 0.15183 0.0
H1255 H 0.65295 0.05376 0.13524 0.0
H1256 H 0.56246 0.97706 0.05259 0.0
H1257 H 0.58691 0.98566 0.03292 0.0
H1258 H 0.54874 0.99277 0.07483 0.0
H1259 H 0.55131 0.00368 0.10748 0.0
C1260 C 0.98797 0.60968 0.10465 0.0
C1261 C 0.98469 0.60204 0.07726 0.0
C1262 C 0.96891 0.56285 0.09298 0.0
C1263 C 0.97715 0.57138 0.11971 0.0
N1264 N 0.9938 0.6027 0.15182 0.0
N1265 N 0.97045 0.57149 0.04456 0.0
C1266 C 0.98596 0.59467 0.12598 0.0
C1267 C 0.97417 0.57852 0.07119 0.0
N1268 N 0.99332 0.6314 0.11 0.0
N1269 N 0.95639 0.53979 0.08861 0.0
H1270 H 0.97327 0.58259 0.02839 0.0
H1271 H 0.96539 0.55502 0.03841 0.0
H1272 H 0.95232 0.52808 0.10443 0.0
H1273 H 0.94837 0.53227 0.07007 0.0
H1274 H 0.99434 0.6377 0.1296 0.0
H1275 H 0.99436 0.64232 0.09444 0.0
H1276 H 0.00293 0.61997 0.15693 0.0
H1277 H 0.99222 0.59211 0.16805 0.0
C1278 C 0.38984 0.3807 0.10497 0.0
C1279 C 0.39524 0.38137 0.07698 0.0
C1280 C 0.43545 0.39439 0.08936 0.0
C1281 C 0.43103 0.39825 0.11639 0.0
N1282 N 0.40415 0.39493 0.15069 0.0
N1283 N 0.42294 0.38844 0.04188 0.0
C1284 C 0.40814 0.39089 0.12461 0.0
C1285 C 0.41787 0.38757 0.06897 0.0
N1286 N 0.36716 0.37034 0.11259 0.0
N1287 N 0.4566 0.39759 0.0833 0.0
H1288 H 0.41044 0.38325 0.0264 0.0
H1289 H 0.4397 0.39547 0.03457 0.0
H1290 H 0.46969 0.40262 0.09804 0.0
H1291 H 0.46044 0.39329 0.06457 0.0
H1292 H 0.36184 0.36748 0.13285 0.0
H1293 H 0.35347 0.3626 0.09847 0.0
H1294 H 0.38842 0.39258 0.157 0.0
H1295 H 0.41703 0.40183 0.16583 0.0
C1296 C 0.61882 0.70309 0.43452 0.0
C1297 C 0.63266 0.71478 0.4116 0.0
C1298 C 0.64506 0.75168 0.43293 0.0
C1299 C 0.63227 0.74004 0.45655 0.0
N1300 N 0.60966 0.70517 0.48189 0.0
N1301 N 0.66173 0.74983 0.39022 0.0
C1302 C 0.6199 0.71584 0.45795 0.0
C1303 C 0.64669 0.73898 0.41124 0.0
N1304 N 0.60438 0.67987 0.43363 0.0
N1305 N 0.65479 0.7748 0.43073 0.0
H1306 H 0.6628 0.74127 0.37331 0.0
H1307 H 0.67439 0.76717 0.3904 0.0
H1308 H 0.6542 0.78484 0.44622 0.0
H1309 H 0.66189 0.78388 0.41277 0.0
H1310 H 0.59197 0.67047 0.44835 0.0
H1311 H 0.60383 0.67001 0.41715 0.0
H1312 H 0.60232 0.68776 0.48524 0.0
H1313 H 0.61001 0.71406 0.49929 0.0
C1314 C 0.26806 0.91362 0.41342 0.0
C1315 C 0.29257 0.92751 0.41239 0.0
C1316 C 0.29567 0.91636 0.45919 0.0
C1317 C 0.27138 0.9005 0.45892 0.0
N1318 N 0.23449 0.88203 0.43502 0.0
N1319 N 0.33017 0.94158 0.43299 0.0
C1320 C 0.25754 0.89868 0.43588 0.0
C1321 C 0.30655 0.92889 0.43502 0.0
N1322 N 0.25482 0.91513 0.39314 0.0
N1323 N 0.30817 0.91959 0.48268 0.0
H1324 H 0.33859 0.95139 0.41583 0.0
H1325 H 0.34143 0.94139 0.44751 0.0
H1326 H 0.30068 0.91044 0.50055 0.0
H1327 H 0.32552 0.93241 0.48518 0.0
H1328 H 0.23688 0.90736 0.39417 0.0
H1329 H 0.26192 0.92581 0.37623 0.0
H1330 H 0.22416 0.87801 0.41753 0.0
H1331 H 0.22592 0.87097 0.45124 0.0
C1332 C 0.08807 0.36867 0.41727 0.0
C1333 C 0.06481 0.35285 0.42481 0.0
C1334 C 0.0771 0.35261 0.47201 0.0
C1335 C 0.10045 0.36757 0.46419 0.0
N1336 N 0.12774 0.395 0.43242 0.0
N1337 N 0.03634 0.33544 0.46018 0.0
C1338 C 0.10573 0.37745 0.43779 0.0
C1339 C 0.05907 0.34678 0.45257 0.0
N1340 N 0.09351 0.37408 0.39039 0.0
N1341 N 0.07224 0.34291 0.49741 0.0
H1342 H 0.02287 0.33122 0.44625 0.0
H1343 H 0.03104 0.33223 0.48044 0.0
H1344 H 0.08493 0.34716 0.51243 0.0
H1345 H 0.05582 0.32974 0.50314 0.0
H1346 H 0.11045 0.3833 0.38327 0.0
H1347 H 0.08107 0.36822 0.37479 0.0
H1348 H 0.13237 0.40434 0.41434 0.0
H1349 H 0.14091 0.40162 0.44725 0.0
C1350 C 0.03248 0.30734 0.26902 0.0
C1351 C 0.03991 0.30444 0.29521 0.0
C1352 C 0.06765 0.29692 0.27359 0.0
C1353 C 0.06266 0.30308 0.24791 0.0
N1354 N 0.04209 0.31657 0.22119 0.0
N1355 N 0.06858 0.30184 0.3224 0.0
C1356 C 0.04547 0.30889 0.24555 0.0
C1357 C 0.0585 0.30053 0.29753 0.0
N1358 N 0.01265 0.3079 0.26647 0.0
N1359 N 0.08103 0.28743 0.2751 0.0
H1360 H 0.06363 0.306 0.34046 0.0
H1361 H 0.08368 0.30141 0.32466 0.0
H1362 H 0.08787 0.28425 0.25788 0.0
H1363 H 0.0833 0.28058 0.29305 0.0
H1364 H 0.00522 0.30784 0.24769 0.0
H1365 H 0.0024 0.30625 0.2831 0.0
H1366 H 0.03167 0.32349 0.21898 0.0
H1367 H 0.05105 0.31756 0.20354 0.0
C1368 C 0.69419 0.75283 0.28563 0.0
C1369 C 0.67684 0.72973 0.28029 0.0
C1370 C 0.67591 0.73822 0.23185 0.0
C1371 C 0.69243 0.76153 0.23742 0.0
N1372 N 0.72231 0.78989 0.26678 0.0
N1373 N 0.65681 0.69905 0.24781 0.0
C1374 C 0.70337 0.76838 0.26343 0.0
C1375 C 0.66964 0.72198 0.25311 0.0
N1376 N 0.70068 0.76025 0.31194 0.0
N1377 N 0.66515 0.73185 0.20684 0.0
H1378 H 0.65222 0.68682 0.26311 0.0
H1379 H 0.65271 0.69222 0.22815 0.0
H1380 H 0.6696 0.74317 0.19054 0.0
H1381 H 0.65092 0.71563 0.20266 0.0
H1382 H 0.71114 0.7774 0.31731 0.0
H1383 H 0.69449 0.74935 0.32874 0.0
H1384 H 0.73233 0.79543 0.2846 0.0
H1385 H 0.72925 0.80151 0.25066 0.0
C1386 C 0.27357 0.96009 0.25803 0.0
C1387 C 0.26896 0.95935 0.28628 0.0
C1388 C 0.22843 0.94618 0.27571 0.0
C1389 C 0.23205 0.94198 0.24847 0.0
N1390 N 0.25801 0.94551 0.2128 0.0
N1391 N 0.24243 0.95276 0.32263 0.0
C1392 C 0.25473 0.94964 0.23914 0.0
C1393 C 0.24662 0.95329 0.29531 0.0
N1394 N 0.29602 0.97063 0.24951 0.0
N1395 N 0.20741 0.94286 0.2827 0.0
H1396 H 0.25545 0.95826 0.33751 0.0
H1397 H 0.22592 0.94586 0.3307 0.0
H1398 H 0.19393 0.93762 0.26845 0.0
H1399 H 0.20405 0.94726 0.30165 0.0
H1400 H 0.30077 0.97348 0.22905 0.0
H1401 H 0.31006 0.97852 0.26315 0.0
H1402 H 0.27364 0.94809 0.20571 0.0
H1403 H 0.2447 0.93837 0.1982 0.0
C1404 C 0.68165 0.94257 0.26236 0.0
C1405 C 0.70243 0.96049 0.2747 0.0
C1406 C 0.72535 0.95405 0.24156 0.0
C1407 C 0.70453 0.93683 0.22881 0.0
N1408 N 0.66365 0.92066 0.22119 0.0
N1409 N 0.74345 0.98783 0.27024 0.0
C1410 C 0.68297 0.93334 0.23712 0.0
C1411 C 0.72413 0.96773 0.26238 0.0
N1412 N 0.66093 0.93276 0.27562 0.0
N1413 N 0.74611 0.95656 0.23502 0.0
H1414 H 0.74295 0.99871 0.28462 0.0
H1415 H 0.75929 0.99482 0.26032 0.0
H1416 H 0.74781 0.94687 0.21998 0.0
H1417 H 0.76139 0.9671 0.24598 0.0
H1418 H 0.64596 0.91823 0.2683 0.0
H1419 H 0.65904 0.93713 0.29531 0.0
H1420 H 0.64782 0.91916 0.22518 0.0
H1421 H 0.66423 0.91378 0.20245 0.0
C1422 C 0.03023 0.73124 0.27573 0.0
C1423 C 0.03673 0.74024 0.30266 0.0
C1424 C 0.06297 0.77822 0.28373 0.0
C1425 C 0.05946 0.76856 0.25731 0.0
N1426 N 0.04139 0.73531 0.22815 0.0
N1427 N 0.06349 0.77167 0.33205 0.0
C1428 C 0.04341 0.7449 0.2532 0.0
C1429 C 0.0541 0.76363 0.30667 0.0
N1430 N 0.01112 0.70996 0.2716 0.0
N1431 N 0.07481 0.80142 0.28692 0.0
H1432 H 0.05896 0.76137 0.34935 0.0
H1433 H 0.07779 0.78805 0.33535 0.0
H1434 H 0.0813 0.81269 0.27044 0.0
H1435 H 0.07597 0.8093 0.30552 0.0
H1436 H 0.00434 0.70338 0.25228 0.0
H1437 H 0.00067 0.69975 0.28752 0.0
H1438 H 0.03189 0.71774 0.22473 0.0
H1439 H 0.0506 0.74482 0.21116 0.0
C1440 C 0.24047 0.3005 0.28676 0.0
C1441 C 0.26393 0.31528 0.27926 0.0
C1442 C 0.25232 0.31546 0.23175 0.0
C1443 C 0.22877 0.30182 0.23955 0.0
N1444 N 0.20041 0.276 0.27166 0.0
N1445 N 0.29273 0.33097 0.24416 0.0
C1446 C 0.22288 0.29242 0.26618 0.0
C1447 C 0.26999 0.3207 0.25147 0.0
N1448 N 0.23493 0.29542 0.31368 0.0
N1449 N 0.25774 0.32455 0.20605 0.0
H1450 H 0.30591 0.33478 0.25838 0.0
H1451 H 0.29825 0.33369 0.22398 0.0
H1452 H 0.24527 0.32067 0.19086 0.0
H1453 H 0.27448 0.33686 0.20015 0.0
H1454 H 0.21802 0.28705 0.32089 0.0
H1455 H 0.24743 0.3006 0.32915 0.0
H1456 H 0.19516 0.26702 0.28998 0.0
H1457 H 0.18731 0.26991 0.25679 0.0
C1458 C 0.27487 0.34086 0.42529 0.0
C1459 C 0.29297 0.36104 0.41282 0.0
C1460 C 0.28854 0.38434 0.4471 0.0
C1461 C 0.27113 0.36412 0.46002 0.0
N1462 N 0.2535 0.32364 0.46673 0.0
N1463 N 0.32179 0.40122 0.41733 0.0
C1464 C 0.26642 0.34255 0.45096 0.0
C1465 C 0.30138 0.38256 0.42554 0.0
N1466 N 0.26428 0.32036 0.41185 0.0
N1467 N 0.29197 0.4051 0.45416 0.0
H1468 H 0.33208 0.4003 0.40231 0.0
H1469 H 0.32969 0.41686 0.4275 0.0
H1470 H 0.28281 0.40724 0.4696 0.0
H1471 H 0.30261 0.41998 0.44316 0.0
H1472 H 0.24949 0.30581 0.41916 0.0
H1473 H 0.26842 0.31825 0.39211 0.0
H1474 H 0.2512 0.30777 0.46221 0.0
H1475 H 0.24724 0.32448 0.4858 0.0
C1476 C 0.64727 0.93639 0.42934 0.0
C1477 C 0.65467 0.9317 0.40457 0.0
C1478 C 0.64701 0.89517 0.42267 0.0
C1479 C 0.63976 0.89983 0.44763 0.0
N1480 N 0.62785 0.92192 0.47276 0.0
N1481 N 0.65555 0.90451 0.37471 0.0
C1482 C 0.63816 0.91951 0.45028 0.0
C1483 C 0.65245 0.9103 0.4003 0.0
N1484 N 0.65007 0.95736 0.43333 0.0
N1485 N 0.6501 0.87708 0.42084 0.0
H1486 H 0.65944 0.91532 0.35792 0.0
H1487 H 0.65202 0.8883 0.36957 0.0
H1488 H 0.64644 0.86555 0.43672 0.0
H1489 H 0.65797 0.87445 0.40432 0.0
H1490 H 0.64766 0.96291 0.45206 0.0
H1491 H 0.656 0.96979 0.4181 0.0
H1492 H 0.62422 0.93479 0.4749 0.0
H1493 H 0.62111 0.90982 0.48839 0.0
C1494 C 0.06138 0.71154 0.45402 0.0
C1495 C 0.06543 0.7111 0.42573 0.0
C1496 C 0.10655 0.72621 0.43573 0.0
C1497 C 0.10318 0.73084 0.46289 0.0
N1498 N 0.0775 0.72899 0.49803 0.0
N1499 N 0.09223 0.71915 0.38903 0.0
C1500 C 0.08055 0.72345 0.47227 0.0
C1501 C 0.08804 0.7183 0.4164 0.0
N1502 N 0.03913 0.70041 0.46336 0.0
N1503 N 0.12753 0.72955 0.42849 0.0
H1504 H 0.07929 0.71367 0.37409 0.0
H1505 H 0.10884 0.72684 0.38097 0.0
H1506 H 0.14134 0.73532 0.44236 0.0
H1507 H 0.13052 0.72453 0.40972 0.0
H1508 H 0.03503 0.69831 0.48403 0.0
H1509 H 0.02476 0.69123 0.45043 0.0
H1510 H 0.0618 0.72647 0.50479 0.0
H1511 H 0.09102 0.73757 0.51216 0.0
C1512 C 0.32221 0.07487 0.75217 0.0
C1513 C 0.30695 0.05094 0.74892 0.0
C1514 C 0.29109 0.04847 0.79451 0.0
C1515 C 0.30459 0.07263 0.79648 0.0
N1516 N 0.33099 0.10929 0.77619 0.0
N1517 N 0.27591 0.01482 0.76563 0.0
C1518 C 0.31979 0.08597 0.77515 0.0
C1519 C 0.29113 0.03766 0.76976 0.0
N1520 N 0.339 0.08702 0.73322 0.0
N1521 N 0.27862 0.03593 0.81655 0.0
H1522 H 0.2762 0.00622 0.74828 0.0
H1523 H 0.2622 0.00459 0.77857 0.0
H1524 H 0.27823 0.04342 0.83487 0.0
H1525 H 0.27012 0.01821 0.81756 0.0
H1526 H 0.35241 0.10389 0.73608 0.0
H1527 H 0.34061 0.07984 0.7153 0.0
H1528 H 0.33996 0.11989 0.75983 0.0
H1529 H 0.32996 0.11819 0.79275 0.0
C1530 C 0.92791 0.24695 0.74776 0.0
C1531 C 0.95231 0.25882 0.7448 0.0
C1532 C 0.95616 0.24376 0.78876 0.0
C1533 C 0.93164 0.22965 0.78993 0.0
N1534 N 0.89394 0.2158 0.76937 0.0
N1535 N 0.98998 0.26817 0.76118 0.0
C1536 C 0.91741 0.23085 0.76924 0.0
C1537 C 0.96657 0.25726 0.76505 0.0
N1538 N 0.9148 0.25118 0.73006 0.0
N1539 N 0.96937 0.24447 0.81054 0.0
H1540 H -0.00181 0.27891 0.74459 0.0
H1541 H 0.0011 0.26568 0.77351 0.0
H1542 H 0.9622 0.23467 0.82809 0.0
H1543 H 0.98717 0.25597 0.8122 0.0
H1544 H 0.89724 0.24493 0.7328 0.0
H1545 H 0.92191 0.26262 0.71381 0.0
H1546 H 0.88296 0.21399 0.75319 0.0
H1547 H 0.88547 0.20378 0.78476 0.0
C1548 C 0.75392 0.70516 0.75192 0.0
C1549 C 0.73623 0.68158 0.75091 0.0
C1550 C 0.75566 0.67426 0.78833 0.0
C1551 C 0.77157 0.69803 0.79188 0.0
N1552 N 0.78057 0.73629 0.78159 0.0
N1553 N 0.71605 0.64634 0.77682 0.0
C1554 C 0.76908 0.71361 0.77511 0.0
C1555 C 0.73571 0.66695 0.77188 0.0
N1556 N 0.75735 0.71936 0.73051 0.0
N1557 N 0.75997 0.65849 0.7992 0.0
H1558 H 0.70022 0.64123 0.76718 0.0
H1559 H 0.71488 0.63594 0.79311 0.0
H1560 H 0.77552 0.66292 0.80904 0.0
H1561 H 0.74925 0.64105 0.79524 0.0
H1562 H 0.7714 0.73614 0.72979 0.0
H1563 H 0.74795 0.71389 0.71226 0.0
H1564 H 0.77777 0.74789 0.77109 0.0
H1565 H 0.79071 0.74291 0.79925 0.0
C1566 C 0.69602 0.62197 0.59868 0.0
C1567 C 0.70663 0.64336 0.61236 0.0
C1568 C 0.73513 0.65996 0.57569 0.0
C1569 C 0.72793 0.63773 0.5662 0.0
N1570 N 0.70253 0.59681 0.57122 0.0
N1571 N 0.73896 0.68268 0.61503 0.0
C1572 C 0.70842 0.61846 0.57809 0.0
C1573 C 0.7267 0.66254 0.60099 0.0
N1574 N 0.67401 0.60505 0.60521 0.0
N1575 N 0.75022 0.6786 0.56064 0.0
H1576 H 0.73461 0.68534 0.63437 0.0
H1577 H 0.75499 0.69614 0.6086 0.0
H1578 H 0.75639 0.67717 0.54178 0.0
H1579 H 0.75449 0.69514 0.56545 0.0
H1580 H 0.6648 0.58979 0.59428 0.0
H1581 H 0.66408 0.60743 0.6194 0.0
H1582 H 0.68993 0.58238 0.58157 0.0
H1583 H 0.71155 0.59327 0.55701 0.0
C1584 C 0.36438 0.09611 0.62108 0.0
C1585 C 0.35123 0.07233 0.61577 0.0
C1586 C 0.35045 0.07925 0.56679 0.0
C1587 C 0.36237 0.10303 0.57225 0.0
N1588 N 0.38631 0.13452 0.60242 0.0
N1589 N 0.33788 0.0413 0.58393 0.0
C1590 C 0.37134 0.11159 0.59876 0.0
C1591 C 0.34641 0.06394 0.58861 0.0
N1592 N 0.36899 0.10381 0.64747 0.0
N1593 N 0.34182 0.07127 0.54115 0.0
H1594 H 0.33512 0.02992 0.59974 0.0
H1595 H 0.33567 0.03425 0.56452 0.0
H1596 H 0.34497 0.08203 0.52452 0.0
H1597 H 0.33059 0.05406 0.53656 0.0
H1598 H 0.37605 0.12083 0.65295 0.0
H1599 H 0.36475 0.09286 0.66415 0.0
H1600 H 0.39501 0.1418 0.62074 0.0
H1601 H 0.39161 0.14611 0.58627 0.0
C1602 C 0.9345 0.2893 0.58755 0.0
C1603 C 0.92948 0.28892 0.61564 0.0
C1604 C 0.88946 0.27713 0.60376 0.0
C1605 C 0.89337 0.2729 0.57665 0.0
N1606 N 0.9195 0.27496 0.54208 0.0
N1607 N 0.90236 0.28282 0.6511 0.0
C1608 C 0.91599 0.27946 0.56816 0.0
C1609 C 0.90713 0.28347 0.62393 0.0
N1610 N 0.95704 0.29908 0.57959 0.0
N1611 N 0.8687 0.27473 0.6101 0.0
H1612 H 0.9149 0.28762 0.66644 0.0
H1613 H 0.88573 0.27631 0.65859 0.0
H1614 H 0.85557 0.27007 0.59551 0.0
H1615 H 0.86531 0.27936 0.62888 0.0
H1616 H 0.96213 0.30174 0.55925 0.0
H1617 H 0.9709 0.3066 0.5935 0.0
H1618 H 0.93494 0.27669 0.53565 0.0
H1619 H 0.90649 0.26824 0.5271 0.0
C1620 C 0.35843 0.29483 0.58842 0.0
C1621 C 0.36544 0.29032 0.61395 0.0
C1622 C 0.37349 0.26342 0.59176 0.0
C1623 C 0.36351 0.26552 0.56718 0.0
N1624 N 0.34467 0.28169 0.54211 0.0
N1625 N 0.37491 0.26659 0.64089 0.0
C1626 C 0.35556 0.28091 0.56542 0.0
C1627 C 0.37188 0.27373 0.6159 0.0
N1628 N 0.35516 0.31277 0.58602 0.0
N1629 N 0.38464 0.25162 0.59202 0.0
H1630 H 0.37268 0.27265 0.65936 0.0
H1631 H 0.37715 0.25279 0.64338 0.0
H1632 H 0.38621 0.24379 0.57466 0.0
H1633 H 0.39431 0.25156 0.60871 0.0
H1634 H 0.35221 0.31829 0.56741 0.0
H1635 H 0.35738 0.32343 0.60238 0.0
H1636 H 0.33617 0.29063 0.5406 0.0
H1637 H 0.34285 0.27213 0.52473 0.0
C1638 C 0.68755 0.08178 0.60412 0.0
C1639 C 0.69638 0.06849 0.6145 0.0
C1640 C 0.7211 0.07861 0.57436 0.0
C1641 C 0.71655 0.09603 0.56814 0.0
N1642 N 0.6955 0.11474 0.57735 0.0
N1643 N 0.72283 0.05494 0.60975 0.0
C1644 C 0.6994 0.0975 0.58268 0.0
C1645 C 0.71309 0.06656 0.59938 0.0
N1646 N 0.66783 0.07933 0.61485 0.0
N1647 N 0.73358 0.07409 0.55657 0.0
H1648 H 0.71814 0.04625 0.62826 0.0
H1649 H 0.73701 0.05543 0.60094 0.0
H1650 H 0.73961 0.08282 0.53811 0.0
H1651 H 0.73581 0.06027 0.55877 0.0
H1652 H 0.65947 0.08717 0.60662 0.0
H1653 H 0.65851 0.06748 0.63016 0.0
H1654 H 0.68524 0.11822 0.58961 0.0
H1655 H 0.70369 0.12654 0.56169 0.0
C1656 C 0.9118 0.63726 0.61121 0.0
C1657 C 0.9298 0.66074 0.61063 0.0
C1658 C 0.91107 0.66649 0.5712 0.0
C1659 C 0.89481 0.64264 0.56943 0.0
N1660 N 0.88418 0.60472 0.58393 0.0
N1661 N 0.95058 0.69475 0.58277 0.0
C1662 C 0.89657 0.62777 0.58822 0.0
C1663 C 0.93075 0.67444 0.5883 0.0
N1664 N 0.9082 0.62427 0.63395 0.0
N1665 N 0.9073 0.6818 0.55794 0.0
H1666 H 0.96617 0.70034 0.59326 0.0
H1667 H 0.95219 0.70439 0.56547 0.0
H1668 H 0.892 0.67706 0.54726 0.0
H1669 H 0.91816 0.69941 0.56058 0.0
H1670 H 0.89394 0.6077 0.63585 0.0
H1671 H 0.91777 0.63066 0.65198 0.0
H1672 H 0.88644 0.59342 0.59589 0.0
H1673 H 0.87364 0.59725 0.56672 0.0
C1674 C 0.93201 0.68688 0.74961 0.0
C1675 C 0.95642 0.70047 0.74647 0.0
C1676 C 0.96054 0.71773 0.79153 0.0
C1677 C 0.93606 0.7065 0.79288 0.0
N1678 N 0.89815 0.68158 0.77288 0.0
N1679 N 0.99427 0.72893 0.76359 0.0
C1680 C 0.92167 0.69112 0.77203 0.0
C1681 C 0.97083 0.71583 0.76731 0.0
N1682 N 0.91869 0.67012 0.73099 0.0
N1683 N 0.97381 0.72995 0.81357 0.0
H1684 H 0.00244 0.727 0.74678 0.0
H1685 H 0.00555 0.74235 0.77641 0.0
H1686 H 0.96665 0.73162 0.83151 0.0
H1687 H 0.99163 0.7369 0.81504 0.0
H1688 H 0.90123 0.65792 0.73382 0.0
H1689 H 0.92538 0.66719 0.71349 0.0
H1690 H 0.88694 0.67261 0.75669 0.0
H1691 H 0.88978 0.68387 0.78915 0.0
C1692 C 0.3453 0.27013 0.77019 0.0
C1693 C 0.32962 0.26733 0.74884 0.0
C1694 C 0.29876 0.23462 0.77373 0.0
C1695 C 0.31561 0.2348 0.79154 0.0
N1696 N 0.35648 0.24974 0.80023 0.0
N1697 N 0.29151 0.24333 0.72818 0.0
C1698 C 0.33937 0.25169 0.78796 0.0
C1699 C 0.30626 0.24864 0.74998 0.0
N1700 N 0.36551 0.29056 0.77428 0.0
N1701 N 0.27573 0.22162 0.7797 0.0
H1702 H 0.29648 0.25203 0.70966 0.0
H1703 H 0.27501 0.22861 0.72752 0.0
H1704 H 0.26966 0.212 0.79755 0.0
H1705 H 0.26302 0.22247 0.76845 0.0
H1706 H 0.37655 0.29345 0.79089 0.0
H1707 H 0.3696 0.3053 0.76346 0.0
H1708 H 0.37402 0.26107 0.79629 0.0
H1709 H 0.35319 0.23541 0.81142 0.0
C1710 C 0.75796 0.07501 0.73859 0.0
C1711 C 0.73579 0.0557 0.7441 0.0
C1712 C 0.75053 0.04957 0.78724 0.0
C1713 C 0.77145 0.07087 0.78367 0.0
N1714 N 0.79481 0.10499 0.75701 0.0
N1715 N 0.71016 0.02473 0.77379 0.0
C1716 C 0.77525 0.08378 0.75945 0.0
C1717 C 0.7319 0.04275 0.76828 0.0
N1718 N 0.76248 0.08475 0.71322 0.0
N1719 N 0.7486 0.0359 0.80871 0.0
H1720 H 0.69623 0.019 0.76016 0.0
H1721 H 0.70553 0.01627 0.79248 0.0
H1722 H 0.76197 0.04058 0.82294 0.0
H1723 H 0.73468 0.01925 0.81115 0.0
H1724 H 0.77896 0.09746 0.707 0.0
H1725 H 0.75014 0.07856 0.69745 0.0
H1726 H 0.7972 0.11632 0.74136 0.0
H1727 H 0.80806 0.11206 0.77167 0.0
C1728 C 0.03424 0.31646 0.04708 0.0
C1729 C 0.04673 0.33609 0.03037 0.0
C1730 C 0.08353 0.3425 0.04858 0.0
C1731 C 0.07099 0.32415 0.06708 0.0
N1732 N 0.03473 0.29531 0.08663 0.0
N1733 N 0.08276 0.36926 0.01665 0.0
C1734 C 0.04641 0.31149 0.067 0.0
C1735 C 0.07127 0.34954 0.03148 0.0
N1736 N 0.01076 0.3024 0.04363 0.0
N1737 N 0.10708 0.35278 0.04691 0.0
H1738 H 0.07431 0.37447 0.00324 0.0
H1739 H 0.10042 0.38121 0.01886 0.0
H1740 H 0.11665 0.34819 0.05929 0.0
H1741 H 0.117 0.3646 0.03193 0.0
H1742 H 0.00103 0.28651 0.05295 0.0
H1743 H 0.00112 0.30579 0.02977 0.0
H1744 H 0.01695 0.28731 0.08967 0.0
H1745 H 0.04305 0.29101 0.10138 0.0
C1746 C 0.63686 0.71456 0.04119 0.0
C1747 C 0.64255 0.6988 0.05162 0.0
C1748 C 0.66439 0.72474 0.08953 0.0
C1749 C 0.6579 0.7401 0.0798 0.0
N1750 N 0.63468 0.74816 0.04958 0.0
N1751 N 0.65717 0.68628 0.08852 0.0
C1752 C 0.64312 0.73456 0.05656 0.0
C1753 C 0.65498 0.70313 0.07666 0.0
N1754 N 0.62633 0.71086 0.01613 0.0
N1755 N 0.68018 0.73113 0.11048 0.0
H1756 H 0.65019 0.67011 0.07983 0.0
H1757 H 0.66393 0.68751 0.1081 0.0
H1758 H 0.68735 0.74675 0.12062 0.0
H1759 H 0.6876 0.72176 0.11644 0.0
H1760 H 0.62414 0.72295 0.00593 0.0
H1761 H 0.6211 0.69619 0.00458 0.0
H1762 H 0.62194 0.74383 0.03465 0.0
H1763 H 0.63906 0.76303 0.06025 0.0
C1764 C 0.26334 0.92794 0.05047 0.0
C1765 C 0.28201 0.94911 0.06027 0.0
C1766 C 0.25698 0.95002 0.09534 0.0
C1767 C 0.23952 0.92743 0.08807 0.0
N1768 N 0.22638 0.89377 0.06036 0.0
N1769 N 0.29776 0.9793 0.09407 0.0
C1770 C 0.24267 0.91612 0.0659 0.0
C1771 C 0.2791 0.96008 0.08306 0.0
N1772 N 0.26523 0.91942 0.02612 0.0
N1773 N 0.25232 0.96183 0.11393 0.0
H1774 H 0.31442 0.98708 0.08613 0.0
H1775 H 0.2972 0.98649 0.1125 0.0
H1776 H 0.23628 0.95482 0.12342 0.0
H1777 H 0.26352 0.97914 0.11805 0.0
H1778 H 0.25142 0.90523 0.01652 0.0
H1779 H 0.2801 0.9278 0.0142 0.0
H1780 H 0.22897 0.88382 0.04662 0.0
H1781 H 0.21082 0.8846 0.0709 0.0
C1782 C 0.3325 0.06995 0.0175 0.0
C1783 C 0.3227 0.04679 0.00976 0.0
C1784 C 0.29341 0.04901 0.98249 0.0
C1785 C 0.30729 0.07314 0.98384 0.0
N1786 N 0.32606 0.10133 0.01937 0.0
N1787 N 0.29184 0.01322 0.98681 0.0
C1788 C 0.32294 0.0824 0.00637 0.0
C1789 C 0.30252 0.03595 0.99283 0.0
N1790 N 0.35138 0.08035 0.03457 0.0
N1791 N 0.27035 0.03866 0.9764 0.0
H1792 H 0.29698 0.00259 0.99532 0.0
H1793 H 0.27857 0.00532 0.97223 0.0
H1794 H 0.26234 0.04811 0.97458 0.0
H1795 H 0.25886 0.02105 0.97746 0.0
H1796 H 0.36055 0.09786 0.03843 0.0
H1797 H 0.35882 0.07175 0.04328 0.0
H1798 H 0.33561 0.10769 0.03746 0.0
H1799 H 0.31647 0.1087 0.01379 0.0
C1800 C 0.94706 0.28472 0.9433 0.0
C1801 C 0.9506 0.28822 0.97192 0.0
C1802 C 0.93859 0.24812 0.97822 0.0
C1803 C 0.93195 0.24406 0.95025 0.0
N1804 N 0.92754 0.25777 0.9064 0.0
N1805 N 0.94901 0.27355 0.01721 0.0
C1806 C 0.93572 0.26219 0.93277 0.0
C1807 C 0.94643 0.27005 0.98958 0.0
N1808 N 0.95521 0.30305 0.9261 0.0
N1809 N 0.93756 0.23102 0.99371 0.0
H1810 H 0.95484 0.28944 0.02614 0.0
H1811 H 0.94396 0.26051 0.03142 0.0
H1812 H 0.93176 0.21478 0.98585 0.0
H1813 H 0.94416 0.23336 0.01355 0.0
H1814 H 0.95539 0.30172 0.90492 0.0
H1815 H 0.9639 0.31991 0.93301 0.0
H1816 H 0.92721 0.26986 0.89382 0.0
H1817 H 0.91948 0.24157 0.89756 0.0
C1818 C 0.73157 0.66003 0.9671 0.0
C1819 C 0.71873 0.67046 0.97296 0.0
C1820 C 0.75303 0.70777 0.96206 0.0
C1821 C 0.76425 0.69666 0.95225 0.0
N1822 N 0.76024 0.66116 0.9375 0.0
N1823 N 0.71605 0.70423 0.96922 0.0
C1824 C 0.75232 0.67245 0.95231 0.0
C1825 C 0.72909 0.69438 0.96865 0.0
N1826 N 0.72466 0.63869 0.97659 0.0
N1827 N 0.7652 0.7309 0.9657 0.0
H1828 H 0.69816 0.69499 0.97186 0.0
H1829 H 0.72263 0.72122 0.96383 0.0
H1830 H 0.78287 0.74117 0.96169 0.0
H1831 H 0.75821 0.73945 0.97521 0.0
H1832 H 0.73467 0.63134 0.97429 0.0
H1833 H 0.71072 0.62967 0.98973 0.0
H1834 H 0.75089 0.64342 0.93545 0.0
H1835 H 0.77451 0.66949 0.92467 0.0
C1836 C 0.96338 0.67951 0.94634 0.0
C1837 C 0.97072 0.68395 0.97408 0.0
C1838 C 0.95194 0.70597 0.97965 0.0
C1839 C 0.94356 0.7005 0.95234 0.0
N1840 N 0.93787 0.67921 0.91088 0.0
N1841 N 0.96996 0.69872 0.01838 0.0
C1842 C 0.94835 0.68648 0.93597 0.0
C1843 C 0.9643 0.69632 0.99116 0.0
N1844 N 0.97104 0.66887 0.92982 0.0
N1845 N 0.94873 0.72103 0.99419 0.0
H1846 H 0.97974 0.69261 0.02729 0.0
H1847 H 0.96371 0.70538 0.03256 0.0
H1848 H 0.9396 0.72827 0.98642 0.0
H1849 H 0.95645 0.72768 0.01313 0.0
H1850 H 0.96875 0.66766 0.90869 0.0
H1851 H 0.98097 0.66231 0.93701 0.0
H1852 H 0.93853 0.66695 0.89922 0.0
H1853 H 0.92692 0.68412 0.90242 0.0
C1854 C 0.31712 0.28379 0.95612 0.0
C1855 C 0.31791 0.28512 0.98511 0.0
C1856 C 0.30841 0.24551 0.98781 0.0
C1857 C 0.31029 0.24515 0.95902 0.0
N1858 N 0.32071 0.26539 0.91606 0.0
N1859 N 0.31873 0.26878 0.0286 0.0
C1860 C 0.31586 0.26471 0.94322 0.0
C1861 C 0.31471 0.26637 0.00102 0.0
N1862 N 0.31648 0.30018 0.94088 0.0
N1863 N 0.30005 0.2258 0.00248 0.0
H1864 H 0.32413 0.284 0.03899 0.0
H1865 H 0.31899 0.25643 0.04075 0.0
H1866 H 0.29509 0.21013 0.99347 0.0
H1867 H 0.29602 0.22455 0.02314 0.0
H1868 H 0.31346 0.29877 0.91985 0.0
H1869 H 0.31658 0.31408 0.94948 0.0
H1870 H 0.32733 0.28014 0.90429 0.0
H1871 H 0.32015 0.25184 0.90582 0.0
C1872 C 0.72658 0.04543 0.98326 0.0
C1873 C 0.7073 0.03879 0.96554 0.0
C1874 C 0.73312 0.0551 0.92637 0.0
C1875 C 0.75235 0.06116 0.9439 0.0
N1876 N 0.76739 0.05811 0.98749 0.0
N1877 N 0.69151 0.03171 0.91967 0.0
C1878 C 0.74905 0.055 0.9719 0.0
C1879 C 0.71036 0.04193 0.93689 0.0
N1880 N 0.7236 0.04366 0.01094 0.0
N1881 N 0.73659 0.06276 0.89997 0.0
H1882 H 0.67455 0.02151 0.92659 0.0
H1883 H 0.6928 0.03142 0.89851 0.0
H1884 H 0.75296 0.07223 0.89124 0.0
H1885 H 0.72336 0.0612 0.88729 0.0
H1886 H 0.73728 0.05051 0.025 0.0
H1887 H 0.70744 0.03681 0.02003 0.0
H1888 H 0.76575 0.05195 0.00732 0.0
H1889 H 0.78405 0.06516 0.97969 0.0
C1890 C 0.6812 0.95337 0.04646 0.0
C1891 C 0.66229 0.94182 0.02782 0.0
C1892 C 0.65719 0.90507 0.04109 0.0
C1893 C 0.67444 0.91643 0.06172 0.0
N1894 N 0.70144 0.95083 0.08623 0.0
N1895 N 0.63077 0.90686 0.00864 0.0
C1896 C 0.6861 0.94045 0.06499 0.0
C1897 C 0.64996 0.91771 0.02529 0.0
N1898 N 0.69495 0.97669 0.04575 0.0
N1899 N 0.64798 0.88228 0.03644 0.0
H1900 H 0.6252 0.91561 0.99648 0.0
H1901 H 0.61945 0.88922 0.0082 0.0
H1902 H 0.65241 0.87237 0.04813 0.0
H1903 H 0.63723 0.8735 0.01984 0.0
H1904 H 0.71041 0.986 0.05679 0.0
H1905 H 0.69205 0.98674 0.03222 0.0
H1906 H 0.70843 0.96785 0.09168 0.0
H1907 H 0.70604 0.94202 0.09973 0.0
C1908 C 0.07895 0.73402 0.04438 0.0
C1909 C 0.05814 0.71444 0.05334 0.0
C1910 C 0.05557 0.73656 0.09073 0.0
C1911 C 0.07767 0.75528 0.08373 0.0
N1912 N 0.11195 0.77141 0.05601 0.0
N1913 N 0.02898 0.69576 0.08814 0.0
C1914 C 0.0898 0.75396 0.06104 0.0
C1915 C 0.04697 0.71536 0.07727 0.0
N1916 N 0.08796 0.73373 0.01965 0.0
N1917 N 0.04269 0.73912 0.11007 0.0
H1918 H 0.02262 0.67967 0.0796 0.0
H1919 H 0.02189 0.69511 0.10714 0.0
H1920 H 0.04852 0.75444 0.12047 0.0
H1921 H 0.02544 0.72676 0.11394 0.0
H1922 H 0.10176 0.74819 0.0107 0.0
H1923 H 0.08037 0.71941 0.00693 0.0
H1924 H 0.12263 0.77036 0.04172 0.0
H1925 H 0.12033 0.78642 0.06753 0.0
C1926 C 0.26346 0.34814 0.03733 0.0
C1927 C 0.28047 0.34353 0.04674 0.0
C1928 C 0.25342 0.31691 0.08077 0.0
C1929 C 0.23792 0.32424 0.07415 0.0
N1930 N 0.22821 0.34765 0.04729 0.0
N1931 N 0.29284 0.32527 0.07923 0.0
C1932 C 0.2428 0.3399 0.05252 0.0
C1933 C 0.27569 0.3281 0.06869 0.0
N1934 N 0.26694 0.36006 0.01362 0.0
N1935 N 0.24677 0.29924 0.09864 0.0
H1936 H 0.30953 0.33329 0.07134 0.0
H1937 H 0.29114 0.3164 0.09722 0.0
H1938 H 0.23061 0.29087 0.10803 0.0
H1939 H 0.25632 0.29153 0.10223 0.0
H1940 H 0.25428 0.36213 0.0042 0.0
H1941 H 0.28185 0.36613 0.00195 0.0
H1942 H 0.23219 0.3611 0.03405 0.0
H1943 H 0.21261 0.34158 0.05751 0.0
C1944 C 0.73165 0.67788 0.36467 0.0
C1945 C 0.70776 0.66743 0.37071 0.0
C1946 C 0.7116 0.64542 0.40763 0.0
C1947 C 0.7351 0.65473 0.40046 0.0
N1948 N 0.76695 0.67717 0.37009 0.0
N1949 N 0.67378 0.63791 0.39377 0.0
C1950 C 0.74499 0.6702 0.37833 0.0
C1951 C 0.69737 0.65027 0.39107 0.0
N1952 N 0.74173 0.6957 0.34668 0.0
N1953 N 0.70303 0.63235 0.43064 0.0
H1954 H 0.66265 0.6406 0.38165 0.0
H1955 H 0.66503 0.62356 0.4062 0.0
H1956 H 0.71277 0.62799 0.44303 0.0
H1957 H 0.68686 0.62731 0.43869 0.0
H1958 H 0.75954 0.70571 0.34361 0.0
H1959 H 0.73241 0.70165 0.33618 0.0
H1960 H 0.77427 0.68644 0.3523 0.0
H1961 H 0.77737 0.67224 0.38001 0.0
C1962 C 0.32842 0.06206 0.36592 0.0
C1963 C 0.34141 0.05163 0.37138 0.0
C1964 C 0.36233 0.0788 0.40862 0.0
C1965 C 0.35018 0.08992 0.40224 0.0
N1966 N 0.32468 0.09496 0.37226 0.0
N1967 N 0.37375 0.0525 0.39391 0.0
C1968 C 0.33417 0.08243 0.38003 0.0
C1969 C 0.35925 0.06069 0.39162 0.0
N1970 N 0.30985 0.05188 0.34829 0.0
N1971 N 0.37635 0.08518 0.43132 0.0
H1972 H 0.37222 0.03945 0.38153 0.0
H1973 H 0.38855 0.05994 0.4063 0.0
H1974 H 0.37957 0.09883 0.44381 0.0
H1975 H 0.38353 0.07603 0.4389 0.0
H1976 H 0.29809 0.05718 0.34582 0.0
H1977 H 0.30503 0.03691 0.3376 0.0
H1978 H 0.31491 0.09185 0.35442 0.0
H1979 H 0.32807 0.10969 0.38253 0.0
C1980 C 0.92884 0.26617 0.37916 0.0
C1981 C 0.94747 0.28672 0.39028 0.0
C1982 C 0.92133 0.28784 0.42353 0.0
C1983 C 0.90384 0.26554 0.41531 0.0
N1984 N 0.89081 0.23257 0.38637 0.0
N1985 N 0.96233 0.31662 0.42438 0.0
C1986 C 0.90741 0.25454 0.39315 0.0
C1987 C 0.94391 0.29768 0.41256 0.0
N1988 N 0.93163 0.25799 0.35503 0.0
N1989 N 0.91627 0.29951 0.44186 0.0
H1990 H 0.97921 0.32442 0.41709 0.0
H1991 H 0.96125 0.32369 0.44265 0.0
H1992 H 0.89985 0.29259 0.45037 0.0
H1993 H 0.92758 0.31665 0.44673 0.0
H1994 H 0.91809 0.24428 0.34445 0.0
H1995 H 0.94714 0.26631 0.34425 0.0
H1996 H 0.89352 0.22268 0.37265 0.0
H1997 H 0.87469 0.22359 0.39578 0.0
C1998 C 0.01623 0.38604 0.28675 0.0
C1999 C 0.02895 0.39405 0.31166 0.0
C2000 C 0.03365 0.43155 0.30448 0.0
C2001 C 0.01881 0.42272 0.2812 0.0
N2002 N 0.99355 0.39096 0.25179 0.0
N2003 N 0.04784 0.42336 0.34607 0.0
C2004 C 0.00945 0.39979 0.27273 0.0
C2005 C 0.03728 0.41659 0.32098 0.0
N2006 N 0.01136 0.36562 0.27601 0.0
N2007 N 0.04465 0.45435 0.31042 0.0
H2008 H 0.05103 0.41294 0.35855 0.0
H2009 H 0.05194 0.43863 0.35541 0.0
H2010 H 0.04213 0.46574 0.29899 0.0
H2011 H 0.05758 0.46232 0.32532 0.0
H2012 H 0.00431 0.35996 0.25655 0.0
H2013 H 0.01635 0.35521 0.28549 0.0
H2014 H 0.98413 0.37368 0.2467 0.0
H2015 H 0.98836 0.40058 0.24075 0.0
C2016 C 0.62036 0.61644 0.29539 0.0
C2017 C 0.60785 0.61892 0.31684 0.0
C2018 C 0.57594 0.57936 0.31031 0.0
C2019 C 0.58872 0.57685 0.28934 0.0
N2020 N 0.625 0.59054 0.26661 0.0
N2021 N 0.57645 0.60175 0.34884 0.0
C2022 C 0.61165 0.5946 0.28356 0.0
C2023 C 0.58645 0.60001 0.32563 0.0
N2024 N 0.63963 0.63517 0.28488 0.0
N2025 N 0.55345 0.56241 0.31478 0.0
H2026 H 0.5839 0.61665 0.36056 0.0
H2027 H 0.56198 0.58795 0.35781 0.0
H2028 H 0.54542 0.5468 0.30449 0.0
H2029 H 0.54233 0.56429 0.32747 0.0
H2030 H 0.64776 0.63466 0.26721 0.0
H2031 H 0.6464 0.65173 0.29215 0.0
H2032 H 0.64264 0.60211 0.26378 0.0
H2033 H 0.61895 0.57469 0.25742 0.0
C2034 C 0.40044 0.98852 0.31913 0.0
C2035 C 0.38373 0.99376 0.31041 0.0
C2036 C 0.41036 0.01964 0.27556 0.0
C2037 C 0.4256 0.0119 0.28179 0.0
N2038 N 0.43469 0.98762 0.30782 0.0
N2039 N 0.37139 0.01239 0.27849 0.0
C2040 C 0.42064 0.9961 0.30329 0.0
C2041 C 0.38839 0.00905 0.28834 0.0
N2042 N 0.39715 0.97665 0.34285 0.0
N2043 N 0.41702 0.03723 0.25755 0.0
H2044 H 0.35498 0.00492 0.28709 0.0
H2045 H 0.37287 0.02114 0.26047 0.0
H2046 H 0.43293 0.04517 0.24761 0.0
H2047 H 0.40774 0.04525 0.25427 0.0
H2048 H 0.40972 0.97421 0.35179 0.0
H2049 H 0.38258 0.97104 0.35501 0.0
H2050 H 0.43053 0.97409 0.321 0.0
H2051 H 0.44986 0.993 0.29694 0.0
C2052 C 0.60537 0.98222 0.30247 0.0
C2053 C 0.62216 0.99852 0.32095 0.0
C2054 C 0.6099 0.02532 0.30886 0.0
C2055 C 0.59529 0.01015 0.288 0.0
N2056 N 0.58205 0.97575 0.26173 0.0
N2057 N 0.64363 0.03743 0.33774 0.0
C2058 C 0.59381 0.989 0.28391 0.0
C2059 C 0.62526 0.02057 0.32321 0.0
N2060 N 0.59989 0.96005 0.30328 0.0
N2061 N 0.60874 0.044 0.31541 0.0
H2062 H 0.6559 0.03508 0.34777 0.0
H2063 H 0.64805 0.0544 0.33756 0.0
H2064 H 0.59761 0.04801 0.30544 0.0
H2065 H 0.6172 0.05427 0.33237 0.0
H2066 H 0.58617 0.94695 0.29216 0.0
H2067 H 0.60751 0.95427 0.31715 0.0
H2068 H 0.58249 0.96137 0.25615 0.0
H2069 H 0.57361 0.98026 0.24741 0.0
C2070 C 0.01432 0.6064 0.33166 0.0
C2071 C 0.00291 0.61813 0.3245 0.0
C2072 C 0.98686 0.59478 0.28303 0.0
C2073 C -0.00054 0.58409 0.28931 0.0
N2074 N 0.02765 0.58152 0.3171 0.0
N2075 N 0.98019 0.62549 0.29246 0.0
C2076 C 0.01385 0.59036 0.31299 0.0
C2077 C 0.98979 0.61296 0.29984 0.0
N2078 N 0.0254 0.61046 0.35643 0.0
N2079 N 0.97145 0.58695 0.26155 0.0
H2080 H 0.98066 0.63797 0.30497 0.0
H2081 H 0.97289 0.62453 0.2733 0.0
H2082 H 0.96909 0.57389 0.24855 0.0
H2083 H 0.95978 0.59216 0.25761 0.0
H2084 H 0.03172 0.60065 0.3643 0.0
H2085 H 0.02706 0.62287 0.37005 0.0
H2086 H 0.0404 0.58719 0.33227 0.0
H2087 H 0.02759 0.56957 0.304 0.0
C2088 C 0.3833 0.3753 0.28444 0.0
C2089 C 0.38054 0.386 0.30763 0.0
C2090 C 0.4202 0.41859 0.3028 0.0
C2091 C 0.42316 0.40754 0.28019 0.0
N2092 N 0.40992 0.37357 0.25329 0.0
N2093 N 0.39752 0.41498 0.3426 0.0
C2094 C 0.40546 0.38523 0.27232 0.0
C2095 C 0.39939 0.4068 0.31798 0.0
N2096 N 0.36451 0.35652 0.27289 0.0
N2097 N 0.43684 0.44067 0.30902 0.0
H2098 H 0.38254 0.40659 0.35433 0.0
H2099 H 0.41141 0.42885 0.35257 0.0
H2100 H 0.45255 0.44975 0.29873 0.0
H2101 H 0.43448 0.45054 0.32315 0.0
H2102 H 0.36503 0.34965 0.25419 0.0
H2103 H 0.3478 0.34884 0.28067 0.0
H2104 H 0.3985 0.35638 0.2487 0.0
H2105 H 0.42598 0.38051 0.24387 0.0
C2106 C 0.35217 0.29513 0.3807 0.0
C2107 C 0.33421 0.28524 0.36066 0.0
C2108 C 0.32833 0.2475 0.36985 0.0
C2109 C 0.34423 0.257 0.39212 0.0
N2110 N 0.36993 0.28926 0.42064 0.0
N2111 N 0.30392 0.25211 0.33699 0.0
C2112 C 0.35588 0.28069 0.398 0.0
C2113 C 0.32207 0.26146 0.35523 0.0
N2114 N 0.36613 0.31839 0.38259 0.0
N2115 N 0.31946 0.22522 0.36257 0.0
H2116 H 0.29911 0.26189 0.32563 0.0
H2117 H 0.29265 0.2346 0.33435 0.0
H2118 H 0.3234 0.21444 0.37318 0.0
H2119 H 0.30967 0.21785 0.34488 0.0
H2120 H 0.38101 0.32665 0.39482 0.0
H2121 H 0.36412 0.32953 0.36998 0.0
H2122 H 0.37667 0.3058 0.4279 0.0
H2123 H 0.37364 0.27934 0.43339 0.0
C2124 C 0.71252 0.04999 0.40224 0.0
C2125 C 0.72481 0.04789 0.38025 0.0
C2126 C 0.7563 0.0877 0.38659 0.0
C2127 C 0.74345 0.09004 0.40764 0.0
N2128 N 0.70751 0.07535 0.43161 0.0
N2129 N 0.75589 0.06562 0.34781 0.0
C2130 C 0.72092 0.07178 0.41415 0.0
C2131 C 0.74599 0.06704 0.37131 0.0
N2132 N 0.69364 0.03099 0.41292 0.0
N2133 N 0.77863 0.10492 0.38187 0.0
H2134 H 0.74864 0.05078 0.33601 0.0
H2135 H 0.77006 0.07963 0.3387 0.0
H2136 H 0.78657 0.12051 0.3922 0.0
H2137 H 0.7898 0.10323 0.36906 0.0
H2138 H 0.68561 0.0312 0.43084 0.0
H2139 H 0.68716 0.01453 0.40545 0.0
H2140 H 0.69004 0.06339 0.43491 0.0
H2141 H 0.71325 0.09109 0.44093 0.0
C2142 C 0.92722 0.64386 0.37381 0.0
C2143 C 0.94598 0.65395 0.39279 0.0
C2144 C 0.9191 0.64103 0.431 0.0
C2145 C 0.9002 0.6314 0.4121 0.0
N2146 N 0.88573 0.61824 0.36655 0.0
N2147 N 0.96002 0.65586 0.43871 0.0
C2148 C 0.90414 0.63095 0.38377 0.0
C2149 C 0.94193 0.65036 0.42118 0.0
N2150 N 0.93139 0.64768 0.34647 0.0
N2151 N 0.9155 0.64273 0.45808 0.0
H2152 H 0.97695 0.66254 0.43198 0.0
H2153 H 0.95788 0.65164 0.45938 0.0
H2154 H 0.89911 0.63605 0.46638 0.0
H2155 H 0.92888 0.65222 0.47208 0.0
H2156 H 0.91841 0.64305 0.33179 0.0
H2157 H 0.94809 0.65668 0.3385 0.0
H2158 H 0.88744 0.61557 0.34601 0.0
H2159 H 0.86872 0.60861 0.37353 0.0
C2160 C 0.36991 0.9883 0.72601 0.0
C2161 C 0.38223 0.00673 0.70757 0.0
C2162 C 0.41887 0.01031 0.72159 0.0
C2163 C 0.40674 0.99322 0.74166 0.0
N2164 N 0.37147 0.96797 0.76579 0.0
N2165 N 0.41829 0.03697 0.6893 0.0
C2166 C 0.38245 0.98278 0.74468 0.0
C2167 C 0.4067 0.01818 0.70568 0.0
N2168 N 0.34618 0.97553 0.72496 0.0
N2169 N 0.44189 0.01863 0.71744 0.0
H2170 H 0.40982 0.04286 0.67698 0.0
H2171 H 0.43627 0.04764 0.68921 0.0
H2172 H 0.45147 0.01368 0.72923 0.0
H2173 H 0.45119 0.02924 0.70122 0.0
H2174 H 0.33627 0.96038 0.73574 0.0
H2175 H 0.33633 0.97893 0.71145 0.0
H2176 H 0.35432 0.96183 0.77099 0.0
H2177 H 0.37998 0.9631 0.77955 0.0
C2178 C 0.98866 0.37504 0.74507 0.0
C2179 C 0.97647 0.36861 0.71969 0.0
C2180 C 0.97457 0.40327 0.72006 0.0
C2181 C 0.98863 0.41067 0.74404 0.0
N2182 N 0.01217 0.40554 0.77722 0.0
N2183 N 0.96111 0.37817 0.68062 0.0
C2184 C 0.99659 0.3971 0.75594 0.0
C2185 C 0.97026 0.38312 0.70652 0.0
N2186 N 0.99179 0.35969 0.75936 0.0
N2187 N 0.96478 0.41512 0.71067 0.0
H2188 H 0.95787 0.36368 0.6699 0.0
H2189 H 0.95862 0.38936 0.66882 0.0
H2190 H 0.96766 0.43004 0.71993 0.0
H2191 H 0.9523 0.40918 0.69512 0.0
H2192 H -0.0017 0.36249 0.77928 0.0
H2193 H 0.98588 0.3432 0.75233 0.0
H2194 H 0.02053 0.3975 0.78483 0.0
H2195 H 0.01832 0.42161 0.78584 0.0
C2196 C 0.61762 0.61833 0.74621 0.0
C2197 C 0.62024 0.62149 0.71752 0.0
C2198 C 0.57906 0.60857 0.71246 0.0
C2199 C 0.57591 0.60246 0.74047 0.0
N2200 N 0.59151 0.59943 0.78384 0.0
N2201 N 0.60369 0.61866 0.67273 0.0
C2202 C 0.59504 0.60694 0.75739 0.0
C2203 C 0.60107 0.6166 0.70045 0.0
N2204 N 0.63679 0.62687 0.76286 0.0
N2205 N 0.56101 0.60683 0.69751 0.0
H2206 H 0.61958 0.62456 0.66328 0.0
H2207 H 0.58993 0.61306 0.65894 0.0
H2208 H 0.54471 0.60091 0.70586 0.0
H2209 H 0.56262 0.61297 0.67768 0.0
H2210 H 0.63609 0.62728 0.78408 0.0
H2211 H 0.65369 0.63555 0.75548 0.0
H2212 H 0.60429 0.59959 0.79607 0.0
H2213 H 0.57535 0.59156 0.79315 0.0
C2214 C 0.66647 0.73625 0.67007 0.0
C2215 C 0.66936 0.71976 0.6564 0.0
C2216 C 0.66728 0.73559 0.61218 0.0
C2217 C 0.66146 0.75005 0.62577 0.0
N2218 N 0.65239 0.76217 0.66747 0.0
N2219 N 0.66821 0.70093 0.61422 0.0
C2220 C 0.66027 0.74992 0.65471 0.0
C2221 C 0.66878 0.71874 0.62737 0.0
N2222 N 0.67029 0.73928 0.69764 0.0
N2223 N 0.67176 0.7382 0.5848 0.0
H2224 H 0.66847 0.68771 0.62439 0.0
H2225 H 0.66518 0.69804 0.59329 0.0
H2226 H 0.67082 0.75036 0.57296 0.0
H2227 H 0.6785 0.7298 0.57439 0.0
H2228 H 0.67076 0.75258 0.70834 0.0
H2229 H 0.67523 0.72982 0.70946 0.0
H2230 H 0.64869 0.76074 0.68824 0.0
H2231 H 0.64766 0.77237 0.65695 0.0
C2232 C 0.28046 0.9577 0.61923 0.0
C2233 C 0.28368 0.95997 0.64801 0.0
C2234 C 0.27043 0.91934 0.65177 0.0
C2235 C 0.26441 0.91661 0.62359 0.0
N2236 N 0.26145 0.93245 0.58068 0.0
N2237 N 0.2809 0.94325 0.69226 0.0
C2238 C 0.26894 0.93561 0.60731 0.0
C2239 C 0.27867 0.94091 0.66448 0.0
N2240 N 0.28916 0.97676 0.60318 0.0
N2241 N 0.26847 0.90134 0.6662 0.0
H2242 H 0.28706 0.95884 0.70215 0.0
H2243 H 0.27526 0.9296 0.70569 0.0
H2244 H 0.2623 0.88532 0.65742 0.0
H2245 H 0.27461 0.90265 0.68612 0.0
H2246 H 0.28965 0.97633 0.58194 0.0
H2247 H 0.29793 0.99331 0.61108 0.0
H2248 H 0.26162 0.94516 0.56885 0.0
H2249 H 0.2535 0.91664 0.57083 0.0
C2250 C 0.06118 0.3203 0.65835 0.0
C2251 C 0.04496 0.32533 0.64712 0.0
C2252 C 0.07377 0.35123 0.61403 0.0
C2253 C 0.08859 0.34355 0.62262 0.0
N2254 N 0.09633 0.3198 0.6517 0.0
N2255 N 0.03469 0.34399 0.61279 0.0
C2256 C 0.08241 0.32799 0.64467 0.0
C2257 C 0.05103 0.34064 0.62479 0.0
N2258 N 0.05636 0.30847 0.68236 0.0
N2259 N 0.08151 0.36871 0.59563 0.0
H2260 H 0.01781 0.33658 0.61997 0.0
H2261 H 0.03727 0.35275 0.59449 0.0
H2262 H 0.09804 0.37666 0.58719 0.0
H2263 H 0.07245 0.37666 0.59056 0.0
H2264 H 0.06835 0.30614 0.69306 0.0
H2265 H 0.04097 0.30275 0.69294 0.0
H2266 H 0.09146 0.3064 0.66533 0.0
H2267 H 0.11228 0.32542 0.64256 0.0
C2268 C 0.29519 0.34298 0.63907 0.0
C2269 C 0.28447 0.32596 0.65955 0.0
C2270 C 0.24691 0.32172 0.64902 0.0
C2271 C 0.25732 0.33739 0.62712 0.0
N2272 N 0.29039 0.36071 0.59866 0.0
N2273 N 0.25014 0.29731 0.68256 0.0
C2274 C 0.2812 0.34737 0.62137 0.0
C2275 C 0.26031 0.31485 0.66421 0.0
N2276 N 0.31886 0.35561 0.63727 0.0
N2277 N 0.22434 0.31379 0.65554 0.0
H2278 H 0.25957 0.29217 0.69432 0.0
H2279 H 0.23228 0.28682 0.68489 0.0
H2280 H 0.21384 0.31793 0.64434 0.0
H2281 H 0.2164 0.30432 0.67302 0.0
H2282 H 0.32783 0.36996 0.62489 0.0
H2283 H 0.3298 0.35302 0.64989 0.0
H2284 H 0.30695 0.36626 0.59154 0.0
H2285 H 0.28087 0.3649 0.58562 0.0
C2286 C 0.64758 0.93277 0.66737 0.0
C2287 C 0.65319 0.95348 0.65426 0.0
C2288 C 0.65673 0.93844 0.61048 0.0
C2289 C 0.64908 0.91707 0.6231 0.0
N2290 N 0.63367 0.89249 0.66243 0.0
N2291 N 0.65852 0.97449 0.61247 0.0
C2292 C 0.64349 0.91382 0.65127 0.0
C2293 C 0.65658 0.95595 0.62556 0.0
N2294 N 0.64704 0.9315 0.69527 0.0
N2295 N 0.66468 0.94219 0.58426 0.0
H2296 H 0.65784 0.98745 0.62257 0.0
H2297 H 0.65852 0.97598 0.59128 0.0
H2298 H 0.6649 0.92971 0.57245 0.0
H2299 H 0.6729 0.95821 0.57503 0.0
H2300 H 0.64553 0.91771 0.70611 0.0
H2301 H 0.65016 0.9451 0.70777 0.0
H2302 H 0.62687 0.88854 0.68204 0.0
H2303 H 0.63056 0.87822 0.6513 0.0
C2304 C 0.06468 0.74414 0.65529 0.0
C2305 C 0.04589 0.72337 0.6448 0.0
C2306 C 0.07158 0.72152 0.61146 0.0
C2307 C 0.08941 0.74375 0.61945 0.0
N2308 N 0.10272 0.77745 0.64714 0.0
N2309 N 0.03042 0.6934 0.61071 0.0
C2310 C 0.086 0.75536 0.64104 0.0
C2311 C 0.04908 0.71217 0.62248 0.0
N2312 N 0.06227 0.75283 0.67922 0.0
N2313 N 0.07626 0.70934 0.59345 0.0
H2314 H 0.01352 0.6861 0.61777 0.0
H2315 H 0.03132 0.68615 0.5925 0.0
H2316 H 0.09256 0.71583 0.58482 0.0
H2317 H 0.06467 0.69217 0.58897 0.0
H2318 H 0.07601 0.76668 0.6894 0.0
H2319 H 0.0469 0.74487 0.69029 0.0
H2320 H 0.10015 0.78769 0.66042 0.0
H2321 H 0.11873 0.78619 0.63744 0.0
C2322 C 0.97518 0.5952 0.69057 0.0
C2323 C 0.98954 0.61906 0.6951 0.0
C2324 C 0.00986 0.61258 0.73245 0.0
C2325 C 0.99632 0.5888 0.72706 0.0
N2326 N 0.96857 0.55737 0.69887 0.0
N2327 N 0.0235 0.65087 0.71612 0.0
C2328 C 0.97972 0.58006 0.70543 0.0
C2329 C 0.00773 0.62788 0.71487 0.0
N2330 N 0.95671 0.58701 0.6729 0.0
N2331 N 0.02435 0.62049 0.75478 0.0
H2332 H 0.02273 0.66262 0.70328 0.0
H2333 H 0.03855 0.65816 0.72807 0.0
H2334 H 0.02686 0.60988 0.76778 0.0
H2335 H 0.03258 0.63731 0.76166 0.0
H2336 H 0.94403 0.56977 0.67092 0.0
H2337 H 0.95312 0.59764 0.66139 0.0
H2338 H 0.95815 0.55033 0.68154 0.0
H2339 H 0.97103 0.54573 0.70981 0.0
C2340 C 0.38569 0.39796 0.69949 0.0
C2341 C 0.38181 0.3792 0.71583 0.0
C2342 C 0.39474 0.40323 0.7568 0.0
C2343 C 0.39855 0.42201 0.74056 0.0
N2344 N 0.39332 0.43667 0.69813 0.0
N2345 N 0.37619 0.36218 0.76052 0.0
C2346 C 0.39254 0.41914 0.71238 0.0
C2347 C 0.38434 0.38129 0.74467 0.0
N2348 N 0.38386 0.39581 0.67167 0.0
N2349 N 0.40205 0.40652 0.78349 0.0
H2350 H 0.36808 0.3457 0.7524 0.0
H2351 H 0.37536 0.3624 0.78174 0.0
H2352 H 0.4093 0.42222 0.79346 0.0
H2353 H 0.40242 0.39407 0.79529 0.0
H2354 H 0.38884 0.40945 0.6584 0.0
H2355 H 0.3787 0.38049 0.66162 0.0
H2356 H 0.38719 0.43514 0.67816 0.0
H2357 H 0.39834 0.45235 0.70717 0.0
C2358 C 0.5982 0.99072 0.71824 0.0
C2359 C 0.61684 0.01227 0.72743 0.0
C2360 C 0.59073 0.01418 0.75975 0.0
C2361 C 0.57352 0.99107 0.75413 0.0
N2362 N 0.56361 0.95567 0.73183 0.0
N2363 N 0.63183 0.04076 0.76354 0.0
C2364 C 0.57801 0.97877 0.73448 0.0
C2365 C 0.61345 0.02299 0.75011 0.0
N2366 N 0.59908 0.98212 0.69352 0.0
N2367 N 0.58538 0.02806 0.77345 0.0
H2368 H 0.64905 0.04642 0.75916 0.0
H2369 H 0.62987 0.04777 0.78141 0.0
H2370 H 0.56852 0.02282 0.77919 0.0
H2371 H 0.59722 0.04551 0.77605 0.0
H2372 H 0.58503 0.96726 0.68525 0.0
H2373 H 0.6126 0.9912 0.67986 0.0
H2374 H 0.56743 0.94587 0.71929 0.0
H2375 H 0.54929 0.94606 0.74428 0.0
loop_
_geom_bond_atom_site_label_1
_geom_bond_atom_site_label_2
_geom_bond_distance
_geom_bond_site_symmetry_2
_ccdc_geom_bond_type
Zn0 O3 2.031 1_554 S
Zn0 O5 2.049 . S
Zn0 O10 2.067 1_554 S
Zn1 O2 1.962 1_455 S
Zn1 O4 1.986 . S
Zn1 O6 1.996 1_455 S
Zn1 O9 1.943 1_554 S
O2 Zn1 1.962 1_655 S
O2 C7 1.254 1_554 S
O3 Zn0 2.031 1_556 S
O3 C7 1.269 . S
O4 Zn1 1.986 . S
O4 C11 1.262 . S
O5 Zn0 2.049 . S
O5 C13 1.260 . S
O6 Zn1 1.996 1_655 S
O6 C13 1.257 . S
C7 O2 1.254 1_556 S
C7 O3 1.269 . S
C8 O9 1.249 . S
C8 O10 1.270 1_455 S
O9 Zn1 1.943 1_556 S
O9 C8 1.249 . S
O10 Zn0 2.067 1_556 S
O10 C8 1.270 1_655 S
C11 O4 1.262 . S
C11 O12 1.232 . S
O12 C11 1.232 . S
C13 O5 1.260 . S
C13 O6 1.257 . S
Zn14 O17 2.031 1_554 S
Zn14 O19 2.049 . S
Zn14 O24 2.067 1_554 S
Zn15 O16 1.962 . S
Zn15 O18 1.986 . S
Zn15 O20 1.996 . S
Zn15 O23 1.943 1_554 S
O16 Zn15 1.962 . S
O16 C21 1.254 1_554 S
O17 Zn14 2.031 1_556 S
O17 C21 1.269 . S
O18 Zn15 1.986 . S
O18 C25 1.262 . S
O19 Zn14 2.049 . S
O19 C27 1.260 . S
O20 Zn15 1.996 . S
O20 C27 1.257 . S
C21 O16 1.254 1_556 S
C21 O17 1.269 . S
C22 O23 1.249 . S
C22 O24 1.270 . S
O23 Zn15 1.943 1_556 S
O23 C22 1.249 . S
O24 Zn14 2.067 1_556 S
O24 C22 1.270 . S
C25 O18 1.262 . S
C25 O26 1.232 . S
O26 C25 1.232 . S
C27 O19 1.260 . S
C27 O20 1.257 . S
Zn28 O31 2.031 . S
Zn28 O33 2.049 1_554 S
Zn28 O38 2.067 . S
Zn29 O30 1.962 1_545 S
Zn29 O32 1.986 1_554 S
Zn29 O34 1.996 1_544 S
Zn29 O37 1.943 . S
O30 Zn29 1.962 1_565 S
O30 C35 1.254 . S
O31 Zn28 2.031 . S
O31 C35 1.269 . S
O32 Zn29 1.986 1_556 S
O32 C39 1.262 . S
O33 Zn28 2.049 1_556 S
O33 C41 1.260 . S
O34 Zn29 1.996 1_566 S
O34 C41 1.257 . S
C35 O30 1.254 . S
C35 O31 1.269 . S
C36 O37 1.249 . S
C36 O38 1.270 1_545 S
O37 Zn29 1.943 . S
O37 C36 1.249 . S
O38 Zn28 2.067 . S
O38 C36 1.270 1_565 S
C39 O32 1.262 . S
C39 O40 1.232 1_556 S
O40 C39 1.232 1_554 S
C41 O33 1.260 . S
C41 O34 1.257 . S
Zn42 O45 2.031 . S
Zn42 O47 2.049 1_554 S
Zn42 O52 2.067 . S
Zn43 O44 1.962 1_655 S
Zn43 O46 1.986 1_554 S
Zn43 O48 1.996 1_654 S
Zn43 O51 1.943 . S
O44 Zn43 1.962 1_455 S
O44 C49 1.254 . S
O45 Zn42 2.031 . S
O45 C49 1.269 . S
O46 Zn43 1.986 1_556 S
O46 C53 1.262 . S
O47 Zn42 2.049 1_556 S
O47 C55 1.260 . S
O48 Zn43 1.996 1_456 S
O48 C55 1.257 . S
C49 O44 1.254 . S
C49 O45 1.269 . S
C50 O51 1.249 . S
C50 O52 1.270 1_655 S
O51 Zn43 1.943 . S
O51 C50 1.249 . S
O52 Zn42 2.067 . S
O52 C50 1.270 1_455 S
C53 O46 1.262 . S
C53 O54 1.232 1_556 S
O54 C53 1.232 1_554 S
C55 O47 1.260 . S
C55 O48 1.257 . S
Zn56 O59 2.031 . S
Zn56 O61 2.049 1_554 S
Zn56 O66 2.067 . S
Zn57 O58 1.962 . S
Zn57 O60 1.986 1_554 S
Zn57 O62 1.996 1_554 S
Zn57 O65 1.943 . S
O58 Zn57 1.962 . S
O58 C63 1.254 . S
O59 Zn56 2.031 . S
O59 C63 1.269 . S
O60 Zn57 1.986 1_556 S
O60 C67 1.262 . S
O61 Zn56 2.049 1_556 S
O61 C69 1.260 . S
O62 Zn57 1.996 1_556 S
O62 C69 1.257 . S
C63 O58 1.254 . S
C63 O59 1.269 . S
C64 O65 1.249 . S
C64 O66 1.270 . S
O65 Zn57 1.943 . S
O65 C64 1.249 . S
O66 Zn56 2.067 . S
O66 C64 1.270 . S
C67 O60 1.262 . S
C67 O68 1.232 1_556 S
O68 C67 1.232 1_554 S
C69 O61 1.260 . S
C69 O62 1.257 . S
Zn70 O73 2.031 1_554 S
Zn70 O75 2.049 . S
Zn70 O80 2.067 1_554 S
Zn71 O72 1.962 1_565 S
Zn71 O74 1.986 . S
Zn71 O76 1.996 1_565 S
Zn71 O79 1.943 1_554 S
O72 Zn71 1.962 1_545 S
O72 C77 1.254 1_554 S
O73 Zn70 2.031 1_556 S
O73 C77 1.269 . S
O74 Zn71 1.986 . S
O74 C81 1.262 . S
O75 Zn70 2.049 . S
O75 C83 1.260 . S
O76 Zn71 1.996 1_545 S
O76 C83 1.257 . S
C77 O72 1.254 1_556 S
C77 O73 1.269 . S
C78 O79 1.249 . S
C78 O80 1.270 1_565 S
O79 Zn71 1.943 1_556 S
O79 C78 1.249 . S
O80 Zn70 2.067 1_556 S
O80 C78 1.270 1_545 S
C81 O74 1.262 . S
C81 O82 1.232 . S
O82 C81 1.232 . S
C83 O75 1.260 . S
C83 O76 1.257 . S
Zn84 O87 2.031 . S
Zn84 O89 2.049 . S
Zn84 O94 2.067 . S
Zn85 O86 1.962 . S
Zn85 O88 1.986 . S
Zn85 O90 1.996 . S
Zn85 O93 1.943 . S
O86 Zn85 1.962 . S
O86 C91 1.254 . S
O87 Zn84 2.031 . S
O87 C91 1.269 . S
O88 Zn85 1.986 . S
O88 C95 1.262 . S
O89 Zn84 2.049 . S
O89 C97 1.260 . S
O90 Zn85 1.996 . S
O90 C97 1.257 . S
C91 O86 1.254 . S
C91 O87 1.269 . S
C92 O93 1.249 . S
C92 O94 1.270 . S
O93 Zn85 1.943 . S
O93 C92 1.249 . S
O94 Zn84 2.067 . S
O94 C92 1.270 . S
C95 O88 1.262 . S
C95 O96 1.232 . S
O96 C95 1.232 . S
C97 O89 1.260 . S
C97 O90 1.257 . S
Zn98 O101 2.031 . S
Zn98 O103 2.049 . S
Zn98 O108 2.067 . S
Zn99 O100 1.962 . S
Zn99 O102 1.986 1_565 S
Zn99 O104 1.996 . S
Zn99 O107 1.943 . S
O100 Zn99 1.962 . S
O100 C105 1.254 . S
O101 Zn98 2.031 . S
O101 C105 1.269 . S
O102 Zn99 1.986 1_545 S
O102 C109 1.262 . S
O103 Zn98 2.049 . S
O103 C111 1.260 . S
O104 Zn99 1.996 . S
O104 C111 1.257 . S
C105 O100 1.254 . S
C105 O101 1.269 . S
C106 O107 1.249 . S
C106 O108 1.270 . S
O107 Zn99 1.943 . S
O107 C106 1.249 . S
O108 Zn98 2.067 . S
O108 C106 1.270 . S
C109 O102 1.262 . S
C109 O110 1.232 . S
O110 C109 1.232 . S
C111 O103 1.260 . S
C111 O104 1.257 . S
Zn112 O115 2.016 1_455 S
Zn112 O117 2.049 . S
Zn112 O122 2.067 . S
Zn113 O114 1.962 1_455 S
Zn113 O116 1.986 . S
Zn113 O118 1.996 . S
Zn113 O121 1.943 . S
O114 Zn113 1.962 1_655 S
O114 C119 1.254 . S
O115 Zn112 2.016 1_655 S
O115 C119 1.286 . S
O116 Zn113 1.986 . S
O116 C123 1.262 . S
O117 Zn112 2.049 . S
O117 C125 1.260 . S
O118 Zn113 1.996 . S
O118 C125 1.257 . S
C119 O114 1.254 . S
C119 O115 1.286 . S
C120 O121 1.249 . S
C120 O122 1.270 . S
O121 Zn113 1.943 . S
O121 C120 1.249 . S
O122 Zn112 2.067 . S
O122 C120 1.270 . S
C123 O116 1.262 . S
C123 O124 1.232 . S
O124 C123 1.232 . S
C125 O117 1.260 . S
C125 O118 1.257 . S
Zn126 O129 2.031 1_565 S
Zn126 O131 2.049 . S
Zn126 O136 2.067 . S
Zn127 O128 1.962 1_565 S
Zn127 O130 1.986 . S
Zn127 O132 1.996 . S
Zn127 O135 1.943 . S
O128 Zn127 1.962 1_545 S
O128 C133 1.254 . S
O129 Zn126 2.031 1_545 S
O129 C133 1.269 . S
O130 Zn127 1.986 . S
O130 C137 1.262 . S
O131 Zn126 2.049 . S
O131 C139 1.260 . S
O132 Zn127 1.996 . S
O132 C139 1.257 . S
C133 O128 1.254 . S
C133 O129 1.269 . S
C134 O135 1.249 . S
C134 O136 1.270 . S
O135 Zn127 1.943 . S
O135 C134 1.249 . S
O136 Zn126 2.067 . S
O136 C134 1.270 . S
C137 O130 1.262 . S
C137 O138 1.232 . S
O138 C137 1.232 . S
C139 O131 1.260 . S
C139 O132 1.257 . S
Zn140 O143 2.031 1_455 S
Zn140 O145 2.049 . S
Zn140 O150 2.067 . S
Zn141 O142 1.962 1_455 S
Zn141 O144 1.986 . S
Zn141 O146 1.996 . S
Zn141 O149 1.943 . S
O142 Zn141 1.962 1_655 S
O142 C147 1.254 . S
O143 Zn140 2.031 1_655 S
O143 C147 1.269 . S
O144 Zn141 1.986 . S
O144 C151 1.262 . S
O145 Zn140 2.049 . S
O145 C153 1.260 . S
O146 Zn141 1.996 . S
O146 C153 1.257 . S
C147 O142 1.254 . S
C147 O143 1.269 . S
C148 O149 1.249 . S
C148 O150 1.270 . S
O149 Zn141 1.943 . S
O149 C148 1.249 . S
O150 Zn140 2.067 . S
O150 C148 1.270 . S
C151 O144 1.262 . S
C151 O152 1.232 . S
O152 C151 1.232 . S
C153 O145 1.260 . S
C153 O146 1.257 . S
Zn154 O157 2.031 . S
Zn154 O159 2.049 . S
Zn154 O164 2.067 . S
Zn155 O156 1.962 . S
Zn155 O158 1.986 . S
Zn155 O160 1.996 . S
Zn155 O163 1.943 . S
O156 Zn155 1.962 . S
O156 C161 1.254 . S
O157 Zn154 2.031 . S
O157 C161 1.269 . S
O158 Zn155 1.986 . S
O158 C165 1.262 . S
O159 Zn154 2.049 . S
O159 C167 1.260 . S
O160 Zn155 1.996 . S
O160 C167 1.257 . S
C161 O156 1.254 . S
C161 O157 1.269 . S
C162 O163 1.249 . S
C162 O164 1.270 . S
O163 Zn155 1.943 . S
O163 C162 1.249 . S
O164 Zn154 2.067 . S
O164 C162 1.270 . S
C165 O158 1.262 . S
C165 O166 1.232 . S
O166 C165 1.232 . S
C167 O159 1.260 . S
C167 O160 1.257 . S
Zn168 O171 2.031 . S
Zn168 O173 2.049 . S
Zn168 O178 2.067 . S
Zn169 O170 1.962 1_545 S
Zn169 O172 1.986 . S
Zn169 O174 1.996 . S
Zn169 O177 1.943 . S
O170 Zn169 1.962 1_565 S
O170 C175 1.254 . S
O171 Zn168 2.031 . S
O171 C175 1.269 1_545 S
O172 Zn169 1.986 . S
O172 C179 1.262 . S
O173 Zn168 2.049 . S
O173 C181 1.260 . S
O174 Zn169 1.996 . S
O174 C181 1.257 . S
C175 O170 1.254 . S
C175 O171 1.269 1_565 S
C176 O177 1.249 . S
C176 O178 1.270 . S
O177 Zn169 1.943 . S
O177 C176 1.249 . S
O178 Zn168 2.067 . S
O178 C176 1.270 . S
C179 O172 1.262 . S
C179 O180 1.232 . S
O180 C179 1.232 . S
C181 O173 1.260 . S
C181 O174 1.257 . S
Zn182 O185 2.031 1_655 S
Zn182 O187 2.049 . S
Zn182 O192 2.067 . S
Zn183 O184 1.962 1_655 S
Zn183 O186 1.986 . S
Zn183 O188 1.996 . S
Zn183 O191 1.943 . S
O184 Zn183 1.962 1_455 S
O184 C189 1.254 . S
O185 Zn182 2.031 1_455 S
O185 C189 1.269 . S
O186 Zn183 1.986 . S
O186 C193 1.262 . S
O187 Zn182 2.049 . S
O187 C195 1.260 . S
O188 Zn183 1.996 . S
O188 C195 1.257 . S
C189 O184 1.254 . S
C189 O185 1.269 . S
C190 O191 1.249 . S
C190 O192 1.270 . S
O191 Zn183 1.943 . S
O191 C190 1.249 . S
O192 Zn182 2.067 . S
O192 C190 1.270 . S
C193 O186 1.262 . S
C193 O194 1.232 . S
O194 C193 1.232 . S
C195 O187 1.260 . S
C195 O188 1.257 . S
Zn196 O199 2.031 . S
Zn196 O201 2.049 . S
Zn196 O206 2.067 . S
Zn197 O198 1.962 . S
Zn197 O200 1.986 . S
Zn197 O202 1.996 . S
Zn197 O205 1.943 . S
O198 Zn197 1.962 . S
O198 C203 1.254 . S
O199 Zn196 2.031 . S
O199 C203 1.269 . S
O200 Zn197 1.986 . S
O200 C207 1.262 . S
O201 Zn196 2.049 . S
O201 C209 1.260 . S
O202 Zn197 1.996 . S
O202 C209 1.257 . S
C203 O198 1.254 . S
C203 O199 1.269 . S
C204 O205 1.249 . S
C204 O206 1.270 . S
O205 Zn197 1.943 . S
O205 C204 1.249 . S
O206 Zn196 2.067 . S
O206 C204 1.270 . S
C207 O200 1.262 . S
C207 O208 1.232 . S
O208 C207 1.232 . S
C209 O201 1.260 . S
C209 O202 1.257 . S
Zn210 O213 2.031 . S
Zn210 O215 2.049 . S
Zn210 O220 2.067 . S
Zn211 O212 1.962 . S
Zn211 O214 1.986 . S
Zn211 O216 1.996 . S
Zn211 O219 1.943 . S
O212 Zn211 1.962 . S
O212 C217 1.254 . S
O213 Zn210 2.031 . S
O213 C217 1.269 . S
O214 Zn211 1.986 . S
O214 C221 1.262 . S
O215 Zn210 2.049 . S
O215 C223 1.260 . S
O216 Zn211 1.996 . S
O216 C223 1.257 . S
C217 O212 1.254 . S
C217 O213 1.269 . S
C218 O219 1.249 . S
C218 O220 1.270 . S
O219 Zn211 1.943 . S
O219 C218 1.249 . S
O220 Zn210 2.067 . S
O220 C218 1.270 . S
C221 O214 1.262 . S
C221 O222 1.232 . S
O222 C221 1.232 . S
C223 O215 1.260 . S
C223 O216 1.257 . S
Zn224 O227 2.031 . S
Zn224 O229 2.049 . S
Zn224 O234 2.067 . S
Zn225 O226 1.962 . S
Zn225 O228 1.986 1_545 S
Zn225 O230 1.996 . S
Zn225 O233 1.943 . S
O226 Zn225 1.962 . S
O226 C231 1.254 . S
O227 Zn224 2.031 . S
O227 C231 1.269 . S
O228 Zn225 1.986 1_565 S
O228 C235 1.262 . S
O229 Zn224 2.049 . S
O229 C237 1.260 . S
O230 Zn225 1.996 . S
O230 C237 1.257 . S
C231 O226 1.254 . S
C231 O227 1.269 . S
C232 O233 1.249 . S
C232 O234 1.270 . S
O233 Zn225 1.943 . S
O233 C232 1.249 . S
O234 Zn224 2.067 . S
O234 C232 1.270 . S
C235 O228 1.262 . S
C235 O236 1.232 . S
O236 C235 1.232 . S
C237 O229 1.260 . S
C237 O230 1.257 . S
Zn238 O241 2.031 1_655 S
Zn238 O243 2.049 . S
Zn238 O248 2.067 . S
Zn239 O240 1.962 1_655 S
Zn239 O242 1.986 . S
Zn239 O244 1.996 . S
Zn239 O247 1.943 . S
O240 Zn239 1.962 1_455 S
O240 C245 1.254 . S
O241 Zn238 2.031 1_455 S
O241 C245 1.269 . S
O242 Zn239 1.986 . S
O242 C249 1.262 . S
O243 Zn238 2.049 . S
O243 C251 1.260 . S
O244 Zn239 1.996 . S
O244 C251 1.257 . S
C245 O240 1.254 . S
C245 O241 1.269 . S
C246 O247 1.249 . S
C246 O248 1.270 . S
O247 Zn239 1.943 . S
O247 C246 1.249 . S
O248 Zn238 2.067 . S
O248 C246 1.270 . S
C249 O242 1.262 . S
C249 O250 1.232 . S
O250 C249 1.232 . S
C251 O243 1.260 . S
C251 O244 1.257 . S
C252 C253 1.384 . S
C252 C254 1.384 . S
C252 H280 0.931 . S
C253 C252 1.384 . S
C253 C256 1.382 . S
C254 C252 1.384 . S
C254 C255 1.381 . S
C254 H281 0.930 . S
C255 C254 1.381 . S
C255 C257 1.381 . S
C255 C258 1.487 . S
C256 C253 1.382 . S
C256 C257 1.387 . S
C256 H282 0.930 . S
C257 C255 1.381 . S
C257 C256 1.387 . S
C257 H283 0.931 . S
C258 C255 1.487 . S
C258 C265 1.399 . S
C258 N296 1.343 . S
C259 C260 1.384 . S
C259 C261 1.384 . S
C259 H284 0.931 . S
C260 C259 1.384 . S
C260 C263 1.382 . S
C261 C259 1.384 . S
C261 C262 1.381 . S
C261 H285 0.930 . S
C262 C261 1.381 . S
C262 C264 1.381 . S
C262 C265 1.487 . S
C263 C260 1.382 . S
C263 C264 1.387 . S
C263 H286 0.930 . S
C264 C262 1.381 . S
C264 C263 1.387 . S
C264 H287 0.931 . S
C265 C258 1.399 . S
C265 C262 1.487 . S
C265 N297 1.343 . S
C266 C267 1.384 . S
C266 C268 1.384 . S
C266 H288 0.931 . S
C267 C266 1.384 . S
C267 C270 1.382 . S
C268 C266 1.384 . S
C268 C269 1.381 . S
C268 H289 0.930 . S
C269 C268 1.381 . S
C269 C271 1.381 . S
C269 C272 1.487 . S
C270 C267 1.382 . S
C270 C271 1.387 . S
C270 H290 0.930 . S
C271 C269 1.381 . S
C271 C270 1.387 . S
C271 H291 0.931 . S
C272 C269 1.487 . S
C272 C279 1.399 . S
C272 N297 1.343 . S
C273 C274 1.384 . S
C273 C275 1.384 . S
C273 H292 0.931 . S
C274 C273 1.384 . S
C274 C277 1.382 . S
C275 C273 1.384 . S
C275 C276 1.381 . S
C275 H293 0.930 . S
C276 C275 1.381 . S
C276 C278 1.381 . S
C276 C279 1.487 . S
C277 C274 1.382 . S
C277 C278 1.387 . S
C277 H294 0.930 . S
C278 C276 1.381 . S
C278 C277 1.387 . S
C278 H295 0.931 . S
C279 C272 1.399 . S
C279 C276 1.487 . S
C279 N296 1.343 . S
H280 C252 0.931 . S
H281 C254 0.930 . S
H282 C256 0.930 . S
H283 C257 0.931 . S
H284 C259 0.931 . S
H285 C261 0.930 . S
H286 C263 0.930 . S
H287 C264 0.931 . S
H288 C266 0.931 . S
H289 C268 0.930 . S
H290 C270 0.930 . S
H291 C271 0.931 . S
H292 C273 0.931 . S
H293 C275 0.930 . S
H294 C277 0.930 . S
H295 C278 0.931 . S
N296 C258 1.343 . S
N296 C279 1.343 . S
N297 C265 1.343 . S
N297 C272 1.343 . S
C298 C299 1.384 . S
C298 C300 1.384 . S
C298 H326 0.931 . S
C299 C298 1.384 . S
C299 C302 1.382 . S
C300 C298 1.384 . S
C300 C301 1.381 . S
C300 H327 0.930 . S
C301 C300 1.381 . S
C301 C303 1.381 . S
C301 C304 1.487 . S
C302 C299 1.382 . S
C302 C303 1.387 . S
C302 H328 0.930 . S
C303 C301 1.381 . S
C303 C302 1.387 . S
C303 H329 0.931 . S
C304 C301 1.487 . S
C304 C311 1.399 . S
C304 N342 1.343 . S
C305 C306 1.384 . S
C305 C307 1.384 . S
C305 H330 0.931 . S
C306 C305 1.384 . S
C306 C309 1.382 . S
C307 C305 1.384 . S
C307 C308 1.381 . S
C307 H331 0.930 . S
C308 C307 1.381 . S
C308 C310 1.381 . S
C308 C311 1.487 . S
C309 C306 1.382 . S
C309 C310 1.387 . S
C309 H332 0.930 . S
C310 C308 1.381 . S
C310 C309 1.387 . S
C310 H333 0.931 . S
C311 C304 1.399 . S
C311 C308 1.487 . S
C311 N343 1.343 . S
C312 C313 1.384 . S
C312 C314 1.384 . S
C312 H334 0.931 . S
C313 C312 1.384 . S
C313 C316 1.382 . S
C314 C312 1.384 . S
C314 C315 1.381 . S
C314 H335 0.930 . S
C315 C314 1.381 . S
C315 C317 1.381 . S
C315 C318 1.487 . S
C316 C313 1.382 . S
C316 C317 1.387 . S
C316 H336 0.930 . S
C317 C315 1.381 . S
C317 C316 1.387 . S
C317 H337 0.931 . S
C318 C315 1.487 . S
C318 C325 1.399 . S
C318 N343 1.343 . S
C319 C320 1.384 . S
C319 C321 1.384 . S
C319 H338 0.931 . S
C320 C319 1.384 . S
C320 C323 1.382 . S
C321 C319 1.384 . S
C321 C322 1.381 . S
C321 H339 0.930 . S
C322 C321 1.381 . S
C322 C324 1.381 . S
C322 C325 1.487 . S
C323 C320 1.382 . S
C323 C324 1.387 . S
C323 H340 0.930 . S
C324 C322 1.381 . S
C324 C323 1.387 . S
C324 H341 0.931 . S
C325 C318 1.399 . S
C325 C322 1.487 . S
C325 N342 1.343 . S
H326 C298 0.931 . S
H327 C300 0.930 . S
H328 C302 0.930 . S
H329 C303 0.931 . S
H330 C305 0.931 . S
H331 C307 0.930 . S
H332 C309 0.930 . S
H333 C310 0.931 . S
H334 C312 0.931 . S
H335 C314 0.930 . S
H336 C316 0.930 . S
H337 C317 0.931 . S
H338 C319 0.931 . S
H339 C321 0.930 . S
H340 C323 0.930 . S
H341 C324 0.931 . S
N342 C304 1.343 . S
N342 C325 1.343 . S
N343 C311 1.343 . S
N343 C318 1.343 . S
C344 C345 1.384 . S
C344 C346 1.384 . S
C344 H372 0.931 . S
C345 C344 1.384 . S
C345 C348 1.382 . S
C346 C344 1.384 . S
C346 C347 1.381 . S
C346 H373 0.930 . S
C347 C346 1.381 . S
C347 C349 1.381 . S
C347 C350 1.487 . S
C348 C345 1.382 . S
C348 C349 1.387 . S
C348 H374 0.930 . S
C349 C347 1.381 . S
C349 C348 1.387 . S
C349 H375 0.931 . S
C350 C347 1.487 . S
C350 C357 1.399 . S
C350 N388 1.343 . S
C351 C352 1.384 . S
C351 C353 1.384 . S
C351 H376 0.931 . S
C352 C351 1.384 . S
C352 C355 1.382 . S
C353 C351 1.384 . S
C353 C354 1.381 . S
C353 H377 0.930 . S
C354 C353 1.381 . S
C354 C356 1.381 . S
C354 C357 1.487 . S
C355 C352 1.382 . S
C355 C356 1.387 . S
C355 H378 0.930 . S
C356 C354 1.381 . S
C356 C355 1.387 . S
C356 H379 0.931 . S
C357 C350 1.399 . S
C357 C354 1.487 . S
C357 N389 1.343 . S
C358 C359 1.384 . S
C358 C360 1.384 . S
C358 H380 0.931 . S
C359 C358 1.384 . S
C359 C362 1.382 . S
C360 C358 1.384 . S
C360 C361 1.381 . S
C360 H381 0.930 . S
C361 C360 1.381 . S
C361 C363 1.381 . S
C361 C364 1.487 . S
C362 C359 1.382 . S
C362 C363 1.387 . S
C362 H382 0.930 . S
C363 C361 1.381 . S
C363 C362 1.387 . S
C363 H383 0.931 . S
C364 C361 1.487 . S
C364 C371 1.399 . S
C364 N389 1.343 . S
C365 C366 1.384 . S
C365 C367 1.384 . S
C365 H384 0.931 . S
C366 C365 1.384 . S
C366 C369 1.382 . S
C367 C365 1.384 . S
C367 C368 1.381 . S
C367 H385 0.930 . S
C368 C367 1.381 . S
C368 C370 1.381 . S
C368 C371 1.487 . S
C369 C366 1.382 . S
C369 C370 1.387 . S
C369 H386 0.930 . S
C370 C368 1.381 . S
C370 C369 1.387 . S
C370 H387 0.931 . S
C371 C364 1.399 . S
C371 C368 1.487 . S
C371 N388 1.343 . S
H372 C344 0.931 . S
H373 C346 0.930 . S
H374 C348 0.930 . S
H375 C349 0.931 . S
H376 C351 0.931 . S
H377 C353 0.930 . S
H378 C355 0.930 . S
H379 C356 0.931 . S
H380 C358 0.931 . S
H381 C360 0.930 . S
H382 C362 0.930 . S
H383 C363 0.931 . S
H384 C365 0.931 . S
H385 C367 0.930 . S
H386 C369 0.930 . S
H387 C370 0.931 . S
N388 C350 1.343 . S
N388 C371 1.343 . S
N389 C357 1.343 . S
N389 C364 1.343 . S
C390 C391 1.384 . S
C390 C392 1.384 . S
C390 H418 0.931 . S
C391 C390 1.384 . S
C391 C394 1.382 . S
C392 C390 1.384 . S
C392 C393 1.381 . S
C392 H419 0.930 . S
C393 C392 1.381 . S
C393 C395 1.381 . S
C393 C396 1.487 . S
C394 C391 1.382 . S
C394 C395 1.387 . S
C394 H420 0.930 . S
C395 C393 1.381 . S
C395 C394 1.387 . S
C395 H421 0.931 . S
C396 C393 1.487 . S
C396 C403 1.399 . S
C396 N434 1.343 . S
C397 C398 1.384 . S
C397 C399 1.384 . S
C397 H422 0.931 . S
C398 C397 1.384 . S
C398 C401 1.382 . S
C399 C397 1.384 . S
C399 C400 1.381 . S
C399 H423 0.930 . S
C400 C399 1.381 . S
C400 C402 1.381 . S
C400 C403 1.487 . S
C401 C398 1.382 . S
C401 C402 1.387 . S
C401 H424 0.930 . S
C402 C400 1.381 . S
C402 C401 1.387 . S
C402 H425 0.931 . S
C403 C396 1.399 . S
C403 C400 1.487 . S
C403 N435 1.343 . S
C404 C405 1.384 . S
C404 C406 1.384 . S
C404 H426 0.931 . S
C405 C404 1.384 . S
C405 C408 1.382 . S
C406 C404 1.384 . S
C406 C407 1.381 . S
C406 H427 0.930 . S
C407 C406 1.381 . S
C407 C409 1.381 . S
C407 C410 1.487 . S
C408 C405 1.382 . S
C408 C409 1.387 . S
C408 H428 0.930 . S
C409 C407 1.381 . S
C409 C408 1.387 . S
C409 H429 0.931 . S
C410 C407 1.487 . S
C410 C417 1.399 . S
C410 N435 1.343 . S
C411 C412 1.384 . S
C411 C413 1.384 . S
C411 H430 0.931 . S
C412 C411 1.384 . S
C412 C415 1.382 . S
C413 C411 1.384 . S
C413 C414 1.381 . S
C413 H431 0.930 . S
C414 C413 1.381 . S
C414 C416 1.381 . S
C414 C417 1.487 . S
C415 C412 1.382 . S
C415 C416 1.387 . S
C415 H432 0.930 . S
C416 C414 1.381 . S
C416 C415 1.387 . S
C416 H433 0.931 . S
C417 C410 1.399 . S
C417 C414 1.487 . S
C417 N434 1.343 . S
H418 C390 0.931 . S
H419 C392 0.930 . S
H420 C394 0.930 . S
H421 C395 0.931 . S
H422 C397 0.931 . S
H423 C399 0.930 . S
H424 C401 0.930 . S
H425 C402 0.931 . S
H426 C404 0.931 . S
H427 C406 0.930 . S
H428 C408 0.930 . S
H429 C409 0.931 . S
H430 C411 0.931 . S
H431 C413 0.930 . S
H432 C415 0.930 . S
H433 C416 0.931 . S
N434 C396 1.343 . S
N434 C417 1.343 . S
N435 C403 1.343 . S
N435 C410 1.343 . S
C436 C437 1.384 . S
C436 C438 1.384 . S
C436 H464 0.931 . S
C437 C436 1.384 . S
C437 C440 1.382 . S
C438 C436 1.384 . S
C438 C439 1.381 . S
C438 H465 0.930 . S
C439 C438 1.381 . S
C439 C441 1.381 . S
C439 C442 1.487 . S
C440 C437 1.382 . S
C440 C441 1.387 . S
C440 H466 0.930 . S
C441 C439 1.381 . S
C441 C440 1.387 . S
C441 H467 0.931 . S
C442 C439 1.487 . S
C442 C449 1.399 . S
C442 N480 1.343 . S
C443 C444 1.384 . S
C443 C445 1.384 . S
C443 H468 0.931 . S
C444 C443 1.384 . S
C444 C447 1.382 . S
C445 C443 1.384 . S
C445 C446 1.381 . S
C445 H469 0.930 . S
C446 C445 1.381 . S
C446 C448 1.381 . S
C446 C449 1.487 . S
C447 C444 1.382 . S
C447 C448 1.387 . S
C447 H470 0.930 . S
C448 C446 1.381 . S
C448 C447 1.387 . S
C448 H471 0.931 . S
C449 C442 1.399 . S
C449 C446 1.487 . S
C449 N481 1.343 . S
C450 C451 1.384 . S
C450 C452 1.384 . S
C450 H472 0.931 . S
C451 C450 1.384 . S
C451 C454 1.382 . S
C452 C450 1.384 . S
C452 C453 1.381 . S
C452 H473 0.930 . S
C453 C452 1.381 . S
C453 C455 1.381 . S
C453 C456 1.487 . S
C454 C451 1.382 . S
C454 C455 1.387 . S
C454 H474 0.930 . S
C455 C453 1.381 . S
C455 C454 1.387 . S
C455 H475 0.931 . S
C456 C453 1.487 . S
C456 C463 1.399 . S
C456 N481 1.343 . S
C457 C458 1.384 . S
C457 C459 1.384 . S
C457 H476 0.931 . S
C458 C457 1.384 . S
C458 C461 1.382 . S
C459 C457 1.384 . S
C459 C460 1.381 . S
C459 H477 0.930 . S
C460 C459 1.381 . S
C460 C462 1.381 . S
C460 C463 1.487 . S
C461 C458 1.382 . S
C461 C462 1.387 . S
C461 H478 0.930 . S
C462 C460 1.381 . S
C462 C461 1.387 . S
C462 H479 0.931 . S
C463 C456 1.399 . S
C463 C460 1.487 . S
C463 N480 1.343 . S
H464 C436 0.931 . S
H465 C438 0.930 . S
H466 C440 0.930 . S
H467 C441 0.931 . S
H468 C443 0.931 . S
H469 C445 0.930 . S
H470 C447 0.930 . S
H471 C448 0.931 . S
H472 C450 0.931 . S
H473 C452 0.930 . S
H474 C454 0.930 . S
H475 C455 0.931 . S
H476 C457 0.931 . S
H477 C459 0.930 . S
H478 C461 0.930 . S
H479 C462 0.931 . S
N480 C442 1.343 . S
N480 C463 1.343 . S
N481 C449 1.343 . S
N481 C456 1.343 . S
C482 C483 1.384 . S
C482 C484 1.384 . S
C482 H510 0.931 . S
C483 C482 1.384 . S
C483 C486 1.382 . S
C484 C482 1.384 . S
C484 C485 1.381 . S
C484 H511 0.930 . S
C485 C484 1.381 . S
C485 C487 1.381 . S
C485 C488 1.487 . S
C486 C483 1.382 . S
C486 C487 1.387 . S
C486 H512 0.930 . S
C487 C485 1.381 . S
C487 C486 1.387 . S
C487 H513 0.931 . S
C488 C485 1.487 . S
C488 C495 1.399 . S
C488 N526 1.343 . S
C489 C490 1.384 . S
C489 C491 1.384 . S
C489 H514 0.931 . S
C490 C489 1.384 . S
C490 C493 1.382 . S
C491 C489 1.384 . S
C491 C492 1.381 . S
C491 H515 0.930 . S
C492 C491 1.381 . S
C492 C494 1.381 . S
C492 C495 1.487 . S
C493 C490 1.382 . S
C493 C494 1.387 . S
C493 H516 0.930 . S
C494 C492 1.381 . S
C494 C493 1.387 . S
C494 H517 0.931 . S
C495 C488 1.399 . S
C495 C492 1.487 . S
C495 N527 1.343 . S
C496 C497 1.384 . S
C496 C498 1.384 . S
C496 H518 0.931 . S
C497 C496 1.384 . S
C497 C500 1.382 . S
C498 C496 1.384 . S
C498 C499 1.381 . S
C498 H519 0.930 . S
C499 C498 1.381 . S
C499 C501 1.381 . S
C499 C502 1.487 . S
C500 C497 1.382 . S
C500 C501 1.387 . S
C500 H520 0.930 . S
C501 C499 1.381 . S
C501 C500 1.387 . S
C501 H521 0.931 . S
C502 C499 1.487 . S
C502 C509 1.399 . S
C502 N527 1.343 . S
C503 C504 1.384 . S
C503 C505 1.384 . S
C503 H522 0.931 . S
C504 C503 1.384 . S
C504 C507 1.382 . S
C505 C503 1.384 . S
C505 C506 1.381 . S
C505 H523 0.930 . S
C506 C505 1.381 . S
C506 C508 1.381 . S
C506 C509 1.487 . S
C507 C504 1.382 . S
C507 C508 1.387 . S
C507 H524 0.930 . S
C508 C506 1.381 . S
C508 C507 1.387 . S
C508 H525 0.931 . S
C509 C502 1.399 . S
C509 C506 1.487 . S
C509 N526 1.343 . S
H510 C482 0.931 . S
H511 C484 0.930 . S
H512 C486 0.930 . S
H513 C487 0.931 . S
H514 C489 0.931 . S
H515 C491 0.930 . S
H516 C493 0.930 . S
H517 C494 0.931 . S
H518 C496 0.931 . S
H519 C498 0.930 . S
H520 C500 0.930 . S
H521 C501 0.931 . S
H522 C503 0.931 . S
H523 C505 0.930 . S
H524 C507 0.930 . S
H525 C508 0.931 . S
N526 C488 1.343 . S
N526 C509 1.343 . S
N527 C495 1.343 . S
N527 C502 1.343 . S
C528 C529 1.384 . S
C528 C530 1.384 . S
C528 H556 0.931 . S
C529 C528 1.384 . S
C529 C532 1.382 . S
C530 C528 1.384 . S
C530 C531 1.381 . S
C530 H557 0.930 . S
C531 C530 1.381 . S
C531 C533 1.381 . S
C531 C534 1.487 . S
C532 C529 1.382 . S
C532 C533 1.387 . S
C532 H558 0.930 . S
C533 C531 1.381 . S
C533 C532 1.387 . S
C533 H559 0.931 . S
C534 C531 1.487 . S
C534 C541 1.399 . S
C534 N572 1.343 . S
C535 C536 1.384 . S
C535 C537 1.384 . S
C535 H560 0.931 . S
C536 C535 1.384 . S
C536 C539 1.382 . S
C537 C535 1.384 . S
C537 C538 1.381 . S
C537 H561 0.930 . S
C538 C537 1.381 . S
C538 C540 1.381 . S
C538 C541 1.487 . S
C539 C536 1.382 . S
C539 C540 1.387 . S
C539 H562 0.930 . S
C540 C538 1.381 . S
C540 C539 1.387 . S
C540 H563 0.931 . S
C541 C534 1.399 . S
C541 C538 1.487 . S
C541 N573 1.343 . S
C542 C543 1.384 . S
C542 C544 1.384 . S
C542 H564 0.931 . S
C543 C542 1.384 . S
C543 C546 1.382 . S
C544 C542 1.384 . S
C544 C545 1.381 . S
C544 H565 0.930 . S
C545 C544 1.381 . S
C545 C547 1.381 . S
C545 C548 1.487 . S
C546 C543 1.382 . S
C546 C547 1.387 . S
C546 H566 0.930 . S
C547 C545 1.381 . S
C547 C546 1.387 . S
C547 H567 0.931 . S
C548 C545 1.487 . S
C548 C555 1.399 . S
C548 N573 1.343 . S
C549 C550 1.384 . S
C549 C551 1.384 . S
C549 H568 0.931 . S
C550 C549 1.384 . S
C550 C553 1.382 . S
C551 C549 1.384 . S
C551 C552 1.381 . S
C551 H569 0.930 . S
C552 C551 1.381 . S
C552 C554 1.381 . S
C552 C555 1.487 . S
C553 C550 1.382 . S
C553 C554 1.387 . S
C553 H570 0.930 . S
C554 C552 1.381 . S
C554 C553 1.387 . S
C554 H571 0.931 . S
C555 C548 1.399 . S
C555 C552 1.487 . S
C555 N572 1.343 . S
H556 C528 0.931 . S
H557 C530 0.930 . S
H558 C532 0.930 . S
H559 C533 0.931 . S
H560 C535 0.931 . S
H561 C537 0.930 . S
H562 C539 0.930 . S
H563 C540 0.931 . S
H564 C542 0.931 . S
H565 C544 0.930 . S
H566 C546 0.930 . S
H567 C547 0.931 . S
H568 C549 0.931 . S
H569 C551 0.930 . S
H570 C553 0.930 . S
H571 C554 0.931 . S
N572 C534 1.343 . S
N572 C555 1.343 . S
N573 C541 1.343 . S
N573 C548 1.343 . S
C574 C575 1.384 . S
C574 C576 1.384 . S
C574 H602 0.931 . S
C575 C574 1.384 . S
C575 C578 1.382 . S
C576 C574 1.384 . S
C576 C577 1.381 . S
C576 H603 0.930 . S
C577 C576 1.381 . S
C577 C579 1.381 . S
C577 C580 1.487 . S
C578 C575 1.382 . S
C578 C579 1.387 . S
C578 H604 0.930 . S
C579 C577 1.381 . S
C579 C578 1.387 . S
C579 H605 0.931 . S
C580 C577 1.487 . S
C580 C587 1.399 . S
C580 N618 1.343 . S
C581 C582 1.384 . S
C581 C583 1.384 . S
C581 H606 0.931 . S
C582 C581 1.384 . S
C582 C585 1.382 . S
C583 C581 1.384 . S
C583 C584 1.381 . S
C583 H607 0.930 . S
C584 C583 1.381 . S
C584 C586 1.381 . S
C584 C587 1.487 . S
C585 C582 1.382 . S
C585 C586 1.387 . S
C585 H608 0.930 . S
C586 C584 1.381 . S
C586 C585 1.387 . S
C586 H609 0.931 . S
C587 C580 1.399 . S
C587 C584 1.487 . S
C587 N619 1.343 . S
C588 C589 1.384 . S
C588 C590 1.384 . S
C588 H610 0.931 . S
C589 C588 1.384 . S
C589 C592 1.382 . S
C590 C588 1.384 . S
C590 C591 1.381 . S
C590 H611 0.930 . S
C591 C590 1.381 . S
C591 C593 1.381 . S
C591 C594 1.487 . S
C592 C589 1.382 . S
C592 C593 1.387 . S
C592 H612 0.930 . S
C593 C591 1.381 . S
C593 C592 1.387 . S
C593 H613 0.931 . S
C594 C591 1.487 . S
C594 C601 1.399 . S
C594 N619 1.343 . S
C595 C596 1.384 . S
C595 C597 1.384 . S
C595 H614 0.931 . S
C596 C595 1.384 . S
C596 C599 1.382 . S
C597 C595 1.384 . S
C597 C598 1.381 . S
C597 H615 0.930 . S
C598 C597 1.381 . S
C598 C600 1.381 . S
C598 C601 1.487 . S
C599 C596 1.382 . S
C599 C600 1.387 . S
C599 H616 0.930 . S
C600 C598 1.381 . S
C600 C599 1.387 . S
C600 H617 0.931 . S
C601 C594 1.399 . S
C601 C598 1.487 . S
C601 N618 1.343 . S
H602 C574 0.931 . S
H603 C576 0.930 . S
H604 C578 0.930 . S
H605 C579 0.931 . S
H606 C581 0.931 . S
H607 C583 0.930 . S
H608 C585 0.930 . S
H609 C586 0.931 . S
H610 C588 0.931 . S
H611 C590 0.930 . S
H612 C592 0.930 . S
H613 C593 0.931 . S
H614 C595 0.931 . S
H615 C597 0.930 . S
H616 C599 0.930 . S
H617 C600 0.931 . S
N618 C580 1.343 . S
N618 C601 1.343 . S
N619 C587 1.343 . S
N619 C594 1.343 . S
C620 C621 1.384 . S
C620 C622 1.384 . S
C620 H648 0.931 . S
C621 C620 1.384 . S
C621 C624 1.382 . S
C622 C620 1.384 . S
C622 C623 1.381 . S
C622 H649 0.930 . S
C623 C622 1.381 . S
C623 C625 1.381 . S
C623 C626 1.487 . S
C624 C621 1.382 . S
C624 C625 1.387 . S
C624 H650 0.930 . S
C625 C623 1.381 . S
C625 C624 1.387 . S
C625 H651 0.931 . S
C626 C623 1.487 . S
C626 C633 1.399 . S
C626 N664 1.343 . S
C627 C628 1.384 . S
C627 C629 1.384 . S
C627 H652 0.931 . S
C628 C627 1.384 . S
C628 C631 1.382 . S
C629 C627 1.384 . S
C629 C630 1.381 . S
C629 H653 0.930 . S
C630 C629 1.381 . S
C630 C632 1.381 . S
C630 C633 1.487 . S
C631 C628 1.382 . S
C631 C632 1.387 . S
C631 H654 0.930 . S
C632 C630 1.381 . S
C632 C631 1.387 . S
C632 H655 0.931 . S
C633 C626 1.399 . S
C633 C630 1.487 . S
C633 N665 1.343 . S
C634 C635 1.384 . S
C634 C636 1.384 . S
C634 H656 0.931 . S
C635 C634 1.384 . S
C635 C638 1.382 . S
C636 C634 1.384 . S
C636 C637 1.381 . S
C636 H657 0.930 . S
C637 C636 1.381 . S
C637 C639 1.381 . S
C637 C640 1.487 . S
C638 C635 1.382 . S
C638 C639 1.387 . S
C638 H658 0.930 . S
C639 C637 1.381 . S
C639 C638 1.387 . S
C639 H659 0.931 . S
C640 C637 1.487 . S
C640 C647 1.399 . S
C640 N665 1.343 . S
C641 C642 1.384 . S
C641 C643 1.384 . S
C641 H660 0.931 . S
C642 C641 1.384 . S
C642 C645 1.382 . S
C643 C641 1.384 . S
C643 C644 1.381 . S
C643 H661 0.930 . S
C644 C643 1.381 . S
C644 C646 1.381 . S
C644 C647 1.487 . S
C645 C642 1.382 . S
C645 C646 1.387 . S
C645 H662 0.930 . S
C646 C644 1.381 . S
C646 C645 1.387 . S
C646 H663 0.931 . S
C647 C640 1.399 . S
C647 C644 1.487 . S
C647 N664 1.343 . S
H648 C620 0.931 . S
H649 C622 0.930 . S
H650 C624 0.930 . S
H651 C625 0.931 . S
H652 C627 0.931 . S
H653 C629 0.930 . S
H654 C631 0.930 . S
H655 C632 0.931 . S
H656 C634 0.931 . S
H657 C636 0.930 . S
H658 C638 0.930 . S
H659 C639 0.931 . S
H660 C641 0.931 . S
H661 C643 0.930 . S
H662 C645 0.930 . S
H663 C646 0.931 . S
N664 C626 1.343 . S
N664 C647 1.343 . S
N665 C633 1.343 . S
N665 C640 1.343 . S
C666 C667 1.384 . S
C666 C668 1.384 . S
C666 H694 0.931 . S
C667 C666 1.384 . S
C667 C670 1.382 1_655 S
C668 C666 1.384 . S
C668 C669 1.413 . S
C668 H695 0.930 . S
C669 C668 1.413 . S
C669 C671 1.365 1_655 S
C669 C672 1.470 1_655 S
C670 C667 1.382 1_455 S
C670 C671 1.387 . S
C670 H696 0.930 . S
C671 C669 1.365 1_455 S
C671 C670 1.387 . S
C671 H697 0.931 . S
C672 C669 1.470 1_455 S
C672 C679 1.399 1_455 S
C672 N710 1.346 . S
C673 C674 1.384 . S
C673 C675 1.384 . S
C673 H698 0.931 . S
C674 C673 1.384 . S
C674 C677 1.382 1_455 S
C675 C673 1.384 . S
C675 C676 1.381 . S
C675 H699 0.930 . S
C676 C675 1.381 . S
C676 C678 1.381 1_455 S
C676 C679 1.493 1_455 S
C677 C674 1.382 1_655 S
C677 C678 1.387 . S
C677 H700 0.930 . S
C678 C676 1.381 1_655 S
C678 C677 1.387 . S
C678 H701 0.931 . S
C679 C672 1.399 1_655 S
C679 C676 1.493 1_655 S
C679 N711 1.361 . S
C680 C681 1.384 . S
C680 C682 1.384 . S
C680 H702 0.931 . S
C681 C680 1.384 . S
C681 C684 1.382 1_455 S
C682 C680 1.384 . S
C682 C683 1.426 . S
C682 H703 0.930 . S
C683 C682 1.426 . S
C683 C685 1.359 1_455 S
C683 C686 1.464 . S
C684 C681 1.382 1_655 S
C684 C685 1.387 . S
C684 H704 0.930 . S
C685 C683 1.359 1_655 S
C685 C684 1.387 . S
C685 H705 0.931 . S
C686 C683 1.464 . S
C686 C693 1.398 . S
C686 N711 1.319 1_455 S
C687 C688 1.384 . S
C687 C689 1.384 . S
C687 H706 0.931 . S
C688 C687 1.384 . S
C688 C691 1.382 1_655 S
C689 C687 1.384 . S
C689 C690 1.381 1_655 S
C689 H707 0.930 . S
C690 C689 1.381 1_455 S
C690 C692 1.381 . S
C690 C693 1.499 . S
C691 C688 1.382 1_455 S
C691 C692 1.387 . S
C691 H708 0.930 . S
C692 C690 1.381 . S
C692 C691 1.387 . S
C692 H709 0.931 . S
C693 C686 1.398 . S
C693 C690 1.499 . S
C693 N710 1.331 . S
H694 C666 0.931 . S
H695 C668 0.930 . S
H696 C670 0.930 . S
H697 C671 0.931 . S
H698 C673 0.931 . S
H699 C675 0.930 . S
H700 C677 0.930 . S
H701 C678 0.931 . S
H702 C680 0.931 . S
H703 C682 0.930 . S
H704 C684 0.930 . S
H705 C685 0.931 . S
H706 C687 0.931 . S
H707 C689 0.930 . S
H708 C691 0.930 . S
H709 C692 0.931 . S
N710 C672 1.346 . S
N710 C693 1.331 . S
N711 C679 1.361 . S
N711 C686 1.319 1_655 S
C712 C713 1.384 . S
C712 C714 1.384 . S
C712 H740 0.931 . S
C713 C712 1.384 . S
C713 C716 1.382 . S
C714 C712 1.384 . S
C714 C715 1.381 . S
C714 H741 0.930 . S
C715 C714 1.381 . S
C715 C717 1.381 . S
C715 C718 1.487 . S
C716 C713 1.382 . S
C716 C717 1.387 . S
C716 H742 0.930 . S
C717 C715 1.381 . S
C717 C716 1.387 . S
C717 H743 0.931 . S
C718 C715 1.487 . S
C718 C725 1.399 . S
C718 N756 1.343 . S
C719 C720 1.384 . S
C719 C721 1.384 . S
C719 H744 0.931 . S
C720 C719 1.384 . S
C720 C723 1.382 . S
C721 C719 1.384 . S
C721 C722 1.381 . S
C721 H745 0.930 . S
C722 C721 1.381 . S
C722 C724 1.381 . S
C722 C725 1.487 . S
C723 C720 1.382 . S
C723 C724 1.387 . S
C723 H746 0.930 . S
C724 C722 1.381 . S
C724 C723 1.387 . S
C724 H747 0.931 . S
C725 C718 1.399 . S
C725 C722 1.487 . S
C725 N757 1.343 . S
C726 C727 1.384 . S
C726 C728 1.384 . S
C726 H748 0.931 . S
C727 C726 1.384 . S
C727 C730 1.382 . S
C728 C726 1.384 . S
C728 C729 1.381 . S
C728 H749 0.930 . S
C729 C728 1.381 . S
C729 C731 1.381 . S
C729 C732 1.487 . S
C730 C727 1.382 . S
C730 C731 1.387 . S
C730 H750 0.930 . S
C731 C729 1.381 . S
C731 C730 1.387 . S
C731 H751 0.931 . S
C732 C729 1.487 . S
C732 C739 1.399 . S
C732 N757 1.343 . S
C733 C734 1.384 . S
C733 C735 1.384 . S
C733 H752 0.931 . S
C734 C733 1.384 . S
C734 C737 1.382 . S
C735 C733 1.384 . S
C735 C736 1.381 . S
C735 H753 0.930 . S
C736 C735 1.381 . S
C736 C738 1.381 . S
C736 C739 1.487 . S
C737 C734 1.382 . S
C737 C738 1.387 . S
C737 H754 0.930 . S
C738 C736 1.381 . S
C738 C737 1.387 . S
C738 H755 0.931 . S
C739 C732 1.399 . S
C739 C736 1.487 . S
C739 N756 1.343 . S
H740 C712 0.931 . S
H741 C714 0.930 . S
H742 C716 0.930 . S
H743 C717 0.931 . S
H744 C719 0.931 . S
H745 C721 0.930 . S
H746 C723 0.930 . S
H747 C724 0.931 . S
H748 C726 0.931 . S
H749 C728 0.930 . S
H750 C730 0.930 . S
H751 C731 0.931 . S
H752 C733 0.931 . S
H753 C735 0.930 . S
H754 C737 0.930 . S
H755 C738 0.931 . S
N756 C718 1.343 . S
N756 C739 1.343 . S
N757 C725 1.343 . S
N757 C732 1.343 . S
C758 C759 1.384 1_545 S
C758 C760 1.384 . S
C758 H786 0.931 . S
C759 C758 1.384 1_565 S
C759 C762 1.382 . S
C760 C758 1.384 . S
C760 C761 1.381 1_545 S
C760 H787 0.930 . S
C761 C760 1.381 1_565 S
C761 C763 1.381 . S
C761 C764 1.487 . S
C762 C759 1.382 . S
C762 C763 1.387 . S
C762 H788 0.930 . S
C763 C761 1.381 . S
C763 C762 1.387 . S
C763 H789 0.931 . S
C764 C761 1.487 . S
C764 C771 1.399 1_565 S
C764 N802 1.343 . S
C765 C766 1.384 1_565 S
C765 C767 1.384 . S
C765 H790 0.931 . S
C766 C765 1.384 1_545 S
C766 C769 1.382 . S
C767 C765 1.384 . S
C767 C768 1.381 1_565 S
C767 H791 0.930 . S
C768 C767 1.381 1_545 S
C768 C770 1.381 . S
C768 C771 1.487 . S
C769 C766 1.382 . S
C769 C770 1.387 . S
C769 H792 0.930 . S
C770 C768 1.381 . S
C770 C769 1.387 . S
C770 H793 0.931 . S
C771 C764 1.399 1_545 S
C771 C768 1.487 . S
C771 N803 1.343 . S
C772 C773 1.384 1_565 S
C772 C774 1.384 . S
C772 H794 0.931 . S
C773 C772 1.384 1_545 S
C773 C776 1.382 . S
C774 C772 1.384 . S
C774 C775 1.381 1_565 S
C774 H795 0.930 . S
C775 C774 1.381 1_545 S
C775 C777 1.381 . S
C775 C778 1.487 . S
C776 C773 1.382 . S
C776 C777 1.387 . S
C776 H796 0.930 . S
C777 C775 1.381 . S
C777 C776 1.387 . S
C777 H797 0.931 . S
C778 C775 1.487 . S
C778 C785 1.399 1_545 S
C778 N803 1.343 . S
C779 C780 1.384 1_545 S
C779 C781 1.384 . S
C779 H798 0.931 . S
C780 C779 1.384 1_565 S
C780 C783 1.382 . S
C781 C779 1.384 . S
C781 C782 1.381 1_545 S
C781 H799 0.930 . S
C782 C781 1.381 1_565 S
C782 C784 1.381 . S
C782 C785 1.487 . S
C783 C780 1.382 . S
C783 C784 1.387 . S
C783 H800 0.930 . S
C784 C782 1.381 . S
C784 C783 1.387 . S
C784 H801 0.931 . S
C785 C778 1.399 1_565 S
C785 C782 1.487 . S
C785 N802 1.343 . S
H786 C758 0.931 . S
H787 C760 0.930 . S
H788 C762 0.930 . S
H789 C763 0.931 . S
H790 C765 0.931 . S
H791 C767 0.930 . S
H792 C769 0.930 . S
H793 C770 0.931 . S
H794 C772 0.931 . S
H795 C774 0.930 . S
H796 C776 0.930 . S
H797 C777 0.931 . S
H798 C779 0.931 . S
H799 C781 0.930 . S
H800 C783 0.930 . S
H801 C784 0.931 . S
N802 C764 1.343 . S
N802 C785 1.343 . S
N803 C771 1.343 . S
N803 C778 1.343 . S
C804 C805 1.384 . S
C804 C806 1.384 . S
C804 H832 0.931 . S
C805 C804 1.384 . S
C805 C808 1.382 1_545 S
C806 C804 1.384 . S
C806 C807 1.380 1_545 S
C806 H833 0.930 . S
C807 C806 1.380 1_565 S
C807 C809 1.387 . S
C807 C810 1.494 . S
C808 C805 1.382 1_565 S
C808 C809 1.387 . S
C808 H834 0.930 . S
C809 C807 1.387 . S
C809 C808 1.387 . S
C809 H835 0.931 . S
C810 C807 1.494 . S
C810 C817 1.399 1_565 S
C810 N848 1.332 . S
C811 C812 1.384 . S
C811 C813 1.384 . S
C811 H836 0.931 . S
C812 C811 1.384 . S
C812 C815 1.382 1_565 S
C813 C811 1.384 . S
C813 C814 1.424 . S
C813 H837 0.930 . S
C814 C813 1.424 . S
C814 C816 1.360 1_565 S
C814 C817 1.467 1_565 S
C815 C812 1.382 1_545 S
C815 C816 1.387 . S
C815 H838 0.930 . S
C816 C814 1.360 1_545 S
C816 C815 1.387 . S
C816 H839 0.931 . S
C817 C810 1.399 1_545 S
C817 C814 1.467 1_545 S
C817 N849 1.343 . S
C818 C819 1.384 . S
C818 C820 1.384 . S
C818 H840 0.931 . S
C819 C818 1.384 . S
C819 C822 1.382 1_565 S
C820 C818 1.384 . S
C820 C821 1.378 1_565 S
C820 H841 0.930 . S
C821 C820 1.378 1_545 S
C821 C823 1.395 . S
C821 C824 1.494 . S
C822 C819 1.382 1_545 S
C822 C823 1.387 . S
C822 H842 0.930 . S
C823 C821 1.395 . S
C823 C822 1.387 . S
C823 H843 0.931 . S
C824 C821 1.494 . S
C824 C831 1.399 . S
C824 N849 1.326 . S
C825 C826 1.384 . S
C825 C827 1.384 . S
C825 H844 0.931 . S
C826 C825 1.384 . S
C826 C829 1.382 1_545 S
C827 C825 1.384 . S
C827 C828 1.437 . S
C827 H845 0.930 . S
C828 C827 1.437 . S
C828 C830 1.354 1_545 S
C828 C831 1.461 . S
C829 C826 1.382 1_565 S
C829 C830 1.387 . S
C829 H846 0.930 . S
C830 C828 1.354 1_565 S
C830 C829 1.387 . S
C830 H847 0.931 . S
C831 C824 1.399 . S
C831 C828 1.461 . S
C831 N848 1.343 1_545 S
H832 C804 0.931 . S
H833 C806 0.930 . S
H834 C808 0.930 . S
H835 C809 0.931 . S
H836 C811 0.931 . S
H837 C813 0.930 . S
H838 C815 0.930 . S
H839 C816 0.931 . S
H840 C818 0.931 . S
H841 C820 0.930 . S
H842 C822 0.930 . S
H843 C823 0.931 . S
H844 C825 0.931 . S
H845 C827 0.930 . S
H846 C829 0.930 . S
H847 C830 0.931 . S
N848 C810 1.332 . S
N848 C831 1.343 1_565 S
N849 C817 1.343 . S
N849 C824 1.326 . S
C850 C851 1.384 . S
C850 C852 1.384 . S
C850 H878 0.931 . S
C851 C850 1.384 . S
C851 C854 1.382 1_655 S
C852 C850 1.384 . S
C852 C853 1.438 . S
C852 H879 0.930 . S
C853 C852 1.438 . S
C853 C855 1.354 1_655 S
C853 C856 1.461 . S
C854 C851 1.382 1_455 S
C854 C855 1.387 . S
C854 H880 0.930 . S
C855 C853 1.354 1_455 S
C855 C854 1.387 . S
C855 H881 0.931 . S
C856 C853 1.461 . S
C856 C863 1.399 . S
C856 N894 1.322 1_655 S
C857 C858 1.384 . S
C857 C859 1.384 . S
C857 H882 0.931 . S
C858 C857 1.384 . S
C858 C861 1.382 1_455 S
C859 C857 1.384 . S
C859 C860 1.381 . S
C859 H883 0.930 . S
C860 C859 1.381 . S
C860 C862 1.382 1_455 S
C860 C863 1.496 1_455 S
C861 C858 1.382 1_655 S
C861 C862 1.387 . S
C861 H884 0.930 . S
C862 C860 1.382 1_655 S
C862 C861 1.387 . S
C862 H885 0.931 . S
C863 C856 1.399 . S
C863 C860 1.496 1_655 S
C863 N895 1.359 . S
C864 C865 1.384 . S
C864 C866 1.384 . S
C864 H886 0.931 . S
C865 C864 1.384 . S
C865 C868 1.382 1_455 S
C866 C864 1.384 . S
C866 C867 1.425 . S
C866 H887 0.930 . S
C867 C866 1.425 . S
C867 C869 1.360 1_455 S
C867 C870 1.467 1_455 S
C868 C865 1.382 1_655 S
C868 C869 1.387 . S
C868 H888 0.930 . S
C869 C867 1.360 1_655 S
C869 C868 1.387 . S
C869 H889 0.931 . S
C870 C867 1.467 1_655 S
C870 C877 1.399 1_655 S
C870 N895 1.315 . S
C871 C872 1.384 . S
C871 C873 1.384 . S
C871 H890 0.931 . S
C872 C871 1.384 . S
C872 C875 1.382 1_655 S
C873 C871 1.384 . S
C873 C874 1.383 . S
C873 H891 0.930 . S
C874 C873 1.383 . S
C874 C876 1.375 1_655 S
C874 C877 1.496 1_655 S
C875 C872 1.382 1_455 S
C875 C876 1.387 . S
C875 H892 0.930 . S
C876 C874 1.375 1_455 S
C876 C875 1.387 . S
C876 H893 0.931 . S
C877 C870 1.399 1_455 S
C877 C874 1.496 1_455 S
C877 N894 1.359 . S
H878 C850 0.931 . S
H879 C852 0.930 . S
H880 C854 0.930 . S
H881 C855 0.931 . S
H882 C857 0.931 . S
H883 C859 0.930 . S
H884 C861 0.930 . S
H885 C862 0.931 . S
H886 C864 0.931 . S
H887 C866 0.930 . S
H888 C868 0.930 . S
H889 C869 0.931 . S
H890 C871 0.931 . S
H891 C873 0.930 . S
H892 C875 0.930 . S
H893 C876 0.931 . S
N894 C856 1.322 1_455 S
N894 C877 1.359 . S
N895 C863 1.359 . S
N895 C870 1.315 . S
C896 C897 1.384 . S
C896 C898 1.384 . S
C896 H924 0.931 . S
C897 C896 1.384 . S
C897 C900 1.382 . S
C898 C896 1.384 . S
C898 C899 1.381 . S
C898 H925 0.930 . S
C899 C898 1.381 . S
C899 C901 1.381 . S
C899 C902 1.487 . S
C900 C897 1.382 . S
C900 C901 1.387 . S
C900 H926 0.930 . S
C901 C899 1.381 . S
C901 C900 1.387 . S
C901 H927 0.931 . S
C902 C899 1.487 . S
C902 C909 1.399 . S
C902 N940 1.343 . S
C903 C904 1.384 . S
C903 C905 1.384 . S
C903 H928 0.931 . S
C904 C903 1.384 . S
C904 C907 1.382 . S
C905 C903 1.384 . S
C905 C906 1.381 . S
C905 H929 0.930 . S
C906 C905 1.381 . S
C906 C908 1.381 . S
C906 C909 1.487 . S
C907 C904 1.382 . S
C907 C908 1.387 . S
C907 H930 0.930 . S
C908 C906 1.381 . S
C908 C907 1.387 . S
C908 H931 0.931 . S
C909 C902 1.399 . S
C909 C906 1.487 . S
C909 N941 1.343 . S
C910 C911 1.384 . S
C910 C912 1.384 . S
C910 H932 0.931 . S
C911 C910 1.384 . S
C911 C914 1.382 . S
C912 C910 1.384 . S
C912 C913 1.381 . S
C912 H933 0.930 . S
C913 C912 1.381 . S
C913 C915 1.381 . S
C913 C916 1.487 . S
C914 C911 1.382 . S
C914 C915 1.387 . S
C914 H934 0.930 . S
C915 C913 1.381 . S
C915 C914 1.387 . S
C915 H935 0.931 . S
C916 C913 1.487 . S
C916 C923 1.399 . S
C916 N941 1.343 . S
C917 C918 1.384 . S
C917 C919 1.384 . S
C917 H936 0.931 . S
C918 C917 1.384 . S
C918 C921 1.382 . S
C919 C917 1.384 . S
C919 C920 1.381 . S
C919 H937 0.930 . S
C920 C919 1.381 . S
C920 C922 1.381 . S
C920 C923 1.487 . S
C921 C918 1.382 . S
C921 C922 1.387 . S
C921 H938 0.930 . S
C922 C920 1.381 . S
C922 C921 1.387 . S
C922 H939 0.931 . S
C923 C916 1.399 . S
C923 C920 1.487 . S
C923 N940 1.343 . S
H924 C896 0.931 . S
H925 C898 0.930 . S
H926 C900 0.930 . S
H927 C901 0.931 . S
H928 C903 0.931 . S
H929 C905 0.930 . S
H930 C907 0.930 . S
H931 C908 0.931 . S
H932 C910 0.931 . S
H933 C912 0.930 . S
H934 C914 0.930 . S
H935 C915 0.931 . S
H936 C917 0.931 . S
H937 C919 0.930 . S
H938 C921 0.930 . S
H939 C922 0.931 . S
N940 C902 1.343 . S
N940 C923 1.343 . S
N941 C909 1.343 . S
N941 C916 1.343 . S
C942 C943 1.384 . S
C942 C944 1.384 . S
C942 H970 0.931 . S
C943 C942 1.384 . S
C943 C946 1.382 . S
C944 C942 1.384 . S
C944 C945 1.381 . S
C944 H971 0.930 . S
C945 C944 1.381 . S
C945 C947 1.381 . S
C945 C948 1.487 . S
C946 C943 1.382 . S
C946 C947 1.387 . S
C946 H972 0.930 . S
C947 C945 1.381 . S
C947 C946 1.387 . S
C947 H973 0.931 . S
C948 C945 1.487 . S
C948 C955 1.399 . S
C948 N986 1.343 . S
C949 C950 1.384 . S
C949 C951 1.384 . S
C949 H974 0.931 . S
C950 C949 1.384 . S
C950 C953 1.382 . S
C951 C949 1.384 . S
C951 C952 1.381 . S
C951 H975 0.930 . S
C952 C951 1.381 . S
C952 C954 1.381 . S
C952 C955 1.487 . S
C953 C950 1.382 . S
C953 C954 1.387 . S
C953 H976 0.930 . S
C954 C952 1.381 . S
C954 C953 1.387 . S
C954 H977 0.931 . S
C955 C948 1.399 . S
C955 C952 1.487 . S
C955 N987 1.343 . S
C956 C957 1.384 . S
C956 C958 1.384 . S
C956 H978 0.931 . S
C957 C956 1.384 . S
C957 C960 1.382 . S
C958 C956 1.384 . S
C958 C959 1.381 . S
C958 H979 0.930 . S
C959 C958 1.381 . S
C959 C961 1.381 . S
C959 C962 1.487 . S
C960 C957 1.382 . S
C960 C961 1.387 . S
C960 H980 0.930 . S
C961 C959 1.381 . S
C961 C960 1.387 . S
C961 H981 0.931 . S
C962 C959 1.487 . S
C962 C969 1.399 . S
C962 N987 1.343 . S
C963 C964 1.384 . S
C963 C965 1.384 . S
C963 H982 0.931 . S
C964 C963 1.384 . S
C964 C967 1.382 . S
C965 C963 1.384 . S
C965 C966 1.381 . S
C965 H983 0.930 . S
C966 C965 1.381 . S
C966 C968 1.381 . S
C966 C969 1.487 . S
C967 C964 1.382 . S
C967 C968 1.387 . S
C967 H984 0.930 . S
C968 C966 1.381 . S
C968 C967 1.387 . S
C968 H985 0.931 . S
C969 C962 1.399 . S
C969 C966 1.487 . S
C969 N986 1.343 . S
H970 C942 0.931 . S
H971 C944 0.930 . S
H972 C946 0.930 . S
H973 C947 0.931 . S
H974 C949 0.931 . S
H975 C951 0.930 . S
H976 C953 0.930 . S
H977 C954 0.931 . S
H978 C956 0.931 . S
H979 C958 0.930 . S
H980 C960 0.930 . S
H981 C961 0.931 . S
H982 C963 0.931 . S
H983 C965 0.930 . S
H984 C967 0.930 . S
H985 C968 0.931 . S
N986 C948 1.343 . S
N986 C969 1.343 . S
N987 C955 1.343 . S
N987 C962 1.343 . S
C988 C989 1.384 . S
C988 C990 1.384 . S
C988 H1016 0.931 . S
C989 C988 1.384 . S
C989 C992 1.382 . S
C990 C988 1.384 . S
C990 C991 1.381 . S
C990 H1017 0.930 . S
C991 C990 1.381 . S
C991 C993 1.381 . S
C991 C994 1.487 . S
C992 C989 1.382 . S
C992 C993 1.387 . S
C992 H1018 0.930 . S
C993 C991 1.381 . S
C993 C992 1.387 . S
C993 H1019 0.931 . S
C994 C991 1.487 . S
C994 C1001 1.399 . S
C994 N1032 1.343 . S
C995 C996 1.384 . S
C995 C997 1.384 . S
C995 H1020 0.931 . S
C996 C995 1.384 . S
C996 C999 1.382 . S
C997 C995 1.384 . S
C997 C998 1.381 . S
C997 H1021 0.930 . S
C998 C997 1.381 . S
C998 C1000 1.381 . S
C998 C1001 1.487 . S
C999 C996 1.382 . S
C999 C1000 1.387 . S
C999 H1022 0.930 . S
C1000 C998 1.381 . S
C1000 C999 1.387 . S
C1000 H1023 0.931 . S
C1001 C994 1.399 . S
C1001 C998 1.487 . S
C1001 N1033 1.343 . S
C1002 C1003 1.384 . S
C1002 C1004 1.384 . S
C1002 H1024 0.931 . S
C1003 C1002 1.384 . S
C1003 C1006 1.382 . S
C1004 C1002 1.384 . S
C1004 C1005 1.381 . S
C1004 H1025 0.930 . S
C1005 C1004 1.381 . S
C1005 C1007 1.381 . S
C1005 C1008 1.487 . S
C1006 C1003 1.382 . S
C1006 C1007 1.387 . S
C1006 H1026 0.930 . S
C1007 C1005 1.381 . S
C1007 C1006 1.387 . S
C1007 H1027 0.931 . S
C1008 C1005 1.487 . S
C1008 C1015 1.399 . S
C1008 N1033 1.343 . S
C1009 C1010 1.384 . S
C1009 C1011 1.384 . S
C1009 H1028 0.931 . S
C1010 C1009 1.384 . S
C1010 C1013 1.382 . S
C1011 C1009 1.384 . S
C1011 C1012 1.381 . S
C1011 H1029 0.930 . S
C1012 C1011 1.381 . S
C1012 C1014 1.381 . S
C1012 C1015 1.487 . S
C1013 C1010 1.382 . S
C1013 C1014 1.387 . S
C1013 H1030 0.930 . S
C1014 C1012 1.381 . S
C1014 C1013 1.387 . S
C1014 H1031 0.931 . S
C1015 C1008 1.399 . S
C1015 C1012 1.487 . S
C1015 N1032 1.343 . S
H1016 C988 0.931 . S
H1017 C990 0.930 . S
H1018 C992 0.930 . S
H1019 C993 0.931 . S
H1020 C995 0.931 . S
H1021 C997 0.930 . S
H1022 C999 0.930 . S
H1023 C1000 0.931 . S
H1024 C1002 0.931 . S
H1025 C1004 0.930 . S
H1026 C1006 0.930 . S
H1027 C1007 0.931 . S
H1028 C1009 0.931 . S
H1029 C1011 0.930 . S
H1030 C1013 0.930 . S
H1031 C1014 0.931 . S
N1032 C994 1.343 . S
N1032 C1015 1.343 . S
N1033 C1001 1.343 . S
N1033 C1008 1.343 . S
C1034 C1035 1.384 . S
C1034 C1036 1.384 . S
C1034 H1062 0.931 . S
C1035 C1034 1.384 . S
C1035 C1038 1.382 . S
C1036 C1034 1.384 . S
C1036 C1037 1.381 . S
C1036 H1063 0.930 . S
C1037 C1036 1.381 . S
C1037 C1039 1.381 . S
C1037 C1040 1.487 . S
C1038 C1035 1.382 . S
C1038 C1039 1.387 . S
C1038 H1064 0.930 . S
C1039 C1037 1.381 . S
C1039 C1038 1.387 . S
C1039 H1065 0.931 . S
C1040 C1037 1.487 . S
C1040 C1047 1.399 . S
C1040 N1078 1.343 . S
C1041 C1042 1.384 . S
C1041 C1043 1.384 . S
C1041 H1066 0.931 . S
C1042 C1041 1.384 . S
C1042 C1045 1.382 . S
C1043 C1041 1.384 . S
C1043 C1044 1.381 . S
C1043 H1067 0.930 . S
C1044 C1043 1.381 . S
C1044 C1046 1.381 . S
C1044 C1047 1.487 . S
C1045 C1042 1.382 . S
C1045 C1046 1.387 . S
C1045 H1068 0.930 . S
C1046 C1044 1.381 . S
C1046 C1045 1.387 . S
C1046 H1069 0.931 . S
C1047 C1040 1.399 . S
C1047 C1044 1.487 . S
C1047 N1079 1.343 . S
C1048 C1049 1.384 . S
C1048 C1050 1.384 . S
C1048 H1070 0.931 . S
C1049 C1048 1.384 . S
C1049 C1052 1.382 . S
C1050 C1048 1.384 . S
C1050 C1051 1.381 . S
C1050 H1071 0.930 . S
C1051 C1050 1.381 . S
C1051 C1053 1.381 . S
C1051 C1054 1.487 . S
C1052 C1049 1.382 . S
C1052 C1053 1.387 . S
C1052 H1072 0.930 . S
C1053 C1051 1.381 . S
C1053 C1052 1.387 . S
C1053 H1073 0.931 . S
C1054 C1051 1.487 . S
C1054 C1061 1.399 . S
C1054 N1079 1.343 . S
C1055 C1056 1.384 . S
C1055 C1057 1.384 . S
C1055 H1074 0.931 . S
C1056 C1055 1.384 . S
C1056 C1059 1.382 . S
C1057 C1055 1.384 . S
C1057 C1058 1.381 . S
C1057 H1075 0.930 . S
C1058 C1057 1.381 . S
C1058 C1060 1.381 . S
C1058 C1061 1.487 . S
C1059 C1056 1.382 . S
C1059 C1060 1.387 . S
C1059 H1076 0.930 . S
C1060 C1058 1.381 . S
C1060 C1059 1.387 . S
C1060 H1077 0.931 . S
C1061 C1054 1.399 . S
C1061 C1058 1.487 . S
C1061 N1078 1.343 . S
H1062 C1034 0.931 . S
H1063 C1036 0.930 . S
H1064 C1038 0.930 . S
H1065 C1039 0.931 . S
H1066 C1041 0.931 . S
H1067 C1043 0.930 . S
H1068 C1045 0.930 . S
H1069 C1046 0.931 . S
H1070 C1048 0.931 . S
H1071 C1050 0.930 . S
H1072 C1052 0.930 . S
H1073 C1053 0.931 . S
H1074 C1055 0.931 . S
H1075 C1057 0.930 . S
H1076 C1059 0.930 . S
H1077 C1060 0.931 . S
N1078 C1040 1.343 . S
N1078 C1061 1.343 . S
N1079 C1047 1.343 . S
N1079 C1054 1.343 . S
C1080 C1081 1.363 . S
C1080 C1086 1.379 . S
C1080 N1088 1.356 . S
C1081 C1080 1.363 . S
C1081 C1087 1.363 . S
C1082 C1083 1.361 . S
C1082 C1087 1.379 . S
C1082 N1089 1.357 1_655 S
C1083 C1082 1.361 . S
C1083 C1086 1.363 . S
N1084 C1086 1.356 . S
N1084 H1096 0.984 . S
N1084 H1097 0.985 . S
N1085 C1087 1.343 1_455 S
N1085 H1090 0.988 1_455 S
N1085 H1091 0.995 . S
C1086 C1080 1.379 . S
C1086 C1083 1.363 . S
C1086 N1084 1.356 . S
C1087 C1081 1.363 . S
C1087 C1082 1.379 . S
C1087 N1085 1.343 1_655 S
N1088 C1080 1.356 . S
N1088 H1094 0.984 . S
N1088 H1095 0.984 . S
N1089 C1082 1.357 1_455 S
N1089 H1092 0.984 . S
N1089 H1093 0.985 . S
H1090 N1085 0.988 1_655 S
H1091 N1085 0.995 . S
H1092 N1089 0.984 . S
H1093 N1089 0.985 . S
H1094 N1088 0.984 . S
H1095 N1088 0.984 . S
H1096 N1084 0.984 . S
H1097 N1084 0.985 . S
C1098 C1099 1.363 . S
C1098 C1104 1.379 . S
C1098 N1106 1.356 . S
C1099 C1098 1.363 . S
C1099 C1105 1.363 . S
C1100 C1101 1.363 . S
C1100 C1105 1.379 . S
C1100 N1107 1.356 . S
C1101 C1100 1.363 . S
C1101 C1104 1.363 . S
N1102 C1104 1.356 . S
N1102 H1114 0.984 . S
N1102 H1115 0.985 . S
N1103 C1105 1.356 . S
N1103 H1108 0.984 . S
N1103 H1109 0.985 . S
C1104 C1098 1.379 . S
C1104 C1101 1.363 . S
C1104 N1102 1.356 . S
C1105 C1099 1.363 . S
C1105 C1100 1.379 . S
C1105 N1103 1.356 . S
N1106 C1098 1.356 . S
N1106 H1112 0.984 . S
N1106 H1113 0.984 . S
N1107 C1100 1.356 . S
N1107 H1110 0.984 . S
N1107 H1111 0.985 . S
H1108 N1103 0.984 . S
H1109 N1103 0.985 . S
H1110 N1107 0.984 . S
H1111 N1107 0.985 . S
H1112 N1106 0.984 . S
H1113 N1106 0.984 . S
H1114 N1102 0.984 . S
H1115 N1102 0.985 . S
C1116 C1117 1.363 1_565 S
C1116 C1122 1.379 . S
C1116 N1124 1.356 . S
C1117 C1116 1.363 1_545 S
C1117 C1123 1.363 . S
C1118 C1119 1.363 . S
C1118 C1123 1.379 . S
C1118 N1125 1.356 . S
C1119 C1118 1.363 . S
C1119 C1122 1.363 1_545 S
N1120 C1122 1.356 . S
N1120 H1132 0.984 . S
N1120 H1133 0.985 . S
N1121 C1123 1.356 . S
N1121 H1126 0.984 . S
N1121 H1127 0.985 . S
C1122 C1116 1.379 . S
C1122 C1119 1.363 1_565 S
C1122 N1120 1.356 . S
C1123 C1117 1.363 . S
C1123 C1118 1.379 . S
C1123 N1121 1.356 . S
N1124 C1116 1.356 . S
N1124 H1130 0.984 . S
N1124 H1131 0.984 . S
N1125 C1118 1.356 . S
N1125 H1128 0.984 . S
N1125 H1129 0.985 . S
H1126 N1121 0.984 . S
H1127 N1121 0.985 . S
H1128 N1125 0.984 . S
H1129 N1125 0.985 . S
H1130 N1124 0.984 . S
H1131 N1124 0.984 . S
H1132 N1120 0.984 . S
H1133 N1120 0.985 . S
C1134 C1135 1.363 . S
C1134 C1140 1.379 . S
C1134 N1142 1.356 . S
C1135 C1134 1.363 . S
C1135 C1141 1.363 1_565 S
C1136 C1137 1.363 1_545 S
C1136 C1141 1.379 . S
C1136 N1143 1.356 . S
C1137 C1136 1.363 1_565 S
C1137 C1140 1.363 . S
N1138 C1140 1.356 . S
N1138 H1150 0.984 . S
N1138 H1151 0.985 . S
N1139 C1141 1.356 . S
N1139 H1144 0.984 . S
N1139 H1145 0.985 . S
C1140 C1134 1.379 . S
C1140 C1137 1.363 . S
C1140 N1138 1.356 . S
C1141 C1135 1.363 1_545 S
C1141 C1136 1.379 . S
C1141 N1139 1.356 . S
N1142 C1134 1.356 . S
N1142 H1148 0.984 . S
N1142 H1149 0.984 . S
N1143 C1136 1.356 . S
N1143 H1146 0.984 . S
N1143 H1147 0.985 . S
H1144 N1139 0.984 . S
H1145 N1139 0.985 . S
H1146 N1143 0.984 . S
H1147 N1143 0.985 . S
H1148 N1142 0.984 . S
H1149 N1142 0.984 . S
H1150 N1138 0.984 . S
H1151 N1138 0.985 . S
C1152 C1153 1.363 . S
C1152 C1158 1.379 . S
C1152 N1160 1.356 . S
C1153 C1152 1.363 . S
C1153 C1159 1.363 . S
C1154 C1155 1.363 . S
C1154 C1159 1.379 . S
C1154 N1161 1.356 . S
C1155 C1154 1.363 . S
C1155 C1158 1.363 . S
N1156 C1158 1.356 1_655 S
N1156 H1168 0.984 . S
N1156 H1169 0.985 . S
N1157 C1159 1.356 . S
N1157 H1162 0.984 . S
N1157 H1163 0.985 . S
C1158 C1152 1.379 . S
C1158 C1155 1.363 . S
C1158 N1156 1.356 1_455 S
C1159 C1153 1.363 . S
C1159 C1154 1.379 . S
C1159 N1157 1.356 . S
N1160 C1152 1.356 . S
N1160 H1166 0.982 . S
N1160 H1167 0.984 . S
N1161 C1154 1.356 . S
N1161 H1164 0.984 . S
N1161 H1165 0.985 . S
H1162 N1157 0.984 . S
H1163 N1157 0.985 . S
H1164 N1161 0.984 . S
H1165 N1161 0.985 . S
H1166 N1160 0.982 . S
H1167 N1160 0.984 . S
H1168 N1156 0.984 . S
H1169 N1156 0.985 . S
C1170 C1171 1.363 . S
C1170 C1176 1.379 . S
C1170 N1178 1.356 . S
C1171 C1170 1.363 . S
C1171 C1177 1.363 . S
C1172 C1173 1.363 . S
C1172 C1177 1.379 . S
C1172 N1179 1.356 . S
C1173 C1172 1.363 . S
C1173 C1176 1.363 . S
N1174 C1176 1.356 . S
N1174 H1186 0.984 . S
N1174 H1187 0.985 . S
N1175 C1177 1.356 . S
N1175 H1180 0.984 . S
N1175 H1181 0.985 . S
C1176 C1170 1.379 . S
C1176 C1173 1.363 . S
C1176 N1174 1.356 . S
C1177 C1171 1.363 . S
C1177 C1172 1.379 . S
C1177 N1175 1.356 . S
N1178 C1170 1.356 . S
N1178 H1184 0.984 . S
N1178 H1185 0.984 . S
N1179 C1172 1.356 . S
N1179 H1182 0.984 . S
N1179 H1183 0.985 . S
H1180 N1175 0.984 . S
H1181 N1175 0.985 . S
H1182 N1179 0.984 . S
H1183 N1179 0.985 . S
H1184 N1178 0.984 . S
H1185 N1178 0.984 . S
H1186 N1174 0.984 . S
H1187 N1174 0.985 . S
C1188 C1189 1.363 1_655 S
C1188 C1194 1.379 . S
C1188 N1196 1.356 . S
C1189 C1188 1.363 1_455 S
C1189 C1195 1.363 . S
C1190 C1191 1.363 . S
C1190 C1195 1.379 . S
C1190 N1197 1.356 . S
C1191 C1190 1.363 . S
C1191 C1194 1.363 1_455 S
N1192 C1194 1.356 . S
N1192 H1204 0.984 . S
N1192 H1205 0.985 . S
N1193 C1195 1.356 . S
N1193 H1198 0.984 . S
N1193 H1199 0.985 . S
C1194 C1188 1.379 . S
C1194 C1191 1.363 1_655 S
C1194 N1192 1.356 . S
C1195 C1189 1.363 . S
C1195 C1190 1.379 . S
C1195 N1193 1.356 . S
N1196 C1188 1.356 . S
N1196 H1202 0.984 . S
N1196 H1203 0.984 . S
N1197 C1190 1.356 . S
N1197 H1200 0.984 . S
N1197 H1201 0.985 . S
H1198 N1193 0.984 . S
H1199 N1193 0.985 . S
H1200 N1197 0.984 . S
H1201 N1197 0.985 . S
H1202 N1196 0.984 . S
H1203 N1196 0.984 . S
H1204 N1192 0.984 . S
H1205 N1192 0.985 . S
C1206 C1207 1.363 . S
C1206 C1212 1.379 . S
C1206 N1214 1.356 . S
C1207 C1206 1.363 . S
C1207 C1213 1.363 . S
C1208 C1209 1.363 . S
C1208 C1213 1.379 . S
C1208 N1215 1.356 . S
C1209 C1208 1.363 . S
C1209 C1212 1.363 . S
N1210 C1212 1.356 . S
N1210 H1222 0.984 . S
N1210 H1223 0.985 . S
N1211 C1213 1.356 . S
N1211 H1216 0.984 . S
N1211 H1217 0.985 . S
C1212 C1206 1.379 . S
C1212 C1209 1.363 . S
C1212 N1210 1.356 . S
C1213 C1207 1.363 . S
C1213 C1208 1.379 . S
C1213 N1211 1.356 . S
N1214 C1206 1.356 . S
N1214 H1220 0.984 . S
N1214 H1221 0.984 . S
N1215 C1208 1.356 . S
N1215 H1218 0.984 . S
N1215 H1219 0.985 . S
H1216 N1211 0.984 . S
H1217 N1211 0.985 . S
H1218 N1215 0.984 . S
H1219 N1215 0.985 . S
H1220 N1214 0.984 . S
H1221 N1214 0.984 . S
H1222 N1210 0.984 . S
H1223 N1210 0.985 . S
C1224 C1225 1.363 . S
C1224 C1230 1.379 . S
C1224 N1232 1.356 . S
C1225 C1224 1.363 . S
C1225 C1231 1.363 1_565 S
C1226 C1227 1.363 1_545 S
C1226 C1231 1.379 . S
C1226 N1233 1.356 . S
C1227 C1226 1.363 1_565 S
C1227 C1230 1.363 . S
N1228 C1230 1.356 . S
N1228 H1240 0.984 . S
N1228 H1241 0.985 . S
N1229 C1231 1.356 . S
N1229 H1234 0.984 . S
N1229 H1235 0.985 . S
C1230 C1224 1.379 . S
C1230 C1227 1.363 . S
C1230 N1228 1.356 . S
C1231 C1225 1.363 1_545 S
C1231 C1226 1.379 . S
C1231 N1229 1.356 . S
N1232 C1224 1.356 . S
N1232 H1238 0.984 . S
N1232 H1239 0.984 . S
N1233 C1226 1.356 . S
N1233 H1236 0.984 . S
N1233 H1237 0.985 . S
H1234 N1229 0.984 . S
H1235 N1229 0.985 . S
H1236 N1233 0.984 . S
H1237 N1233 0.985 . S
H1238 N1232 0.984 . S
H1239 N1232 0.984 . S
H1240 N1228 0.984 . S
H1241 N1228 0.985 . S
C1242 C1243 1.363 1_565 S
C1242 C1248 1.379 . S
C1242 N1250 1.356 . S
C1243 C1242 1.363 1_545 S
C1243 C1249 1.363 . S
C1244 C1245 1.363 . S
C1244 C1249 1.379 . S
C1244 N1251 1.356 . S
C1245 C1244 1.363 . S
C1245 C1248 1.363 1_545 S
N1246 C1248 1.356 . S
N1246 H1258 0.984 . S
N1246 H1259 0.985 . S
N1247 C1249 1.356 . S
N1247 H1252 0.984 . S
N1247 H1253 0.985 . S
C1248 C1242 1.379 . S
C1248 C1245 1.363 1_565 S
C1248 N1246 1.356 . S
C1249 C1243 1.363 . S
C1249 C1244 1.379 . S
C1249 N1247 1.356 . S
N1250 C1242 1.356 . S
N1250 H1256 0.984 . S
N1250 H1257 0.984 . S
N1251 C1244 1.356 . S
N1251 H1254 0.984 . S
N1251 H1255 0.985 . S
H1252 N1247 0.984 . S
H1253 N1247 0.985 . S
H1254 N1251 0.984 . S
H1255 N1251 0.985 . S
H1256 N1250 0.984 . S
H1257 N1250 0.984 . S
H1258 N1246 0.984 . S
H1259 N1246 0.985 . S
C1260 C1261 1.363 1_455 S
C1260 C1266 1.379 . S
C1260 N1268 1.356 . S
C1261 C1260 1.363 1_655 S
C1261 C1267 1.363 . S
C1262 C1263 1.363 . S
C1262 C1267 1.379 . S
C1262 N1269 1.356 . S
C1263 C1262 1.363 . S
C1263 C1266 1.363 1_655 S
N1264 C1266 1.356 . S
N1264 H1276 0.984 . S
N1264 H1277 0.985 . S
N1265 C1267 1.356 . S
N1265 H1270 0.984 . S
N1265 H1271 0.985 . S
C1266 C1260 1.379 . S
C1266 C1263 1.363 1_455 S
C1266 N1264 1.356 . S
C1267 C1261 1.363 . S
C1267 C1262 1.379 . S
C1267 N1265 1.356 . S
N1268 C1260 1.356 . S
N1268 H1274 0.984 . S
N1268 H1275 0.984 . S
N1269 C1262 1.356 . S
N1269 H1272 0.984 . S
N1269 H1273 0.985 . S
H1270 N1265 0.984 . S
H1271 N1265 0.985 . S
H1272 N1269 0.984 . S
H1273 N1269 0.985 . S
H1274 N1268 0.984 . S
H1275 N1268 0.984 . S
H1276 N1264 0.984 . S
H1277 N1264 0.985 . S
C1278 C1279 1.363 . S
C1278 C1284 1.379 . S
C1278 N1286 1.356 . S
C1279 C1278 1.363 . S
C1279 C1285 1.363 . S
C1280 C1281 1.363 . S
C1280 C1285 1.379 . S
C1280 N1287 1.356 . S
C1281 C1280 1.363 . S
C1281 C1284 1.363 . S
N1282 C1284 1.356 . S
N1282 H1294 0.984 . S
N1282 H1295 0.985 . S
N1283 C1285 1.356 . S
N1283 H1288 0.984 . S
N1283 H1289 0.985 . S
C1284 C1278 1.379 . S
C1284 C1281 1.363 . S
C1284 N1282 1.356 . S
C1285 C1279 1.363 . S
C1285 C1280 1.379 . S
C1285 N1283 1.356 . S
N1286 C1278 1.356 . S
N1286 H1292 0.984 . S
N1286 H1293 0.984 . S
N1287 C1280 1.356 . S
N1287 H1290 0.984 . S
N1287 H1291 0.985 . S
H1288 N1283 0.984 . S
H1289 N1283 0.985 . S
H1290 N1287 0.984 . S
H1291 N1287 0.985 . S
H1292 N1286 0.984 . S
H1293 N1286 0.984 . S
H1294 N1282 0.984 . S
H1295 N1282 0.985 . S
C1296 C1297 1.363 . S
C1296 C1302 1.379 . S
C1296 N1304 1.356 . S
C1297 C1296 1.363 . S
C1297 C1303 1.363 . S
C1298 C1299 1.363 . S
C1298 C1303 1.379 . S
C1298 N1305 1.356 . S
C1299 C1298 1.363 . S
C1299 C1302 1.363 . S
N1300 C1302 1.356 . S
N1300 H1312 0.984 . S
N1300 H1313 0.985 . S
N1301 C1303 1.356 . S
N1301 H1306 0.984 . S
N1301 H1307 0.985 . S
C1302 C1296 1.379 . S
C1302 C1299 1.363 . S
C1302 N1300 1.356 . S
C1303 C1297 1.363 . S
C1303 C1298 1.379 . S
C1303 N1301 1.356 . S
N1304 C1296 1.356 . S
N1304 H1310 0.984 . S
N1304 H1311 0.984 . S
N1305 C1298 1.356 . S
N1305 H1308 0.984 . S
N1305 H1309 0.985 . S
H1306 N1301 0.984 . S
H1307 N1301 0.985 . S
H1308 N1305 0.984 . S
H1309 N1305 0.985 . S
H1310 N1304 0.984 . S
H1311 N1304 0.984 . S
H1312 N1300 0.984 . S
H1313 N1300 0.985 . S
C1314 C1315 1.363 . S
C1314 C1320 1.379 . S
C1314 N1322 1.356 . S
C1315 C1314 1.363 . S
C1315 C1321 1.363 . S
C1316 C1317 1.363 . S
C1316 C1321 1.379 . S
C1316 N1323 1.356 . S
C1317 C1316 1.363 . S
C1317 C1320 1.363 . S
N1318 C1320 1.356 . S
N1318 H1330 0.984 . S
N1318 H1331 0.985 . S
N1319 C1321 1.356 . S
N1319 H1324 0.984 . S
N1319 H1325 0.985 . S
C1320 C1314 1.379 . S
C1320 C1317 1.363 . S
C1320 N1318 1.356 . S
C1321 C1315 1.363 . S
C1321 C1316 1.379 . S
C1321 N1319 1.356 . S
N1322 C1314 1.356 . S
N1322 H1328 0.984 . S
N1322 H1329 0.984 . S
N1323 C1316 1.356 . S
N1323 H1326 0.984 . S
N1323 H1327 0.985 . S
H1324 N1319 0.984 . S
H1325 N1319 0.985 . S
H1326 N1323 0.984 . S
H1327 N1323 0.985 . S
H1328 N1322 0.984 . S
H1329 N1322 0.984 . S
H1330 N1318 0.984 . S
H1331 N1318 0.985 . S
C1332 C1333 1.363 . S
C1332 C1338 1.379 . S
C1332 N1340 1.356 . S
C1333 C1332 1.363 . S
C1333 C1339 1.363 . S
C1334 C1335 1.363 . S
C1334 C1339 1.379 . S
C1334 N1341 1.356 . S
C1335 C1334 1.363 . S
C1335 C1338 1.363 . S
N1336 C1338 1.356 . S
N1336 H1348 0.984 . S
N1336 H1349 0.985 . S
N1337 C1339 1.356 . S
N1337 H1342 0.984 . S
N1337 H1343 0.985 . S
C1338 C1332 1.379 . S
C1338 C1335 1.363 . S
C1338 N1336 1.356 . S
C1339 C1333 1.363 . S
C1339 C1334 1.379 . S
C1339 N1337 1.356 . S
N1340 C1332 1.356 . S
N1340 H1346 0.984 . S
N1340 H1347 0.984 . S
N1341 C1334 1.356 . S
N1341 H1344 0.984 . S
N1341 H1345 0.985 . S
H1342 N1337 0.984 . S
H1343 N1337 0.985 . S
H1344 N1341 0.984 . S
H1345 N1341 0.985 . S
H1346 N1340 0.984 . S
H1347 N1340 0.984 . S
H1348 N1336 0.984 . S
H1349 N1336 0.985 . S
C1350 C1351 1.363 . S
C1350 C1356 1.379 . S
C1350 N1358 1.356 . S
C1351 C1350 1.363 . S
C1351 C1357 1.363 . S
C1352 C1353 1.363 . S
C1352 C1357 1.379 . S
C1352 N1359 1.356 . S
C1353 C1352 1.363 . S
C1353 C1356 1.363 . S
N1354 C1356 1.356 . S
N1354 H1366 0.984 . S
N1354 H1367 0.985 . S
N1355 C1357 1.356 . S
N1355 H1360 0.984 . S
N1355 H1361 0.985 . S
C1356 C1350 1.379 . S
C1356 C1353 1.363 . S
C1356 N1354 1.356 . S
C1357 C1351 1.363 . S
C1357 C1352 1.379 . S
C1357 N1355 1.356 . S
N1358 C1350 1.356 . S
N1358 H1364 0.984 . S
N1358 H1365 0.984 . S
N1359 C1352 1.356 . S
N1359 H1362 0.984 . S
N1359 H1363 0.985 . S
H1360 N1355 0.984 . S
H1361 N1355 0.985 . S
H1362 N1359 0.984 . S
H1363 N1359 0.985 . S
H1364 N1358 0.984 . S
H1365 N1358 0.984 . S
H1366 N1354 0.984 . S
H1367 N1354 0.985 . S
C1368 C1369 1.363 . S
C1368 C1374 1.379 . S
C1368 N1376 1.356 . S
C1369 C1368 1.363 . S
C1369 C1375 1.363 . S
C1370 C1371 1.363 . S
C1370 C1375 1.379 . S
C1370 N1377 1.356 . S
C1371 C1370 1.363 . S
C1371 C1374 1.363 . S
N1372 C1374 1.356 . S
N1372 H1384 0.984 . S
N1372 H1385 0.985 . S
N1373 C1375 1.356 . S
N1373 H1378 0.984 . S
N1373 H1379 0.985 . S
C1374 C1368 1.379 . S
C1374 C1371 1.363 . S
C1374 N1372 1.356 . S
C1375 C1369 1.363 . S
C1375 C1370 1.379 . S
C1375 N1373 1.356 . S
N1376 C1368 1.356 . S
N1376 H1382 0.984 . S
N1376 H1383 0.984 . S
N1377 C1370 1.356 . S
N1377 H1380 0.984 . S
N1377 H1381 0.985 . S
H1378 N1373 0.984 . S
H1379 N1373 0.985 . S
H1380 N1377 0.984 . S
H1381 N1377 0.985 . S
H1382 N1376 0.984 . S
H1383 N1376 0.984 . S
H1384 N1372 0.984 . S
H1385 N1372 0.985 . S
C1386 C1387 1.363 . S
C1386 C1392 1.379 . S
C1386 N1394 1.356 . S
C1387 C1386 1.363 . S
C1387 C1393 1.363 . S
C1388 C1389 1.363 . S
C1388 C1393 1.379 . S
C1388 N1395 1.356 . S
C1389 C1388 1.363 . S
C1389 C1392 1.363 . S
N1390 C1392 1.356 . S
N1390 H1402 0.984 . S
N1390 H1403 0.985 . S
N1391 C1393 1.356 . S
N1391 H1396 0.984 . S
N1391 H1397 0.985 . S
C1392 C1386 1.379 . S
C1392 C1389 1.363 . S
C1392 N1390 1.356 . S
C1393 C1387 1.363 . S
C1393 C1388 1.379 . S
C1393 N1391 1.356 . S
N1394 C1386 1.356 . S
N1394 H1400 0.984 1_565 S
N1394 H1401 0.984 . S
N1395 C1388 1.356 . S
N1395 H1398 0.984 . S
N1395 H1399 0.985 . S
H1396 N1391 0.984 . S
H1397 N1391 0.985 . S
H1398 N1395 0.984 . S
H1399 N1395 0.985 . S
H1400 N1394 0.984 1_545 S
H1401 N1394 0.984 . S
H1402 N1390 0.984 . S
H1403 N1390 0.985 . S
C1404 C1405 1.363 . S
C1404 C1410 1.379 . S
C1404 N1412 1.356 . S
C1405 C1404 1.363 . S
C1405 C1411 1.363 . S
C1406 C1407 1.363 . S
C1406 C1411 1.379 . S
C1406 N1413 1.356 . S
C1407 C1406 1.363 . S
C1407 C1410 1.363 . S
N1408 C1410 1.356 . S
N1408 H1420 0.984 . S
N1408 H1421 0.985 . S
N1409 C1411 1.356 . S
N1409 H1414 0.984 . S
N1409 H1415 0.985 . S
C1410 C1404 1.379 . S
C1410 C1407 1.363 . S
C1410 N1408 1.356 . S
C1411 C1405 1.363 . S
C1411 C1406 1.379 . S
C1411 N1409 1.356 . S
N1412 C1404 1.356 . S
N1412 H1418 0.984 . S
N1412 H1419 0.984 . S
N1413 C1406 1.356 . S
N1413 H1416 0.984 . S
N1413 H1417 0.985 . S
H1414 N1409 0.984 . S
H1415 N1409 0.985 . S
H1416 N1413 0.984 . S
H1417 N1413 0.985 . S
H1418 N1412 0.984 . S
H1419 N1412 0.984 . S
H1420 N1408 0.984 . S
H1421 N1408 0.985 . S
C1422 C1423 1.363 . S
C1422 C1428 1.379 . S
C1422 N1430 1.356 . S
C1423 C1422 1.363 . S
C1423 C1429 1.363 . S
C1424 C1425 1.363 . S
C1424 C1429 1.379 . S
C1424 N1431 1.356 . S
C1425 C1424 1.363 . S
C1425 C1428 1.363 . S
N1426 C1428 1.356 . S
N1426 H1438 0.984 . S
N1426 H1439 0.985 . S
N1427 C1429 1.356 . S
N1427 H1432 0.984 . S
N1427 H1433 0.985 . S
C1428 C1422 1.379 . S
C1428 C1425 1.363 . S
C1428 N1426 1.356 . S
C1429 C1423 1.363 . S
C1429 C1424 1.379 . S
C1429 N1427 1.356 . S
N1430 C1422 1.356 . S
N1430 H1436 0.941 1_455 S
N1430 H1437 0.984 . S
N1431 C1424 1.356 . S
N1431 H1434 0.984 . S
N1431 H1435 0.985 . S
H1432 N1427 0.984 . S
H1433 N1427 0.985 . S
H1434 N1431 0.984 . S
H1435 N1431 0.985 . S
H1436 N1430 0.941 1_655 S
H1437 N1430 0.984 . S
H1438 N1426 0.984 . S
H1439 N1426 0.985 . S
C1440 C1441 1.363 . S
C1440 C1446 1.379 . S
C1440 N1448 1.356 . S
C1441 C1440 1.363 . S
C1441 C1447 1.363 . S
C1442 C1443 1.363 . S
C1442 C1447 1.379 . S
C1442 N1449 1.356 . S
C1443 C1442 1.363 . S
C1443 C1446 1.363 . S
N1444 C1446 1.356 . S
N1444 H1456 0.984 . S
N1444 H1457 0.985 . S
N1445 C1447 1.356 . S
N1445 H1450 0.984 . S
N1445 H1451 0.985 . S
C1446 C1440 1.379 . S
C1446 C1443 1.363 . S
C1446 N1444 1.356 . S
C1447 C1441 1.363 . S
C1447 C1442 1.379 . S
C1447 N1445 1.356 . S
N1448 C1440 1.356 . S
N1448 H1454 0.984 . S
N1448 H1455 0.984 . S
N1449 C1442 1.356 . S
N1449 H1452 0.984 . S
N1449 H1453 0.985 . S
H1450 N1445 0.984 . S
H1451 N1445 0.985 . S
H1452 N1449 0.984 . S
H1453 N1449 0.985 . S
H1454 N1448 0.984 . S
H1455 N1448 0.984 . S
H1456 N1444 0.984 . S
H1457 N1444 0.985 . S
C1458 C1459 1.363 . S
C1458 C1464 1.379 . S
C1458 N1466 1.356 . S
C1459 C1458 1.363 . S
C1459 C1465 1.363 . S
C1460 C1461 1.363 . S
C1460 C1465 1.379 . S
C1460 N1467 1.356 . S
C1461 C1460 1.363 . S
C1461 C1464 1.363 . S
N1462 C1464 1.356 . S
N1462 H1474 0.984 . S
N1462 H1475 0.985 . S
N1463 C1465 1.356 . S
N1463 H1468 0.984 . S
N1463 H1469 0.985 . S
C1464 C1458 1.379 . S
C1464 C1461 1.363 . S
C1464 N1462 1.356 . S
C1465 C1459 1.363 . S
C1465 C1460 1.379 . S
C1465 N1463 1.356 . S
N1466 C1458 1.356 . S
N1466 H1472 0.984 . S
N1466 H1473 0.984 . S
N1467 C1460 1.356 . S
N1467 H1470 0.984 . S
N1467 H1471 0.985 . S
H1468 N1463 0.984 . S
H1469 N1463 0.985 . S
H1470 N1467 0.984 . S
H1471 N1467 0.985 . S
H1472 N1466 0.984 . S
H1473 N1466 0.984 . S
H1474 N1462 0.984 . S
H1475 N1462 0.985 . S
C1476 C1477 1.363 . S
C1476 C1482 1.379 . S
C1476 N1484 1.356 . S
C1477 C1476 1.363 . S
C1477 C1483 1.363 . S
C1478 C1479 1.363 . S
C1478 C1483 1.379 . S
C1478 N1485 1.356 . S
C1479 C1478 1.363 . S
C1479 C1482 1.363 . S
N1480 C1482 1.356 . S
N1480 H1492 0.984 . S
N1480 H1493 0.985 . S
N1481 C1483 1.356 . S
N1481 H1486 0.984 . S
N1481 H1487 0.985 . S
C1482 C1476 1.379 . S
C1482 C1479 1.363 . S
C1482 N1480 1.356 . S
C1483 C1477 1.363 . S
C1483 C1478 1.379 . S
C1483 N1481 1.356 . S
N1484 C1476 1.356 . S
N1484 H1490 0.984 . S
N1484 H1491 0.984 . S
N1485 C1478 1.356 . S
N1485 H1488 0.984 . S
N1485 H1489 0.985 . S
H1486 N1481 0.984 . S
H1487 N1481 0.985 . S
H1488 N1485 0.984 . S
H1489 N1485 0.985 . S
H1490 N1484 0.984 . S
H1491 N1484 0.984 . S
H1492 N1480 0.984 . S
H1493 N1480 0.985 . S
C1494 C1495 1.363 . S
C1494 C1500 1.379 . S
C1494 N1502 1.356 . S
C1495 C1494 1.363 . S
C1495 C1501 1.363 . S
C1496 C1497 1.363 . S
C1496 C1501 1.379 . S
C1496 N1503 1.356 . S
C1497 C1496 1.363 . S
C1497 C1500 1.363 . S
N1498 C1500 1.356 . S
N1498 H1510 0.984 . S
N1498 H1511 0.985 . S
N1499 C1501 1.356 . S
N1499 H1504 0.984 . S
N1499 H1505 0.985 . S
C1500 C1494 1.379 . S
C1500 C1497 1.363 . S
C1500 N1498 1.356 . S
C1501 C1495 1.363 . S
C1501 C1496 1.379 . S
C1501 N1499 1.356 . S
N1502 C1494 1.356 . S
N1502 H1508 0.984 . S
N1502 H1509 0.984 . S
N1503 C1496 1.356 . S
N1503 H1506 0.984 . S
N1503 H1507 0.985 . S
H1504 N1499 0.984 . S
H1505 N1499 0.985 . S
H1506 N1503 0.984 . S
H1507 N1503 0.985 . S
H1508 N1502 0.984 . S
H1509 N1502 0.984 . S
H1510 N1498 0.984 . S
H1511 N1498 0.985 . S
C1512 C1513 1.363 . S
C1512 C1518 1.379 . S
C1512 N1520 1.356 . S
C1513 C1512 1.363 . S
C1513 C1519 1.363 . S
C1514 C1515 1.363 . S
C1514 C1519 1.379 . S
C1514 N1521 1.356 . S
C1515 C1514 1.363 . S
C1515 C1518 1.363 . S
N1516 C1518 1.356 . S
N1516 H1528 0.984 . S
N1516 H1529 0.985 . S
N1517 C1519 1.356 . S
N1517 H1522 0.984 . S
N1517 H1523 0.985 . S
C1518 C1512 1.379 . S
C1518 C1515 1.363 . S
C1518 N1516 1.356 . S
C1519 C1513 1.363 . S
C1519 C1514 1.379 . S
C1519 N1517 1.356 . S
N1520 C1512 1.356 . S
N1520 H1526 0.984 . S
N1520 H1527 0.984 . S
N1521 C1514 1.356 . S
N1521 H1524 0.984 . S
N1521 H1525 0.985 . S
H1522 N1517 0.984 . S
H1523 N1517 0.985 . S
H1524 N1521 0.984 . S
H1525 N1521 0.985 . S
H1526 N1520 0.984 . S
H1527 N1520 0.984 . S
H1528 N1516 0.984 . S
H1529 N1516 0.985 . S
C1530 C1531 1.363 . S
C1530 C1536 1.379 . S
C1530 N1538 1.356 . S
C1531 C1530 1.363 . S
C1531 C1537 1.363 . S
C1532 C1533 1.363 . S
C1532 C1537 1.379 . S
C1532 N1539 1.356 . S
C1533 C1532 1.363 . S
C1533 C1536 1.363 . S
N1534 C1536 1.356 . S
N1534 H1546 0.984 . S
N1534 H1547 0.985 . S
N1535 C1537 1.356 . S
N1535 H1540 0.984 . S
N1535 H1541 0.985 1_655 S
C1536 C1530 1.379 . S
C1536 C1533 1.363 . S
C1536 N1534 1.356 . S
C1537 C1531 1.363 . S
C1537 C1532 1.379 . S
C1537 N1535 1.356 . S
N1538 C1530 1.356 . S
N1538 H1544 0.984 . S
N1538 H1545 0.984 . S
N1539 C1532 1.356 . S
N1539 H1542 0.984 . S
N1539 H1543 0.985 . S
H1540 N1535 0.984 . S
H1541 N1535 0.985 1_455 S
H1542 N1539 0.984 . S
H1543 N1539 0.985 . S
H1544 N1538 0.984 . S
H1545 N1538 0.984 . S
H1546 N1534 0.984 . S
H1547 N1534 0.985 . S
C1548 C1549 1.363 . S
C1548 C1554 1.379 . S
C1548 N1556 1.356 . S
C1549 C1548 1.363 . S
C1549 C1555 1.363 . S
C1550 C1551 1.363 . S
C1550 C1555 1.379 . S
C1550 N1557 1.356 . S
C1551 C1550 1.363 . S
C1551 C1554 1.363 . S
N1552 C1554 1.356 . S
N1552 H1564 0.984 . S
N1552 H1565 0.985 . S
N1553 C1555 1.356 . S
N1553 H1558 0.984 . S
N1553 H1559 0.985 . S
C1554 C1548 1.379 . S
C1554 C1551 1.363 . S
C1554 N1552 1.356 . S
C1555 C1549 1.363 . S
C1555 C1550 1.379 . S
C1555 N1553 1.356 . S
N1556 C1548 1.356 . S
N1556 H1562 0.984 . S
N1556 H1563 0.984 . S
N1557 C1550 1.356 . S
N1557 H1560 0.984 . S
N1557 H1561 0.985 . S
H1558 N1553 0.984 . S
H1559 N1553 0.985 . S
H1560 N1557 0.984 . S
H1561 N1557 0.985 . S
H1562 N1556 0.984 . S
H1563 N1556 0.984 . S
H1564 N1552 0.984 . S
H1565 N1552 0.985 . S
C1566 C1567 1.363 . S
C1566 C1572 1.379 . S
C1566 N1574 1.356 . S
C1567 C1566 1.363 . S
C1567 C1573 1.363 . S
C1568 C1569 1.363 . S
C1568 C1573 1.379 . S
C1568 N1575 1.356 . S
C1569 C1568 1.363 . S
C1569 C1572 1.363 . S
N1570 C1572 1.356 . S
N1570 H1582 0.984 . S
N1570 H1583 0.985 . S
N1571 C1573 1.356 . S
N1571 H1576 0.984 . S
N1571 H1577 0.985 . S
C1572 C1566 1.379 . S
C1572 C1569 1.363 . S
C1572 N1570 1.356 . S
C1573 C1567 1.363 . S
C1573 C1568 1.379 . S
C1573 N1571 1.356 . S
N1574 C1566 1.356 . S
N1574 H1580 0.984 . S
N1574 H1581 0.984 . S
N1575 C1568 1.356 . S
N1575 H1578 0.984 . S
N1575 H1579 0.985 . S
H1576 N1571 0.984 . S
H1577 N1571 0.985 . S
H1578 N1575 0.984 . S
H1579 N1575 0.985 . S
H1580 N1574 0.984 . S
H1581 N1574 0.984 . S
H1582 N1570 0.984 . S
H1583 N1570 0.985 . S
C1584 C1585 1.363 . S
C1584 C1590 1.379 . S
C1584 N1592 1.356 . S
C1585 C1584 1.363 . S
C1585 C1591 1.363 . S
C1586 C1587 1.363 . S
C1586 C1591 1.379 . S
C1586 N1593 1.356 . S
C1587 C1586 1.363 . S
C1587 C1590 1.363 . S
N1588 C1590 1.356 . S
N1588 H1600 0.984 . S
N1588 H1601 0.985 . S
N1589 C1591 1.356 . S
N1589 H1594 0.984 . S
N1589 H1595 0.985 . S
C1590 C1584 1.379 . S
C1590 C1587 1.363 . S
C1590 N1588 1.356 . S
C1591 C1585 1.363 . S
C1591 C1586 1.379 . S
C1591 N1589 1.356 . S
N1592 C1584 1.356 . S
N1592 H1598 0.984 . S
N1592 H1599 0.984 . S
N1593 C1586 1.356 . S
N1593 H1596 0.984 . S
N1593 H1597 0.985 . S
H1594 N1589 0.984 . S
H1595 N1589 0.985 . S
H1596 N1593 0.984 . S
H1597 N1593 0.985 . S
H1598 N1592 0.984 . S
H1599 N1592 0.984 . S
H1600 N1588 0.984 . S
H1601 N1588 0.985 . S
C1602 C1603 1.363 . S
C1602 C1608 1.379 . S
C1602 N1610 1.356 . S
C1603 C1602 1.363 . S
C1603 C1609 1.363 . S
C1604 C1605 1.363 . S
C1604 C1609 1.379 . S
C1604 N1611 1.356 . S
C1605 C1604 1.363 . S
C1605 C1608 1.363 . S
N1606 C1608 1.356 . S
N1606 H1618 0.984 . S
N1606 H1619 0.985 . S
N1607 C1609 1.356 . S
N1607 H1612 0.984 . S
N1607 H1613 0.985 . S
C1608 C1602 1.379 . S
C1608 C1605 1.363 . S
C1608 N1606 1.356 . S
C1609 C1603 1.363 . S
C1609 C1604 1.379 . S
C1609 N1607 1.356 . S
N1610 C1602 1.356 . S
N1610 H1616 0.984 . S
N1610 H1617 0.984 . S
N1611 C1604 1.356 . S
N1611 H1614 0.984 . S
N1611 H1615 0.985 . S
H1612 N1607 0.984 . S
H1613 N1607 0.985 . S
H1614 N1611 0.984 . S
H1615 N1611 0.985 . S
H1616 N1610 0.984 . S
H1617 N1610 0.984 . S
H1618 N1606 0.984 . S
H1619 N1606 0.985 . S
C1620 C1621 1.363 . S
C1620 C1626 1.379 . S
C1620 N1628 1.356 . S
C1621 C1620 1.363 . S
C1621 C1627 1.363 . S
C1622 C1623 1.363 . S
C1622 C1627 1.379 . S
C1622 N1629 1.356 . S
C1623 C1622 1.363 . S
C1623 C1626 1.363 . S
N1624 C1626 1.356 . S
N1624 H1636 0.984 . S
N1624 H1637 0.985 . S
N1625 C1627 1.356 . S
N1625 H1630 0.984 . S
N1625 H1631 0.985 . S
C1626 C1620 1.379 . S
C1626 C1623 1.363 . S
C1626 N1624 1.356 . S
C1627 C1621 1.363 . S
C1627 C1622 1.379 . S
C1627 N1625 1.356 . S
N1628 C1620 1.356 . S
N1628 H1634 0.984 . S
N1628 H1635 0.984 . S
N1629 C1622 1.356 . S
N1629 H1632 0.984 . S
N1629 H1633 0.985 . S
H1630 N1625 0.984 . S
H1631 N1625 0.985 . S
H1632 N1629 0.984 . S
H1633 N1629 0.985 . S
H1634 N1628 0.984 . S
H1635 N1628 0.984 . S
H1636 N1624 0.984 . S
H1637 N1624 0.985 . S
C1638 C1639 1.363 . S
C1638 C1644 1.379 . S
C1638 N1646 1.356 . S
C1639 C1638 1.363 . S
C1639 C1645 1.363 . S
C1640 C1641 1.363 . S
C1640 C1645 1.379 . S
C1640 N1647 1.356 . S
C1641 C1640 1.363 . S
C1641 C1644 1.363 . S
N1642 C1644 1.356 . S
N1642 H1654 0.984 . S
N1642 H1655 0.985 . S
N1643 C1645 1.356 . S
N1643 H1648 0.984 . S
N1643 H1649 0.985 . S
C1644 C1638 1.379 . S
C1644 C1641 1.363 . S
C1644 N1642 1.356 . S
C1645 C1639 1.363 . S
C1645 C1640 1.379 . S
C1645 N1643 1.356 . S
N1646 C1638 1.356 . S
N1646 H1652 0.984 . S
N1646 H1653 0.984 . S
N1647 C1640 1.356 . S
N1647 H1650 0.984 . S
N1647 H1651 0.985 . S
H1648 N1643 0.984 . S
H1649 N1643 0.985 . S
H1650 N1647 0.984 . S
H1651 N1647 0.985 . S
H1652 N1646 0.984 . S
H1653 N1646 0.984 . S
H1654 N1642 0.984 . S
H1655 N1642 0.985 . S
C1656 C1657 1.363 . S
C1656 C1662 1.379 . S
C1656 N1664 1.356 . S
C1657 C1656 1.363 . S
C1657 C1663 1.363 . S
C1658 C1659 1.363 . S
C1658 C1663 1.379 . S
C1658 N1665 1.356 . S
C1659 C1658 1.363 . S
C1659 C1662 1.363 . S
N1660 C1662 1.356 . S
N1660 H1672 0.984 . S
N1660 H1673 0.985 . S
N1661 C1663 1.356 . S
N1661 H1666 0.984 . S
N1661 H1667 0.985 . S
C1662 C1656 1.379 . S
C1662 C1659 1.363 . S
C1662 N1660 1.356 . S
C1663 C1657 1.363 . S
C1663 C1658 1.379 . S
C1663 N1661 1.356 . S
N1664 C1656 1.356 . S
N1664 H1670 0.984 . S
N1664 H1671 0.984 . S
N1665 C1658 1.356 . S
N1665 H1668 0.984 . S
N1665 H1669 0.985 . S
H1666 N1661 0.984 . S
H1667 N1661 0.985 . S
H1668 N1665 0.984 . S
H1669 N1665 0.985 . S
H1670 N1664 0.984 . S
H1671 N1664 0.984 . S
H1672 N1660 0.984 . S
H1673 N1660 0.985 . S
C1674 C1675 1.363 . S
C1674 C1680 1.379 . S
C1674 N1682 1.356 . S
C1675 C1674 1.363 . S
C1675 C1681 1.363 . S
C1676 C1677 1.363 . S
C1676 C1681 1.379 . S
C1676 N1683 1.356 . S
C1677 C1676 1.363 . S
C1677 C1680 1.363 . S
N1678 C1680 1.356 . S
N1678 H1690 0.984 . S
N1678 H1691 0.985 . S
N1679 C1681 1.356 . S
N1679 H1684 0.984 . S
N1679 H1685 0.985 . S
C1680 C1674 1.379 . S
C1680 C1677 1.363 . S
C1680 N1678 1.356 . S
C1681 C1675 1.363 . S
C1681 C1676 1.379 . S
C1681 N1679 1.356 . S
N1682 C1674 1.356 . S
N1682 H1688 0.984 . S
N1682 H1689 0.984 . S
N1683 C1676 1.356 . S
N1683 H1686 0.984 . S
N1683 H1687 0.985 . S
H1684 N1679 0.984 . S
H1685 N1679 0.985 . S
H1686 N1683 0.984 . S
H1687 N1683 0.985 . S
H1688 N1682 0.984 . S
H1689 N1682 0.984 . S
H1690 N1678 0.984 . S
H1691 N1678 0.985 . S
C1692 C1693 1.363 . S
C1692 C1698 1.379 . S
C1692 N1700 1.356 . S
C1693 C1692 1.363 . S
C1693 C1699 1.363 . S
C1694 C1695 1.363 . S
C1694 C1699 1.379 . S
C1694 N1701 1.356 . S
C1695 C1694 1.363 . S
C1695 C1698 1.363 . S
N1696 C1698 1.356 . S
N1696 H1708 0.984 . S
N1696 H1709 0.985 . S
N1697 C1699 1.356 . S
N1697 H1702 0.984 . S
N1697 H1703 0.985 . S
C1698 C1692 1.379 . S
C1698 C1695 1.363 . S
C1698 N1696 1.356 . S
C1699 C1693 1.363 . S
C1699 C1694 1.379 . S
C1699 N1697 1.356 . S
N1700 C1692 1.356 . S
N1700 H1706 0.984 . S
N1700 H1707 0.984 . S
N1701 C1694 1.356 . S
N1701 H1704 0.984 . S
N1701 H1705 0.985 . S
H1702 N1697 0.984 . S
H1703 N1697 0.985 . S
H1704 N1701 0.984 . S
H1705 N1701 0.985 . S
H1706 N1700 0.984 . S
H1707 N1700 0.984 . S
H1708 N1696 0.984 . S
H1709 N1696 0.985 . S
C1710 C1711 1.363 . S
C1710 C1716 1.379 . S
C1710 N1718 1.356 . S
C1711 C1710 1.363 . S
C1711 C1717 1.363 . S
C1712 C1713 1.363 . S
C1712 C1717 1.379 . S
C1712 N1719 1.356 . S
C1713 C1712 1.363 . S
C1713 C1716 1.363 . S
N1714 C1716 1.356 . S
N1714 H1726 0.984 . S
N1714 H1727 0.985 . S
N1715 C1717 1.356 . S
N1715 H1720 0.984 . S
N1715 H1721 0.985 . S
C1716 C1710 1.379 . S
C1716 C1713 1.363 . S
C1716 N1714 1.356 . S
C1717 C1711 1.363 . S
C1717 C1712 1.379 . S
C1717 N1715 1.356 . S
N1718 C1710 1.356 . S
N1718 H1724 0.984 . S
N1718 H1725 0.984 . S
N1719 C1712 1.356 . S
N1719 H1722 0.984 . S
N1719 H1723 0.985 . S
H1720 N1715 0.984 . S
H1721 N1715 0.985 . S
H1722 N1719 0.984 . S
H1723 N1719 0.985 . S
H1724 N1718 0.984 . S
H1725 N1718 0.984 . S
H1726 N1714 0.984 . S
H1727 N1714 0.985 . S
C1728 C1729 1.363 . S
C1728 C1734 1.379 . S
C1728 N1736 1.356 . S
C1729 C1728 1.363 . S
C1729 C1735 1.363 . S
C1730 C1731 1.363 . S
C1730 C1735 1.379 . S
C1730 N1737 1.356 . S
C1731 C1730 1.363 . S
C1731 C1734 1.363 . S
N1732 C1734 1.356 . S
N1732 H1744 0.984 . S
N1732 H1745 0.985 . S
N1733 C1735 1.356 . S
N1733 H1738 0.984 . S
N1733 H1739 0.985 . S
C1734 C1728 1.379 . S
C1734 C1731 1.363 . S
C1734 N1732 1.356 . S
C1735 C1729 1.363 . S
C1735 C1730 1.379 . S
C1735 N1733 1.356 . S
N1736 C1728 1.356 . S
N1736 H1742 0.984 . S
N1736 H1743 0.984 . S
N1737 C1730 1.356 . S
N1737 H1740 0.984 . S
N1737 H1741 0.985 . S
H1738 N1733 0.984 . S
H1739 N1733 0.985 . S
H1740 N1737 0.984 . S
H1741 N1737 0.985 . S
H1742 N1736 0.984 . S
H1743 N1736 0.984 . S
H1744 N1732 0.984 . S
H1745 N1732 0.985 . S
C1746 C1747 1.363 . S
C1746 C1752 1.379 . S
C1746 N1754 1.356 . S
C1747 C1746 1.363 . S
C1747 C1753 1.363 . S
C1748 C1749 1.363 . S
C1748 C1753 1.379 . S
C1748 N1755 1.356 . S
C1749 C1748 1.363 . S
C1749 C1752 1.363 . S
N1750 C1752 1.356 . S
N1750 H1762 0.984 . S
N1750 H1763 0.985 . S
N1751 C1753 1.356 . S
N1751 H1756 0.984 . S
N1751 H1757 0.985 . S
C1752 C1746 1.379 . S
C1752 C1749 1.363 . S
C1752 N1750 1.356 . S
C1753 C1747 1.363 . S
C1753 C1748 1.379 . S
C1753 N1751 1.356 . S
N1754 C1746 1.356 . S
N1754 H1760 0.984 1_554 S
N1754 H1761 0.984 . S
N1755 C1748 1.356 . S
N1755 H1758 0.984 . S
N1755 H1759 0.985 . S
H1756 N1751 0.984 . S
H1757 N1751 0.985 . S
H1758 N1755 0.984 . S
H1759 N1755 0.985 . S
H1760 N1754 0.984 1_556 S
H1761 N1754 0.984 . S
H1762 N1750 0.984 . S
H1763 N1750 0.985 . S
C1764 C1765 1.363 . S
C1764 C1770 1.379 . S
C1764 N1772 1.356 . S
C1765 C1764 1.363 . S
C1765 C1771 1.363 . S
C1766 C1767 1.363 . S
C1766 C1771 1.379 . S
C1766 N1773 1.356 . S
C1767 C1766 1.363 . S
C1767 C1770 1.363 . S
N1768 C1770 1.356 . S
N1768 H1780 0.984 . S
N1768 H1781 0.985 . S
N1769 C1771 1.356 . S
N1769 H1774 0.984 . S
N1769 H1775 0.985 1_565 S
C1770 C1764 1.379 . S
C1770 C1767 1.363 . S
C1770 N1768 1.356 . S
C1771 C1765 1.363 . S
C1771 C1766 1.379 . S
C1771 N1769 1.356 . S
N1772 C1764 1.356 . S
N1772 H1778 0.984 . S
N1772 H1779 0.984 . S
N1773 C1766 1.356 . S
N1773 H1776 0.984 . S
N1773 H1777 0.985 . S
H1774 N1769 0.984 . S
H1775 N1769 0.985 1_545 S
H1776 N1773 0.984 . S
H1777 N1773 0.985 . S
H1778 N1772 0.984 . S
H1779 N1772 0.984 . S
H1780 N1768 0.984 . S
H1781 N1768 0.985 . S
C1782 C1783 1.363 . S
C1782 C1788 1.379 . S
C1782 N1790 1.356 . S
C1783 C1782 1.363 . S
C1783 C1789 1.363 . S
C1784 C1785 1.363 . S
C1784 C1789 1.379 . S
C1784 N1791 1.356 . S
C1785 C1784 1.363 . S
C1785 C1788 1.363 . S
N1786 C1788 1.356 . S
N1786 H1798 0.984 . S
N1786 H1799 0.985 . S
N1787 C1789 1.356 . S
N1787 H1792 0.984 . S
N1787 H1793 0.985 . S
C1788 C1782 1.379 . S
C1788 C1785 1.363 . S
C1788 N1786 1.356 . S
C1789 C1783 1.363 . S
C1789 C1784 1.379 . S
C1789 N1787 1.356 . S
N1790 C1782 1.356 . S
N1790 H1796 0.984 . S
N1790 H1797 0.984 . S
N1791 C1784 1.356 . S
N1791 H1794 0.984 . S
N1791 H1795 0.985 . S
H1792 N1787 0.984 . S
H1793 N1787 0.985 . S
H1794 N1791 0.984 . S
H1795 N1791 0.985 . S
H1796 N1790 0.984 . S
H1797 N1790 0.984 . S
H1798 N1786 0.984 . S
H1799 N1786 0.985 . S
C1800 C1801 1.363 . S
C1800 C1806 1.379 . S
C1800 N1808 1.356 . S
C1801 C1800 1.363 . S
C1801 C1807 1.363 . S
C1802 C1803 1.363 . S
C1802 C1807 1.379 . S
C1802 N1809 1.356 . S
C1803 C1802 1.363 . S
C1803 C1806 1.363 . S
N1804 C1806 1.356 . S
N1804 H1816 0.984 . S
N1804 H1817 0.985 . S
N1805 C1807 1.356 1_554 S
N1805 H1810 0.984 . S
N1805 H1811 0.985 . S
C1806 C1800 1.379 . S
C1806 C1803 1.363 . S
C1806 N1804 1.356 . S
C1807 C1801 1.363 . S
C1807 C1802 1.379 . S
C1807 N1805 1.356 1_556 S
N1808 C1800 1.356 . S
N1808 H1814 0.984 . S
N1808 H1815 0.984 . S
N1809 C1802 1.356 . S
N1809 H1812 0.984 . S
N1809 H1813 0.985 . S
H1810 N1805 0.984 . S
H1811 N1805 0.985 . S
H1812 N1809 0.984 . S
H1813 N1809 0.985 . S
H1814 N1808 0.984 . S
H1815 N1808 0.984 . S
H1816 N1804 0.984 . S
H1817 N1804 0.985 . S
C1818 C1819 1.363 . S
C1818 C1824 1.379 . S
C1818 N1826 1.356 . S
C1819 C1818 1.363 . S
C1819 C1825 1.363 . S
C1820 C1821 1.363 . S
C1820 C1825 1.379 . S
C1820 N1827 1.356 . S
C1821 C1820 1.363 . S
C1821 C1824 1.363 . S
N1822 C1824 1.356 . S
N1822 H1834 0.984 . S
N1822 H1835 0.985 . S
N1823 C1825 1.356 . S
N1823 H1828 0.984 1_556 S
N1823 H1829 0.985 1_556 S
C1824 C1818 1.379 . S
C1824 C1821 1.363 . S
C1824 N1822 1.356 . S
C1825 C1819 1.363 . S
C1825 C1820 1.379 . S
C1825 N1823 1.356 . S
N1826 C1818 1.356 . S
N1826 H1832 0.984 . S
N1826 H1833 0.984 . S
N1827 C1820 1.356 . S
N1827 H1830 0.984 . S
N1827 H1831 0.985 . S
H1828 N1823 0.984 1_554 S
H1829 N1823 0.985 1_554 S
H1830 N1827 0.984 . S
H1831 N1827 0.985 . S
H1832 N1826 0.984 . S
H1833 N1826 0.984 . S
H1834 N1822 0.984 . S
H1835 N1822 0.985 . S
C1836 C1837 1.363 . S
C1836 C1842 1.379 . S
C1836 N1844 1.356 . S
C1837 C1836 1.363 . S
C1837 C1843 1.363 . S
C1838 C1839 1.363 . S
C1838 C1843 1.379 . S
C1838 N1845 1.356 . S
C1839 C1838 1.363 . S
C1839 C1842 1.363 . S
N1840 C1842 1.356 . S
N1840 H1852 0.984 . S
N1840 H1853 0.985 . S
N1841 C1843 1.356 1_554 S
N1841 H1846 0.984 . S
N1841 H1847 0.985 . S
C1842 C1836 1.379 . S
C1842 C1839 1.363 . S
C1842 N1840 1.356 . S
C1843 C1837 1.363 . S
C1843 C1838 1.379 . S
C1843 N1841 1.356 1_556 S
N1844 C1836 1.356 . S
N1844 H1850 0.984 . S
N1844 H1851 0.984 . S
N1845 C1838 1.356 . S
N1845 H1848 0.984 . S
N1845 H1849 0.985 1_556 S
H1846 N1841 0.984 . S
H1847 N1841 0.985 . S
H1848 N1845 0.984 . S
H1849 N1845 0.985 1_554 S
H1850 N1844 0.984 . S
H1851 N1844 0.984 . S
H1852 N1840 0.984 . S
H1853 N1840 0.985 . S
C1854 C1855 1.363 . S
C1854 C1860 1.379 . S
C1854 N1862 1.356 . S
C1855 C1854 1.363 . S
C1855 C1861 1.363 . S
C1856 C1857 1.363 . S
C1856 C1861 1.379 . S
C1856 N1863 1.356 . S
C1857 C1856 1.363 . S
C1857 C1860 1.363 . S
N1858 C1860 1.356 . S
N1858 H1870 0.984 . S
N1858 H1871 0.985 . S
N1859 C1861 1.356 1_554 S
N1859 H1864 0.984 . S
N1859 H1865 0.985 . S
C1860 C1854 1.379 . S
C1860 C1857 1.363 . S
C1860 N1858 1.356 . S
C1861 C1855 1.363 . S
C1861 C1856 1.379 . S
C1861 N1859 1.356 1_556 S
N1862 C1854 1.356 . S
N1862 H1868 0.984 . S
N1862 H1869 0.984 . S
N1863 C1856 1.356 . S
N1863 H1866 0.984 . S
N1863 H1867 0.985 1_556 S
H1864 N1859 0.984 . S
H1865 N1859 0.985 . S
H1866 N1863 0.984 . S
H1867 N1863 0.985 1_554 S
H1868 N1862 0.984 . S
H1869 N1862 0.984 . S
H1870 N1858 0.984 . S
H1871 N1858 0.985 . S
C1872 C1873 1.363 . S
C1872 C1878 1.379 . S
C1872 N1880 1.358 1_556 S
C1873 C1872 1.363 . S
C1873 C1879 1.363 . S
C1874 C1875 1.363 . S
C1874 C1879 1.379 . S
C1874 N1881 1.356 . S
C1875 C1874 1.363 . S
C1875 C1878 1.363 . S
N1876 C1878 1.356 . S
N1876 H1888 0.984 . S
N1876 H1889 0.985 . S
N1877 C1879 1.356 . S
N1877 H1882 0.984 . S
N1877 H1883 0.985 . S
C1878 C1872 1.379 . S
C1878 C1875 1.363 . S
C1878 N1876 1.356 . S
C1879 C1873 1.363 . S
C1879 C1874 1.379 . S
C1879 N1877 1.356 . S
N1880 C1872 1.358 1_554 S
N1880 H1886 0.984 . S
N1880 H1887 0.983 . S
N1881 C1874 1.356 . S
N1881 H1884 0.984 . S
N1881 H1885 0.985 . S
H1882 N1877 0.984 . S
H1883 N1877 0.985 . S
H1884 N1881 0.984 . S
H1885 N1881 0.985 . S
H1886 N1880 0.984 . S
H1887 N1880 0.983 . S
H1888 N1876 0.984 . S
H1889 N1876 0.985 . S
C1890 C1891 1.363 . S
C1890 C1896 1.379 . S
C1890 N1898 1.356 . S
C1891 C1890 1.363 . S
C1891 C1897 1.363 . S
C1892 C1893 1.363 . S
C1892 C1897 1.379 . S
C1892 N1899 1.356 . S
C1893 C1892 1.363 . S
C1893 C1896 1.363 . S
N1894 C1896 1.356 . S
N1894 H1906 0.984 . S
N1894 H1907 0.985 . S
N1895 C1897 1.356 . S
N1895 H1900 0.984 . S
N1895 H1901 0.985 . S
C1896 C1890 1.379 . S
C1896 C1893 1.363 . S
C1896 N1894 1.356 . S
C1897 C1891 1.363 . S
C1897 C1892 1.379 . S
C1897 N1895 1.356 . S
N1898 C1890 1.356 . S
N1898 H1904 0.984 . S
N1898 H1905 0.984 . S
N1899 C1892 1.356 . S
N1899 H1902 0.984 . S
N1899 H1903 0.985 . S
H1900 N1895 0.984 . S
H1901 N1895 0.985 . S
H1902 N1899 0.984 . S
H1903 N1899 0.985 . S
H1904 N1898 0.984 . S
H1905 N1898 0.984 . S
H1906 N1894 0.984 . S
H1907 N1894 0.985 . S
C1908 C1909 1.363 . S
C1908 C1914 1.379 . S
C1908 N1916 1.356 . S
C1909 C1908 1.363 . S
C1909 C1915 1.363 . S
C1910 C1911 1.363 . S
C1910 C1915 1.379 . S
C1910 N1917 1.356 . S
C1911 C1910 1.363 . S
C1911 C1914 1.363 . S
N1912 C1914 1.356 . S
N1912 H1924 0.984 . S
N1912 H1925 0.985 . S
N1913 C1915 1.356 . S
N1913 H1918 0.984 . S
N1913 H1919 0.985 . S
C1914 C1908 1.379 . S
C1914 C1911 1.363 . S
C1914 N1912 1.356 . S
C1915 C1909 1.363 . S
C1915 C1910 1.379 . S
C1915 N1913 1.356 . S
N1916 C1908 1.356 . S
N1916 H1922 0.984 1_554 S
N1916 H1923 0.984 . S
N1917 C1910 1.356 . S
N1917 H1920 0.984 . S
N1917 H1921 0.985 . S
H1918 N1913 0.984 . S
H1919 N1913 0.985 . S
H1920 N1917 0.984 . S
H1921 N1917 0.985 . S
H1922 N1916 0.984 1_556 S
H1923 N1916 0.984 . S
H1924 N1912 0.984 . S
H1925 N1912 0.985 . S
C1926 C1927 1.363 . S
C1926 C1932 1.379 . S
C1926 N1934 1.356 . S
C1927 C1926 1.363 . S
C1927 C1933 1.363 . S
C1928 C1929 1.363 . S
C1928 C1933 1.379 . S
C1928 N1935 1.356 . S
C1929 C1928 1.363 . S
C1929 C1932 1.363 . S
N1930 C1932 1.356 . S
N1930 H1942 0.984 . S
N1930 H1943 0.985 . S
N1931 C1933 1.356 . S
N1931 H1936 0.984 . S
N1931 H1937 0.985 . S
C1932 C1926 1.379 . S
C1932 C1929 1.363 . S
C1932 N1930 1.356 . S
C1933 C1927 1.363 . S
C1933 C1928 1.379 . S
C1933 N1931 1.356 . S
N1934 C1926 1.356 . S
N1934 H1940 0.984 . S
N1934 H1941 0.984 . S
N1935 C1928 1.356 . S
N1935 H1938 0.984 . S
N1935 H1939 0.985 . S
H1936 N1931 0.984 . S
H1937 N1931 0.985 . S
H1938 N1935 0.984 . S
H1939 N1935 0.985 . S
H1940 N1934 0.984 . S
H1941 N1934 0.984 . S
H1942 N1930 0.984 . S
H1943 N1930 0.985 . S
C1944 C1945 1.363 . S
C1944 C1950 1.379 . S
C1944 N1952 1.356 . S
C1945 C1944 1.363 . S
C1945 C1951 1.363 . S
C1946 C1947 1.363 . S
C1946 C1951 1.379 . S
C1946 N1953 1.356 . S
C1947 C1946 1.363 . S
C1947 C1950 1.363 . S
N1948 C1950 1.356 . S
N1948 H1960 0.984 . S
N1948 H1961 0.985 . S
N1949 C1951 1.356 . S
N1949 H1954 0.984 . S
N1949 H1955 0.985 . S
C1950 C1944 1.379 . S
C1950 C1947 1.363 . S
C1950 N1948 1.356 . S
C1951 C1945 1.363 . S
C1951 C1946 1.379 . S
C1951 N1949 1.356 . S
N1952 C1944 1.356 . S
N1952 H1958 0.984 . S
N1952 H1959 0.984 . S
N1953 C1946 1.356 . S
N1953 H1956 0.984 . S
N1953 H1957 0.985 . S
H1954 N1949 0.984 . S
H1955 N1949 0.985 . S
H1956 N1953 0.984 . S
H1957 N1953 0.985 . S
H1958 N1952 0.984 . S
H1959 N1952 0.984 . S
H1960 N1948 0.984 . S
H1961 N1948 0.985 . S
C1962 C1963 1.363 . S
C1962 C1968 1.379 . S
C1962 N1970 1.356 . S
C1963 C1962 1.363 . S
C1963 C1969 1.363 . S
C1964 C1965 1.363 . S
C1964 C1969 1.379 . S
C1964 N1971 1.356 . S
C1965 C1964 1.363 . S
C1965 C1968 1.363 . S
N1966 C1968 1.356 . S
N1966 H1978 0.984 . S
N1966 H1979 0.985 . S
N1967 C1969 1.356 . S
N1967 H1972 0.984 . S
N1967 H1973 0.985 . S
C1968 C1962 1.379 . S
C1968 C1965 1.363 . S
C1968 N1966 1.356 . S
C1969 C1963 1.363 . S
C1969 C1964 1.379 . S
C1969 N1967 1.356 . S
N1970 C1962 1.356 . S
N1970 H1976 0.984 . S
N1970 H1977 0.984 . S
N1971 C1964 1.356 . S
N1971 H1974 0.984 . S
N1971 H1975 0.985 . S
H1972 N1967 0.984 . S
H1973 N1967 0.985 . S
H1974 N1971 0.984 . S
H1975 N1971 0.985 . S
H1976 N1970 0.984 . S
H1977 N1970 0.984 . S
H1978 N1966 0.984 . S
H1979 N1966 0.985 . S
C1980 C1981 1.363 . S
C1980 C1986 1.379 . S
C1980 N1988 1.356 . S
C1981 C1980 1.363 . S
C1981 C1987 1.363 . S
C1982 C1983 1.363 . S
C1982 C1987 1.379 . S
C1982 N1989 1.356 . S
C1983 C1982 1.363 . S
C1983 C1986 1.363 . S
N1984 C1986 1.356 . S
N1984 H1996 0.984 . S
N1984 H1997 0.985 . S
N1985 C1987 1.356 . S
N1985 H1990 0.984 . S
N1985 H1991 0.985 . S
C1986 C1980 1.379 . S
C1986 C1983 1.363 . S
C1986 N1984 1.356 . S
C1987 C1981 1.363 . S
C1987 C1982 1.379 . S
C1987 N1985 1.356 . S
N1988 C1980 1.356 . S
N1988 H1994 0.984 . S
N1988 H1995 0.984 . S
N1989 C1982 1.356 . S
N1989 H1992 0.984 . S
N1989 H1993 0.985 . S
H1990 N1985 0.984 . S
H1991 N1985 0.985 . S
H1992 N1989 0.984 . S
H1993 N1989 0.985 . S
H1994 N1988 0.984 . S
H1995 N1988 0.984 . S
H1996 N1984 0.984 . S
H1997 N1984 0.985 . S
C1998 C1999 1.363 . S
C1998 C2004 1.379 . S
C1998 N2006 1.356 . S
C1999 C1998 1.363 . S
C1999 C2005 1.363 . S
C2000 C2001 1.363 1_655 S
C2000 C2005 1.379 1_655 S
C2000 N2007 1.356 . S
C2001 C2000 1.363 1_455 S
C2001 C2004 1.363 . S
N2002 C2004 1.356 . S
N2002 H2014 0.984 . S
N2002 H2015 0.985 . S
N2003 C2005 1.356 1_655 S
N2003 H2008 0.984 1_655 S
N2003 H2009 0.985 . S
C2004 C1998 1.379 . S
C2004 C2001 1.363 . S
C2004 N2002 1.356 . S
C2005 C1999 1.363 . S
C2005 C2000 1.379 1_455 S
C2005 N2003 1.356 1_455 S
N2006 C1998 1.356 . S
N2006 H2012 0.984 . S
N2006 H2013 0.984 . S
N2007 C2000 1.356 . S
N2007 H2010 0.984 . S
N2007 H2011 0.985 . S
H2008 N2003 0.984 1_455 S
H2009 N2003 0.985 . S
H2010 N2007 0.984 . S
H2011 N2007 0.985 . S
H2012 N2006 0.984 . S
H2013 N2006 0.984 . S
H2014 N2002 0.984 . S
H2015 N2002 0.985 . S
C2016 C2017 1.363 . S
C2016 C2022 1.379 . S
C2016 N2024 1.356 . S
C2017 C2016 1.363 . S
C2017 C2023 1.363 . S
C2018 C2019 1.363 . S
C2018 C2023 1.379 . S
C2018 N2025 1.356 . S
C2019 C2018 1.363 . S
C2019 C2022 1.363 . S
N2020 C2022 1.356 . S
N2020 H2032 0.984 . S
N2020 H2033 0.985 . S
N2021 C2023 1.356 . S
N2021 H2026 0.984 . S
N2021 H2027 0.985 . S
C2022 C2016 1.379 . S
C2022 C2019 1.363 . S
C2022 N2020 1.356 . S
C2023 C2017 1.363 . S
C2023 C2018 1.379 . S
C2023 N2021 1.356 . S
N2024 C2016 1.356 . S
N2024 H2030 0.984 . S
N2024 H2031 0.984 . S
N2025 C2018 1.356 . S
N2025 H2028 0.984 . S
N2025 H2029 0.985 . S
H2026 N2021 0.984 . S
H2027 N2021 0.985 . S
H2028 N2025 0.984 . S
H2029 N2025 0.985 . S
H2030 N2024 0.984 . S
H2031 N2024 0.984 . S
H2032 N2020 0.984 . S
H2033 N2020 0.985 . S
C2034 C2035 1.363 . S
C2034 C2040 1.379 . S
C2034 N2042 1.356 . S
C2035 C2034 1.363 . S
C2035 C2041 1.363 1_565 S
C2036 C2037 1.363 1_545 S
C2036 C2041 1.379 . S
C2036 N2043 1.356 . S
C2037 C2036 1.363 1_565 S
C2037 C2040 1.363 . S
N2038 C2040 1.356 . S
N2038 H2050 0.984 . S
N2038 H2051 0.985 . S
N2039 C2041 1.356 . S
N2039 H2044 0.984 . S
N2039 H2045 0.985 . S
C2040 C2034 1.379 . S
C2040 C2037 1.363 . S
C2040 N2038 1.356 . S
C2041 C2035 1.363 1_545 S
C2041 C2036 1.379 . S
C2041 N2039 1.356 . S
N2042 C2034 1.356 . S
N2042 H2048 0.984 . S
N2042 H2049 0.984 . S
N2043 C2036 1.356 . S
N2043 H2046 0.984 . S
N2043 H2047 0.985 . S
H2044 N2039 0.984 . S
H2045 N2039 0.985 . S
H2046 N2043 0.984 . S
H2047 N2043 0.985 . S
H2048 N2042 0.984 . S
H2049 N2042 0.984 . S
H2050 N2038 0.984 . S
H2051 N2038 0.985 . S
C2052 C2053 1.363 . S
C2052 C2058 1.379 . S
C2052 N2060 1.356 . S
C2053 C2052 1.363 . S
C2053 C2059 1.363 1_565 S
C2054 C2055 1.363 1_545 S
C2054 C2059 1.379 . S
C2054 N2061 1.356 . S
C2055 C2054 1.363 1_565 S
C2055 C2058 1.363 . S
N2056 C2058 1.356 . S
N2056 H2068 0.984 . S
N2056 H2069 0.985 . S
N2057 C2059 1.356 . S
N2057 H2062 0.984 . S
N2057 H2063 0.985 . S
C2058 C2052 1.379 . S
C2058 C2055 1.363 . S
C2058 N2056 1.356 . S
C2059 C2053 1.363 1_545 S
C2059 C2054 1.379 . S
C2059 N2057 1.356 . S
N2060 C2052 1.356 . S
N2060 H2066 0.984 . S
N2060 H2067 0.984 . S
N2061 C2054 1.356 . S
N2061 H2064 0.984 . S
N2061 H2065 0.985 . S
H2062 N2057 0.984 . S
H2063 N2057 0.985 . S
H2064 N2061 0.984 . S
H2065 N2061 0.985 . S
H2066 N2060 0.984 . S
H2067 N2060 0.984 . S
H2068 N2056 0.984 . S
H2069 N2056 0.985 . S
C2070 C2071 1.363 . S
C2070 C2076 1.379 . S
C2070 N2078 1.356 . S
C2071 C2070 1.363 . S
C2071 C2077 1.363 . S
C2072 C2073 1.363 . S
C2072 C2077 1.379 . S
C2072 N2079 1.356 . S
C2073 C2072 1.363 . S
C2073 C2076 1.363 . S
N2074 C2076 1.356 . S
N2074 H2086 0.984 . S
N2074 H2087 0.985 . S
N2075 C2077 1.356 . S
N2075 H2080 0.984 . S
N2075 H2081 0.985 . S
C2076 C2070 1.379 . S
C2076 C2073 1.363 . S
C2076 N2074 1.356 . S
C2077 C2071 1.363 . S
C2077 C2072 1.379 . S
C2077 N2075 1.356 . S
N2078 C2070 1.356 . S
N2078 H2084 0.984 . S
N2078 H2085 0.984 . S
N2079 C2072 1.356 . S
N2079 H2082 0.965 . S
N2079 H2083 0.985 . S
H2080 N2075 0.984 . S
H2081 N2075 0.985 . S
H2082 N2079 0.965 . S
H2083 N2079 0.985 . S
H2084 N2078 0.984 . S
H2085 N2078 0.984 . S
H2086 N2074 0.984 . S
H2087 N2074 0.985 . S
C2088 C2089 1.363 . S
C2088 C2094 1.379 . S
C2088 N2096 1.356 . S
C2089 C2088 1.363 . S
C2089 C2095 1.363 . S
C2090 C2091 1.363 . S
C2090 C2095 1.379 . S
C2090 N2097 1.356 . S
C2091 C2090 1.363 . S
C2091 C2094 1.363 . S
N2092 C2094 1.356 . S
N2092 H2104 0.984 . S
N2092 H2105 0.985 . S
N2093 C2095 1.356 . S
N2093 H2098 0.984 . S
N2093 H2099 0.985 . S
C2094 C2088 1.379 . S
C2094 C2091 1.363 . S
C2094 N2092 1.356 . S
C2095 C2089 1.363 . S
C2095 C2090 1.379 . S
C2095 N2093 1.356 . S
N2096 C2088 1.356 . S
N2096 H2102 0.984 . S
N2096 H2103 0.984 . S
N2097 C2090 1.356 . S
N2097 H2100 0.984 . S
N2097 H2101 0.985 . S
H2098 N2093 0.984 . S
H2099 N2093 0.985 . S
H2100 N2097 0.984 . S
H2101 N2097 0.985 . S
H2102 N2096 0.984 . S
H2103 N2096 0.984 . S
H2104 N2092 0.984 . S
H2105 N2092 0.985 . S
C2106 C2107 1.363 . S
C2106 C2112 1.379 . S
C2106 N2114 1.356 . S
C2107 C2106 1.363 . S
C2107 C2113 1.363 . S
C2108 C2109 1.363 . S
C2108 C2113 1.379 . S
C2108 N2115 1.356 . S
C2109 C2108 1.363 . S
C2109 C2112 1.363 . S
N2110 C2112 1.356 . S
N2110 H2122 0.984 . S
N2110 H2123 0.985 . S
N2111 C2113 1.356 . S
N2111 H2116 0.984 . S
N2111 H2117 0.985 . S
C2112 C2106 1.379 . S
C2112 C2109 1.363 . S
C2112 N2110 1.356 . S
C2113 C2107 1.363 . S
C2113 C2108 1.379 . S
C2113 N2111 1.356 . S
N2114 C2106 1.356 . S
N2114 H2120 0.984 . S
N2114 H2121 0.984 . S
N2115 C2108 1.356 . S
N2115 H2118 0.984 . S
N2115 H2119 0.985 . S
H2116 N2111 0.984 . S
H2117 N2111 0.985 . S
H2118 N2115 0.984 . S
H2119 N2115 0.985 . S
H2120 N2114 0.984 . S
H2121 N2114 0.984 . S
H2122 N2110 0.984 . S
H2123 N2110 0.985 . S
C2124 C2125 1.363 . S
C2124 C2130 1.379 . S
C2124 N2132 1.356 . S
C2125 C2124 1.363 . S
C2125 C2131 1.363 . S
C2126 C2127 1.363 . S
C2126 C2131 1.379 . S
C2126 N2133 1.356 . S
C2127 C2126 1.363 . S
C2127 C2130 1.363 . S
N2128 C2130 1.356 . S
N2128 H2140 0.984 . S
N2128 H2141 0.985 . S
N2129 C2131 1.356 . S
N2129 H2134 0.984 . S
N2129 H2135 0.985 . S
C2130 C2124 1.379 . S
C2130 C2127 1.363 . S
C2130 N2128 1.356 . S
C2131 C2125 1.363 . S
C2131 C2126 1.379 . S
C2131 N2129 1.356 . S
N2132 C2124 1.356 . S
N2132 H2138 0.984 . S
N2132 H2139 0.984 . S
N2133 C2126 1.356 . S
N2133 H2136 0.984 . S
N2133 H2137 0.985 . S
H2134 N2129 0.984 . S
H2135 N2129 0.985 . S
H2136 N2133 0.984 . S
H2137 N2133 0.985 . S
H2138 N2132 0.984 . S
H2139 N2132 0.984 . S
H2140 N2128 0.984 . S
H2141 N2128 0.985 . S
C2142 C2143 1.363 . S
C2142 C2148 1.379 . S
C2142 N2150 1.356 . S
C2143 C2142 1.363 . S
C2143 C2149 1.363 . S
C2144 C2145 1.363 . S
C2144 C2149 1.379 . S
C2144 N2151 1.356 . S
C2145 C2144 1.363 . S
C2145 C2148 1.363 . S
N2146 C2148 1.356 . S
N2146 H2158 0.984 . S
N2146 H2159 0.985 . S
N2147 C2149 1.356 . S
N2147 H2152 0.984 . S
N2147 H2153 0.985 . S
C2148 C2142 1.379 . S
C2148 C2145 1.363 . S
C2148 N2146 1.356 . S
C2149 C2143 1.363 . S
C2149 C2144 1.379 . S
C2149 N2147 1.356 . S
N2150 C2142 1.356 . S
N2150 H2156 0.984 . S
N2150 H2157 0.984 . S
N2151 C2144 1.356 . S
N2151 H2154 0.984 . S
N2151 H2155 0.985 . S
H2152 N2147 0.984 . S
H2153 N2147 0.985 . S
H2154 N2151 0.984 . S
H2155 N2151 0.985 . S
H2156 N2150 0.984 . S
H2157 N2150 0.984 . S
H2158 N2146 0.984 . S
H2159 N2146 0.985 . S
C2160 C2161 1.363 1_565 S
C2160 C2166 1.379 . S
C2160 N2168 1.356 . S
C2161 C2160 1.363 1_545 S
C2161 C2167 1.363 . S
C2162 C2163 1.363 . S
C2162 C2167 1.379 . S
C2162 N2169 1.356 . S
C2163 C2162 1.363 . S
C2163 C2166 1.363 1_545 S
N2164 C2166 1.356 . S
N2164 H2176 0.984 . S
N2164 H2177 0.985 . S
N2165 C2167 1.356 . S
N2165 H2170 0.984 . S
N2165 H2171 0.985 . S
C2166 C2160 1.379 . S
C2166 C2163 1.363 1_565 S
C2166 N2164 1.356 . S
C2167 C2161 1.363 . S
C2167 C2162 1.379 . S
C2167 N2165 1.356 . S
N2168 C2160 1.356 . S
N2168 H2174 0.984 . S
N2168 H2175 0.984 . S
N2169 C2162 1.356 . S
N2169 H2172 0.984 . S
N2169 H2173 0.985 . S
H2170 N2165 0.984 . S
H2171 N2165 0.985 . S
H2172 N2169 0.984 . S
H2173 N2169 0.985 . S
H2174 N2168 0.984 . S
H2175 N2168 0.984 . S
H2176 N2164 0.984 . S
H2177 N2164 0.985 . S
C2178 C2179 1.363 . S
C2178 C2184 1.379 . S
C2178 N2186 1.356 . S
C2179 C2178 1.363 . S
C2179 C2185 1.363 1_655 S
C2180 C2181 1.363 1_455 S
C2180 C2185 1.379 . S
C2180 N2187 1.356 . S
C2181 C2180 1.363 1_655 S
C2181 C2184 1.363 . S
N2182 C2184 1.356 . S
N2182 H2194 0.984 . S
N2182 H2195 0.985 . S
N2183 C2185 1.356 . S
N2183 H2188 0.984 . S
N2183 H2189 0.985 . S
C2184 C2178 1.379 . S
C2184 C2181 1.363 . S
C2184 N2182 1.356 . S
C2185 C2179 1.363 1_455 S
C2185 C2180 1.379 . S
C2185 N2183 1.356 . S
N2186 C2178 1.356 . S
N2186 H2192 0.984 . S
N2186 H2193 0.984 . S
N2187 C2180 1.356 . S
N2187 H2190 0.984 . S
N2187 H2191 0.985 . S
H2188 N2183 0.984 . S
H2189 N2183 0.985 . S
H2190 N2187 0.984 . S
H2191 N2187 0.985 . S
H2192 N2186 0.984 . S
H2193 N2186 0.984 . S
H2194 N2182 0.984 . S
H2195 N2182 0.985 . S
C2196 C2197 1.363 . S
C2196 C2202 1.379 . S
C2196 N2204 1.356 . S
C2197 C2196 1.363 . S
C2197 C2203 1.363 . S
C2198 C2199 1.363 . S
C2198 C2203 1.379 . S
C2198 N2205 1.356 . S
C2199 C2198 1.363 . S
C2199 C2202 1.363 . S
N2200 C2202 1.356 . S
N2200 H2212 0.984 . S
N2200 H2213 0.985 . S
N2201 C2203 1.356 . S
N2201 H2206 0.984 . S
N2201 H2207 0.985 . S
C2202 C2196 1.379 . S
C2202 C2199 1.363 . S
C2202 N2200 1.356 . S
C2203 C2197 1.363 . S
C2203 C2198 1.379 . S
C2203 N2201 1.356 . S
N2204 C2196 1.356 . S
N2204 H2210 0.984 . S
N2204 H2211 0.984 . S
N2205 C2198 1.356 . S
N2205 H2208 0.984 . S
N2205 H2209 0.985 . S
H2206 N2201 0.984 . S
H2207 N2201 0.985 . S
H2208 N2205 0.984 . S
H2209 N2205 0.985 . S
H2210 N2204 0.984 . S
H2211 N2204 0.984 . S
H2212 N2200 0.984 . S
H2213 N2200 0.985 . S
C2214 C2215 1.363 . S
C2214 C2220 1.379 . S
C2214 N2222 1.356 . S
C2215 C2214 1.363 . S
C2215 C2221 1.363 . S
C2216 C2217 1.363 . S
C2216 C2221 1.379 . S
C2216 N2223 1.356 . S
C2217 C2216 1.363 . S
C2217 C2220 1.363 . S
N2218 C2220 1.356 . S
N2218 H2230 0.984 . S
N2218 H2231 0.985 . S
N2219 C2221 1.356 . S
N2219 H2224 0.984 . S
N2219 H2225 0.985 . S
C2220 C2214 1.379 . S
C2220 C2217 1.363 . S
C2220 N2218 1.356 . S
C2221 C2215 1.363 . S
C2221 C2216 1.379 . S
C2221 N2219 1.356 . S
N2222 C2214 1.356 . S
N2222 H2228 0.984 . S
N2222 H2229 0.984 . S
N2223 C2216 1.356 . S
N2223 H2226 0.984 . S
N2223 H2227 0.985 . S
H2224 N2219 0.984 . S
H2225 N2219 0.985 . S
H2226 N2223 0.984 . S
H2227 N2223 0.985 . S
H2228 N2222 0.984 . S
H2229 N2222 0.984 . S
H2230 N2218 0.984 . S
H2231 N2218 0.985 . S
C2232 C2233 1.363 . S
C2232 C2238 1.379 . S
C2232 N2240 1.356 . S
C2233 C2232 1.363 . S
C2233 C2239 1.363 . S
C2234 C2235 1.363 . S
C2234 C2239 1.379 . S
C2234 N2241 1.356 . S
C2235 C2234 1.363 . S
C2235 C2238 1.363 . S
N2236 C2238 1.356 . S
N2236 H2248 0.984 . S
N2236 H2249 0.985 . S
N2237 C2239 1.356 . S
N2237 H2242 0.984 . S
N2237 H2243 0.985 . S
C2238 C2232 1.379 . S
C2238 C2235 1.363 . S
C2238 N2236 1.356 . S
C2239 C2233 1.363 . S
C2239 C2234 1.379 . S
C2239 N2237 1.356 . S
N2240 C2232 1.356 . S
N2240 H2246 0.984 . S
N2240 H2247 0.984 . S
N2241 C2234 1.356 . S
N2241 H2244 0.984 . S
N2241 H2245 0.985 . S
H2242 N2237 0.984 . S
H2243 N2237 0.985 . S
H2244 N2241 0.984 . S
H2245 N2241 0.985 . S
H2246 N2240 0.984 . S
H2247 N2240 0.984 . S
H2248 N2236 0.984 . S
H2249 N2236 0.985 . S
C2250 C2251 1.363 . S
C2250 C2256 1.379 . S
C2250 N2258 1.356 . S
C2251 C2250 1.363 . S
C2251 C2257 1.363 . S
C2252 C2253 1.363 . S
C2252 C2257 1.379 . S
C2252 N2259 1.356 . S
C2253 C2252 1.363 . S
C2253 C2256 1.363 . S
N2254 C2256 1.356 . S
N2254 H2266 0.984 . S
N2254 H2267 0.985 . S
N2255 C2257 1.356 . S
N2255 H2260 0.984 . S
N2255 H2261 0.985 . S
C2256 C2250 1.379 . S
C2256 C2253 1.363 . S
C2256 N2254 1.356 . S
C2257 C2251 1.363 . S
C2257 C2252 1.379 . S
C2257 N2255 1.356 . S
N2258 C2250 1.356 . S
N2258 H2264 0.984 . S
N2258 H2265 0.984 . S
N2259 C2252 1.356 . S
N2259 H2262 0.984 . S
N2259 H2263 0.985 . S
H2260 N2255 0.984 . S
H2261 N2255 0.985 . S
H2262 N2259 0.984 . S
H2263 N2259 0.985 . S
H2264 N2258 0.984 . S
H2265 N2258 0.984 . S
H2266 N2254 0.984 . S
H2267 N2254 0.985 . S
C2268 C2269 1.363 . S
C2268 C2274 1.379 . S
C2268 N2276 1.356 . S
C2269 C2268 1.363 . S
C2269 C2275 1.363 . S
C2270 C2271 1.363 . S
C2270 C2275 1.379 . S
C2270 N2277 1.356 . S
C2271 C2270 1.363 . S
C2271 C2274 1.363 . S
N2272 C2274 1.356 . S
N2272 H2284 0.984 . S
N2272 H2285 0.985 . S
N2273 C2275 1.356 . S
N2273 H2278 0.984 . S
N2273 H2279 0.985 . S
C2274 C2268 1.379 . S
C2274 C2271 1.363 . S
C2274 N2272 1.356 . S
C2275 C2269 1.363 . S
C2275 C2270 1.379 . S
C2275 N2273 1.356 . S
N2276 C2268 1.356 . S
N2276 H2282 0.984 . S
N2276 H2283 0.984 . S
N2277 C2270 1.356 . S
N2277 H2280 0.984 . S
N2277 H2281 0.985 . S
H2278 N2273 0.984 . S
H2279 N2273 0.985 . S
H2280 N2277 0.984 . S
H2281 N2277 0.985 . S
H2282 N2276 0.984 . S
H2283 N2276 0.984 . S
H2284 N2272 0.984 . S
H2285 N2272 0.985 . S
C2286 C2287 1.363 . S
C2286 C2292 1.379 . S
C2286 N2294 1.356 . S
C2287 C2286 1.363 . S
C2287 C2293 1.363 . S
C2288 C2289 1.363 . S
C2288 C2293 1.379 . S
C2288 N2295 1.356 . S
C2289 C2288 1.363 . S
C2289 C2292 1.363 . S
N2290 C2292 1.356 . S
N2290 H2302 0.984 . S
N2290 H2303 0.985 . S
N2291 C2293 1.356 . S
N2291 H2296 0.984 . S
N2291 H2297 0.985 . S
C2292 C2286 1.379 . S
C2292 C2289 1.363 . S
C2292 N2290 1.356 . S
C2293 C2287 1.363 . S
C2293 C2288 1.379 . S
C2293 N2291 1.356 . S
N2294 C2286 1.356 . S
N2294 H2300 0.984 . S
N2294 H2301 0.984 . S
N2295 C2288 1.356 . S
N2295 H2298 0.984 . S
N2295 H2299 0.985 . S
H2296 N2291 0.984 . S
H2297 N2291 0.985 . S
H2298 N2295 0.984 . S
H2299 N2295 0.985 . S
H2300 N2294 0.984 . S
H2301 N2294 0.984 . S
H2302 N2290 0.984 . S
H2303 N2290 0.985 . S
C2304 C2305 1.363 . S
C2304 C2310 1.379 . S
C2304 N2312 1.356 . S
C2305 C2304 1.363 . S
C2305 C2311 1.363 . S
C2306 C2307 1.363 . S
C2306 C2311 1.379 . S
C2306 N2313 1.356 . S
C2307 C2306 1.363 . S
C2307 C2310 1.363 . S
N2308 C2310 1.356 . S
N2308 H2320 0.984 . S
N2308 H2321 0.985 . S
N2309 C2311 1.356 . S
N2309 H2314 0.984 . S
N2309 H2315 0.985 . S
C2310 C2304 1.379 . S
C2310 C2307 1.363 . S
C2310 N2308 1.356 . S
C2311 C2305 1.363 . S
C2311 C2306 1.379 . S
C2311 N2309 1.356 . S
N2312 C2304 1.356 . S
N2312 H2318 0.984 . S
N2312 H2319 0.984 . S
N2313 C2306 1.356 . S
N2313 H2316 0.984 . S
N2313 H2317 0.985 . S
H2314 N2309 0.984 . S
H2315 N2309 0.985 . S
H2316 N2313 0.984 . S
H2317 N2313 0.985 . S
H2318 N2312 0.984 . S
H2319 N2312 0.984 . S
H2320 N2308 0.984 . S
H2321 N2308 0.985 . S
C2322 C2323 1.363 . S
C2322 C2328 1.379 . S
C2322 N2330 1.356 . S
C2323 C2322 1.363 . S
C2323 C2329 1.363 1_655 S
C2324 C2325 1.363 1_455 S
C2324 C2329 1.379 . S
C2324 N2331 1.356 . S
C2325 C2324 1.363 1_655 S
C2325 C2328 1.363 . S
N2326 C2328 1.356 . S
N2326 H2338 0.984 . S
N2326 H2339 0.985 . S
N2327 C2329 1.356 . S
N2327 H2332 0.984 . S
N2327 H2333 0.985 . S
C2328 C2322 1.379 . S
C2328 C2325 1.363 . S
C2328 N2326 1.356 . S
C2329 C2323 1.363 1_455 S
C2329 C2324 1.379 . S
C2329 N2327 1.356 . S
N2330 C2322 1.356 . S
N2330 H2336 0.984 . S
N2330 H2337 0.984 . S
N2331 C2324 1.356 . S
N2331 H2334 0.984 . S
N2331 H2335 0.985 . S
H2332 N2327 0.984 . S
H2333 N2327 0.985 . S
H2334 N2331 0.984 . S
H2335 N2331 0.985 . S
H2336 N2330 0.984 . S
H2337 N2330 0.984 . S
H2338 N2326 0.984 . S
H2339 N2326 0.985 . S
C2340 C2341 1.363 . S
C2340 C2346 1.379 . S
C2340 N2348 1.356 . S
C2341 C2340 1.363 . S
C2341 C2347 1.363 . S
C2342 C2343 1.363 . S
C2342 C2347 1.379 . S
C2342 N2349 1.356 . S
C2343 C2342 1.363 . S
C2343 C2346 1.363 . S
N2344 C2346 1.356 . S
N2344 H2356 0.984 . S
N2344 H2357 0.985 . S
N2345 C2347 1.356 . S
N2345 H2350 0.984 . S
N2345 H2351 0.985 . S
C2346 C2340 1.379 . S
C2346 C2343 1.363 . S
C2346 N2344 1.356 . S
C2347 C2341 1.363 . S
C2347 C2342 1.379 . S
C2347 N2345 1.356 . S
N2348 C2340 1.356 . S
N2348 H2354 0.984 . S
N2348 H2355 0.984 . S
N2349 C2342 1.356 . S
N2349 H2352 0.984 . S
N2349 H2353 0.985 . S
H2350 N2345 0.984 . S
H2351 N2345 0.985 . S
H2352 N2349 0.984 . S
H2353 N2349 0.985 . S
H2354 N2348 0.984 . S
H2355 N2348 0.984 . S
H2356 N2344 0.984 . S
H2357 N2344 0.985 . S
C2358 C2359 1.363 1_565 S
C2358 C2364 1.379 . S
C2358 N2366 1.356 . S
C2359 C2358 1.363 1_545 S
C2359 C2365 1.363 . S
C2360 C2361 1.363 . S
C2360 C2365 1.379 . S
C2360 N2367 1.356 . S
C2361 C2360 1.363 . S
C2361 C2364 1.363 1_545 S
N2362 C2364 1.356 . S
N2362 H2374 0.984 . S
N2362 H2375 0.985 . S
N2363 C2365 1.356 . S
N2363 H2368 0.984 . S
N2363 H2369 0.985 . S
C2364 C2358 1.379 . S
C2364 C2361 1.363 1_565 S
C2364 N2362 1.356 . S
C2365 C2359 1.363 . S
C2365 C2360 1.379 . S
C2365 N2363 1.356 . S
N2366 C2358 1.356 . S
N2366 H2372 0.984 . S
N2366 H2373 0.984 . S
N2367 C2360 1.356 . S
N2367 H2370 0.984 . S
N2367 H2371 0.985 . S
H2368 N2363 0.984 . S
H2369 N2363 0.985 . S
H2370 N2367 0.984 . S
H2371 N2367 0.985 . S
H2372 N2366 0.984 . S
H2373 N2366 0.984 . S
H2374 N2362 0.984 . S
H2375 N2362 0.985 . S
C1081 C13 1.443 . S
C1083 C688 1.510 . S
C1099 C27 1.374 . S
C1101 C734 1.448 . S
C1119 C766 1.491 . S
C1117 C36 1.371 . S
C1135 C41 1.423 . S
C1137 C819 1.499 . S
C1153 C8 1.445 . S
C1155 C865 1.575 . S
C1171 C22 1.462 . S
C1173 C904 1.527 . S
C1189 C55 1.448 . S
C1191 C858 1.509 . S
C1209 C911 1.452 . S
C1207 C69 1.372 . S
C1227 C812 1.499 . S
C1225 C78 1.389 . S
C1243 C83 1.431 . S
C1245 C773 1.493 . S
C1263 C667 1.577 . S
C1261 C50 1.457 . S
C1279 C64 1.459 . S
C1281 C713 1.515 . S
C1297 C97 1.547 . S
C1299 C943 1.648 . S
C1315 C111 1.423 . S
C1317 C1010 1.499 . S
C1335 C1056 1.580 . S
C1333 C120 1.561 . S
C1351 C125 1.465 . S
C1353 C267 1.549 . S
C1369 C92 1.685 . S
C1371 C313 1.702 . S
C1387 C106 1.533 . S
C1389 C359 1.561 . S
C1405 C139 1.495 . S
C1407 C306 1.576 . S
C1423 C153 1.423 . S
C1425 C352 1.483 . S
C1443 C260 1.592 . S
C1441 C162 1.563 . S
C1461 C1035 1.609 . S
C1459 C167 1.516 . S
C1479 C964 1.708 . S
C1477 C134 1.683 . S
C1497 C989 1.576 . S
C1495 C148 1.557 . S
C1513 C181 1.498 . S
C1515 C391 1.593 . S
C1531 C195 1.417 . S
C1533 C444 1.486 . S
C1549 C204 1.561 . S
C1551 C490 1.601 . S
C1567 C209 1.514 . S
C1569 C536 1.618 . S
C1587 C589 1.703 . S
C1585 C176 1.694 . S
C1605 C635 1.579 . S
C1603 C190 1.561 . S
C1623 C582 1.641 . S
C1621 C223 1.553 . S
C1641 C628 1.507 . S
C1639 C237 1.431 . S
C1657 C246 1.557 . S
C1659 C543 1.587 . S
C1677 C497 1.556 . S
C1675 C251 1.460 . S
C1693 C218 1.681 . S
C1695 C412 1.716 . S
C1713 C451 1.576 . S
C1711 C232 1.536 . S
C1731 C274 1.585 . S
C1729 C11 1.553 . S
C1747 C25 1.468 . S
C1749 C320 1.483 . S
C1767 C366 1.556 . S
C1765 C35 1.586 . S
C1785 C398 1.582 . S
C1783 C39 1.573 . S
C1803 C437 1.616 . S
C1801 C7 1.668 . S
C1821 C483 1.495 . S
C1819 C21 1.556 . S
C1837 C53 1.558 . S
C1839 C504 1.573 . S
C1855 C67 1.459 . S
C1857 C405 1.454 . S
C1873 C77 1.574 . S
C1875 C458 1.526 . S
C1891 C81 1.586 . S
C1893 C299 1.616 . S
C1911 C345 1.637 . S
C1909 C49 1.671 . S
C1927 C63 1.554 . S
C1929 C253 1.514 . S
C1947 C529 1.507 . S
C1945 C95 1.514 . S
C1963 C109 1.524 . S
C1965 C596 1.527 . S
C1981 C119 1.601 . S
C1983 C642 1.567 . S
C2001 C681 1.330 . S
C1999 C123 1.325 . S
C2017 C91 1.590 . S
C2019 C727 1.561 . S
C2035 C105 1.310 . S
C2037 C759 1.312 . S
C2053 C137 1.355 . S
C2055 C780 1.349 . S
C2071 C151 1.245 . S
C2073 C674 1.253 . S
C2091 C720 1.485 . S
C2089 C161 1.509 . S
C2107 C165 1.554 . S
C2109 C575 1.564 . S
C2125 C133 1.669 . S
C2127 C621 1.630 . S
C2145 C550 1.555 . S
C2143 C147 1.613 . S
C2163 C826 1.370 . S
C2161 C179 1.364 . S
C2179 C193 1.241 . S
C2181 C872 1.248 . S
C2197 C203 1.506 . S
C2199 C897 1.466 . S
C2217 C950 1.529 . S
C2215 C207 1.539 . S
C2235 C1003 1.632 . S
C2233 C175 1.671 . S
C2251 C189 1.614 . S
C2253 C1049 1.574 . S
C2269 C221 1.522 . S
C2271 C1042 1.532 . S
C2287 C235 1.520 . S
C2289 C957 1.505 . S
C2307 C996 1.554 . S
C2305 C245 1.588 . S
C2325 C851 1.317 . S
C2323 C249 1.313 . S
C2343 C918 1.551 . S
C2341 C217 1.595 . S
C2359 C231 1.329 . S
C2361 C805 1.329 . S
