# Generated by pormake.
# Topology zzz, (3,6)-cn, num edge types: 1
# Building blocks:
#     Node 0, Type 0, BuildingBlock: QEWDON_clean_linker_0, # of connection points: 3
#     Node 1, Type 0, BuildingBlock: QEWDON_clean_linker_0, # of connection points: 3
#     Node 2, Type 0, BuildingBlock: QEWDON_clean_linker_0, # of connection points: 3
#     Node 3, Type 0, BuildingBlock: QEWDON_clean_linker_0, # of connection points: 3
#     Node 4, Type 0, BuildingBlock: QEWDON_clean_linker_0, # of connection points: 3
#     Node 5, Type 0, BuildingBlock: QEWDON_clean_linker_0, # of connection points: 3
#     Node 6, Type 0, BuildingBlock: QEWDON_clean_linker_0, # of connection points: 3
#     Node 7, Type 0, BuildingBlock: QEWDON_clean_linker_0, # of connection points: 3
#     Node 8, Type 1, BuildingBlock: BETDAH_clean_sbu_0, # of connection points: 6
#     Node 9, Type 1, BuildingBlock: BETDAH_clean_sbu_0, # of connection points: 6
#     Node 10, Type 1, BuildingBlock: BETDAH_clean_sbu_0, # of connection points: 6
#     Node 11, Type 1, BuildingBlock: BETDAH_clean_sbu_0, # of connection points: 6
#     Edge 12, Type (0, 1), BuildingBlock: TEMPAE_clean_linker_10, # of connection points: 2
#     Edge 13, Type (0, 1), BuildingBlock: TEMPAE_clean_linker_10, # of connection points: 2
#     Edge 14, Type (0, 1), BuildingBlock: TEMPAE_clean_linker_10, # of connection points: 2
#     Edge 15, Type (0, 1), BuildingBlock: TEMPAE_clean_linker_10, # of connection points: 2
#     Edge 16, Type (0, 1), BuildingBlock: TEMPAE_clean_linker_10, # of connection points: 2
#     Edge 17, Type (0, 1), BuildingBlock: TEMPAE_clean_linker_10, # of connection points: 2
#     Edge 18, Type (0, 1), BuildingBlock: TEMPAE_clean_linker_10, # of connection points: 2
#     Edge 19, Type (0, 1), BuildingBlock: TEMPAE_clean_linker_10, # of connection points: 2
#     Edge 20, Type (0, 1), BuildingBlock: TEMPAE_clean_linker_10, # of connection points: 2
#     Edge 21, Type (0, 1), BuildingBlock: TEMPAE_clean_linker_10, # of connection points: 2
#     Edge 22, Type (0, 1), BuildingBlock: TEMPAE_clean_linker_10, # of connection points: 2
#     Edge 23, Type (0, 1), BuildingBlock: TEMPAE_clean_linker_10, # of connection points: 2
#     Edge 24, Type (0, 1), BuildingBlock: TEMPAE_clean_linker_10, # of connection points: 2
#     Edge 25, Type (0, 1), BuildingBlock: TEMPAE_clean_linker_10, # of connection points: 2
#     Edge 26, Type (0, 1), BuildingBlock: TEMPAE_clean_linker_10, # of connection points: 2
#     Edge 27, Type (0, 1), BuildingBlock: TEMPAE_clean_linker_10, # of connection points: 2
#     Edge 28, Type (0, 1), BuildingBlock: TEMPAE_clean_linker_10, # of connection points: 2
#     Edge 29, Type (0, 1), BuildingBlock: TEMPAE_clean_linker_10, # of connection points: 2
#     Edge 30, Type (0, 1), BuildingBlock: TEMPAE_clean_linker_10, # of connection points: 2
#     Edge 31, Type (0, 1), BuildingBlock: TEMPAE_clean_linker_10, # of connection points: 2
#     Edge 32, Type (0, 1), BuildingBlock: TEMPAE_clean_linker_10, # of connection points: 2
#     Edge 33, Type (0, 1), BuildingBlock: TEMPAE_clean_linker_10, # of connection points: 2
#     Edge 34, Type (0, 1), BuildingBlock: TEMPAE_clean_linker_10, # of connection points: 2
#     Edge 35, Type (0, 1), BuildingBlock: TEMPAE_clean_linker_10, # of connection points: 2
# Relax obj value: 0.172
# Max RMSD: 0.173
# Mean RMSD: 0.126
data_MOF--net-zzz--node1-BETDAH_clean_sbu_0--node2-QEWDON_clean_linker_0--edge1-TEMPAE_clean_linker_10
_symmetry_space_group_name_H-M    P1
_symmetry_Int_Tables_number       1
_symmetry_cell_setting            triclinic
loop_
_symmetry_equiv_pos_as_xyz
'x, y, z'
_cell_length_a     56.795867
_cell_length_b     56.856156
_cell_length_c     12.804828
_cell_angle_alpha  89.999977
_cell_angle_beta   90.06038
_cell_angle_gamma 90.078276
loop_
_atom_site_label
_atom_site_type_symbol
_atom_site_fract_x
_atom_site_fract_y
_atom_site_fract_z
_atom_type_partial_charge
H0 H 0.75215 0.48265 0.23602 0.0
C1 C 0.76521 0.48791 0.29298 0.0
C2 C 0.78875 0.48305 0.27145 0.0
C3 C 0.7587 0.49889 0.38763 0.0
H4 H 0.82432 0.48419 0.32645 0.0
C5 C 0.80616 0.48825 0.34474 0.0
C6 C 0.8009 0.49852 0.44056 0.0
C7 C 0.77704 0.50442 0.46151 0.0
C8 C 0.73275 0.50267 0.41007 0.0
H9 H 0.77291 0.51285 0.53494 0.0
C10 C 0.71559 0.50493 0.32863 0.0
C11 C 0.6911 0.50496 0.35075 0.0
C12 C 0.72457 0.50189 0.51374 0.0
H13 H 0.7366 0.49971 0.57851 0.0
C14 C 0.70053 0.50284 0.5359 0.0
H15 H 0.72102 0.50603 0.24784 0.0
C16 C 0.68397 0.50405 0.45555 0.0
H17 H 0.66543 0.50427 0.47547 0.0
H18 H 0.69463 0.50204 0.6162 0.0
H19 H 0.98626 0.74702 0.2543 0.0
C20 C 0.99112 0.75992 0.31246 0.0
C21 C 0.98139 0.78246 0.30357 0.0
C22 C 1.00668 0.75429 0.39515 0.0
H23 H 0.97883 0.81672 0.37392 0.0
C24 C 0.98632 0.79928 0.38043 0.0
C25 C 1.00275 0.7953 0.4591 0.0
C26 C 1.0133 0.7728 0.46567 0.0
C27 C 1.01499 0.72914 0.40956 0.0
H28 H 0.02637 0.76988 0.52573 0.0
C29 C 1.01495 0.71222 0.3267 0.0
C30 C 0.01997 0.68815 0.34586 0.0
C31 C 0.02128 0.72123 0.51011 0.0
H32 H 0.02098 0.73287 0.57681 0.0
C33 C 0.02721 0.69779 0.52811 0.0
H34 H 1.01055 0.71737 0.24784 0.0
C35 C 0.0264 0.68139 0.4474 0.0
H36 H 0.03075 0.66325 0.46466 0.0
H37 H 0.03196 0.69215 0.6061 0.0
H38 H 0.79048 0.04894 0.23254 0.0
C39 C 0.77663 0.04253 0.28299 0.0
C40 C 0.75481 0.05378 0.27891 0.0
C41 C 0.78043 0.02356 0.3524 0.0
H42 H 0.72012 0.05585 0.34214 0.0
C43 C 0.73672 0.04659 0.34513 0.0
C44 C 0.73854 0.02631 0.40602 0.0
C45 C 0.76076 1.01502 0.41174 0.0
C46 C 0.80495 1.01353 0.36456 0.0
H47 H 0.76245 0.99942 0.45955 0.0
C48 C 0.82227 1.01492 0.28382 0.0
C49 C 0.84599 1.00835 0.30243 0.0
C50 C 0.81192 1.00429 0.46178 0.0
H51 H 0.79973 1.00331 0.52652 0.0
C52 C 0.83506 0.99706 0.47907 0.0
H53 H 0.81765 0.02154 0.20733 0.0
C54 C 0.85197 0.99928 0.40087 0.0
H55 H 0.86987 0.99384 0.41742 0.0
H56 H 0.84006 0.99014 0.55467 0.0
H57 H 0.49679 0.77371 0.21688 0.0
C58 C 0.50326 0.76114 0.2735 0.0
C59 C 0.50047 0.73716 0.25247 0.0
C60 C 0.51353 0.76871 0.36843 0.0
H61 H 0.50443 0.70197 0.3109 0.0
C62 C 0.50727 0.7205 0.32671 0.0
C63 C 0.51637 0.72703 0.42321 0.0
C64 C 0.52 0.75122 0.44387 0.0
C65 C 0.51538 0.79474 0.39071 0.0
H66 H 0.52746 0.75624 0.5184 0.0
C67 C 0.51815 0.81173 0.30948 0.0
C68 C 0.51709 0.83617 0.33097 0.0
C69 C 0.51258 0.803 0.49361 0.0
H70 H 0.50984 0.79097 0.55789 0.0
C71 C 0.51225 0.82705 0.51521 0.0
H72 H 0.52055 0.80612 0.22942 0.0
C73 C 0.51423 0.84348 0.43484 0.0
H74 H 0.51349 0.86203 0.45392 0.0
H75 H 0.50992 0.83303 0.59481 0.0
H76 H 0.29013 0.55035 0.20311 0.0
C77 C 0.27673 0.54586 0.1465 0.0
C78 C 0.25492 0.55693 0.15545 0.0
C79 C 0.28122 0.52979 0.06487 0.0
H80 H 0.22061 0.56131 0.08931 0.0
C81 C 0.23739 0.55261 0.0811 0.0
C82 C 0.24014 0.5359 0.00208 0.0
C83 C 0.26222 0.52421 0.99467 0.0
C84 C 0.30605 0.52044 0.05099 0.0
H85 H 0.26454 0.51114 0.93415 0.0
C86 C 0.32267 0.51942 0.13511 0.0
C87 C 0.34678 0.51441 0.11687 0.0
C88 C 0.31418 0.51479 0.95022 0.0
H89 H 0.30262 0.5157 0.88315 0.0
C90 C 0.33774 0.50899 0.93289 0.0
H91 H 0.31727 0.52308 0.2144 0.0
C92 C 0.35395 0.50914 0.01484 0.0
H93 H 0.37223 0.50518 0.99844 0.0
H94 H 0.34363 0.50496 0.85454 0.0
H95 H 0.9914 0.28087 0.21643 0.0
C96 C 0.99691 0.26765 0.16089 0.0
C97 C 0.99046 0.24431 0.1793 0.0
C98 C 1.00994 0.27371 0.07067 0.0
H99 H 0.99129 0.20889 0.12371 0.0
C100 C 0.99629 0.22687 0.10738 0.0
C101 C 1.00869 0.23177 0.01641 0.0
C102 C 1.0161 0.25528 -0.00113 0.0
C103 C 1.01565 0.29931 0.04986 0.0
H104 H 0.02628 0.25905 0.92951 0.0
C105 C 0.01796 0.31625 0.13182 0.0
C106 C 0.02166 0.34048 0.10994 0.0
C107 C 0.01743 0.30734 0.94622 0.0
H108 H 1.01509 0.29551 0.88089 0.0
C109 C 0.02138 0.33104 0.92436 0.0
H110 H 0.01721 0.31073 0.21258 0.0
C111 C 0.02335 0.34743 0.00483 0.0
H112 H 0.02571 0.36576 0.98423 0.0
H113 H 0.02247 0.33685 0.84399 0.0
H114 H 0.25717 0.0533 0.21272 0.0
C115 C 0.27003 0.04839 0.15455 0.0
C116 C 0.29246 0.05849 0.16156 0.0
C117 C 0.26442 0.03236 0.07382 0.0
H118 H 0.32646 0.06145 0.08933 0.0
C119 C 0.30915 0.05355 0.08415 0.0
C120 C 0.3053 0.03651 0.00771 0.0
C121 C 0.28284 0.02563 0.00329 0.0
C122 C 0.23929 0.0238 0.06141 0.0
H123 H 0.27983 1.01222 0.94481 0.0
C124 C 0.2228 0.02356 0.14584 0.0
C125 C 0.19859 0.01875 0.12852 0.0
C126 C 0.23089 0.0178 0.9613 0.0
H127 H 0.24231 0.01823 0.8938 0.0
C128 C 0.20727 1.01214 0.94499 0.0
H129 H 0.22839 0.02765 0.22452 0.0
C130 C 0.19124 1.01286 0.0272 0.0
H131 H 0.17291 1.00885 0.01145 0.0
H132 H 0.20121 1.00772 0.86722 0.0
H133 H 0.54488 0.24693 0.23979 0.0
C134 C 0.5392 0.26001 0.18384 0.0
C135 C 0.54499 0.28355 0.20238 0.0
C136 C 0.52665 0.25355 0.09262 0.0
H137 H 0.54392 0.31887 0.14433 0.0
C138 C 0.5391 0.30075 0.12922 0.0
C139 C 0.52733 0.29533 0.03717 0.0
C140 C 0.5205 0.2717 0.01961 0.0
C141 C 0.52144 0.22788 0.07172 0.0
H142 H 0.5108 0.26762 0.94915 0.0
C143 C 0.51873 0.21107 0.15377 0.0
C144 C 0.51524 0.18681 0.13201 0.0
C145 C 0.5204 0.21969 0.96807 0.0
H146 H 0.52312 0.23144 0.90275 0.0
C147 C 0.51667 0.19596 0.94632 0.0
H148 H 0.519 0.21673 0.23442 0.0
C149 C 0.51422 0.17969 0.02695 0.0
H150 H 0.51205 0.16133 0.0066 0.0
H151 H 0.51612 0.19003 0.866 0.0
Ho152 Ho 0.03621 1.00974 0.82462 0.0
Ho153 Ho 1.01158 0.01956 0.6115 0.0
C154 C 0.02017 0.96551 0.67539 0.0
C155 C 0.04604 0.99214 0.00365 0.0
C156 C 0.03705 0.96965 0.04545 0.0
C157 C 1.01291 0.96694 0.06719 0.0
C158 C 1.0031 0.94457 0.07709 0.0
C159 C 0.01733 0.92461 0.06805 0.0
C160 C 0.04174 0.92726 0.05586 0.0
C161 C 0.05154 0.94964 0.04429 0.0
C162 C 0.06551 0.02063 0.66386 0.0
C163 C 0.02414 0.0634 0.76969 0.0
C164 C 1.00234 0.03237 0.42397 0.0
C165 C 0.98732 0.05177 0.388 0.0
C166 C 0.996 0.0673 0.31262 0.0
C167 C 0.98508 0.08894 0.29663 0.0
C168 C 0.96513 0.09541 0.35546 0.0
C169 C 0.95543 0.07903 0.42529 0.0
C170 C 0.96648 0.05741 0.44171 0.0
C171 C 0.97848 0.01743 0.76736 0.0
O172 O 0.02512 0.97315 0.77097 0.0
O173 O 1.01653 0.98035 0.59719 0.0
O174 O 0.0601 0.99014 0.92308 0.0
O175 O 0.03044 1.0089 0.99134 0.0
O176 O 0.06878 0.02719 0.76008 0.0
O177 O 0.04722 1.00791 0.65873 0.0
O178 O 0.02018 0.0563 0.6722 0.0
O179 O 0.0284 0.04824 0.84608 0.0
O180 O 0.99158 1.0147 0.46946 0.0
O181 O 0.02132 0.03921 0.47404 0.0
O182 O 0.9737 0.02203 0.67079 0.0
O183 O 1.0004 1.01475 0.77288 0.0
H184 H 1.00132 0.982 0.07115 0.0
H185 H 0.98435 0.94279 0.08995 0.0
H186 H 0.05305 0.91198 0.05031 0.0
H187 H 0.0702 0.95121 0.02819 0.0
H188 H 1.01219 0.0634 0.27135 0.0
H189 H 0.99333 0.10121 0.2433 0.0
H190 H 0.9399 0.08329 0.47048 0.0
H191 H 0.9594 0.04573 0.50057 0.0
Ho192 Ho 0.52736 0.02478 0.82334 0.0
Ho193 Ho 0.51741 0.99806 0.62325 0.0
C194 C 0.57135 1.00802 0.67026 0.0
C195 C 0.54653 0.04157 0.98983 0.0
C196 C 0.56903 0.05415 0.00239 0.0
C197 C 0.58914 0.04689 0.94729 0.0
C198 C 0.61002 0.05965 0.9543 0.0
C199 C 0.61138 0.07954 0.01859 0.0
C200 C 0.59133 0.08694 0.07355 0.0
C201 C 0.57016 0.07453 0.06388 0.0
C202 C 0.51461 0.05241 0.66064 0.0
C203 C 0.47437 1.01199 0.77977 0.0
C204 C 0.50168 0.99329 0.43718 0.0
C205 C 0.48008 1.0047 0.39887 0.0
C206 C 0.47733 0.02921 0.40835 0.0
C207 C 0.45502 0.03935 0.40439 0.0
C208 C 0.43505 0.02518 0.39027 0.0
C209 C 0.43794 1.00088 0.37399 0.0
C210 C 0.46026 0.99076 0.37765 0.0
C211 C 0.52064 0.96553 0.77881 0.0
O212 O 0.56363 0.02155 0.74761 0.0
O213 O 0.55674 0.99553 0.61186 0.0
O214 O 0.53059 0.05289 0.9364 0.0
O215 O 0.54782 0.01934 0.96387 0.0
O216 O 0.50765 0.0555 0.75597 0.0
O217 O 0.52819 0.03475 0.65712 0.0
O218 O 0.48144 1.01 0.68146 0.0
O219 O 0.49 1.01398 0.85607 0.0
O220 O 0.49799 0.97763 0.51005 0.0
O221 O 0.51944 1.00717 0.45915 0.0
O222 O 0.51769 0.96056 0.68087 0.0
O223 O 0.52289 0.9876 0.78775 0.0
H224 H 0.58897 0.03114 0.90016 0.0
H225 H 0.6255 0.05324 0.91382 0.0
H226 H 0.59223 0.10198 0.12538 0.0
H227 H 0.55472 0.08066 0.10496 0.0
H228 H 0.49222 0.04047 0.42469 0.0
H229 H 0.45335 0.0582 0.41442 0.0
H230 H 0.42283 0.98949 0.363 0.0
H231 H 0.46185 0.97182 0.3714 0.0
Ho232 Ho 0.50653 0.51728 0.8417 0.0
Ho233 Ho 0.5322 0.50539 0.62071 0.0
C234 C 0.52127 0.56 0.68465 0.0
C235 C 0.49599 0.52888 0.02951 0.0
C236 C 0.48036 0.5476 0.06711 0.0
C237 C 0.48834 0.56252 0.14636 0.0
C238 C 0.47738 0.5841 0.16305 0.0
C239 C 0.45807 0.59112 0.10101 0.0
C240 C 0.44876 0.57507 0.02839 0.0
C241 C 0.45988 0.55352 0.01124 0.0
C242 C 0.47502 0.51654 0.6774 0.0
C243 C 0.51771 0.46266 0.77799 0.0
C244 C 0.54253 0.49351 0.43303 0.0
C245 C 0.55791 0.47457 0.39548 0.0
C246 C 0.54955 0.45945 0.31776 0.0
C247 C 0.56053 0.43789 0.30058 0.0
C248 C 0.58027 0.43111 0.36039 0.0
C249 C 0.58981 0.44727 0.43192 0.0
C250 C 0.57866 0.46879 0.44968 0.0
C251 C 0.56373 0.50619 0.78501 0.0
O252 O 0.51653 0.55352 0.78232 0.0
O253 O 0.52515 0.54453 0.60851 0.0
O254 O 0.48588 0.51123 0.98085 0.0
O255 O 0.51491 0.53661 0.98172 0.0
O256 O 0.46955 0.52127 0.77331 0.0
O257 O 0.49684 0.51258 0.67764 0.0
O258 O 0.5225 0.46913 0.6804 0.0
O259 O 0.51364 0.47813 0.85389 0.0
O260 O 0.55286 0.51109 0.48128 0.0
O261 O 0.52353 0.48606 0.48105 0.0
O262 O 0.56922 0.5016 0.68897 0.0
O263 O 0.54188 0.51001 0.78487 0.0
H264 H 0.50421 0.55835 0.18965 0.0
H265 H 0.48536 0.596 0.21875 0.0
H266 H 0.43366 0.57965 0.98093 0.0
H267 H 0.45332 0.54224 0.94964 0.0
H268 H 0.53346 0.46349 0.27587 0.0
H269 H 0.55235 0.42588 0.24589 0.0
H270 H 0.60523 0.44286 0.47769 0.0
H271 H 0.5855 0.4802 0.51025 0.0
Ho272 Ho 0.01732 0.50032 0.81893 0.0
Ho273 Ho 0.02265 0.52842 0.64009 0.0
C274 C 0.97023 0.51354 0.68072 0.0
C275 C 1.0029 0.48051 0.98837 0.0
C276 C 0.98082 0.46803 0.01135 0.0
C277 C 0.96713 0.47564 0.09539 0.0
C278 C 0.94417 0.46749 0.1073 0.0
C279 C 0.93446 0.45114 0.03633 0.0
C280 C 0.94874 0.44255 0.95529 0.0
C281 C 0.97166 0.45105 0.94238 0.0
C282 C 0.02663 0.47373 0.64676 0.0
C283 C 0.06965 0.51531 0.77435 0.0
C284 C 0.03806 0.54874 0.47423 0.0
C285 C 0.06271 0.55456 0.44945 0.0
C286 C 0.07898 0.53647 0.43052 0.0
C287 C 0.1029 0.54138 0.42551 0.0
C288 C 0.11112 0.56447 0.43849 0.0
C289 C 0.09498 0.58273 0.45498 0.0
C290 C 0.07088 0.57782 0.45987 0.0
C291 C 1.01298 0.55441 0.81347 0.0
O292 O 0.97878 0.50724 0.77309 0.0
O293 O 0.98475 0.52043 0.6067 0.0
O294 O 0.01731 0.47035 0.92313 0.0
O295 O 1.00045 0.50296 0.96964 0.0
O296 O 0.03629 0.47088 0.73741 0.0
O297 O 1.01253 0.49093 0.65096 0.0
O298 O 0.061 0.51935 0.67996 0.0
O299 O 0.05495 0.5106 0.85125 0.0
O300 O 0.02909 0.56034 0.55249 0.0
O301 O 0.03283 0.52636 0.47785 0.0
O302 O 1.00259 0.55686 0.72406 0.0
O303 O 0.02754 0.53762 0.80788 0.0
H304 H 0.97374 0.48893 0.14862 0.0
H305 H 0.9337 0.4751 0.16926 0.0
H306 H 0.94202 0.42977 0.90004 0.0
H307 H 0.98182 0.44503 0.87604 0.0
H308 H 0.07341 0.51832 0.42298 0.0
H309 H 0.11507 0.527 0.41277 0.0
H310 H 0.10097 0.60073 0.46331 0.0
H311 H 0.05869 0.59206 0.47493 0.0
C312 C 0.18187 1.00743 0.30516 0.0
C313 C 0.18037 0.02069 0.21297 0.0
C314 C 0.16332 1.0074 0.37897 0.0
C315 C 0.14292 0.02134 0.3616 0.0
C316 C 0.14176 0.03533 0.27008 0.0
C317 C 0.16028 0.03465 0.1969 0.0
C318 C 0.16528 0.99195 0.47434 0.0
C319 C 0.12079 0.05091 0.24875 0.0
C320 C 0.08443 1.00621 0.49705 0.0
C321 C 0.08453 0.0215 0.58315 0.0
C322 C 0.10334 1.00577 0.42534 0.0
C323 C 0.12275 0.0213 0.43842 0.0
C324 C 0.12261 0.03713 0.52405 0.0
C325 C 0.1037 0.03688 0.59552 0.0
C326 C 0.10271 0.9884 0.33624 0.0
C327 C 0.14248 0.05442 0.54025 0.0
H328 H 0.19718 0.99642 0.31772 0.0
H329 H 0.159 0.04503 0.1261 0.0
H330 H 0.16373 1.00273 0.54617 0.0
H331 H 0.15059 0.97906 0.47517 0.0
H332 H 0.18221 0.9822 0.47702 0.0
H333 H 0.12302 0.06155 0.17669 0.0
H334 H 0.10469 0.04001 0.24031 0.0
H335 H 0.11788 0.06299 0.31555 0.0
H336 H 0.06979 0.99416 0.48702 0.0
H337 H 0.10394 0.0488 0.66159 0.0
H338 H 0.11851 0.97696 0.33928 0.0
H339 H 0.10316 0.99788 0.26058 0.0
H340 H 0.08673 0.97711 0.33809 0.0
H341 H 0.15929 0.04484 0.55152 0.0
H342 H 0.13952 0.06598 0.60894 0.0
H343 H 0.14454 0.06562 0.46985 0.0
C344 C 0.5286 0.16856 0.3031 0.0
C345 C 0.51338 0.16844 0.21652 0.0
C346 C 0.52861 0.14992 0.37633 0.0
C347 C 0.51301 0.13059 0.36342 0.0
C348 C 0.49717 0.1307 0.27782 0.0
C349 C 0.4975 0.14953 0.20613 0.0
C350 C 0.54572 0.15068 0.46647 0.0
C351 C 0.48013 0.11065 0.26066 0.0
C352 C 0.52808 0.07149 0.49253 0.0
C353 C 0.51358 0.07163 0.58118 0.0
C354 C 0.52801 0.09044 0.42114 0.0
C355 C 0.51325 0.1102 0.43877 0.0
C356 C 0.49846 0.11027 0.52785 0.0
C357 C 0.49877 0.09106 0.59747 0.0
C358 C 0.54384 0.08939 0.32688 0.0
C359 C 0.48238 0.13078 0.55023 0.0
H360 H 0.5411 0.18284 0.3118 0.0
H361 H 0.48537 0.1493 0.14077 0.0
H362 H 0.53612 0.14893 0.54148 0.0
H363 H 0.55806 0.13562 0.46102 0.0
H364 H 0.55611 0.16724 0.46809 0.0
H365 H 0.46867 0.11349 0.19146 0.0
H366 H 0.48999 0.09399 0.24963 0.0
H367 H 0.4688 0.10833 0.33042 0.0
H368 H 0.53965 0.05663 0.47937 0.0
H369 H 0.4875 0.09138 0.66571 0.0
H370 H 0.55721 0.1036 0.33136 0.0
H371 H 0.53334 0.09239 0.25506 0.0
H372 H 0.55306 0.07223 0.32 0.0
H373 H 0.49289 0.14716 0.55787 0.0
H374 H 0.47202 0.12824 0.62291 0.0
H375 H 0.46999 0.13336 0.48422 0.0
C376 C 0.38338 0.53227 0.1948 0.0
C377 C 0.36509 0.51567 0.20134 0.0
C378 C 0.40185 0.53286 0.26876 0.0
C379 C 0.4027 0.51589 0.34995 0.0
C380 C 0.38431 0.49895 0.35631 0.0
C381 C 0.36564 0.49922 0.28292 0.0
C382 C 0.42048 0.55171 0.25957 0.0
C383 C 0.3845 0.48031 0.44014 0.0
C384 C 0.46154 0.50536 0.49392 0.0
C385 C 0.45784 0.51723 0.58856 0.0
C386 C 0.44387 0.50474 0.4155 0.0
C387 C 0.42209 0.51659 0.43106 0.0
C388 C 0.41872 0.52919 0.52534 0.0
C389 C 0.43639 0.52911 0.60269 0.0
C390 C 0.44833 0.491 0.31677 0.0
C391 C 0.39635 0.54281 0.54488 0.0
H392 H 0.38319 0.54492 0.13143 0.0
H393 H 0.3518 0.48611 0.28752 0.0
H394 H 0.42356 0.56031 0.33618 0.0
H395 H 0.43734 0.54365 0.23487 0.0
H396 H 0.41556 0.56544 0.20188 0.0
H397 H 0.36963 0.46773 0.43197 0.0
H398 H 0.40129 0.47036 0.43709 0.0
H399 H 0.38346 0.48866 0.51827 0.0
H400 H 0.4779 0.49598 0.48246 0.0
H401 H 0.43333 0.53846 0.67521 0.0
H402 H 0.44774 0.50295 0.24836 0.0
H403 H 0.43429 0.47762 0.30576 0.0
H404 H 0.46568 0.48199 0.31784 0.0
H405 H 0.39334 0.55554 0.48054 0.0
H406 H 0.39683 0.55259 0.61995 0.0
H407 H 0.38107 0.53064 0.54617 0.0
C408 C 0.03931 0.37773 0.1851 0.0
C409 C 0.02322 0.35898 0.19423 0.0
C410 C 0.03967 0.39651 0.25705 0.0
C411 C 0.02364 0.3968 0.34177 0.0
C412 C 1.00764 0.37772 0.35293 0.0
C413 C 1.00765 0.3591 0.27949 0.0
C414 C 0.0572 0.4162 0.24182 0.0
C415 C 0.99024 0.37716 0.44184 0.0
C416 C 0.03976 0.43428 0.58032 0.0
C417 C 0.02609 0.45462 0.56618 0.0
C418 C 0.03895 0.41542 0.50885 0.0
C419 C 0.02413 0.41672 0.41982 0.0
C420 C 1.01037 0.43731 0.40457 0.0
C421 C 1.01151 0.45596 0.47771 0.0
C422 C 0.054 0.39401 0.52889 0.0
C423 C 0.99444 0.43968 0.31074 0.0
H424 H 0.05171 0.3778 0.12084 0.0
H425 H 0.99495 0.34497 0.28721 0.0
H426 H 0.04779 0.43317 0.23292 0.0
H427 H 0.06868 0.41776 0.31164 0.0
H428 H 0.0685 0.41346 0.17212 0.0
H429 H 0.97905 0.36113 0.44042 0.0
H430 H 0.99972 0.37787 0.51759 0.0
H431 H 0.97868 0.39286 0.43802 0.0
H432 H 0.05109 0.43298 0.64824 0.0
H433 H 1.00086 0.47155 0.46596 0.0
H434 H 0.06634 0.39133 0.46288 0.0
H435 H 0.04273 0.37809 0.53399 0.0
H436 H 0.06438 0.39554 0.60216 0.0
H437 H 1.00512 0.43963 0.23824 0.0
H438 H 0.98391 0.45613 0.31287 0.0
H439 H 0.98223 0.42447 0.3063 0.0
C440 C 0.88625 0.02264 0.24896 0.0
C441 C 0.86503 1.01136 0.22212 0.0
C442 C 0.90519 0.0242 0.1781 0.0
C443 C 0.90321 1.01392 0.07764 0.0
C444 C 0.88183 1.00244 0.0501 0.0
C445 C 0.86294 1.00157 0.12193 0.0
C446 C 0.9275 0.03656 0.21148 0.0
C447 C 0.87924 0.99033 0.9459 0.0
C448 C 0.94263 0.0341 0.85223 0.0
C449 C 0.96081 0.01744 0.85324 0.0
C450 C 0.9243 0.03351 0.92635 0.0
C451 C 0.92344 1.0152 0.00148 0.0
C452 C 0.94186 0.99824 0.00261 0.0
C453 C 0.96046 0.99979 0.92953 0.0
C454 C 0.90578 0.05253 0.92398 0.0
C455 C 0.9422 0.97814 0.07952 0.0
H456 H 0.88806 0.03026 0.32618 0.0
H457 H 0.84682 0.99248 0.10108 0.0
H458 H 0.94216 0.02369 0.21505 0.0
H459 H 0.9324 0.0502 0.15336 0.0
H460 H 0.92572 0.04504 0.28921 0.0
H461 H 0.86177 0.98177 0.93666 0.0
H462 H 0.88166 1.00318 0.88164 0.0
H463 H 0.89316 0.97676 0.93747 0.0
H464 H 0.94277 0.04775 0.79306 0.0
H465 H 0.97413 0.98652 0.92894 0.0
H466 H 0.90453 0.06105 0.00178 0.0
H467 H 0.88832 0.04471 0.90642 0.0
H468 H 0.90963 0.06625 0.86463 0.0
H469 H 0.95552 0.98191 0.14082 0.0
H470 H 0.94758 0.96166 0.03962 0.0
H471 H 0.92498 0.97506 0.11782 0.0
C472 C 0.53732 0.85655 0.17971 0.0
C473 C 0.5179 0.85447 0.24672 0.0
C474 C 0.53893 0.8752 0.10687 0.0
C475 C 0.52044 0.89193 0.09879 0.0
C476 C 0.50062 0.88957 0.16526 0.0
C477 C 0.49974 0.87114 0.23879 0.0
C478 C 0.56058 0.87717 0.03925 0.0
C479 C 0.48015 0.90642 0.15811 0.0
C480 C 0.52933 0.95189 0.96406 0.0
C481 C 0.52091 0.94732 0.86304 0.0
C482 C 0.52978 0.93398 0.04105 0.0
C483 C 0.52112 0.9111 0.01733 0.0
C484 C 0.51237 0.90663 0.9156 0.0
C485 C 0.51262 0.9246 0.84003 0.0
C486 C 0.53964 0.93951 0.14769 0.0
C487 C 0.50236 0.88287 0.88668 0.0
H488 H 0.55155 0.84396 0.18635 0.0
H489 H 0.48467 0.86965 0.29032 0.0
H490 H 0.55564 0.87542 0.95579 0.0
H491 H 0.56872 0.89479 0.04922 0.0
H492 H 0.5739 0.86353 0.05815 0.0
H493 H 0.46594 0.90209 0.21447 0.0
H494 H 0.48625 0.92464 0.17337 0.0
H495 H 0.47268 0.9061 0.078 0.0
H496 H 0.53585 0.96932 0.98249 0.0
H497 H 0.50594 0.92088 0.76242 0.0
H498 H 0.55385 0.92688 0.16742 0.0
H499 H 0.52569 0.93751 0.20759 0.0
H500 H 0.54682 0.95767 0.15245 0.0
H501 H 0.51592 0.86905 0.89714 0.0
H502 H 0.496 0.88226 0.80465 0.0
H503 H 0.48747 0.87846 0.9392 0.0
C504 C 0.6546 0.4879 0.26737 0.0
C505 C 0.67258 0.50494 0.26651 0.0
C506 C 0.63629 0.48797 0.19265 0.0
C507 C 0.63529 0.50598 0.11607 0.0
C508 C 0.65331 0.52337 0.11535 0.0
C509 C 0.67184 0.52247 0.1894 0.0
C510 C 0.61806 0.46863 0.19563 0.0
C511 C 0.65292 0.54311 0.03662 0.0
C512 C 0.60282 0.49466 0.85841 0.0
C513 C 0.58091 0.50557 0.87393 0.0
C514 C 0.62031 0.4944 0.93656 0.0
C515 C 0.61625 0.5058 0.03329 0.0
C516 C 0.59404 0.51674 0.05006 0.0
C517 C 0.57658 0.51632 0.97065 0.0
C518 C 0.64319 0.48177 0.91541 0.0
C519 C 0.58883 0.5292 0.15139 0.0
H520 H 0.65498 0.47425 0.32648 0.0
H521 H 0.68543 0.53587 0.18875 0.0
H522 H 0.6008 0.47605 0.21878 0.0
H523 H 0.61585 0.46067 0.1171 0.0
H524 H 0.62282 0.4545 0.25164 0.0
H525 H 0.66738 0.55596 0.04946 0.0
H526 H 0.65454 0.53586 0.95654 0.0
H527 H 0.63583 0.55251 0.04072 0.0
H528 H 0.60637 0.48616 0.78431 0.0
H529 H 0.55984 0.52491 0.98336 0.0
H530 H 0.64632 0.46828 0.97648 0.0
H531 H 0.65808 0.49439 0.91876 0.0
H532 H 0.64333 0.47302 0.83783 0.0
H533 H 0.58925 0.51644 0.21689 0.0
H534 H 0.57135 0.53793 0.15059 0.0
H535 H 0.60259 0.54263 0.16716 0.0
C536 C 0.02876 0.6717 0.16549 0.0
C537 C 0.01778 0.66947 0.26319 0.0
C538 C 0.02833 0.65308 0.09201 0.0
C539 C 1.01631 0.63179 0.11563 0.0
C540 C 1.00472 0.62975 0.21318 0.0
C541 C 1.0057 0.64843 0.28542 0.0
C542 C 0.04117 0.65602 0.98975 0.0
C543 C 0.99132 0.60772 0.24178 0.0
C544 C 0.99672 0.59162 0.89094 0.0
C545 C 1.01348 0.57349 0.894 0.0
C546 C 0.99743 0.61054 0.96221 0.0
C547 C 1.01555 0.61172 0.03841 0.0
C548 C 0.0325 0.59337 0.04219 0.0
C549 C 0.03118 0.57446 0.9706 0.0
C550 C 0.97868 0.62928 0.95608 0.0
C551 C 0.05219 0.59381 0.12142 0.0
H552 H 0.0383 0.68772 0.14778 0.0
H553 H 0.99696 0.64657 0.36017 0.0
H554 H 0.05481 0.64218 0.98199 0.0
H555 H 0.02873 0.65382 0.92362 0.0
H556 H 0.04977 0.67351 0.98297 0.0
H557 H 0.98256 0.60917 0.31904 0.0
H558 H 0.97773 0.60394 0.18173 0.0
H559 H 1.00347 0.59247 0.24374 0.0
H560 H 0.98295 0.59105 0.8323 0.0
H561 H 0.04429 0.56064 0.97343 0.0
H562 H 0.9869 0.64668 0.94144 0.0
H563 H 0.96923 0.63048 0.03171 0.0
H564 H 0.96563 0.62574 0.89332 0.0
H565 H 0.06233 0.61043 0.11405 0.0
H566 H 0.06446 0.57876 0.11205 0.0
H567 H 0.04482 0.59332 0.20157 0.0
C568 C 0.99187 0.22263 0.34223 0.0
C569 C 0.97835 0.23637 0.27444 0.0
C570 C 0.98293 0.20134 0.38023 0.0
C571 C 0.9594 0.19496 0.35608 0.0
C572 C 0.94418 0.21198 0.3121 0.0
C573 C 0.95402 0.23246 0.26869 0.0
C574 C 0.9995 0.18475 0.43558 0.0
C575 C 0.91839 0.20691 0.29615 0.0
C576 C 0.95739 0.13253 0.25804 0.0
C577 C 0.95657 0.12008 0.35203 0.0
C578 C 0.95617 0.15707 0.25656 0.0
C579 C 0.95309 0.16955 0.35191 0.0
C580 C 0.94867 0.15681 0.44486 0.0
C581 C 0.95092 0.1322 0.44435 0.0
C582 C 0.96136 0.16896 0.15363 0.0
C583 C 0.94334 0.16894 0.54686 0.0
H584 H 1.01057 0.22625 0.34909 0.0
H585 H 0.94336 0.24344 0.2181 0.0
H586 H 0.99415 0.18351 0.51848 0.0
H587 H 0.99877 0.16685 0.40112 0.0
H588 H 0.01806 0.19094 0.43335 0.0
H589 H 0.90812 0.22347 0.2897 0.0
H590 H 0.91593 0.19682 0.22277 0.0
H591 H 0.9113 0.19621 0.36155 0.0
H592 H 0.96086 0.12317 0.18584 0.0
H593 H 0.94987 0.12277 0.51777 0.0
H594 H 0.98073 0.1701 0.14417 0.0
H595 H 0.95384 0.1868 0.14728 0.0
H596 H 0.95451 0.15837 0.08728 0.0
H597 H 0.95937 0.16908 0.59638 0.0
H598 H 0.92962 0.15903 0.59034 0.0
H599 H 0.93722 0.1873 0.53561 0.0
C600 C 0.30153 0.05539 0.34874 0.0
C601 C 0.30112 0.06962 0.25924 0.0
C602 C 0.32222 0.05379 0.40847 0.0
C603 C 0.34227 0.06663 0.37589 0.0
C604 C 0.3394 0.08546 0.30466 0.0
C605 C 0.31808 0.08746 0.25019 0.0
C606 C 0.32406 0.03479 0.49015 0.0
C607 C 0.35999 0.10025 0.2696 0.0
C608 C 0.40458 0.05239 0.46563 0.0
C609 C 0.41124 0.03564 0.39067 0.0
C610 C 0.38193 0.06237 0.4641 0.0
C611 C 0.36583 0.05551 0.38534 0.0
C612 C 0.37255 0.03827 0.31073 0.0
C613 C 0.39507 0.02862 0.31491 0.0
C614 C 0.37519 0.07991 0.54718 0.0
C615 C 0.35683 0.03061 0.22176 0.0
H616 H 0.2878 0.04237 0.36025 0.0
H617 H 0.31706 0.09946 0.18447 0.0
H618 H 0.33664 0.03982 0.55263 0.0
H619 H 0.30662 0.03101 0.52563 0.0
H620 H 0.33058 0.0184 0.45304 0.0
H621 H 0.35401 0.11739 0.23751 0.0
H622 H 0.37253 0.10354 0.33435 0.0
H623 H 0.36957 0.09075 0.20692 0.0
H624 H 0.41696 0.05742 0.52618 0.0
H625 H 0.40024 1.01578 0.25687 0.0
H626 H 0.36202 0.07182 0.60006 0.0
H627 H 0.36682 0.09566 0.5122 0.0
H628 H 0.39059 0.08562 0.59437 0.0
H629 H 0.33808 0.02972 0.24433 0.0
H630 H 0.36188 1.01303 0.19123 0.0
H631 H 0.35889 0.04337 0.15703 0.0
C632 C 0.54529 0.30758 0.35937 0.0
C633 C 0.55759 0.29178 0.29602 0.0
C634 C 0.55616 0.3283 0.39349 0.0
C635 C 0.58027 0.33208 0.3702 0.0
C636 C 0.59386 0.31327 0.33036 0.0
C637 C 0.5822 0.29331 0.29106 0.0
C638 C 0.54088 0.34757 0.43786 0.0
C639 C 0.62 0.31579 0.31381 0.0
C640 C 0.58663 0.39342 0.26462 0.0
C641 C 0.58838 0.40624 0.35755 0.0
C642 C 0.58629 0.36883 0.26562 0.0
C643 C 0.58894 0.35671 0.36203 0.0
C644 C 0.5949 0.36956 0.45293 0.0
C645 C 0.59401 0.39424 0.45033 0.0
C646 C 0.57975 0.3566 0.16491 0.0
C647 C 0.60007 0.35753 0.55543 0.0
H648 H 0.52628 0.30603 0.36448 0.0
H649 H 0.59185 0.28081 0.24367 0.0
H650 H 0.54931 0.35553 0.5073 0.0
H651 H 0.53863 0.36166 0.37863 0.0
H652 H 0.52317 0.34104 0.46064 0.0
H653 H 0.62871 0.29832 0.31073 0.0
H654 H 0.6233 0.32489 0.23854 0.0
H655 H 0.62809 0.32645 0.37706 0.0
H656 H 0.58339 0.40258 0.19173 0.0
H657 H 0.5959 0.40385 0.52292 0.0
H658 H 0.56028 0.35609 0.15876 0.0
H659 H 0.58653 0.33842 0.16 0.0
H660 H 0.58641 0.36652 0.09623 0.0
H661 H 0.58414 0.35788 0.60543 0.0
H662 H 0.61417 0.3671 0.59812 0.0
H663 H 0.60558 0.33897 0.54457 0.0
C664 C 0.24522 0.55675 0.34277 0.0
C665 C 0.24808 0.56982 0.25087 0.0
C666 C 0.22643 0.5617 0.41035 0.0
C667 C 0.2107 0.58005 0.38387 0.0
C668 C 0.21736 0.59662 0.30696 0.0
C669 C 0.23613 0.59123 0.24026 0.0
C670 C 0.22067 0.54444 0.49599 0.0
C671 C 0.20202 0.61746 0.28166 0.0
C672 C 0.14813 0.5599 0.34114 0.0
C673 C 0.13647 0.5693 0.42716 0.0
C674 C 0.17224 0.56297 0.32821 0.0
C675 C 0.18516 0.57637 0.40241 0.0
C676 C 0.1734 0.58625 0.48948 0.0
C677 C 0.14904 0.58248 0.50115 0.0
C678 C 0.18335 0.55243 0.23199 0.0
C679 C 0.18635 0.60038 0.57108 0.0
H680 H 0.25492 0.54047 0.3526 0.0
H681 H 0.2389 0.60176 0.17071 0.0
H682 H 0.21265 0.55349 0.56386 0.0
H683 H 0.20776 0.53137 0.46622 0.0
H684 H 0.23663 0.53483 0.52232 0.0
H685 H 0.21232 0.63161 0.24296 0.0
H686 H 0.18782 0.61185 0.2274 0.0
H687 H 0.19367 0.62462 0.35323 0.0
H688 H 0.13824 0.55013 0.28291 0.0
H689 H 0.13992 0.58954 0.56855 0.0
H690 H 0.20059 0.54429 0.24967 0.0
H691 H 0.18586 0.56661 0.17364 0.0
H692 H 0.17208 0.53867 0.19595 0.0
H693 H 0.19413 0.5882 0.62926 0.0
H694 H 0.17427 0.61243 0.6133 0.0
H695 H 0.20087 0.61085 0.53641 0.0
C696 C 0.9529 0.80822 0.21421 0.0
C697 C 0.97049 0.79104 0.20531 0.0
C698 C 0.95585 0.82988 0.16354 0.0
C699 C 0.97486 0.83259 0.09309 0.0
C700 C 0.98724 0.81241 0.05907 0.0
C701 C 0.98503 0.79154 0.1169 0.0
C702 C 0.94183 0.85066 0.20213 0.0
C703 C 1.00621 0.81411 0.97717 0.0
C704 C 0.98888 0.89463 0.00101 0.0
C705 C 1.00669 0.90101 0.07146 0.0
C706 C 0.97867 0.87212 0.00466 0.0
C707 C 0.98614 0.85605 0.08219 0.0
C708 C 1.00425 0.86262 0.1533 0.0
C709 C 1.01444 0.88493 0.14592 0.0
C710 C 0.9603 0.86542 0.92485 0.0
C711 C 1.01225 0.84689 0.24153 0.0
H712 H 0.94062 0.8071 0.2789 0.0
H713 H 0.99779 0.77762 0.10502 0.0
H714 H 0.95163 0.8592 0.26698 0.0
H715 H 0.93914 0.86397 0.14014 0.0
H716 H 0.92439 0.84505 0.23254 0.0
H717 H 1.00958 0.79672 0.94063 0.0
H718 H 1.00135 0.82694 0.9155 0.0
H719 H 0.0228 0.82023 0.0143 0.0
H720 H 0.98327 0.90712 0.94204 0.0
H721 H 0.02813 0.89011 0.20039 0.0
H722 H 0.95469 0.88069 0.87681 0.0
H723 H 0.94455 0.85773 0.96287 0.0
H724 H 0.9676 0.8517 0.87261 0.0
H725 H 0.99923 0.84815 0.30565 0.0
H726 H 0.02961 0.85238 0.27339 0.0
H727 H 1.01366 0.82827 0.21731 0.0
C728 C 0.73799 0.0578 0.10511 0.0
C729 C 0.74786 0.06917 0.19167 0.0
C730 C 0.71819 0.06725 0.05519 0.0
C731 C 0.70916 0.08914 0.08977 0.0
C732 C 0.72269 0.103 0.15931 0.0
C733 C 0.74162 0.09254 0.21257 0.0
C734 C 0.70494 0.05212 0.9779 0.0
C735 C 0.71509 0.1275 0.18877 0.0
C736 C 0.64933 0.09851 0.96595 0.0
C737 C 0.63478 0.08905 0.04369 0.0
C738 C 0.67357 0.10151 0.98381 0.0
C739 C 0.68343 0.09354 0.07917 0.0
C740 C 0.66826 0.08555 0.16009 0.0
C741 C 0.64408 0.08394 0.14176 0.0
C742 C 0.68846 0.11175 0.89758 0.0
C743 C 0.67754 0.07549 0.26108 0.0
H744 H 0.74311 0.03981 0.08842 0.0
H745 H 0.74949 0.10151 0.27868 0.0
H746 H 0.68774 0.04678 0.01159 0.0
H747 H 0.70136 0.06219 0.90557 0.0
H748 H 0.71484 0.03599 0.95657 0.0
H749 H 0.73031 0.13811 0.21644 0.0
H750 H 0.70672 0.1365 0.12133 0.0
H751 H 0.70202 0.12661 0.25295 0.0
H752 H 0.64196 0.10253 0.88985 0.0
H753 H 0.63272 0.0763 0.20087 0.0
H754 H 0.7065 0.11638 0.92385 0.0
H755 H 0.67988 0.1278 0.86604 0.0
H756 H 0.6896 0.09898 0.83225 0.0
H757 H 0.66333 0.07179 0.31836 0.0
H758 H 0.69034 0.08756 0.29835 0.0
H759 H 0.68658 0.05871 0.24333 0.0
C760 C 0.46351 0.72862 0.1586 0.0
C761 C 0.48818 0.72814 0.15934 0.0
C762 C 0.45073 0.70942 0.1188 0.0
C763 C 0.46318 0.68937 0.08387 0.0
C764 C 0.48779 0.69099 0.06654 0.0
C765 C 0.4999 0.71094 0.10127 0.0
C766 C 0.42431 0.70921 0.12949 0.0
C767 C 0.50205 0.67018 0.02981 0.0
C768 C 0.45219 0.62929 0.19379 0.0
C769 C 0.45056 0.61618 0.10151 0.0
C770 C 0.45379 0.65382 0.19079 0.0
C771 C 0.45253 0.66557 0.09306 0.0
C772 C 0.44647 0.65271 0.00247 0.0
C773 C 0.44608 0.62804 0.00709 0.0
C774 C 0.46028 0.66644 0.29065 0.0
C775 C 0.44296 0.66473 0.89857 0.0
H776 H 0.45435 0.74223 0.20176 0.0
H777 H 0.51901 0.71092 0.1007 0.0
H778 H 0.41601 0.69778 0.06955 0.0
H779 H 0.41944 0.70234 0.20764 0.0
H780 H 0.41707 0.72728 0.12246 0.0
H781 H 0.52013 0.67539 0.00598 0.0
H782 H 0.5035 0.65719 0.09427 0.0
H783 H 0.49342 0.6613 0.9631 0.0
H784 H 0.45453 0.62027 0.26769 0.0
H785 H 0.44432 0.61823 0.93498 0.0
H786 H 0.4516 0.68379 0.29668 0.0
H787 H 0.4796 0.66925 0.29191 0.0
H788 H 0.45555 0.65595 0.36081 0.0
H789 H 0.43501 0.6824 0.90865 0.0
H790 H 0.43154 0.65405 0.84636 0.0
H791 H 0.4602 0.66701 0.85928 0.0
C792 C 0.81026 0.48713 0.10808 0.0
C793 C 0.79658 0.47274 0.17229 0.0
C794 C 0.82977 0.47788 0.05597 0.0
C795 C 0.8346 0.45348 0.0643 0.0
C796 C 0.81742 0.43837 0.10811 0.0
C797 C 0.79875 0.44828 0.16487 0.0
C798 C 0.84641 0.49472 0.00249 0.0
C799 C 0.82069 0.41208 0.10886 0.0
C800 C 0.89508 0.44269 0.95247 0.0
C801 C 0.909 0.44504 0.04289 0.0
C802 C 0.87037 0.44224 0.95897 0.0
C803 C 0.85948 0.44557 0.05712 0.0
C804 C 0.87349 0.44576 0.14908 0.0
C805 C 0.89797 0.4446 0.14054 0.0
C806 C 0.85609 0.43989 0.86015 0.0
C807 C 0.86329 0.45043 0.25611 0.0
H808 H 0.80798 0.50605 0.1123 0.0
H809 H 0.78782 0.4371 0.21345 0.0
H810 H 0.84427 0.4927 0.917 0.0
H811 H 0.84262 0.51336 0.02225 0.0
H812 H 0.86503 0.49106 0.02291 0.0
H813 H 0.80347 0.40289 0.11511 0.0
H814 H 0.82986 0.40608 0.03712 0.0
H815 H 0.83155 0.40695 0.17721 0.0
H816 H 0.90327 0.44265 0.87609 0.0
H817 H 0.90855 0.44526 0.21097 0.0
H818 H 0.85255 0.45756 0.82725 0.0
H819 H 0.83892 0.4312 0.87533 0.0
H820 H 0.86581 0.42963 0.80029 0.0
H821 H 0.85915 0.46943 0.26207 0.0
H822 H 0.87591 0.44609 0.31964 0.0
H823 H 0.84693 0.44034 0.26989 0.0
C824 C 0.03549 0.20186 0.93038 0.0
C825 C 1.01288 0.21127 0.94455 0.0
C826 C 0.03866 0.17874 0.89118 0.0
C827 C 0.0188 0.16442 0.86721 0.0
C828 C 0.99606 0.17448 0.87517 0.0
C829 C 0.99343 0.19763 0.91285 0.0
C830 C 0.06326 0.16915 0.88027 0.0
C831 C 0.97432 0.16025 0.85023 0.0
C832 C 0.02337 0.10624 0.71414 0.0
C833 C 0.02367 0.0893 0.79421 0.0
C834 C 0.02256 0.1306 0.73624 0.0
C835 C 0.02154 0.13857 0.84131 0.0
C836 C 0.02182 0.12152 0.92248 0.0
C837 C 0.02306 0.0973 0.89813 0.0
C838 C 0.02178 0.14755 0.64581 0.0
C839 C 0.01997 0.1288 0.03558 0.0
H840 H 0.05061 0.21197 0.9561 0.0
H841 H 0.97586 0.20459 0.92462 0.0
H842 H 0.06612 0.15503 0.93869 0.0
H843 H 0.06559 0.16124 0.80169 0.0
H844 H 0.07687 0.18297 0.89189 0.0
H845 H 0.95797 0.1709 0.85511 0.0
H846 H 0.97564 0.15271 0.77061 0.0
H847 H 0.97286 0.14532 0.9057 0.0
H848 H 0.02371 0.10049 0.63343 0.0
H849 H 0.02303 0.08456 0.96107 0.0
H850 H 0.02953 0.1649 0.66582 0.0
H851 H 1.00313 0.15019 0.62318 0.0
H852 H 0.03116 0.14035 0.57677 0.0
H853 H 0.0333 0.14245 0.05424 0.0
H854 H 0.02238 0.11374 0.08981 0.0
H855 H 1.00236 0.1366 0.04986 0.0
C856 C 0.34 0.04769 0.89633 0.0
C857 C 0.32622 0.02981 0.94169 0.0
C858 C 0.36323 0.04359 0.86213 0.0
C859 C 0.37318 0.02082 0.87092 0.0
C860 C 0.35877 1.00225 0.90927 0.0
C861 C 0.33559 1.00697 0.94479 0.0
C862 C 0.37771 0.06421 0.82488 0.0
C863 C 0.3683 0.97761 0.91875 0.0
C864 C 0.43143 1.01022 0.72428 0.0
C865 C 0.44842 1.01327 0.80347 0.0
C866 C 0.40702 1.01196 0.74527 0.0
C867 C 0.39909 0.0171 0.84789 0.0
C868 C 0.41616 0.02012 0.92792 0.0
C869 C 0.44041 0.01803 0.90511 0.0
C870 C 0.38967 1.00866 0.65713 0.0
C871 C 0.4088 0.02595 0.03798 0.0
H872 H 0.33311 0.06547 0.89433 0.0
H873 H 0.32541 0.99309 0.98128 0.0
H874 H 0.38972 0.06986 0.88856 0.0
H875 H 0.38878 0.0593 0.75706 0.0
H876 H 0.36651 0.07943 0.80291 0.0
H877 H 0.35418 0.9646 0.93522 0.0
H878 H 0.37753 0.97243 0.84597 0.0
H879 H 0.38134 0.97693 0.98326 0.0
H880 H 0.43719 1.00658 0.64524 0.0
H881 H 0.45316 0.02051 0.96718 0.0
H882 H 0.3796 0.02514 0.64473 0.0
H883 H 0.37676 0.99475 0.67772 0.0
H884 H 0.39843 1.00377 0.58271 0.0
H885 H 0.39687 1.01204 0.06768 0.0
H886 H 0.39887 0.04274 0.03898 0.0
H887 H 0.42406 0.02755 0.09189 0.0
C888 C 0.54337 0.32768 0.9262 0.0
C889 C 0.52354 0.31536 0.96294 0.0
C890 C 0.5416 0.35075 0.88668 0.0
C891 C 0.51938 0.36204 0.88261 0.0
C892 C 0.49905 0.34907 0.91255 0.0
C893 C 0.50138 0.326 0.95306 0.0
C894 C 0.56382 0.36359 0.85591 0.0
C895 C 0.47496 0.36013 0.90816 0.0
C896 C 0.51926 0.42932 0.9086 0.0
C897 C 0.51743 0.43688 0.80436 0.0
C898 C 0.51966 0.40519 0.93483 0.0
C899 C 0.51785 0.38786 0.85531 0.0
C900 C 0.51571 0.39537 0.75001 0.0
C901 C 0.51566 0.41965 0.72585 0.0
C902 C 0.52275 0.39828 0.04788 0.0
C903 C 0.51333 0.37774 0.6626 0.0
H904 H 0.56062 0.31981 0.93561 0.0
H905 H 0.48606 0.31692 0.98356 0.0
H906 H 0.56184 0.37148 0.77715 0.0
H907 H 0.56711 0.3782 0.91155 0.0
H908 H 0.57945 0.35187 0.85567 0.0
H909 H 0.46073 0.3471 0.9223 0.0
H910 H 0.47371 0.37414 0.96824 0.0
H911 H 0.47205 0.36852 0.83098 0.0
H912 H 0.52089 0.4423 0.97017 0.0
H913 H 0.51407 0.42513 0.64508 0.0
H914 H 0.52166 0.41364 0.10129 0.0
H915 H 0.5402 0.38986 0.05839 0.0
H916 H 0.50918 0.38525 0.07113 0.0
H917 H 0.52708 0.36398 0.66913 0.0
H918 H 0.51464 0.3861 0.5844 0.0
H919 H 0.49602 0.36879 0.66865 0.0
C920 C 0.20905 0.5081 0.92789 0.0
C921 C 0.2187 0.53081 0.9352 0.0
C922 C 0.1858 0.50439 0.89 0.0
C923 C 0.17151 0.52381 0.85995 0.0
C924 C 0.18177 0.54657 0.86109 0.0
C925 C 0.20509 0.54969 0.89711 0.0
C926 C 0.17609 0.47971 0.8873 0.0
C927 C 0.16757 0.56798 0.83129 0.0
C928 C 0.11234 0.51668 0.71324 0.0
C929 C 0.09579 0.51693 0.79505 0.0
C930 C 0.1369 0.51831 0.73272 0.0
C931 C 0.14541 0.52078 0.83668 0.0
C932 C 0.12871 0.5213 0.91924 0.0
C933 C 0.10436 0.51912 0.89768 0.0
C934 C 0.15373 0.51751 0.64163 0.0
C935 C 0.1365 0.5249 0.03085 0.0
H936 H 0.2191 0.49336 0.95765 0.0
H937 H 0.21226 0.56734 0.90168 0.0
H938 H 0.16266 0.47762 0.94952 0.0
H939 H 0.16725 0.47631 0.81141 0.0
H940 H 0.19003 0.4663 0.8994 0.0
H941 H 0.17839 0.58427 0.83041 0.0
H942 H 0.15953 0.56563 0.75308 0.0
H943 H 0.15298 0.57037 0.88787 0.0
H944 H 0.10612 0.51499 0.63358 0.0
H945 H 0.09192 0.51965 0.96177 0.0
H946 H 0.16799 0.50463 0.65693 0.0
H947 H 0.16215 0.53496 0.63111 0.0
H948 H 0.14475 0.51271 0.56752 0.0
H949 H 0.14947 0.51124 0.05343 0.0
H950 H 0.12155 0.52431 0.0867 0.0
H951 H 0.14535 0.54223 0.03827 0.0
C952 C 0.03109 0.82706 0.51693 0.0
C953 C 1.00898 0.81617 0.52578 0.0
C954 C 0.03467 0.85058 0.55023 0.0
C955 C 1.01562 0.86378 0.59208 0.0
C956 C 0.99367 0.85234 0.60645 0.0
C957 C 0.99073 0.8288 0.5743 0.0
C958 C 0.05845 0.86179 0.53386 0.0
C959 C 0.97253 0.86551 0.64692 0.0
C960 C 0.02444 0.92294 0.73348 0.0
C961 C 0.01923 0.93943 0.65464 0.0
C962 C 0.02393 0.89843 0.71383 0.0
C963 C 0.01788 0.8899 0.6131 0.0
C964 C 1.01263 0.90645 0.53341 0.0
C965 C 1.01346 0.93081 0.55485 0.0
C966 C 0.02962 0.88158 0.80126 0.0
C967 C 1.00596 0.8984 0.42505 0.0
H968 H 0.04513 0.8178 0.47717 0.0
H969 H 0.97343 0.82078 0.57951 0.0
H970 H 0.05745 0.8743 0.4675 0.0
H971 H 0.06382 0.87193 0.60402 0.0
H972 H 0.07223 0.84853 0.51624 0.0
H973 H 0.95856 0.85337 0.67499 0.0
H974 H 0.97748 0.87761 0.71116 0.0
H975 H 0.96505 0.87633 0.58286 0.0
H976 H 0.02897 0.92915 0.81097 0.0
H977 H 1.00942 0.94315 0.49288 0.0
H978 H 0.04388 0.86945 0.77684 0.0
H979 H 1.01394 0.87063 0.81907 0.0
H980 H 0.03522 0.89081 0.87354 0.0
H981 H 1.00265 0.91333 0.37102 0.0
H982 H 0.98991 0.88728 0.42838 0.0
H983 H 0.02029 0.88745 0.39238 0.0
C984 C 0.69563 1.01661 0.39 0.0
C985 C 0.71599 0.01705 0.45286 0.0
C986 C 0.67298 1.01399 0.43263 0.0
C987 C 0.67024 1.01013 0.54123 0.0
C988 C 0.69084 1.00847 0.60443 0.0
C989 C 0.71343 1.01234 0.55991 0.0
C990 C 0.65189 0.01677 0.36159 0.0
C991 C 0.6891 1.00352 0.71983 0.0
C992 C 0.61064 0.02855 0.6565 0.0
C993 C 0.59712 1.008 0.64511 0.0
C994 C 0.63454 0.02934 0.62607 0.0
C995 C 0.64572 1.00881 0.58697 0.0
C996 C 0.63245 0.98765 0.58124 0.0
C997 C 0.60829 0.98763 0.6079 0.0
C998 C 0.64754 0.05248 0.63142 0.0
C999 C 0.64373 0.96502 0.54565 0.0
H1000 H 0.69738 0.01967 0.3068 0.0
H1001 H 0.72889 1.01264 0.60954 0.0
H1002 H 0.64096 1.00061 0.36292 0.0
H1003 H 0.64071 0.03146 0.38969 0.0
H1004 H 0.65699 0.02043 0.27943 0.0
H1005 H 0.70596 0.99663 0.75146 0.0
H1006 H 0.68491 0.02003 0.76193 0.0
H1007 H 0.67489 0.99064 0.73653 0.0
H1008 H 0.60222 0.04438 0.68523 0.0
H1009 H 0.59814 0.97155 0.60041 0.0
H1010 H 0.65352 0.05762 0.55208 0.0
H1011 H 0.66344 0.05071 0.68103 0.0
H1012 H 0.63645 0.06684 0.66359 0.0
H1013 H 0.64757 0.96595 0.46088 0.0
H1014 H 0.63222 0.94954 0.55993 0.0
H1015 H 0.66073 0.96232 0.5868 0.0
C1016 C 0.54129 0.69554 0.50544 0.0
C1017 C 0.51972 0.70749 0.50008 0.0
C1018 C 0.54273 0.67244 0.54619 0.0
C1019 C 0.52204 0.66069 0.58058 0.0
C1020 C 0.50048 0.67325 0.58076 0.0
C1021 C 0.49961 0.69636 0.5408 0.0
C1022 C 0.56618 0.66002 0.54565 0.0
C1023 C 0.47788 0.66169 0.61568 0.0
C1024 C 0.51902 0.59345 0.5548 0.0
C1025 C 0.52182 0.58577 0.65847 0.0
C1026 C 0.51909 0.61759 0.52876 0.0
C1027 C 0.52246 0.63481 0.60777 0.0
C1028 C 0.52553 0.62718 0.71244 0.0
C1029 C 0.52498 0.6029 0.73657 0.0
C1030 C 0.51505 0.62468 0.41651 0.0
C1031 C 0.52962 0.64469 0.79904 0.0
H1032 H 0.55674 0.70364 0.4711 0.0
H1033 H 0.48274 0.70513 0.53373 0.0
H1034 H 0.56937 0.65134 0.62195 0.0
H1035 H 0.56605 0.64609 0.48497 0.0
H1036 H 0.58097 0.67227 0.52911 0.0
H1037 H 0.46334 0.67458 0.62462 0.0
H1038 H 0.47249 0.64835 0.55706 0.0
H1039 H 0.48044 0.65241 0.69104 0.0
H1040 H 0.51632 0.58053 0.49366 0.0
H1041 H 0.52732 0.59732 0.81685 0.0
H1042 H 0.52933 0.63654 0.38952 0.0
H1043 H 0.49827 0.63455 0.4102 0.0
H1044 H 0.51418 0.60928 0.36332 0.0
H1045 H 0.52947 0.63628 0.87733 0.0
H1046 H 0.51601 0.65865 0.79694 0.0
H1047 H 0.54692 0.6534 0.78758 0.0
C1048 C 0.83532 0.48224 0.53962 0.0
C1049 C 0.82143 0.50191 0.51381 0.0
C1050 C 0.85859 0.48459 0.57727 0.0
C1051 C 0.86857 0.50725 0.59102 0.0
C1052 C 0.85403 0.52722 0.57283 0.0
C1053 C 0.83079 0.52435 0.53368 0.0
C1054 C 0.87306 0.46268 0.59427 0.0
C1055 C 0.8635 0.55171 0.58943 0.0
C1056 C 0.92767 0.51069 0.7401 0.0
C1057 C 0.94418 0.5124 0.65881 0.0
C1058 C 0.90316 0.50981 0.71984 0.0
C1059 C 0.89463 0.5099 0.6154 0.0
C1060 C 0.9113 0.5114 0.53302 0.0
C1061 C 0.93565 0.51291 0.55561 0.0
C1062 C 0.88657 0.50803 0.81104 0.0
C1063 C 0.90345 0.51092 0.42033 0.0
H1064 H 0.8285 0.46482 0.52286 0.0
H1065 H 0.82055 0.53968 0.51224 0.0
H1066 H 0.88622 0.46108 0.53067 0.0
H1067 H 0.88286 0.4637 0.66908 0.0
H1068 H 0.86202 0.44653 0.59471 0.0
H1069 H 0.84949 0.56526 0.58336 0.0
H1070 H 0.87195 0.55307 0.66742 0.0
H1071 H 0.8772 0.55555 0.53008 0.0
H1072 H 0.93386 0.51019 0.82018 0.0
H1073 H 0.9481 0.51403 0.49171 0.0
H1074 H 0.86996 0.51773 0.79617 0.0
H1075 H 0.8947 0.51487 0.88395 0.0
H1076 H 0.88221 0.48925 0.82373 0.0
H1077 H 0.91846 0.51238 0.36511 0.0
H1078 H 0.89105 0.52558 0.40506 0.0
H1079 H 0.8939 0.49428 0.40397 0.0
loop_
_geom_bond_atom_site_label_1
_geom_bond_atom_site_label_2
_geom_bond_distance
_geom_bond_site_symmetry_2
_ccdc_geom_bond_type
H0 C1 0.949 . S
C1 H0 0.949 . S
C1 C2 1.395 . S
C1 C3 1.391 . S
C2 C1 1.395 . S
C2 C5 1.390 . S
C3 C1 1.391 . S
C3 C7 1.387 . S
C3 C8 1.491 . S
H4 C5 0.950 . S
C5 C2 1.390 . S
C5 H4 0.950 . S
C5 C6 1.378 . S
C6 C5 1.378 . S
C6 C7 1.409 . S
C7 C3 1.387 . S
C7 C6 1.409 . S
C7 H9 0.951 . S
C8 C3 1.491 . S
C8 C10 1.382 . S
C8 C12 1.404 . S
H9 C7 0.951 . S
C10 C8 1.382 . S
C10 C11 1.390 . S
C10 H15 0.949 . S
C11 C10 1.390 . S
C11 C16 1.399 . S
C12 C8 1.404 . S
C12 H13 0.950 . S
C12 C14 1.375 . S
H13 C12 0.950 . S
C14 C12 1.375 . S
C14 C16 1.382 . S
C14 H18 0.950 . S
H15 C10 0.949 . S
C16 C11 1.399 . S
C16 C14 1.382 . S
C16 H17 0.952 . S
H17 C16 0.952 . S
H18 C14 0.950 . S
H19 C20 0.949 . S
C20 H19 0.949 . S
C20 C21 1.396 . S
C20 C22 1.391 . S
C21 C20 1.396 . S
C21 C24 1.390 1_655 S
C22 C20 1.391 . S
C22 C26 1.387 . S
C22 C27 1.491 . S
H23 C24 0.950 . S
C24 C21 1.390 1_455 S
C24 H23 0.950 . S
C24 C25 1.376 1_455 S
C25 C24 1.376 1_655 S
C25 C26 1.413 . S
C26 C22 1.387 . S
C26 C25 1.413 . S
C26 H28 0.951 . S
C27 C22 1.491 . S
C27 C29 1.382 . S
C27 C31 1.404 . S
H28 C26 0.951 . S
C29 C27 1.382 . S
C29 C30 1.390 . S
C29 H34 0.949 1_655 S
C30 C29 1.390 . S
C30 C35 1.399 . S
C31 C27 1.404 . S
C31 H32 0.950 . S
C31 C33 1.375 . S
H32 C31 0.950 . S
C33 C31 1.375 . S
C33 C35 1.382 . S
C33 H37 0.950 . S
H34 C29 0.949 1_455 S
C35 C30 1.399 . S
C35 C33 1.382 . S
C35 H36 0.952 . S
H36 C35 0.952 . S
H37 C33 0.950 . S
H38 C39 0.949 . S
C39 H38 0.949 . S
C39 C40 1.395 . S
C39 C41 1.391 . S
C40 C39 1.395 . S
C40 C43 1.390 1_565 S
C41 C39 1.391 . S
C41 C45 1.387 . S
C41 C46 1.491 . S
H42 C43 0.950 . S
C43 C40 1.390 1_545 S
C43 H42 0.950 . S
C43 C44 1.377 1_545 S
C44 C43 1.377 1_565 S
C44 C45 1.412 . S
C45 C41 1.387 . S
C45 C44 1.412 . S
C45 H47 0.951 . S
C46 C41 1.491 . S
C46 C48 1.382 . S
C46 C50 1.404 . S
H47 C45 0.951 . S
C48 C46 1.382 . S
C48 C49 1.390 . S
C48 H53 0.949 1_565 S
C49 C48 1.390 . S
C49 C54 1.399 . S
C50 C46 1.404 . S
C50 H51 0.950 . S
C50 C52 1.375 . S
H51 C50 0.950 . S
C52 C50 1.375 . S
C52 C54 1.382 . S
C52 H56 0.950 . S
H53 C48 0.949 1_545 S
C54 C49 1.399 . S
C54 C52 1.382 . S
C54 H55 0.952 . S
H55 C54 0.952 . S
H56 C52 0.950 . S
H57 C58 0.949 . S
C58 H57 0.949 . S
C58 C59 1.395 . S
C58 C60 1.391 . S
C59 C58 1.395 . S
C59 C62 1.390 . S
C60 C58 1.391 . S
C60 C64 1.387 . S
C60 C65 1.491 . S
H61 C62 0.950 . S
C62 C59 1.390 . S
C62 H61 0.950 . S
C62 C63 1.378 . S
C63 C62 1.378 . S
C63 C64 1.409 . S
C64 C60 1.387 . S
C64 C63 1.409 . S
C64 H66 0.951 . S
C65 C60 1.491 . S
C65 C67 1.382 . S
C65 C69 1.404 . S
H66 C64 0.951 . S
C67 C65 1.382 . S
C67 C68 1.390 . S
C67 H72 0.949 . S
C68 C67 1.390 . S
C68 C73 1.399 . S
C69 C65 1.404 . S
C69 H70 0.950 . S
C69 C71 1.375 . S
H70 C69 0.950 . S
C71 C69 1.375 . S
C71 C73 1.382 . S
C71 H75 0.950 . S
H72 C67 0.949 . S
C73 C68 1.399 . S
C73 C71 1.382 . S
C73 H74 0.952 . S
H74 C73 0.952 . S
H75 C71 0.950 . S
H76 C77 0.949 . S
C77 H76 0.949 . S
C77 C78 1.395 . S
C77 C79 1.391 1_554 S
C78 C77 1.395 . S
C78 C81 1.390 1_554 S
C79 C77 1.391 1_556 S
C79 C83 1.387 . S
C79 C84 1.491 . S
H80 C81 0.950 . S
C81 C78 1.390 1_556 S
C81 H80 0.950 . S
C81 C82 1.378 . S
C82 C81 1.378 . S
C82 C83 1.409 . S
C83 C79 1.387 . S
C83 C82 1.409 . S
C83 H85 0.951 . S
C84 C79 1.491 . S
C84 C86 1.382 1_556 S
C84 C88 1.404 . S
H85 C83 0.951 . S
C86 C84 1.382 1_554 S
C86 C87 1.390 . S
C86 H91 0.949 . S
C87 C86 1.390 . S
C87 C92 1.399 1_554 S
C88 C84 1.404 . S
C88 H89 0.950 . S
C88 C90 1.375 . S
H89 C88 0.950 . S
C90 C88 1.375 . S
C90 C92 1.382 . S
C90 H94 0.950 . S
H91 C86 0.949 . S
C92 C87 1.399 1_556 S
C92 C90 1.382 . S
C92 H93 0.952 . S
H93 C92 0.952 . S
H94 C90 0.950 . S
H95 C96 0.949 . S
C96 H95 0.949 . S
C96 C97 1.391 1_655 S
C96 C98 1.391 1_554 S
C97 C96 1.391 1_455 S
C97 C100 1.392 1_554 S
C98 C96 1.391 1_556 S
C98 C102 1.387 . S
C98 C103 1.491 . S
H99 C100 0.950 . S
C100 C97 1.392 1_556 S
C100 H99 0.950 . S
C100 C101 1.379 . S
C101 C100 1.379 . S
C101 C102 1.407 1_455 S
C102 C98 1.387 . S
C102 C101 1.407 1_655 S
C102 H104 0.951 . S
C103 C98 1.491 . S
C103 C105 1.388 1_556 S
C103 C107 1.404 . S
H104 C102 0.951 . S
C105 C103 1.388 1_554 S
C105 C106 1.392 . S
C105 H110 0.940 1_655 S
C106 C105 1.392 . S
C106 C111 1.399 1_554 S
C107 C103 1.404 . S
C107 H108 0.950 . S
C107 C109 1.375 . S
H108 C107 0.950 . S
C109 C107 1.375 . S
C109 C111 1.382 . S
C109 H113 0.950 . S
H110 C105 0.940 1_455 S
C111 C106 1.399 1_556 S
C111 C109 1.382 . S
C111 H112 0.952 . S
H112 C111 0.952 . S
H113 C109 0.950 . S
H114 C115 0.949 . S
C115 H114 0.949 . S
C115 C116 1.390 1_565 S
C115 C117 1.391 1_554 S
C116 C115 1.390 1_545 S
C116 C119 1.393 1_554 S
C117 C115 1.391 1_556 S
C117 C121 1.387 . S
C117 C122 1.491 . S
H118 C119 0.950 . S
C119 C116 1.393 1_556 S
C119 H118 0.950 . S
C119 C120 1.379 . S
C120 C119 1.379 . S
C120 C121 1.407 1_545 S
C121 C117 1.387 . S
C121 C120 1.407 1_565 S
C121 H123 0.951 . S
C122 C117 1.491 . S
C122 C124 1.386 1_556 S
C122 C126 1.404 . S
H123 C121 0.951 . S
C124 C122 1.386 1_554 S
C124 C125 1.391 . S
C124 H129 0.943 1_565 S
C125 C124 1.391 . S
C125 C130 1.399 1_554 S
C126 C122 1.404 . S
C126 H127 0.950 . S
C126 C128 1.375 . S
H127 C126 0.950 . S
C128 C126 1.375 . S
C128 C130 1.382 . S
C128 H132 0.950 . S
H129 C124 0.943 1_545 S
C130 C125 1.399 1_556 S
C130 C128 1.382 . S
C130 H131 0.952 . S
H131 C130 0.952 . S
H132 C128 0.950 . S
H133 C134 0.949 . S
C134 H133 0.949 . S
C134 C135 1.395 . S
C134 C136 1.391 1_554 S
C135 C134 1.395 . S
C135 C138 1.390 1_554 S
C136 C134 1.391 1_556 S
C136 C140 1.387 . S
C136 C141 1.491 . S
H137 C138 0.950 . S
C138 C135 1.390 1_556 S
C138 H137 0.950 . S
C138 C139 1.378 . S
C139 C138 1.378 . S
C139 C140 1.409 . S
C140 C136 1.387 . S
C140 C139 1.409 . S
C140 H142 0.951 . S
C141 C136 1.491 . S
C141 C143 1.382 1_556 S
C141 C145 1.404 . S
H142 C140 0.951 . S
C143 C141 1.382 1_554 S
C143 C144 1.390 . S
C143 H148 0.949 . S
C144 C143 1.390 . S
C144 C149 1.399 1_554 S
C145 C141 1.404 . S
C145 H146 0.950 . S
C145 C147 1.375 . S
H146 C145 0.950 . S
C147 C145 1.375 . S
C147 C149 1.382 . S
C147 H151 0.950 . S
H148 C143 0.949 . S
C149 C144 1.399 1_556 S
C149 C147 1.382 . S
C149 H150 0.952 . S
H150 C149 0.952 . S
H151 C147 0.950 . S
Ho152 C155 2.811 . S
Ho152 O172 2.322 . S
Ho152 O174 2.378 . S
Ho152 O175 2.524 1_455 S
Ho152 O176 2.381 . S
Ho152 O177 2.669 1_565 S
Ho152 O179 2.346 1_565 S
Ho152 O183 2.305 1_455 S
Ho153 C164 2.811 . S
Ho153 O173 2.346 1_545 S
Ho153 O177 2.305 1_655 S
Ho153 O178 2.322 . S
Ho153 O180 2.378 . S
Ho153 O181 2.524 1_655 S
Ho153 O182 2.381 . S
Ho153 O183 2.669 1_545 S
C154 O172 1.259 1_655 S
C154 O173 1.268 . S
C155 Ho152 2.811 . S
C155 C156 1.488 . S
C155 O174 1.215 . S
C155 O175 1.289 1_455 S
C156 C155 1.488 . S
C156 C157 1.348 1_556 S
C156 C161 1.413 1_556 S
C157 C156 1.348 1_554 S
C157 C158 1.442 . S
C157 H184 0.930 1_455 S
C158 C157 1.442 . S
C158 C159 1.381 . S
C158 H185 0.931 1_455 S
C159 C158 1.381 . S
C159 C160 1.321 . S
C160 C159 1.321 . S
C160 C161 1.403 . S
C160 H186 0.934 . S
C161 C156 1.413 1_554 S
C161 C160 1.403 . S
C161 H187 0.930 1_554 S
C162 O176 1.289 . S
C162 O177 1.248 1_565 S
C163 O178 1.259 1_455 S
C163 O179 1.268 . S
C164 Ho153 2.811 . S
C164 C165 1.488 . S
C164 O180 1.215 . S
C164 O181 1.289 1_655 S
C165 C164 1.488 . S
C165 C166 1.348 . S
C165 C170 1.413 . S
C166 C165 1.348 . S
C166 C167 1.442 . S
C166 H188 0.930 1_655 S
C167 C166 1.442 . S
C167 C168 1.381 . S
C167 H189 0.931 1_655 S
C168 C167 1.381 . S
C168 C169 1.321 . S
C169 C168 1.321 . S
C169 C170 1.403 . S
C169 H190 0.934 . S
C170 C165 1.413 . S
C170 C169 1.403 . S
C170 H191 0.930 . S
C171 O182 1.275 . S
C171 O183 1.256 1_545 S
O172 Ho152 2.322 . S
O172 C154 1.259 1_455 S
O173 Ho153 2.346 1_565 S
O173 C154 1.268 . S
O174 Ho152 2.378 . S
O174 C155 1.215 . S
O175 Ho152 2.524 1_655 S
O175 C155 1.289 1_655 S
O176 Ho152 2.381 . S
O176 C162 1.289 . S
O177 Ho152 2.669 1_545 S
O177 Ho153 2.305 1_455 S
O177 C162 1.248 1_545 S
O178 Ho153 2.322 . S
O178 C163 1.259 1_655 S
O179 Ho152 2.346 1_545 S
O179 C163 1.268 . S
O180 Ho153 2.378 . S
O180 C164 1.215 . S
O181 Ho153 2.524 1_455 S
O181 C164 1.289 1_455 S
O182 Ho153 2.381 . S
O182 C171 1.275 . S
O183 Ho152 2.305 1_655 S
O183 Ho153 2.669 1_565 S
O183 C171 1.256 1_565 S
H184 C157 0.930 1_655 S
H185 C158 0.931 1_655 S
H186 C160 0.934 . S
H187 C161 0.930 1_556 S
H188 C166 0.930 1_455 S
H189 C167 0.931 1_455 S
H190 C169 0.934 . S
H191 C170 0.930 . S
Ho192 C195 2.811 . S
Ho192 O212 2.322 . S
Ho192 O214 2.378 . S
Ho192 O215 2.524 1_545 S
Ho192 O216 2.381 . S
Ho192 O217 2.669 . S
Ho192 O219 2.346 . S
Ho192 O223 2.305 1_545 S
Ho193 C204 2.811 . S
Ho193 O213 2.346 . S
Ho193 O217 2.305 1_565 S
Ho193 O218 2.322 . S
Ho193 O220 2.378 . S
Ho193 O221 2.524 1_565 S
Ho193 O222 2.381 . S
Ho193 O223 2.669 . S
C194 O212 1.259 1_565 S
C194 O213 1.268 . S
C195 Ho192 2.811 . S
C195 C196 1.489 . S
C195 O214 1.215 . S
C195 O215 1.289 1_545 S
C196 C195 1.489 . S
C196 C197 1.347 1_556 S
C196 C201 1.413 1_556 S
C197 C196 1.347 1_554 S
C197 C198 1.442 . S
C197 H224 0.930 1_545 S
C198 C197 1.442 . S
C198 C199 1.381 . S
C198 H225 0.931 1_545 S
C199 C198 1.381 . S
C199 C200 1.321 . S
C200 C199 1.321 . S
C200 C201 1.403 . S
C200 H226 0.934 . S
C201 C196 1.413 1_554 S
C201 C200 1.403 . S
C201 H227 0.930 1_554 S
C202 O216 1.275 . S
C202 O217 1.256 . S
C203 O218 1.259 1_545 S
C203 O219 1.268 . S
C204 Ho193 2.811 . S
C204 C205 1.488 . S
C204 O220 1.215 . S
C204 O221 1.289 1_565 S
C205 C204 1.488 . S
C205 C206 1.348 . S
C205 C210 1.413 . S
C206 C205 1.348 . S
C206 C207 1.442 . S
C206 H228 0.930 1_565 S
C207 C206 1.442 . S
C207 C208 1.381 . S
C207 H229 0.931 1_565 S
C208 C207 1.381 . S
C208 C209 1.321 . S
C209 C208 1.321 . S
C209 C210 1.403 . S
C209 H230 0.934 . S
C210 C205 1.413 . S
C210 C209 1.403 . S
C210 H231 0.930 . S
C211 O222 1.275 . S
C211 O223 1.256 . S
O212 Ho192 2.322 . S
O212 C194 1.259 1_545 S
O213 Ho193 2.346 . S
O213 C194 1.268 . S
O214 Ho192 2.378 . S
O214 C195 1.215 . S
O215 Ho192 2.524 1_565 S
O215 C195 1.289 1_565 S
O216 Ho192 2.381 . S
O216 C202 1.275 . S
O217 Ho192 2.669 . S
O217 Ho193 2.305 1_545 S
O217 C202 1.256 . S
O218 Ho193 2.322 . S
O218 C203 1.259 1_565 S
O219 Ho192 2.346 . S
O219 C203 1.268 . S
O220 Ho193 2.378 . S
O220 C204 1.215 . S
O221 Ho193 2.524 1_545 S
O221 C204 1.289 1_545 S
O222 Ho193 2.381 . S
O222 C211 1.275 . S
O223 Ho192 2.305 1_565 S
O223 Ho193 2.669 . S
O223 C211 1.256 . S
H224 C197 0.930 1_565 S
H225 C198 0.931 1_565 S
H226 C200 0.934 . S
H227 C201 0.930 1_556 S
H228 C206 0.930 1_545 S
H229 C207 0.931 1_545 S
H230 C209 0.934 . S
H231 C210 0.930 . S
Ho232 C235 2.811 . S
Ho232 O252 2.322 . S
Ho232 O254 2.378 . S
Ho232 O255 2.524 . S
Ho232 O256 2.381 . S
Ho232 O257 2.669 . S
Ho232 O259 2.346 . S
Ho232 O263 2.305 . S
Ho233 C244 2.811 . S
Ho233 O253 2.346 . S
Ho233 O257 2.305 . S
Ho233 O258 2.322 . S
Ho233 O260 2.378 . S
Ho233 O261 2.524 . S
Ho233 O262 2.381 . S
Ho233 O263 2.669 . S
C234 O252 1.259 . S
C234 O253 1.268 . S
C235 Ho232 2.811 . S
C235 C236 1.493 . S
C235 O254 1.215 . S
C235 O255 1.289 . S
C236 C235 1.493 . S
C236 C237 1.345 1_556 S
C236 C241 1.412 1_556 S
C237 C236 1.345 1_554 S
C237 C238 1.442 . S
C237 H264 0.930 . S
C238 C237 1.442 . S
C238 C239 1.381 . S
C238 H265 0.931 . S
C239 C238 1.381 . S
C239 C240 1.321 . S
C240 C239 1.321 . S
C240 C241 1.403 . S
C240 H266 0.934 . S
C241 C236 1.412 1_554 S
C241 C240 1.403 . S
C241 H267 0.930 1_554 S
C242 O256 1.275 . S
C242 O257 1.256 . S
C243 O258 1.259 . S
C243 O259 1.268 . S
C244 Ho233 2.811 . S
C244 C245 1.488 . S
C244 O260 1.215 . S
C244 O261 1.289 . S
C245 C244 1.488 . S
C245 C246 1.348 . S
C245 C250 1.413 . S
C246 C245 1.348 . S
C246 C247 1.442 . S
C246 H268 0.930 . S
C247 C246 1.442 . S
C247 C248 1.381 . S
C247 H269 0.931 . S
C248 C247 1.381 . S
C248 C249 1.321 . S
C249 C248 1.321 . S
C249 C250 1.403 . S
C249 H270 0.934 . S
C250 C245 1.413 . S
C250 C249 1.403 . S
C250 H271 0.930 . S
C251 O262 1.275 . S
C251 O263 1.256 . S
O252 Ho232 2.322 . S
O252 C234 1.259 . S
O253 Ho233 2.346 . S
O253 C234 1.268 . S
O254 Ho232 2.378 . S
O254 C235 1.215 . S
O255 Ho232 2.524 . S
O255 C235 1.289 . S
O256 Ho232 2.381 . S
O256 C242 1.275 . S
O257 Ho232 2.669 . S
O257 Ho233 2.305 . S
O257 C242 1.256 . S
O258 Ho233 2.322 . S
O258 C243 1.259 . S
O259 Ho232 2.346 . S
O259 C243 1.268 . S
O260 Ho233 2.378 . S
O260 C244 1.215 . S
O261 Ho233 2.524 . S
O261 C244 1.289 . S
O262 Ho233 2.381 . S
O262 C251 1.275 . S
O263 Ho232 2.305 . S
O263 Ho233 2.669 . S
O263 C251 1.256 . S
H264 C237 0.930 . S
H265 C238 0.931 . S
H266 C240 0.934 . S
H267 C241 0.930 1_556 S
H268 C246 0.930 . S
H269 C247 0.931 . S
H270 C249 0.934 . S
H271 C250 0.930 . S
Ho272 C275 2.811 . S
Ho272 O292 2.322 . S
Ho272 O294 2.378 . S
Ho272 O295 2.524 . S
Ho272 O296 2.381 . S
Ho272 O297 2.669 1_655 S
Ho272 O299 2.346 1_655 S
Ho272 O303 2.305 . S
Ho273 C284 2.811 . S
Ho273 O293 2.346 1_455 S
Ho273 O297 2.305 . S
Ho273 O298 2.322 . S
Ho273 O300 2.378 . S
Ho273 O301 2.524 . S
Ho273 O302 2.381 . S
Ho273 O303 2.669 1_455 S
C274 O292 1.259 . S
C274 O293 1.268 . S
C275 Ho272 2.811 . S
C275 C276 1.492 . S
C275 O294 1.215 . S
C275 O295 1.289 . S
C276 C275 1.492 . S
C276 C277 1.346 1_556 S
C276 C281 1.412 1_556 S
C277 C276 1.346 1_554 S
C277 C278 1.442 . S
C277 H304 0.930 . S
C278 C277 1.442 . S
C278 C279 1.381 . S
C278 H305 0.931 . S
C279 C278 1.381 . S
C279 C280 1.321 . S
C280 C279 1.321 . S
C280 C281 1.403 . S
C280 H306 0.934 . S
C281 C276 1.412 1_554 S
C281 C280 1.403 . S
C281 H307 0.930 1_554 S
C282 O296 1.290 . S
C282 O297 1.247 1_655 S
C283 O298 1.259 . S
C283 O299 1.268 . S
C284 Ho273 2.811 . S
C284 C285 1.488 . S
C284 O300 1.215 . S
C284 O301 1.289 . S
C285 C284 1.488 . S
C285 C286 1.348 . S
C285 C290 1.413 . S
C286 C285 1.348 . S
C286 C287 1.442 . S
C286 H308 0.930 . S
C287 C286 1.442 . S
C287 C288 1.381 . S
C287 H309 0.931 . S
C288 C287 1.381 . S
C288 C289 1.321 . S
C289 C288 1.321 . S
C289 C290 1.403 . S
C289 H310 0.934 . S
C290 C285 1.413 . S
C290 C289 1.403 . S
C290 H311 0.930 . S
C291 O302 1.275 . S
C291 O303 1.256 1_455 S
O292 Ho272 2.322 . S
O292 C274 1.259 . S
O293 Ho273 2.346 1_655 S
O293 C274 1.268 . S
O294 Ho272 2.378 . S
O294 C275 1.215 . S
O295 Ho272 2.524 . S
O295 C275 1.289 . S
O296 Ho272 2.381 . S
O296 C282 1.290 . S
O297 Ho272 2.669 1_455 S
O297 Ho273 2.305 . S
O297 C282 1.247 1_455 S
O298 Ho273 2.322 . S
O298 C283 1.259 . S
O299 Ho272 2.346 1_455 S
O299 C283 1.268 . S
O300 Ho273 2.378 . S
O300 C284 1.215 . S
O301 Ho273 2.524 . S
O301 C284 1.289 . S
O302 Ho273 2.381 . S
O302 C291 1.275 . S
O303 Ho272 2.305 . S
O303 Ho273 2.669 1_655 S
O303 C291 1.256 1_655 S
H304 C277 0.930 . S
H305 C278 0.931 . S
H306 C280 0.934 . S
H307 C281 0.930 1_556 S
H308 C286 0.930 . S
H309 C287 0.931 . S
H310 C289 0.934 . S
H311 C290 0.930 . S
C312 C313 1.391 1_565 S
C312 C314 1.394 . S
C312 H328 0.931 . S
C313 C312 1.391 1_545 S
C313 C317 1.376 . S
C314 C312 1.394 . S
C314 C315 1.369 1_565 S
C314 C318 1.531 . S
C315 C314 1.369 1_545 S
C315 C316 1.410 . S
C315 C323 1.503 . S
C316 C315 1.410 . S
C316 C317 1.392 . S
C316 C319 1.511 . S
C317 C313 1.376 . S
C317 C316 1.392 . S
C317 H329 0.929 . S
C318 C314 1.531 . S
C318 H330 0.960 1_565 S
C318 H331 0.962 . S
C318 H332 0.960 . S
C319 C316 1.511 . S
C319 H333 0.961 . S
C319 H334 0.961 . S
C319 H335 0.961 . S
C320 C321 1.370 1_565 S
C320 C322 1.363 . S
C320 H336 0.931 . S
C321 C320 1.370 1_545 S
C321 C325 1.408 . S
C322 C320 1.363 . S
C322 C323 1.370 1_565 S
C322 C326 1.524 . S
C323 C315 1.503 . S
C323 C322 1.370 1_545 S
C323 C324 1.403 . S
C324 C323 1.403 . S
C324 C325 1.404 . S
C324 C327 1.539 . S
C325 C321 1.408 . S
C325 C324 1.404 . S
C325 H337 0.930 . S
C326 C322 1.524 . S
C326 H338 0.956 . S
C326 H339 0.961 . S
C326 H340 0.961 . S
C327 C324 1.539 . S
C327 H341 0.958 . S
C327 H342 0.961 . S
C327 H343 0.960 . S
H328 C312 0.931 . S
H329 C317 0.929 . S
H330 C318 0.960 1_545 S
H331 C318 0.962 . S
H332 C318 0.960 . S
H333 C319 0.961 . S
H334 C319 0.961 . S
H335 C319 0.961 . S
H336 C320 0.931 . S
H337 C325 0.930 . S
H338 C326 0.956 . S
H339 C326 0.961 . S
H340 C326 0.961 . S
H341 C327 0.958 . S
H342 C327 0.961 . S
H343 C327 0.960 . S
C344 C345 1.391 . S
C344 C346 1.394 . S
C344 H360 0.931 . S
C345 C344 1.391 . S
C345 C349 1.376 . S
C346 C344 1.394 . S
C346 C347 1.369 . S
C346 C350 1.531 . S
C347 C346 1.369 . S
C347 C348 1.410 . S
C347 C355 1.503 . S
C348 C347 1.410 . S
C348 C349 1.392 . S
C348 C351 1.511 . S
C349 C345 1.376 . S
C349 C348 1.392 . S
C349 H361 0.929 . S
C350 C346 1.531 . S
C350 H362 0.960 . S
C350 H363 0.962 . S
C350 H364 0.960 . S
C351 C348 1.511 . S
C351 H365 0.961 . S
C351 H366 0.961 . S
C351 H367 0.961 . S
C352 C353 1.370 . S
C352 C354 1.363 . S
C352 H368 0.931 . S
C353 C352 1.370 . S
C353 C357 1.408 . S
C354 C352 1.363 . S
C354 C355 1.370 . S
C354 C358 1.524 . S
C355 C347 1.503 . S
C355 C354 1.370 . S
C355 C356 1.403 . S
C356 C355 1.403 . S
C356 C357 1.404 . S
C356 C359 1.539 . S
C357 C353 1.408 . S
C357 C356 1.404 . S
C357 H369 0.930 . S
C358 C354 1.524 . S
C358 H370 0.956 . S
C358 H371 0.961 . S
C358 H372 0.961 . S
C359 C356 1.539 . S
C359 H373 0.958 . S
C359 H374 0.961 . S
C359 H375 0.960 . S
H360 C344 0.931 . S
H361 C349 0.929 . S
H362 C350 0.960 . S
H363 C350 0.962 . S
H364 C350 0.960 . S
H365 C351 0.961 . S
H366 C351 0.961 . S
H367 C351 0.961 . S
H368 C352 0.931 . S
H369 C357 0.930 . S
H370 C358 0.956 . S
H371 C358 0.961 . S
H372 C358 0.961 . S
H373 C359 0.958 . S
H374 C359 0.961 . S
H375 C359 0.960 . S
C376 C377 1.391 . S
C376 C378 1.394 . S
C376 H392 0.931 . S
C377 C376 1.391 . S
C377 C381 1.376 . S
C378 C376 1.394 . S
C378 C379 1.369 . S
C378 C382 1.531 . S
C379 C378 1.369 . S
C379 C380 1.410 . S
C379 C387 1.503 . S
C380 C379 1.410 . S
C380 C381 1.392 . S
C380 C383 1.511 . S
C381 C377 1.376 . S
C381 C380 1.392 . S
C381 H393 0.929 . S
C382 C378 1.531 . S
C382 H394 0.960 . S
C382 H395 0.962 . S
C382 H396 0.960 . S
C383 C380 1.511 . S
C383 H397 0.961 . S
C383 H398 0.961 . S
C383 H399 0.961 . S
C384 C385 1.370 . S
C384 C386 1.363 . S
C384 H400 0.931 . S
C385 C384 1.370 . S
C385 C389 1.408 . S
C386 C384 1.363 . S
C386 C387 1.370 . S
C386 C390 1.524 . S
C387 C379 1.503 . S
C387 C386 1.370 . S
C387 C388 1.403 . S
C388 C387 1.403 . S
C388 C389 1.404 . S
C388 C391 1.539 . S
C389 C385 1.408 . S
C389 C388 1.404 . S
C389 H401 0.930 . S
C390 C386 1.524 . S
C390 H402 0.956 . S
C390 H403 0.961 . S
C390 H404 0.961 . S
C391 C388 1.539 . S
C391 H405 0.958 . S
C391 H406 0.961 . S
C391 H407 0.960 . S
H392 C376 0.931 . S
H393 C381 0.929 . S
H394 C382 0.960 . S
H395 C382 0.962 . S
H396 C382 0.960 . S
H397 C383 0.961 . S
H398 C383 0.961 . S
H399 C383 0.961 . S
H400 C384 0.931 . S
H401 C389 0.930 . S
H402 C390 0.956 . S
H403 C390 0.961 . S
H404 C390 0.961 . S
H405 C391 0.958 . S
H406 C391 0.961 . S
H407 C391 0.960 . S
C408 C409 1.391 1_455 S
C408 C410 1.394 . S
C408 H424 0.931 . S
C409 C408 1.391 1_655 S
C409 C413 1.376 . S
C410 C408 1.394 . S
C410 C411 1.369 1_455 S
C410 C414 1.531 . S
C411 C410 1.369 1_655 S
C411 C412 1.410 . S
C411 C419 1.503 . S
C412 C411 1.410 . S
C412 C413 1.392 . S
C412 C415 1.511 . S
C413 C409 1.376 . S
C413 C412 1.392 . S
C413 H425 0.929 . S
C414 C410 1.531 . S
C414 H426 0.960 . S
C414 H427 0.962 . S
C414 H428 0.960 . S
C415 C412 1.511 . S
C415 H429 0.961 . S
C415 H430 0.961 . S
C415 H431 0.961 . S
C416 C417 1.403 . S
C416 C418 1.363 . S
C416 H432 0.931 . S
C417 C416 1.403 . S
C417 C421 1.373 1_455 S
C418 C416 1.363 . S
C418 C419 1.370 1_455 S
C418 C422 1.524 . S
C419 C411 1.503 . S
C419 C418 1.370 1_655 S
C419 C420 1.403 . S
C420 C419 1.403 . S
C420 C421 1.404 . S
C420 C423 1.539 . S
C421 C417 1.373 1_655 S
C421 C420 1.404 . S
C421 H433 0.930 . S
C422 C418 1.524 . S
C422 H434 0.956 . S
C422 H435 0.961 . S
C422 H436 0.961 . S
C423 C420 1.539 . S
C423 H437 0.958 . S
C423 H438 0.961 . S
C423 H439 0.960 . S
H424 C408 0.931 . S
H425 C413 0.929 . S
H426 C414 0.960 . S
H427 C414 0.962 . S
H428 C414 0.960 . S
H429 C415 0.961 . S
H430 C415 0.961 . S
H431 C415 0.961 . S
H432 C416 0.931 . S
H433 C421 0.930 . S
H434 C422 0.956 . S
H435 C422 0.961 . S
H436 C422 0.961 . S
H437 C423 0.958 . S
H438 C423 0.961 . S
H439 C423 0.960 . S
C440 C441 1.391 1_545 S
C440 C442 1.394 . S
C440 H456 0.931 . S
C441 C440 1.391 1_565 S
C441 C445 1.376 . S
C442 C440 1.394 . S
C442 C443 1.369 1_545 S
C442 C446 1.531 . S
C443 C442 1.369 1_565 S
C443 C444 1.410 . S
C443 C451 1.503 . S
C444 C443 1.410 . S
C444 C445 1.392 . S
C444 C447 1.511 . S
C445 C441 1.376 . S
C445 C444 1.392 . S
C445 H457 0.929 . S
C446 C442 1.531 . S
C446 H458 0.960 . S
C446 H459 0.962 . S
C446 H460 0.960 . S
C447 C444 1.511 . S
C447 H461 0.961 . S
C447 H462 0.961 1_554 S
C447 H463 0.961 . S
C448 C449 1.370 1_545 S
C448 C450 1.363 . S
C448 H464 0.931 . S
C449 C448 1.370 1_565 S
C449 C453 1.408 . S
C450 C448 1.363 . S
C450 C451 1.370 1_546 S
C450 C454 1.524 1_556 S
C451 C443 1.503 . S
C451 C450 1.370 1_564 S
C451 C452 1.403 . S
C452 C451 1.403 . S
C452 C453 1.404 1_554 S
C452 C455 1.539 . S
C453 C449 1.408 . S
C453 C452 1.404 1_556 S
C453 H465 0.930 . S
C454 C450 1.524 1_554 S
C454 H466 0.956 . S
C454 H467 0.961 . S
C454 H468 0.961 1_554 S
C455 C452 1.539 . S
C455 H469 0.958 . S
C455 H470 0.961 . S
C455 H471 0.960 . S
H456 C440 0.931 . S
H457 C445 0.929 . S
H458 C446 0.960 . S
H459 C446 0.962 . S
H460 C446 0.960 . S
H461 C447 0.961 . S
H462 C447 0.961 1_556 S
H463 C447 0.961 . S
H464 C448 0.931 . S
H465 C453 0.930 . S
H466 C454 0.956 . S
H467 C454 0.961 . S
H468 C454 0.961 1_556 S
H469 C455 0.958 . S
H470 C455 0.961 . S
H471 C455 0.960 . S
C472 C473 1.391 . S
C472 C474 1.394 . S
C472 H488 0.931 . S
C473 C472 1.391 . S
C473 C477 1.376 . S
C474 C472 1.394 . S
C474 C475 1.369 . S
C474 C478 1.531 . S
C475 C474 1.369 . S
C475 C476 1.410 . S
C475 C483 1.503 . S
C476 C475 1.410 . S
C476 C477 1.392 . S
C476 C479 1.511 . S
C477 C473 1.376 . S
C477 C476 1.392 . S
C477 H489 0.929 . S
C478 C474 1.531 . S
C478 H490 0.960 1_554 S
C478 H491 0.962 . S
C478 H492 0.960 . S
C479 C476 1.511 . S
C479 H493 0.961 . S
C479 H494 0.961 . S
C479 H495 0.961 . S
C480 C481 1.370 . S
C480 C482 1.363 1_556 S
C480 H496 0.931 1_556 S
C481 C480 1.370 . S
C481 C485 1.408 . S
C482 C480 1.363 1_554 S
C482 C483 1.370 . S
C482 C486 1.524 . S
C483 C475 1.503 . S
C483 C482 1.370 . S
C483 C484 1.403 1_554 S
C484 C483 1.403 1_556 S
C484 C485 1.404 . S
C484 C487 1.539 . S
C485 C481 1.408 . S
C485 C484 1.404 . S
C485 H497 0.930 . S
C486 C482 1.524 . S
C486 H498 0.956 . S
C486 H499 0.961 . S
C486 H500 0.961 . S
C487 C484 1.539 . S
C487 H501 0.958 . S
C487 H502 0.961 . S
C487 H503 0.960 . S
H488 C472 0.931 . S
H489 C477 0.929 . S
H490 C478 0.960 1_556 S
H491 C478 0.962 . S
H492 C478 0.960 . S
H493 C479 0.961 . S
H494 C479 0.961 . S
H495 C479 0.961 . S
H496 C480 0.931 1_554 S
H497 C485 0.930 . S
H498 C486 0.956 . S
H499 C486 0.961 . S
H500 C486 0.961 . S
H501 C487 0.958 . S
H502 C487 0.961 . S
H503 C487 0.960 . S
C504 C505 1.391 . S
C504 C506 1.394 . S
C504 H520 0.931 . S
C505 C504 1.391 . S
C505 C509 1.376 . S
C506 C504 1.394 . S
C506 C507 1.369 . S
C506 C510 1.531 . S
C507 C506 1.369 . S
C507 C508 1.410 . S
C507 C515 1.503 . S
C508 C507 1.410 . S
C508 C509 1.392 . S
C508 C511 1.511 . S
C509 C505 1.376 . S
C509 C508 1.392 . S
C509 H521 0.929 . S
C510 C506 1.531 . S
C510 H522 0.960 . S
C510 H523 0.962 . S
C510 H524 0.960 . S
C511 C508 1.511 . S
C511 H525 0.961 1_554 S
C511 H526 0.961 1_554 S
C511 H527 0.961 1_554 S
C512 C513 1.370 . S
C512 C514 1.363 1_556 S
C512 H528 0.931 . S
C513 C512 1.370 . S
C513 C517 1.408 . S
C514 C512 1.363 1_554 S
C514 C515 1.370 . S
C514 C518 1.524 . S
C515 C507 1.503 . S
C515 C514 1.370 . S
C515 C516 1.403 . S
C516 C515 1.403 . S
C516 C517 1.404 1_554 S
C516 C519 1.539 . S
C517 C513 1.408 . S
C517 C516 1.404 1_556 S
C517 H529 0.930 . S
C518 C514 1.524 . S
C518 H530 0.956 . S
C518 H531 0.961 . S
C518 H532 0.961 1_554 S
C519 C516 1.539 . S
C519 H533 0.958 . S
C519 H534 0.961 . S
C519 H535 0.960 . S
H520 C504 0.931 . S
H521 C509 0.929 . S
H522 C510 0.960 . S
H523 C510 0.962 . S
H524 C510 0.960 . S
H525 C511 0.961 1_556 S
H526 C511 0.961 1_556 S
H527 C511 0.961 1_556 S
H528 C512 0.931 . S
H529 C517 0.930 . S
H530 C518 0.956 . S
H531 C518 0.961 . S
H532 C518 0.961 1_556 S
H533 C519 0.958 . S
H534 C519 0.961 . S
H535 C519 0.960 . S
C536 C537 1.374 1_455 S
C536 C538 1.394 . S
C536 H552 0.931 . S
C537 C536 1.374 1_655 S
C537 C541 1.393 . S
C538 C536 1.394 . S
C538 C539 1.344 1_455 S
C538 C542 1.531 . S
C539 C538 1.344 1_655 S
C539 C540 1.435 . S
C539 C547 1.503 . S
C540 C539 1.435 . S
C540 C541 1.392 . S
C540 C543 1.511 . S
C541 C537 1.393 . S
C541 C540 1.392 . S
C541 H553 0.929 . S
C542 C538 1.531 . S
C542 H554 0.960 . S
C542 H555 0.962 . S
C542 H556 0.960 . S
C543 C540 1.511 . S
C543 H557 0.961 . S
C543 H558 0.961 . S
C543 H559 0.961 . S
C544 C545 1.369 1_455 S
C544 C546 1.363 . S
C544 H560 0.932 . S
C545 C544 1.369 1_655 S
C545 C549 1.408 1_556 S
C546 C544 1.363 . S
C546 C547 1.369 1_456 S
C546 C550 1.524 . S
C547 C539 1.503 . S
C547 C546 1.369 1_654 S
C547 C548 1.405 . S
C548 C547 1.405 . S
C548 C549 1.404 . S
C548 C551 1.539 . S
C549 C545 1.408 1_554 S
C549 C548 1.404 . S
C549 H561 0.930 . S
C550 C546 1.524 . S
C550 H562 0.956 . S
C550 H563 0.961 1_455 S
C550 H564 0.961 . S
C551 C548 1.539 . S
C551 H565 0.958 1_655 S
C551 H566 0.961 . S
C551 H567 0.960 . S
H552 C536 0.931 . S
H553 C541 0.929 . S
H554 C542 0.960 . S
H555 C542 0.962 . S
H556 C542 0.960 . S
H557 C543 0.961 . S
H558 C543 0.961 . S
H559 C543 0.961 . S
H560 C544 0.932 . S
H561 C549 0.930 . S
H562 C550 0.956 . S
H563 C550 0.961 1_655 S
H564 C550 0.961 . S
H565 C551 0.958 1_455 S
H566 C551 0.961 . S
H567 C551 0.960 . S
C568 C569 1.419 . S
C568 C570 1.394 . S
C568 H584 0.931 . S
C569 C568 1.419 . S
C569 C573 1.335 1_455 S
C570 C568 1.394 . S
C570 C571 1.369 1_455 S
C570 C574 1.531 . S
C571 C570 1.369 1_655 S
C571 C572 1.410 . S
C571 C579 1.503 . S
C572 C571 1.410 . S
C572 C573 1.392 . S
C572 C575 1.511 . S
C573 C569 1.335 1_655 S
C573 C572 1.392 . S
C573 H585 0.929 . S
C574 C570 1.531 . S
C574 H586 0.960 . S
C574 H587 0.962 . S
C574 H588 0.960 . S
C575 C572 1.511 . S
C575 H589 0.961 . S
C575 H590 0.961 . S
C575 H591 0.961 . S
C576 C577 1.370 . S
C576 C578 1.363 . S
C576 H592 0.931 . S
C577 C576 1.370 . S
C577 C581 1.408 . S
C578 C576 1.363 . S
C578 C579 1.370 . S
C578 C582 1.517 1_655 S
C579 C571 1.503 . S
C579 C578 1.370 . S
C579 C580 1.403 . S
C580 C579 1.403 . S
C580 C581 1.404 . S
C580 C583 1.539 . S
C581 C577 1.408 . S
C581 C580 1.404 . S
C581 H593 0.930 . S
C582 C578 1.517 1_455 S
C582 H594 0.970 . S
C582 H595 0.953 1_455 S
C582 H596 0.962 . S
C583 C580 1.539 . S
C583 H597 0.958 . S
C583 H598 0.961 . S
C583 H599 0.960 . S
H584 C568 0.931 . S
H585 C573 0.929 . S
H586 C574 0.960 . S
H587 C574 0.962 . S
H588 C574 0.960 . S
H589 C575 0.961 . S
H590 C575 0.961 . S
H591 C575 0.961 . S
H592 C576 0.931 . S
H593 C581 0.930 . S
H594 C582 0.970 . S
H595 C582 0.953 1_655 S
H596 C582 0.962 . S
H597 C583 0.958 . S
H598 C583 0.961 . S
H599 C583 0.960 . S
C600 C601 1.365 1_565 S
C600 C602 1.394 . S
C600 H616 0.931 . S
C601 C600 1.365 1_545 S
C601 C605 1.392 . S
C602 C600 1.394 . S
C602 C603 1.369 . S
C602 C606 1.531 . S
C603 C602 1.369 . S
C603 C604 1.410 1_565 S
C603 C611 1.503 . S
C604 C603 1.410 1_545 S
C604 C605 1.392 . S
C604 C607 1.511 . S
C605 C601 1.392 . S
C605 C604 1.392 . S
C605 H617 0.929 . S
C606 C602 1.531 . S
C606 H618 0.960 . S
C606 H619 0.962 . S
C606 H620 0.960 . S
C607 C604 1.511 . S
C607 H621 0.961 . S
C607 H622 0.961 . S
C607 H623 0.961 . S
C608 C609 1.370 . S
C608 C610 1.363 . S
C608 H624 0.931 . S
C609 C608 1.370 . S
C609 C613 1.408 . S
C610 C608 1.363 . S
C610 C611 1.370 . S
C610 C614 1.524 1_565 S
C611 C603 1.503 . S
C611 C610 1.370 . S
C611 C612 1.403 . S
C612 C611 1.403 . S
C612 C613 1.404 . S
C612 C615 1.539 . S
C613 C609 1.408 . S
C613 C612 1.404 . S
C613 H625 0.930 . S
C614 C610 1.524 1_545 S
C614 H626 0.954 1_545 S
C614 H627 0.961 . S
C614 H628 0.961 . S
C615 C612 1.539 . S
C615 H629 0.958 . S
C615 H630 0.961 . S
C615 H631 0.960 . S
H616 C600 0.931 . S
H617 C605 0.929 . S
H618 C606 0.960 . S
H619 C606 0.962 . S
H620 C606 0.960 . S
H621 C607 0.961 . S
H622 C607 0.961 . S
H623 C607 0.961 . S
H624 C608 0.931 . S
H625 C613 0.930 . S
H626 C614 0.954 1_565 S
H627 C614 0.961 . S
H628 C614 0.961 . S
H629 C615 0.958 . S
H630 C615 0.961 . S
H631 C615 0.960 . S
C632 C633 1.391 . S
C632 C634 1.394 . S
C632 H648 0.931 . S
C633 C632 1.391 . S
C633 C637 1.376 . S
C634 C632 1.394 . S
C634 C635 1.369 . S
C634 C638 1.531 . S
C635 C634 1.369 . S
C635 C636 1.410 . S
C635 C643 1.503 . S
C636 C635 1.410 . S
C636 C637 1.392 . S
C636 C639 1.511 . S
C637 C633 1.376 . S
C637 C636 1.392 . S
C637 H649 0.929 . S
C638 C634 1.531 . S
C638 H650 0.960 . S
C638 H651 0.962 . S
C638 H652 0.960 . S
C639 C636 1.511 . S
C639 H653 0.961 . S
C639 H654 0.961 . S
C639 H655 0.961 . S
C640 C641 1.370 . S
C640 C642 1.363 . S
C640 H656 0.931 . S
C641 C640 1.370 . S
C641 C645 1.408 . S
C642 C640 1.363 . S
C642 C643 1.370 . S
C642 C646 1.524 . S
C643 C635 1.503 . S
C643 C642 1.370 . S
C643 C644 1.403 . S
C644 C643 1.403 . S
C644 C645 1.404 . S
C644 C647 1.539 . S
C645 C641 1.408 . S
C645 C644 1.404 . S
C645 H657 0.930 . S
C646 C642 1.524 . S
C646 H658 0.956 . S
C646 H659 0.961 . S
C646 H660 0.961 . S
C647 C644 1.539 . S
C647 H661 0.958 . S
C647 H662 0.961 . S
C647 H663 0.960 . S
H648 C632 0.931 . S
H649 C637 0.929 . S
H650 C638 0.960 . S
H651 C638 0.962 . S
H652 C638 0.960 . S
H653 C639 0.961 . S
H654 C639 0.961 . S
H655 C639 0.961 . S
H656 C640 0.931 . S
H657 C645 0.930 . S
H658 C646 0.956 . S
H659 C646 0.961 . S
H660 C646 0.961 . S
H661 C647 0.958 . S
H662 C647 0.961 . S
H663 C647 0.960 . S
C664 C665 1.391 . S
C664 C666 1.394 . S
C664 H680 0.931 . S
C665 C664 1.391 . S
C665 C669 1.376 . S
C666 C664 1.394 . S
C666 C667 1.369 . S
C666 C670 1.531 . S
C667 C666 1.369 . S
C667 C668 1.410 . S
C667 C675 1.503 . S
C668 C667 1.410 . S
C668 C669 1.392 . S
C668 C671 1.511 . S
C669 C665 1.376 . S
C669 C668 1.392 . S
C669 H681 0.929 . S
C670 C666 1.531 . S
C670 H682 0.960 . S
C670 H683 0.962 . S
C670 H684 0.960 . S
C671 C668 1.511 . S
C671 H685 0.961 . S
C671 H686 0.961 . S
C671 H687 0.961 . S
C672 C673 1.370 . S
C672 C674 1.363 . S
C672 H688 0.931 . S
C673 C672 1.370 . S
C673 C677 1.408 . S
C674 C672 1.363 . S
C674 C675 1.370 . S
C674 C678 1.524 . S
C675 C667 1.503 . S
C675 C674 1.370 . S
C675 C676 1.403 . S
C676 C675 1.403 . S
C676 C677 1.404 . S
C676 C679 1.539 . S
C677 C673 1.408 . S
C677 C676 1.404 . S
C677 H689 0.930 . S
C678 C674 1.524 . S
C678 H690 0.956 . S
C678 H691 0.961 . S
C678 H692 0.961 . S
C679 C676 1.539 . S
C679 H693 0.958 . S
C679 H694 0.961 . S
C679 H695 0.960 . S
H680 C664 0.931 . S
H681 C669 0.929 . S
H682 C670 0.960 . S
H683 C670 0.962 . S
H684 C670 0.960 . S
H685 C671 0.961 . S
H686 C671 0.961 . S
H687 C671 0.961 . S
H688 C672 0.931 . S
H689 C677 0.930 . S
H690 C678 0.956 . S
H691 C678 0.961 . S
H692 C678 0.961 . S
H693 C679 0.958 . S
H694 C679 0.961 . S
H695 C679 0.960 . S
C696 C697 1.398 . S
C696 C698 1.394 . S
C696 H712 0.931 . S
C697 C696 1.398 . S
C697 C701 1.365 1_655 S
C698 C696 1.394 . S
C698 C699 1.369 1_655 S
C698 C702 1.531 . S
C699 C698 1.369 1_455 S
C699 C700 1.410 . S
C699 C707 1.503 . S
C700 C699 1.410 . S
C700 C701 1.392 . S
C700 C703 1.511 . S
C701 C697 1.365 1_455 S
C701 C700 1.392 . S
C701 H713 0.929 . S
C702 C698 1.531 . S
C702 H714 0.960 . S
C702 H715 0.962 . S
C702 H716 0.960 . S
C703 C700 1.511 . S
C703 H717 0.961 . S
C703 H718 0.961 . S
C703 H719 0.961 . S
C704 C705 1.370 . S
C704 C706 1.363 . S
C704 H720 0.931 . S
C705 C704 1.370 . S
C705 C709 1.408 . S
C706 C704 1.363 . S
C706 C707 1.370 . S
C706 C710 1.524 1_455 S
C707 C699 1.503 . S
C707 C706 1.370 . S
C707 C708 1.403 . S
C708 C707 1.403 . S
C708 C709 1.404 . S
C708 C711 1.539 . S
C709 C705 1.408 . S
C709 C708 1.404 . S
C709 H721 0.930 . S
C710 C706 1.524 1_655 S
C710 H722 0.956 . S
C710 H723 0.961 1_655 S
C710 H724 0.961 1_554 S
C711 C708 1.539 . S
C711 H725 0.958 . S
C711 H726 0.961 . S
C711 H727 0.960 . S
H712 C696 0.931 . S
H713 C701 0.929 . S
H714 C702 0.960 . S
H715 C702 0.962 . S
H716 C702 0.960 . S
H717 C703 0.961 . S
H718 C703 0.961 . S
H719 C703 0.961 . S
H720 C704 0.931 . S
H721 C709 0.930 . S
H722 C710 0.956 . S
H723 C710 0.961 1_455 S
H724 C710 0.961 1_556 S
H725 C711 0.958 . S
H726 C711 0.961 . S
H727 C711 0.960 . S
C728 C729 1.386 1_565 S
C728 C730 1.392 . S
C728 H744 0.931 . S
C729 C728 1.386 1_545 S
C729 C733 1.387 . S
C730 C728 1.392 . S
C730 C731 1.372 1_565 S
C730 C734 1.529 . S
C731 C730 1.372 1_545 S
C731 C732 1.410 . S
C731 C739 1.503 . S
C732 C731 1.410 . S
C732 C733 1.392 . S
C732 C735 1.511 . S
C733 C729 1.387 . S
C733 C732 1.392 . S
C733 H745 0.929 . S
C734 C730 1.529 . S
C734 H746 0.960 1_565 S
C734 H747 0.962 . S
C734 H748 0.960 . S
C735 C732 1.511 . S
C735 H749 0.961 . S
C735 H750 0.961 . S
C735 H751 0.961 . S
C736 C737 1.370 . S
C736 C738 1.363 . S
C736 H752 0.931 . S
C737 C736 1.370 . S
C737 C741 1.408 . S
C738 C736 1.363 . S
C738 C739 1.370 . S
C738 C742 1.524 1_545 S
C739 C731 1.503 . S
C739 C738 1.370 . S
C739 C740 1.403 . S
C740 C739 1.403 . S
C740 C741 1.404 . S
C740 C743 1.539 . S
C741 C737 1.408 . S
C741 C740 1.404 . S
C741 H753 0.930 . S
C742 C738 1.524 1_565 S
C742 H754 0.956 . S
C742 H755 0.961 . S
C742 H756 0.961 . S
C743 C740 1.539 . S
C743 H757 0.958 . S
C743 H758 0.961 . S
C743 H759 0.960 . S
H744 C728 0.931 . S
H745 C733 0.929 . S
H746 C734 0.960 1_545 S
H747 C734 0.962 . S
H748 C734 0.960 . S
H749 C735 0.961 . S
H750 C735 0.961 . S
H751 C735 0.961 . S
H752 C736 0.931 . S
H753 C741 0.930 . S
H754 C742 0.956 . S
H755 C742 0.961 . S
H756 C742 0.961 . S
H757 C743 0.958 . S
H758 C743 0.961 . S
H759 C743 0.960 . S
C760 C761 1.391 . S
C760 C762 1.394 . S
C760 H776 0.931 . S
C761 C760 1.391 . S
C761 C765 1.376 . S
C762 C760 1.394 . S
C762 C763 1.369 . S
C762 C766 1.531 . S
C763 C762 1.369 . S
C763 C764 1.410 . S
C763 C771 1.503 . S
C764 C763 1.410 . S
C764 C765 1.392 . S
C764 C767 1.511 . S
C765 C761 1.376 . S
C765 C764 1.392 . S
C765 H777 0.929 . S
C766 C762 1.531 . S
C766 H778 0.960 . S
C766 H779 0.962 . S
C766 H780 0.960 . S
C767 C764 1.511 . S
C767 H781 0.961 . S
C767 H782 0.961 . S
C767 H783 0.961 . S
C768 C769 1.370 . S
C768 C770 1.363 . S
C768 H784 0.931 . S
C769 C768 1.370 . S
C769 C773 1.408 . S
C770 C768 1.363 . S
C770 C771 1.370 . S
C770 C774 1.524 . S
C771 C763 1.503 . S
C771 C770 1.370 . S
C771 C772 1.403 . S
C772 C771 1.403 . S
C772 C773 1.404 . S
C772 C775 1.539 . S
C773 C769 1.408 . S
C773 C772 1.404 . S
C773 H785 0.930 1_554 S
C774 C770 1.524 . S
C774 H786 0.956 . S
C774 H787 0.961 . S
C774 H788 0.961 . S
C775 C772 1.539 . S
C775 H789 0.958 1_554 S
C775 H790 0.961 1_554 S
C775 H791 0.960 . S
H776 C760 0.931 . S
H777 C765 0.929 . S
H778 C766 0.960 . S
H779 C766 0.962 . S
H780 C766 0.960 . S
H781 C767 0.961 . S
H782 C767 0.961 . S
H783 C767 0.961 . S
H784 C768 0.931 . S
H785 C773 0.930 1_556 S
H786 C774 0.956 . S
H787 C774 0.961 . S
H788 C774 0.961 . S
H789 C775 0.958 1_556 S
H790 C775 0.961 1_556 S
H791 C775 0.960 . S
C792 C793 1.391 . S
C792 C794 1.394 . S
C792 H808 0.931 . S
C793 C792 1.391 . S
C793 C797 1.376 . S
C794 C792 1.394 . S
C794 C795 1.369 . S
C794 C798 1.531 . S
C795 C794 1.369 . S
C795 C796 1.410 . S
C795 C803 1.503 . S
C796 C795 1.410 . S
C796 C797 1.392 . S
C796 C799 1.511 . S
C797 C793 1.376 . S
C797 C796 1.392 . S
C797 H809 0.929 . S
C798 C794 1.531 . S
C798 H810 0.960 . S
C798 H811 0.962 . S
C798 H812 0.960 . S
C799 C796 1.511 . S
C799 H813 0.961 . S
C799 H814 0.961 . S
C799 H815 0.961 . S
C800 C801 1.370 . S
C800 C802 1.363 . S
C800 H816 0.931 . S
C801 C800 1.370 . S
C801 C805 1.408 . S
C802 C800 1.363 . S
C802 C803 1.370 . S
C802 C806 1.524 . S
C803 C795 1.503 . S
C803 C802 1.370 . S
C803 C804 1.403 . S
C804 C803 1.403 . S
C804 C805 1.404 . S
C804 C807 1.539 . S
C805 C801 1.408 . S
C805 C804 1.404 . S
C805 H817 0.930 . S
C806 C802 1.524 . S
C806 H818 0.956 . S
C806 H819 0.961 . S
C806 H820 0.961 . S
C807 C804 1.539 . S
C807 H821 0.958 . S
C807 H822 0.961 . S
C807 H823 0.960 . S
H808 C792 0.931 . S
H809 C797 0.929 . S
H810 C798 0.960 . S
H811 C798 0.962 . S
H812 C798 0.960 . S
H813 C799 0.961 . S
H814 C799 0.961 . S
H815 C799 0.961 . S
H816 C800 0.931 . S
H817 C805 0.930 . S
H818 C806 0.956 . S
H819 C806 0.961 . S
H820 C806 0.961 . S
H821 C807 0.958 . S
H822 C807 0.961 . S
H823 C807 0.960 . S
C824 C825 1.391 . S
C824 C826 1.394 . S
C824 H840 0.931 . S
C825 C824 1.391 . S
C825 C829 1.376 1_455 S
C826 C824 1.394 . S
C826 C827 1.369 . S
C826 C830 1.531 . S
C827 C826 1.369 . S
C827 C828 1.410 1_455 S
C827 C835 1.503 . S
C828 C827 1.410 1_655 S
C828 C829 1.392 . S
C828 C831 1.511 . S
C829 C825 1.376 1_655 S
C829 C828 1.392 . S
C829 H841 0.929 . S
C830 C826 1.531 . S
C830 H842 0.960 . S
C830 H843 0.962 . S
C830 H844 0.960 . S
C831 C828 1.511 . S
C831 H845 0.961 . S
C831 H846 0.961 . S
C831 H847 0.961 . S
C832 C833 1.370 . S
C832 C834 1.363 . S
C832 H848 0.931 . S
C833 C832 1.370 . S
C833 C837 1.408 1_455 S
C834 C832 1.363 . S
C834 C835 1.370 . S
C834 C838 1.524 . S
C835 C827 1.503 . S
C835 C834 1.370 . S
C835 C836 1.403 1_455 S
C836 C835 1.403 1_655 S
C836 C837 1.404 . S
C836 C839 1.543 . S
C837 C833 1.408 1_655 S
C837 C836 1.404 . S
C837 H849 0.930 . S
C838 C834 1.524 . S
C838 H850 0.956 . S
C838 H851 0.961 . S
C838 H852 0.961 . S
C839 C836 1.543 . S
C839 H853 0.955 1_556 S
C839 H854 0.960 1_556 S
C839 H855 0.961 . S
H840 C824 0.931 . S
H841 C829 0.929 . S
H842 C830 0.960 . S
H843 C830 0.962 . S
H844 C830 0.960 . S
H845 C831 0.961 . S
H846 C831 0.961 . S
H847 C831 0.961 . S
H848 C832 0.931 . S
H849 C837 0.930 . S
H850 C838 0.956 . S
H851 C838 0.961 . S
H852 C838 0.961 . S
H853 C839 0.955 1_554 S
H854 C839 0.960 1_554 S
H855 C839 0.961 . S
C856 C857 1.391 . S
C856 C858 1.394 . S
C856 H872 0.931 . S
C857 C856 1.391 . S
C857 C861 1.376 1_545 S
C858 C856 1.394 . S
C858 C859 1.369 . S
C858 C862 1.531 . S
C859 C858 1.369 . S
C859 C860 1.410 1_545 S
C859 C867 1.503 . S
C860 C859 1.410 1_565 S
C860 C861 1.392 . S
C860 C863 1.511 . S
C861 C857 1.376 1_565 S
C861 C860 1.392 . S
C861 H873 0.929 . S
C862 C858 1.531 . S
C862 H874 0.960 . S
C862 H875 0.962 . S
C862 H876 0.960 . S
C863 C860 1.511 . S
C863 H877 0.961 . S
C863 H878 0.961 . S
C863 H879 0.961 1_556 S
C864 C865 1.365 1_565 S
C864 C866 1.364 . S
C864 H880 0.936 . S
C865 C864 1.365 1_545 S
C865 C869 1.408 . S
C866 C864 1.364 . S
C866 C867 1.370 1_565 S
C866 C870 1.524 . S
C867 C859 1.503 . S
C867 C866 1.370 1_545 S
C867 C868 1.403 . S
C868 C867 1.403 . S
C868 C869 1.404 . S
C868 C871 1.539 . S
C869 C865 1.408 . S
C869 C868 1.404 . S
C869 H881 0.930 . S
C870 C866 1.524 . S
C870 H882 0.956 . S
C870 H883 0.961 . S
C870 H884 0.961 . S
C871 C868 1.539 . S
C871 H885 0.958 . S
C871 H886 0.961 1_556 S
C871 H887 0.960 1_556 S
H872 C856 0.931 . S
H873 C861 0.929 . S
H874 C862 0.960 . S
H875 C862 0.962 . S
H876 C862 0.960 . S
H877 C863 0.961 . S
H878 C863 0.961 . S
H879 C863 0.961 1_554 S
H880 C864 0.936 . S
H881 C869 0.930 . S
H882 C870 0.956 . S
H883 C870 0.961 . S
H884 C870 0.961 . S
H885 C871 0.958 . S
H886 C871 0.961 1_554 S
H887 C871 0.960 1_554 S
C888 C889 1.391 . S
C888 C890 1.394 . S
C888 H904 0.931 . S
C889 C888 1.391 . S
C889 C893 1.376 . S
C890 C888 1.394 . S
C890 C891 1.369 . S
C890 C894 1.531 . S
C891 C890 1.369 . S
C891 C892 1.410 . S
C891 C899 1.503 . S
C892 C891 1.410 . S
C892 C893 1.392 . S
C892 C895 1.511 . S
C893 C889 1.376 . S
C893 C892 1.392 . S
C893 H905 0.929 . S
C894 C890 1.531 . S
C894 H906 0.960 . S
C894 H907 0.962 . S
C894 H908 0.960 . S
C895 C892 1.511 . S
C895 H909 0.961 . S
C895 H910 0.961 . S
C895 H911 0.961 . S
C896 C897 1.370 . S
C896 C898 1.363 . S
C896 H912 0.931 . S
C897 C896 1.370 . S
C897 C901 1.408 . S
C898 C896 1.363 . S
C898 C899 1.370 . S
C898 C902 1.524 . S
C899 C891 1.503 . S
C899 C898 1.370 . S
C899 C900 1.403 . S
C900 C899 1.403 . S
C900 C901 1.404 . S
C900 C903 1.539 . S
C901 C897 1.408 . S
C901 C900 1.404 . S
C901 H913 0.930 . S
C902 C898 1.524 . S
C902 H914 0.956 . S
C902 H915 0.961 . S
C902 H916 0.961 . S
C903 C900 1.539 . S
C903 H917 0.958 . S
C903 H918 0.961 . S
C903 H919 0.960 . S
H904 C888 0.931 . S
H905 C893 0.929 . S
H906 C894 0.960 . S
H907 C894 0.962 . S
H908 C894 0.960 . S
H909 C895 0.961 . S
H910 C895 0.961 . S
H911 C895 0.961 . S
H912 C896 0.931 . S
H913 C901 0.930 . S
H914 C902 0.956 . S
H915 C902 0.961 . S
H916 C902 0.961 . S
H917 C903 0.958 . S
H918 C903 0.961 . S
H919 C903 0.960 . S
C920 C921 1.391 . S
C920 C922 1.394 . S
C920 H936 0.931 . S
C921 C920 1.391 . S
C921 C925 1.376 . S
C922 C920 1.394 . S
C922 C923 1.369 . S
C922 C926 1.531 . S
C923 C922 1.369 . S
C923 C924 1.410 . S
C923 C931 1.503 . S
C924 C923 1.410 . S
C924 C925 1.392 . S
C924 C927 1.511 . S
C925 C921 1.376 . S
C925 C924 1.392 . S
C925 H937 0.929 . S
C926 C922 1.531 . S
C926 H938 0.960 . S
C926 H939 0.962 . S
C926 H940 0.960 . S
C927 C924 1.511 . S
C927 H941 0.961 . S
C927 H942 0.961 . S
C927 H943 0.961 . S
C928 C929 1.370 . S
C928 C930 1.363 . S
C928 H944 0.931 . S
C929 C928 1.370 . S
C929 C933 1.408 . S
C930 C928 1.363 . S
C930 C931 1.370 . S
C930 C934 1.524 . S
C931 C923 1.503 . S
C931 C930 1.370 . S
C931 C932 1.403 . S
C932 C931 1.403 . S
C932 C933 1.404 . S
C932 C935 1.539 1_556 S
C933 C929 1.408 . S
C933 C932 1.404 . S
C933 H945 0.930 . S
C934 C930 1.524 . S
C934 H946 0.956 . S
C934 H947 0.961 . S
C934 H948 0.961 . S
C935 C932 1.539 1_554 S
C935 H949 0.958 . S
C935 H950 0.961 . S
C935 H951 0.960 . S
H936 C920 0.931 . S
H937 C925 0.929 . S
H938 C926 0.960 . S
H939 C926 0.962 . S
H940 C926 0.960 . S
H941 C927 0.961 . S
H942 C927 0.961 . S
H943 C927 0.961 . S
H944 C928 0.931 . S
H945 C933 0.930 . S
H946 C934 0.956 . S
H947 C934 0.961 . S
H948 C934 0.961 . S
H949 C935 0.958 . S
H950 C935 0.961 . S
H951 C935 0.960 . S
C952 C953 1.391 1_455 S
C952 C954 1.394 . S
C952 H968 0.931 . S
C953 C952 1.391 1_655 S
C953 C957 1.376 . S
C954 C952 1.394 . S
C954 C955 1.369 1_455 S
C954 C958 1.531 . S
C955 C954 1.369 1_655 S
C955 C956 1.410 . S
C955 C963 1.503 . S
C956 C955 1.410 . S
C956 C957 1.392 . S
C956 C959 1.511 . S
C957 C953 1.376 . S
C957 C956 1.392 . S
C957 H969 0.929 . S
C958 C954 1.531 . S
C958 H970 0.960 . S
C958 H971 0.962 . S
C958 H972 0.960 . S
C959 C956 1.511 . S
C959 H973 0.961 . S
C959 H974 0.961 . S
C959 H975 0.961 . S
C960 C961 1.385 . S
C960 C962 1.363 . S
C960 H976 0.918 1_655 S
C961 C960 1.385 . S
C961 C965 1.408 . S
C962 C960 1.363 . S
C962 C963 1.371 . S
C962 C966 1.523 1_655 S
C963 C955 1.503 . S
C963 C962 1.371 . S
C963 C964 1.403 . S
C964 C963 1.403 . S
C964 C965 1.404 . S
C964 C967 1.539 . S
C965 C961 1.408 . S
C965 C964 1.404 . S
C965 H977 0.930 . S
C966 C962 1.523 1_455 S
C966 H978 0.956 . S
C966 H979 0.961 1_455 S
C966 H980 0.961 . S
C967 C964 1.539 . S
C967 H981 0.958 . S
C967 H982 0.961 . S
C967 H983 0.960 . S
H968 C952 0.931 . S
H969 C957 0.929 . S
H970 C958 0.960 . S
H971 C958 0.962 . S
H972 C958 0.960 . S
H973 C959 0.961 . S
H974 C959 0.961 . S
H975 C959 0.961 . S
H976 C960 0.918 1_455 S
H977 C965 0.930 . S
H978 C966 0.956 . S
H979 C966 0.961 1_655 S
H980 C966 0.961 . S
H981 C967 0.958 . S
H982 C967 0.961 . S
H983 C967 0.960 . S
C984 C985 1.393 . S
C984 C986 1.395 . S
C984 H1000 0.928 1_565 S
C985 C984 1.393 . S
C985 C989 1.376 . S
C986 C984 1.395 . S
C986 C987 1.369 . S
C986 C990 1.525 1_565 S
C987 C986 1.369 . S
C987 C988 1.410 . S
C987 C995 1.503 . S
C988 C987 1.410 . S
C988 C989 1.392 . S
C988 C991 1.511 . S
C989 C985 1.376 . S
C989 C988 1.392 . S
C989 H1001 0.929 . S
C990 C986 1.525 1_545 S
C990 H1002 0.939 1_545 S
C990 H1003 0.998 . S
C990 H1004 0.953 1_545 S
C991 C988 1.511 . S
C991 H1005 0.961 . S
C991 H1006 0.961 . S
C991 H1007 0.961 . S
C992 C993 1.370 1_545 S
C992 C994 1.363 . S
C992 H1008 0.931 . S
C993 C992 1.370 1_565 S
C993 C997 1.408 . S
C994 C992 1.363 . S
C994 C995 1.370 1_545 S
C994 C998 1.524 . S
C995 C987 1.503 . S
C995 C994 1.370 1_565 S
C995 C996 1.403 . S
C996 C995 1.403 . S
C996 C997 1.404 . S
C996 C999 1.539 . S
C997 C993 1.408 . S
C997 C996 1.404 . S
C997 H1009 0.930 . S
C998 C994 1.524 . S
C998 H1010 0.956 . S
C998 H1011 0.961 . S
C998 H1012 0.961 . S
C999 C996 1.539 . S
C999 H1013 0.958 . S
C999 H1014 0.961 . S
C999 H1015 0.960 . S
H1000 C984 0.928 1_545 S
H1001 C989 0.929 . S
H1002 C990 0.939 1_565 S
H1003 C990 0.998 . S
H1004 C990 0.953 1_565 S
H1005 C991 0.961 . S
H1006 C991 0.961 . S
H1007 C991 0.961 . S
H1008 C992 0.931 . S
H1009 C997 0.930 . S
H1010 C998 0.956 . S
H1011 C998 0.961 . S
H1012 C998 0.961 . S
H1013 C999 0.958 . S
H1014 C999 0.961 . S
H1015 C999 0.960 . S
C1016 C1017 1.391 . S
C1016 C1018 1.394 . S
C1016 H1032 0.931 . S
C1017 C1016 1.391 . S
C1017 C1021 1.376 . S
C1018 C1016 1.394 . S
C1018 C1019 1.369 . S
C1018 C1022 1.531 . S
C1019 C1018 1.369 . S
C1019 C1020 1.410 . S
C1019 C1027 1.503 . S
C1020 C1019 1.410 . S
C1020 C1021 1.392 . S
C1020 C1023 1.511 . S
C1021 C1017 1.376 . S
C1021 C1020 1.392 . S
C1021 H1033 0.929 . S
C1022 C1018 1.531 . S
C1022 H1034 0.960 . S
C1022 H1035 0.962 . S
C1022 H1036 0.960 . S
C1023 C1020 1.511 . S
C1023 H1037 0.961 . S
C1023 H1038 0.961 . S
C1023 H1039 0.961 . S
C1024 C1025 1.370 . S
C1024 C1026 1.363 . S
C1024 H1040 0.931 . S
C1025 C1024 1.370 . S
C1025 C1029 1.408 . S
C1026 C1024 1.363 . S
C1026 C1027 1.370 . S
C1026 C1030 1.524 . S
C1027 C1019 1.503 . S
C1027 C1026 1.370 . S
C1027 C1028 1.403 . S
C1028 C1027 1.403 . S
C1028 C1029 1.404 . S
C1028 C1031 1.539 . S
C1029 C1025 1.408 . S
C1029 C1028 1.404 . S
C1029 H1041 0.930 . S
C1030 C1026 1.524 . S
C1030 H1042 0.956 . S
C1030 H1043 0.961 . S
C1030 H1044 0.961 . S
C1031 C1028 1.539 . S
C1031 H1045 0.958 . S
C1031 H1046 0.961 . S
C1031 H1047 0.960 . S
H1032 C1016 0.931 . S
H1033 C1021 0.929 . S
H1034 C1022 0.960 . S
H1035 C1022 0.962 . S
H1036 C1022 0.960 . S
H1037 C1023 0.961 . S
H1038 C1023 0.961 . S
H1039 C1023 0.961 . S
H1040 C1024 0.931 . S
H1041 C1029 0.930 . S
H1042 C1030 0.956 . S
H1043 C1030 0.961 . S
H1044 C1030 0.961 . S
H1045 C1031 0.958 . S
H1046 C1031 0.961 . S
H1047 C1031 0.960 . S
C1048 C1049 1.391 . S
C1048 C1050 1.394 . S
C1048 H1064 0.931 . S
C1049 C1048 1.391 . S
C1049 C1053 1.376 . S
C1050 C1048 1.394 . S
C1050 C1051 1.369 . S
C1050 C1054 1.531 . S
C1051 C1050 1.369 . S
C1051 C1052 1.410 . S
C1051 C1059 1.503 . S
C1052 C1051 1.410 . S
C1052 C1053 1.392 . S
C1052 C1055 1.511 . S
C1053 C1049 1.376 . S
C1053 C1052 1.392 . S
C1053 H1065 0.929 . S
C1054 C1050 1.531 . S
C1054 H1066 0.960 . S
C1054 H1067 0.962 . S
C1054 H1068 0.960 . S
C1055 C1052 1.511 . S
C1055 H1069 0.961 . S
C1055 H1070 0.961 . S
C1055 H1071 0.961 . S
C1056 C1057 1.370 . S
C1056 C1058 1.363 . S
C1056 H1072 0.931 . S
C1057 C1056 1.370 . S
C1057 C1061 1.408 . S
C1058 C1056 1.363 . S
C1058 C1059 1.370 . S
C1058 C1062 1.524 . S
C1059 C1051 1.503 . S
C1059 C1058 1.370 . S
C1059 C1060 1.403 . S
C1060 C1059 1.403 . S
C1060 C1061 1.404 . S
C1060 C1063 1.539 . S
C1061 C1057 1.408 . S
C1061 C1060 1.404 . S
C1061 H1073 0.930 . S
C1062 C1058 1.524 . S
C1062 H1074 0.956 . S
C1062 H1075 0.961 . S
C1062 H1076 0.961 . S
C1063 C1060 1.539 . S
C1063 H1077 0.958 . S
C1063 H1078 0.961 . S
C1063 H1079 0.960 . S
H1064 C1048 0.931 . S
H1065 C1053 0.929 . S
H1066 C1054 0.960 . S
H1067 C1054 0.962 . S
H1068 C1054 0.960 . S
H1069 C1055 0.961 . S
H1070 C1055 0.961 . S
H1071 C1055 0.961 . S
H1072 C1056 0.931 . S
H1073 C1061 0.930 . S
H1074 C1062 0.956 . S
H1075 C1062 0.961 . S
H1076 C1062 0.961 . S
H1077 C1063 0.958 . S
H1078 C1063 0.961 . S
H1079 C1063 0.960 . S
C313 C125 1.922 1_545 S
C321 C162 1.948 1_545 S
C353 C202 1.950 . S
C345 C144 1.915 . S
C385 C242 1.944 . S
C377 C87 1.884 . S
C417 C282 1.941 1_455 S
C409 C106 1.880 . S
C449 C171 1.951 1_565 S
C441 C49 1.878 . S
C473 C68 1.913 . S
C481 C211 1.942 . S
C505 C11 1.876 . S
C513 C251 1.951 . S
C537 C30 1.899 . S
C545 C291 1.950 1_655 S
C577 C168 0.547 . S
C569 C97 0.638 . S
C609 C208 0.557 . S
C601 C116 0.485 . S
C641 C248 0.548 . S
C633 C135 0.638 . S
C665 C78 0.623 . S
C673 C288 0.553 . S
C697 C21 0.482 . S
C705 C159 0.560 . S
C737 C199 0.565 . S
C729 C40 0.498 1_545 S
C769 C239 0.520 . S
C761 C59 0.665 . S
C793 C2 0.514 . S
C801 C279 0.538 . S
C825 C101 2.013 . S
C833 C163 2.271 . S
C857 C120 2.016 . S
C865 C203 2.278 . S
C897 C243 2.279 . S
C889 C139 2.076 . S
C929 C283 2.274 . S
C921 C82 2.009 . S
C953 C25 2.012 . S
C961 C154 2.280 . S
C993 C194 2.281 . S
C985 C44 2.035 . S
C1025 C234 2.273 . S
C1017 C63 2.081 . S
C1049 C6 2.022 . S
C1057 C274 2.281 . S
