# Generated by pormake.
# Topology rtl, (3,6)-cn, num edge types: 1
# Building blocks:
#     Node 0, Type 0, BuildingBlock: BELTOD_clean_linker_0, # of connection points: 3
#     Node 1, Type 0, BuildingBlock: BELTOD_clean_linker_0, # of connection points: 3
#     Node 2, Type 0, BuildingBlock: BELTOD_clean_linker_0, # of connection points: 3
#     Node 3, Type 0, BuildingBlock: BELTOD_clean_linker_0, # of connection points: 3
#     Node 4, Type 1, BuildingBlock: KUMBOL_clean_sbu_1, # of connection points: 6
#     Node 5, Type 1, BuildingBlock: KUMBOL_clean_sbu_1, # of connection points: 6
#     Edge 6, Type (0, 1), BuildingBlock: ZUJKAS_clean_linker_0, # of connection points: 2
#     Edge 7, Type (0, 1), BuildingBlock: ZUJKAS_clean_linker_0, # of connection points: 2
#     Edge 8, Type (0, 1), BuildingBlock: ZUJKAS_clean_linker_0, # of connection points: 2
#     Edge 9, Type (0, 1), BuildingBlock: ZUJKAS_clean_linker_0, # of connection points: 2
#     Edge 10, Type (0, 1), BuildingBlock: ZUJKAS_clean_linker_0, # of connection points: 2
#     Edge 11, Type (0, 1), BuildingBlock: ZUJKAS_clean_linker_0, # of connection points: 2
#     Edge 12, Type (0, 1), BuildingBlock: ZUJKAS_clean_linker_0, # of connection points: 2
#     Edge 13, Type (0, 1), BuildingBlock: ZUJKAS_clean_linker_0, # of connection points: 2
#     Edge 14, Type (0, 1), BuildingBlock: ZUJKAS_clean_linker_0, # of connection points: 2
#     Edge 15, Type (0, 1), BuildingBlock: ZUJKAS_clean_linker_0, # of connection points: 2
#     Edge 16, Type (0, 1), BuildingBlock: ZUJKAS_clean_linker_0, # of connection points: 2
#     Edge 17, Type (0, 1), BuildingBlock: ZUJKAS_clean_linker_0, # of connection points: 2
# Relax obj value: 0.018
# Max RMSD: 0.085
# Mean RMSD: 0.057
data_MOF--net-rtl--node1-KUMBOL_clean_sbu_1--node2-BELTOD_clean_linker_0--edge1-ZUJKAS_clean_linker_0
_symmetry_space_group_name_H-M    P1
_symmetry_Int_Tables_number       1
_symmetry_cell_setting            triclinic
loop_
_symmetry_equiv_pos_as_xyz
'x, y, z'
_cell_length_a     46.946633
_cell_length_b     47.358868
_cell_length_c     40.406409
_cell_angle_alpha  80.825793
_cell_angle_beta   99.792174
_cell_angle_gamma 90.284614
loop_
_atom_site_label
_atom_site_type_symbol
_atom_site_fract_x
_atom_site_fract_y
_atom_site_fract_z
_atom_type_partial_charge
P0 P 0.24927 0.89082 0.0262 0.0
H1 H 0.26419 0.91383 0.0897 0.0
H2 H 0.23889 0.9154 0.13734 0.0
H3 H 0.16881 0.86827 0.08934 0.0
H4 H 0.19396 0.86774 0.04112 0.0
H5 H 0.29156 0.87444 0.98794 0.0
H6 H 0.3165 0.82931 0.98787 0.0
H7 H 0.27223 0.78813 0.06739 0.0
H8 H 0.24772 0.83352 0.06767 0.0
H9 H 0.22435 0.94433 0.98613 0.0
H10 H 0.21863 0.85441 0.97974 0.0
O11 O 0.27382 0.91644 0.02666 0.0
H12 H 0.19286 0.9557 0.93076 0.0
H13 H 0.18792 0.86556 0.92397 0.0
C14 C 0.23071 0.89108 0.06166 0.0
C15 C 0.24331 0.90395 0.08935 0.0
C16 C 0.2289 0.9046 0.11678 0.0
C17 C 0.2017 0.89205 0.11724 0.0
C18 C 0.18944 0.87864 0.0896 0.0
C19 C 0.20383 0.87818 0.06206 0.0
C20 C 0.26808 0.85742 0.02802 0.0
C21 C 0.2874 0.85573 0.00553 0.0
C22 C 0.30143 0.82985 0.00531 0.0
C23 C 0.29631 0.80507 0.02758 0.0
C24 C 0.2769 0.80688 0.0502 0.0
C25 C 0.2628 0.83284 0.05032 0.0
C26 C 0.22432 0.89862 0.98665 0.0
C27 C 0.21634 0.92705 0.97274 0.0
C28 C 0.19847 0.9335 0.94099 0.0
C29 C 0.18815 0.91158 0.92263 0.0
C30 C 0.19533 0.88298 0.93741 0.0
C31 C 0.21313 0.87658 0.96922 0.0
P32 P 0.70173 0.66687 0.60832 0.0
H33 H 0.72604 0.64665 0.55456 0.0
H34 H 0.70458 0.63427 0.4995 0.0
H35 H 0.61998 0.65784 0.51643 0.0
H36 H 0.64189 0.67129 0.57088 0.0
H37 H 0.73751 0.69598 0.65802 0.0
H38 H 0.76555 0.73948 0.65278 0.0
H39 H 0.73303 0.75552 0.54454 0.0
H40 H 0.70373 0.71317 0.5505 0.0
H41 H 0.66485 0.61973 0.6258 0.0
H42 H 0.68242 0.70273 0.6548 0.0
O43 O 0.72823 0.64262 0.62412 0.0
H44 H 0.6335 0.60954 0.66846 0.0
H45 H 0.65148 0.69236 0.69809 0.0
C46 C 0.68546 0.6591 0.56716 0.0
C47 C 0.70288 0.64917 0.54636 0.0
C48 C 0.69053 0.64198 0.51493 0.0
C49 C 0.66045 0.64457 0.5037 0.0
C50 C 0.6432 0.65564 0.52415 0.0
C51 C 0.65566 0.66306 0.55551 0.0
C52 C 0.71839 0.70135 0.60477 0.0
C53 C 0.73588 0.70932 0.63334 0.0
C54 C 0.75222 0.73404 0.63017 0.0
C55 C 0.75198 0.75098 0.59812 0.0
C56 C 0.73361 0.74335 0.56971 0.0
C57 C 0.71689 0.71886 0.57305 0.0
C58 C 0.67602 0.66194 0.63708 0.0
C59 C 0.66166 0.63593 0.64105 0.0
C60 C 0.64368 0.63016 0.66538 0.0
C61 C 0.64006 0.65016 0.68663 0.0
C62 C 0.65405 0.67649 0.68221 0.0
C63 C 0.67177 0.68241 0.65744 0.0
P64 P 0.82331 0.20275 0.02274 0.0
H65 H 0.81332 0.22424 0.95035 0.0
H66 H 0.82023 0.20285 0.90104 0.0
H67 H 0.8396 0.1211 0.96602 0.0
H68 H 0.83125 0.14231 0.01469 0.0
H69 H 0.81146 0.25313 0.05093 0.0
H70 H 0.76729 0.2801 0.0506 0.0
H71 H 0.71788 0.22174 0.9925 0.0
H72 H 0.76254 0.19495 0.99263 0.0
H73 H 0.87442 0.16724 0.0526 0.0
H74 H 0.7931 0.18652 0.08127 0.0
O75 O 0.84967 0.22643 0.0211 0.0
H76 H 0.88981 0.1384 0.10875 0.0
H77 H 0.80875 0.15836 0.13764 0.0
C78 C 0.82221 0.18504 0.98626 0.0
C79 C 0.81839 0.20156 0.95378 0.0
C80 C 0.82262 0.18934 0.92567 0.0
C81 C 0.83107 0.16035 0.9296 0.0
C82 C 0.83304 0.14344 0.96193 0.0
C83 C 0.82855 0.15568 0.98999 0.0
C84 C 0.79031 0.22247 0.02119 0.0
C85 C 0.79115 0.24626 0.03789 0.0
C86 C 0.76581 0.26147 0.03799 0.0
C87 C 0.73902 0.25306 0.02154 0.0
C88 C 0.73822 0.22896 0.00504 0.0
C89 C 0.76369 0.21363 0.00509 0.0
C90 C 0.83262 0.17895 0.06265 0.0
C91 C 0.85975 0.16496 0.0708 0.0
C92 C 0.86849 0.14848 0.10281 0.0
C93 C 0.85046 0.14624 0.12746 0.0
C94 C 0.82309 0.15989 0.11909 0.0
C95 C 0.81414 0.17596 0.08682 0.0
P96 P 0.37198 0.26573 0.47451 0.0
H97 H 0.37149 0.25168 0.54701 0.0
H98 H 0.37887 0.27987 0.5934 0.0
H99 H 0.38899 0.35565 0.5215 0.0
H100 H 0.38185 0.32734 0.47538 0.0
H101 H 0.35149 0.21403 0.44855 0.0
H102 H 0.30596 0.18862 0.44762 0.0
H103 H 0.27039 0.25561 0.49067 0.0
H104 H 0.31611 0.28077 0.49172 0.0
H105 H 0.4237 0.2801 0.44536 0.0
H106 H 0.33201 0.29741 0.41653 0.0
O107 O 0.39742 0.23987 0.48567 0.0
H108 H 0.43188 0.30862 0.39207 0.0
H109 H 0.34002 0.32649 0.36318 0.0
C110 C 0.37622 0.28734 0.50782 0.0
C111 C 0.37521 0.27439 0.54128 0.0
C112 C 0.37927 0.29056 0.56771 0.0
C113 C 0.38458 0.32 0.56115 0.0
C114 C 0.38532 0.33295 0.52745 0.0
C115 C 0.3811 0.31677 0.501 0.0
C116 C 0.33736 0.2489 0.47091 0.0
C117 C 0.33382 0.2233 0.45761 0.0
C118 C 0.30771 0.2089 0.4569 0.0
C119 C 0.28462 0.21995 0.46939 0.0
C120 C 0.28794 0.24627 0.48145 0.0
C121 C 0.31404 0.26071 0.482 0.0
C122 C 0.37723 0.28617 0.43453 0.0
C123 C 0.4053 0.28994 0.42741 0.0
C124 C 0.40995 0.3065 0.39706 0.0
C125 C 0.38659 0.31985 0.3733 0.0
C126 C 0.35843 0.31617 0.38069 0.0
C127 C 0.35382 0.29959 0.41119 0.0
C128 C 0.96631 0.08565 0.48365 0.0
C129 C 0.9169 0.07976 0.45656 0.0
C130 C 0.94147 0.06972 0.48074 0.0
C131 C 0.91811 0.10565 0.43444 0.0
C132 C 0.96722 0.11222 0.46241 0.0
C133 C 0.94327 0.12176 0.43722 0.0
N134 N 0.9888 0.07609 0.50877 0.0
C135 C 0.01146 0.09349 0.51633 0.0
C136 C 0.9917 0.12892 0.46808 0.0
C137 C 0.01367 0.11975 0.4956 0.0
Gd138 Gd 0.02714 0.96901 0.50651 0.0
Gd139 Gd 0.98419 0.0303 0.53996 0.0
N140 N 0.94105 0.04478 0.50245 0.0
C141 C 0.89168 0.06378 0.45596 0.0
C142 C 0.91609 0.02996 0.50342 0.0
C143 C 0.89117 0.03896 0.47979 0.0
H144 H 0.91582 0.01073 0.52182 0.0
H145 H 0.87161 0.02679 0.47997 0.0
H146 H 0.08669 0.00133 0.48275 0.0
H147 H 0.02778 0.08731 0.53857 0.0
H148 H 0.13823 0.00459 0.50696 0.0
H149 H 0.87234 0.07073 0.43772 0.0
H150 H 0.89947 0.1138 0.41569 0.0
H151 H 0.00405 0.90866 0.54642 0.0
H152 H 0.99328 0.14944 0.45231 0.0
H153 H 0.0321 0.13308 0.50118 0.0
H154 H 0.15243 0.93247 0.60666 0.0
H155 H 0.94365 0.14202 0.42051 0.0
H156 H 0.07287 0.87132 0.62495 0.0
H157 H 0.02251 0.87018 0.59448 0.0
N158 N 0.04344 0.93112 0.55045 0.0
C159 C 0.07157 0.9312 0.56541 0.0
C160 C 0.0261 0.90902 0.55958 0.0
C161 C 0.06492 0.88805 0.60384 0.0
C162 C 0.03647 0.88733 0.5867 0.0
C163 C 0.08299 0.90998 0.59299 0.0
H164 H 0.12118 0.89519 0.62988 0.0
N165 N 0.07755 0.97105 0.52428 0.0
C166 C 0.08905 0.95218 0.55229 0.0
C167 C 0.13624 0.97234 0.55058 0.0
C168 C 0.11864 0.95248 0.56645 0.0
C169 C 0.09515 0.98859 0.507 0.0
C170 C 0.12455 0.99006 0.52031 0.0
O171 O 0.96798 0.01399 0.49057 0.0
O172 O 0.00861 0.00741 0.4686 0.0
O173 O 0.04983 0.94804 0.47319 0.0
O174 O 0.00372 0.9416 0.47403 0.0
O175 O 0.96852 0.98516 0.5523 0.0
O176 O 0.98052 0.95976 0.51148 0.0
O177 O 0.02277 0.96641 0.56204 0.0
O178 O 0.02686 0.0128 0.57032 0.0
O179 O 0.96383 0.01993 0.58463 0.0
O180 O 0.9753 0.06345 0.56862 0.0
O181 O 0.03954 0.01529 0.49214 0.0
O182 O 0.03197 0.03642 0.53775 0.0
C183 C 0.98189 0.01688 0.46486 0.0
C184 C 0.9649 0.9638 0.53468 0.0
C185 C 0.02445 0.91569 0.43673 0.0
C186 C 0.03967 0.89961 0.38776 0.0
C187 C 1.00039 0.87617 0.41282 0.0
C188 C 0.00325 0.89465 0.43673 0.0
C189 C 0.01834 0.87865 0.38841 0.0
C190 C 0.04294 0.91787 0.41245 0.0
C191 C 0.02628 0.93563 0.46153 0.0
C192 C 0.12985 0.93233 0.59514 0.0
C193 C 0.11207 0.91106 0.60832 0.0
H194 H 0.15907 0.9733 0.56065 0.0
C195 C 0.03228 0.9855 0.58117 0.0
C196 C 0.04552 0.03483 0.51203 0.0
C197 C 0.97858 0.04761 0.62742 0.0
C198 C 0.97266 0.05518 0.68425 0.0
C199 C 0.02007 0.04322 0.67291 0.0
C200 C 0.00826 0.04239 0.639 0.0
C201 C 0.00245 0.04955 0.69546 0.0
C202 C 0.96086 0.05406 0.65002 0.0
C203 C 0.96586 0.04565 0.59207 0.0
H204 H 0.98406 0.85995 0.41309 0.0
H205 H 0.98888 0.89247 0.45526 0.0
H206 H 0.01565 0.86405 0.37008 0.0
H207 H 0.05909 0.93432 0.41202 0.0
H208 H 0.04299 0.03909 0.68171 0.0
H209 H 0.02225 0.03772 0.62183 0.0
H210 H 0.01226 0.05057 0.7215 0.0
H211 H 0.93789 0.05788 0.64103 0.0
C212 C 0.57273 0.54668 0.01458 0.0
C213 C 0.56002 0.59644 0.99206 0.0
C214 C 0.55355 0.56981 0.01007 0.0
C215 C 0.58532 0.59916 0.97769 0.0
C216 C 0.59831 0.54941 1.00053 0.0
C217 C 0.6044 0.57572 0.9819 0.0
N218 N 0.56576 0.52116 0.03161 0.0
C219 C 0.58381 0.49783 0.03664 0.0
C220 C 0.61678 0.52544 0.00517 0.0
C221 C 0.60954 0.49958 0.02344 0.0
Gd222 Gd 0.45446 0.49125 0.99026 0.0
Gd223 Gd 0.52172 0.51979 0.05162 0.0
N224 N 0.52886 0.56637 0.02369 0.0
C225 C 0.54116 0.61973 0.98963 0.0
C226 C 0.51209 0.58971 0.0242 0.0
C227 C 0.51744 0.61648 0.00642 0.0
H228 H 0.49519 0.58823 0.03926 0.0
H229 H 0.5036 0.63472 0.00628 0.0
H230 H 0.47591 0.42224 0.02088 0.0
H231 H 0.57837 0.47792 0.05097 0.0
H232 H 0.45782 0.37998 0.05381 0.0
H233 H 0.54535 0.64054 0.97602 0.0
H234 H 0.59048 0.61941 0.96357 0.0
H235 H 0.40081 0.54031 0.97326 0.0
H236 H 0.63662 0.52666 0.99474 0.0
H237 H 0.62375 0.48098 0.02731 0.0
H238 H 0.36324 0.40897 0.06708 0.0
H239 H 0.62384 0.57817 0.9707 0.0
H240 H 0.32981 0.50445 0.0183 0.0
H241 H 0.35163 0.54534 0.98607 0.0
N242 N 0.40702 0.49752 0.99899 0.0
C243 C 0.39523 0.47454 0.01602 0.0
C244 C 0.39166 0.52259 0.98791 0.0
C245 C 0.35144 0.5022 0.01289 0.0
C246 C 0.36371 0.52537 0.99479 0.0
C247 C 0.36716 0.47636 0.02369 0.0
H248 H 0.33432 0.45359 0.04836 0.0
N249 N 0.43904 0.44853 0.01981 0.0
C250 C 0.41162 0.4493 0.0266 0.0
C251 C 0.41727 0.40034 0.05536 0.0
C252 C 0.40021 0.42535 0.04505 0.0
C253 C 0.45517 0.42374 0.02836 0.0
C254 C 0.44473 0.39945 0.04665 0.0
O255 O 0.5248 0.51638 0.997 0.0
O256 O 0.47914 0.52886 0.96897 0.0
O257 O 0.45855 0.46669 0.95013 0.0
O258 O 0.42175 0.49529 0.94476 0.0
O259 O 0.47702 0.53982 0.0473 0.0
O260 O 0.45549 0.53853 0.99186 0.0
O261 O 0.45106 0.48971 0.04582 0.0
O262 O 0.49762 0.48261 0.07515 0.0
O263 O 0.52487 0.54325 0.09413 0.0
O264 O 0.55771 0.51171 0.09374 0.0
O265 O 0.49754 0.46712 0.99853 0.0
O266 O 0.52299 0.47224 0.05176 0.0
C267 C 0.50715 0.5284 0.96979 0.0
C268 C 0.45767 0.54941 0.02015 0.0
C269 C 0.43974 0.49031 0.895 0.0
C270 C 0.4397 0.48326 0.83638 0.0
C271 C 0.45182 0.52946 0.85356 0.0
C272 C 0.44764 0.51881 0.88657 0.0
C273 C 0.44785 0.51189 0.82858 0.0
C274 C 0.43583 0.47261 0.8699 0.0
C275 C 0.43579 0.47882 0.92991 0.0
C276 C 0.37228 0.42713 0.05279 0.0
C277 C 0.35581 0.45254 0.04213 0.0
H278 H 0.40932 0.3815 0.06965 0.0
C279 C 0.4696 0.47962 0.07323 0.0
C280 C 0.51799 0.45894 0.02513 0.0
C281 C 0.54547 0.5166 0.14677 0.0
C282 C 0.54938 0.52241 0.2063 0.0
C283 C 0.53189 0.47802 0.18793 0.0
C284 C 0.53534 0.48884 0.1547 0.0
C285 C 0.53875 0.49469 0.21361 0.0
C286 C 0.55266 0.53326 0.17266 0.0
C287 C 0.5475 0.5287 0.1114 0.0
H288 H 0.45791 0.55149 0.84725 0.0
H289 H 0.45039 0.53285 0.90547 0.0
H290 H 0.45064 0.5209 0.80299 0.0
H291 H 0.43 0.45051 0.87662 0.0
H292 H 0.52396 0.45662 0.19382 0.0
H293 H 0.53012 0.47557 0.13521 0.0
H294 H 0.53625 0.48571 0.23931 0.0
H295 H 0.56038 0.55476 0.16654 0.0
H296 H 0.25481 0.19084 0.42143 0.0
H297 H 0.21219 0.16142 0.42613 0.0
H298 H 0.21154 0.18169 0.52633 0.0
H299 H 0.25401 0.21115 0.5218 0.0
H300 H 0.20725 0.1139 0.47296 0.0
H301 H 0.12787 0.19747 0.48174 0.0
H302 H 0.162 0.20597 0.46807 0.0
H303 H 0.1603 0.19678 0.51264 0.0
C304 C 0.2455 0.18913 0.4444 0.0
C305 C 0.25773 0.20345 0.47118 0.0
C306 C 0.2211 0.17239 0.447 0.0
C307 C 0.20839 0.1697 0.47636 0.0
C308 C 0.22049 0.18405 0.50307 0.0
H309 H 0.07844 0.06334 0.55795 0.0
H310 H 0.11746 0.09647 0.54795 0.0
C311 C 0.2448 0.20087 0.50045 0.0
C312 C 0.18346 0.15069 0.47983 0.0
H313 H 0.11431 0.14897 0.49608 0.0
C314 C 0.18683 0.12162 0.47767 0.0
C315 C 0.15684 0.1608 0.48605 0.0
C316 C 0.15137 0.19202 0.48694 0.0
C317 C 0.16457 0.10227 0.48241 0.0
C318 C 0.13818 0.11232 0.48914 0.0
C319 C 0.13466 0.14138 0.49101 0.0
C320 C 0.11412 0.09282 0.49476 0.0
C321 C 0.16962 0.07105 0.48109 0.0
C322 C 0.09912 0.08015 0.46801 0.0
C323 C 0.07667 0.06144 0.47356 0.0
C324 C 0.0689 0.05505 0.50598 0.0
C325 C 0.08381 0.068 0.53264 0.0
C326 C 0.10613 0.08685 0.52701 0.0
H327 H 0.19279 0.06591 0.48169 0.0
H328 H 0.16213 0.05736 0.50278 0.0
H329 H 0.15701 0.06557 0.45724 0.0
H330 H 0.10476 0.0848 0.44283 0.0
H331 H 0.06535 0.05201 0.45245 0.0
H332 H 0.32054 0.76521 0.08187 0.0
H333 H 0.34656 0.72077 0.08059 0.0
H334 H 0.33163 0.73822 0.97093 0.0
H335 H 0.3055 0.78251 0.97194 0.0
H336 H 0.32824 0.6729 0.04915 0.0
H337 H 0.41974 0.72668 0.99598 0.0
H338 H 0.39428 0.74554 0.01386 0.0
H339 H 0.38472 0.7372 0.97156 0.0
C340 C 0.32258 0.75946 0.05748 0.0
C341 C 0.31118 0.77754 0.02701 0.0
C342 C 0.33754 0.73413 0.0568 0.0
C343 C 0.34145 0.72649 0.02569 0.0
C344 C 0.32944 0.74407 0.99523 0.0
H345 H 0.42952 0.58698 0.96619 0.0
H346 H 0.39995 0.62899 0.96787 0.0
C347 C 0.31453 0.76938 0.99587 0.0
C348 C 0.35815 0.70016 0.02501 0.0
H349 H 0.41818 0.67626 0.99962 0.0
C350 C 0.34797 0.67359 0.03847 0.0
C351 C 0.38387 0.70118 0.01104 0.0
C352 C 0.39651 0.72917 0.99755 0.0
C353 C 0.36257 0.64793 0.03772 0.0
C354 C 0.38824 0.64898 0.02365 0.0
C355 C 0.39842 0.67554 0.01027 0.0
C356 C 0.40508 0.6228 0.02279 0.0
C357 C 0.35011 0.6199 0.05132 0.0
C358 C 0.41789 0.60552 0.05313 0.0
C359 C 0.4347 0.58147 0.05225 0.0
C360 C 0.43906 0.57432 0.021 0.0
C361 C 0.42623 0.5917 0.99065 0.0
C362 C 0.40945 0.61577 0.99156 0.0
H363 H 0.32694 0.62233 0.05323 0.0
H364 H 0.3522 0.60359 0.03489 0.0
H365 H 0.36216 0.61182 0.07718 0.0
H366 H 0.41526 0.6109 0.07753 0.0
H367 H 0.44442 0.56856 0.07606 0.0
H368 H 0.80739 0.75452 0.632 0.0
H369 H 0.84139 0.79278 0.62335 0.0
H370 H 0.77798 0.8395 0.54396 0.0
H371 H 0.74296 0.80224 0.55413 0.0
H372 H 0.86445 0.80954 0.56937 0.0
H373 H 0.80573 0.90231 0.59578 0.0
H374 H 0.79422 0.86604 0.60598 0.0
H375 H 0.78513 0.88524 0.56325 0.0
C376 C 0.80022 0.77328 0.6134 0.0
C377 C 0.77219 0.77522 0.59396 0.0
C378 C 0.8199 0.79506 0.60821 0.0
C379 C 0.81222 0.81924 0.58328 0.0
C380 C 0.78427 0.8214 0.56389 0.0
H381 H 0.94047 0.92577 0.49448 0.0
H382 H 0.90294 0.89144 0.50569 0.0
C383 C 0.76437 0.79978 0.5694 0.0
C384 C 0.83413 0.84118 0.57634 0.0
H385 H 0.84705 0.91276 0.56913 0.0
C386 C 0.86068 0.83209 0.56953 0.0
C387 C 0.8294 0.87059 0.57692 0.0
C388 C 0.8022 0.88161 0.58622 0.0
C389 C 0.8825 0.85151 0.56309 0.0
C390 C 0.87731 0.88106 0.56223 0.0
C391 C 0.85089 0.89016 0.56937 0.0
C392 C 0.89924 0.90277 0.55466 0.0
C393 C 0.91115 0.83998 0.55814 0.0
C394 C 0.90883 0.92143 0.57775 0.0
C395 C 0.92992 0.9415 0.5711 0.0
C396 C 0.94195 0.94317 0.54128 0.0
C397 C 0.93196 0.92478 0.51792 0.0
C398 C 0.91059 0.90501 0.52438 0.0
H399 H 0.91461 0.81709 0.56974 0.0
H400 H 0.91145 0.84156 0.53051 0.0
H401 H 0.92944 0.8523 0.56943 0.0
H402 H 0.9003 0.92021 0.60121 0.0
H403 H 0.93713 0.95535 0.58963 0.0
H404 H 0.69458 0.26902 0.96832 0.0
H405 H 0.65253 0.29982 0.96725 0.0
H406 H 0.68139 0.30638 0.07285 0.0
H407 H 0.72296 0.275 0.07443 0.0
H408 H 0.62114 0.29851 0.05581 0.0
H409 H 0.66006 0.3865 0.96709 0.0
H410 H 0.65641 0.3525 0.95259 0.0
H411 H 0.68294 0.35645 0.98913 0.0
C412 C 0.69172 0.27666 0.99145 0.0
C413 C 0.71229 0.26982 0.02137 0.0
C414 C 0.66785 0.29447 0.9907 0.0
C415 C 0.66416 0.30579 0.01981 0.0
C416 C 0.68397 0.29805 0.05004 0.0
H417 H 0.55616 0.42933 0.07799 0.0
H418 H 0.58944 0.39041 0.07591 0.0
C419 C 0.70782 0.28029 0.05082 0.0
C420 C 0.64031 0.32651 0.01865 0.0
H421 H 0.61537 0.39414 0.98366 0.0
C422 C 0.61977 0.31938 0.03995 0.0
C423 C 0.63864 0.35373 0.99795 0.0
C424 C 0.66078 0.36297 0.97557 0.0
C425 C 0.59755 0.33879 0.04109 0.0
C426 C 0.59619 0.36617 0.02083 0.0
C427 C 0.61643 0.37309 0.99911 0.0
C428 C 0.57467 0.38845 0.0226 0.0
C429 C 0.57562 0.32975 0.06379 0.0
C430 C 0.55554 0.40052 0.99323 0.0
C431 C 0.53663 0.42296 0.99425 0.0
C432 C 0.5367 0.43395 0.02463 0.0
C433 C 0.55558 0.42146 0.05415 0.0
C434 C 0.57447 0.39903 0.05309 0.0
H435 H 0.57465 0.30608 0.0699 0.0
H436 H 0.58184 0.33813 0.08807 0.0
H437 H 0.55372 0.33842 0.05172 0.0
H438 H 0.55547 0.39278 0.96939 0.0
H439 H 0.52243 0.43208 0.97101 0.0
H440 H 0.22454 0.88679 0.18532 0.0
H441 H 0.19885 0.88959 0.23261 0.0
H442 H 0.11809 0.90217 0.16261 0.0
H443 H 0.14355 0.90025 0.115 0.0
H444 H 0.15966 0.93696 0.23977 0.0
H445 H 0.107 0.83174 0.23711 0.0
H446 H 0.1387 0.8409 0.21817 0.0
H447 H 0.10381 0.85507 0.19685 0.0
C448 C 0.20135 0.89045 0.17985 0.0
C449 C 0.18613 0.89321 0.14625 0.0
C450 C 0.18672 0.8919 0.20697 0.0
C451 C 0.1566 0.89584 0.20108 0.0
C452 C 0.14133 0.89874 0.16768 0.0
H453 H 0.02178 0.90053 0.31988 0.0
H454 H 0.05157 0.90125 0.27574 0.0
C455 C 0.15592 0.89746 0.14053 0.0
C456 C 0.14102 0.89692 0.22981 0.0
H457 H 0.09176 0.86131 0.27301 0.0
C458 C 0.14492 0.92038 0.24727 0.0
C459 C 0.12188 0.87523 0.23942 0.0
C460 C 0.11765 0.84915 0.22216 0.0
C461 C 0.1294 0.92319 0.27347 0.0
C462 C 0.10998 0.90161 0.28287 0.0
C463 C 0.10655 0.8779 0.26573 0.0
C464 C 0.09223 0.90338 0.30964 0.0
C465 C 0.13319 0.94968 0.29001 0.0
C466 C 0.10515 0.90464 0.3434 0.0
C467 C 0.08808 0.90439 0.36873 0.0
C468 C 0.05787 0.90242 0.36077 0.0
C469 C 0.04503 0.9017 0.32685 0.0
C470 C 0.06202 0.90217 0.3016 0.0
H471 H 0.14281 0.96727 0.27413 0.0
H472 H 0.11219 0.9574 0.29477 0.0
H473 H 0.14792 0.94454 0.31483 0.0
H474 H 0.12844 0.90498 0.35037 0.0
H475 H 0.09855 0.90468 0.39471 0.0
H476 H 0.65541 0.65681 0.75318 0.0
H477 H 0.63043 0.63881 0.80054 0.0
H478 H 0.56162 0.60864 0.73057 0.0
H479 H 0.58681 0.62608 0.68322 0.0
H480 H 0.57752 0.6484 0.81651 0.0
H481 H 0.58785 0.53609 0.796 0.0
H482 H 0.60646 0.56497 0.77457 0.0
H483 H 0.56892 0.55919 0.75942 0.0
C484 C 0.63474 0.64671 0.74786 0.0
C485 C 0.62319 0.64257 0.71457 0.0
C486 C 0.62054 0.63636 0.77494 0.0
C487 C 0.59449 0.62178 0.7692 0.0
C488 C 0.58209 0.6191 0.73572 0.0
H489 H 0.48305 0.57217 0.9206 0.0
H490 H 0.50359 0.59554 0.87169 0.0
C491 C 0.59643 0.62916 0.70869 0.0
C492 C 0.58099 0.6084 0.79837 0.0
H493 H 0.55973 0.54424 0.8371 0.0
C494 C 0.57362 0.62563 0.82104 0.0
C495 C 0.57639 0.57858 0.80461 0.0
C496 C 0.58557 0.55856 0.78259 0.0
C497 C 0.56153 0.61388 0.84958 0.0
C498 C 0.5561 0.58423 0.85513 0.0
C499 C 0.56364 0.56701 0.8326 0.0
C500 C 0.54344 0.57033 0.88471 0.0
C501 C 0.55538 0.6332 0.87397 0.0
C502 C 0.55861 0.54784 0.90768 0.0
C503 C 0.54662 0.53406 0.9351 0.0
C504 C 0.5193 0.54258 0.94019 0.0
C505 C 0.50406 0.56501 0.91714 0.0
C506 C 0.51595 0.57865 0.88948 0.0
H507 H 0.56793 0.65314 0.8714 0.0
H508 H 0.53206 0.63932 0.8684 0.0
H509 H 0.56054 0.62217 0.90073 0.0
H510 H 0.57979 0.54097 0.90442 0.0
H511 H 0.55873 0.51663 0.95226 0.0
H512 H 0.85035 0.16626 0.18691 0.0
H513 H 0.87134 0.14318 0.24442 0.0
H514 H 0.89436 0.06883 0.2044 0.0
H515 H 0.87442 0.09243 0.14663 0.0
H516 H 0.86028 0.0966 0.28421 0.0
H517 H 0.97085 0.08548 0.25648 0.0
H518 H 0.94258 0.10587 0.2266 0.0
H519 H 0.94462 0.06751 0.23006 0.0
C520 C 0.85976 0.14492 0.19048 0.0
C521 C 0.86099 0.13117 0.1624 0.0
C522 C 0.87179 0.13177 0.2233 0.0
C523 C 0.88504 0.10451 0.22871 0.0
C524 C 0.88512 0.09022 0.20079 0.0
H525 H 0.92903 0.00389 0.43291 0.0
H526 H 0.90476 0.02444 0.37562 0.0
C527 C 0.87355 0.1036 0.16786 0.0
C528 C 0.89891 0.09129 0.26355 0.0
H529 H 0.9623 0.06182 0.31007 0.0
C530 C 0.88265 0.08913 0.28994 0.0
C531 C 0.92823 0.08194 0.27114 0.0
C532 C 0.94767 0.08557 0.24465 0.0
C533 C 0.89481 0.07789 0.32365 0.0
C534 C 0.92385 0.0675 0.33106 0.0
C535 C 0.94005 0.06964 0.30456 0.0
C536 C 0.93825 0.05486 0.36601 0.0
C537 C 0.87645 0.07811 0.35085 0.0
C538 C 0.96573 0.06414 0.37934 0.0
C539 C 0.98012 0.05145 0.41137 0.0
C540 C 0.96697 0.02979 0.43097 0.0
C541 C 0.93942 0.02073 0.41811 0.0
C542 C 0.92543 0.03272 0.38558 0.0
H543 H 0.85991 0.09571 0.34364 0.0
H544 H 0.86484 0.05766 0.35408 0.0
H545 H 0.8897 0.0806 0.3756 0.0
H546 H 0.97613 0.0812 0.36491 0.0
H547 H 0.00129 0.05891 0.42111 0.0
H548 H 0.35552 0.31794 0.6148 0.0
H549 H 0.36474 0.34551 0.66175 0.0
H550 H 0.43483 0.38761 0.61875 0.0
H551 H 0.42571 0.36023 0.57172 0.0
H552 H 0.41403 0.34714 0.70942 0.0
H553 H 0.3876 0.45483 0.6333 0.0
H554 H 0.37817 0.42232 0.61641 0.0
H555 H 0.41439 0.43536 0.61868 0.0
C556 C 0.37292 0.33305 0.61537 0.0
C557 C 0.38978 0.33702 0.58941 0.0
C558 C 0.3781 0.34884 0.64215 0.0
C559 C 0.40016 0.36895 0.64346 0.0
C560 C 0.41722 0.37275 0.6178 0.0
H561 H 0.47139 0.48036 0.78588 0.0
H562 H 0.46187 0.45179 0.73998 0.0
C563 C 0.41199 0.35707 0.59094 0.0
C564 C 0.40582 0.3854 0.67215 0.0
H565 H 0.40993 0.45326 0.691 0.0
C566 C 0.41296 0.37034 0.70543 0.0
C567 C 0.40441 0.41567 0.66688 0.0
C568 C 0.39546 0.43302 0.63193 0.0
C569 C 0.41931 0.38475 0.73353 0.0
C570 C 0.41815 0.41499 0.72819 0.0
C571 C 0.41092 0.43006 0.69496 0.0
C572 C 0.42429 0.43149 0.75673 0.0
C573 C 0.42781 0.36755 0.76862 0.0
C574 C 0.40622 0.42962 0.78127 0.0
C575 C 0.41145 0.44609 0.8074 0.0
C576 C 0.43482 0.46484 0.80942 0.0
C577 C 0.45299 0.46645 0.78486 0.0
C578 C 0.44769 0.45003 0.75871 0.0
H579 H 0.43411 0.34516 0.76763 0.0
H580 H 0.44609 0.37753 0.78353 0.0
H581 H 0.40918 0.36696 0.78232 0.0
H582 H 0.38772 0.41584 0.77982 0.0
H583 H 0.39673 0.44467 0.82551 0.0
H584 H 0.61501 0.66923 0.45564 0.0
H585 H 0.59217 0.65146 0.404 0.0
H586 H 0.65367 0.58081 0.42638 0.0
H587 H 0.67567 0.59751 0.47864 0.0
H588 H 0.61379 0.64231 0.34759 0.0
H589 H 0.57741 0.54037 0.41319 0.0
H590 H 0.59024 0.56932 0.43549 0.0
H591 H 0.61551 0.54505 0.42509 0.0
C592 C 0.62346 0.64972 0.44979 0.0
C593 C 0.64712 0.63474 0.47146 0.0
C594 C 0.61051 0.63972 0.42013 0.0
C595 C 0.62089 0.61453 0.41167 0.0
C596 C 0.6449 0.59995 0.43278 0.0
H597 H 0.59878 0.5522 0.21999 0.0
H598 H 0.61383 0.57715 0.26844 0.0
C599 C 0.65773 0.6098 0.46245 0.0
C600 C 0.60689 0.60344 0.3807 0.0
H601 H 0.57723 0.5435 0.35351 0.0
C602 C 0.60551 0.62081 0.34885 0.0
C603 C 0.59557 0.5756 0.38241 0.0
C604 C 0.59445 0.55662 0.41591 0.0
C605 C 0.59413 0.61066 0.31857 0.0
C606 C 0.58449 0.58217 0.32022 0.0
C607 C 0.58491 0.56522 0.35216 0.0
C608 C 0.57447 0.56911 0.28932 0.0
C609 C 0.59236 0.63066 0.28522 0.0
C610 C 0.54755 0.55586 0.28515 0.0
C611 C 0.53913 0.54122 0.25779 0.0
C612 C 0.55744 0.53962 0.23396 0.0
C613 C 0.58408 0.55344 0.2377 0.0
C614 C 0.59263 0.56782 0.26529 0.0
H615 H 0.59139 0.65339 0.28881 0.0
H616 H 0.612 0.62757 0.2742 0.0
H617 H 0.57311 0.62643 0.26669 0.0
H618 H 0.53321 0.55649 0.30339 0.0
H619 H 0.51838 0.53096 0.25537 0.0
H620 H 0.86233 0.18706 0.883 0.0
H621 H 0.88147 0.16696 0.83923 0.0
H622 H 0.84243 0.08634 0.86883 0.0
H623 H 0.82206 0.10668 0.91204 0.0
H624 H 0.91987 0.1214 0.85214 0.0
H625 H 0.82057 0.09894 0.76479 0.0
H626 H 0.82038 0.1223 0.79599 0.0
H627 H 0.82157 0.08416 0.8088 0.0
C628 C 0.85704 0.1653 0.87968 0.0
C629 C 0.84046 0.14857 0.90102 0.0
C630 C 0.86826 0.15376 0.85479 0.0
C631 C 0.86321 0.12524 0.85057 0.0
C632 C 0.84622 0.10855 0.87128 0.0
H633 H 0.97309 0.03057 0.75044 0.0
H634 H 0.94528 0.0456 0.7909 0.0
C635 C 0.83486 0.12013 0.89622 0.0
C636 C 0.87759 0.11267 0.82615 0.0
H637 H 0.86513 0.08224 0.75397 0.0
C638 C 0.9079 0.1128 0.83069 0.0
C639 C 0.8619 0.10164 0.7981 0.0
C640 C 0.82929 0.1019 0.79132 0.0
C641 C 0.92299 0.10235 0.8079 0.0
C642 C 0.90737 0.09094 0.7801 0.0
C643 C 0.87704 0.09077 0.7755 0.0
C644 C 0.92227 0.08014 0.75493 0.0
C645 C 0.95551 0.10434 0.81328 0.0
C646 C 0.91779 0.09393 0.72099 0.0
C647 C 0.93363 0.08538 0.6978 0.0
C648 C 0.95421 0.06283 0.70813 0.0
C649 C 0.95782 0.04837 0.74186 0.0
C650 C 0.94192 0.05689 0.76499 0.0
H651 H 0.96349 0.11959 0.83082 0.0
H652 H 0.96534 0.08297 0.8246 0.0
H653 H 0.96313 0.1112 0.78873 0.0
H654 H 0.90269 0.11191 0.71272 0.0
H655 H 0.93046 0.09708 0.67209 0.0
H656 H 0.42968 0.35804 0.36461 0.0
H657 H 0.43958 0.38555 0.31148 0.0
H658 H 0.36504 0.34997 0.25596 0.0
H659 H 0.35544 0.32162 0.30903 0.0
H660 H 0.41423 0.34816 0.22643 0.0
H661 H 0.39638 0.45661 0.25518 0.0
H662 H 0.42155 0.43504 0.2877 0.0
H663 H 0.38443 0.42468 0.27934 0.0
C664 C 0.41541 0.35597 0.34111 0.0
C665 C 0.39178 0.33758 0.34109 0.0
C666 C 0.42091 0.37198 0.3108 0.0
C667 C 0.4028 0.37014 0.27983 0.0
C668 C 0.37916 0.35187 0.27963 0.0
H669 H 0.41605 0.48395 0.09002 0.0
H670 H 0.39757 0.45644 0.13827 0.0
C671 C 0.3736 0.33583 0.31 0.0
C672 C 0.40932 0.38647 0.24757 0.0
H673 H 0.42082 0.45394 0.2084 0.0
C674 C 0.41541 0.3713 0.22234 0.0
C675 C 0.41046 0.4167 0.24206 0.0
C676 C 0.40258 0.43426 0.26735 0.0
C677 C 0.42365 0.3855 0.19228 0.0
C678 C 0.42625 0.41557 0.18763 0.0
C679 C 0.41912 0.43084 0.21224 0.0
C680 C 0.43707 0.43153 0.15781 0.0
C681 C 0.42951 0.36825 0.16573 0.0
C682 C 0.46541 0.42668 0.15291 0.0
C683 C 0.47597 0.44227 0.12537 0.0
C684 C 0.45846 0.46318 0.10241 0.0
C685 C 0.43004 0.46795 0.1073 0.0
C686 C 0.41948 0.45233 0.13486 0.0
H687 H 0.41939 0.34694 0.1689 0.0
H688 H 0.42131 0.37973 0.13968 0.0
H689 H 0.45318 0.36481 0.16817 0.0
H690 H 0.47946 0.41097 0.17057 0.0
H691 H 0.49775 0.43773 0.12187 0.0
H692 H 0.19618 0.95518 0.87205 0.0
H693 H 0.16839 0.96629 0.81454 0.0
H694 H 0.11429 0.89412 0.83585 0.0
H695 H 0.14124 0.8835 0.89395 0.0
H696 H 0.16116 0.93281 0.76415 0.0
H697 H 0.05503 0.9584 0.79685 0.0
H698 H 0.08818 0.95573 0.82736 0.0
H699 H 0.07001 0.92391 0.81717 0.0
C700 C 0.17803 0.94196 0.86478 0.0
C701 C 0.17083 0.91856 0.88779 0.0
C702 C 0.16233 0.9482 0.83177 0.0
C703 C 0.13904 0.93127 0.82103 0.0
C704 C 0.13184 0.9078 0.84378 0.0
H705 H 0.02706 0.9358 0.62407 0.0
H706 H 0.05369 0.92109 0.68204 0.0
C707 C 0.1475 0.90157 0.87688 0.0
C708 C 0.12289 0.9378 0.78569 0.0
H709 H 0.05595 0.95596 0.73886 0.0
C710 C 0.13817 0.93792 0.75864 0.0
C711 C 0.09287 0.94443 0.77854 0.0
C712 C 0.07555 0.9459 0.80647 0.0
C713 C 0.12421 0.94437 0.72465 0.0
C714 C 0.0943 0.95106 0.71759 0.0
C715 C 0.0789 0.95067 0.74451 0.0
C716 C 0.0788 0.9595 0.68235 0.0
C717 C 0.14142 0.9438 0.69643 0.0
C718 C 0.08411 0.98595 0.66355 0.0
C719 C 0.06901 0.99433 0.63055 0.0
C720 C 0.04842 0.97634 0.61583 0.0
C721 C 0.04314 0.94985 0.63469 0.0
C722 C 0.05816 0.94153 0.66778 0.0
H723 H 0.16293 0.93311 0.7059 0.0
H724 H 0.12943 0.93257 0.67643 0.0
H725 H 0.14479 0.96606 0.68448 0.0
H726 H 0.09976 1.00022 0.67455 0.0
H727 H 0.07351 0.01485 0.6165 0.0
loop_
_geom_bond_atom_site_label_1
_geom_bond_atom_site_label_2
_geom_bond_distance
_geom_bond_site_symmetry_2
_ccdc_geom_bond_type
P0 O11 1.490 . S
P0 C14 1.812 . S
P0 C20 1.803 . S
P0 C26 1.819 1_554 S
H1 C15 0.941 . S
H2 C16 0.939 . S
H3 C18 0.940 . S
H4 C19 0.940 . S
H5 C21 0.939 . S
H6 C22 0.942 . S
H7 C24 0.940 . S
H8 C25 0.939 . S
H9 C27 0.941 . S
H10 C31 0.939 . S
O11 P0 1.490 . S
H12 C28 0.939 . S
H13 C30 0.940 . S
C14 P0 1.812 . S
C14 C15 1.389 . S
C14 C19 1.391 . S
C15 H1 0.941 . S
C15 C14 1.389 . S
C15 C16 1.397 . S
C16 H2 0.939 . S
C16 C15 1.397 . S
C16 C17 1.378 . S
C17 C16 1.378 . S
C17 C18 1.378 . S
C18 H3 0.940 . S
C18 C17 1.378 . S
C18 C19 1.396 . S
C19 H4 0.940 . S
C19 C14 1.391 . S
C19 C18 1.396 . S
C20 P0 1.803 . S
C20 C21 1.378 . S
C20 C25 1.400 . S
C21 H5 0.939 . S
C21 C20 1.378 . S
C21 C22 1.361 . S
C22 H6 0.942 . S
C22 C21 1.361 . S
C22 C23 1.369 . S
C23 C22 1.369 . S
C23 C24 1.404 . S
C24 H7 0.940 . S
C24 C23 1.404 . S
C24 C25 1.389 . S
C25 H8 0.939 . S
C25 C20 1.400 . S
C25 C24 1.389 . S
C26 P0 1.819 1_556 S
C26 C27 1.391 . S
C26 C31 1.391 . S
C27 H9 0.941 . S
C27 C26 1.391 . S
C27 C28 1.396 . S
C28 H12 0.939 . S
C28 C27 1.396 . S
C28 C29 1.397 . S
C29 C28 1.397 . S
C29 C30 1.385 . S
C30 H13 0.940 . S
C30 C29 1.385 . S
C30 C31 1.388 . S
C31 H10 0.939 . S
C31 C26 1.391 . S
C31 C30 1.388 . S
P32 O43 1.490 . S
P32 C46 1.812 . S
P32 C52 1.803 . S
P32 C58 1.819 . S
H33 C47 0.941 . S
H34 C48 0.939 . S
H35 C50 0.940 . S
H36 C51 0.940 . S
H37 C53 0.939 . S
H38 C54 0.942 . S
H39 C56 0.940 . S
H40 C57 0.939 . S
H41 C59 0.941 . S
H42 C63 0.939 . S
O43 P32 1.490 . S
H44 C60 0.939 . S
H45 C62 0.940 . S
C46 P32 1.812 . S
C46 C47 1.389 . S
C46 C51 1.391 . S
C47 H33 0.941 . S
C47 C46 1.389 . S
C47 C48 1.397 . S
C48 H34 0.939 . S
C48 C47 1.397 . S
C48 C49 1.378 . S
C49 C48 1.378 . S
C49 C50 1.378 . S
C50 H35 0.940 . S
C50 C49 1.378 . S
C50 C51 1.396 . S
C51 H36 0.940 . S
C51 C46 1.391 . S
C51 C50 1.396 . S
C52 P32 1.803 . S
C52 C53 1.378 . S
C52 C57 1.400 . S
C53 H37 0.939 . S
C53 C52 1.378 . S
C53 C54 1.361 . S
C54 H38 0.942 . S
C54 C53 1.361 . S
C54 C55 1.369 . S
C55 C54 1.369 . S
C55 C56 1.404 . S
C56 H39 0.940 . S
C56 C55 1.404 . S
C56 C57 1.389 . S
C57 H40 0.939 . S
C57 C52 1.400 . S
C57 C56 1.389 . S
C58 P32 1.819 . S
C58 C59 1.391 . S
C58 C63 1.391 . S
C59 H41 0.941 . S
C59 C58 1.391 . S
C59 C60 1.396 . S
C60 H44 0.939 . S
C60 C59 1.396 . S
C60 C61 1.397 . S
C61 C60 1.397 . S
C61 C62 1.385 . S
C62 H45 0.940 . S
C62 C61 1.385 . S
C62 C63 1.388 . S
C63 H42 0.939 . S
C63 C58 1.391 . S
C63 C62 1.388 . S
P64 O75 1.490 . S
P64 C78 1.812 1_554 S
P64 C84 1.803 . S
P64 C90 1.819 . S
H65 C79 0.941 . S
H66 C80 0.939 . S
H67 C82 0.940 . S
H68 C83 0.940 1_554 S
H69 C85 0.939 . S
H70 C86 0.942 . S
H71 C88 0.940 1_556 S
H72 C89 0.941 . S
H73 C91 0.941 . S
H74 C95 0.939 . S
O75 P64 1.490 . S
H76 C92 0.939 . S
H77 C94 0.940 . S
C78 P64 1.812 1_556 S
C78 C79 1.389 . S
C78 C83 1.391 . S
C79 H65 0.941 . S
C79 C78 1.389 . S
C79 C80 1.397 . S
C80 H66 0.939 . S
C80 C79 1.397 . S
C80 C81 1.378 . S
C81 C80 1.378 . S
C81 C82 1.378 . S
C82 H67 0.940 . S
C82 C81 1.378 . S
C82 C83 1.396 . S
C83 H68 0.940 1_556 S
C83 C78 1.391 . S
C83 C82 1.396 . S
C84 P64 1.803 . S
C84 C85 1.378 . S
C84 C89 1.400 . S
C85 H69 0.939 . S
C85 C84 1.378 . S
C85 C86 1.361 . S
C86 H70 0.942 . S
C86 C85 1.361 . S
C86 C87 1.369 . S
C87 C86 1.369 . S
C87 C88 1.404 . S
C88 H71 0.940 1_554 S
C88 C87 1.404 . S
C88 C89 1.389 . S
C89 H72 0.941 . S
C89 C84 1.400 . S
C89 C88 1.389 . S
C90 P64 1.819 . S
C90 C91 1.391 . S
C90 C95 1.391 . S
C91 H73 0.941 . S
C91 C90 1.391 . S
C91 C92 1.396 . S
C92 H76 0.939 . S
C92 C91 1.396 . S
C92 C93 1.397 . S
C93 C92 1.397 . S
C93 C94 1.385 . S
C94 H77 0.940 . S
C94 C93 1.385 . S
C94 C95 1.388 . S
C95 H74 0.939 . S
C95 C90 1.391 . S
C95 C94 1.388 . S
P96 O107 1.490 . S
P96 C110 1.812 . S
P96 C116 1.803 . S
P96 C122 1.819 . S
H97 C111 0.941 . S
H98 C112 0.939 . S
H99 C114 0.940 . S
H100 C115 0.940 . S
H101 C117 0.939 . S
H102 C118 0.942 . S
H103 C120 0.940 . S
H104 C121 0.939 . S
H105 C123 0.941 . S
H106 C127 0.939 . S
O107 P96 1.490 . S
H108 C124 0.939 . S
H109 C126 0.940 . S
C110 P96 1.812 . S
C110 C111 1.389 . S
C110 C115 1.391 . S
C111 H97 0.941 . S
C111 C110 1.389 . S
C111 C112 1.397 . S
C112 H98 0.939 . S
C112 C111 1.397 . S
C112 C113 1.378 . S
C113 C112 1.378 . S
C113 C114 1.378 . S
C114 H99 0.940 . S
C114 C113 1.378 . S
C114 C115 1.396 . S
C115 H100 0.940 . S
C115 C110 1.391 . S
C115 C114 1.396 . S
C116 P96 1.803 . S
C116 C117 1.378 . S
C116 C121 1.400 . S
C117 H101 0.939 . S
C117 C116 1.378 . S
C117 C118 1.361 . S
C118 H102 0.942 . S
C118 C117 1.361 . S
C118 C119 1.369 . S
C119 C118 1.369 . S
C119 C120 1.404 . S
C120 H103 0.940 . S
C120 C119 1.404 . S
C120 C121 1.389 . S
C121 H104 0.939 . S
C121 C116 1.400 . S
C121 C120 1.389 . S
C122 P96 1.819 . S
C122 C123 1.391 . S
C122 C127 1.391 . S
C123 H105 0.941 . S
C123 C122 1.391 . S
C123 C124 1.396 . S
C124 H108 0.939 . S
C124 C123 1.396 . S
C124 C125 1.397 . S
C125 C124 1.397 . S
C125 C126 1.385 . S
C126 H109 0.940 . S
C126 C125 1.385 . S
C126 C127 1.388 . S
C127 H106 0.939 . S
C127 C122 1.391 . S
C127 C126 1.388 . S
C128 C130 1.422 . S
C128 C132 1.415 . S
C128 N134 1.369 . S
C129 C130 1.421 . S
C129 C131 1.417 . S
C129 C141 1.422 . S
C130 C128 1.422 . S
C130 C129 1.421 . S
C130 N140 1.359 . S
C131 C129 1.417 . S
C131 C133 1.329 . S
C131 H150 0.930 . S
C132 C128 1.415 . S
C132 C133 1.437 . S
C132 C136 1.413 . S
C133 C131 1.329 . S
C133 C132 1.437 . S
C133 H155 0.929 . S
N134 C128 1.369 . S
N134 C135 1.338 1_655 S
N134 Gd139 2.622 . S
C135 N134 1.338 1_455 S
C135 C137 1.378 1_455 S
C135 H147 0.929 . S
C136 C132 1.413 . S
C136 C137 1.358 . S
C136 H152 0.931 . S
C137 C135 1.378 1_655 S
C137 C136 1.358 . S
C137 H153 0.919 1_655 S
Gd138 N158 2.622 . S
Gd138 N165 2.570 . S
Gd138 O172 2.353 1_465 S
Gd138 O173 2.468 . S
Gd138 O174 2.427 . S
Gd138 O176 2.388 1_455 S
Gd138 O177 2.386 . S
Gd138 O181 2.307 1_565 S
Gd138 C191 2.805 . S
Gd139 N134 2.622 . S
Gd139 N140 2.570 . S
Gd139 O171 2.386 . S
Gd139 O175 2.307 1_545 S
Gd139 O178 2.353 1_655 S
Gd139 O179 2.468 . S
Gd139 O180 2.427 . S
Gd139 O182 2.388 1_655 S
Gd139 C203 2.805 . S
N140 C130 1.359 . S
N140 Gd139 2.570 . S
N140 C142 1.343 . S
C141 C129 1.422 . S
C141 C143 1.321 . S
C141 H149 0.931 . S
C142 N140 1.343 . S
C142 C143 1.390 . S
C142 H144 0.931 . S
C143 C141 1.321 . S
C143 C142 1.390 . S
C143 H145 0.930 . S
H144 C142 0.931 . S
H145 C143 0.930 . S
H146 C169 0.931 . S
H147 C135 0.929 . S
H148 C170 0.930 . S
H149 C141 0.931 . S
H150 C131 0.930 . S
H151 C160 0.929 1_655 S
H152 C136 0.931 . S
H153 C137 0.919 1_455 S
H154 C192 0.930 . S
H155 C133 0.929 . S
H156 C161 0.931 . S
H157 C162 0.930 1_655 S
N158 Gd138 2.622 . S
N158 C159 1.369 . S
N158 C160 1.338 . S
C159 N158 1.369 . S
C159 C163 1.415 . S
C159 C166 1.422 . S
C160 H151 0.929 1_455 S
C160 N158 1.338 . S
C160 C162 1.378 . S
C161 H156 0.931 . S
C161 C162 1.348 . S
C161 C163 1.413 . S
C162 H157 0.930 1_455 S
C162 C160 1.378 . S
C162 C161 1.348 . S
C163 C159 1.415 . S
C163 C161 1.413 . S
C163 C193 1.437 . S
H164 C193 0.929 . S
N165 Gd138 2.570 . S
N165 C166 1.359 . S
N165 C169 1.343 . S
C166 C159 1.422 . S
C166 N165 1.359 . S
C166 C168 1.421 . S
C167 C168 1.422 . S
C167 C170 1.321 . S
C167 H194 0.931 . S
C168 C166 1.421 . S
C168 C167 1.422 . S
C168 C192 1.417 . S
C169 H146 0.931 . S
C169 N165 1.343 . S
C169 C170 1.390 . S
C170 H148 0.930 . S
C170 C167 1.321 . S
C170 C169 1.390 . S
O171 Gd139 2.386 . S
O171 C183 1.265 . S
O172 Gd138 2.353 1_645 S
O172 C183 1.242 . S
O173 Gd138 2.468 . S
O173 C191 1.263 . S
O174 Gd138 2.427 . S
O174 C191 1.252 . S
O175 Gd139 2.307 1_565 S
O175 C184 1.261 . S
O176 Gd138 2.388 1_655 S
O176 C184 1.252 . S
O177 Gd138 2.386 . S
O177 C195 1.265 . S
O178 Gd139 2.353 1_455 S
O178 C195 1.242 1_545 S
O179 Gd139 2.468 . S
O179 C203 1.263 . S
O180 Gd139 2.427 . S
O180 C203 1.252 . S
O181 Gd138 2.307 1_545 S
O181 C196 1.261 . S
O182 Gd139 2.388 1_455 S
O182 C196 1.252 . S
C183 O171 1.265 . S
C183 O172 1.242 . S
C184 O175 1.261 . S
C184 O176 1.252 . S
C185 C188 1.394 . S
C185 C190 1.370 . S
C185 C191 1.500 . S
C186 C189 1.383 . S
C186 C190 1.395 . S
C187 C188 1.396 . S
C187 C189 1.365 . S
C187 H204 0.929 . S
C188 C185 1.394 . S
C188 C187 1.396 . S
C188 H205 0.930 . S
C189 C186 1.383 . S
C189 C187 1.365 . S
C189 H206 0.931 . S
C190 C185 1.370 . S
C190 C186 1.395 . S
C190 H207 0.930 . S
C191 Gd138 2.805 . S
C191 O173 1.263 . S
C191 O174 1.252 . S
C191 C185 1.500 . S
C192 H154 0.930 . S
C192 C168 1.417 . S
C192 C193 1.329 . S
C193 C163 1.437 . S
C193 H164 0.929 . S
C193 C192 1.329 . S
H194 C167 0.931 . S
C195 O177 1.265 . S
C195 O178 1.242 1_565 S
C196 O181 1.261 . S
C196 O182 1.252 . S
C197 C200 1.394 . S
C197 C202 1.370 . S
C197 C203 1.500 . S
C198 C201 1.383 . S
C198 C202 1.395 . S
C199 C200 1.396 . S
C199 C201 1.365 . S
C199 H208 0.929 . S
C200 C197 1.394 . S
C200 C199 1.396 . S
C200 H209 0.930 . S
C201 C198 1.383 . S
C201 C199 1.365 . S
C201 H210 0.931 . S
C202 C197 1.370 . S
C202 C198 1.395 . S
C202 H211 0.930 . S
C203 Gd139 2.805 . S
C203 O179 1.263 . S
C203 O180 1.252 . S
C203 C197 1.500 . S
H204 C187 0.929 . S
H205 C188 0.930 . S
H206 C189 0.931 . S
H207 C190 0.930 . S
H208 C199 0.929 . S
H209 C200 0.930 . S
H210 C201 0.931 . S
H211 C202 0.930 . S
C212 C214 1.422 . S
C212 C216 1.415 . S
C212 N218 1.369 . S
C213 C214 1.421 . S
C213 C215 1.417 . S
C213 C225 1.422 . S
C214 C212 1.422 . S
C214 C213 1.421 . S
C214 N224 1.359 . S
C215 C213 1.417 . S
C215 C217 1.329 . S
C215 H234 0.930 . S
C216 C212 1.415 . S
C216 C217 1.437 . S
C216 C220 1.413 . S
C217 C215 1.329 . S
C217 C216 1.437 . S
C217 H239 0.929 . S
N218 C212 1.369 . S
N218 C219 1.338 . S
N218 Gd223 2.622 . S
C219 N218 1.338 . S
C219 C221 1.378 . S
C219 H231 0.929 . S
C220 C216 1.413 . S
C220 C221 1.348 . S
C220 H236 0.931 . S
C221 C219 1.378 . S
C221 C220 1.348 . S
C221 H237 0.930 . S
Gd222 N242 2.622 . S
Gd222 N249 2.570 1_556 S
Gd222 O256 2.353 . S
Gd222 O257 2.468 . S
Gd222 O258 2.427 . S
Gd222 O260 2.388 . S
Gd222 O261 2.386 1_556 S
Gd222 O265 2.307 1_556 S
Gd222 C275 2.805 . S
Gd223 N218 2.622 . S
Gd223 N224 2.570 . S
Gd223 O255 2.386 1_554 S
Gd223 O259 2.307 . S
Gd223 O262 2.353 . S
Gd223 O263 2.468 . S
Gd223 O264 2.427 . S
Gd223 O266 2.388 . S
Gd223 C287 2.805 . S
N224 C214 1.359 . S
N224 Gd223 2.570 . S
N224 C226 1.343 . S
C225 C213 1.422 . S
C225 C227 1.321 . S
C225 H233 0.931 . S
C226 N224 1.343 . S
C226 C227 1.390 . S
C226 H228 0.931 . S
C227 C225 1.321 . S
C227 C226 1.390 . S
C227 H229 0.930 . S
H228 C226 0.931 . S
H229 C227 0.930 . S
H230 C253 0.931 . S
H231 C219 0.929 . S
H232 C254 0.930 . S
H233 C225 0.931 . S
H234 C215 0.930 . S
H235 C244 0.929 . S
H236 C220 0.931 . S
H237 C221 0.930 . S
H238 C276 0.930 . S
H239 C217 0.929 . S
H240 C245 0.931 . S
H241 C246 0.930 . S
N242 Gd222 2.622 . S
N242 C243 1.369 1_556 S
N242 C244 1.338 . S
C243 N242 1.369 1_554 S
C243 C247 1.415 . S
C243 C250 1.422 . S
C244 H235 0.929 . S
C244 N242 1.338 . S
C244 C246 1.378 . S
C245 H240 0.931 . S
C245 C246 1.348 1_554 S
C245 C247 1.413 . S
C246 H241 0.930 . S
C246 C244 1.378 . S
C246 C245 1.348 1_556 S
C247 C243 1.415 . S
C247 C245 1.413 . S
C247 C277 1.437 . S
H248 C277 0.929 . S
N249 Gd222 2.570 1_554 S
N249 C250 1.359 . S
N249 C253 1.343 . S
C250 C243 1.422 . S
C250 N249 1.359 . S
C250 C252 1.421 . S
C251 C252 1.422 . S
C251 C254 1.321 . S
C251 H278 0.931 . S
C252 C250 1.421 . S
C252 C251 1.422 . S
C252 C276 1.417 . S
C253 H230 0.931 . S
C253 N249 1.343 . S
C253 C254 1.390 . S
C254 H232 0.930 . S
C254 C251 1.321 . S
C254 C253 1.390 . S
O255 Gd223 2.386 1_556 S
O255 C267 1.265 . S
O256 Gd222 2.353 . S
O256 C267 1.242 . S
O257 Gd222 2.468 . S
O257 C275 1.263 . S
O258 Gd222 2.427 . S
O258 C275 1.252 . S
O259 Gd223 2.307 . S
O259 C268 1.261 . S
O260 Gd222 2.388 . S
O260 C268 1.252 1_556 S
O261 Gd222 2.386 1_554 S
O261 C279 1.265 . S
O262 Gd223 2.353 . S
O262 C279 1.242 . S
O263 Gd223 2.468 . S
O263 C287 1.263 . S
O264 Gd223 2.427 . S
O264 C287 1.252 . S
O265 Gd222 2.307 1_554 S
O265 C280 1.261 . S
O266 Gd223 2.388 . S
O266 C280 1.252 . S
C267 O255 1.265 . S
C267 O256 1.242 . S
C268 O259 1.261 . S
C268 O260 1.252 1_554 S
C269 C272 1.394 . S
C269 C274 1.370 . S
C269 C275 1.500 . S
C270 C273 1.383 . S
C270 C274 1.395 . S
C271 C272 1.396 . S
C271 C273 1.365 . S
C271 H288 0.929 . S
C272 C269 1.394 . S
C272 C271 1.396 . S
C272 H289 0.930 . S
C273 C270 1.383 . S
C273 C271 1.365 . S
C273 H290 0.931 . S
C274 C269 1.370 . S
C274 C270 1.395 . S
C274 H291 0.930 . S
C275 Gd222 2.805 . S
C275 O257 1.263 . S
C275 O258 1.252 . S
C275 C269 1.500 . S
C276 H238 0.930 . S
C276 C252 1.417 . S
C276 C277 1.329 . S
C277 C247 1.437 . S
C277 H248 0.929 . S
C277 C276 1.329 . S
H278 C251 0.931 . S
C279 O261 1.265 . S
C279 O262 1.242 . S
C280 O265 1.261 . S
C280 O266 1.252 . S
C281 C284 1.394 . S
C281 C286 1.370 . S
C281 C287 1.500 . S
C282 C285 1.383 . S
C282 C286 1.395 . S
C283 C284 1.396 . S
C283 C285 1.365 . S
C283 H292 0.929 . S
C284 C281 1.394 . S
C284 C283 1.396 . S
C284 H293 0.930 . S
C285 C282 1.383 . S
C285 C283 1.365 . S
C285 H294 0.931 . S
C286 C281 1.370 . S
C286 C282 1.395 . S
C286 H295 0.930 . S
C287 Gd223 2.805 . S
C287 O263 1.263 . S
C287 O264 1.252 . S
C287 C281 1.500 . S
H288 C271 0.929 . S
H289 C272 0.930 . S
H290 C273 0.931 . S
H291 C274 0.930 . S
H292 C283 0.929 . S
H293 C284 0.930 . S
H294 C285 0.931 . S
H295 C286 0.930 . S
H296 C304 0.929 . S
H297 C306 0.930 . S
H298 C308 0.930 . S
H299 C311 0.929 . S
H300 C314 0.930 . S
H301 C316 0.960 . S
H302 C316 0.960 . S
H303 C316 0.960 . S
C304 H296 0.929 . S
C304 C305 1.377 . S
C304 C306 1.384 . S
C305 C304 1.377 . S
C305 C311 1.390 . S
C306 H297 0.930 . S
C306 C304 1.384 . S
C306 C307 1.372 . S
C307 C306 1.372 . S
C307 C308 1.400 . S
C307 C312 1.490 . S
C308 H298 0.930 . S
C308 C307 1.400 . S
C308 C311 1.386 . S
H309 C325 0.930 . S
H310 C326 0.931 . S
C311 H299 0.929 . S
C311 C305 1.390 . S
C311 C308 1.386 . S
C312 C307 1.490 . S
C312 C314 1.395 . S
C312 C315 1.403 . S
H313 C319 0.930 . S
C314 H300 0.930 . S
C314 C312 1.395 . S
C314 C317 1.403 . S
C315 C312 1.403 . S
C315 C316 1.524 . S
C315 C319 1.400 . S
C316 H301 0.960 . S
C316 H302 0.960 . S
C316 H303 0.960 . S
C316 C315 1.524 . S
C317 C314 1.403 . S
C317 C318 1.392 . S
C317 C321 1.495 . S
C318 C317 1.392 . S
C318 C319 1.385 . S
C318 C320 1.478 . S
C319 H313 0.930 . S
C319 C315 1.400 . S
C319 C318 1.385 . S
C320 C318 1.478 . S
C320 C322 1.381 . S
C320 C326 1.383 . S
C321 C317 1.495 . S
C321 H327 0.959 . S
C321 H328 0.961 . S
C321 H329 0.960 . S
C322 C320 1.381 . S
C322 C323 1.394 . S
C322 H330 0.930 . S
C323 C322 1.394 . S
C323 C324 1.383 . S
C323 H331 0.929 . S
C324 C323 1.383 . S
C324 C325 1.377 . S
C325 H309 0.930 . S
C325 C324 1.377 . S
C325 C326 1.379 . S
C326 H310 0.931 . S
C326 C320 1.383 . S
C326 C325 1.379 . S
H327 C321 0.959 . S
H328 C321 0.961 . S
H329 C321 0.960 . S
H330 C322 0.930 . S
H331 C323 0.929 . S
H332 C340 0.929 . S
H333 C342 0.930 . S
H334 C344 0.930 1_556 S
H335 C347 0.929 1_556 S
H336 C350 0.930 . S
H337 C352 0.960 1_556 S
H338 C352 0.960 . S
H339 C352 0.960 1_556 S
C340 H332 0.929 . S
C340 C341 1.377 . S
C340 C342 1.384 . S
C341 C340 1.377 . S
C341 C347 1.390 . S
C342 H333 0.930 . S
C342 C340 1.384 . S
C342 C343 1.372 . S
C343 C342 1.372 . S
C343 C344 1.400 . S
C343 C348 1.490 . S
C344 H334 0.930 1_554 S
C344 C343 1.400 . S
C344 C347 1.386 . S
H345 C361 0.930 . S
H346 C362 0.935 . S
C347 H335 0.929 1_554 S
C347 C341 1.390 . S
C347 C344 1.386 . S
C348 C343 1.490 . S
C348 C350 1.395 . S
C348 C351 1.403 . S
H349 C355 0.930 . S
C350 H336 0.930 . S
C350 C348 1.395 . S
C350 C353 1.403 . S
C351 C348 1.403 . S
C351 C352 1.524 . S
C351 C355 1.400 . S
C352 H337 0.960 1_554 S
C352 H338 0.960 . S
C352 H339 0.960 1_554 S
C352 C351 1.524 . S
C353 C350 1.403 . S
C353 C354 1.392 . S
C353 C357 1.495 . S
C354 C353 1.392 . S
C354 C355 1.385 . S
C354 C356 1.478 . S
C355 H349 0.930 . S
C355 C351 1.400 . S
C355 C354 1.385 . S
C356 C354 1.478 . S
C356 C358 1.381 . S
C356 C362 1.377 1_554 S
C357 C353 1.495 . S
C357 H363 0.959 . S
C357 H364 0.961 . S
C357 H365 0.960 . S
C358 C356 1.381 . S
C358 C359 1.394 . S
C358 H366 0.930 . S
C359 C358 1.394 . S
C359 C360 1.383 . S
C359 H367 0.929 . S
C360 C359 1.383 . S
C360 C361 1.377 1_554 S
C361 H345 0.930 . S
C361 C360 1.377 1_556 S
C361 C362 1.381 . S
C362 H346 0.935 . S
C362 C356 1.377 1_556 S
C362 C361 1.381 . S
H363 C357 0.959 . S
H364 C357 0.961 . S
H365 C357 0.960 . S
H366 C358 0.930 . S
H367 C359 0.929 . S
H368 C376 0.929 . S
H369 C378 0.930 . S
H370 C380 0.930 . S
H371 C383 0.929 . S
H372 C386 0.930 . S
H373 C388 0.960 . S
H374 C388 0.960 . S
H375 C388 0.960 . S
C376 H368 0.929 . S
C376 C377 1.377 . S
C376 C378 1.384 . S
C377 C376 1.377 . S
C377 C383 1.390 . S
C378 H369 0.930 . S
C378 C376 1.384 . S
C378 C379 1.372 . S
C379 C378 1.372 . S
C379 C380 1.400 . S
C379 C384 1.490 . S
C380 H370 0.930 . S
C380 C379 1.400 . S
C380 C383 1.386 . S
H381 C397 0.930 . S
H382 C398 0.931 . S
C383 H371 0.929 . S
C383 C377 1.390 . S
C383 C380 1.386 . S
C384 C379 1.490 . S
C384 C386 1.395 . S
C384 C387 1.403 . S
H385 C391 0.930 . S
C386 H372 0.930 . S
C386 C384 1.395 . S
C386 C389 1.403 . S
C387 C384 1.403 . S
C387 C388 1.524 . S
C387 C391 1.400 . S
C388 H373 0.960 . S
C388 H374 0.960 . S
C388 H375 0.960 . S
C388 C387 1.524 . S
C389 C386 1.403 . S
C389 C390 1.392 . S
C389 C393 1.495 . S
C390 C389 1.392 . S
C390 C391 1.385 . S
C390 C392 1.478 . S
C391 H385 0.930 . S
C391 C387 1.400 . S
C391 C390 1.385 . S
C392 C390 1.478 . S
C392 C394 1.381 . S
C392 C398 1.383 . S
C393 C389 1.495 . S
C393 H399 0.959 . S
C393 H400 0.961 . S
C393 H401 0.960 . S
C394 C392 1.381 . S
C394 C395 1.394 . S
C394 H402 0.930 . S
C395 C394 1.394 . S
C395 C396 1.383 . S
C395 H403 0.929 . S
C396 C395 1.383 . S
C396 C397 1.377 . S
C397 H381 0.930 . S
C397 C396 1.377 . S
C397 C398 1.379 . S
C398 H382 0.931 . S
C398 C392 1.383 . S
C398 C397 1.379 . S
H399 C393 0.959 . S
H400 C393 0.961 . S
H401 C393 0.960 . S
H402 C394 0.930 . S
H403 C395 0.929 . S
H404 C412 0.929 . S
H405 C414 0.930 . S
H406 C416 0.930 . S
H407 C419 0.929 . S
H408 C422 0.930 . S
H409 C424 0.960 . S
H410 C424 0.960 1_556 S
H411 C424 0.960 . S
C412 H404 0.929 . S
C412 C413 1.377 1_556 S
C412 C414 1.384 . S
C413 C412 1.377 1_554 S
C413 C419 1.390 . S
C414 H405 0.930 . S
C414 C412 1.384 . S
C414 C415 1.372 1_556 S
C415 C414 1.372 1_554 S
C415 C416 1.400 . S
C415 C420 1.490 . S
C416 H406 0.930 . S
C416 C415 1.400 . S
C416 C419 1.386 . S
H417 C433 0.930 . S
H418 C434 0.931 . S
C419 H407 0.929 . S
C419 C413 1.390 . S
C419 C416 1.386 . S
C420 C415 1.490 . S
C420 C422 1.395 . S
C420 C423 1.403 . S
H421 C427 0.930 . S
C422 H408 0.930 . S
C422 C420 1.395 . S
C422 C425 1.403 . S
C423 C420 1.403 . S
C423 C424 1.524 . S
C423 C427 1.400 . S
C424 H409 0.960 . S
C424 H410 0.960 1_554 S
C424 H411 0.960 . S
C424 C423 1.524 . S
C425 C422 1.403 . S
C425 C426 1.392 . S
C425 C429 1.495 . S
C426 C425 1.392 . S
C426 C427 1.385 . S
C426 C428 1.478 . S
C427 H421 0.930 . S
C427 C423 1.400 . S
C427 C426 1.385 . S
C428 C426 1.478 . S
C428 C430 1.381 1_554 S
C428 C434 1.383 . S
C429 C425 1.495 . S
C429 H435 0.959 . S
C429 H436 0.961 . S
C429 H437 0.960 . S
C430 C428 1.381 1_556 S
C430 C431 1.394 . S
C430 H438 0.930 . S
C431 C430 1.394 . S
C431 C432 1.383 1_556 S
C431 H439 0.929 . S
C432 C431 1.383 1_554 S
C432 C433 1.377 . S
C433 H417 0.930 . S
C433 C432 1.377 . S
C433 C434 1.379 . S
C434 H418 0.931 . S
C434 C428 1.383 . S
C434 C433 1.379 . S
H435 C429 0.959 . S
H436 C429 0.961 . S
H437 C429 0.960 . S
H438 C430 0.930 . S
H439 C431 0.929 . S
H440 C448 0.929 . S
H441 C450 0.930 . S
H442 C452 0.930 . S
H443 C455 0.929 . S
H444 C458 0.930 . S
H445 C460 0.960 . S
H446 C460 0.960 . S
H447 C460 0.960 . S
C448 H440 0.929 . S
C448 C449 1.377 . S
C448 C450 1.384 . S
C449 C448 1.377 . S
C449 C455 1.390 . S
C450 H441 0.930 . S
C450 C448 1.384 . S
C450 C451 1.372 . S
C451 C450 1.372 . S
C451 C452 1.400 . S
C451 C456 1.490 . S
C452 H442 0.930 . S
C452 C451 1.400 . S
C452 C455 1.386 . S
H453 C469 0.930 . S
H454 C470 0.931 . S
C455 H443 0.929 . S
C455 C449 1.390 . S
C455 C452 1.386 . S
C456 C451 1.490 . S
C456 C458 1.395 . S
C456 C459 1.403 . S
H457 C463 0.930 . S
C458 H444 0.930 . S
C458 C456 1.395 . S
C458 C461 1.403 . S
C459 C456 1.403 . S
C459 C460 1.524 . S
C459 C463 1.400 . S
C460 H445 0.960 . S
C460 H446 0.960 . S
C460 H447 0.960 . S
C460 C459 1.524 . S
C461 C458 1.403 . S
C461 C462 1.392 . S
C461 C465 1.495 . S
C462 C461 1.392 . S
C462 C463 1.385 . S
C462 C464 1.478 . S
C463 H457 0.930 . S
C463 C459 1.400 . S
C463 C462 1.385 . S
C464 C462 1.478 . S
C464 C466 1.381 . S
C464 C470 1.383 . S
C465 C461 1.495 . S
C465 H471 0.959 1_565 S
C465 H472 0.961 1_565 S
C465 H473 0.960 . S
C466 C464 1.381 . S
C466 C467 1.394 . S
C466 H474 0.930 . S
C467 C466 1.394 . S
C467 C468 1.383 . S
C467 H475 0.929 . S
C468 C467 1.383 . S
C468 C469 1.377 . S
C469 H453 0.930 . S
C469 C468 1.377 . S
C469 C470 1.379 . S
C470 H454 0.931 . S
C470 C464 1.383 . S
C470 C469 1.379 . S
H471 C465 0.959 1_545 S
H472 C465 0.961 1_545 S
H473 C465 0.960 . S
H474 C466 0.930 . S
H475 C467 0.929 . S
H476 C484 0.929 . S
H477 C486 0.930 . S
H478 C488 0.930 . S
H479 C491 0.929 . S
H480 C494 0.930 . S
H481 C496 0.960 . S
H482 C496 0.960 . S
H483 C496 0.960 . S
C484 H476 0.929 . S
C484 C485 1.377 . S
C484 C486 1.384 . S
C485 C484 1.377 . S
C485 C491 1.390 . S
C486 H477 0.930 . S
C486 C484 1.384 . S
C486 C487 1.372 . S
C487 C486 1.372 . S
C487 C488 1.400 . S
C487 C492 1.490 . S
C488 H478 0.930 . S
C488 C487 1.400 . S
C488 C491 1.386 . S
H489 C505 0.930 . S
H490 C506 0.931 . S
C491 H479 0.929 . S
C491 C485 1.390 . S
C491 C488 1.386 . S
C492 C487 1.490 . S
C492 C494 1.395 . S
C492 C495 1.403 . S
H493 C499 0.930 . S
C494 H480 0.930 . S
C494 C492 1.395 . S
C494 C497 1.403 . S
C495 C492 1.403 . S
C495 C496 1.524 . S
C495 C499 1.400 . S
C496 H481 0.960 . S
C496 H482 0.960 . S
C496 H483 0.960 . S
C496 C495 1.524 . S
C497 C494 1.403 . S
C497 C498 1.392 . S
C497 C501 1.495 . S
C498 C497 1.392 . S
C498 C499 1.385 . S
C498 C500 1.478 . S
C499 H493 0.930 . S
C499 C495 1.400 . S
C499 C498 1.385 . S
C500 C498 1.478 . S
C500 C502 1.381 . S
C500 C506 1.383 . S
C501 C497 1.495 . S
C501 H507 0.959 . S
C501 H508 0.961 . S
C501 H509 0.960 . S
C502 C500 1.381 . S
C502 C503 1.394 . S
C502 H510 0.930 . S
C503 C502 1.394 . S
C503 C504 1.383 . S
C503 H511 0.929 . S
C504 C503 1.383 . S
C504 C505 1.377 . S
C505 H489 0.930 . S
C505 C504 1.377 . S
C505 C506 1.379 . S
C506 H490 0.931 . S
C506 C500 1.383 . S
C506 C505 1.379 . S
H507 C501 0.959 . S
H508 C501 0.961 . S
H509 C501 0.960 . S
H510 C502 0.930 . S
H511 C503 0.929 . S
H512 C520 0.929 . S
H513 C522 0.930 . S
H514 C524 0.930 . S
H515 C527 0.929 . S
H516 C530 0.930 . S
H517 C532 0.960 . S
H518 C532 0.960 . S
H519 C532 0.960 . S
C520 H512 0.929 . S
C520 C521 1.377 . S
C520 C522 1.384 . S
C521 C520 1.377 . S
C521 C527 1.390 . S
C522 H513 0.930 . S
C522 C520 1.384 . S
C522 C523 1.372 . S
C523 C522 1.372 . S
C523 C524 1.400 . S
C523 C528 1.490 . S
C524 H514 0.930 . S
C524 C523 1.400 . S
C524 C527 1.386 . S
H525 C541 0.930 1_565 S
H526 C542 0.931 . S
C527 H515 0.929 . S
C527 C521 1.390 . S
C527 C524 1.386 . S
C528 C523 1.490 . S
C528 C530 1.395 . S
C528 C531 1.403 . S
H529 C535 0.930 . S
C530 H516 0.930 . S
C530 C528 1.395 . S
C530 C533 1.403 . S
C531 C528 1.403 . S
C531 C532 1.524 . S
C531 C535 1.400 . S
C532 H517 0.960 . S
C532 H518 0.960 . S
C532 H519 0.960 . S
C532 C531 1.524 . S
C533 C530 1.403 . S
C533 C534 1.392 . S
C533 C537 1.495 . S
C534 C533 1.392 . S
C534 C535 1.385 . S
C534 C536 1.478 . S
C535 H529 0.930 . S
C535 C531 1.400 . S
C535 C534 1.385 . S
C536 C534 1.478 . S
C536 C538 1.381 . S
C536 C542 1.383 . S
C537 C533 1.495 . S
C537 H543 0.959 . S
C537 H544 0.961 . S
C537 H545 0.960 . S
C538 C536 1.381 . S
C538 C539 1.394 . S
C538 H546 0.930 . S
C539 C538 1.394 . S
C539 C540 1.383 . S
C539 H547 0.929 . S
C540 C539 1.383 . S
C540 C541 1.377 . S
C541 H525 0.930 1_545 S
C541 C540 1.377 . S
C541 C542 1.379 . S
C542 H526 0.931 . S
C542 C536 1.383 . S
C542 C541 1.379 . S
H543 C537 0.959 . S
H544 C537 0.961 . S
H545 C537 0.960 . S
H546 C538 0.930 . S
H547 C539 0.929 . S
H548 C556 0.929 . S
H549 C558 0.930 . S
H550 C560 0.930 . S
H551 C563 0.929 . S
H552 C566 0.930 . S
H553 C568 0.960 . S
H554 C568 0.960 . S
H555 C568 0.960 . S
C556 H548 0.929 . S
C556 C557 1.377 . S
C556 C558 1.384 . S
C557 C556 1.377 . S
C557 C563 1.390 . S
C558 H549 0.930 . S
C558 C556 1.384 . S
C558 C559 1.372 . S
C559 C558 1.372 . S
C559 C560 1.400 . S
C559 C564 1.490 . S
C560 H550 0.930 . S
C560 C559 1.400 . S
C560 C563 1.386 . S
H561 C577 0.930 . S
H562 C578 0.931 . S
C563 H551 0.929 . S
C563 C557 1.390 . S
C563 C560 1.386 . S
C564 C559 1.490 . S
C564 C566 1.395 . S
C564 C567 1.403 . S
H565 C571 0.930 . S
C566 H552 0.930 . S
C566 C564 1.395 . S
C566 C569 1.403 . S
C567 C564 1.403 . S
C567 C568 1.524 . S
C567 C571 1.400 . S
C568 H553 0.960 . S
C568 H554 0.960 . S
C568 H555 0.960 . S
C568 C567 1.524 . S
C569 C566 1.403 . S
C569 C570 1.392 . S
C569 C573 1.495 . S
C570 C569 1.392 . S
C570 C571 1.385 . S
C570 C572 1.478 . S
C571 H565 0.930 . S
C571 C567 1.400 . S
C571 C570 1.385 . S
C572 C570 1.478 . S
C572 C574 1.381 . S
C572 C578 1.383 . S
C573 C569 1.495 . S
C573 H579 0.959 . S
C573 H580 0.961 . S
C573 H581 0.960 . S
C574 C572 1.381 . S
C574 C575 1.394 . S
C574 H582 0.930 . S
C575 C574 1.394 . S
C575 C576 1.383 . S
C575 H583 0.929 . S
C576 C575 1.383 . S
C576 C577 1.377 . S
C577 H561 0.930 . S
C577 C576 1.377 . S
C577 C578 1.379 . S
C578 H562 0.931 . S
C578 C572 1.383 . S
C578 C577 1.379 . S
H579 C573 0.959 . S
H580 C573 0.961 . S
H581 C573 0.960 . S
H582 C574 0.930 . S
H583 C575 0.929 . S
H584 C592 0.929 . S
H585 C594 0.930 . S
H586 C596 0.930 . S
H587 C599 0.929 . S
H588 C602 0.930 . S
H589 C604 0.960 . S
H590 C604 0.960 . S
H591 C604 0.960 . S
C592 H584 0.929 . S
C592 C593 1.377 . S
C592 C594 1.384 . S
C593 C592 1.377 . S
C593 C599 1.390 . S
C594 H585 0.930 . S
C594 C592 1.384 . S
C594 C595 1.372 . S
C595 C594 1.372 . S
C595 C596 1.400 . S
C595 C600 1.490 . S
C596 H586 0.930 . S
C596 C595 1.400 . S
C596 C599 1.386 . S
H597 C613 0.930 . S
H598 C614 0.931 . S
C599 H587 0.929 . S
C599 C593 1.390 . S
C599 C596 1.386 . S
C600 C595 1.490 . S
C600 C602 1.395 . S
C600 C603 1.403 . S
H601 C607 0.930 . S
C602 H588 0.930 . S
C602 C600 1.395 . S
C602 C605 1.403 . S
C603 C600 1.403 . S
C603 C604 1.524 . S
C603 C607 1.400 . S
C604 H589 0.960 . S
C604 H590 0.960 . S
C604 H591 0.960 . S
C604 C603 1.524 . S
C605 C602 1.403 . S
C605 C606 1.392 . S
C605 C609 1.495 . S
C606 C605 1.392 . S
C606 C607 1.385 . S
C606 C608 1.478 . S
C607 H601 0.930 . S
C607 C603 1.400 . S
C607 C606 1.385 . S
C608 C606 1.478 . S
C608 C610 1.381 . S
C608 C614 1.383 . S
C609 C605 1.495 . S
C609 H615 0.959 . S
C609 H616 0.961 . S
C609 H617 0.960 . S
C610 C608 1.381 . S
C610 C611 1.394 . S
C610 H618 0.930 . S
C611 C610 1.394 . S
C611 C612 1.383 . S
C611 H619 0.929 . S
C612 C611 1.383 . S
C612 C613 1.377 . S
C613 H597 0.930 . S
C613 C612 1.377 . S
C613 C614 1.379 . S
C614 H598 0.931 . S
C614 C608 1.383 . S
C614 C613 1.379 . S
H615 C609 0.959 . S
H616 C609 0.961 . S
H617 C609 0.960 . S
H618 C610 0.930 . S
H619 C611 0.929 . S
H620 C628 0.929 . S
H621 C630 0.930 . S
H622 C632 0.930 . S
H623 C635 0.929 . S
H624 C638 0.930 . S
H625 C640 0.960 . S
H626 C640 0.960 . S
H627 C640 0.960 . S
C628 H620 0.929 . S
C628 C629 1.377 . S
C628 C630 1.384 . S
C629 C628 1.377 . S
C629 C635 1.390 . S
C630 H621 0.930 . S
C630 C628 1.384 . S
C630 C631 1.372 . S
C631 C630 1.372 . S
C631 C632 1.400 . S
C631 C636 1.490 . S
C632 H622 0.930 . S
C632 C631 1.400 . S
C632 C635 1.386 . S
H633 C649 0.930 . S
H634 C650 0.931 . S
C635 H623 0.929 . S
C635 C629 1.390 . S
C635 C632 1.386 . S
C636 C631 1.490 . S
C636 C638 1.395 . S
C636 C639 1.403 . S
H637 C643 0.930 . S
C638 H624 0.930 . S
C638 C636 1.395 . S
C638 C641 1.403 . S
C639 C636 1.403 . S
C639 C640 1.524 . S
C639 C643 1.400 . S
C640 H625 0.960 . S
C640 H626 0.960 . S
C640 H627 0.960 . S
C640 C639 1.524 . S
C641 C638 1.403 . S
C641 C642 1.392 . S
C641 C645 1.495 . S
C642 C641 1.392 . S
C642 C643 1.385 . S
C642 C644 1.478 . S
C643 H637 0.930 . S
C643 C639 1.400 . S
C643 C642 1.385 . S
C644 C642 1.478 . S
C644 C646 1.381 . S
C644 C650 1.383 . S
C645 C641 1.495 . S
C645 H651 0.959 . S
C645 H652 0.961 . S
C645 H653 0.960 . S
C646 C644 1.381 . S
C646 C647 1.394 . S
C646 H654 0.930 . S
C647 C646 1.394 . S
C647 C648 1.383 . S
C647 H655 0.929 . S
C648 C647 1.383 . S
C648 C649 1.377 . S
C649 H633 0.930 . S
C649 C648 1.377 . S
C649 C650 1.379 . S
C650 H634 0.931 . S
C650 C644 1.383 . S
C650 C649 1.379 . S
H651 C645 0.959 . S
H652 C645 0.961 . S
H653 C645 0.960 . S
H654 C646 0.930 . S
H655 C647 0.929 . S
H656 C664 0.929 . S
H657 C666 0.930 . S
H658 C668 0.930 . S
H659 C671 0.929 . S
H660 C674 0.930 . S
H661 C676 0.960 . S
H662 C676 0.960 . S
H663 C676 0.960 . S
C664 H656 0.929 . S
C664 C665 1.377 . S
C664 C666 1.384 . S
C665 C664 1.377 . S
C665 C671 1.390 . S
C666 H657 0.930 . S
C666 C664 1.384 . S
C666 C667 1.372 . S
C667 C666 1.372 . S
C667 C668 1.400 . S
C667 C672 1.490 . S
C668 H658 0.930 . S
C668 C667 1.400 . S
C668 C671 1.386 . S
H669 C685 0.930 . S
H670 C686 0.931 . S
C671 H659 0.929 . S
C671 C665 1.390 . S
C671 C668 1.386 . S
C672 C667 1.490 . S
C672 C674 1.395 . S
C672 C675 1.403 . S
H673 C679 0.930 . S
C674 H660 0.930 . S
C674 C672 1.395 . S
C674 C677 1.403 . S
C675 C672 1.403 . S
C675 C676 1.524 . S
C675 C679 1.400 . S
C676 H661 0.960 . S
C676 H662 0.960 . S
C676 H663 0.960 . S
C676 C675 1.524 . S
C677 C674 1.403 . S
C677 C678 1.392 . S
C677 C681 1.495 . S
C678 C677 1.392 . S
C678 C679 1.385 . S
C678 C680 1.478 . S
C679 H673 0.930 . S
C679 C675 1.400 . S
C679 C678 1.385 . S
C680 C678 1.478 . S
C680 C682 1.381 . S
C680 C686 1.383 . S
C681 C677 1.495 . S
C681 H687 0.959 . S
C681 H688 0.961 . S
C681 H689 0.960 . S
C682 C680 1.381 . S
C682 C683 1.394 . S
C682 H690 0.930 . S
C683 C682 1.394 . S
C683 C684 1.383 . S
C683 H691 0.929 . S
C684 C683 1.383 . S
C684 C685 1.377 . S
C685 H669 0.930 . S
C685 C684 1.377 . S
C685 C686 1.379 . S
C686 H670 0.931 . S
C686 C680 1.383 . S
C686 C685 1.379 . S
H687 C681 0.959 . S
H688 C681 0.961 . S
H689 C681 0.960 . S
H690 C682 0.930 . S
H691 C683 0.929 . S
H692 C700 0.929 . S
H693 C702 0.930 . S
H694 C704 0.930 . S
H695 C707 0.929 . S
H696 C710 0.930 . S
H697 C712 0.960 . S
H698 C712 0.960 . S
H699 C712 0.960 . S
C700 H692 0.929 . S
C700 C701 1.377 . S
C700 C702 1.384 . S
C701 C700 1.377 . S
C701 C707 1.390 . S
C702 H693 0.930 . S
C702 C700 1.384 . S
C702 C703 1.372 . S
C703 C702 1.372 . S
C703 C704 1.400 . S
C703 C708 1.490 . S
C704 H694 0.930 . S
C704 C703 1.400 . S
C704 C707 1.386 . S
H705 C721 0.930 . S
H706 C722 0.931 . S
C707 H695 0.929 . S
C707 C701 1.390 . S
C707 C704 1.386 . S
C708 C703 1.490 . S
C708 C710 1.395 . S
C708 C711 1.403 . S
H709 C715 0.930 . S
C710 H696 0.930 . S
C710 C708 1.395 . S
C710 C713 1.403 . S
C711 C708 1.403 . S
C711 C712 1.524 . S
C711 C715 1.400 . S
C712 H697 0.960 . S
C712 H698 0.960 . S
C712 H699 0.960 . S
C712 C711 1.524 . S
C713 C710 1.403 . S
C713 C714 1.392 . S
C713 C717 1.495 . S
C714 C713 1.392 . S
C714 C715 1.385 . S
C714 C716 1.478 . S
C715 H709 0.930 . S
C715 C711 1.400 . S
C715 C714 1.385 . S
C716 C714 1.478 . S
C716 C718 1.381 . S
C716 C722 1.383 . S
C717 C713 1.495 . S
C717 H723 0.959 . S
C717 H724 0.961 . S
C717 H725 0.960 . S
C718 C716 1.381 . S
C718 C719 1.394 . S
C718 H726 0.930 1_565 S
C719 C718 1.394 . S
C719 C720 1.383 . S
C719 H727 0.929 1_565 S
C720 C719 1.383 . S
C720 C721 1.377 . S
C721 H705 0.930 . S
C721 C720 1.377 . S
C721 C722 1.379 . S
C722 H706 0.931 . S
C722 C716 1.383 . S
C722 C721 1.379 . S
H723 C717 0.959 . S
H724 C717 0.961 . S
H725 C717 0.960 . S
H726 C718 0.930 1_545 S
H727 C719 0.929 1_545 S
C324 C196 1.608 . S
C305 C119 1.617 . S
C341 C23 1.603 . S
C360 C268 1.589 . S
C377 C55 1.566 . S
C396 C184 1.594 . S
C413 C87 1.537 . S
C432 C280 1.579 . S
C468 C186 1.434 . S
C449 C17 1.547 . S
C504 C267 1.604 . S
C485 C61 1.537 . S
C521 C93 1.495 . S
C540 C183 1.585 . S
C557 C113 1.530 . S
C576 C270 1.424 . S
C612 C282 1.403 . S
C593 C49 1.505 . S
C648 C198 1.382 . S
C629 C81 1.505 . S
C684 C279 1.604 . S
C665 C125 1.594 . S
C701 C29 1.578 . S
C720 C195 1.585 . S
