# Generated by pormake.
# Topology eea, (3,6)-cn, num edge types: 1
# Building blocks:
#     Node 0, Type 0, BuildingBlock: BETDAH_clean_linker_0, # of connection points: 3
#     Node 1, Type 0, BuildingBlock: BETDAH_clean_linker_0, # of connection points: 3
#     Node 2, Type 0, BuildingBlock: BETDAH_clean_linker_0, # of connection points: 3
#     Node 3, Type 0, BuildingBlock: BETDAH_clean_linker_0, # of connection points: 3
#     Node 4, Type 0, BuildingBlock: BETDAH_clean_linker_0, # of connection points: 3
#     Node 5, Type 0, BuildingBlock: BETDAH_clean_linker_0, # of connection points: 3
#     Node 6, Type 0, BuildingBlock: BETDAH_clean_linker_0, # of connection points: 3
#     Node 7, Type 0, BuildingBlock: BETDAH_clean_linker_0, # of connection points: 3
#     Node 8, Type 0, BuildingBlock: BETDAH_clean_linker_0, # of connection points: 3
#     Node 9, Type 0, BuildingBlock: BETDAH_clean_linker_0, # of connection points: 3
#     Node 10, Type 0, BuildingBlock: BETDAH_clean_linker_0, # of connection points: 3
#     Node 11, Type 0, BuildingBlock: BETDAH_clean_linker_0, # of connection points: 3
#     Node 12, Type 0, BuildingBlock: BETDAH_clean_linker_0, # of connection points: 3
#     Node 13, Type 0, BuildingBlock: BETDAH_clean_linker_0, # of connection points: 3
#     Node 14, Type 0, BuildingBlock: BETDAH_clean_linker_0, # of connection points: 3
#     Node 15, Type 0, BuildingBlock: BETDAH_clean_linker_0, # of connection points: 3
#     Node 16, Type 0, BuildingBlock: BETDAH_clean_linker_0, # of connection points: 3
#     Node 17, Type 0, BuildingBlock: BETDAH_clean_linker_0, # of connection points: 3
#     Node 18, Type 1, BuildingBlock: NUHQIS_clean_sbu_0, # of connection points: 6
#     Node 19, Type 1, BuildingBlock: NUHQIS_clean_sbu_0, # of connection points: 6
#     Node 20, Type 1, BuildingBlock: NUHQIS_clean_sbu_0, # of connection points: 6
#     Node 21, Type 1, BuildingBlock: NUHQIS_clean_sbu_0, # of connection points: 6
#     Node 22, Type 1, BuildingBlock: NUHQIS_clean_sbu_0, # of connection points: 6
#     Node 23, Type 1, BuildingBlock: NUHQIS_clean_sbu_0, # of connection points: 6
#     Node 24, Type 1, BuildingBlock: NUHQIS_clean_sbu_0, # of connection points: 6
#     Node 25, Type 1, BuildingBlock: NUHQIS_clean_sbu_0, # of connection points: 6
#     Node 26, Type 1, BuildingBlock: NUHQIS_clean_sbu_0, # of connection points: 6
#     Edge 27, Type (0, 1), BuildingBlock: EZIPEK_clean_linker_0, # of connection points: 2
#     Edge 28, Type (0, 1), BuildingBlock: EZIPEK_clean_linker_0, # of connection points: 2
#     Edge 29, Type (0, 1), BuildingBlock: EZIPEK_clean_linker_0, # of connection points: 2
#     Edge 30, Type (0, 1), BuildingBlock: EZIPEK_clean_linker_0, # of connection points: 2
#     Edge 31, Type (0, 1), BuildingBlock: EZIPEK_clean_linker_0, # of connection points: 2
#     Edge 32, Type (0, 1), BuildingBlock: EZIPEK_clean_linker_0, # of connection points: 2
#     Edge 33, Type (0, 1), BuildingBlock: EZIPEK_clean_linker_0, # of connection points: 2
#     Edge 34, Type (0, 1), BuildingBlock: EZIPEK_clean_linker_0, # of connection points: 2
#     Edge 35, Type (0, 1), BuildingBlock: EZIPEK_clean_linker_0, # of connection points: 2
#     Edge 36, Type (0, 1), BuildingBlock: EZIPEK_clean_linker_0, # of connection points: 2
#     Edge 37, Type (0, 1), BuildingBlock: EZIPEK_clean_linker_0, # of connection points: 2
#     Edge 38, Type (0, 1), BuildingBlock: EZIPEK_clean_linker_0, # of connection points: 2
#     Edge 39, Type (0, 1), BuildingBlock: EZIPEK_clean_linker_0, # of connection points: 2
#     Edge 40, Type (0, 1), BuildingBlock: EZIPEK_clean_linker_0, # of connection points: 2
#     Edge 41, Type (0, 1), BuildingBlock: EZIPEK_clean_linker_0, # of connection points: 2
#     Edge 42, Type (0, 1), BuildingBlock: EZIPEK_clean_linker_0, # of connection points: 2
#     Edge 43, Type (0, 1), BuildingBlock: EZIPEK_clean_linker_0, # of connection points: 2
#     Edge 44, Type (0, 1), BuildingBlock: EZIPEK_clean_linker_0, # of connection points: 2
#     Edge 45, Type (0, 1), BuildingBlock: EZIPEK_clean_linker_0, # of connection points: 2
#     Edge 46, Type (0, 1), BuildingBlock: EZIPEK_clean_linker_0, # of connection points: 2
#     Edge 47, Type (0, 1), BuildingBlock: EZIPEK_clean_linker_0, # of connection points: 2
#     Edge 48, Type (0, 1), BuildingBlock: EZIPEK_clean_linker_0, # of connection points: 2
#     Edge 49, Type (0, 1), BuildingBlock: EZIPEK_clean_linker_0, # of connection points: 2
#     Edge 50, Type (0, 1), BuildingBlock: EZIPEK_clean_linker_0, # of connection points: 2
#     Edge 51, Type (0, 1), BuildingBlock: EZIPEK_clean_linker_0, # of connection points: 2
#     Edge 52, Type (0, 1), BuildingBlock: EZIPEK_clean_linker_0, # of connection points: 2
#     Edge 53, Type (0, 1), BuildingBlock: EZIPEK_clean_linker_0, # of connection points: 2
#     Edge 54, Type (0, 1), BuildingBlock: EZIPEK_clean_linker_0, # of connection points: 2
#     Edge 55, Type (0, 1), BuildingBlock: EZIPEK_clean_linker_0, # of connection points: 2
#     Edge 56, Type (0, 1), BuildingBlock: EZIPEK_clean_linker_0, # of connection points: 2
#     Edge 57, Type (0, 1), BuildingBlock: EZIPEK_clean_linker_0, # of connection points: 2
#     Edge 58, Type (0, 1), BuildingBlock: EZIPEK_clean_linker_0, # of connection points: 2
#     Edge 59, Type (0, 1), BuildingBlock: EZIPEK_clean_linker_0, # of connection points: 2
#     Edge 60, Type (0, 1), BuildingBlock: EZIPEK_clean_linker_0, # of connection points: 2
#     Edge 61, Type (0, 1), BuildingBlock: EZIPEK_clean_linker_0, # of connection points: 2
#     Edge 62, Type (0, 1), BuildingBlock: EZIPEK_clean_linker_0, # of connection points: 2
#     Edge 63, Type (0, 1), BuildingBlock: EZIPEK_clean_linker_0, # of connection points: 2
#     Edge 64, Type (0, 1), BuildingBlock: EZIPEK_clean_linker_0, # of connection points: 2
#     Edge 65, Type (0, 1), BuildingBlock: EZIPEK_clean_linker_0, # of connection points: 2
#     Edge 66, Type (0, 1), BuildingBlock: EZIPEK_clean_linker_0, # of connection points: 2
#     Edge 67, Type (0, 1), BuildingBlock: EZIPEK_clean_linker_0, # of connection points: 2
#     Edge 68, Type (0, 1), BuildingBlock: EZIPEK_clean_linker_0, # of connection points: 2
#     Edge 69, Type (0, 1), BuildingBlock: EZIPEK_clean_linker_0, # of connection points: 2
#     Edge 70, Type (0, 1), BuildingBlock: EZIPEK_clean_linker_0, # of connection points: 2
#     Edge 71, Type (0, 1), BuildingBlock: EZIPEK_clean_linker_0, # of connection points: 2
#     Edge 72, Type (0, 1), BuildingBlock: EZIPEK_clean_linker_0, # of connection points: 2
#     Edge 73, Type (0, 1), BuildingBlock: EZIPEK_clean_linker_0, # of connection points: 2
#     Edge 74, Type (0, 1), BuildingBlock: EZIPEK_clean_linker_0, # of connection points: 2
#     Edge 75, Type (0, 1), BuildingBlock: EZIPEK_clean_linker_0, # of connection points: 2
#     Edge 76, Type (0, 1), BuildingBlock: EZIPEK_clean_linker_0, # of connection points: 2
#     Edge 77, Type (0, 1), BuildingBlock: EZIPEK_clean_linker_0, # of connection points: 2
#     Edge 78, Type (0, 1), BuildingBlock: EZIPEK_clean_linker_0, # of connection points: 2
#     Edge 79, Type (0, 1), BuildingBlock: EZIPEK_clean_linker_0, # of connection points: 2
#     Edge 80, Type (0, 1), BuildingBlock: EZIPEK_clean_linker_0, # of connection points: 2
# Relax obj value: 0.059
# Max RMSD: 0.225
# Mean RMSD: 0.161
data_MOF--net-eea--node1-NUHQIS_clean_sbu_0--node2-BETDAH_clean_linker_0--edge1-EZIPEK_clean_linker_0
_symmetry_space_group_name_H-M    P1
_symmetry_Int_Tables_number       1
_symmetry_cell_setting            triclinic
loop_
_symmetry_equiv_pos_as_xyz
'x, y, z'
_cell_length_a     39.568465
_cell_length_b     39.837305
_cell_length_c     54.711823
_cell_angle_alpha  93.326506
_cell_angle_beta   93.206612
_cell_angle_gamma 119.83401
loop_
_atom_site_label
_atom_site_type_symbol
_atom_site_fract_x
_atom_site_fract_y
_atom_site_fract_z
_atom_type_partial_charge
H0 H 0.26333 0.05739 0.42888 0.0
H1 H 0.30529 0.17844 0.44926 0.0
H2 H 0.25234 0.12824 0.37585 0.0
C3 C 0.26708 0.08508 0.42427 0.0
C4 C 0.25528 0.08889 0.40037 0.0
C5 C 0.28456 0.11721 0.44204 0.0
C6 C 0.29084 0.15326 0.43573 0.0
C7 C 0.27889 0.15739 0.41217 0.0
C8 C 0.26065 0.12503 0.3944 0.0
N9 N 0.28832 0.19515 0.40667 0.0
C10 C 0.26512 0.20321 0.39096 0.0
H11 H 0.96564 0.21844 0.43032 0.0
H12 H 0.86526 0.10269 0.41818 0.0
H13 H 0.95119 0.1436 0.36596 0.0
C14 C 0.94878 0.19083 0.41914 0.0
C15 C 0.96226 0.1845 0.39705 0.0
C16 C 0.91371 0.16133 0.42691 0.0
C17 C 0.8922 0.12544 0.41228 0.0
C18 C 0.90591 0.11915 0.39023 0.0
C19 C 0.94068 0.1487 0.38288 0.0
N20 N 0.88617 0.08366 0.37482 0.0
C21 C 0.85157 0.05084 0.37897 0.0
H22 H 0.81533 0.75945 0.44239 0.0
H23 H 0.91554 0.74439 0.44897 0.0
H24 H 0.89312 0.79085 0.38494 0.0
C25 C 0.84149 0.7623 0.43514 0.0
C26 C 0.85136 0.77644 0.41208 0.0
C27 C 0.86465 0.75086 0.44859 0.0
C28 C 0.8979 0.75379 0.43884 0.0
C29 C 0.90893 0.76885 0.41627 0.0
C30 C 0.88561 0.78034 0.40278 0.0
N31 N 0.9422 0.76931 0.40738 0.0
C32 C 0.96609 0.79326 0.3907 0.0
H33 H 0.06711 0.25929 0.58418 0.0
H34 H 0.16157 0.23558 0.59737 0.0
H35 H 0.07301 0.20334 0.64773 0.0
C36 C 0.08196 0.24812 0.59546 0.0
C37 C 0.06622 0.23144 0.61696 0.0
C38 C 0.11639 0.24977 0.58818 0.0
C39 C 0.13533 0.23472 0.60293 0.0
C40 C 0.11965 0.21808 0.62459 0.0
C41 C 0.08527 0.21658 0.63125 0.0
N42 N 0.13611 0.20124 0.64008 0.0
C43 C 0.17202 0.20275 0.63939 0.0
H44 H 0.74862 0.80523 0.59718 0.0
H45 H 0.76193 0.91964 0.60465 0.0
H46 H 0.80825 0.88198 0.66215 0.0
C47 C 0.75596 0.83195 0.60796 0.0
C48 C 0.77792 0.83998 0.63079 0.0
C49 C 0.74464 0.85818 0.59921 0.0
C50 C 0.76315 0.89589 0.61223 0.0
C51 C 0.78529 0.90409 0.63508 0.0
C52 C 0.79135 0.87562 0.64449 0.0
N53 N 0.80276 0.94083 0.64911 0.0
C54 C 0.79804 0.97186 0.64345 0.0
H55 H 0.202 0.95356 0.58488 0.0
H56 H 0.11133 0.83369 0.57172 0.0
H57 H 0.13357 0.89501 0.64346 0.0
C58 C 0.17824 0.92789 0.59132 0.0
C59 C 0.17025 0.92842 0.61599 0.0
C60 C 0.15688 0.8939 0.5752 0.0
C61 C 0.12717 0.86038 0.5839 0.0
C62 C 0.11784 0.86076 0.60822 0.0
C63 C 0.13934 0.89499 0.62434 0.0
N64 N 0.09005 0.82501 0.6165 0.0
C65 C 0.06023 0.81998 0.63087 0.0
H66 H 0.92717 0.3968 0.76486 0.0
H67 H 0.97032 0.51971 0.77663 0.0
H68 H 0.93079 0.46137 0.70354 0.0
C69 C 0.93278 0.42377 0.75776 0.0
C70 C 0.92612 0.42474 0.73234 0.0
C71 C 0.94845 0.45789 0.77387 0.0
C72 C 0.95709 0.49301 0.76443 0.0
C73 C 0.95006 0.49422 0.73923 0.0
C74 C 0.93456 0.46008 0.72317 0.0
N75 N 0.96365 0.53071 0.72995 0.0
C76 C 0.93853 0.54259 0.72032 0.0
H77 H 0.63572 0.54806 0.77152 0.0
H78 H 0.5378 0.43063 0.76148 0.0
H79 H 0.61861 0.47362 0.70636 0.0
C80 C 0.61878 0.5203 0.76052 0.0
C81 C 0.63093 0.51435 0.73782 0.0
C82 C 0.58512 0.49011 0.76922 0.0
C83 C 0.56357 0.45394 0.75483 0.0
C84 C 0.5757 0.44814 0.73203 0.0
C85 C 0.60916 0.47836 0.72381 0.0
N86 N 0.55603 0.4124 0.71681 0.0
C87 C 0.52069 0.37986 0.72034 0.0
H88 H 0.48958 0.09264 0.77976 0.0
H89 H 0.59885 0.09452 0.79014 0.0
H90 H 0.57067 0.13336 0.7242 0.0
C91 C 0.51728 0.09887 0.77319 0.0
C92 C 0.52685 0.11368 0.75027 0.0
C93 C 0.54305 0.09175 0.7876 0.0
C94 C 0.57882 0.09994 0.77902 0.0
C95 C 0.58932 0.11506 0.75636 0.0
C96 C 0.56312 0.12188 0.7418 0.0
N97 N 0.62652 0.12267 0.7495 0.0
C98 C 0.6441 0.13721 0.7282 0.0
H99 H 0.71457 0.58557 0.91859 0.0
H100 H 0.82857 0.6029 0.90808 0.0
H101 H 0.77034 0.54553 0.97006 0.0
C102 C 0.73915 0.58207 0.92455 0.0
C103 C 0.73844 0.56406 0.94608 0.0
C104 C 0.77138 0.59567 0.91068 0.0
C105 C 0.80334 0.59177 0.91857 0.0
C106 C 0.80334 0.57365 0.93976 0.0
C107 C 0.77055 0.55928 0.95351 0.0
N108 N 0.83794 0.57261 0.94677 0.0
C109 C 0.8426 0.54898 0.96278 0.0
H110 H 0.42299 0.13293 0.93555 0.0
H111 H 0.40039 0.22782 0.94499 0.0
H112 H 0.43414 0.18784 1.00802 0.0
C113 C 0.42166 0.1549 0.94743 0.0
C114 C 0.4309 0.1581 0.97298 0.0
C115 C 0.40982 0.17951 0.93732 0.0
C116 C 0.40915 0.20856 0.95276 0.0
C117 C 0.41793 0.21148 0.97829 0.0
C118 C 0.42764 0.18559 0.98827 0.0
N119 N 0.41686 0.23989 0.99444 0.0
C120 C 0.42772 0.27686 0.9881 0.0
H121 H 0.8646 0.28847 0.92085 0.0
H122 H 0.76396 0.17585 0.89933 0.0
H123 H 0.78143 0.2298 0.97298 0.0
C124 C 0.83774 0.26366 0.92525 0.0
C125 C 0.82557 0.26289 0.949 0.0
C126 C 0.81566 0.23226 0.90728 0.0
C127 C 0.78109 0.20022 0.91315 0.0
C128 C 0.76829 0.19903 0.93661 0.0
C129 C 0.7907 0.23048 0.95467 0.0
N130 N 0.73303 0.16533 0.94102 0.0
C131 C 0.71418 0.15898 0.96243 0.0
H132 H 0.60902 0.73745 0.10537 0.0
H133 H 0.62938 0.85123 0.09157 0.0
H134 H 0.59534 0.76306 0.03138 0.0
C135 C 0.60977 0.75765 0.09267 0.0
C136 C 0.60048 0.74578 0.06734 0.0
C137 C 0.62028 0.79578 0.10153 0.0
C138 C 0.6206 0.82162 0.08489 0.0
C139 C 0.61143 0.80966 0.05956 0.0
C140 C 0.60212 0.7721 0.05097 0.0
N141 N 0.61339 0.83515 0.04199 0.0
C142 C 0.60047 0.86166 0.04495 0.0
H143 H 0.2979 0.87666 0.10031 0.0
H144 H 0.19389 0.76369 0.08769 0.0
H145 H 0.28036 0.80091 0.03569 0.0
C146 C 0.28023 0.84922 0.08907 0.0
C147 C 0.29333 0.84205 0.06711 0.0
C148 C 0.24426 0.82104 0.09651 0.0
C149 C 0.22158 0.78535 0.08193 0.0
C150 C 0.2347 0.77802 0.05994 0.0
C151 C 0.27033 0.80655 0.05266 0.0
N152 N 0.21307 0.74263 0.04448 0.0
C153 C 0.17941 0.70983 0.05002 0.0
H154 H 0.15661 0.42091 0.1123 0.0
H155 H 0.26275 0.41922 0.10079 0.0
H156 H 0.20685 0.44996 0.04364 0.0
C157 C 0.17984 0.42579 0.10084 0.0
C158 C 0.17863 0.43727 0.07717 0.0
C159 C 0.21032 0.41986 0.10974 0.0
C160 C 0.24016 0.42543 0.09453 0.0
C161 C 0.23887 0.43632 0.07053 0.0
C162 C 0.20824 0.44235 0.06223 0.0
N163 N 0.26317 0.43479 0.05275 0.0
C164 C 0.30392 0.45214 0.05518 0.0
H165 H 0.40036 0.93392 0.25422 0.0
H166 H 0.4957 0.91239 0.26954 0.0
H167 H 0.40374 0.87662 0.31765 0.0
C168 C 0.41475 0.92248 0.26567 0.0
C169 C 0.39798 0.90504 0.28673 0.0
C170 C 0.44992 0.92511 0.25925 0.0
C171 C 0.46852 0.9102 0.27431 0.0
C172 C 0.45169 0.89257 0.29546 0.0
C173 C 0.41665 0.89023 0.30141 0.0
N174 N 0.4686 0.87689 0.31151 0.0
C175 C 0.50185 0.87407 0.30856 0.0
H176 H 0.08847 0.47224 0.27332 0.0
H177 H 0.09088 0.58177 0.27711 0.0
H178 H 0.14278 0.55344 0.33698 0.0
C179 C 0.09336 0.49864 0.28332 0.0
C180 C 0.1155 0.50949 0.30631 0.0
C181 C 0.07885 0.52186 0.2736 0.0
C182 C 0.09496 0.56007 0.28552 0.0
C183 C 0.11734 0.5711 0.3085 0.0
C184 C 0.126 0.54507 0.31912 0.0
N185 N 0.13183 0.60808 0.32167 0.0
C186 C 0.13007 0.6391 0.31272 0.0
H187 H 0.54386 0.61245 0.2542 0.0
H188 H 0.45248 0.49275 0.24503 0.0
H189 H 0.47283 0.56193 0.31343 0.0
C190 C 0.51957 0.58799 0.26128 0.0
C191 C 0.51046 0.59168 0.28538 0.0
C192 C 0.4986 0.55249 0.24663 0.0
C193 C 0.46818 0.52056 0.25611 0.0
C194 C 0.45822 0.52383 0.27991 0.0
C195 C 0.47931 0.55957 0.29464 0.0
N196 N 0.4295 0.48952 0.28905 0.0
C197 C 0.4022 0.48759 0.30465 0.0
Tb198 Tb 0.50079 0.99505 0.99523 0.0
Eu199 Eu 0.52307 0.03138 0.05466 0.0
C200 C 0.53852 0.96383 0.03287 0.0
C201 C 0.44231 0.9553 0.03561 0.0
C202 C 0.49377 0.9917 0.92654 0.0
C203 C 0.51564 0.99512 0.88551 0.0
C204 C 0.50796 0.97806 0.90773 0.0
C205 C 0.48757 0.02298 0.92273 0.0
C206 C 0.49498 0.03985 0.90042 0.0
C207 C 0.50906 0.02604 0.88161 0.0
C208 C 0.48512 0.97258 0.94969 0.0
O209 O 0.5017 0.0498 0.99683 0.0
O210 O 0.48549 0.05257 0.03621 0.0
O211 O 0.57003 0.07727 0.0344 0.0
O212 O 0.56329 0.03746 0.99976 0.0
C213 C 0.48677 0.06192 0.01352 0.0
O214 O 0.50672 0.05112 0.08758 0.0
O215 O 0.56041 0.04914 0.08957 0.0
O216 O 0.55174 0.99551 0.04796 0.0
O217 O 0.5123 0.95466 0.01406 0.0
O218 O 0.44643 0.96562 0.01305 0.0
O219 O 0.47134 0.97125 0.05302 0.0
C220 C 0.58288 0.0703 0.01411 0.0
O221 O 0.51466 0.97477 0.96299 0.0
O222 O 0.46186 0.97794 0.96329 0.0
C223 C 0.52455 0.03318 0.12468 0.0
C224 C 0.50353 0.99742 0.16891 0.0
C225 C 0.54099 0.0297 0.16773 0.0
C226 C 0.5513 0.04753 0.14585 0.0
C227 C 0.48754 1.0001 0.12563 0.0
C228 C 0.47711 0.98251 0.14755 0.0
C229 C 0.5353 0.05328 0.10197 0.0
H230 H 0.52651 0.98405 0.87126 0.0
H231 H 0.51296 0.95404 0.9102 0.0
H232 H 0.47683 0.03431 0.93691 0.0
H233 H 0.48972 0.06367 0.89779 0.0
H234 H 0.56197 0.04152 0.18388 0.0
H235 H 0.58006 0.07281 0.14553 0.0
H236 H 0.46644 0.9881 0.10952 0.0
H237 H 0.44814 0.95756 0.14795 0.0
Tb238 Tb 0.0119 0.48376 0.99702 0.0
Eu239 Eu 0.97961 0.47242 0.0533 0.0
C240 C 0.05115 0.55361 0.0386 0.0
C241 C 0.05086 0.46028 0.04053 0.0
C242 C 0.018 0.47934 0.92871 0.0
C243 C 0.01398 0.45075 0.88733 0.0
C244 C 0.02746 0.4575 0.91232 0.0
C245 C 0.99382 0.49342 0.91975 0.0
C246 C 0.98068 0.48699 0.89472 0.0
C247 C 0.99116 0.46613 0.87827 0.0
C248 C 0.03546 0.48902 0.95458 0.0
O249 O 0.96392 0.42384 0.99451 0.0
O250 O 0.93401 0.41803 0.03045 0.0
O251 O 0.94136 0.48935 0.0312 0.0
O252 O 0.96174 0.49225 0.99209 0.0
C253 C 0.93538 0.40457 1.00826 0.0
O254 O 0.95862 0.43896 0.08484 0.0
O255 O 0.96794 0.49748 0.08604 0.0
O256 O 0.03655 0.52998 0.0558 0.0
O257 O 0.03996 0.54231 0.01515 0.0
O258 O 0.05591 0.48059 0.02153 0.0
O259 O 0.01932 0.44728 0.05217 0.0
C260 C 0.93899 0.495 1.00783 0.0
O261 O 0.0339 0.51675 0.96733 0.0
O262 O 0.02806 0.46003 0.96748 0.0
C263 C 0.97664 0.47514 0.12382 0.0
C264 C 1.00821 0.48896 0.17322 0.0
C265 C 0.96782 0.465 0.16687 0.0
C266 C 0.95218 0.45812 0.14237 0.0
C267 C 0.01717 0.49906 0.13006 0.0
C268 C 0.0329 0.50592 0.15468 0.0
C269 C 0.95905 0.46738 0.09821 0.0
H270 H 0.0223 0.43453 0.87491 0.0
H271 H 0.04603 0.44637 0.91877 0.0
H272 H 0.98578 0.51015 0.93193 0.0
H273 H 0.96303 0.49901 0.88807 0.0
H274 H 0.94837 0.4517 0.18095 0.0
H275 H 0.92088 0.43955 0.1379 0.0
H276 H 0.03651 0.51248 0.11597 0.0
H277 H 0.06415 0.52451 0.15928 0.0
Tb278 Tb 0.5421 0.51059 0.03419 0.0
Eu279 Eu 0.51431 0.52362 0.97895 0.0
C280 C 0.49718 0.4408 0.99325 0.0
C281 C 0.59683 0.52821 0.99163 0.0
C282 C 0.55398 0.51213 0.10187 0.0
C283 C 0.57618 0.53933 0.14445 0.0
C284 C 0.58421 0.53104 0.12102 0.0
C285 C 0.51555 0.50201 0.10642 0.0
C286 C 0.50746 0.50991 0.12991 0.0
C287 C 0.53769 0.52849 0.14909 0.0
C288 C 0.56302 0.5038 0.07725 0.0
O289 O 0.56741 0.57283 0.03245 0.0
O290 O 0.52293 0.57433 1.00452 0.0
O291 O 0.46 0.49945 0.9996 0.0
O292 O 0.48875 0.5126 0.03958 0.0
C293 C 0.55006 0.59061 0.02317 0.0
O294 O 0.52618 0.5608 0.94892 0.0
O295 O 0.47619 0.50237 0.94452 0.0
O296 O 0.50884 0.46452 0.976 0.0
O297 O 0.5008 0.45318 0.01645 0.0
O298 O 0.58258 0.50685 1.00995 0.0
O299 O 0.57897 0.54455 0.98097 0.0
C300 C 0.45796 0.50144 0.02361 0.0
O301 O 0.5343 0.47559 0.06298 0.0
O302 O 0.58339 0.53383 0.06538 0.0
C303 C 0.511 0.52605 0.90956 0.0
C304 C 0.53606 0.51456 0.86399 0.0
C305 C 0.53107 0.5467 0.86922 0.0
C306 C 0.51856 0.55232 0.89178 0.0
C307 C 0.51639 0.49408 0.90444 0.0
C308 C 0.52861 0.4883 0.88181 0.0
C309 C 0.4988 0.53299 0.93357 0.0
H310 H 0.59984 0.55378 0.15906 0.0
H311 H 0.61404 0.53934 0.11784 0.0
H312 H 0.49175 0.48786 0.09189 0.0
H313 H 0.47762 0.50143 0.13316 0.0
H314 H 0.53673 0.56734 0.85576 0.0
H315 H 0.51492 0.57731 0.89539 0.0
H316 H 0.51123 0.47361 0.91793 0.0
H317 H 0.53235 0.46338 0.87819 0.0
Tb318 Tb 0.16911 0.33312 0.32211 0.0
Eu319 Eu 0.19197 0.36565 0.38353 0.0
C320 C 0.2009 0.29429 0.35869 0.0
C321 C 0.10824 0.29652 0.36161 0.0
C322 C 0.16529 0.33179 0.25264 0.0
C323 C 0.19643 0.3367 0.21459 0.0
C324 C 0.18655 0.32128 0.23723 0.0
C325 C 0.1544 0.35849 0.24486 0.0
C326 C 0.16419 0.37382 0.2221 0.0
C327 C 0.18504 0.36282 0.20667 0.0
C328 C 0.1537 0.31325 0.27602 0.0
O329 O 0.15257 0.37719 0.32829 0.0
O330 O 0.18472 0.41151 0.36595 0.0
O331 O 0.24751 0.40268 0.36624 0.0
O332 O 0.22799 0.38307 0.32452 0.0
C333 C 0.16481 0.40722 0.3448 0.0
O334 O 0.17676 0.38356 0.41791 0.0
O335 O 0.22686 0.37536 0.4184 0.0
O336 O 0.19404 0.31022 0.37804 0.0
O337 O 0.19689 0.30224 0.33617 0.0
O338 O 0.12238 0.28958 0.34185 0.0
O339 O 0.12711 0.32931 0.37566 0.0
C340 C 0.25444 0.40474 0.34293 0.0
O341 O 0.18084 0.31168 0.28957 0.0
O342 O 0.13218 0.32154 0.28952 0.0
C343 C 0.19089 0.35996 0.4538 0.0
C344 C 0.1678 0.32126 0.497 0.0
C345 C 0.16868 0.35665 0.49479 0.0
C346 C 0.18017 0.37579 0.47346 0.0
C347 C 0.18965 0.32429 0.45586 0.0
C348 C 0.17838 0.30523 0.47731 0.0
C349 C 0.2035 0.38134 0.43159 0.0
H350 H 0.21241 0.3277 0.20302 0.0
H351 H 0.19517 0.30064 0.24257 0.0
H352 H 0.13795 0.36722 0.25617 0.0
H353 H 0.155 0.39386 0.21636 0.0
H354 H 0.16061 0.36956 0.50968 0.0
H355 H 0.1808 0.40316 0.47235 0.0
H356 H 0.19746 0.31117 0.44095 0.0
H357 H 0.17788 0.27795 0.47855 0.0
Tb358 Tb 0.69173 0.82291 0.32191 0.0
Eu359 Eu 0.65889 0.81216 0.37759 0.0
C360 C 0.7281 0.89326 0.36351 0.0
C361 C 0.73417 0.80603 0.36639 0.0
C362 C 0.69878 0.82686 0.25394 0.0
C363 C 0.70936 0.83827 0.21124 0.0
C364 C 0.7237 0.83857 0.23524 0.0
C365 C 0.65879 0.81256 0.24802 0.0
C366 C 0.64437 0.8121 0.2239 0.0
C367 C 0.66988 0.8282 0.20524 0.0
C368 C 0.71515 0.82978 0.27935 0.0
O369 O 0.63469 0.77021 0.31746 0.0
O370 O 0.63164 0.75262 0.35684 0.0
O371 O 0.61405 0.81627 0.35247 0.0
O372 O 0.65177 0.84578 0.32103 0.0
C373 C 0.62019 0.74418 0.33324 0.0
O374 O 0.64328 0.77872 0.40935 0.0
O375 O 0.63689 0.82961 0.40885 0.0
O376 O 0.69742 0.87634 0.37589 0.0
O377 O 0.73452 0.87484 0.34525 0.0
O378 O 0.72133 0.79792 0.34285 0.0
O379 O 0.71908 0.81935 0.38233 0.0
C380 C 0.62051 0.83542 0.33284 0.0
O381 O 0.71899 0.85859 0.29409 0.0
O382 O 0.70109 0.7977 0.29003 0.0
C383 C 0.65128 0.8136 0.44768 0.0
C384 C 0.67968 0.83001 0.49784 0.0
C385 C 0.63992 0.81589 0.49075 0.0
C386 C 0.62584 0.80775 0.46587 0.0
C387 C 0.69131 0.82846 0.45467 0.0
C388 C 0.70544 0.8366 0.47966 0.0
C389 C 0.63503 0.80228 0.42171 0.0
H390 H 0.7298 0.84564 0.19747 0.0
H391 H 0.75445 0.84799 0.23917 0.0
H392 H 0.63863 0.80151 0.26202 0.0
H393 H 0.61306 0.79806 0.22041 0.0
H394 H 0.61966 0.8106 0.50454 0.0
H395 H 0.5949 0.79624 0.46083 0.0
H396 H 0.7114 0.83316 0.44086 0.0
H397 H 0.73621 0.84744 0.48484 0.0
Tb398 Tb 0.19126 0.86206 0.35753 0.0
Eu399 Eu 0.16664 0.87363 0.30011 0.0
C400 C 0.15768 0.79314 0.31592 0.0
C401 C 0.25066 0.885 0.31658 0.0
C402 C 0.20463 0.86399 0.42618 0.0
C403 C 0.19279 0.84541 0.46775 0.0
C404 C 0.19985 0.83818 0.44382 0.0
C405 C 0.20231 0.89737 0.43284 0.0
C406 C 0.19555 0.9048 0.45692 0.0
C407 C 0.19053 0.87871 0.4745 0.0
C408 C 0.21083 0.85468 0.40091 0.0
O409 O 0.20861 0.92325 0.35803 0.0
O410 O 0.17834 0.92829 0.32209 0.0
O411 O 0.11217 0.85514 0.31991 0.0
O412 O 0.13481 0.85793 0.36037 0.0
C413 C 0.19792 0.94262 0.34386 0.0
O414 O 0.17642 0.90753 0.2687 0.0
O415 O 0.12981 0.84736 0.26527 0.0
O416 O 0.16753 0.81728 0.29889 0.0
O417 O 0.15713 0.80391 0.33887 0.0
O418 O 0.23612 0.86389 0.33499 0.0
O419 O 0.23188 0.89902 0.30432 0.0
C420 C 0.10694 0.85227 0.34347 0.0
O421 O 0.17979 0.82819 0.38735 0.0
O422 O 0.23272 0.88365 0.38858 0.0
C423 C 0.16491 0.87028 0.23058 0.0
C424 C 0.19045 0.85387 0.18668 0.0
C425 C 0.1508 0.84216 0.18799 0.0
C426 C 0.13814 0.85031 0.20978 0.0
C427 C 0.20463 0.88203 0.2292 0.0
C428 C 0.21728 0.87389 0.20742 0.0
C429 C 0.15097 0.87771 0.25369 0.0
H430 H 0.18901 0.82497 0.48104 0.0
H431 H 0.20134 0.8122 0.43901 0.0
H432 H 0.20556 0.91754 0.41947 0.0
H433 H 0.19392 0.93067 0.46181 0.0
H434 H 0.1297 0.82666 0.17214 0.0
H435 H 0.1074 0.84087 0.21045 0.0
H436 H 0.22592 0.89739 0.24496 0.0
H437 H 0.24797 0.88312 0.20676 0.0
Tb438 Tb 0.8274 0.66027 0.65541 0.0
Eu439 Eu 0.85423 0.70252 0.71307 0.0
C440 C 0.86712 0.63198 0.69383 0.0
C441 C 0.77219 0.62647 0.69801 0.0
C442 C 0.8152 0.65126 0.58734 0.0
C443 C 0.83046 0.65042 0.5449 0.0
C444 C 0.82288 0.63353 0.56717 0.0
C445 C 0.81538 0.68634 0.5849 0.0
C446 C 0.82256 0.703 0.56256 0.0
C447 C 0.83023 0.68521 0.5424 0.0
C448 C 0.8075 0.63319 0.61078 0.0
O449 O 0.83162 0.71623 0.65414 0.0
O450 O 0.81832 0.72477 0.69342 0.0
O451 O 0.90289 0.74391 0.69189 0.0
O452 O 0.89018 0.70222 0.65685 0.0
C453 C 0.81975 0.73236 0.67034 0.0
O454 O 0.84176 0.73046 0.74398 0.0
O455 O 0.88864 0.71784 0.74885 0.0
O456 O 0.88179 0.6652 0.7076 0.0
O457 O 0.83969 0.62143 0.67558 0.0
O458 O 0.77435 0.63495 0.67503 0.0
O459 O 0.80261 0.64343 0.71426 0.0
C460 C 0.9129 0.73493 0.67098 0.0
O461 O 0.83757 0.63555 0.62355 0.0
O462 O 0.78572 0.64035 0.62474 0.0
C463 C 0.84922 0.70857 0.78172 0.0
C464 C 0.80849 0.67145 0.82247 0.0
C465 C 0.83552 0.71205 0.82424 0.0
C466 C 0.85458 0.73035 0.804 0.0
C467 C 0.82634 0.66801 0.7804 0.0
C468 C 0.80724 0.64973 0.8006 0.0
C469 C 0.86622 0.72811 0.75974 0.0
H470 H 0.83641 0.63631 0.52957 0.0
H471 H 0.82308 0.60663 0.56867 0.0
H472 H 0.80994 0.70088 0.60023 0.0
H473 H 0.82233 0.72987 0.56102 0.0
H474 H 0.8431 0.73042 0.84123 0.0
H475 H 0.87356 0.76165 0.80581 0.0
H476 H 0.82314 0.65033 0.76368 0.0
H477 H 0.79223 0.6184 0.79873 0.0
Tb478 Tb 0.36174 0.15147 0.66066 0.0
Eu479 Eu 0.32684 0.13986 0.71507 0.0
C480 C 0.39652 0.22234 0.70259 0.0
C481 C 0.40301 0.13493 0.7055 0.0
C482 C 0.3705 0.14624 0.59322 0.0
C483 C 0.36443 0.11509 0.5524 0.0
C484 C 0.3796 0.12384 0.57708 0.0
C485 C 0.3454 0.15928 0.58442 0.0
C486 C 0.3306 0.15091 0.55966 0.0
C487 C 0.34032 0.12907 0.54348 0.0
C488 C 0.38725 0.15524 0.61907 0.0
O489 O 0.3033 0.10092 0.65432 0.0
O490 O 0.29746 0.08091 0.693 0.0
O491 O 0.28519 0.14991 0.69065 0.0
O492 O 0.32095 0.17326 0.65729 0.0
C493 C 0.28652 0.07412 0.66932 0.0
O494 O 0.30945 0.10349 0.74549 0.0
O495 O 0.3041 0.15512 0.74673 0.0
O496 O 0.36669 0.20425 0.71552 0.0
O497 O 0.40255 0.20524 0.68334 0.0
O498 O 0.38926 0.12524 0.68223 0.0
O499 O 0.38761 0.14845 0.72101 0.0
C500 C 0.29109 0.16644 0.66987 0.0
O501 O 0.38811 0.18456 0.63164 0.0
O502 O 0.37625 0.12545 0.63177 0.0
C503 C 0.31978 0.13692 0.78465 0.0
C504 C 0.3523 0.15335 0.83403 0.0
C505 C 0.32447 0.11516 0.82466 0.0
C506 C 0.30826 0.10707 0.80022 0.0
C507 C 0.34806 0.17515 0.79392 0.0
C508 C 0.36402 0.18333 0.8185 0.0
C509 C 0.30237 0.12709 0.75883 0.0
H510 H 0.37207 0.09808 0.54015 0.0
H511 H 0.39865 0.11327 0.58356 0.0
H512 H 0.33747 0.17615 0.59657 0.0
H513 H 0.31187 0.16176 0.55305 0.0
H514 H 0.31503 0.09169 0.83639 0.0
H515 H 0.28666 0.07739 0.79344 0.0
H516 H 0.35777 0.19868 0.78223 0.0
H517 H 0.38542 0.21298 0.82545 0.0
Tb518 Tb 0.86365 0.19747 0.69177 0.0
Eu519 Eu 0.8385 0.20702 0.63433 0.0
C520 C 0.82561 0.1261 0.65154 0.0
C521 C 0.9205 0.2125 0.64968 0.0
C522 C 0.87232 0.20133 0.76071 0.0
C523 C 0.85028 0.17956 0.80051 0.0
C524 C 0.85859 0.17223 0.77692 0.0
C525 C 0.8775 0.23805 0.76857 0.0
C526 C 0.86943 0.24546 0.79227 0.0
C527 C 0.85574 0.21624 0.80842 0.0
C528 C 0.88175 0.19289 0.73606 0.0
O529 O 0.86049 0.2502 0.69384 0.0
O530 O 0.87468 0.26711 0.65483 0.0
O531 O 0.7904 0.20427 0.65628 0.0
O532 O 0.80064 0.17573 0.68942 0.0
C533 C 0.87332 0.27625 0.67806 0.0
O534 O 0.85253 0.24209 0.60328 0.0
O535 O 0.80137 0.18462 0.59925 0.0
O536 O 0.81082 0.14291 0.63823 0.0
O537 O 0.85238 0.14485 0.67019 0.0
O538 O 0.9174 0.22058 0.67289 0.0
O539 O 0.89088 0.19927 0.63277 0.0
C540 C 0.77906 0.18611 0.67624 0.0
O541 O 0.85334 0.16406 0.72187 0.0
O542 O 0.90261 0.22245 0.72382 0.0
C543 C 0.83772 0.20516 0.5646 0.0
C544 C 0.8613 0.18911 0.51957 0.0
C545 C 0.82287 0.18176 0.52101 0.0
C546 C 0.81125 0.18985 0.5433 0.0
C547 C 0.87598 0.21182 0.56325 0.0
C548 C 0.88769 0.20409 0.54093 0.0
C549 C 0.82526 0.21415 0.58798 0.0
H550 H 0.83977 0.15666 0.8127 0.0
H551 H 0.85445 0.14378 0.77135 0.0
H552 H 0.88797 0.26109 0.75649 0.0
H553 H 0.87387 0.27396 0.79804 0.0
H554 H 0.802 0.17009 0.50479 0.0
H555 H 0.78159 0.18429 0.5439 0.0
H556 H 0.89694 0.22324 0.57943 0.0
H557 H 0.91741 0.20986 0.54027 0.0
C558 C 0.36378 0.86506 0.06098 0.0
C559 C 0.33152 0.87143 0.0591 0.0
C560 C 0.37225 0.93362 0.04238 0.0
C561 C 0.40339 0.92553 0.04222 0.0
N562 N 0.42663 0.8805 0.04713 0.0
N563 N 0.30271 0.90832 0.04432 0.0
C564 C 0.39854 0.89036 0.05036 0.0
C565 C 0.33507 0.90474 0.04871 0.0
N566 N 0.3616 0.83549 0.07357 0.0
N567 N 0.37866 0.96954 0.03763 0.0
H568 H 0.27509 0.88801 0.04895 0.0
H569 H 0.30254 0.92969 0.0343 0.0
H570 H 0.40559 0.99166 0.03331 0.0
H571 H 0.3584 0.97859 0.04008 0.0
H572 H 0.38553 0.83193 0.07787 0.0
H573 H 0.33667 0.81641 0.08165 0.0
H574 H 0.42318 0.85355 0.05045 0.0
H575 H 0.45197 0.89789 0.03885 0.0
C576 C 0.11977 0.41906 0.04685 0.0
C577 C 0.14553 0.44282 0.06775 0.0
C578 C 0.1054 0.47356 0.07277 0.0
C579 C 0.08291 0.45361 0.05008 0.0
N580 N 0.07118 0.41003 0.01405 0.0
N581 N 0.16717 0.49835 0.09754 0.0
C582 C 0.09106 0.42735 0.03659 0.0
C583 C 0.13946 0.47158 0.07991 0.0
N584 N 0.12128 0.38727 0.03757 0.0
N585 N 0.09416 0.49415 0.08774 0.0
H586 H 0.19315 0.49882 0.1028 0.0
H587 H 0.16626 0.52246 0.10513 0.0
H588 H 0.07018 0.49744 0.08304 0.0
H589 H 0.10689 0.50546 0.10566 0.0
H590 H 0.10076 0.36665 0.02399 0.0
H591 H 0.14071 0.37927 0.04513 0.0
H592 H 0.07891 0.39417 1.00213 0.0
H593 H 0.04854 0.41365 1.00652 0.0
C594 C 0.54811 0.67615 0.05675 0.0
C595 C 0.588 0.70542 0.05746 0.0
C596 C 0.60177 0.66064 0.03317 0.0
C597 C 0.56251 0.63049 0.03406 0.0
N598 N 0.50037 0.60747 0.05076 0.0
N599 N 0.65428 0.72465 0.04982 0.0
C600 C 0.53616 0.63768 0.0469 0.0
C601 C 0.61531 0.69736 0.0467 0.0
N602 N 0.52141 0.68535 0.06496 0.0
N603 N 0.62564 0.65459 0.01863 0.0
H604 H 0.66507 0.75194 0.05945 0.0
H605 H 0.67618 0.71922 0.04468 0.0
H606 H 0.61656 0.62825 1.00819 0.0
H607 H 0.65322 0.67651 0.01518 0.0
H608 H 0.49127 0.66651 0.06214 0.0
H609 H 0.52915 0.71289 0.07307 0.0
H610 H 0.48162 0.61018 0.06229 0.0
H611 H 0.49077 0.57885 0.04418 0.0
C612 C 0.88661 0.30053 0.9781 0.0
C613 C 0.85059 0.29599 0.968 0.0
C614 C 0.86563 0.35722 0.9913 0.0
C615 C 0.90422 0.36486 0.99795 0.0
N616 N 0.95158 0.34358 0.99882 0.0
N617 N 0.80624 0.32072 0.96354 0.0
C618 C 0.91462 0.33626 0.9918 0.0
C619 C 0.83991 0.32424 0.97451 0.0
N620 N 0.89358 0.27027 0.97494 0.0
N621 N 0.85353 0.38148 1.00089 0.0
H622 H 0.78646 0.29686 0.95137 0.0
H623 H 0.79922 0.34267 0.96506 0.0
H624 H 0.87171 0.40654 0.0126 0.0
H625 H 0.82461 0.37524 0.99879 0.0
H626 H 0.91754 0.2701 0.98365 0.0
H627 H 0.8735 0.24369 0.96516 0.0
H628 H 0.96294 0.32656 0.99227 0.0
H629 H 0.97165 0.36777 0.01068 0.0
C630 C 0.66649 0.52024 0.94899 0.0
C631 C 0.70328 0.55034 0.96026 0.0
C632 C 0.67046 0.55955 0.99489 0.0
C633 C 0.63345 0.53337 0.98186 0.0
N634 N 0.59606 0.4919 0.94501 0.0
N635 N 0.74024 0.60176 0.99285 0.0
C636 C 0.63142 0.51446 0.95852 0.0
C637 C 0.70536 0.57053 0.98312 0.0
N638 N 0.6652 0.49671 0.9293 0.0
N639 N 0.67226 0.57444 0.01839 0.0
H640 H 0.76634 0.61077 0.98486 0.0
H641 H 0.74293 0.62056 1.00783 0.0
H642 H 0.64739 0.56844 0.02716 0.0
H643 H 0.69823 0.59034 0.02984 0.0
H644 H 0.63963 0.47189 0.92169 0.0
H645 H 0.69038 0.49985 0.9221 0.0
H646 H 0.59312 0.48138 0.92668 0.0
H647 H 0.56959 0.48596 0.95151 0.0
C648 C 0.41908 0.09216 0.98244 0.0
C649 C 0.44441 0.13304 0.98405 0.0
C650 C 0.49297 0.12702 1.01039 0.0
C651 C 0.47017 0.08608 1.00578 0.0
N652 N 0.41344 0.02914 0.98496 0.0
N653 N 0.50874 0.18875 0.99567 0.0
C654 C 0.43376 0.06845 0.99107 0.0
C655 C 0.48225 0.15038 0.99707 0.0
N656 N 0.38065 0.07609 0.97362 0.0
N657 N 0.52478 0.1436 0.0275 0.0
H658 H 0.50269 0.20658 0.98525 0.0
H659 H 0.53796 0.20184 1.00276 0.0
H660 H 0.53349 0.12724 0.03752 0.0
H661 H 0.54029 0.17325 0.03329 0.0
H662 H 0.35997 0.04692 0.97437 0.0
H663 H 0.36851 0.09256 0.9677 0.0
H664 H 0.38917 0.01531 0.97194 0.0
H665 H 0.4224 0.01057 0.99168 0.0
C666 C 0.66004 0.15642 0.98433 0.0
C667 C 0.68745 0.14389 0.9814 0.0
C668 C 0.6524 0.09142 1.00753 0.0
C669 C 0.62142 0.09973 1.00674 0.0
N670 N 0.59467 0.1394 0.99405 0.0
N671 N 0.71185 0.10106 0.9907 0.0
C672 C 0.62526 0.13257 0.99549 0.0
C673 C 0.68461 0.11221 0.99352 0.0
N674 N 0.66723 0.19095 0.97618 0.0
N675 N 0.65082 0.06367 0.02176 0.0
H676 H 0.73675 0.11698 0.98161 0.0
H677 H 0.70921 0.07549 0.99645 0.0
H678 H 0.62764 0.04831 0.03229 0.0
H679 H 0.67363 0.05801 0.0248 0.0
H680 H 0.65019 0.2036 0.97953 0.0
H681 H 0.69256 0.20872 0.96793 0.0
H682 H 0.59367 0.16007 0.98372 0.0
H683 H 0.56896 0.12257 1.00209 0.0
C684 C 0.87628 0.54372 1.00067 0.0
C685 C 0.85865 0.5288 0.97641 0.0
C686 C 0.8853 0.48475 0.97573 0.0
C687 C 0.90868 0.50448 0.99829 0.0
N688 N 0.92873 0.55611 0.03122 0.0
N689 N 0.84649 0.48581 0.94012 0.0
C690 C 0.90432 0.53443 0.01076 0.0
C691 C 0.86285 0.4992 0.96384 0.0
N692 N 0.86637 0.56707 0.01401 0.0
N693 N 0.8836 0.45151 0.96595 0.0
H694 H 0.82806 0.4941 0.93135 0.0
H695 H 0.85281 0.4682 0.92873 0.0
H696 H 0.89903 0.43953 0.97411 0.0
H697 H 0.864 0.43363 0.95108 0.0
H698 H 0.8751 0.57587 0.03269 0.0
H699 H 0.8461 0.57438 1.00689 0.0
H700 H 0.92999 0.58115 0.03915 0.0
H701 H 0.95031 0.55147 0.03924 0.0
C702 C 0.42027 0.3349 0.99141 0.0
C703 C 0.44196 0.31714 0.98421 0.0
C704 C 0.49841 0.38045 0.97897 0.0
C705 C 0.477 0.3984 0.98664 0.0
N706 N 0.41517 0.39318 0.99402 0.0
N707 N 0.49687 0.32058 0.96521 0.0
C708 C 0.43706 0.37568 0.99089 0.0
C709 C 0.47946 0.33918 0.9759 0.0
N710 N 0.38424 0.31295 0.99954 0.0
N711 N 0.53735 0.40275 0.97612 0.0
H712 H 0.48362 0.29033 0.96291 0.0
H713 H 0.5226 0.33478 0.95671 0.0
H714 H 0.55218 0.43305 0.97829 0.0
H715 H 0.55564 0.39139 0.97325 0.0
H716 H 0.36895 0.3247 1.00793 0.0
H717 H 0.37035 0.28272 0.99902 0.0
H718 H 0.38508 0.37805 0.99513 0.0
H719 H 0.42659 0.42293 0.99323 0.0
C720 C 0.14993 0.6427 0.06162 0.0
C721 C 0.14498 0.6723 0.05197 0.0
C722 C 0.07589 0.62525 0.03924 0.0
C723 C 0.08248 0.59467 0.04544 0.0
N724 N 0.12746 0.57387 0.05937 0.0
N725 N 0.10415 0.69304 0.03143 0.0
C726 C 0.11979 0.60326 0.05618 0.0
C727 C 0.10805 0.66404 0.04097 0.0
N728 N 0.18366 0.65234 0.07578 0.0
N729 N 0.03877 0.61716 0.03199 0.0
H730 H 0.12664 0.72204 0.03353 0.0
H731 H 0.07948 0.68827 0.0205 0.0
H732 H 0.01478 0.58904 0.03028 0.0
H733 H 0.03117 0.63836 0.02954 0.0
H734 H 0.18759 0.63245 0.0853 0.0
H735 H 0.20626 0.68108 0.07991 0.0
H736 H 0.15519 0.5784 0.06479 0.0
H737 H 0.10686 0.54479 0.05425 0.0
C738 C 0.36018 0.49671 0.03286 0.0
C739 C 0.34496 0.46865 0.05011 0.0
C740 C 0.40321 0.46154 0.04972 0.0
C741 C 0.41941 0.49088 0.03321 0.0
N742 N 0.41646 0.54169 0.01291 0.0
N743 N 0.35494 0.43018 0.07873 0.0
C744 C 0.39875 0.50996 0.02587 0.0
C745 C 0.36756 0.45306 0.0598 0.0
N746 N 0.33726 0.50993 0.02256 0.0
N747 N 0.42049 0.43994 0.05459 0.0
H748 H 0.32881 0.42325 0.08623 0.0
H749 H 0.37188 0.42112 0.08842 0.0
H750 H 0.44573 0.4441 0.04705 0.0
H751 H 0.4079 0.41549 0.06426 0.0
H752 H 0.34435 0.5263 1.00755 0.0
H753 H 0.30981 0.50262 0.02811 0.0
H754 H 0.4049 0.55959 1.00947 0.0
H755 H 0.44448 0.55235 1.00737 0.0
C756 C 0.56513 0.89388 0.0614 0.0
C757 C 0.58608 0.88864 0.04278 0.0
C758 C 0.57906 0.93556 0.01909 0.0
C759 C 0.55524 0.93833 0.0366 0.0
N760 N 0.52259 0.91838 0.07343 0.0
N761 N 0.60918 0.90024 1.0025 0.0
C762 C 0.54765 0.91722 0.05762 0.0
C763 C 0.59203 0.90834 0.02125 0.0
N764 N 0.56227 0.87681 0.08274 0.0
N765 N 0.59069 0.96018 1.00096 0.0
H766 H 0.62038 0.88151 1.00362 0.0
H767 H 0.60986 0.90986 0.98515 0.0
H768 H 0.5819 0.98061 0.99875 0.0
H769 H 0.61174 0.96284 0.9894 0.0
H770 H 0.55131 0.88281 0.09821 0.0
H771 H 0.57314 0.85815 0.08555 0.0
H772 H 0.51222 0.90041 0.08753 0.0
H773 H 0.5099 0.9357 0.07154 0.0
C774 C 0.99912 0.23311 0.36736 0.0
C775 C 0.99977 0.21451 0.38864 0.0
C776 C 0.07149 0.25027 0.39238 0.0
C777 C 0.07088 0.26615 0.36979 0.0
N778 N 0.03436 0.27025 0.33447 0.0
N779 N 0.03603 0.19994 0.41893 0.0
C780 C 0.0347 0.25661 0.3568 0.0
C781 C 0.03581 0.22167 0.40052 0.0
N782 N 0.96459 0.22939 0.35784 0.0
N783 N 0.10612 0.26294 0.4064 0.0
H784 H 0.01061 0.1788 0.42559 0.0
H785 H 0.06121 0.2005 0.42624 0.0
H786 H 0.13325 0.28217 0.40075 0.0
H787 H 0.10784 0.25642 0.42443 0.0
H788 H 0.96248 0.24515 0.3439 0.0
H789 H 0.93818 0.2129 0.36535 0.0
H790 H 1.009 0.26106 0.32282 0.0
H791 H 0.05983 0.28894 0.32672 0.0
C792 C 0.78866 0.75341 0.38535 0.0
C793 C 0.82396 0.78487 0.3974 0.0
C794 C 0.80311 0.83059 0.38494 0.0
C795 C 0.76587 0.79876 0.37564 0.0
N796 N 0.7211 0.72957 0.37008 0.0
N797 N 0.86383 0.8532 0.41077 0.0
C798 C 0.75817 0.76004 0.37646 0.0
C799 C 0.83105 0.82349 0.39765 0.0
N800 N 0.78445 0.71718 0.38227 0.0
N801 N 0.81208 0.86759 0.38107 0.0
H802 H 0.88538 0.84923 0.41972 0.0
H803 H 0.86847 0.88124 0.41418 0.0
H804 H 0.7925 0.87371 0.37161 0.0
H805 H 0.83988 0.89182 0.38525 0.0
H806 H 0.76117 0.69385 0.37149 0.0
H807 H 0.8061 0.71127 0.38869 0.0
H808 H 0.71257 0.70087 0.37276 0.0
H809 H 0.6978 0.7333 0.36412 0.0
C810 C 0.26726 0.04661 0.37078 0.0
C811 C 0.24027 0.05536 0.38131 0.0
C812 C 0.18552 0.99601 0.35926 0.0
C813 C 0.21224 0.9839 0.35259 0.0
N814 N 0.27862 0.99832 0.3497 0.0
N815 N 0.17385 0.039 0.38624 0.0
C816 C 0.25323 0.00966 0.35748 0.0
C817 C 0.19939 0.03055 0.3754 0.0
N818 N 0.30625 0.07393 0.37337 0.0
N819 N 0.14704 0.97464 0.3502 0.0
H820 H 0.18299 0.06452 0.39763 0.0
H821 H 0.14381 0.01978 0.38519 0.0
H822 H 0.13578 0.94907 0.33854 0.0
H823 H 0.12688 0.98386 0.35251 0.0
H824 H 0.32729 0.07101 0.36441 0.0
H825 H 0.31735 0.10124 0.38305 0.0
H826 H 0.30846 0.01305 0.35534 0.0
H827 H 0.2695 0.97315 0.33794 0.0
C828 C 0.57587 0.63845 0.30778 0.0
C829 C 0.53655 0.62852 0.30122 0.0
C830 C 0.55068 0.6918 0.32068 0.0
C831 C 0.59104 0.70363 0.32376 0.0
N832 N 0.64311 0.69005 0.31762 0.0
N833 N 0.4868 0.64671 0.29933 0.0
C834 C 0.60395 0.67739 0.31672 0.0
C835 C 0.52384 0.65531 0.30731 0.0
N836 N 0.58619 0.61043 0.30576 0.0
N837 N 0.53799 0.71527 0.33073 0.0
H838 H 0.46626 0.62018 0.2897 0.0
H839 H 0.4773 0.66681 0.30069 0.0
H840 H 0.55696 0.74216 0.34054 0.0
H841 H 0.50854 0.70676 0.33115 0.0
H842 H 0.61347 0.61502 0.31244 0.0
H843 H 0.56616 0.58145 0.29959 0.0
H844 H 0.65437 0.67342 0.31022 0.0
H845 H 0.66457 0.71847 0.32392 0.0
C846 C 0.32473 0.87534 0.27928 0.0
C847 C 0.36043 0.90168 0.29356 0.0
C848 C 0.32403 0.91595 0.32355 0.0
C849 C 0.28859 0.89148 0.30843 0.0
N850 N 0.25609 0.8536 0.26953 0.0
N851 N 0.3951 0.95267 0.32663 0.0
C852 C 0.28927 0.87313 0.2855 0.0
C853 C 0.36036 0.92357 0.31499 0.0
N854 N 0.32433 0.85091 0.26049 0.0
N855 N 0.32301 0.9319 0.34611 0.0
H856 H 0.42216 0.95942 0.32066 0.0
H857 H 0.39713 0.97238 0.3408 0.0
H858 H 0.29734 0.92883 0.35246 0.0
H859 H 0.34715 0.94619 0.35919 0.0
H860 H 0.2987 0.82792 0.25131 0.0
H861 H 0.34953 0.85132 0.2554 0.0
H862 H 0.25596 0.84386 0.25142 0.0
H863 H 0.229 0.84948 0.27366 0.0
C864 C 0.16847 0.4959 0.32099 0.0
C865 C 0.12801 0.48365 0.31737 0.0
C866 C 0.11184 0.42279 0.33498 0.0
C867 C 0.15245 0.43577 0.3393 0.0
N868 N 0.21908 0.48914 0.34311 0.0
N869 N 0.06175 0.43968 0.3259 0.0
C870 C 0.18069 0.47383 0.33455 0.0
C871 C 0.09978 0.44824 0.32578 0.0
N872 N 0.19513 0.52762 0.31043 0.0
N873 N 0.0848 0.38603 0.33968 0.0
H874 H 0.05186 0.45778 0.31958 0.0
H875 H 0.04064 0.41636 0.33415 0.0
H876 H 0.09231 0.36795 0.34869 0.0
H877 H 0.05509 0.37288 0.33381 0.0
H878 H 0.22444 0.5354 0.31022 0.0
H879 H 0.18729 0.544 0.29976 0.0
H880 H 0.2402 0.51814 0.34225 0.0
H881 H 0.22928 0.47399 0.35316 0.0
C882 C 0.33503 0.47624 0.30682 0.0
C883 C 0.36798 0.476 0.31802 0.0
C884 C 0.32801 0.4329 0.34766 0.0
C885 C 0.29447 0.43271 0.33646 0.0
N886 N 0.26817 0.46157 0.30916 0.0
N887 N 0.39897 0.46412 0.35275 0.0
C888 C 0.29871 0.45683 0.31725 0.0
C889 C 0.36546 0.45786 0.3398 0.0
N890 N 0.33811 0.49367 0.2856 0.0
N891 N 0.32398 0.40707 0.36426 0.0
H892 H 0.42668 0.48216 0.34718 0.0
H893 H 0.39953 0.45477 0.37008 0.0
H894 H 0.29728 0.387 0.37005 0.0
H895 H 0.34678 0.40292 0.37067 0.0
H896 H 0.31416 0.49053 0.27461 0.0
H897 H 0.36479 0.50994 0.27831 0.0
H898 H 0.27065 0.48187 0.29718 0.0
H899 H 0.24095 0.44749 0.316 0.0
C900 C 0.52832 0.82952 0.30251 0.0
C901 C 0.53448 0.86679 0.31059 0.0
C902 C 0.5981 0.88441 0.33202 0.0
C903 C 0.59194 0.84704 0.32403 0.0
N904 N 0.55617 0.78761 0.29713 0.0
N905 N 0.5779 0.93257 0.32805 0.0
C906 C 0.55854 0.82067 0.30783 0.0
C907 C 0.57036 0.89521 0.32372 0.0
N908 N 0.49307 0.80218 0.29045 0.0
N909 N 0.62976 0.90901 0.34824 0.0
H910 H 0.55801 0.9411 0.32213 0.0
H911 H 0.60485 0.95569 0.33551 0.0
H912 H 0.65099 0.90237 0.35433 0.0
H913 H 0.63386 0.93491 0.35689 0.0
H914 H 0.48475 0.77302 0.28675 0.0
H915 H 0.47112 0.80833 0.28518 0.0
H916 H 0.53451 0.76892 0.28338 0.0
H917 H 0.57788 0.78046 0.30056 0.0
C918 C 0.16811 0.7047 0.29955 0.0
C919 C 0.13274 0.67539 0.30721 0.0
C920 C 0.10969 0.72174 0.31295 0.0
C921 C 0.14772 0.75235 0.3096 0.0
N922 N 0.21438 0.7736 0.30129 0.0
N923 N 0.06867 0.654 0.32019 0.0
C924 C 0.17712 0.74401 0.30281 0.0
C925 C 0.10288 0.68319 0.31328 0.0
N926 N 0.19317 0.69485 0.2894 0.0
N927 N 0.08016 0.72967 0.31556 0.0
H928 H 0.06221 0.62513 0.31931 0.0
H929 H 0.04742 0.65845 0.32766 0.0
H930 H 0.08453 0.75768 0.31529 0.0
H931 H 0.05096 0.70847 0.31594 0.0
H932 H 0.21785 0.71436 0.28136 0.0
H933 H 0.1871 0.66612 0.28693 0.0
H934 H 0.23807 0.76946 0.29914 0.0
H935 H 0.22237 0.80274 0.30413 0.0
C936 C 0.78624 1.00228 0.35939 0.0
C937 C 0.81634 0.01331 0.37859 0.0
C938 C 0.78312 0.94741 0.39146 0.0
C939 C 0.75643 0.93507 0.36995 0.0
N940 N 0.73207 0.94986 0.3331 0.0
N941 N 0.84457 0.99803 0.41323 0.0
C942 C 0.75764 0.96234 0.35391 0.0
C943 C 0.81485 0.98646 0.39496 0.0
N944 N 0.78498 0.03019 0.34658 0.0
N945 N 0.77816 0.9218 0.4084 0.0
H946 H 0.8671 0.02689 0.41692 0.0
H947 H 0.84798 0.97905 0.42401 0.0
H948 H 0.75596 0.89275 0.40608 0.0
H949 H 0.79426 0.92975 0.42553 0.0
H950 H 0.76188 0.02474 0.33384 0.0
H951 H 0.80559 0.05972 0.35036 0.0
H952 H 0.73434 0.96734 0.31915 0.0
H953 H 0.7095 0.92116 0.32905 0.0
C954 C 0.99667 0.79942 0.35171 0.0
C955 C 0.99829 0.81491 0.3759 0.0
C956 C 0.06749 0.86316 0.37432 0.0
C957 C 0.06805 0.84269 0.35221 0.0
N958 N 0.03188 0.7892 0.32019 0.0
N959 N 0.0346 0.86163 0.41073 0.0
C960 C 0.03214 0.81074 0.34065 0.0
C961 C 0.0334 0.84718 0.38721 0.0
N962 N 0.96109 0.77355 0.3394 0.0
N963 N 0.09937 0.89831 0.38277 0.0
H964 H 0.00967 0.85201 0.42017 0.0
H965 H 0.06046 0.88158 0.42131 0.0
H966 H 0.12466 0.91127 0.37373 0.0
H967 H 0.09942 0.91641 0.39731 0.0
H968 H 0.9573 0.76396 0.3208 0.0
H969 H 0.93487 0.76479 0.34728 0.0
H970 H 1.00765 0.76272 0.31321 0.0
H971 H 0.05631 0.7959 0.31094 0.0
C972 C 0.26488 0.24787 0.36188 0.0
C973 C 0.24447 0.2192 0.37784 0.0
C974 C 0.1905 0.23262 0.37476 0.0
C975 C 0.21411 0.266 0.36266 0.0
N976 N 0.27501 0.30704 0.34561 0.0
N977 N 0.18795 0.183 0.39962 0.0
C978 C 0.25138 0.27374 0.35601 0.0
C979 C 0.20704 0.21085 0.38411 0.0
N980 N 0.29729 0.25042 0.3525 0.0
N981 N 0.15206 0.22128 0.37666 0.0
H982 H 0.19849 0.16526 0.40572 0.0
H983 H 0.16278 0.1787 0.40732 0.0
H984 H 0.13888 0.23589 0.36908 0.0
H985 H 0.13235 0.19552 0.38352 0.0
H986 H 0.31146 0.2683 0.33892 0.0
H987 H 0.30771 0.23173 0.35663 0.0
H988 H 0.30421 0.3165 0.34319 0.0
H989 H 0.26659 0.327 0.34101 0.0
C990 C 0.66901 0.57735 0.71868 0.0
C991 C 0.66761 0.54467 0.72874 0.0
C992 C 0.73168 0.56257 0.71465 0.0
C993 C 0.73469 0.59706 0.70655 0.0
N994 N 0.70993 0.64143 0.70564 0.0
N995 N 0.70089 0.51053 0.74087 0.0
C996 C 0.70432 0.60561 0.70982 0.0
C997 C 0.69998 0.53859 0.72807 0.0
N998 N 0.63637 0.5809 0.717 0.0
N999 N 0.75854 0.5521 0.70885 0.0
H1000 H 0.67843 0.4928 0.75124 0.0
H1001 H 0.72543 0.50736 0.74318 0.0
H1002 H 0.78159 0.56851 0.69851 0.0
H1003 H 0.75587 0.52545 0.71217 0.0
H1004 H 0.63438 0.60178 0.70739 0.0
H1005 H 0.61017 0.56111 0.72359 0.0
H1006 H 0.69051 0.65078 0.7101 0.0
H1007 H 0.73583 0.66316 0.69984 0.0
C1008 C 0.46277 0.0872 0.7242 0.0
C1009 C 0.49781 0.11994 0.73552 0.0
C1010 C 0.47313 0.16275 0.72304 0.0
C1011 C 0.43619 0.12968 0.71471 0.0
N1012 N 0.39416 0.06003 0.70997 0.0
N1013 N 0.53501 0.18876 0.74813 0.0
C1014 C 0.43064 0.09174 0.71578 0.0
C1015 C 0.50275 0.15776 0.73546 0.0
N1016 N 0.46043 0.05177 0.72134 0.0
N1017 N 0.48036 0.19895 0.7184 0.0
H1018 H 0.5577 0.18647 0.757 0.0
H1019 H 0.53803 0.21618 0.75134 0.0
H1020 H 0.45967 0.20357 0.70897 0.0
H1021 H 0.50784 0.22388 0.7218 0.0
H1022 H 0.4373 0.0275 0.71113 0.0
H1023 H 0.48344 0.04753 0.72729 0.0
H1024 H 0.3872 0.0318 0.71289 0.0
H1025 H 0.36987 0.06225 0.70416 0.0
C1026 C 0.87613 0.36862 0.70243 0.0
C1027 C 0.91418 0.38935 0.71525 0.0
C1028 C 0.92709 0.33767 0.70102 0.0
C1029 C 0.88941 0.31734 0.6878 0.0
N1030 N 0.83178 0.31714 0.67105 0.0
N1031 N 0.97936 0.39893 0.7213 0.0
C1032 C 0.86519 0.33416 0.68684 0.0
C1033 C 0.94078 0.3755 0.71281 0.0
N1034 N 0.84981 0.3807 0.70615 0.0
N1035 N 0.94935 0.32032 0.70299 0.0
H1036 H 0.99059 0.4271 0.72968 0.0
H1037 H 1.00092 0.39198 0.71791 0.0
H1038 H 0.94102 0.29326 0.69385 0.0
H1039 H 0.97483 0.33158 0.71489 0.0
H1040 H 0.82035 0.36447 0.69952 0.0
H1041 H 0.85671 0.40568 0.71746 0.0
H1042 H 0.81462 0.32979 0.66781 0.0
H1043 H 0.82306 0.29181 0.65955 0.0
C1044 C 0.18913 0.99422 0.63693 0.0
C1045 C 0.19708 0.96339 0.63321 0.0
C1046 C 0.26298 0.00438 0.65462 0.0
C1047 C 0.25475 0.03495 0.65884 0.0
N1048 N 0.20792 0.05684 0.65863 0.0
N1049 N 0.23796 0.93589 0.64241 0.0
C1050 C 0.21711 0.02917 0.6514 0.0
C1051 C 0.23287 0.96746 0.64342 0.0
N1052 N 0.15542 0.99053 0.62591 0.0
N1053 N 0.30014 0.01124 0.66017 0.0
H1054 H 0.21678 0.90861 0.63399 0.0
H1055 H 0.26161 0.93577 0.65165 0.0
H1056 H 0.32284 0.03784 0.66846 0.0
H1057 H 0.30931 0.99172 0.65501 0.0
H1058 H 0.14991 0.01345 0.62533 0.0
H1059 H 0.13369 0.96482 0.61602 0.0
H1060 H 0.17997 0.05309 0.65582 0.0
H1061 H 0.22765 0.0825 0.66938 0.0
C1062 C 0.99418 0.19043 0.62131 0.0
C1063 C 0.02864 0.22756 0.62433 0.0
C1064 C 0.99169 0.25565 0.64274 0.0
C1065 C 0.9584 0.21782 0.64203 0.0
N1066 N 0.93035 0.14839 0.63475 0.0
N1067 N 0.06193 0.2948 0.64092 0.0
C1068 C 0.96029 0.18498 0.63238 0.0
C1069 C 0.02788 0.26002 0.63588 0.0
N1070 N 0.99354 0.16048 0.60735 0.0
N1071 N 0.98834 0.28752 0.64897 0.0
H1072 H 0.08876 0.29927 0.63581 0.0
H1073 H 0.06412 0.31831 0.65175 0.0
H1074 H 0.96228 0.28546 0.65375 0.0
H1075 H 0.01028 0.31591 0.64734 0.0
H1076 H 0.96813 0.13391 0.60226 0.0
H1077 H 0.01772 0.1634 0.59888 0.0
H1078 H 0.93157 0.12325 0.63032 0.0
H1079 H 0.90574 0.14329 0.64348 0.0
C1080 C 0.82793 0.82147 0.64373 0.0
C1081 C 0.78807 0.81156 0.64047 0.0
C1082 C 0.76859 0.74849 0.65592 0.0
C1083 C 0.80858 0.76044 0.66189 0.0
N1084 N 0.87637 0.81092 0.66541 0.0
N1085 N 0.72078 0.76848 0.64762 0.0
C1086 C 0.83829 0.79776 0.65697 0.0
C1087 C 0.75841 0.77583 0.64774 0.0
N1088 N 0.85572 0.8527 0.63337 0.0
N1089 N 0.74043 0.71065 0.65709 0.0
H1090 H 0.71217 0.78792 0.64205 0.0
H1091 H 0.69889 0.74469 0.65513 0.0
H1092 H 0.74697 0.68967 0.66244 0.0
H1093 H 0.7112 0.69935 0.65056 0.0
H1094 H 0.88457 0.85896 0.63304 0.0
H1095 H 0.84911 0.87014 0.62292 0.0
H1096 H 0.89884 0.83933 0.66447 0.0
H1097 H 0.88487 0.79447 0.67547 0.0
C1098 C 0.0236 0.79583 0.66736 0.0
C1099 C 0.02425 0.80581 0.64291 0.0
C1100 C 0.95293 0.77761 0.63947 0.0
C1101 C 0.9516 0.76247 0.66255 0.0
N1102 N 0.98553 0.75428 0.69772 0.0
N1103 N 0.99019 0.80573 0.60501 0.0
C1104 C 0.98696 0.7713 0.67652 0.0
C1105 C 0.98912 0.79692 0.62886 0.0
N1106 N 0.0581 0.80978 0.68177 0.0
N1107 N 0.91971 0.77432 0.62797 0.0
H1108 H 0.01631 0.82172 0.59707 0.0
H1109 H 0.96533 0.79552 0.59268 0.0
H1110 H 0.89282 0.76062 0.63522 0.0
H1111 H 0.91934 0.78809 0.61244 0.0
H1112 H 0.05976 0.80676 0.7005 0.0
H1113 H 0.08523 0.82756 0.67539 0.0
H1114 H 0.00995 0.75596 0.70722 0.0
H1115 H 0.95944 0.73581 0.70494 0.0
C1116 C 0.22945 0.21582 0.66781 0.0
C1117 C 0.20655 0.19902 0.64488 0.0
C1118 C 0.24017 0.16206 0.63752 0.0
C1119 C 0.26329 0.17897 0.66049 0.0
N1120 N 0.2867 0.22887 0.69445 0.0
N1121 N 0.19525 0.16301 0.60563 0.0
C1122 C 0.25989 0.20791 0.67475 0.0
C1123 C 0.21369 0.17438 0.62898 0.0
N1124 N 0.22131 0.23846 0.68335 0.0
N1125 N 0.24208 0.13285 0.62443 0.0
H1126 H 0.17565 0.17152 0.59907 0.0
H1127 H 0.20178 0.14815 0.59216 0.0
H1128 H 0.26116 0.12321 0.62987 0.0
H1129 H 0.22288 0.11619 0.60911 0.0
H1130 H 0.23331 0.24743 0.70157 0.0
H1131 H 0.20076 0.24663 0.67839 0.0
H1132 H 0.28846 0.2531 0.70407 0.0
H1133 H 0.30967 0.2243 0.69987 0.0
C1134 C 0.81924 0.0333 0.62429 0.0
C1135 C 0.79717 0.00754 0.64141 0.0
C1136 C 0.78745 0.05764 0.66225 0.0
C1137 C 0.81122 0.08415 0.64591 0.0
N1138 N 0.84132 0.09548 0.60782 0.0
N1139 N 0.75169 0.99066 0.67212 0.0
C1140 C 0.82419 0.07131 0.62563 0.0
C1141 C 0.77835 0.01827 0.65889 0.0
N1142 N 0.83676 0.02189 0.60747 0.0
N1143 N 0.77452 0.07047 0.68133 0.0
H1144 H 0.74448 0.96157 0.66984 0.0
H1145 H 0.73432 0.99558 0.68373 0.0
H1146 H 0.77866 0.09849 0.68343 0.0
H1147 H 0.76107 0.05405 0.69562 0.0
H1148 H 0.85715 0.0406 0.59639 0.0
H1149 H 0.83206 0.99363 0.60535 0.0
H1150 H 0.84832 0.08683 0.59147 0.0
H1151 H 0.84606 0.12372 0.60854 0.0
C1152 C 0.47894 0.3168 0.73679 0.0
C1153 C 0.48479 0.34245 0.71854 0.0
C1154 C 0.42667 0.29146 0.69319 0.0
C1155 C 0.42447 0.26424 0.70954 0.0
N1156 N 0.4476 0.25007 0.74714 0.0
N1157 N 0.46508 0.35554 0.67942 0.0
C1158 C 0.44994 0.27674 0.73166 0.0
C1159 C 0.45859 0.33029 0.69688 0.0
N1160 N 0.50111 0.33093 0.75897 0.0
N1161 N 0.39757 0.28031 0.67454 0.0
H1162 H 0.48686 0.3848 0.68209 0.0
H1163 H 0.45025 0.34723 0.66187 0.0
H1164 H 0.37352 0.25218 0.67156 0.0
H1165 H 0.39523 0.29953 0.66342 0.0
H1166 H 0.49622 0.3148 0.77401 0.0
H1167 H 0.52267 0.3601 0.76298 0.0
H1168 H 0.46806 0.25632 0.76201 0.0
H1169 H 0.42618 0.22076 0.74435 0.0
C1170 C 0.67591 0.12339 0.69413 0.0
C1171 C 0.67198 0.15086 0.70959 0.0
C1172 C 0.73509 0.20328 0.69908 0.0
C1173 C 0.73993 0.17557 0.68445 0.0
N1174 N 0.71181 0.11145 0.66334 0.0
N1175 N 0.6919 0.21736 0.72213 0.0
C1176 C 0.70914 0.13627 0.68041 0.0
C1177 C 0.69962 0.19104 0.71038 0.0
N1178 N 0.64864 0.08477 0.69346 0.0
N1179 N 0.76527 0.2408 0.70325 0.0
H1180 H 0.6661 0.20886 0.73046 0.0
H1181 H 0.70906 0.24731 0.7218 0.0
H1182 H 0.79114 0.25072 0.69488 0.0
H1183 H 0.76568 0.26159 0.71588 0.0
H1184 H 0.65183 0.06253 0.68506 0.0
H1185 H 0.62308 0.0748 0.70226 0.0
H1186 H 0.68929 0.08321 0.65789 0.0
H1187 H 0.73573 0.12026 0.65304 0.0
C1188 C 0.92576 0.57996 0.69005 0.0
C1189 C 0.91626 0.56031 0.71161 0.0
C1190 C 0.87312 0.58603 0.72096 0.0
C1191 C 0.88223 0.60551 0.69923 0.0
N1192 N 0.91244 0.61697 0.66115 0.0
N1193 N 0.87549 0.53746 0.74478 0.0
C1194 C 0.90688 0.60096 0.68307 0.0
C1195 C 0.88817 0.56108 0.72618 0.0
N1196 N 0.95394 0.57969 0.67678 0.0
N1197 N 0.85086 0.59212 0.7369 0.0
H1198 H 0.88615 0.51901 0.74905 0.0
H1199 H 0.85225 0.53357 0.75462 0.0
H1200 H 0.83795 0.60881 0.73325 0.0
H1201 H 0.84691 0.58258 0.75437 0.0
H1202 H 0.96587 0.5971 0.66261 0.0
H1203 H 0.96703 0.5632 0.68076 0.0
H1204 H 0.92641 0.61126 0.64732 0.0
H1205 H 0.90102 0.63441 0.65602 0.0
C1206 C 0.48111 0.98459 0.23618 0.0
C1207 C 0.46706 0.94418 0.23676 0.0
C1208 C 0.48199 0.94056 0.194 0.0
C1209 C 0.49156 0.97958 0.1926 0.0
N1210 N 0.49334 0.03696 0.21108 0.0
N1211 N 0.44882 0.88214 0.21509 0.0
C1212 C 0.48944 1.00125 0.21339 0.0
C1213 C 0.46629 0.92164 0.21538 0.0
N1214 N 0.48729 0.00726 0.25755 0.0
N1215 N 0.48923 0.92275 0.17465 0.0
H1216 H 0.43702 0.86737 0.23034 0.0
H1217 H 0.443 0.86362 0.19925 0.0
H1218 H 0.48615 0.89516 0.17428 0.0
H1219 H 0.48615 0.89516 0.17428 0.0
H1220 H 0.50118 0.03748 0.2587 0.0
H1221 H 0.482 0.99617 0.27462 0.0
H1222 H 0.48797 0.05232 0.2249 0.0
H1223 H 0.49817 0.04962 0.19454 0.0
C1224 C 0.03678 0.5318 0.24017 0.0
C1225 C 0.05079 0.50826 0.25004 0.0
C1226 C 0.02891 0.46752 0.21067 0.0
C1227 C 0.02391 0.49621 0.19952 0.0
N1228 N 0.02222 0.55602 0.20389 0.0
N1229 N 0.0259 0.43928 0.24875 0.0
C1230 C 0.02756 0.52848 0.21434 0.0
C1231 C 0.03752 0.47162 0.23657 0.0
N1232 N 0.02558 0.55185 0.25558 0.0
N1233 N 0.02555 0.43632 0.19666 0.0
H1234 H 0.02383 0.44023 0.26769 0.0
H1235 H 0.01272 0.41125 0.2398 0.0
H1236 H 0.0189 0.43202 0.17761 0.0
H1237 H 0.03253 0.41663 0.20389 0.0
H1238 H 0.01177 0.56668 0.24939 0.0
H1239 H 0.0249 0.54862 0.27438 0.0
H1240 H 0.02849 0.58203 0.21368 0.0
H1241 H 0.01433 0.55413 0.18512 0.0
C1242 C 0.50343 0.56637 0.20222 0.0
C1243 C 0.51007 0.54784 0.2218 0.0
C1244 C 0.53216 0.51464 0.19335 0.0
C1245 C 0.5288 0.53572 0.17424 0.0
N1246 N 0.51855 0.58723 0.16152 0.0
N1247 N 0.539 0.51136 0.23724 0.0
C1248 C 0.51655 0.56326 0.17897 0.0
C1249 C 0.5269 0.52403 0.21773 0.0
N1250 N 0.48336 0.58573 0.20556 0.0
N1251 N 0.53883 0.48458 0.18808 0.0
H1252 H 0.53635 0.51824 0.25546 0.0
H1253 H 0.55511 0.49729 0.23554 0.0
H1254 H 0.54223 0.47628 0.17038 0.0
H1255 H 0.53732 0.46557 0.20084 0.0
H1256 H 0.47397 0.5962 0.19125 0.0
H1257 H 0.47312 0.58849 0.22229 0.0
H1258 H 0.51389 0.61056 0.16484 0.0
H1259 H 0.52837 0.58606 0.14436 0.0
C1260 C 0.9991 0.47681 0.80965 0.0
C1261 C 0.95903 0.45773 0.80042 0.0
C1262 C 0.94024 0.43902 0.84166 0.0
C1263 C 0.98004 0.46232 0.85134 0.0
N1264 N 0.04673 0.50909 0.84507 0.0
N1265 N 0.89098 0.42477 0.80803 0.0
C1266 C 1.00936 0.48273 0.83547 0.0
C1267 C 0.9294 0.43979 0.81652 0.0
N1268 N 0.0274 0.48832 0.79371 0.0
N1269 N 0.91301 0.41535 0.85633 0.0
H1270 H 0.88191 0.42482 0.78976 0.0
H1271 H 0.86842 0.41514 0.81945 0.0
H1272 H 0.91998 0.41386 0.87476 0.0
H1273 H 0.88435 0.3947 0.84972 0.0
H1274 H 0.0568 0.49871 0.79933 0.0
H1275 H 0.02105 0.48388 0.77464 0.0
H1276 H 0.06818 0.52784 0.83452 0.0
H1277 H 0.05546 0.51491 0.8639 0.0
C1278 C 0.53689 0.49651 0.79463 0.0
C1279 C 0.5726 0.49636 0.79356 0.0
C1280 C 0.58628 0.51215 0.83844 0.0
C1281 C 0.54871 0.50821 0.83973 0.0
N1282 N 0.48521 0.48929 0.8194 0.0
N1283 N 0.62802 0.49705 0.81495 0.0
C1284 C 0.52314 0.49831 0.8179 0.0
C1285 C 0.59643 0.50226 0.81563 0.0
N1286 N 0.51677 0.49641 0.77346 0.0
N1287 N 0.61279 0.52658 0.85883 0.0
H1288 H 0.63608 0.48919 0.79871 0.0
H1289 H 0.64408 0.497 0.83068 0.0
H1290 H 0.60661 0.53443 0.8758 0.0
H1291 H 0.64199 0.53409 0.85838 0.0
H1292 H 0.49284 0.50068 0.77329 0.0
H1293 H 0.52616 0.49579 0.75609 0.0
H1294 H 0.46411 0.47784 0.80434 0.0
H1295 H 0.47382 0.48974 0.83607 0.0
C1296 C 0.55402 0.09901 0.83394 0.0
C1297 C 0.53277 0.07554 0.81183 0.0
C1298 C 0.49229 0.02179 0.83593 0.0
C1299 C 0.51662 0.04363 0.85768 0.0
N1300 N 0.57449 0.10109 0.87688 0.0
N1301 N 0.48547 0.01252 0.79137 0.0
C1302 C 0.54851 0.0818 0.85657 0.0
C1303 C 0.50282 0.03636 0.8127 0.0
N1304 N 0.5787 0.13803 0.83343 0.0
N1305 N 0.45845 0.98759 0.83753 0.0
H1306 H 0.49246 0.02191 0.77399 0.0
H1307 H 0.46662 0.98264 0.79091 0.0
H1308 H 0.44955 0.97616 0.8542 0.0
H1309 H 0.43744 0.97243 0.82266 0.0
H1310 H 0.59187 0.15735 0.84923 0.0
H1311 H 0.58315 0.15173 0.81727 0.0
H1312 H 0.60063 0.12714 0.87647 0.0
H1313 H 0.57169 0.08943 0.89373 0.0
C1314 C 0.10965 0.24683 0.54177 0.0
C1315 C 0.1316 0.26654 0.56463 0.0
C1316 C 0.18049 0.31855 0.54252 0.0
C1317 C 0.15601 0.30135 0.5201 0.0
N1318 N 0.09436 0.2516 0.49899 0.0
N1319 N 0.18534 0.32401 0.58714 0.0
C1320 C 0.11984 0.26602 0.51986 0.0
C1321 C 0.16646 0.30312 0.5651 0.0
N1322 N 0.07955 0.20932 0.5409 0.0
N1323 N 0.21765 0.34908 0.54217 0.0
H1324 H 0.17606 0.31386 0.60404 0.0
H1325 H 0.20825 0.3527 0.58868 0.0
H1326 H 0.22908 0.36089 0.52601 0.0
H1327 H 0.23831 0.3603 0.55746 0.0
H1328 H 0.065 0.19199 0.52454 0.0
H1329 H 0.07153 0.19422 0.55648 0.0
H1330 H 0.0658 0.22844 0.49844 0.0
H1331 H 0.1005 0.26481 0.48264 0.0
C1332 C 0.69929 0.80966 0.56267 0.0
C1333 C 0.71764 0.84754 0.57538 0.0
C1334 C 0.70269 0.87151 0.53836 0.0
C1335 C 0.69345 0.83634 0.52446 0.0
N1336 N 0.68204 0.77079 0.52355 0.0
N1337 N 0.70221 0.89888 0.57864 0.0
C1338 C 0.69135 0.80499 0.53667 0.0
C1339 C 0.71006 0.87486 0.56436 0.0
N1340 N 0.68347 0.77792 0.57565 0.0
N1341 N 0.70446 0.90179 0.52689 0.0
H1342 H 0.69868 0.89571 0.59729 0.0
H1343 H 0.69314 0.91708 0.57141 0.0
H1344 H 0.6986 0.90027 0.50789 0.0
H1345 H 0.71469 0.92921 0.53617 0.0
H1346 H 0.66653 0.74952 0.56738 0.0
H1347 H 0.68269 0.78068 0.59468 0.0
H1348 H 0.68407 0.7486 0.53146 0.0
H1349 H 0.67518 0.76584 0.50451 0.0
C1350 C 0.2023 0.89436 0.54449 0.0
C1351 C 0.16664 0.89271 0.54934 0.0
C1352 C 0.14621 0.88158 0.505 0.0
C1353 C 0.183 0.88593 0.50014 0.0
N1354 N 0.24923 0.90495 0.51494 0.0
N1355 N 0.1083 0.89292 0.5343 0.0
C1356 C 0.21204 0.89495 0.51983 0.0
C1357 C 0.13967 0.88879 0.52959 0.0
N1358 N 0.22608 0.8936 0.5633 0.0
N1359 N 0.11691 0.86892 0.48633 0.0
H1360 H 0.10273 0.89849 0.55205 0.0
H1361 H 0.08989 0.8944 0.52057 0.0
H1362 H 0.1204 0.86317 0.46809 0.0
H1363 H 0.08819 0.86103 0.48918 0.0
H1364 H 0.25021 0.89042 0.56053 0.0
H1365 H 0.21984 0.89263 0.5816 0.0
H1366 H 0.27264 0.9157 0.52852 0.0
H1367 H 0.25753 0.90607 0.4971 0.0
C1368 C 0.67216 0.83548 0.13642 0.0
C1369 C 0.63222 0.80925 0.1282 0.0
C1370 C 0.61558 0.81317 0.1704 0.0
C1371 C 0.65578 0.83074 0.17911 0.0
N1372 N 0.71643 0.88387 0.16883 0.0
N1373 N 0.56482 0.77456 0.13741 0.0
C1374 C 0.68284 0.84955 0.16169 0.0
C1375 C 0.60354 0.79848 0.1452 0.0
N1376 N 0.70023 0.84594 0.12041 0.0
N1377 N 0.59054 0.81758 0.18457 0.0
H1378 H 0.55454 0.76478 0.11895 0.0
H1379 H 0.54341 0.76276 0.14961 0.0
H1380 H 0.60091 0.83664 0.20065 0.0
H1381 H 0.5615 0.80815 0.17845 0.0
H1382 H 0.73008 0.86188 0.1262 0.0
H1383 H 0.69386 0.83607 0.10173 0.0
H1384 H 0.73558 0.90083 0.1565 0.0
H1385 H 0.72206 0.89754 0.18667 0.0
C1386 C 0.21653 0.85609 0.12041 0.0
C1387 C 0.23016 0.82916 0.11959 0.0
C1388 C 0.21423 0.81574 0.16197 0.0
C1389 C 0.20399 0.84522 0.16351 0.0
N1390 N 0.20147 0.89802 0.14573 0.0
N1391 N 0.24802 0.78787 0.14063 0.0
C1392 C 0.20681 0.86668 0.14313 0.0
C1393 C 0.23065 0.81018 0.14067 0.0
N1394 N 0.21168 0.8706 0.09929 0.0
N1395 N 0.20718 0.79228 0.18057 0.0
H1396 H 0.26038 0.78313 0.1254 0.0
H1397 H 0.25315 0.77675 0.15627 0.0
H1398 H 0.19531 0.79553 0.19648 0.0
H1399 H 0.20998 0.76761 0.17939 0.0
H1400 H 0.19788 0.887 0.09817 0.0
H1401 H 0.21837 0.86348 0.08228 0.0
H1402 H 0.20742 0.91743 0.13245 0.0
H1403 H 0.19428 0.90667 0.16206 0.0
C1404 C 0.18224 0.36476 0.13657 0.0
C1405 C 0.20825 0.40477 0.13442 0.0
C1406 C 0.22292 0.41634 0.17951 0.0
C1407 C 0.19359 0.3773 0.18174 0.0
N1408 N 0.14151 0.31557 0.1625 0.0
N1409 N 0.25083 0.46971 0.15373 0.0
C1410 C 0.17237 0.35176 0.16027 0.0
C1411 C 0.22808 0.43084 0.15588 0.0
N1412 N 0.16726 0.33907 0.11586 0.0
N1413 N 0.24652 0.43926 0.19991 0.0
H1414 H 0.25626 0.4811 0.13676 0.0
H1415 H 0.26233 0.49089 0.16867 0.0
H1416 H 0.24347 0.42969 0.21743 0.0
H1417 H 0.27104 0.46655 0.19925 0.0
H1418 H 0.15145 0.30902 0.11622 0.0
H1419 H 0.17363 0.34763 0.09824 0.0
H1420 H 0.12211 0.2972 0.1477 0.0
H1421 H 0.13312 0.30501 0.17945 0.0
C1422 C 0.75733 0.59175 0.86475 0.0
C1423 C 0.77217 0.61449 0.88783 0.0
C1424 C 0.78974 0.67285 0.86686 0.0
C1425 C 0.78575 0.65161 0.84409 0.0
N1426 N 0.73563 0.59108 0.82246 0.0
N1427 N 0.79991 0.67727 0.91119 0.0
C1428 C 0.76071 0.61068 0.843 0.0
C1429 C 0.78728 0.65522 0.88903 0.0
N1430 N 0.74071 0.55227 0.86345 0.0
N1431 N 0.78922 0.70682 0.86702 0.0
H1432 H 0.79747 0.66531 0.92792 0.0
H1433 H 0.81486 0.70758 0.91268 0.0
H1434 H 0.78365 0.71649 0.85076 0.0
H1435 H 0.7885 0.72186 0.88304 0.0
H1436 H 0.73324 0.53493 0.84681 0.0
H1437 H 0.73651 0.53723 0.87903 0.0
H1438 H 0.7142 0.56178 0.82136 0.0
H1439 H 0.73281 0.60576 0.80798 0.0
C1440 C 0.35538 0.15925 0.90383 0.0
C1441 C 0.39566 0.17338 0.91075 0.0
C1442 C 0.40743 0.17235 0.86721 0.0
C1443 C 0.36795 0.1618 0.86043 0.0
N1444 N 0.30663 0.15333 0.87242 0.0
N1445 N 0.46149 0.19988 0.89932 0.0
C1446 C 0.34259 0.15765 0.8788 0.0
C1447 C 0.42217 0.18181 0.89251 0.0
N1448 N 0.329 0.14587 0.921 0.0
N1449 N 0.43042 0.17193 0.84959 0.0
H1450 H 0.47332 0.20738 0.91766 0.0
H1451 H 0.48252 0.21045 0.88684 0.0
H1452 H 0.42066 0.16502 0.8309 0.0
H1453 H 0.458 0.17523 0.85365 0.0
H1454 H 0.29881 0.13145 0.9165 0.0
H1455 H 0.33695 0.14571 0.93947 0.0
H1456 H 0.28859 0.15428 0.88528 0.0
H1457 H 0.29638 0.15261 0.8543 0.0
C1458 C 0.86056 0.22636 0.87849 0.0
C1459 C 0.82854 0.23222 0.88215 0.0
C1460 C 0.81413 0.2276 0.83741 0.0
C1461 C 0.84744 0.2239 0.83379 0.0
N1462 N 0.90721 0.22834 0.85084 0.0
N1463 N 0.78015 0.24684 0.86556 0.0
C1464 C 0.87216 0.22593 0.85436 0.0
C1465 C 0.80696 0.23546 0.86171 0.0
N1466 N 0.87884 0.21949 0.89789 0.0
N1467 N 0.78834 0.2219 0.81773 0.0
H1468 H 0.77437 0.25306 0.88311 0.0
H1469 H 0.76636 0.25361 0.85152 0.0
H1470 H 0.79241 0.21596 0.79967 0.0
H1471 H 0.76133 0.21986 0.81946 0.0
H1472 H 0.8993 0.21059 0.89591 0.0
H1473 H 0.87133 0.2196 0.91585 0.0
H1474 H 0.92833 0.23394 0.86518 0.0
H1475 H 0.91679 0.22838 0.83345 0.0
C1476 C 0.27145 0.09642 0.48473 0.0
C1477 C 0.2985 0.11444 0.46717 0.0
C1478 C 0.35305 0.14131 0.49949 0.0
C1479 C 0.32622 0.12206 0.51694 0.0
N1480 N 0.26132 0.07414 0.52543 0.0
N1481 N 0.36494 0.14516 0.45651 0.0
C1482 C 0.2858 0.09729 0.5093 0.0
C1483 C 0.33933 0.13397 0.47416 0.0
N1484 N 0.23219 0.08012 0.47824 0.0
N1485 N 0.3912 0.16819 0.50716 0.0
H1486 H 0.35571 0.13981 0.43773 0.0
H1487 H 0.39488 0.15615 0.46035 0.0
H1488 H 0.40244 0.17505 0.5256 0.0
H1489 H 0.4109 0.1862 0.49546 0.0
H1490 H 0.2114 0.07061 0.49091 0.0
H1491 H 0.22049 0.07857 0.46038 0.0
H1492 H 0.23236 0.05267 0.52028 0.0
H1493 H 0.27097 0.07394 0.54354 0.0
C1494 C 0.89996 0.14744 0.47089 0.0
C1495 C 0.89971 0.16799 0.45056 0.0
C1496 C 0.87755 0.20473 0.47614 0.0
C1497 C 0.87411 0.18152 0.49566 0.0
N1498 N 0.87512 0.12584 0.50995 0.0
N1499 N 0.88121 0.21098 0.43241 0.0
C1500 C 0.88337 0.15144 0.49255 0.0
C1501 C 0.88648 0.19518 0.45279 0.0
N1502 N 0.91737 0.1252 0.46987 0.0
N1503 N 0.8738 0.23686 0.48015 0.0
H1504 H 0.88703 0.20444 0.41496 0.0
H1505 H 0.8677 0.22771 0.43237 0.0
H1506 H 0.86781 0.2452 0.49704 0.0
H1507 H 0.88018 0.25722 0.46746 0.0
H1508 H 0.92222 0.11294 0.48502 0.0
H1509 H 0.93027 0.12189 0.45449 0.0
H1510 H 0.87733 0.1009 0.5075 0.0
H1511 H 0.86257 0.1275 0.52591 0.0
C1512 C 0.87893 0.75657 0.49455 0.0
C1513 C 0.85415 0.73512 0.47287 0.0
C1514 C 0.81069 0.68389 0.49753 0.0
C1515 C 0.83806 0.70299 0.51858 0.0
N1516 N 0.90145 0.7547 0.53628 0.0
N1517 N 0.79957 0.67539 0.45304 0.0
C1518 C 0.87306 0.73867 0.51689 0.0
C1519 C 0.82076 0.69799 0.47416 0.0
N1520 N 0.9075 0.79444 0.49391 0.0
N1521 N 0.77458 0.65291 0.49997 0.0
H1522 H 0.80612 0.6844 0.43554 0.0
H1523 H 0.77763 0.64643 0.45274 0.0
H1524 H 0.76594 0.64202 0.51681 0.0
H1525 H 0.75197 0.64037 0.48578 0.0
H1526 H 0.92386 0.81278 0.50961 0.0
H1527 H 0.91234 0.80868 0.47796 0.0
H1528 H 0.92926 0.77837 0.53519 0.0
H1529 H 0.89857 0.74229 0.55286 0.0
loop_
_geom_bond_atom_site_label_1
_geom_bond_atom_site_label_2
_geom_bond_distance
_geom_bond_site_symmetry_2
_ccdc_geom_bond_type
H0 C3 0.929 . S
H1 C6 0.929 . S
H2 C8 0.930 . S
C3 H0 0.929 . S
C3 C4 1.398 . S
C3 C5 1.396 . S
C4 C3 1.398 . S
C4 C8 1.407 . S
C5 C3 1.396 . S
C5 C6 1.394 . S
C6 H1 0.929 . S
C6 C5 1.394 . S
C6 C7 1.382 . S
C7 C6 1.382 . S
C7 C8 1.392 . S
C7 N9 1.420 . S
C8 H2 0.930 . S
C8 C4 1.407 . S
C8 C7 1.392 . S
N9 C7 1.420 . S
N9 C10 1.244 . S
C10 N9 1.244 . S
H11 C14 0.929 . S
H12 C17 0.929 . S
H13 C19 0.930 . S
C14 H11 0.929 . S
C14 C15 1.398 . S
C14 C16 1.396 . S
C15 C14 1.398 . S
C15 C19 1.407 . S
C16 C14 1.396 . S
C16 C17 1.394 . S
C17 H12 0.929 . S
C17 C16 1.394 . S
C17 C18 1.382 . S
C18 C17 1.382 . S
C18 C19 1.392 . S
C18 N20 1.420 . S
C19 H13 0.930 . S
C19 C15 1.407 . S
C19 C18 1.392 . S
N20 C18 1.420 . S
N20 C21 1.244 . S
C21 N20 1.244 . S
H22 C25 0.929 . S
H23 C28 0.929 . S
H24 C30 0.930 . S
C25 H22 0.929 . S
C25 C26 1.398 . S
C25 C27 1.396 . S
C26 C25 1.398 . S
C26 C30 1.407 . S
C27 C25 1.396 . S
C27 C28 1.394 . S
C28 H23 0.929 . S
C28 C27 1.394 . S
C28 C29 1.382 . S
C29 C28 1.382 . S
C29 C30 1.392 . S
C29 N31 1.420 . S
C30 H24 0.930 . S
C30 C26 1.407 . S
C30 C29 1.392 . S
N31 C29 1.420 . S
N31 C32 1.244 . S
C32 N31 1.244 . S
H33 C36 0.929 . S
H34 C39 0.929 . S
H35 C41 0.930 . S
C36 H33 0.929 . S
C36 C37 1.398 . S
C36 C38 1.396 . S
C37 C36 1.398 . S
C37 C41 1.407 . S
C38 C36 1.396 . S
C38 C39 1.394 . S
C39 H34 0.929 . S
C39 C38 1.394 . S
C39 C40 1.382 . S
C40 C39 1.382 . S
C40 C41 1.392 . S
C40 N42 1.420 . S
C41 H35 0.930 . S
C41 C37 1.407 . S
C41 C40 1.392 . S
N42 C40 1.420 . S
N42 C43 1.244 . S
C43 N42 1.244 . S
H44 C47 0.929 . S
H45 C50 0.929 . S
H46 C52 0.930 . S
C47 H44 0.929 . S
C47 C48 1.398 . S
C47 C49 1.396 . S
C48 C47 1.398 . S
C48 C52 1.407 . S
C49 C47 1.396 . S
C49 C50 1.394 . S
C50 H45 0.929 . S
C50 C49 1.394 . S
C50 C51 1.382 . S
C51 C50 1.382 . S
C51 C52 1.392 . S
C51 N53 1.420 . S
C52 H46 0.930 . S
C52 C48 1.407 . S
C52 C51 1.392 . S
N53 C51 1.420 . S
N53 C54 1.244 . S
C54 N53 1.244 . S
H55 C58 0.929 . S
H56 C61 0.929 . S
H57 C63 0.930 . S
C58 H55 0.929 . S
C58 C59 1.398 . S
C58 C60 1.396 . S
C59 C58 1.398 . S
C59 C63 1.407 . S
C60 C58 1.396 . S
C60 C61 1.394 . S
C61 H56 0.929 . S
C61 C60 1.394 . S
C61 C62 1.382 . S
C62 C61 1.382 . S
C62 C63 1.392 . S
C62 N64 1.420 . S
C63 H57 0.930 . S
C63 C59 1.407 . S
C63 C62 1.392 . S
N64 C62 1.420 . S
N64 C65 1.244 . S
C65 N64 1.244 . S
H66 C69 0.929 . S
H67 C72 0.929 . S
H68 C74 0.930 . S
C69 H66 0.929 . S
C69 C70 1.398 . S
C69 C71 1.396 . S
C70 C69 1.398 . S
C70 C74 1.407 . S
C71 C69 1.396 . S
C71 C72 1.394 . S
C72 H67 0.929 . S
C72 C71 1.394 . S
C72 C73 1.382 . S
C73 C72 1.382 . S
C73 C74 1.392 . S
C73 N75 1.420 . S
C74 H68 0.930 . S
C74 C70 1.407 . S
C74 C73 1.392 . S
N75 C73 1.420 . S
N75 C76 1.244 . S
C76 N75 1.244 . S
H77 C80 0.929 . S
H78 C83 0.929 . S
H79 C85 0.930 . S
C80 H77 0.929 . S
C80 C81 1.398 . S
C80 C82 1.396 . S
C81 C80 1.398 . S
C81 C85 1.407 . S
C82 C80 1.396 . S
C82 C83 1.394 . S
C83 H78 0.929 . S
C83 C82 1.394 . S
C83 C84 1.382 . S
C84 C83 1.382 . S
C84 C85 1.392 . S
C84 N86 1.420 . S
C85 H79 0.930 . S
C85 C81 1.407 . S
C85 C84 1.392 . S
N86 C84 1.420 . S
N86 C87 1.244 . S
C87 N86 1.244 . S
H88 C91 0.929 . S
H89 C94 0.929 . S
H90 C96 0.930 . S
C91 H88 0.929 . S
C91 C92 1.398 . S
C91 C93 1.396 . S
C92 C91 1.398 . S
C92 C96 1.407 . S
C93 C91 1.396 . S
C93 C94 1.394 . S
C94 H89 0.929 . S
C94 C93 1.394 . S
C94 C95 1.382 . S
C95 C94 1.382 . S
C95 C96 1.392 . S
C95 N97 1.420 . S
C96 H90 0.930 . S
C96 C92 1.407 . S
C96 C95 1.392 . S
N97 C95 1.420 . S
N97 C98 1.244 . S
C98 N97 1.244 . S
H99 C102 0.929 . S
H100 C105 0.929 . S
H101 C107 0.930 . S
C102 H99 0.929 . S
C102 C103 1.398 . S
C102 C104 1.396 . S
C103 C102 1.398 . S
C103 C107 1.407 . S
C104 C102 1.396 . S
C104 C105 1.394 . S
C105 H100 0.929 . S
C105 C104 1.394 . S
C105 C106 1.382 . S
C106 C105 1.382 . S
C106 C107 1.392 . S
C106 N108 1.420 . S
C107 H101 0.930 . S
C107 C103 1.407 . S
C107 C106 1.392 . S
N108 C106 1.420 . S
N108 C109 1.244 . S
C109 N108 1.244 . S
H110 C113 0.929 . S
H111 C116 0.929 . S
H112 C118 0.930 1_554 S
C113 H110 0.929 . S
C113 C114 1.398 . S
C113 C115 1.396 . S
C114 C113 1.398 . S
C114 C118 1.407 . S
C115 C113 1.396 . S
C115 C116 1.394 . S
C116 H111 0.929 . S
C116 C115 1.394 . S
C116 C117 1.382 . S
C117 C116 1.382 . S
C117 C118 1.392 . S
C117 N119 1.420 . S
C118 H112 0.930 1_556 S
C118 C114 1.407 . S
C118 C117 1.392 . S
N119 C117 1.420 . S
N119 C120 1.244 . S
C120 N119 1.244 . S
H121 C124 0.929 . S
H122 C127 0.929 . S
H123 C129 0.930 . S
C124 H121 0.929 . S
C124 C125 1.398 . S
C124 C126 1.396 . S
C125 C124 1.398 . S
C125 C129 1.407 . S
C126 C124 1.396 . S
C126 C127 1.394 . S
C127 H122 0.929 . S
C127 C126 1.394 . S
C127 C128 1.382 . S
C128 C127 1.382 . S
C128 C129 1.392 . S
C128 N130 1.420 . S
C129 H123 0.930 . S
C129 C125 1.407 . S
C129 C128 1.392 . S
N130 C128 1.420 . S
N130 C131 1.244 . S
C131 N130 1.244 . S
H132 C135 0.929 . S
H133 C138 0.929 . S
H134 C140 0.930 . S
C135 H132 0.929 . S
C135 C136 1.398 . S
C135 C137 1.396 . S
C136 C135 1.398 . S
C136 C140 1.407 . S
C137 C135 1.396 . S
C137 C138 1.394 . S
C138 H133 0.929 . S
C138 C137 1.394 . S
C138 C139 1.382 . S
C139 C138 1.382 . S
C139 C140 1.392 . S
C139 N141 1.420 . S
C140 H134 0.930 . S
C140 C136 1.407 . S
C140 C139 1.392 . S
N141 C139 1.420 . S
N141 C142 1.244 . S
C142 N141 1.244 . S
H143 C146 0.929 . S
H144 C149 0.929 . S
H145 C151 0.930 . S
C146 H143 0.929 . S
C146 C147 1.398 . S
C146 C148 1.396 . S
C147 C146 1.398 . S
C147 C151 1.407 . S
C148 C146 1.396 . S
C148 C149 1.394 . S
C149 H144 0.929 . S
C149 C148 1.394 . S
C149 C150 1.382 . S
C150 C149 1.382 . S
C150 C151 1.392 . S
C150 N152 1.420 . S
C151 H145 0.930 . S
C151 C147 1.407 . S
C151 C150 1.392 . S
N152 C150 1.420 . S
N152 C153 1.244 . S
C153 N152 1.244 . S
H154 C157 0.929 . S
H155 C160 0.929 . S
H156 C162 0.930 . S
C157 H154 0.929 . S
C157 C158 1.398 . S
C157 C159 1.396 . S
C158 C157 1.398 . S
C158 C162 1.407 . S
C159 C157 1.396 . S
C159 C160 1.394 . S
C160 H155 0.929 . S
C160 C159 1.394 . S
C160 C161 1.382 . S
C161 C160 1.382 . S
C161 C162 1.392 . S
C161 N163 1.420 . S
C162 H156 0.930 . S
C162 C158 1.407 . S
C162 C161 1.392 . S
N163 C161 1.420 . S
N163 C164 1.244 . S
C164 N163 1.244 . S
H165 C168 0.929 . S
H166 C171 0.929 . S
H167 C173 0.930 . S
C168 H165 0.929 . S
C168 C169 1.398 . S
C168 C170 1.396 . S
C169 C168 1.398 . S
C169 C173 1.407 . S
C170 C168 1.396 . S
C170 C171 1.394 . S
C171 H166 0.929 . S
C171 C170 1.394 . S
C171 C172 1.382 . S
C172 C171 1.382 . S
C172 C173 1.392 . S
C172 N174 1.420 . S
C173 H167 0.930 . S
C173 C169 1.407 . S
C173 C172 1.392 . S
N174 C172 1.420 . S
N174 C175 1.244 . S
C175 N174 1.244 . S
H176 C179 0.929 . S
H177 C182 0.929 . S
H178 C184 0.930 . S
C179 H176 0.929 . S
C179 C180 1.398 . S
C179 C181 1.396 . S
C180 C179 1.398 . S
C180 C184 1.407 . S
C181 C179 1.396 . S
C181 C182 1.394 . S
C182 H177 0.929 . S
C182 C181 1.394 . S
C182 C183 1.382 . S
C183 C182 1.382 . S
C183 C184 1.392 . S
C183 N185 1.420 . S
C184 H178 0.930 . S
C184 C180 1.407 . S
C184 C183 1.392 . S
N185 C183 1.420 . S
N185 C186 1.244 . S
C186 N185 1.244 . S
H187 C190 0.929 . S
H188 C193 0.929 . S
H189 C195 0.930 . S
C190 H187 0.929 . S
C190 C191 1.398 . S
C190 C192 1.396 . S
C191 C190 1.398 . S
C191 C195 1.407 . S
C192 C190 1.396 . S
C192 C193 1.394 . S
C193 H188 0.929 . S
C193 C192 1.394 . S
C193 C194 1.382 . S
C194 C193 1.382 . S
C194 C195 1.392 . S
C194 N196 1.420 . S
C195 H189 0.930 . S
C195 C191 1.407 . S
C195 C194 1.392 . S
N196 C194 1.420 . S
N196 C197 1.244 . S
C197 N196 1.244 . S
Tb198 C208 2.825 1_565 S
Tb198 O209 2.347 1_565 S
Tb198 O212 2.366 1_565 S
Tb198 O217 2.418 . S
Tb198 O218 2.384 . S
Tb198 O221 2.479 . S
Tb198 O222 2.471 1_565 S
Eu199 O210 2.418 . S
Eu199 O211 2.384 . S
Eu199 O214 2.479 . S
Eu199 O215 2.471 1_545 S
Eu199 O216 2.347 1_545 S
Eu199 O219 2.366 1_545 S
Eu199 C229 2.825 . S
C200 O216 1.259 . S
C200 O217 1.265 1_554 S
C201 O218 1.255 1_554 S
C201 O219 1.265 . S
C202 C204 1.380 1_545 S
C202 C205 1.374 . S
C202 C208 1.507 . S
C203 C204 1.384 1_545 S
C203 C207 1.387 . S
C203 H230 0.930 1_545 S
C204 C202 1.380 1_565 S
C204 C203 1.384 1_565 S
C204 H231 0.931 . S
C205 C202 1.374 . S
C205 C206 1.390 . S
C205 H232 0.930 . S
C206 C205 1.390 . S
C206 C207 1.391 . S
C206 H233 0.930 . S
C207 C203 1.387 . S
C207 C206 1.391 . S
C208 Tb198 2.825 1_545 S
C208 C202 1.507 . S
C208 O221 1.238 1_545 S
C208 O222 1.247 . S
O209 Tb198 2.347 1_545 S
O209 C213 1.259 1_556 S
O210 Eu199 2.418 . S
O210 C213 1.265 . S
O211 Eu199 2.384 . S
O211 C220 1.255 1_554 S
O212 Tb198 2.366 1_545 S
O212 C220 1.265 . S
C213 O209 1.259 1_554 S
C213 O210 1.265 . S
O214 Eu199 2.479 . S
O214 C229 1.238 . S
O215 Eu199 2.471 1_565 S
O215 C229 1.247 1_565 S
O216 Eu199 2.347 1_565 S
O216 C200 1.259 . S
O217 Tb198 2.418 . S
O217 C200 1.265 1_556 S
O218 Tb198 2.384 . S
O218 C201 1.255 1_556 S
O219 Eu199 2.366 1_565 S
O219 C201 1.265 . S
C220 O211 1.255 1_556 S
C220 O212 1.265 . S
O221 Tb198 2.479 . S
O221 C208 1.238 1_565 S
O222 Tb198 2.471 1_545 S
O222 C208 1.247 . S
C223 C226 1.380 1_565 S
C223 C227 1.374 . S
C223 C229 1.507 1_565 S
C224 C225 1.387 1_565 S
C224 C228 1.391 . S
C225 C224 1.387 1_545 S
C225 C226 1.384 . S
C225 H234 0.930 . S
C226 C223 1.380 1_545 S
C226 C225 1.384 . S
C226 H235 0.931 . S
C227 C223 1.374 . S
C227 C228 1.390 . S
C227 H236 0.930 . S
C228 C224 1.391 . S
C228 C227 1.390 . S
C228 H237 0.930 . S
C229 Eu199 2.825 . S
C229 O214 1.238 . S
C229 O215 1.247 1_545 S
C229 C223 1.507 1_545 S
H230 C203 0.930 1_565 S
H231 C204 0.931 . S
H232 C205 0.930 . S
H233 C206 0.930 . S
H234 C225 0.930 . S
H235 C226 0.931 . S
H236 C227 0.930 . S
H237 C228 0.930 . S
Tb238 C248 2.830 . S
Tb238 O249 2.347 1_455 S
Tb238 O252 2.366 1_455 S
Tb238 O257 2.418 . S
Tb238 O258 2.384 1_556 S
Tb238 O261 2.479 . S
Tb238 O262 2.471 1_455 S
Eu239 O250 2.418 . S
Eu239 O251 2.384 . S
Eu239 O254 2.479 . S
Eu239 O255 2.471 1_655 S
Eu239 O256 2.347 1_655 S
Eu239 O259 2.366 1_655 S
Eu239 C269 2.825 1_655 S
C240 O256 1.259 . S
C240 O257 1.265 1_554 S
C241 O258 1.255 . S
C241 O259 1.265 . S
C242 C244 1.380 1_655 S
C242 C245 1.374 . S
C242 C248 1.501 1_655 S
C243 C244 1.384 1_655 S
C243 C247 1.387 . S
C243 H270 0.930 1_655 S
C244 C242 1.380 1_455 S
C244 C243 1.384 1_455 S
C244 H271 0.931 . S
C245 C242 1.374 . S
C245 C246 1.390 . S
C245 H272 0.930 . S
C246 C245 1.390 . S
C246 C247 1.391 . S
C246 H273 0.930 . S
C247 C243 1.387 . S
C247 C246 1.391 . S
C248 Tb238 2.830 . S
C248 C242 1.501 1_455 S
C248 O261 1.244 . S
C248 O262 1.246 1_455 S
O249 Tb238 2.347 1_655 S
O249 C253 1.259 . S
O250 Eu239 2.418 . S
O250 C253 1.265 1_554 S
O251 Eu239 2.384 . S
O251 C260 1.255 1_554 S
O252 Tb238 2.366 1_655 S
O252 C260 1.265 . S
C253 O249 1.259 . S
C253 O250 1.265 1_556 S
O254 Eu239 2.479 . S
O254 C269 1.238 1_655 S
O255 Eu239 2.471 1_455 S
O255 C269 1.247 . S
O256 Eu239 2.347 1_455 S
O256 C240 1.259 . S
O257 Tb238 2.418 . S
O257 C240 1.265 1_556 S
O258 Tb238 2.384 1_554 S
O258 C241 1.255 . S
O259 Eu239 2.366 1_455 S
O259 C241 1.265 . S
C260 O251 1.255 1_556 S
C260 O252 1.265 . S
O261 Tb238 2.479 . S
O261 C248 1.244 . S
O262 Tb238 2.471 1_655 S
O262 C248 1.246 1_655 S
C263 C266 1.380 1_455 S
C263 C267 1.374 . S
C263 C269 1.507 . S
C264 C265 1.387 . S
C264 C268 1.391 . S
C265 C264 1.387 . S
C265 C266 1.384 1_455 S
C265 H274 0.930 1_455 S
C266 C263 1.380 1_655 S
C266 C265 1.384 1_655 S
C266 H275 0.931 . S
C267 C263 1.374 . S
C267 C268 1.390 . S
C267 H276 0.930 . S
C268 C264 1.391 . S
C268 C267 1.390 . S
C268 H277 0.930 . S
C269 Eu239 2.825 1_455 S
C269 O254 1.238 1_455 S
C269 O255 1.247 . S
C269 C263 1.507 . S
H270 C243 0.930 1_455 S
H271 C244 0.931 . S
H272 C245 0.930 . S
H273 C246 0.930 . S
H274 C265 0.930 1_655 S
H275 C266 0.931 . S
H276 C267 0.930 . S
H277 C268 0.930 . S
Tb278 C288 2.825 . S
Tb278 O289 2.347 . S
Tb278 O292 2.366 . S
Tb278 O297 2.418 . S
Tb278 O298 2.384 . S
Tb278 O301 2.479 . S
Tb278 O302 2.471 . S
Eu279 O290 2.418 . S
Eu279 O291 2.384 1_556 S
Eu279 O294 2.479 . S
Eu279 O295 2.471 . S
Eu279 O296 2.347 . S
Eu279 O299 2.366 . S
Eu279 C309 2.825 . S
C280 O296 1.259 1_554 S
C280 O297 1.265 . S
C281 O298 1.255 1_556 S
C281 O299 1.265 . S
C282 C284 1.380 . S
C282 C285 1.374 . S
C282 C288 1.507 . S
C283 C284 1.384 . S
C283 C287 1.387 . S
C283 H310 0.930 . S
C284 C282 1.380 . S
C284 C283 1.384 . S
C284 H311 0.931 . S
C285 C282 1.374 . S
C285 C286 1.390 . S
C285 H312 0.930 . S
C286 C285 1.390 . S
C286 C287 1.391 . S
C286 H313 0.930 . S
C287 C283 1.387 . S
C287 C286 1.391 . S
C288 Tb278 2.825 . S
C288 C282 1.507 . S
C288 O301 1.238 . S
C288 O302 1.247 . S
O289 Tb278 2.347 . S
O289 C293 1.259 . S
O290 Eu279 2.418 . S
O290 C293 1.265 1_556 S
O291 Eu279 2.384 1_554 S
O291 C300 1.255 . S
O292 Tb278 2.366 . S
O292 C300 1.265 . S
C293 O289 1.259 . S
C293 O290 1.265 1_554 S
O294 Eu279 2.479 . S
O294 C309 1.238 . S
O295 Eu279 2.471 . S
O295 C309 1.247 . S
O296 Eu279 2.347 . S
O296 C280 1.259 1_556 S
O297 Tb278 2.418 . S
O297 C280 1.265 . S
O298 Tb278 2.384 . S
O298 C281 1.255 1_554 S
O299 Eu279 2.366 . S
O299 C281 1.265 . S
C300 O291 1.255 . S
C300 O292 1.265 . S
O301 Tb278 2.479 . S
O301 C288 1.238 . S
O302 Tb278 2.471 . S
O302 C288 1.247 . S
C303 C306 1.380 . S
C303 C307 1.374 . S
C303 C309 1.507 . S
C304 C305 1.387 . S
C304 C308 1.391 . S
C305 C304 1.387 . S
C305 C306 1.384 . S
C305 H314 0.930 . S
C306 C303 1.380 . S
C306 C305 1.384 . S
C306 H315 0.931 . S
C307 C303 1.374 . S
C307 C308 1.390 . S
C307 H316 0.930 . S
C308 C304 1.391 . S
C308 C307 1.390 . S
C308 H317 0.930 . S
C309 Eu279 2.825 . S
C309 O294 1.238 . S
C309 O295 1.247 . S
C309 C303 1.507 . S
H310 C283 0.930 . S
H311 C284 0.931 . S
H312 C285 0.930 . S
H313 C286 0.930 . S
H314 C305 0.930 . S
H315 C306 0.931 . S
H316 C307 0.930 . S
H317 C308 0.930 . S
Tb318 C328 2.825 . S
Tb318 O329 2.347 . S
Tb318 O332 2.366 . S
Tb318 O337 2.418 . S
Tb318 O338 2.384 . S
Tb318 O341 2.479 . S
Tb318 O342 2.471 . S
Eu319 O330 2.418 . S
Eu319 O331 2.384 . S
Eu319 O334 2.479 . S
Eu319 O335 2.471 . S
Eu319 O336 2.347 . S
Eu319 O339 2.366 . S
Eu319 C349 2.825 . S
C320 O336 1.259 . S
C320 O337 1.265 . S
C321 O338 1.255 . S
C321 O339 1.265 . S
C322 C324 1.380 . S
C322 C325 1.374 . S
C322 C328 1.507 . S
C323 C324 1.384 . S
C323 C327 1.387 . S
C323 H350 0.930 . S
C324 C322 1.380 . S
C324 C323 1.384 . S
C324 H351 0.931 . S
C325 C322 1.374 . S
C325 C326 1.390 . S
C325 H352 0.930 . S
C326 C325 1.390 . S
C326 C327 1.391 . S
C326 H353 0.930 . S
C327 C323 1.387 . S
C327 C326 1.391 . S
C328 Tb318 2.825 . S
C328 C322 1.507 . S
C328 O341 1.238 . S
C328 O342 1.247 . S
O329 Tb318 2.347 . S
O329 C333 1.259 . S
O330 Eu319 2.418 . S
O330 C333 1.265 . S
O331 Eu319 2.384 . S
O331 C340 1.255 . S
O332 Tb318 2.366 . S
O332 C340 1.265 . S
C333 O329 1.259 . S
C333 O330 1.265 . S
O334 Eu319 2.479 . S
O334 C349 1.238 . S
O335 Eu319 2.471 . S
O335 C349 1.247 . S
O336 Eu319 2.347 . S
O336 C320 1.259 . S
O337 Tb318 2.418 . S
O337 C320 1.265 . S
O338 Tb318 2.384 . S
O338 C321 1.255 . S
O339 Eu319 2.366 . S
O339 C321 1.265 . S
C340 O331 1.255 . S
C340 O332 1.265 . S
O341 Tb318 2.479 . S
O341 C328 1.238 . S
O342 Tb318 2.471 . S
O342 C328 1.247 . S
C343 C346 1.380 . S
C343 C347 1.374 . S
C343 C349 1.507 . S
C344 C345 1.387 . S
C344 C348 1.391 . S
C345 C344 1.387 . S
C345 C346 1.384 . S
C345 H354 0.930 . S
C346 C343 1.380 . S
C346 C345 1.384 . S
C346 H355 0.931 . S
C347 C343 1.374 . S
C347 C348 1.390 . S
C347 H356 0.930 . S
C348 C344 1.391 . S
C348 C347 1.390 . S
C348 H357 0.930 . S
C349 Eu319 2.825 . S
C349 O334 1.238 . S
C349 O335 1.247 . S
C349 C343 1.507 . S
H350 C323 0.930 . S
H351 C324 0.931 . S
H352 C325 0.930 . S
H353 C326 0.930 . S
H354 C345 0.930 . S
H355 C346 0.931 . S
H356 C347 0.930 . S
H357 C348 0.930 . S
Tb358 C368 2.825 . S
Tb358 O369 2.347 . S
Tb358 O372 2.366 . S
Tb358 O377 2.418 . S
Tb358 O378 2.384 . S
Tb358 O381 2.479 . S
Tb358 O382 2.471 . S
Eu359 O370 2.418 . S
Eu359 O371 2.384 . S
Eu359 O374 2.479 . S
Eu359 O375 2.471 . S
Eu359 O376 2.347 . S
Eu359 O379 2.366 . S
Eu359 C389 2.825 . S
C360 O376 1.259 . S
C360 O377 1.265 . S
C361 O378 1.255 . S
C361 O379 1.265 . S
C362 C364 1.380 . S
C362 C365 1.374 . S
C362 C368 1.507 . S
C363 C364 1.384 . S
C363 C367 1.387 . S
C363 H390 0.930 . S
C364 C362 1.380 . S
C364 C363 1.384 . S
C364 H391 0.931 . S
C365 C362 1.374 . S
C365 C366 1.390 . S
C365 H392 0.930 . S
C366 C365 1.390 . S
C366 C367 1.391 . S
C366 H393 0.930 . S
C367 C363 1.387 . S
C367 C366 1.391 . S
C368 Tb358 2.825 . S
C368 C362 1.507 . S
C368 O381 1.238 . S
C368 O382 1.247 . S
O369 Tb358 2.347 . S
O369 C373 1.259 . S
O370 Eu359 2.418 . S
O370 C373 1.265 . S
O371 Eu359 2.384 . S
O371 C380 1.255 . S
O372 Tb358 2.366 . S
O372 C380 1.265 . S
C373 O369 1.259 . S
C373 O370 1.265 . S
O374 Eu359 2.479 . S
O374 C389 1.238 . S
O375 Eu359 2.471 . S
O375 C389 1.247 . S
O376 Eu359 2.347 . S
O376 C360 1.259 . S
O377 Tb358 2.418 . S
O377 C360 1.265 . S
O378 Tb358 2.384 . S
O378 C361 1.255 . S
O379 Eu359 2.366 . S
O379 C361 1.265 . S
C380 O371 1.255 . S
C380 O372 1.265 . S
O381 Tb358 2.479 . S
O381 C368 1.238 . S
O382 Tb358 2.471 . S
O382 C368 1.247 . S
C383 C386 1.380 . S
C383 C387 1.374 . S
C383 C389 1.507 . S
C384 C385 1.387 . S
C384 C388 1.391 . S
C385 C384 1.387 . S
C385 C386 1.384 . S
C385 H394 0.930 . S
C386 C383 1.380 . S
C386 C385 1.384 . S
C386 H395 0.931 . S
C387 C383 1.374 . S
C387 C388 1.390 . S
C387 H396 0.930 . S
C388 C384 1.391 . S
C388 C387 1.390 . S
C388 H397 0.930 . S
C389 Eu359 2.825 . S
C389 O374 1.238 . S
C389 O375 1.247 . S
C389 C383 1.507 . S
H390 C363 0.930 . S
H391 C364 0.931 . S
H392 C365 0.930 . S
H393 C366 0.930 . S
H394 C385 0.930 . S
H395 C386 0.931 . S
H396 C387 0.930 . S
H397 C388 0.930 . S
Tb398 C408 2.825 . S
Tb398 O409 2.347 . S
Tb398 O412 2.366 . S
Tb398 O417 2.418 . S
Tb398 O418 2.384 . S
Tb398 O421 2.479 . S
Tb398 O422 2.471 . S
Eu399 O410 2.418 . S
Eu399 O411 2.384 . S
Eu399 O414 2.479 . S
Eu399 O415 2.471 . S
Eu399 O416 2.347 . S
Eu399 O419 2.366 . S
Eu399 C429 2.825 . S
C400 O416 1.259 . S
C400 O417 1.265 . S
C401 O418 1.255 . S
C401 O419 1.265 . S
C402 C404 1.380 . S
C402 C405 1.374 . S
C402 C408 1.507 . S
C403 C404 1.384 . S
C403 C407 1.387 . S
C403 H430 0.930 . S
C404 C402 1.380 . S
C404 C403 1.384 . S
C404 H431 0.931 . S
C405 C402 1.374 . S
C405 C406 1.390 . S
C405 H432 0.930 . S
C406 C405 1.390 . S
C406 C407 1.391 . S
C406 H433 0.930 . S
C407 C403 1.387 . S
C407 C406 1.391 . S
C408 Tb398 2.825 . S
C408 C402 1.507 . S
C408 O421 1.238 . S
C408 O422 1.247 . S
O409 Tb398 2.347 . S
O409 C413 1.259 . S
O410 Eu399 2.418 . S
O410 C413 1.265 . S
O411 Eu399 2.384 . S
O411 C420 1.255 . S
O412 Tb398 2.366 . S
O412 C420 1.265 . S
C413 O409 1.259 . S
C413 O410 1.265 . S
O414 Eu399 2.479 . S
O414 C429 1.238 . S
O415 Eu399 2.471 . S
O415 C429 1.247 . S
O416 Eu399 2.347 . S
O416 C400 1.259 . S
O417 Tb398 2.418 . S
O417 C400 1.265 . S
O418 Tb398 2.384 . S
O418 C401 1.255 . S
O419 Eu399 2.366 . S
O419 C401 1.265 . S
C420 O411 1.255 . S
C420 O412 1.265 . S
O421 Tb398 2.479 . S
O421 C408 1.238 . S
O422 Tb398 2.471 . S
O422 C408 1.247 . S
C423 C426 1.380 . S
C423 C427 1.374 . S
C423 C429 1.507 . S
C424 C425 1.387 . S
C424 C428 1.391 . S
C425 C424 1.387 . S
C425 C426 1.384 . S
C425 H434 0.930 . S
C426 C423 1.380 . S
C426 C425 1.384 . S
C426 H435 0.931 . S
C427 C423 1.374 . S
C427 C428 1.390 . S
C427 H436 0.930 . S
C428 C424 1.391 . S
C428 C427 1.390 . S
C428 H437 0.930 . S
C429 Eu399 2.825 . S
C429 O414 1.238 . S
C429 O415 1.247 . S
C429 C423 1.507 . S
H430 C403 0.930 . S
H431 C404 0.931 . S
H432 C405 0.930 . S
H433 C406 0.930 . S
H434 C425 0.930 . S
H435 C426 0.931 . S
H436 C427 0.930 . S
H437 C428 0.930 . S
Tb438 C448 2.825 . S
Tb438 O449 2.347 . S
Tb438 O452 2.366 . S
Tb438 O457 2.418 . S
Tb438 O458 2.384 . S
Tb438 O461 2.479 . S
Tb438 O462 2.471 . S
Eu439 O450 2.418 . S
Eu439 O451 2.384 . S
Eu439 O454 2.479 . S
Eu439 O455 2.471 . S
Eu439 O456 2.347 . S
Eu439 O459 2.366 . S
Eu439 C469 2.825 . S
C440 O456 1.259 . S
C440 O457 1.265 . S
C441 O458 1.255 . S
C441 O459 1.265 . S
C442 C444 1.380 . S
C442 C445 1.374 . S
C442 C448 1.507 . S
C443 C444 1.384 . S
C443 C447 1.387 . S
C443 H470 0.930 . S
C444 C442 1.380 . S
C444 C443 1.384 . S
C444 H471 0.931 . S
C445 C442 1.374 . S
C445 C446 1.390 . S
C445 H472 0.930 . S
C446 C445 1.390 . S
C446 C447 1.391 . S
C446 H473 0.930 . S
C447 C443 1.387 . S
C447 C446 1.391 . S
C448 Tb438 2.825 . S
C448 C442 1.507 . S
C448 O461 1.238 . S
C448 O462 1.247 . S
O449 Tb438 2.347 . S
O449 C453 1.259 . S
O450 Eu439 2.418 . S
O450 C453 1.265 . S
O451 Eu439 2.384 . S
O451 C460 1.255 . S
O452 Tb438 2.366 . S
O452 C460 1.265 . S
C453 O449 1.259 . S
C453 O450 1.265 . S
O454 Eu439 2.479 . S
O454 C469 1.238 . S
O455 Eu439 2.471 . S
O455 C469 1.247 . S
O456 Eu439 2.347 . S
O456 C440 1.259 . S
O457 Tb438 2.418 . S
O457 C440 1.265 . S
O458 Tb438 2.384 . S
O458 C441 1.255 . S
O459 Eu439 2.366 . S
O459 C441 1.265 . S
C460 O451 1.255 . S
C460 O452 1.265 . S
O461 Tb438 2.479 . S
O461 C448 1.238 . S
O462 Tb438 2.471 . S
O462 C448 1.247 . S
C463 C466 1.380 . S
C463 C467 1.374 . S
C463 C469 1.507 . S
C464 C465 1.387 . S
C464 C468 1.391 . S
C465 C464 1.387 . S
C465 C466 1.384 . S
C465 H474 0.930 . S
C466 C463 1.380 . S
C466 C465 1.384 . S
C466 H475 0.931 . S
C467 C463 1.374 . S
C467 C468 1.390 . S
C467 H476 0.930 . S
C468 C464 1.391 . S
C468 C467 1.390 . S
C468 H477 0.930 . S
C469 Eu439 2.825 . S
C469 O454 1.238 . S
C469 O455 1.247 . S
C469 C463 1.507 . S
H470 C443 0.930 . S
H471 C444 0.931 . S
H472 C445 0.930 . S
H473 C446 0.930 . S
H474 C465 0.930 . S
H475 C466 0.931 . S
H476 C467 0.930 . S
H477 C468 0.930 . S
Tb478 C488 2.825 . S
Tb478 O489 2.347 . S
Tb478 O492 2.366 . S
Tb478 O497 2.418 . S
Tb478 O498 2.384 . S
Tb478 O501 2.479 . S
Tb478 O502 2.471 . S
Eu479 O490 2.418 . S
Eu479 O491 2.384 . S
Eu479 O494 2.479 . S
Eu479 O495 2.471 . S
Eu479 O496 2.347 . S
Eu479 O499 2.366 . S
Eu479 C509 2.825 . S
C480 O496 1.259 . S
C480 O497 1.265 . S
C481 O498 1.255 . S
C481 O499 1.265 . S
C482 C484 1.380 . S
C482 C485 1.374 . S
C482 C488 1.507 . S
C483 C484 1.384 . S
C483 C487 1.387 . S
C483 H510 0.930 . S
C484 C482 1.380 . S
C484 C483 1.384 . S
C484 H511 0.931 . S
C485 C482 1.374 . S
C485 C486 1.390 . S
C485 H512 0.930 . S
C486 C485 1.390 . S
C486 C487 1.391 . S
C486 H513 0.930 . S
C487 C483 1.387 . S
C487 C486 1.391 . S
C488 Tb478 2.825 . S
C488 C482 1.507 . S
C488 O501 1.238 . S
C488 O502 1.247 . S
O489 Tb478 2.347 . S
O489 C493 1.259 . S
O490 Eu479 2.418 . S
O490 C493 1.265 . S
O491 Eu479 2.384 . S
O491 C500 1.255 . S
O492 Tb478 2.366 . S
O492 C500 1.265 . S
C493 O489 1.259 . S
C493 O490 1.265 . S
O494 Eu479 2.479 . S
O494 C509 1.238 . S
O495 Eu479 2.471 . S
O495 C509 1.247 . S
O496 Eu479 2.347 . S
O496 C480 1.259 . S
O497 Tb478 2.418 . S
O497 C480 1.265 . S
O498 Tb478 2.384 . S
O498 C481 1.255 . S
O499 Eu479 2.366 . S
O499 C481 1.265 . S
C500 O491 1.255 . S
C500 O492 1.265 . S
O501 Tb478 2.479 . S
O501 C488 1.238 . S
O502 Tb478 2.471 . S
O502 C488 1.247 . S
C503 C506 1.380 . S
C503 C507 1.374 . S
C503 C509 1.507 . S
C504 C505 1.387 . S
C504 C508 1.391 . S
C505 C504 1.387 . S
C505 C506 1.384 . S
C505 H514 0.930 . S
C506 C503 1.380 . S
C506 C505 1.384 . S
C506 H515 0.931 . S
C507 C503 1.374 . S
C507 C508 1.390 . S
C507 H516 0.930 . S
C508 C504 1.391 . S
C508 C507 1.390 . S
C508 H517 0.930 . S
C509 Eu479 2.825 . S
C509 O494 1.238 . S
C509 O495 1.247 . S
C509 C503 1.507 . S
H510 C483 0.930 . S
H511 C484 0.931 . S
H512 C485 0.930 . S
H513 C486 0.930 . S
H514 C505 0.930 . S
H515 C506 0.931 . S
H516 C507 0.930 . S
H517 C508 0.930 . S
Tb518 C528 2.825 . S
Tb518 O529 2.347 . S
Tb518 O532 2.366 . S
Tb518 O537 2.418 . S
Tb518 O538 2.384 . S
Tb518 O541 2.479 . S
Tb518 O542 2.471 . S
Eu519 O530 2.418 . S
Eu519 O531 2.384 . S
Eu519 O534 2.479 . S
Eu519 O535 2.471 . S
Eu519 O536 2.347 . S
Eu519 O539 2.366 . S
Eu519 C549 2.825 . S
C520 O536 1.259 . S
C520 O537 1.265 . S
C521 O538 1.255 . S
C521 O539 1.265 . S
C522 C524 1.380 . S
C522 C525 1.374 . S
C522 C528 1.507 . S
C523 C524 1.384 . S
C523 C527 1.387 . S
C523 H550 0.930 . S
C524 C522 1.380 . S
C524 C523 1.384 . S
C524 H551 0.931 . S
C525 C522 1.374 . S
C525 C526 1.390 . S
C525 H552 0.930 . S
C526 C525 1.390 . S
C526 C527 1.391 . S
C526 H553 0.930 . S
C527 C523 1.387 . S
C527 C526 1.391 . S
C528 Tb518 2.825 . S
C528 C522 1.507 . S
C528 O541 1.238 . S
C528 O542 1.247 . S
O529 Tb518 2.347 . S
O529 C533 1.259 . S
O530 Eu519 2.418 . S
O530 C533 1.265 . S
O531 Eu519 2.384 . S
O531 C540 1.255 . S
O532 Tb518 2.366 . S
O532 C540 1.265 . S
C533 O529 1.259 . S
C533 O530 1.265 . S
O534 Eu519 2.479 . S
O534 C549 1.238 . S
O535 Eu519 2.471 . S
O535 C549 1.247 . S
O536 Eu519 2.347 . S
O536 C520 1.259 . S
O537 Tb518 2.418 . S
O537 C520 1.265 . S
O538 Tb518 2.384 . S
O538 C521 1.255 . S
O539 Eu519 2.366 . S
O539 C521 1.265 . S
C540 O531 1.255 . S
C540 O532 1.265 . S
O541 Tb518 2.479 . S
O541 C528 1.238 . S
O542 Tb518 2.471 . S
O542 C528 1.247 . S
C543 C546 1.380 . S
C543 C547 1.374 . S
C543 C549 1.507 . S
C544 C545 1.387 . S
C544 C548 1.391 . S
C545 C544 1.387 . S
C545 C546 1.384 . S
C545 H554 0.930 . S
C546 C543 1.380 . S
C546 C545 1.384 . S
C546 H555 0.931 . S
C547 C543 1.374 . S
C547 C548 1.390 . S
C547 H556 0.930 . S
C548 C544 1.391 . S
C548 C547 1.390 . S
C548 H557 0.930 . S
C549 Eu519 2.825 . S
C549 O534 1.238 . S
C549 O535 1.247 . S
C549 C543 1.507 . S
H550 C523 0.930 . S
H551 C524 0.931 . S
H552 C525 0.930 . S
H553 C526 0.930 . S
H554 C545 0.930 . S
H555 C546 0.931 . S
H556 C547 0.930 . S
H557 C548 0.930 . S
C558 C559 1.363 . S
C558 C564 1.379 . S
C558 N566 1.356 . S
C559 C558 1.363 . S
C559 C565 1.363 . S
C560 C561 1.363 . S
C560 C565 1.379 . S
C560 N567 1.356 . S
C561 C560 1.363 . S
C561 C564 1.363 . S
N562 C564 1.356 1_556 S
N562 H574 0.984 . S
N562 H575 0.985 . S
N563 C565 1.356 . S
N563 H568 0.984 . S
N563 H569 0.985 . S
C564 C558 1.379 . S
C564 C561 1.363 . S
C564 N562 1.356 1_554 S
C565 C559 1.363 . S
C565 C560 1.379 . S
C565 N563 1.356 . S
N566 C558 1.356 . S
N566 H572 0.984 1_554 S
N566 H573 0.984 . S
N567 C560 1.356 . S
N567 H570 0.984 . S
N567 H571 0.985 . S
H568 N563 0.984 . S
H569 N563 0.985 . S
H570 N567 0.984 . S
H571 N567 0.985 . S
H572 N566 0.984 1_556 S
H573 N566 0.984 . S
H574 N562 0.984 . S
H575 N562 0.985 . S
C576 C577 1.363 . S
C576 C582 1.379 . S
C576 N584 1.356 . S
C577 C576 1.363 . S
C577 C583 1.363 . S
C578 C579 1.363 . S
C578 C583 1.379 . S
C578 N585 1.356 . S
C579 C578 1.363 . S
C579 C582 1.363 . S
N580 C582 1.323 1_556 S
N580 H592 1.018 . S
N580 H593 0.985 . S
N581 C583 1.356 . S
N581 H586 0.984 . S
N581 H587 0.985 . S
C582 C576 1.379 . S
C582 C579 1.363 . S
C582 N580 1.323 1_554 S
C583 C577 1.363 . S
C583 C578 1.379 . S
C583 N581 1.356 . S
N584 C576 1.356 . S
N584 H590 0.984 . S
N584 H591 0.984 . S
N585 C578 1.356 . S
N585 H588 0.984 . S
N585 H589 0.985 . S
H586 N581 0.984 . S
H587 N581 0.985 . S
H588 N585 0.984 . S
H589 N585 0.985 . S
H590 N584 0.984 . S
H591 N584 0.984 . S
H592 N580 1.018 . S
H593 N580 0.985 . S
C594 C595 1.363 . S
C594 C600 1.379 . S
C594 N602 1.356 1_554 S
C595 C594 1.363 . S
C595 C601 1.363 . S
C596 C597 1.363 . S
C596 C601 1.379 . S
C596 N603 1.356 . S
C597 C596 1.363 . S
C597 C600 1.363 . S
N598 C600 1.356 1_556 S
N598 H610 0.984 . S
N598 H611 0.985 . S
N599 C601 1.356 . S
N599 H604 0.984 . S
N599 H605 0.985 . S
C600 C594 1.379 . S
C600 C597 1.363 . S
C600 N598 1.356 1_554 S
C601 C595 1.363 . S
C601 C596 1.379 . S
C601 N599 1.356 . S
N602 C594 1.356 1_556 S
N602 H608 0.984 . S
N602 H609 0.984 1_556 S
N603 C596 1.356 . S
N603 H606 0.984 . S
N603 H607 0.985 . S
H604 N599 0.984 . S
H605 N599 0.985 . S
H606 N603 0.984 . S
H607 N603 0.985 . S
H608 N602 0.984 . S
H609 N602 0.984 1_554 S
H610 N598 0.984 . S
H611 N598 0.985 . S
C612 C613 1.363 . S
C612 C618 1.379 . S
C612 N620 1.356 . S
C613 C612 1.363 . S
C613 C619 1.363 . S
C614 C615 1.363 . S
C614 C619 1.379 . S
C614 N621 1.356 1_556 S
C615 C614 1.363 . S
C615 C618 1.363 . S
N616 C618 1.356 . S
N616 H628 0.984 . S
N616 H629 0.985 . S
N617 C619 1.343 1_554 S
N617 H622 0.974 1_554 S
N617 H623 1.009 . S
C618 C612 1.379 . S
C618 C615 1.363 . S
C618 N616 1.356 . S
C619 C613 1.363 . S
C619 C614 1.379 . S
C619 N617 1.343 1_556 S
N620 C612 1.356 . S
N620 H626 0.984 . S
N620 H627 0.984 . S
N621 C614 1.356 1_554 S
N621 H624 0.984 . S
N621 H625 0.985 . S
H622 N617 0.974 1_556 S
H623 N617 1.009 . S
H624 N621 0.984 . S
H625 N621 0.985 . S
H626 N620 0.984 . S
H627 N620 0.984 . S
H628 N616 0.984 . S
H629 N616 0.985 . S
C630 C631 1.363 . S
C630 C636 1.379 . S
C630 N638 1.356 . S
C631 C630 1.363 . S
C631 C637 1.363 . S
C632 C633 1.363 . S
C632 C637 1.379 . S
C632 N639 1.356 1_556 S
C633 C632 1.363 . S
C633 C636 1.363 . S
N634 C636 1.356 . S
N634 H646 0.984 . S
N634 H647 0.985 . S
N635 C637 1.356 . S
N635 H640 0.984 . S
N635 H641 0.985 . S
C636 C630 1.379 . S
C636 C633 1.363 . S
C636 N634 1.356 . S
C637 C631 1.363 . S
C637 C632 1.379 . S
C637 N635 1.356 . S
N638 C630 1.356 . S
N638 H644 0.984 . S
N638 H645 0.984 . S
N639 C632 1.356 1_554 S
N639 H642 0.984 . S
N639 H643 0.985 . S
H640 N635 0.984 . S
H641 N635 0.985 . S
H642 N639 0.984 . S
H643 N639 0.985 . S
H644 N638 0.984 . S
H645 N638 0.984 . S
H646 N634 0.984 . S
H647 N634 0.985 . S
C648 C649 1.363 . S
C648 C654 1.379 . S
C648 N656 1.356 . S
C649 C648 1.363 . S
C649 C655 1.363 . S
C650 C651 1.363 1_554 S
C650 C655 1.379 1_554 S
C650 N657 1.356 . S
C651 C650 1.363 1_556 S
C651 C654 1.363 . S
N652 C654 1.356 . S
N652 H664 0.984 . S
N652 H665 0.985 . S
N653 C655 1.356 1_554 S
N653 H658 0.984 1_554 S
N653 H659 0.985 . S
C654 C648 1.379 . S
C654 C651 1.363 . S
C654 N652 1.356 . S
C655 C649 1.363 . S
C655 C650 1.379 1_556 S
C655 N653 1.356 1_556 S
N656 C648 1.356 . S
N656 H662 0.984 . S
N656 H663 0.984 . S
N657 C650 1.356 . S
N657 H660 0.984 . S
N657 H661 0.985 . S
H658 N653 0.984 1_556 S
H659 N653 0.985 . S
H660 N657 0.984 . S
H661 N657 0.985 . S
H662 N656 0.984 . S
H663 N656 0.984 . S
H664 N652 0.984 . S
H665 N652 0.985 . S
C666 C667 1.363 . S
C666 C672 1.379 . S
C666 N674 1.356 . S
C667 C666 1.363 . S
C667 C673 1.363 . S
C668 C669 1.363 . S
C668 C673 1.379 . S
C668 N675 1.356 . S
C669 C668 1.363 . S
C669 C672 1.363 . S
N670 C672 1.356 . S
N670 H682 0.984 . S
N670 H683 0.985 . S
N671 C673 1.356 . S
N671 H676 0.984 . S
N671 H677 0.985 . S
C672 C666 1.379 . S
C672 C669 1.363 . S
C672 N670 1.356 . S
C673 C667 1.363 . S
C673 C668 1.379 . S
C673 N671 1.356 . S
N674 C666 1.356 . S
N674 H680 0.984 . S
N674 H681 0.984 . S
N675 C668 1.356 . S
N675 H678 0.984 . S
N675 H679 0.982 1_545 S
H676 N671 0.984 . S
H677 N671 0.985 . S
H678 N675 0.984 . S
H679 N675 0.982 1_565 S
H680 N674 0.984 . S
H681 N674 0.984 . S
H682 N670 0.984 . S
H683 N670 0.985 . S
C684 C685 1.363 . S
C684 C690 1.379 . S
C684 N692 1.356 . S
C685 C684 1.363 . S
C685 C691 1.363 . S
C686 C687 1.363 . S
C686 C691 1.379 . S
C686 N693 1.356 . S
C687 C686 1.363 . S
C687 C690 1.363 . S
N688 C690 1.356 1_554 S
N688 H700 0.984 . S
N688 H701 0.985 . S
N689 C691 1.356 . S
N689 H694 0.984 . S
N689 H695 0.985 . S
C690 C684 1.379 . S
C690 C687 1.363 . S
C690 N688 1.356 1_556 S
C691 C685 1.363 . S
C691 C686 1.379 . S
C691 N689 1.356 . S
N692 C684 1.356 . S
N692 H698 0.984 1_556 S
N692 H699 0.984 . S
N693 C686 1.356 . S
N693 H696 0.984 . S
N693 H697 0.985 . S
H694 N689 0.984 . S
H695 N689 0.985 . S
H696 N693 0.984 . S
H697 N693 0.985 . S
H698 N692 0.984 1_554 S
H699 N692 0.984 . S
H700 N688 0.984 . S
H701 N688 0.985 . S
C702 C703 1.363 1_554 S
C702 C708 1.379 . S
C702 N710 1.356 . S
C703 C702 1.363 1_556 S
C703 C709 1.363 . S
C704 C705 1.363 . S
C704 C709 1.379 . S
C704 N711 1.356 . S
C705 C704 1.363 . S
C705 C708 1.363 1_556 S
N706 C708 1.356 . S
N706 H718 0.984 . S
N706 H719 0.985 . S
N707 C709 1.356 . S
N707 H712 0.984 . S
N707 H713 0.985 . S
C708 C702 1.379 . S
C708 C705 1.363 1_554 S
C708 N706 1.356 . S
C709 C703 1.363 . S
C709 C704 1.379 . S
C709 N707 1.356 . S
N710 C702 1.356 . S
N710 H716 0.984 . S
N710 H717 0.984 . S
N711 C704 1.356 . S
N711 H714 0.984 . S
N711 H715 0.985 . S
H712 N707 0.984 . S
H713 N707 0.985 . S
H714 N711 0.984 . S
H715 N711 0.985 . S
H716 N710 0.984 . S
H717 N710 0.984 . S
H718 N706 0.984 . S
H719 N706 0.985 . S
C720 C721 1.363 . S
C720 C726 1.379 . S
C720 N728 1.356 . S
C721 C720 1.363 . S
C721 C727 1.363 . S
C722 C723 1.378 . S
C722 C727 1.379 . S
C722 N729 1.345 1_554 S
C723 C722 1.378 . S
C723 C726 1.363 . S
N724 C726 1.356 . S
N724 H736 0.984 . S
N724 H737 0.985 . S
N725 C727 1.356 1_556 S
N725 H730 0.984 . S
N725 H731 0.985 . S
C726 C720 1.379 . S
C726 C723 1.363 . S
C726 N724 1.356 . S
C727 C721 1.363 . S
C727 C722 1.379 . S
C727 N725 1.356 1_554 S
N728 C720 1.356 . S
N728 H734 0.984 . S
N728 H735 0.984 . S
N729 C722 1.345 1_556 S
N729 H732 0.984 . S
N729 H733 0.985 . S
H730 N725 0.984 . S
H731 N725 0.985 . S
H732 N729 0.984 . S
H733 N729 0.985 . S
H734 N728 0.984 . S
H735 N728 0.984 . S
H736 N724 0.984 . S
H737 N724 0.985 . S
C738 C739 1.363 . S
C738 C744 1.379 . S
C738 N746 1.356 . S
C739 C738 1.363 . S
C739 C745 1.363 . S
C740 C741 1.363 . S
C740 C745 1.379 . S
C740 N747 1.356 . S
C741 C740 1.363 . S
C741 C744 1.363 . S
N742 C744 1.356 . S
N742 H754 0.984 . S
N742 H755 0.985 . S
N743 C745 1.356 . S
N743 H748 0.984 . S
N743 H749 0.985 . S
C744 C738 1.379 . S
C744 C741 1.363 . S
C744 N742 1.356 . S
C745 C739 1.363 . S
C745 C740 1.379 . S
C745 N743 1.356 . S
N746 C738 1.356 . S
N746 H752 0.984 . S
N746 H753 0.984 . S
N747 C740 1.356 . S
N747 H750 0.984 . S
N747 H751 0.985 . S
H748 N743 0.984 . S
H749 N743 0.985 . S
H750 N747 0.984 . S
H751 N747 0.985 . S
H752 N746 0.984 . S
H753 N746 0.984 . S
H754 N742 0.984 . S
H755 N742 0.985 . S
C756 C757 1.363 . S
C756 C762 1.379 . S
C756 N764 1.356 . S
C757 C756 1.363 . S
C757 C763 1.363 1_554 S
C758 C759 1.363 1_556 S
C758 C763 1.379 . S
C758 N765 1.356 . S
C759 C758 1.363 1_554 S
C759 C762 1.363 . S
N760 C762 1.356 . S
N760 H772 0.984 . S
N760 H773 0.985 . S
N761 C763 1.356 . S
N761 H766 0.984 . S
N761 H767 0.985 . S
C762 C756 1.379 . S
C762 C759 1.363 . S
C762 N760 1.356 . S
C763 C757 1.363 1_556 S
C763 C758 1.379 . S
C763 N761 1.356 . S
N764 C756 1.356 . S
N764 H770 0.984 . S
N764 H771 0.984 . S
N765 C758 1.356 . S
N765 H768 0.984 . S
N765 H769 0.985 . S
H766 N761 0.984 . S
H767 N761 0.985 . S
H768 N765 0.984 . S
H769 N765 0.985 . S
H770 N764 0.984 . S
H771 N764 0.984 . S
H772 N760 0.984 . S
H773 N760 0.985 . S
C774 C775 1.363 . S
C774 C780 1.379 . S
C774 N782 1.356 . S
C775 C774 1.363 . S
C775 C781 1.363 . S
C776 C777 1.363 . S
C776 C781 1.379 1_455 S
C776 N783 1.356 . S
C777 C776 1.363 . S
C777 C780 1.363 1_455 S
N778 C780 1.356 1_455 S
N778 H790 0.985 . S
N778 H791 0.985 . S
N779 C781 1.356 . S
N779 H784 0.984 . S
N779 H785 0.985 . S
C780 C774 1.379 . S
C780 C777 1.363 1_655 S
C780 N778 1.356 1_655 S
C781 C775 1.363 . S
C781 C776 1.379 1_655 S
C781 N779 1.356 . S
N782 C774 1.356 . S
N782 H788 0.984 . S
N782 H789 0.984 . S
N783 C776 1.356 . S
N783 H786 0.984 . S
N783 H787 0.985 . S
H784 N779 0.984 . S
H785 N779 0.985 . S
H786 N783 0.984 . S
H787 N783 0.985 . S
H788 N782 0.984 . S
H789 N782 0.984 . S
H790 N778 0.985 . S
H791 N778 0.985 . S
C792 C793 1.363 . S
C792 C798 1.379 . S
C792 N800 1.356 . S
C793 C792 1.363 . S
C793 C799 1.363 . S
C794 C795 1.363 . S
C794 C799 1.379 . S
C794 N801 1.356 . S
C795 C794 1.363 . S
C795 C798 1.363 . S
N796 C798 1.356 . S
N796 H808 0.984 . S
N796 H809 0.985 . S
N797 C799 1.356 . S
N797 H802 0.984 . S
N797 H803 0.985 . S
C798 C792 1.379 . S
C798 C795 1.363 . S
C798 N796 1.356 . S
C799 C793 1.363 . S
C799 C794 1.379 . S
C799 N797 1.356 . S
N800 C792 1.356 . S
N800 H806 0.984 . S
N800 H807 0.984 . S
N801 C794 1.356 . S
N801 H804 0.984 . S
N801 H805 0.985 . S
H802 N797 0.984 . S
H803 N797 0.985 . S
H804 N801 0.984 . S
H805 N801 0.985 . S
H806 N800 0.984 . S
H807 N800 0.984 . S
H808 N796 0.984 . S
H809 N796 0.985 . S
C810 C811 1.363 . S
C810 C816 1.379 . S
C810 N818 1.356 . S
C811 C810 1.363 . S
C811 C817 1.363 . S
C812 C813 1.363 1_545 S
C812 C817 1.379 . S
C812 N819 1.356 1_545 S
C813 C812 1.363 1_565 S
C813 C816 1.363 1_565 S
N814 C816 1.356 1_565 S
N814 H826 0.984 . S
N814 H827 0.985 . S
N815 C817 1.356 . S
N815 H820 0.984 . S
N815 H821 0.985 . S
C816 C810 1.379 . S
C816 C813 1.363 1_545 S
C816 N814 1.356 1_545 S
C817 C811 1.363 . S
C817 C812 1.379 . S
C817 N815 1.356 . S
N818 C810 1.356 . S
N818 H824 0.984 . S
N818 H825 0.984 . S
N819 C812 1.356 1_565 S
N819 H822 0.984 . S
N819 H823 0.985 . S
H820 N815 0.984 . S
H821 N815 0.985 . S
H822 N819 0.984 . S
H823 N819 0.985 . S
H824 N818 0.984 . S
H825 N818 0.984 . S
H826 N814 0.984 . S
H827 N814 0.985 . S
C828 C829 1.363 . S
C828 C834 1.379 . S
C828 N836 1.356 . S
C829 C828 1.363 . S
C829 C835 1.363 . S
C830 C831 1.363 . S
C830 C835 1.379 . S
C830 N837 1.356 . S
C831 C830 1.363 . S
C831 C834 1.363 . S
N832 C834 1.356 . S
N832 H844 0.984 . S
N832 H845 0.985 . S
N833 C835 1.356 . S
N833 H838 0.984 . S
N833 H839 0.985 . S
C834 C828 1.379 . S
C834 C831 1.363 . S
C834 N832 1.356 . S
C835 C829 1.363 . S
C835 C830 1.379 . S
C835 N833 1.356 . S
N836 C828 1.356 . S
N836 H842 0.984 . S
N836 H843 0.984 . S
N837 C830 1.356 . S
N837 H840 0.984 . S
N837 H841 0.985 . S
H838 N833 0.984 . S
H839 N833 0.985 . S
H840 N837 0.984 . S
H841 N837 0.985 . S
H842 N836 0.984 . S
H843 N836 0.984 . S
H844 N832 0.984 . S
H845 N832 0.985 . S
C846 C847 1.363 . S
C846 C852 1.379 . S
C846 N854 1.356 . S
C847 C846 1.363 . S
C847 C853 1.363 . S
C848 C849 1.363 . S
C848 C853 1.379 . S
C848 N855 1.356 . S
C849 C848 1.363 . S
C849 C852 1.363 . S
N850 C852 1.356 . S
N850 H862 0.984 . S
N850 H863 0.985 . S
N851 C853 1.356 . S
N851 H856 0.984 . S
N851 H857 0.985 . S
C852 C846 1.379 . S
C852 C849 1.363 . S
C852 N850 1.356 . S
C853 C847 1.363 . S
C853 C848 1.379 . S
C853 N851 1.356 . S
N854 C846 1.356 . S
N854 H860 0.984 . S
N854 H861 0.984 . S
N855 C848 1.356 . S
N855 H858 0.984 . S
N855 H859 0.985 . S
H856 N851 0.984 . S
H857 N851 0.985 . S
H858 N855 0.984 . S
H859 N855 0.985 . S
H860 N854 0.984 . S
H861 N854 0.984 . S
H862 N850 0.984 . S
H863 N850 0.985 . S
C864 C865 1.363 . S
C864 C870 1.379 . S
C864 N872 1.356 . S
C865 C864 1.363 . S
C865 C871 1.363 . S
C866 C867 1.363 . S
C866 C871 1.379 . S
C866 N873 1.356 . S
C867 C866 1.363 . S
C867 C870 1.363 . S
N868 C870 1.356 . S
N868 H880 0.984 . S
N868 H881 0.985 . S
N869 C871 1.356 . S
N869 H874 0.984 . S
N869 H875 0.985 1_455 S
C870 C864 1.379 . S
C870 C867 1.363 . S
C870 N868 1.356 . S
C871 C865 1.363 . S
C871 C866 1.379 . S
C871 N869 1.356 . S
N872 C864 1.356 . S
N872 H878 0.984 . S
N872 H879 0.984 . S
N873 C866 1.356 . S
N873 H876 0.984 . S
N873 H877 0.985 . S
H874 N869 0.984 . S
H875 N869 0.985 1_655 S
H876 N873 0.984 . S
H877 N873 0.985 . S
H878 N872 0.984 . S
H879 N872 0.984 . S
H880 N868 0.984 . S
H881 N868 0.985 . S
C882 C883 1.363 . S
C882 C888 1.379 . S
C882 N890 1.356 . S
C883 C882 1.363 . S
C883 C889 1.363 . S
C884 C885 1.363 . S
C884 C889 1.379 . S
C884 N891 1.356 . S
C885 C884 1.363 . S
C885 C888 1.363 . S
N886 C888 1.356 . S
N886 H898 0.984 . S
N886 H899 0.985 . S
N887 C889 1.356 . S
N887 H892 0.984 . S
N887 H893 0.985 . S
C888 C882 1.379 . S
C888 C885 1.363 . S
C888 N886 1.356 . S
C889 C883 1.363 . S
C889 C884 1.379 . S
C889 N887 1.356 . S
N890 C882 1.356 . S
N890 H896 0.984 . S
N890 H897 0.984 . S
N891 C884 1.356 . S
N891 H894 0.984 . S
N891 H895 0.985 . S
H892 N887 0.984 . S
H893 N887 0.985 . S
H894 N891 0.984 . S
H895 N891 0.985 . S
H896 N890 0.984 . S
H897 N890 0.984 . S
H898 N886 0.984 . S
H899 N886 0.985 . S
C900 C901 1.363 . S
C900 C906 1.379 . S
C900 N908 1.356 . S
C901 C900 1.363 . S
C901 C907 1.363 . S
C902 C903 1.363 . S
C902 C907 1.379 . S
C902 N909 1.356 . S
C903 C902 1.363 . S
C903 C906 1.363 . S
N904 C906 1.356 . S
N904 H916 0.984 . S
N904 H917 0.985 . S
N905 C907 1.356 . S
N905 H910 0.984 . S
N905 H911 0.985 . S
C906 C900 1.379 . S
C906 C903 1.363 . S
C906 N904 1.356 . S
C907 C901 1.363 . S
C907 C902 1.379 . S
C907 N905 1.356 . S
N908 C900 1.356 . S
N908 H914 0.984 . S
N908 H915 0.984 . S
N909 C902 1.356 . S
N909 H912 0.984 . S
N909 H913 0.985 . S
H910 N905 0.984 . S
H911 N905 0.985 . S
H912 N909 0.984 . S
H913 N909 0.985 . S
H914 N908 0.984 . S
H915 N908 0.984 . S
H916 N904 0.984 . S
H917 N904 0.985 . S
C918 C919 1.363 . S
C918 C924 1.379 . S
C918 N926 1.356 . S
C919 C918 1.363 . S
C919 C925 1.363 . S
C920 C921 1.363 . S
C920 C925 1.379 . S
C920 N927 1.356 . S
C921 C920 1.363 . S
C921 C924 1.363 . S
N922 C924 1.356 . S
N922 H934 0.984 . S
N922 H935 0.985 . S
N923 C925 1.356 . S
N923 H928 0.984 . S
N923 H929 0.985 . S
C924 C918 1.379 . S
C924 C921 1.363 . S
C924 N922 1.356 . S
C925 C919 1.363 . S
C925 C920 1.379 . S
C925 N923 1.356 . S
N926 C918 1.356 . S
N926 H932 0.984 . S
N926 H933 0.984 . S
N927 C920 1.356 . S
N927 H930 0.984 . S
N927 H931 0.985 . S
H928 N923 0.984 . S
H929 N923 0.985 . S
H930 N927 0.984 . S
H931 N927 0.985 . S
H932 N926 0.984 . S
H933 N926 0.984 . S
H934 N922 0.984 . S
H935 N922 0.985 . S
C936 C937 1.363 1_565 S
C936 C942 1.379 . S
C936 N944 1.356 1_565 S
C937 C936 1.363 1_545 S
C937 C943 1.363 1_545 S
C938 C939 1.363 . S
C938 C943 1.379 . S
C938 N945 1.356 . S
C939 C938 1.363 . S
C939 C942 1.363 . S
N940 C942 1.356 . S
N940 H952 0.984 . S
N940 H953 0.985 . S
N941 C943 1.356 1_545 S
N941 H946 0.984 . S
N941 H947 0.985 . S
C942 C936 1.379 . S
C942 C939 1.363 . S
C942 N940 1.356 . S
C943 C937 1.363 1_565 S
C943 C938 1.379 . S
C943 N941 1.356 1_565 S
N944 C936 1.356 1_545 S
N944 H950 0.984 . S
N944 H951 0.984 . S
N945 C938 1.356 . S
N945 H948 0.984 . S
N945 H949 0.985 . S
H946 N941 0.984 . S
H947 N941 0.985 . S
H948 N945 0.984 . S
H949 N945 0.985 . S
H950 N944 0.984 . S
H951 N944 0.984 . S
H952 N940 0.984 . S
H953 N940 0.985 . S
C954 C955 1.363 . S
C954 C960 1.379 . S
C954 N962 1.356 1_455 S
C955 C954 1.363 . S
C955 C961 1.363 . S
C956 C957 1.363 . S
C956 C961 1.379 . S
C956 N963 1.356 . S
C957 C956 1.363 . S
C957 C960 1.363 . S
N958 C960 1.356 . S
N958 H970 0.984 . S
N958 H971 0.985 . S
N959 C961 1.356 . S
N959 H964 0.984 . S
N959 H965 0.985 . S
C960 C954 1.379 . S
C960 C957 1.363 . S
C960 N958 1.356 . S
C961 C955 1.363 . S
C961 C956 1.379 . S
C961 N959 1.356 . S
N962 C954 1.356 1_655 S
N962 H968 0.984 . S
N962 H969 0.984 . S
N963 C956 1.356 . S
N963 H966 0.984 . S
N963 H967 0.985 . S
H964 N959 0.984 . S
H965 N959 0.985 . S
H966 N963 0.984 . S
H967 N963 0.985 . S
H968 N962 0.984 . S
H969 N962 0.984 . S
H970 N958 0.984 . S
H971 N958 0.985 . S
C972 C973 1.363 . S
C972 C978 1.379 . S
C972 N980 1.356 . S
C973 C972 1.363 . S
C973 C979 1.363 . S
C974 C975 1.363 . S
C974 C979 1.379 . S
C974 N981 1.356 . S
C975 C974 1.363 . S
C975 C978 1.363 . S
N976 C978 1.356 . S
N976 H988 0.984 . S
N976 H989 0.985 . S
N977 C979 1.356 . S
N977 H982 0.984 . S
N977 H983 0.985 . S
C978 C972 1.379 . S
C978 C975 1.363 . S
C978 N976 1.356 . S
C979 C973 1.363 . S
C979 C974 1.379 . S
C979 N977 1.356 . S
N980 C972 1.356 . S
N980 H986 0.984 . S
N980 H987 0.984 . S
N981 C974 1.356 . S
N981 H984 0.984 . S
N981 H985 0.985 . S
H982 N977 0.984 . S
H983 N977 0.985 . S
H984 N981 0.984 . S
H985 N981 0.985 . S
H986 N980 0.984 . S
H987 N980 0.984 . S
H988 N976 0.984 . S
H989 N976 0.985 . S
C990 C991 1.363 . S
C990 C996 1.379 . S
C990 N998 1.356 . S
C991 C990 1.363 . S
C991 C997 1.363 . S
C992 C993 1.363 . S
C992 C997 1.379 . S
C992 N999 1.356 . S
C993 C992 1.363 . S
C993 C996 1.363 . S
N994 C996 1.356 . S
N994 H1006 0.984 . S
N994 H1007 0.985 . S
N995 C997 1.356 . S
N995 H1000 0.984 . S
N995 H1001 0.985 . S
C996 C990 1.379 . S
C996 C993 1.363 . S
C996 N994 1.356 . S
C997 C991 1.363 . S
C997 C992 1.379 . S
C997 N995 1.356 . S
N998 C990 1.356 . S
N998 H1004 0.984 . S
N998 H1005 0.984 . S
N999 C992 1.356 . S
N999 H1002 0.984 . S
N999 H1003 0.985 . S
H1000 N995 0.984 . S
H1001 N995 0.985 . S
H1002 N999 0.984 . S
H1003 N999 0.985 . S
H1004 N998 0.984 . S
H1005 N998 0.984 . S
H1006 N994 0.984 . S
H1007 N994 0.985 . S
C1008 C1009 1.363 . S
C1008 C1014 1.379 . S
C1008 N1016 1.356 . S
C1009 C1008 1.363 . S
C1009 C1015 1.363 . S
C1010 C1011 1.363 . S
C1010 C1015 1.379 . S
C1010 N1017 1.356 . S
C1011 C1010 1.363 . S
C1011 C1014 1.363 . S
N1012 C1014 1.356 . S
N1012 H1024 0.984 . S
N1012 H1025 0.985 . S
N1013 C1015 1.356 . S
N1013 H1018 0.984 . S
N1013 H1019 0.985 . S
C1014 C1008 1.379 . S
C1014 C1011 1.363 . S
C1014 N1012 1.356 . S
C1015 C1009 1.363 . S
C1015 C1010 1.379 . S
C1015 N1013 1.356 . S
N1016 C1008 1.356 . S
N1016 H1022 0.984 . S
N1016 H1023 0.984 . S
N1017 C1010 1.356 . S
N1017 H1020 0.984 . S
N1017 H1021 0.985 . S
H1018 N1013 0.984 . S
H1019 N1013 0.985 . S
H1020 N1017 0.984 . S
H1021 N1017 0.985 . S
H1022 N1016 0.984 . S
H1023 N1016 0.984 . S
H1024 N1012 0.984 . S
H1025 N1012 0.985 . S
C1026 C1027 1.363 . S
C1026 C1032 1.379 . S
C1026 N1034 1.356 . S
C1027 C1026 1.363 . S
C1027 C1033 1.363 . S
C1028 C1029 1.363 . S
C1028 C1033 1.379 . S
C1028 N1035 1.356 . S
C1029 C1028 1.363 . S
C1029 C1032 1.363 . S
N1030 C1032 1.356 . S
N1030 H1042 0.984 . S
N1030 H1043 0.985 . S
N1031 C1033 1.356 . S
N1031 H1036 0.984 . S
N1031 H1037 0.985 1_655 S
C1032 C1026 1.379 . S
C1032 C1029 1.363 . S
C1032 N1030 1.356 . S
C1033 C1027 1.363 . S
C1033 C1028 1.379 . S
C1033 N1031 1.356 . S
N1034 C1026 1.356 . S
N1034 H1040 0.984 . S
N1034 H1041 0.984 . S
N1035 C1028 1.356 . S
N1035 H1038 0.984 . S
N1035 H1039 0.985 . S
H1036 N1031 0.984 . S
H1037 N1031 0.985 1_455 S
H1038 N1035 0.984 . S
H1039 N1035 0.985 . S
H1040 N1034 0.984 . S
H1041 N1034 0.984 . S
H1042 N1030 0.984 . S
H1043 N1030 0.985 . S
C1044 C1045 1.363 . S
C1044 C1050 1.379 1_565 S
C1044 N1052 1.356 . S
C1045 C1044 1.363 . S
C1045 C1051 1.363 . S
C1046 C1047 1.363 . S
C1046 C1051 1.379 1_545 S
C1046 N1053 1.356 . S
C1047 C1046 1.363 . S
C1047 C1050 1.363 . S
N1048 C1050 1.356 . S
N1048 H1060 0.984 . S
N1048 H1061 0.985 . S
N1049 C1051 1.356 . S
N1049 H1054 0.984 . S
N1049 H1055 0.985 . S
C1050 C1044 1.379 1_545 S
C1050 C1047 1.363 . S
C1050 N1048 1.356 . S
C1051 C1045 1.363 . S
C1051 C1046 1.379 1_565 S
C1051 N1049 1.356 . S
N1052 C1044 1.356 . S
N1052 H1058 0.984 . S
N1052 H1059 0.984 . S
N1053 C1046 1.356 . S
N1053 H1056 0.984 . S
N1053 H1057 0.985 . S
H1054 N1049 0.984 . S
H1055 N1049 0.985 . S
H1056 N1053 0.984 . S
H1057 N1053 0.985 . S
H1058 N1052 0.984 . S
H1059 N1052 0.984 . S
H1060 N1048 0.984 . S
H1061 N1048 0.985 . S
C1062 C1063 1.363 . S
C1062 C1068 1.379 1_455 S
C1062 N1070 1.356 . S
C1063 C1062 1.363 . S
C1063 C1069 1.363 . S
C1064 C1065 1.363 1_455 S
C1064 C1069 1.379 . S
C1064 N1071 1.356 . S
C1065 C1064 1.363 1_655 S
C1065 C1068 1.363 . S
N1066 C1068 1.356 . S
N1066 H1078 0.984 . S
N1066 H1079 0.985 . S
N1067 C1069 1.356 . S
N1067 H1072 0.984 . S
N1067 H1073 0.985 . S
C1068 C1062 1.379 1_655 S
C1068 C1065 1.363 . S
C1068 N1066 1.356 . S
C1069 C1063 1.363 . S
C1069 C1064 1.379 . S
C1069 N1067 1.356 . S
N1070 C1062 1.356 . S
N1070 H1076 0.984 1_455 S
N1070 H1077 0.984 . S
N1071 C1064 1.356 . S
N1071 H1074 0.984 1_455 S
N1071 H1075 0.985 . S
H1072 N1067 0.984 . S
H1073 N1067 0.985 . S
H1074 N1071 0.984 1_655 S
H1075 N1071 0.985 . S
H1076 N1070 0.984 1_655 S
H1077 N1070 0.984 . S
H1078 N1066 0.984 . S
H1079 N1066 0.985 . S
C1080 C1081 1.363 . S
C1080 C1086 1.379 . S
C1080 N1088 1.356 . S
C1081 C1080 1.363 . S
C1081 C1087 1.363 . S
C1082 C1083 1.363 . S
C1082 C1087 1.379 . S
C1082 N1089 1.356 . S
C1083 C1082 1.363 . S
C1083 C1086 1.363 . S
N1084 C1086 1.356 . S
N1084 H1096 0.984 . S
N1084 H1097 0.985 . S
N1085 C1087 1.356 . S
N1085 H1090 0.984 . S
N1085 H1091 0.985 . S
C1086 C1080 1.379 . S
C1086 C1083 1.363 . S
C1086 N1084 1.356 . S
C1087 C1081 1.363 . S
C1087 C1082 1.379 . S
C1087 N1085 1.356 . S
N1088 C1080 1.356 . S
N1088 H1094 0.984 . S
N1088 H1095 0.984 . S
N1089 C1082 1.356 . S
N1089 H1092 0.984 . S
N1089 H1093 0.985 . S
H1090 N1085 0.984 . S
H1091 N1085 0.985 . S
H1092 N1089 0.984 . S
H1093 N1089 0.985 . S
H1094 N1088 0.984 . S
H1095 N1088 0.984 . S
H1096 N1084 0.984 . S
H1097 N1084 0.985 . S
C1098 C1099 1.376 . S
C1098 C1104 1.379 . S
C1098 N1106 1.356 1_655 S
C1099 C1098 1.376 . S
C1099 C1105 1.382 . S
C1100 C1101 1.363 . S
C1100 C1105 1.379 . S
C1100 N1107 1.356 . S
C1101 C1100 1.363 . S
C1101 C1104 1.363 . S
N1102 C1104 1.356 . S
N1102 H1114 0.984 . S
N1102 H1115 0.985 . S
N1103 C1105 1.356 . S
N1103 H1108 0.984 1_655 S
N1103 H1109 0.985 . S
C1104 C1098 1.379 . S
C1104 C1101 1.363 . S
C1104 N1102 1.356 . S
C1105 C1099 1.382 . S
C1105 C1100 1.379 . S
C1105 N1103 1.356 . S
N1106 C1098 1.356 1_455 S
N1106 H1112 0.984 . S
N1106 H1113 0.984 . S
N1107 C1100 1.356 . S
N1107 H1110 0.984 . S
N1107 H1111 0.985 . S
H1108 N1103 0.984 1_455 S
H1109 N1103 0.985 . S
H1110 N1107 0.984 . S
H1111 N1107 0.985 . S
H1112 N1106 0.984 . S
H1113 N1106 0.984 . S
H1114 N1102 0.984 . S
H1115 N1102 0.985 . S
C1116 C1117 1.363 . S
C1116 C1122 1.379 . S
C1116 N1124 1.356 . S
C1117 C1116 1.363 . S
C1117 C1123 1.363 . S
C1118 C1119 1.363 . S
C1118 C1123 1.379 . S
C1118 N1125 1.356 . S
C1119 C1118 1.363 . S
C1119 C1122 1.363 . S
N1120 C1122 1.356 . S
N1120 H1132 0.984 . S
N1120 H1133 0.985 . S
N1121 C1123 1.356 . S
N1121 H1126 0.984 . S
N1121 H1127 0.985 . S
C1122 C1116 1.379 . S
C1122 C1119 1.363 . S
C1122 N1120 1.356 . S
C1123 C1117 1.363 . S
C1123 C1118 1.379 . S
C1123 N1121 1.356 . S
N1124 C1116 1.356 . S
N1124 H1130 0.984 . S
N1124 H1131 0.984 . S
N1125 C1118 1.356 . S
N1125 H1128 0.984 . S
N1125 H1129 0.985 . S
H1126 N1121 0.984 . S
H1127 N1121 0.985 . S
H1128 N1125 0.984 . S
H1129 N1125 0.985 . S
H1130 N1124 0.984 . S
H1131 N1124 0.984 . S
H1132 N1120 0.984 . S
H1133 N1120 0.985 . S
C1134 C1135 1.363 . S
C1134 C1140 1.379 . S
C1134 N1142 1.356 1_545 S
C1135 C1134 1.363 . S
C1135 C1141 1.363 . S
C1136 C1137 1.363 . S
C1136 C1141 1.379 . S
C1136 N1143 1.356 . S
C1137 C1136 1.363 . S
C1137 C1140 1.363 . S
N1138 C1140 1.356 . S
N1138 H1150 0.984 . S
N1138 H1151 0.985 . S
N1139 C1141 1.356 1_565 S
N1139 H1144 0.984 . S
N1139 H1145 0.985 1_565 S
C1140 C1134 1.379 . S
C1140 C1137 1.363 . S
C1140 N1138 1.356 . S
C1141 C1135 1.363 . S
C1141 C1136 1.379 . S
C1141 N1139 1.356 1_545 S
N1142 C1134 1.356 1_565 S
N1142 H1148 0.984 . S
N1142 H1149 0.984 . S
N1143 C1136 1.356 . S
N1143 H1146 0.984 . S
N1143 H1147 0.985 . S
H1144 N1139 0.984 . S
H1145 N1139 0.985 1_545 S
H1146 N1143 0.984 . S
H1147 N1143 0.985 . S
H1148 N1142 0.984 . S
H1149 N1142 0.984 . S
H1150 N1138 0.984 . S
H1151 N1138 0.985 . S
C1152 C1153 1.363 . S
C1152 C1158 1.379 . S
C1152 N1160 1.356 . S
C1153 C1152 1.363 . S
C1153 C1159 1.363 . S
C1154 C1155 1.363 . S
C1154 C1159 1.379 . S
C1154 N1161 1.356 . S
C1155 C1154 1.363 . S
C1155 C1158 1.363 . S
N1156 C1158 1.356 . S
N1156 H1168 0.984 . S
N1156 H1169 0.985 . S
N1157 C1159 1.356 . S
N1157 H1162 0.984 . S
N1157 H1163 0.985 . S
C1158 C1152 1.379 . S
C1158 C1155 1.363 . S
C1158 N1156 1.356 . S
C1159 C1153 1.363 . S
C1159 C1154 1.379 . S
C1159 N1157 1.356 . S
N1160 C1152 1.356 . S
N1160 H1166 0.984 . S
N1160 H1167 0.984 . S
N1161 C1154 1.356 . S
N1161 H1164 0.984 . S
N1161 H1165 0.985 . S
H1162 N1157 0.984 . S
H1163 N1157 0.985 . S
H1164 N1161 0.984 . S
H1165 N1161 0.985 . S
H1166 N1160 0.984 . S
H1167 N1160 0.984 . S
H1168 N1156 0.984 . S
H1169 N1156 0.985 . S
C1170 C1171 1.363 . S
C1170 C1176 1.379 . S
C1170 N1178 1.356 . S
C1171 C1170 1.363 . S
C1171 C1177 1.363 . S
C1172 C1173 1.363 . S
C1172 C1177 1.379 . S
C1172 N1179 1.356 . S
C1173 C1172 1.363 . S
C1173 C1176 1.363 . S
N1174 C1176 1.356 . S
N1174 H1186 0.984 . S
N1174 H1187 0.985 . S
N1175 C1177 1.356 . S
N1175 H1180 0.984 . S
N1175 H1181 0.985 . S
C1176 C1170 1.379 . S
C1176 C1173 1.363 . S
C1176 N1174 1.356 . S
C1177 C1171 1.363 . S
C1177 C1172 1.379 . S
C1177 N1175 1.356 . S
N1178 C1170 1.356 . S
N1178 H1184 0.984 . S
N1178 H1185 0.984 . S
N1179 C1172 1.356 . S
N1179 H1182 0.984 . S
N1179 H1183 0.985 . S
H1180 N1175 0.984 . S
H1181 N1175 0.985 . S
H1182 N1179 0.984 . S
H1183 N1179 0.985 . S
H1184 N1178 0.984 . S
H1185 N1178 0.984 . S
H1186 N1174 0.984 . S
H1187 N1174 0.985 . S
C1188 C1189 1.363 . S
C1188 C1194 1.379 . S
C1188 N1196 1.356 . S
C1189 C1188 1.363 . S
C1189 C1195 1.363 . S
C1190 C1191 1.363 . S
C1190 C1195 1.379 . S
C1190 N1197 1.356 . S
C1191 C1190 1.363 . S
C1191 C1194 1.363 . S
N1192 C1194 1.356 . S
N1192 H1204 0.984 . S
N1192 H1205 0.985 . S
N1193 C1195 1.356 . S
N1193 H1198 0.984 . S
N1193 H1199 0.985 . S
C1194 C1188 1.379 . S
C1194 C1191 1.363 . S
C1194 N1192 1.356 . S
C1195 C1189 1.363 . S
C1195 C1190 1.379 . S
C1195 N1193 1.356 . S
N1196 C1188 1.356 . S
N1196 H1202 0.984 . S
N1196 H1203 0.984 . S
N1197 C1190 1.356 . S
N1197 H1200 0.984 . S
N1197 H1201 0.985 . S
H1198 N1193 0.984 . S
H1199 N1193 0.985 . S
H1200 N1197 0.984 . S
H1201 N1197 0.985 . S
H1202 N1196 0.984 . S
H1203 N1196 0.984 . S
H1204 N1192 0.984 . S
H1205 N1192 0.985 . S
C1206 C1207 1.363 . S
C1206 C1212 1.379 . S
C1206 N1214 1.356 . S
C1207 C1206 1.363 . S
C1207 C1213 1.363 . S
C1208 C1209 1.363 . S
C1208 C1213 1.379 . S
C1208 N1215 1.356 . S
C1209 C1208 1.363 . S
C1209 C1212 1.363 . S
N1210 C1212 1.356 . S
N1210 H1222 0.984 1_565 S
N1210 H1223 0.985 . S
N1211 C1213 1.356 . S
N1211 H1216 0.984 . S
N1211 H1217 0.985 . S
C1212 C1206 1.379 . S
C1212 C1209 1.363 . S
C1212 N1210 1.356 . S
C1213 C1207 1.363 . S
C1213 C1208 1.379 . S
C1213 N1211 1.356 . S
N1214 C1206 1.356 . S
N1214 H1220 0.984 . S
N1214 H1221 0.984 . S
N1215 C1208 1.356 . S
N1215 H1218 0.984 . S
N1215 H1219 0.985 . S
H1216 N1211 0.984 . S
H1217 N1211 0.985 . S
H1218 N1215 0.984 . S
H1219 N1215 0.985 . S
H1220 N1214 0.984 . S
H1221 N1214 0.984 . S
H1222 N1210 0.984 1_545 S
H1223 N1210 0.985 . S
C1224 C1225 1.363 . S
C1224 C1230 1.379 . S
C1224 N1232 1.356 . S
C1225 C1224 1.363 . S
C1225 C1231 1.363 . S
C1226 C1227 1.363 . S
C1226 C1231 1.379 . S
C1226 N1233 1.356 . S
C1227 C1226 1.363 . S
C1227 C1230 1.363 . S
N1228 C1230 1.356 . S
N1228 H1240 0.984 . S
N1228 H1241 0.985 . S
N1229 C1231 1.356 . S
N1229 H1234 0.984 . S
N1229 H1235 0.985 . S
C1230 C1224 1.379 . S
C1230 C1227 1.363 . S
C1230 N1228 1.356 . S
C1231 C1225 1.363 . S
C1231 C1226 1.379 . S
C1231 N1229 1.356 . S
N1232 C1224 1.356 . S
N1232 H1238 0.984 . S
N1232 H1239 0.984 . S
N1233 C1226 1.356 . S
N1233 H1236 0.984 . S
N1233 H1237 0.985 . S
H1234 N1229 0.984 . S
H1235 N1229 0.985 . S
H1236 N1233 0.984 . S
H1237 N1233 0.985 . S
H1238 N1232 0.984 . S
H1239 N1232 0.984 . S
H1240 N1228 0.984 . S
H1241 N1228 0.985 . S
C1242 C1243 1.363 . S
C1242 C1248 1.379 . S
C1242 N1250 1.356 . S
C1243 C1242 1.363 . S
C1243 C1249 1.363 . S
C1244 C1245 1.363 . S
C1244 C1249 1.379 . S
C1244 N1251 1.356 . S
C1245 C1244 1.363 . S
C1245 C1248 1.363 . S
N1246 C1248 1.356 . S
N1246 H1258 0.984 . S
N1246 H1259 0.985 . S
N1247 C1249 1.356 . S
N1247 H1252 0.984 . S
N1247 H1253 0.985 . S
C1248 C1242 1.379 . S
C1248 C1245 1.363 . S
C1248 N1246 1.356 . S
C1249 C1243 1.363 . S
C1249 C1244 1.379 . S
C1249 N1247 1.356 . S
N1250 C1242 1.356 . S
N1250 H1256 0.984 . S
N1250 H1257 0.984 . S
N1251 C1244 1.356 . S
N1251 H1254 0.984 . S
N1251 H1255 0.985 . S
H1252 N1247 0.984 . S
H1253 N1247 0.985 . S
H1254 N1251 0.984 . S
H1255 N1251 0.985 . S
H1256 N1250 0.984 . S
H1257 N1250 0.984 . S
H1258 N1246 0.984 . S
H1259 N1246 0.985 . S
C1260 C1261 1.363 . S
C1260 C1266 1.379 . S
C1260 N1268 1.356 1_655 S
C1261 C1260 1.363 . S
C1261 C1267 1.363 . S
C1262 C1263 1.363 . S
C1262 C1267 1.379 . S
C1262 N1269 1.356 . S
C1263 C1262 1.363 . S
C1263 C1266 1.363 . S
N1264 C1266 1.356 1_455 S
N1264 H1276 0.984 . S
N1264 H1277 0.985 1_455 S
N1265 C1267 1.356 . S
N1265 H1270 0.984 . S
N1265 H1271 0.985 . S
C1266 C1260 1.379 . S
C1266 C1263 1.363 . S
C1266 N1264 1.356 1_655 S
C1267 C1261 1.363 . S
C1267 C1262 1.379 . S
C1267 N1265 1.356 . S
N1268 C1260 1.356 1_455 S
N1268 H1274 0.984 . S
N1268 H1275 0.983 1_455 S
N1269 C1262 1.356 . S
N1269 H1272 0.984 . S
N1269 H1273 0.985 . S
H1270 N1265 0.984 . S
H1271 N1265 0.985 . S
H1272 N1269 0.984 . S
H1273 N1269 0.985 . S
H1274 N1268 0.984 . S
H1275 N1268 0.983 1_655 S
H1276 N1264 0.984 . S
H1277 N1264 0.985 1_655 S
C1278 C1279 1.363 . S
C1278 C1284 1.379 . S
C1278 N1286 1.356 . S
C1279 C1278 1.363 . S
C1279 C1285 1.363 . S
C1280 C1281 1.363 . S
C1280 C1285 1.379 . S
C1280 N1287 1.356 . S
C1281 C1280 1.363 . S
C1281 C1284 1.363 . S
N1282 C1284 1.356 . S
N1282 H1294 0.984 . S
N1282 H1295 0.985 . S
N1283 C1285 1.356 . S
N1283 H1288 0.984 . S
N1283 H1289 0.985 . S
C1284 C1278 1.379 . S
C1284 C1281 1.363 . S
C1284 N1282 1.356 . S
C1285 C1279 1.363 . S
C1285 C1280 1.379 . S
C1285 N1283 1.356 . S
N1286 C1278 1.356 . S
N1286 H1292 0.984 . S
N1286 H1293 0.984 . S
N1287 C1280 1.356 . S
N1287 H1290 0.984 . S
N1287 H1291 0.985 . S
H1288 N1283 0.984 . S
H1289 N1283 0.985 . S
H1290 N1287 0.984 . S
H1291 N1287 0.985 . S
H1292 N1286 0.984 . S
H1293 N1286 0.984 . S
H1294 N1282 0.984 . S
H1295 N1282 0.985 . S
C1296 C1297 1.363 . S
C1296 C1302 1.379 . S
C1296 N1304 1.356 . S
C1297 C1296 1.363 . S
C1297 C1303 1.363 . S
C1298 C1299 1.363 . S
C1298 C1303 1.379 . S
C1298 N1305 1.346 1_545 S
C1299 C1298 1.363 . S
C1299 C1302 1.363 . S
N1300 C1302 1.356 . S
N1300 H1312 0.984 . S
N1300 H1313 0.985 . S
N1301 C1303 1.356 . S
N1301 H1306 0.984 . S
N1301 H1307 0.985 . S
C1302 C1296 1.379 . S
C1302 C1299 1.363 . S
C1302 N1300 1.356 . S
C1303 C1297 1.363 . S
C1303 C1298 1.379 . S
C1303 N1301 1.356 . S
N1304 C1296 1.356 . S
N1304 H1310 0.984 . S
N1304 H1311 0.984 . S
N1305 C1298 1.346 1_565 S
N1305 H1308 0.985 . S
N1305 H1309 0.994 . S
H1306 N1301 0.984 . S
H1307 N1301 0.985 . S
H1308 N1305 0.985 . S
H1309 N1305 0.994 . S
H1310 N1304 0.984 . S
H1311 N1304 0.984 . S
H1312 N1300 0.984 . S
H1313 N1300 0.985 . S
C1314 C1315 1.363 . S
C1314 C1320 1.379 . S
C1314 N1322 1.356 . S
C1315 C1314 1.363 . S
C1315 C1321 1.363 . S
C1316 C1317 1.363 . S
C1316 C1321 1.379 . S
C1316 N1323 1.356 . S
C1317 C1316 1.363 . S
C1317 C1320 1.363 . S
N1318 C1320 1.356 . S
N1318 H1330 0.984 . S
N1318 H1331 0.985 . S
N1319 C1321 1.356 . S
N1319 H1324 0.984 . S
N1319 H1325 0.985 . S
C1320 C1314 1.379 . S
C1320 C1317 1.363 . S
C1320 N1318 1.356 . S
C1321 C1315 1.363 . S
C1321 C1316 1.379 . S
C1321 N1319 1.356 . S
N1322 C1314 1.356 . S
N1322 H1328 0.984 . S
N1322 H1329 0.984 . S
N1323 C1316 1.356 . S
N1323 H1326 0.984 . S
N1323 H1327 0.985 . S
H1324 N1319 0.984 . S
H1325 N1319 0.985 . S
H1326 N1323 0.984 . S
H1327 N1323 0.985 . S
H1328 N1322 0.984 . S
H1329 N1322 0.984 . S
H1330 N1318 0.984 . S
H1331 N1318 0.985 . S
C1332 C1333 1.363 . S
C1332 C1338 1.379 . S
C1332 N1340 1.356 . S
C1333 C1332 1.363 . S
C1333 C1339 1.363 . S
C1334 C1335 1.363 . S
C1334 C1339 1.379 . S
C1334 N1341 1.356 . S
C1335 C1334 1.363 . S
C1335 C1338 1.363 . S
N1336 C1338 1.356 . S
N1336 H1348 0.984 . S
N1336 H1349 0.985 . S
N1337 C1339 1.356 . S
N1337 H1342 0.984 . S
N1337 H1343 0.985 . S
C1338 C1332 1.379 . S
C1338 C1335 1.363 . S
C1338 N1336 1.356 . S
C1339 C1333 1.363 . S
C1339 C1334 1.379 . S
C1339 N1337 1.356 . S
N1340 C1332 1.356 . S
N1340 H1346 0.984 . S
N1340 H1347 0.984 . S
N1341 C1334 1.356 . S
N1341 H1344 0.984 . S
N1341 H1345 0.985 . S
H1342 N1337 0.984 . S
H1343 N1337 0.985 . S
H1344 N1341 0.984 . S
H1345 N1341 0.985 . S
H1346 N1340 0.984 . S
H1347 N1340 0.984 . S
H1348 N1336 0.984 . S
H1349 N1336 0.985 . S
C1350 C1351 1.363 . S
C1350 C1356 1.379 . S
C1350 N1358 1.356 . S
C1351 C1350 1.363 . S
C1351 C1357 1.363 . S
C1352 C1353 1.363 . S
C1352 C1357 1.379 . S
C1352 N1359 1.356 . S
C1353 C1352 1.363 . S
C1353 C1356 1.363 . S
N1354 C1356 1.356 . S
N1354 H1366 0.984 . S
N1354 H1367 0.985 . S
N1355 C1357 1.356 . S
N1355 H1360 0.984 . S
N1355 H1361 0.985 . S
C1356 C1350 1.379 . S
C1356 C1353 1.363 . S
C1356 N1354 1.356 . S
C1357 C1351 1.363 . S
C1357 C1352 1.379 . S
C1357 N1355 1.356 . S
N1358 C1350 1.356 . S
N1358 H1364 0.984 . S
N1358 H1365 0.984 . S
N1359 C1352 1.356 . S
N1359 H1362 0.984 . S
N1359 H1363 0.985 . S
H1360 N1355 0.984 . S
H1361 N1355 0.985 . S
H1362 N1359 0.984 . S
H1363 N1359 0.985 . S
H1364 N1358 0.984 . S
H1365 N1358 0.984 . S
H1366 N1354 0.984 . S
H1367 N1354 0.985 . S
C1368 C1369 1.363 . S
C1368 C1374 1.379 . S
C1368 N1376 1.356 . S
C1369 C1368 1.363 . S
C1369 C1375 1.363 . S
C1370 C1371 1.363 . S
C1370 C1375 1.379 . S
C1370 N1377 1.356 . S
C1371 C1370 1.363 . S
C1371 C1374 1.363 . S
N1372 C1374 1.356 . S
N1372 H1384 0.984 . S
N1372 H1385 0.985 . S
N1373 C1375 1.356 . S
N1373 H1378 0.984 . S
N1373 H1379 0.985 . S
C1374 C1368 1.379 . S
C1374 C1371 1.363 . S
C1374 N1372 1.356 . S
C1375 C1369 1.363 . S
C1375 C1370 1.379 . S
C1375 N1373 1.356 . S
N1376 C1368 1.356 . S
N1376 H1382 0.984 . S
N1376 H1383 0.984 . S
N1377 C1370 1.356 . S
N1377 H1380 0.984 . S
N1377 H1381 0.985 . S
H1378 N1373 0.984 . S
H1379 N1373 0.985 . S
H1380 N1377 0.984 . S
H1381 N1377 0.985 . S
H1382 N1376 0.984 . S
H1383 N1376 0.984 . S
H1384 N1372 0.984 . S
H1385 N1372 0.985 . S
C1386 C1387 1.363 . S
C1386 C1392 1.379 . S
C1386 N1394 1.356 . S
C1387 C1386 1.363 . S
C1387 C1393 1.363 . S
C1388 C1389 1.363 . S
C1388 C1393 1.379 . S
C1388 N1395 1.356 . S
C1389 C1388 1.363 . S
C1389 C1392 1.363 . S
N1390 C1392 1.356 . S
N1390 H1402 0.984 . S
N1390 H1403 0.985 . S
N1391 C1393 1.356 . S
N1391 H1396 0.984 . S
N1391 H1397 0.985 . S
C1392 C1386 1.379 . S
C1392 C1389 1.363 . S
C1392 N1390 1.356 . S
C1393 C1387 1.363 . S
C1393 C1388 1.379 . S
C1393 N1391 1.356 . S
N1394 C1386 1.356 . S
N1394 H1400 0.984 . S
N1394 H1401 0.984 . S
N1395 C1388 1.356 . S
N1395 H1398 0.984 . S
N1395 H1399 0.985 . S
H1396 N1391 0.984 . S
H1397 N1391 0.985 . S
H1398 N1395 0.984 . S
H1399 N1395 0.985 . S
H1400 N1394 0.984 . S
H1401 N1394 0.984 . S
H1402 N1390 0.984 . S
H1403 N1390 0.985 . S
C1404 C1405 1.363 . S
C1404 C1410 1.379 . S
C1404 N1412 1.356 . S
C1405 C1404 1.363 . S
C1405 C1411 1.363 . S
C1406 C1407 1.363 . S
C1406 C1411 1.379 . S
C1406 N1413 1.356 . S
C1407 C1406 1.363 . S
C1407 C1410 1.363 . S
N1408 C1410 1.356 . S
N1408 H1420 0.984 . S
N1408 H1421 0.985 . S
N1409 C1411 1.356 . S
N1409 H1414 0.984 . S
N1409 H1415 0.985 . S
C1410 C1404 1.379 . S
C1410 C1407 1.363 . S
C1410 N1408 1.356 . S
C1411 C1405 1.363 . S
C1411 C1406 1.379 . S
C1411 N1409 1.356 . S
N1412 C1404 1.356 . S
N1412 H1418 0.984 . S
N1412 H1419 0.984 . S
N1413 C1406 1.356 . S
N1413 H1416 0.984 . S
N1413 H1417 0.985 . S
H1414 N1409 0.984 . S
H1415 N1409 0.985 . S
H1416 N1413 0.984 . S
H1417 N1413 0.985 . S
H1418 N1412 0.984 . S
H1419 N1412 0.984 . S
H1420 N1408 0.984 . S
H1421 N1408 0.985 . S
C1422 C1423 1.363 . S
C1422 C1428 1.379 . S
C1422 N1430 1.356 . S
C1423 C1422 1.363 . S
C1423 C1429 1.363 . S
C1424 C1425 1.363 . S
C1424 C1429 1.379 . S
C1424 N1431 1.356 . S
C1425 C1424 1.363 . S
C1425 C1428 1.363 . S
N1426 C1428 1.356 . S
N1426 H1438 0.984 . S
N1426 H1439 0.985 . S
N1427 C1429 1.356 . S
N1427 H1432 0.984 . S
N1427 H1433 0.985 . S
C1428 C1422 1.379 . S
C1428 C1425 1.363 . S
C1428 N1426 1.356 . S
C1429 C1423 1.363 . S
C1429 C1424 1.379 . S
C1429 N1427 1.356 . S
N1430 C1422 1.356 . S
N1430 H1436 0.984 . S
N1430 H1437 0.984 . S
N1431 C1424 1.356 . S
N1431 H1434 0.984 . S
N1431 H1435 0.985 . S
H1432 N1427 0.984 . S
H1433 N1427 0.985 . S
H1434 N1431 0.984 . S
H1435 N1431 0.985 . S
H1436 N1430 0.984 . S
H1437 N1430 0.984 . S
H1438 N1426 0.984 . S
H1439 N1426 0.985 . S
C1440 C1441 1.363 . S
C1440 C1446 1.379 . S
C1440 N1448 1.356 . S
C1441 C1440 1.363 . S
C1441 C1447 1.363 . S
C1442 C1443 1.363 . S
C1442 C1447 1.379 . S
C1442 N1449 1.356 . S
C1443 C1442 1.363 . S
C1443 C1446 1.363 . S
N1444 C1446 1.356 . S
N1444 H1456 0.984 . S
N1444 H1457 0.985 . S
N1445 C1447 1.356 . S
N1445 H1450 0.984 . S
N1445 H1451 0.985 . S
C1446 C1440 1.379 . S
C1446 C1443 1.363 . S
C1446 N1444 1.356 . S
C1447 C1441 1.363 . S
C1447 C1442 1.379 . S
C1447 N1445 1.356 . S
N1448 C1440 1.356 . S
N1448 H1454 0.984 . S
N1448 H1455 0.984 . S
N1449 C1442 1.356 . S
N1449 H1452 0.984 . S
N1449 H1453 0.985 . S
H1450 N1445 0.984 . S
H1451 N1445 0.985 . S
H1452 N1449 0.984 . S
H1453 N1449 0.985 . S
H1454 N1448 0.984 . S
H1455 N1448 0.984 . S
H1456 N1444 0.984 . S
H1457 N1444 0.985 . S
C1458 C1459 1.363 . S
C1458 C1464 1.379 . S
C1458 N1466 1.356 . S
C1459 C1458 1.363 . S
C1459 C1465 1.363 . S
C1460 C1461 1.363 . S
C1460 C1465 1.379 . S
C1460 N1467 1.356 . S
C1461 C1460 1.363 . S
C1461 C1464 1.363 . S
N1462 C1464 1.356 . S
N1462 H1474 0.984 . S
N1462 H1475 0.985 . S
N1463 C1465 1.356 . S
N1463 H1468 0.984 . S
N1463 H1469 0.985 . S
C1464 C1458 1.379 . S
C1464 C1461 1.363 . S
C1464 N1462 1.356 . S
C1465 C1459 1.363 . S
C1465 C1460 1.379 . S
C1465 N1463 1.356 . S
N1466 C1458 1.356 . S
N1466 H1472 0.984 . S
N1466 H1473 0.984 . S
N1467 C1460 1.356 . S
N1467 H1470 0.984 . S
N1467 H1471 0.985 . S
H1468 N1463 0.984 . S
H1469 N1463 0.985 . S
H1470 N1467 0.984 . S
H1471 N1467 0.985 . S
H1472 N1466 0.984 . S
H1473 N1466 0.984 . S
H1474 N1462 0.984 . S
H1475 N1462 0.985 . S
C1476 C1477 1.363 . S
C1476 C1482 1.379 . S
C1476 N1484 1.356 . S
C1477 C1476 1.363 . S
C1477 C1483 1.363 . S
C1478 C1479 1.363 . S
C1478 C1483 1.379 . S
C1478 N1485 1.356 . S
C1479 C1478 1.363 . S
C1479 C1482 1.363 . S
N1480 C1482 1.356 . S
N1480 H1492 0.984 . S
N1480 H1493 0.985 . S
N1481 C1483 1.356 . S
N1481 H1486 0.984 . S
N1481 H1487 0.985 . S
C1482 C1476 1.379 . S
C1482 C1479 1.363 . S
C1482 N1480 1.356 . S
C1483 C1477 1.363 . S
C1483 C1478 1.379 . S
C1483 N1481 1.356 . S
N1484 C1476 1.356 . S
N1484 H1490 0.984 . S
N1484 H1491 0.984 . S
N1485 C1478 1.356 . S
N1485 H1488 0.984 . S
N1485 H1489 0.985 . S
H1486 N1481 0.984 . S
H1487 N1481 0.985 . S
H1488 N1485 0.984 . S
H1489 N1485 0.985 . S
H1490 N1484 0.984 . S
H1491 N1484 0.984 . S
H1492 N1480 0.984 . S
H1493 N1480 0.985 . S
C1494 C1495 1.363 . S
C1494 C1500 1.379 . S
C1494 N1502 1.356 . S
C1495 C1494 1.363 . S
C1495 C1501 1.363 . S
C1496 C1497 1.363 . S
C1496 C1501 1.379 . S
C1496 N1503 1.356 . S
C1497 C1496 1.363 . S
C1497 C1500 1.363 . S
N1498 C1500 1.356 . S
N1498 H1510 0.984 . S
N1498 H1511 0.985 . S
N1499 C1501 1.356 . S
N1499 H1504 0.984 . S
N1499 H1505 0.985 . S
C1500 C1494 1.379 . S
C1500 C1497 1.363 . S
C1500 N1498 1.356 . S
C1501 C1495 1.363 . S
C1501 C1496 1.379 . S
C1501 N1499 1.356 . S
N1502 C1494 1.356 . S
N1502 H1508 0.984 . S
N1502 H1509 0.984 . S
N1503 C1496 1.356 . S
N1503 H1506 0.984 . S
N1503 H1507 0.985 . S
H1504 N1499 0.984 . S
H1505 N1499 0.985 . S
H1506 N1503 0.984 . S
H1507 N1503 0.985 . S
H1508 N1502 0.984 . S
H1509 N1502 0.984 . S
H1510 N1498 0.984 . S
H1511 N1498 0.985 . S
C1512 C1513 1.363 . S
C1512 C1518 1.379 . S
C1512 N1520 1.356 . S
C1513 C1512 1.363 . S
C1513 C1519 1.363 . S
C1514 C1515 1.363 . S
C1514 C1519 1.379 . S
C1514 N1521 1.356 . S
C1515 C1514 1.363 . S
C1515 C1518 1.363 . S
N1516 C1518 1.356 . S
N1516 H1528 0.984 . S
N1516 H1529 0.985 . S
N1517 C1519 1.356 . S
N1517 H1522 0.984 . S
N1517 H1523 0.985 . S
C1518 C1512 1.379 . S
C1518 C1515 1.363 . S
C1518 N1516 1.356 . S
C1519 C1513 1.363 . S
C1519 C1514 1.379 . S
C1519 N1517 1.356 . S
N1520 C1512 1.356 . S
N1520 H1526 0.984 . S
N1520 H1527 0.984 . S
N1521 C1514 1.356 . S
N1521 H1524 0.984 . S
N1521 H1525 0.985 . S
H1522 N1517 0.984 . S
H1523 N1517 0.985 . S
H1524 N1521 0.984 . S
H1525 N1521 0.985 . S
H1526 N1520 0.984 . S
H1527 N1520 0.984 . S
H1528 N1516 0.984 . S
H1529 N1516 0.985 . S
C559 C147 1.654 . S
C561 C201 1.665 . S
C577 C158 1.749 . S
C579 C241 1.746 . S
C595 C136 1.588 . S
C597 C293 1.581 . S
C613 C125 1.493 . S
C615 C253 1.473 . S
C633 C281 1.518 . S
C631 C103 1.521 . S
C649 C114 1.402 . S
C651 C213 1.403 1_556 S
C669 C220 1.671 . S
C667 C131 1.651 . S
C687 C260 1.648 . S
C685 C109 1.637 . S
C703 C120 1.640 . S
C705 C280 1.672 1_556 S
C721 C153 1.518 . S
C723 C240 1.532 . S
C739 C164 1.483 . S
C741 C300 1.488 . S
C759 C200 1.525 . S
C757 C142 1.494 . S
C777 C321 1.665 . S
C775 C15 1.654 . S
C793 C26 1.749 . S
C795 C361 1.746 . S
C811 C4 1.588 . S
C813 C413 1.581 . S
C829 C191 1.493 . S
C831 C373 1.474 . S
C847 C169 1.521 . S
C849 C401 1.518 . S
C865 C180 1.403 . S
C867 C333 1.403 . S
C883 C197 1.651 . S
C885 C340 1.671 . S
C901 C175 1.637 . S
C903 C380 1.648 . S
C921 C400 1.672 . S
C919 C186 1.640 . S
C937 C21 1.518 . S
C939 C360 1.532 . S
C957 C420 1.488 . S
C955 C32 1.483 1_455 S
C973 C10 1.495 . S
C975 C320 1.525 . S
C993 C441 1.665 . S
C991 C81 1.654 . S
C1009 C92 1.749 . S
C1011 C481 1.746 . S
C1029 C533 1.581 . S
C1027 C70 1.588 . S
C1047 C493 1.474 . S
C1045 C59 1.493 . S
C1065 C521 1.518 . S
C1063 C37 1.521 . S
C1081 C48 1.402 . S
C1083 C453 1.403 . S
C1099 C65 1.624 1_655 S
C1101 C460 1.671 . S
C1117 C43 1.637 . S
C1119 C500 1.648 . S
C1137 C520 1.672 . S
C1135 C54 1.640 1_545 S
C1153 C87 1.518 . S
C1155 C480 1.532 . S
C1171 C98 1.483 . S
C1173 C540 1.488 . S
C1189 C76 1.495 . S
C1191 C440 1.525 . S
C1207 C170 1.594 . S
C1209 C224 1.559 . S
C1227 C264 1.866 . S
C1225 C181 1.914 . S
C1243 C192 1.552 . S
C1245 C287 1.570 . S
C1261 C71 1.730 . S
C1263 C247 1.724 . S
C1279 C82 1.677 . S
C1281 C304 1.652 . S
C1299 C207 1.371 . S
C1297 C93 1.363 . S
C1315 C38 1.594 . S
C1317 C344 1.559 . S
C1333 C49 1.914 . S
C1335 C384 1.866 . S
C1351 C60 1.552 . S
C1353 C407 1.570 . S
C1369 C137 1.730 . S
C1371 C367 1.724 . S
C1389 C424 1.652 . S
C1387 C148 1.677 . S
C1405 C159 1.363 . S
C1407 C327 1.371 . S
C1423 C104 1.594 . S
C1425 C464 1.559 . S
C1441 C115 1.914 . S
C1443 C504 1.866 . S
C1461 C527 1.570 . S
C1459 C126 1.552 . S
C1477 C5 1.730 . S
C1479 C487 1.724 . S
C1495 C16 1.677 . S
C1497 C544 1.652 . S
C1513 C27 1.363 . S
C1515 C447 1.371 . S
