# Generated by pormake.
# Topology eea, (3,6)-cn, num edge types: 1
# Building blocks:
#     Node 0, Type 0, BuildingBlock: QEWDON_clean_linker_0, # of connection points: 3
#     Node 1, Type 0, BuildingBlock: QEWDON_clean_linker_0, # of connection points: 3
#     Node 2, Type 0, BuildingBlock: QEWDON_clean_linker_0, # of connection points: 3
#     Node 3, Type 0, BuildingBlock: QEWDON_clean_linker_0, # of connection points: 3
#     Node 4, Type 0, BuildingBlock: QEWDON_clean_linker_0, # of connection points: 3
#     Node 5, Type 0, BuildingBlock: QEWDON_clean_linker_0, # of connection points: 3
#     Node 6, Type 0, BuildingBlock: QEWDON_clean_linker_0, # of connection points: 3
#     Node 7, Type 0, BuildingBlock: QEWDON_clean_linker_0, # of connection points: 3
#     Node 8, Type 0, BuildingBlock: QEWDON_clean_linker_0, # of connection points: 3
#     Node 9, Type 0, BuildingBlock: QEWDON_clean_linker_0, # of connection points: 3
#     Node 10, Type 0, BuildingBlock: QEWDON_clean_linker_0, # of connection points: 3
#     Node 11, Type 0, BuildingBlock: QEWDON_clean_linker_0, # of connection points: 3
#     Node 12, Type 0, BuildingBlock: QEWDON_clean_linker_0, # of connection points: 3
#     Node 13, Type 0, BuildingBlock: QEWDON_clean_linker_0, # of connection points: 3
#     Node 14, Type 0, BuildingBlock: QEWDON_clean_linker_0, # of connection points: 3
#     Node 15, Type 0, BuildingBlock: QEWDON_clean_linker_0, # of connection points: 3
#     Node 16, Type 0, BuildingBlock: QEWDON_clean_linker_0, # of connection points: 3
#     Node 17, Type 0, BuildingBlock: QEWDON_clean_linker_0, # of connection points: 3
#     Node 18, Type 1, BuildingBlock: KUMBOL_clean_sbu_0, # of connection points: 6
#     Node 19, Type 1, BuildingBlock: KUMBOL_clean_sbu_0, # of connection points: 6
#     Node 20, Type 1, BuildingBlock: KUMBOL_clean_sbu_0, # of connection points: 6
#     Node 21, Type 1, BuildingBlock: KUMBOL_clean_sbu_0, # of connection points: 6
#     Node 22, Type 1, BuildingBlock: KUMBOL_clean_sbu_0, # of connection points: 6
#     Node 23, Type 1, BuildingBlock: KUMBOL_clean_sbu_0, # of connection points: 6
#     Node 24, Type 1, BuildingBlock: KUMBOL_clean_sbu_0, # of connection points: 6
#     Node 25, Type 1, BuildingBlock: KUMBOL_clean_sbu_0, # of connection points: 6
#     Node 26, Type 1, BuildingBlock: KUMBOL_clean_sbu_0, # of connection points: 6
#     Edge 27, Type (0, 1), BuildingBlock: XUDNAN_clean_linker_2, # of connection points: 2
#     Edge 28, Type (0, 1), BuildingBlock: XUDNAN_clean_linker_2, # of connection points: 2
#     Edge 29, Type (0, 1), BuildingBlock: XUDNAN_clean_linker_2, # of connection points: 2
#     Edge 30, Type (0, 1), BuildingBlock: XUDNAN_clean_linker_2, # of connection points: 2
#     Edge 31, Type (0, 1), BuildingBlock: XUDNAN_clean_linker_2, # of connection points: 2
#     Edge 32, Type (0, 1), BuildingBlock: XUDNAN_clean_linker_2, # of connection points: 2
#     Edge 33, Type (0, 1), BuildingBlock: XUDNAN_clean_linker_2, # of connection points: 2
#     Edge 34, Type (0, 1), BuildingBlock: XUDNAN_clean_linker_2, # of connection points: 2
#     Edge 35, Type (0, 1), BuildingBlock: XUDNAN_clean_linker_2, # of connection points: 2
#     Edge 36, Type (0, 1), BuildingBlock: XUDNAN_clean_linker_2, # of connection points: 2
#     Edge 37, Type (0, 1), BuildingBlock: XUDNAN_clean_linker_2, # of connection points: 2
#     Edge 38, Type (0, 1), BuildingBlock: XUDNAN_clean_linker_2, # of connection points: 2
#     Edge 39, Type (0, 1), BuildingBlock: XUDNAN_clean_linker_2, # of connection points: 2
#     Edge 40, Type (0, 1), BuildingBlock: XUDNAN_clean_linker_2, # of connection points: 2
#     Edge 41, Type (0, 1), BuildingBlock: XUDNAN_clean_linker_2, # of connection points: 2
#     Edge 42, Type (0, 1), BuildingBlock: XUDNAN_clean_linker_2, # of connection points: 2
#     Edge 43, Type (0, 1), BuildingBlock: XUDNAN_clean_linker_2, # of connection points: 2
#     Edge 44, Type (0, 1), BuildingBlock: XUDNAN_clean_linker_2, # of connection points: 2
#     Edge 45, Type (0, 1), BuildingBlock: XUDNAN_clean_linker_2, # of connection points: 2
#     Edge 46, Type (0, 1), BuildingBlock: XUDNAN_clean_linker_2, # of connection points: 2
#     Edge 47, Type (0, 1), BuildingBlock: XUDNAN_clean_linker_2, # of connection points: 2
#     Edge 48, Type (0, 1), BuildingBlock: XUDNAN_clean_linker_2, # of connection points: 2
#     Edge 49, Type (0, 1), BuildingBlock: XUDNAN_clean_linker_2, # of connection points: 2
#     Edge 50, Type (0, 1), BuildingBlock: XUDNAN_clean_linker_2, # of connection points: 2
#     Edge 51, Type (0, 1), BuildingBlock: XUDNAN_clean_linker_2, # of connection points: 2
#     Edge 52, Type (0, 1), BuildingBlock: XUDNAN_clean_linker_2, # of connection points: 2
#     Edge 53, Type (0, 1), BuildingBlock: XUDNAN_clean_linker_2, # of connection points: 2
#     Edge 54, Type (0, 1), BuildingBlock: XUDNAN_clean_linker_2, # of connection points: 2
#     Edge 55, Type (0, 1), BuildingBlock: XUDNAN_clean_linker_2, # of connection points: 2
#     Edge 56, Type (0, 1), BuildingBlock: XUDNAN_clean_linker_2, # of connection points: 2
#     Edge 57, Type (0, 1), BuildingBlock: XUDNAN_clean_linker_2, # of connection points: 2
#     Edge 58, Type (0, 1), BuildingBlock: XUDNAN_clean_linker_2, # of connection points: 2
#     Edge 59, Type (0, 1), BuildingBlock: XUDNAN_clean_linker_2, # of connection points: 2
#     Edge 60, Type (0, 1), BuildingBlock: XUDNAN_clean_linker_2, # of connection points: 2
#     Edge 61, Type (0, 1), BuildingBlock: XUDNAN_clean_linker_2, # of connection points: 2
#     Edge 62, Type (0, 1), BuildingBlock: XUDNAN_clean_linker_2, # of connection points: 2
#     Edge 63, Type (0, 1), BuildingBlock: XUDNAN_clean_linker_2, # of connection points: 2
#     Edge 64, Type (0, 1), BuildingBlock: XUDNAN_clean_linker_2, # of connection points: 2
#     Edge 65, Type (0, 1), BuildingBlock: XUDNAN_clean_linker_2, # of connection points: 2
#     Edge 66, Type (0, 1), BuildingBlock: XUDNAN_clean_linker_2, # of connection points: 2
#     Edge 67, Type (0, 1), BuildingBlock: XUDNAN_clean_linker_2, # of connection points: 2
#     Edge 68, Type (0, 1), BuildingBlock: XUDNAN_clean_linker_2, # of connection points: 2
#     Edge 69, Type (0, 1), BuildingBlock: XUDNAN_clean_linker_2, # of connection points: 2
#     Edge 70, Type (0, 1), BuildingBlock: XUDNAN_clean_linker_2, # of connection points: 2
#     Edge 71, Type (0, 1), BuildingBlock: XUDNAN_clean_linker_2, # of connection points: 2
#     Edge 72, Type (0, 1), BuildingBlock: XUDNAN_clean_linker_2, # of connection points: 2
#     Edge 73, Type (0, 1), BuildingBlock: XUDNAN_clean_linker_2, # of connection points: 2
#     Edge 74, Type (0, 1), BuildingBlock: XUDNAN_clean_linker_2, # of connection points: 2
#     Edge 75, Type (0, 1), BuildingBlock: XUDNAN_clean_linker_2, # of connection points: 2
#     Edge 76, Type (0, 1), BuildingBlock: XUDNAN_clean_linker_2, # of connection points: 2
#     Edge 77, Type (0, 1), BuildingBlock: XUDNAN_clean_linker_2, # of connection points: 2
#     Edge 78, Type (0, 1), BuildingBlock: XUDNAN_clean_linker_2, # of connection points: 2
#     Edge 79, Type (0, 1), BuildingBlock: XUDNAN_clean_linker_2, # of connection points: 2
#     Edge 80, Type (0, 1), BuildingBlock: XUDNAN_clean_linker_2, # of connection points: 2
# Relax obj value: 0.044
# Max RMSD: 0.209
# Mean RMSD: 0.150
data_MOF--net-eea--node1-KUMBOL_clean_sbu_0--node2-QEWDON_clean_linker_0--edge1-XUDNAN_clean_linker_2
_symmetry_space_group_name_H-M    P1
_symmetry_Int_Tables_number       1
_symmetry_cell_setting            triclinic
loop_
_symmetry_equiv_pos_as_xyz
'x, y, z'
_cell_length_a     57.673194
_cell_length_b     59.195877
_cell_length_c     63.598313
_cell_angle_alpha  90.167298
_cell_angle_beta   89.859277
_cell_angle_gamma 119.98012
loop_
_atom_site_label
_atom_site_type_symbol
_atom_site_fract_x
_atom_site_fract_y
_atom_site_fract_z
_atom_type_partial_charge
H0 H 0.22862 0.13038 0.42303 0.0
C1 C 0.2289 0.11316 0.41756 0.0
C2 C 0.24643 0.10633 0.42702 0.0
C3 C 0.21085 0.09726 0.4019 0.0
H4 H 0.26107 0.07957 0.42702 0.0
C5 C 0.24639 0.08375 0.42032 0.0
C6 C 0.22786 0.0668 0.4053 0.0
C7 C 0.21026 0.07396 0.39607 0.0
C8 C 0.19183 0.10456 0.39253 0.0
H9 H 0.19581 0.06132 0.38453 0.0
C10 C 0.20011 0.13087 0.3882 0.0
C11 C 0.18181 0.13835 0.38103 0.0
C12 C 0.16504 0.08552 0.38875 0.0
H13 H 0.15784 0.06517 0.3922 0.0
C14 C 0.14693 0.09264 0.38114 0.0
H15 H 0.22092 0.14554 0.39041 0.0
C16 C 0.1551 0.11881 0.37748 0.0
H17 H 0.14025 0.1237 0.37239 0.0
H18 H 0.12627 0.07784 0.37852 0.0
H19 H 0.9056 0.10301 0.43511 0.0
C20 C 0.92183 0.11853 0.42631 0.0
C21 C 0.93517 0.14407 0.43454 0.0
C22 C 0.93082 0.1125 0.40771 0.0
H23 H 0.96803 0.18323 0.43018 0.0
C24 C 0.95738 0.16375 0.42361 0.0
C25 C 0.96661 0.15829 0.40482 0.0
C26 C 0.95275 0.13264 0.39686 0.0
C27 C 0.92 0.08483 0.40102 0.0
H28 H 0.9594 0.12807 0.38234 0.0
C29 C 0.8922 0.06665 0.40007 0.0
C30 C 0.88299 0.04069 0.39337 0.0
C31 C 0.93822 0.07642 0.39586 0.0
H32 H 0.95961 0.08965 0.39689 0.0
C33 C 0.92922 0.0508 0.38971 0.0
H34 H 0.87791 0.07285 0.4039 0.0
C35 C 0.90192 0.03309 0.38845 0.0
H36 H 0.8956 0.01324 0.38376 0.0
H37 H 0.94351 0.04459 0.38594 0.0
H38 H 0.91606 0.7927 0.42772 0.0
C39 C 0.90024 0.79355 0.41922 0.0
C40 C 0.87333 0.77697 0.42503 0.0
C41 C 0.90695 0.81199 0.40299 0.0
H42 H 0.83247 0.76672 0.41881 0.0
C43 C 0.85319 0.77891 0.41412 0.0
C44 C 0.85914 0.79676 0.39764 0.0
C45 C 0.88623 0.81368 0.39241 0.0
C46 C 0.93545 0.83267 0.40005 0.0
H47 H 0.89123 0.82816 0.38022 0.0
C48 C 0.95541 0.82802 0.39116 0.0
C49 C 0.98233 0.84878 0.38932 0.0
C50 C 0.9428 0.85771 0.4074 0.0
H51 H 0.92802 0.86164 0.41441 0.0
C52 C 0.96925 0.87776 0.40637 0.0
H53 H 0.9499 0.8088 0.38527 0.0
C54 C 0.98877 0.87338 0.39757 0.0
H55 H 1.00916 0.88953 0.39714 0.0
H56 H 0.97469 0.89689 0.41243 0.0
H57 H 0.14088 0.23865 0.61853 0.0
C58 C 0.12053 0.23095 0.62404 0.0
C59 C 0.10151 0.23273 0.61126 0.0
C60 C 0.11417 0.22112 0.64465 0.0
H61 H 0.06039 0.22434 0.60987 0.0
C62 C 0.07563 0.22394 0.61951 0.0
C63 C 0.06889 0.21441 0.64014 0.0
C64 C 0.08821 0.21278 0.65252 0.0
C65 C 0.13566 0.22304 0.65888 0.0
H66 H 0.08333 0.20583 0.66857 0.0
C67 C 0.15297 0.21345 0.65313 0.0
C68 C 0.17414 0.21721 0.6666 0.0
C69 C 0.13975 0.23602 0.67823 0.0
H70 H 0.12707 0.24382 0.68296 0.0
C71 C 0.16066 0.23982 0.69143 0.0
H72 H 0.15005 0.20327 0.63833 0.0
C73 C 0.1778 0.23064 0.68565 0.0
H74 H 0.19377 0.23365 0.69628 0.0
H75 H 0.16366 0.25003 0.70621 0.0
H76 H 0.8088 0.91731 0.60744 0.0
C77 C 0.80665 0.89875 0.61198 0.0
C78 C 0.78961 0.87648 0.6002 0.0
C79 C 0.82114 0.89727 0.6292 0.0
H80 H 0.77338 0.83526 0.59692 0.0
C81 C 0.78756 0.85254 0.60543 0.0
C82 C 0.80307 0.85063 0.62164 0.0
C83 C 0.81943 0.87312 0.63364 0.0
C84 C 0.83753 0.92069 0.6428 0.0
H85 H 0.83087 0.87184 0.64651 0.0
C86 C 0.82997 0.9398 0.64591 0.0
C87 C 0.84451 0.96129 0.65948 0.0
C88 C 0.86047 0.92384 0.65321 0.0
H89 H 0.86777 0.91038 0.65072 0.0
C90 C 0.87453 0.94454 0.66707 0.0
H91 H 0.81271 0.93791 0.63774 0.0
C92 C 0.8665 0.96289 0.67042 0.0
H93 H 0.87765 0.97827 0.68169 0.0
H94 H 0.89181 0.94638 0.67529 0.0
H95 H 0.08892 0.88004 0.60731 0.0
C96 C 0.10825 0.89545 0.61261 0.0
C97 C 0.13098 0.90168 0.60035 0.0
C98 C 0.11045 0.90957 0.63114 0.0
H99 H 0.17313 0.92709 0.59649 0.0
C100 C 0.15594 0.92257 0.60625 0.0
C101 C 0.15858 0.9385 0.62357 0.0
C102 C 0.13596 0.9309 0.63648 0.0
C103 C 0.08614 0.90362 0.64416 0.0
H104 H 0.13813 0.94223 0.65039 0.0
C105 C 0.06306 0.87828 0.64517 0.0
C106 C 0.04054 0.87374 0.65739 0.0
C107 C 0.08574 0.92395 0.65554 0.0
H108 H 0.10182 0.94393 0.65443 0.0
C109 C 0.0643 0.91915 0.66844 0.0
H110 H 0.06229 0.8623 0.63629 0.0
C111 C 0.04208 0.89433 0.66956 0.0
H112 H 0.0257 0.89141 0.67971 0.0
H113 H 0.0647 0.93494 0.67737 0.0
H114 H 0.87723 0.44752 0.76838 0.0
C115 C 0.87612 0.43003 0.76196 0.0
C116 C 0.88685 0.41729 0.77354 0.0
C117 C 0.86208 0.419 0.74311 0.0
H118 H 0.89155 0.38358 0.77561 0.0
C119 C 0.88385 0.39367 0.76624 0.0
C120 C 0.86996 0.38229 0.7476 0.0
C121 C 0.85983 0.3954 0.73577 0.0
C122 C 0.8471 0.43028 0.73251 0.0
H123 H 0.84895 0.38644 0.72144 0.0
C124 C 0.85737 0.45752 0.73149 0.0
C125 C 0.84243 0.46764 0.72194 0.0
C126 C 0.82153 0.41348 0.7241 0.0
H127 H 0.81252 0.39251 0.7252 0.0
C128 C 0.80678 0.42343 0.71466 0.0
H129 H 0.87706 0.47082 0.73773 0.0
C130 C 0.81707 0.45025 0.71357 0.0
H131 H 0.80491 0.45739 0.70646 0.0
H132 H 0.7871 0.41027 0.70837 0.0
H133 H 0.55139 0.44155 0.74884 0.0
C134 C 0.57138 0.45511 0.74324 0.0
C135 C 0.5895 0.47503 0.75668 0.0
C136 C 0.57831 0.45352 0.72232 0.0
H137 H 0.62902 0.50892 0.75924 0.0
C138 C 0.61496 0.49347 0.749 0.0
C139 C 0.62264 0.4915 0.72836 0.0
C140 C 0.60425 0.47146 0.71519 0.0
C141 C 0.55787 0.43458 0.70743 0.0
H142 H 0.61 0.47023 0.69917 0.0
C143 C 0.54017 0.40841 0.71319 0.0
C144 C 0.52021 0.39114 0.6991 0.0
C145 C 0.55537 0.44314 0.6874 0.0
H146 H 0.56833 0.46319 0.68262 0.0
C147 C 0.53571 0.42616 0.67347 0.0
H148 H 0.54189 0.40152 0.72856 0.0
C149 C 0.51825 0.40039 0.67923 0.0
H150 H 0.50346 0.38753 0.66794 0.0
H151 H 0.534 0.43301 0.65811 0.0
H152 H 0.58118 0.12499 0.75875 0.0
C153 C 0.56494 0.12559 0.75076 0.0
C154 C 0.53848 0.11 0.75817 0.0
C155 C 0.57035 0.14178 0.73296 0.0
H156 H 0.49721 0.09957 0.7535 0.0
C157 C 0.51757 0.11112 0.74776 0.0
C158 C 0.52226 0.12668 0.72994 0.0
C159 C 0.54865 0.14202 0.72267 0.0
C160 C 0.59842 0.15875 0.72495 0.0
H161 H 0.55209 0.15349 0.70856 0.0
C162 C 0.6176 0.15035 0.72424 0.0
C163 C 0.64346 0.16639 0.7153 0.0
C164 C 0.60588 0.18375 0.71733 0.0
H165 H 0.5922 0.19126 0.71814 0.0
C166 C 0.63098 0.19946 0.70845 0.0
H167 H 0.61224 0.13134 0.73041 0.0
C168 C 0.64938 0.19082 0.70713 0.0
H169 H 0.66817 0.20339 0.69931 0.0
H170 H 0.63612 0.21844 0.70229 0.0
H171 H 0.80312 0.54597 0.94156 0.0
C172 C 0.78703 0.54811 0.94818 0.0
C173 C 0.77672 0.56169 0.93667 0.0
C174 C 0.77596 0.53652 0.96774 0.0
H175 H 0.7445 0.57068 0.93534 0.0
C176 C 0.75366 0.56173 0.94435 0.0
C177 C 0.7421 0.54986 0.96363 0.0
C178 C 0.75492 0.53963 0.97578 0.0
C179 C 0.78393 0.51917 0.97932 0.0
H180 H 0.74722 0.53282 0.99143 0.0
C181 C 0.80964 0.52132 0.97765 0.0
C182 C 0.81543 0.50414 0.98911 0.0
C183 C 0.76453 0.49907 0.99214 0.0
H184 H 0.74402 0.49487 0.99283 0.0
C185 C 0.77083 0.48352 1.00433 0.0
H186 H 0.82477 0.53572 0.96739 0.0
C187 C 0.79607 0.48629 1.00312 0.0
H188 H 0.80016 0.47366 0.01282 0.0
H189 H 0.75582 0.46883 0.0145 0.0
H190 H 0.47899 0.25811 0.93667 0.0
C191 C 0.47631 0.23956 0.9419 0.0
C192 C 0.46326 0.21792 0.92853 0.0
C193 C 0.48687 0.23743 0.96133 0.0
H194 H 0.45075 0.17767 0.9237 0.0
C195 C 0.46094 0.19412 0.93431 0.0
C196 C 0.47253 0.19167 0.95291 0.0
C197 C 0.48451 0.21315 0.96668 0.0
C198 C 0.5015 0.2606 0.97559 0.0
H199 H 0.4927 0.21108 0.98132 0.0
C200 C 0.49522 0.28086 0.97626 0.0
C201 C 0.50892 0.30242 0.98996 0.0
C202 C 0.5222 0.26269 0.98867 0.0
H203 H 0.52885 0.24856 0.98805 0.0
C204 C 0.53502 0.28331 1.00276 0.0
H205 H 0.47983 0.27997 0.96605 0.0
C206 C 0.52828 0.3028 1.00363 0.0
H207 H 0.53844 0.31823 0.01508 0.0
H208 H 0.55046 0.28428 0.01301 0.0
H209 H 0.76872 0.22149 0.94859 0.0
C210 C 0.78725 0.23587 0.95587 0.0
C211 C 0.81087 0.24762 0.94373 0.0
C212 C 0.78752 0.24367 0.97691 0.0
H213 H 0.85265 0.27707 0.94279 0.0
C214 C 0.83471 0.26765 0.95239 0.0
C215 C 0.83565 0.27532 0.97338 0.0
C216 C 0.8123 0.26253 0.98563 0.0
C217 C 0.76222 0.23428 0.98954 0.0
H218 H 0.81337 0.26819 1.00194 0.0
C219 C 0.73903 0.20941 0.98652 0.0
C220 C 0.71559 0.20211 0.99849 0.0
C221 C 0.76097 0.25126 1.00459 0.0
H222 H 0.77728 0.27099 0.00673 0.0
C223 C 0.7384 0.2435 0.01699 0.0
H224 H 0.73887 0.19608 0.97476 0.0
C225 C 0.71598 0.21915 0.01409 0.0
H226 H 0.69847 0.21386 0.02371 0.0
H227 H 0.73806 0.25673 0.02862 0.0
H228 H 0.53665 0.78002 0.10208 0.0
C229 C 0.54094 0.76683 0.09325 0.0
C230 C 0.55798 0.75886 0.10189 0.0
C231 C 0.52885 0.75728 0.07359 0.0
H232 H 0.57546 0.73453 0.09821 0.0
C233 C 0.56299 0.74121 0.09092 0.0
C234 C 0.55093 0.73109 0.07134 0.0
C235 C 0.53389 0.73931 0.06275 0.0
C236 C 0.51006 0.76519 0.0649 0.0
H237 H 0.52476 0.73193 0.04754 0.0
C238 C 0.51606 0.79142 0.06572 0.0
C239 C 0.49806 0.79871 0.05753 0.0
C240 C 0.48567 0.74632 0.05602 0.0
H241 H 0.48031 0.72598 0.05547 0.0
C242 C 0.46764 0.75337 0.04816 0.0
H243 H 0.53504 0.80622 0.07215 0.0
C244 C 0.47373 0.77931 0.04888 0.0
H245 H 0.45927 0.78417 0.04274 0.0
H246 H 0.44883 0.73864 0.0415 0.0
H247 H 0.24634 0.77003 0.09114 0.0
C248 C 0.26066 0.78729 0.08267 0.0
C249 C 0.27139 0.81191 0.09244 0.0
C250 C 0.26948 0.78494 0.06247 0.0
H251 H 0.29876 0.85325 0.08901 0.0
C252 C 0.29051 0.83422 0.08166 0.0
C253 C 0.29924 0.83223 0.06154 0.0
C254 C 0.28865 0.80772 0.05206 0.0
C255 C 0.25961 0.75904 0.05208 0.0
H256 H 0.29513 0.80659 0.03627 0.0
C257 C 0.23259 0.73886 0.0535 0.0
C258 C 0.22328 0.71542 0.04187 0.0
C259 C 0.27745 0.75489 0.03976 0.0
H260 H 0.29851 0.76938 0.03893 0.0
C261 C 0.26842 0.73222 0.02802 0.0
H262 H 0.21895 0.74162 0.06342 0.0
C263 C 0.24161 0.71295 0.02867 0.0
H264 H 0.23542 0.69622 0.01852 0.0
H265 H 0.28227 0.72968 0.01813 0.0
H266 H 0.26725 0.47767 0.09569 0.0
C267 C 0.25016 0.47792 0.08896 0.0
C268 C 0.22547 0.46627 0.09992 0.0
C269 C 0.25319 0.49074 0.06968 0.0
H270 H 0.1852 0.46022 0.09988 0.0
C271 C 0.20371 0.46764 0.09113 0.0
C272 C 0.2062 0.48005 0.07174 0.0
C273 C 0.23073 0.49068 0.06095 0.0
C274 C 0.28005 0.50657 0.0594 0.0
H275 H 0.23256 0.49966 0.04575 0.0
C276 C 0.29919 0.49822 0.05822 0.0
C277 C 0.32407 0.51363 0.04778 0.0
C278 C 0.2866 0.53085 0.0506 0.0
H279 H 0.27301 0.53843 0.05179 0.0
C280 C 0.31074 0.54585 0.04016 0.0
H281 H 0.29464 0.47984 0.06528 0.0
C282 C 0.32913 0.53726 0.03851 0.0
H283 H 0.34726 0.54919 0.02965 0.0
H284 H 0.31518 0.56425 0.03318 0.0
H285 H 0.46701 0.88459 0.26861 0.0
C286 C 0.44933 0.88288 0.27618 0.0
C287 C 0.43801 0.89764 0.26871 0.0
C288 C 0.43672 0.86407 0.29188 0.0
H289 H 0.40461 0.90432 0.27141 0.0
C290 C 0.41365 0.89349 0.27754 0.0
C291 C 0.40062 0.87495 0.29372 0.0
C292 C 0.41274 0.86061 0.30081 0.0
C293 C 0.44443 0.84368 0.29476 0.0
H294 H 0.40312 0.84588 0.31284 0.0
C295 C 0.46922 0.84855 0.30356 0.0
C296 C 0.47528 0.82805 0.30491 0.0
C297 C 0.4265 0.81869 0.28703 0.0
H298 H 0.40767 0.81459 0.28002 0.0
C299 C 0.43286 0.79897 0.28755 0.0
H300 H 0.48313 0.86771 0.30971 0.0
C301 C 0.45695 0.80358 0.29621 0.0
H302 H 0.46116 0.78768 0.29617 0.0
H303 H 0.41902 0.77994 0.28115 0.0
H304 H 0.13812 0.57872 0.2759 0.0
C305 C 0.13548 0.5621 0.28494 0.0
C306 C 0.12187 0.53706 0.27591 0.0
C307 C 0.14701 0.56589 0.30506 0.0
H308 H 0.10873 0.49633 0.28045 0.0
C309 C 0.11951 0.51569 0.28728 0.0
C310 C 0.13085 0.51903 0.30733 0.0
C311 C 0.14415 0.54411 0.31619 0.0
C312 C 0.1634 0.59254 0.31414 0.0
H313 H 0.15301 0.5468 0.33164 0.0
C314 C 0.156 0.61181 0.31173 0.0
C315 C 0.17141 0.6367 0.32097 0.0
C316 C 0.18678 0.59876 0.32549 0.0
H317 H 0.19362 0.58483 0.32708 0.0
C318 C 0.20178 0.62308 0.33492 0.0
H319 H 0.13831 0.60742 0.30274 0.0
C320 C 0.19407 0.6418 0.33292 0.0
H321 H 0.2059 0.66026 0.34091 0.0
H322 H 0.21947 0.62744 0.34389 0.0
H323 H 0.42909 0.54829 0.2751 0.0
C324 C 0.44764 0.56385 0.28154 0.0
C325 C 0.47207 0.56995 0.27201 0.0
C326 C 0.44682 0.57904 0.2982 0.0
H327 H 0.51453 0.59413 0.27312 0.0
C328 C 0.49594 0.59049 0.28022 0.0
C329 C 0.49582 0.60734 0.29599 0.0
C330 C 0.47087 0.60098 0.30505 0.0
C331 C 0.42048 0.57473 0.30583 0.0
H332 H 0.4697 0.61361 0.31681 0.0
C333 C 0.39999 0.55007 0.31301 0.0
C334 C 0.37489 0.54664 0.31951 0.0
C335 C 0.41544 0.59558 0.30487 0.0
H336 H 0.43058 0.61449 0.29911 0.0
C337 C 0.39061 0.59212 0.31063 0.0
H338 H 0.40384 0.53397 0.31397 0.0
C339 C 0.37051 0.56796 0.31773 0.0
H340 H 0.35132 0.56601 0.32169 0.0
H341 H 0.38684 0.60824 0.30946 0.0
Gd342 Gd 0.50877 0.02069 0.04107 0.0
Gd343 Gd 0.50258 0.99511 0.98646 0.0
C344 C 0.43194 0.91832 0.96398 0.0
C345 C 0.45299 0.89232 0.95691 0.0
C346 C 0.47945 0.93664 0.97013 0.0
C347 C 0.45687 0.93915 0.97056 0.0
C348 C 0.47794 0.91354 0.96257 0.0
C349 C 0.42998 0.89464 0.95776 0.0
C350 C 0.40999 0.92226 0.96302 0.0
C351 C 0.41356 0.94691 0.96744 0.0
N352 N 0.45962 0.96254 0.97602 0.0
C353 C 0.43882 0.9671 0.97346 0.0
H354 H 0.44142 0.98616 0.97663 0.0
C355 C 0.52655 0.95694 0.97349 0.0
N356 N 0.50324 0.9574 0.97595 0.0
C357 C 0.5261 0.93465 0.96563 0.0
C358 C 0.50167 0.9128 0.96025 0.0
H359 H 0.54548 0.97381 0.97753 0.0
H360 H 0.41096 0.87833 0.95287 0.0
H361 H 0.5679 0.0236 0.04766 0.0
H362 H 0.39047 0.90671 0.95819 0.0
H363 H 0.39691 0.95042 0.96614 0.0
H364 H 0.45137 0.87426 0.95137 0.0
H365 H 0.47244 0.04799 0.05471 0.0
H366 H 0.62681 0.10232 0.06243 0.0
H367 H 0.61465 0.05648 0.05577 0.0
H368 H 0.57527 0.14513 0.06894 0.0
H369 H 0.54457 0.93429 0.96375 0.0
H370 H 0.50139 0.89556 0.95415 0.0
H371 H 0.61213 0.13556 0.06645 0.0
H372 H 0.4796 0.09127 0.06535 0.0
N373 N 0.55376 0.05059 0.04922 0.0
C374 C 0.60629 0.08798 0.05873 0.0
C375 C 0.59945 0.0621 0.05512 0.0
C376 C 0.58636 0.09485 0.0583 0.0
C377 C 0.55989 0.07538 0.05368 0.0
C378 C 0.57289 0.04349 0.05055 0.0
N379 N 0.51398 0.061 0.05188 0.0
C380 C 0.53929 0.08079 0.055 0.0
C381 C 0.49658 0.08864 0.06238 0.0
C382 C 0.52262 0.10967 0.06435 0.0
C383 C 0.4926 0.06419 0.05638 0.0
C384 C 0.54439 0.10578 0.06108 0.0
H385 H 0.52566 0.12858 0.06903 0.0
O386 O 0.48086 0.00684 0.06739 0.0
O387 O 0.48304 0.99038 0.01782 0.0
O388 O 0.4853 0.02199 0.98926 0.0
O389 O 0.50344 0.04813 0.01928 0.0
O390 O 0.46458 0.00463 0.03759 0.0
O391 O 0.51781 0.00621 0.06959 0.0
O392 O 0.53098 0.01234 0.96075 0.0
O393 O 0.52701 0.02567 0.00959 0.0
O394 O 0.52214 0.99015 0.0383 0.0
O395 O 0.50234 0.9652 0.00816 0.0
O396 O 0.54797 0.01534 0.98984 0.0
O397 O 0.49106 0.00636 0.95736 0.0
C398 C 0.46079 0.98842 0.02263 0.0
C399 C 0.57089 0.1257 0.06452 0.0
C400 C 0.59186 0.12024 0.06312 0.0
C401 C 0.49622 1.00217 0.07943 0.0
C402 C 0.49962 0.01188 0.10133 0.0
C403 C 0.50973 0.03853 0.10517 0.0
C404 C 0.49304 0.99466 0.11858 0.0
C405 C 0.49693 0.0043 0.13939 0.0
C406 C 0.51318 0.04799 0.1257 0.0
C407 C 0.50695 0.03107 0.14269 0.0
C408 C 0.4919 0.04332 1.00046 0.0
C409 C 0.55045 0.03139 1.00458 0.0
C410 C 0.51389 0.01356 0.94808 0.0
C411 C 0.51282 0.00385 0.9264 0.0
C412 C 0.51174 0.97988 0.92322 0.0
C413 C 0.51318 0.01849 0.90872 0.0
C414 C 0.51206 0.0088 0.88817 0.0
C415 C 0.51105 0.9705 0.90301 0.0
C416 C 0.51118 0.98478 0.88563 0.0
C417 C 0.5138 0.96862 0.0268 0.0
H418 H 0.51509 0.0521 0.09234 0.0
H419 H 0.48559 0.97408 0.11583 0.0
H420 H 0.521 0.0686 0.12845 0.0
H421 H 0.51022 0.03894 0.1585 0.0
H422 H 0.51158 0.96837 0.93631 0.0
H423 H 0.51376 0.03692 0.91094 0.0
H424 H 0.51031 0.95201 0.90082 0.0
H425 H 0.51048 0.97695 0.87006 0.0
Gd426 Gd 1.00438 0.49746 0.04871 0.0
Gd427 Gd 0.02815 0.50257 0.99391 0.0
C428 C 0.10533 0.50171 0.97976 0.0
C429 C 0.1346 0.54595 0.96742 0.0
C430 C 0.08856 0.53182 0.97716 0.0
C431 C 0.08448 0.50742 0.98228 0.0
C432 C 0.11348 0.55122 0.96928 0.0
C433 C 0.13053 0.52124 0.97266 0.0
C434 C 0.10013 0.47648 0.98427 0.0
C435 C 0.07447 0.45752 0.99054 0.0
N436 N 0.05996 0.48909 0.98929 0.0
C437 C 0.05442 0.4641 0.99274 0.0
H438 H 0.03482 0.44927 0.99781 0.0
C439 C 0.06989 0.55905 0.97218 0.0
N440 N 0.0678 0.5363 0.97923 0.0
C441 C 0.09427 0.57896 0.96437 0.0
C442 C 0.11626 0.57515 0.96314 0.0
H443 H 0.05295 0.56209 0.97332 0.0
H444 H 0.14686 0.5173 0.97084 0.0
H445 H 0.99434 0.54848 0.04402 0.0
H446 H 0.11564 0.47134 0.98267 0.0
H447 H 0.07016 0.43786 0.99384 0.0
H448 H 0.154 0.56069 0.9616 0.0
H449 H 0.98424 0.44211 0.07505 0.0
H450 H 0.91226 0.52276 0.05778 0.0
H451 H 0.95751 0.55786 0.04759 0.0
H452 H 0.87863 0.43524 0.08184 0.0
H453 H 0.09609 0.59723 0.95935 0.0
H454 H 0.13513 0.5906 0.95708 0.0
H455 H 0.88268 0.47661 0.06991 0.0
H456 H 0.94264 0.4066 0.09069 0.0
N457 N 0.97035 0.5083 0.05187 0.0
C458 C 0.92841 0.51852 0.05623 0.0
C459 C 0.95392 0.53838 0.05054 0.0
C460 C 0.92437 0.49373 0.06087 0.0
C461 C 0.94615 0.48932 0.05881 0.0
C462 C 0.97482 0.53296 0.04858 0.0
N463 N 0.96603 0.46382 0.06505 0.0
C464 C 0.94391 0.46625 0.06564 0.0
C465 C 0.94266 0.4232 0.08358 0.0
C466 C 0.91922 0.42466 0.08315 0.0
C467 C 0.96616 0.44332 0.07476 0.0
C468 C 0.91979 0.44667 0.07453 0.0
H469 H 0.90109 0.40915 0.09012 0.0
O470 O 0.02204 0.49498 0.07813 0.0
O471 O 0.0357 0.49912 0.02756 0.0
O472 O 1.00007 0.46003 1.0027 0.0
O473 O 0.97721 0.4584 0.03381 0.0
O474 O 0.02596 0.47451 0.05279 0.0
O475 O 0.01862 0.52905 0.07136 0.0
O476 O 0.01347 0.50946 0.96466 0.0
O477 O 0.99643 0.5 0.01501 0.0
O478 O 0.031 0.53993 0.03826 0.0
O479 O 0.0576 0.53855 0.01121 0.0
O480 O 1.00722 0.52635 0.99104 0.0
O481 O 0.01259 0.47271 0.96974 0.0
C482 C 0.04153 0.48369 0.0367 0.0
C483 C 0.89745 0.45018 0.0753 0.0
C484 C 0.89975 0.47372 0.06849 0.0
C485 C 0.02477 0.51679 0.08528 0.0
C486 C 0.01544 0.51618 0.1069 0.0
C487 C 0.99026 0.51344 0.11106 0.0
C488 C 0.03202 0.51798 0.12365 0.0
C489 C 0.02368 0.517 0.1446 0.0
C490 C 0.98192 0.51271 0.13181 0.0
C491 C 0.99848 0.5145 0.14851 0.0
C492 C 0.98096 0.44746 0.01692 0.0
C493 C 0.99061 0.51566 0.00637 0.0
C494 C 1.00799 0.48701 0.95669 0.0
C495 C 0.01563 0.48711 0.93469 0.0
C496 C 0.04218 0.49571 0.92882 0.0
C497 C 0.99564 0.47826 0.91931 0.0
C498 C 1.00172 0.47733 0.898 0.0
C499 C 0.04855 0.49528 0.90766 0.0
C500 C 0.0285 0.48609 0.89231 0.0
C501 C 0.05295 0.55094 0.02648 0.0
H502 H 0.97709 0.51186 0.09834 0.0
H503 H 0.05153 0.52026 0.1203 0.0
H504 H 0.96246 0.51057 0.13497 0.0
H505 H 0.99136 0.5134 0.16445 0.0
H506 H 0.05785 0.50262 0.94052 0.0
H507 H 0.97527 0.47213 0.92406 0.0
H508 H 0.06905 0.50183 0.90315 0.0
H509 H 0.0339 0.48536 0.87611 0.0
Gd510 Gd 0.51848 0.52431 0.98715 0.0
Gd511 Gd 0.53668 0.5156 0.04127 0.0
C512 C 0.61665 0.51981 0.05471 0.0
C513 C 0.60243 0.47526 0.06511 0.0
C514 C 0.56945 0.48789 0.05638 0.0
C515 C 0.58961 0.51295 0.05222 0.0
C516 C 0.57555 0.46883 0.06325 0.0
C517 C 0.62296 0.50072 0.06083 0.0
C518 C 0.6365 0.54569 0.05121 0.0
C519 C 0.62911 0.56411 0.04601 0.0
N520 N 0.58274 0.53079 0.0462 0.0
C521 C 0.60201 0.55635 0.04383 0.0
H522 H 0.59679 0.57086 0.03969 0.0
C523 C 0.5231 0.45852 0.06014 0.0
N524 N 0.54378 0.48236 0.05431 0.0
C525 C 0.52809 0.4389 0.06695 0.0
C526 C 0.55444 0.44401 0.06835 0.0
H527 H 0.50267 0.45441 0.0589 0.0
H528 H 0.64361 0.50555 0.06262 0.0
H529 H 0.4574 0.47135 0.98476 0.0
H530 H 0.65751 0.55174 0.05283 0.0
H531 H 0.64429 0.58427 0.04355 0.0
H532 H 0.60754 0.46083 0.07016 0.0
H533 H 0.55708 0.5868 0.97283 0.0
H534 H 0.40095 0.49561 0.96942 0.0
H535 H 0.41088 0.4606 0.9781 0.0
H536 H 0.45637 0.5874 0.95735 0.0
H537 H 0.51163 0.41987 0.07107 0.0
H538 H 0.55827 0.42879 0.07363 0.0
H539 H 0.41816 0.54295 0.96151 0.0
H540 H 0.55158 0.62381 0.96174 0.0
N541 N 0.47362 0.51217 0.98071 0.0
C542 C 0.42142 0.50046 0.97241 0.0
C543 C 0.42695 0.48065 0.97726 0.0
C544 C 0.44248 0.5262 0.97085 0.0
C545 C 0.46872 0.53149 0.97508 0.0
C546 C 0.45336 0.48684 0.98107 0.0
N547 N 0.51523 0.56033 0.97544 0.0
C548 C 0.49019 0.55638 0.97241 0.0
C549 C 0.53414 0.60496 0.96473 0.0
C550 C 0.50849 0.60147 0.96235 0.0
C551 C 0.53719 0.58394 0.97094 0.0
C552 C 0.48611 0.57684 0.9658 0.0
H553 H 0.50619 0.61774 0.9574 0.0
O554 O 0.5422 0.5325 0.95873 0.0
O555 O 0.54839 0.52222 0.00768 0.0
O556 O 0.55131 0.558 0.03261 0.0
O557 O 0.52122 0.55667 0.00762 0.0
O558 O 0.56373 0.55013 0.98473 0.0
O559 O 0.50384 0.49692 0.96094 0.0
O560 O 0.5164 0.5061 0.07165 0.0
O561 O 0.50596 0.51578 0.02055 0.0
O562 O 0.50307 0.48123 0.9945 0.0
O563 O 0.5304 0.48134 0.02173 0.0
O564 O 0.49186 0.48841 0.04408 0.0
O565 O 0.54698 0.54581 0.06465 0.0
C566 C 0.57003 0.53936 0.99952 0.0
C567 C 0.45995 0.57191 0.96233 0.0
C568 C 0.43819 0.5466 0.9647 0.0
C569 C 0.52444 0.51154 0.94905 0.0
C570 C 0.5191 0.51511 0.92704 0.0
C571 C 0.50525 0.52825 0.92214 0.0
C572 C 0.52921 0.5064 0.9107 0.0
C573 C 0.5258 0.51102 0.88949 0.0
C574 C 0.50172 0.53284 0.90119 0.0
C575 C 0.51199 0.52441 0.88496 0.0
C576 C 0.5392 0.56881 0.02252 0.0
C577 C 0.48487 0.49769 0.02864 0.0
C578 C 0.53064 0.5298 0.07878 0.0
C579 C 0.54112 0.53296 0.10037 0.0
C580 C 0.56734 0.53836 0.10402 0.0
C581 C 0.52513 0.5321 0.11744 0.0
C582 C 0.53551 0.5379 0.13815 0.0
C583 C 0.57774 0.54368 0.12435 0.0
C584 C 0.56222 0.54385 0.1412 0.0
C585 C 0.51368 0.46985 0.00589 0.0
H586 H 0.49739 0.53514 0.93448 0.0
H587 H 0.54018 0.49649 0.91452 0.0
H588 H 0.49103 0.54302 0.8975 0.0
H589 H 0.50876 0.52801 0.86884 0.0
H590 H 0.57994 0.53897 0.09112 0.0
H591 H 0.50467 0.52712 0.11433 0.0
H592 H 0.59817 0.54828 0.12702 0.0
H593 H 0.57162 0.5493 0.15648 0.0
Gd594 Gd 0.18514 0.35013 0.38342 0.0
Gd595 Gd 0.16949 0.33493 0.32669 0.0
C596 C 0.09404 0.25971 0.30814 0.0
C597 C 0.11247 0.23454 0.29247 0.0
C598 C 0.14211 0.27832 0.30564 0.0
C599 C 0.12023 0.28039 0.31187 0.0
C600 C 0.13848 0.25566 0.29536 0.0
C601 C 0.09029 0.23654 0.29889 0.0
C602 C 0.07244 0.26319 0.31333 0.0
C603 C 0.07728 0.2872 0.32123 0.0
N604 N 0.12457 0.30316 0.32056 0.0
C605 C 0.10363 0.30722 0.32447 0.0
H606 H 0.10706 0.32559 0.33072 0.0
C607 C 0.18897 0.29934 0.30034 0.0
N608 N 0.16696 0.29907 0.30868 0.0
C609 C 0.1864 0.27728 0.29007 0.0
C610 C 0.16107 0.25523 0.28778 0.0
H611 H 0.20857 0.31636 0.30225 0.0
H612 H 0.07033 0.22033 0.29611 0.0
H613 H 0.24735 0.35861 0.37473 0.0
H614 H 0.052 0.24773 0.31083 0.0
H615 H 0.06072 0.29025 0.32494 0.0
H616 H 0.10928 0.21682 0.28483 0.0
H617 H 0.14924 0.36955 0.41083 0.0
H618 H 0.305 0.43085 0.40208 0.0
H619 H 0.29394 0.39087 0.38207 0.0
H620 H 0.25163 0.46162 0.43579 0.0
H621 H 0.20392 0.27728 0.28395 0.0
H622 H 0.15912 0.23819 0.27976 0.0
H623 H 0.28906 0.45718 0.42198 0.0
H624 H 0.15611 0.40659 0.43326 0.0
N625 N 0.23109 0.37986 0.39001 0.0
C626 C 0.28425 0.41662 0.39895 0.0
C627 C 0.27808 0.39408 0.38768 0.0
C628 C 0.26355 0.42031 0.40635 0.0
C629 C 0.23687 0.40127 0.40168 0.0
C630 C 0.25133 0.37567 0.38359 0.0
N631 N 0.1907 0.38506 0.40469 0.0
C632 C 0.21597 0.40399 0.40919 0.0
C633 C 0.17315 0.40622 0.42648 0.0
C634 C 0.19907 0.42661 0.43036 0.0
C635 C 0.16934 0.3853 0.41379 0.0
C636 C 0.22092 0.4255 0.42192 0.0
H637 H 0.20201 0.44278 0.44022 0.0
O638 O 0.1644 0.33264 0.41286 0.0
O639 O 0.15661 0.32286 0.35974 0.0
O640 O 0.15253 0.35982 0.33899 0.0
O641 O 0.17313 0.37863 0.37122 0.0
O642 O 0.13998 0.32996 0.3857 0.0
O643 O 0.19565 0.32566 0.40156 0.0
O644 O 0.19166 0.35382 0.29823 0.0
O645 O 0.19683 0.36321 0.35041 0.0
O646 O 0.20303 0.32677 0.36948 0.0
O647 O 0.17701 0.30427 0.34056 0.0
O648 O 0.21491 0.35804 0.32445 0.0
O649 O 0.15308 0.35057 0.30399 0.0
C650 C 0.13459 0.31656 0.36859 0.0
C651 C 0.24741 0.44484 0.4262 0.0
C652 C 0.26871 0.44228 0.41837 0.0
C653 C 0.17945 0.3226 0.417 0.0
C654 C 0.19048 0.3264 0.4385 0.0
C655 C 0.21811 0.34206 0.44209 0.0
C656 C 0.17335 0.31342 0.45556 0.0
C657 C 0.1838 0.31548 0.47594 0.0
C658 C 0.22851 0.34418 0.46226 0.0
C659 C 0.21155 0.33084 0.47906 0.0
C660 C 0.15866 0.377 0.35448 0.0
C661 C 0.21917 0.37141 0.34149 0.0
C662 C 0.17285 0.3576 0.29074 0.0
C663 C 0.1657 0.35039 0.26846 0.0
C664 C 0.14732 0.32458 0.26293 0.0
C665 C 0.17774 0.3693 0.25252 0.0
C666 C 0.17165 0.36244 0.23108 0.0
C667 C 0.14127 0.31756 0.24187 0.0
C668 C 0.15338 0.33621 0.22607 0.0
C669 C 0.19335 0.30694 0.3561 0.0
H670 H 0.23172 0.35244 0.4293 0.0
H671 H 0.152 0.30137 0.45292 0.0
H672 H 0.24983 0.35618 0.46488 0.0
H673 H 0.22006 0.33291 0.4946 0.0
H674 H 0.13769 0.30981 0.27485 0.0
H675 H 0.19162 0.38932 0.25691 0.0
H676 H 0.12724 0.29751 0.23775 0.0
H677 H 0.14866 0.32988 0.20988 0.0
Gd678 Gd 0.66332 0.82369 0.38022 0.0
Gd679 Gd 0.69134 0.83593 0.32627 0.0
C680 C 0.77278 0.84605 0.30835 0.0
C681 C 0.79777 0.89176 0.29847 0.0
C682 C 0.7514 0.87228 0.30979 0.0
C683 C 0.75036 0.84876 0.31301 0.0
C684 C 0.77483 0.89384 0.30184 0.0
C685 C 0.79677 0.8679 0.30178 0.0
C686 C 0.77001 0.82122 0.30938 0.0
C687 C 0.74497 0.79973 0.31377 0.0
N688 N 0.72667 0.82795 0.31884 0.0
C689 C 0.72329 0.80343 0.31807 0.0
H690 H 0.70402 0.78659 0.32124 0.0
C691 C 0.72785 0.89539 0.30774 0.0
N692 N 0.72887 0.87358 0.31317 0.0
C693 C 0.7505 0.91719 0.29959 0.0
C694 C 0.77417 0.9165 0.2968 0.0
H695 H 0.70967 0.8961 0.30998 0.0
H696 H 0.81431 0.86629 0.29843 0.0
H697 H 0.6558 0.87649 0.37838 0.0
H698 H 0.78674 0.8183 0.30595 0.0
H699 H 0.74233 0.7803 0.31385 0.0
H700 H 0.81609 0.90824 0.29267 0.0
H701 H 0.63802 0.76287 0.39793 0.0
H702 H 0.57407 0.85261 0.39172 0.0
H703 H 0.61995 0.88718 0.38257 0.0
H704 H 0.53553 0.76181 0.40811 0.0
H705 H 0.74972 0.93455 0.29555 0.0
H706 H 0.79168 0.9334 0.29045 0.0
H707 H 0.5426 0.80569 0.40101 0.0
H708 H 0.59447 0.72642 0.40991 0.0
N709 N 0.63052 0.836 0.3846 0.0
C710 C 0.58978 0.84778 0.38997 0.0
C711 C 0.61565 0.86734 0.38481 0.0
C712 C 0.5846 0.8223 0.39315 0.0
C713 C 0.60571 0.817 0.39044 0.0
C714 C 0.63597 0.86115 0.38246 0.0
N715 N 0.62282 0.78846 0.39242 0.0
C716 C 0.60166 0.79235 0.39428 0.0
C717 C 0.59618 0.74483 0.40548 0.0
C718 C 0.57382 0.74809 0.40638 0.0
C719 C 0.62078 0.76548 0.39876 0.0
C720 C 0.5765 0.77223 0.40112 0.0
H721 H 0.5548 0.73209 0.41164 0.0
O722 O 0.67418 0.81486 0.41058 0.0
O723 O 0.69646 0.82782 0.35962 0.0
O724 O 0.66748 0.79267 0.33391 0.0
O725 O 0.63727 0.78761 0.36045 0.0
O726 O 0.68461 0.80052 0.38344 0.0
O727 O 0.67897 0.853 0.40484 0.0
O728 O 0.67702 0.84253 0.29656 0.0
O729 O 0.65782 0.83039 0.34683 0.0
O730 O 0.69176 0.86721 0.37372 0.0
O731 O 0.71994 0.86991 0.34627 0.0
O732 O 0.66773 0.85739 0.32367 0.0
O733 O 0.67611 0.80597 0.30234 0.0
C734 C 0.70129 0.81131 0.3682 0.0
C735 C 0.55511 0.77709 0.40308 0.0
C736 C 0.55915 0.80208 0.39909 0.0
C737 C 0.68032 0.83745 0.41863 0.0
C738 C 0.66916 0.83716 0.43952 0.0
C739 C 0.64175 0.82813 0.44202 0.0
C740 C 0.68615 0.84665 0.45707 0.0
C741 C 0.67585 0.84743 0.477 0.0
C742 C 0.63138 0.82867 0.46172 0.0
C743 C 0.64828 0.83832 0.47912 0.0
C744 C 0.6445 0.77856 0.34407 0.0
C745 C 0.65086 0.84544 0.33857 0.0
C746 C 0.67178 0.82001 0.2889 0.0
C747 C 0.67991 0.81954 0.26711 0.0
C748 C 0.70533 0.82338 0.26222 0.0
C749 C 0.66108 0.81349 0.25107 0.0
C750 C 0.66685 0.80999 0.23016 0.0
C751 C 0.71157 0.82058 0.24151 0.0
C752 C 0.69245 0.81365 0.22562 0.0
C753 C 0.71443 0.88001 0.36283 0.0
H754 H 0.62839 0.82081 0.42878 0.0
H755 H 0.7074 0.85385 0.45514 0.0
H756 H 0.61018 0.82163 0.4635 0.0
H757 H 0.63974 0.83837 0.49429 0.0
H758 H 0.72012 0.82809 0.2744 0.0
H759 H 0.6418 0.81128 0.25512 0.0
H760 H 0.73112 0.82326 0.23782 0.0
H761 H 0.69766 0.81062 0.20992 0.0
Gd762 Gd 0.17992 0.8558 0.31639 0.0
Gd763 Gd 0.18978 0.84048 0.37064 0.0
C764 C 0.26004 0.82932 0.38835 0.0
C765 C 0.23787 0.78273 0.39521 0.0
C766 C 0.2118 0.80313 0.3857 0.0
C767 C 0.23497 0.82703 0.38405 0.0
C768 C 0.21291 0.78075 0.39156 0.0
C769 C 0.26139 0.80698 0.39363 0.0
C770 C 0.28295 0.85403 0.38741 0.0
C771 C 0.28042 0.87573 0.38276 0.0
N772 N 0.23296 0.84815 0.37863 0.0
C773 C 0.25511 0.87247 0.37864 0.0
H774 H 0.25357 0.88944 0.37498 0.0
C775 C 0.16446 0.77918 0.38504 0.0
N776 N 0.18806 0.80187 0.3819 0.0
C777 C 0.16453 0.75641 0.39073 0.0
C778 C 0.18887 0.75712 0.3938 0.0
H779 H 0.14562 0.7785 0.38242 0.0
H780 H 0.28049 0.80831 0.39679 0.0
H781 H 0.11602 0.80644 0.31452 0.0
H782 H 0.30259 0.85661 0.39052 0.0
H783 H 0.29798 0.89498 0.38224 0.0
H784 H 0.23917 0.76571 0.39955 0.0
H785 H 0.22332 0.91691 0.302 0.0
H786 H 0.06648 0.83667 0.29383 0.0
H787 H 0.07152 0.79967 0.30589 0.0
H788 H 0.12923 0.92652 0.27955 0.0
H789 H 0.14583 0.73831 0.39268 0.0
H790 H 0.18887 0.73945 0.39819 0.0
H791 H 0.08817 0.88407 0.28415 0.0
H792 H 0.22269 0.95564 0.28838 0.0
N793 N 0.13644 0.84718 0.3079 0.0
C794 C 0.0862 0.8398 0.29756 0.0
C795 C 0.08896 0.81887 0.30435 0.0
C796 C 0.10896 0.86443 0.29538 0.0
C797 C 0.13413 0.86748 0.30058 0.0
C798 C 0.11438 0.82285 0.30923 0.0
N799 N 0.18091 0.8932 0.30278 0.0
C800 C 0.15711 0.89129 0.29805 0.0
C801 C 0.20408 0.93768 0.29108 0.0
C802 C 0.17965 0.93634 0.28698 0.0
C803 C 0.20436 0.9157 0.29874 0.0
C804 C 0.15576 0.91285 0.29018 0.0
H805 H 0.17947 0.95338 0.28103 0.0
O806 O 0.20414 0.86318 0.28821 0.0
O807 O 0.20613 0.84902 0.33805 0.0
O808 O 0.21105 0.88395 0.36428 0.0
O809 O 0.18853 0.89065 0.33679 0.0
O810 O 0.22538 0.87835 0.31654 0.0
O811 O 0.16644 0.82705 0.29134 0.0
O812 O 0.16741 0.83104 0.4001 0.0
O813 O 0.1642 0.84808 0.34912 0.0
O814 O 0.15882 0.81187 0.3229 0.0
O815 O 0.18432 0.80805 0.3494 0.0
O816 O 0.14414 0.81962 0.37099 0.0
O817 O 0.2031 0.86879 0.39583 0.0
C818 C 0.22912 0.86566 0.33131 0.0
C819 C 0.13071 0.91015 0.28547 0.0
C820 C 0.10735 0.88597 0.28807 0.0
C821 C 0.18692 0.84133 0.27927 0.0
C822 C 0.18132 0.84257 0.25686 0.0
C823 C 0.16129 0.84792 0.25056 0.0
C824 C 0.19614 0.838 0.24156 0.0
C825 C 0.1911 0.83872 0.21995 0.0
C826 C 0.15607 0.84858 0.2292 0.0
C827 C 0.1708 0.84401 0.21398 0.0
C828 C 0.20372 0.89873 0.35387 0.0
C829 C 0.14106 0.83268 0.35618 0.0
C830 C 0.18416 0.85335 0.40871 0.0
C831 C 0.19218 0.85303 0.43064 0.0
C832 C 0.21608 0.85337 0.43525 0.0
C833 C 0.17663 0.85441 0.44715 0.0
C834 C 0.1854 0.85748 0.46828 0.0
C835 C 0.22478 0.85591 0.456 0.0
C836 C 0.20991 0.85836 0.47231 0.0
C837 C 0.16784 0.79845 0.3333 0.0
H838 H 0.14968 0.8515 0.2621 0.0
H839 H 0.21142 0.83361 0.24655 0.0
H840 H 0.14061 0.85277 0.22441 0.0
H841 H 0.16662 0.84511 0.19755 0.0
H842 H 0.22831 0.85227 0.4228 0.0
H843 H 0.15787 0.8534 0.44326 0.0
H844 H 0.24352 0.85663 0.45942 0.0
H845 H 0.21821 0.86159 0.48798 0.0
Gd846 Gd 0.84206 0.6811 0.70711 0.0
Gd847 Gd 0.83608 0.65705 0.65226 0.0
C848 C 0.76938 0.57674 0.63188 0.0
C849 C 0.79418 0.55483 0.62277 0.0
C850 C 0.81764 0.59955 0.63552 0.0
C851 C 0.7936 0.59927 0.63738 0.0
C852 C 0.81829 0.57765 0.62751 0.0
C853 C 0.76975 0.55433 0.62506 0.0
C854 C 0.74562 0.57767 0.63281 0.0
C855 C 0.74657 0.60097 0.63828 0.0
N856 N 0.79402 0.62143 0.64356 0.0
C857 C 0.77114 0.62292 0.64325 0.0
H858 H 0.77159 0.64083 0.64738 0.0
C859 C 0.86499 0.6243 0.63608 0.0
N860 N 0.84059 0.62189 0.64031 0.0
C861 C 0.86664 0.60318 0.62793 0.0
C862 C 0.84319 0.57965 0.62385 0.0
H863 H 0.88314 0.64247 0.63916 0.0
H864 H 0.75133 0.53677 0.62093 0.0
H865 H 0.90488 0.69211 0.71198 0.0
H866 H 0.72659 0.56074 0.62883 0.0
H867 H 0.72839 0.60206 0.63865 0.0
H868 H 0.79425 0.53767 0.61686 0.0
H869 H 0.79973 0.70105 0.72227 0.0
H870 H 0.95642 0.77294 0.72602 0.0
H871 H 0.95004 0.72905 0.71901 0.0
H872 H 0.89532 0.80486 0.73535 0.0
H873 H 0.88598 0.60503 0.62486 0.0
H874 H 0.84453 0.56332 0.61756 0.0
H875 H 0.93588 0.8013 0.73149 0.0
H876 H 0.80134 0.74189 0.73348 0.0
N877 N 0.88577 0.71482 0.71469 0.0
C878 C 0.93651 0.75676 0.72297 0.0
C879 C 0.93297 0.732 0.71912 0.0
C880 C 0.91421 0.76017 0.72354 0.0
C881 C 0.88875 0.73846 0.71951 0.0
C882 C 0.90728 0.71107 0.71517 0.0
N883 N 0.84193 0.71876 0.7188 0.0
C884 C 0.86606 0.74052 0.72158 0.0
C885 C 0.8197 0.74181 0.73007 0.0
C886 C 0.84437 0.76481 0.73173 0.0
C887 C 0.81885 0.71874 0.72379 0.0
C888 C 0.86799 0.76426 0.72786 0.0
H889 H 0.84498 0.78266 0.73657 0.0
O890 O 0.8158 0.66518 0.73428 0.0
O891 O 0.81792 0.64911 0.68448 0.0
O892 O 0.81404 0.67944 0.65707 0.0
O893 O 0.83294 0.70661 0.68626 0.0
O894 O 0.7972 0.65991 0.70484 0.0
O895 O 0.85475 0.66836 0.73467 0.0
O896 O 0.86215 0.6764 0.62556 0.0
O897 O 0.85917 0.6886 0.67506 0.0
O898 O 0.86101 0.65525 0.70301 0.0
O899 O 0.84268 0.63001 0.67273 0.0
O900 O 0.88158 0.68151 0.6541 0.0
O901 O 0.82072 0.66635 0.62421 0.0
C902 C 0.79465 0.64363 0.69028 0.0
C903 C 0.89337 0.78634 0.73079 0.0
C904 C 0.91646 0.78431 0.72862 0.0
C905 C 0.83308 0.66223 0.74536 0.0
C906 C 0.83679 0.67139 0.76738 0.0
C907 C 0.84664 0.69787 0.7718 0.0
C908 C 0.83077 0.65372 0.78416 0.0
C909 C 0.83496 0.66269 0.80515 0.0
C910 C 0.85049 0.70671 0.79256 0.0
C911 C 0.84484 0.6893 0.80913 0.0
C912 C 0.81974 0.70059 0.66816 0.0
C913 C 0.88292 0.69664 0.66924 0.0
C914 C 0.84324 0.6757 0.61391 0.0
C915 C 0.84178 0.66641 0.592 0.0
C916 C 0.83982 0.64214 0.58834 0.0
C917 C 0.84268 0.6817 0.5746 0.0
C918 C 0.8412 0.67233 0.55386 0.0
C919 C 0.83884 0.63309 0.56798 0.0
C920 C 0.8395 0.64799 0.55087 0.0
C921 C 0.85516 0.6346 0.69102 0.0
H922 H 0.85148 0.71176 0.75924 0.0
H923 H 0.82342 0.63326 0.78092 0.0
H924 H 0.85814 0.72719 0.7958 0.0
H925 H 0.84833 0.69662 0.82512 0.0
H926 H 0.83916 0.63012 0.60118 0.0
H927 H 0.84396 0.7004 0.57716 0.0
H928 H 0.83743 0.61435 0.56544 0.0
H929 H 0.83859 0.64041 0.53518 0.0
Gd930 Gd 0.33015 0.15262 0.70446 0.0
Gd931 Gd 0.36144 0.16964 0.65175 0.0
C932 C 0.44054 0.17283 0.63752 0.0
C933 C 0.47128 0.21948 0.6345 0.0
C934 C 0.42415 0.2031 0.64181 0.0
C935 C 0.41948 0.17778 0.64179 0.0
C936 C 0.44999 0.22421 0.63782 0.0
C937 C 0.46654 0.19383 0.63426 0.0
C938 C 0.43466 0.14691 0.63595 0.0
C939 C 0.40816 0.12676 0.63775 0.0
N940 N 0.39402 0.15792 0.64455 0.0
C941 C 0.38791 0.13267 0.64174 0.0
H942 H 0.36748 0.11697 0.64314 0.0
C943 C 0.406 0.23121 0.64245 0.0
N944 N 0.40302 0.20693 0.64467 0.0
C945 C 0.43131 0.25279 0.63872 0.0
C946 C 0.45346 0.24933 0.63665 0.0
H947 H 0.38896 0.23399 0.64416 0.0
H948 H 0.48302 0.19043 0.63114 0.0
H949 H 0.32654 0.20738 0.70943 0.0
H950 H 0.45029 0.14228 0.63281 0.0
H951 H 0.40331 0.10666 0.63611 0.0
H952 H 0.49133 0.23545 0.63155 0.0
H953 H 0.30244 0.09068 0.71991 0.0
H954 H 0.2456 0.18624 0.72295 0.0
H955 H 0.2928 0.22005 0.71672 0.0
H956 H 0.2024 0.09363 0.73252 0.0
H957 H 0.43369 0.27204 0.63734 0.0
H958 H 0.47301 0.26608 0.63362 0.0
H959 H 0.21179 0.1388 0.72841 0.0
H960 H 0.2583 0.05481 0.7312 0.0
N961 N 0.29906 0.16656 0.71151 0.0
C962 C 0.26043 0.1805 0.71991 0.0
C963 C 0.28701 0.19963 0.71636 0.0
C964 C 0.25359 0.15426 0.72037 0.0
C965 C 0.27373 0.14791 0.71635 0.0
C966 C 0.30619 0.19231 0.71232 0.0
N967 N 0.28893 0.11791 0.71609 0.0
C968 C 0.26846 0.12267 0.71866 0.0
C969 C 0.26083 0.07377 0.72762 0.0
C970 C 0.23912 0.07799 0.72915 0.0
C971 C 0.28582 0.09415 0.72125 0.0
C972 C 0.24289 0.10282 0.72504 0.0
H973 H 0.21979 0.0622 0.73408 0.0
O974 O 0.34356 0.14159 0.73242 0.0
O975 O 0.36271 0.1557 0.6838 0.0
O976 O 0.33106 0.12619 0.65416 0.0
O977 O 0.30237 0.11978 0.68263 0.0
O978 O 0.34613 0.12465 0.70429 0.0
O979 O 0.34646 0.17946 0.73087 0.0
O980 O 0.35111 0.18354 0.62375 0.0
O981 O 0.32755 0.16419 0.67185 0.0
O982 O 0.35991 0.19624 0.69996 0.0
O983 O 0.39042 0.1973 0.67558 0.0
O984 O 0.34274 0.19569 0.65208 0.0
O985 O 0.35063 0.14668 0.62298 0.0
C986 C 0.36403 0.13609 0.68993 0.0
C987 C 0.22228 0.10866 0.72787 0.0
C988 C 0.22763 0.13437 0.72553 0.0
C989 C 0.34996 0.16322 0.74231 0.0
C990 C 0.34205 0.16091 0.7645 0.0
C991 C 0.31542 0.14495 0.77079 0.0
C992 C 0.36195 0.17416 0.77968 0.0
C993 C 0.35581 0.17072 0.80134 0.0
C994 C 0.30891 0.14184 0.79215 0.0
C995 C 0.3289 0.15433 0.80733 0.0
C996 C 0.30834 0.11205 0.66476 0.0
C997 C 0.32425 0.1826 0.66569 0.0
C998 C 0.34813 0.16405 0.61216 0.0
C999 C 0.36121 0.17099 0.59141 0.0
C1000 C 0.38916 0.18345 0.58971 0.0
C1001 C 0.3457 0.16616 0.57316 0.0
C1002 C 0.35813 0.17432 0.55338 0.0
C1003 C 0.40156 0.19142 0.57013 0.0
C1004 C 0.38619 0.18707 0.55206 0.0
C1005 C 0.38416 0.20752 0.69149 0.0
H1006 H 0.29981 0.13468 0.75926 0.0
H1007 H 0.38229 0.18697 0.77443 0.0
H1008 H 0.28836 0.12926 0.79698 0.0
H1009 H 0.32322 0.15056 0.82372 0.0
H1010 H 0.40142 0.18722 0.60347 0.0
H1011 H 0.32408 0.15662 0.5744 0.0
H1012 H 0.42315 0.20111 0.56897 0.0
H1013 H 0.39619 0.19339 0.537 0.0
Gd1014 Gd 0.84035 0.17574 0.66047 0.0
Gd1015 Gd 0.85588 0.16718 0.71535 0.0
C1016 C 0.93597 0.17361 0.73184 0.0
C1017 C 0.92248 0.12911 0.74189 0.0
C1018 C 0.88904 0.14056 0.73174 0.0
C1019 C 0.90891 0.16601 0.72828 0.0
C1020 C 0.89551 0.12189 0.73895 0.0
C1021 C 0.94268 0.15493 0.73834 0.0
C1022 C 0.95543 0.19979 0.72891 0.0
C1023 C 0.94761 0.21773 0.72311 0.0
N1024 N 0.90172 0.18346 0.72178 0.0
C1025 C 0.92049 0.20924 0.71984 0.0
H1026 H 0.91478 0.22329 0.71521 0.0
C1027 C 0.84274 0.1101 0.734 0.0
N1028 N 0.86325 0.13428 0.72871 0.0
C1029 C 0.84813 0.09083 0.74105 0.0
C1030 C 0.87465 0.09667 0.74333 0.0
H1031 H 0.82222 0.10547 0.73209 0.0
H1032 H 0.96338 0.16034 0.74095 0.0
H1033 H 0.7803 0.12137 0.65785 0.0
H1034 H 0.97646 0.2064 0.73135 0.0
H1035 H 0.96247 0.23807 0.72102 0.0
H1036 H 0.92789 0.11499 0.74722 0.0
H1037 H 0.8776 0.23788 0.64526 0.0
H1038 H 0.72241 0.14232 0.63896 0.0
H1039 H 0.73362 0.10876 0.64962 0.0
H1040 H 0.77568 0.23381 0.62471 0.0
H1041 H 0.83186 0.0715 0.74469 0.0
H1042 H 0.87878 0.08172 0.74881 0.0
H1043 H 0.73833 0.18902 0.62953 0.0
H1044 H 0.87102 0.27334 0.6317 0.0
N1045 N 0.79532 0.16185 0.65279 0.0
C1046 C 0.74294 0.14801 0.64267 0.0
C1047 C 0.7492 0.129 0.64862 0.0
C1048 C 0.7634 0.17398 0.64087 0.0
C1049 C 0.78975 0.18036 0.64605 0.0
C1050 C 0.77571 0.13626 0.65332 0.0
N1051 N 0.83595 0.21041 0.64712 0.0
C1052 C 0.81075 0.20543 0.64305 0.0
C1053 C 0.85389 0.25434 0.63486 0.0
C1054 C 0.82801 0.24981 0.63137 0.0
C1055 C 0.85755 0.23421 0.6425 0.0
C1056 C 0.80605 0.225 0.63513 0.0
H1057 H 0.82524 0.26541 0.62536 0.0
O1058 O 0.86407 0.18479 0.63187 0.0
O1059 O 0.86993 0.17485 0.68224 0.0
O1060 O 0.86816 0.20918 0.70733 0.0
O1061 O 0.84049 0.20764 0.68006 0.0
O1062 O 0.88549 0.20278 0.65941 0.0
O1063 O 0.82819 0.14704 0.63543 0.0
O1064 O 0.83265 0.15748 0.74424 0.0
O1065 O 0.82591 0.16697 0.69347 0.0
O1066 O 0.826 0.13292 0.6682 0.0
O1067 O 0.85302 0.13418 0.69606 0.0
O1068 O 0.81102 0.13921 0.71666 0.0
O1069 O 0.8673 0.19596 0.74021 0.0
C1070 C 0.89171 0.19249 0.67462 0.0
C1071 C 0.77973 0.21902 0.63071 0.0
C1072 C 0.75847 0.19352 0.63346 0.0
C1073 C 0.84767 0.16258 0.62296 0.0
C1074 C 0.84072 0.16373 0.60086 0.0
C1075 C 0.81833 0.16596 0.59567 0.0
C1076 C 0.85684 0.16265 0.58472 0.0
C1077 C 0.85075 0.16375 0.5634 0.0
C1078 C 0.8121 0.16701 0.57462 0.0
C1079 C 0.82813 0.16591 0.55858 0.0
C1080 C 0.85526 0.2189 0.69689 0.0
C1081 C 0.80451 0.1486 0.70097 0.0
C1082 C 0.84827 0.18013 0.75286 0.0
C1083 C 0.85589 0.18002 0.77489 0.0
C1084 C 0.87367 0.17133 0.78026 0.0
C1085 C 0.84548 0.18909 0.79071 0.0
C1086 C 0.85288 0.18971 0.81194 0.0
C1087 C 0.88105 0.17177 0.8012 0.0
C1088 C 0.87085 0.18093 0.81693 0.0
C1089 C 0.83708 0.12228 0.67993 0.0
H1090 H 0.80567 0.16684 0.60783 0.0
H1091 H 0.87398 0.16067 0.58882 0.0
H1092 H 0.79483 0.1688 0.57072 0.0
H1093 H 0.82305 0.16722 0.54242 0.0
H1094 H 0.88193 0.16437 0.7683 0.0
H1095 H 0.83152 0.19551 0.78644 0.0
H1096 H 0.89493 0.16519 0.80525 0.0
H1097 H 0.87747 0.18158 0.83295 0.0
H1098 H 0.34922 0.84385 0.04799 0.0
H1099 H 0.29462 0.87408 0.05067 0.0
H1100 H 0.32877 0.91497 0.03397 0.0
H1101 H 0.40538 0.90091 0.06327 0.0
H1102 H 0.42897 0.89773 0.04664 0.0
H1103 H 0.3988 0.8691 0.05492 0.0
H1104 H 0.38682 0.85544 0.01593 0.0
H1105 H 0.41691 0.88437 0.00762 0.0
H1106 H 0.38484 0.87769 0.99772 0.0
H1107 H 0.36945 0.95385 0.0218 0.0
H1108 H 0.41568 0.99016 0.01769 0.0
H1109 H 0.44559 0.93629 0.02306 0.0
C1110 C 0.34437 0.8589 0.04448 0.0
C1111 C 0.31929 0.85589 0.05032 0.0
C1112 C 0.3137 0.87611 0.04617 0.0
C1113 C 0.33287 0.89924 0.03654 0.0
C1114 C 0.35757 0.90186 0.0312 0.0
C1115 C 0.36351 0.88234 0.03508 0.0
C1116 C 0.39278 0.89159 0.03035 0.0
C1117 C 0.40733 0.88974 0.04997 0.0
C1118 C 0.39548 0.87636 0.0118 0.0
C1119 C 0.4026 0.91974 0.0243 0.0
C1120 C 0.38169 0.92491 0.02431 0.0
C1121 C 0.38588 0.94995 0.02125 0.0
C1122 C 0.41216 0.97043 0.01892 0.0
C1123 C 0.43394 0.96581 0.01954 0.0
C1124 C 0.42912 0.94007 0.02172 0.0
H1125 H 0.15116 0.44575 0.07184 0.0
H1126 H 0.21139 0.52416 0.05351 0.0
H1127 H 0.1761 0.53204 0.04013 0.0
H1128 H 0.10556 0.43371 0.02747 0.0
H1129 H 0.07582 0.41615 0.04325 0.0
H1130 H 0.10586 0.41565 0.05015 0.0
H1131 H 0.10448 0.43269 0.08748 0.0
H1132 H 0.07444 0.43316 0.08066 0.0
H1133 H 0.10322 0.46239 0.09024 0.0
H1134 H 0.13463 0.53285 0.03065 0.0
H1135 H 0.08937 0.52638 0.02625 0.0
H1136 H 0.055 0.44783 0.05033 0.0
C1137 C 0.15693 0.46453 0.06495 0.0
C1138 C 0.18427 0.48416 0.06348 0.0
C1139 C 0.1908 0.5085 0.05437 0.0
C1140 C 0.17084 0.51327 0.0468 0.0
C1141 C 0.14424 0.49355 0.04839 0.0
C1142 C 0.13716 0.46966 0.05723 0.0
C1143 C 0.10689 0.45226 0.05768 0.0
C1144 C 0.09802 0.428 0.04381 0.0
C1145 C 0.09666 0.44469 0.08037 0.0
C1146 C 0.09816 0.47038 0.04823 0.0
C1147 C 0.1201 0.49399 0.04279 0.0
C1148 C 0.11731 0.51428 0.03456 0.0
C1149 C 0.09144 0.51041 0.03196 0.0
C1150 C 0.06858 0.48642 0.03725 0.0
C1151 C 0.07209 0.46618 0.0456 0.0
H1152 H 0.51422 0.68644 0.05029 0.0
H1153 H 0.59792 0.73037 0.06846 0.0
H1154 H 0.60444 0.69464 0.0557 0.0
H1155 H 0.50188 0.62505 0.06491 0.0
H1156 H 0.48092 0.60764 0.04282 0.0
H1157 H 0.48319 0.63762 0.0515 0.0
H1158 H 0.49762 0.65663 0.01391 0.0
H1159 H 0.4953 0.62649 1.00536 0.0
H1160 H 0.52602 0.6569 1.00171 0.0
H1161 H 0.60074 0.6524 0.04574 0.0
H1162 H 0.58794 0.60736 0.03573 0.0
H1163 H 0.50761 0.59132 0.02132 0.0
C1164 C 0.5341 0.68889 0.05101 0.0
C1165 C 0.55549 0.71118 0.06064 0.0
C1166 C 0.58108 0.71333 0.06156 0.0
C1167 C 0.58506 0.69321 0.0542 0.0
C1168 C 0.5634 0.67118 0.04553 0.0
C1169 C 0.53853 0.66904 0.04346 0.0
C1170 C 0.51844 0.64269 0.03423 0.0
C1171 C 0.49472 0.62736 0.04928 0.0
C1172 C 0.50878 0.64588 0.01251 0.0
C1173 C 0.53568 0.63009 0.03234 0.0
C1174 C 0.56157 0.64695 0.03888 0.0
C1175 C 0.58069 0.63918 0.04017 0.0
C1176 C 0.57319 0.61352 0.03461 0.0
C1177 C 0.54689 0.59598 0.02766 0.0
C1178 C 0.528 0.6045 0.02626 0.0
H1179 H 0.86912 0.32297 0.95515 0.0
H1180 H 0.85772 0.27857 0.01223 0.0
H1181 H 0.89532 0.31724 0.02882 0.0
H1182 H 0.9431 0.36187 0.95805 0.0
H1183 H 0.94411 0.39083 0.94809 0.0
H1184 H 0.91764 0.3591 0.94011 0.0
H1185 H 0.88247 0.37114 0.95286 0.0
H1186 H 0.90882 0.40278 0.961 0.0
H1187 H 0.88367 0.38181 0.97962 0.0
H1188 H 0.93132 0.36156 0.04035 0.0
H1189 H 0.96499 0.40808 0.04531 0.0
H1190 H 0.95435 0.42379 0.98063 0.0
C1191 C 0.87498 0.32118 0.97095 0.0
C1192 C 0.8604 0.29767 0.98239 0.0
C1193 C 0.86837 0.29639 1.00321 0.0
C1194 C 0.88979 0.31823 0.01274 0.0
C1195 C 0.90328 0.34124 1.00122 0.0
C1196 C 0.89641 0.34283 0.9807 0.0
C1197 C 0.91348 0.37027 0.97215 0.0
C1198 C 0.9306 0.37052 0.9535 0.0
C1199 C 0.89606 0.38219 0.96606 0.0
C1200 C 0.9307 0.38391 0.99118 0.0
C1201 C 0.92445 0.36678 0.00778 0.0
C1202 C 0.93655 0.37508 0.0274 0.0
C1203 C 0.95545 0.40157 0.03016 0.0
C1204 C 0.96213 0.41943 0.01341 0.0
C1205 C 0.94984 0.4104 0.9936 0.0
H1206 H 0.72075 0.58333 0.96353 0.0
H1207 H 0.70161 0.50436 0.97872 0.0
H1208 H 0.65732 0.49449 0.99138 0.0
H1209 H 0.68531 0.59142 0.00826 0.0
H1210 H 0.67314 0.60932 0.99352 0.0
H1211 H 0.70423 0.61111 0.98617 0.0
H1212 H 0.68619 0.59601 0.94839 0.0
H1213 H 0.65515 0.59432 0.95567 0.0
H1214 H 0.65492 0.56608 0.94473 0.0
H1215 H 0.61479 0.49198 1.00149 0.0
H1216 H 0.57547 0.49682 0.00728 0.0
H1217 H 0.62005 0.57707 0.98627 0.0
C1218 C 0.7072 0.564 0.9695 0.0
C1219 C 0.71503 0.5448 0.97045 0.0
C1220 C 0.69651 0.51966 0.97829 0.0
C1221 C 0.67118 0.51377 0.98547 0.0
C1222 C 0.66427 0.53311 0.98472 0.0
C1223 C 0.68154 0.5577 0.97687 0.0
C1224 C 0.66839 0.57449 0.97749 0.0
C1225 C 0.68369 0.59798 0.99224 0.0
C1226 C 0.66602 0.58324 0.95524 0.0
C1227 C 0.64102 0.55529 0.9865 0.0
C1228 C 0.63931 0.53165 0.9907 0.0
C1229 C 0.61599 0.51052 0.9985 0.0
C1230 C 0.59369 0.51351 1.00192 0.0
C1231 C 0.59475 0.53749 0.99788 0.0
C1232 C 0.61881 0.55865 0.98998 0.0
H1233 H 0.47232 0.16813 0.99106 0.0
H1234 H 0.47831 0.16099 0.92337 0.0
H1235 H 0.48122 0.12165 0.92867 0.0
H1236 H 0.52225 0.15007 1.00322 0.0
H1237 H 0.50588 0.13283 0.02694 0.0
H1238 H 0.50195 0.15964 0.01817 0.0
H1239 H 0.4504 0.12961 0.0185 0.0
H1240 H 0.45429 0.10275 0.02721 0.0
H1241 H 0.43549 0.09958 1.0037 0.0
H1242 H 0.48339 0.08332 0.94047 0.0
H1243 H 0.48858 0.04963 0.95852 0.0
H1244 H 0.4859 0.08277 0.01885 0.0
C1245 C 0.47431 0.15843 0.9773 0.0
C1246 C 0.47421 0.16758 0.9567 0.0
C1247 C 0.47703 0.15405 0.93928 0.0
C1248 C 0.47905 0.13171 0.9421 0.0
C1249 C 0.4789 0.12326 0.96246 0.0
C1250 C 0.47702 0.13629 0.97983 0.0
C1251 C 0.479 0.12364 1.00001 0.0
C1252 C 0.50374 0.14268 0.01284 0.0
C1253 C 0.45325 0.11328 0.01312 0.0
C1254 C 0.48211 0.10146 0.99112 0.0
C1255 C 0.4817 0.10158 0.96942 0.0
C1256 C 0.48381 0.08301 0.95747 0.0
C1257 C 0.48661 0.06381 0.96795 0.0
C1258 C 0.48759 0.06338 0.99022 0.0
C1259 C 0.48535 0.08256 1.00191 0.0
H1260 H 0.70314 0.15007 0.99845 0.0
H1261 H 0.66895 0.20016 0.9899 0.0
H1262 H 0.62368 0.16191 0.99065 0.0
H1263 H 0.65075 0.0948 0.96544 0.0
H1264 H 0.65079 0.07025 0.98213 0.0
H1265 H 0.68089 0.10137 0.97903 0.0
H1266 H 0.68349 0.10672 0.01917 0.0
H1267 H 0.65252 0.07658 0.02294 0.0
H1268 H 0.65642 0.10667 0.03331 0.0
H1269 H 0.58275 0.12033 0.99667 0.0
H1270 H 0.54683 0.07534 1.00141 0.0
H1271 H 0.60497 0.04934 1.00411 0.0
C1272 C 0.6861 0.15277 0.99606 0.0
C1273 C 0.68953 0.17813 0.99426 0.0
C1274 C 0.66675 0.18095 0.99145 0.0
C1275 C 0.64094 0.15936 0.99191 0.0
C1276 C 0.63808 0.13483 0.99476 0.0
C1277 C 0.65987 0.13113 0.99614 0.0
C1278 C 0.65056 0.1023 0.9992 0.0
C1279 C 0.65873 0.09154 0.98032 0.0
C1280 C 0.66137 0.09779 0.01989 0.0
C1281 C 0.62032 0.09078 1.00005 0.0
C1282 C 0.61381 0.11011 0.99756 0.0
C1283 C 0.58753 0.10494 0.99845 0.0
C1284 C 0.56715 0.0792 1.00148 0.0
C1285 C 0.57293 0.05874 1.00366 0.0
C1286 C 0.59996 0.06463 1.00272 0.0
H1287 H 0.86918 0.5443 0.98806 0.0
H1288 H 0.81826 0.46019 0.98404 0.0
H1289 H 0.85733 0.45471 0.9886 0.0
H1290 H 0.9261 0.54354 0.95785 0.0
H1291 H 0.9513 0.57051 0.97284 0.0
H1292 H 0.91943 0.56823 0.9679 0.0
H1293 H 0.91364 0.5715 0.00765 0.0
H1294 H 0.94466 0.57237 0.01327 0.0
H1295 H 0.91387 0.54772 0.02507 0.0
H1296 H 0.89939 0.4573 0.99973 0.0
H1297 H 0.94559 0.46813 0.00739 0.0
H1298 H 0.97254 0.55034 0.99917 0.0
C1299 C 0.86644 0.52483 0.9875 0.0
C1300 C 0.84041 0.50263 0.9864 0.0
C1301 C 0.83779 0.47748 0.98556 0.0
C1302 C 0.8599 0.4741 0.98812 0.0
C1303 C 0.88492 0.4961 0.9906 0.0
C1304 C 0.88869 0.52104 0.98931 0.0
C1305 C 0.91829 0.54111 0.99176 0.0
C1306 C 0.92944 0.55677 0.97137 0.0
C1307 C 0.92289 0.55924 0.01057 0.0
C1308 C 0.93003 0.52343 0.99569 0.0
C1309 C 0.91018 0.49756 0.99517 0.0
C1310 C 0.9153 0.47745 0.9997 0.0
C1311 C 0.9416 0.48382 1.00426 0.0
C1312 C 0.96264 0.51004 1.00396 0.0
C1313 C 0.95678 0.53012 0.99945 0.0
H1314 H 0.54487 0.35417 0.9979 0.0
H1315 H 0.46138 0.3021 0.98183 0.0
H1316 H 0.45382 0.33963 0.98194 0.0
H1317 H 0.53154 0.39177 0.03539 0.0
H1318 H 0.5619 0.42146 0.02887 0.0
H1319 H 0.56035 0.39052 0.02584 0.0
H1320 H 0.57484 0.40229 0.98678 0.0
H1321 H 0.5755 0.43285 0.98992 0.0
H1322 H 0.55519 0.41035 0.96963 0.0
H1323 H 0.45585 0.38403 0.98381 0.0
H1324 H 0.46641 0.42959 0.99053 0.0
H1325 H 0.54666 0.44978 0.00953 0.0
C1326 C 0.52479 0.35028 0.99469 0.0
C1327 C 0.50378 0.32485 0.98985 0.0
C1328 C 0.47808 0.32129 0.98519 0.0
C1329 C 0.4735 0.34252 0.98536 0.0
C1330 C 0.49468 0.36717 0.99049 0.0
C1331 C 0.51971 0.37098 0.99534 0.0
C1332 C 0.53886 0.39895 1.00152 0.0
C1333 C 0.54871 0.40075 0.02426 0.0
C1334 C 0.56249 0.41186 0.98603 0.0
C1335 C 0.52068 0.41034 0.99953 0.0
C1336 C 0.4954 0.39197 0.99276 0.0
C1337 C 0.47554 0.39848 0.98925 0.0
C1338 C 0.4817 0.42435 0.99302 0.0
C1339 C 0.50725 0.44306 1.00064 0.0
C1340 C 0.52687 0.43585 1.00385 0.0
H1341 H 0.204 0.66275 0.03569 0.0
H1342 H 0.17696 0.71769 0.05042 0.0
H1343 H 0.13029 0.68135 0.05044 0.0
H1344 H 0.15304 0.62812 0.99732 0.0
H1345 H 0.15094 0.59742 1.00334 0.0
H1346 H 0.18197 0.62741 0.00715 0.0
H1347 H 0.18255 0.61439 0.04608 0.0
H1348 H 0.15125 0.58465 0.04223 0.0
H1349 H 0.15438 0.60697 0.06284 0.0
H1350 H 0.08544 0.63735 0.04866 0.0
H1351 H 0.04829 0.59223 0.04173 0.0
H1352 H 0.10629 0.5702 0.02204 0.0
C1353 C 0.18855 0.66765 0.0386 0.0
C1354 C 0.19473 0.69356 0.04296 0.0
C1355 C 0.17327 0.69818 0.04742 0.0
C1356 C 0.14651 0.6776 0.04729 0.0
C1357 C 0.14137 0.65254 0.04229 0.0
C1358 C 0.16191 0.64772 0.0377 0.0
C1359 C 0.15145 0.61974 0.03108 0.0
C1360 C 0.15985 0.6181 0.00838 0.0
C1361 C 0.16044 0.60562 0.04648 0.0
C1362 C 0.12174 0.60945 0.03263 0.0
C1363 C 0.11609 0.62832 0.03958 0.0
C1364 C 0.08973 0.62257 0.043 0.0
C1365 C 0.06878 0.59695 0.03907 0.0
C1366 C 0.07441 0.57779 0.03124 0.0
C1367 C 0.10124 0.58435 0.02793 0.0
H1368 H 0.37924 0.54491 0.04696 0.0
H1369 H 0.31628 0.4637 0.04366 0.0
H1370 H 0.35047 0.45092 0.03752 0.0
H1371 H 0.41647 0.54157 1.00485 0.0
H1372 H 0.44944 0.56285 0.01542 0.0
H1373 H 0.42178 0.56735 0.02268 0.0
H1374 H 0.42765 0.56275 0.06192 0.0
H1375 H 0.45677 0.56011 0.05608 0.0
H1376 H 0.42984 0.5352 0.07139 0.0
H1377 H 0.39214 0.44704 0.03281 0.0
H1378 H 0.43743 0.45259 0.02859 0.0
H1379 H 0.47208 0.5365 0.02989 0.0
C1380 C 0.37238 0.52439 0.04478 0.0
C1381 C 0.34473 0.50537 0.04575 0.0
C1382 C 0.33716 0.47872 0.04334 0.0
C1383 C 0.35648 0.47127 0.03963 0.0
C1384 C 0.38335 0.49065 0.03814 0.0
C1385 C 0.39127 0.51667 0.04063 0.0
C1386 C 0.42129 0.53383 0.03766 0.0
C1387 C 0.42767 0.55252 0.01904 0.0
C1388 C 0.43467 0.54885 0.05797 0.0
C1389 C 0.42908 0.51338 0.03297 0.0
C1390 C 0.40696 0.48854 0.0337 0.0
C1391 C 0.40946 0.46639 0.03177 0.0
C1392 C 0.43519 0.4697 0.02933 0.0
C1393 C 0.45798 0.49492 0.0281 0.0
C1394 C 0.45483 0.51702 0.02982 0.0
H1395 H 0.49086 0.82461 0.02513 0.0
H1396 H 0.52047 0.83566 0.08909 0.0
H1397 H 0.52978 0.88139 0.08828 0.0
H1398 H 0.53971 0.88829 0.00784 0.0
H1399 H 0.51727 0.89147 0.99025 0.0
H1400 H 0.51252 0.85972 0.99578 0.0
H1401 H 0.46393 0.84322 0.00826 0.0
H1402 H 0.46764 0.87447 1.00199 0.0
H1403 H 0.45758 0.86131 0.02808 0.0
H1404 H 0.53387 0.9262 0.08018 0.0
H1405 H 0.53281 0.96453 0.06573 0.0
H1406 H 0.49976 0.92205 0.00758 0.0
C1407 C 0.49904 0.8365 0.03909 0.0
C1408 C 0.50468 0.82646 0.05724 0.0
C1409 C 0.5161 0.84298 0.07495 0.0
C1410 C 0.52132 0.86893 0.07466 0.0
C1411 C 0.51519 0.87808 0.05649 0.0
C1412 C 0.50432 0.86223 0.03907 0.0
C1413 C 0.50015 0.87652 0.02122 0.0
C1414 C 0.51849 0.87914 1.00268 0.0
C1415 C 0.47057 0.86307 0.01451 0.0
C1416 C 0.50898 0.90259 0.03155 0.0
C1417 C 0.51804 0.90344 0.05178 0.0
C1418 C 0.52691 0.92569 0.0643 0.0
C1419 C 0.52624 0.9474 0.05595 0.0
C1420 C 0.51648 0.94662 0.03535 0.0
C1421 C 0.50785 0.92378 0.02316 0.0
H1422 H 0.98582 0.21152 0.40141 0.0
H1423 H 1.00572 0.15178 0.38554 0.0
H1424 H 0.04862 0.18535 0.37066 0.0
H1425 H 0.01935 0.2547 0.35602 0.0
H1426 H 0.03098 0.28389 0.37155 0.0
H1427 H 1.00017 0.25485 0.37841 0.0
H1428 H 0.01826 0.25653 0.41603 0.0
H1429 H 0.04901 0.28554 0.40926 0.0
H1430 H 0.04979 0.25747 0.41928 0.0
H1431 H 0.09153 0.22596 0.36034 0.0
H1432 H 0.13085 0.27011 0.3568 0.0
H1433 H 0.08408 0.30366 0.38028 0.0
C1434 C 0.99904 0.20537 0.39469 0.0
C1435 C 0.99192 0.17871 0.39452 0.0
C1436 C 1.01007 0.17181 0.38545 0.0
C1437 C 0.0347 0.19083 0.37703 0.0
C1438 C 0.04115 0.21686 0.37771 0.0
C1439 C 0.02383 0.22415 0.38632 0.0
C1440 C 0.03639 0.25361 0.38654 0.0
C1441 C 0.02078 0.26226 0.37228 0.0
C1442 C 0.03849 0.26388 0.40912 0.0
C1443 C 0.06377 0.26174 0.3774 0.0
C1444 C 0.06597 0.24025 0.37203 0.0
C1445 C 0.08984 0.2429 0.36418 0.0
C1446 C 0.11208 0.2681 0.36209 0.0
C1447 C 0.11031 0.29036 0.36771 0.0
C1448 C 0.08578 0.287 0.3754 0.0
H1449 H 0.84959 0.8379 0.38935 0.0
H1450 H 0.81617 0.7546 0.38089 0.0
H1451 H 0.77415 0.75077 0.36811 0.0
H1452 H 0.79239 0.83596 0.40856 0.0
H1453 H 0.79598 0.86426 0.39502 0.0
H1454 H 0.82509 0.86166 0.40074 0.0
H1455 H 0.83778 0.86811 0.36142 0.0
H1456 H 0.80837 0.87015 0.35521 0.0
H1457 H 0.81428 0.84642 0.34218 0.0
H1458 H 0.73349 0.75383 0.36333 0.0
H1459 H 0.69744 0.76472 0.36232 0.0
H1460 H 0.75586 0.84661 0.36992 0.0
C1461 C 0.83373 0.81907 0.38409 0.0
C1462 C 0.83626 0.79649 0.38618 0.0
C1463 C 0.81475 0.77211 0.37955 0.0
C1464 C 0.79076 0.76974 0.3722 0.0
C1465 C 0.78842 0.792 0.37112 0.0
C1466 C 0.80941 0.81636 0.37641 0.0
C1467 C 0.8006 0.83673 0.37481 0.0
C1468 C 0.8037 0.85045 0.39605 0.0
C1469 C 0.81618 0.85653 0.35737 0.0
C1470 C 0.77118 0.81974 0.36886 0.0
C1471 C 0.76477 0.794 0.3668 0.0
C1472 C 0.73841 0.77401 0.36409 0.0
C1473 C 0.71804 0.78035 0.36353 0.0
C1474 C 0.72396 0.80655 0.36493 0.0
C1475 C 0.75097 0.82658 0.36755 0.0
H1476 H 0.21077 0.03711 0.36817 0.0
H1477 H 0.24014 0.03708 0.43124 0.0
H1478 H 0.24103 0.99734 0.42291 0.0
H1479 H 0.16477 0.96706 0.36854 0.0
H1480 H 0.16845 0.96301 0.34086 0.0
H1481 H 0.17259 0.99343 0.35057 0.0
H1482 H 0.21964 0.01797 0.33347 0.0
H1483 H 0.21568 0.98752 0.32394 0.0
H1484 H 0.24411 0.00865 0.34001 0.0
H1485 H 0.24096 0.95917 0.40813 0.0
H1486 H 0.23171 0.91909 0.39011 0.0
H1487 H 0.19474 0.93777 0.33854 0.0
C1488 C 0.21726 0.02883 0.38037 0.0
C1489 C 0.22653 0.0414 0.40016 0.0
C1490 C 0.23446 0.02921 0.41553 0.0
C1491 C 0.23474 0.00625 0.41107 0.0
C1492 C 0.22613 0.9949 0.39141 0.0
C1493 C 0.21676 0.0052 0.37647 0.0
C1494 C 0.2063 0.98735 0.35734 0.0
C1495 C 0.17624 0.9771 0.35415 0.0
C1496 C 0.2224 1.00121 0.33752 0.0
C1497 C 0.21148 0.96561 0.36399 0.0
C1498 C 0.22349 0.97089 0.38352 0.0
C1499 C 0.23114 0.95453 0.39297 0.0
C1500 C 0.22569 0.93166 0.38251 0.0
C1501 C 0.21201 0.92481 0.36296 0.0
C1502 C 0.20514 0.94231 0.35345 0.0
H1503 H 0.50897 0.63929 0.33223 0.0
H1504 H 0.54079 0.63524 0.27092 0.0
H1505 H 0.58224 0.67481 0.27892 0.0
H1506 H 0.53541 0.70904 0.3282 0.0
H1507 H 0.5423 0.71515 0.35591 0.0
H1508 H 0.51549 0.68407 0.34706 0.0
H1509 H 0.5366 0.66077 0.36714 0.0
H1510 H 0.56353 0.69187 0.37587 0.0
H1511 H 0.57084 0.66964 0.36186 0.0
H1512 H 0.62099 0.71426 0.29287 0.0
H1513 H 0.65234 0.75564 0.30956 0.0
H1514 H 0.59442 0.74061 0.35922 0.0
C1515 C 0.52444 0.64648 0.32035 0.0
C1516 C 0.52123 0.63253 0.30122 0.0
C1517 C 0.5425 0.64369 0.2863 0.0
C1518 C 0.56637 0.66676 0.29052 0.0
C1519 C 0.56884 0.67949 0.30944 0.0
C1520 C 0.5483 0.67029 0.32392 0.0
C1521 C 0.55561 0.68961 0.34207 0.0
C1522 C 0.53604 0.70008 0.34338 0.0
C1523 C 0.55671 0.67722 0.36297 0.0
C1524 C 0.58341 0.7109 0.33535 0.0
C1525 C 0.59067 0.70416 0.31669 0.0
C1526 C 0.61544 0.71995 0.30737 0.0
C1527 C 0.63317 0.7436 0.31707 0.0
C1528 C 0.626 0.75186 0.33573 0.0
C1529 C 0.60072 0.73501 0.34507 0.0
H1530 H 0.38009 0.90866 0.29884 0.0
H1531 H 0.35867 0.82766 0.30723 0.0
H1532 H 0.31479 0.81777 0.321 0.0
H1533 H 0.34421 0.91366 0.34442 0.0
H1534 H 0.33326 0.93337 0.33088 0.0
H1535 H 0.36421 0.93496 0.32342 0.0
H1536 H 0.34744 0.92346 0.28497 0.0
H1537 H 0.31657 0.92202 0.29235 0.0
H1538 H 0.31591 0.89438 0.27976 0.0
H1539 H 0.27176 0.81583 0.33292 0.0
H1540 H 0.23293 0.82189 0.33911 0.0
H1541 H 0.28041 0.90298 0.32125 0.0
C1542 C 0.36629 0.8888 0.30353 0.0
C1543 C 0.37363 0.86918 0.30219 0.0
C1544 C 0.35447 0.84348 0.30863 0.0
C1545 C 0.32916 0.83751 0.31639 0.0
C1546 C 0.32277 0.85727 0.31756 0.0
C1547 C 0.3407 0.88237 0.31113 0.0
C1548 C 0.32817 0.89964 0.31285 0.0
C1549 C 0.34338 0.92172 0.32884 0.0
C1550 C 0.32695 0.91051 0.29119 0.0
C1551 C 0.30032 0.88026 0.32088 0.0
C1552 C 0.29775 0.85599 0.3238 0.0
C1553 C 0.27369 0.83482 0.33072 0.0
C1554 C 0.25163 0.8384 0.33428 0.0
C1555 C 0.25351 0.86289 0.33095 0.0
C1556 C 0.27838 0.88409 0.3243 0.0
H1557 H 0.13786 0.48025 0.29023 0.0
H1558 H 0.12348 0.50759 0.3496 0.0
H1559 H 0.12689 0.47277 0.36819 0.0
H1560 H 0.09972 0.41037 0.30287 0.0
H1561 H 0.12296 0.40362 0.28912 0.0
H1562 H 0.11794 0.42983 0.28049 0.0
H1563 H 0.16891 0.46211 0.28372 0.0
H1564 H 0.17403 0.43604 0.29244 0.0
H1565 H 0.18546 0.46489 0.3084 0.0
H1566 H 0.13544 0.43706 0.38049 0.0
H1567 H 0.14634 0.40201 0.38524 0.0
H1568 H 0.15296 0.39708 0.31768 0.0
C1569 C 0.13473 0.47858 0.30707 0.0
C1570 C 0.13039 0.49672 0.31843 0.0
C1571 C 0.12714 0.49415 0.34056 0.0
C1572 C 0.12886 0.47433 0.35125 0.0
C1573 C 0.13356 0.45706 0.33957 0.0
C1574 C 0.13617 0.45884 0.31794 0.0
C1575 C 0.14199 0.43841 0.30911 0.0
C1576 C 0.11929 0.41943 0.29454 0.0
C1577 C 0.16921 0.45113 0.29776 0.0
C1578 C 0.14267 0.42512 0.32919 0.0
C1579 C 0.13781 0.43615 0.3466 0.0
C1580 C 0.13896 0.42808 0.36695 0.0
C1581 C 0.14537 0.40828 0.36952 0.0
C1582 C 0.15037 0.39673 0.35188 0.0
C1583 C 0.1487 0.40516 0.33148 0.0
H1584 H 0.35923 0.4954 0.30771 0.0
H1585 H 0.34067 0.54046 0.3517 0.0
H1586 H 0.30023 0.50056 0.36284 0.0
H1587 H 0.29414 0.45109 0.29183 0.0
H1588 H 0.29776 0.42256 0.29138 0.0
H1589 H 0.32657 0.45435 0.28742 0.0
H1590 H 0.35096 0.44661 0.31833 0.0
H1591 H 0.32229 0.41463 0.32219 0.0
H1592 H 0.33494 0.4375 0.34372 0.0
H1593 H 0.25815 0.45779 0.36482 0.0
H1594 H 0.22085 0.41268 0.36253 0.0
H1595 H 0.26829 0.39251 0.32199 0.0
C1596 C 0.34704 0.49681 0.32003 0.0
C1597 C 0.35296 0.52143 0.32831 0.0
C1598 C 0.33627 0.52216 0.34446 0.0
C1599 C 0.31326 0.49951 0.35108 0.0
C1600 C 0.30737 0.47587 0.34197 0.0
C1601 C 0.32409 0.47411 0.32727 0.0
C1602 C 0.31272 0.44597 0.3201 0.0
C1603 C 0.30749 0.44335 0.29627 0.0
C1604 C 0.33134 0.43557 0.32647 0.0
C1605 C 0.28665 0.43257 0.33248 0.0
C1606 C 0.28397 0.45033 0.34485 0.0
C1607 C 0.26048 0.44345 0.35589 0.0
C1608 C 0.23937 0.41764 0.35462 0.0
C1609 C 0.2421 0.39856 0.34318 0.0
C1610 C 0.26602 0.40635 0.33169 0.0
H1611 H 0.52933 0.86798 0.30277 0.0
H1612 H 0.47646 0.79317 0.33187 0.0
H1613 H 0.51529 0.79028 0.3438 0.0
H1614 H 0.57909 0.85536 0.2851 0.0
H1615 H 0.60765 0.88629 0.29209 0.0
H1616 H 0.57598 0.88416 0.28666 0.0
H1617 H 0.57673 0.90409 0.32315 0.0
H1618 H 0.60868 0.9067 0.32849 0.0
H1619 H 0.58115 0.88936 0.34645 0.0
H1620 H 0.55836 0.79065 0.34603 0.0
H1621 H 0.60477 0.7999 0.34762 0.0
H1622 H 0.63255 0.87758 0.32336 0.0
C1623 C 0.52598 0.85138 0.31214 0.0
C1624 C 0.49958 0.83041 0.31577 0.0
C1625 C 0.49628 0.80911 0.32823 0.0
C1626 C 0.51828 0.80727 0.33517 0.0
C1627 C 0.54384 0.82733 0.3303 0.0
C1628 C 0.54802 0.84951 0.31985 0.0
C1629 C 0.57801 0.86827 0.31724 0.0
C1630 C 0.58562 0.87384 0.29388 0.0
C1631 C 0.58665 0.89362 0.32957 0.0
C1632 C 0.58967 0.8526 0.32704 0.0
C1633 C 0.56939 0.82888 0.33414 0.0
C1634 C 0.57452 0.80967 0.34149 0.0
C1635 C 0.60113 0.81518 0.3425 0.0
C1636 C 0.62264 0.84009 0.33713 0.0
C1637 C 0.61666 0.85881 0.32869 0.0
H1638 H 0.20566 0.68929 0.31718 0.0
H1639 H 0.12099 0.63164 0.31942 0.0
H1640 H 0.1101 0.66708 0.31816 0.0
H1641 H 0.20106 0.73185 0.35314 0.0
H1642 H 0.22676 0.76099 0.3407 0.0
H1643 H 0.22744 0.73104 0.3385 0.0
H1644 H 0.22813 0.7346 0.29778 0.0
H1645 H 0.22738 0.76459 0.29993 0.0
H1646 H 0.20226 0.73786 0.28468 0.0
H1647 H 0.10898 0.71012 0.31972 0.0
H1648 H 0.11827 0.75546 0.32607 0.0
H1649 H 0.20326 0.78279 0.32515 0.0
C1650 C 0.18476 0.68391 0.31739 0.0
C1651 C 0.16423 0.65753 0.31845 0.0
C1652 C 0.13716 0.65162 0.31829 0.0
C1653 C 0.13076 0.67166 0.31767 0.0
C1654 C 0.15163 0.69748 0.31727 0.0
C1655 C 0.17809 0.70352 0.31722 0.0
C1656 C 0.19701 0.73254 0.31883 0.0
C1657 C 0.21405 0.7395 0.33898 0.0
C1658 C 0.21473 0.743 0.29912 0.0
C1659 C 0.17713 0.74199 0.32 0.0
C1660 C 0.15101 0.7217 0.31879 0.0
C1661 C 0.12939 0.72611 0.32047 0.0
C1662 C 0.13477 0.75183 0.32395 0.0
C1663 C 0.16146 0.77242 0.32601 0.0
C1664 C 0.1827 0.76739 0.3236 0.0
H1665 H 0.85893 0.00681 0.36081 0.0
H1666 H 0.84152 0.02956 0.42101 0.0
H1667 H 0.79477 0.99264 0.41883 0.0
H1668 H 0.79311 0.98507 0.33752 0.0
H1669 H 0.7934 0.95892 0.32337 0.0
H1670 H 0.82441 0.98823 0.32888 0.0
H1671 H 0.84282 0.96148 0.34728 0.0
H1672 H 0.81216 0.93189 0.34157 0.0
H1673 H 0.82386 0.93958 0.36831 0.0
H1674 H 0.75049 0.94988 0.4109 0.0
H1675 H 0.71408 0.90729 0.39812 0.0
H1676 H 0.76262 0.91297 0.344 0.0
C1677 C 0.84527 0.00421 0.37351 0.0
C1678 C 0.85395 0.02103 0.39115 0.0
C1679 C 0.83527 0.01709 0.40725 0.0
C1680 C 0.80873 0.99606 0.40618 0.0
C1681 C 0.80114 0.97932 0.38881 0.0
C1682 C 0.81896 0.9834 0.37273 0.0
C1683 C 0.80651 0.96249 0.35602 0.0
C1684 C 0.80423 0.97439 0.33522 0.0
C1685 C 0.82228 0.94801 0.35315 0.0
C1686 C 0.77925 0.94505 0.36563 0.0
C1687 C 0.77618 0.95522 0.38433 0.0
C1688 C 0.75272 0.94195 0.39617 0.0
C1689 C 0.73211 0.91767 0.38879 0.0
C1690 C 0.73519 0.90664 0.36987 0.0
C1691 C 0.75916 0.92081 0.35825 0.0
H1692 H 0.99668 0.8099 0.39258 0.0
H1693 H 0.0183 0.88288 0.36123 0.0
H1694 H 0.05982 0.88563 0.34842 0.0
H1695 H 0.06074 0.82518 0.40903 0.0
H1696 H 0.05774 0.79396 0.40344 0.0
H1697 H 0.02828 0.79606 0.40917 0.0
H1698 H 1.007 0.77314 0.37391 0.0
H1699 H 0.03631 0.77068 0.36823 0.0
H1700 H 0.02516 0.78624 0.34973 0.0
H1701 H 0.1027 0.88526 0.34478 0.0
H1702 H 0.14031 0.87682 0.34387 0.0
H1703 H 0.09018 0.80095 0.37192 0.0
C1704 C 1.00978 0.82604 0.38254 0.0
C1705 C 1.00427 0.84648 0.37837 0.0
C1706 C 0.02219 0.86728 0.36517 0.0
C1707 C 0.04591 0.86903 0.35771 0.0
C1708 C 0.05144 0.84943 0.36294 0.0
C1709 C 0.0336 0.82786 0.37446 0.0
C1710 C 0.04492 0.80969 0.37769 0.0
C1711 C 0.0481 0.80602 0.40123 0.0
C1712 C 0.02729 0.78337 0.36674 0.0
C1713 C 0.07211 0.82492 0.36687 0.0
C1714 C 0.07545 0.84794 0.35871 0.0
C1715 C 0.09986 0.86674 0.35022 0.0
C1716 C 0.12117 0.86166 0.34955 0.0
C1717 C 0.11789 0.8375 0.35638 0.0
C1718 C 0.093 0.81909 0.36552 0.0
H1719 H 0.16398 0.16056 0.35157 0.0
H1720 H 0.2181 0.1801 0.40465 0.0
H1721 H 0.23062 0.22618 0.40121 0.0
H1722 H 0.20329 0.22079 0.32169 0.0
H1723 H 0.17414 0.22215 0.31351 0.0
H1724 H 0.17171 0.19109 0.3184 0.0
H1725 H 0.13336 0.17978 0.34512 0.0
H1726 H 0.13575 0.21078 0.34014 0.0
H1727 H 0.13883 0.20182 0.36662 0.0
H1728 H 0.23502 0.26962 0.39386 0.0
H1729 H 0.22925 0.30679 0.3842 0.0
H1730 H 0.17047 0.2587 0.33723 0.0
C1731 C 0.17852 0.17444 0.36248 0.0
C1732 C 0.19024 0.16648 0.37824 0.0
C1733 C 0.2093 0.18556 0.39206 0.0
C1734 C 0.21647 0.21187 0.39033 0.0
C1735 C 0.20434 0.21891 0.37478 0.0
C1736 C 0.18566 0.20075 0.36116 0.0
C1737 C 0.17419 0.21315 0.34683 0.0
C1738 C 0.18127 0.21171 0.32374 0.0
C1739 C 0.14373 0.20064 0.34987 0.0
C1740 C 0.18888 0.24097 0.35489 0.0
C1741 C 0.20647 0.24395 0.3708 0.0
C1742 C 0.22146 0.26758 0.38131 0.0
C1743 C 0.218 0.28859 0.37571 0.0
C1744 C 0.19948 0.28579 0.35987 0.0
C1745 C 0.18512 0.26171 0.34913 0.0
H1746 H 0.64573 0.54462 0.72598 0.0
H1747 H 0.66024 0.48104 0.71218 0.0
H1748 H 0.70533 0.51259 0.69846 0.0
H1749 H 0.67923 0.58257 0.67913 0.0
H1750 H 0.6922 0.6134 0.69254 0.0
H1751 H 0.6612 0.58574 0.70108 0.0
H1752 H 0.6803 0.5907 0.73877 0.0
H1753 H 0.71121 0.61845 0.73034 0.0
H1754 H 0.7115 0.59113 0.74249 0.0
H1755 H 0.75069 0.55218 0.68893 0.0
H1756 H 0.79076 0.59563 0.68334 0.0
H1757 H 0.74444 0.63241 0.6999 0.0
C1758 C 0.65847 0.53742 0.72009 0.0
C1759 C 0.64971 0.51049 0.72028 0.0
C1760 C 0.6667 0.50166 0.71219 0.0
C1761 C 0.69228 0.51941 0.70435 0.0
C1762 C 0.70036 0.54591 0.70431 0.0
C1763 C 0.68379 0.55481 0.71179 0.0
C1764 C 0.69705 0.58416 0.70992 0.0
C1765 C 0.68148 0.59191 0.69476 0.0
C1766 C 0.7002 0.59685 0.73167 0.0
C1767 C 0.72389 0.59051 0.70074 0.0
C1768 C 0.72556 0.56826 0.69762 0.0
C1769 C 0.74933 0.56965 0.69084 0.0
C1770 C 0.77196 0.5944 0.68748 0.0
C1771 C 0.77045 0.61736 0.6904 0.0
C1772 C 0.74597 0.61517 0.69691 0.0
H1773 H 0.51124 0.1662 0.72036 0.0
H1774 H 0.47998 0.08295 0.71432 0.0
H1775 H 0.43837 0.07774 0.69895 0.0
H1776 H 0.45098 0.16203 0.73657 0.0
H1777 H 0.45536 0.19027 0.72245 0.0
H1778 H 0.48415 0.18823 0.73047 0.0
H1779 H 0.5006 0.1956 0.69209 0.0
H1780 H 0.47141 0.19668 0.68342 0.0
H1781 H 0.47957 0.17363 0.67185 0.0
H1782 H 0.39821 0.08005 0.68925 0.0
H1783 H 0.36182 0.09007 0.68469 0.0
H1784 H 0.41788 0.17207 0.69507 0.0
C1785 C 0.49587 0.14704 0.71524 0.0
C1786 C 0.49891 0.12495 0.71838 0.0
C1787 C 0.4781 0.10009 0.712 0.0
C1788 C 0.45441 0.09697 0.7032 0.0
C1789 C 0.45168 0.1189 0.70074 0.0
C1790 C 0.47181 0.14353 0.70645 0.0
C1791 C 0.46261 0.1634 0.70354 0.0
C1792 C 0.46331 0.17676 0.72451 0.0
C1793 C 0.47955 0.18354 0.68672 0.0
C1794 C 0.43398 0.14592 0.69599 0.0
C1795 C 0.4283 0.12035 0.69438 0.0
C1796 C 0.40259 0.10008 0.68988 0.0
C1797 C 0.38204 0.10592 0.6873 0.0
C1798 C 0.38723 0.13188 0.68874 0.0
C1799 C 0.41365 0.15222 0.69292 0.0
H1800 H 0.87612 0.36282 0.70957 0.0
H1801 H 0.84865 0.34076 0.77382 0.0
H1802 H 0.83977 0.29625 0.7668 0.0
H1803 H 0.82783 0.29914 0.68541 0.0
H1804 H 0.85185 0.30023 0.66666 0.0
H1805 H 0.85419 0.33011 0.67593 0.0
H1806 H 0.90305 0.34667 0.68777 0.0
H1807 H 0.90077 0.31683 0.67858 0.0
H1808 H 0.91005 0.32707 0.70546 0.0
H1809 H 0.83658 0.25554 0.75424 0.0
H1810 H 0.83861 0.21973 0.73619 0.0
H1811 H 0.86791 0.26657 0.67973 0.0
C1812 C 0.86786 0.34843 0.72199 0.0
C1813 C 0.86328 0.35526 0.7423 0.0
C1814 C 0.85266 0.33603 0.75825 0.0
C1815 C 0.84738 0.31065 0.75439 0.0
C1816 C 0.85263 0.30465 0.73442 0.0
C1817 C 0.86247 0.32281 0.71839 0.0
C1818 C 0.86741 0.3112 0.69868 0.0
C1819 C 0.84923 0.31011 0.6806 0.0
C1820 C 0.89709 0.32635 0.69226 0.0
C1821 C 0.85941 0.28401 0.70641 0.0
C1822 C 0.85076 0.28073 0.72705 0.0
C1823 C 0.84323 0.25781 0.73806 0.0
C1824 C 0.84474 0.2377 0.72778 0.0
C1825 C 0.85376 0.24061 0.70676 0.0
C1826 C 0.86081 0.26389 0.69579 0.0
H1827 H 0.18044 0.96735 0.66074 0.0
H1828 H 0.19427 0.96997 0.59318 0.0
H1829 H 0.23463 0.01237 0.59718 0.0
H1830 H 0.19824 0.03483 0.66404 0.0
H1831 H 0.21352 0.04001 0.6896 0.0
H1832 H 0.1869 0.00808 0.68227 0.0
H1833 H 0.21742 0.9887 0.69039 0.0
H1834 H 0.24411 0.02061 0.69772 0.0
H1835 H 0.24961 1.00216 0.67771 0.0
H1836 H 0.2734 0.0549 0.60774 0.0
H1837 H 0.30625 0.09635 0.62408 0.0
H1838 H 0.26513 0.06977 0.6839 0.0
C1839 C 0.19174 0.97664 0.64668 0.0
C1840 C 0.18396 0.96428 0.62666 0.0
C1841 C 0.1999 0.9778 0.60891 0.0
C1842 C 0.22291 1.00233 0.61091 0.0
C1843 C 0.22975 0.01378 0.6307 0.0
C1844 C 0.21452 1.00163 0.64827 0.0
C1845 C 0.2255 0.0193 0.66744 0.0
C1846 C 0.20481 0.02594 0.67636 0.0
C1847 C 0.23471 0.00695 0.68431 0.0
C1848 C 0.24919 0.04316 0.65778 0.0
C1849 C 0.25141 0.0393 0.63663 0.0
C1850 C 0.27184 0.05819 0.6243 0.0
C1851 C 0.2905 0.08172 0.6338 0.0
C1852 C 0.2885 0.0865 0.65541 0.0
C1853 C 0.26739 0.06686 0.66746 0.0
H1854 H 0.04311 0.24291 0.63913 0.0
H1855 H 0.0336 0.16935 0.66071 0.0
H1856 H 0.98794 0.15633 0.67345 0.0
H1857 H 1.00697 0.25162 0.6832 0.0
H1858 H 0.99253 0.26626 0.66691 0.0
H1859 H 0.02462 0.26995 0.66019 0.0
H1860 H 1.00668 0.25071 0.62318 0.0
H1861 H 0.97458 0.24695 0.62985 0.0
H1862 H 0.97687 0.21919 0.62095 0.0
H1863 H 0.94152 0.14983 0.68074 0.0
H1864 H 0.90009 0.15182 0.68449 0.0
H1865 H 0.94071 0.23089 0.66084 0.0
C1866 C 0.03143 0.22409 0.64661 0.0
C1867 C 0.04189 0.20705 0.64882 0.0
C1868 C 0.02608 0.18273 0.65891 0.0
C1869 C 1.0001 0.17517 0.66615 0.0
C1870 C 0.99031 0.19232 0.66353 0.0
C1871 C 1.00566 0.21644 0.65426 0.0
C1872 C 0.9905 0.23128 0.65334 0.0
C1873 C 1.0045 0.25626 0.66671 0.0
C1874 C 0.98695 0.23738 0.63047 0.0
C1875 C 0.96395 0.21153 0.66305 0.0
C1876 C 0.96423 0.18915 0.66879 0.0
C1877 C 0.94141 0.16754 0.67678 0.0
C1878 C 0.91787 0.1689 0.67903 0.0
C1879 C 0.91726 0.19186 0.67387 0.0
C1880 C 0.94071 0.21335 0.66561 0.0
H1881 H 0.81262 0.83177 0.65908 0.0
H1882 H 0.79336 0.8118 0.59297 0.0
H1883 H 0.79126 0.77008 0.59905 0.0
H1884 H 0.85858 0.80714 0.66075 0.0
H1885 H 0.85061 0.79606 0.68756 0.0
H1886 H 0.84763 0.82342 0.67886 0.0
H1887 H 0.79815 0.79987 0.69123 0.0
H1888 H 0.80105 0.77238 0.69975 0.0
H1889 H 0.77526 0.76767 0.68137 0.0
H1890 H 0.7909 0.73038 0.61179 0.0
H1891 H 0.79856 0.69775 0.62918 0.0
H1892 H 0.82503 0.74589 0.68546 0.0
C1893 C 0.80816 0.81894 0.64571 0.0
C1894 C 0.8024 0.82531 0.62559 0.0
C1895 C 0.79662 0.80736 0.6088 0.0
C1896 C 0.79565 0.78353 0.612 0.0
C1897 C 0.80126 0.77799 0.63193 0.0
C1898 C 0.80803 0.79538 0.64841 0.0
C1899 C 0.81557 0.78549 0.66777 0.0
C1900 C 0.84483 0.80414 0.6741 0.0
C1901 C 0.79635 0.78109 0.68611 0.0
C1902 C 0.81186 0.75984 0.6595 0.0
C1903 C 0.80309 0.75575 0.63893 0.0
C1904 C 0.79792 0.73341 0.62788 0.0
C1905 C 0.80233 0.71493 0.63798 0.0
C1906 C 0.81237 0.71907 0.65883 0.0
C1907 C 0.81702 0.74185 0.6697 0.0
H1908 H 0.03098 0.82241 0.65874 0.0
H1909 H 0.9908 0.8678 0.65486 0.0
H1910 H 0.94734 0.82796 0.65893 0.0
H1911 H 0.97921 0.76649 0.62842 0.0
H1912 H 0.9822 0.74255 0.64382 0.0
H1913 H 0.01072 0.77473 0.64052 0.0
H1914 H 0.0155 0.77955 0.68081 0.0
H1915 H 0.98641 0.74784 0.68457 0.0
H1916 H 0.98788 0.77621 0.69644 0.0
H1917 H 0.90853 0.78467 0.66543 0.0
H1918 H 0.87517 0.73845 0.6691 0.0
H1919 H 0.93787 0.71836 0.66672 0.0
C1920 C 0.013 0.82386 0.65844 0.0
C1921 C 0.01453 0.8485 0.65702 0.0
C1922 C 0.99039 0.84941 0.65658 0.0
C1923 C 0.96549 0.82683 0.65881 0.0
C1924 C 0.9647 0.80312 0.66101 0.0
C1925 C 0.98761 0.80121 0.66035 0.0
C1926 C 0.98049 0.77281 0.66248 0.0
C1927 C 0.98864 0.7636 0.64263 0.0
C1928 C 0.99333 0.76887 0.68225 0.0
C1929 C 0.95014 0.75937 0.66464 0.0
C1930 C 0.9417 0.77745 0.66398 0.0
C1931 C 0.91486 0.77028 0.66594 0.0
C1932 C 0.89597 0.74385 0.66829 0.0
C1933 C 0.90381 0.72469 0.66878 0.0
C1934 C 0.93132 0.73261 0.6667 0.0
H1935 H 0.2286 0.2446 0.66165 0.0
H1936 H 0.16068 0.1661 0.66244 0.0
H1937 H 0.19159 0.14833 0.66178 0.0
H1938 H 0.27123 0.22979 0.6263 0.0
H1939 H 0.30135 0.25248 0.64 0.0
H1940 H 0.2736 0.25835 0.63857 0.0
H1941 H 0.27456 0.26201 0.67872 0.0
H1942 H 0.30068 0.25397 0.68135 0.0
H1943 H 0.26906 0.23469 0.69461 0.0
H1944 H 0.23048 0.13947 0.66475 0.0
H1945 H 0.27359 0.14006 0.66702 0.0
H1946 H 0.31629 0.22438 0.66275 0.0
C1947 C 0.22028 0.22367 0.66105 0.0
C1948 C 0.19224 0.20667 0.66182 0.0
C1949 C 0.18205 0.17941 0.66145 0.0
C1950 C 0.19949 0.16919 0.66125 0.0
C1951 C 0.22709 0.1865 0.66106 0.0
C1952 C 0.23739 0.21318 0.66042 0.0
C1953 C 0.26778 0.22763 0.66068 0.0
C1954 C 0.27916 0.24296 0.64016 0.0
C1955 C 0.27869 0.24563 0.67999 0.0
C1956 C 0.27305 0.205 0.66212 0.0
C1957 C 0.24932 0.18141 0.66238 0.0
C1958 C 0.24913 0.15784 0.66432 0.0
C1959 C 0.27374 0.15836 0.66577 0.0
C1960 C 0.29829 0.18228 0.66536 0.0
C1961 C 0.29782 0.20582 0.66323 0.0
H1962 H 0.8779 0.01344 0.66912 0.0
H1963 H 0.79449 0.95733 0.6556 0.0
H1964 H 0.7838 0.99262 0.65744 0.0
H1965 H 0.86201 0.04808 0.7088 0.0
H1966 H 0.89081 0.07898 0.70215 0.0
H1967 H 0.89179 0.04929 0.69855 0.0
H1968 H 0.90472 0.06164 0.65938 0.0
H1969 H 0.90313 0.09102 0.66295 0.0
H1970 H 0.88326 0.06795 0.64282 0.0
H1971 H 0.78278 0.03535 0.65917 0.0
H1972 H 0.79067 0.08012 0.66553 0.0
H1973 H 0.87273 0.10537 0.68288 0.0
C1974 C 0.85719 0.0081 0.66694 0.0
C1975 C 0.83726 0.98225 0.66186 0.0
C1976 C 0.81057 0.97691 0.65877 0.0
C1977 C 0.80413 0.99685 0.66 0.0
C1978 C 0.82439 0.022 0.66489 0.0
C1979 C 0.85024 0.02749 0.6688 0.0
C1980 C 0.86813 0.05575 0.67491 0.0
C1981 C 0.8788 0.05814 0.69744 0.0
C1982 C 0.89116 0.06991 0.65906 0.0
C1983 C 0.84839 0.0654 0.67355 0.0
C1984 C 0.82333 0.04585 0.66742 0.0
C1985 C 0.80225 0.05071 0.66424 0.0
C1986 C 0.8069 0.07613 0.66775 0.0
C1987 C 0.83221 0.09601 0.67479 0.0
C1988 C 0.8531 0.09047 0.67767 0.0
H1989 H 0.46597 0.36208 0.69256 0.0
H1990 H 0.53331 0.35691 0.71698 0.0
H1991 H 0.5041 0.30929 0.72134 0.0
H1992 H 0.41361 0.31011 0.72614 0.0
H1993 H 0.38936 0.29862 0.70517 0.0
H1994 H 0.41476 0.33257 0.70652 0.0
H1995 H 0.42915 0.32976 0.66862 0.0
H1996 H 0.40462 0.29562 0.66703 0.0
H1997 H 0.43947 0.30641 0.66236 0.0
H1998 H 0.46944 0.26176 0.71792 0.0
H1999 H 0.43098 0.21825 0.70946 0.0
H2000 H 0.38545 0.25414 0.68886 0.0
C2001 C 0.47445 0.35098 0.69919 0.0
C2002 C 0.50194 0.36323 0.70447 0.0
C2003 C 0.51227 0.34803 0.71309 0.0
C2004 C 0.49584 0.32095 0.71554 0.0
C2005 C 0.46901 0.30941 0.70962 0.0
C2006 C 0.45827 0.32401 0.70193 0.0
C2007 C 0.42925 0.30673 0.69554 0.0
C2008 C 0.41065 0.31235 0.70916 0.0
C2009 C 0.42539 0.3098 0.67199 0.0
C2010 C 0.42551 0.28004 0.70028 0.0
C2011 C 0.4487 0.28202 0.70841 0.0
C2012 C 0.45097 0.26 0.71214 0.0
C2013 C 0.42909 0.23541 0.70733 0.0
C2014 C 0.40517 0.23302 0.69922 0.0
C2015 C 0.40324 0.25555 0.69586 0.0
H2016 H 0.69908 0.19734 0.71495 0.0
H2017 H 0.63567 0.11623 0.71158 0.0
H2018 H 0.66974 0.10309 0.70694 0.0
H2019 H 0.73719 0.19208 0.67356 0.0
H2020 H 0.76978 0.21385 0.68449 0.0
H2021 H 0.74185 0.2185 0.69038 0.0
H2022 H 0.74685 0.21546 0.73018 0.0
H2023 H 0.77617 0.2128 0.72529 0.0
H2024 H 0.74903 0.18838 0.74079 0.0
H2025 H 0.71145 0.09871 0.70406 0.0
H2026 H 0.75667 0.10379 0.70116 0.0
H2027 H 0.79192 0.18777 0.70098 0.0
C2028 C 0.69198 0.17676 0.71296 0.0
C2029 C 0.66417 0.15794 0.71365 0.0
C2030 C 0.65656 0.13122 0.71157 0.0
C2031 C 0.67586 0.12351 0.70869 0.0
C2032 C 0.70284 0.14268 0.70756 0.0
C2033 C 0.71087 0.16878 0.70952 0.0
C2034 C 0.74102 0.18568 0.70691 0.0
C2035 C 0.74791 0.20361 0.68769 0.0
C2036 C 0.75403 0.20151 0.72699 0.0
C2037 C 0.7488 0.16498 0.70335 0.0
C2038 C 0.72651 0.14026 0.70409 0.0
C2039 C 0.7289 0.11797 0.70301 0.0
C2040 C 0.75463 0.12101 0.70133 0.0
C2041 C 0.77764 0.1461 0.70004 0.0
C2042 C 0.7746 0.16835 0.70098 0.0
H2043 H 0.84124 0.49477 0.68789 0.0
H2044 H 0.86584 0.50469 0.75317 0.0
H2045 H 0.87677 0.5509 0.75173 0.0
H2046 H 0.89112 0.56083 0.67072 0.0
H2047 H 0.86819 0.56286 0.65281 0.0
H2048 H 0.86526 0.53173 0.65825 0.0
H2049 H 0.81593 0.51287 0.66971 0.0
H2050 H 0.81805 0.54354 0.66401 0.0
H2051 H 0.80782 0.5294 0.68978 0.0
H2052 H 0.87996 0.59514 0.74361 0.0
H2053 H 0.8754 0.63185 0.7298 0.0
H2054 H 0.84703 0.59057 0.6706 0.0
C2055 C 0.84926 0.50674 0.70183 0.0
C2056 C 0.85263 0.49616 0.72065 0.0
C2057 C 0.86337 0.51251 0.73851 0.0
C2058 C 0.86952 0.53873 0.73784 0.0
C2059 C 0.86508 0.5483 0.71914 0.0
C2060 C 0.85538 0.53271 0.70144 0.0
C2061 C 0.85086 0.54678 0.68357 0.0
C2062 C 0.86998 0.55078 0.66526 0.0
C2063 C 0.82143 0.53229 0.67636 0.0
C2064 C 0.85818 0.57233 0.69421 0.0
C2065 C 0.86689 0.57324 0.71457 0.0
C2066 C 0.87351 0.59469 0.72758 0.0
C2067 C 0.87082 0.61547 0.7196 0.0
C2068 C 0.86119 0.61444 0.69891 0.0
C2069 C 0.8551 0.59256 0.6862 0.0
H2070 H 0.41464 0.90541 0.23329 0.0
H2071 H 0.49147 0.93164 0.26336 0.0
H2072 H 0.51435 0.95941 0.23276 0.0
H2073 H 0.43569 0.90319 0.18051 0.0
H2074 H 0.41587 0.91538 0.16844 0.0
H2075 H 0.40502 0.89752 0.19277 0.0
H2076 H 0.40303 0.93601 0.21035 0.0
H2077 H 0.41351 0.95384 0.18599 0.0
H2078 H 0.43218 0.96814 0.20975 0.0
H2079 H 0.52928 0.98421 0.19916 0.0
H2080 H 0.53517 0.00682 0.16529 0.0
H2081 H 0.44923 0.96535 0.15613 0.0
C2082 C 0.43625 0.91727 0.23356 0.0
C2083 C 0.45123 0.91615 0.25081 0.0
C2084 C 0.47952 0.93182 0.25032 0.0
C2085 C 0.49274 0.94772 0.23299 0.0
C2086 C 0.47748 0.94794 0.21613 0.0
C2087 C 0.44986 0.93336 0.21629 0.0
C2088 C 0.43839 0.93752 0.19608 0.0
C2089 C 0.42282 0.91187 0.18372 0.0
C2090 C 0.42073 0.9496 0.20083 0.0
C2091 C 0.46389 0.95669 0.18459 0.0
C2092 C 0.48617 0.9623 0.19651 0.0
C2093 C 0.512 0.97989 0.18966 0.0
C2094 C 0.51518 0.99254 0.17037 0.0
C2095 C 0.49274 0.98753 0.158 0.0
C2096 C 0.46675 0.9691 0.16509 0.0
H2097 H 0.09155 0.55621 0.2585 0.0
H2098 H 0.12751 0.50863 0.24456 0.0
H2099 H 0.10725 0.49935 0.20921 0.0
H2100 H 0.0298 0.51591 0.23281 0.0
H2101 H 0.02612 0.54237 0.22274 0.0
H2102 H 0.04467 0.54666 0.24657 0.0
H2103 H 0.08597 0.58684 0.23051 0.0
H2104 H 0.06747 0.58279 0.20666 0.0
H2105 H 0.09913 0.58364 0.20563 0.0
H2106 H 0.08172 0.4936 0.17617 0.0
H2107 H 0.05277 0.49212 0.14712 0.0
H2108 H 0.03363 0.54387 0.18202 0.0
C2109 C 0.09545 0.54416 0.24786 0.0
C2110 C 0.11099 0.53303 0.25427 0.0
C2111 C 0.11539 0.51709 0.24004 0.0
C2112 C 0.1041 0.51181 0.2199 0.0
C2113 C 0.08849 0.52268 0.2142 0.0
C2114 C 0.08422 0.53861 0.22768 0.0
C2115 C 0.0659 0.54709 0.21781 0.0
C2116 C 0.04009 0.53742 0.23076 0.0
C2117 C 0.0805 0.57686 0.21498 0.0
C2118 C 0.06032 0.53318 0.19681 0.0
C2119 C 0.07369 0.51934 0.19503 0.0
C2120 C 0.07134 0.50455 0.17727 0.0
C2121 C 0.05494 0.50393 0.16081 0.0
C2122 C 0.04105 0.518 0.16221 0.0
C2123 C 0.04384 0.53278 0.18051 0.0
H2124 H 0.50439 0.55032 0.25916 0.0
H2125 H 0.44239 0.56572 0.23751 0.0
H2126 H 0.44914 0.55554 0.20116 0.0
H2127 H 0.54811 0.57898 0.21782 0.0
H2128 H 0.55904 0.55536 0.21576 0.0
H2129 H 0.54708 0.56033 0.24052 0.0
H2130 H 0.5116 0.51122 0.24236 0.0
H2131 H 0.52373 0.50598 0.21772 0.0
H2132 H 0.48884 0.4961 0.22069 0.0
H2133 H 0.46812 0.55151 0.16677 0.0
H2134 H 0.49374 0.54852 0.13722 0.0
H2135 H 0.54028 0.53061 0.18096 0.0
C2136 C 0.49172 0.55078 0.24683 0.0
C2137 C 0.47266 0.55857 0.25123 0.0
C2138 C 0.45671 0.5593 0.23462 0.0
C2139 C 0.46055 0.55374 0.21387 0.0
C2140 C 0.4801 0.54699 0.20996 0.0
C2141 C 0.49499 0.54484 0.22602 0.0
C2142 C 0.51549 0.53829 0.21739 0.0
C2143 C 0.54412 0.55951 0.22322 0.0
C2144 C 0.50955 0.51129 0.22499 0.0
C2145 C 0.51051 0.53815 0.19395 0.0
C2146 C 0.49007 0.54326 0.19002 0.0
C2147 C 0.48357 0.54662 0.16964 0.0
C2148 C 0.49827 0.54462 0.15282 0.0
C2149 C 0.51911 0.53885 0.15627 0.0
C2150 C 0.52483 0.53524 0.17732 0.0
H2151 H 0.93523 0.45967 0.78413 0.0
H2152 H 0.86415 0.39387 0.81018 0.0
H2153 H 0.88489 0.40398 0.84544 0.0
H2154 H 0.98129 0.45067 0.81297 0.0
H2155 H 1.00499 0.48471 0.81724 0.0
H2156 H 0.98354 0.47476 0.79453 0.0
H2157 H 0.96585 0.50567 0.80525 0.0
H2158 H 0.98754 0.51602 0.82788 0.0
H2159 H 0.95208 0.50316 0.83119 0.0
H2160 H 0.91465 0.41768 0.87646 0.0
H2161 H 0.95099 0.43573 0.90246 0.0
H2162 H 1.00321 0.49383 0.85708 0.0
C2163 C 0.92388 0.448 0.79745 0.0
C2164 C 0.89805 0.42626 0.79472 0.0
C2165 C 0.88387 0.41078 0.81222 0.0
C2166 C 0.89549 0.41635 0.83221 0.0
C2167 C 0.92129 0.43748 0.8344 0.0
C2168 C 0.93528 0.45327 0.8176 0.0
C2169 C 0.9634 0.47366 0.82412 0.0
C2170 C 0.98454 0.47076 0.81146 0.0
C2171 C 0.96745 0.50127 0.82199 0.0
C2172 C 0.96315 0.4664 0.847 0.0
C2173 C 0.93859 0.44557 0.85257 0.0
C2174 C 0.93381 0.43438 0.87246 0.0
C2175 C 0.95461 0.44489 0.88717 0.0
C2176 C 0.97995 0.46652 0.88202 0.0
C2177 C 0.98415 0.47732 0.86158 0.0
H2178 H 0.59116 0.51701 0.77676 0.0
H2179 H 0.56871 0.43604 0.78576 0.0
H2180 H 0.55239 0.43717 0.82154 0.0
H2181 H 0.61197 0.53888 0.8311 0.0
H2182 H 0.59807 0.56021 0.83104 0.0
H2183 H 0.61009 0.55367 0.8069 0.0
H2184 H 0.56388 0.53812 0.78963 0.0
H2185 H 0.5517 0.5445 0.81372 0.0
H2186 H 0.53417 0.51253 0.80195 0.0
H2187 H 0.53712 0.44668 0.8559 0.0
H2188 H 0.522 0.46318 0.88559 0.0
H2189 H 0.5529 0.53757 0.85389 0.0
C2190 C 0.58325 0.4997 0.78645 0.0
C2191 C 0.58139 0.47648 0.77862 0.0
C2192 C 0.57033 0.45401 0.79152 0.0
C2193 C 0.5611 0.4545 0.81187 0.0
C2194 C 0.56288 0.47759 0.81905 0.0
C2195 C 0.57358 0.49976 0.80672 0.0
C2196 C 0.57162 0.52152 0.81772 0.0
C2197 C 0.59961 0.54496 0.82194 0.0
C2198 C 0.55431 0.52963 0.80499 0.0
C2199 C 0.55788 0.50804 0.83802 0.0
C2200 C 0.55333 0.48282 0.8386 0.0
C2201 C 0.54069 0.46644 0.85566 0.0
C2202 C 0.53226 0.47602 0.8725 0.0
C2203 C 0.53623 0.50164 0.87209 0.0
C2204 C 0.54939 0.51783 0.85461 0.0
H2205 H 0.56427 0.11766 0.79684 0.0
H2206 H 0.49734 0.05993 0.76006 0.0
H2207 H 0.48229 0.02999 0.79014 0.0
H2208 H 0.57717 0.07043 0.82371 0.0
H2209 H 0.58605 0.08795 0.84831 0.0
H2210 H 0.59172 0.10539 0.82392 0.0
H2211 H 0.5638 0.12555 0.83779 0.0
H2212 H 0.55772 0.10787 0.8621 0.0
H2213 H 0.52996 0.10439 0.84664 0.0
H2214 H 0.47328 0.00651 0.82369 0.0
H2215 H 0.47374 0.98819 0.8583 0.0
H2216 H 0.54695 0.05927 0.87439 0.0
C2217 C 0.54663 0.09862 0.79509 0.0
C2218 C 0.53171 0.09143 0.77611 0.0
C2219 C 0.50875 0.06625 0.77451 0.0
C2220 C 0.50003 0.04901 0.79153 0.0
C2221 C 0.51457 0.05694 0.81014 0.0
C2222 C 0.53762 0.08091 0.81204 0.0
C2223 C 0.54973 0.0839 0.83385 0.0
C2224 C 0.57783 0.0871 0.83235 0.0
C2225 C 0.55033 0.10679 0.8458 0.0
C2226 C 0.52985 0.05789 0.84376 0.0
C2227 C 0.50965 0.04287 0.82972 0.0
C2228 C 0.48902 0.01801 0.83481 0.0
C2229 C 0.48941 0.0078 0.85453 0.0
C2230 C 0.51031 0.02227 0.86902 0.0
C2231 C 0.53054 0.04791 0.86372 0.0
H2232 H 0.13882 0.23368 0.58283 0.0
H2233 H 0.08209 0.26117 0.59101 0.0
H2234 H 0.09412 0.28153 0.5562 0.0
H2235 H 0.18952 0.29302 0.55991 0.0
H2236 H 0.20144 0.27718 0.54224 0.0
H2237 H 0.18626 0.26206 0.56688 0.0
H2238 H 0.152 0.22034 0.54704 0.0
H2239 H 0.167 0.23539 0.52231 0.0
H2240 H 0.13173 0.22273 0.5266 0.0
H2241 H 0.11274 0.29986 0.52045 0.0
H2242 H 0.14002 0.31841 0.48829 0.0
H2243 H 0.18777 0.28323 0.50487 0.0
C2244 C 0.12888 0.244 0.57749 0.0
C2245 C 0.10895 0.24509 0.58986 0.0
C2246 C 0.09663 0.25893 0.58183 0.0
C2247 C 0.10351 0.27089 0.56202 0.0
C2248 C 0.12315 0.26939 0.55037 0.0
C2249 C 0.13594 0.25661 0.55792 0.0
C2250 C 0.15779 0.25956 0.54293 0.0
C2251 C 0.18538 0.27381 0.55363 0.0
C2252 C 0.15176 0.23292 0.53421 0.0
C2253 C 0.15544 0.27621 0.52591 0.0
C2254 C 0.13498 0.28124 0.53031 0.0
C2255 C 0.12884 0.29609 0.51685 0.0
C2256 C 0.14433 0.30644 0.49859 0.0
C2257 C 0.16596 0.30228 0.49416 0.0
C2258 C 0.17139 0.28678 0.50795 0.0
H2259 H 0.78048 0.85285 0.56148 0.0
H2260 H 0.76203 0.90311 0.59919 0.0
H2261 H 0.73339 0.90366 0.57061 0.0
H2262 H 0.78128 0.88151 0.51041 0.0
H2263 H 0.76585 0.85047 0.49706 0.0
H2264 H 0.78654 0.85571 0.5198 0.0
H2265 H 0.74752 0.81537 0.53785 0.0
H2266 H 0.72674 0.81 0.51519 0.0
H2267 H 0.71557 0.81362 0.54082 0.0
H2268 H 0.7042 0.89609 0.53911 0.0
H2269 H 0.67703 0.88147 0.50669 0.0
H2270 H 0.71422 0.83587 0.48962 0.0
C2271 C 0.77049 0.86406 0.5637 0.0
C2272 C 0.77353 0.87798 0.58258 0.0
C2273 C 0.7603 0.89258 0.58478 0.0
C2274 C 0.74391 0.89293 0.56866 0.0
C2275 C 0.74109 0.87871 0.5504 0.0
C2276 C 0.75411 0.86465 0.54779 0.0
C2277 C 0.74687 0.85018 0.52699 0.0
C2278 C 0.77161 0.86007 0.51272 0.0
C2279 C 0.73337 0.82054 0.53043 0.0
C2280 C 0.7273 0.85787 0.51849 0.0
C2281 C 0.72436 0.87445 0.53218 0.0
C2282 C 0.7065 0.88329 0.52819 0.0
C2283 C 0.69107 0.87478 0.50981 0.0
C2284 C 0.69357 0.8576 0.49565 0.0
C2285 C 0.71219 0.84933 0.49999 0.0
H2286 H 0.15467 0.87358 0.58821 0.0
H2287 H 0.10441 0.90352 0.5658 0.0
H2288 H 0.10939 0.89178 0.52932 0.0
H2289 H 0.20049 0.8962 0.54838 0.0
H2290 H 0.20497 0.86824 0.54624 0.0
H2291 H 0.19441 0.87536 0.57079 0.0
H2292 H 0.15243 0.82925 0.57126 0.0
H2293 H 0.1631 0.82175 0.54686 0.0
H2294 H 0.13026 0.81818 0.54891 0.0
H2295 H 0.12712 0.88467 0.49519 0.0
H2296 H 0.15085 0.87744 0.46631 0.0
H2297 H 0.18503 0.8465 0.51093 0.0
C2298 C 0.14391 0.87669 0.57566 0.0
C2299 C 0.12883 0.88907 0.57972 0.0
C2300 C 0.11556 0.89355 0.56297 0.0
C2301 C 0.11844 0.8871 0.54222 0.0
C2302 C 0.1342 0.87568 0.5386 0.0
C2303 C 0.14611 0.86984 0.55493 0.0
C2304 C 0.16302 0.85868 0.54671 0.0
C2305 C 0.19246 0.87564 0.55343 0.0
C2306 C 0.15151 0.83028 0.55386 0.0
C2307 C 0.15976 0.86028 0.52321 0.0
C2308 C 0.14313 0.87018 0.51885 0.0
C2309 C 0.13942 0.87602 0.49837 0.0
C2310 C 0.15298 0.87157 0.48194 0.0
C2311 C 0.16986 0.86091 0.48585 0.0
C2312 C 0.1727 0.85486 0.50695 0.0
H2313 H 0.61045 0.79011 0.11256 0.0
H2314 H 0.53065 0.74572 0.13875 0.0
H2315 H 0.54964 0.7554 0.17473 0.0
H2316 H 0.6435 0.77127 0.14845 0.0
H2317 H 0.67348 0.8027 0.1503 0.0
H2318 H 0.65361 0.79375 0.12672 0.0
H2319 H 0.64921 0.8351 0.12992 0.0
H2320 H 0.66935 0.84435 0.15341 0.0
H2321 H 0.63659 0.84117 0.15397 0.0
H2322 H 0.57768 0.76535 0.20715 0.0
H2323 H 0.61209 0.77884 0.23444 0.0
H2324 H 0.67379 0.82124 0.18751 0.0
C2325 C 0.59707 0.78291 0.12596 0.0
C2326 C 0.56918 0.76732 0.12313 0.0
C2327 C 0.55207 0.75792 0.14081 0.0
C2328 C 0.56268 0.76324 0.16121 0.0
C2329 C 0.59036 0.77835 0.16353 0.0
C2330 C 0.6073 0.78851 0.14643 0.0
C2331 C 0.63629 0.80397 0.15329 0.0
C2332 C 0.65267 0.79221 0.14414 0.0
C2333 C 0.64858 0.83286 0.1473 0.0
C2334 C 0.63306 0.80026 0.17688 0.0
C2335 C 0.60643 0.78533 0.18243 0.0
C2336 C 0.59856 0.7777 0.2031 0.0
C2337 C 0.6184 0.78573 0.21857 0.0
C2338 C 0.64593 0.8017 0.21345 0.0
C2339 C 0.65312 0.80904 0.1922 0.0
H2340 H 0.22077 0.79487 0.10818 0.0
H2341 H 0.30472 0.83625 0.12536 0.0
H2342 H 0.29298 0.84518 0.1606 0.0
H2343 H 0.20434 0.83833 0.133 0.0
H2344 H 0.1716 0.81375 0.1418 0.0
H2345 H 0.18609 0.8081 0.11869 0.0
H2346 H 0.18024 0.76551 0.13502 0.0
H2347 H 0.16553 0.77094 0.15814 0.0
H2348 H 0.19415 0.76654 0.16059 0.0
H2349 H 0.27268 0.85221 0.19298 0.0
H2350 H 0.2452 0.85722 0.22033 0.0
H2351 H 0.1741 0.81157 0.18245 0.0
C2352 C 0.23654 0.80529 0.11957 0.0
C2353 C 0.26364 0.81475 0.11415 0.0
C2354 C 0.28385 0.82885 0.12925 0.0
C2355 C 0.27737 0.83395 0.1493 0.0
C2356 C 0.25056 0.82488 0.15405 0.0
C2357 C 0.23042 0.8108 0.13967 0.0
C2358 C 0.20339 0.80476 0.14838 0.0
C2359 C 0.19061 0.81697 0.13465 0.0
C2360 C 0.18473 0.77518 0.15067 0.0
C2361 C 0.21157 0.81802 0.1697 0.0
C2362 C 0.23884 0.82927 0.17271 0.0
C2363 C 0.25125 0.84323 0.19091 0.0
C2364 C 0.23542 0.84586 0.20643 0.0
C2365 C 0.20742 0.83471 0.20368 0.0
C2366 C 0.19544 0.82048 0.18504 0.0
H2367 H 0.18136 0.42304 0.1167 0.0
H2368 H 0.26313 0.482 0.1316 0.0
H2369 H 0.25838 0.46225 0.16655 0.0
H2370 H 0.15449 0.42204 0.1683 0.0
H2371 H 0.13124 0.38744 0.16766 0.0
H2372 H 0.14139 0.40577 0.14353 0.0
H2373 H 0.15697 0.37467 0.12879 0.0
H2374 H 0.1469 0.35627 0.15287 0.0
H2375 H 0.18076 0.36971 0.14347 0.0
H2376 H 0.24468 0.43556 0.2002 0.0
H2377 H 0.2232 0.40438 0.22931 0.0
H2378 H 0.1494 0.36517 0.19336 0.0
C2379 C 0.19828 0.43201 0.1273 0.0
C2380 C 0.22273 0.45407 0.1211 0.0
C2381 C 0.24435 0.46481 0.13558 0.0
C2382 C 0.24178 0.45386 0.15563 0.0
C2383 C 0.21739 0.43225 0.16119 0.0
C2384 C 0.19598 0.42152 0.14746 0.0
C2385 C 0.17181 0.39848 0.15735 0.0
C2386 C 0.14835 0.40376 0.15933 0.0
C2387 C 0.16364 0.37329 0.14488 0.0
C2388 C 0.183 0.3978 0.17874 0.0
C2389 C 0.20933 0.4174 0.18067 0.0
C2390 C 0.22398 0.42027 0.19889 0.0
C2391 C 0.21149 0.40253 0.21547 0.0
C2392 C 0.18448 0.38214 0.21385 0.0
C2393 C 0.17014 0.38015 0.19518 0.0
H2394 H 0.75335 0.56756 0.90027 0.0
H2395 H 0.83046 0.58817 0.92759 0.0
H2396 H 0.85294 0.61245 0.89551 0.0
H2397 H 0.76974 0.5615 0.84581 0.0
H2398 H 0.75144 0.57619 0.8352 0.0
H2399 H 0.74093 0.5584 0.85959 0.0
H2400 H 0.74393 0.59875 0.87817 0.0
H2401 H 0.75429 0.6166 0.85385 0.0
H2402 H 0.77477 0.62953 0.87701 0.0
H2403 H 0.86763 0.6372 0.86166 0.0
H2404 H 0.87333 0.66144 0.82862 0.0
H2405 H 0.78728 0.626 0.82301 0.0
C2406 C 0.77496 0.57715 0.89961 0.0
C2407 C 0.78999 0.57559 0.91665 0.0
C2408 C 0.81828 0.58839 0.91476 0.0
C2409 C 0.83132 0.60244 0.89658 0.0
C2410 C 0.81594 0.60368 0.88025 0.0
C2411 C 0.78838 0.59143 0.88157 0.0
C2412 C 0.77672 0.59702 0.86217 0.0
C2413 C 0.75864 0.57177 0.84997 0.0
C2414 C 0.76154 0.61133 0.86816 0.0
C2415 C 0.80207 0.61464 0.8499 0.0
C2416 C 0.82445 0.61803 0.8606 0.0
C2417 C 0.85025 0.63443 0.85303 0.0
C2418 C 0.85332 0.64805 0.83425 0.0
C2419 C 0.83077 0.64516 0.82316 0.0
C2420 C 0.8048 0.628 0.83096 0.0
H2421 H 0.41613 0.21503 0.91694 0.0
H2422 H 0.49001 0.2231 0.89247 0.0
H2423 H 0.47203 0.21645 0.85634 0.0
H2424 H 0.37368 0.16459 0.88536 0.0
H2425 H 0.34947 0.17484 0.88087 0.0
H2426 H 0.36947 0.18493 0.90436 0.0
H2427 H 0.38653 0.23342 0.89551 0.0
H2428 H 0.36616 0.22348 0.87213 0.0
H2429 H 0.40161 0.24606 0.87024 0.0
H2430 H 0.44359 0.20094 0.82454 0.0
H2431 H 0.40818 0.18181 0.79803 0.0
H2432 H 0.35292 0.18686 0.8419 0.0
C2433 C 0.42881 0.21653 0.90381 0.0
C2434 C 0.45461 0.22014 0.90722 0.0
C2435 C 0.47042 0.22093 0.88993 0.0
C2436 C 0.46033 0.21708 0.86943 0.0
C2437 C 0.43446 0.21266 0.86653 0.0
C2438 C 0.41904 0.21287 0.88315 0.0
C2439 C 0.3911 0.20549 0.87583 0.0
C2440 C 0.36968 0.18101 0.88729 0.0
C2441 C 0.38606 0.22849 0.87859 0.0
C2442 C 0.39291 0.19997 0.85275 0.0
C2443 C 0.41814 0.20438 0.84775 0.0
C2444 C 0.424 0.19827 0.82803 0.0
C2445 C 0.40362 0.18751 0.81295 0.0
C2446 C 0.37756 0.18316 0.81745 0.0
C2447 C 0.37243 0.18981 0.8377 0.0
H2448 H 0.81324 0.20529 0.9296 0.0
H2449 H 0.81099 0.27365 0.90859 0.0
H2450 H 0.81791 0.26431 0.87179 0.0
H2451 H 0.86566 0.21393 0.89679 0.0
H2452 H 0.85303 0.1798 0.89159 0.0
H2453 H 0.84434 0.18976 0.9157 0.0
H2454 H 0.79392 0.16016 0.90743 0.0
H2455 H 0.80245 0.14987 0.88335 0.0
H2456 H 0.78084 0.16373 0.88272 0.0
H2457 H 0.82933 0.24977 0.83795 0.0
H2458 H 0.84416 0.23131 0.80964 0.0
H2459 H 0.83874 0.172 0.85267 0.0
C2460 C 0.8134 0.21775 0.91709 0.0
C2461 C 0.81102 0.23983 0.92166 0.0
C2462 C 0.81228 0.25637 0.90517 0.0
C2463 C 0.81626 0.25123 0.8843 0.0
C2464 C 0.81905 0.22953 0.88027 0.0
C2465 C 0.81755 0.21297 0.89619 0.0
C2466 C 0.82324 0.19218 0.88791 0.0
C2467 C 0.84804 0.19405 0.89864 0.0
C2468 C 0.79864 0.16487 0.89051 0.0
C2469 C 0.82864 0.19989 0.86495 0.0
C2470 C 0.82592 0.22135 0.86082 0.0
C2471 C 0.83111 0.23272 0.84094 0.0
C2472 C 0.83942 0.22197 0.82489 0.0
C2473 C 0.84255 0.20006 0.82877 0.0
C2474 C 0.83677 0.18884 0.84911 0.0
H2475 H 0.25277 0.0884 0.46488 0.0
H2476 H 0.27951 0.15939 0.429 0.0
H2477 H 0.30972 0.185 0.45821 0.0
H2478 H 0.25347 0.11647 0.51603 0.0
H2479 H 0.26486 0.09711 0.52958 0.0
H2480 H 0.24491 0.08467 0.50612 0.0
H2481 H 0.28173 0.07769 0.48908 0.0
H2482 H 0.30175 0.09005 0.51248 0.0
H2483 H 0.31549 0.10475 0.48736 0.0
H2484 H 0.33919 0.20223 0.4904 0.0
H2485 H 0.3641 0.21014 0.52379 0.0
H2486 H 0.31661 0.12804 0.53915 0.0
C2487 C 0.26501 0.10935 0.46318 0.0
C2488 C 0.264 0.12197 0.44465 0.0
C2489 C 0.27998 0.14942 0.44311 0.0
C2490 C 0.29719 0.16407 0.45958 0.0
C2491 C 0.29787 0.15096 0.47757 0.0
C2492 C 0.282 0.12425 0.47954 0.0
C2493 C 0.28655 0.11482 0.50041 0.0
C2494 C 0.26092 0.10254 0.51383 0.0
C2495 C 0.29701 0.0957 0.49713 0.0
C2496 C 0.30785 0.14035 0.50978 0.0
C2497 C 0.31414 0.16097 0.49635 0.0
C2498 C 0.3342 0.18628 0.50113 0.0
C2499 C 0.34828 0.19058 0.52006 0.0
C2500 C 0.34207 0.16973 0.53404 0.0
C2501 C 0.3214 0.14438 0.52889 0.0
H2502 H 0.88433 0.12743 0.44996 0.0
H2503 H 0.96838 0.17333 0.4666 0.0
H2504 H 0.95596 0.18305 0.50118 0.0
H2505 H 0.8632 0.16851 0.47528 0.0
H2506 H 0.83171 0.14181 0.48419 0.0
H2507 H 0.84712 0.13834 0.46067 0.0
H2508 H 0.84575 0.09728 0.47623 0.0
H2509 H 0.8303 0.10061 0.49979 0.0
H2510 H 0.86083 0.09936 0.50148 0.0
H2511 H 0.93457 0.18794 0.53402 0.0
H2512 H 0.90563 0.18814 0.56258 0.0
H2513 H 0.83534 0.13824 0.52517 0.0
C2514 C 0.90011 0.13943 0.46091 0.0
C2515 C 0.92737 0.14981 0.45541 0.0
C2516 C 0.94739 0.16555 0.47021 0.0
C2517 C 0.94054 0.17104 0.48999 0.0
C2518 C 0.91354 0.16061 0.49486 0.0
C2519 C 0.89362 0.14514 0.48076 0.0
C2520 C 0.86613 0.13653 0.48992 0.0
C2521 C 0.85117 0.14692 0.47673 0.0
C2522 C 0.84979 0.10667 0.49198 0.0
C2523 C 0.87374 0.14962 0.51132 0.0
C2524 C 0.90119 0.16335 0.51386 0.0
C2525 C 0.91303 0.17715 0.53225 0.0
C2526 C 0.89639 0.177 0.54846 0.0
C2527 C 0.86815 0.16315 0.54624 0.0
C2528 C 0.85682 0.14924 0.52735 0.0
H2529 H 0.89763 0.78308 0.46412 0.0
H2530 H 0.83131 0.72703 0.42587 0.0
H2531 H 0.81471 0.69652 0.4556 0.0
H2532 H 0.90842 0.73446 0.49081 0.0
H2533 H 0.91699 0.75155 0.51561 0.0
H2534 H 0.92368 0.76948 0.49139 0.0
H2535 H 0.89628 0.79033 0.50497 0.0
H2536 H 0.88915 0.77213 0.5291 0.0
H2537 H 0.86209 0.76959 0.51323 0.0
H2538 H 0.80413 0.6724 0.4891 0.0
H2539 H 0.80328 0.65319 0.52359 0.0
H2540 H 0.87713 0.72291 0.5409 0.0
C2541 C 0.87981 0.76427 0.46193 0.0
C2542 C 0.86555 0.75775 0.44263 0.0
C2543 C 0.84228 0.73286 0.44054 0.0
C2544 C 0.83268 0.71531 0.45736 0.0
C2545 C 0.84665 0.72262 0.47627 0.0
C2546 C 0.86997 0.74624 0.47864 0.0
C2547 C 0.88142 0.74858 0.50062 0.0
C2548 C 0.90928 0.75116 0.49954 0.0
C2549 C 0.88228 0.77152 0.51269 0.0
C2550 C 0.86086 0.72257 0.51012 0.0
C2551 C 0.84087 0.70814 0.49574 0.0
C2552 C 0.81971 0.68343 0.50046 0.0
C2553 C 0.81936 0.67272 0.52012 0.0
C2554 C 0.84009 0.68651 0.53492 0.0
C2555 C 0.86084 0.71206 0.53001 0.0
loop_
_geom_bond_atom_site_label_1
_geom_bond_atom_site_label_2
_geom_bond_distance
_geom_bond_site_symmetry_2
_ccdc_geom_bond_type
H0 C1 0.949 . S
C1 H0 0.949 . S
C1 C2 1.395 . S
C1 C3 1.391 . S
C2 C1 1.395 . S
C2 C5 1.390 . S
C3 C1 1.391 . S
C3 C7 1.387 . S
C3 C8 1.491 . S
H4 C5 0.950 . S
C5 C2 1.390 . S
C5 H4 0.950 . S
C5 C6 1.378 . S
C6 C5 1.378 . S
C6 C7 1.409 . S
C7 C3 1.387 . S
C7 C6 1.409 . S
C7 H9 0.951 . S
C8 C3 1.491 . S
C8 C10 1.382 . S
C8 C12 1.404 . S
H9 C7 0.951 . S
C10 C8 1.382 . S
C10 C11 1.390 . S
C10 H15 0.949 . S
C11 C10 1.390 . S
C11 C16 1.399 . S
C12 C8 1.404 . S
C12 H13 0.950 . S
C12 C14 1.375 . S
H13 C12 0.950 . S
C14 C12 1.375 . S
C14 C16 1.382 . S
C14 H18 0.950 . S
H15 C10 0.949 . S
C16 C11 1.399 . S
C16 C14 1.382 . S
C16 H17 0.952 . S
H17 C16 0.952 . S
H18 C14 0.950 . S
H19 C20 0.949 . S
C20 H19 0.949 . S
C20 C21 1.395 . S
C20 C22 1.391 . S
C21 C20 1.395 . S
C21 C24 1.390 . S
C22 C20 1.391 . S
C22 C26 1.387 . S
C22 C27 1.491 . S
H23 C24 0.950 . S
C24 C21 1.390 . S
C24 H23 0.950 . S
C24 C25 1.378 . S
C25 C24 1.378 . S
C25 C26 1.409 . S
C26 C22 1.387 . S
C26 C25 1.409 . S
C26 H28 0.951 . S
C27 C22 1.491 . S
C27 C29 1.382 . S
C27 C31 1.404 . S
H28 C26 0.951 . S
C29 C27 1.382 . S
C29 C30 1.390 . S
C29 H34 0.949 . S
C30 C29 1.390 . S
C30 C35 1.399 . S
C31 C27 1.404 . S
C31 H32 0.950 . S
C31 C33 1.375 . S
H32 C31 0.950 . S
C33 C31 1.375 . S
C33 C35 1.382 . S
C33 H37 0.950 . S
H34 C29 0.949 . S
C35 C30 1.399 . S
C35 C33 1.382 . S
C35 H36 0.952 1_545 S
H36 C35 0.952 1_565 S
H37 C33 0.950 . S
H38 C39 0.949 . S
C39 H38 0.949 . S
C39 C40 1.395 . S
C39 C41 1.391 . S
C40 C39 1.395 . S
C40 C43 1.390 . S
C41 C39 1.391 . S
C41 C45 1.387 . S
C41 C46 1.491 . S
H42 C43 0.950 . S
C43 C40 1.390 . S
C43 H42 0.950 . S
C43 C44 1.378 . S
C44 C43 1.378 . S
C44 C45 1.409 . S
C45 C41 1.387 . S
C45 C44 1.409 . S
C45 H47 0.951 . S
C46 C41 1.491 . S
C46 C48 1.382 . S
C46 C50 1.404 . S
H47 C45 0.951 . S
C48 C46 1.382 . S
C48 C49 1.390 . S
C48 H53 0.949 . S
C49 C48 1.390 . S
C49 C54 1.399 1_655 S
C50 C46 1.404 . S
C50 H51 0.950 . S
C50 C52 1.375 . S
H51 C50 0.950 . S
C52 C50 1.375 . S
C52 C54 1.382 1_655 S
C52 H56 0.950 . S
H53 C48 0.949 . S
C54 C49 1.399 1_455 S
C54 C52 1.382 1_455 S
C54 H55 0.952 . S
H55 C54 0.952 . S
H56 C52 0.950 . S
H57 C58 0.949 . S
C58 H57 0.949 . S
C58 C59 1.395 . S
C58 C60 1.391 . S
C59 C58 1.395 . S
C59 C62 1.390 . S
C60 C58 1.391 . S
C60 C64 1.387 . S
C60 C65 1.491 . S
H61 C62 0.950 . S
C62 C59 1.390 . S
C62 H61 0.950 . S
C62 C63 1.378 . S
C63 C62 1.378 . S
C63 C64 1.409 . S
C64 C60 1.387 . S
C64 C63 1.409 . S
C64 H66 0.951 . S
C65 C60 1.491 . S
C65 C67 1.382 . S
C65 C69 1.404 . S
H66 C64 0.951 . S
C67 C65 1.382 . S
C67 C68 1.390 . S
C67 H72 0.949 . S
C68 C67 1.390 . S
C68 C73 1.399 . S
C69 C65 1.404 . S
C69 H70 0.950 . S
C69 C71 1.375 . S
H70 C69 0.950 . S
C71 C69 1.375 . S
C71 C73 1.382 . S
C71 H75 0.950 . S
H72 C67 0.949 . S
C73 C68 1.399 . S
C73 C71 1.382 . S
C73 H74 0.952 . S
H74 C73 0.952 . S
H75 C71 0.950 . S
H76 C77 0.949 . S
C77 H76 0.949 . S
C77 C78 1.395 . S
C77 C79 1.391 . S
C78 C77 1.395 . S
C78 C81 1.390 . S
C79 C77 1.391 . S
C79 C83 1.387 . S
C79 C84 1.491 . S
H80 C81 0.950 . S
C81 C78 1.390 . S
C81 H80 0.950 . S
C81 C82 1.378 . S
C82 C81 1.378 . S
C82 C83 1.409 . S
C83 C79 1.387 . S
C83 C82 1.409 . S
C83 H85 0.951 . S
C84 C79 1.491 . S
C84 C86 1.382 . S
C84 C88 1.404 . S
H85 C83 0.951 . S
C86 C84 1.382 . S
C86 C87 1.390 . S
C86 H91 0.949 . S
C87 C86 1.390 . S
C87 C92 1.399 . S
C88 C84 1.404 . S
C88 H89 0.950 . S
C88 C90 1.375 . S
H89 C88 0.950 . S
C90 C88 1.375 . S
C90 C92 1.382 . S
C90 H94 0.950 . S
H91 C86 0.949 . S
C92 C87 1.399 . S
C92 C90 1.382 . S
C92 H93 0.952 1_565 S
H93 C92 0.952 1_545 S
H94 C90 0.950 . S
H95 C96 0.949 . S
C96 H95 0.949 . S
C96 C97 1.395 . S
C96 C98 1.391 . S
C97 C96 1.395 . S
C97 C100 1.390 . S
C98 C96 1.391 . S
C98 C102 1.387 . S
C98 C103 1.491 . S
H99 C100 0.950 . S
C100 C97 1.390 . S
C100 H99 0.950 . S
C100 C101 1.378 . S
C101 C100 1.378 . S
C101 C102 1.409 . S
C102 C98 1.387 . S
C102 C101 1.409 . S
C102 H104 0.951 . S
C103 C98 1.491 . S
C103 C105 1.382 . S
C103 C107 1.404 . S
H104 C102 0.951 . S
C105 C103 1.382 . S
C105 C106 1.390 . S
C105 H110 0.949 . S
C106 C105 1.390 . S
C106 C111 1.399 . S
C107 C103 1.404 . S
C107 H108 0.950 . S
C107 C109 1.375 . S
H108 C107 0.950 . S
C109 C107 1.375 . S
C109 C111 1.382 . S
C109 H113 0.950 . S
H110 C105 0.949 . S
C111 C106 1.399 . S
C111 C109 1.382 . S
C111 H112 0.952 1_455 S
H112 C111 0.952 1_655 S
H113 C109 0.950 . S
H114 C115 0.949 . S
C115 H114 0.949 . S
C115 C116 1.395 . S
C115 C117 1.391 . S
C116 C115 1.395 . S
C116 C119 1.390 . S
C117 C115 1.391 . S
C117 C121 1.387 . S
C117 C122 1.491 . S
H118 C119 0.950 . S
C119 C116 1.390 . S
C119 H118 0.950 . S
C119 C120 1.378 . S
C120 C119 1.378 . S
C120 C121 1.409 . S
C121 C117 1.387 . S
C121 C120 1.409 . S
C121 H123 0.951 . S
C122 C117 1.491 . S
C122 C124 1.382 . S
C122 C126 1.404 . S
H123 C121 0.951 . S
C124 C122 1.382 . S
C124 C125 1.390 . S
C124 H129 0.949 . S
C125 C124 1.390 . S
C125 C130 1.399 . S
C126 C122 1.404 . S
C126 H127 0.950 . S
C126 C128 1.375 . S
H127 C126 0.950 . S
C128 C126 1.375 . S
C128 C130 1.382 . S
C128 H132 0.950 . S
H129 C124 0.949 . S
C130 C125 1.399 . S
C130 C128 1.382 . S
C130 H131 0.952 . S
H131 C130 0.952 . S
H132 C128 0.950 . S
H133 C134 0.949 . S
C134 H133 0.949 . S
C134 C135 1.395 . S
C134 C136 1.391 . S
C135 C134 1.395 . S
C135 C138 1.390 . S
C136 C134 1.391 . S
C136 C140 1.387 . S
C136 C141 1.491 . S
H137 C138 0.950 . S
C138 C135 1.390 . S
C138 H137 0.950 . S
C138 C139 1.378 . S
C139 C138 1.378 . S
C139 C140 1.409 . S
C140 C136 1.387 . S
C140 C139 1.409 . S
C140 H142 0.951 . S
C141 C136 1.491 . S
C141 C143 1.382 . S
C141 C145 1.404 . S
H142 C140 0.951 . S
C143 C141 1.382 . S
C143 C144 1.390 . S
C143 H148 0.949 . S
C144 C143 1.390 . S
C144 C149 1.399 . S
C145 C141 1.404 . S
C145 H146 0.950 . S
C145 C147 1.375 . S
H146 C145 0.950 . S
C147 C145 1.375 . S
C147 C149 1.382 . S
C147 H151 0.950 . S
H148 C143 0.949 . S
C149 C144 1.399 . S
C149 C147 1.382 . S
C149 H150 0.952 . S
H150 C149 0.952 . S
H151 C147 0.950 . S
H152 C153 0.949 . S
C153 H152 0.949 . S
C153 C154 1.395 . S
C153 C155 1.391 . S
C154 C153 1.395 . S
C154 C157 1.390 . S
C155 C153 1.391 . S
C155 C159 1.387 . S
C155 C160 1.491 . S
H156 C157 0.950 . S
C157 C154 1.390 . S
C157 H156 0.950 . S
C157 C158 1.378 . S
C158 C157 1.378 . S
C158 C159 1.409 . S
C159 C155 1.387 . S
C159 C158 1.409 . S
C159 H161 0.951 . S
C160 C155 1.491 . S
C160 C162 1.382 . S
C160 C164 1.404 . S
H161 C159 0.951 . S
C162 C160 1.382 . S
C162 C163 1.390 . S
C162 H167 0.949 . S
C163 C162 1.390 . S
C163 C168 1.399 . S
C164 C160 1.404 . S
C164 H165 0.950 . S
C164 C166 1.375 . S
H165 C164 0.950 . S
C166 C164 1.375 . S
C166 C168 1.382 . S
C166 H170 0.950 . S
H167 C162 0.949 . S
C168 C163 1.399 . S
C168 C166 1.382 . S
C168 H169 0.952 . S
H169 C168 0.952 . S
H170 C166 0.950 . S
H171 C172 0.949 . S
C172 H171 0.949 . S
C172 C173 1.395 . S
C172 C174 1.391 . S
C173 C172 1.395 . S
C173 C176 1.390 . S
C174 C172 1.391 . S
C174 C178 1.387 . S
C174 C179 1.491 . S
H175 C176 0.950 . S
C176 C173 1.390 . S
C176 H175 0.950 . S
C176 C177 1.378 . S
C177 C176 1.378 . S
C177 C178 1.409 . S
C178 C174 1.387 . S
C178 C177 1.409 . S
C178 H180 0.951 . S
C179 C174 1.491 . S
C179 C181 1.382 . S
C179 C183 1.404 . S
H180 C178 0.951 . S
C181 C179 1.382 . S
C181 C182 1.390 . S
C181 H186 0.949 . S
C182 C181 1.390 . S
C182 C187 1.399 . S
C183 C179 1.404 . S
C183 H184 0.950 . S
C183 C185 1.375 . S
H184 C183 0.950 . S
C185 C183 1.375 . S
C185 C187 1.382 . S
C185 H189 0.950 . S
H186 C181 0.949 . S
C187 C182 1.399 . S
C187 C185 1.382 . S
C187 H188 0.952 . S
H188 C187 0.952 . S
H189 C185 0.950 . S
H190 C191 0.949 . S
C191 H190 0.949 . S
C191 C192 1.395 . S
C191 C193 1.391 . S
C192 C191 1.395 . S
C192 C195 1.390 . S
C193 C191 1.391 . S
C193 C197 1.387 . S
C193 C198 1.491 . S
H194 C195 0.950 . S
C195 C192 1.390 . S
C195 H194 0.950 . S
C195 C196 1.378 . S
C196 C195 1.378 . S
C196 C197 1.409 . S
C197 C193 1.387 . S
C197 C196 1.409 . S
C197 H199 0.951 . S
C198 C193 1.491 . S
C198 C200 1.382 . S
C198 C202 1.404 . S
H199 C197 0.951 . S
C200 C198 1.382 . S
C200 C201 1.390 . S
C200 H205 0.949 . S
C201 C200 1.390 . S
C201 C206 1.399 . S
C202 C198 1.404 . S
C202 H203 0.950 . S
C202 C204 1.375 . S
H203 C202 0.950 . S
C204 C202 1.375 . S
C204 C206 1.382 . S
C204 H208 0.950 1_556 S
H205 C200 0.949 . S
C206 C201 1.399 . S
C206 C204 1.382 . S
C206 H207 0.952 1_556 S
H207 C206 0.952 1_554 S
H208 C204 0.950 1_554 S
H209 C210 0.949 . S
C210 H209 0.949 . S
C210 C211 1.395 . S
C210 C212 1.391 . S
C211 C210 1.395 . S
C211 C214 1.390 . S
C212 C210 1.391 . S
C212 C216 1.387 . S
C212 C217 1.491 . S
H213 C214 0.950 . S
C214 C211 1.390 . S
C214 H213 0.950 . S
C214 C215 1.378 . S
C215 C214 1.378 . S
C215 C216 1.409 . S
C216 C212 1.387 . S
C216 C215 1.409 . S
C216 H218 0.951 . S
C217 C212 1.491 . S
C217 C219 1.382 . S
C217 C221 1.404 . S
H218 C216 0.951 . S
C219 C217 1.382 . S
C219 C220 1.390 . S
C219 H224 0.949 . S
C220 C219 1.390 . S
C220 C225 1.399 . S
C221 C217 1.404 . S
C221 H222 0.950 . S
C221 C223 1.375 . S
H222 C221 0.950 . S
C223 C221 1.375 . S
C223 C225 1.382 . S
C223 H227 0.950 . S
H224 C219 0.949 . S
C225 C220 1.399 . S
C225 C223 1.382 . S
C225 H226 0.952 . S
H226 C225 0.952 . S
H227 C223 0.950 . S
H228 C229 0.949 . S
C229 H228 0.949 . S
C229 C230 1.395 . S
C229 C231 1.391 . S
C230 C229 1.395 . S
C230 C233 1.390 . S
C231 C229 1.391 . S
C231 C235 1.387 . S
C231 C236 1.491 . S
H232 C233 0.950 . S
C233 C230 1.390 . S
C233 H232 0.950 . S
C233 C234 1.378 . S
C234 C233 1.378 . S
C234 C235 1.409 . S
C235 C231 1.387 . S
C235 C234 1.409 . S
C235 H237 0.951 . S
C236 C231 1.491 . S
C236 C238 1.382 . S
C236 C240 1.404 . S
H237 C235 0.951 . S
C238 C236 1.382 . S
C238 C239 1.390 . S
C238 H243 0.949 . S
C239 C238 1.390 . S
C239 C244 1.399 . S
C240 C236 1.404 . S
C240 H241 0.950 . S
C240 C242 1.375 . S
H241 C240 0.950 . S
C242 C240 1.375 . S
C242 C244 1.382 . S
C242 H246 0.950 . S
H243 C238 0.949 . S
C244 C239 1.399 . S
C244 C242 1.382 . S
C244 H245 0.952 . S
H245 C244 0.952 . S
H246 C242 0.950 . S
H247 C248 0.949 . S
C248 H247 0.949 . S
C248 C249 1.395 . S
C248 C250 1.391 . S
C249 C248 1.395 . S
C249 C252 1.390 . S
C250 C248 1.391 . S
C250 C254 1.387 . S
C250 C255 1.491 . S
H251 C252 0.950 . S
C252 C249 1.390 . S
C252 H251 0.950 . S
C252 C253 1.378 . S
C253 C252 1.378 . S
C253 C254 1.409 . S
C254 C250 1.387 . S
C254 C253 1.409 . S
C254 H256 0.951 . S
C255 C250 1.491 . S
C255 C257 1.382 . S
C255 C259 1.404 . S
H256 C254 0.951 . S
C257 C255 1.382 . S
C257 C258 1.390 . S
C257 H262 0.949 . S
C258 C257 1.390 . S
C258 C263 1.399 . S
C259 C255 1.404 . S
C259 H260 0.950 . S
C259 C261 1.375 . S
H260 C259 0.950 . S
C261 C259 1.375 . S
C261 C263 1.382 . S
C261 H265 0.950 . S
H262 C257 0.949 . S
C263 C258 1.399 . S
C263 C261 1.382 . S
C263 H264 0.952 . S
H264 C263 0.952 . S
H265 C261 0.950 . S
H266 C267 0.949 . S
C267 H266 0.949 . S
C267 C268 1.395 . S
C267 C269 1.391 . S
C268 C267 1.395 . S
C268 C271 1.390 . S
C269 C267 1.391 . S
C269 C273 1.387 . S
C269 C274 1.491 . S
H270 C271 0.950 . S
C271 C268 1.390 . S
C271 H270 0.950 . S
C271 C272 1.378 . S
C272 C271 1.378 . S
C272 C273 1.409 . S
C273 C269 1.387 . S
C273 C272 1.409 . S
C273 H275 0.951 . S
C274 C269 1.491 . S
C274 C276 1.382 . S
C274 C278 1.404 . S
H275 C273 0.951 . S
C276 C274 1.382 . S
C276 C277 1.390 . S
C276 H281 0.949 . S
C277 C276 1.390 . S
C277 C282 1.399 . S
C278 C274 1.404 . S
C278 H279 0.950 . S
C278 C280 1.375 . S
H279 C278 0.950 . S
C280 C278 1.375 . S
C280 C282 1.382 . S
C280 H284 0.950 . S
H281 C276 0.949 . S
C282 C277 1.399 . S
C282 C280 1.382 . S
C282 H283 0.952 . S
H283 C282 0.952 . S
H284 C280 0.950 . S
H285 C286 0.949 . S
C286 H285 0.949 . S
C286 C287 1.395 . S
C286 C288 1.391 . S
C287 C286 1.395 . S
C287 C290 1.390 . S
C288 C286 1.391 . S
C288 C292 1.387 . S
C288 C293 1.491 . S
H289 C290 0.950 . S
C290 C287 1.390 . S
C290 H289 0.950 . S
C290 C291 1.378 . S
C291 C290 1.378 . S
C291 C292 1.409 . S
C292 C288 1.387 . S
C292 C291 1.409 . S
C292 H294 0.951 . S
C293 C288 1.491 . S
C293 C295 1.382 . S
C293 C297 1.404 . S
H294 C292 0.951 . S
C295 C293 1.382 . S
C295 C296 1.390 . S
C295 H300 0.949 . S
C296 C295 1.390 . S
C296 C301 1.399 . S
C297 C293 1.404 . S
C297 H298 0.950 . S
C297 C299 1.375 . S
H298 C297 0.950 . S
C299 C297 1.375 . S
C299 C301 1.382 . S
C299 H303 0.950 . S
H300 C295 0.949 . S
C301 C296 1.399 . S
C301 C299 1.382 . S
C301 H302 0.952 . S
H302 C301 0.952 . S
H303 C299 0.950 . S
H304 C305 0.949 . S
C305 H304 0.949 . S
C305 C306 1.395 . S
C305 C307 1.391 . S
C306 C305 1.395 . S
C306 C309 1.390 . S
C307 C305 1.391 . S
C307 C311 1.387 . S
C307 C312 1.491 . S
H308 C309 0.950 . S
C309 C306 1.390 . S
C309 H308 0.950 . S
C309 C310 1.378 . S
C310 C309 1.378 . S
C310 C311 1.409 . S
C311 C307 1.387 . S
C311 C310 1.409 . S
C311 H313 0.951 . S
C312 C307 1.491 . S
C312 C314 1.382 . S
C312 C316 1.404 . S
H313 C311 0.951 . S
C314 C312 1.382 . S
C314 C315 1.390 . S
C314 H319 0.949 . S
C315 C314 1.390 . S
C315 C320 1.399 . S
C316 C312 1.404 . S
C316 H317 0.950 . S
C316 C318 1.375 . S
H317 C316 0.950 . S
C318 C316 1.375 . S
C318 C320 1.382 . S
C318 H322 0.950 . S
H319 C314 0.949 . S
C320 C315 1.399 . S
C320 C318 1.382 . S
C320 H321 0.952 . S
H321 C320 0.952 . S
H322 C318 0.950 . S
H323 C324 0.949 . S
C324 H323 0.949 . S
C324 C325 1.395 . S
C324 C326 1.391 . S
C325 C324 1.395 . S
C325 C328 1.390 . S
C326 C324 1.391 . S
C326 C330 1.387 . S
C326 C331 1.491 . S
H327 C328 0.950 . S
C328 C325 1.390 . S
C328 H327 0.950 . S
C328 C329 1.378 . S
C329 C328 1.378 . S
C329 C330 1.409 . S
C330 C326 1.387 . S
C330 C329 1.409 . S
C330 H332 0.951 . S
C331 C326 1.491 . S
C331 C333 1.382 . S
C331 C335 1.404 . S
H332 C330 0.951 . S
C333 C331 1.382 . S
C333 C334 1.390 . S
C333 H338 0.949 . S
C334 C333 1.390 . S
C334 C339 1.399 . S
C335 C331 1.404 . S
C335 H336 0.950 . S
C335 C337 1.375 . S
H336 C335 0.950 . S
C337 C335 1.375 . S
C337 C339 1.382 . S
C337 H341 0.950 . S
H338 C333 0.949 . S
C339 C334 1.399 . S
C339 C337 1.382 . S
C339 H340 0.952 . S
H340 C339 0.952 . S
H341 C337 0.950 . S
Gd342 N373 2.661 . S
Gd342 N379 2.601 . S
Gd342 O386 2.545 . S
Gd342 O387 2.606 1_545 S
Gd342 O389 2.429 . S
Gd342 O390 2.545 1_545 S
Gd342 O391 2.412 1_545 S
Gd342 O393 2.362 . S
Gd342 O394 2.324 1_545 S
Gd342 C401 2.828 1_545 S
Gd343 N352 2.661 . S
Gd343 N356 2.601 . S
Gd343 O387 2.362 1_556 S
Gd343 O388 2.324 1_565 S
Gd343 O392 2.545 . S
Gd343 O393 2.606 1_566 S
Gd343 O395 2.429 . S
Gd343 O396 2.545 1_565 S
Gd343 O397 2.412 1_565 S
Gd343 C410 2.828 1_565 S
C344 C347 1.417 . S
C344 C349 1.431 . S
C344 C350 1.412 . S
C345 C348 1.437 . S
C345 C349 1.317 . S
C345 H364 0.929 . S
C346 C347 1.426 . S
C346 C348 1.413 . S
C346 N356 1.359 . S
C347 C344 1.417 . S
C347 C346 1.426 . S
C347 N352 1.350 . S
C348 C345 1.437 . S
C348 C346 1.413 . S
C348 C358 1.391 . S
C349 C344 1.431 . S
C349 C345 1.317 . S
C349 H360 0.930 . S
C350 C344 1.412 . S
C350 C351 1.355 . S
C350 H362 0.930 . S
C351 C350 1.355 . S
C351 C353 1.402 . S
C351 H363 0.930 . S
N352 Gd343 2.661 . S
N352 C347 1.350 . S
N352 C353 1.307 . S
C353 C351 1.402 . S
C353 N352 1.307 . S
C353 H354 0.942 . S
H354 C353 0.942 . S
C355 N356 1.334 . S
C355 C357 1.394 . S
C355 H359 0.930 . S
N356 Gd343 2.601 . S
N356 C346 1.359 . S
N356 C355 1.334 . S
C357 C355 1.394 . S
C357 C358 1.359 . S
C357 H369 0.930 . S
C358 C348 1.391 . S
C358 C357 1.359 . S
C358 H370 0.929 . S
H359 C355 0.930 . S
H360 C349 0.930 . S
H361 C378 0.930 . S
H362 C350 0.930 . S
H363 C351 0.930 . S
H364 C345 0.929 . S
H365 C383 0.930 . S
H366 C374 0.930 . S
H367 C375 0.930 . S
H368 C399 0.929 . S
H369 C357 0.930 . S
H370 C358 0.929 . S
H371 C400 0.930 . S
H372 C381 0.930 . S
N373 Gd342 2.661 . S
N373 C377 1.350 . S
N373 C378 1.307 . S
C374 H366 0.930 . S
C374 C375 1.355 . S
C374 C376 1.412 . S
C375 H367 0.930 . S
C375 C374 1.355 . S
C375 C378 1.402 . S
C376 C374 1.412 . S
C376 C377 1.417 . S
C376 C400 1.431 . S
C377 N373 1.350 . S
C377 C376 1.417 . S
C377 C380 1.426 . S
C378 H361 0.930 . S
C378 N373 1.307 . S
C378 C375 1.402 . S
N379 Gd342 2.601 . S
N379 C380 1.359 . S
N379 C383 1.334 . S
C380 C377 1.426 . S
C380 N379 1.359 . S
C380 C384 1.413 . S
C381 H372 0.930 . S
C381 C382 1.359 . S
C381 C383 1.394 . S
C382 C381 1.359 . S
C382 C384 1.391 . S
C382 H385 0.929 . S
C383 H365 0.930 . S
C383 N379 1.334 . S
C383 C381 1.394 . S
C384 C380 1.413 . S
C384 C382 1.391 . S
C384 C399 1.437 . S
H385 C382 0.929 . S
O386 Gd342 2.545 . S
O386 C401 1.256 1_545 S
O387 Gd342 2.606 1_565 S
O387 Gd343 2.362 1_554 S
O387 C398 1.284 . S
O388 Gd343 2.324 1_545 S
O388 C408 1.254 1_556 S
O389 Gd342 2.429 . S
O389 C408 1.268 . S
O390 Gd342 2.545 1_565 S
O390 C398 1.250 . S
O391 Gd342 2.412 1_565 S
O391 C401 1.253 . S
O392 Gd343 2.545 . S
O392 C410 1.258 1_565 S
O393 Gd342 2.362 . S
O393 Gd343 2.606 1_544 S
O393 C409 1.284 1_554 S
O394 Gd342 2.324 1_565 S
O394 C417 1.254 . S
O395 Gd343 2.429 . S
O395 C417 1.268 1_556 S
O396 Gd343 2.545 1_545 S
O396 C409 1.250 . S
O397 Gd343 2.412 1_545 S
O397 C410 1.252 . S
C398 O387 1.284 . S
C398 O390 1.250 . S
C399 H368 0.929 . S
C399 C384 1.437 . S
C399 C400 1.317 . S
C400 H371 0.930 . S
C400 C376 1.431 . S
C400 C399 1.317 . S
C401 Gd342 2.828 1_565 S
C401 O386 1.256 1_565 S
C401 O391 1.253 . S
C401 C402 1.497 . S
C402 C401 1.497 . S
C402 C403 1.395 1_565 S
C402 C404 1.380 . S
C403 C402 1.395 1_545 S
C403 C406 1.398 1_545 S
C403 H418 0.930 . S
C404 C402 1.380 . S
C404 C405 1.391 . S
C404 H419 0.930 . S
C405 C404 1.391 . S
C405 C407 1.387 . S
C406 C403 1.398 1_565 S
C406 C407 1.380 . S
C406 H420 0.930 1_565 S
C407 C405 1.387 . S
C407 C406 1.380 . S
C407 H421 0.930 . S
C408 O388 1.254 1_554 S
C408 O389 1.268 . S
C409 O393 1.284 1_556 S
C409 O396 1.250 . S
C410 Gd343 2.828 1_545 S
C410 O392 1.258 1_545 S
C410 O397 1.252 . S
C410 C411 1.497 . S
C411 C410 1.497 . S
C411 C412 1.395 1_545 S
C411 C413 1.380 . S
C412 C411 1.395 1_565 S
C412 C415 1.398 1_565 S
C412 H422 0.930 . S
C413 C411 1.380 . S
C413 C414 1.391 . S
C413 H423 0.930 . S
C414 C413 1.391 . S
C414 C416 1.387 . S
C415 C412 1.398 1_545 S
C415 C416 1.380 . S
C415 H424 0.930 1_545 S
C416 C414 1.387 . S
C416 C415 1.380 . S
C416 H425 0.930 . S
C417 O394 1.254 . S
C417 O395 1.268 1_554 S
H418 C403 0.930 . S
H419 C404 0.930 . S
H420 C406 0.930 1_545 S
H421 C407 0.930 . S
H422 C412 0.930 . S
H423 C413 0.930 . S
H424 C415 0.930 1_565 S
H425 C416 0.930 . S
Gd426 N457 2.661 . S
Gd426 N463 2.601 . S
Gd426 O470 2.545 . S
Gd426 O471 2.606 1_655 S
Gd426 O473 2.429 . S
Gd426 O474 2.545 1_655 S
Gd426 O475 2.412 1_655 S
Gd426 O477 2.362 . S
Gd426 O478 2.324 1_655 S
Gd426 C485 2.828 1_655 S
Gd427 N436 2.661 . S
Gd427 N440 2.601 . S
Gd427 O471 2.362 1_556 S
Gd427 O472 2.324 1_455 S
Gd427 O476 2.545 . S
Gd427 O477 2.606 1_456 S
Gd427 O479 2.429 . S
Gd427 O480 2.545 1_455 S
Gd427 O481 2.412 1_455 S
Gd427 C494 2.828 . S
C428 C431 1.417 . S
C428 C433 1.431 . S
C428 C434 1.412 . S
C429 C432 1.437 . S
C429 C433 1.317 . S
C429 H448 0.929 . S
C430 C431 1.426 . S
C430 C432 1.413 . S
C430 N440 1.359 . S
C431 C428 1.417 . S
C431 C430 1.426 . S
C431 N436 1.350 . S
C432 C429 1.437 . S
C432 C430 1.413 . S
C432 C442 1.391 . S
C433 C428 1.431 . S
C433 C429 1.317 . S
C433 H444 0.930 . S
C434 C428 1.412 . S
C434 C435 1.355 . S
C434 H446 0.930 . S
C435 C434 1.355 . S
C435 C437 1.402 . S
C435 H447 0.930 . S
N436 Gd427 2.661 . S
N436 C431 1.350 . S
N436 C437 1.307 . S
C437 C435 1.402 . S
C437 N436 1.307 . S
C437 H438 0.930 . S
H438 C437 0.930 . S
C439 N440 1.334 . S
C439 C441 1.394 . S
C439 H443 0.930 . S
N440 Gd427 2.601 . S
N440 C430 1.359 . S
N440 C439 1.334 . S
C441 C439 1.394 . S
C441 C442 1.359 . S
C441 H453 0.930 . S
C442 C432 1.391 . S
C442 C441 1.359 . S
C442 H454 0.929 . S
H443 C439 0.930 . S
H444 C433 0.930 . S
H445 C462 0.919 1_455 S
H446 C434 0.930 . S
H447 C435 0.930 . S
H448 C429 0.929 . S
H449 C467 0.930 . S
H450 C458 0.930 . S
H451 C459 0.930 . S
H452 C483 0.929 . S
H453 C441 0.930 . S
H454 C442 0.929 . S
H455 C484 0.930 . S
H456 C465 0.930 . S
N457 Gd426 2.661 . S
N457 C461 1.350 . S
N457 C462 1.307 . S
C458 H450 0.930 . S
C458 C459 1.355 . S
C458 C460 1.412 . S
C459 H451 0.930 . S
C459 C458 1.355 . S
C459 C462 1.402 . S
C460 C458 1.412 . S
C460 C461 1.417 . S
C460 C484 1.431 . S
C461 N457 1.350 . S
C461 C460 1.417 . S
C461 C464 1.426 . S
C462 H445 0.919 1_655 S
C462 N457 1.307 . S
C462 C459 1.402 . S
N463 Gd426 2.601 . S
N463 C464 1.359 . S
N463 C467 1.334 . S
C464 C461 1.426 . S
C464 N463 1.359 . S
C464 C468 1.413 . S
C465 H456 0.930 . S
C465 C466 1.359 . S
C465 C467 1.394 . S
C466 C465 1.359 . S
C466 C468 1.391 . S
C466 H469 0.929 . S
C467 H449 0.930 . S
C467 N463 1.334 . S
C467 C465 1.394 . S
C468 C464 1.413 . S
C468 C466 1.391 . S
C468 C483 1.437 . S
H469 C466 0.929 . S
O470 Gd426 2.545 . S
O470 C485 1.258 1_655 S
O471 Gd426 2.606 1_455 S
O471 Gd427 2.362 1_554 S
O471 C482 1.284 . S
O472 Gd427 2.324 1_655 S
O472 C492 1.254 1_556 S
O473 Gd426 2.429 . S
O473 C492 1.268 . S
O474 Gd426 2.545 1_455 S
O474 C482 1.250 . S
O475 Gd426 2.412 1_455 S
O475 C485 1.252 . S
O476 Gd427 2.545 . S
O476 C494 1.258 . S
O477 Gd426 2.362 . S
O477 Gd427 2.606 1_654 S
O477 C493 1.284 1_554 S
O478 Gd426 2.324 1_455 S
O478 C501 1.254 . S
O479 Gd427 2.429 . S
O479 C501 1.268 1_556 S
O480 Gd427 2.545 1_655 S
O480 C493 1.250 . S
O481 Gd427 2.412 1_655 S
O481 C494 1.252 1_655 S
C482 O471 1.284 . S
C482 O474 1.250 . S
C483 H452 0.929 . S
C483 C468 1.437 . S
C483 C484 1.317 . S
C484 H455 0.930 . S
C484 C460 1.431 . S
C484 C483 1.317 . S
C485 Gd426 2.828 1_455 S
C485 O470 1.258 1_455 S
C485 O475 1.252 . S
C485 C486 1.497 . S
C486 C485 1.497 . S
C486 C487 1.395 1_455 S
C486 C488 1.380 . S
C487 C486 1.395 1_655 S
C487 C490 1.398 1_655 S
C487 H502 0.930 . S
C488 C486 1.380 . S
C488 C489 1.391 . S
C488 H503 0.930 . S
C489 C488 1.391 . S
C489 C491 1.387 . S
C490 C487 1.398 1_455 S
C490 C491 1.380 . S
C490 H504 0.930 1_455 S
C491 C489 1.387 . S
C491 C490 1.380 . S
C491 H505 0.930 . S
C492 O472 1.254 1_554 S
C492 O473 1.268 . S
C493 O477 1.284 1_556 S
C493 O480 1.250 . S
C494 Gd427 2.828 . S
C494 O476 1.258 . S
C494 O481 1.252 1_455 S
C494 C495 1.497 1_455 S
C495 C494 1.497 1_655 S
C495 C496 1.395 1_655 S
C495 C497 1.380 . S
C496 C495 1.395 1_455 S
C496 C499 1.398 . S
C496 H506 0.930 . S
C497 C495 1.380 . S
C497 C498 1.391 . S
C497 H507 0.930 . S
C498 C497 1.391 . S
C498 C500 1.387 . S
C499 C496 1.398 . S
C499 C500 1.380 1_455 S
C499 H508 0.930 . S
C500 C498 1.387 . S
C500 C499 1.380 1_655 S
C500 H509 0.930 . S
C501 O478 1.254 . S
C501 O479 1.268 1_554 S
H502 C487 0.930 . S
H503 C488 0.930 . S
H504 C490 0.930 1_655 S
H505 C491 0.930 . S
H506 C496 0.930 . S
H507 C497 0.930 . S
H508 C499 0.930 . S
H509 C500 0.930 . S
Gd510 N541 2.661 . S
Gd510 N547 2.601 . S
Gd510 O554 2.545 . S
Gd510 O555 2.606 1_556 S
Gd510 O557 2.429 . S
Gd510 O558 2.545 . S
Gd510 O559 2.412 . S
Gd510 O561 2.362 1_556 S
Gd510 O562 2.324 . S
Gd510 C569 2.828 . S
Gd511 N520 2.661 . S
Gd511 N524 2.601 . S
Gd511 O555 2.362 . S
Gd511 O556 2.324 . S
Gd511 O560 2.545 . S
Gd511 O561 2.606 . S
Gd511 O563 2.429 . S
Gd511 O564 2.545 . S
Gd511 O565 2.412 . S
Gd511 C578 2.828 . S
C512 C515 1.417 . S
C512 C517 1.431 . S
C512 C518 1.412 . S
C513 C516 1.437 . S
C513 C517 1.317 . S
C513 H532 0.929 . S
C514 C515 1.426 . S
C514 C516 1.413 . S
C514 N524 1.359 . S
C515 C512 1.417 . S
C515 C514 1.426 . S
C515 N520 1.350 . S
C516 C513 1.437 . S
C516 C514 1.413 . S
C516 C526 1.391 . S
C517 C512 1.431 . S
C517 C513 1.317 . S
C517 H528 0.930 . S
C518 C512 1.412 . S
C518 C519 1.355 . S
C518 H530 0.930 . S
C519 C518 1.355 . S
C519 C521 1.402 . S
C519 H531 0.930 . S
N520 Gd511 2.661 . S
N520 C515 1.350 . S
N520 C521 1.307 . S
C521 C519 1.402 . S
C521 N520 1.307 . S
C521 H522 0.930 . S
H522 C521 0.930 . S
C523 N524 1.334 . S
C523 C525 1.394 . S
C523 H527 0.930 . S
N524 Gd511 2.601 . S
N524 C514 1.359 . S
N524 C523 1.334 . S
C525 C523 1.394 . S
C525 C526 1.359 . S
C525 H537 0.930 . S
C526 C516 1.391 . S
C526 C525 1.359 . S
C526 H538 0.929 . S
H527 C523 0.930 . S
H528 C517 0.930 . S
H529 C546 0.930 . S
H530 C518 0.930 . S
H531 C519 0.930 . S
H532 C513 0.929 . S
H533 C551 0.930 . S
H534 C542 0.930 . S
H535 C543 0.930 . S
H536 C567 0.929 . S
H537 C525 0.930 . S
H538 C526 0.929 . S
H539 C568 0.930 . S
H540 C549 0.930 . S
N541 Gd510 2.661 . S
N541 C545 1.350 . S
N541 C546 1.307 . S
C542 H534 0.930 . S
C542 C543 1.355 . S
C542 C544 1.412 . S
C543 H535 0.930 . S
C543 C542 1.355 . S
C543 C546 1.402 . S
C544 C542 1.412 . S
C544 C545 1.417 . S
C544 C568 1.431 . S
C545 N541 1.350 . S
C545 C544 1.417 . S
C545 C548 1.426 . S
C546 H529 0.930 . S
C546 N541 1.307 . S
C546 C543 1.402 . S
N547 Gd510 2.601 . S
N547 C548 1.359 . S
N547 C551 1.334 . S
C548 C545 1.426 . S
C548 N547 1.359 . S
C548 C552 1.413 . S
C549 H540 0.930 . S
C549 C550 1.359 . S
C549 C551 1.394 . S
C550 C549 1.359 . S
C550 C552 1.391 . S
C550 H553 0.929 . S
C551 H533 0.930 . S
C551 N547 1.334 . S
C551 C549 1.394 . S
C552 C548 1.413 . S
C552 C550 1.391 . S
C552 C567 1.437 . S
H553 C550 0.929 . S
O554 Gd510 2.545 . S
O554 C569 1.258 . S
O555 Gd510 2.606 1_554 S
O555 Gd511 2.362 . S
O555 C566 1.284 1_554 S
O556 Gd511 2.324 . S
O556 C576 1.254 . S
O557 Gd510 2.429 . S
O557 C576 1.268 1_556 S
O558 Gd510 2.545 . S
O558 C566 1.250 . S
O559 Gd510 2.412 . S
O559 C569 1.252 . S
O560 Gd511 2.545 . S
O560 C578 1.258 . S
O561 Gd510 2.362 1_554 S
O561 Gd511 2.606 . S
O561 C577 1.284 . S
O562 Gd510 2.324 . S
O562 C585 1.254 1_556 S
O563 Gd511 2.429 . S
O563 C585 1.268 . S
O564 Gd511 2.545 . S
O564 C577 1.250 . S
O565 Gd511 2.412 . S
O565 C578 1.252 . S
C566 O555 1.284 1_556 S
C566 O558 1.250 . S
C567 H536 0.929 . S
C567 C552 1.437 . S
C567 C568 1.317 . S
C568 H539 0.930 . S
C568 C544 1.431 . S
C568 C567 1.317 . S
C569 Gd510 2.828 . S
C569 O554 1.258 . S
C569 O559 1.252 . S
C569 C570 1.497 . S
C570 C569 1.497 . S
C570 C571 1.395 . S
C570 C572 1.380 . S
C571 C570 1.395 . S
C571 C574 1.398 . S
C571 H586 0.930 . S
C572 C570 1.380 . S
C572 C573 1.391 . S
C572 H587 0.930 . S
C573 C572 1.391 . S
C573 C575 1.387 . S
C574 C571 1.398 . S
C574 C575 1.380 . S
C574 H588 0.930 . S
C575 C573 1.387 . S
C575 C574 1.380 . S
C575 H589 0.930 . S
C576 O556 1.254 . S
C576 O557 1.268 1_554 S
C577 O561 1.284 . S
C577 O564 1.250 . S
C578 Gd511 2.828 . S
C578 O560 1.258 . S
C578 O565 1.252 . S
C578 C579 1.497 . S
C579 C578 1.497 . S
C579 C580 1.395 . S
C579 C581 1.380 . S
C580 C579 1.395 . S
C580 C583 1.398 . S
C580 H590 0.930 . S
C581 C579 1.380 . S
C581 C582 1.391 . S
C581 H591 0.930 . S
C582 C581 1.391 . S
C582 C584 1.387 . S
C583 C580 1.398 . S
C583 C584 1.380 . S
C583 H592 0.930 . S
C584 C582 1.387 . S
C584 C583 1.380 . S
C584 H593 0.930 . S
C585 O562 1.254 1_554 S
C585 O563 1.268 . S
H586 C571 0.930 . S
H587 C572 0.930 . S
H588 C574 0.930 . S
H589 C575 0.930 . S
H590 C580 0.930 . S
H591 C581 0.930 . S
H592 C583 0.930 . S
H593 C584 0.930 . S
Gd594 N625 2.661 . S
Gd594 N631 2.601 . S
Gd594 O638 2.545 . S
Gd594 O639 2.606 . S
Gd594 O641 2.429 . S
Gd594 O642 2.545 . S
Gd594 O643 2.412 . S
Gd594 O645 2.362 . S
Gd594 O646 2.324 . S
Gd594 C653 2.828 . S
Gd595 N604 2.661 . S
Gd595 N608 2.601 . S
Gd595 O639 2.362 . S
Gd595 O640 2.324 . S
Gd595 O644 2.545 . S
Gd595 O645 2.606 . S
Gd595 O647 2.429 . S
Gd595 O648 2.545 . S
Gd595 O649 2.412 . S
Gd595 C662 2.828 . S
C596 C599 1.417 . S
C596 C601 1.431 . S
C596 C602 1.412 . S
C597 C600 1.437 . S
C597 C601 1.317 . S
C597 H616 0.929 . S
C598 C599 1.426 . S
C598 C600 1.413 . S
C598 N608 1.359 . S
C599 C596 1.417 . S
C599 C598 1.426 . S
C599 N604 1.350 . S
C600 C597 1.437 . S
C600 C598 1.413 . S
C600 C610 1.391 . S
C601 C596 1.431 . S
C601 C597 1.317 . S
C601 H612 0.930 1_455 S
C602 C596 1.412 . S
C602 C603 1.355 . S
C602 H614 0.930 1_455 S
C603 C602 1.355 . S
C603 C605 1.402 . S
C603 H615 0.930 . S
N604 Gd595 2.661 . S
N604 C599 1.350 . S
N604 C605 1.307 . S
C605 C603 1.402 . S
C605 N604 1.307 . S
C605 H606 0.930 . S
H606 C605 0.930 . S
C607 N608 1.334 . S
C607 C609 1.394 . S
C607 H611 0.930 . S
N608 Gd595 2.601 . S
N608 C598 1.359 . S
N608 C607 1.334 . S
C609 C607 1.394 . S
C609 C610 1.359 . S
C609 H621 0.930 . S
C610 C600 1.391 . S
C610 C609 1.359 . S
C610 H622 0.929 . S
H611 C607 0.930 . S
H612 C601 0.930 1_655 S
H613 C630 0.930 . S
H614 C602 0.930 1_655 S
H615 C603 0.930 . S
H616 C597 0.929 . S
H617 C635 0.930 . S
H618 C626 0.930 . S
H619 C627 0.930 . S
H620 C651 0.929 . S
H621 C609 0.930 . S
H622 C610 0.929 . S
H623 C652 0.930 . S
H624 C633 0.930 . S
N625 Gd594 2.661 . S
N625 C629 1.350 . S
N625 C630 1.307 . S
C626 H618 0.930 . S
C626 C627 1.355 . S
C626 C628 1.412 . S
C627 H619 0.930 . S
C627 C626 1.355 . S
C627 C630 1.402 . S
C628 C626 1.412 . S
C628 C629 1.417 . S
C628 C652 1.431 . S
C629 N625 1.350 . S
C629 C628 1.417 . S
C629 C632 1.426 . S
C630 H613 0.930 . S
C630 N625 1.307 . S
C630 C627 1.402 . S
N631 Gd594 2.601 . S
N631 C632 1.359 . S
N631 C635 1.334 . S
C632 C629 1.426 . S
C632 N631 1.359 . S
C632 C636 1.413 . S
C633 H624 0.930 . S
C633 C634 1.359 . S
C633 C635 1.394 . S
C634 C633 1.359 . S
C634 C636 1.391 . S
C634 H637 0.929 . S
C635 H617 0.930 . S
C635 N631 1.334 . S
C635 C633 1.394 . S
C636 C632 1.413 . S
C636 C634 1.391 . S
C636 C651 1.437 . S
H637 C634 0.929 . S
O638 Gd594 2.545 . S
O638 C653 1.258 . S
O639 Gd594 2.606 . S
O639 Gd595 2.362 . S
O639 C650 1.284 . S
O640 Gd595 2.324 . S
O640 C660 1.254 . S
O641 Gd594 2.429 . S
O641 C660 1.268 . S
O642 Gd594 2.545 . S
O642 C650 1.250 . S
O643 Gd594 2.412 . S
O643 C653 1.252 . S
O644 Gd595 2.545 . S
O644 C662 1.258 . S
O645 Gd594 2.362 . S
O645 Gd595 2.606 . S
O645 C661 1.284 . S
O646 Gd594 2.324 . S
O646 C669 1.254 . S
O647 Gd595 2.429 . S
O647 C669 1.268 . S
O648 Gd595 2.545 . S
O648 C661 1.250 . S
O649 Gd595 2.412 . S
O649 C662 1.252 . S
C650 O639 1.284 . S
C650 O642 1.250 . S
C651 H620 0.929 . S
C651 C636 1.437 . S
C651 C652 1.317 . S
C652 H623 0.930 . S
C652 C628 1.431 . S
C652 C651 1.317 . S
C653 Gd594 2.828 . S
C653 O638 1.258 . S
C653 O643 1.252 . S
C653 C654 1.497 . S
C654 C653 1.497 . S
C654 C655 1.395 . S
C654 C656 1.380 . S
C655 C654 1.395 . S
C655 C658 1.398 . S
C655 H670 0.930 . S
C656 C654 1.380 . S
C656 C657 1.391 . S
C656 H671 0.930 . S
C657 C656 1.391 . S
C657 C659 1.387 . S
C658 C655 1.398 . S
C658 C659 1.380 . S
C658 H672 0.930 . S
C659 C657 1.387 . S
C659 C658 1.380 . S
C659 H673 0.930 . S
C660 O640 1.254 . S
C660 O641 1.268 . S
C661 O645 1.284 . S
C661 O648 1.250 . S
C662 Gd595 2.828 . S
C662 O644 1.258 . S
C662 O649 1.252 . S
C662 C663 1.497 . S
C663 C662 1.497 . S
C663 C664 1.395 . S
C663 C665 1.380 . S
C664 C663 1.395 . S
C664 C667 1.398 . S
C664 H674 0.930 . S
C665 C663 1.380 . S
C665 C666 1.391 . S
C665 H675 0.930 . S
C666 C665 1.391 . S
C666 C668 1.387 . S
C667 C664 1.398 . S
C667 C668 1.380 . S
C667 H676 0.930 . S
C668 C666 1.387 . S
C668 C667 1.380 . S
C668 H677 0.930 . S
C669 O646 1.254 . S
C669 O647 1.268 . S
H670 C655 0.930 . S
H671 C656 0.930 . S
H672 C658 0.930 . S
H673 C659 0.930 . S
H674 C664 0.930 . S
H675 C665 0.930 . S
H676 C667 0.930 . S
H677 C668 0.930 . S
Gd678 N709 2.661 . S
Gd678 N715 2.601 . S
Gd678 O722 2.545 . S
Gd678 O723 2.606 . S
Gd678 O725 2.429 . S
Gd678 O726 2.545 . S
Gd678 O727 2.412 . S
Gd678 O729 2.362 . S
Gd678 O730 2.324 . S
Gd678 C737 2.828 . S
Gd679 N688 2.661 . S
Gd679 N692 2.601 . S
Gd679 O723 2.362 . S
Gd679 O724 2.324 . S
Gd679 O728 2.545 . S
Gd679 O729 2.606 . S
Gd679 O731 2.429 . S
Gd679 O732 2.545 . S
Gd679 O733 2.412 . S
Gd679 C746 2.828 . S
C680 C683 1.417 . S
C680 C685 1.431 . S
C680 C686 1.412 . S
C681 C684 1.437 . S
C681 C685 1.317 . S
C681 H700 0.929 . S
C682 C683 1.426 . S
C682 C684 1.413 . S
C682 N692 1.359 . S
C683 C680 1.417 . S
C683 C682 1.426 . S
C683 N688 1.350 . S
C684 C681 1.437 . S
C684 C682 1.413 . S
C684 C694 1.391 . S
C685 C680 1.431 . S
C685 C681 1.317 . S
C685 H696 0.930 . S
C686 C680 1.412 . S
C686 C687 1.355 . S
C686 H698 0.930 . S
C687 C686 1.355 . S
C687 C689 1.402 . S
C687 H699 0.930 . S
N688 Gd679 2.661 . S
N688 C683 1.350 . S
N688 C689 1.307 . S
C689 C687 1.402 . S
C689 N688 1.307 . S
C689 H690 0.930 . S
H690 C689 0.930 . S
C691 N692 1.334 . S
C691 C693 1.394 . S
C691 H695 0.930 . S
N692 Gd679 2.601 . S
N692 C682 1.359 . S
N692 C691 1.334 . S
C693 C691 1.394 . S
C693 C694 1.359 . S
C693 H705 0.930 . S
C694 C684 1.391 . S
C694 C693 1.359 . S
C694 H706 0.929 . S
H695 C691 0.930 . S
H696 C685 0.930 . S
H697 C714 0.930 . S
H698 C686 0.930 . S
H699 C687 0.930 . S
H700 C681 0.929 . S
H701 C719 0.930 . S
H702 C710 0.930 . S
H703 C711 0.930 . S
H704 C735 0.929 . S
H705 C693 0.930 . S
H706 C694 0.929 . S
H707 C736 0.930 . S
H708 C717 0.930 . S
N709 Gd678 2.661 . S
N709 C713 1.350 . S
N709 C714 1.307 . S
C710 H702 0.930 . S
C710 C711 1.355 . S
C710 C712 1.412 . S
C711 H703 0.930 . S
C711 C710 1.355 . S
C711 C714 1.402 . S
C712 C710 1.412 . S
C712 C713 1.417 . S
C712 C736 1.431 . S
C713 N709 1.350 . S
C713 C712 1.417 . S
C713 C716 1.426 . S
C714 H697 0.930 . S
C714 N709 1.307 . S
C714 C711 1.402 . S
N715 Gd678 2.601 . S
N715 C716 1.359 . S
N715 C719 1.334 . S
C716 C713 1.426 . S
C716 N715 1.359 . S
C716 C720 1.413 . S
C717 H708 0.930 . S
C717 C718 1.359 . S
C717 C719 1.394 . S
C718 C717 1.359 . S
C718 C720 1.391 . S
C718 H721 0.929 . S
C719 H701 0.930 . S
C719 N715 1.334 . S
C719 C717 1.394 . S
C720 C716 1.413 . S
C720 C718 1.391 . S
C720 C735 1.437 . S
H721 C718 0.929 . S
O722 Gd678 2.545 . S
O722 C737 1.258 . S
O723 Gd678 2.606 . S
O723 Gd679 2.362 . S
O723 C734 1.284 . S
O724 Gd679 2.324 . S
O724 C744 1.254 . S
O725 Gd678 2.429 . S
O725 C744 1.268 . S
O726 Gd678 2.545 . S
O726 C734 1.250 . S
O727 Gd678 2.412 . S
O727 C737 1.252 . S
O728 Gd679 2.545 . S
O728 C746 1.258 . S
O729 Gd678 2.362 . S
O729 Gd679 2.606 . S
O729 C745 1.284 . S
O730 Gd678 2.324 . S
O730 C753 1.254 . S
O731 Gd679 2.429 . S
O731 C753 1.268 . S
O732 Gd679 2.545 . S
O732 C745 1.250 . S
O733 Gd679 2.412 . S
O733 C746 1.252 . S
C734 O723 1.284 . S
C734 O726 1.250 . S
C735 H704 0.929 . S
C735 C720 1.437 . S
C735 C736 1.317 . S
C736 H707 0.930 . S
C736 C712 1.431 . S
C736 C735 1.317 . S
C737 Gd678 2.828 . S
C737 O722 1.258 . S
C737 O727 1.252 . S
C737 C738 1.497 . S
C738 C737 1.497 . S
C738 C739 1.395 . S
C738 C740 1.380 . S
C739 C738 1.395 . S
C739 C742 1.398 . S
C739 H754 0.930 . S
C740 C738 1.380 . S
C740 C741 1.391 . S
C740 H755 0.930 . S
C741 C740 1.391 . S
C741 C743 1.387 . S
C742 C739 1.398 . S
C742 C743 1.380 . S
C742 H756 0.930 . S
C743 C741 1.387 . S
C743 C742 1.380 . S
C743 H757 0.930 . S
C744 O724 1.254 . S
C744 O725 1.268 . S
C745 O729 1.284 . S
C745 O732 1.250 . S
C746 Gd679 2.828 . S
C746 O728 1.258 . S
C746 O733 1.252 . S
C746 C747 1.497 . S
C747 C746 1.497 . S
C747 C748 1.395 . S
C747 C749 1.380 . S
C748 C747 1.395 . S
C748 C751 1.398 . S
C748 H758 0.930 . S
C749 C747 1.380 . S
C749 C750 1.391 . S
C749 H759 0.930 . S
C750 C749 1.391 . S
C750 C752 1.387 . S
C751 C748 1.398 . S
C751 C752 1.380 . S
C751 H760 0.930 . S
C752 C750 1.387 . S
C752 C751 1.380 . S
C752 H761 0.930 . S
C753 O730 1.254 . S
C753 O731 1.268 . S
H754 C739 0.930 . S
H755 C740 0.930 . S
H756 C742 0.930 . S
H757 C743 0.930 . S
H758 C748 0.930 . S
H759 C749 0.930 . S
H760 C751 0.930 . S
H761 C752 0.930 . S
Gd762 N793 2.661 . S
Gd762 N799 2.601 . S
Gd762 O806 2.545 . S
Gd762 O807 2.606 . S
Gd762 O809 2.429 . S
Gd762 O810 2.545 . S
Gd762 O811 2.412 . S
Gd762 O813 2.362 . S
Gd762 O814 2.324 . S
Gd762 C821 2.828 . S
Gd763 N772 2.661 . S
Gd763 N776 2.601 . S
Gd763 O807 2.362 . S
Gd763 O808 2.324 . S
Gd763 O812 2.545 . S
Gd763 O813 2.606 . S
Gd763 O815 2.429 . S
Gd763 O816 2.545 . S
Gd763 O817 2.412 . S
Gd763 C830 2.828 . S
C764 C767 1.417 . S
C764 C769 1.431 . S
C764 C770 1.412 . S
C765 C768 1.437 . S
C765 C769 1.317 . S
C765 H784 0.929 . S
C766 C767 1.426 . S
C766 C768 1.413 . S
C766 N776 1.359 . S
C767 C764 1.417 . S
C767 C766 1.426 . S
C767 N772 1.350 . S
C768 C765 1.437 . S
C768 C766 1.413 . S
C768 C778 1.391 . S
C769 C764 1.431 . S
C769 C765 1.317 . S
C769 H780 0.930 . S
C770 C764 1.412 . S
C770 C771 1.355 . S
C770 H782 0.930 . S
C771 C770 1.355 . S
C771 C773 1.402 . S
C771 H783 0.930 . S
N772 Gd763 2.661 . S
N772 C767 1.350 . S
N772 C773 1.307 . S
C773 C771 1.402 . S
C773 N772 1.307 . S
C773 H774 0.930 . S
H774 C773 0.930 . S
C775 N776 1.334 . S
C775 C777 1.394 . S
C775 H779 0.930 . S
N776 Gd763 2.601 . S
N776 C766 1.359 . S
N776 C775 1.334 . S
C777 C775 1.394 . S
C777 C778 1.359 . S
C777 H789 0.930 . S
C778 C768 1.391 . S
C778 C777 1.359 . S
C778 H790 0.929 . S
H779 C775 0.930 . S
H780 C769 0.930 . S
H781 C798 0.930 . S
H782 C770 0.930 . S
H783 C771 0.930 . S
H784 C765 0.929 . S
H785 C803 0.930 . S
H786 C794 0.930 . S
H787 C795 0.930 . S
H788 C819 0.929 . S
H789 C777 0.930 . S
H790 C778 0.929 . S
H791 C820 0.930 . S
H792 C801 0.930 . S
N793 Gd762 2.661 . S
N793 C797 1.350 . S
N793 C798 1.307 . S
C794 H786 0.930 . S
C794 C795 1.355 . S
C794 C796 1.412 . S
C795 H787 0.930 . S
C795 C794 1.355 . S
C795 C798 1.402 . S
C796 C794 1.412 . S
C796 C797 1.417 . S
C796 C820 1.431 . S
C797 N793 1.350 . S
C797 C796 1.417 . S
C797 C800 1.426 . S
C798 H781 0.930 . S
C798 N793 1.307 . S
C798 C795 1.402 . S
N799 Gd762 2.601 . S
N799 C800 1.359 . S
N799 C803 1.334 . S
C800 C797 1.426 . S
C800 N799 1.359 . S
C800 C804 1.413 . S
C801 H792 0.930 . S
C801 C802 1.359 . S
C801 C803 1.394 . S
C802 C801 1.359 . S
C802 C804 1.391 . S
C802 H805 0.929 . S
C803 H785 0.930 . S
C803 N799 1.334 . S
C803 C801 1.394 . S
C804 C800 1.413 . S
C804 C802 1.391 . S
C804 C819 1.437 . S
H805 C802 0.929 . S
O806 Gd762 2.545 . S
O806 C821 1.258 . S
O807 Gd762 2.606 . S
O807 Gd763 2.362 . S
O807 C818 1.284 . S
O808 Gd763 2.324 . S
O808 C828 1.254 . S
O809 Gd762 2.429 . S
O809 C828 1.268 . S
O810 Gd762 2.545 . S
O810 C818 1.250 . S
O811 Gd762 2.412 . S
O811 C821 1.252 . S
O812 Gd763 2.545 . S
O812 C830 1.258 . S
O813 Gd762 2.362 . S
O813 Gd763 2.606 . S
O813 C829 1.284 . S
O814 Gd762 2.324 . S
O814 C837 1.254 . S
O815 Gd763 2.429 . S
O815 C837 1.268 . S
O816 Gd763 2.545 . S
O816 C829 1.250 . S
O817 Gd763 2.412 . S
O817 C830 1.252 . S
C818 O807 1.284 . S
C818 O810 1.250 . S
C819 H788 0.929 . S
C819 C804 1.437 . S
C819 C820 1.317 . S
C820 H791 0.930 . S
C820 C796 1.431 . S
C820 C819 1.317 . S
C821 Gd762 2.828 . S
C821 O806 1.258 . S
C821 O811 1.252 . S
C821 C822 1.497 . S
C822 C821 1.497 . S
C822 C823 1.395 . S
C822 C824 1.380 . S
C823 C822 1.395 . S
C823 C826 1.398 . S
C823 H838 0.930 . S
C824 C822 1.380 . S
C824 C825 1.391 . S
C824 H839 0.930 . S
C825 C824 1.391 . S
C825 C827 1.387 . S
C826 C823 1.398 . S
C826 C827 1.380 . S
C826 H840 0.930 . S
C827 C825 1.387 . S
C827 C826 1.380 . S
C827 H841 0.930 . S
C828 O808 1.254 . S
C828 O809 1.268 . S
C829 O813 1.284 . S
C829 O816 1.250 . S
C830 Gd763 2.828 . S
C830 O812 1.258 . S
C830 O817 1.252 . S
C830 C831 1.497 . S
C831 C830 1.497 . S
C831 C832 1.395 . S
C831 C833 1.380 . S
C832 C831 1.395 . S
C832 C835 1.398 . S
C832 H842 0.930 . S
C833 C831 1.380 . S
C833 C834 1.391 . S
C833 H843 0.930 . S
C834 C833 1.391 . S
C834 C836 1.387 . S
C835 C832 1.398 . S
C835 C836 1.380 . S
C835 H844 0.930 . S
C836 C834 1.387 . S
C836 C835 1.380 . S
C836 H845 0.930 . S
C837 O814 1.254 . S
C837 O815 1.268 . S
H838 C823 0.930 . S
H839 C824 0.930 . S
H840 C826 0.930 . S
H841 C827 0.930 . S
H842 C832 0.930 . S
H843 C833 0.930 . S
H844 C835 0.930 . S
H845 C836 0.930 . S
Gd846 N877 2.661 . S
Gd846 N883 2.601 . S
Gd846 O890 2.545 . S
Gd846 O891 2.606 . S
Gd846 O893 2.429 . S
Gd846 O894 2.545 . S
Gd846 O895 2.412 . S
Gd846 O897 2.362 . S
Gd846 O898 2.324 . S
Gd846 C905 2.828 . S
Gd847 N856 2.661 . S
Gd847 N860 2.601 . S
Gd847 O891 2.362 . S
Gd847 O892 2.324 . S
Gd847 O896 2.545 . S
Gd847 O897 2.606 . S
Gd847 O899 2.429 . S
Gd847 O900 2.545 . S
Gd847 O901 2.412 . S
Gd847 C914 2.828 . S
C848 C851 1.417 . S
C848 C853 1.431 . S
C848 C854 1.412 . S
C849 C852 1.437 . S
C849 C853 1.317 . S
C849 H868 0.929 . S
C850 C851 1.426 . S
C850 C852 1.413 . S
C850 N860 1.359 . S
C851 C848 1.417 . S
C851 C850 1.426 . S
C851 N856 1.350 . S
C852 C849 1.437 . S
C852 C850 1.413 . S
C852 C862 1.391 . S
C853 C848 1.431 . S
C853 C849 1.317 . S
C853 H864 0.930 . S
C854 C848 1.412 . S
C854 C855 1.355 . S
C854 H866 0.930 . S
C855 C854 1.355 . S
C855 C857 1.402 . S
C855 H867 0.930 . S
N856 Gd847 2.661 . S
N856 C851 1.350 . S
N856 C857 1.307 . S
C857 C855 1.402 . S
C857 N856 1.307 . S
C857 H858 0.930 . S
H858 C857 0.930 . S
C859 N860 1.334 . S
C859 C861 1.394 . S
C859 H863 0.930 . S
N860 Gd847 2.601 . S
N860 C850 1.359 . S
N860 C859 1.334 . S
C861 C859 1.394 . S
C861 C862 1.359 . S
C861 H873 0.930 . S
C862 C852 1.391 . S
C862 C861 1.359 . S
C862 H874 0.929 . S
H863 C859 0.930 . S
H864 C853 0.930 . S
H865 C882 0.930 . S
H866 C854 0.930 . S
H867 C855 0.930 . S
H868 C849 0.929 . S
H869 C887 0.930 . S
H870 C878 0.930 . S
H871 C879 0.930 . S
H872 C903 0.929 . S
H873 C861 0.930 . S
H874 C862 0.929 . S
H875 C904 0.930 . S
H876 C885 0.930 . S
N877 Gd846 2.661 . S
N877 C881 1.350 . S
N877 C882 1.307 . S
C878 H870 0.930 . S
C878 C879 1.355 . S
C878 C880 1.412 . S
C879 H871 0.930 . S
C879 C878 1.355 . S
C879 C882 1.402 . S
C880 C878 1.412 . S
C880 C881 1.417 . S
C880 C904 1.431 . S
C881 N877 1.350 . S
C881 C880 1.417 . S
C881 C884 1.426 . S
C882 H865 0.930 . S
C882 N877 1.307 . S
C882 C879 1.402 . S
N883 Gd846 2.601 . S
N883 C884 1.359 . S
N883 C887 1.334 . S
C884 C881 1.426 . S
C884 N883 1.359 . S
C884 C888 1.413 . S
C885 H876 0.930 . S
C885 C886 1.359 . S
C885 C887 1.394 . S
C886 C885 1.359 . S
C886 C888 1.391 . S
C886 H889 0.929 . S
C887 H869 0.930 . S
C887 N883 1.334 . S
C887 C885 1.394 . S
C888 C884 1.413 . S
C888 C886 1.391 . S
C888 C903 1.437 . S
H889 C886 0.929 . S
O890 Gd846 2.545 . S
O890 C905 1.258 . S
O891 Gd846 2.606 . S
O891 Gd847 2.362 . S
O891 C902 1.284 . S
O892 Gd847 2.324 . S
O892 C912 1.254 . S
O893 Gd846 2.429 . S
O893 C912 1.268 . S
O894 Gd846 2.545 . S
O894 C902 1.250 . S
O895 Gd846 2.412 . S
O895 C905 1.252 . S
O896 Gd847 2.545 . S
O896 C914 1.258 . S
O897 Gd846 2.362 . S
O897 Gd847 2.606 . S
O897 C913 1.284 . S
O898 Gd846 2.324 . S
O898 C921 1.254 . S
O899 Gd847 2.429 . S
O899 C921 1.268 . S
O900 Gd847 2.545 . S
O900 C913 1.250 . S
O901 Gd847 2.412 . S
O901 C914 1.252 . S
C902 O891 1.284 . S
C902 O894 1.250 . S
C903 H872 0.929 . S
C903 C888 1.437 . S
C903 C904 1.317 . S
C904 H875 0.930 . S
C904 C880 1.431 . S
C904 C903 1.317 . S
C905 Gd846 2.828 . S
C905 O890 1.258 . S
C905 O895 1.252 . S
C905 C906 1.497 . S
C906 C905 1.497 . S
C906 C907 1.395 . S
C906 C908 1.380 . S
C907 C906 1.395 . S
C907 C910 1.398 . S
C907 H922 0.930 . S
C908 C906 1.380 . S
C908 C909 1.391 . S
C908 H923 0.930 . S
C909 C908 1.391 . S
C909 C911 1.387 . S
C910 C907 1.398 . S
C910 C911 1.380 . S
C910 H924 0.930 . S
C911 C909 1.387 . S
C911 C910 1.380 . S
C911 H925 0.930 . S
C912 O892 1.254 . S
C912 O893 1.268 . S
C913 O897 1.284 . S
C913 O900 1.250 . S
C914 Gd847 2.828 . S
C914 O896 1.258 . S
C914 O901 1.252 . S
C914 C915 1.497 . S
C915 C914 1.497 . S
C915 C916 1.395 . S
C915 C917 1.380 . S
C916 C915 1.395 . S
C916 C919 1.398 . S
C916 H926 0.930 . S
C917 C915 1.380 . S
C917 C918 1.391 . S
C917 H927 0.930 . S
C918 C917 1.391 . S
C918 C920 1.387 . S
C919 C916 1.398 . S
C919 C920 1.380 . S
C919 H928 0.930 . S
C920 C918 1.387 . S
C920 C919 1.380 . S
C920 H929 0.930 . S
C921 O898 1.254 . S
C921 O899 1.268 . S
H922 C907 0.930 . S
H923 C908 0.930 . S
H924 C910 0.930 . S
H925 C911 0.930 . S
H926 C916 0.930 . S
H927 C917 0.930 . S
H928 C919 0.930 . S
H929 C920 0.930 . S
Gd930 N961 2.661 . S
Gd930 N967 2.601 . S
Gd930 O974 2.545 . S
Gd930 O975 2.606 . S
Gd930 O977 2.429 . S
Gd930 O978 2.545 . S
Gd930 O979 2.412 . S
Gd930 O981 2.362 . S
Gd930 O982 2.324 . S
Gd930 C989 2.828 . S
Gd931 N940 2.661 . S
Gd931 N944 2.601 . S
Gd931 O975 2.362 . S
Gd931 O976 2.324 . S
Gd931 O980 2.545 . S
Gd931 O981 2.606 . S
Gd931 O983 2.429 . S
Gd931 O984 2.545 . S
Gd931 O985 2.412 . S
Gd931 C998 2.828 . S
C932 C935 1.417 . S
C932 C937 1.431 . S
C932 C938 1.412 . S
C933 C936 1.437 . S
C933 C937 1.317 . S
C933 H952 0.929 . S
C934 C935 1.426 . S
C934 C936 1.413 . S
C934 N944 1.359 . S
C935 C932 1.417 . S
C935 C934 1.426 . S
C935 N940 1.350 . S
C936 C933 1.437 . S
C936 C934 1.413 . S
C936 C946 1.391 . S
C937 C932 1.431 . S
C937 C933 1.317 . S
C937 H948 0.930 . S
C938 C932 1.412 . S
C938 C939 1.355 . S
C938 H950 0.930 . S
C939 C938 1.355 . S
C939 C941 1.402 . S
C939 H951 0.930 . S
N940 Gd931 2.661 . S
N940 C935 1.350 . S
N940 C941 1.307 . S
C941 C939 1.402 . S
C941 N940 1.307 . S
C941 H942 0.930 . S
H942 C941 0.930 . S
C943 N944 1.334 . S
C943 C945 1.394 . S
C943 H947 0.930 . S
N944 Gd931 2.601 . S
N944 C934 1.359 . S
N944 C943 1.334 . S
C945 C943 1.394 . S
C945 C946 1.359 . S
C945 H957 0.930 . S
C946 C936 1.391 . S
C946 C945 1.359 . S
C946 H958 0.929 . S
H947 C943 0.930 . S
H948 C937 0.930 . S
H949 C966 0.930 . S
H950 C938 0.930 . S
H951 C939 0.930 . S
H952 C933 0.929 . S
H953 C971 0.930 . S
H954 C962 0.930 . S
H955 C963 0.930 . S
H956 C987 0.929 . S
H957 C945 0.930 . S
H958 C946 0.929 . S
H959 C988 0.930 . S
H960 C969 0.930 . S
N961 Gd930 2.661 . S
N961 C965 1.350 . S
N961 C966 1.307 . S
C962 H954 0.930 . S
C962 C963 1.355 . S
C962 C964 1.412 . S
C963 H955 0.930 . S
C963 C962 1.355 . S
C963 C966 1.402 . S
C964 C962 1.412 . S
C964 C965 1.417 . S
C964 C988 1.431 . S
C965 N961 1.350 . S
C965 C964 1.417 . S
C965 C968 1.426 . S
C966 H949 0.930 . S
C966 N961 1.307 . S
C966 C963 1.402 . S
N967 Gd930 2.601 . S
N967 C968 1.359 . S
N967 C971 1.334 . S
C968 C965 1.426 . S
C968 N967 1.359 . S
C968 C972 1.413 . S
C969 H960 0.930 . S
C969 C970 1.359 . S
C969 C971 1.394 . S
C970 C969 1.359 . S
C970 C972 1.391 . S
C970 H973 0.929 . S
C971 H953 0.930 . S
C971 N967 1.334 . S
C971 C969 1.394 . S
C972 C968 1.413 . S
C972 C970 1.391 . S
C972 C987 1.437 . S
H973 C970 0.929 . S
O974 Gd930 2.545 . S
O974 C989 1.258 . S
O975 Gd930 2.606 . S
O975 Gd931 2.362 . S
O975 C986 1.284 . S
O976 Gd931 2.324 . S
O976 C996 1.254 . S
O977 Gd930 2.429 . S
O977 C996 1.268 . S
O978 Gd930 2.545 . S
O978 C986 1.250 . S
O979 Gd930 2.412 . S
O979 C989 1.252 . S
O980 Gd931 2.545 . S
O980 C998 1.258 . S
O981 Gd930 2.362 . S
O981 Gd931 2.606 . S
O981 C997 1.284 . S
O982 Gd930 2.324 . S
O982 C1005 1.254 . S
O983 Gd931 2.429 . S
O983 C1005 1.268 . S
O984 Gd931 2.545 . S
O984 C997 1.250 . S
O985 Gd931 2.412 . S
O985 C998 1.252 . S
C986 O975 1.284 . S
C986 O978 1.250 . S
C987 H956 0.929 . S
C987 C972 1.437 . S
C987 C988 1.317 . S
C988 H959 0.930 . S
C988 C964 1.431 . S
C988 C987 1.317 . S
C989 Gd930 2.828 . S
C989 O974 1.258 . S
C989 O979 1.252 . S
C989 C990 1.497 . S
C990 C989 1.497 . S
C990 C991 1.395 . S
C990 C992 1.380 . S
C991 C990 1.395 . S
C991 C994 1.398 . S
C991 H1006 0.930 . S
C992 C990 1.380 . S
C992 C993 1.391 . S
C992 H1007 0.930 . S
C993 C992 1.391 . S
C993 C995 1.387 . S
C994 C991 1.398 . S
C994 C995 1.380 . S
C994 H1008 0.930 . S
C995 C993 1.387 . S
C995 C994 1.380 . S
C995 H1009 0.930 . S
C996 O976 1.254 . S
C996 O977 1.268 . S
C997 O981 1.284 . S
C997 O984 1.250 . S
C998 Gd931 2.828 . S
C998 O980 1.258 . S
C998 O985 1.252 . S
C998 C999 1.497 . S
C999 C998 1.497 . S
C999 C1000 1.395 . S
C999 C1001 1.380 . S
C1000 C999 1.395 . S
C1000 C1003 1.398 . S
C1000 H1010 0.930 . S
C1001 C999 1.380 . S
C1001 C1002 1.391 . S
C1001 H1011 0.930 . S
C1002 C1001 1.391 . S
C1002 C1004 1.387 . S
C1003 C1000 1.398 . S
C1003 C1004 1.380 . S
C1003 H1012 0.930 . S
C1004 C1002 1.387 . S
C1004 C1003 1.380 . S
C1004 H1013 0.930 . S
C1005 O982 1.254 . S
C1005 O983 1.268 . S
H1006 C991 0.930 . S
H1007 C992 0.930 . S
H1008 C994 0.930 . S
H1009 C995 0.930 . S
H1010 C1000 0.930 . S
H1011 C1001 0.930 . S
H1012 C1003 0.930 . S
H1013 C1004 0.930 . S
Gd1014 N1045 2.661 . S
Gd1014 N1051 2.601 . S
Gd1014 O1058 2.545 . S
Gd1014 O1059 2.606 . S
Gd1014 O1061 2.429 . S
Gd1014 O1062 2.545 . S
Gd1014 O1063 2.412 . S
Gd1014 O1065 2.362 . S
Gd1014 O1066 2.324 . S
Gd1014 C1073 2.828 . S
Gd1015 N1024 2.661 . S
Gd1015 N1028 2.601 . S
Gd1015 O1059 2.362 . S
Gd1015 O1060 2.324 . S
Gd1015 O1064 2.545 . S
Gd1015 O1065 2.606 . S
Gd1015 O1067 2.429 . S
Gd1015 O1068 2.545 . S
Gd1015 O1069 2.412 . S
Gd1015 C1082 2.828 . S
C1016 C1019 1.417 . S
C1016 C1021 1.431 . S
C1016 C1022 1.412 . S
C1017 C1020 1.437 . S
C1017 C1021 1.317 . S
C1017 H1036 0.929 . S
C1018 C1019 1.426 . S
C1018 C1020 1.413 . S
C1018 N1028 1.359 . S
C1019 C1016 1.417 . S
C1019 C1018 1.426 . S
C1019 N1024 1.350 . S
C1020 C1017 1.437 . S
C1020 C1018 1.413 . S
C1020 C1030 1.391 . S
C1021 C1016 1.431 . S
C1021 C1017 1.317 . S
C1021 H1032 0.930 1_655 S
C1022 C1016 1.412 . S
C1022 C1023 1.355 . S
C1022 H1034 0.930 1_655 S
C1023 C1022 1.355 . S
C1023 C1025 1.402 . S
C1023 H1035 0.930 . S
N1024 Gd1015 2.661 . S
N1024 C1019 1.350 . S
N1024 C1025 1.307 . S
C1025 C1023 1.402 . S
C1025 N1024 1.307 . S
C1025 H1026 0.930 . S
H1026 C1025 0.930 . S
C1027 N1028 1.334 . S
C1027 C1029 1.394 . S
C1027 H1031 0.930 . S
N1028 Gd1015 2.601 . S
N1028 C1018 1.359 . S
N1028 C1027 1.334 . S
C1029 C1027 1.394 . S
C1029 C1030 1.359 . S
C1029 H1041 0.930 . S
C1030 C1020 1.391 . S
C1030 C1029 1.359 . S
C1030 H1042 0.929 . S
H1031 C1027 0.930 . S
H1032 C1021 0.930 1_455 S
H1033 C1050 0.930 . S
H1034 C1022 0.930 1_455 S
H1035 C1023 0.930 . S
H1036 C1017 0.929 . S
H1037 C1055 0.930 . S
H1038 C1046 0.930 . S
H1039 C1047 0.930 . S
H1040 C1071 0.929 . S
H1041 C1029 0.930 . S
H1042 C1030 0.929 . S
H1043 C1072 0.930 . S
H1044 C1053 0.930 . S
N1045 Gd1014 2.661 . S
N1045 C1049 1.350 . S
N1045 C1050 1.307 . S
C1046 H1038 0.930 . S
C1046 C1047 1.355 . S
C1046 C1048 1.412 . S
C1047 H1039 0.930 . S
C1047 C1046 1.355 . S
C1047 C1050 1.402 . S
C1048 C1046 1.412 . S
C1048 C1049 1.417 . S
C1048 C1072 1.431 . S
C1049 N1045 1.350 . S
C1049 C1048 1.417 . S
C1049 C1052 1.426 . S
C1050 H1033 0.930 . S
C1050 N1045 1.307 . S
C1050 C1047 1.402 . S
N1051 Gd1014 2.601 . S
N1051 C1052 1.359 . S
N1051 C1055 1.334 . S
C1052 C1049 1.426 . S
C1052 N1051 1.359 . S
C1052 C1056 1.413 . S
C1053 H1044 0.930 . S
C1053 C1054 1.359 . S
C1053 C1055 1.394 . S
C1054 C1053 1.359 . S
C1054 C1056 1.391 . S
C1054 H1057 0.929 . S
C1055 H1037 0.930 . S
C1055 N1051 1.334 . S
C1055 C1053 1.394 . S
C1056 C1052 1.413 . S
C1056 C1054 1.391 . S
C1056 C1071 1.437 . S
H1057 C1054 0.929 . S
O1058 Gd1014 2.545 . S
O1058 C1073 1.258 . S
O1059 Gd1014 2.606 . S
O1059 Gd1015 2.362 . S
O1059 C1070 1.284 . S
O1060 Gd1015 2.324 . S
O1060 C1080 1.254 . S
O1061 Gd1014 2.429 . S
O1061 C1080 1.268 . S
O1062 Gd1014 2.545 . S
O1062 C1070 1.250 . S
O1063 Gd1014 2.412 . S
O1063 C1073 1.252 . S
O1064 Gd1015 2.545 . S
O1064 C1082 1.258 . S
O1065 Gd1014 2.362 . S
O1065 Gd1015 2.606 . S
O1065 C1081 1.284 . S
O1066 Gd1014 2.324 . S
O1066 C1089 1.254 . S
O1067 Gd1015 2.429 . S
O1067 C1089 1.268 . S
O1068 Gd1015 2.545 . S
O1068 C1081 1.250 . S
O1069 Gd1015 2.412 . S
O1069 C1082 1.252 . S
C1070 O1059 1.284 . S
C1070 O1062 1.250 . S
C1071 H1040 0.929 . S
C1071 C1056 1.437 . S
C1071 C1072 1.317 . S
C1072 H1043 0.930 . S
C1072 C1048 1.431 . S
C1072 C1071 1.317 . S
C1073 Gd1014 2.828 . S
C1073 O1058 1.258 . S
C1073 O1063 1.252 . S
C1073 C1074 1.497 . S
C1074 C1073 1.497 . S
C1074 C1075 1.395 . S
C1074 C1076 1.380 . S
C1075 C1074 1.395 . S
C1075 C1078 1.398 . S
C1075 H1090 0.930 . S
C1076 C1074 1.380 . S
C1076 C1077 1.391 . S
C1076 H1091 0.930 . S
C1077 C1076 1.391 . S
C1077 C1079 1.387 . S
C1078 C1075 1.398 . S
C1078 C1079 1.380 . S
C1078 H1092 0.930 . S
C1079 C1077 1.387 . S
C1079 C1078 1.380 . S
C1079 H1093 0.930 . S
C1080 O1060 1.254 . S
C1080 O1061 1.268 . S
C1081 O1065 1.284 . S
C1081 O1068 1.250 . S
C1082 Gd1015 2.828 . S
C1082 O1064 1.258 . S
C1082 O1069 1.252 . S
C1082 C1083 1.497 . S
C1083 C1082 1.497 . S
C1083 C1084 1.395 . S
C1083 C1085 1.380 . S
C1084 C1083 1.395 . S
C1084 C1087 1.398 . S
C1084 H1094 0.930 . S
C1085 C1083 1.380 . S
C1085 C1086 1.391 . S
C1085 H1095 0.930 . S
C1086 C1085 1.391 . S
C1086 C1088 1.387 . S
C1087 C1084 1.398 . S
C1087 C1088 1.380 . S
C1087 H1096 0.930 . S
C1088 C1086 1.387 . S
C1088 C1087 1.380 . S
C1088 H1097 0.930 . S
C1089 O1066 1.254 . S
C1089 O1067 1.268 . S
H1090 C1075 0.930 . S
H1091 C1076 0.930 . S
H1092 C1078 0.930 . S
H1093 C1079 0.930 . S
H1094 C1084 0.930 . S
H1095 C1085 0.930 . S
H1096 C1087 0.930 . S
H1097 C1088 0.930 . S
H1098 C1110 0.930 . S
H1099 C1112 0.930 . S
H1100 C1113 0.930 . S
H1101 C1117 0.959 . S
H1102 C1117 0.959 1_556 S
H1103 C1117 0.961 . S
H1104 C1118 0.960 . S
H1105 C1118 0.961 . S
H1106 C1118 0.956 1_554 S
H1107 C1121 0.929 . S
H1108 C1122 0.931 . S
H1109 C1124 0.960 . S
C1110 H1098 0.930 . S
C1110 C1111 1.399 . S
C1110 C1115 1.399 . S
C1111 C1110 1.399 . S
C1111 C1112 1.376 . S
C1112 H1099 0.930 . S
C1112 C1111 1.376 . S
C1112 C1113 1.388 . S
C1113 H1100 0.930 . S
C1113 C1112 1.388 . S
C1113 C1114 1.390 . S
C1114 C1113 1.390 . S
C1114 C1115 1.394 . S
C1114 C1120 1.465 . S
C1115 C1110 1.399 . S
C1115 C1114 1.394 . S
C1115 C1116 1.516 . S
C1116 C1115 1.516 . S
C1116 C1117 1.502 . S
C1116 C1118 1.561 1_554 S
C1116 C1119 1.526 . S
C1117 H1101 0.959 . S
C1117 H1102 0.959 1_554 S
C1117 H1103 0.961 . S
C1117 C1116 1.502 . S
C1118 H1104 0.960 . S
C1118 H1105 0.961 . S
C1118 H1106 0.956 1_556 S
C1118 C1116 1.561 1_556 S
C1119 C1116 1.526 . S
C1119 C1120 1.396 . S
C1119 C1124 1.390 . S
C1120 C1114 1.465 . S
C1120 C1119 1.396 . S
C1120 C1121 1.399 . S
C1121 H1107 0.929 . S
C1121 C1120 1.399 . S
C1121 C1122 1.385 . S
C1122 H1108 0.931 . S
C1122 C1121 1.385 . S
C1122 C1123 1.389 . S
C1123 C1122 1.389 . S
C1123 C1124 1.387 . S
C1124 H1109 0.960 . S
C1124 C1119 1.390 . S
C1124 C1123 1.387 . S
H1125 C1137 0.930 . S
H1126 C1139 0.930 . S
H1127 C1140 0.930 . S
H1128 C1144 0.959 . S
H1129 C1144 0.959 . S
H1130 C1144 0.961 . S
H1131 C1145 0.960 . S
H1132 C1145 0.961 . S
H1133 C1145 0.959 . S
H1134 C1148 0.929 1_556 S
H1135 C1149 0.931 1_556 S
H1136 C1151 0.930 . S
C1137 H1125 0.930 . S
C1137 C1138 1.399 . S
C1137 C1142 1.399 . S
C1138 C1137 1.399 . S
C1138 C1139 1.376 . S
C1139 H1126 0.930 . S
C1139 C1138 1.376 . S
C1139 C1140 1.388 . S
C1140 H1127 0.930 . S
C1140 C1139 1.388 . S
C1140 C1141 1.390 . S
C1141 C1140 1.390 . S
C1141 C1142 1.394 . S
C1141 C1147 1.465 . S
C1142 C1137 1.399 . S
C1142 C1141 1.394 . S
C1142 C1143 1.516 . S
C1143 C1142 1.516 . S
C1143 C1144 1.502 . S
C1143 C1145 1.561 . S
C1143 C1146 1.526 . S
C1144 H1128 0.959 . S
C1144 H1129 0.959 . S
C1144 H1130 0.961 . S
C1144 C1143 1.502 . S
C1145 H1131 0.960 . S
C1145 H1132 0.961 . S
C1145 H1133 0.959 . S
C1145 C1143 1.561 . S
C1146 C1143 1.526 . S
C1146 C1147 1.396 . S
C1146 C1151 1.390 . S
C1147 C1141 1.465 . S
C1147 C1146 1.396 . S
C1147 C1148 1.399 . S
C1148 H1134 0.929 1_554 S
C1148 C1147 1.399 . S
C1148 C1149 1.385 . S
C1149 H1135 0.931 1_554 S
C1149 C1148 1.385 . S
C1149 C1150 1.389 . S
C1150 C1149 1.389 . S
C1150 C1151 1.387 . S
C1151 H1136 0.930 . S
C1151 C1146 1.390 . S
C1151 C1150 1.387 . S
H1152 C1164 0.930 . S
H1153 C1166 0.930 . S
H1154 C1167 0.930 . S
H1155 C1171 0.959 . S
H1156 C1171 0.959 1_556 S
H1157 C1171 0.961 1_556 S
H1158 C1172 0.960 . S
H1159 C1172 0.961 . S
H1160 C1172 0.967 . S
H1161 C1175 0.929 . S
H1162 C1176 0.931 . S
H1163 C1178 0.944 . S
C1164 H1152 0.930 . S
C1164 C1165 1.399 . S
C1164 C1169 1.399 . S
C1165 C1164 1.399 . S
C1165 C1166 1.376 . S
C1166 H1153 0.930 . S
C1166 C1165 1.376 . S
C1166 C1167 1.388 . S
C1167 H1154 0.930 . S
C1167 C1166 1.388 . S
C1167 C1168 1.390 . S
C1168 C1167 1.390 . S
C1168 C1169 1.394 . S
C1168 C1174 1.465 . S
C1169 C1164 1.399 . S
C1169 C1168 1.394 . S
C1169 C1170 1.516 . S
C1170 C1169 1.516 . S
C1170 C1171 1.502 . S
C1170 C1172 1.561 1_554 S
C1170 C1173 1.526 . S
C1171 H1155 0.959 . S
C1171 H1156 0.959 1_554 S
C1171 H1157 0.961 1_554 S
C1171 C1170 1.502 . S
C1172 H1158 0.960 . S
C1172 H1159 0.961 . S
C1172 H1160 0.967 . S
C1172 C1170 1.561 1_556 S
C1173 C1170 1.526 . S
C1173 C1174 1.396 . S
C1173 C1178 1.390 . S
C1174 C1168 1.465 . S
C1174 C1173 1.396 . S
C1174 C1175 1.399 . S
C1175 H1161 0.929 . S
C1175 C1174 1.399 . S
C1175 C1176 1.385 . S
C1176 H1162 0.931 . S
C1176 C1175 1.385 . S
C1176 C1177 1.389 . S
C1177 C1176 1.389 . S
C1177 C1178 1.387 . S
C1178 H1163 0.944 . S
C1178 C1173 1.390 . S
C1178 C1177 1.387 . S
H1179 C1191 0.930 . S
H1180 C1193 0.936 . S
H1181 C1194 0.930 . S
H1182 C1198 0.959 . S
H1183 C1198 0.959 . S
H1184 C1198 0.961 . S
H1185 C1199 0.960 . S
H1186 C1199 0.961 . S
H1187 C1199 0.959 . S
H1188 C1202 0.929 . S
H1189 C1203 0.931 . S
H1190 C1205 0.930 . S
C1191 H1179 0.930 . S
C1191 C1192 1.399 . S
C1191 C1196 1.399 . S
C1192 C1191 1.399 . S
C1192 C1193 1.376 . S
C1193 H1180 0.936 . S
C1193 C1192 1.376 . S
C1193 C1194 1.388 1_556 S
C1194 H1181 0.930 . S
C1194 C1193 1.388 1_554 S
C1194 C1195 1.390 1_554 S
C1195 C1194 1.390 1_556 S
C1195 C1196 1.394 . S
C1195 C1201 1.465 . S
C1196 C1191 1.399 . S
C1196 C1195 1.394 . S
C1196 C1197 1.516 . S
C1197 C1196 1.516 . S
C1197 C1198 1.502 . S
C1197 C1199 1.561 . S
C1197 C1200 1.526 . S
C1198 H1182 0.959 . S
C1198 H1183 0.959 . S
C1198 H1184 0.961 . S
C1198 C1197 1.502 . S
C1199 H1185 0.960 . S
C1199 H1186 0.961 . S
C1199 H1187 0.959 . S
C1199 C1197 1.561 . S
C1200 C1197 1.526 . S
C1200 C1201 1.396 . S
C1200 C1205 1.390 . S
C1201 C1195 1.465 . S
C1201 C1200 1.396 . S
C1201 C1202 1.399 1_556 S
C1202 H1188 0.929 . S
C1202 C1201 1.399 1_554 S
C1202 C1203 1.385 . S
C1203 H1189 0.931 . S
C1203 C1202 1.385 . S
C1203 C1204 1.389 1_554 S
C1204 C1203 1.389 1_556 S
C1204 C1205 1.387 . S
C1205 H1190 0.930 . S
C1205 C1200 1.390 . S
C1205 C1204 1.387 . S
H1206 C1218 0.930 . S
H1207 C1220 0.930 . S
H1208 C1221 0.930 1_554 S
H1209 C1225 0.959 . S
H1210 C1225 0.959 . S
H1211 C1225 0.961 . S
H1212 C1226 0.960 . S
H1213 C1226 0.961 . S
H1214 C1226 0.959 . S
H1215 C1229 0.929 . S
H1216 C1230 0.931 . S
H1217 C1232 0.930 . S
C1218 H1206 0.930 . S
C1218 C1219 1.399 . S
C1218 C1223 1.399 . S
C1219 C1218 1.399 . S
C1219 C1220 1.376 . S
C1220 H1207 0.930 . S
C1220 C1219 1.376 . S
C1220 C1221 1.388 . S
C1221 H1208 0.930 1_556 S
C1221 C1220 1.388 . S
C1221 C1222 1.390 . S
C1222 C1221 1.390 . S
C1222 C1223 1.394 . S
C1222 C1228 1.465 . S
C1223 C1218 1.399 . S
C1223 C1222 1.394 . S
C1223 C1224 1.516 . S
C1224 C1223 1.516 . S
C1224 C1225 1.502 . S
C1224 C1226 1.561 . S
C1224 C1227 1.526 . S
C1225 H1209 0.959 . S
C1225 H1210 0.959 . S
C1225 H1211 0.961 . S
C1225 C1224 1.502 . S
C1226 H1212 0.960 . S
C1226 H1213 0.961 . S
C1226 H1214 0.959 . S
C1226 C1224 1.561 . S
C1227 C1224 1.526 . S
C1227 C1228 1.396 . S
C1227 C1232 1.390 . S
C1228 C1222 1.465 . S
C1228 C1227 1.396 . S
C1228 C1229 1.399 1_556 S
C1229 H1215 0.929 . S
C1229 C1228 1.399 1_554 S
C1229 C1230 1.385 . S
C1230 H1216 0.931 . S
C1230 C1229 1.385 . S
C1230 C1231 1.389 1_554 S
C1231 C1230 1.389 1_556 S
C1231 C1232 1.387 . S
C1232 H1217 0.930 . S
C1232 C1227 1.390 . S
C1232 C1231 1.387 . S
H1233 C1245 0.930 1_554 S
H1234 C1247 0.930 . S
H1235 C1248 0.930 . S
H1236 C1252 0.959 . S
H1237 C1252 0.959 . S
H1238 C1252 0.961 . S
H1239 C1253 0.960 . S
H1240 C1253 0.961 . S
H1241 C1253 0.959 . S
H1242 C1256 0.929 . S
H1243 C1257 0.931 . S
H1244 C1259 0.930 . S
C1245 H1233 0.930 1_556 S
C1245 C1246 1.399 . S
C1245 C1250 1.399 . S
C1246 C1245 1.399 . S
C1246 C1247 1.376 . S
C1247 H1234 0.930 . S
C1247 C1246 1.376 . S
C1247 C1248 1.388 . S
C1248 H1235 0.930 . S
C1248 C1247 1.388 . S
C1248 C1249 1.390 . S
C1249 C1248 1.390 . S
C1249 C1250 1.394 . S
C1249 C1255 1.465 . S
C1250 C1245 1.399 . S
C1250 C1249 1.394 . S
C1250 C1251 1.516 1_556 S
C1251 C1250 1.516 1_554 S
C1251 C1252 1.502 . S
C1251 C1253 1.561 . S
C1251 C1254 1.520 1_554 S
C1252 H1236 0.959 . S
C1252 H1237 0.959 . S
C1252 H1238 0.961 . S
C1252 C1251 1.502 . S
C1253 H1239 0.960 . S
C1253 H1240 0.961 . S
C1253 H1241 0.959 . S
C1253 C1251 1.561 . S
C1254 C1251 1.520 1_556 S
C1254 C1255 1.410 . S
C1254 C1259 1.384 1_556 S
C1255 C1249 1.465 . S
C1255 C1254 1.410 . S
C1255 C1256 1.399 . S
C1256 H1242 0.929 . S
C1256 C1255 1.399 . S
C1256 C1257 1.385 . S
C1257 H1243 0.931 . S
C1257 C1256 1.385 . S
C1257 C1258 1.389 . S
C1258 C1257 1.389 . S
C1258 C1259 1.387 1_556 S
C1259 H1244 0.930 . S
C1259 C1254 1.384 1_554 S
C1259 C1258 1.387 1_554 S
H1260 C1272 0.930 1_554 S
H1261 C1274 0.930 . S
H1262 C1275 0.930 . S
H1263 C1279 0.959 . S
H1264 C1279 0.959 . S
H1265 C1279 0.961 . S
H1266 C1280 0.960 . S
H1267 C1280 0.961 . S
H1268 C1280 0.959 . S
H1269 C1283 0.929 . S
H1270 C1284 0.931 . S
H1271 C1286 0.930 . S
C1272 H1260 0.930 1_556 S
C1272 C1273 1.399 . S
C1272 C1277 1.399 . S
C1273 C1272 1.399 . S
C1273 C1274 1.376 . S
C1274 H1261 0.930 . S
C1274 C1273 1.376 . S
C1274 C1275 1.388 . S
C1275 H1262 0.930 . S
C1275 C1274 1.388 . S
C1275 C1276 1.390 . S
C1276 C1275 1.390 . S
C1276 C1277 1.394 . S
C1276 C1282 1.465 . S
C1277 C1272 1.399 . S
C1277 C1276 1.394 . S
C1277 C1278 1.516 1_556 S
C1278 C1277 1.516 1_554 S
C1278 C1279 1.502 . S
C1278 C1280 1.561 . S
C1278 C1281 1.526 . S
C1279 H1263 0.959 . S
C1279 H1264 0.959 . S
C1279 H1265 0.961 . S
C1279 C1278 1.502 . S
C1280 H1266 0.960 . S
C1280 H1267 0.961 . S
C1280 H1268 0.959 . S
C1280 C1278 1.561 . S
C1281 C1278 1.526 . S
C1281 C1282 1.396 1_554 S
C1281 C1286 1.390 . S
C1282 C1276 1.465 . S
C1282 C1281 1.396 1_556 S
C1282 C1283 1.399 . S
C1283 H1269 0.929 . S
C1283 C1282 1.399 . S
C1283 C1284 1.385 . S
C1284 H1270 0.931 . S
C1284 C1283 1.385 . S
C1284 C1285 1.389 . S
C1285 C1284 1.389 . S
C1285 C1286 1.387 1_556 S
C1286 H1271 0.930 . S
C1286 C1281 1.390 . S
C1286 C1285 1.387 1_554 S
H1287 C1299 0.930 . S
H1288 C1301 0.930 . S
H1289 C1302 0.930 . S
H1290 C1306 0.959 . S
H1291 C1306 0.959 . S
H1292 C1306 0.961 . S
H1293 C1307 0.960 . S
H1294 C1307 0.961 . S
H1295 C1307 0.959 . S
H1296 C1310 0.929 . S
H1297 C1311 0.931 . S
H1298 C1313 0.930 1_554 S
C1299 H1287 0.930 . S
C1299 C1300 1.399 . S
C1299 C1304 1.399 . S
C1300 C1299 1.399 . S
C1300 C1301 1.376 . S
C1301 H1288 0.930 . S
C1301 C1300 1.376 . S
C1301 C1302 1.388 . S
C1302 H1289 0.930 . S
C1302 C1301 1.388 . S
C1302 C1303 1.390 . S
C1303 C1302 1.390 . S
C1303 C1304 1.394 . S
C1303 C1309 1.465 . S
C1304 C1299 1.399 . S
C1304 C1303 1.394 . S
C1304 C1305 1.516 . S
C1305 C1304 1.516 . S
C1305 C1306 1.502 . S
C1305 C1307 1.561 1_556 S
C1305 C1308 1.526 . S
C1306 H1290 0.959 . S
C1306 H1291 0.959 . S
C1306 H1292 0.961 . S
C1306 C1305 1.502 . S
C1307 H1293 0.960 . S
C1307 H1294 0.961 . S
C1307 H1295 0.959 . S
C1307 C1305 1.561 1_554 S
C1308 C1305 1.526 . S
C1308 C1309 1.396 . S
C1308 C1313 1.390 . S
C1309 C1303 1.465 . S
C1309 C1308 1.396 . S
C1309 C1310 1.399 . S
C1310 H1296 0.929 . S
C1310 C1309 1.399 . S
C1310 C1311 1.385 . S
C1311 H1297 0.931 . S
C1311 C1310 1.385 . S
C1311 C1312 1.389 . S
C1312 C1311 1.389 . S
C1312 C1313 1.387 . S
C1313 H1298 0.930 1_556 S
C1313 C1308 1.390 . S
C1313 C1312 1.387 . S
H1314 C1326 0.930 . S
H1315 C1328 0.930 . S
H1316 C1329 0.930 . S
H1317 C1333 0.959 . S
H1318 C1333 0.959 . S
H1319 C1333 0.961 . S
H1320 C1334 0.960 . S
H1321 C1334 0.961 . S
H1322 C1334 0.959 . S
H1323 C1337 0.929 . S
H1324 C1338 0.931 . S
H1325 C1340 0.930 . S
C1326 H1314 0.930 . S
C1326 C1327 1.399 . S
C1326 C1331 1.399 . S
C1327 C1326 1.399 . S
C1327 C1328 1.376 1_556 S
C1328 H1315 0.930 . S
C1328 C1327 1.376 1_554 S
C1328 C1329 1.388 . S
C1329 H1316 0.930 . S
C1329 C1328 1.388 . S
C1329 C1330 1.382 1_554 S
C1330 C1329 1.382 1_556 S
C1330 C1331 1.405 . S
C1330 C1336 1.463 1_556 S
C1331 C1326 1.399 . S
C1331 C1330 1.405 . S
C1331 C1332 1.516 . S
C1332 C1331 1.516 . S
C1332 C1333 1.502 . S
C1332 C1334 1.561 . S
C1332 C1335 1.526 . S
C1333 H1317 0.959 . S
C1333 H1318 0.959 . S
C1333 H1319 0.961 . S
C1333 C1332 1.502 . S
C1334 H1320 0.960 . S
C1334 H1321 0.961 . S
C1334 H1322 0.959 . S
C1334 C1332 1.561 . S
C1335 C1332 1.526 . S
C1335 C1336 1.396 1_556 S
C1335 C1340 1.390 . S
C1336 C1330 1.463 1_554 S
C1336 C1335 1.396 1_554 S
C1336 C1337 1.399 . S
C1337 H1323 0.929 . S
C1337 C1336 1.399 . S
C1337 C1338 1.385 . S
C1338 H1324 0.931 . S
C1338 C1337 1.385 . S
C1338 C1339 1.389 . S
C1339 C1338 1.389 . S
C1339 C1340 1.387 1_554 S
C1340 H1325 0.930 . S
C1340 C1335 1.390 . S
C1340 C1339 1.387 1_556 S
H1341 C1353 0.930 . S
H1342 C1355 0.930 . S
H1343 C1356 0.930 1_556 S
H1344 C1360 0.959 . S
H1345 C1360 0.959 . S
H1346 C1360 0.961 . S
H1347 C1361 0.960 . S
H1348 C1361 0.961 . S
H1349 C1361 0.959 . S
H1350 C1364 0.929 1_556 S
H1351 C1365 0.931 1_556 S
H1352 C1367 0.930 . S
C1353 H1341 0.930 . S
C1353 C1354 1.399 . S
C1353 C1358 1.399 . S
C1354 C1353 1.399 . S
C1354 C1355 1.376 . S
C1355 H1342 0.930 . S
C1355 C1354 1.376 . S
C1355 C1356 1.388 . S
C1356 H1343 0.930 1_554 S
C1356 C1355 1.388 . S
C1356 C1357 1.390 . S
C1357 C1356 1.390 . S
C1357 C1358 1.394 . S
C1357 C1363 1.465 . S
C1358 C1353 1.399 . S
C1358 C1357 1.394 . S
C1358 C1359 1.516 . S
C1359 C1358 1.516 . S
C1359 C1360 1.502 . S
C1359 C1361 1.561 . S
C1359 C1362 1.526 . S
C1360 H1344 0.959 . S
C1360 H1345 0.959 . S
C1360 H1346 0.961 . S
C1360 C1359 1.502 . S
C1361 H1347 0.960 . S
C1361 H1348 0.961 . S
C1361 H1349 0.959 . S
C1361 C1359 1.561 . S
C1362 C1359 1.526 . S
C1362 C1363 1.396 . S
C1362 C1367 1.390 . S
C1363 C1357 1.465 . S
C1363 C1362 1.396 . S
C1363 C1364 1.399 . S
C1364 H1350 0.929 1_554 S
C1364 C1363 1.399 . S
C1364 C1365 1.385 . S
C1365 H1351 0.931 1_554 S
C1365 C1364 1.385 . S
C1365 C1366 1.389 . S
C1366 C1365 1.389 . S
C1366 C1367 1.387 . S
C1367 H1352 0.930 . S
C1367 C1362 1.390 . S
C1367 C1366 1.387 . S
H1368 C1380 0.930 . S
H1369 C1382 0.930 . S
H1370 C1383 0.930 . S
H1371 C1387 0.959 . S
H1372 C1387 0.959 . S
H1373 C1387 0.961 . S
H1374 C1388 0.960 . S
H1375 C1388 0.961 . S
H1376 C1388 0.959 . S
H1377 C1391 0.929 1_556 S
H1378 C1392 0.931 1_556 S
H1379 C1394 0.930 . S
C1380 H1368 0.930 . S
C1380 C1381 1.399 . S
C1380 C1385 1.399 . S
C1381 C1380 1.399 . S
C1381 C1382 1.376 . S
C1382 H1369 0.930 . S
C1382 C1381 1.376 . S
C1382 C1383 1.388 . S
C1383 H1370 0.930 . S
C1383 C1382 1.388 . S
C1383 C1384 1.390 . S
C1384 C1383 1.390 . S
C1384 C1385 1.394 . S
C1384 C1390 1.465 . S
C1385 C1380 1.399 . S
C1385 C1384 1.394 . S
C1385 C1386 1.516 . S
C1386 C1385 1.516 . S
C1386 C1387 1.502 . S
C1386 C1388 1.561 . S
C1386 C1389 1.526 . S
C1387 H1371 0.959 . S
C1387 H1372 0.959 . S
C1387 H1373 0.961 . S
C1387 C1386 1.502 . S
C1388 H1374 0.960 . S
C1388 H1375 0.961 . S
C1388 H1376 0.959 . S
C1388 C1386 1.561 . S
C1389 C1386 1.526 . S
C1389 C1390 1.396 . S
C1389 C1394 1.390 . S
C1390 C1384 1.465 . S
C1390 C1389 1.396 . S
C1390 C1391 1.399 . S
C1391 H1377 0.929 1_554 S
C1391 C1390 1.399 . S
C1391 C1392 1.385 . S
C1392 H1378 0.931 1_554 S
C1392 C1391 1.385 . S
C1392 C1393 1.389 . S
C1393 C1392 1.389 . S
C1393 C1394 1.387 . S
C1394 H1379 0.930 . S
C1394 C1389 1.390 . S
C1394 C1393 1.387 . S
H1395 C1407 0.930 . S
H1396 C1409 0.930 . S
H1397 C1410 0.930 . S
H1398 C1414 0.959 1_554 S
H1399 C1414 0.959 . S
H1400 C1414 0.961 . S
H1401 C1415 0.960 . S
H1402 C1415 0.961 . S
H1403 C1415 0.959 . S
H1404 C1418 0.929 . S
H1405 C1419 0.931 . S
H1406 C1421 0.930 1_556 S
C1407 H1395 0.930 . S
C1407 C1408 1.399 . S
C1407 C1412 1.399 . S
C1408 C1407 1.399 . S
C1408 C1409 1.376 . S
C1409 H1396 0.930 . S
C1409 C1408 1.376 . S
C1409 C1410 1.388 . S
C1410 H1397 0.930 . S
C1410 C1409 1.388 . S
C1410 C1411 1.390 . S
C1411 C1410 1.390 . S
C1411 C1412 1.394 . S
C1411 C1417 1.465 . S
C1412 C1407 1.399 . S
C1412 C1411 1.394 . S
C1412 C1413 1.516 . S
C1413 C1412 1.516 . S
C1413 C1414 1.502 1_554 S
C1413 C1415 1.561 1_554 S
C1413 C1416 1.526 . S
C1414 H1398 0.959 1_556 S
C1414 H1399 0.959 . S
C1414 H1400 0.961 . S
C1414 C1413 1.502 1_556 S
C1415 H1401 0.960 . S
C1415 H1402 0.961 . S
C1415 H1403 0.959 . S
C1415 C1413 1.561 1_556 S
C1416 C1413 1.526 . S
C1416 C1417 1.396 . S
C1416 C1421 1.390 . S
C1417 C1411 1.465 . S
C1417 C1416 1.396 . S
C1417 C1418 1.399 . S
C1418 H1404 0.929 . S
C1418 C1417 1.399 . S
C1418 C1419 1.385 . S
C1419 H1405 0.931 . S
C1419 C1418 1.385 . S
C1419 C1420 1.389 . S
C1420 C1419 1.389 . S
C1420 C1421 1.387 . S
C1421 H1406 0.930 1_554 S
C1421 C1416 1.390 . S
C1421 C1420 1.387 . S
H1422 C1434 0.930 . S
H1423 C1436 0.930 . S
H1424 C1437 0.930 . S
H1425 C1441 0.959 . S
H1426 C1441 0.959 . S
H1427 C1441 0.961 . S
H1428 C1442 0.960 . S
H1429 C1442 0.961 . S
H1430 C1442 0.959 . S
H1431 C1445 0.929 . S
H1432 C1446 0.931 . S
H1433 C1448 0.930 . S
C1434 H1422 0.930 . S
C1434 C1435 1.399 . S
C1434 C1439 1.399 . S
C1435 C1434 1.399 . S
C1435 C1436 1.376 . S
C1436 H1423 0.930 . S
C1436 C1435 1.376 . S
C1436 C1437 1.388 . S
C1437 H1424 0.930 . S
C1437 C1436 1.388 . S
C1437 C1438 1.390 . S
C1438 C1437 1.390 . S
C1438 C1439 1.394 . S
C1438 C1444 1.465 1_655 S
C1439 C1434 1.399 . S
C1439 C1438 1.394 . S
C1439 C1440 1.516 1_655 S
C1440 C1439 1.516 1_455 S
C1440 C1441 1.502 1_455 S
C1440 C1442 1.561 . S
C1440 C1443 1.526 . S
C1441 H1425 0.959 . S
C1441 H1426 0.959 . S
C1441 H1427 0.961 . S
C1441 C1440 1.502 1_655 S
C1442 H1428 0.960 . S
C1442 H1429 0.961 . S
C1442 H1430 0.959 . S
C1442 C1440 1.561 . S
C1443 C1440 1.526 . S
C1443 C1444 1.396 . S
C1443 C1448 1.390 . S
C1444 C1438 1.465 1_455 S
C1444 C1443 1.396 . S
C1444 C1445 1.399 . S
C1445 H1431 0.929 . S
C1445 C1444 1.399 . S
C1445 C1446 1.385 . S
C1446 H1432 0.931 . S
C1446 C1445 1.385 . S
C1446 C1447 1.389 . S
C1447 C1446 1.389 . S
C1447 C1448 1.387 . S
C1448 H1433 0.930 . S
C1448 C1443 1.390 . S
C1448 C1447 1.387 . S
H1449 C1461 0.930 . S
H1450 C1463 0.930 . S
H1451 C1464 0.930 . S
H1452 C1468 0.959 . S
H1453 C1468 0.959 . S
H1454 C1468 0.961 . S
H1455 C1469 0.960 . S
H1456 C1469 0.961 . S
H1457 C1469 0.959 . S
H1458 C1472 0.929 . S
H1459 C1473 0.931 . S
H1460 C1475 0.930 . S
C1461 H1449 0.930 . S
C1461 C1462 1.399 . S
C1461 C1466 1.399 . S
C1462 C1461 1.399 . S
C1462 C1463 1.376 . S
C1463 H1450 0.930 . S
C1463 C1462 1.376 . S
C1463 C1464 1.388 . S
C1464 H1451 0.930 . S
C1464 C1463 1.388 . S
C1464 C1465 1.390 . S
C1465 C1464 1.390 . S
C1465 C1466 1.394 . S
C1465 C1471 1.465 . S
C1466 C1461 1.399 . S
C1466 C1465 1.394 . S
C1466 C1467 1.516 . S
C1467 C1466 1.516 . S
C1467 C1468 1.502 . S
C1467 C1469 1.561 . S
C1467 C1470 1.526 . S
C1468 H1452 0.959 . S
C1468 H1453 0.959 . S
C1468 H1454 0.961 . S
C1468 C1467 1.502 . S
C1469 H1455 0.960 . S
C1469 H1456 0.961 . S
C1469 H1457 0.959 . S
C1469 C1467 1.561 . S
C1470 C1467 1.526 . S
C1470 C1471 1.396 . S
C1470 C1475 1.390 . S
C1471 C1465 1.465 . S
C1471 C1470 1.396 . S
C1471 C1472 1.399 . S
C1472 H1458 0.929 . S
C1472 C1471 1.399 . S
C1472 C1473 1.385 . S
C1473 H1459 0.931 . S
C1473 C1472 1.385 . S
C1473 C1474 1.389 . S
C1474 C1473 1.389 . S
C1474 C1475 1.387 . S
C1475 H1460 0.930 . S
C1475 C1470 1.390 . S
C1475 C1474 1.387 . S
H1476 C1488 0.930 . S
H1477 C1490 0.930 . S
H1478 C1491 0.930 . S
H1479 C1495 0.959 . S
H1480 C1495 0.959 . S
H1481 C1495 0.961 1_545 S
H1482 C1496 0.960 . S
H1483 C1496 0.961 . S
H1484 C1496 0.959 . S
H1485 C1499 0.929 . S
H1486 C1500 0.931 . S
H1487 C1502 0.930 . S
C1488 H1476 0.930 . S
C1488 C1489 1.399 . S
C1488 C1493 1.399 . S
C1489 C1488 1.399 . S
C1489 C1490 1.376 . S
C1490 H1477 0.930 . S
C1490 C1489 1.376 . S
C1490 C1491 1.388 . S
C1491 H1478 0.930 . S
C1491 C1490 1.388 . S
C1491 C1492 1.390 . S
C1492 C1491 1.390 . S
C1492 C1493 1.394 . S
C1492 C1498 1.465 1_545 S
C1493 C1488 1.399 . S
C1493 C1492 1.394 . S
C1493 C1494 1.516 . S
C1494 C1493 1.516 . S
C1494 C1495 1.502 1_545 S
C1494 C1496 1.561 . S
C1494 C1497 1.526 1_545 S
C1495 H1479 0.959 . S
C1495 H1480 0.959 . S
C1495 H1481 0.961 1_565 S
C1495 C1494 1.502 1_565 S
C1496 H1482 0.960 . S
C1496 H1483 0.961 . S
C1496 H1484 0.959 . S
C1496 C1494 1.561 . S
C1497 C1494 1.526 1_565 S
C1497 C1498 1.396 . S
C1497 C1502 1.390 . S
C1498 C1492 1.465 1_565 S
C1498 C1497 1.396 . S
C1498 C1499 1.399 . S
C1499 H1485 0.929 . S
C1499 C1498 1.399 . S
C1499 C1500 1.385 . S
C1500 H1486 0.931 . S
C1500 C1499 1.385 . S
C1500 C1501 1.389 . S
C1501 C1500 1.389 . S
C1501 C1502 1.387 . S
C1502 H1487 0.930 . S
C1502 C1497 1.390 . S
C1502 C1501 1.387 . S
H1503 C1515 0.930 . S
H1504 C1517 0.930 . S
H1505 C1518 0.930 . S
H1506 C1522 0.959 . S
H1507 C1522 0.959 . S
H1508 C1522 0.961 . S
H1509 C1523 0.960 . S
H1510 C1523 0.961 . S
H1511 C1523 0.959 . S
H1512 C1526 0.929 . S
H1513 C1527 0.931 . S
H1514 C1529 0.930 . S
C1515 H1503 0.930 . S
C1515 C1516 1.399 . S
C1515 C1520 1.399 . S
C1516 C1515 1.399 . S
C1516 C1517 1.376 . S
C1517 H1504 0.930 . S
C1517 C1516 1.376 . S
C1517 C1518 1.388 . S
C1518 H1505 0.930 . S
C1518 C1517 1.388 . S
C1518 C1519 1.390 . S
C1519 C1518 1.390 . S
C1519 C1520 1.394 . S
C1519 C1525 1.465 . S
C1520 C1515 1.399 . S
C1520 C1519 1.394 . S
C1520 C1521 1.516 . S
C1521 C1520 1.516 . S
C1521 C1522 1.502 . S
C1521 C1523 1.561 . S
C1521 C1524 1.526 . S
C1522 H1506 0.959 . S
C1522 H1507 0.959 . S
C1522 H1508 0.961 . S
C1522 C1521 1.502 . S
C1523 H1509 0.960 . S
C1523 H1510 0.961 . S
C1523 H1511 0.959 . S
C1523 C1521 1.561 . S
C1524 C1521 1.526 . S
C1524 C1525 1.396 . S
C1524 C1529 1.390 . S
C1525 C1519 1.465 . S
C1525 C1524 1.396 . S
C1525 C1526 1.399 . S
C1526 H1512 0.929 . S
C1526 C1525 1.399 . S
C1526 C1527 1.385 . S
C1527 H1513 0.931 . S
C1527 C1526 1.385 . S
C1527 C1528 1.389 . S
C1528 C1527 1.389 . S
C1528 C1529 1.387 . S
C1529 H1514 0.930 . S
C1529 C1524 1.390 . S
C1529 C1528 1.387 . S
H1530 C1542 0.930 . S
H1531 C1544 0.930 . S
H1532 C1545 0.930 . S
H1533 C1549 0.959 . S
H1534 C1549 0.959 . S
H1535 C1549 0.961 . S
H1536 C1550 0.960 . S
H1537 C1550 0.961 . S
H1538 C1550 0.959 . S
H1539 C1553 0.929 . S
H1540 C1554 0.931 . S
H1541 C1556 0.930 . S
C1542 H1530 0.930 . S
C1542 C1543 1.399 . S
C1542 C1547 1.399 . S
C1543 C1542 1.399 . S
C1543 C1544 1.376 . S
C1544 H1531 0.930 . S
C1544 C1543 1.376 . S
C1544 C1545 1.388 . S
C1545 H1532 0.930 . S
C1545 C1544 1.388 . S
C1545 C1546 1.390 . S
C1546 C1545 1.390 . S
C1546 C1547 1.394 . S
C1546 C1552 1.465 . S
C1547 C1542 1.399 . S
C1547 C1546 1.394 . S
C1547 C1548 1.516 . S
C1548 C1547 1.516 . S
C1548 C1549 1.502 . S
C1548 C1550 1.561 . S
C1548 C1551 1.526 . S
C1549 H1533 0.959 . S
C1549 H1534 0.959 . S
C1549 H1535 0.961 . S
C1549 C1548 1.502 . S
C1550 H1536 0.960 . S
C1550 H1537 0.961 . S
C1550 H1538 0.959 . S
C1550 C1548 1.561 . S
C1551 C1548 1.526 . S
C1551 C1552 1.396 . S
C1551 C1556 1.390 . S
C1552 C1546 1.465 . S
C1552 C1551 1.396 . S
C1552 C1553 1.399 . S
C1553 H1539 0.929 . S
C1553 C1552 1.399 . S
C1553 C1554 1.385 . S
C1554 H1540 0.931 . S
C1554 C1553 1.385 . S
C1554 C1555 1.389 . S
C1555 C1554 1.389 . S
C1555 C1556 1.387 . S
C1556 H1541 0.930 . S
C1556 C1551 1.390 . S
C1556 C1555 1.387 . S
H1557 C1569 0.930 . S
H1558 C1571 0.930 . S
H1559 C1572 0.930 . S
H1560 C1576 0.959 . S
H1561 C1576 0.959 . S
H1562 C1576 0.961 . S
H1563 C1577 0.960 . S
H1564 C1577 0.961 . S
H1565 C1577 0.959 . S
H1566 C1580 0.929 . S
H1567 C1581 0.931 . S
H1568 C1583 0.930 . S
C1569 H1557 0.930 . S
C1569 C1570 1.399 . S
C1569 C1574 1.399 . S
C1570 C1569 1.399 . S
C1570 C1571 1.376 . S
C1571 H1558 0.930 . S
C1571 C1570 1.376 . S
C1571 C1572 1.388 . S
C1572 H1559 0.930 . S
C1572 C1571 1.388 . S
C1572 C1573 1.390 . S
C1573 C1572 1.390 . S
C1573 C1574 1.394 . S
C1573 C1579 1.465 . S
C1574 C1569 1.399 . S
C1574 C1573 1.394 . S
C1574 C1575 1.516 . S
C1575 C1574 1.516 . S
C1575 C1576 1.502 . S
C1575 C1577 1.561 . S
C1575 C1578 1.526 . S
C1576 H1560 0.959 . S
C1576 H1561 0.959 . S
C1576 H1562 0.961 . S
C1576 C1575 1.502 . S
C1577 H1563 0.960 . S
C1577 H1564 0.961 . S
C1577 H1565 0.959 . S
C1577 C1575 1.561 . S
C1578 C1575 1.526 . S
C1578 C1579 1.396 . S
C1578 C1583 1.390 . S
C1579 C1573 1.465 . S
C1579 C1578 1.396 . S
C1579 C1580 1.399 . S
C1580 H1566 0.929 . S
C1580 C1579 1.399 . S
C1580 C1581 1.385 . S
C1581 H1567 0.931 . S
C1581 C1580 1.385 . S
C1581 C1582 1.389 . S
C1582 C1581 1.389 . S
C1582 C1583 1.387 . S
C1583 H1568 0.930 . S
C1583 C1578 1.390 . S
C1583 C1582 1.387 . S
H1584 C1596 0.930 . S
H1585 C1598 0.930 . S
H1586 C1599 0.930 . S
H1587 C1603 0.959 . S
H1588 C1603 0.959 . S
H1589 C1603 0.961 . S
H1590 C1604 0.960 . S
H1591 C1604 0.961 . S
H1592 C1604 0.959 . S
H1593 C1607 0.929 . S
H1594 C1608 0.931 . S
H1595 C1610 0.930 . S
C1596 H1584 0.930 . S
C1596 C1597 1.399 . S
C1596 C1601 1.399 . S
C1597 C1596 1.399 . S
C1597 C1598 1.376 . S
C1598 H1585 0.930 . S
C1598 C1597 1.376 . S
C1598 C1599 1.388 . S
C1599 H1586 0.930 . S
C1599 C1598 1.388 . S
C1599 C1600 1.390 . S
C1600 C1599 1.390 . S
C1600 C1601 1.394 . S
C1600 C1606 1.465 . S
C1601 C1596 1.399 . S
C1601 C1600 1.394 . S
C1601 C1602 1.516 . S
C1602 C1601 1.516 . S
C1602 C1603 1.502 . S
C1602 C1604 1.561 . S
C1602 C1605 1.526 . S
C1603 H1587 0.959 . S
C1603 H1588 0.959 . S
C1603 H1589 0.961 . S
C1603 C1602 1.502 . S
C1604 H1590 0.960 . S
C1604 H1591 0.961 . S
C1604 H1592 0.959 . S
C1604 C1602 1.561 . S
C1605 C1602 1.526 . S
C1605 C1606 1.396 . S
C1605 C1610 1.390 . S
C1606 C1600 1.465 . S
C1606 C1605 1.396 . S
C1606 C1607 1.399 . S
C1607 H1593 0.929 . S
C1607 C1606 1.399 . S
C1607 C1608 1.385 . S
C1608 H1594 0.931 . S
C1608 C1607 1.385 . S
C1608 C1609 1.389 . S
C1609 C1608 1.389 . S
C1609 C1610 1.387 . S
C1610 H1595 0.930 . S
C1610 C1605 1.390 . S
C1610 C1609 1.387 . S
H1611 C1623 0.930 . S
H1612 C1625 0.930 . S
H1613 C1626 0.930 . S
H1614 C1630 0.959 . S
H1615 C1630 0.959 . S
H1616 C1630 0.961 . S
H1617 C1631 0.960 . S
H1618 C1631 0.961 . S
H1619 C1631 0.959 . S
H1620 C1634 0.929 . S
H1621 C1635 0.931 . S
H1622 C1637 0.930 . S
C1623 H1611 0.930 . S
C1623 C1624 1.399 . S
C1623 C1628 1.399 . S
C1624 C1623 1.399 . S
C1624 C1625 1.376 . S
C1625 H1612 0.930 . S
C1625 C1624 1.376 . S
C1625 C1626 1.388 . S
C1626 H1613 0.930 . S
C1626 C1625 1.388 . S
C1626 C1627 1.390 . S
C1627 C1626 1.390 . S
C1627 C1628 1.394 . S
C1627 C1633 1.465 . S
C1628 C1623 1.399 . S
C1628 C1627 1.394 . S
C1628 C1629 1.516 . S
C1629 C1628 1.516 . S
C1629 C1630 1.502 . S
C1629 C1631 1.561 . S
C1629 C1632 1.526 . S
C1630 H1614 0.959 . S
C1630 H1615 0.959 . S
C1630 H1616 0.961 . S
C1630 C1629 1.502 . S
C1631 H1617 0.960 . S
C1631 H1618 0.961 . S
C1631 H1619 0.959 . S
C1631 C1629 1.561 . S
C1632 C1629 1.526 . S
C1632 C1633 1.396 . S
C1632 C1637 1.390 . S
C1633 C1627 1.465 . S
C1633 C1632 1.396 . S
C1633 C1634 1.399 . S
C1634 H1620 0.929 . S
C1634 C1633 1.399 . S
C1634 C1635 1.385 . S
C1635 H1621 0.931 . S
C1635 C1634 1.385 . S
C1635 C1636 1.389 . S
C1636 C1635 1.389 . S
C1636 C1637 1.387 . S
C1637 H1622 0.930 . S
C1637 C1632 1.390 . S
C1637 C1636 1.387 . S
H1638 C1650 0.930 . S
H1639 C1652 0.930 . S
H1640 C1653 0.930 . S
H1641 C1657 0.959 . S
H1642 C1657 0.959 . S
H1643 C1657 0.961 . S
H1644 C1658 0.960 . S
H1645 C1658 0.961 . S
H1646 C1658 0.959 . S
H1647 C1661 0.929 . S
H1648 C1662 0.931 . S
H1649 C1664 0.930 . S
C1650 H1638 0.930 . S
C1650 C1651 1.399 . S
C1650 C1655 1.399 . S
C1651 C1650 1.399 . S
C1651 C1652 1.376 . S
C1652 H1639 0.930 . S
C1652 C1651 1.376 . S
C1652 C1653 1.388 . S
C1653 H1640 0.930 . S
C1653 C1652 1.388 . S
C1653 C1654 1.390 . S
C1654 C1653 1.390 . S
C1654 C1655 1.394 . S
C1654 C1660 1.465 . S
C1655 C1650 1.399 . S
C1655 C1654 1.394 . S
C1655 C1656 1.516 . S
C1656 C1655 1.516 . S
C1656 C1657 1.502 . S
C1656 C1658 1.561 . S
C1656 C1659 1.526 . S
C1657 H1641 0.959 . S
C1657 H1642 0.959 . S
C1657 H1643 0.961 . S
C1657 C1656 1.502 . S
C1658 H1644 0.960 . S
C1658 H1645 0.961 . S
C1658 H1646 0.959 . S
C1658 C1656 1.561 . S
C1659 C1656 1.526 . S
C1659 C1660 1.396 . S
C1659 C1664 1.390 . S
C1660 C1654 1.465 . S
C1660 C1659 1.396 . S
C1660 C1661 1.399 . S
C1661 H1647 0.929 . S
C1661 C1660 1.399 . S
C1661 C1662 1.385 . S
C1662 H1648 0.931 . S
C1662 C1661 1.385 . S
C1662 C1663 1.389 . S
C1663 C1662 1.389 . S
C1663 C1664 1.387 . S
C1664 H1649 0.930 . S
C1664 C1659 1.390 . S
C1664 C1663 1.387 . S
H1665 C1677 0.930 . S
H1666 C1679 0.930 . S
H1667 C1680 0.930 . S
H1668 C1684 0.959 . S
H1669 C1684 0.959 . S
H1670 C1684 0.961 . S
H1671 C1685 0.960 . S
H1672 C1685 0.961 . S
H1673 C1685 0.959 . S
H1674 C1688 0.929 . S
H1675 C1689 0.931 . S
H1676 C1691 0.930 . S
C1677 H1665 0.930 . S
C1677 C1678 1.399 . S
C1677 C1682 1.399 . S
C1678 C1677 1.399 . S
C1678 C1679 1.376 . S
C1679 H1666 0.930 . S
C1679 C1678 1.376 . S
C1679 C1680 1.388 . S
C1680 H1667 0.930 . S
C1680 C1679 1.388 . S
C1680 C1681 1.390 . S
C1681 C1680 1.390 . S
C1681 C1682 1.394 . S
C1681 C1687 1.465 . S
C1682 C1677 1.399 . S
C1682 C1681 1.394 . S
C1682 C1683 1.516 . S
C1683 C1682 1.516 . S
C1683 C1684 1.502 . S
C1683 C1685 1.561 . S
C1683 C1686 1.526 . S
C1684 H1668 0.959 . S
C1684 H1669 0.959 . S
C1684 H1670 0.961 . S
C1684 C1683 1.502 . S
C1685 H1671 0.960 . S
C1685 H1672 0.961 . S
C1685 H1673 0.959 . S
C1685 C1683 1.561 . S
C1686 C1683 1.526 . S
C1686 C1687 1.396 . S
C1686 C1691 1.390 . S
C1687 C1681 1.465 . S
C1687 C1686 1.396 . S
C1687 C1688 1.399 . S
C1688 H1674 0.929 . S
C1688 C1687 1.399 . S
C1688 C1689 1.385 . S
C1689 H1675 0.931 . S
C1689 C1688 1.385 . S
C1689 C1690 1.389 . S
C1690 C1689 1.389 . S
C1690 C1691 1.387 . S
C1691 H1676 0.930 . S
C1691 C1686 1.390 . S
C1691 C1690 1.387 . S
H1692 C1704 0.930 . S
H1693 C1706 0.930 . S
H1694 C1707 0.930 . S
H1695 C1711 0.959 . S
H1696 C1711 0.959 . S
H1697 C1711 0.961 . S
H1698 C1712 0.960 . S
H1699 C1712 0.961 . S
H1700 C1712 0.959 . S
H1701 C1715 0.929 . S
H1702 C1716 0.931 . S
H1703 C1718 0.930 . S
C1704 H1692 0.930 . S
C1704 C1705 1.399 . S
C1704 C1709 1.399 . S
C1705 C1704 1.399 . S
C1705 C1706 1.376 . S
C1706 H1693 0.930 . S
C1706 C1705 1.376 . S
C1706 C1707 1.388 . S
C1707 H1694 0.930 . S
C1707 C1706 1.388 . S
C1707 C1708 1.390 . S
C1708 C1707 1.390 . S
C1708 C1709 1.394 . S
C1708 C1714 1.465 . S
C1709 C1704 1.399 . S
C1709 C1708 1.394 . S
C1709 C1710 1.516 . S
C1710 C1709 1.516 . S
C1710 C1711 1.502 . S
C1710 C1712 1.561 . S
C1710 C1713 1.526 . S
C1711 H1695 0.959 . S
C1711 H1696 0.959 . S
C1711 H1697 0.961 . S
C1711 C1710 1.502 . S
C1712 H1698 0.960 . S
C1712 H1699 0.961 . S
C1712 H1700 0.959 . S
C1712 C1710 1.561 . S
C1713 C1710 1.526 . S
C1713 C1714 1.396 . S
C1713 C1718 1.390 . S
C1714 C1708 1.465 . S
C1714 C1713 1.396 . S
C1714 C1715 1.399 . S
C1715 H1701 0.929 . S
C1715 C1714 1.399 . S
C1715 C1716 1.385 . S
C1716 H1702 0.931 . S
C1716 C1715 1.385 . S
C1716 C1717 1.389 . S
C1717 C1716 1.389 . S
C1717 C1718 1.387 . S
C1718 H1703 0.930 . S
C1718 C1713 1.390 . S
C1718 C1717 1.387 . S
H1719 C1731 0.930 . S
H1720 C1733 0.930 . S
H1721 C1734 0.930 . S
H1722 C1738 0.959 . S
H1723 C1738 0.959 . S
H1724 C1738 0.961 . S
H1725 C1739 0.960 . S
H1726 C1739 0.961 . S
H1727 C1739 0.959 . S
H1728 C1742 0.929 . S
H1729 C1743 0.931 . S
H1730 C1745 0.930 . S
C1731 H1719 0.930 . S
C1731 C1732 1.399 . S
C1731 C1736 1.399 . S
C1732 C1731 1.399 . S
C1732 C1733 1.376 . S
C1733 H1720 0.930 . S
C1733 C1732 1.376 . S
C1733 C1734 1.388 . S
C1734 H1721 0.930 . S
C1734 C1733 1.388 . S
C1734 C1735 1.390 . S
C1735 C1734 1.390 . S
C1735 C1736 1.394 . S
C1735 C1741 1.465 . S
C1736 C1731 1.399 . S
C1736 C1735 1.394 . S
C1736 C1737 1.516 . S
C1737 C1736 1.516 . S
C1737 C1738 1.502 . S
C1737 C1739 1.561 . S
C1737 C1740 1.526 . S
C1738 H1722 0.959 . S
C1738 H1723 0.959 . S
C1738 H1724 0.961 . S
C1738 C1737 1.502 . S
C1739 H1725 0.960 . S
C1739 H1726 0.961 . S
C1739 H1727 0.959 . S
C1739 C1737 1.561 . S
C1740 C1737 1.526 . S
C1740 C1741 1.396 . S
C1740 C1745 1.390 . S
C1741 C1735 1.465 . S
C1741 C1740 1.396 . S
C1741 C1742 1.399 . S
C1742 H1728 0.929 . S
C1742 C1741 1.399 . S
C1742 C1743 1.385 . S
C1743 H1729 0.931 . S
C1743 C1742 1.385 . S
C1743 C1744 1.389 . S
C1744 C1743 1.389 . S
C1744 C1745 1.387 . S
C1745 H1730 0.930 . S
C1745 C1740 1.390 . S
C1745 C1744 1.387 . S
H1746 C1758 0.930 . S
H1747 C1760 0.930 . S
H1748 C1761 0.930 . S
H1749 C1765 0.959 . S
H1750 C1765 0.959 . S
H1751 C1765 0.961 . S
H1752 C1766 0.960 . S
H1753 C1766 0.961 . S
H1754 C1766 0.959 . S
H1755 C1769 0.929 . S
H1756 C1770 0.931 . S
H1757 C1772 0.930 . S
C1758 H1746 0.930 . S
C1758 C1759 1.399 . S
C1758 C1763 1.399 . S
C1759 C1758 1.399 . S
C1759 C1760 1.376 . S
C1760 H1747 0.930 . S
C1760 C1759 1.376 . S
C1760 C1761 1.388 . S
C1761 H1748 0.930 . S
C1761 C1760 1.388 . S
C1761 C1762 1.390 . S
C1762 C1761 1.390 . S
C1762 C1763 1.394 . S
C1762 C1768 1.465 . S
C1763 C1758 1.399 . S
C1763 C1762 1.394 . S
C1763 C1764 1.516 . S
C1764 C1763 1.516 . S
C1764 C1765 1.502 . S
C1764 C1766 1.561 . S
C1764 C1767 1.526 . S
C1765 H1749 0.959 . S
C1765 H1750 0.959 . S
C1765 H1751 0.961 . S
C1765 C1764 1.502 . S
C1766 H1752 0.960 . S
C1766 H1753 0.961 . S
C1766 H1754 0.959 . S
C1766 C1764 1.561 . S
C1767 C1764 1.526 . S
C1767 C1768 1.396 . S
C1767 C1772 1.390 . S
C1768 C1762 1.465 . S
C1768 C1767 1.396 . S
C1768 C1769 1.399 . S
C1769 H1755 0.929 . S
C1769 C1768 1.399 . S
C1769 C1770 1.385 . S
C1770 H1756 0.931 . S
C1770 C1769 1.385 . S
C1770 C1771 1.389 . S
C1771 C1770 1.389 . S
C1771 C1772 1.387 . S
C1772 H1757 0.930 . S
C1772 C1767 1.390 . S
C1772 C1771 1.387 . S
H1773 C1785 0.930 . S
H1774 C1787 0.930 . S
H1775 C1788 0.930 . S
H1776 C1792 0.959 . S
H1777 C1792 0.959 . S
H1778 C1792 0.961 . S
H1779 C1793 0.960 . S
H1780 C1793 0.961 . S
H1781 C1793 0.959 . S
H1782 C1796 0.929 . S
H1783 C1797 0.931 . S
H1784 C1799 0.930 . S
C1785 H1773 0.930 . S
C1785 C1786 1.399 . S
C1785 C1790 1.399 . S
C1786 C1785 1.399 . S
C1786 C1787 1.376 . S
C1787 H1774 0.930 . S
C1787 C1786 1.376 . S
C1787 C1788 1.388 . S
C1788 H1775 0.930 . S
C1788 C1787 1.388 . S
C1788 C1789 1.390 . S
C1789 C1788 1.390 . S
C1789 C1790 1.394 . S
C1789 C1795 1.465 . S
C1790 C1785 1.399 . S
C1790 C1789 1.394 . S
C1790 C1791 1.516 . S
C1791 C1790 1.516 . S
C1791 C1792 1.502 . S
C1791 C1793 1.561 . S
C1791 C1794 1.526 . S
C1792 H1776 0.959 . S
C1792 H1777 0.959 . S
C1792 H1778 0.961 . S
C1792 C1791 1.502 . S
C1793 H1779 0.960 . S
C1793 H1780 0.961 . S
C1793 H1781 0.959 . S
C1793 C1791 1.561 . S
C1794 C1791 1.526 . S
C1794 C1795 1.396 . S
C1794 C1799 1.390 . S
C1795 C1789 1.465 . S
C1795 C1794 1.396 . S
C1795 C1796 1.399 . S
C1796 H1782 0.929 . S
C1796 C1795 1.399 . S
C1796 C1797 1.385 . S
C1797 H1783 0.931 . S
C1797 C1796 1.385 . S
C1797 C1798 1.389 . S
C1798 C1797 1.389 . S
C1798 C1799 1.387 . S
C1799 H1784 0.930 . S
C1799 C1794 1.390 . S
C1799 C1798 1.387 . S
H1800 C1812 0.930 . S
H1801 C1814 0.930 . S
H1802 C1815 0.930 . S
H1803 C1819 0.959 . S
H1804 C1819 0.959 . S
H1805 C1819 0.961 . S
H1806 C1820 0.960 . S
H1807 C1820 0.961 . S
H1808 C1820 0.959 . S
H1809 C1823 0.929 . S
H1810 C1824 0.931 . S
H1811 C1826 0.930 . S
C1812 H1800 0.930 . S
C1812 C1813 1.399 . S
C1812 C1817 1.399 . S
C1813 C1812 1.399 . S
C1813 C1814 1.376 . S
C1814 H1801 0.930 . S
C1814 C1813 1.376 . S
C1814 C1815 1.388 . S
C1815 H1802 0.930 . S
C1815 C1814 1.388 . S
C1815 C1816 1.390 . S
C1816 C1815 1.390 . S
C1816 C1817 1.394 . S
C1816 C1822 1.465 . S
C1817 C1812 1.399 . S
C1817 C1816 1.394 . S
C1817 C1818 1.516 . S
C1818 C1817 1.516 . S
C1818 C1819 1.502 . S
C1818 C1820 1.561 . S
C1818 C1821 1.526 . S
C1819 H1803 0.959 . S
C1819 H1804 0.959 . S
C1819 H1805 0.961 . S
C1819 C1818 1.502 . S
C1820 H1806 0.960 . S
C1820 H1807 0.961 . S
C1820 H1808 0.959 . S
C1820 C1818 1.561 . S
C1821 C1818 1.526 . S
C1821 C1822 1.396 . S
C1821 C1826 1.390 . S
C1822 C1816 1.465 . S
C1822 C1821 1.396 . S
C1822 C1823 1.399 . S
C1823 H1809 0.929 . S
C1823 C1822 1.399 . S
C1823 C1824 1.385 . S
C1824 H1810 0.931 . S
C1824 C1823 1.385 . S
C1824 C1825 1.389 . S
C1825 C1824 1.389 . S
C1825 C1826 1.387 . S
C1826 H1811 0.930 . S
C1826 C1821 1.390 . S
C1826 C1825 1.387 . S
H1827 C1839 0.930 . S
H1828 C1841 0.930 . S
H1829 C1842 0.930 . S
H1830 C1846 0.959 . S
H1831 C1846 0.959 . S
H1832 C1846 0.961 1_565 S
H1833 C1847 0.960 . S
H1834 C1847 0.961 . S
H1835 C1847 0.959 . S
H1836 C1850 0.929 . S
H1837 C1851 0.931 . S
H1838 C1853 0.930 . S
C1839 H1827 0.930 . S
C1839 C1840 1.399 . S
C1839 C1844 1.399 . S
C1840 C1839 1.399 . S
C1840 C1841 1.376 . S
C1841 H1828 0.930 . S
C1841 C1840 1.376 . S
C1841 C1842 1.388 . S
C1842 H1829 0.930 . S
C1842 C1841 1.388 . S
C1842 C1843 1.390 . S
C1843 C1842 1.390 . S
C1843 C1844 1.394 . S
C1843 C1849 1.465 1_565 S
C1844 C1839 1.399 . S
C1844 C1843 1.394 . S
C1844 C1845 1.516 . S
C1845 C1844 1.516 . S
C1845 C1846 1.502 1_565 S
C1845 C1847 1.561 . S
C1845 C1848 1.526 1_565 S
C1846 H1830 0.959 . S
C1846 H1831 0.959 . S
C1846 H1832 0.961 1_545 S
C1846 C1845 1.502 1_545 S
C1847 H1833 0.960 . S
C1847 H1834 0.961 . S
C1847 H1835 0.959 . S
C1847 C1845 1.561 . S
C1848 C1845 1.526 1_545 S
C1848 C1849 1.396 . S
C1848 C1853 1.390 . S
C1849 C1843 1.465 1_545 S
C1849 C1848 1.396 . S
C1849 C1850 1.399 . S
C1850 H1836 0.929 . S
C1850 C1849 1.399 . S
C1850 C1851 1.385 . S
C1851 H1837 0.931 . S
C1851 C1850 1.385 . S
C1851 C1852 1.389 . S
C1852 C1851 1.389 . S
C1852 C1853 1.387 . S
C1853 H1838 0.930 . S
C1853 C1848 1.390 . S
C1853 C1852 1.387 . S
H1854 C1866 0.930 . S
H1855 C1868 0.930 . S
H1856 C1869 0.930 1_655 S
H1857 C1873 0.959 . S
H1858 C1873 0.959 . S
H1859 C1873 0.961 . S
H1860 C1874 0.960 . S
H1861 C1874 0.961 . S
H1862 C1874 0.959 . S
H1863 C1877 0.929 . S
H1864 C1878 0.931 . S
H1865 C1880 0.930 . S
C1866 H1854 0.930 . S
C1866 C1867 1.399 . S
C1866 C1871 1.399 . S
C1867 C1866 1.399 . S
C1867 C1868 1.376 . S
C1868 H1855 0.930 . S
C1868 C1867 1.376 . S
C1868 C1869 1.388 . S
C1869 H1856 0.930 1_455 S
C1869 C1868 1.388 . S
C1869 C1870 1.390 . S
C1870 C1869 1.390 . S
C1870 C1871 1.394 . S
C1870 C1876 1.465 1_455 S
C1871 C1866 1.399 . S
C1871 C1870 1.394 . S
C1871 C1872 1.516 . S
C1872 C1871 1.516 . S
C1872 C1873 1.502 . S
C1872 C1874 1.561 . S
C1872 C1875 1.526 1_455 S
C1873 H1857 0.959 . S
C1873 H1858 0.959 . S
C1873 H1859 0.961 . S
C1873 C1872 1.502 . S
C1874 H1860 0.960 . S
C1874 H1861 0.961 . S
C1874 H1862 0.959 . S
C1874 C1872 1.561 . S
C1875 C1872 1.526 1_655 S
C1875 C1876 1.396 . S
C1875 C1880 1.390 . S
C1876 C1870 1.465 1_655 S
C1876 C1875 1.396 . S
C1876 C1877 1.399 . S
C1877 H1863 0.929 . S
C1877 C1876 1.399 . S
C1877 C1878 1.385 . S
C1878 H1864 0.931 . S
C1878 C1877 1.385 . S
C1878 C1879 1.389 . S
C1879 C1878 1.389 . S
C1879 C1880 1.387 . S
C1880 H1865 0.930 . S
C1880 C1875 1.390 . S
C1880 C1879 1.387 . S
H1881 C1893 0.930 . S
H1882 C1895 0.930 . S
H1883 C1896 0.930 . S
H1884 C1900 0.959 . S
H1885 C1900 0.959 . S
H1886 C1900 0.961 . S
H1887 C1901 0.960 . S
H1888 C1901 0.961 . S
H1889 C1901 0.959 . S
H1890 C1904 0.929 . S
H1891 C1905 0.931 . S
H1892 C1907 0.930 . S
C1893 H1881 0.930 . S
C1893 C1894 1.399 . S
C1893 C1898 1.399 . S
C1894 C1893 1.399 . S
C1894 C1895 1.376 . S
C1895 H1882 0.930 . S
C1895 C1894 1.376 . S
C1895 C1896 1.388 . S
C1896 H1883 0.930 . S
C1896 C1895 1.388 . S
C1896 C1897 1.390 . S
C1897 C1896 1.390 . S
C1897 C1898 1.394 . S
C1897 C1903 1.465 . S
C1898 C1893 1.399 . S
C1898 C1897 1.394 . S
C1898 C1899 1.516 . S
C1899 C1898 1.516 . S
C1899 C1900 1.502 . S
C1899 C1901 1.561 . S
C1899 C1902 1.526 . S
C1900 H1884 0.959 . S
C1900 H1885 0.959 . S
C1900 H1886 0.961 . S
C1900 C1899 1.502 . S
C1901 H1887 0.960 . S
C1901 H1888 0.961 . S
C1901 H1889 0.959 . S
C1901 C1899 1.561 . S
C1902 C1899 1.526 . S
C1902 C1903 1.396 . S
C1902 C1907 1.390 . S
C1903 C1897 1.465 . S
C1903 C1902 1.396 . S
C1903 C1904 1.399 . S
C1904 H1890 0.929 . S
C1904 C1903 1.399 . S
C1904 C1905 1.385 . S
C1905 H1891 0.931 . S
C1905 C1904 1.385 . S
C1905 C1906 1.389 . S
C1906 C1905 1.389 . S
C1906 C1907 1.387 . S
C1907 H1892 0.930 . S
C1907 C1902 1.390 . S
C1907 C1906 1.387 . S
H1908 C1920 0.930 . S
H1909 C1922 0.930 . S
H1910 C1923 0.930 . S
H1911 C1927 0.959 . S
H1912 C1927 0.959 . S
H1913 C1927 0.961 . S
H1914 C1928 0.960 . S
H1915 C1928 0.961 . S
H1916 C1928 0.959 . S
H1917 C1931 0.929 . S
H1918 C1932 0.931 . S
H1919 C1934 0.930 . S
C1920 H1908 0.930 . S
C1920 C1921 1.399 . S
C1920 C1925 1.399 . S
C1921 C1920 1.399 . S
C1921 C1922 1.376 . S
C1922 H1909 0.930 . S
C1922 C1921 1.376 . S
C1922 C1923 1.388 . S
C1923 H1910 0.930 . S
C1923 C1922 1.388 . S
C1923 C1924 1.390 . S
C1924 C1923 1.390 . S
C1924 C1925 1.394 . S
C1924 C1930 1.465 . S
C1925 C1920 1.399 . S
C1925 C1924 1.394 . S
C1925 C1926 1.516 . S
C1926 C1925 1.516 . S
C1926 C1927 1.502 . S
C1926 C1928 1.561 . S
C1926 C1929 1.526 . S
C1927 H1911 0.959 . S
C1927 H1912 0.959 . S
C1927 H1913 0.961 . S
C1927 C1926 1.502 . S
C1928 H1914 0.960 . S
C1928 H1915 0.961 . S
C1928 H1916 0.959 . S
C1928 C1926 1.561 . S
C1929 C1926 1.526 . S
C1929 C1930 1.396 . S
C1929 C1934 1.390 . S
C1930 C1924 1.465 . S
C1930 C1929 1.396 . S
C1930 C1931 1.399 . S
C1931 H1917 0.929 . S
C1931 C1930 1.399 . S
C1931 C1932 1.385 . S
C1932 H1918 0.931 . S
C1932 C1931 1.385 . S
C1932 C1933 1.389 . S
C1933 C1932 1.389 . S
C1933 C1934 1.387 . S
C1934 H1919 0.930 . S
C1934 C1929 1.390 . S
C1934 C1933 1.387 . S
H1935 C1947 0.930 . S
H1936 C1949 0.930 . S
H1937 C1950 0.930 . S
H1938 C1954 0.959 . S
H1939 C1954 0.959 . S
H1940 C1954 0.961 . S
H1941 C1955 0.960 . S
H1942 C1955 0.961 . S
H1943 C1955 0.959 . S
H1944 C1958 0.929 . S
H1945 C1959 0.931 . S
H1946 C1961 0.930 . S
C1947 H1935 0.930 . S
C1947 C1948 1.399 . S
C1947 C1952 1.399 . S
C1948 C1947 1.399 . S
C1948 C1949 1.376 . S
C1949 H1936 0.930 . S
C1949 C1948 1.376 . S
C1949 C1950 1.388 . S
C1950 H1937 0.930 . S
C1950 C1949 1.388 . S
C1950 C1951 1.390 . S
C1951 C1950 1.390 . S
C1951 C1952 1.394 . S
C1951 C1957 1.465 . S
C1952 C1947 1.399 . S
C1952 C1951 1.394 . S
C1952 C1953 1.516 . S
C1953 C1952 1.516 . S
C1953 C1954 1.502 . S
C1953 C1955 1.561 . S
C1953 C1956 1.526 . S
C1954 H1938 0.959 . S
C1954 H1939 0.959 . S
C1954 H1940 0.961 . S
C1954 C1953 1.502 . S
C1955 H1941 0.960 . S
C1955 H1942 0.961 . S
C1955 H1943 0.959 . S
C1955 C1953 1.561 . S
C1956 C1953 1.526 . S
C1956 C1957 1.396 . S
C1956 C1961 1.390 . S
C1957 C1951 1.465 . S
C1957 C1956 1.396 . S
C1957 C1958 1.399 . S
C1958 H1944 0.929 . S
C1958 C1957 1.399 . S
C1958 C1959 1.385 . S
C1959 H1945 0.931 . S
C1959 C1958 1.385 . S
C1959 C1960 1.389 . S
C1960 C1959 1.389 . S
C1960 C1961 1.387 . S
C1961 H1946 0.930 . S
C1961 C1956 1.390 . S
C1961 C1960 1.387 . S
H1962 C1974 0.930 . S
H1963 C1976 0.930 . S
H1964 C1977 0.930 . S
H1965 C1981 0.959 . S
H1966 C1981 0.959 . S
H1967 C1981 0.961 . S
H1968 C1982 0.960 . S
H1969 C1982 0.961 . S
H1970 C1982 0.959 . S
H1971 C1985 0.929 . S
H1972 C1986 0.931 . S
H1973 C1988 0.930 . S
C1974 H1962 0.930 . S
C1974 C1975 1.399 . S
C1974 C1979 1.399 . S
C1975 C1974 1.399 . S
C1975 C1976 1.376 . S
C1976 H1963 0.930 . S
C1976 C1975 1.376 . S
C1976 C1977 1.388 . S
C1977 H1964 0.930 . S
C1977 C1976 1.388 . S
C1977 C1978 1.390 . S
C1978 C1977 1.390 . S
C1978 C1979 1.394 . S
C1978 C1984 1.465 . S
C1979 C1974 1.399 . S
C1979 C1978 1.394 . S
C1979 C1980 1.516 . S
C1980 C1979 1.516 . S
C1980 C1981 1.502 . S
C1980 C1982 1.561 . S
C1980 C1983 1.526 . S
C1981 H1965 0.959 . S
C1981 H1966 0.959 . S
C1981 H1967 0.961 . S
C1981 C1980 1.502 . S
C1982 H1968 0.960 . S
C1982 H1969 0.961 . S
C1982 H1970 0.959 . S
C1982 C1980 1.561 . S
C1983 C1980 1.526 . S
C1983 C1984 1.396 . S
C1983 C1988 1.390 . S
C1984 C1978 1.465 . S
C1984 C1983 1.396 . S
C1984 C1985 1.399 . S
C1985 H1971 0.929 . S
C1985 C1984 1.399 . S
C1985 C1986 1.385 . S
C1986 H1972 0.931 . S
C1986 C1985 1.385 . S
C1986 C1987 1.389 . S
C1987 C1986 1.389 . S
C1987 C1988 1.387 . S
C1988 H1973 0.930 . S
C1988 C1983 1.390 . S
C1988 C1987 1.387 . S
H1989 C2001 0.930 . S
H1990 C2003 0.930 . S
H1991 C2004 0.930 . S
H1992 C2008 0.959 . S
H1993 C2008 0.959 . S
H1994 C2008 0.961 . S
H1995 C2009 0.960 . S
H1996 C2009 0.961 . S
H1997 C2009 0.959 . S
H1998 C2012 0.929 . S
H1999 C2013 0.931 . S
H2000 C2015 0.930 . S
C2001 H1989 0.930 . S
C2001 C2002 1.399 . S
C2001 C2006 1.399 . S
C2002 C2001 1.399 . S
C2002 C2003 1.376 . S
C2003 H1990 0.930 . S
C2003 C2002 1.376 . S
C2003 C2004 1.388 . S
C2004 H1991 0.930 . S
C2004 C2003 1.388 . S
C2004 C2005 1.390 . S
C2005 C2004 1.390 . S
C2005 C2006 1.394 . S
C2005 C2011 1.465 . S
C2006 C2001 1.399 . S
C2006 C2005 1.394 . S
C2006 C2007 1.516 . S
C2007 C2006 1.516 . S
C2007 C2008 1.502 . S
C2007 C2009 1.561 . S
C2007 C2010 1.526 . S
C2008 H1992 0.959 . S
C2008 H1993 0.959 . S
C2008 H1994 0.961 . S
C2008 C2007 1.502 . S
C2009 H1995 0.960 . S
C2009 H1996 0.961 . S
C2009 H1997 0.959 . S
C2009 C2007 1.561 . S
C2010 C2007 1.526 . S
C2010 C2011 1.396 . S
C2010 C2015 1.390 . S
C2011 C2005 1.465 . S
C2011 C2010 1.396 . S
C2011 C2012 1.399 . S
C2012 H1998 0.929 . S
C2012 C2011 1.399 . S
C2012 C2013 1.385 . S
C2013 H1999 0.931 . S
C2013 C2012 1.385 . S
C2013 C2014 1.389 . S
C2014 C2013 1.389 . S
C2014 C2015 1.387 . S
C2015 H2000 0.930 . S
C2015 C2010 1.390 . S
C2015 C2014 1.387 . S
H2016 C2028 0.930 . S
H2017 C2030 0.930 . S
H2018 C2031 0.930 . S
H2019 C2035 0.959 . S
H2020 C2035 0.959 . S
H2021 C2035 0.961 . S
H2022 C2036 0.960 . S
H2023 C2036 0.961 . S
H2024 C2036 0.959 . S
H2025 C2039 0.929 . S
H2026 C2040 0.931 . S
H2027 C2042 0.930 . S
C2028 H2016 0.930 . S
C2028 C2029 1.399 . S
C2028 C2033 1.399 . S
C2029 C2028 1.399 . S
C2029 C2030 1.376 . S
C2030 H2017 0.930 . S
C2030 C2029 1.376 . S
C2030 C2031 1.388 . S
C2031 H2018 0.930 . S
C2031 C2030 1.388 . S
C2031 C2032 1.390 . S
C2032 C2031 1.390 . S
C2032 C2033 1.394 . S
C2032 C2038 1.465 . S
C2033 C2028 1.399 . S
C2033 C2032 1.394 . S
C2033 C2034 1.516 . S
C2034 C2033 1.516 . S
C2034 C2035 1.502 . S
C2034 C2036 1.561 . S
C2034 C2037 1.526 . S
C2035 H2019 0.959 . S
C2035 H2020 0.959 . S
C2035 H2021 0.961 . S
C2035 C2034 1.502 . S
C2036 H2022 0.960 . S
C2036 H2023 0.961 . S
C2036 H2024 0.959 . S
C2036 C2034 1.561 . S
C2037 C2034 1.526 . S
C2037 C2038 1.396 . S
C2037 C2042 1.390 . S
C2038 C2032 1.465 . S
C2038 C2037 1.396 . S
C2038 C2039 1.399 . S
C2039 H2025 0.929 . S
C2039 C2038 1.399 . S
C2039 C2040 1.385 . S
C2040 H2026 0.931 . S
C2040 C2039 1.385 . S
C2040 C2041 1.389 . S
C2041 C2040 1.389 . S
C2041 C2042 1.387 . S
C2042 H2027 0.930 . S
C2042 C2037 1.390 . S
C2042 C2041 1.387 . S
H2043 C2055 0.930 . S
H2044 C2057 0.930 . S
H2045 C2058 0.930 . S
H2046 C2062 0.959 . S
H2047 C2062 0.959 . S
H2048 C2062 0.961 . S
H2049 C2063 0.960 . S
H2050 C2063 0.961 . S
H2051 C2063 0.959 . S
H2052 C2066 0.929 . S
H2053 C2067 0.931 . S
H2054 C2069 0.930 . S
C2055 H2043 0.930 . S
C2055 C2056 1.399 . S
C2055 C2060 1.399 . S
C2056 C2055 1.399 . S
C2056 C2057 1.376 . S
C2057 H2044 0.930 . S
C2057 C2056 1.376 . S
C2057 C2058 1.388 . S
C2058 H2045 0.930 . S
C2058 C2057 1.388 . S
C2058 C2059 1.390 . S
C2059 C2058 1.390 . S
C2059 C2060 1.394 . S
C2059 C2065 1.465 . S
C2060 C2055 1.399 . S
C2060 C2059 1.394 . S
C2060 C2061 1.516 . S
C2061 C2060 1.516 . S
C2061 C2062 1.502 . S
C2061 C2063 1.561 . S
C2061 C2064 1.526 . S
C2062 H2046 0.959 . S
C2062 H2047 0.959 . S
C2062 H2048 0.961 . S
C2062 C2061 1.502 . S
C2063 H2049 0.960 . S
C2063 H2050 0.961 . S
C2063 H2051 0.959 . S
C2063 C2061 1.561 . S
C2064 C2061 1.526 . S
C2064 C2065 1.396 . S
C2064 C2069 1.390 . S
C2065 C2059 1.465 . S
C2065 C2064 1.396 . S
C2065 C2066 1.399 . S
C2066 H2052 0.929 . S
C2066 C2065 1.399 . S
C2066 C2067 1.385 . S
C2067 H2053 0.931 . S
C2067 C2066 1.385 . S
C2067 C2068 1.389 . S
C2068 C2067 1.389 . S
C2068 C2069 1.387 . S
C2069 H2054 0.930 . S
C2069 C2064 1.390 . S
C2069 C2068 1.387 . S
H2070 C2082 0.930 . S
H2071 C2084 0.930 . S
H2072 C2085 0.930 . S
H2073 C2089 0.959 . S
H2074 C2089 0.959 . S
H2075 C2089 0.961 . S
H2076 C2090 0.960 . S
H2077 C2090 0.961 . S
H2078 C2090 0.959 . S
H2079 C2093 0.929 . S
H2080 C2094 0.931 . S
H2081 C2096 0.930 . S
C2082 H2070 0.930 . S
C2082 C2083 1.399 . S
C2082 C2087 1.399 . S
C2083 C2082 1.399 . S
C2083 C2084 1.376 . S
C2084 H2071 0.930 . S
C2084 C2083 1.376 . S
C2084 C2085 1.388 . S
C2085 H2072 0.930 . S
C2085 C2084 1.388 . S
C2085 C2086 1.390 . S
C2086 C2085 1.390 . S
C2086 C2087 1.394 . S
C2086 C2092 1.465 . S
C2087 C2082 1.399 . S
C2087 C2086 1.394 . S
C2087 C2088 1.516 . S
C2088 C2087 1.516 . S
C2088 C2089 1.502 . S
C2088 C2090 1.561 . S
C2088 C2091 1.526 . S
C2089 H2073 0.959 . S
C2089 H2074 0.959 . S
C2089 H2075 0.961 . S
C2089 C2088 1.502 . S
C2090 H2076 0.960 . S
C2090 H2077 0.961 . S
C2090 H2078 0.959 . S
C2090 C2088 1.561 . S
C2091 C2088 1.526 . S
C2091 C2092 1.396 . S
C2091 C2096 1.390 . S
C2092 C2086 1.465 . S
C2092 C2091 1.396 . S
C2092 C2093 1.399 . S
C2093 H2079 0.929 . S
C2093 C2092 1.399 . S
C2093 C2094 1.385 . S
C2094 H2080 0.931 . S
C2094 C2093 1.385 . S
C2094 C2095 1.389 . S
C2095 C2094 1.389 . S
C2095 C2096 1.387 . S
C2096 H2081 0.930 . S
C2096 C2091 1.390 . S
C2096 C2095 1.387 . S
H2097 C2109 0.930 . S
H2098 C2111 0.930 . S
H2099 C2112 0.930 . S
H2100 C2116 0.959 . S
H2101 C2116 0.959 . S
H2102 C2116 0.961 . S
H2103 C2117 0.960 . S
H2104 C2117 0.961 . S
H2105 C2117 0.959 . S
H2106 C2120 0.929 . S
H2107 C2121 0.931 . S
H2108 C2123 0.930 . S
C2109 H2097 0.930 . S
C2109 C2110 1.399 . S
C2109 C2114 1.399 . S
C2110 C2109 1.399 . S
C2110 C2111 1.376 . S
C2111 H2098 0.930 . S
C2111 C2110 1.376 . S
C2111 C2112 1.388 . S
C2112 H2099 0.930 . S
C2112 C2111 1.388 . S
C2112 C2113 1.390 . S
C2113 C2112 1.390 . S
C2113 C2114 1.394 . S
C2113 C2119 1.465 . S
C2114 C2109 1.399 . S
C2114 C2113 1.394 . S
C2114 C2115 1.516 . S
C2115 C2114 1.516 . S
C2115 C2116 1.502 . S
C2115 C2117 1.561 . S
C2115 C2118 1.526 . S
C2116 H2100 0.959 . S
C2116 H2101 0.959 . S
C2116 H2102 0.961 . S
C2116 C2115 1.502 . S
C2117 H2103 0.960 . S
C2117 H2104 0.961 . S
C2117 H2105 0.959 . S
C2117 C2115 1.561 . S
C2118 C2115 1.526 . S
C2118 C2119 1.396 . S
C2118 C2123 1.390 . S
C2119 C2113 1.465 . S
C2119 C2118 1.396 . S
C2119 C2120 1.399 . S
C2120 H2106 0.929 . S
C2120 C2119 1.399 . S
C2120 C2121 1.385 . S
C2121 H2107 0.931 . S
C2121 C2120 1.385 . S
C2121 C2122 1.389 . S
C2122 C2121 1.389 . S
C2122 C2123 1.387 . S
C2123 H2108 0.930 . S
C2123 C2118 1.390 . S
C2123 C2122 1.387 . S
H2124 C2136 0.930 . S
H2125 C2138 0.930 . S
H2126 C2139 0.930 . S
H2127 C2143 0.959 . S
H2128 C2143 0.959 . S
H2129 C2143 0.961 . S
H2130 C2144 0.960 . S
H2131 C2144 0.961 . S
H2132 C2144 0.959 . S
H2133 C2147 0.929 . S
H2134 C2148 0.931 . S
H2135 C2150 0.930 . S
C2136 H2124 0.930 . S
C2136 C2137 1.399 . S
C2136 C2141 1.399 . S
C2137 C2136 1.399 . S
C2137 C2138 1.376 . S
C2138 H2125 0.930 . S
C2138 C2137 1.376 . S
C2138 C2139 1.388 . S
C2139 H2126 0.930 . S
C2139 C2138 1.388 . S
C2139 C2140 1.390 . S
C2140 C2139 1.390 . S
C2140 C2141 1.394 . S
C2140 C2146 1.465 . S
C2141 C2136 1.399 . S
C2141 C2140 1.394 . S
C2141 C2142 1.516 . S
C2142 C2141 1.516 . S
C2142 C2143 1.502 . S
C2142 C2144 1.561 . S
C2142 C2145 1.526 . S
C2143 H2127 0.959 . S
C2143 H2128 0.959 . S
C2143 H2129 0.961 . S
C2143 C2142 1.502 . S
C2144 H2130 0.960 . S
C2144 H2131 0.961 . S
C2144 H2132 0.959 . S
C2144 C2142 1.561 . S
C2145 C2142 1.526 . S
C2145 C2146 1.396 . S
C2145 C2150 1.390 . S
C2146 C2140 1.465 . S
C2146 C2145 1.396 . S
C2146 C2147 1.399 . S
C2147 H2133 0.929 . S
C2147 C2146 1.399 . S
C2147 C2148 1.385 . S
C2148 H2134 0.931 . S
C2148 C2147 1.385 . S
C2148 C2149 1.389 . S
C2149 C2148 1.389 . S
C2149 C2150 1.387 . S
C2150 H2135 0.930 . S
C2150 C2145 1.390 . S
C2150 C2149 1.387 . S
H2151 C2163 0.930 . S
H2152 C2165 0.930 . S
H2153 C2166 0.930 . S
H2154 C2170 0.959 . S
H2155 C2170 0.959 . S
H2156 C2170 0.961 . S
H2157 C2171 0.960 . S
H2158 C2171 0.961 . S
H2159 C2171 0.959 . S
H2160 C2174 0.929 . S
H2161 C2175 0.931 . S
H2162 C2177 0.930 . S
C2163 H2151 0.930 . S
C2163 C2164 1.399 . S
C2163 C2168 1.399 . S
C2164 C2163 1.399 . S
C2164 C2165 1.376 . S
C2165 H2152 0.930 . S
C2165 C2164 1.376 . S
C2165 C2166 1.388 . S
C2166 H2153 0.930 . S
C2166 C2165 1.388 . S
C2166 C2167 1.390 . S
C2167 C2166 1.390 . S
C2167 C2168 1.394 . S
C2167 C2173 1.465 . S
C2168 C2163 1.399 . S
C2168 C2167 1.394 . S
C2168 C2169 1.516 . S
C2169 C2168 1.516 . S
C2169 C2170 1.502 . S
C2169 C2171 1.561 . S
C2169 C2172 1.526 . S
C2170 H2154 0.959 . S
C2170 H2155 0.959 . S
C2170 H2156 0.961 . S
C2170 C2169 1.502 . S
C2171 H2157 0.960 . S
C2171 H2158 0.961 . S
C2171 H2159 0.959 . S
C2171 C2169 1.561 . S
C2172 C2169 1.526 . S
C2172 C2173 1.396 . S
C2172 C2177 1.390 . S
C2173 C2167 1.465 . S
C2173 C2172 1.396 . S
C2173 C2174 1.399 . S
C2174 H2160 0.929 . S
C2174 C2173 1.399 . S
C2174 C2175 1.385 . S
C2175 H2161 0.931 . S
C2175 C2174 1.385 . S
C2175 C2176 1.389 . S
C2176 C2175 1.389 . S
C2176 C2177 1.387 . S
C2177 H2162 0.930 . S
C2177 C2172 1.390 . S
C2177 C2176 1.387 . S
H2178 C2190 0.930 . S
H2179 C2192 0.930 . S
H2180 C2193 0.930 . S
H2181 C2197 0.959 . S
H2182 C2197 0.959 . S
H2183 C2197 0.961 . S
H2184 C2198 0.960 . S
H2185 C2198 0.961 . S
H2186 C2198 0.959 . S
H2187 C2201 0.929 . S
H2188 C2202 0.931 . S
H2189 C2204 0.930 . S
C2190 H2178 0.930 . S
C2190 C2191 1.399 . S
C2190 C2195 1.399 . S
C2191 C2190 1.399 . S
C2191 C2192 1.376 . S
C2192 H2179 0.930 . S
C2192 C2191 1.376 . S
C2192 C2193 1.388 . S
C2193 H2180 0.930 . S
C2193 C2192 1.388 . S
C2193 C2194 1.390 . S
C2194 C2193 1.390 . S
C2194 C2195 1.394 . S
C2194 C2200 1.465 . S
C2195 C2190 1.399 . S
C2195 C2194 1.394 . S
C2195 C2196 1.516 . S
C2196 C2195 1.516 . S
C2196 C2197 1.502 . S
C2196 C2198 1.561 . S
C2196 C2199 1.526 . S
C2197 H2181 0.959 . S
C2197 H2182 0.959 . S
C2197 H2183 0.961 . S
C2197 C2196 1.502 . S
C2198 H2184 0.960 . S
C2198 H2185 0.961 . S
C2198 H2186 0.959 . S
C2198 C2196 1.561 . S
C2199 C2196 1.526 . S
C2199 C2200 1.396 . S
C2199 C2204 1.390 . S
C2200 C2194 1.465 . S
C2200 C2199 1.396 . S
C2200 C2201 1.399 . S
C2201 H2187 0.929 . S
C2201 C2200 1.399 . S
C2201 C2202 1.385 . S
C2202 H2188 0.931 . S
C2202 C2201 1.385 . S
C2202 C2203 1.389 . S
C2203 C2202 1.389 . S
C2203 C2204 1.387 . S
C2204 H2189 0.930 . S
C2204 C2199 1.390 . S
C2204 C2203 1.387 . S
H2205 C2217 0.930 . S
H2206 C2219 0.930 . S
H2207 C2220 0.930 . S
H2208 C2224 0.959 . S
H2209 C2224 0.959 . S
H2210 C2224 0.961 . S
H2211 C2225 0.960 . S
H2212 C2225 0.961 . S
H2213 C2225 0.959 . S
H2214 C2228 0.929 . S
H2215 C2229 0.931 . S
H2216 C2231 0.930 . S
C2217 H2205 0.930 . S
C2217 C2218 1.399 . S
C2217 C2222 1.399 . S
C2218 C2217 1.399 . S
C2218 C2219 1.376 . S
C2219 H2206 0.930 . S
C2219 C2218 1.376 . S
C2219 C2220 1.388 . S
C2220 H2207 0.930 . S
C2220 C2219 1.388 . S
C2220 C2221 1.390 . S
C2221 C2220 1.390 . S
C2221 C2222 1.394 . S
C2221 C2227 1.465 . S
C2222 C2217 1.399 . S
C2222 C2221 1.394 . S
C2222 C2223 1.516 . S
C2223 C2222 1.516 . S
C2223 C2224 1.502 . S
C2223 C2225 1.561 . S
C2223 C2226 1.526 . S
C2224 H2208 0.959 . S
C2224 H2209 0.959 . S
C2224 H2210 0.961 . S
C2224 C2223 1.502 . S
C2225 H2211 0.960 . S
C2225 H2212 0.961 . S
C2225 H2213 0.959 . S
C2225 C2223 1.561 . S
C2226 C2223 1.526 . S
C2226 C2227 1.396 . S
C2226 C2231 1.390 . S
C2227 C2221 1.465 . S
C2227 C2226 1.396 . S
C2227 C2228 1.399 . S
C2228 H2214 0.929 . S
C2228 C2227 1.399 . S
C2228 C2229 1.385 . S
C2229 H2215 0.931 . S
C2229 C2228 1.385 . S
C2229 C2230 1.389 . S
C2230 C2229 1.389 . S
C2230 C2231 1.387 . S
C2231 H2216 0.930 . S
C2231 C2226 1.390 . S
C2231 C2230 1.387 . S
H2232 C2244 0.930 . S
H2233 C2246 0.930 . S
H2234 C2247 0.930 . S
H2235 C2251 0.959 . S
H2236 C2251 0.959 . S
H2237 C2251 0.961 . S
H2238 C2252 0.960 . S
H2239 C2252 0.961 . S
H2240 C2252 0.959 . S
H2241 C2255 0.929 . S
H2242 C2256 0.931 . S
H2243 C2258 0.930 . S
C2244 H2232 0.930 . S
C2244 C2245 1.399 . S
C2244 C2249 1.399 . S
C2245 C2244 1.399 . S
C2245 C2246 1.376 . S
C2246 H2233 0.930 . S
C2246 C2245 1.376 . S
C2246 C2247 1.388 . S
C2247 H2234 0.930 . S
C2247 C2246 1.388 . S
C2247 C2248 1.390 . S
C2248 C2247 1.390 . S
C2248 C2249 1.394 . S
C2248 C2254 1.465 . S
C2249 C2244 1.399 . S
C2249 C2248 1.394 . S
C2249 C2250 1.516 . S
C2250 C2249 1.516 . S
C2250 C2251 1.502 . S
C2250 C2252 1.561 . S
C2250 C2253 1.526 . S
C2251 H2235 0.959 . S
C2251 H2236 0.959 . S
C2251 H2237 0.961 . S
C2251 C2250 1.502 . S
C2252 H2238 0.960 . S
C2252 H2239 0.961 . S
C2252 H2240 0.959 . S
C2252 C2250 1.561 . S
C2253 C2250 1.526 . S
C2253 C2254 1.396 . S
C2253 C2258 1.390 . S
C2254 C2248 1.465 . S
C2254 C2253 1.396 . S
C2254 C2255 1.399 . S
C2255 H2241 0.929 . S
C2255 C2254 1.399 . S
C2255 C2256 1.385 . S
C2256 H2242 0.931 . S
C2256 C2255 1.385 . S
C2256 C2257 1.389 . S
C2257 C2256 1.389 . S
C2257 C2258 1.387 . S
C2258 H2243 0.930 . S
C2258 C2253 1.390 . S
C2258 C2257 1.387 . S
H2259 C2271 0.930 . S
H2260 C2273 0.930 . S
H2261 C2274 0.930 . S
H2262 C2278 0.959 . S
H2263 C2278 0.959 . S
H2264 C2278 0.961 . S
H2265 C2279 0.960 . S
H2266 C2279 0.961 . S
H2267 C2279 0.959 . S
H2268 C2282 0.929 . S
H2269 C2283 0.931 . S
H2270 C2285 0.930 . S
C2271 H2259 0.930 . S
C2271 C2272 1.399 . S
C2271 C2276 1.399 . S
C2272 C2271 1.399 . S
C2272 C2273 1.376 . S
C2273 H2260 0.930 . S
C2273 C2272 1.376 . S
C2273 C2274 1.388 . S
C2274 H2261 0.930 . S
C2274 C2273 1.388 . S
C2274 C2275 1.390 . S
C2275 C2274 1.390 . S
C2275 C2276 1.394 . S
C2275 C2281 1.465 . S
C2276 C2271 1.399 . S
C2276 C2275 1.394 . S
C2276 C2277 1.516 . S
C2277 C2276 1.516 . S
C2277 C2278 1.502 . S
C2277 C2279 1.561 . S
C2277 C2280 1.526 . S
C2278 H2262 0.959 . S
C2278 H2263 0.959 . S
C2278 H2264 0.961 . S
C2278 C2277 1.502 . S
C2279 H2265 0.960 . S
C2279 H2266 0.961 . S
C2279 H2267 0.959 . S
C2279 C2277 1.561 . S
C2280 C2277 1.526 . S
C2280 C2281 1.396 . S
C2280 C2285 1.390 . S
C2281 C2275 1.465 . S
C2281 C2280 1.396 . S
C2281 C2282 1.399 . S
C2282 H2268 0.929 . S
C2282 C2281 1.399 . S
C2282 C2283 1.385 . S
C2283 H2269 0.931 . S
C2283 C2282 1.385 . S
C2283 C2284 1.389 . S
C2284 C2283 1.389 . S
C2284 C2285 1.387 . S
C2285 H2270 0.930 . S
C2285 C2280 1.390 . S
C2285 C2284 1.387 . S
H2286 C2298 0.930 . S
H2287 C2300 0.930 . S
H2288 C2301 0.930 . S
H2289 C2305 0.959 . S
H2290 C2305 0.959 . S
H2291 C2305 0.961 . S
H2292 C2306 0.960 . S
H2293 C2306 0.961 . S
H2294 C2306 0.959 . S
H2295 C2309 0.929 . S
H2296 C2310 0.931 . S
H2297 C2312 0.930 . S
C2298 H2286 0.930 . S
C2298 C2299 1.399 . S
C2298 C2303 1.399 . S
C2299 C2298 1.399 . S
C2299 C2300 1.376 . S
C2300 H2287 0.930 . S
C2300 C2299 1.376 . S
C2300 C2301 1.388 . S
C2301 H2288 0.930 . S
C2301 C2300 1.388 . S
C2301 C2302 1.390 . S
C2302 C2301 1.390 . S
C2302 C2303 1.394 . S
C2302 C2308 1.465 . S
C2303 C2298 1.399 . S
C2303 C2302 1.394 . S
C2303 C2304 1.516 . S
C2304 C2303 1.516 . S
C2304 C2305 1.502 . S
C2304 C2306 1.561 . S
C2304 C2307 1.526 . S
C2305 H2289 0.959 . S
C2305 H2290 0.959 . S
C2305 H2291 0.961 . S
C2305 C2304 1.502 . S
C2306 H2292 0.960 . S
C2306 H2293 0.961 . S
C2306 H2294 0.959 . S
C2306 C2304 1.561 . S
C2307 C2304 1.526 . S
C2307 C2308 1.396 . S
C2307 C2312 1.390 . S
C2308 C2302 1.465 . S
C2308 C2307 1.396 . S
C2308 C2309 1.399 . S
C2309 H2295 0.929 . S
C2309 C2308 1.399 . S
C2309 C2310 1.385 . S
C2310 H2296 0.931 . S
C2310 C2309 1.385 . S
C2310 C2311 1.389 . S
C2311 C2310 1.389 . S
C2311 C2312 1.387 . S
C2312 H2297 0.930 . S
C2312 C2307 1.390 . S
C2312 C2311 1.387 . S
H2313 C2325 0.930 . S
H2314 C2327 0.930 . S
H2315 C2328 0.930 . S
H2316 C2332 0.959 . S
H2317 C2332 0.959 . S
H2318 C2332 0.961 . S
H2319 C2333 0.960 . S
H2320 C2333 0.961 . S
H2321 C2333 0.959 . S
H2322 C2336 0.929 . S
H2323 C2337 0.931 . S
H2324 C2339 0.930 . S
C2325 H2313 0.930 . S
C2325 C2326 1.399 . S
C2325 C2330 1.399 . S
C2326 C2325 1.399 . S
C2326 C2327 1.376 . S
C2327 H2314 0.930 . S
C2327 C2326 1.376 . S
C2327 C2328 1.388 . S
C2328 H2315 0.930 . S
C2328 C2327 1.388 . S
C2328 C2329 1.390 . S
C2329 C2328 1.390 . S
C2329 C2330 1.394 . S
C2329 C2335 1.465 . S
C2330 C2325 1.399 . S
C2330 C2329 1.394 . S
C2330 C2331 1.516 . S
C2331 C2330 1.516 . S
C2331 C2332 1.502 . S
C2331 C2333 1.561 . S
C2331 C2334 1.526 . S
C2332 H2316 0.959 . S
C2332 H2317 0.959 . S
C2332 H2318 0.961 . S
C2332 C2331 1.502 . S
C2333 H2319 0.960 . S
C2333 H2320 0.961 . S
C2333 H2321 0.959 . S
C2333 C2331 1.561 . S
C2334 C2331 1.526 . S
C2334 C2335 1.396 . S
C2334 C2339 1.390 . S
C2335 C2329 1.465 . S
C2335 C2334 1.396 . S
C2335 C2336 1.399 . S
C2336 H2322 0.929 . S
C2336 C2335 1.399 . S
C2336 C2337 1.385 . S
C2337 H2323 0.931 . S
C2337 C2336 1.385 . S
C2337 C2338 1.389 . S
C2338 C2337 1.389 . S
C2338 C2339 1.387 . S
C2339 H2324 0.930 . S
C2339 C2334 1.390 . S
C2339 C2338 1.387 . S
H2340 C2352 0.930 . S
H2341 C2354 0.930 . S
H2342 C2355 0.930 . S
H2343 C2359 0.959 . S
H2344 C2359 0.959 . S
H2345 C2359 0.961 . S
H2346 C2360 0.960 . S
H2347 C2360 0.961 . S
H2348 C2360 0.959 . S
H2349 C2363 0.929 . S
H2350 C2364 0.931 . S
H2351 C2366 0.930 . S
C2352 H2340 0.930 . S
C2352 C2353 1.399 . S
C2352 C2357 1.399 . S
C2353 C2352 1.399 . S
C2353 C2354 1.376 . S
C2354 H2341 0.930 . S
C2354 C2353 1.376 . S
C2354 C2355 1.388 . S
C2355 H2342 0.930 . S
C2355 C2354 1.388 . S
C2355 C2356 1.390 . S
C2356 C2355 1.390 . S
C2356 C2357 1.394 . S
C2356 C2362 1.465 . S
C2357 C2352 1.399 . S
C2357 C2356 1.394 . S
C2357 C2358 1.516 . S
C2358 C2357 1.516 . S
C2358 C2359 1.502 . S
C2358 C2360 1.561 . S
C2358 C2361 1.526 . S
C2359 H2343 0.959 . S
C2359 H2344 0.959 . S
C2359 H2345 0.961 . S
C2359 C2358 1.502 . S
C2360 H2346 0.960 . S
C2360 H2347 0.961 . S
C2360 H2348 0.959 . S
C2360 C2358 1.561 . S
C2361 C2358 1.526 . S
C2361 C2362 1.396 . S
C2361 C2366 1.390 . S
C2362 C2356 1.465 . S
C2362 C2361 1.396 . S
C2362 C2363 1.399 . S
C2363 H2349 0.929 . S
C2363 C2362 1.399 . S
C2363 C2364 1.385 . S
C2364 H2350 0.931 . S
C2364 C2363 1.385 . S
C2364 C2365 1.389 . S
C2365 C2364 1.389 . S
C2365 C2366 1.387 . S
C2366 H2351 0.930 . S
C2366 C2361 1.390 . S
C2366 C2365 1.387 . S
H2367 C2379 0.930 . S
H2368 C2381 0.930 . S
H2369 C2382 0.930 . S
H2370 C2386 0.959 . S
H2371 C2386 0.959 . S
H2372 C2386 0.961 . S
H2373 C2387 0.960 . S
H2374 C2387 0.961 . S
H2375 C2387 0.959 . S
H2376 C2390 0.929 . S
H2377 C2391 0.931 . S
H2378 C2393 0.930 . S
C2379 H2367 0.930 . S
C2379 C2380 1.399 . S
C2379 C2384 1.399 . S
C2380 C2379 1.399 . S
C2380 C2381 1.376 . S
C2381 H2368 0.930 . S
C2381 C2380 1.376 . S
C2381 C2382 1.388 . S
C2382 H2369 0.930 . S
C2382 C2381 1.388 . S
C2382 C2383 1.390 . S
C2383 C2382 1.390 . S
C2383 C2384 1.394 . S
C2383 C2389 1.465 . S
C2384 C2379 1.399 . S
C2384 C2383 1.394 . S
C2384 C2385 1.516 . S
C2385 C2384 1.516 . S
C2385 C2386 1.502 . S
C2385 C2387 1.561 . S
C2385 C2388 1.526 . S
C2386 H2370 0.959 . S
C2386 H2371 0.959 . S
C2386 H2372 0.961 . S
C2386 C2385 1.502 . S
C2387 H2373 0.960 . S
C2387 H2374 0.961 . S
C2387 H2375 0.959 . S
C2387 C2385 1.561 . S
C2388 C2385 1.526 . S
C2388 C2389 1.396 . S
C2388 C2393 1.390 . S
C2389 C2383 1.465 . S
C2389 C2388 1.396 . S
C2389 C2390 1.399 . S
C2390 H2376 0.929 . S
C2390 C2389 1.399 . S
C2390 C2391 1.385 . S
C2391 H2377 0.931 . S
C2391 C2390 1.385 . S
C2391 C2392 1.389 . S
C2392 C2391 1.389 . S
C2392 C2393 1.387 . S
C2393 H2378 0.930 . S
C2393 C2388 1.390 . S
C2393 C2392 1.387 . S
H2394 C2406 0.930 . S
H2395 C2408 0.930 . S
H2396 C2409 0.930 . S
H2397 C2413 0.959 . S
H2398 C2413 0.959 . S
H2399 C2413 0.961 . S
H2400 C2414 0.960 . S
H2401 C2414 0.961 . S
H2402 C2414 0.959 . S
H2403 C2417 0.929 . S
H2404 C2418 0.931 . S
H2405 C2420 0.930 . S
C2406 H2394 0.930 . S
C2406 C2407 1.399 . S
C2406 C2411 1.399 . S
C2407 C2406 1.399 . S
C2407 C2408 1.376 . S
C2408 H2395 0.930 . S
C2408 C2407 1.376 . S
C2408 C2409 1.388 . S
C2409 H2396 0.930 . S
C2409 C2408 1.388 . S
C2409 C2410 1.390 . S
C2410 C2409 1.390 . S
C2410 C2411 1.394 . S
C2410 C2416 1.465 . S
C2411 C2406 1.399 . S
C2411 C2410 1.394 . S
C2411 C2412 1.516 . S
C2412 C2411 1.516 . S
C2412 C2413 1.502 . S
C2412 C2414 1.561 . S
C2412 C2415 1.526 . S
C2413 H2397 0.959 . S
C2413 H2398 0.959 . S
C2413 H2399 0.961 . S
C2413 C2412 1.502 . S
C2414 H2400 0.960 . S
C2414 H2401 0.961 . S
C2414 H2402 0.959 . S
C2414 C2412 1.561 . S
C2415 C2412 1.526 . S
C2415 C2416 1.396 . S
C2415 C2420 1.390 . S
C2416 C2410 1.465 . S
C2416 C2415 1.396 . S
C2416 C2417 1.399 . S
C2417 H2403 0.929 . S
C2417 C2416 1.399 . S
C2417 C2418 1.385 . S
C2418 H2404 0.931 . S
C2418 C2417 1.385 . S
C2418 C2419 1.389 . S
C2419 C2418 1.389 . S
C2419 C2420 1.387 . S
C2420 H2405 0.930 . S
C2420 C2415 1.390 . S
C2420 C2419 1.387 . S
H2421 C2433 0.930 . S
H2422 C2435 0.930 . S
H2423 C2436 0.930 . S
H2424 C2440 0.959 . S
H2425 C2440 0.959 . S
H2426 C2440 0.961 . S
H2427 C2441 0.960 . S
H2428 C2441 0.961 . S
H2429 C2441 0.959 . S
H2430 C2444 0.929 . S
H2431 C2445 0.931 . S
H2432 C2447 0.930 . S
C2433 H2421 0.930 . S
C2433 C2434 1.399 . S
C2433 C2438 1.399 . S
C2434 C2433 1.399 . S
C2434 C2435 1.376 . S
C2435 H2422 0.930 . S
C2435 C2434 1.376 . S
C2435 C2436 1.388 . S
C2436 H2423 0.930 . S
C2436 C2435 1.388 . S
C2436 C2437 1.390 . S
C2437 C2436 1.390 . S
C2437 C2438 1.394 . S
C2437 C2443 1.465 . S
C2438 C2433 1.399 . S
C2438 C2437 1.394 . S
C2438 C2439 1.516 . S
C2439 C2438 1.516 . S
C2439 C2440 1.502 . S
C2439 C2441 1.561 . S
C2439 C2442 1.526 . S
C2440 H2424 0.959 . S
C2440 H2425 0.959 . S
C2440 H2426 0.961 . S
C2440 C2439 1.502 . S
C2441 H2427 0.960 . S
C2441 H2428 0.961 . S
C2441 H2429 0.959 . S
C2441 C2439 1.561 . S
C2442 C2439 1.526 . S
C2442 C2443 1.396 . S
C2442 C2447 1.390 . S
C2443 C2437 1.465 . S
C2443 C2442 1.396 . S
C2443 C2444 1.399 . S
C2444 H2430 0.929 . S
C2444 C2443 1.399 . S
C2444 C2445 1.385 . S
C2445 H2431 0.931 . S
C2445 C2444 1.385 . S
C2445 C2446 1.389 . S
C2446 C2445 1.389 . S
C2446 C2447 1.387 . S
C2447 H2432 0.930 . S
C2447 C2442 1.390 . S
C2447 C2446 1.387 . S
H2448 C2460 0.930 . S
H2449 C2462 0.930 . S
H2450 C2463 0.930 . S
H2451 C2467 0.959 . S
H2452 C2467 0.959 . S
H2453 C2467 0.961 . S
H2454 C2468 0.960 . S
H2455 C2468 0.961 . S
H2456 C2468 0.959 . S
H2457 C2471 0.929 . S
H2458 C2472 0.931 . S
H2459 C2474 0.930 . S
C2460 H2448 0.930 . S
C2460 C2461 1.399 . S
C2460 C2465 1.399 . S
C2461 C2460 1.399 . S
C2461 C2462 1.376 . S
C2462 H2449 0.930 . S
C2462 C2461 1.376 . S
C2462 C2463 1.388 . S
C2463 H2450 0.930 . S
C2463 C2462 1.388 . S
C2463 C2464 1.390 . S
C2464 C2463 1.390 . S
C2464 C2465 1.394 . S
C2464 C2470 1.465 . S
C2465 C2460 1.399 . S
C2465 C2464 1.394 . S
C2465 C2466 1.516 . S
C2466 C2465 1.516 . S
C2466 C2467 1.502 . S
C2466 C2468 1.561 . S
C2466 C2469 1.526 . S
C2467 H2451 0.959 . S
C2467 H2452 0.959 . S
C2467 H2453 0.961 . S
C2467 C2466 1.502 . S
C2468 H2454 0.960 . S
C2468 H2455 0.961 . S
C2468 H2456 0.959 . S
C2468 C2466 1.561 . S
C2469 C2466 1.526 . S
C2469 C2470 1.396 . S
C2469 C2474 1.390 . S
C2470 C2464 1.465 . S
C2470 C2469 1.396 . S
C2470 C2471 1.399 . S
C2471 H2457 0.929 . S
C2471 C2470 1.399 . S
C2471 C2472 1.385 . S
C2472 H2458 0.931 . S
C2472 C2471 1.385 . S
C2472 C2473 1.389 . S
C2473 C2472 1.389 . S
C2473 C2474 1.387 . S
C2474 H2459 0.930 . S
C2474 C2469 1.390 . S
C2474 C2473 1.387 . S
H2475 C2487 0.930 . S
H2476 C2489 0.930 . S
H2477 C2490 0.930 . S
H2478 C2494 0.959 . S
H2479 C2494 0.959 . S
H2480 C2494 0.961 . S
H2481 C2495 0.960 . S
H2482 C2495 0.961 . S
H2483 C2495 0.959 . S
H2484 C2498 0.929 . S
H2485 C2499 0.931 . S
H2486 C2501 0.930 . S
C2487 H2475 0.930 . S
C2487 C2488 1.399 . S
C2487 C2492 1.399 . S
C2488 C2487 1.399 . S
C2488 C2489 1.376 . S
C2489 H2476 0.930 . S
C2489 C2488 1.376 . S
C2489 C2490 1.388 . S
C2490 H2477 0.930 . S
C2490 C2489 1.388 . S
C2490 C2491 1.390 . S
C2491 C2490 1.390 . S
C2491 C2492 1.394 . S
C2491 C2497 1.465 . S
C2492 C2487 1.399 . S
C2492 C2491 1.394 . S
C2492 C2493 1.516 . S
C2493 C2492 1.516 . S
C2493 C2494 1.502 . S
C2493 C2495 1.561 . S
C2493 C2496 1.526 . S
C2494 H2478 0.959 . S
C2494 H2479 0.959 . S
C2494 H2480 0.961 . S
C2494 C2493 1.502 . S
C2495 H2481 0.960 . S
C2495 H2482 0.961 . S
C2495 H2483 0.959 . S
C2495 C2493 1.561 . S
C2496 C2493 1.526 . S
C2496 C2497 1.396 . S
C2496 C2501 1.390 . S
C2497 C2491 1.465 . S
C2497 C2496 1.396 . S
C2497 C2498 1.399 . S
C2498 H2484 0.929 . S
C2498 C2497 1.399 . S
C2498 C2499 1.385 . S
C2499 H2485 0.931 . S
C2499 C2498 1.385 . S
C2499 C2500 1.389 . S
C2500 C2499 1.389 . S
C2500 C2501 1.387 . S
C2501 H2486 0.930 . S
C2501 C2496 1.390 . S
C2501 C2500 1.387 . S
H2502 C2514 0.930 . S
H2503 C2516 0.930 . S
H2504 C2517 0.930 . S
H2505 C2521 0.959 . S
H2506 C2521 0.959 . S
H2507 C2521 0.961 . S
H2508 C2522 0.960 . S
H2509 C2522 0.961 . S
H2510 C2522 0.959 . S
H2511 C2525 0.929 . S
H2512 C2526 0.931 . S
H2513 C2528 0.930 . S
C2514 H2502 0.930 . S
C2514 C2515 1.399 . S
C2514 C2519 1.399 . S
C2515 C2514 1.399 . S
C2515 C2516 1.376 . S
C2516 H2503 0.930 . S
C2516 C2515 1.376 . S
C2516 C2517 1.388 . S
C2517 H2504 0.930 . S
C2517 C2516 1.388 . S
C2517 C2518 1.390 . S
C2518 C2517 1.390 . S
C2518 C2519 1.394 . S
C2518 C2524 1.465 . S
C2519 C2514 1.399 . S
C2519 C2518 1.394 . S
C2519 C2520 1.516 . S
C2520 C2519 1.516 . S
C2520 C2521 1.502 . S
C2520 C2522 1.561 . S
C2520 C2523 1.526 . S
C2521 H2505 0.959 . S
C2521 H2506 0.959 . S
C2521 H2507 0.961 . S
C2521 C2520 1.502 . S
C2522 H2508 0.960 . S
C2522 H2509 0.961 . S
C2522 H2510 0.959 . S
C2522 C2520 1.561 . S
C2523 C2520 1.526 . S
C2523 C2524 1.396 . S
C2523 C2528 1.390 . S
C2524 C2518 1.465 . S
C2524 C2523 1.396 . S
C2524 C2525 1.399 . S
C2525 H2511 0.929 . S
C2525 C2524 1.399 . S
C2525 C2526 1.385 . S
C2526 H2512 0.931 . S
C2526 C2525 1.385 . S
C2526 C2527 1.389 . S
C2527 C2526 1.389 . S
C2527 C2528 1.387 . S
C2528 H2513 0.930 . S
C2528 C2523 1.390 . S
C2528 C2527 1.387 . S
H2529 C2541 0.930 . S
H2530 C2543 0.930 . S
H2531 C2544 0.930 . S
H2532 C2548 0.959 . S
H2533 C2548 0.959 . S
H2534 C2548 0.961 . S
H2535 C2549 0.960 . S
H2536 C2549 0.961 . S
H2537 C2549 0.959 . S
H2538 C2552 0.929 . S
H2539 C2553 0.931 . S
H2540 C2555 0.930 . S
C2541 H2529 0.930 . S
C2541 C2542 1.399 . S
C2541 C2546 1.399 . S
C2542 C2541 1.399 . S
C2542 C2543 1.376 . S
C2543 H2530 0.930 . S
C2543 C2542 1.376 . S
C2543 C2544 1.388 . S
C2544 H2531 0.930 . S
C2544 C2543 1.388 . S
C2544 C2545 1.390 . S
C2545 C2544 1.390 . S
C2545 C2546 1.394 . S
C2545 C2551 1.465 . S
C2546 C2541 1.399 . S
C2546 C2545 1.394 . S
C2546 C2547 1.516 . S
C2547 C2546 1.516 . S
C2547 C2548 1.502 . S
C2547 C2549 1.561 . S
C2547 C2550 1.526 . S
C2548 H2532 0.959 . S
C2548 H2533 0.959 . S
C2548 H2534 0.961 . S
C2548 C2547 1.502 . S
C2549 H2535 0.960 . S
C2549 H2536 0.961 . S
C2549 H2537 0.959 . S
C2549 C2547 1.561 . S
C2550 C2547 1.526 . S
C2550 C2551 1.396 . S
C2550 C2555 1.390 . S
C2551 C2545 1.465 . S
C2551 C2550 1.396 . S
C2551 C2552 1.399 . S
C2552 H2538 0.929 . S
C2552 C2551 1.399 . S
C2552 C2553 1.385 . S
C2553 H2539 0.931 . S
C2553 C2552 1.385 . S
C2553 C2554 1.389 . S
C2554 C2553 1.389 . S
C2554 C2555 1.387 . S
C2555 H2540 0.930 . S
C2555 C2550 1.390 . S
C2555 C2554 1.387 . S
C1111 C253 1.443 . S
C1123 C398 1.366 . S
C1138 C272 1.507 . S
C1150 C482 1.470 . S
C1165 C234 1.431 . S
C1177 C576 1.457 . S
C1192 C215 1.457 . S
C1204 C492 1.443 1_556 S
C1231 C566 1.431 . S
C1219 C177 1.470 . S
C1246 C196 1.395 . S
C1258 C408 1.419 1_556 S
C1285 C409 1.458 . S
C1273 C220 1.439 . S
C1312 C493 1.523 . S
C1300 C182 1.436 . S
C1327 C201 1.495 . S
C1339 C585 1.479 . S
C1354 C258 1.463 . S
C1366 C501 1.455 . S
C1381 C277 1.462 . S
C1393 C577 1.473 . S
C1420 C417 1.490 . S
C1408 C239 1.400 . S
C1447 C650 1.434 . S
C1435 C25 1.472 . S
C1462 C44 1.505 . S
C1474 C734 1.477 . S
C1489 C6 1.430 . S
C1501 C828 1.459 . S
C1516 C329 1.421 . S
C1528 C744 1.454 . S
C1543 C291 1.470 . S
C1555 C818 1.435 . S
C1570 C310 1.427 . S
C1582 C660 1.417 . S
C1597 C334 1.453 . S
C1609 C661 1.518 . S
C1624 C296 1.483 . S
C1636 C745 1.538 . S
C1663 C837 1.477 . S
C1651 C315 1.498 . S
C1678 C30 1.415 1_565 S
C1690 C753 1.512 . S
C1717 C829 1.497 . S
C1705 C49 1.414 1_455 S
C1732 C11 1.381 . S
C1744 C669 1.499 . S
C1771 C902 1.434 . S
C1759 C139 1.472 . S
C1786 C158 1.495 . S
C1798 C986 1.461 . S
C1825 C1080 1.462 . S
C1813 C120 1.429 . S
C1852 C996 1.450 . S
C1840 C101 1.421 . S
C1879 C1070 1.361 . S
C1867 C63 1.448 . S
C1894 C82 1.394 . S
C1906 C912 1.420 . S
C1921 C106 1.417 1_655 S
C1933 C913 1.479 . S
C1948 C68 1.441 . S
C1960 C997 1.510 . S
C1987 C1089 1.522 . S
C1975 C87 1.437 1_545 S
C2002 C144 1.401 . S
C2014 C1005 1.504 . S
C2029 C163 1.470 . S
C2041 C1081 1.464 . S
C2056 C125 1.383 . S
C2068 C921 1.499 . S
C2083 C287 1.669 . S
C2095 C405 1.533 . S
C2122 C489 1.576 . S
C2110 C306 1.686 . S
C2137 C325 1.631 . S
C2149 C582 1.504 . S
C2164 C116 1.656 . S
C2176 C498 1.520 . S
C2191 C135 1.691 . S
C2203 C573 1.575 . S
C2230 C414 1.389 . S
C2218 C154 1.585 . S
C2245 C59 1.619 . S
C2257 C657 1.497 . S
C2272 C78 1.736 . S
C2284 C741 1.597 . S
C2299 C97 1.648 . S
C2311 C834 1.515 . S
C2326 C230 1.664 . S
C2338 C750 1.525 . S
C2365 C825 1.561 . S
C2353 C249 1.650 . S
C2380 C268 1.634 . S
C2392 C666 1.434 . S
C2407 C173 1.624 . S
C2419 C909 1.483 . S
C2434 C192 1.684 . S
C2446 C993 1.551 . S
C2473 C1086 1.515 . S
C2461 C211 1.649 . S
C2488 C2 1.688 . S
C2500 C1002 1.403 . S
C2515 C21 1.641 . S
C2527 C1077 1.529 . S
C2542 C40 1.583 . S
C2554 C918 1.398 . S
