# Generated by pormake.
# Topology ptr, (4,4)-cn, num edge types: 1
# Building blocks:
#     Node 0, Type 0, BuildingBlock: QUQFOY_clean_sbu_1, # of connection points: 4
#     Node 1, Type 0, BuildingBlock: QUQFOY_clean_sbu_1, # of connection points: 4
#     Node 2, Type 0, BuildingBlock: QUQFOY_clean_sbu_1, # of connection points: 4
#     Node 3, Type 0, BuildingBlock: QUQFOY_clean_sbu_1, # of connection points: 4
#     Node 4, Type 0, BuildingBlock: QUQFOY_clean_sbu_1, # of connection points: 4
#     Node 5, Type 0, BuildingBlock: QUQFOY_clean_sbu_1, # of connection points: 4
#     Node 6, Type 0, BuildingBlock: QUQFOY_clean_sbu_1, # of connection points: 4
#     Node 7, Type 0, BuildingBlock: QUQFOY_clean_sbu_1, # of connection points: 4
#     Node 8, Type 0, BuildingBlock: QUQFOY_clean_sbu_1, # of connection points: 4
#     Node 9, Type 0, BuildingBlock: QUQFOY_clean_sbu_1, # of connection points: 4
#     Node 10, Type 0, BuildingBlock: QUQFOY_clean_sbu_1, # of connection points: 4
#     Node 11, Type 0, BuildingBlock: QUQFOY_clean_sbu_1, # of connection points: 4
#     Node 12, Type 0, BuildingBlock: QUQFOY_clean_sbu_1, # of connection points: 4
#     Node 13, Type 0, BuildingBlock: QUQFOY_clean_sbu_1, # of connection points: 4
#     Node 14, Type 0, BuildingBlock: QUQFOY_clean_sbu_1, # of connection points: 4
#     Node 15, Type 0, BuildingBlock: QUQFOY_clean_sbu_1, # of connection points: 4
#     Node 16, Type 0, BuildingBlock: QUQFOY_clean_sbu_1, # of connection points: 4
#     Node 17, Type 0, BuildingBlock: QUQFOY_clean_sbu_1, # of connection points: 4
#     Node 18, Type 1, BuildingBlock: MIFKUJ_clean_linker_1, # of connection points: 4
#     Node 19, Type 1, BuildingBlock: MIFKUJ_clean_linker_1, # of connection points: 4
#     Node 20, Type 1, BuildingBlock: MIFKUJ_clean_linker_1, # of connection points: 4
#     Node 21, Type 1, BuildingBlock: MIFKUJ_clean_linker_1, # of connection points: 4
#     Node 22, Type 1, BuildingBlock: MIFKUJ_clean_linker_1, # of connection points: 4
#     Node 23, Type 1, BuildingBlock: MIFKUJ_clean_linker_1, # of connection points: 4
#     Node 24, Type 1, BuildingBlock: MIFKUJ_clean_linker_1, # of connection points: 4
#     Node 25, Type 1, BuildingBlock: MIFKUJ_clean_linker_1, # of connection points: 4
#     Node 26, Type 1, BuildingBlock: MIFKUJ_clean_linker_1, # of connection points: 4
#     Node 27, Type 1, BuildingBlock: MIFKUJ_clean_linker_1, # of connection points: 4
#     Node 28, Type 1, BuildingBlock: MIFKUJ_clean_linker_1, # of connection points: 4
#     Node 29, Type 1, BuildingBlock: MIFKUJ_clean_linker_1, # of connection points: 4
#     Node 30, Type 1, BuildingBlock: MIFKUJ_clean_linker_1, # of connection points: 4
#     Node 31, Type 1, BuildingBlock: MIFKUJ_clean_linker_1, # of connection points: 4
#     Node 32, Type 1, BuildingBlock: MIFKUJ_clean_linker_1, # of connection points: 4
#     Node 33, Type 1, BuildingBlock: MIFKUJ_clean_linker_1, # of connection points: 4
#     Node 34, Type 1, BuildingBlock: MIFKUJ_clean_linker_1, # of connection points: 4
#     Node 35, Type 1, BuildingBlock: MIFKUJ_clean_linker_1, # of connection points: 4
#     Edge 36, Type (0, 1), BuildingBlock: MIFKUJ_clean_linker_0, # of connection points: 2
#     Edge 37, Type (0, 1), BuildingBlock: MIFKUJ_clean_linker_0, # of connection points: 2
#     Edge 38, Type (0, 1), BuildingBlock: MIFKUJ_clean_linker_0, # of connection points: 2
#     Edge 39, Type (0, 1), BuildingBlock: MIFKUJ_clean_linker_0, # of connection points: 2
#     Edge 40, Type (0, 1), BuildingBlock: MIFKUJ_clean_linker_0, # of connection points: 2
#     Edge 41, Type (0, 1), BuildingBlock: MIFKUJ_clean_linker_0, # of connection points: 2
#     Edge 42, Type (0, 1), BuildingBlock: MIFKUJ_clean_linker_0, # of connection points: 2
#     Edge 43, Type (0, 1), BuildingBlock: MIFKUJ_clean_linker_0, # of connection points: 2
#     Edge 44, Type (0, 1), BuildingBlock: MIFKUJ_clean_linker_0, # of connection points: 2
#     Edge 45, Type (0, 1), BuildingBlock: MIFKUJ_clean_linker_0, # of connection points: 2
#     Edge 46, Type (0, 1), BuildingBlock: MIFKUJ_clean_linker_0, # of connection points: 2
#     Edge 47, Type (0, 1), BuildingBlock: MIFKUJ_clean_linker_0, # of connection points: 2
#     Edge 48, Type (0, 1), BuildingBlock: MIFKUJ_clean_linker_0, # of connection points: 2
#     Edge 49, Type (0, 1), BuildingBlock: MIFKUJ_clean_linker_0, # of connection points: 2
#     Edge 50, Type (0, 1), BuildingBlock: MIFKUJ_clean_linker_0, # of connection points: 2
#     Edge 51, Type (0, 1), BuildingBlock: MIFKUJ_clean_linker_0, # of connection points: 2
#     Edge 52, Type (0, 1), BuildingBlock: MIFKUJ_clean_linker_0, # of connection points: 2
#     Edge 53, Type (0, 1), BuildingBlock: MIFKUJ_clean_linker_0, # of connection points: 2
#     Edge 54, Type (0, 1), BuildingBlock: MIFKUJ_clean_linker_0, # of connection points: 2
#     Edge 55, Type (0, 1), BuildingBlock: MIFKUJ_clean_linker_0, # of connection points: 2
#     Edge 56, Type (0, 1), BuildingBlock: MIFKUJ_clean_linker_0, # of connection points: 2
#     Edge 57, Type (0, 1), BuildingBlock: MIFKUJ_clean_linker_0, # of connection points: 2
#     Edge 58, Type (0, 1), BuildingBlock: MIFKUJ_clean_linker_0, # of connection points: 2
#     Edge 59, Type (0, 1), BuildingBlock: MIFKUJ_clean_linker_0, # of connection points: 2
#     Edge 60, Type (0, 1), BuildingBlock: MIFKUJ_clean_linker_0, # of connection points: 2
#     Edge 61, Type (0, 1), BuildingBlock: MIFKUJ_clean_linker_0, # of connection points: 2
#     Edge 62, Type (0, 1), BuildingBlock: MIFKUJ_clean_linker_0, # of connection points: 2
#     Edge 63, Type (0, 1), BuildingBlock: MIFKUJ_clean_linker_0, # of connection points: 2
#     Edge 64, Type (0, 1), BuildingBlock: MIFKUJ_clean_linker_0, # of connection points: 2
#     Edge 65, Type (0, 1), BuildingBlock: MIFKUJ_clean_linker_0, # of connection points: 2
#     Edge 66, Type (0, 1), BuildingBlock: MIFKUJ_clean_linker_0, # of connection points: 2
#     Edge 67, Type (0, 1), BuildingBlock: MIFKUJ_clean_linker_0, # of connection points: 2
#     Edge 68, Type (0, 1), BuildingBlock: MIFKUJ_clean_linker_0, # of connection points: 2
#     Edge 69, Type (0, 1), BuildingBlock: MIFKUJ_clean_linker_0, # of connection points: 2
#     Edge 70, Type (0, 1), BuildingBlock: MIFKUJ_clean_linker_0, # of connection points: 2
#     Edge 71, Type (0, 1), BuildingBlock: MIFKUJ_clean_linker_0, # of connection points: 2
#     Edge 72, Type (0, 1), BuildingBlock: MIFKUJ_clean_linker_0, # of connection points: 2
#     Edge 73, Type (0, 1), BuildingBlock: MIFKUJ_clean_linker_0, # of connection points: 2
#     Edge 74, Type (0, 1), BuildingBlock: MIFKUJ_clean_linker_0, # of connection points: 2
#     Edge 75, Type (0, 1), BuildingBlock: MIFKUJ_clean_linker_0, # of connection points: 2
#     Edge 76, Type (0, 1), BuildingBlock: MIFKUJ_clean_linker_0, # of connection points: 2
#     Edge 77, Type (0, 1), BuildingBlock: MIFKUJ_clean_linker_0, # of connection points: 2
#     Edge 78, Type (0, 1), BuildingBlock: MIFKUJ_clean_linker_0, # of connection points: 2
#     Edge 79, Type (0, 1), BuildingBlock: MIFKUJ_clean_linker_0, # of connection points: 2
#     Edge 80, Type (0, 1), BuildingBlock: MIFKUJ_clean_linker_0, # of connection points: 2
#     Edge 81, Type (0, 1), BuildingBlock: MIFKUJ_clean_linker_0, # of connection points: 2
#     Edge 82, Type (0, 1), BuildingBlock: MIFKUJ_clean_linker_0, # of connection points: 2
#     Edge 83, Type (0, 1), BuildingBlock: MIFKUJ_clean_linker_0, # of connection points: 2
#     Edge 84, Type (0, 1), BuildingBlock: MIFKUJ_clean_linker_0, # of connection points: 2
#     Edge 85, Type (0, 1), BuildingBlock: MIFKUJ_clean_linker_0, # of connection points: 2
#     Edge 86, Type (0, 1), BuildingBlock: MIFKUJ_clean_linker_0, # of connection points: 2
#     Edge 87, Type (0, 1), BuildingBlock: MIFKUJ_clean_linker_0, # of connection points: 2
#     Edge 88, Type (0, 1), BuildingBlock: MIFKUJ_clean_linker_0, # of connection points: 2
#     Edge 89, Type (0, 1), BuildingBlock: MIFKUJ_clean_linker_0, # of connection points: 2
#     Edge 90, Type (0, 1), BuildingBlock: MIFKUJ_clean_linker_0, # of connection points: 2
#     Edge 91, Type (0, 1), BuildingBlock: MIFKUJ_clean_linker_0, # of connection points: 2
#     Edge 92, Type (0, 1), BuildingBlock: MIFKUJ_clean_linker_0, # of connection points: 2
#     Edge 93, Type (0, 1), BuildingBlock: MIFKUJ_clean_linker_0, # of connection points: 2
#     Edge 94, Type (0, 1), BuildingBlock: MIFKUJ_clean_linker_0, # of connection points: 2
#     Edge 95, Type (0, 1), BuildingBlock: MIFKUJ_clean_linker_0, # of connection points: 2
#     Edge 96, Type (0, 1), BuildingBlock: MIFKUJ_clean_linker_0, # of connection points: 2
#     Edge 97, Type (0, 1), BuildingBlock: MIFKUJ_clean_linker_0, # of connection points: 2
#     Edge 98, Type (0, 1), BuildingBlock: MIFKUJ_clean_linker_0, # of connection points: 2
#     Edge 99, Type (0, 1), BuildingBlock: MIFKUJ_clean_linker_0, # of connection points: 2
#     Edge 100, Type (0, 1), BuildingBlock: MIFKUJ_clean_linker_0, # of connection points: 2
#     Edge 101, Type (0, 1), BuildingBlock: MIFKUJ_clean_linker_0, # of connection points: 2
#     Edge 102, Type (0, 1), BuildingBlock: MIFKUJ_clean_linker_0, # of connection points: 2
#     Edge 103, Type (0, 1), BuildingBlock: MIFKUJ_clean_linker_0, # of connection points: 2
#     Edge 104, Type (0, 1), BuildingBlock: MIFKUJ_clean_linker_0, # of connection points: 2
#     Edge 105, Type (0, 1), BuildingBlock: MIFKUJ_clean_linker_0, # of connection points: 2
#     Edge 106, Type (0, 1), BuildingBlock: MIFKUJ_clean_linker_0, # of connection points: 2
#     Edge 107, Type (0, 1), BuildingBlock: MIFKUJ_clean_linker_0, # of connection points: 2
# Relax obj value: 0.012
# Max RMSD: 0.044
# Mean RMSD: 0.040
data_MOF--net-ptr--node1-QUQFOY_clean_sbu_1--node2-MIFKUJ_clean_linker_1--edge1-MIFKUJ_clean_linker_0
_symmetry_space_group_name_H-M    P1
_symmetry_Int_Tables_number       1
_symmetry_cell_setting            triclinic
loop_
_symmetry_equiv_pos_as_xyz
'x, y, z'
_cell_length_a     114.18881
_cell_length_b     114.15728
_cell_length_c     78.747585
_cell_angle_alpha  90.092529
_cell_angle_beta   89.887208
_cell_angle_gamma 119.94033
loop_
_atom_site_label
_atom_site_type_symbol
_atom_site_fract_x
_atom_site_fract_y
_atom_site_fract_z
_atom_type_partial_charge
O0 O 0.00875 0.37373 0.04172 0.0
Cd1 Cd 0.01667 0.36829 0.02162 0.0
Cd2 Cd 0.98949 0.35474 0.01208 0.0
O3 O 0.98718 0.3629 0.03455 0.0
O4 O 0.03529 0.37372 0.02947 0.0
O5 O 0.01986 0.35249 0.02437 0.0
C6 C 0.0319 0.36113 0.02945 0.0
C7 C 0.97424 0.3322 0.00495 0.0
C8 C 0.99658 0.37057 0.04469 0.0
C9 C 0.00966 0.37633 0.98841 0.0
O10 O 0.99745 0.36756 0.99158 0.0
O11 O 0.01904 0.37816 0.99865 0.0
O12 O 0.97084 0.3414 0.00449 0.0
O13 O 0.98629 0.3357 0.0101 0.0
O14 O 0.6278 0.63469 0.04259 0.0
Cd15 Cd 0.6349 0.64842 0.02279 0.0
Cd16 Cd 0.64802 0.63449 0.01474 0.0
O17 O 0.63979 0.62473 0.03745 0.0
O18 O 0.63113 0.66308 0.02956 0.0
O19 O 0.65183 0.66627 0.02707 0.0
C20 C 0.64399 0.67103 0.03091 0.0
C21 C 0.67057 0.64168 0.00783 0.0
C22 C 0.63132 0.62608 0.04654 0.0
C23 C 0.62735 0.63326 0.98977 0.0
O24 O 0.6352 0.62893 0.99421 0.0
O25 O 0.62619 0.64179 0.999 0.0
O26 O 0.66145 0.62907 0.00785 0.0
O27 O 0.667 0.65032 0.01242 0.0
O28 O 0.37613 0.00987 0.9914 0.0
Cd29 Cd 0.37028 0.01715 0.01171 0.0
Cd30 Cd 0.35661 0.98983 0.01994 0.0
O31 O 0.36434 0.98801 0.99678 0.0
O32 O 0.37546 0.03588 0.00456 0.0
O33 O 0.35428 0.02002 0.00908 0.0
C34 C 0.3628 0.03223 0.00441 0.0
C35 C 0.33408 0.97471 0.0273 0.0
C36 C 0.37253 0.99775 0.98739 0.0
C37 C 0.37831 0.00933 0.04413 0.0
O38 O 0.36969 0.99719 0.04033 0.0
O39 O 0.37997 0.01903 0.0346 0.0
O40 O 0.34311 0.97108 0.02706 0.0
O41 O 0.33772 0.98692 0.0227 0.0
O42 O 0.99331 0.62881 0.99498 0.0
Cd43 Cd 0.98868 0.63732 0.01518 0.0
Cd44 Cd 0.01573 0.65079 0.01844 0.0
O45 O 0.01532 0.64275 0.99468 0.0
O46 O 0.96963 0.63273 0.01108 0.0
O47 O 0.98681 0.65368 0.01047 0.0
C48 C 0.97403 0.64541 0.00851 0.0
C49 C 0.02994 0.67367 0.02465 0.0
C50 C 0.0048 0.63298 0.9881 0.0
C51 C 0.99958 0.6308 0.04585 0.0
O52 O 0.01109 0.63795 0.03895 0.0
O53 O 0.9891 0.63004 0.03912 0.0
O54 O 0.03467 0.66563 0.02227 0.0
O55 O 0.01709 0.66884 0.0228 0.0
O56 O 0.37694 0.36919 0.99332 0.0
Cd57 Cd 0.37054 0.35587 0.01342 0.0
Cd58 Cd 0.35749 0.37012 0.02215 0.0
O59 O 0.36588 0.37997 0.99939 0.0
O60 O 0.37504 0.3417 0.00675 0.0
O61 O 0.35404 0.33753 0.00976 0.0
C62 C 0.36226 0.33326 0.00581 0.0
C63 C 0.33506 0.36337 0.02923 0.0
C64 C 0.37379 0.37813 0.98977 0.0
C65 C 0.37843 0.3711 0.04651 0.0
O66 O 0.37014 0.37506 0.04282 0.0
O67 O 0.37995 0.3631 0.03667 0.0
O68 O 0.34435 0.37592 0.02914 0.0
O69 O 0.33837 0.35456 0.02455 0.0
O70 O 0.62744 0.99127 0.03878 0.0
Cd71 Cd 0.63525 0.98542 0.01903 0.0
Cd72 Cd 0.64922 0.01279 0.01339 0.0
O73 O 0.64079 0.01334 0.03657 0.0
O74 O 0.63089 0.96663 0.0246 0.0
O75 O 0.6518 0.98391 0.02382 0.0
C76 C 0.64364 0.97122 0.02671 0.0
C77 C 0.67177 0.02849 0.00693 0.0
C78 C 0.63144 0.00315 0.04427 0.0
C79 C 0.62892 0.99477 0.98684 0.0
O80 O 0.63676 0.00664 0.99237 0.0
O81 O 0.62732 0.98454 0.99516 0.0
O82 O 0.66263 0.03194 0.00781 0.0
O83 O 0.66825 0.01613 0.01058 0.0
O84 O 0.67642 0.70793 0.37342 0.0
Cd85 Cd 0.68255 0.70058 0.3533 0.0
Cd86 Cd 0.65527 0.68771 0.3469 0.0
O87 O 0.65434 0.69512 0.37056 0.0
O88 O 0.7014 0.70546 0.35933 0.0
O89 O 0.68479 0.68432 0.35723 0.0
C90 C 0.69732 0.69274 0.36064 0.0
C91 C 0.63997 0.66529 0.3394 0.0
C92 C 0.6645 0.70403 0.37873 0.0
C93 C 0.67402 0.70853 0.32151 0.0
O94 O 0.662 0.7012 0.3269 0.0
O95 O 0.68389 0.709 0.32957 0.0
O96 O 0.63632 0.67429 0.34051 0.0
O97 O 0.65233 0.66891 0.34318 0.0
O98 O 0.29498 0.96861 0.37345 0.0
Cd99 Cd 0.30198 0.98181 0.35309 0.0
Cd100 Cd 0.31513 0.96779 0.3461 0.0
O101 O 0.30718 0.95875 0.36924 0.0
O102 O 0.29826 0.99665 0.35901 0.0
O103 O 0.31893 0.99975 0.35677 0.0
C104 C 0.31113 0.00462 0.36023 0.0
C105 C 0.33765 0.97502 0.33897 0.0
C106 C 0.29865 0.96024 0.37802 0.0
C107 C 0.29424 0.96563 0.32086 0.0
O108 O 0.3021 0.96143 0.32576 0.0
O109 O 0.29318 0.9745 0.32948 0.0
O110 O 0.32867 0.96237 0.33967 0.0
O111 O 0.33397 0.98368 0.34305 0.0
O112 O 0.04506 0.34527 0.32953 0.0
Cd113 Cd 0.03796 0.35179 0.34941 0.0
Cd114 Cd 0.02402 0.32437 0.35567 0.0
O115 O 0.03166 0.32325 0.33216 0.0
O116 O 0.04327 0.37067 0.34285 0.0
O117 O 0.02198 0.35445 0.3453 0.0
C118 C 0.03062 0.36683 0.34144 0.0
C119 C 1.00151 0.30929 0.3631 0.0
C120 C 0.04088 0.33333 0.32416 0.0
C121 C 0.04491 0.34278 0.38146 0.0
O122 O 0.0371 0.33084 0.3761 0.0
O123 O 0.0462 0.3529 0.37316 0.0
O124 O 0.01038 0.30547 0.36204 0.0
O125 O 0.00528 0.32166 0.35916 0.0
O126 O 0.66409 0.96301 0.32576 0.0
Cd127 Cd 0.65528 0.96732 0.34587 0.0
Cd128 Cd 0.68254 0.98139 0.35635 0.0
O129 O 0.68549 0.97387 0.3337 0.0
O130 O 0.63676 0.96144 0.33717 0.0
O131 O 0.65131 0.98266 0.34374 0.0
C132 C 0.63962 0.97387 0.33782 0.0
C133 C 0.69773 0.00372 0.3645 0.0
C134 C 0.67637 0.96645 0.3231 0.0
C135 C 0.66197 0.95891 0.37896 0.0
O136 O 0.67412 0.96811 0.37636 0.0
O137 O 0.65272 0.95685 0.36838 0.0
O138 O 0.70103 0.99446 0.36479 0.0
O139 O 0.68583 1.00044 0.35895 0.0
O140 O 0.04391 0.70215 0.32691 0.0
Cd141 Cd 0.03576 0.68892 0.34707 0.0
Cd142 Cd 0.0221 0.70241 0.35122 0.0
O143 O 0.02993 0.71021 0.32746 0.0
O144 O 0.04027 0.6744 0.34262 0.0
O145 O 0.01934 0.67076 0.34237 0.0
C146 C 0.02756 0.66619 0.34023 0.0
C147 C 0.99932 0.69407 0.35795 0.0
C148 C 0.03961 0.70951 0.32045 0.0
C149 C 0.04241 0.70606 0.37812 0.0
O150 O 0.03509 0.71037 0.37162 0.0
O151 O 0.04326 0.6965 0.371 0.0
O152 O 0.00754 0.70682 0.35584 0.0
O153 O 0.0039 0.68589 0.35547 0.0
O154 O 0.29562 0.32626 0.37625 0.0
Cd155 Cd 0.30259 0.32022 0.35575 0.0
Cd156 Cd 0.31685 0.34751 0.35068 0.0
O157 O 0.30944 0.34824 0.37448 0.0
O158 O 0.2972 0.30117 0.36139 0.0
O159 O 0.31852 0.31738 0.35922 0.0
C160 C 0.30985 0.30494 0.36272 0.0
C161 C 0.33956 0.36186 0.34368 0.0
C162 C 0.30008 0.33809 0.38219 0.0
C163 C 0.2957 0.3304 0.3246 0.0
O164 O 0.30368 0.34214 0.33043 0.0
O165 O 0.29434 0.31997 0.33223 0.0
O166 O 0.33133 0.3664 0.34568 0.0
O167 O 0.33502 0.34914 0.34628 0.0
O168 O 0.34303 0.04118 0.70826 0.0
Cd169 Cd 0.34941 0.03426 0.68795 0.0
Cd170 Cd 0.32216 0.02143 0.68163 0.0
O171 O 0.32097 0.02839 0.70547 0.0
O172 O 0.36838 0.04002 0.69453 0.0
O173 O 0.35273 0.01858 0.69135 0.0
C174 C 0.36497 0.02744 0.69543 0.0
C175 C 0.30792 0.99893 0.6737 0.0
C176 C 0.33114 0.03724 0.71367 0.0
C177 C 0.34065 0.04256 0.65656 0.0
O178 O 0.32865 0.03527 0.66204 0.0
O179 O 0.35054 0.04283 0.66436 0.0
O180 O 0.30342 0.00721 0.67552 0.0
O181 O 0.32053 0.0033 0.67697 0.0
O182 O 0.96029 0.30157 0.7049 0.0
Cd183 Cd 0.96917 0.31565 0.68576 0.0
Cd184 Cd 0.98292 0.3024 0.68111 0.0
O185 O 0.9746 0.29391 0.70447 0.0
O186 O 0.96526 0.33042 0.69133 0.0
O187 O 0.98588 0.33324 0.69166 0.0
C188 C 0.97798 0.33814 0.69424 0.0
C189 C 0.00584 0.31059 0.67531 0.0
C190 C 0.96461 0.29419 0.71122 0.0
C191 C 0.96336 0.29995 0.65367 0.0
O192 O 0.97046 0.29534 0.66006 0.0
O193 O 0.96232 0.30923 0.6613 0.0
O194 O 0.99734 0.29782 0.67636 0.0
O195 O 1.00142 0.31885 0.67825 0.0
O196 O 0.71106 0.6784 0.66318 0.0
Cd197 Cd 0.70182 0.6825 0.68301 0.0
Cd198 Cd 0.6882 0.65569 0.68507 0.0
O199 O 0.69604 0.65673 0.66095 0.0
O200 O 0.7055 0.70135 0.67934 0.0
O201 O 0.68507 0.68337 0.67748 0.0
C202 C 0.69282 0.69631 0.67607 0.0
C203 C 0.66526 0.64214 0.69148 0.0
C204 C 0.70642 0.66722 0.65532 0.0
C205 C 0.70762 0.67082 0.71328 0.0
O206 O 0.701 0.65961 0.70551 0.0
O207 O 0.70815 0.68141 0.70727 0.0
O208 O 0.67282 0.63693 0.68851 0.0
O209 O 0.6706 0.65508 0.69 0.0
O210 O 0.33279 0.29816 0.65705 0.0
Cd211 Cd 0.3243 0.30278 0.67724 0.0
Cd212 Cd 0.35148 0.31595 0.68777 0.0
O213 O 0.35414 0.3082 0.66512 0.0
O214 O 0.30599 0.29768 0.66845 0.0
O215 O 0.32107 0.31862 0.67554 0.0
C216 C 0.30931 0.31023 0.66945 0.0
C217 C 0.36698 0.33816 0.69602 0.0
C218 C 0.34494 0.3011 0.65445 0.0
C219 C 0.3304 0.29377 0.71025 0.0
O220 O 0.34267 0.30272 0.70774 0.0
O221 O 0.3213 0.29203 0.69961 0.0
O222 O 0.37002 0.32871 0.69633 0.0
O223 O 0.35519 0.33514 0.69036 0.0
O224 O 0.71079 0.03438 0.66053 0.0
Cd225 Cd 0.70308 0.02111 0.68057 0.0
Cd226 Cd 0.6892 0.03456 0.68608 0.0
O227 O 0.69764 0.04335 0.66281 0.0
O228 O 0.70751 0.00664 0.67546 0.0
O229 O 0.68657 0.00294 0.67621 0.0
C230 C 0.69476 0.9984 0.67351 0.0
C231 C 0.66638 0.02675 0.69205 0.0
C232 C 0.70688 0.04233 0.65504 0.0
C233 C 0.70962 0.03734 0.71253 0.0
O234 O 0.70162 0.04123 0.70717 0.0
O235 O 0.71123 0.02869 0.7042 0.0
O236 O 0.67503 0.03947 0.69091 0.0
O237 O 0.67058 0.01831 0.68907 0.0
O238 O 0.96217 0.661 0.70814 0.0
Cd239 Cd 0.96916 0.65481 0.68777 0.0
Cd240 Cd 0.98314 0.68214 0.68215 0.0
O241 O 0.97584 0.68299 0.70595 0.0
O242 O 0.96348 0.6357 0.69353 0.0
O243 O 0.98489 0.65168 0.69147 0.0
C244 C 0.97607 0.63927 0.69491 0.0
C245 C 0.0058 0.69662 0.67502 0.0
C246 C 0.96658 0.67289 0.71385 0.0
C247 C 0.96209 0.6646 0.65632 0.0
O248 O 0.96986 0.67645 0.66198 0.0
O249 O 0.96099 0.65435 0.66415 0.0
O250 O 0.99747 0.70104 0.67695 0.0
O251 O 1.00138 0.68392 0.67773 0.0
H252 H 0.14537 0.34347 0.16154 0.0
H253 H 0.12746 0.34303 0.17906 0.0
H254 H 0.11937 0.30488 0.20056 0.0
H255 H 0.13689 0.30513 0.1825 0.0
H256 H 0.16326 0.32305 0.18342 0.0
H257 H 0.15917 0.34676 0.12118 0.0
H258 H 0.1425 0.34933 0.10475 0.0
H259 H 0.11073 0.31169 0.12529 0.0
H260 H 0.12758 0.30892 0.14123 0.0
H261 H 0.17776 0.31229 0.11715 0.0
H262 H 0.19769 0.31584 0.10117 0.0
H263 H 0.22299 0.34998 0.13324 0.0
H264 H 0.20301 0.34664 0.14877 0.0
H265 H 0.16726 0.32887 0.12091 0.0
H266 H 0.18587 0.30835 0.15924 0.0
H267 H 0.20322 0.30808 0.17734 0.0
H268 H 0.20623 0.34182 0.20591 0.0
H269 H 0.18916 0.34219 0.18768 0.0
C270 C 0.14239 0.32426 0.17055 0.0
C271 C 0.13956 0.33488 0.16977 0.0
C272 C 0.12941 0.33469 0.17996 0.0
C273 C 0.12197 0.32393 0.19127 0.0
C274 C 0.12473 0.31323 0.19184 0.0
C275 C 0.13484 0.3134 0.18161 0.0
C276 C 0.15379 0.32481 0.1607 0.0
C277 C 0.16408 0.32422 0.16972 0.0
C278 C 0.15493 0.32652 0.14284 0.0
C279 C 0.14465 0.32771 0.13257 0.0
C280 C 0.14863 0.33899 0.12204 0.0
C281 C 0.13906 0.34052 0.11278 0.0
C282 C 0.12524 0.33079 0.11381 0.0
C283 C 0.12129 0.31934 0.12411 0.0
C284 C 0.1309 0.3178 0.13336 0.0
C285 C 0.18889 0.32911 0.13427 0.0
C286 C 0.18761 0.32054 0.12072 0.0
C287 C 0.19902 0.32252 0.11167 0.0
C288 C 0.21195 0.33319 0.11592 0.0
C289 C 0.21318 0.34176 0.1295 0.0
C290 C 0.20177 0.33977 0.13853 0.0
C291 C 0.17672 0.32711 0.14366 0.0
C292 C 0.16632 0.3275 0.13457 0.0
C293 C 0.17557 0.32547 0.16151 0.0
C294 C 0.18627 0.32534 0.17206 0.0
C295 C 0.19038 0.31576 0.16931 0.0
C296 C 0.20021 0.31555 0.17972 0.0
C297 C 0.20614 0.32497 0.19301 0.0
C298 C 0.20203 0.33457 0.19563 0.0
C299 C 0.19218 0.33472 0.18531 0.0
H300 H 0.70846 0.87367 0.17616 0.0
H301 H 0.71009 0.89189 0.19421 0.0
H302 H 0.66752 0.87733 0.18639 0.0
H303 H 0.66617 0.85953 0.16791 0.0
H304 H 0.69135 0.84579 0.18208 0.0
H305 H 0.70004 0.87768 0.13582 0.0
H306 H 0.69637 0.89377 0.11955 0.0
H307 H 0.65406 0.86372 0.1145 0.0
H308 H 0.65806 0.84755 0.13001 0.0
H309 H 0.65929 0.81089 0.12825 0.0
H310 H 0.65603 0.79084 0.11307 0.0
H311 H 0.69826 0.80353 0.12043 0.0
H312 H 0.70119 0.8232 0.13636 0.0
H313 H 0.67656 0.83829 0.12192 0.0
H314 H 0.66849 0.80527 0.16335 0.0
H315 H 0.67052 0.7888 0.18102 0.0
H316 H 0.70904 0.82025 0.1995 0.0
H317 H 0.70745 0.83666 0.18099 0.0
C318 C 0.68723 0.86533 0.17059 0.0
C319 C 0.69954 0.87454 0.17821 0.0
C320 C 0.70042 0.88489 0.18863 0.0
C321 C 0.68893 0.88611 0.19186 0.0
C322 C 0.67665 0.87692 0.18398 0.0
C323 C 0.67583 0.86668 0.17343 0.0
C324 C 0.68604 0.85376 0.16059 0.0
C325 C 0.68844 0.84426 0.1688 0.0
C326 C 0.68165 0.85155 0.14353 0.0
C327 C 0.67932 0.86144 0.13409 0.0
C328 C 0.68999 0.8746 0.13118 0.0
C329 C 0.68783 0.88382 0.12195 0.0
C330 C 0.6749 0.88011 0.11561 0.0
C331 C 0.66422 0.86691 0.1188 0.0
C332 C 0.66644 0.85765 0.12779 0.0
C333 C 0.68046 0.81849 0.13349 0.0
C334 C 0.66784 0.80934 0.12653 0.0
C335 C 0.66603 0.7979 0.11775 0.0
C336 C 0.67688 0.79548 0.11541 0.0
C337 C 0.68959 0.80485 0.12221 0.0
C338 C 0.69133 0.81618 0.13122 0.0
C339 C 0.68218 0.83036 0.1433 0.0
C340 C 0.67974 0.83987 0.13511 0.0
C341 C 0.68642 0.83247 0.16049 0.0
C342 C 0.68795 0.82223 0.17049 0.0
C343 C 0.67762 0.8086 0.17068 0.0
C344 C 0.67872 0.79919 0.18089 0.0
C345 C 0.68996 0.80329 0.19151 0.0
C346 C 0.70029 0.81687 0.19137 0.0
C347 C 0.69935 0.82623 0.18084 0.0
H348 H 0.13491 0.83449 0.1782 0.0
H349 H 0.11801 0.81736 0.19697 0.0
H350 H 0.12696 0.78764 0.17612 0.0
H351 H 0.14432 0.80497 0.15807 0.0
H352 H 0.16109 0.84403 0.17871 0.0
H353 H 0.12696 0.82287 0.13438 0.0
H354 H 0.11008 0.80382 0.11775 0.0
H355 H 0.14013 0.79271 0.10499 0.0
H356 H 0.15701 0.81214 0.12094 0.0
H357 H 0.19156 0.84771 0.1181 0.0
H358 H 0.21104 0.86433 0.102 0.0
H359 H 0.2051 0.89622 0.12222 0.0
H360 H 0.18515 0.87941 0.13761 0.0
H361 H 0.16602 0.83965 0.11683 0.0
H362 H 0.20054 0.86143 0.15885 0.0
H363 H 0.21758 0.8792 0.17676 0.0
H364 H 0.18711 0.88726 0.19715 0.0
H365 H 0.17031 0.87002 0.17846 0.0
C366 C 0.14083 0.82103 0.16656 0.0
C367 C 0.13317 0.82426 0.17759 0.0
C368 C 0.12341 0.8144 0.18823 0.0
C369 C 0.1211 0.80108 0.1881 0.0
C370 C 0.12857 0.79781 0.17673 0.0
C371 C 0.13838 0.80769 0.16618 0.0
C372 C 0.15207 0.83182 0.15649 0.0
C373 C 0.16203 0.84325 0.1651 0.0
C374 C 0.15355 0.83055 0.13885 0.0
C375 C 0.14323 0.81892 0.12889 0.0
C376 C 0.12987 0.81632 0.12794 0.0
C377 C 0.12021 0.80535 0.11849 0.0
C378 C 0.12366 0.79664 0.10992 0.0
C379 C 0.13709 0.7993 0.11104 0.0
C380 C 0.14677 0.81038 0.12027 0.0
C381 C 0.18693 0.86228 0.12925 0.0
C382 C 0.19438 0.85827 0.11898 0.0
C383 C 0.20564 0.86783 0.1099 0.0
C384 C 0.20977 0.88168 0.1109 0.0
C385 C 0.20218 0.88566 0.12102 0.0
C386 C 0.19084 0.87606 0.13001 0.0
C387 C 0.17507 0.85199 0.13905 0.0
C388 C 0.16502 0.84061 0.1304 0.0
C389 C 0.17357 0.85328 0.15672 0.0
C390 C 0.18414 0.86448 0.1671 0.0
C391 C 0.19758 0.86722 0.1669 0.0
C392 C 0.2073 0.87729 0.17735 0.0
C393 C 0.20376 0.88469 0.18849 0.0
C394 C 0.19029 0.88195 0.18857 0.0
C395 C 0.18062 0.87198 0.178 0.0
H396 H 0.29776 0.16975 0.85811 0.0
H397 H 0.29642 0.1863 0.83976 0.0
H398 H 0.33888 0.21422 0.84845 0.0
H399 H 0.33993 0.19781 0.86722 0.0
H400 H 0.31524 0.15906 0.85268 0.0
H401 H 0.30553 0.18209 0.89877 0.0
H402 H 0.30906 0.20194 0.91481 0.0
H403 H 0.35137 0.21427 0.92033 0.0
H404 H 0.3475 0.19402 0.9051 0.0
H405 H 0.34565 0.15767 0.91128 0.0
H406 H 0.34905 0.1415 0.92763 0.0
H407 H 0.31042 0.10918 0.91031 0.0
H408 H 0.30675 0.12556 0.89477 0.0
H409 H 0.32884 0.16625 0.91327 0.0
H410 H 0.33943 0.14354 0.87061 0.0
H411 H 0.33862 0.12579 0.85241 0.0
H412 H 0.29829 0.11508 0.83652 0.0
H413 H 0.29911 0.13279 0.85488 0.0
C414 C 0.31891 0.1826 0.86413 0.0
C415 C 0.30672 0.17952 0.85619 0.0
C416 C 0.30601 0.18897 0.84559 0.0
C417 C 0.31755 0.20164 0.8425 0.0
C418 C 0.32971 0.20472 0.85072 0.0
C419 C 0.33036 0.19531 0.86144 0.0
C420 C 0.31997 0.17222 0.87427 0.0
C421 C 0.31791 0.16043 0.86604 0.0
C422 C 0.32404 0.17437 0.89144 0.0
C423 C 0.32625 0.18659 0.9008 0.0
C424 C 0.31555 0.18909 0.90349 0.0
C425 C 0.31763 0.20052 0.91258 0.0
C426 C 0.33052 0.2098 0.91898 0.0
C427 C 0.34124 0.20727 0.916 0.0
C428 C 0.33908 0.19573 0.90717 0.0
C429 C 0.326 0.14287 0.90161 0.0
C430 C 0.33785 0.14712 0.9111 0.0
C431 C 0.33985 0.1378 0.92031 0.0
C432 C 0.33007 0.12396 0.92022 0.0
C433 C 0.31813 0.11974 0.91083 0.0
C434 C 0.31609 0.1291 0.90173 0.0
C435 C 0.32401 0.15287 0.89175 0.0
C436 C 0.32596 0.16467 0.89998 0.0
C437 C 0.32012 0.15083 0.87442 0.0
C438 C 0.31928 0.13943 0.86427 0.0
C439 C 0.3303 0.1372 0.86349 0.0
C440 C 0.32983 0.12705 0.85306 0.0
C441 C 0.31838 0.11902 0.84302 0.0
C442 C 0.3073 0.12117 0.84397 0.0
C443 C 0.30774 0.13127 0.85449 0.0
H444 H 0.83228 0.13017 0.85966 0.0
H445 H 0.81502 0.11257 0.84173 0.0
H446 H 0.78898 0.12946 0.85042 0.0
H447 H 0.80602 0.14645 0.86912 0.0
H448 H 0.84352 0.15926 0.85374 0.0
H449 H 0.81938 0.12477 0.89528 0.0
H450 H 0.79938 0.1082 0.9107 0.0
H451 H 0.79363 0.1404 0.93022 0.0
H452 H 0.81321 0.15682 0.914 0.0
H453 H 0.8471 0.19007 0.91406 0.0
H454 H 0.86367 0.2095 0.93023 0.0
H455 H 0.89556 0.20342 0.91032 0.0
H456 H 0.87877 0.18348 0.8949 0.0
H457 H 0.83885 0.16465 0.91543 0.0
H458 H 0.86137 0.199 0.87346 0.0
H459 H 0.87876 0.21568 0.85462 0.0
H460 H 0.88623 0.18479 0.83457 0.0
H461 H 0.86917 0.16822 0.85381 0.0
C462 C 0.82038 0.13954 0.86575 0.0
C463 C 0.82276 0.12993 0.85781 0.0
C464 C 0.8129 0.11994 0.84743 0.0
C465 C 0.80055 0.11956 0.84442 0.0
C466 C 0.7982 0.12919 0.8526 0.0
C467 C 0.80797 0.13901 0.86323 0.0
C468 C 0.83115 0.15062 0.87587 0.0
C469 C 0.84269 0.16036 0.86731 0.0
C470 C 0.82968 0.15216 0.89343 0.0
C471 C 0.81771 0.14205 0.90321 0.0
C472 C 0.8137 0.12825 0.90267 0.0
C473 C 0.80234 0.11878 0.91172 0.0
C474 C 0.79481 0.12292 0.92171 0.0
C475 C 0.79901 0.13679 0.92245 0.0
C476 C 0.81031 0.14623 0.9133 0.0
C477 C 0.86165 0.18534 0.90309 0.0
C478 C 0.85764 0.19284 0.91327 0.0
C479 C 0.86718 0.20407 0.92238 0.0
C480 C 0.88102 0.20816 0.9215 0.0
C481 C 0.885 0.20053 0.91144 0.0
C482 C 0.87542 0.1892 0.90243 0.0
C483 C 0.85136 0.17349 0.8933 0.0
C484 C 0.83984 0.16357 0.9019 0.0
C485 C 0.85276 0.17189 0.87566 0.0
C486 C 0.86402 0.18234 0.86524 0.0
C487 C 0.86698 0.19587 0.86536 0.0
C488 C 0.87689 0.20539 0.85454 0.0
C489 C 0.88381 0.2015 0.84313 0.0
C490 C 0.88097 0.18803 0.84316 0.0
C491 C 0.87123 0.17857 0.85415 0.0
H492 H 0.80196 0.65854 0.87548 0.0
H493 H 0.7839 0.65796 0.8581 0.0
H494 H 0.81233 0.69695 0.83706 0.0
H495 H 0.83021 0.6976 0.85473 0.0
H496 H 0.83966 0.68001 0.85322 0.0
H497 H 0.8132 0.65705 0.9166 0.0
H498 H 0.794 0.65431 0.93339 0.0
H499 H 0.79827 0.69093 0.91148 0.0
H500 H 0.81785 0.6939 0.89522 0.0
H501 H 0.86554 0.69311 0.91911 0.0
H502 H 0.88305 0.6913 0.9348 0.0
H503 H 0.87615 0.65727 0.90358 0.0
H504 H 0.85864 0.6591 0.88801 0.0
H505 H 0.83902 0.67561 0.9159 0.0
H506 H 0.87737 0.69698 0.87615 0.0
H507 H 0.89503 0.69831 0.85713 0.0
H508 H 0.86515 0.66253 0.83087 0.0
H509 H 0.84763 0.66146 0.84962 0.0
C510 C 0.81741 0.67817 0.86651 0.0
C511 C 0.80423 0.66705 0.86733 0.0
C512 C 0.79396 0.66668 0.85727 0.0
C513 C 0.79667 0.67741 0.84619 0.0
C514 C 0.80984 0.68861 0.84562 0.0
C515 C 0.8201 0.68895 0.85563 0.0
C516 C 0.82861 0.67824 0.87616 0.0
C517 C 0.83956 0.67912 0.86695 0.0
C518 C 0.82838 0.67694 0.89405 0.0
C519 C 0.81691 0.67561 0.90451 0.0
C520 C 0.81008 0.66456 0.91552 0.0
C521 C 0.799 0.66293 0.92499 0.0
C522 C 0.79449 0.67233 0.92369 0.0
C523 C 0.80151 0.68354 0.91289 0.0
C524 C 0.81263 0.68519 0.90344 0.0
C525 C 0.86088 0.67636 0.90223 0.0
C526 C 0.86781 0.68526 0.91564 0.0
C527 C 0.8778 0.6842 0.92463 0.0
C528 C 0.88105 0.67418 0.9204 0.0
C529 C 0.87407 0.66526 0.90697 0.0
C530 C 0.86404 0.66629 0.89805 0.0
C531 C 0.8501 0.67739 0.89293 0.0
C532 C 0.8392 0.67665 0.90219 0.0
C533 C 0.85023 0.6786 0.87503 0.0
C534 C 0.86118 0.67914 0.86427 0.0
C535 C 0.87468 0.68938 0.86636 0.0
C536 C 0.88476 0.69011 0.8555 0.0
C537 C 0.8815 0.6806 0.84235 0.0
C538 C 0.86799 0.6702 0.84059 0.0
C539 C 0.85796 0.66952 0.85137 0.0
H540 H 0.82478 0.68443 0.51189 0.0
H541 H 0.8073 0.68466 0.52947 0.0
H542 H 0.77934 0.64347 0.51429 0.0
H543 H 0.79676 0.64375 0.4959 0.0
H544 H 0.83333 0.66388 0.51561 0.0
H545 H 0.81657 0.68338 0.4756 0.0
H546 H 0.79931 0.68495 0.45915 0.0
H547 H 0.7889 0.64724 0.43422 0.0
H548 H 0.80601 0.64555 0.45115 0.0
H549 H 0.84375 0.64676 0.44962 0.0
H550 H 0.86293 0.64831 0.43365 0.0
H551 H 0.89027 0.68311 0.46344 0.0
H552 H 0.87114 0.68171 0.47909 0.0
H553 H 0.83376 0.66293 0.45264 0.0
H554 H 0.85238 0.64456 0.49268 0.0
H555 H 0.86865 0.64309 0.5115 0.0
H556 H 0.87585 0.67972 0.5368 0.0
H557 H 0.85951 0.68103 0.51813 0.0
C558 C 0.81204 0.66409 0.50262 0.0
C559 C 0.81482 0.67552 0.51224 0.0
C560 C 0.80481 0.67556 0.52243 0.0
C561 C 0.79187 0.664 0.52359 0.0
C562 C 0.78908 0.65262 0.51363 0.0
C563 C 0.79905 0.65271 0.50316 0.0
C564 C 0.82299 0.66383 0.49282 0.0
C565 C 0.83354 0.6638 0.50183 0.0
C566 C 0.82297 0.66337 0.47489 0.0
C567 C 0.81247 0.66426 0.46478 0.0
C568 C 0.81048 0.67537 0.46674 0.0
C569 C 0.8007 0.67632 0.45718 0.0
C570 C 0.79273 0.66622 0.44534 0.0
C571 C 0.79476 0.65511 0.44336 0.0
C572 C 0.80459 0.65418 0.45293 0.0
C573 C 0.85598 0.66396 0.46579 0.0
C574 C 0.85387 0.65475 0.45269 0.0
C575 C 0.86483 0.65564 0.44356 0.0
C576 C 0.87812 0.66576 0.44738 0.0
C577 C 0.88018 0.67504 0.4604 0.0
C578 C 0.86924 0.67422 0.46939 0.0
C579 C 0.84434 0.66311 0.47544 0.0
C580 C 0.83358 0.66288 0.46642 0.0
C581 C 0.84418 0.66338 0.49344 0.0
C582 C 0.85473 0.66291 0.50398 0.0
C583 C 0.8576 0.65236 0.50215 0.0
C584 C 0.86691 0.65154 0.51291 0.0
C585 C 0.87349 0.66123 0.52576 0.0
C586 C 0.87079 0.67194 0.52728 0.0
C587 C 0.86149 0.67274 0.51656 0.0
H588 H 0.3736 0.20473 0.50996 0.0
H589 H 0.37514 0.22286 0.52804 0.0
H590 H 0.333 0.20931 0.51831 0.0
H591 H 0.33176 0.19157 0.49974 0.0
H592 H 0.35625 0.17705 0.5148 0.0
H593 H 0.36486 0.211 0.47327 0.0
H594 H 0.36103 0.22744 0.45819 0.0
H595 H 0.32252 0.19513 0.44053 0.0
H596 H 0.32605 0.17887 0.4565 0.0
H597 H 0.32551 0.14309 0.45987 0.0
H598 H 0.32252 0.12339 0.44409 0.0
H599 H 0.3646 0.13586 0.45248 0.0
H600 H 0.36723 0.15515 0.46903 0.0
H601 H 0.34337 0.1707 0.45397 0.0
H602 H 0.33376 0.13701 0.4955 0.0
H603 H 0.33529 0.12041 0.51351 0.0
H604 H 0.37395 0.15151 0.53219 0.0
H605 H 0.37272 0.16803 0.5136 0.0
C606 C 0.3526 0.19686 0.50344 0.0
C607 C 0.36474 0.20577 0.51164 0.0
C608 C 0.36557 0.21608 0.52207 0.0
C609 C 0.35418 0.21757 0.52477 0.0
C610 C 0.34205 0.20867 0.51635 0.0
C611 C 0.34129 0.19845 0.50577 0.0
C612 C 0.35157 0.18546 0.49318 0.0
C613 C 0.35371 0.17578 0.5014 0.0
C614 C 0.34775 0.18363 0.47586 0.0
C615 C 0.34564 0.19368 0.46631 0.0
C616 C 0.35549 0.20747 0.46637 0.0
C617 C 0.35337 0.21686 0.45751 0.0
C618 C 0.34143 0.21266 0.44813 0.0
C619 C 0.33171 0.1988 0.44784 0.0
C620 C 0.33379 0.18944 0.45684 0.0
C621 C 0.34657 0.15055 0.46567 0.0
C622 C 0.33408 0.14155 0.45828 0.0
C623 C 0.33243 0.13031 0.44915 0.0
C624 C 0.34333 0.12795 0.44686 0.0
C625 C 0.35589 0.13713 0.45417 0.0
C626 C 0.35746 0.14825 0.46356 0.0
C627 C 0.34816 0.16234 0.47558 0.0
C628 C 0.34608 0.17205 0.46732 0.0
C629 C 0.35192 0.16415 0.49293 0.0
C630 C 0.35323 0.15379 0.50291 0.0
C631 C 0.34278 0.14022 0.50303 0.0
C632 C 0.34361 0.13074 0.51342 0.0
C633 C 0.35474 0.13469 0.52423 0.0
C634 C 0.36523 0.14822 0.52403 0.0
C635 C 0.36452 0.15765 0.51342 0.0
H636 H 0.80372 0.16781 0.51401 0.0
H637 H 0.78691 0.1508 0.53295 0.0
H638 H 0.79571 0.12093 0.51225 0.0
H639 H 0.81298 0.13817 0.49395 0.0
H640 H 0.83004 0.17734 0.51387 0.0
H641 H 0.79406 0.15341 0.47332 0.0
H642 H 0.77709 0.13322 0.45846 0.0
H643 H 0.80878 0.12724 0.43765 0.0
H644 H 0.8256 0.14708 0.45309 0.0
H645 H 0.85979 0.18192 0.45267 0.0
H646 H 0.87911 0.19919 0.43684 0.0
H647 H 0.87046 0.22968 0.45564 0.0
H648 H 0.85121 0.21233 0.4716 0.0
H649 H 0.83327 0.17288 0.45164 0.0
H650 H 0.86881 0.19493 0.49193 0.0
H651 H 0.88642 0.21294 0.50901 0.0
H652 H 0.85654 0.22094 0.53151 0.0
H653 H 0.83913 0.20341 0.51369 0.0
C654 C 0.80956 0.15427 0.50243 0.0
C655 C 0.80199 0.15758 0.51351 0.0
C656 C 0.79228 0.14779 0.52424 0.0
C657 C 0.78991 0.13445 0.52415 0.0
C658 C 0.79736 0.13112 0.51282 0.0
C659 C 0.80714 0.14094 0.50218 0.0
C660 C 0.8205 0.16497 0.49191 0.0
C661 C 0.8306 0.1765 0.5002 0.0
C662 C 0.82148 0.1636 0.47415 0.0
C663 C 0.81112 0.15169 0.46454 0.0
C664 C 0.79734 0.1477 0.46565 0.0
C665 C 0.78765 0.13621 0.457 0.0
C666 C 0.79154 0.12853 0.44691 0.0
C667 C 0.80538 0.13275 0.44553 0.0
C668 C 0.81504 0.14419 0.45423 0.0
C669 C 0.8541 0.19583 0.46345 0.0
C670 C 0.86199 0.19231 0.45327 0.0
C671 C 0.87302 0.20221 0.44418 0.0
C672 C 0.87637 0.21585 0.44497 0.0
C673 C 0.8683 0.21931 0.45495 0.0
C674 C 0.85727 0.2094 0.46404 0.0
C675 C 0.84273 0.18531 0.47361 0.0
C676 C 0.8326 0.17381 0.46528 0.0
C677 C 0.84179 0.18661 0.49139 0.0
C678 C 0.85264 0.19791 0.50132 0.0
C679 C 0.86609 0.20075 0.50027 0.0
C680 C 0.87614 0.21095 0.51024 0.0
C681 C 0.87293 0.21841 0.52171 0.0
C682 C 0.85945 0.21558 0.52265 0.0
C683 C 0.84944 0.20545 0.51258 0.0
H684 H 0.97127 0.50576 0.18693 0.0
H685 H 0.97144 0.52305 0.16852 0.0
H686 H 0.01083 0.55219 0.18785 0.0
H687 H 0.01088 0.53471 0.20551 0.0
H688 H 0.98724 0.49549 0.18544 0.0
H689 H 0.97593 0.51703 0.23064 0.0
H690 H 0.97836 0.53617 0.24732 0.0
H691 H 0.01986 0.54761 0.25821 0.0
H692 H 0.01704 0.52805 0.24222 0.0
H693 H 0.01623 0.4924 0.2442 0.0
H694 H 0.0193 0.47597 0.26038 0.0
H695 H 0.98111 0.44392 0.24149 0.0
H696 H 0.97771 0.46056 0.22621 0.0
H697 H 0.99898 0.50055 0.24662 0.0
H698 H 0.01096 0.48028 0.19996 0.0
H699 H 0.0096 0.46285 0.18068 0.0
H700 H 0.96746 0.44965 0.17147 0.0
H701 H 0.96916 0.46751 0.19016 0.0
C702 C 0.991 0.51892 0.19776 0.0
C703 C 0.9799 0.5159 0.18727 0.0
C704 C 0.97998 0.52584 0.17684 0.0
C705 C 0.99117 0.53904 0.17665 0.0
C706 C 1.00212 0.54211 0.18749 0.0
C707 C 1.00207 0.53215 0.19782 0.0
C708 C 0.99147 0.50805 0.20761 0.0
C709 C 0.98953 0.49647 0.19891 0.0
C710 C 0.99481 0.50946 0.22508 0.0
C711 C 0.99631 0.52112 0.23519 0.0
C712 C 0.98553 0.52366 0.23669 0.0
C713 C 0.98699 0.5347 0.24616 0.0
C714 C 0.99933 0.54355 0.25419 0.0
C715 C 0.01011 0.54093 0.25257 0.0
C716 C 0.00856 0.52978 0.24332 0.0
C717 C 0.99681 0.47776 0.23377 0.0
C718 C 0.00847 0.48184 0.24359 0.0
C719 C 0.01029 0.47238 0.25271 0.0
C720 C 1.00051 0.45854 0.25219 0.0
C721 C 0.98881 0.45447 0.24236 0.0
C722 C 0.98694 0.46398 0.23337 0.0
C723 C 0.99487 0.488 0.2244 0.0
C724 C 0.99654 0.49948 0.2332 0.0
C725 C 0.9913 0.4865 0.20699 0.0
C726 C 0.99016 0.47517 0.19651 0.0
C727 C 1.00141 0.47353 0.19388 0.0
C728 C 1.00057 0.46349 0.18289 0.0
C729 C 0.98842 0.4548 0.17438 0.0
C730 C 0.97707 0.45629 0.17745 0.0
C731 C 0.97797 0.46644 0.18826 0.0
H732 H 0.50127 0.46172 0.19556 0.0
H733 H 0.48466 0.44349 0.17763 0.0
H734 H 0.45677 0.45826 0.1856 0.0
H735 H 0.4732 0.47598 0.20407 0.0
H736 H 0.51174 0.48997 0.18923 0.0
H737 H 0.48962 0.4578 0.23529 0.0
H738 H 0.47019 0.44129 0.25171 0.0
H739 H 0.45735 0.4708 0.25871 0.0
H740 H 0.47716 0.48738 0.24297 0.0
H741 H 0.51287 0.52256 0.24716 0.0
H742 H 0.52896 0.5424 0.26319 0.0
H743 H 0.56158 0.53671 0.24519 0.0
H744 H 0.54532 0.51639 0.23012 0.0
H745 H 0.50486 0.49732 0.24968 0.0
H746 H 0.5237 0.5283 0.20244 0.0
H747 H 0.54053 0.54489 0.18316 0.0
H748 H 0.55785 0.51901 0.17645 0.0
H749 H 0.54043 0.50217 0.19499 0.0
C750 C 0.48842 0.47012 0.20124 0.0
C751 C 0.49149 0.46087 0.19359 0.0
C752 C 0.482 0.45052 0.18323 0.0
C753 C 0.46932 0.44936 0.18004 0.0
C754 C 0.46627 0.45859 0.18797 0.0
C755 C 0.47569 0.46881 0.1985 0.0
C756 C 0.4988 0.48174 0.21108 0.0
C757 C 0.5104 0.49146 0.20255 0.0
C758 C 0.49677 0.48391 0.22824 0.0
C759 C 0.48483 0.47381 0.23793 0.0
C760 C 0.4826 0.46068 0.2404 0.0
C761 C 0.47141 0.45122 0.24972 0.0
C762 C 0.46212 0.45465 0.25663 0.0
C763 C 0.46438 0.46783 0.25395 0.0
C764 C 0.47567 0.47732 0.24484 0.0
C765 C 0.52784 0.51801 0.23721 0.0
C766 C 0.52348 0.52553 0.24674 0.0
C767 C 0.53274 0.537 0.25577 0.0
C768 C 0.54664 0.54127 0.25545 0.0
C769 C 0.55098 0.53369 0.24592 0.0
C770 C 0.54168 0.52215 0.23704 0.0
C771 C 0.5179 0.50568 0.22783 0.0
C772 C 0.50634 0.49582 0.23642 0.0
C773 C 0.51983 0.5035 0.21059 0.0
C774 C 0.53084 0.51404 0.20014 0.0
C775 C 0.53121 0.52628 0.19688 0.0
C776 C 0.54093 0.53581 0.18591 0.0
C777 C 0.55062 0.53336 0.17811 0.0
C778 C 0.55042 0.52118 0.18186 0.0
C779 C 0.54053 0.51157 0.19259 0.0
H780 H 0.53659 0.03409 0.18644 0.0
H781 H 0.5533 0.03363 0.16753 0.0
H782 H 0.54385 0.99473 0.18793 0.0
H783 H 0.52664 0.99495 0.20614 0.0
H784 H 0.51057 0.0182 0.18608 0.0
H785 H 0.54537 0.02841 0.22661 0.0
H786 H 0.56206 0.02533 0.24246 0.0
H787 H 0.53001 0.98852 0.26418 0.0
H788 H 0.51337 0.9913 0.24785 0.0
H789 H 0.47963 0.99033 0.24561 0.0
H790 H 0.46001 0.98713 0.26177 0.0
H791 H 0.46588 0.02521 0.24277 0.0
H792 H 0.48599 0.02872 0.22747 0.0
H793 H 0.50517 0.00811 0.24772 0.0
H794 H 0.47277 0.99452 0.20015 0.0
H795 H 0.45656 0.99557 0.18094 0.0
H796 H 0.48389 0.03845 0.1742 0.0
H797 H 0.5003 0.03702 0.19262 0.0
C798 C 0.53039 0.0146 0.19783 0.0
C799 C 0.53816 0.02548 0.18689 0.0
C800 C 0.54782 0.02526 0.17618 0.0
C801 C 0.54996 0.01414 0.17616 0.0
C802 C 0.54237 0.00338 0.18742 0.0
C803 C 0.53262 0.00357 0.19803 0.0
C804 C 0.51934 0.0144 0.20813 0.0
C805 C 0.50956 0.01623 0.19963 0.0
C806 C 0.51783 0.01153 0.22578 0.0
C807 C 0.52806 0.00999 0.23578 0.0
C808 C 0.54191 0.01957 0.23459 0.0
C809 C 0.55146 0.01785 0.24371 0.0
C810 C 0.54732 0.00669 0.25454 0.0
C811 C 0.53347 0.99728 0.25604 0.0
C812 C 0.52395 0.99888 0.2467 0.0
C813 C 0.48423 0.00969 0.23511 0.0
C814 C 0.47674 0.99804 0.24499 0.0
C815 C 0.46541 0.99615 0.2541 0.0
C816 C 0.46124 0.00585 0.2535 0.0
C817 C 0.46882 0.01757 0.24367 0.0
C818 C 0.48024 0.0195 0.23468 0.0
C819 C 0.49633 0.0116 0.22555 0.0
C820 C 0.50631 0.01016 0.23419 0.0
C821 C 0.49807 0.01475 0.20804 0.0
C822 C 0.4877 0.01569 0.19778 0.0
C823 C 0.47518 0.00414 0.19459 0.0
C824 C 0.46588 0.00481 0.18366 0.0
C825 C 0.46886 0.0171 0.17584 0.0
C826 C 0.48131 0.02874 0.17959 0.0
C827 C 0.49068 0.02799 0.19026 0.0
H828 H 0.48972 0.01033 0.84816 0.0
H829 H 0.47204 0.00963 0.8664 0.0
H830 H 0.44294 0.97164 0.84361 0.0
H831 H 0.46082 0.97221 0.82585 0.0
H832 H 0.49785 0.99072 0.84801 0.0
H833 H 0.48906 0.01541 0.79949 0.0
H834 H 0.47279 0.01875 0.78323 0.0
H835 H 0.44739 0.97538 0.7783 0.0
H836 H 0.46425 0.97229 0.79368 0.0
H837 H 0.50898 0.97625 0.78095 0.0
H838 H 0.52828 0.97852 0.76456 0.0
H839 H 0.55528 0.01267 0.79551 0.0
H840 H 0.53602 0.01055 0.81158 0.0
H841 H 0.49898 0.99266 0.78505 0.0
H842 H 0.51662 0.97211 0.82497 0.0
H843 H 0.53392 0.97127 0.84259 0.0
H844 H 0.54251 0.00877 0.86659 0.0
H845 H 0.52521 0.00951 0.84909 0.0
C846 C 0.47655 0.99142 0.83547 0.0
C847 C 0.4795 0.00191 0.847 0.0
C848 C 0.46935 1.00153 0.85735 0.0
C849 C 0.45604 0.9906 0.85645 0.0
C850 C 0.45309 0.98017 0.84473 0.0
C851 C 0.46326 0.98056 0.83438 0.0
C852 C 0.48758 0.99142 0.82548 0.0
C853 C 0.49812 0.99114 0.83424 0.0
C854 C 0.48785 0.99184 0.80756 0.0
C855 C 0.47778 0.99362 0.79783 0.0
C856 C 0.47999 0.00665 0.79481 0.0
C857 C 0.47058 0.00851 0.78564 0.0
C858 C 0.45862 0.99734 0.77948 0.0
C859 C 0.45651 0.98425 0.78257 0.0
C860 C 0.46607 0.98243 0.79151 0.0
C861 C 0.52103 0.99306 0.79774 0.0
C862 C 0.51906 0.98423 0.7842 0.0
C863 C 0.53009 0.98554 0.77483 0.0
C864 C 0.54332 0.9957 0.77885 0.0
C865 C 0.54525 0.00457 0.79232 0.0
C866 C 0.53423 0.00334 0.80156 0.0
C867 C 0.50929 0.99179 0.80757 0.0
C868 C 0.49863 0.99193 0.7988 0.0
C869 C 0.50894 0.99129 0.82556 0.0
C870 C 0.51967 0.99089 0.83571 0.0
C871 C 0.52229 0.98017 0.83397 0.0
C872 C 0.53211 0.97967 0.84406 0.0
C873 C 0.53958 0.98998 0.8559 0.0
C874 C 0.53702 1.00077 0.85744 0.0
C875 C 0.52709 1.00116 0.84755 0.0
H876 H 0.03317 0.53535 0.84794 0.0
H877 H 0.03271 0.55228 0.86647 0.0
H878 H 0.99335 0.54186 0.84683 0.0
H879 H 0.99358 0.52447 0.82902 0.0
H880 H 0.01779 0.50925 0.8488 0.0
H881 H 0.02718 0.54317 0.80721 0.0
H882 H 0.0238 0.55969 0.79156 0.0
H883 H 0.98607 0.52741 0.77192 0.0
H884 H 0.98916 0.51106 0.78835 0.0
H885 H 0.98763 0.47335 0.79765 0.0
H886 H 0.98503 0.45341 0.78276 0.0
H887 H 0.0283 0.46971 0.78512 0.0
H888 H 0.0306 0.48922 0.80086 0.0
H889 H 0.00636 0.50281 0.78749 0.0
H890 H 0.99423 0.47182 0.83652 0.0
H891 H 0.99598 0.45566 0.85505 0.0
H892 H 0.03928 0.48228 0.85786 0.0
H893 H 0.03722 0.49868 0.84004 0.0
C894 C 0.01347 0.52867 0.83695 0.0
C895 C 0.02446 0.53674 0.84758 0.0
C896 C 0.02423 0.54652 0.85807 0.0
C897 C 0.013 0.54847 0.85817 0.0
C898 C 1.00211 0.54055 0.84726 0.0
C899 C 1.0023 0.5307 0.83687 0.0
C900 C 0.01332 0.51759 0.8268 0.0
C901 C 0.01557 0.50807 0.83531 0.0
C902 C 0.01011 0.5158 0.80923 0.0
C903 C 0.00833 0.52585 0.79921 0.0
C904 C 0.0181 0.53966 0.79969 0.0
C905 C 0.01623 0.5491 0.79053 0.0
C906 C 0.00463 0.54493 0.78048 0.0
C907 C 0.99501 0.53105 0.77975 0.0
C908 C 0.99683 0.52164 0.78901 0.0
C909 C 0.0093 0.48272 0.8003 0.0
C910 C 0.99653 0.47257 0.79494 0.0
C911 C 0.99509 0.46121 0.78631 0.0
C912 C 0.00646 0.45988 0.78256 0.0
C913 C 0.01927 0.47019 0.78797 0.0
C914 C 0.02065 0.48143 0.79685 0.0
C915 C 0.01075 0.49466 0.80961 0.0
C916 C 0.00877 0.50425 0.80092 0.0
C917 C 0.01425 0.49663 0.82695 0.0
C918 C 0.01559 0.48641 0.83696 0.0
C919 C 0.00409 0.47409 0.84108 0.0
C920 C 0.00515 0.46482 0.8516 0.0
C921 C 0.01779 0.4676 0.85807 0.0
C922 C 0.02934 0.47986 0.85346 0.0
C923 C 0.02823 0.48922 0.84315 0.0
H924 H 0.4668 0.50197 0.84263 0.0
H925 H 0.44921 0.48524 0.86111 0.0
H926 H 0.46482 0.45811 0.8525 0.0
H927 H 0.48191 0.47468 0.83342 0.0
H928 H 0.49515 0.51327 0.84754 0.0
H929 H 0.4609 0.48728 0.80643 0.0
H930 H 0.44456 0.46682 0.79154 0.0
H931 H 0.47706 0.46073 0.77413 0.0
H932 H 0.49325 0.48083 0.78975 0.0
H933 H 0.52844 0.51665 0.79137 0.0
H934 H 0.54779 0.53352 0.77527 0.0
H935 H 0.53495 0.56274 0.7849 0.0
H936 H 0.51602 0.54593 0.80173 0.0
H937 H 0.50084 0.5064 0.78655 0.0
H938 H 0.53483 0.53082 0.82729 0.0
H939 H 0.55167 0.5491 0.84466 0.0
H940 H 0.5207 0.55659 0.8646 0.0
H941 H 0.50407 0.53889 0.84623 0.0
C942 C 0.47559 0.48952 0.83659 0.0
C943 C 0.4663 0.49234 0.84462 0.0
C944 C 0.45631 0.48279 0.8553 0.0
C945 C 0.45556 0.47028 0.85845 0.0
C946 C 0.46486 0.46748 0.85021 0.0
C947 C 0.47472 0.47698 0.83934 0.0
C948 C 0.48666 0.49998 0.82609 0.0
C949 C 0.49627 0.51194 0.8341 0.0
C950 C 0.48831 0.49788 0.80874 0.0
C951 C 0.47832 0.48552 0.79946 0.0
C952 C 0.4645 0.48144 0.79961 0.0
C953 C 0.45517 0.46981 0.79088 0.0
C954 C 0.45946 0.46206 0.78163 0.0
C955 C 0.47334 0.46629 0.78134 0.0
C956 C 0.48265 0.47788 0.79014 0.0
C957 C 0.52083 0.53005 0.7978 0.0
C958 C 0.52982 0.5267 0.78998 0.0
C959 C 0.54085 0.53638 0.78066 0.0
C960 C 0.54301 0.54958 0.77865 0.0
C961 C 0.53383 0.55281 0.78637 0.0
C962 C 0.52291 0.54317 0.79592 0.0
C963 C 0.50931 0.5198 0.80797 0.0
C964 C 0.49964 0.50785 0.79992 0.0
C965 C 0.50769 0.52182 0.82538 0.0
C966 C 0.51816 0.53356 0.83518 0.0
C967 C 0.53171 0.53664 0.835 0.0
C968 C 0.54132 0.54699 0.84522 0.0
C969 C 0.53759 0.55433 0.85619 0.0
C970 C 0.52404 0.55133 0.85617 0.0
C971 C 0.51446 0.5411 0.84577 0.0
H972 H 0.63309 0.83539 0.52576 0.0
H973 H 0.63138 0.85179 0.50753 0.0
H974 H 0.67369 0.88029 0.51627 0.0
H975 H 0.6751 0.86403 0.53496 0.0
H976 H 0.65092 0.82513 0.5204 0.0
H977 H 0.64061 0.84794 0.56569 0.0
H978 H 0.64357 0.86756 0.58178 0.0
H979 H 0.68577 0.8801 0.58916 0.0
H980 H 0.68247 0.8601 0.57377 0.0
H981 H 0.68186 0.82246 0.57606 0.0
H982 H 0.68466 0.80571 0.592 0.0
H983 H 0.6428 0.77608 0.58243 0.0
H984 H 0.64037 0.79277 0.56578 0.0
H985 H 0.66419 0.83237 0.58112 0.0
H986 H 0.67473 0.8092 0.53982 0.0
H987 H 0.67416 0.79136 0.52224 0.0
H988 H 0.6349 0.78188 0.50322 0.0
H989 H 0.63518 0.79922 0.5217 0.0
C990 C 0.65419 0.84853 0.5318 0.0
C991 C 0.64194 0.84525 0.52387 0.0
C992 C 0.64102 0.85462 0.51334 0.0
C993 C 0.65241 0.86741 0.5103 0.0
C994 C 0.66463 0.87068 0.5185 0.0
C995 C 0.66548 0.86136 0.52917 0.0
C996 C 0.65543 0.83827 0.54197 0.0
C997 C 0.6535 0.82651 0.53379 0.0
C998 C 0.65942 0.84046 0.55919 0.0
C999 C 0.66132 0.85257 0.56856 0.0
C1000 C 0.65049 0.85495 0.5708 0.0
C1001 C 0.65224 0.86624 0.57993 0.0
C1002 C 0.66493 0.8755 0.58687 0.0
C1003 C 0.67578 0.8731 0.58438 0.0
C1004 C 0.67396 0.86171 0.57546 0.0
C1005 C 0.66094 0.80884 0.56967 0.0
C1006 C 0.67331 0.81234 0.57743 0.0
C1007 C 0.67485 0.80274 0.58665 0.0
C1008 C 0.66395 0.78946 0.58862 0.0
C1009 C 0.65151 0.78608 0.58097 0.0
C1010 C 0.65005 0.79564 0.57152 0.0
C1011 C 0.6594 0.819 0.55965 0.0
C1012 C 0.66137 0.83081 0.56781 0.0
C1013 C 0.65564 0.81692 0.54229 0.0
C1014 C 0.65491 0.80546 0.53234 0.0
C1015 C 0.66582 0.80304 0.53224 0.0
C1016 C 0.66558 0.79295 0.52193 0.0
C1017 C 0.65452 0.78519 0.51118 0.0
C1018 C 0.64351 0.78751 0.51147 0.0
C1019 C 0.6437 0.79752 0.52194 0.0
H1020 H 0.16633 0.80135 0.52146 0.0
H1021 H 0.14931 0.7844 0.50263 0.0
H1022 H 0.11973 0.7941 0.5221 0.0
H1023 H 0.13695 0.8115 0.54015 0.0
H1024 H 0.17651 0.82747 0.5205 0.0
H1025 H 0.15475 0.79443 0.56528 0.0
H1026 H 0.13566 0.77758 0.58185 0.0
H1027 H 0.12364 0.80726 0.59276 0.0
H1028 H 0.14315 0.82415 0.5769 0.0
H1029 H 0.18074 0.86262 0.57336 0.0
H1030 H 0.19779 0.88256 0.58852 0.0
H1031 H 0.22616 0.86812 0.58285 0.0
H1032 H 0.20923 0.84864 0.56696 0.0
H1033 H 0.1707 0.83389 0.58164 0.0
H1034 H 0.18908 0.8648 0.53288 0.0
H1035 H 0.20651 0.88123 0.51406 0.0
H1036 H 0.22454 0.85573 0.51089 0.0
H1037 H 0.20651 0.83902 0.52896 0.0
C1038 C 0.15294 0.80765 0.53239 0.0
C1039 C 0.15615 0.79976 0.52175 0.0
C1040 C 0.14636 0.78998 0.51107 0.0
C1041 C 0.13311 0.78788 0.51079 0.0
C1042 C 0.12985 0.79555 0.52179 0.0
C1043 C 0.13966 0.80539 0.53236 0.0
C1044 C 0.16366 0.81894 0.54246 0.0
C1045 C 0.17534 0.82865 0.53396 0.0
C1046 C 0.16204 0.8208 0.55992 0.0
C1047 C 0.15036 0.81054 0.56986 0.0
C1048 C 0.14799 0.79728 0.5713 0.0
C1049 C 0.13699 0.78763 0.58071 0.0
C1050 C 0.12801 0.79098 0.58873 0.0
C1051 C 0.13044 0.80431 0.58713 0.0
C1052 C 0.14156 0.814 0.57795 0.0
C1053 C 0.19375 0.8542 0.56903 0.0
C1054 C 0.19066 0.86381 0.5754 0.0
C1055 C 0.20042 0.87517 0.58417 0.0
C1056 C 0.21343 0.87702 0.58704 0.0
C1057 C 0.2164 0.86725 0.58068 0.0
C1058 C 0.20669 0.85602 0.57168 0.0
C1059 C 0.18344 0.84223 0.55963 0.0
C1060 C 0.1719 0.83249 0.56825 0.0
C1061 C 0.18516 0.84027 0.54231 0.0
C1062 C 0.19653 0.85073 0.53225 0.0
C1063 C 0.19687 0.86284 0.52819 0.0
C1064 C 0.20694 0.87227 0.5175 0.0
C1065 C 0.21701 0.86987 0.51081 0.0
C1066 C 0.21683 0.85786 0.51543 0.0
C1067 C 0.20661 0.84832 0.52589 0.0
H1068 H 0.14756 0.32791 0.51913 0.0
H1069 H 0.13063 0.3291 0.50151 0.0
H1070 H 0.13669 0.36434 0.52938 0.0
H1071 H 0.15397 0.36333 0.54667 0.0
H1072 H 0.17345 0.34521 0.52134 0.0
H1073 H 0.13675 0.32534 0.55992 0.0
H1074 H 0.11763 0.32296 0.57658 0.0
H1075 H 0.14441 0.35919 0.60451 0.0
H1076 H 0.16352 0.3617 0.58746 0.0
H1077 H 0.20454 0.3637 0.58162 0.0
H1078 H 0.22223 0.36157 0.59636 0.0
H1079 H 0.20495 0.32053 0.57781 0.0
H1080 H 0.18787 0.32312 0.56243 0.0
H1081 H 0.17415 0.34502 0.58432 0.0
H1082 H 0.21136 0.36305 0.54356 0.0
H1083 H 0.22864 0.36341 0.52476 0.0
H1084 H 0.19833 0.32632 0.5013 0.0
H1085 H 0.18113 0.32619 0.51989 0.0
C1086 C 0.15202 0.3455 0.53427 0.0
C1087 C 0.14522 0.33587 0.52149 0.0
C1088 C 0.13545 0.3365 0.51152 0.0
C1089 C 0.13227 0.34679 0.51405 0.0
C1090 C 0.13897 0.35634 0.527 0.0
C1091 C 0.14876 0.3557 0.53701 0.0
C1092 C 0.16295 0.34517 0.54412 0.0
C1093 C 0.17351 0.34504 0.53511 0.0
C1094 C 0.16314 0.34514 0.56211 0.0
C1095 C 0.15156 0.34379 0.5723 0.0
C1096 C 0.1385 0.33285 0.56952 0.0
C1097 C 0.12759 0.33143 0.57917 0.0
C1098 C 0.12949 0.34087 0.59191 0.0
C1099 C 0.14258 0.35182 0.59469 0.0
C1100 C 0.15353 0.35322 0.58504 0.0
C1101 C 0.19498 0.3436 0.57088 0.0
C1102 C 0.20463 0.35428 0.58076 0.0
C1103 C 0.21469 0.35298 0.58927 0.0
C1104 C 0.21513 0.34087 0.58831 0.0
C1105 C 0.20521 0.33012 0.57859 0.0
C1106 C 0.19533 0.33152 0.56988 0.0
C1107 C 0.18453 0.345 0.56146 0.0
C1108 C 0.17409 0.34533 0.57055 0.0
C1109 C 0.18423 0.34486 0.54352 0.0
C1110 C 0.19496 0.34458 0.53314 0.0
C1111 C 0.2085 0.35491 0.53451 0.0
C1112 C 0.21836 0.35509 0.52376 0.0
C1113 C 0.21487 0.34495 0.5114 0.0
C1114 C 0.20134 0.33444 0.51041 0.0
C1115 C 0.1915 0.3343 0.5211 0.0
H1116 H 0.97519 0.37479 0.04917 0.0
H1117 H 0.97194 0.38734 0.07227 0.0
H1118 H 0.00795 0.39258 0.09682 0.0
H1119 H 0.01144 0.38031 0.07365 0.0
H1120 H 0.98438 0.38538 0.11923 0.0
H1121 H 0.01205 0.41714 0.07533 0.0
H1122 H 0.01677 0.4255 0.04584 0.0
H1123 H 0.98079 0.42858 0.04557 0.0
H1124 H 0.97575 0.42002 0.07499 0.0
H1125 H 1.00117 0.43974 0.17577 0.0
H1126 H 1.00091 0.42403 0.15456 0.0
H1127 H 0.97321 0.43029 0.12395 0.0
H1128 H 0.97418 0.44674 0.14447 0.0
H1129 H 0.99105 0.43053 0.10433 0.0
H1130 H 0.96342 0.40043 0.14785 0.0
H1131 H 0.95714 0.39111 0.17678 0.0
H1132 H 0.99046 0.38365 0.17758 0.0
H1133 H 0.99706 0.3931 0.14872 0.0
C1134 C 0.9823 0.37843 0.05962 0.0
C1135 C 0.99361 0.37663 0.05956 0.0
C1136 C 0.98044 0.38562 0.07277 0.0
C1137 C 0.98974 0.39092 0.08619 0.0
C1138 C 1.00066 0.38855 0.08659 0.0
C1139 C 0.00266 0.38159 0.07331 0.0
C1140 C 0.98866 0.39974 0.09918 0.0
C1141 C 0.98593 0.39531 0.11607 0.0
C1142 C 0.99032 0.4125 0.09489 0.0
C1143 C 0.99344 0.41779 0.07728 0.0
C1144 C 0.00508 0.41948 0.06893 0.0
C1145 C 0.00783 0.42428 0.05223 0.0
C1146 C 0.99906 0.42752 0.04381 0.0
C1147 C 0.98756 0.42603 0.0521 0.0
C1148 C 0.98476 0.42122 0.06878 0.0
C1149 C 0.99511 0.43789 0.16447 0.0
C1150 C 0.98769 0.44457 0.16193 0.0
C1151 C 0.9948 0.42871 0.15243 0.0
C1152 C 0.98686 0.42576 0.13772 0.0
C1153 C 0.97938 0.43232 0.1352 0.0
C1154 C 0.97982 0.44164 0.14711 0.0
C1155 C 0.98677 0.41626 0.12462 0.0
C1156 C 0.98935 0.42058 0.10763 0.0
C1157 C 0.98473 0.40329 0.12881 0.0
C1158 C 0.98081 0.39759 0.14617 0.0
C1159 C 0.96947 0.3969 0.15424 0.0
C1160 C 0.96585 0.39157 0.17062 0.0
C1161 C 0.97342 0.38682 0.17903 0.0
C1162 C 0.98461 0.38735 0.17106 0.0
C1163 C 0.98829 0.39268 0.15468 0.0
H1164 H 0.97059 0.3827 0.19171 0.0
H1165 H 1.0012 0.43123 0.03089 0.0
H1166 H 0.61887 0.6303 0.07364 0.0
H1167 H 0.60702 0.61478 0.09715 0.0
H1168 H 0.61706 0.58598 0.07621 0.0
H1169 H 0.6292 0.60155 0.05284 0.0
H1170 H 0.58839 0.57595 0.08407 0.0
H1171 H 0.63268 0.60045 0.10931 0.0
H1172 H 0.65343 0.62099 0.11839 0.0
H1173 H 0.63005 0.63173 0.15095 0.0
H1174 H 0.60912 0.61135 0.14186 0.0
H1175 H 0.56088 0.52793 0.1494 0.0
H1176 H 0.57632 0.54384 0.12855 0.0
H1177 H 0.57746 0.57691 0.15653 0.0
H1178 H 0.5629 0.56117 0.17829 0.0
H1179 H 0.60116 0.58488 0.14487 0.0
H1180 H 0.55722 0.56237 0.11975 0.0
H1181 H 0.53558 0.54302 0.11038 0.0
H1182 H 0.55682 0.52999 0.0773 0.0
H1183 H 0.5786 0.54918 0.08664 0.0
C1184 C 0.61868 0.62072 0.07413 0.0
C1185 C 0.62496 0.61714 0.06137 0.0
C1186 C 0.61193 0.61189 0.08758 0.0
C1187 C 0.61119 0.59927 0.08839 0.0
C1188 C 0.61755 0.5957 0.07579 0.0
C1189 C 0.62452 0.60463 0.0625 0.0
C1190 C 0.60319 0.58953 0.10193 0.0
C1191 C 0.59127 0.57776 0.09735 0.0
C1192 C 0.60674 0.5922 0.11926 0.0
C1193 C 0.61932 0.60444 0.12477 0.0
C1194 C 0.63194 0.60726 0.11828 0.0
C1195 C 0.64374 0.61886 0.12346 0.0
C1196 C 0.64305 0.62768 0.1352 0.0
C1197 C 0.63056 0.6249 0.14183 0.0
C1198 C 0.61873 0.61332 0.13669 0.0
C1199 C 0.56462 0.5386 0.15142 0.0
C1200 C 0.56049 0.54318 0.1656 0.0
C1201 C 0.57331 0.5477 0.13926 0.0
C1202 C 0.57782 0.56158 0.14067 0.0
C1203 C 0.57405 0.56625 0.15503 0.0
C1204 C 0.56555 0.55718 0.16738 0.0
C1205 C 0.58626 0.57117 0.12708 0.0
C1206 C 0.59826 0.58297 0.13161 0.0
C1207 C 0.58262 0.56868 0.10969 0.0
C1208 C 0.56954 0.55713 0.10403 0.0
C1209 C 0.55728 0.55532 0.11057 0.0
C1210 C 0.54499 0.54439 0.10525 0.0
C1211 C 0.54483 0.53526 0.09329 0.0
C1212 C 0.55696 0.53706 0.08659 0.0
C1213 C 0.56928 0.54797 0.09188 0.0
H1214 H 0.5353 0.5268 0.08919 0.0
H1215 H 0.6522 0.63666 0.1392 0.0
H1216 H 0.3732 0.99317 0.07189 0.0
H1217 H 0.38845 0.99647 0.09552 0.0
H1218 H 0.4185 0.03438 0.07389 0.0
H1219 H 0.40319 0.03131 0.05034 0.0
H1220 H 0.42724 0.01489 0.08194 0.0
H1221 H 0.40469 0.03667 0.10738 0.0
H1222 H 0.38484 0.03817 0.11661 0.0
H1223 H 0.37256 0.00388 0.14925 0.0
H1224 H 0.39224 0.00205 0.14003 0.0
H1225 H 0.475 0.03285 0.14716 0.0
H1226 H 0.45956 0.03337 0.1264 0.0
H1227 H 0.42565 0.00245 0.15425 0.0
H1228 H 0.44099 0.00266 0.17593 0.0
H1229 H 0.41889 0.01927 0.14285 0.0
H1230 H 0.43927 0.99578 0.11731 0.0
H1231 H 0.45781 0.99218 0.10776 0.0
H1232 H 0.47257 0.02671 0.07497 0.0
H1233 H 0.4542 0.03063 0.0845 0.0
C1234 C 0.38298 0.0023 0.07227 0.0
C1235 C 0.387 0.01197 0.05924 0.0
C1236 C 0.39166 0.00418 0.0858 0.0
C1237 C 0.40458 0.01567 0.08643 0.0
C1238 C 0.40855 0.02546 0.07362 0.0
C1239 C 0.39977 0.02371 0.06023 0.0
C1240 C 0.41421 0.01699 0.09991 0.0
C1241 C 0.42558 0.01609 0.09525 0.0
C1242 C 0.41169 0.01803 0.11728 0.0
C1243 C 0.39988 0.01914 0.12288 0.0
C1244 C 0.39769 0.02937 0.11641 0.0
C1245 C 0.38648 0.0303 0.12167 0.0
C1246 C 0.37742 0.02111 0.13348 0.0
C1247 C 0.37958 0.01099 0.14009 0.0
C1248 C 0.39077 0.01 0.13486 0.0
C1249 C 0.46426 0.02635 0.14917 0.0
C1250 C 0.45933 0.01766 0.16332 0.0
C1251 C 0.45542 0.0265 0.13706 0.0
C1252 C 0.44142 0.01771 0.13848 0.0
C1253 C 0.43641 0.00926 0.15276 0.0
C1254 C 0.44524 0.00927 0.16507 0.0
C1255 C 0.43206 0.01719 0.12494 0.0
C1256 C 0.42067 0.01816 0.12957 0.0
C1257 C 0.43439 0.01591 0.10752 0.0
C1258 C 0.44545 0.01358 0.10176 0.0
C1259 C 0.44653 0.00267 0.10816 0.0
C1260 C 0.457 1.00056 0.10274 0.0
C1261 C 0.46638 0.00923 0.0908 0.0
C1262 C 0.4653 0.02002 0.08423 0.0
C1263 C 0.45486 0.02218 0.08963 0.0
H1264 H 0.47448 0.00758 0.08661 0.0
H1265 H 0.36875 0.02185 0.13754 0.0
H1266 H 0.38887 0.01612 0.9637 0.0
H1267 H 0.4003 0.01253 0.93984 0.0
H1268 H 0.38146 0.97016 0.95227 0.0
H1269 H 0.37003 0.9737 0.97647 0.0
H1270 H 0.40817 0.9809 0.94697 0.0
H1271 H 0.37176 0.98051 0.91704 0.0
H1272 H 0.3563 0.98869 0.90864 0.0
H1273 H 0.38978 0.02524 0.88925 0.0
H1274 H 0.40548 0.01737 0.89775 0.0
H1275 H 0.43647 0.96843 0.87335 0.0
H1276 H 0.41981 0.96753 0.89366 0.0
H1277 H 0.43521 0.01024 0.88689 0.0
H1278 H 0.45159 0.01114 0.86614 0.0
H1279 H 0.40802 0.99671 0.88835 0.0
H1280 H 0.44445 0.99816 0.92098 0.0
H1281 H 0.46013 0.99036 0.9298 0.0
H1282 H 0.42656 0.95198 0.94436 0.0
H1283 H 0.41067 0.9595 0.93541 0.0
C1284 C 0.38702 0.00598 0.96132 0.0
C1285 C 0.37852 0.99519 0.97206 0.0
C1286 C 0.39353 0.00394 0.94757 0.0
C1287 C 0.39165 0.99105 0.94413 0.0
C1288 C 0.38303 0.98019 0.95465 0.0
C1289 C 0.37647 0.98222 0.96844 0.0
C1290 C 0.39933 0.98919 0.93012 0.0
C1291 C 0.40791 0.98408 0.93406 0.0
C1292 C 0.39923 0.99362 0.91335 0.0
C1293 C 0.38981 0.99838 0.90814 0.0
C1294 C 0.37584 0.99033 0.91109 0.0
C1295 C 0.36703 0.99491 0.9063 0.0
C1296 C 0.37206 0.00749 0.89845 0.0
C1297 C 0.3859 0.0155 0.89534 0.0
C1298 C 0.39476 0.01098 0.90012 0.0
C1299 C 0.43618 0.97759 0.87596 0.0
C1300 C 0.44543 0.98988 0.86816 0.0
C1301 C 0.42672 0.97708 0.88771 0.0
C1302 C 0.42638 0.98885 0.89198 0.0
C1303 C 0.43532 1.00104 0.88384 0.0
C1304 C 0.44477 1.00156 0.87209 0.0
C1305 C 0.41699 0.98861 0.90528 0.0
C1306 C 0.40812 0.99335 0.9012 0.0
C1307 C 0.41684 0.98387 0.92194 0.0
C1308 C 0.42638 0.97934 0.92734 0.0
C1309 C 0.44042 0.98802 0.92593 0.0
C1310 C 0.44934 0.98365 0.93098 0.0
C1311 C 0.44435 0.97066 0.93758 0.0
C1312 C 0.43042 0.96203 0.93921 0.0
C1313 C 0.42145 0.96634 0.93416 0.0
H1314 H 0.45127 0.9673 0.94149 0.0
H1315 H 0.36522 0.01101 0.89475 0.0
H1316 H 0.03217 0.40087 0.98209 0.0
H1317 H 0.03572 0.41623 0.95842 0.0
H1318 H 0.99761 0.38675 0.93667 0.0
H1319 H 0.99391 0.37141 0.96032 0.0
H1320 H 0.01889 0.40031 0.91228 0.0
H1321 H 0.9977 0.41016 0.95925 0.0
H1322 H 0.99603 0.41584 0.98906 0.0
H1323 H 0.0342 0.45253 0.98459 0.0
H1324 H 0.03619 0.44695 0.95482 0.0
H1325 H 0.00285 0.43977 0.85834 0.0
H1326 H 0.00332 0.42438 0.87931 0.0
H1327 H 0.03604 0.45802 0.90541 0.0
H1328 H 0.03488 0.4736 0.88533 0.0
H1329 H 0.0192 0.44265 0.92753 0.0
H1330 H 0.04008 0.43405 0.8801 0.0
H1331 H 0.04213 0.42861 0.8503 0.0
H1332 H 0.00576 0.39023 0.85527 0.0
H1333 H 0.00341 0.3955 0.88506 0.0
C1334 C 0.02465 0.39757 0.97213 0.0
C1335 C 0.01271 0.38497 0.97315 0.0
C1336 C 0.02668 0.40637 0.95864 0.0
C1337 C 0.01688 0.40265 0.94587 0.0
C1338 C 0.0053 0.3898 0.94639 0.0
C1339 C 0.00317 0.38108 0.95997 0.0
C1340 C 0.01814 0.41248 0.93269 0.0
C1341 C 0.0189 0.40955 0.91554 0.0
C1342 C 0.01842 0.42464 0.93703 0.0
C1343 C 0.01717 0.42806 0.95488 0.0
C1344 C 0.00579 0.41938 0.96467 0.0
C1345 C 0.00477 0.42259 0.98155 0.0
C1346 C 0.01502 0.43452 0.98873 0.0
C1347 C 0.02628 0.44328 0.97903 0.0
C1348 C 0.02736 0.4401 0.96215 0.0
C1349 C 0.01008 0.44396 0.86861 0.0
C1350 C 0.0188 0.45802 0.87007 0.0
C1351 C 0.01049 0.43508 0.88047 0.0
C1352 C 0.01988 0.43997 0.89385 0.0
C1353 C 0.02874 0.45395 0.89519 0.0
C1354 C 0.02817 0.46287 0.88351 0.0
C1355 C 0.02 0.4306 0.90692 0.0
C1356 C 0.01941 0.43355 0.92413 0.0
C1357 C 0.02001 0.41853 0.9026 0.0
C1358 C 0.02152 0.41522 0.88478 0.0
C1359 C 0.03249 0.42447 0.87482 0.0
C1360 C 0.0337 0.42142 0.85793 0.0
C1361 C 0.02407 0.4091 0.85089 0.0
C1362 C 0.01322 0.39977 0.86074 0.0
C1363 C 0.01195 0.40278 0.87764 0.0
H1364 H 0.02501 0.40676 0.8378 0.0
H1365 H 0.01422 0.43699 1.0018 0.0
H1366 H 0.62655 0.61397 0.96854 0.0
H1367 H 0.61207 0.60366 0.94404 0.0
H1368 H 0.59494 0.62956 0.95072 0.0
H1369 H 0.60927 0.63979 0.97572 0.0
H1370 H 0.57556 0.6045 0.94522 0.0
H1371 H 0.61671 0.63425 0.91732 0.0
H1372 H 0.64111 0.6455 0.91111 0.0
H1373 H 0.6373 0.60737 0.89722 0.0
H1374 H 0.6129 0.59584 0.90358 0.0
H1375 H 0.53986 0.57846 0.86655 0.0
H1376 H 0.55557 0.59445 0.88745 0.0
H1377 H 0.57391 0.56964 0.89359 0.0
H1378 H 0.55802 0.55338 0.87327 0.0
H1379 H 0.59281 0.59733 0.89059 0.0
H1380 H 0.55198 0.56777 0.92207 0.0
H1381 H 0.52758 0.55692 0.92815 0.0
H1382 H 0.53106 0.5959 0.93461 0.0
H1383 H 0.55547 0.60699 0.92833 0.0
C1384 C 0.61981 0.6176 0.96478 0.0
C1385 C 0.61911 0.62775 0.97414 0.0
C1386 C 0.61157 0.61173 0.95064 0.0
C1387 C 0.60254 0.61595 0.94533 0.0
C1388 C 0.60187 0.62616 0.95453 0.0
C1389 C 0.6101 0.63203 0.96879 0.0
C1390 C 0.59338 0.60914 0.93069 0.0
C1391 C 0.57937 0.60321 0.93314 0.0
C1392 C 0.59829 0.60728 0.91496 0.0
C1393 C 0.61297 0.61417 0.91104 0.0
C1394 C 0.62108 0.62824 0.91306 0.0
C1395 C 0.63492 0.63468 0.90949 0.0
C1396 C 0.64075 0.62715 0.9038 0.0
C1397 C 0.63276 0.61318 0.90163 0.0
C1398 C 0.61892 0.6067 0.90519 0.0
C1399 C 0.54716 0.57633 0.87241 0.0
C1400 C 0.54761 0.56456 0.86817 0.0
C1401 C 0.55619 0.58554 0.88429 0.0
C1402 C 0.56588 0.58321 0.8921 0.0
C1403 C 0.56657 0.57168 0.88762 0.0
C1404 C 0.55749 0.56241 0.8759 0.0
C1405 C 0.57508 0.59251 0.90532 0.0
C1406 C 0.58907 0.59887 0.90258 0.0
C1407 C 0.57016 0.59487 0.9207 0.0
C1408 C 0.55551 0.58821 0.92452 0.0
C1409 C 0.54752 0.57403 0.92463 0.0
C1410 C 0.53369 0.56784 0.92815 0.0
C1411 C 0.52776 0.57572 0.93171 0.0
C1412 C 0.53566 0.58981 0.93181 0.0
C1413 C 0.54949 0.59605 0.92828 0.0
H1414 H 0.51705 0.5709 0.93443 0.0
H1415 H 0.65147 0.63215 0.90105 0.0
H1416 H 0.02757 0.63874 0.96975 0.0
H1417 H 0.02942 0.6256 0.94633 0.0
H1418 H 0.98652 0.59779 0.949 0.0
H1419 H 0.98456 0.61077 0.97234 0.0
H1420 H 1.00106 0.58481 0.94894 0.0
H1421 H 0.99971 0.61992 0.91664 0.0
H1422 H 0.00718 0.64347 0.9085 0.0
H1423 H 0.04651 0.64972 0.89593 0.0
H1424 H 0.03932 0.62625 0.90422 0.0
H1425 H 0.99107 0.54559 0.87602 0.0
H1426 H 0.99023 0.56116 0.89653 0.0
H1427 H 0.03275 0.58885 0.88887 0.0
H1428 H 0.03354 0.5736 0.86763 0.0
H1429 H 0.01951 0.60245 0.89164 0.0
H1430 H 0.02134 0.56782 0.92354 0.0
H1431 H 0.01451 0.54449 0.93208 0.0
H1432 H 0.97524 0.53766 0.94617 0.0
H1433 H 0.98178 0.5609 0.93748 0.0
C1434 C 0.0185 0.62991 0.96523 0.0
C1435 C 0.00592 0.6258 0.97298 0.0
C1436 C 0.01958 0.62243 0.95181 0.0
C1437 C 0.0081 0.61072 0.9459 0.0
C1438 C 0.99551 0.60677 0.95339 0.0
C1439 C 0.99442 0.61425 0.96671 0.0
C1440 C 0.00921 0.60217 0.93248 0.0
C1441 C 0.00493 0.58862 0.93634 0.0
C1442 C 0.01469 0.60726 0.91623 0.0
C1443 C 0.01902 0.62137 0.91122 0.0
C1444 C 0.00998 0.62635 0.91228 0.0
C1445 C 0.01416 0.63968 0.90761 0.0
C1446 C 0.02732 0.6481 0.90175 0.0
C1447 C 0.03632 0.6432 0.9005 0.0
C1448 C 0.0322 0.62988 0.90517 0.0
C1449 C 1.00021 0.55509 0.87842 0.0
C1450 C 0.01239 0.55828 0.87017 0.0
C1451 C 0.99975 0.56393 0.89034 0.0
C1452 C 0.01149 0.57608 0.8945 0.0
C1453 C 0.02358 0.5795 0.88596 0.0
C1454 C 0.02404 0.57069 0.87393 0.0
C1455 C 0.01116 0.58502 0.90802 0.0
C1456 C 0.01564 0.59864 0.90424 0.0
C1457 C 0.00597 0.58003 0.92443 0.0
C1458 C 1.00201 0.56606 0.92971 0.0
C1459 C 0.01122 0.56131 0.92834 0.0
C1460 C 0.0074 0.54811 0.93322 0.0
C1461 C 0.99444 0.53959 0.93962 0.0
C1462 C 0.98527 0.54427 0.94119 0.0
C1463 C 0.98903 0.55745 0.9363 0.0
H1464 H 0.99151 0.52937 0.9434 0.0
H1465 H 0.03054 0.65841 0.89814 0.0
H1466 H 0.37771 0.40349 0.98396 0.0
H1467 H 0.39001 0.41862 0.9604 0.0
H1468 H 0.3958 0.38741 0.93772 0.0
H1469 H 0.3841 0.37253 0.96165 0.0
H1470 H 0.41813 0.40919 0.93657 0.0
H1471 H 0.37326 0.39808 0.92141 0.0
H1472 H 0.35061 0.39535 0.92547 0.0
H1473 H 0.3684 0.43789 0.93519 0.0
H1474 H 0.39118 0.44085 0.93141 0.0
H1475 H 0.44196 0.44246 0.8569 0.0
H1476 H 0.42673 0.42647 0.87809 0.0
H1477 H 0.43049 0.45951 0.90866 0.0
H1478 H 0.44624 0.47564 0.88804 0.0
H1479 H 0.40297 0.43671 0.90477 0.0
H1480 H 0.44806 0.44679 0.92036 0.0
H1481 H 0.47024 0.44876 0.91488 0.0
H1482 H 0.45079 0.40654 0.90239 0.0
H1483 H 0.42847 0.40437 0.90756 0.0
C1484 C 0.38147 0.39981 0.97384 0.0
C1485 C 0.37996 0.38683 0.97468 0.0
C1486 C 0.38846 0.40845 0.9603 0.0
C1487 C 0.39376 0.40415 0.9471 0.0
C1488 C 0.39189 0.39103 0.94773 0.0
C1489 C 0.38515 0.3825 0.96141 0.0
C1490 C 0.40193 0.41354 0.93317 0.0
C1491 C 0.41464 0.41499 0.92946 0.0
C1492 C 0.39761 0.42139 0.92401 0.0
C1493 C 0.38393 0.41966 0.92629 0.0
C1494 C 0.37235 0.40684 0.92454 0.0
C1495 C 0.35948 0.40525 0.92677 0.0
C1496 C 0.35807 0.41644 0.93063 0.0
C1497 C 0.36951 0.42923 0.93222 0.0
C1498 C 0.3824 0.43087 0.93002 0.0
C1499 C 0.43968 0.44639 0.86817 0.0
C1500 C 0.44547 0.46042 0.87072 0.0
C1501 C 0.43086 0.4372 0.8802 0.0
C1502 C 0.42752 0.44183 0.89494 0.0
C1503 C 0.43288 0.45575 0.89731 0.0
C1504 C 0.44185 0.46496 0.88541 0.0
C1505 C 0.41896 0.43217 0.90827 0.0
C1506 C 0.40628 0.43075 0.91187 0.0
C1507 C 0.42318 0.42418 0.91716 0.0
C1508 C 0.4366 0.42545 0.91416 0.0
C1509 C 0.44851 0.43795 0.9163 0.0
C1510 C 0.46111 0.4391 0.91328 0.0
C1511 C 0.46193 0.42779 0.90824 0.0
C1512 C 0.45014 0.4153 0.90626 0.0
C1513 C 0.43752 0.4141 0.90925 0.0
H1514 H 0.47169 0.42869 0.90591 0.0
H1515 H 0.3481 0.41519 0.93235 0.0
H1516 H 0.60617 0.97201 0.97577 0.0
H1517 H 0.59182 0.97012 0.95168 0.0
H1518 H 0.61958 0.01164 0.93831 0.0
H1519 H 0.6337 0.01369 0.96261 0.0
H1520 H 0.59511 0.00758 0.93897 0.0
H1521 H 0.61588 0.98374 0.91434 0.0
H1522 H 0.62254 0.96626 0.91317 0.0
H1523 H 0.58084 0.93514 0.91539 0.0
H1524 H 0.57393 0.95244 0.9168 0.0
H1525 H 0.56537 0.01005 0.8622 0.0
H1526 H 0.58146 0.00975 0.8824 0.0
H1527 H 0.55266 0.96842 0.89532 0.0
H1528 H 0.53667 0.96859 0.87473 0.0
H1529 H 0.57743 0.97186 0.89474 0.0
H1530 H 0.55666 0.99532 0.92011 0.0
H1531 H 0.54965 0.01253 0.92165 0.0
H1532 H 0.59113 0.04409 0.91871 0.0
H1533 H 0.59838 0.02706 0.91692 0.0
C1534 C 0.60931 0.98067 0.96755 0.0
C1535 C 0.62104 0.99302 0.97117 0.0
C1536 C 0.60112 0.97957 0.95373 0.0
C1537 C 0.60463 0.99072 0.94309 0.0
C1538 C 0.61661 0.0029 0.94636 0.0
C1539 C 0.62469 0.00406 0.96026 0.0
C1540 C 0.59545 0.99009 0.92928 0.0
C1541 C 0.59144 0.99989 0.92914 0.0
C1542 C 0.59026 0.97979 0.91677 0.0
C1543 C 0.5944 0.96939 0.91583 0.0
C1544 C 0.60813 0.97317 0.9147 0.0
C1545 C 0.61195 0.96329 0.91397 0.0
C1546 C 0.60212 0.9496 0.91424 0.0
C1547 C 0.58844 0.94575 0.9152 0.0
C1548 C 0.58457 0.95559 0.91594 0.0
C1549 C 0.56252 1.00088 0.86928 0.0
C1550 C 0.54973 0.98939 0.86703 0.0
C1551 C 0.5717 1.00072 0.88084 0.0
C1552 C 0.56817 0.98916 0.89067 0.0
C1553 C 0.5556 0.97748 0.88793 0.0
C1554 C 0.54648 0.97758 0.87617 0.0
C1555 C 0.57731 0.98948 0.90433 0.0
C1556 C 0.5812 0.97959 0.90452 0.0
C1557 C 0.58238 0.99966 0.91698 0.0
C1558 C 0.57805 0.00991 0.91823 0.0
C1559 C 0.56428 0.00593 0.91969 0.0
C1560 C 0.56026 0.01565 0.92062 0.0
C1561 C 0.56994 0.02939 0.92024 0.0
C1562 C 0.58365 0.03344 0.91898 0.0
C1563 C 0.58772 0.02376 0.91802 0.0
H1564 H 0.56681 0.0369 0.92095 0.0
H1565 H 0.6051 0.94197 0.91368 0.0
H1566 H 0.61025 0.98363 0.06234 0.0
H1567 H 0.59785 0.98666 0.08555 0.0
H1568 H 0.62448 0.02982 0.08343 0.0
H1569 H 0.63705 0.0269 0.06008 0.0
H1570 H 0.61839 0.01958 0.11685 0.0
H1571 H 0.59486 0.0174 0.06551 0.0
H1572 H 0.58385 0.0077 0.0381 0.0
H1573 H 0.5548 0.97129 0.06324 0.0
H1574 H 0.56576 0.98071 0.09079 0.0
H1575 H 0.57468 0.03478 0.16555 0.0
H1576 H 0.58959 0.03384 0.14397 0.0
H1577 H 0.56223 0.99106 0.13777 0.0
H1578 H 0.54696 0.99205 0.15864 0.0
H1579 H 0.56948 0.00255 0.10803 0.0
H1580 H 0.59313 0.00416 0.1592 0.0
H1581 H 0.6042 0.01345 0.18672 0.0
H1582 H 0.63294 0.0504 0.1623 0.0
H1583 H 0.62192 0.04139 0.13466 0.0
C1584 C 0.61358 0.99379 0.06684 0.0
C1585 C 0.62461 0.00504 0.05922 0.0
C1586 C 0.60644 0.99549 0.0801 0.0
C1587 C 0.61014 0.00847 0.08606 0.0
C1588 C 0.62144 0.01971 0.07897 0.0
C1589 C 0.62859 0.01802 0.0656 0.0
C1590 C 0.60183 0.01022 0.09924 0.0
C1591 C 0.60774 0.01605 0.11488 0.0
C1592 C 0.58788 0.00537 0.09673 0.0
C1593 C 0.5812 0.99972 0.0802 0.0
C1594 C 0.58618 0.00729 0.06518 0.0
C1595 C 0.57995 0.00185 0.04962 0.0
C1596 C 0.56866 0.98887 0.04892 0.0
C1597 C 0.56356 0.98133 0.0638 0.0
C1598 C 0.56977 0.98672 0.07939 0.0
C1599 C 0.57179 0.02517 0.15955 0.0
C1600 C 0.55958 0.01349 0.16389 0.0
C1601 C 0.58042 0.02462 0.14733 0.0
C1602 C 0.57712 0.01235 0.13933 0.0
C1603 C 0.56503 1.00065 0.14378 0.0
C1604 C 0.55636 1.00121 0.15588 0.0
C1605 C 0.58595 0.01171 0.12587 0.0
C1606 C 0.58014 0.00612 0.11008 0.0
C1607 C 0.59996 0.01674 0.1283 0.0
C1608 C 0.60661 0.02216 0.1449 0.0
C1609 C 0.60175 0.01431 0.15972 0.0
C1610 C 0.60802 0.01952 0.17534 0.0
C1611 C 0.61924 0.03252 0.17626 0.0
C1612 C 0.62423 0.04033 0.16157 0.0
C1613 C 0.61798 0.03518 0.14592 0.0
H1614 H 0.62409 0.03654 0.18836 0.0
H1615 H 0.56384 0.98468 0.03686 0.0
H1616 H 0.01974 0.62918 0.06239 0.0
H1617 H 0.01754 0.61426 0.08581 0.0
H1618 H 0.97455 0.59891 0.0874 0.0
H1619 H 0.97664 0.6139 0.06391 0.0
H1620 H 0.98619 0.60314 0.11978 0.0
H1621 H 0.98555 0.58087 0.06775 0.0
H1622 H 0.99394 0.57897 0.03959 0.0
H1623 H 0.03097 0.58551 0.06205 0.0
H1624 H 0.02287 0.58764 0.09033 0.0
H1625 H 0.97063 0.54368 0.16728 0.0
H1626 H 0.97145 0.55977 0.14618 0.0
H1627 H 0.01383 0.57408 0.13793 0.0
H1628 H 0.01295 0.55765 0.15837 0.0
H1629 H 1.00139 0.57 0.1087 0.0
H1630 H 1.00242 0.59261 0.16064 0.0
H1631 H 0.99436 0.59486 0.18887 0.0
H1632 H 0.95705 0.58798 0.16695 0.0
H1633 H 0.96481 0.58551 0.1386 0.0
C1634 C 0.00981 0.62275 0.06779 0.0
C1635 C 0.99834 0.62267 0.06114 0.0
C1636 C 0.00858 0.61419 0.08117 0.0
C1637 C 0.99586 0.60534 0.08818 0.0
C1638 C 0.98446 0.60564 0.08212 0.0
C1639 C 0.98567 0.61419 0.06867 0.0
C1640 C 0.99446 0.59537 0.10126 0.0
C1641 C 0.98933 0.59576 0.11733 0.0
C1642 C 0.99879 0.58592 0.09811 0.0
C1643 C 0.00365 0.58454 0.08114 0.0
C1644 C 0.99552 0.582 0.06667 0.0
C1645 C 1.00022 0.58087 0.05069 0.0
C1646 C 0.01299 0.58215 0.04902 0.0
C1647 C 0.02108 0.58454 0.06335 0.0
C1648 C 0.01644 0.5857 0.07936 0.0
C1649 C 0.98012 0.55021 0.16093 0.0
C1650 C 0.99173 0.54936 0.16458 0.0
C1651 C 0.9806 0.55952 0.149 0.0
C1652 C 0.99274 0.56825 0.14057 0.0
C1653 C 0.00436 0.56749 0.14429 0.0
C1654 C 0.00387 0.55816 0.15614 0.0
C1655 C 0.9933 0.57785 0.1274 0.0
C1656 C 0.99823 0.57735 0.11123 0.0
C1657 C 0.98882 0.58721 0.13051 0.0
C1658 C 0.98414 0.58873 0.14753 0.0
C1659 C 0.99245 0.59146 0.16186 0.0
C1660 C 0.98794 0.5928 0.17788 0.0
C1661 C 0.97518 0.59153 0.17971 0.0
C1662 C 0.96692 0.58895 0.16551 0.0
C1663 C 0.97137 0.58759 0.14947 0.0
H1664 H 0.97171 0.59257 0.19212 0.0
H1665 H 0.01661 0.58127 0.03664 0.0
H1666 H 0.40324 0.37381 0.05274 0.0
H1667 H 0.41809 0.38512 0.07688 0.0
H1668 H 0.38727 0.39151 0.09955 0.0
H1669 H 0.3727 0.38084 0.07504 0.0
H1670 H 0.4093 0.41343 0.10146 0.0
H1671 H 0.39694 0.36795 0.11523 0.0
H1672 H 0.39369 0.34516 0.11049 0.0
H1673 H 0.43623 0.36223 0.10153 0.0
H1674 H 0.43971 0.38515 0.10599 0.0
H1675 H 0.44153 0.43525 0.18173 0.0
H1676 H 0.42569 0.42016 0.16035 0.0
H1677 H 0.45893 0.42442 0.12978 0.0
H1678 H 0.47493 0.44005 0.15062 0.0
H1679 H 0.43562 0.39668 0.13293 0.0
H1680 H 0.44692 0.44242 0.11853 0.0
H1681 H 0.44938 0.46472 0.12472 0.0
H1682 H 0.40712 0.44585 0.1368 0.0
H1683 H 0.40446 0.42341 0.13092 0.0
C1684 C 0.39958 0.37747 0.06299 0.0
C1685 C 0.38682 0.37647 0.06197 0.0
C1686 C 0.40806 0.38389 0.07686 0.0
C1687 C 0.4038 0.3891 0.09021 0.0
C1688 C 0.39085 0.38766 0.08942 0.0
C1689 C 0.3825 0.38152 0.07542 0.0
C1690 C 0.4131 0.39682 0.10442 0.0
C1691 C 0.41483 0.40959 0.10849 0.0
C1692 C 0.42061 0.39204 0.11348 0.0
C1693 C 0.41856 0.37828 0.11079 0.0
C1694 C 0.40558 0.36685 0.11212 0.0
C1695 C 0.40371 0.35391 0.1095 0.0
C1696 C 0.41474 0.35225 0.10567 0.0
C1697 C 0.42769 0.36353 0.10448 0.0
C1698 C 0.42962 0.3765 0.10707 0.0
C1699 C 0.44553 0.43308 0.17044 0.0
C1700 C 0.45958 0.43905 0.1679 0.0
C1701 C 0.43643 0.42433 0.15831 0.0
C1702 C 0.44116 0.42123 0.14349 0.0
C1703 C 0.4551 0.42664 0.1412 0.0
C1704 C 0.46422 0.43555 0.15321 0.0
C1705 C 0.43161 0.41306 0.12986 0.0
C1706 C 0.42992 0.40033 0.1259 0.0
C1707 C 0.42396 0.41774 0.12106 0.0
C1708 C 0.42553 0.43123 0.12447 0.0
C1709 C 0.43818 0.44302 0.12265 0.0
C1710 C 0.4396 0.45568 0.12608 0.0
C1711 C 0.42842 0.4567 0.1312 0.0
C1712 C 0.41578 0.44505 0.13286 0.0
C1713 C 0.41431 0.43235 0.12947 0.0
H1714 H 0.42954 0.46652 0.13384 0.0
H1715 H 0.41327 0.34222 0.10365 0.0
H1716 H 0.68386 0.72503 0.39723 0.0
H1717 H 0.68068 0.73645 0.42144 0.0
H1718 H 0.63766 0.70897 0.41961 0.0
H1719 H 0.64073 0.69764 0.39498 0.0
H1720 H 0.64247 0.73384 0.4233 0.0
H1721 H 0.65772 0.70708 0.45146 0.0
H1722 H 0.67243 0.69744 0.45705 0.0
H1723 H 0.70586 0.73716 0.46673 0.0
H1724 H 0.69139 0.74707 0.46097 0.0
H1725 H 0.63343 0.76034 0.50172 0.0
H1726 H 0.63377 0.74457 0.48088 0.0
H1727 H 0.6764 0.77138 0.47287 0.0
H1728 H 0.67611 0.78735 0.49324 0.0
H1729 H 0.66974 0.74451 0.47594 0.0
H1730 H 0.65443 0.771 0.44509 0.0
H1731 H 0.63938 0.7803 0.43973 0.0
H1732 H 0.6054 0.7401 0.43574 0.0
H1733 H 0.62023 0.73057 0.44133 0.0
C1734 C 0.67371 0.7213 0.40203 0.0
C1735 C 0.66254 0.71038 0.39414 0.0
C1736 C 0.67191 0.72782 0.41597 0.0
C1737 C 0.65894 0.72347 0.42255 0.0
C1738 C 0.64777 0.71249 0.4148 0.0
C1739 C 0.64955 0.706 0.40075 0.0
C1740 C 0.65708 0.73081 0.43699 0.0
C1741 C 0.64823 0.73592 0.43495 0.0
C1742 C 0.66474 0.73374 0.45212 0.0
C1743 C 0.67348 0.72782 0.45565 0.0
C1744 C 0.66823 0.71377 0.45466 0.0
C1745 C 0.67652 0.70825 0.45788 0.0
C1746 C 0.69008 0.71668 0.46221 0.0
C1747 C 0.69536 0.73064 0.46337 0.0
C1748 C 0.68711 0.73621 0.46015 0.0
C1749 C 0.64287 0.76294 0.49546 0.0
C1750 C 0.65474 0.77517 0.49918 0.0
C1751 C 0.64305 0.75387 0.48361 0.0
C1752 C 0.6551 0.75684 0.47528 0.0
C1753 C 0.66701 0.76886 0.47923 0.0
C1754 C 0.66682 0.77796 0.49096 0.0
C1755 C 0.65532 0.74765 0.46208 0.0
C1756 C 0.66386 0.74223 0.46437 0.0
C1757 C 0.64732 0.74435 0.44724 0.0
C1758 C 0.63841 0.75008 0.44383 0.0
C1759 C 0.64373 0.76415 0.44322 0.0
C1760 C 0.63524 0.76946 0.44011 0.0
C1761 C 0.62143 0.76079 0.43745 0.0
C1762 C 0.61609 0.7468 0.43784 0.0
C1763 C 0.62453 0.74144 0.44097 0.0
H1764 H 0.61488 0.76492 0.43504 0.0
H1765 H 0.69648 0.71239 0.4647 0.0
H1766 H 0.28581 0.96486 0.40433 0.0
H1767 H 0.27396 0.94987 0.42827 0.0
H1768 H 0.28496 0.92113 0.40967 0.0
H1769 H 0.29707 0.93616 0.38585 0.0
H1770 H 0.25629 0.91065 0.41668 0.0
H1771 H 0.30003 0.93688 0.44284 0.0
H1772 H 0.32025 0.95802 0.45168 0.0
H1773 H 0.29556 0.96852 0.48204 0.0
H1774 H 0.27515 0.94753 0.47317 0.0
H1775 H 0.22839 0.86416 0.48349 0.0
H1776 H 0.24418 0.87979 0.46267 0.0
H1777 H 0.24385 0.91307 0.48824 0.0
H1778 H 0.22894 0.89765 0.51001 0.0
H1779 H 0.26788 0.92136 0.47755 0.0
H1780 H 0.22445 0.89726 0.4513 0.0
H1781 H 0.20324 0.87734 0.44198 0.0
H1782 H 0.22572 0.86429 0.41127 0.0
H1783 H 0.24709 0.88406 0.42058 0.0
C1784 C 0.28583 0.95541 0.40543 0.0
C1785 C 0.29236 0.95169 0.39319 0.0
C1786 C 0.27909 0.94689 0.41913 0.0
C1787 C 0.27861 0.93442 0.42071 0.0
C1788 C 0.28525 0.93073 0.40865 0.0
C1789 C 0.2922 0.93936 0.39511 0.0
C1790 C 0.27057 0.92493 0.43446 0.0
C1791 C 0.25892 0.91285 0.42999 0.0
C1792 C 0.27378 0.9281 0.4518 0.0
C1793 C 0.28605 0.94069 0.4572 0.0
C1794 C 0.29889 0.94376 0.45127 0.0
C1795 C 0.3104 0.9557 0.45632 0.0
C1796 C 0.30919 0.96463 0.46738 0.0
C1797 C 0.29648 0.96161 0.47345 0.0
C1798 C 0.28494 0.94968 0.46844 0.0
C1799 C 0.23189 0.87483 0.485 0.0
C1800 C 0.22722 0.87955 0.49848 0.0
C1801 C 0.24079 0.88376 0.47286 0.0
C1802 C 0.24496 0.8976 0.47357 0.0
C1803 C 0.2407 0.90243 0.48728 0.0
C1804 C 0.23199 0.89354 0.49963 0.0
C1805 C 0.25351 0.90695 0.45984 0.0
C1806 C 0.26524 0.91905 0.46426 0.0
C1807 C 0.2502 0.90396 0.44242 0.0
C1808 C 0.23737 0.89206 0.43678 0.0
C1809 C 0.22488 0.89009 0.44266 0.0
C1810 C 0.21282 0.87883 0.43736 0.0
C1811 C 0.21313 0.86953 0.42608 0.0
C1812 C 0.2255 0.87149 0.42003 0.0
C1813 C 0.23758 0.88272 0.4253 0.0
H1814 H 0.20379 0.86083 0.42199 0.0
H1815 H 0.31811 0.97387 0.47127 0.0
H1816 H 0.04329 0.32336 0.40312 0.0
H1817 H 0.05741 0.32627 0.42771 0.0
H1818 H 0.07885 0.36944 0.42005 0.0
H1819 H 0.0648 0.36661 0.39517 0.0
H1820 H 0.09601 0.35996 0.42478 0.0
H1821 H 0.05723 0.35565 0.45339 0.0
H1822 H 0.03301 0.34547 0.46024 0.0
H1823 H 0.03188 0.309 0.47633 0.0
H1824 H 0.05606 0.31889 0.46936 0.0
H1825 H 0.13396 0.36959 0.50009 0.0
H1826 H 0.11841 0.37094 0.47993 0.0
H1827 H 0.09288 0.32759 0.48179 0.0
H1828 H 0.10813 0.32621 0.50238 0.0
H1829 H 0.07794 0.33978 0.48129 0.0
H1830 H 0.11569 0.343 0.44964 0.0
H1831 H 0.13978 0.35272 0.44227 0.0
H1832 H 0.14261 0.39092 0.43152 0.0
H1833 H 0.11856 0.38147 0.43905 0.0
C1834 C 0.05092 0.33351 0.4067 0.0
C1835 C 0.05291 0.34475 0.39712 0.0
C1836 C 0.05895 0.33516 0.42086 0.0
C1837 C 0.0691 0.34809 0.42585 0.0
C1838 C 0.07104 0.35937 0.41646 0.0
C1839 C 0.06297 0.35773 0.40227 0.0
C1840 C 0.07814 0.34964 0.44028 0.0
C1841 C 0.09209 0.35581 0.43725 0.0
C1842 C 0.07299 0.34397 0.45645 0.0
C1843 C 0.05845 0.33799 0.46073 0.0
C1844 C 0.0518 0.34542 0.45828 0.0
C1845 C 0.03808 0.33971 0.4622 0.0
C1846 C 0.0309 0.32658 0.46869 0.0
C1847 C 0.03745 0.31916 0.4713 0.0
C1848 C 0.05117 0.32482 0.46739 0.0
C1849 C 0.12491 0.36037 0.49645 0.0
C1850 C 0.12234 0.34777 0.50276 0.0
C1851 C 0.11609 0.36115 0.4848 0.0
C1852 C 0.10458 0.34935 0.47914 0.0
C1853 C 0.10173 0.33683 0.48591 0.0
C1854 C 0.11052 0.33604 0.49756 0.0
C1855 C 0.09576 0.34991 0.46569 0.0
C1856 C 0.08187 0.34412 0.4689 0.0
C1857 C 0.10094 0.35589 0.44965 0.0
C1858 C 0.11538 0.36158 0.4451 0.0
C1859 C 0.12148 0.35351 0.44584 0.0
C1860 C 0.13512 0.35896 0.44161 0.0
C1861 C 0.14273 0.37244 0.43648 0.0
C1862 C 0.13671 0.38049 0.43553 0.0
C1863 C 0.12308 0.37509 0.43977 0.0
H1864 H 0.15329 0.37665 0.43321 0.0
H1865 H 0.02028 0.32218 0.47172 0.0
H1866 H 0.0622 0.35255 0.30602 0.0
H1867 H 0.07348 0.34937 0.28171 0.0
H1868 H 0.04537 0.30646 0.28283 0.0
H1869 H 0.03415 0.30953 0.30762 0.0
H1870 H 0.07027 0.31101 0.27884 0.0
H1871 H 0.0438 0.32705 0.25157 0.0
H1872 H 0.03444 0.34211 0.24674 0.0
H1873 H 0.07433 0.37537 0.23741 0.0
H1874 H 0.08396 0.36056 0.24242 0.0
H1875 H 0.09728 0.30271 0.20075 0.0
H1876 H 0.08137 0.30289 0.22147 0.0
H1877 H 0.10763 0.3457 0.22899 0.0
H1878 H 0.12366 0.34559 0.20853 0.0
H1879 H 0.08114 0.33905 0.22681 0.0
H1880 H 0.10744 0.32315 0.25693 0.0
H1881 H 0.11664 0.30796 0.26185 0.0
H1882 H 0.07639 0.27402 0.26546 0.0
H1883 H 0.06695 0.28899 0.26033 0.0
C1884 C 0.05831 0.34242 0.30108 0.0
C1885 C 0.04722 0.33129 0.30879 0.0
C1886 C 0.06475 0.34063 0.28706 0.0
C1887 C 0.06016 0.3277 0.28022 0.0
C1888 C 0.04906 0.31654 0.28783 0.0
C1889 C 0.04264 0.31832 0.30198 0.0
C1890 C 0.06738 0.32589 0.26559 0.0
C1891 C 0.07239 0.31694 0.26732 0.0
C1892 C 0.07037 0.33377 0.25064 0.0
C1893 C 0.06461 0.3427 0.24749 0.0
C1894 C 0.05059 0.3376 0.2486 0.0
C1895 C 0.04523 0.34609 0.24581 0.0
C1896 C 0.05378 0.35969 0.2418 0.0
C1897 C 0.06771 0.36483 0.24052 0.0
C1898 C 0.07313 0.35639 0.24331 0.0
C1899 C 0.0997 0.31216 0.20685 0.0
C1900 C 0.1118 0.32412 0.203 0.0
C1901 C 0.09057 0.31225 0.21865 0.0
C1902 C 0.09337 0.32429 0.2269 0.0
C1903 C 0.10524 0.3363 0.22275 0.0
C1904 C 0.11438 0.33622 0.21098 0.0
C1905 C 0.08418 0.32437 0.24023 0.0
C1906 C 0.07883 0.33299 0.23825 0.0
C1907 C 0.08082 0.31615 0.2549 0.0
C1908 C 0.08649 0.30716 0.25805 0.0
C1909 C 0.10055 0.31243 0.25864 0.0
C1910 C 0.10581 0.30386 0.26149 0.0
C1911 C 0.09711 0.29003 0.26392 0.0
C1912 C 0.08312 0.28473 0.26355 0.0
C1913 C 0.07781 0.29325 0.26068 0.0
H1914 H 0.1012 0.28341 0.26612 0.0
H1915 H 0.04962 0.36625 0.23965 0.0
H1916 H 0.69752 0.72263 0.3032 0.0
H1917 H 0.70166 0.73771 0.27906 0.0
H1918 H 0.66039 0.72922 0.28169 0.0
H1919 H 0.65607 0.71382 0.3053 0.0
H1920 H 0.66698 0.7306 0.25024 0.0
H1921 H 0.68782 0.75851 0.29938 0.0
H1922 H 0.70313 0.7669 0.32406 0.0
H1923 H 0.73729 0.77858 0.29126 0.0
H1924 H 0.72215 0.7701 0.2664 0.0
H1925 H 0.69212 0.80551 0.22579 0.0
H1926 H 0.69078 0.78869 0.24609 0.0
H1927 H 0.68813 0.76272 0.20456 0.0
H1928 H 0.68864 0.77926 0.18429 0.0
H1929 H 0.70462 0.77796 0.25418 0.0
H1930 H 0.67031 0.73017 0.21542 0.0
H1931 H 0.65338 0.72284 0.19248 0.0
H1932 H 0.64279 0.75242 0.20812 0.0
H1933 H 0.65958 0.75984 0.23122 0.0
C1934 C 0.6893 0.7239 0.29853 0.0
C1935 C 0.67649 0.71707 0.30626 0.0
C1936 C 0.69169 0.73257 0.28477 0.0
C1937 C 0.6814 0.7348 0.27869 0.0
C1938 C 0.66851 0.72769 0.2861 0.0
C1939 C 0.66606 0.7189 0.29967 0.0
C1940 C 0.68404 0.74486 0.26506 0.0
C1941 C 0.67526 0.74094 0.25108 0.0
C1942 C 0.69474 0.75842 0.26616 0.0
C1943 C 0.70385 0.76354 0.28107 0.0
C1944 C 0.69859 0.76278 0.29745 0.0
C1945 C 0.70723 0.76757 0.31147 0.0
C1946 C 0.72117 0.77323 0.30923 0.0
C1947 C 0.72649 0.77417 0.29297 0.0
C1948 C 0.71789 0.76938 0.27892 0.0
C1949 C 0.69132 0.79622 0.22105 0.0
C1950 C 0.6904 0.7936 0.20355 0.0
C1951 C 0.69058 0.78662 0.23263 0.0
C1952 C 0.68912 0.77428 0.22693 0.0
C1953 C 0.68888 0.77196 0.20935 0.0
C1954 C 0.68926 0.78143 0.19776 0.0
C1955 C 0.68741 0.76378 0.2395 0.0
C1956 C 0.69642 0.76759 0.25324 0.0
C1957 C 0.67665 0.75024 0.23847 0.0
C1958 C 0.66628 0.74563 0.22492 0.0
C1959 C 0.66432 0.73505 0.214 0.0
C1960 C 0.65476 0.7309 0.20096 0.0
C1961 C 0.64705 0.73719 0.19881 0.0
C1962 C 0.64881 0.74759 0.20976 0.0
C1963 C 0.65834 0.75178 0.22282 0.0
H1964 H 0.63968 0.73398 0.18868 0.0
H1965 H 0.72784 0.77693 0.3201 0.0
H1966 H 0.29311 0.94547 0.30104 0.0
H1967 H 0.27852 0.93442 0.27683 0.0
H1968 H 0.26185 0.9609 0.28113 0.0
H1969 H 0.27629 0.97188 0.30583 0.0
H1970 H 0.24227 0.93573 0.27672 0.0
H1971 H 0.28364 0.96429 0.24831 0.0
H1972 H 0.30803 0.97499 0.24228 0.0
H1973 H 0.30353 0.93619 0.23068 0.0
H1974 H 0.27913 0.92522 0.23688 0.0
H1975 H 0.20656 0.90907 0.19853 0.0
H1976 H 0.22243 0.92501 0.21932 0.0
H1977 H 0.24 0.89954 0.22596 0.0
H1978 H 0.22396 0.88335 0.20564 0.0
H1979 H 0.25931 0.9269 0.22298 0.0
H1980 H 0.21821 0.89857 0.25443 0.0
H1981 H 0.19382 0.88821 0.26037 0.0
H1982 H 0.19809 0.92761 0.26564 0.0
H1983 H 0.22249 0.9382 0.25949 0.0
C1984 C 0.28644 0.94907 0.29681 0.0
C1985 C 0.28591 0.95961 0.30541 0.0
C1986 C 0.27814 0.94276 0.28285 0.0
C1987 C 0.26921 0.94694 0.27695 0.0
C1988 C 0.2687 0.95753 0.2854 0.0
C1989 C 0.27699 0.96383 0.29949 0.0
C1990 C 0.26003 0.93975 0.26247 0.0
C1991 C 0.24604 0.93406 0.26483 0.0
C1992 C 0.26488 0.93737 0.24701 0.0
C1993 C 0.27956 0.94392 0.24318 0.0
C1994 C 0.28786 0.95803 0.24459 0.0
C1995 C 0.30169 0.96414 0.24112 0.0
C1996 C 0.30733 0.95627 0.23613 0.0
C1997 C 0.29915 0.94227 0.23455 0.0
C1998 C 0.28531 0.9361 0.23802 0.0
C1999 C 0.21373 0.90679 0.20449 0.0
C2000 C 0.2139 0.89485 0.2004 0.0
C2001 C 0.22284 0.91596 0.2163 0.0
C2002 C 0.23235 0.91343 0.22424 0.0
C2003 C 0.23279 0.90173 0.21991 0.0
C2004 C 0.22363 0.89251 0.20821 0.0
C2005 C 0.24163 0.92273 0.23742 0.0
C2006 C 0.25561 0.92878 0.23479 0.0
C2007 C 0.23678 0.92553 0.25256 0.0
C2008 C 0.22213 0.91917 0.2563 0.0
C2009 C 0.21392 0.90502 0.25671 0.0
C2010 C 0.2001 0.89911 0.26014 0.0
C2011 C 0.1944 0.90725 0.26333 0.0
C2012 C 0.20251 0.92131 0.26314 0.0
C2013 C 0.21634 0.92728 0.25968 0.0
H2014 H 0.1837 0.90265 0.26599 0.0
H2015 H 0.31804 0.96103 0.23345 0.0
H2016 H 0.69793 0.96246 0.3186 0.0
H2017 H 0.70171 0.95078 0.29498 0.0
H2018 H 0.66639 0.94674 0.26965 0.0
H2019 H 0.66224 0.95783 0.29354 0.0
H2020 H 0.66514 0.92399 0.26879 0.0
H2021 H 0.70042 0.96885 0.25586 0.0
H2022 H 0.72057 0.99105 0.26133 0.0
H2023 H 0.7437 0.97171 0.27233 0.0
H2024 H 0.72364 0.94937 0.26714 0.0
H2025 H 0.67566 0.90061 0.18987 0.0
H2026 H 0.67515 0.91604 0.21102 0.0
H2027 H 0.70339 0.91108 0.24209 0.0
H2028 H 0.70359 0.89521 0.2214 0.0
H2029 H 0.70874 0.93868 0.23935 0.0
H2030 H 0.67249 0.89372 0.25266 0.0
H2031 H 0.65218 0.87192 0.24604 0.0
H2032 H 0.63068 0.89254 0.23287 0.0
H2033 H 0.65094 0.91449 0.23917 0.0
C2034 C 0.6911 0.95925 0.30786 0.0
C2035 C 0.67976 0.96102 0.30795 0.0
C2036 C 0.69329 0.95261 0.29431 0.0
C2037 C 0.68439 0.94792 0.2804 0.0
C2038 C 0.67337 0.95017 0.28024 0.0
C2039 C 0.67103 0.95656 0.29389 0.0
C2040 C 0.68594 0.93985 0.26657 0.0
C2041 C 0.67465 0.92738 0.2622 0.0
C2042 C 0.6984 0.94401 0.25815 0.0
C2043 C 0.71049 0.95743 0.26127 0.0
C2044 C 0.70978 0.96932 0.25957 0.0
C2045 C 0.72119 0.98193 0.2626 0.0
C2046 C 0.7334 0.98278 0.26722 0.0
C2047 C 0.73423 0.97103 0.26878 0.0
C2048 C 0.72285 0.95839 0.26577 0.0
C2049 C 0.68173 0.90272 0.20122 0.0
C2050 C 0.68957 0.89651 0.20394 0.0
C2051 C 0.6815 0.91164 0.21323 0.0
C2052 C 0.68918 0.91464 0.22814 0.0
C2053 C 0.69744 0.90894 0.23061 0.0
C2054 C 0.69757 0.8999 0.2187 0.0
C2055 C 0.68793 0.92305 0.24161 0.0
C2056 C 0.69926 0.93546 0.24594 0.0
C2057 C 0.67548 0.91895 0.24988 0.0
C2058 C 0.66327 0.90575 0.24621 0.0
C2059 C 0.66347 0.89361 0.24821 0.0
C2060 C 0.65196 0.88123 0.24455 0.0
C2061 C 0.64016 0.88085 0.23899 0.0
C2062 C 0.63983 0.89285 0.23715 0.0
C2063 C 0.65132 0.90527 0.24077 0.0
H2064 H 0.63126 0.87125 0.23617 0.0
H2065 H 0.74222 0.99255 0.26956 0.0
H2066 H 0.03343 0.72651 0.30288 0.0
H2067 H 0.04601 0.74147 0.27922 0.0
H2068 H 0.07397 0.72646 0.28014 0.0
H2069 H 0.06155 0.71156 0.30374 0.0
H2070 H 0.08689 0.75391 0.27994 0.0
H2071 H 0.05089 0.71734 0.24874 0.0
H2072 H 0.02713 0.7013 0.24155 0.0
H2073 H 0.02062 0.73438 0.2301 0.0
H2074 H 0.04431 0.75063 0.23745 0.0
H2075 H 0.12406 0.78194 0.20544 0.0
H2076 H 0.10893 0.76589 0.22652 0.0
H2077 H 0.08159 0.78136 0.22059 0.0
H2078 H 0.09641 0.79709 0.19881 0.0
H2079 H 0.06775 0.75441 0.22362 0.0
H2080 H 0.10331 0.79098 0.25421 0.0
H2081 H 0.12687 0.80744 0.26177 0.0
H2082 H 0.1339 0.77501 0.27512 0.0
H2083 H 0.11042 0.75834 0.2674 0.0
C2084 C 0.04218 0.72629 0.29794 0.0
C2085 C 0.04648 0.71784 0.30526 0.0
C2086 C 0.04933 0.73483 0.28438 0.0
C2087 C 0.06091 0.73506 0.27789 0.0
C2088 C 0.06508 0.72647 0.28498 0.0
C2089 C 0.05793 0.71792 0.29845 0.0
C2090 C 0.0691 0.74465 0.26423 0.0
C2091 C 0.08274 0.7539 0.26755 0.0
C2092 C 0.06357 0.74495 0.24827 0.0
C2093 C 0.04934 0.7352 0.24382 0.0
C2094 C 0.04436 0.72119 0.24484 0.0
C2095 C 0.03091 0.71207 0.2407 0.0
C2096 C 0.02236 0.71682 0.23542 0.0
C2097 C 0.02725 0.73071 0.23422 0.0
C2098 C 0.04069 0.73988 0.23835 0.0
C2099 C 0.11472 0.78179 0.20834 0.0
C2100 C 0.11151 0.79087 0.20041 0.0
C2101 C 0.10614 0.7727 0.22058 0.0
C2102 C 0.09423 0.77258 0.22538 0.0
C2103 C 0.09077 0.78133 0.21718 0.0
C2104 C 0.09932 0.7904 0.20484 0.0
C2105 C 0.08561 0.76351 0.23924 0.0
C2106 C 0.07189 0.75443 0.23601 0.0
C2107 C 0.09102 0.76341 0.25537 0.0
C2108 C 0.10514 0.77341 0.26008 0.0
C2109 C 0.10991 0.78735 0.25863 0.0
C2110 C 0.12324 0.79672 0.26297 0.0
C2111 C 0.13189 0.79227 0.26889 0.0
C2112 C 0.1272 0.77844 0.27052 0.0
C2113 C 0.11388 0.76903 0.26618 0.0
H2114 H 0.14221 0.79954 0.27224 0.0
H2115 H 0.01195 0.70973 0.23222 0.0
H2116 H 0.27576 0.30707 0.30991 0.0
H2117 H 0.26115 0.30513 0.28608 0.0
H2118 H 0.28247 0.34853 0.28087 0.0
H2119 H 0.29696 0.35058 0.30471 0.0
H2120 H 0.25587 0.33869 0.28139 0.0
H2121 H 0.28647 0.32808 0.25211 0.0
H2122 H 0.2986 0.31558 0.24706 0.0
H2123 H 0.26081 0.27864 0.24142 0.0
H2124 H 0.24844 0.2909 0.24666 0.0
H2125 H 0.22965 0.3464 0.20453 0.0
H2126 H 0.24531 0.34618 0.22545 0.0
H2127 H 0.22141 0.30272 0.22843 0.0
H2128 H 0.20566 0.30287 0.20742 0.0
H2129 H 0.24846 0.31135 0.22929 0.0
H2130 H 0.21787 0.32175 0.25826 0.0
H2131 H 0.20552 0.33402 0.2634 0.0
H2132 H 0.24307 0.37103 0.2701 0.0
H2133 H 0.25566 0.35902 0.26475 0.0
C2134 C 0.27743 0.31619 0.30358 0.0
C2135 C 0.28751 0.32898 0.3093 0.0
C2136 C 0.26909 0.31506 0.28991 0.0
C2137 C 0.27074 0.32669 0.28163 0.0
C2138 C 0.28098 0.33942 0.28709 0.0
C2139 C 0.28929 0.34056 0.30072 0.0
C2140 C 0.26139 0.32573 0.26789 0.0
C2141 C 0.25441 0.33286 0.2699 0.0
C2142 C 0.25912 0.31776 0.25314 0.0
C2143 C 0.26654 0.31038 0.24996 0.0
C2144 C 0.28075 0.31727 0.24994 0.0
C2145 C 0.28766 0.31023 0.24701 0.0
C2146 C 0.28048 0.29632 0.24397 0.0
C2147 C 0.26636 0.28942 0.2438 0.0
C2148 C 0.25939 0.29641 0.24674 0.0
C2149 C 0.22774 0.33679 0.20961 0.0
C2150 C 0.21633 0.32467 0.20447 0.0
C2151 C 0.23671 0.33668 0.22154 0.0
C2152 C 0.2344 0.32446 0.22873 0.0
C2153 C 0.22337 0.31227 0.22308 0.0
C2154 C 0.21439 0.31237 0.21106 0.0
C2155 C 0.24318 0.32453 0.2427 0.0
C2156 C 0.24996 0.31719 0.24079 0.0
C2157 C 0.24525 0.33226 0.25762 0.0
C2158 C 0.23771 0.3395 0.26095 0.0
C2159 C 0.2235 0.33253 0.26071 0.0
C2160 C 0.21645 0.33943 0.26367 0.0
C2161 C 0.22351 0.3533 0.26703 0.0
C2162 C 0.23762 0.36029 0.26748 0.0
C2163 C 0.24472 0.35344 0.26449 0.0
H2164 H 0.21803 0.35863 0.26933 0.0
H2165 H 0.28585 0.29089 0.2417 0.0
H2166 H 0.28012 0.31852 0.40169 0.0
H2167 H 0.26801 0.32149 0.42529 0.0
H2168 H 0.2934 0.36477 0.42154 0.0
H2169 H 0.30548 0.3619 0.39761 0.0
H2170 H 0.27426 0.33231 0.45614 0.0
H2171 H 0.27379 0.37912 0.42989 0.0
H2172 H 0.27556 0.39032 0.40245 0.0
H2173 H 0.25958 0.35221 0.37668 0.0
H2174 H 0.25757 0.34077 0.40398 0.0
H2175 H 0.24141 0.35237 0.51749 0.0
H2176 H 0.25805 0.3532 0.49713 0.0
H2177 H 0.22804 0.33931 0.45747 0.0
H2178 H 0.2116 0.33903 0.47748 0.0
H2179 H 0.25115 0.35865 0.44569 0.0
H2180 H 0.23662 0.31782 0.47808 0.0
H2181 H 0.23277 0.30451 0.50424 0.0
H2182 H 0.27519 0.32698 0.51554 0.0
H2183 H 0.27926 0.34054 0.48954 0.0
C2184 C 0.28324 0.32869 0.40593 0.0
C2185 C 0.2937 0.33998 0.39761 0.0
C2186 C 0.27633 0.33036 0.41951 0.0
C2187 C 0.27968 0.34335 0.42508 0.0
C2188 C 0.29051 0.35465 0.41731 0.0
C2189 C 0.29743 0.35299 0.40366 0.0
C2190 C 0.27129 0.34492 0.43836 0.0
C2191 C 0.26931 0.33818 0.45391 0.0
C2192 C 0.26466 0.35241 0.43541 0.0
C2193 C 0.26569 0.35914 0.41894 0.0
C2194 C 0.27063 0.37314 0.41836 0.0
C2195 C 0.27167 0.37952 0.40284 0.0
C2196 C 0.26773 0.37199 0.38782 0.0
C2197 C 0.26269 0.35804 0.38831 0.0
C2198 C 0.2616 0.35161 0.4038 0.0
C2199 C 0.2384 0.34964 0.50439 0.0
C2200 C 0.22511 0.34552 0.49917 0.0
C2201 C 0.2479 0.35001 0.4928 0.0
C2202 C 0.24427 0.34618 0.47579 0.0
C2203 C 0.23109 0.3423 0.47052 0.0
C2204 C 0.22163 0.34198 0.48205 0.0
C2205 C 0.25403 0.34596 0.46344 0.0
C2206 C 0.25628 0.35298 0.44805 0.0
C2207 C 0.26065 0.33846 0.4664 0.0
C2208 C 0.25822 0.33029 0.48198 0.0
C2209 C 0.24511 0.31998 0.48621 0.0
C2210 C 0.24289 0.31238 0.501 0.0
C2211 C 0.25372 0.31492 0.51157 0.0
C2212 C 0.2668 0.32504 0.50736 0.0
C2213 C 0.26908 0.33268 0.4926 0.0
H2214 H 0.25198 0.30903 0.52301 0.0
H2215 H 0.26856 0.37695 0.37582 0.0
H2216 H 0.67569 0.96511 0.40888 0.0
H2217 H 0.67234 0.94999 0.43256 0.0
H2218 H 0.63851 0.91744 0.40647 0.0
H2219 H 0.64146 0.93279 0.38303 0.0
H2220 H 0.63327 0.91517 0.43878 0.0
H2221 H 0.67115 0.9214 0.40582 0.0
H2222 H 0.6931 0.93421 0.39119 0.0
H2223 H 0.71242 0.95188 0.43859 0.0
H2224 H 0.69055 0.93931 0.45348 0.0
H2225 H 0.63801 0.86167 0.48052 0.0
H2226 H 0.63785 0.87757 0.45995 0.0
H2227 H 0.66558 0.91096 0.49121 0.0
H2228 H 0.66539 0.89517 0.51227 0.0
H2229 H 0.67356 0.9126 0.4567 0.0
H2230 H 0.63452 0.90448 0.48939 0.0
H2231 H 0.61227 0.89029 0.50279 0.0
H2232 H 0.59482 0.87421 0.45403 0.0
H2233 H 0.61702 0.88818 0.44036 0.0
C2234 C 0.66744 0.95478 0.40828 0.0
C2235 C 0.65892 0.9501 0.39402 0.0
C2236 C 0.66557 0.9461 0.42179 0.0
C2237 C 0.65542 0.93244 0.42113 0.0
C2238 C 0.64648 0.9279 0.40725 0.0
C2239 C 0.64817 0.93668 0.39386 0.0
C2240 C 0.65452 0.92283 0.43453 0.0
C2241 C 0.64206 0.91452 0.44254 0.0
C2242 C 0.666 0.922 0.43962 0.0
C2243 C 0.67919 0.92952 0.43073 0.0
C2244 C 0.68007 0.92809 0.4131 0.0
C2245 C 0.69249 0.9353 0.40477 0.0
C2246 C 0.70414 0.94388 0.41395 0.0
C2247 C 0.70339 0.94525 0.4315 0.0
C2248 C 0.69098 0.93807 0.43989 0.0
C2249 C 0.64384 0.87237 0.48329 0.0
C2250 C 0.65174 0.87708 0.49813 0.0
C2251 C 0.64379 0.88145 0.47143 0.0
C2252 C 0.65168 0.89543 0.47408 0.0
C2253 C 0.65945 0.9002 0.48891 0.0
C2254 C 0.65939 0.89114 0.50089 0.0
C2255 C 0.65238 0.90508 0.46097 0.0
C2256 C 0.66481 0.91333 0.45296 0.0
C2257 C 0.64083 0.90564 0.45568 0.0
C2258 C 0.62747 0.89728 0.46387 0.0
C2259 C 0.62597 0.89783 0.48154 0.0
C2260 C 0.61336 0.88985 0.48918 0.0
C2261 C 0.60215 0.88133 0.47927 0.0
C2262 C 0.60352 0.8808 0.46169 0.0
C2263 C 0.61611 0.88876 0.45399 0.0
H2264 H 0.59239 0.87515 0.48521 0.0
H2265 H 0.71375 0.94945 0.40747 0.0
H2266 H 0.04378 0.72746 0.39546 0.0
H2267 H 0.05864 0.73991 0.41905 0.0
H2268 H 0.07454 0.71268 0.41918 0.0
H2269 H 0.05962 0.70006 0.39549 0.0
H2270 H 0.07009 0.71938 0.45196 0.0
H2271 H 0.09233 0.74211 0.40047 0.0
H2272 H 0.09415 0.75286 0.37271 0.0
H2273 H 0.08698 0.78258 0.39651 0.0
H2274 H 0.08492 0.77189 0.4244 0.0
H2275 H 0.1289 0.76297 0.50065 0.0
H2276 H 0.11311 0.74796 0.47912 0.0
H2277 H 0.09831 0.77574 0.4718 0.0
H2278 H 0.11446 0.79107 0.49265 0.0
H2279 H 0.10269 0.76801 0.44233 0.0
H2280 H 0.07999 0.7453 0.49369 0.0
H2281 H 0.07775 0.73452 0.52154 0.0
H2282 H 0.0854 0.70491 0.49839 0.0
H2283 H 0.08787 0.71563 0.47042 0.0
C2284 C 0.05033 0.72401 0.40055 0.0
C2285 C 0.05057 0.71281 0.39345 0.0
C2286 C 0.05885 0.73117 0.41404 0.0
C2287 C 0.06782 0.72733 0.42071 0.0
C2288 C 0.06771 0.71583 0.41417 0.0
C2289 C 0.0592 0.70866 0.40061 0.0
C2290 C 0.0777 0.73574 0.43397 0.0
C2291 C 0.07735 0.72997 0.44982 0.0
C2292 C 0.08701 0.74961 0.43124 0.0
C2293 C 0.08835 0.75612 0.4145 0.0
C2294 C 0.09104 0.75088 0.39977 0.0
C2295 C 0.09213 0.75697 0.38401 0.0
C2296 C 0.09065 0.76838 0.38284 0.0
C2297 C 0.08811 0.77374 0.39743 0.0
C2298 C 0.08699 0.76767 0.41322 0.0
C2299 C 0.12233 0.76592 0.49441 0.0
C2300 C 0.12297 0.77825 0.49845 0.0
C2301 C 0.11319 0.75724 0.48222 0.0
C2302 C 0.1044 0.76064 0.47394 0.0
C2303 C 0.10495 0.77287 0.47804 0.0
C2304 C 0.11411 0.78157 0.49013 0.0
C2305 C 0.09497 0.75175 0.46052 0.0
C2306 C 0.09545 0.75742 0.44455 0.0
C2307 C 0.08576 0.73783 0.4632 0.0
C2308 C 0.08426 0.73135 0.47999 0.0
C2309 C 0.0813 0.73655 0.49456 0.0
C2310 C 0.07997 0.73044 0.51036 0.0
C2311 C 0.08147 0.71906 0.51174 0.0
C2312 C 0.08427 0.71374 0.49731 0.0
C2313 C 0.08562 0.71982 0.48147 0.0
H2314 H 0.08044 0.71434 0.52399 0.0
H2315 H 0.0915 0.77308 0.37063 0.0
H2316 H 0.35072 0.0565 0.73388 0.0
H2317 H 0.34785 0.06868 0.7575 0.0
H2318 H 0.30456 0.04521 0.75174 0.0
H2319 H 0.30733 0.03285 0.72808 0.0
H2320 H 0.33703 0.08467 0.75641 0.0
H2321 H 0.29004 0.04297 0.79119 0.0
H2322 H 0.27907 0.01848 0.79683 0.0
H2323 H 0.31729 0.02006 0.79177 0.0
H2324 H 0.32851 0.04458 0.78633 0.0
H2325 H 0.30963 0.11445 0.81012 0.0
H2326 H 0.31085 0.09893 0.7897 0.0
H2327 H 0.32847 0.08552 0.82798 0.0
H2328 H 0.32709 0.1009 0.84861 0.0
H2329 H 0.30937 0.06426 0.80813 0.0
H2330 H 0.34867 0.1081 0.80047 0.0
H2331 H 0.36083 0.13274 0.79576 0.0
H2332 H 0.34045 0.12703 0.7481 0.0
H2333 H 0.32802 0.10235 0.75265 0.0
C2334 C 0.34056 0.05379 0.73771 0.0
C2335 C 0.32925 0.04371 0.729 0.0
C2336 C 0.33895 0.06081 0.75121 0.0
C2337 C 0.326 0.05787 0.7564 0.0
C2338 C 0.31465 0.04757 0.74806 0.0
C2339 C 0.31625 0.04053 0.7345 0.0
C2340 C 0.3245 0.06612 0.76993 0.0
C2341 C 0.33097 0.08018 0.7677 0.0
C2342 C 0.31669 0.0603 0.78475 0.0
C2343 C 0.31008 0.04558 0.78818 0.0
C2344 C 0.29611 0.03809 0.79134 0.0
C2345 C 0.28984 0.02421 0.79449 0.0
C2346 C 0.29747 0.01771 0.7946 0.0
C2347 C 0.31138 0.0251 0.79161 0.0
C2348 C 0.31769 0.03899 0.78846 0.0
C2349 C 0.31356 0.10804 0.81429 0.0
C2350 C 0.31831 0.10894 0.83098 0.0
C2351 C 0.31432 0.09924 0.80257 0.0
C2352 C 0.31985 0.09116 0.80729 0.0
C2353 C 0.32417 0.09168 0.82408 0.0
C2354 C 0.32348 0.10054 0.8358 0.0
C2355 C 0.32178 0.08274 0.79445 0.0
C2356 C 0.31539 0.0687 0.79679 0.0
C2357 C 0.3298 0.08857 0.7798 0.0
C2358 C 0.33732 0.10339 0.77698 0.0
C2359 C 0.34671 0.11211 0.78905 0.0
C2360 C 0.35366 0.12608 0.7864 0.0
C2361 C 0.35139 0.13145 0.77166 0.0
C2362 C 0.34218 0.12286 0.75952 0.0
C2363 C 0.33519 0.10888 0.76212 0.0
H2364 H 0.35679 0.14227 0.76962 0.0
H2365 H 0.2926 0.00696 0.79703 0.0
H2366 H 0.97349 0.28119 0.73244 0.0
H2367 H 0.96132 0.26633 0.75633 0.0
H2368 H 0.92743 0.27228 0.74689 0.0
H2369 H 0.93972 0.28753 0.72357 0.0
H2370 H 0.9304 0.27222 0.77887 0.0
H2371 H 0.92858 0.24312 0.73365 0.0
H2372 H 0.93783 0.23457 0.71165 0.0
H2373 H 0.95959 0.22631 0.74975 0.0
H2374 H 0.95059 0.23497 0.77195 0.0
H2375 H 0.88446 0.19785 0.80906 0.0
H2376 H 0.89941 0.21417 0.78798 0.0
H2377 H 0.92005 0.24337 0.82777 0.0
H2378 H 0.9047 0.22716 0.84884 0.0
H2379 H 0.92458 0.22621 0.78138 0.0
H2380 H 0.93187 0.27513 0.8132 0.0
H2381 H 0.91969 0.28242 0.83254 0.0
H2382 H 0.8818 0.24883 0.81661 0.0
H2383 H 0.89375 0.24145 0.79703 0.0
C2384 C 0.96347 0.27938 0.73553 0.0
C2385 C 0.95756 0.28551 0.72606 0.0
C2386 C 0.95649 0.27082 0.74915 0.0
C2387 C 0.94334 0.26798 0.75331 0.0
C2388 C 0.93756 0.2743 0.74402 0.0
C2389 C 0.9446 0.28301 0.73062 0.0
C2390 C 0.93544 0.25826 0.76707 0.0
C2391 C 0.92919 0.26218 0.77944 0.0
C2392 C 0.93362 0.24505 0.76774 0.0
C2393 C 0.93904 0.23983 0.75443 0.0
C2394 C 0.93542 0.23957 0.73731 0.0
C2395 C 0.9406 0.23469 0.72481 0.0
C2396 C 0.94932 0.22994 0.72929 0.0
C2397 C 0.95285 0.23002 0.74629 0.0
C2398 C 0.94771 0.23491 0.75884 0.0
C2399 C 0.89224 0.20773 0.8133 0.0
C2400 C 0.8934 0.21127 0.83056 0.0
C2401 C 0.9008 0.21706 0.80125 0.0
C2402 C 0.91079 0.2301 0.8062 0.0
C2403 C 0.91224 0.2335 0.82354 0.0
C2404 C 0.90351 0.22423 0.83559 0.0
C2405 C 0.91944 0.24013 0.79309 0.0
C2406 C 0.92589 0.23629 0.78089 0.0
C2407 C 0.92102 0.25324 0.79221 0.0
C2408 C 0.91373 0.25766 0.80381 0.0
C2409 C 0.92094 0.26933 0.8138 0.0
C2410 C 0.91408 0.27347 0.8248 0.0
C2411 C 0.89998 0.26606 0.82585 0.0
C2412 C 0.89272 0.25453 0.81584 0.0
C2413 C 0.89953 0.25035 0.8048 0.0
H2414 H 0.89469 0.26928 0.83439 0.0
H2415 H 0.95332 0.22617 0.7196 0.0
H2416 H 0.7103 0.65062 0.72805 0.0
H2417 H 0.72406 0.65223 0.75254 0.0
H2418 H 0.73596 0.6943 0.75854 0.0
H2419 H 0.72242 0.69285 0.73375 0.0
H2420 H 0.7573 0.69111 0.7605 0.0
H2421 H 0.71359 0.66974 0.7864 0.0
H2422 H 0.68946 0.65272 0.78949 0.0
H2423 H 0.69953 0.62128 0.79351 0.0
H2424 H 0.72372 0.63808 0.79022 0.0
H2425 H 0.79122 0.6976 0.83834 0.0
H2426 H 0.77484 0.69685 0.81776 0.0
H2427 H 0.76175 0.65499 0.80728 0.0
H2428 H 0.77809 0.65567 0.82784 0.0
H2429 H 0.74049 0.65906 0.80892 0.0
H2430 H 0.78387 0.6802 0.78097 0.0
H2431 H 0.80802 0.69711 0.77764 0.0
H2432 H 0.79838 0.72898 0.77734 0.0
H2433 H 0.77418 0.71225 0.7809 0.0
C2434 C 0.71574 0.6602 0.73465 0.0
C2435 C 0.71524 0.67161 0.7289 0.0
C2436 C 0.72356 0.66108 0.74873 0.0
C2437 C 0.73094 0.67335 0.75754 0.0
C2438 C 0.73034 0.68472 0.75197 0.0
C2439 C 0.72256 0.68386 0.73781 0.0
C2440 C 0.73979 0.67443 0.77201 0.0
C2441 C 0.75355 0.68426 0.77125 0.0
C2442 C 0.735 0.6653 0.78586 0.0
C2443 C 0.72047 0.65517 0.78793 0.0
C2444 C 0.71065 0.65918 0.78783 0.0
C2445 C 0.69696 0.64958 0.78963 0.0
C2446 C 0.69296 0.63593 0.79166 0.0
C2447 C 0.70265 0.63186 0.79193 0.0
C2448 C 0.71635 0.64142 0.79012 0.0
C2449 C 0.78485 0.68823 0.83166 0.0
C2450 C 0.78603 0.67672 0.83466 0.0
C2451 C 0.77548 0.68781 0.81991 0.0
C2452 C 0.76719 0.67591 0.81079 0.0
C2453 C 0.76803 0.66428 0.81417 0.0
C2454 C 0.77736 0.66468 0.82597 0.0
C2455 C 0.75797 0.67568 0.79732 0.0
C2456 C 0.74417 0.66599 0.79825 0.0
C2457 C 0.76271 0.68493 0.78361 0.0
C2458 C 0.77724 0.69499 0.78139 0.0
C2459 C 0.78692 0.69082 0.78032 0.0
C2460 C 0.80061 0.70037 0.77838 0.0
C2461 C 0.80473 0.71412 0.77733 0.0
C2462 C 0.79517 0.71833 0.77818 0.0
C2463 C 0.78147 0.70882 0.78015 0.0
H2464 H 0.81534 0.7215 0.77582 0.0
H2465 H 0.68236 0.62851 0.79305 0.0
H2466 H 0.6968 0.64779 0.63037 0.0
H2467 H 0.70909 0.64646 0.60559 0.0
H2468 H 0.7447 0.68308 0.6216 0.0
H2469 H 0.73231 0.6848 0.64577 0.0
H2470 H 0.74306 0.68419 0.5897 0.0
H2471 H 0.73935 0.64951 0.62785 0.0
H2472 H 0.72746 0.62907 0.64561 0.0
H2473 H 0.70608 0.60576 0.60184 0.0
H2474 H 0.71773 0.62611 0.58386 0.0
H2475 H 0.79612 0.67622 0.55482 0.0
H2476 H 0.77944 0.67606 0.57427 0.0
H2477 H 0.74743 0.65027 0.54007 0.0
H2478 H 0.76411 0.65097 0.51987 0.0
H2479 H 0.745 0.64249 0.57789 0.0
H2480 H 0.75184 0.67833 0.53966 0.0
H2481 H 0.76574 0.6992 0.52332 0.0
H2482 H 0.78347 0.72085 0.5695 0.0
H2483 H 0.76983 0.70004 0.5861 0.0
C2484 C 0.70723 0.65558 0.62852 0.0
C2485 C 0.71358 0.66639 0.64005 0.0
C2486 C 0.71428 0.65477 0.6144 0.0
C2487 C 0.72793 0.66455 0.61179 0.0
C2488 C 0.73419 0.67542 0.62323 0.0
C2489 C 0.72709 0.67637 0.6371 0.0
C2490 C 0.73585 0.66356 0.59734 0.0
C2491 C 0.7435 0.67507 0.58724 0.0
C2492 C 0.73629 0.65159 0.59377 0.0
C2493 C 0.72928 0.63936 0.60456 0.0
C2494 C 0.73204 0.64005 0.62204 0.0
C2495 C 0.72536 0.62848 0.63214 0.0
C2496 C 0.71599 0.61613 0.62487 0.0
C2497 C 0.71331 0.61533 0.60747 0.0
C2498 C 0.71996 0.62688 0.59731 0.0
C2499 C 0.78558 0.67072 0.55115 0.0
C2500 C 0.78156 0.66372 0.53557 0.0
C2501 C 0.77605 0.67054 0.56242 0.0
C2502 C 0.76224 0.66318 0.55857 0.0
C2503 C 0.75807 0.65597 0.54326 0.0
C2504 C 0.76764 0.65634 0.53178 0.0
C2505 C 0.75229 0.66316 0.57067 0.0
C2506 C 0.74433 0.6515 0.58029 0.0
C2507 C 0.75176 0.67504 0.57405 0.0
C2508 C 0.75989 0.6876 0.56411 0.0
C2509 C 0.75879 0.68751 0.54632 0.0
C2510 C 0.76661 0.69934 0.53701 0.0
C2511 C 0.77551 0.71134 0.54536 0.0
C2512 C 0.77658 0.71155 0.56305 0.0
C2513 C 0.7688 0.69974 0.57241 0.0
H2514 H 0.78155 0.72049 0.53814 0.0
H2515 H 0.71083 0.60719 0.63271 0.0
H2516 H 0.32335 0.04957 0.6421 0.0
H2517 H 0.32743 0.06429 0.61781 0.0
H2518 H 0.36731 0.06941 0.61186 0.0
H2519 H 0.36347 0.05507 0.63675 0.0
H2520 H 0.36914 0.09236 0.60767 0.0
H2521 H 0.34032 0.04919 0.58407 0.0
H2522 H 0.32049 0.0263 0.58194 0.0
H2523 H 0.2943 0.04315 0.57919 0.0
H2524 H 0.31396 0.06615 0.58153 0.0
H2525 H 0.35038 0.1093 0.51756 0.0
H2526 H 0.35019 0.09296 0.53788 0.0
H2527 H 0.35867 0.12147 0.5786 0.0
H2528 H 0.35943 0.13794 0.55824 0.0
H2529 H 0.33489 0.08017 0.5623 0.0
H2530 H 0.37479 0.11728 0.6109 0.0
H2531 H 0.39622 0.13902 0.6107 0.0
H2532 H 0.40331 0.13217 0.55902 0.0
H2533 H 0.38203 0.11031 0.55898 0.0
C2534 C 0.33297 0.05375 0.63558 0.0
C2535 C 0.34307 0.05109 0.64133 0.0
C2536 C 0.33527 0.06212 0.62159 0.0
C2537 C 0.34759 0.06779 0.61273 0.0
C2538 C 0.3577 0.06514 0.61843 0.0
C2539 C 0.35548 0.05692 0.63264 0.0
C2540 C 0.35 0.07684 0.59793 0.0
C2541 C 0.36169 0.08965 0.5977 0.0
C2542 C 0.3405 0.07322 0.58457 0.0
C2543 C 0.32862 0.0594 0.58309 0.0
C2544 C 0.33033 0.04802 0.58312 0.0
C2545 C 0.31911 0.03502 0.58186 0.0
C2546 C 0.30614 0.03327 0.58046 0.0
C2547 C 0.30436 0.04452 0.58028 0.0
C2548 C 0.31553 0.05754 0.58155 0.0
C2549 C 0.35233 0.11208 0.53084 0.0
C2550 C 0.35503 0.12491 0.53633 0.0
C2551 C 0.35221 0.10275 0.54246 0.0
C2552 C 0.35462 0.106 0.5598 0.0
C2553 C 0.35718 0.1188 0.56527 0.0
C2554 C 0.35756 0.12821 0.55363 0.0
C2555 C 0.35383 0.09586 0.57233 0.0
C2556 C 0.34244 0.08283 0.57214 0.0
C2557 C 0.36384 0.09912 0.58494 0.0
C2558 C 0.37675 0.1122 0.58491 0.0
C2559 C 0.38096 0.12038 0.59952 0.0
C2560 C 0.39307 0.13273 0.59944 0.0
C2561 C 0.4011 0.13699 0.58484 0.0
C2562 C 0.39706 0.12888 0.5703 0.0
C2563 C 0.38496 0.11652 0.57032 0.0
H2564 H 0.41047 0.14656 0.5848 0.0
H2565 H 0.29747 0.0232 0.57949 0.0
H2566 H 0.94662 0.30667 0.63648 0.0
H2567 H 0.93259 0.2953 0.6117 0.0
H2568 H 0.94837 0.26796 0.6104 0.0
H2569 H 0.96258 0.27939 0.6349 0.0
H2570 H 0.94589 0.27509 0.57888 0.0
H2571 H 0.91774 0.25894 0.62887 0.0
H2572 H 0.90739 0.26127 0.65524 0.0
H2573 H 0.88876 0.27994 0.62739 0.0
H2574 H 0.89916 0.27788 0.60087 0.0
H2575 H 0.89363 0.21726 0.53777 0.0
H2576 H 0.91025 0.23365 0.5574 0.0
H2577 H 0.89255 0.25909 0.55179 0.0
H2578 H 0.87604 0.2429 0.53175 0.0
H2579 H 0.89627 0.25501 0.58511 0.0
H2580 H 0.92262 0.26863 0.53433 0.0
H2581 H 0.93268 0.26557 0.50815 0.0
H2582 H 0.95446 0.25101 0.53747 0.0
H2583 H 0.94436 0.25378 0.56381 0.0
C2584 C 0.94721 0.29833 0.63083 0.0
C2585 C 0.95566 0.29389 0.6378 0.0
C2586 C 0.93914 0.2918 0.61668 0.0
C2587 C 0.93926 0.28064 0.60933 0.0
C2588 C 0.94807 0.27653 0.61586 0.0
C2589 C 0.95617 0.28307 0.62994 0.0
C2590 C 0.9298 0.27279 0.59537 0.0
C2591 C 0.93503 0.27063 0.58028 0.0
C2592 C 0.91564 0.2672 0.59702 0.0
C2593 C 0.90935 0.26841 0.61293 0.0
C2594 C 0.91152 0.26364 0.6284 0.0
C2595 C 0.90563 0.26489 0.64336 0.0
C2596 C 0.89745 0.27078 0.643 0.0
C2597 C 0.89512 0.2754 0.62766 0.0
C2598 C 0.901 0.27419 0.61265 0.0
C2599 C 0.89341 0.22646 0.54039 0.0
C2600 C 0.88346 0.22873 0.53311 0.0
C2601 C 0.90291 0.23581 0.55169 0.0
C2602 C 0.9027 0.24765 0.55598 0.0
C2603 C 0.89288 0.25002 0.54867 0.0
C2604 C 0.88341 0.2407 0.53728 0.0
C2605 C 0.91235 0.25718 0.56871 0.0
C2606 C 0.90713 0.25962 0.5836 0.0
C2607 C 0.92651 0.26296 0.56689 0.0
C2608 C 0.93264 0.26131 0.55106 0.0
C2609 C 0.92946 0.26467 0.5352 0.0
C2610 C 0.93519 0.263 0.52032 0.0
C2611 C 0.94418 0.25808 0.52115 0.0
C2612 C 0.94748 0.25482 0.53685 0.0
C2613 C 0.94177 0.25645 0.55176 0.0
H2614 H 0.94862 0.25682 0.50962 0.0
H2615 H 0.8929 0.27174 0.6546 0.0
H2616 H 0.36558 0.29566 0.65021 0.0
H2617 H 0.36864 0.28339 0.62672 0.0
H2618 H 0.33447 0.2816 0.60088 0.0
H2619 H 0.33101 0.29327 0.62467 0.0
H2620 H 0.33173 0.25825 0.6 0.0
H2621 H 0.36895 0.30208 0.58738 0.0
H2622 H 0.38983 0.32364 0.59299 0.0
H2623 H 0.41073 0.30215 0.6048 0.0
H2624 H 0.38992 0.28044 0.59948 0.0
H2625 H 0.34156 0.23268 0.52208 0.0
H2626 H 0.3414 0.24858 0.54277 0.0
H2627 H 0.36834 0.2425 0.57505 0.0
H2628 H 0.36817 0.22618 0.55482 0.0
H2629 H 0.37513 0.27028 0.57163 0.0
H2630 H 0.33687 0.22641 0.58483 0.0
H2631 H 0.31587 0.20528 0.57806 0.0
H2632 H 0.29683 0.22804 0.56356 0.0
H2633 H 0.3178 0.24933 0.57002 0.0
C2634 C 0.35886 0.29283 0.63939 0.0
C2635 C 0.34803 0.29539 0.63932 0.0
C2636 C 0.36065 0.28585 0.6259 0.0
C2637 C 0.35185 0.28161 0.61188 0.0
C2638 C 0.34136 0.28467 0.61155 0.0
C2639 C 0.33942 0.29139 0.62514 0.0
C2640 C 0.35291 0.27317 0.59814 0.0
C2641 C 0.34121 0.26107 0.59363 0.0
C2642 C 0.3653 0.27659 0.58998 0.0
C2643 C 0.37783 0.28963 0.59318 0.0
C2644 C 0.37797 0.30194 0.5913 0.0
C2645 C 0.38979 0.31419 0.5944 0.0
C2646 C 0.40159 0.31426 0.59929 0.0
C2647 C 0.40158 0.30208 0.60103 0.0
C2648 C 0.38978 0.2898 0.59796 0.0
C2649 C 0.34739 0.23462 0.53361 0.0
C2650 C 0.3548 0.22802 0.53676 0.0
C2651 C 0.34737 0.24381 0.54537 0.0
C2652 C 0.35482 0.24667 0.56046 0.0
C2653 C 0.36258 0.24048 0.56342 0.0
C2654 C 0.3625 0.23118 0.55177 0.0
C2655 C 0.35397 0.25557 0.57357 0.0
C2656 C 0.36569 0.26764 0.57798 0.0
C2657 C 0.34158 0.25226 0.5815 0.0
C2658 C 0.32894 0.23946 0.57774 0.0
C2659 C 0.32824 0.22691 0.58006 0.0
C2660 C 0.31634 0.21491 0.57631 0.0
C2661 C 0.30503 0.21532 0.57034 0.0
C2662 C 0.3056 0.22774 0.56816 0.0
C2663 C 0.31749 0.23977 0.57188 0.0
H2664 H 0.29582 0.20601 0.56744 0.0
H2665 H 0.41073 0.32376 0.60169 0.0
H2666 H 0.72791 0.04363 0.63693 0.0
H2667 H 0.74052 0.05901 0.61385 0.0
H2668 H 0.71432 0.07607 0.61595 0.0
H2669 H 0.70153 0.06063 0.63921 0.0
H2670 H 0.72061 0.07186 0.58241 0.0
H2671 H 0.74368 0.09291 0.63414 0.0
H2672 H 0.75432 0.09399 0.66175 0.0
H2673 H 0.78341 0.08631 0.63713 0.0
H2674 H 0.77281 0.08498 0.60938 0.0
H2675 H 0.76527 0.13074 0.53452 0.0
H2676 H 0.75005 0.11493 0.55587 0.0
H2677 H 0.77692 0.09894 0.56232 0.0
H2678 H 0.79249 0.11513 0.54164 0.0
H2679 H 0.76949 0.10328 0.59205 0.0
H2680 H 0.74631 0.08155 0.54051 0.0
H2681 H 0.73559 0.07994 0.51279 0.0
H2682 H 0.70681 0.08847 0.53664 0.0
H2683 H 0.71748 0.09031 0.56448 0.0
C2684 C 0.72471 0.05055 0.63245 0.0
C2685 C 0.71375 0.05095 0.64005 0.0
C2686 C 0.73197 0.05937 0.61925 0.0
C2687 C 0.72846 0.06879 0.61334 0.0
C2688 C 0.71721 0.06889 0.62038 0.0
C2689 C 0.70994 0.06009 0.63369 0.0
C2690 C 0.73696 0.07886 0.6003 0.0
C2691 C 0.73125 0.07889 0.58456 0.0
C2692 C 0.7509 0.08783 0.60305 0.0
C2693 C 0.75737 0.08873 0.6197 0.0
C2694 C 0.75228 0.09135 0.63462 0.0
C2695 C 0.75832 0.09202 0.6503 0.0
C2696 C 0.76952 0.09019 0.6512 0.0
C2697 C 0.77473 0.08771 0.63641 0.0
C2698 C 0.76872 0.08701 0.62071 0.0
C2699 C 0.76798 0.12391 0.54053 0.0
C2700 C 0.78014 0.12424 0.53632 0.0
C2701 C 0.75918 0.11475 0.55261 0.0
C2702 C 0.76225 0.10563 0.56061 0.0
C2703 C 0.7743 0.10585 0.55631 0.0
C2704 C 0.78314 0.11504 0.54432 0.0
C2705 C 0.75323 0.09619 0.57393 0.0
C2706 C 0.75885 0.0963 0.58982 0.0
C2707 C 0.73923 0.08733 0.57126 0.0
C2708 C 0.73278 0.08621 0.55455 0.0
C2709 C 0.73776 0.08319 0.53982 0.0
C2710 C 0.73168 0.08222 0.52409 0.0
C2711 C 0.72055 0.08414 0.52295 0.0
C2712 C 0.71545 0.087 0.53754 0.0
C2713 C 0.7215 0.088 0.5533 0.0
H2714 H 0.71585 0.08338 0.51076 0.0
H2715 H 0.77418 0.09072 0.66334 0.0
H2716 H 0.94396 0.64087 0.64064 0.0
H2717 H 0.92964 0.63807 0.61611 0.0
H2718 H 0.94702 0.68133 0.61295 0.0
H2719 H 0.96149 0.68424 0.63716 0.0
H2720 H 0.91039 0.64415 0.61265 0.0
H2721 H 0.94745 0.69117 0.57272 0.0
H2722 H 0.97182 0.70422 0.56624 0.0
H2723 H 0.97569 0.66949 0.57731 0.0
H2724 H 0.95132 0.65618 0.58362 0.0
H2725 H 0.87547 0.66582 0.56 0.0
H2726 H 0.89089 0.66421 0.57996 0.0
H2727 H 0.90769 0.65176 0.53935 0.0
H2728 H 0.89256 0.65384 0.51909 0.0
H2729 H 0.9273 0.66992 0.55892 0.0
H2730 H 0.88633 0.62879 0.5683 0.0
H2731 H 0.86195 0.61412 0.57371 0.0
H2732 H 0.86596 0.63383 0.62159 0.0
H2733 H 0.89034 0.64876 0.61636 0.0
C2734 C 0.94484 0.6498 0.63461 0.0
C2735 C 0.9539 0.66279 0.64089 0.0
C2736 C 0.93662 0.64817 0.62061 0.0
C2737 C 0.93733 0.65948 0.61256 0.0
C2738 C 0.94645 0.67245 0.61872 0.0
C2739 C 0.95468 0.67409 0.63266 0.0
C2740 C 0.92809 0.6578 0.59831 0.0
C2741 C 0.9141 0.64972 0.60087 0.0
C2742 C 0.93291 0.66481 0.58275 0.0
C2743 C 0.94756 0.67271 0.57877 0.0
C2744 C 0.95348 0.6863 0.57369 0.0
C2745 C 0.96731 0.69375 0.57006 0.0
C2746 C 0.97531 0.6877 0.57141 0.0
C2747 C 0.9695 0.67418 0.57633 0.0
C2748 C 0.95568 0.66668 0.57996 0.0
C2749 C 0.88252 0.66286 0.55524 0.0
C2750 C 0.8828 0.66 0.5379 0.0
C2751 C 0.89123 0.66178 0.56673 0.0
C2752 C 0.90033 0.65768 0.56121 0.0
C2753 C 0.9007 0.65488 0.54391 0.0
C2754 C 0.89198 0.65597 0.53237 0.0
C2755 C 0.90963 0.65666 0.57354 0.0
C2756 C 0.92361 0.66423 0.57063 0.0
C2757 C 0.90481 0.64895 0.58864 0.0
C2758 C 0.89015 0.63996 0.59188 0.0
C2759 C 0.882 0.63006 0.57993 0.0
C2760 C 0.86818 0.62169 0.58297 0.0
C2761 C 0.86241 0.62305 0.59797 0.0
C2762 C 0.87045 0.63278 0.60997 0.0
C2763 C 0.88427 0.64119 0.60699 0.0
H2764 H 0.85171 0.61656 0.6003 0.0
H2765 H 0.98601 0.69349 0.56861 0.0
H2766 H 0.94611 0.65355 0.73302 0.0
H2767 H 0.93417 0.65684 0.75656 0.0
H2768 H 0.96077 0.69998 0.75346 0.0
H2769 H 0.97265 0.69679 0.72955 0.0
H2770 H 0.94026 0.66715 0.78746 0.0
H2771 H 0.94236 0.71548 0.76212 0.0
H2772 H 0.94487 0.72722 0.73491 0.0
H2773 H 0.92772 0.68934 0.70835 0.0
H2774 H 0.92496 0.67738 0.73542 0.0
H2775 H 0.9078 0.68737 0.84902 0.0
H2776 H 0.92465 0.68834 0.8289 0.0
H2777 H 0.8956 0.67662 0.78829 0.0
H2778 H 0.879 0.67625 0.80807 0.0
H2779 H 0.91916 0.69541 0.77741 0.0
H2780 H 0.90257 0.65369 0.80854 0.0
H2781 H 0.89775 0.63973 0.8343 0.0
H2782 H 0.93998 0.66054 0.84676 0.0
H2783 H 0.94502 0.67474 0.82117 0.0
C2784 C 0.94952 0.66375 0.73739 0.0
C2785 C 0.96027 0.67492 0.72924 0.0
C2786 C 0.9427 0.66561 0.75094 0.0
C2787 C 0.94645 0.67866 0.75667 0.0
C2788 C 0.95756 0.68982 0.74908 0.0
C2789 C 0.96437 0.68797 0.73545 0.0
C2790 C 0.9382 0.68048 0.76993 0.0
C2791 C 0.93575 0.67343 0.78532 0.0
C2792 C 0.93214 0.68852 0.76709 0.0
C2793 C 0.93362 0.69558 0.75076 0.0
C2794 C 0.9391 0.70967 0.75047 0.0
C2795 C 0.94057 0.71636 0.73508 0.0
C2796 C 0.9365 0.70904 0.7199 0.0
C2797 C 0.93091 0.69501 0.7201 0.0
C2798 C 0.92941 0.68827 0.73546 0.0
C2799 C 0.90506 0.68518 0.83576 0.0
C2800 C 0.89198 0.68159 0.83021 0.0
C2801 C 0.91467 0.68562 0.8243 0.0
C2802 C 0.91135 0.68238 0.8071 0.0
C2803 C 0.89842 0.67913 0.80149 0.0
C2804 C 0.88886 0.67876 0.81288 0.0
C2805 C 0.92111 0.68199 0.7949 0.0
C2806 C 0.92386 0.68932 0.77969 0.0
C2807 C 0.92716 0.67393 0.79773 0.0
C2808 C 0.92415 0.66537 0.81306 0.0
C2809 C 0.91081 0.65535 0.81685 0.0
C2810 C 0.90804 0.64739 0.8314 0.0
C2811 C 0.91855 0.64928 0.84219 0.0
C2812 C 0.93185 0.65911 0.83841 0.0
C2813 C 0.93467 0.66711 0.82389 0.0
H2814 H 0.91638 0.64311 0.85345 0.0
H2815 H 0.93766 0.71423 0.708 0.0
H2816 H 0.34382 0.29967 0.74037 0.0
H2817 H 0.33987 0.28444 0.76413 0.0
H2818 H 0.30591 0.25237 0.73764 0.0
H2819 H 0.30945 0.26784 0.71412 0.0
H2820 H 0.30033 0.25019 0.76983 0.0
H2821 H 0.33824 0.25552 0.73771 0.0
H2822 H 0.36039 0.26792 0.72345 0.0
H2823 H 0.37939 0.28537 0.77108 0.0
H2824 H 0.35732 0.2732 0.7856 0.0
H2825 H 0.30329 0.19604 0.81263 0.0
H2826 H 0.30364 0.21204 0.79182 0.0
H2827 H 0.33163 0.2453 0.82306 0.0
H2828 H 0.33094 0.22942 0.84435 0.0
H2829 H 0.33984 0.24661 0.78878 0.0
H2830 H 0.30073 0.23943 0.82061 0.0
H2831 H 0.27826 0.22563 0.83365 0.0
H2832 H 0.26119 0.2097 0.7847 0.0
H2833 H 0.28361 0.22326 0.77139 0.0
C2834 C 0.33541 0.28942 0.73969 0.0
C2835 C 0.32703 0.28491 0.72531 0.0
C2836 C 0.3332 0.28068 0.75325 0.0
C2837 C 0.32283 0.26711 0.75251 0.0
C2838 C 0.31404 0.26275 0.73849 0.0
C2839 C 0.31607 0.2716 0.72504 0.0
C2840 C 0.32155 0.2574 0.766 0.0
C2841 C 0.30895 0.24931 0.77382 0.0
C2842 C 0.3328 0.25628 0.77138 0.0
C2843 C 0.34611 0.26355 0.76271 0.0
C2844 C 0.34713 0.26207 0.74513 0.0
C2845 C 0.35967 0.26905 0.737 0.0
C2846 C 0.37128 0.27745 0.74635 0.0
C2847 C 0.37038 0.27887 0.76386 0.0
C2848 C 0.35786 0.27192 0.77204 0.0
C2849 C 0.30928 0.20674 0.81534 0.0
C2850 C 0.31711 0.21138 0.83024 0.0
C2851 C 0.30952 0.21588 0.80334 0.0
C2852 C 0.31764 0.22985 0.80592 0.0
C2853 C 0.32532 0.23455 0.82082 0.0
C2854 C 0.32498 0.22543 0.83292 0.0
C2855 C 0.3187 0.23954 0.79264 0.0
C2856 C 0.33126 0.24756 0.78481 0.0
C2857 C 0.30737 0.24038 0.78706 0.0
C2858 C 0.29388 0.23226 0.79503 0.0
C2859 C 0.29221 0.23289 0.81265 0.0
C2860 C 0.27948 0.22513 0.82008 0.0
C2861 C 0.26831 0.21677 0.81002 0.0
C2862 C 0.26985 0.21617 0.79248 0.0
C2863 C 0.28256 0.2239 0.78499 0.0
H2864 H 0.25846 0.21077 0.8158 0.0
H2865 H 0.38098 0.28285 0.74003 0.0
H2866 H 0.7037 0.04921 0.73874 0.0
H2867 H 0.71798 0.06133 0.76298 0.0
H2868 H 0.74851 0.05256 0.74493 0.0
H2869 H 0.73392 0.03981 0.72116 0.0
H2870 H 0.7483 0.05141 0.77726 0.0
H2871 H 0.74977 0.084 0.73801 0.0
H2872 H 0.74065 0.09496 0.71952 0.0
H2873 H 0.72255 0.10275 0.76274 0.0
H2874 H 0.73142 0.09167 0.78147 0.0
H2875 H 0.80522 0.10923 0.8152 0.0
H2876 H 0.78867 0.09335 0.79509 0.0
H2877 H 0.75637 0.09183 0.82511 0.0
H2878 H 0.77274 0.10708 0.84596 0.0
H2879 H 0.75712 0.09797 0.78795 0.0
H2880 H 0.75812 0.06591 0.82706 0.0
H2881 H 0.7694 0.05622 0.84392 0.0
H2882 H 0.78566 0.04915 0.79834 0.0
H2883 H 0.77464 0.059 0.78123 0.0
C2884 C 0.7134 0.04975 0.74005 0.0
C2885 C 0.71773 0.04364 0.72798 0.0
C2886 C 0.7216 0.05676 0.75386 0.0
C2887 C 0.73451 0.0582 0.7556 0.0
C2888 C 0.73864 0.05167 0.74388 0.0
C2889 C 0.73029 0.04438 0.73027 0.0
C2890 C 0.74386 0.06684 0.76927 0.0
C2891 C 0.75029 0.06163 0.77945 0.0
C2892 C 0.74646 0.08019 0.77233 0.0
C2893 C 0.74113 0.08688 0.76111 0.0
C2894 C 0.74376 0.08797 0.74356 0.0
C2895 C 0.73865 0.09421 0.73303 0.0
C2896 C 0.73099 0.09951 0.73994 0.0
C2897 C 0.72846 0.09861 0.7574 0.0
C2898 C 0.73354 0.09236 0.76798 0.0
C2899 C 0.7946 0.10531 0.81786 0.0
C2900 C 0.7904 0.10951 0.83234 0.0
C2901 C 0.78516 0.0963 0.80622 0.0
C2902 C 0.77133 0.09144 0.80865 0.0
C2903 C 0.76703 0.09553 0.82301 0.0
C2904 C 0.77644 0.10435 0.83485 0.0
C2905 C 0.76143 0.08249 0.79581 0.0
C2906 C 0.75498 0.0877 0.78577 0.0
C2907 C 0.7591 0.06931 0.79261 0.0
C2908 C 0.76566 0.06332 0.80288 0.0
C2909 C 0.7642 0.06241 0.82064 0.0
C2910 C 0.77053 0.05686 0.83024 0.0
C2911 C 0.77827 0.0521 0.82221 0.0
C2912 C 0.77967 0.05285 0.80455 0.0
C2913 C 0.77338 0.0584 0.79489 0.0
H2914 H 0.78315 0.0478 0.82967 0.0
H2915 H 0.72704 0.10434 0.73178 0.0
H2916 H 0.02849 0.33552 0.03041 0.0
H2917 H 0.04388 0.32866 0.04266 0.0
H2918 H 0.07184 0.37017 0.05584 0.0
H2919 H 0.05678 0.37709 0.04328 0.0
H2920 H 0.08529 0.35901 0.04405 0.0
H2921 H 0.04951 0.34625 0.08526 0.0
H2922 H 0.02588 0.33444 0.09528 0.0
H2923 H 0.02237 0.29618 0.08277 0.0
H2924 H 0.04594 0.3078 0.07247 0.0
H2925 H 0.12453 0.35421 0.10953 0.0
H2926 H 0.1083 0.35761 0.0933 0.0
H2927 H 0.08643 0.31522 0.08055 0.0
H2928 H 0.10278 0.31173 0.09667 0.0
H2929 H 0.06944 0.32461 0.08983 0.0
H2930 H 0.10638 0.33783 0.05125 0.0
H2931 H 0.13025 0.35009 0.04223 0.0
H2932 H 0.13176 0.388 0.0506 0.0
H2933 H 0.10795 0.37597 0.0599 0.0
C2934 C 0.03797 0.34318 0.03581 0.0
C2935 C 0.04138 0.35685 0.0359 0.0
C2936 C 0.04673 0.33924 0.0429 0.0
C2937 C 0.05897 0.34887 0.05041 0.0
C2938 C 0.06248 0.36254 0.05014 0.0
C2939 C 0.05382 0.36648 0.04296 0.0
C2940 C 0.06812 0.34487 0.05883 0.0
C2941 C 0.08182 0.35155 0.05414 0.0
C2942 C 0.06358 0.33488 0.07171 0.0
C2943 C 0.04943 0.3279 0.07792 0.0
C2944 C 0.04366 0.33533 0.08453 0.0
C2945 C 0.03029 0.32867 0.09027 0.0
C2946 C 0.02262 0.31457 0.08961 0.0
C2947 C 0.02832 0.3071 0.08324 0.0
C2948 C 0.04168 0.31372 0.07746 0.0
C2949 C 0.11636 0.34561 0.10314 0.0
C2950 C 0.11506 0.33271 0.10428 0.0
C2951 C 0.10706 0.34758 0.09389 0.0
C2952 C 0.09625 0.33671 0.08549 0.0
C2953 C 0.09471 0.32376 0.0869 0.0
C2954 C 0.10404 0.32178 0.09616 0.0
C2955 C 0.08662 0.33898 0.07528 0.0
C2956 C 0.07286 0.33195 0.07961 0.0
C2957 C 0.0911 0.34872 0.06213 0.0
C2958 C 0.1054 0.35599 0.05639 0.0
C2959 C 0.11183 0.34878 0.05127 0.0
C2960 C 0.12534 0.35569 0.04609 0.0
C2961 C 0.13252 0.36981 0.04587 0.0
C2962 C 0.12619 0.37706 0.05078 0.0
C2963 C 0.11267 0.3702 0.05599 0.0
H2964 H 0.14299 0.37514 0.04186 0.0
H2965 H 0.01226 0.30943 0.09407 0.0
H2966 H 0.63168 0.68622 0.03085 0.0
H2967 H 0.63963 0.70833 0.04411 0.0
H2968 H 0.67606 0.70906 0.06012 0.0
H2969 H 0.66832 0.68703 0.04647 0.0
H2970 H 0.66017 0.71421 0.08661 0.0
H2971 H 0.68074 0.72923 0.03157 0.0
H2972 H 0.68088 0.72977 1.00027 0.0
H2973 H 0.65158 0.74288 1.00075 0.0
H2974 H 0.65111 0.74223 0.03207 0.0
H2975 H 0.68897 0.78015 0.1213 0.0
H2976 H 0.68565 0.76019 0.1059 0.0
H2977 H 0.65632 0.76238 0.07362 0.0
H2978 H 0.66038 0.78296 0.088 0.0
H2979 H 0.67046 0.75589 0.05513 0.0
H2980 H 0.64781 0.73948 0.10849 0.0
H2981 H 0.64562 0.73807 0.13969 0.0
H2982 H 0.67598 0.72642 0.14262 0.0
H2983 H 0.67847 0.72794 0.11143 0.0
C2984 C 0.64147 0.69116 0.03701 0.0
C2985 C 0.6494 0.68491 0.03759 0.0
C2986 C 0.64598 0.70378 0.04457 0.0
C2987 C 0.65841 0.7103 0.0531 0.0
C2988 C 0.66644 0.70417 0.05359 0.0
C2989 C 0.66205 0.69165 0.0457 0.0
C2990 C 0.6627 0.72328 0.06197 0.0
C2991 C 0.66268 0.72342 0.07978 0.0
C2992 C 0.6655 0.73511 0.053 0.0
C2993 C 0.6658 0.73556 0.03417 0.0
C2994 C 0.67423 0.73211 0.02501 0.0
C2995 C 0.67439 0.73246 0.00726 0.0
C2996 C 0.66622 0.73632 0.99853 0.0
C2997 C 0.65789 0.73987 0.00753 0.0
C2998 C 0.65769 0.73953 0.02528 0.0
C2999 C 0.68198 0.77657 0.11074 0.0
C3000 C 0.6749 0.78323 0.10602 0.0
C3001 C 0.67994 0.76498 0.10208 0.0
C3002 C 0.67052 0.75956 0.08877 0.0
C3003 C 0.66359 0.76628 0.08388 0.0
C3004 C 0.6658 0.778 0.09232 0.0
C3005 C 0.66783 0.74689 0.07992 0.0
C3006 C 0.66809 0.74676 0.06207 0.0
C3007 C 0.66496 0.73497 0.08889 0.0
C3008 C 0.66343 0.73397 0.10764 0.0
C3009 C 0.65409 0.73671 0.1158 0.0
C3010 C 0.65278 0.73588 0.13348 0.0
C3011 C 0.66069 0.7322 0.14314 0.0
C3012 C 0.66988 0.7293 0.13513 0.0
C3013 C 0.67123 0.73013 0.11745 0.0
H3014 H 0.65967 0.73156 0.15683 0.0
H3015 H 0.66636 0.73659 0.98479 0.0
H3016 H 0.31241 0.9789 0.02961 0.0
H3017 H 0.2901 0.96363 0.04181 0.0
H3018 H 0.30238 0.93418 0.05187 0.0
H3019 H 0.32444 0.94916 0.03939 0.0
H3020 H 0.2776 0.92185 0.04046 0.0
H3021 H 0.30199 0.95578 0.08315 0.0
H3022 H 0.31472 0.97897 0.09455 0.0
H3023 H 0.28095 0.98472 0.08472 0.0
H3024 H 0.26808 0.96161 0.07306 0.0
H3025 H 0.23368 0.88192 0.10604 0.0
H3026 H 0.2534 0.89813 0.08987 0.0
H3027 H 0.23366 0.92102 0.07863 0.0
H3028 H 0.21367 0.90463 0.09445 0.0
H3029 H 0.26054 0.93724 0.0886 0.0
H3030 H 0.23548 0.90198 0.04839 0.0
H3031 H 0.22301 0.87844 0.03813 0.0
H3032 H 0.25848 0.87492 0.04431 0.0
H3033 H 0.27112 0.89839 0.05485 0.0
C3034 C 0.3103 0.96912 0.03429 0.0
C3035 C 0.32023 0.96528 0.03357 0.0
C3036 C 0.29757 0.96043 0.04135 0.0
C3037 C 0.29459 0.94781 0.04799 0.0
C3038 C 0.3044 0.94385 0.04685 0.0
C3039 C 0.31705 0.95246 0.03972 0.0
C3040 C 0.28143 0.93873 0.05646 0.0
C3041 C 0.27394 0.92522 0.05106 0.0
C3042 C 0.27643 0.94315 0.07005 0.0
C3043 C 0.28414 0.95703 0.07705 0.0
C3044 C 0.29732 0.96203 0.0833 0.0
C3045 C 0.30455 0.97516 0.08982 0.0
C3046 C 0.29866 0.98333 0.0903 0.0
C3047 C 0.28551 0.97839 0.0843 0.0
C3048 C 0.27824 0.96528 0.07774 0.0
C3049 C 0.23341 0.89029 0.09997 0.0
C3050 C 0.22198 0.89186 0.10146 0.0
C3051 C 0.24474 0.89959 0.09079 0.0
C3052 C 0.24494 0.9107 0.08288 0.0
C3053 C 0.23371 0.91251 0.08462 0.0
C3054 C 0.22231 0.90315 0.09374 0.0
C3055 C 0.25692 0.92036 0.0728 0.0
C3056 C 0.26415 0.93395 0.07787 0.0
C3057 C 0.26176 0.916 0.05901 0.0
C3058 C 0.25422 0.90191 0.05254 0.0
C3059 C 0.24059 0.89616 0.04768 0.0
C3060 C 0.2335 0.88283 0.04179 0.0
C3061 C 0.23994 0.87518 0.0406 0.0
C3062 C 0.2535 0.88086 0.04525 0.0
C3063 C 0.26064 0.89418 0.05117 0.0
H3064 H 0.23442 0.86487 0.03604 0.0
H3065 H 0.30427 0.99349 0.09536 0.0
H3066 H 0.33696 0.02813 0.00276 0.0
H3067 H 0.3298 0.0433 0.99055 0.0
H3068 H 0.37135 0.07243 0.97914 0.0
H3069 H 0.37856 0.05757 0.99166 0.0
H3070 H 0.35925 0.08509 0.99049 0.0
H3071 H 0.34876 0.05034 0.94865 0.0
H3072 H 0.33803 0.02695 0.93787 0.0
H3073 H 0.2988 0.02157 0.94886 0.0
H3074 H 0.30931 0.04489 0.95991 0.0
H3075 H 0.3538 0.12368 0.92414 0.0
H3076 H 0.3577 0.10782 0.94052 0.0
H3077 H 0.31549 0.08553 0.95403 0.0
H3078 H 0.31152 0.1016 0.93807 0.0
H3079 H 0.32582 0.06894 0.9436 0.0
H3080 H 0.33706 0.10505 0.98298 0.0
H3081 H 0.34844 0.1288 0.99248 0.0
H3082 H 0.38714 0.1319 0.9849 0.0
H3083 H 0.37598 0.10822 0.9751 0.0
C3084 C 0.34457 0.03782 0.99778 0.0
C3085 C 0.35833 0.04161 0.99814 0.0
C3086 C 0.34046 0.04645 0.99071 0.0
C3087 C 0.35002 0.05895 0.98368 0.0
C3088 C 0.36377 0.06286 0.98446 0.0
C3089 C 0.36788 0.05432 0.99162 0.0
C3090 C 0.34583 0.06793 0.97517 0.0
C3091 C 0.35201 0.08155 0.98016 0.0
C3092 C 0.33615 0.06331 0.96192 0.0
C3093 C 0.32982 0.0493 0.95529 0.0
C3094 C 0.33785 0.04413 0.94889 0.0
C3095 C 0.33181 0.03089 0.94271 0.0
C3096 C 0.31774 0.02276 0.94273 0.0
C3097 C 0.30969 0.02787 0.94889 0.0
C3098 C 0.31568 0.04109 0.9551 0.0
C3099 C 0.34534 0.11553 0.93076 0.0
C3100 C 0.33235 0.11403 0.92985 0.0
C3101 C 0.34759 0.10642 0.94006 0.0
C3102 C 0.33691 0.09557 0.94863 0.0
C3103 C 0.32388 0.09383 0.9475 0.0
C3104 C 0.32162 0.10301 0.93829 0.0
C3105 C 0.33944 0.08608 0.95874 0.0
C3106 C 0.33294 0.0724 0.95406 0.0
C3107 C 0.34893 0.09067 0.97216 0.0
C3108 C 0.35568 0.10489 0.97817 0.0
C3109 C 0.348 0.11083 0.98321 0.0
C3110 C 0.35441 0.12427 0.98867 0.0
C3111 C 0.36851 0.13186 0.98926 0.0
C3112 C 0.37622 0.12601 0.98442 0.0
C3113 C 0.36986 0.11257 0.97893 0.0
H3114 H 0.37345 0.14227 0.99349 0.0
H3115 H 0.31309 0.01252 0.93794 0.0
H3116 H 0.94878 0.32265 0.99266 0.0
H3117 H 0.93364 0.30046 0.98071 0.0
H3118 H 0.96283 0.28795 0.99136 0.0
H3119 H 0.97827 0.31041 0.0031 0.0
H3120 H 0.95306 0.28055 0.9601 0.0
H3121 H 0.93351 0.27576 0.01484 0.0
H3122 H 0.92443 0.28197 0.03953 0.0
H3123 H 0.89303 0.28082 0.00842 0.0
H3124 H 0.90203 0.27479 0.98348 0.0
H3125 H 0.90389 0.21199 0.93804 0.0
H3126 H 0.92033 0.232 0.95375 0.0
H3127 H 0.89748 0.25178 0.94257 0.0
H3128 H 0.88124 0.23205 0.92646 0.0
H3129 H 0.90472 0.25385 0.97648 0.0
H3130 H 0.92581 0.26048 0.92138 0.0
H3131 H 0.93495 0.25405 0.89696 0.0
H3132 H 0.96352 0.25122 0.9296 0.0
H3133 H 0.95441 0.25745 0.95428 0.0
C3134 C 0.95198 0.31517 0.99264 0.0
C3135 C 0.96475 0.31831 0.9989 0.0
C3136 C 0.94325 0.30242 0.98584 0.0
C3137 C 0.94699 0.29243 0.98532 0.0
C3138 C 0.9597 0.29548 0.99168 0.0
C3139 C 0.96849 0.30829 0.99845 0.0
C3140 C 0.93776 0.27905 0.97748 0.0
C3141 C 0.94256 0.27458 0.96393 0.0
C3142 C 0.92399 0.27131 0.98227 0.0
C3143 C 0.91851 0.27491 0.99725 0.0
C3144 C 0.92472 0.27693 0.01323 0.0
C3145 C 0.91958 0.2804 0.02728 0.0
C3146 C 0.90817 0.28182 0.02554 0.0
C3147 C 0.90187 0.27973 0.00975 0.0
C3148 C 0.90698 0.27626 0.99566 0.0
C3149 C 0.90244 0.22065 0.93872 0.0
C3150 C 0.89118 0.22035 0.93098 0.0
C3151 C 0.91182 0.23206 0.94779 0.0
C3152 C 0.91013 0.24339 0.94932 0.0
C3153 C 0.89892 0.24312 0.94165 0.0
C3154 C 0.88961 0.23178 0.9325 0.0
C3155 C 0.91997 0.25554 0.95895 0.0
C3156 C 0.91527 0.25976 0.97284 0.0
C3157 C 0.93382 0.26298 0.95454 0.0
C3158 C 0.93933 0.25927 0.93971 0.0
C3159 C 0.93396 0.25836 0.92338 0.0
C3160 C 0.93915 0.25478 0.90948 0.0
C3161 C 0.94978 0.25218 0.91173 0.0
C3162 C 0.95527 0.2532 0.92788 0.0
C3163 C 0.9501 0.25677 0.94183 0.0
H3164 H 0.95379 0.24941 0.90096 0.0
H3165 H 0.90421 0.28451 0.03643 0.0
H3166 H 0.69248 0.6674 0.00626 0.0
H3167 H 0.71482 0.6743 0.99424 0.0
H3168 H 0.7021 0.63261 0.98309 0.0
H3169 H 0.68001 0.62566 0.99542 0.0
H3170 H 0.72683 0.64462 0.99465 0.0
H3171 H 0.70288 0.65521 0.95243 0.0
H3172 H 0.69046 0.66616 0.94156 0.0
H3173 H 0.72455 0.70523 0.95236 0.0
H3174 H 0.73711 0.69449 0.96348 0.0
H3175 H 0.77089 0.64864 0.92924 0.0
H3176 H 0.75125 0.64516 0.94564 0.0
H3177 H 0.7708 0.68787 0.95632 0.0
H3178 H 0.79064 0.69144 0.94006 0.0
H3179 H 0.74432 0.67758 0.94721 0.0
H3180 H 0.769 0.66641 0.98678 0.0
H3181 H 0.78118 0.65493 0.99661 0.0
H3182 H 0.74536 0.61633 0.98993 0.0
H3183 H 0.733 0.62757 0.97982 0.0
C3184 C 0.69451 0.65971 1.00139 0.0
C3185 C 0.68444 0.64598 1.00175 0.0
C3186 C 0.70726 0.66367 0.99443 0.0
C3187 C 0.71011 0.65399 0.98751 0.0
C3188 C 0.70018 0.64028 0.98833 0.0
C3189 C 0.68751 0.63632 0.99537 0.0
C3190 C 0.72326 0.65801 0.97906 0.0
C3191 C 0.73059 0.65176 0.9842 0.0
C3192 C 0.72839 0.66758 0.96568 0.0
C3193 C 0.72087 0.67404 0.95897 0.0
C3194 C 0.70768 0.66613 0.9526 0.0
C3195 C 0.70063 0.6723 0.94638 0.0
C3196 C 0.7067 0.68638 0.94632 0.0
C3197 C 0.71985 0.69432 0.95244 0.0
C3198 C 0.72695 0.6882 0.9587 0.0
C3199 C 0.77111 0.65729 0.93523 0.0
C3200 C 0.78242 0.67031 0.93344 0.0
C3201 C 0.75984 0.65528 0.94457 0.0
C3202 C 0.75963 0.66623 0.95241 0.0
C3203 C 0.77076 0.67928 0.95041 0.0
C3204 C 0.78207 0.6813 0.94106 0.0
C3205 C 0.74769 0.66396 0.96259 0.0
C3206 C 0.74062 0.67056 0.95778 0.0
C3207 C 0.74274 0.65463 0.9762 0.0
C3208 C 0.7501 0.64784 0.98243 0.0
C3209 C 0.76374 0.65547 0.9873 0.0
C3210 C 0.77068 0.649 0.99294 0.0
C3211 C 0.76406 0.63491 0.99387 0.0
C3212 C 0.75048 0.62725 0.9892 0.0
C3213 C 0.7435 0.63366 0.98354 0.0
H3214 H 0.76944 0.62992 0.99823 0.0
H3215 H 0.70122 0.69114 0.94149 0.0
H3216 H 0.98055 0.66969 0.99383 0.0
H3217 H 0.96511 0.67588 0.9803 0.0
H3218 H 0.93113 0.63774 0.99571 0.0
H3219 H 0.9465 0.63135 0.00874 0.0
H3220 H 0.92849 0.64155 0.96413 0.0
H3221 H 0.93876 0.66893 0.0142 0.0
H3222 H 0.95349 0.68593 0.03523 0.0
H3223 H 0.96978 0.71625 0.99627 0.0
H3224 H 0.95526 0.69938 0.97496 0.0
H3225 H 0.88497 0.67593 0.95484 0.0
H3226 H 0.9013 0.67249 0.97096 0.0
H3227 H 0.91703 0.66596 0.92426 0.0
H3228 H 0.90071 0.66936 0.90807 0.0
H3229 H 0.92831 0.68455 0.97237 0.0
H3230 H 0.92505 0.64149 0.93025 0.0
H3231 H 0.9088 0.62359 0.91117 0.0
H3232 H 0.87577 0.62287 0.93824 0.0
H3233 H 0.8918 0.64062 0.95761 0.0
C3234 C 0.96977 0.66272 0.99455 0.0
C3235 C 0.96475 0.65001 1.00231 0.0
C3236 C 0.96094 0.66628 0.98683 0.0
C3237 C 0.94691 0.6573 0.98699 0.0
C3238 C 0.9419 0.64482 0.99529 0.0
C3239 C 0.9507 0.6412 0.00281 0.0
C3240 C 0.93747 0.66047 0.97772 0.0
C3241 C 0.92848 0.65096 0.96598 0.0
C3242 C 0.9373 0.67269 0.98016 0.0
C3243 C 0.94601 0.68286 0.99296 0.0
C3244 C 0.94555 0.6792 0.01009 0.0
C3245 C 0.95385 0.68882 0.02207 0.0
C3246 C 0.96259 0.70216 0.01708 0.0
C3247 C 0.96302 0.70591 1.00011 0.0
C3248 C 0.95475 0.69633 0.98808 0.0
C3249 C 0.89201 0.67393 0.94798 0.0
C3250 C 0.89146 0.67281 0.93017 0.0
C3251 C 0.90134 0.67195 0.95723 0.0
C3252 C 0.91029 0.6688 0.94886 0.0
C3253 C 0.91007 0.66814 0.93103 0.0
C3254 C 0.9007 0.67005 0.92179 0.0
C3255 C 0.91945 0.66566 0.95879 0.0
C3256 C 0.92838 0.67516 0.97056 0.0
C3257 C 0.91938 0.65331 0.95667 0.0
C3258 C 0.90964 0.64248 0.94526 0.0
C3259 C 0.91432 0.63747 0.93217 0.0
C3260 C 0.90515 0.62736 0.9213 0.0
C3261 C 0.89126 0.62213 0.92346 0.0
C3262 C 0.88652 0.62696 0.93654 0.0
C3263 C 0.89565 0.63705 0.94745 0.0
H3264 H 0.88418 0.61431 0.91502 0.0
H3265 H 0.96901 0.70959 0.02637 0.0
H3266 H 0.3754 0.31891 0.00669 0.0
H3267 H 0.36866 0.29717 0.99325 0.0
H3268 H 0.33179 0.29496 0.97582 0.0
H3269 H 0.33823 0.31645 0.99008 0.0
H3270 H 0.32646 0.2709 0.98342 0.0
H3271 H 0.36061 0.30579 0.94958 0.0
H3272 H 0.38256 0.32599 0.94321 0.0
H3273 H 0.40321 0.305 0.95863 0.0
H3274 H 0.38138 0.28472 0.96531 0.0
H3275 H 0.31845 0.22534 0.91446 0.0
H3276 H 0.32237 0.24532 0.93053 0.0
H3277 H 0.35208 0.24246 0.96112 0.0
H3278 H 0.34776 0.22208 0.94586 0.0
H3279 H 0.36034 0.26897 0.94574 0.0
H3280 H 0.32442 0.23361 0.9791 0.0
H3281 H 0.30174 0.21376 0.98305 0.0
H3282 H 0.28358 0.23646 0.96495 0.0
H3283 H 0.30617 0.2564 0.96064 0.0
C3284 C 0.36577 0.3137 1.00018 0.0
C3285 C 0.35739 0.31942 0.99931 0.0
C3286 C 0.36197 0.30131 0.99237 0.0
C3287 C 0.34989 0.29457 0.98304 0.0
C3288 C 0.3412 0.29998 0.98282 0.0
C3289 C 0.34488 0.31226 0.99097 0.0
C3290 C 0.34662 0.28216 0.97313 0.0
C3291 C 0.33383 0.27057 0.97502 0.0
C3292 C 0.3562 0.28162 0.96214 0.0
C3293 C 0.36936 0.29378 0.9581 0.0
C3294 C 0.36984 0.30552 0.95172 0.0
C3295 C 0.38226 0.31697 0.94804 0.0
C3296 C 0.39427 0.31679 0.95055 0.0
C3297 C 0.39389 0.30513 0.95671 0.0
C3298 C 0.3815 0.29365 0.96043 0.0
C3299 C 0.32564 0.22875 0.9248 0.0
C3300 C 0.3328 0.22201 0.92876 0.0
C3301 C 0.32792 0.24025 0.9339 0.0
C3302 C 0.33751 0.24534 0.94699 0.0
C3303 C 0.34468 0.23871 0.95099 0.0
C3304 C 0.34226 0.2271 0.94212 0.0
C3305 C 0.34034 0.25779 0.95628 0.0
C3306 C 0.35302 0.26938 0.95416 0.0
C3307 C 0.33056 0.25841 0.9667 0.0
C3308 C 0.31699 0.24645 0.96937 0.0
C3309 C 0.31559 0.23433 0.97581 0.0
C3310 C 0.30276 0.22307 0.97815 0.0
C3311 C 0.29123 0.22383 0.97421 0.0
C3312 C 0.29252 0.23587 0.96797 0.0
C3313 C 0.30534 0.24716 0.96559 0.0
H3314 H 0.2813 0.2151 0.97603 0.0
H3315 H 0.40388 0.32567 0.94769 0.0
H3316 H 0.68101 0.05434 0.99628 0.0
H3317 H 0.70264 0.0696 0.9829 0.0
H3318 H 0.71536 0.04014 0.98961 0.0
H3319 H 0.69358 0.02466 0.00304 0.0
H3320 H 0.73592 0.06745 0.99675 0.0
H3321 H 0.70465 0.04196 0.95246 0.0
H3322 H 0.68312 0.0324 0.93684 0.0
H3323 H 0.69018 0.07238 0.92683 0.0
H3324 H 0.71167 0.08218 0.94263 0.0
H3325 H 0.79089 0.10008 0.93843 0.0
H3326 H 0.77069 0.08344 0.95355 0.0
H3327 H 0.75109 0.1065 0.94236 0.0
H3328 H 0.77094 0.12278 0.92648 0.0
H3329 H 0.73416 0.08093 0.93734 0.0
H3330 H 0.7646 0.1066 0.98241 0.0
H3331 H 0.7859 0.11663 0.99863 0.0
H3332 H 0.78037 0.0771 0.00768 0.0
H3333 H 0.75912 0.06684 0.99132 0.0
C3334 C 0.68843 0.05112 0.99512 0.0
C3335 C 0.68552 0.03822 1.00065 0.0
C3336 C 0.70079 0.05986 0.98741 0.0
C3337 C 0.71053 0.05594 0.98507 0.0
C3338 C 0.70795 0.04334 0.99126 0.0
C3339 C 0.6955 0.03451 0.99891 0.0
C3340 C 0.72308 0.06482 0.97543 0.0
C3341 C 0.7356 0.07025 0.98368 0.0
C3342 C 0.72259 0.06866 0.95849 0.0
C3343 C 0.70971 0.0628 0.94886 0.0
C3344 C 0.70156 0.04871 0.94705 0.0
C3345 C 0.68937 0.04325 0.93814 0.0
C3346 C 0.68527 0.05178 0.93088 0.0
C3347 C 0.69336 0.06579 0.93248 0.0
C3348 C 0.70556 0.0713 0.9414 0.0
C3349 C 0.78224 0.10156 0.93902 0.0
C3350 C 0.7826 0.11284 0.93123 0.0
C3351 C 0.77073 0.0921 0.94787 0.0
C3352 C 0.7594 0.09379 0.94933 0.0
C3353 C 0.75971 0.10499 0.94149 0.0
C3354 C 0.77115 0.11438 0.93254 0.0
C3355 C 0.74709 0.08382 0.95872 0.0
C3356 C 0.73457 0.07812 0.9504 0.0
C3357 C 0.7476 0.07982 0.97562 0.0
C3358 C 0.76035 0.08597 0.98549 0.0
C3359 C 0.76798 0.10005 0.98775 0.0
C3360 C 0.78003 0.10578 0.99699 0.0
C3361 C 0.7845 0.09751 0.00414 0.0
C3362 C 0.77691 0.08349 1.00211 0.0
C3363 C 0.76485 0.07772 0.99287 0.0
H3364 H 0.79383 0.10196 0.01129 0.0
H3365 H 0.67583 0.04753 0.92399 0.0
H3366 H 0.63082 0.94375 0.02526 0.0
H3367 H 0.63744 0.9288 0.03903 0.0
H3368 H 0.67361 0.96346 0.05794 0.0
H3369 H 0.6673 0.97849 0.04345 0.0
H3370 H 0.67933 0.94483 0.05035 0.0
H3371 H 0.64439 0.94528 0.083 0.0
H3372 H 0.62224 0.94337 0.08855 0.0
H3373 H 0.60218 0.90182 0.07277 0.0
H3374 H 0.62422 0.90353 0.0669 0.0
H3375 H 0.68687 0.90772 0.11976 0.0
H3376 H 0.68297 0.92359 0.1033 0.0
H3377 H 0.65333 0.8907 0.073 0.0
H3378 H 0.65762 0.87481 0.08869 0.0
H3379 H 0.6449 0.90892 0.08729 0.0
H3380 H 0.68145 0.90961 0.05526 0.0
H3381 H 0.70421 0.91249 0.05192 0.0
H3382 H 0.72197 0.95339 0.06982 0.0
H3383 H 0.69929 0.95068 0.0735 0.0
C3384 C 0.64028 0.94819 0.03217 0.0
C3385 C 0.6485 0.96229 0.03339 0.0
C3386 C 0.64401 0.93963 0.04016 0.0
C3387 C 0.65584 0.94497 0.04998 0.0
C3388 C 0.66439 0.95907 0.05056 0.0
C3389 C 0.66078 0.96766 0.04226 0.0
C3390 C 0.65899 0.93584 0.06006 0.0
C3391 C 0.67184 0.9371 0.05858 0.0
C3392 C 0.64924 0.92567 0.07081 0.0
C3393 C 0.63596 0.92458 0.07435 0.0
C3394 C 0.63525 0.93577 0.08059 0.0
C3395 C 0.62272 0.93472 0.08382 0.0
C3396 C 0.61081 0.92249 0.08097 0.0
C3397 C 0.61141 0.91129 0.07495 0.0
C3398 C 0.62392 0.91229 0.07168 0.0
C3399 C 0.67969 0.90384 0.10941 0.0
C3400 C 0.67256 0.8899 0.10564 0.0
C3401 C 0.67742 0.91294 0.10008 0.0
C3402 C 0.66788 0.90831 0.08694 0.0
C3403 C 0.6607 0.89446 0.08316 0.0
C3404 C 0.66311 0.88538 0.09228 0.0
C3405 C 0.66511 0.91783 0.07735 0.0
C3406 C 0.65235 0.91666 0.07902 0.0
C3407 C 0.67503 0.92824 0.06711 0.0
C3408 C 0.68866 0.92989 0.06482 0.0
C3409 C 0.6902 0.91917 0.05863 0.0
C3410 C 0.70309 0.92078 0.05665 0.0
C3411 C 0.71453 0.9331 0.0607 0.0
C3412 C 0.7131 0.94385 0.06671 0.0
C3413 C 0.70023 0.94228 0.06873 0.0
H3414 H 0.7245 0.93433 0.05916 0.0
H3415 H 0.60112 0.9217 0.08348 0.0
H3416 H 0.0231 0.68993 0.04255 0.0
H3417 H 0.03846 0.71173 0.0557 0.0
H3418 H 0.07249 0.71097 0.03289 0.0
H3419 H 0.05721 0.68887 0.02052 0.0
H3420 H 0.07822 0.71747 0.06352 0.0
H3421 H 0.06023 0.73335 0.02021 0.0
H3422 H 0.04258 0.73439 0.0034 0.0
H3423 H 0.02813 0.74463 0.04823 0.0
H3424 H 0.0456 0.74348 0.06536 0.0
H3425 H 0.12733 0.78607 0.08028 0.0
H3426 H 0.11082 0.76599 0.06495 0.0
H3427 H 0.07993 0.76063 0.10072 0.0
H3428 H 0.09651 0.7803 0.11676 0.0
H3429 H 0.07254 0.75781 0.06387 0.0
H3430 H 0.09129 0.74152 0.10663 0.0
H3431 H 0.10997 0.74136 0.1221 0.0
H3432 H 0.1241 0.73282 0.0757 0.0
H3433 H 0.10562 0.73314 0.05991 0.0
C3434 C 0.03384 0.69454 0.04013 0.0
C3435 C 0.03896 0.6877 0.03052 0.0
C3436 C 0.04264 0.70705 0.04761 0.0
C3437 C 0.0567 0.71314 0.04523 0.0
C3438 C 0.06172 0.70651 0.03505 0.0
C3439 C 0.05297 0.69389 0.0279 0.0
C3440 C 0.06626 0.72593 0.0542 0.0
C3441 C 0.07703 0.72632 0.0633 0.0
C3442 C 0.06465 0.73748 0.05436 0.0
C3443 C 0.05414 0.73819 0.0441 0.0
C3444 C 0.05323 0.73572 0.02651 0.0
C3445 C 0.04327 0.73635 0.01692 0.0
C3446 C 0.03422 0.73954 0.02475 0.0
C3447 C 0.03514 0.74214 0.04218 0.0
C3448 C 0.04507 0.74151 0.05184 0.0
C3449 C 0.11709 0.78058 0.08509 0.0
C3450 C 0.11337 0.78483 0.09994 0.0
C3451 C 0.10762 0.76917 0.07616 0.0
C3452 C 0.09418 0.76184 0.08172 0.0
C3453 C 0.09026 0.76622 0.09618 0.0
C3454 C 0.09977 0.77753 0.10529 0.0
C3455 C 0.0844 0.74924 0.07285 0.0
C3456 C 0.07363 0.7489 0.06391 0.0
C3457 C 0.08611 0.7378 0.07257 0.0
C3458 C 0.09716 0.7375 0.08207 0.0
C3459 C 0.09845 0.73973 0.0997 0.0
C3460 C 0.10899 0.73959 0.10853 0.0
C3461 C 0.11824 0.73712 0.09988 0.0
C3462 C 0.11695 0.73475 0.08238 0.0
C3463 C 0.10643 0.7349 0.07349 0.0
H3464 H 0.12639 0.73701 0.10673 0.0
H3465 H 0.02651 0.74002 0.0173 0.0
H3466 H 0.31373 0.33773 0.03452 0.0
H3467 H 0.29202 0.33146 0.04806 0.0
H3468 H 0.30376 0.3736 0.05221 0.0
H3469 H 0.32542 0.37992 0.03892 0.0
H3470 H 0.29445 0.36092 0.08184 0.0
H3471 H 0.27987 0.35255 0.02349 0.0
H3472 H 0.27693 0.34224 0.99514 0.0
H3473 H 0.25404 0.30265 0.017 0.0
H3474 H 0.257 0.31272 0.04552 0.0
H3475 H 0.23323 0.35732 0.10543 0.0
H3476 H 0.25338 0.36119 0.08989 0.0
H3477 H 0.23836 0.31824 0.0884 0.0
H3478 H 0.21814 0.31427 0.10406 0.0
H3479 H 0.24907 0.32986 0.05805 0.0
H3480 H 0.26296 0.33798 0.11611 0.0
H3481 H 0.26579 0.34802 0.14461 0.0
H3482 H 0.29011 0.38772 0.12358 0.0
H3483 H 0.28726 0.37793 0.0949 0.0
C3484 C 0.3116 0.34564 0.03811 0.0
C3485 C 0.32133 0.35933 0.03567 0.0
C3486 C 0.29918 0.34204 0.04583 0.0
C3487 C 0.29624 0.35206 0.05115 0.0
C3488 C 0.30581 0.36569 0.04829 0.0
C3489 C 0.31819 0.36929 0.04062 0.0
C3490 C 0.28353 0.3485 0.06044 0.0
C3491 C 0.28453 0.35426 0.07653 0.0
C3492 C 0.27057 0.33945 0.0538 0.0
C3493 C 0.26879 0.33338 0.03666 0.0
C3494 C 0.27431 0.34164 0.02227 0.0
C3495 C 0.27262 0.33584 0.00616 0.0
C3496 C 0.26534 0.3218 0.00427 0.0
C3497 C 0.2597 0.31353 0.01848 0.0
C3498 C 0.26137 0.31927 0.03462 0.0
C3499 C 0.23425 0.34869 0.10194 0.0
C3500 C 0.2241 0.33549 0.10613 0.0
C3501 C 0.24577 0.35092 0.093 0.0
C3502 C 0.24748 0.34002 0.08816 0.0
C3503 C 0.23726 0.32681 0.092 0.0
C3504 C 0.2257 0.32456 0.10093 0.0
C3505 C 0.26003 0.3425 0.07928 0.0
C3506 C 0.259 0.33649 0.06336 0.0
C3507 C 0.27299 0.35129 0.08609 0.0
C3508 C 0.27479 0.35722 0.10333 0.0
C3509 C 0.26883 0.34886 0.11754 0.0
C3510 C 0.27045 0.3545 0.13373 0.0
C3511 C 0.2781 0.3685 0.1359 0.0
C3512 C 0.28418 0.37688 0.12188 0.0
C3513 C 0.28257 0.37129 0.10566 0.0
H3514 H 0.27934 0.37285 0.14844 0.0
H3515 H 0.26403 0.31733 0.99179 0.0
H3516 H 0.72438 0.70821 0.36632 0.0
H3517 H 0.73958 0.70124 0.3784 0.0
H3518 H 0.70681 0.66003 0.38108 0.0
H3519 H 0.6914 0.66699 0.36905 0.0
H3520 H 0.72091 0.66797 0.41064 0.0
H3521 H 0.73173 0.66879 0.35202 0.0
H3522 H 0.73783 0.67818 0.3231 0.0
H3523 H 0.77499 0.71122 0.34181 0.0
H3524 H 0.76902 0.70214 0.3709 0.0
H3525 H 0.76697 0.64633 0.43732 0.0
H3526 H 0.75002 0.64857 0.42084 0.0
H3527 H 0.7782 0.69106 0.41385 0.0
H3528 H 0.79527 0.68882 0.42989 0.0
H3529 H 0.76505 0.67959 0.38475 0.0
H3530 H 0.75314 0.68013 0.44346 0.0
H3531 H 0.7471 0.67111 0.47257 0.0
H3532 H 0.71203 0.63571 0.45364 0.0
H3533 H 0.71797 0.64445 0.42437 0.0
C3534 C 0.72039 0.69763 0.3693 0.0
C3535 C 0.70666 0.68815 0.36669 0.0
C3536 C 0.72913 0.69364 0.37616 0.0
C3537 C 0.72438 0.68009 0.3805 0.0
C3538 C 0.7107 0.67055 0.37777 0.0
C3539 C 0.70193 0.67453 0.37083 0.0
C3540 C 0.73366 0.67613 0.3886 0.0
C3541 C 0.73043 0.67025 0.40482 0.0
C3542 C 0.74621 0.67934 0.38117 0.0
C3543 C 0.74987 0.68483 0.36367 0.0
C3544 C 0.74115 0.67811 0.35 0.0
C3545 C 0.7446 0.68337 0.33356 0.0
C3546 C 0.75678 0.6953 0.33062 0.0
C3547 C 0.76556 0.70199 0.34411 0.0
C3548 C 0.76215 0.69678 0.36057 0.0
C3549 C 0.7696 0.65612 0.43212 0.0
C3550 C 0.78246 0.66742 0.43502 0.0
C3551 C 0.75987 0.65741 0.42281 0.0
C3552 C 0.76279 0.67002 0.41625 0.0
C3553 C 0.7757 0.68124 0.41882 0.0
C3554 C 0.78541 0.67996 0.42814 0.0
C3555 C 0.75241 0.67167 0.40689 0.0
C3556 C 0.75544 0.67714 0.39045 0.0
C3557 C 0.73969 0.66811 0.41413 0.0
C3558 C 0.73609 0.66287 0.43171 0.0
C3559 C 0.7442 0.67037 0.44549 0.0
C3560 C 0.74079 0.66532 0.46202 0.0
C3561 C 0.72921 0.65282 0.46494 0.0
C3562 C 0.72101 0.64538 0.45135 0.0
C3563 C 0.72439 0.65037 0.43479 0.0
H3564 H 0.72658 0.64893 0.47775 0.0
H3565 H 0.75943 0.69936 0.31789 0.0
H3566 H 0.3355 0.02087 0.37554 0.0
H3567 H 0.3431 0.04293 0.38899 0.0
H3568 H 0.30667 0.04201 0.37249 0.0
H3569 H 0.29886 0.01986 0.35941 0.0
H3570 H 0.33229 0.06812 0.3683 0.0
H3571 H 0.30613 0.03306 0.40986 0.0
H3572 H 0.30104 0.01292 0.42682 0.0
H3573 H 0.34066 0.03406 0.44894 0.0
H3574 H 0.34604 0.05427 0.4319 0.0
H3575 H 0.32719 0.1161 0.41893 0.0
H3576 H 0.32361 0.09613 0.40348 0.0
H3577 H 0.35259 0.09318 0.4356 0.0
H3578 H 0.35538 0.1125 0.4521 0.0
H3579 H 0.333 0.0695 0.43129 0.0
H3580 H 0.35933 0.10499 0.39257 0.0
H3581 H 0.36593 0.12537 0.37535 0.0
H3582 H 0.3288 0.10441 0.34741 0.0
H3583 H 0.32189 0.08394 0.36462 0.0
C3584 C 0.32921 0.02547 0.37457 0.0
C3585 C 0.31657 0.01863 0.36647 0.0
C3586 C 0.33355 0.03804 0.38229 0.0
C3587 C 0.32541 0.04405 0.38177 0.0
C3588 C 0.3131 0.03753 0.37301 0.0
C3589 C 0.30864 0.02487 0.36559 0.0
C3590 C 0.32929 0.05673 0.3912 0.0
C3591 C 0.33238 0.06846 0.38207 0.0
C3592 C 0.32981 0.05722 0.40914 0.0
C3593 C 0.32654 0.04511 0.41946 0.0
C3594 C 0.3138 0.03337 0.41822 0.0
C3595 C 0.31085 0.02195 0.42787 0.0
C3596 C 0.32054 0.02219 0.43891 0.0
C3597 C 0.33317 0.03388 0.44036 0.0
C3598 C 0.33618 0.04532 0.43071 0.0
C3599 C 0.33269 0.11114 0.42294 0.0
C3600 C 0.34158 0.11601 0.43688 0.0
C3601 C 0.33081 0.09981 0.41383 0.0
C3602 C 0.33803 0.09324 0.41808 0.0
C3603 C 0.34694 0.09808 0.43195 0.0
C3604 C 0.34865 0.10928 0.44128 0.0
C3605 C 0.33592 0.08106 0.40843 0.0
C3606 C 0.33312 0.06935 0.41751 0.0
C3607 C 0.33593 0.08068 0.39042 0.0
C3608 C 0.34005 0.09296 0.37999 0.0
C3609 C 0.35253 0.10475 0.38284 0.0
C3610 C 0.35633 0.11632 0.37306 0.0
C3611 C 0.34778 0.1162 0.36032 0.0
C3612 C 0.33541 0.10449 0.35729 0.0
C3613 C 0.33156 0.0929 0.36704 0.0
H3614 H 0.35074 0.12516 0.35277 0.0
H3615 H 0.31824 0.01335 0.44638 0.0
H3616 H 0.99178 0.28349 0.37431 0.0
H3617 H 0.9699 0.26853 0.38733 0.0
H3618 H 0.95824 0.29878 0.38039 0.0
H3619 H 0.98023 0.31391 0.36726 0.0
H3620 H 0.95926 0.27245 0.4162 0.0
H3621 H 0.92327 0.2814 0.37408 0.0
H3622 H 0.92174 0.28788 0.34464 0.0
H3623 H 0.9464 0.27158 0.32742 0.0
H3624 H 0.94792 0.26484 0.35671 0.0
H3625 H 0.8949 0.24135 0.45586 0.0
H3626 H 0.91518 0.25824 0.44109 0.0
H3627 H 0.90569 0.23107 0.39862 0.0
H3628 H 0.88511 0.21434 0.413 0.0
H3629 H 0.91513 0.25652 0.3877 0.0
H3630 H 0.92868 0.23412 0.42885 0.0
H3631 H 0.92995 0.22636 0.45765 0.0
H3632 H 0.95033 0.26739 0.47547 0.0
H3633 H 0.94907 0.27539 0.44678 0.0
C3634 C 0.98455 0.28696 0.37539 0.0
C3635 C 0.98777 0.29991 0.36972 0.0
C3636 C 0.97205 0.2784 0.38294 0.0
C3637 C 0.96243 0.28253 0.38487 0.0
C3638 C 0.96548 0.29535 0.37894 0.0
C3639 C 0.97805 0.30398 0.37144 0.0
C3640 C 0.94936 0.27342 0.39341 0.0
C3641 C 0.94961 0.26903 0.40999 0.0
C3642 C 0.93677 0.26887 0.3853 0.0
C3643 C 0.93583 0.27277 0.36762 0.0
C3644 C 0.92833 0.27917 0.364 0.0
C3645 C 0.92747 0.28289 0.34734 0.0
C3646 C 0.93401 0.28019 0.33418 0.0
C3647 C 0.94139 0.27372 0.33764 0.0
C3648 C 0.94227 0.26996 0.35427 0.0
C3649 C 0.89699 0.23904 0.44325 0.0
C3650 C 0.8884 0.22642 0.43568 0.0
C3651 C 0.90866 0.24868 0.43488 0.0
C3652 C 0.91207 0.24586 0.41883 0.0
C3653 C 0.9033 0.23346 0.41101 0.0
C3654 C 0.89161 0.22384 0.41934 0.0
C3655 C 0.92504 0.25555 0.41047 0.0
C3656 C 0.92478 0.26006 0.39397 0.0
C3657 C 0.93765 0.26009 0.41856 0.0
C3658 C 0.93867 0.25533 0.43572 0.0
C3659 C 0.93338 0.24148 0.43893 0.0
C3660 C 0.93411 0.23704 0.45523 0.0
C3661 C 0.94019 0.24637 0.46839 0.0
C3662 C 0.94562 0.26018 0.46526 0.0
C3663 C 0.94492 0.26467 0.44898 0.0
H3664 H 0.94072 0.24291 0.481 0.0
H3665 H 0.93333 0.28308 0.32129 0.0
H3666 H 0.0048 0.36234 0.33719 0.0
H3667 H 0.99804 0.37745 0.32384 0.0
H3668 H 0.03999 0.40729 0.3162 0.0
H3669 H 0.04677 0.3925 0.32989 0.0
H3670 H 0.02696 0.41943 0.32565 0.0
H3671 H 0.01953 0.38552 0.28393 0.0
H3672 H 0.0099 0.36234 0.27269 0.0
H3673 H 0.9698 0.35594 0.27954 0.0
H3674 H 0.9792 0.37904 0.29103 0.0
H3675 H 0.02414 0.45827 0.25751 0.0
H3676 H 0.02755 0.44235 0.27446 0.0
H3677 H 0.98491 0.41971 0.28552 0.0
H3678 H 0.98141 0.43587 0.26907 0.0
H3679 H 0.99621 0.40344 0.27594 0.0
H3680 H 0.00469 0.43887 0.3154 0.0
H3681 H 0.01522 0.46249 0.32525 0.0
H3682 H 0.05453 0.46642 0.32117 0.0
H3683 H 0.04424 0.44287 0.31105 0.0
C3684 C 0.01257 0.37218 0.33282 0.0
C3685 C 0.02632 0.37619 0.33457 0.0
C3686 C 0.0087 0.38078 0.32508 0.0
C3687 C 0.0185 0.39345 0.31875 0.0
C3688 C 0.03222 0.39758 0.32095 0.0
C3689 C 0.03609 0.38907 0.32878 0.0
C3690 C 0.01463 0.40239 0.30952 0.0
C3691 C 0.02031 0.41593 0.31471 0.0
C3692 C 0.00573 0.39781 0.29542 0.0
C3693 C 1.00006 0.38394 0.28853 0.0
C3694 C 0.00866 0.37913 0.28317 0.0
C3695 C 0.00324 0.36602 0.27673 0.0
C3696 C 0.98924 0.35766 0.27545 0.0
C3697 C 0.98064 0.36241 0.28057 0.0
C3698 C 0.986 0.37551 0.28704 0.0
C3699 C 0.01547 0.45003 0.2637 0.0
C3700 C 1.0025 0.44848 0.26198 0.0
C3701 C 0.01744 0.44088 0.27331 0.0
C3702 C 0.0065 0.42992 0.28137 0.0
C3703 C 0.99349 0.4281 0.27939 0.0
C3704 C 0.99151 0.43733 0.26989 0.0
C3705 C 0.00873 0.42045 0.29193 0.0
C3706 C 0.00274 0.40685 0.28699 0.0
C3707 C 0.01748 0.425 0.30613 0.0
C3708 C 0.02369 0.43914 0.31233 0.0
C3709 C 0.01558 0.4448 0.31648 0.0
C3710 C 0.02151 0.45818 0.32213 0.0
C3711 C 0.03554 0.46596 0.3238 0.0
C3712 C 0.04366 0.46038 0.31986 0.0
C3713 C 0.03779 0.44702 0.31418 0.0
H3714 H 0.04011 0.47632 0.32817 0.0
H3715 H 0.98507 0.34752 0.27046 0.0
H3716 H 0.61428 0.65592 0.32806 0.0
H3717 H 0.59892 0.63393 0.31576 0.0
H3718 H 0.62831 0.62129 0.3241 0.0
H3719 H 0.64398 0.64357 0.33608 0.0
H3720 H 0.6181 0.61417 0.29342 0.0
H3721 H 0.59906 0.6089 0.3486 0.0
H3722 H 0.5902 0.61486 0.37373 0.0
H3723 H 0.55852 0.614 0.34352 0.0
H3724 H 0.5673 0.60822 0.31814 0.0
H3725 H 0.56937 0.54543 0.27264 0.0
H3726 H 0.58559 0.56562 0.28815 0.0
H3727 H 0.56242 0.58493 0.27623 0.0
H3728 H 0.5464 0.56501 0.26017 0.0
H3729 H 0.56994 0.58728 0.31056 0.0
H3730 H 0.59041 0.59389 0.25508 0.0
H3731 H 0.59934 0.58748 0.23042 0.0
H3732 H 0.62847 0.58505 0.2624 0.0
H3733 H 0.61957 0.59126 0.28731 0.0
C3734 C 0.61747 0.64845 0.32745 0.0
C3735 C 0.63036 0.65151 0.33312 0.0
C3736 C 0.60862 0.63581 0.32047 0.0
C3737 C 0.61234 0.62583 0.31921 0.0
C3738 C 0.62518 0.6288 0.32498 0.0
C3739 C 0.63411 0.64152 0.33189 0.0
C3740 C 0.60298 0.61255 0.3112 0.0
C3741 C 0.60764 0.60817 0.29742 0.0
C3742 C 0.58925 0.60477 0.31618 0.0
C3743 C 0.58391 0.60822 0.33143 0.0
C3744 C 0.59026 0.61008 0.34728 0.0
C3745 C 0.58524 0.61341 0.36158 0.0
C3746 C 0.57382 0.61483 0.36021 0.0
C3747 C 0.56737 0.6129 0.34455 0.0
C3748 C 0.57235 0.60958 0.33021 0.0
C3749 C 0.56779 0.55402 0.27308 0.0
C3750 C 0.55653 0.55354 0.26507 0.0
C3751 C 0.57705 0.56553 0.28206 0.0
C3752 C 0.57523 0.57678 0.2833 0.0
C3753 C 0.56397 0.57632 0.2755 0.0
C3754 C 0.55478 0.56487 0.26638 0.0
C3755 C 0.58504 0.58908 0.29271 0.0
C3756 C 0.58045 0.59324 0.30675 0.0
C3757 C 0.59884 0.59658 0.28807 0.0
C3758 C 0.60423 0.59289 0.27309 0.0
C3759 C 0.59864 0.59187 0.25688 0.0
C3760 C 0.60371 0.5883 0.24285 0.0
C3761 C 0.61444 0.58582 0.24485 0.0
C3762 C 0.62014 0.58695 0.26088 0.0
C3763 C 0.6151 0.5905 0.27495 0.0
H3764 H 0.61835 0.58305 0.23397 0.0
H3765 H 0.56995 0.61741 0.3713 0.0
H3766 H 0.35928 1.0008 0.33605 0.0
H3767 H 0.38145 0.00762 0.32354 0.0
H3768 H 0.36914 0.96574 0.31454 0.0
H3769 H 0.34723 0.95889 0.32737 0.0
H3770 H 0.39407 0.97836 0.3251 0.0
H3771 H 0.36894 0.98704 0.28277 0.0
H3772 H 0.35589 0.99715 0.27138 0.0
H3773 H 0.38957 0.03692 0.28001 0.0
H3774 H 0.40277 0.02704 0.29166 0.0
H3775 H 0.4374 0.98213 0.25841 0.0
H3776 H 0.41776 0.97852 0.27491 0.0
H3777 H 0.43743 0.02108 0.2865 0.0
H3778 H 0.45736 0.02477 0.27044 0.0
H3779 H 0.41033 0.01015 0.2764 0.0
H3780 H 0.43603 1.00054 0.31638 0.0
H3781 H 0.4487 0.98963 0.32644 0.0
H3782 H 0.41328 0.95057 0.32083 0.0
H3783 H 0.40044 0.96124 0.31049 0.0
C3784 C 0.36136 0.99306 0.33156 0.0
C3785 C 0.35146 0.97931 0.33266 0.0
C3786 C 0.37401 0.99696 0.32431 0.0
C3787 C 0.37692 0.9872 0.31784 0.0
C3788 C 0.36717 0.97347 0.31941 0.0
C3789 C 0.35461 0.96957 0.32674 0.0
C3790 C 0.38994 0.99115 0.30907 0.0
C3791 C 0.39755 0.98524 0.31437 0.0
C3792 C 0.39469 1.00035 0.29527 0.0
C3793 C 0.38678 0.00631 0.28828 0.0
C3794 C 0.37352 0.99794 0.28237 0.0
C3795 C 0.36611 0.00363 0.27584 0.0
C3796 C 0.37188 0.01767 0.27502 0.0
C3797 C 0.3851 0.02605 0.28069 0.0
C3798 C 0.39256 0.02041 0.28725 0.0
C3799 C 0.43767 0.99072 0.26462 0.0
C3800 C 0.44906 0.00373 0.26315 0.0
C3801 C 0.42639 0.98864 0.27399 0.0
C3802 C 0.42619 0.99951 0.28206 0.0
C3803 C 0.43738 0.01255 0.28036 0.0
C3804 C 0.44874 0.01464 0.27109 0.0
C3805 C 0.41427 0.99718 0.29228 0.0
C3806 C 0.40689 0.00339 0.28724 0.0
C3807 C 0.40964 0.98814 0.30619 0.0
C3808 C 0.41731 0.98169 0.31253 0.0
C3809 C 0.43097 0.98962 0.31717 0.0
C3810 C 0.43818 0.98348 0.32294 0.0
C3811 C 0.43181 0.96941 0.32424 0.0
C3812 C 0.4182 0.96146 0.31981 0.0
C3813 C 0.41095 0.96755 0.31401 0.0
H3814 H 0.43741 0.96468 0.32871 0.0
H3815 H 0.36612 0.02205 0.26996 0.0
H3816 H 0.61725 0.95858 0.31869 0.0
H3817 H 0.60219 0.9653 0.30568 0.0
H3818 H 0.62474 0.00471 0.32886 0.0
H3819 H 0.64029 0.99817 0.34138 0.0
H3820 H 0.5853 0.97173 0.31623 0.0
H3821 H 0.62321 0.02841 0.30439 0.0
H3822 H 0.64759 0.04342 0.29919 0.0
H3823 H 0.65044 0.01008 0.27858 0.0
H3824 H 0.62606 0.99492 0.28347 0.0
H3825 H 0.54713 1.00114 0.28829 0.0
H3826 H 0.56326 0.99697 0.30378 0.0
H3827 H 0.5861 0.00313 0.25765 0.0
H3828 H 0.57025 0.00781 0.2423 0.0
H3829 H 0.60291 0.01373 0.28221 0.0
H3830 H 0.56316 0.97076 0.27379 0.0
H3831 H 0.53886 0.95393 0.27511 0.0
H3832 H 0.53992 0.95656 0.32954 0.0
H3833 H 0.56421 0.97356 0.32853 0.0
C3834 C 0.61901 0.96867 0.32109 0.0
C3835 C 0.63001 0.97786 0.33103 0.0
C3836 C 0.61034 0.9725 0.31365 0.0
C3837 C 0.61236 0.98558 0.31608 0.0
C3838 C 0.6231 0.99466 0.32646 0.0
C3839 C 0.63194 0.99089 0.33371 0.0
C3840 C 0.60323 0.98958 0.30753 0.0
C3841 C 0.58919 0.98095 0.30886 0.0
C3842 C 0.60821 1.00147 0.2976 0.0
C3843 C 0.62285 0.01051 0.29449 0.0
C3844 C 0.62904 0.0243 0.29872 0.0
C3845 C 0.64286 0.03283 0.29582 0.0
C3846 C 0.65057 0.02769 0.28862 0.0
C3847 C 0.64447 0.01403 0.28423 0.0
C3848 C 0.63066 0.00546 0.28707 0.0
C3849 C 0.55563 1.00164 0.2815 0.0
C3850 C 0.5574 0.00471 0.26408 0.0
C3851 C 0.56482 0.99922 0.29034 0.0
C3852 C 0.5758 0.99948 0.28185 0.0
C3853 C 0.57774 0.00287 0.26452 0.0
C3854 C 0.56868 0.00552 0.25574 0.0
C3855 C 0.58502 0.99585 0.29088 0.0
C3856 C 0.59905 0.00456 0.28969 0.0
C3857 C 0.58006 0.98377 0.30041 0.0
C3858 C 0.56546 0.97353 0.30107 0.0
C3859 C 0.55819 0.96782 0.28604 0.0
C3860 C 0.54442 0.95824 0.28673 0.0
C3861 C 0.53784 0.95421 0.3024 0.0
C3862 C 0.54502 0.95972 0.31741 0.0
C3863 C 0.55879 0.96931 0.31679 0.0
H3864 H 0.52718 0.94679 0.30291 0.0
H3865 H 0.66127 0.03431 0.2864 0.0
H3866 H 0.00446 0.64964 0.32262 0.0
H3867 H 0.99837 0.62799 0.30924 0.0
H3868 H 0.03384 0.62957 0.3309 0.0
H3869 H 0.04028 0.65151 0.34352 0.0
H3870 H 0.03278 0.62307 0.30016 0.0
H3871 H 0.99964 0.60671 0.34445 0.0
H3872 H 0.98102 0.60527 0.36193 0.0
H3873 H 0.9556 0.59446 0.31787 0.0
H3874 H 0.97413 0.59601 0.30007 0.0
H3875 H 0.01431 0.55461 0.28317 0.0
H3876 H 0.01791 0.57473 0.29852 0.0
H3877 H 0.99128 0.57934 0.26397 0.0
H3878 H 0.98813 0.55964 0.2479 0.0
H3879 H 0.98726 0.58214 0.30091 0.0
H3880 H 0.02159 0.59887 0.25713 0.0
H3881 H 0.04039 0.59943 0.24099 0.0
H3882 H 0.06387 0.60862 0.28666 0.0
H3883 H 0.04511 0.6079 0.30312 0.0
C3884 C 0.01083 0.64525 0.32473 0.0
C3885 C 0.02285 0.65227 0.3341 0.0
C3886 C 0.00732 0.63282 0.31712 0.0
C3887 C 0.01557 0.627 0.31912 0.0
C3888 C 0.02732 0.63382 0.32904 0.0
C3889 C 0.03097 0.64636 0.33633 0.0
C3890 C 0.01249 0.61427 0.31008 0.0
C3891 C 0.02286 0.61409 0.30062 0.0
C3892 C 0.99948 0.60255 0.31024 0.0
C3893 C 0.98832 0.60161 0.3209 0.0
C3894 C 0.99011 0.60413 0.33846 0.0
C3895 C 0.97957 0.60328 0.34844 0.0
C3896 C 0.96715 0.59981 0.34101 0.0
C3897 C 0.96523 0.59716 0.3236 0.0
C3898 C 0.97575 0.59802 0.31357 0.0
C3899 C 0.00932 0.55995 0.27863 0.0
C3900 C 1.001 0.55546 0.26412 0.0
C3901 C 0.0113 0.57139 0.28756 0.0
C3902 C 0.00486 0.57851 0.28236 0.0
C3903 C 0.99626 0.57392 0.26824 0.0
C3904 C 0.99444 0.56259 0.25911 0.0
C3905 C 0.00757 0.59105 0.29131 0.0
C3906 C 0.99715 0.59118 0.30064 0.0
C3907 C 0.02057 0.60266 0.29128 0.0
C3908 C 0.03189 0.60319 0.28138 0.0
C3909 C 0.03071 0.60089 0.26376 0.0
C3910 C 0.04137 0.60126 0.25455 0.0
C3911 C 0.0533 0.60402 0.2628 0.0
C3912 C 0.05461 0.60646 0.28028 0.0
C3913 C 0.04397 0.60608 0.28956 0.0
H3914 H 0.06154 0.60431 0.25565 0.0
H3915 H 0.959 0.59916 0.34875 0.0
H3916 H 0.3563 0.35494 0.32701 0.0
H3917 H 0.37794 0.37022 0.31342 0.0
H3918 H 0.37596 0.40454 0.333 0.0
H3919 H 0.35405 0.38931 0.34586 0.0
H3920 H 0.38233 0.40893 0.302 0.0
H3921 H 0.39897 0.39397 0.34797 0.0
H3922 H 0.40064 0.3775 0.36657 0.0
H3923 H 0.41192 0.36183 0.32385 0.0
H3924 H 0.41015 0.3781 0.30495 0.0
H3925 H 0.45031 0.45922 0.28442 0.0
H3926 H 0.43019 0.44292 0.2999 0.0
H3927 H 0.42697 0.41084 0.26781 0.0
H3928 H 0.44671 0.42713 0.25162 0.0
H3929 H 0.42371 0.40514 0.30466 0.0
H3930 H 0.40686 0.42093 0.25912 0.0
H3931 H 0.406 0.43843 0.24172 0.0
H3932 H 0.39593 0.4537 0.28591 0.0
H3933 H 0.39693 0.43641 0.30363 0.0
C3934 C 0.3606 0.36574 0.32863 0.0
C3935 C 0.35348 0.37093 0.33748 0.0
C3936 C 0.37301 0.37449 0.32089 0.0
C3937 C 0.37871 0.3886 0.32224 0.0
C3938 C 0.37179 0.39373 0.33165 0.0
C3939 C 0.35929 0.38501 0.33908 0.0
C3940 C 0.39139 0.39804 0.31301 0.0
C3941 C 0.39141 0.40818 0.30286 0.0
C3942 C 0.40323 0.39696 0.3137 0.0
C3943 C 0.40429 0.38716 0.32502 0.0
C3944 C 0.4017 0.38694 0.34252 0.0
C3945 C 0.40269 0.37765 0.35312 0.0
C3946 C 0.40635 0.3686 0.34639 0.0
C3947 C 0.40907 0.36884 0.32905 0.0
C3948 C 0.40809 0.3781 0.31839 0.0
C3949 C 0.44527 0.44875 0.28044 0.0
C3950 C 0.45016 0.44458 0.2666 0.0
C3951 C 0.43383 0.43942 0.28945 0.0
C3952 C 0.4271 0.4257 0.28497 0.0
C3953 C 0.43209 0.42139 0.27151 0.0
C3954 C 0.44343 0.43074 0.26232 0.0
C3955 C 0.41456 0.41597 0.29399 0.0
C3956 C 0.41458 0.40582 0.30397 0.0
C3957 C 0.40281 0.41713 0.29338 0.0
C3958 C 0.40211 0.42747 0.28273 0.0
C3959 C 0.40458 0.4281 0.26515 0.0
C3960 C 0.40404 0.43796 0.25523 0.0
C3961 C 0.40095 0.44719 0.26271 0.0
C3962 C 0.39834 0.44656 0.28013 0.0
C3963 C 0.39888 0.43672 0.29012 0.0
H3964 H 0.40054 0.45482 0.25501 0.0
H3965 H 0.4071 0.36142 0.35462 0.0
H3966 H 0.33561 0.30904 0.36603 0.0
H3967 H 0.34232 0.29391 0.37954 0.0
H3968 H 0.30041 0.26455 0.38827 0.0
H3969 H 0.29363 0.27945 0.37476 0.0
H3970 H 0.31645 0.2706 0.4173 0.0
H3971 H 0.31717 0.25874 0.35842 0.0
H3972 H 0.32446 0.26354 0.32852 0.0
H3973 H 0.36576 0.27932 0.34364 0.0
H3974 H 0.35873 0.27478 0.37368 0.0
H3975 H 0.31757 0.2127 0.44427 0.0
H3976 H 0.31362 0.22886 0.42881 0.0
H3977 H 0.35598 0.25195 0.41609 0.0
H3978 H 0.3599 0.23534 0.43071 0.0
H3979 H 0.34167 0.25082 0.38957 0.0
H3980 H 0.34178 0.26223 0.44773 0.0
H3981 H 0.33545 0.25833 0.47801 0.0
H3982 H 0.29416 0.24505 0.46513 0.0
H3983 H 0.3002 0.24868 0.43474 0.0
C3984 C 0.32783 0.29929 0.37064 0.0
C3985 C 0.31408 0.29546 0.36932 0.0
C3986 C 0.33168 0.29066 0.37834 0.0
C3987 C 0.32185 0.27812 0.38494 0.0
C3988 C 0.30815 0.2742 0.38333 0.0
C3989 C 0.3043 0.28272 0.37551 0.0
C3990 C 0.32574 0.26923 0.39414 0.0
C3991 C 0.32185 0.26616 0.4112 0.0
C3992 C 0.33322 0.26385 0.38636 0.0
C3993 C 0.33744 0.26656 0.36831 0.0
C3994 C 0.32782 0.26335 0.35539 0.0
C3995 C 0.3319 0.266 0.33841 0.0
C3996 C 0.34557 0.27177 0.33419 0.0
C3997 C 0.35518 0.27487 0.34693 0.0
C3998 C 0.35115 0.27225 0.36394 0.0
C3999 C 0.32605 0.22109 0.43801 0.0
C4000 C 0.33907 0.22268 0.43881 0.0
C4001 C 0.3238 0.23046 0.42934 0.0
C4002 C 0.33454 0.24179 0.42152 0.0
C4003 C 0.34753 0.24335 0.4221 0.0
C4004 C 0.34978 0.2339 0.43065 0.0
C4005 C 0.33214 0.25194 0.4127 0.0
C4006 C 0.33635 0.25531 0.39575 0.0
C4007 C 0.32511 0.25777 0.42066 0.0
C4008 C 0.32143 0.25562 0.43894 0.0
C4009 C 0.33133 0.25839 0.45134 0.0
C4010 C 0.3278 0.25624 0.46853 0.0
C4011 C 0.31441 0.25142 0.47349 0.0
C4012 C 0.30453 0.24877 0.46127 0.0
C4013 C 0.308 0.25089 0.44406 0.0
H4014 H 0.31169 0.24976 0.4868 0.0
H4015 H 0.34871 0.27381 0.32103 0.0
H4016 H 0.72278 0.01274 0.37788 0.0
H4017 H 0.73759 0.03451 0.3912 0.0
H4018 H 0.70892 0.04756 0.38011 0.0
H4019 H 0.69393 0.02567 0.36661 0.0
H4020 H 0.7358 0.06769 0.37414 0.0
H4021 H 0.70983 0.0376 0.41898 0.0
H4022 H 0.69998 0.01655 0.43569 0.0
H4023 H 0.73975 0.02392 0.44779 0.0
H4024 H 0.74984 0.04493 0.43094 0.0
H4025 H 0.76842 0.1242 0.43061 0.0
H4026 H 0.75155 0.1036 0.4163 0.0
H4027 H 0.77465 0.08421 0.42839 0.0
H4028 H 0.79122 0.10451 0.44328 0.0
H4029 H 0.74875 0.06753 0.43422 0.0
H4030 H 0.77476 0.09669 0.38813 0.0
H4031 H 0.78488 0.11756 0.37103 0.0
H4032 H 0.74542 0.1119 0.36108 0.0
H4033 H 0.73508 0.09108 0.37832 0.0
C4034 C 0.71962 0.02024 0.37812 0.0
C4035 C 0.70711 0.01741 0.37126 0.0
C4036 C 0.7281 0.03268 0.38581 0.0
C4037 C 0.72428 0.04259 0.38688 0.0
C4038 C 0.71204 0.04003 0.37948 0.0
C4039 C 0.70348 0.02752 0.3718 0.0
C4040 C 0.73297 0.0554 0.39616 0.0
C4041 C 0.73847 0.0677 0.38736 0.0
C4042 C 0.73662 0.05538 0.41333 0.0
C4043 C 0.73059 0.04279 0.42357 0.0
C4044 C 0.71647 0.03469 0.4251 0.0
C4045 C 0.71085 0.02277 0.43461 0.0
C4046 C 0.71923 0.01889 0.44277 0.0
C4047 C 0.73327 0.02694 0.44146 0.0
C4048 C 0.73894 0.03886 0.43194 0.0
C4049 C 0.76985 0.11551 0.43036 0.0
C4050 C 0.78124 0.11606 0.43805 0.0
C4051 C 0.76026 0.10378 0.42201 0.0
C4052 C 0.7619 0.09238 0.42106 0.0
C4053 C 0.77317 0.09287 0.42888 0.0
C4054 C 0.78273 0.10456 0.43726 0.0
C4055 C 0.75184 0.07986 0.41214 0.0
C4056 C 0.74604 0.06757 0.42104 0.0
C4057 C 0.74797 0.07992 0.39506 0.0
C4058 C 0.75416 0.09241 0.38467 0.0
C4059 C 0.76825 0.09996 0.38241 0.0
C4060 C 0.77402 0.11177 0.37267 0.0
C4061 C 0.7658 0.11608 0.36502 0.0
C4062 C 0.75178 0.10857 0.36704 0.0
C4063 C 0.74596 0.09676 0.37679 0.0
H4064 H 0.77029 0.12522 0.35748 0.0
H4065 H 0.71486 0.00966 0.45013 0.0
H4066 H 0.98579 0.70811 0.35926 0.0
H4067 H 0.96425 0.70144 0.37319 0.0
H4068 H 0.96008 0.66277 0.38579 0.0
H4069 H 0.98153 0.66927 0.3714 0.0
H4070 H 0.93602 0.65968 0.37829 0.0
H4071 H 0.97248 0.68859 0.41485 0.0
H4072 H 0.99374 0.70903 0.42284 0.0
H4073 H 0.97552 0.7335 0.414 0.0
H4074 H 0.95419 0.71322 0.40572 0.0
H4075 H 0.90219 0.66997 0.46004 0.0
H4076 H 0.92182 0.67266 0.44422 0.0
H4077 H 0.90032 0.66694 0.39715 0.0
H4078 H 0.88057 0.66402 0.41298 0.0
H4079 H 0.9375 0.69097 0.42314 0.0
H4080 H 0.91178 0.65376 0.36696 0.0
H4081 H 0.89116 0.63194 0.3614 0.0
H4082 H 0.8888 0.62145 0.41413 0.0
H4083 H 0.9095 0.64311 0.41996 0.0
C4084 C 0.98021 0.69811 0.36477 0.0
C4085 C 0.98544 0.68927 0.36436 0.0
C4086 C 0.96791 0.69432 0.37281 0.0
C4087 C 0.96068 0.68172 0.3809 0.0
C4088 C 0.96551 0.67258 0.37972 0.0
C4089 C 0.97777 0.67631 0.3715 0.0
C4090 C 0.94854 0.67846 0.39135 0.0
C4091 C 0.93632 0.66652 0.38808 0.0
C4092 C 0.94899 0.68719 0.40446 0.0
C4093 C 0.96178 0.6994 0.40952 0.0
C4094 C 0.97303 0.69834 0.4145 0.0
C4095 C 0.98509 0.7099 0.4191 0.0
C4096 C 0.98599 0.72256 0.41889 0.0
C4097 C 0.97481 0.72369 0.41414 0.0
C4098 C 0.96273 0.71217 0.4095 0.0
C4099 C 0.90164 0.66925 0.44632 0.0
C4100 C 0.88983 0.6668 0.43776 0.0
C4101 C 0.91287 0.67078 0.43728 0.0
C4102 C 0.91257 0.66992 0.41947 0.0
C4103 C 0.90074 0.66739 0.41089 0.0
C4104 C 0.88945 0.66574 0.41995 0.0
C4105 C 0.92484 0.6723 0.40991 0.0
C4106 C 0.93713 0.6841 0.41335 0.0
C4107 C 0.92451 0.66324 0.39731 0.0
C4108 C 0.91212 0.65013 0.39391 0.0
C4109 C 0.90689 0.64677 0.37735 0.0
C4110 C 0.89518 0.63443 0.37416 0.0
C4111 C 0.88865 0.62533 0.38742 0.0
C4112 C 0.89384 0.62853 0.40389 0.0
C4113 C 0.90555 0.64084 0.40714 0.0
H4114 H 0.87959 0.61579 0.38492 0.0
H4115 H 0.99534 0.73149 0.42246 0.0
H4116 H 0.38787 0.04301 0.71341 0.0
H4117 H 0.40334 0.03654 0.72568 0.0
H4118 H 0.37984 0.99656 0.70428 0.0
H4119 H 0.36381 0.00286 0.69264 0.0
H4120 H 0.3866 0.99404 0.73432 0.0
H4121 H 0.41208 0.02146 0.68794 0.0
H4122 H 0.42229 0.04129 0.66899 0.0
H4123 H 0.44589 0.06646 0.71042 0.0
H4124 H 0.43568 0.04682 0.72968 0.0
H4125 H 0.44232 0.98228 0.75287 0.0
H4126 H 0.42592 0.98591 0.73721 0.0
H4127 H 0.43594 0.02095 0.76788 0.0
H4128 H 0.45176 0.01704 0.78428 0.0
H4129 H 0.43625 0.02428 0.73034 0.0
H4130 H 0.40852 0.9956 0.77662 0.0
H4131 H 0.39861 0.97487 0.79398 0.0
H4132 H 0.3798 0.95086 0.74964 0.0
H4133 H 0.38977 0.97145 0.73197 0.0
C4134 C 0.38603 0.03286 0.71116 0.0
C4135 C 0.37467 0.02348 0.70192 0.0
C4136 C 0.39496 0.02919 0.71812 0.0
C4137 C 0.39301 0.01614 0.71561 0.0
C4138 C 0.38164 0.00672 0.70635 0.0
C4139 C 0.37251 0.01033 0.69964 0.0
C4140 C 0.40261 0.01234 0.72321 0.0
C4141 C 0.39745 1.00055 0.73313 0.0
C4142 C 0.41682 0.02081 0.72184 0.0
C4143 C 0.42303 0.03267 0.71029 0.0
C4144 C 0.41938 0.03124 0.69304 0.0
C4145 C 0.42518 0.04244 0.68224 0.0
C4146 C 0.43471 0.05513 0.68851 0.0
C4147 C 0.43849 0.05663 0.70559 0.0
C4148 C 0.43272 0.04546 0.71645 0.0
C4149 C 0.4409 0.99063 0.75655 0.0
C4150 C 0.44849 0.99938 0.7699 0.0
C4151 C 0.43158 0.99273 0.74746 0.0
C4152 C 0.42978 0.00372 0.75137 0.0
C4153 C 0.43728 0.01247 0.7646 0.0
C4154 C 0.44642 0.01025 0.77388 0.0
C4155 C 0.42018 0.00624 0.74159 0.0
C4156 C 0.42538 0.01776 0.73128 0.0
C4157 C 0.40606 0.9974 0.74231 0.0
C4158 C 0.40002 0.98504 0.75295 0.0
C4159 C 0.40238 0.98589 0.77054 0.0
C4160 C 0.39673 0.97417 0.78045 0.0
C4161 C 0.38862 0.96155 0.77291 0.0
C4162 C 0.38611 0.96063 0.75546 0.0
C4163 C 0.39175 0.97233 0.7455 0.0
H4164 H 0.38425 0.95249 0.7806 0.0
H4165 H 0.43919 0.06379 0.68012 0.0
H4166 H 0.96518 0.35288 0.69471 0.0
H4167 H 0.97254 0.37459 0.70866 0.0
H4168 H 0.00939 0.37604 0.72434 0.0
H4169 H 1.00214 0.3543 0.7102 0.0
H4170 H 0.99551 0.38105 0.75093 0.0
H4171 H 0.0118 0.3968 0.69476 0.0
H4172 H 0.01027 0.39747 0.66359 0.0
H4173 H 0.97915 0.40795 0.66832 0.0
H4174 H 0.98035 0.40715 0.69954 0.0
H4175 H 0.02108 0.44675 0.78611 0.0
H4176 H 0.01875 0.42744 0.77005 0.0
H4177 H 0.98553 0.42579 0.74203 0.0
H4178 H 0.9885 0.44575 0.75699 0.0
H4179 H 1.0001 0.42144 0.72129 0.0
H4180 H 0.98185 0.40362 0.77671 0.0
H4181 H 0.98238 0.40246 0.80796 0.0
H4182 H 0.01577 0.39519 0.80493 0.0
H4183 H 0.01554 0.39647 0.77365 0.0
C4184 C 0.97492 0.35788 0.70095 0.0
C4185 C 0.98309 0.35188 0.70132 0.0
C4186 C 0.97912 0.3703 0.7089 0.0
C4187 C 0.99152 0.37694 0.71751 0.0
C4188 C 0.99979 0.37108 0.71776 0.0
C4189 C 0.99567 0.35871 0.70959 0.0
C4190 C 0.99551 0.38976 0.72672 0.0
C4191 C 0.99677 0.38998 0.74446 0.0
C4192 C 0.99681 0.40128 0.71828 0.0
C4193 C 0.99609 0.40181 0.6995 0.0
C4194 C 0.00455 0.39914 0.68916 0.0
C4195 C 0.00376 0.39956 0.67148 0.0
C4196 C 0.9946 0.40272 0.66398 0.0
C4197 C 0.98623 0.40549 0.67415 0.0
C4198 C 0.98697 0.40507 0.69184 0.0
C4199 C 0.01341 0.44245 0.77635 0.0
C4200 C 0.00495 0.44788 0.77298 0.0
C4201 C 0.01195 0.43123 0.76732 0.0
C4202 C 1.00179 0.42493 0.755 0.0
C4203 C 0.99342 0.43039 0.75151 0.0
C4204 C 0.99502 0.44174 0.7603 0.0
C4205 C 0.99983 0.41271 0.74565 0.0
C4206 C 0.99896 0.41258 0.72784 0.0
C4207 C 0.99871 0.40121 0.75406 0.0
C4208 C 0.99876 0.40028 0.77285 0.0
C4209 C 0.98935 0.40186 0.78272 0.0
C4210 C 0.9896 0.40116 0.80043 0.0
C4211 C 0.99913 0.39879 0.80843 0.0
C4212 C 0.00841 0.39705 0.79872 0.0
C4213 C 0.00822 0.39774 0.781 0.0
H4214 H 0.99931 0.39828 0.82214 0.0
H4215 H 0.994 0.40305 0.65029 0.0
H4216 H 0.64937 0.61477 0.68853 0.0
H4217 H 0.62731 0.6003 0.70173 0.0
H4218 H 0.62769 0.63547 0.72243 0.0
H4219 H 0.64967 0.65007 0.70896 0.0
H4220 H 0.62288 0.61435 0.74662 0.0
H4221 H 0.60643 0.6202 0.69303 0.0
H4222 H 0.60493 0.62007 0.6618 0.0
H4223 H 0.59166 0.57764 0.66096 0.0
H4224 H 0.59327 0.57755 0.69219 0.0
H4225 H 0.55826 0.57702 0.78429 0.0
H4226 H 0.57754 0.59372 0.768 0.0
H4227 H 0.57452 0.56227 0.73473 0.0
H4228 H 0.55457 0.54568 0.75008 0.0
H4229 H 0.58043 0.58297 0.71657 0.0
H4230 H 0.59848 0.57663 0.76846 0.0
H4231 H 0.60089 0.57578 0.79948 0.0
H4232 H 0.61229 0.61767 0.80347 0.0
H4233 H 0.60978 0.61872 0.77247 0.0
C4234 C 0.64466 0.61945 0.69566 0.0
C4235 C 0.65125 0.63356 0.6977 0.0
C4236 C 0.63206 0.61117 0.70317 0.0
C4237 C 0.62589 0.61682 0.71305 0.0
C4238 C 0.63229 0.63093 0.71483 0.0
C4239 C 0.6448 0.63924 0.70705 0.0
C4240 C 0.61315 0.60791 0.72231 0.0
C4241 C 0.61351 0.60765 0.7401 0.0
C4242 C 0.6011 0.59889 0.71373 0.0
C4243 C 0.60009 0.5989 0.69495 0.0
C4244 C 0.60331 0.61087 0.68618 0.0
C4245 C 0.60241 0.61083 0.66848 0.0
C4246 C 0.59823 0.59886 0.6594 0.0
C4247 C 0.59491 0.5869 0.66801 0.0
C4248 C 0.5958 0.58689 0.68572 0.0
C4249 C 0.5615 0.57364 0.77333 0.0
C4250 C 0.55481 0.55989 0.76865 0.0
C4251 C 0.57271 0.58322 0.76415 0.0
C4252 C 0.57773 0.57926 0.75031 0.0
C4253 C 0.57094 0.56561 0.74541 0.0
C4254 C 0.55959 0.55607 0.75439 0.0
C4255 C 0.59011 0.58927 0.74101 0.0
C4256 C 0.58973 0.58973 0.72318 0.0
C4257 C 0.60225 0.59831 0.74955 0.0
C4258 C 0.60379 0.59771 0.76818 0.0
C4259 C 0.6014 0.58564 0.77597 0.0
C4260 C 0.6028 0.58512 0.79354 0.0
C4261 C 0.6067 0.59665 0.80344 0.0
C4262 C 0.60925 0.60874 0.79578 0.0
C4263 C 0.60785 0.6093 0.77821 0.0
H4264 H 0.60778 0.59624 0.81705 0.0
H4265 H 0.59754 0.59885 0.64569 0.0
H4266 H 0.70456 0.7237 0.67901 0.0
H4267 H 0.69736 0.73843 0.66567 0.0
H4268 H 0.6626 0.70357 0.64458 0.0
H4269 H 0.66959 0.68872 0.65819 0.0
H4270 H 0.67927 0.72472 0.62057 0.0
H4271 H 0.65658 0.71889 0.674 0.0
H4272 H 0.65498 0.71895 0.70522 0.0
H4273 H 0.68435 0.7613 0.70629 0.0
H4274 H 0.68627 0.76144 0.67507 0.0
H4275 H 0.65209 0.76205 0.58285 0.0
H4276 H 0.65477 0.74542 0.59911 0.0
H4277 H 0.68295 0.77692 0.63241 0.0
H4278 H 0.67947 0.79345 0.6171 0.0
H4279 H 0.66816 0.75619 0.65057 0.0
H4280 H 0.69279 0.76256 0.59883 0.0
H4281 H 0.69625 0.76348 0.56782 0.0
H4282 H 0.66586 0.72161 0.56364 0.0
H4283 H 0.6621 0.72049 0.59461 0.0
C4284 C 0.69526 0.71915 0.67175 0.0
C4285 C 0.68763 0.70505 0.66965 0.0
C4286 C 0.69116 0.72758 0.66416 0.0
C4287 C 0.67945 0.72208 0.65414 0.0
C4288 C 0.67166 0.70799 0.65228 0.0
C4289 C 0.67563 0.69953 0.66013 0.0
C4290 C 0.67583 0.73113 0.64486 0.0
C4291 C 0.67659 0.73144 0.62708 0.0
C4292 C 0.67281 0.7402 0.65343 0.0
C4293 C 0.67165 0.74014 0.6722 0.0
C4294 C 0.66279 0.72819 0.6809 0.0
C4295 C 0.6618 0.72819 0.69859 0.0
C4296 C 0.66958 0.74011 0.70774 0.0
C4297 C 0.67834 0.75206 0.69919 0.0
C4298 C 0.67937 0.75211 0.68149 0.0
C4299 C 0.65868 0.76546 0.59381 0.0
C4300 C 0.6656 0.7792 0.59853 0.0
C4301 C 0.66037 0.75592 0.60297 0.0
C4302 C 0.66929 0.7599 0.61682 0.0
C4303 C 0.67606 0.77355 0.62173 0.0
C4304 C 0.67419 0.78307 0.61277 0.0
C4305 C 0.67166 0.74991 0.62615 0.0
C4306 C 0.67073 0.74943 0.64397 0.0
C4307 C 0.67479 0.74085 0.61762 0.0
C4308 C 0.67706 0.74148 0.59901 0.0
C4309 C 0.68678 0.75358 0.59128 0.0
C4310 C 0.6888 0.75413 0.57372 0.0
C4311 C 0.68125 0.74262 0.56376 0.0
C4312 C 0.67168 0.73052 0.57136 0.0
C4313 C 0.66961 0.72992 0.58892 0.0
H4314 H 0.68283 0.74307 0.55017 0.0
H4315 H 0.66881 0.7401 0.72144 0.0
H4316 H 0.2804 0.98465 0.67433 0.0
H4317 H 0.26547 0.96279 0.66099 0.0
H4318 H 0.30014 0.96038 0.64408 0.0
H4319 H 0.31519 0.98218 0.65776 0.0
H4320 H 0.2801 0.95645 0.61802 0.0
H4321 H 0.28321 0.94004 0.67303 0.0
H4322 H 0.28215 0.93908 0.7043 0.0
H4323 H 0.24035 0.92823 0.70274 0.0
H4324 H 0.24121 0.92933 0.67144 0.0
H4325 H 0.24101 0.8913 0.58209 0.0
H4326 H 0.25786 0.91067 0.59808 0.0
H4327 H 0.22635 0.91012 0.62899 0.0
H4328 H 0.20953 0.89008 0.614 0.0
H4329 H 0.24625 0.91526 0.64835 0.0
H4330 H 0.24267 0.93323 0.59486 0.0
H4331 H 0.24283 0.93516 0.56367 0.0
H4332 H 0.28414 0.94431 0.5622 0.0
H4333 H 0.28417 0.94225 0.59339 0.0
C4334 C 0.28485 0.97938 0.66797 0.0
C4335 C 0.29896 0.98512 0.6671 0.0
C4336 C 0.27631 0.96689 0.66038 0.0
C4337 C 0.28171 0.95998 0.65156 0.0
C4338 C 0.29579 0.96557 0.65085 0.0
C4339 C 0.30436 0.97796 0.65874 0.0
C4340 C 0.2726 0.94727 0.64242 0.0
C4341 C 0.27285 0.94733 0.62462 0.0
C4342 C 0.26287 0.93558 0.65107 0.0
C4343 C 0.26231 0.93489 0.66989 0.0
C4344 C 0.27383 0.93757 0.67935 0.0
C4345 C 0.27325 0.93698 0.69708 0.0
C4346 C 0.2612 0.93363 0.7055 0.0
C4347 C 0.24968 0.93084 0.6962 0.0
C4348 C 0.2502 0.93143 0.67846 0.0
C4349 C 0.23762 0.89512 0.59247 0.0
C4350 C 0.2238 0.88905 0.59663 0.0
C4351 C 0.2473 0.90637 0.60146 0.0
C4352 C 0.2434 0.91208 0.61458 0.0
C4353 C 0.22966 0.90598 0.61889 0.0
C4354 C 0.21999 0.89459 0.6101 0.0
C4355 C 0.25359 0.92439 0.62381 0.0
C4356 C 0.25354 0.92429 0.64167 0.0
C4357 C 0.26334 0.93616 0.61519 0.0
C4358 C 0.26337 0.93744 0.59644 0.0
C4359 C 0.25175 0.93555 0.58788 0.0
C4360 C 0.25182 0.93668 0.5702 0.0
C4361 C 0.26348 0.93981 0.56095 0.0
C4362 C 0.27511 0.94186 0.56938 0.0
C4363 C 0.2751 0.94072 0.58705 0.0
H4364 H 0.26351 0.94069 0.54727 0.0
H4365 H 0.26078 0.93317 0.71923 0.0
H4366 H 0.01783 0.29545 0.66949 0.0
H4367 H 0.04026 0.30288 0.65793 0.0
H4368 H 0.04837 0.34405 0.65694 0.0
H4369 H 0.02572 0.33661 0.66835 0.0
H4370 H 0.05522 0.33734 0.62733 0.0
H4371 H 0.06422 0.33424 0.68568 0.0
H4372 H 0.06054 0.32377 0.714 0.0
H4373 H 0.06517 0.29155 0.69309 0.0
H4374 H 0.06869 0.30172 0.66459 0.0
H4375 H 0.12344 0.36034 0.60169 0.0
H4376 H 0.10393 0.3573 0.61825 0.0
H4377 H 0.08959 0.31455 0.62188 0.0
H4378 H 0.10919 0.31756 0.60571 0.0
H4379 H 0.08737 0.32477 0.65202 0.0
H4380 H 0.076 0.3267 0.59346 0.0
H4381 H 0.0795 0.33697 0.56504 0.0
H4382 H 0.07928 0.37144 0.58655 0.0
H4383 H 0.07596 0.36145 0.61516 0.0
C4384 C 0.02441 0.30612 0.66702 0.0
C4385 C 0.01997 0.31544 0.66987 0.0
C4386 C 0.03729 0.31037 0.66046 0.0
C4387 C 0.04609 0.32405 0.6567 0.0
C4388 C 0.04178 0.33344 0.65978 0.0
C4389 C 0.02885 0.32919 0.66638 0.0
C4390 C 0.05945 0.32832 0.64874 0.0
C4391 C 0.06238 0.33485 0.63292 0.0
C4392 C 0.0687 0.32484 0.65583 0.0
C4393 C 0.06662 0.3187 0.67297 0.0
C4394 C 0.06435 0.32487 0.68709 0.0
C4395 C 0.06231 0.31899 0.70318 0.0
C4396 C 0.06259 0.30699 0.70533 0.0
C4397 C 0.06495 0.30085 0.6914 0.0
C4398 C 0.06698 0.30667 0.67528 0.0
C4399 C 0.1162 0.35032 0.60617 0.0
C4400 C 0.11783 0.33918 0.60229 0.0
C4401 C 0.105 0.34858 0.61552 0.0
C4402 C 0.09522 0.33567 0.62117 0.0
C4403 C 0.09698 0.3246 0.61763 0.0
C4404 C 0.10813 0.32632 0.60825 0.0
C4405 C 0.08299 0.33357 0.63053 0.0
C4406 C 0.08029 0.32743 0.64658 0.0
C4407 C 0.07395 0.33741 0.62366 0.0
C4408 C 0.0759 0.3434 0.60647 0.0
C4409 C 0.07681 0.33652 0.59215 0.0
C4410 C 0.07874 0.34228 0.576 0.0
C4411 C 0.07965 0.35487 0.574 0.0
C4412 C 0.0786 0.3617 0.58813 0.0
C4413 C 0.07669 0.356 0.60431 0.0
H4414 H 0.08114 0.35931 0.56149 0.0
H4415 H 0.06101 0.30246 0.7178 0.0
H4416 H 0.28807 0.29662 0.64802 0.0
H4417 H 0.27352 0.30438 0.63567 0.0
H4418 H 0.29484 0.34173 0.66359 0.0
H4419 H 0.30982 0.33419 0.67573 0.0
H4420 H 0.26183 0.32364 0.66265 0.0
H4421 H 0.30322 0.34838 0.62969 0.0
H4422 H 0.32225 0.35 0.61296 0.0
H4423 H 0.29441 0.3209 0.57742 0.0
H4424 H 0.2752 0.31895 0.59411 0.0
H4425 H 0.22723 0.35178 0.61908 0.0
H4426 H 0.24455 0.34913 0.63373 0.0
H4427 H 0.24397 0.32317 0.59346 0.0
H4428 H 0.22756 0.3267 0.57806 0.0
H4429 H 0.26826 0.33794 0.60228 0.0
H4430 H 0.22731 0.31135 0.63381 0.0
H4431 H 0.20704 0.30692 0.6501 0.0
H4432 H 0.23201 0.33597 0.68766 0.0
H4433 H 0.25244 0.3407 0.67147 0.0
C4434 C 0.28965 0.30646 0.65165 0.0
C4435 C 0.3001 0.3148 0.66287 0.0
C4436 C 0.28133 0.31087 0.64454 0.0
C4437 C 0.28314 0.32361 0.64871 0.0
C4438 C 0.29332 0.33186 0.66024 0.0
C4439 C 0.30186 0.32755 0.66712 0.0
C4440 C 0.27449 0.32824 0.64058 0.0
C4441 C 0.26335 0.32707 0.64957 0.0
C4442 C 0.27626 0.3322 0.62336 0.0
C4443 C 0.28779 0.33342 0.61325 0.0
C4444 C 0.30116 0.34223 0.61841 0.0
C4445 C 0.31198 0.34323 0.60891 0.0
C4446 C 0.30954 0.33553 0.59416 0.0
C4447 C 0.29628 0.32684 0.58886 0.0
C4448 C 0.28543 0.3258 0.59832 0.0
C4449 C 0.23093 0.3457 0.61314 0.0
C4450 C 0.22582 0.33938 0.59736 0.0
C4451 C 0.24073 0.34402 0.62171 0.0
C4452 C 0.24542 0.33571 0.61493 0.0
C4453 C 0.24051 0.32958 0.59907 0.0
C4454 C 0.23092 0.33146 0.59035 0.0
C4455 C 0.25538 0.3333 0.62427 0.0
C4456 C 0.26676 0.33477 0.61546 0.0
C4457 C 0.25364 0.32932 0.64158 0.0
C4458 C 0.24139 0.32649 0.65133 0.0
C4459 C 0.22847 0.31687 0.64548 0.0
C4460 C 0.21696 0.31429 0.6547 0.0
C4461 C 0.21823 0.32119 0.66988 0.0
C4462 C 0.23104 0.33065 0.67588 0.0
C4463 C 0.24259 0.33328 0.6667 0.0
H4464 H 0.2093 0.31918 0.677 0.0
H4465 H 0.31793 0.33632 0.58682 0.0
H4466 H 0.67116 0.98173 0.65686 0.0
H4467 H 0.6648 0.96008 0.64323 0.0
H4468 H 0.70102 0.96195 0.66271 0.0
H4469 H 0.70769 0.98387 0.67558 0.0
H4470 H 0.69905 0.95551 0.63176 0.0
H4471 H 0.66737 0.93901 0.67777 0.0
H4472 H 0.64924 0.93748 0.69635 0.0
H4473 H 0.62244 0.92629 0.65363 0.0
H4474 H 0.64047 0.92793 0.63475 0.0
H4475 H 0.68118 0.88735 0.61467 0.0
H4476 H 0.68502 0.90757 0.62998 0.0
H4477 H 0.65644 0.91089 0.59761 0.0
H4478 H 0.65298 0.89105 0.58158 0.0
H4479 H 0.65386 0.91424 0.63453 0.0
H4480 H 0.68658 0.93089 0.58897 0.0
H4481 H 0.70492 0.93163 0.5716 0.0
H4482 H 0.73014 0.94171 0.61578 0.0
H4483 H 0.71185 0.94082 0.63347 0.0
C4484 C 0.67765 0.9774 0.65843 0.0
C4485 C 0.68993 0.98449 0.66727 0.0
C4486 C 0.67398 0.96499 0.65068 0.0
C4487 C 0.68236 0.95925 0.652 0.0
C4488 C 0.69439 0.96614 0.66138 0.0
C4489 C 0.69818 0.97866 0.66881 0.0
C4490 C 0.67911 0.94654 0.64279 0.0
C4491 C 0.68921 0.94645 0.63264 0.0
C4492 C 0.66618 0.93473 0.6435 0.0
C4493 C 0.65531 0.93373 0.65482 0.0
C4494 C 0.65764 0.93633 0.67231 0.0
C4495 C 0.64738 0.93542 0.6829 0.0
C4496 C 0.63471 0.93183 0.67616 0.0
C4497 C 0.63227 0.9291 0.65883 0.0
C4498 C 0.6425 0.93 0.64818 0.0
C4499 C 0.67581 0.89243 0.61059 0.0
C4500 C 0.66684 0.88754 0.59672 0.0
C4501 C 0.67794 0.90393 0.6195 0.0
C4502 C 0.67103 0.91071 0.6149 0.0
C4503 C 0.66181 0.90573 0.60141 0.0
C4504 C 0.65982 0.89433 0.59231 0.0
C4505 C 0.67384 0.9233 0.62384 0.0
C4506 C 0.66367 0.92334 0.63381 0.0
C4507 C 0.68675 0.93502 0.6232 0.0
C4508 C 0.69779 0.93565 0.61257 0.0
C4509 C 0.69599 0.93314 0.59501 0.0
C4510 C 0.70639 0.93361 0.5851 0.0
C4511 C 0.71868 0.93668 0.59259 0.0
C4512 C 0.72061 0.93932 0.61 0.0
C4513 C 0.71023 0.93884 0.61997 0.0
H4514 H 0.72672 0.93704 0.5849 0.0
H4515 H 0.62678 0.93113 0.68438 0.0
H4516 H 0.02248 0.68994 0.65779 0.0
H4517 H 0.04409 0.70541 0.64427 0.0
H4518 H 0.04217 0.73943 0.66508 0.0
H4519 H 0.02027 0.72401 0.67782 0.0
H4520 H 0.04855 0.74441 0.63427 0.0
H4521 H 0.06522 0.72848 0.67914 0.0
H4522 H 0.06689 0.71164 0.69699 0.0
H4523 H 0.07798 0.69672 0.65334 0.0
H4524 H 0.07621 0.71336 0.63518 0.0
H4525 H 0.1168 0.79477 0.61772 0.0
H4526 H 0.09676 0.77814 0.63302 0.0
H4527 H 0.09262 0.74701 0.59844 0.0
H4528 H 0.11223 0.76368 0.5824 0.0
H4529 H 0.08984 0.7404 0.63569 0.0
H4530 H 0.07284 0.75718 0.59132 0.0
H4531 H 0.07208 0.77513 0.57483 0.0
H4532 H 0.06252 0.78969 0.6201 0.0
H4533 H 0.06343 0.77194 0.63691 0.0
C4534 C 0.02679 0.70071 0.65968 0.0
C4535 C 0.01969 0.70577 0.66884 0.0
C4536 C 0.03919 0.70958 0.65199 0.0
C4537 C 0.04489 0.72366 0.65371 0.0
C4538 C 0.03799 0.72865 0.66343 0.0
C4539 C 0.02549 0.71982 0.67079 0.0
C4540 C 0.05757 0.73324 0.64457 0.0
C4541 C 0.05761 0.7436 0.63487 0.0
C4542 C 0.06938 0.7321 0.6449 0.0
C4543 C 0.07045 0.72208 0.65578 0.0
C4544 C 0.06791 0.72154 0.67333 0.0
C4545 C 0.06889 0.71204 0.6835 0.0
C4546 C 0.0725 0.70309 0.6763 0.0
C4547 C 0.07517 0.70365 0.6589 0.0
C4548 C 0.07419 0.71312 0.64866 0.0
C4549 C 0.11158 0.78445 0.61316 0.0
C4550 C 0.11617 0.78067 0.59865 0.0
C4551 C 0.1002 0.77492 0.62207 0.0
C4552 C 0.09323 0.76137 0.61685 0.0
C4553 C 0.09793 0.75742 0.60273 0.0
C4554 C 0.1092 0.76699 0.59362 0.0
C4555 C 0.08071 0.75149 0.62574 0.0
C4556 C 0.08072 0.74112 0.63526 0.0
C4557 C 0.069 0.75272 0.62551 0.0
C4558 C 0.06834 0.76332 0.61539 0.0
C4559 C 0.0707 0.76429 0.59778 0.0
C4560 C 0.07021 0.77441 0.58837 0.0
C4561 C 0.06729 0.78357 0.59642 0.0
C4562 C 0.0648 0.7826 0.61388 0.0
C4563 C 0.06529 0.77251 0.62336 0.0
H4564 H 0.06692 0.7914 0.58911 0.0
H4565 H 0.07326 0.69575 0.6842 0.0
H4566 H 0.95946 0.61341 0.70551 0.0
H4567 H 0.96577 0.59815 0.71901 0.0
H4568 H 0.00793 0.62776 0.71289 0.0
H4569 H 1.00169 0.64323 0.69934 0.0
H4570 H 1.00138 0.60051 0.70551 0.0
H4571 H 0.99497 0.62566 0.74989 0.0
H4572 H 0.98272 0.63502 0.76544 0.0
H4573 H 0.94991 0.59491 0.77489 0.0
H4574 H 0.96188 0.5853 0.75917 0.0
H4575 H 0.02353 0.56782 0.76384 0.0
H4576 H 0.01994 0.58444 0.74873 0.0
H4577 H 0.97727 0.5612 0.75967 0.0
H4578 H 0.98087 0.54496 0.77557 0.0
H4579 H 0.98567 0.58669 0.76474 0.0
H4580 H 0.99098 0.56131 0.71965 0.0
H4581 H 1.00244 0.5514 0.70346 0.0
H4582 H 0.03634 0.59102 0.69471 0.0
H4583 H 0.02516 0.60115 0.71105 0.0
C4584 C 0.97009 0.61667 0.70684 0.0
C4585 C 0.98007 0.62959 0.70143 0.0
C4586 C 0.97367 0.60793 0.71462 0.0
C4587 C 0.98731 0.61189 0.71714 0.0
C4588 C 0.99735 0.62453 0.7111 0.0
C4589 C 0.99376 0.63336 0.70339 0.0
C4590 C 0.99094 0.60298 0.72676 0.0
C4591 C 0.99815 0.59763 0.71855 0.0
C4592 C 0.98646 0.59903 0.74365 0.0
C4593 C 0.97928 0.60477 0.75323 0.0
C4594 C 0.9851 0.61884 0.75517 0.0
C4595 C 0.97821 0.62419 0.76403 0.0
C4596 C 0.96553 0.61557 0.77111 0.0
C4597 C 0.95973 0.60157 0.76939 0.0
C4598 C 0.96656 0.59617 0.76052 0.0
C4599 C 0.01339 0.5663 0.7632 0.0
C4600 C 1.00249 0.55498 0.77092 0.0
C4601 C 0.01133 0.57574 0.75434 0.0
C4602 C 0.9983 0.574 0.75282 0.0
C4603 C 0.98742 0.56276 0.76059 0.0
C4604 C 0.98948 0.55338 0.76954 0.0
C4605 C 0.99595 0.58397 0.74344 0.0
C4606 C 0.98898 0.58957 0.75173 0.0
C4607 C 1.00057 0.58804 0.72659 0.0
C4608 C 0.0073 0.58198 0.71673 0.0
C4609 C 1.00093 0.5679 0.71439 0.0
C4610 C 0.00736 0.56224 0.70516 0.0
C4611 C 0.02013 0.57057 0.6981 0.0
C4612 C 0.02647 0.58458 0.70021 0.0
C4613 C 0.02008 0.59028 0.70944 0.0
H4614 H 0.02509 0.56617 0.69096 0.0
H4615 H 0.96021 0.61973 0.77797 0.0
H4616 H 0.39176 0.3466 0.70997 0.0
H4617 H 0.40671 0.36818 0.72365 0.0
H4618 H 0.37889 0.38216 0.71178 0.0
H4619 H 0.36377 0.36046 0.69795 0.0
H4620 H 0.40606 0.40192 0.70651 0.0
H4621 H 0.37882 0.3716 0.75061 0.0
H4622 H 0.36842 0.35038 0.76701 0.0
H4623 H 0.40776 0.35712 0.78032 0.0
H4624 H 0.41841 0.3783 0.76379 0.0
H4625 H 0.43703 0.45782 0.76368 0.0
H4626 H 0.42074 0.43734 0.74872 0.0
H4627 H 0.44333 0.41786 0.76294 0.0
H4628 H 0.45929 0.43804 0.77859 0.0
H4629 H 0.41742 0.40106 0.76712 0.0
H4630 H 0.44478 0.43062 0.72222 0.0
H4631 H 0.45551 0.45165 0.70542 0.0
H4632 H 0.41649 0.44629 0.69331 0.0
H4633 H 0.40552 0.42531 0.71024 0.0
C4634 C 0.38883 0.35427 0.71011 0.0
C4635 C 0.37651 0.35176 0.70294 0.0
C4636 C 0.39739 0.36661 0.71801 0.0
C4637 C 0.39383 0.37671 0.71895 0.0
C4638 C 0.3818 0.37447 0.71124 0.0
C4639 C 0.37317 0.36207 0.70337 0.0
C4640 C 0.40254 0.38939 0.72848 0.0
C4641 C 0.40839 0.40178 0.71983 0.0
C4642 C 0.40578 0.38917 0.74577 0.0
C4643 C 0.39941 0.37648 0.75583 0.0
C4644 C 0.38526 0.36851 0.75693 0.0
C4645 C 0.37932 0.3565 0.76626 0.0
C4646 C 0.38743 0.35239 0.77467 0.0
C4647 C 0.4015 0.36031 0.77379 0.0
C4648 C 0.40749 0.37233 0.76445 0.0
C4649 C 0.43847 0.44913 0.76379 0.0
C4650 C 0.44953 0.44963 0.77234 0.0
C4651 C 0.42922 0.43747 0.75504 0.0
C4652 C 0.43089 0.42609 0.75447 0.0
C4653 C 0.44184 0.42651 0.76311 0.0
C4654 C 0.45105 0.43813 0.77193 0.0
C4655 C 0.42116 0.41364 0.74512 0.0
C4656 C 0.41507 0.40126 0.75382 0.0
C4657 C 0.41777 0.41389 0.72786 0.0
C4658 C 0.42434 0.42648 0.71765 0.0
C4659 C 0.43849 0.43398 0.71608 0.0
C4660 C 0.44462 0.44588 0.70652 0.0
C4661 C 0.43669 0.45032 0.69834 0.0
C4662 C 0.42261 0.44285 0.69968 0.0
C4663 C 0.41644 0.43095 0.70925 0.0
H4664 H 0.44145 0.45954 0.69094 0.0
H4665 H 0.38281 0.34308 0.78189 0.0
H4666 H 0.64762 1.0018 0.70419 0.0
H4667 H 0.6257 0.99542 0.71706 0.0
H4668 H 0.63156 0.03496 0.7056 0.0
H4669 H 0.65361 0.0415 0.69328 0.0
H4670 H 0.62393 0.02943 0.73647 0.0
H4671 H 0.60791 0.00526 0.6842 0.0
H4672 H 0.60579 0.98947 0.66143 0.0
H4673 H 0.58997 0.95672 0.69717 0.0
H4674 H 0.59215 0.97235 0.72021 0.0
H4675 H 0.54567 0.99494 0.74428 0.0
H4676 H 0.56564 0.99905 0.72792 0.0
H4677 H 0.58741 0.00384 0.77451 0.0
H4678 H 0.56758 0.99995 0.79088 0.0
H4679 H 0.58063 0.98747 0.72475 0.0
H4680 H 0.61991 0.028 0.77009 0.0
H4681 H 0.6214 0.04503 0.79064 0.0
H4682 H 0.58976 0.04746 0.76438 0.0
H4683 H 0.58822 0.03059 0.74354 0.0
C4684 C 0.64413 0.00905 0.70419 0.0
C4685 C 0.65237 0.02217 0.69776 0.0
C4686 C 0.63157 0.00539 0.71152 0.0
C4687 C 0.6269 0.01469 0.71229 0.0
C4688 C 0.63494 0.02762 0.70529 0.0
C4689 C 0.64753 0.03133 0.69817 0.0
C4690 C 0.61409 0.01132 0.72127 0.0
C4691 C 0.61447 0.02025 0.73385 0.0
C4692 C 0.60166 0.99944 0.71778 0.0
C4693 C 0.60031 0.99001 0.70396 0.0
C4694 C 0.60407 0.99471 0.68723 0.0
C4695 C 0.60284 0.98579 0.67427 0.0
C4696 C 0.59778 0.97211 0.67786 0.0
C4697 C 0.5939 0.96732 0.69441 0.0
C4698 C 0.59512 0.97621 0.70743 0.0
C4699 C 0.55468 0.99673 0.75103 0.0
C4700 C 0.5551 0.99726 0.76888 0.0
C4701 C 0.56609 0.99908 0.74166 0.0
C4702 C 0.57812 0.00197 0.74995 0.0
C4703 C 0.57836 0.00193 0.76779 0.0
C4704 C 0.56701 0.99971 0.77715 0.0
C4705 C 0.59056 0.00553 0.73999 0.0
C4706 C 0.5901 0.99664 0.72731 0.0
C4707 C 0.60288 0.01763 0.74305 0.0
C4708 C 0.60387 0.02793 0.75537 0.0
C4709 C 0.61332 0.03221 0.76866 0.0
C4710 C 0.61416 0.04183 0.78037 0.0
C4711 C 0.60565 0.04729 0.77884 0.0
C4712 C 0.59632 0.04319 0.76558 0.0
C4713 C 0.59544 0.03359 0.75383 0.0
H4714 H 0.60631 0.05472 0.78793 0.0
H4715 H 0.59684 0.96521 0.66781 0.0
loop_
_geom_bond_atom_site_label_1
_geom_bond_atom_site_label_2
_geom_bond_distance
_geom_bond_site_symmetry_2
_ccdc_geom_bond_type
O0 Cd1 2.223 . S
O0 C8 1.315 . S
Cd1 O0 2.223 . S
Cd1 O4 2.297 . S
Cd1 O5 2.439 . S
Cd1 O11 2.240 1_554 S
Cd2 O3 2.240 . S
Cd2 O10 2.192 1_554 S
Cd2 O12 2.297 1_554 S
Cd2 O13 2.439 . S
O3 Cd2 2.240 . S
O3 C8 1.279 1_655 S
O4 Cd1 2.297 . S
O4 C6 1.247 . S
O5 Cd1 2.439 . S
O5 C6 1.208 . S
C6 O4 1.247 . S
C6 O5 1.208 . S
C7 O12 1.247 . S
C7 O13 1.208 1_556 S
C8 O0 1.315 . S
C8 O3 1.279 1_455 S
C9 O10 1.337 . S
C9 O11 1.279 1_655 S
O10 Cd2 2.192 1_556 S
O10 C9 1.337 . S
O11 Cd1 2.240 1_556 S
O11 C9 1.279 1_455 S
O12 Cd2 2.297 1_556 S
O12 C7 1.247 . S
O13 Cd2 2.439 . S
O13 C7 1.208 1_554 S
O14 Cd15 2.223 . S
O14 C22 1.315 . S
Cd15 O14 2.223 . S
Cd15 O18 2.297 . S
Cd15 O19 2.439 . S
Cd15 O25 2.240 1_554 S
Cd16 O17 2.240 . S
Cd16 O24 2.223 1_554 S
Cd16 O26 2.297 1_554 S
Cd16 O27 2.439 . S
O17 Cd16 2.240 . S
O17 C22 1.279 . S
O18 Cd15 2.297 . S
O18 C20 1.247 . S
O19 Cd15 2.439 . S
O19 C20 1.208 . S
C20 O18 1.247 . S
C20 O19 1.208 . S
C21 O26 1.247 . S
C21 O27 1.208 1_556 S
C22 O14 1.315 . S
C22 O17 1.279 . S
C23 O24 1.315 . S
C23 O25 1.279 . S
O24 Cd16 2.223 1_556 S
O24 C23 1.315 . S
O25 Cd15 2.240 1_556 S
O25 C23 1.279 . S
O26 Cd16 2.297 1_556 S
O26 C21 1.247 . S
O27 Cd16 2.439 . S
O27 C21 1.208 1_554 S
O28 Cd29 2.185 1_556 S
O28 C36 1.343 . S
Cd29 O28 2.185 1_554 S
Cd29 O32 2.297 1_554 S
Cd29 O33 2.439 . S
Cd29 O39 2.240 . S
Cd30 O31 2.240 1_554 S
Cd30 O38 2.223 . S
Cd30 O40 2.297 . S
Cd30 O41 2.439 . S
O31 Cd30 2.240 1_556 S
O31 C36 1.279 1_565 S
O32 Cd29 2.297 1_556 S
O32 C34 1.247 . S
O33 Cd29 2.439 . S
O33 C34 1.208 1_554 S
C34 O32 1.247 . S
C34 O33 1.208 1_556 S
C35 O40 1.247 . S
C35 O41 1.208 . S
C36 O28 1.343 . S
C36 O31 1.279 1_545 S
C37 O38 1.315 . S
C37 O39 1.279 1_565 S
O38 Cd30 2.223 . S
O38 C37 1.315 . S
O39 Cd29 2.240 . S
O39 C37 1.279 1_545 S
O40 Cd30 2.297 . S
O40 C35 1.247 . S
O41 Cd30 2.439 . S
O41 C35 1.208 . S
O42 Cd43 2.223 1_556 S
O42 C50 1.315 . S
Cd43 O42 2.223 1_554 S
Cd43 O46 2.297 1_554 S
Cd43 O47 2.439 . S
Cd43 O53 2.240 . S
Cd44 O45 2.240 1_554 S
Cd44 O52 2.223 . S
Cd44 O54 2.297 . S
Cd44 O55 2.439 . S
O45 Cd44 2.240 1_556 S
O45 C50 1.279 1_455 S
O46 Cd43 2.297 1_556 S
O46 C48 1.247 . S
O47 Cd43 2.439 . S
O47 C48 1.208 1_554 S
C48 O46 1.247 . S
C48 O47 1.208 1_556 S
C49 O54 1.247 . S
C49 O55 1.208 . S
C50 O42 1.315 . S
C50 O45 1.279 1_655 S
C51 O52 1.315 . S
C51 O53 1.279 1_455 S
O52 Cd44 2.223 . S
O52 C51 1.315 . S
O53 Cd43 2.240 . S
O53 C51 1.279 1_655 S
O54 Cd44 2.297 . S
O54 C49 1.247 . S
O55 Cd44 2.439 . S
O55 C49 1.208 . S
O56 Cd57 2.223 1_556 S
O56 C64 1.315 . S
Cd57 O56 2.223 1_554 S
Cd57 O60 2.297 1_554 S
Cd57 O61 2.439 . S
Cd57 O67 2.240 . S
Cd58 O59 2.240 1_554 S
Cd58 O66 2.223 . S
Cd58 O68 2.297 . S
Cd58 O69 2.439 . S
O59 Cd58 2.240 1_556 S
O59 C64 1.279 . S
O60 Cd57 2.297 1_556 S
O60 C62 1.247 . S
O61 Cd57 2.439 . S
O61 C62 1.208 1_554 S
C62 O60 1.247 . S
C62 O61 1.208 1_556 S
C63 O68 1.247 . S
C63 O69 1.208 . S
C64 O56 1.315 . S
C64 O59 1.279 . S
C65 O66 1.315 . S
C65 O67 1.279 . S
O66 Cd58 2.223 . S
O66 C65 1.315 . S
O67 Cd57 2.240 . S
O67 C65 1.279 . S
O68 Cd58 2.297 . S
O68 C63 1.247 . S
O69 Cd58 2.439 . S
O69 C63 1.208 . S
O70 Cd71 2.223 . S
O70 C78 1.315 . S
Cd71 O70 2.223 . S
Cd71 O74 2.297 . S
Cd71 O75 2.439 . S
Cd71 O81 2.240 1_554 S
Cd72 O73 2.240 . S
Cd72 O80 2.204 1_554 S
Cd72 O82 2.297 1_554 S
Cd72 O83 2.439 . S
O73 Cd72 2.240 . S
O73 C78 1.279 1_545 S
O74 Cd71 2.297 . S
O74 C76 1.247 . S
O75 Cd71 2.439 . S
O75 C76 1.208 . S
C76 O74 1.247 . S
C76 O75 1.208 . S
C77 O82 1.247 . S
C77 O83 1.208 1_556 S
C78 O70 1.315 . S
C78 O73 1.279 1_565 S
C79 O80 1.328 . S
C79 O81 1.279 1_545 S
O80 Cd72 2.204 1_556 S
O80 C79 1.328 . S
O81 Cd71 2.240 1_556 S
O81 C79 1.279 1_565 S
O82 Cd72 2.297 1_556 S
O82 C77 1.247 . S
O83 Cd72 2.439 . S
O83 C77 1.208 1_554 S
O84 Cd85 2.223 . S
O84 C92 1.315 . S
Cd85 O84 2.223 . S
Cd85 O88 2.297 . S
Cd85 O89 2.439 . S
Cd85 O95 2.240 . S
Cd86 O87 2.240 . S
Cd86 O94 2.223 . S
Cd86 O96 2.297 . S
Cd86 O97 2.439 . S
O87 Cd86 2.240 . S
O87 C92 1.279 . S
O88 Cd85 2.297 . S
O88 C90 1.247 . S
O89 Cd85 2.439 . S
O89 C90 1.208 . S
C90 O88 1.247 . S
C90 O89 1.208 . S
C91 O96 1.247 . S
C91 O97 1.208 . S
C92 O84 1.315 . S
C92 O87 1.279 . S
C93 O94 1.315 . S
C93 O95 1.279 . S
O94 Cd86 2.223 . S
O94 C93 1.315 . S
O95 Cd85 2.240 . S
O95 C93 1.279 . S
O96 Cd86 2.297 . S
O96 C91 1.247 . S
O97 Cd86 2.439 . S
O97 C91 1.208 . S
O98 Cd99 2.223 . S
O98 C106 1.315 . S
Cd99 O98 2.223 . S
Cd99 O102 2.297 1_565 S
Cd99 O103 2.439 1_565 S
Cd99 O109 2.240 . S
Cd100 O101 2.240 . S
Cd100 O108 2.223 . S
Cd100 O110 2.297 . S
Cd100 O111 2.439 . S
O101 Cd100 2.240 . S
O101 C106 1.279 . S
O102 Cd99 2.297 1_545 S
O102 C104 1.247 . S
O103 Cd99 2.439 1_545 S
O103 C104 1.208 . S
C104 O102 1.247 . S
C104 O103 1.208 . S
C105 O110 1.247 . S
C105 O111 1.208 . S
C106 O98 1.315 . S
C106 O101 1.279 . S
C107 O108 1.315 . S
C107 O109 1.279 . S
O108 Cd100 2.223 . S
O108 C107 1.315 . S
O109 Cd99 2.240 . S
O109 C107 1.279 . S
O110 Cd100 2.297 . S
O110 C105 1.247 . S
O111 Cd100 2.439 . S
O111 C105 1.208 . S
O112 Cd113 2.223 . S
O112 C120 1.315 . S
Cd113 O112 2.223 . S
Cd113 O116 2.297 . S
Cd113 O117 2.439 . S
Cd113 O123 2.240 . S
Cd114 O115 2.240 . S
Cd114 O122 2.223 . S
Cd114 O124 2.297 1_455 S
Cd114 O125 2.439 1_455 S
O115 Cd114 2.240 . S
O115 C120 1.279 . S
O116 Cd113 2.297 . S
O116 C118 1.247 . S
O117 Cd113 2.439 . S
O117 C118 1.208 . S
C118 O116 1.247 . S
C118 O117 1.208 . S
C119 O124 1.247 . S
C119 O125 1.208 . S
C120 O112 1.315 . S
C120 O115 1.279 . S
C121 O122 1.315 . S
C121 O123 1.279 . S
O122 Cd114 2.223 . S
O122 C121 1.315 . S
O123 Cd113 2.240 . S
O123 C121 1.279 . S
O124 Cd114 2.297 1_655 S
O124 C119 1.247 . S
O125 Cd114 2.439 1_655 S
O125 C119 1.208 . S
O126 Cd127 2.223 . S
O126 C134 1.315 . S
Cd127 O126 2.223 . S
Cd127 O130 2.297 . S
Cd127 O131 2.439 . S
Cd127 O137 2.240 . S
Cd128 O129 2.240 . S
Cd128 O136 2.223 . S
Cd128 O138 2.297 1_565 S
Cd128 O139 2.439 1_565 S
O129 Cd128 2.240 . S
O129 C134 1.279 . S
O130 Cd127 2.297 . S
O130 C132 1.247 . S
O131 Cd127 2.439 . S
O131 C132 1.208 . S
C132 O130 1.247 . S
C132 O131 1.208 . S
C133 O138 1.247 . S
C133 O139 1.208 . S
C134 O126 1.315 . S
C134 O129 1.279 . S
C135 O136 1.315 . S
C135 O137 1.279 . S
O136 Cd128 2.223 . S
O136 C135 1.315 . S
O137 Cd127 2.240 . S
O137 C135 1.279 . S
O138 Cd128 2.297 1_545 S
O138 C133 1.247 . S
O139 Cd128 2.439 1_545 S
O139 C133 1.208 . S
O140 Cd141 2.223 . S
O140 C148 1.315 . S
Cd141 O140 2.223 . S
Cd141 O144 2.297 . S
Cd141 O145 2.439 . S
Cd141 O151 2.240 . S
Cd142 O143 2.240 . S
Cd142 O150 2.223 . S
Cd142 O152 2.297 1_455 S
Cd142 O153 2.439 1_455 S
O143 Cd142 2.240 . S
O143 C148 1.279 . S
O144 Cd141 2.297 . S
O144 C146 1.247 . S
O145 Cd141 2.439 . S
O145 C146 1.208 . S
C146 O144 1.247 . S
C146 O145 1.208 . S
C147 O152 1.247 . S
C147 O153 1.208 . S
C148 O140 1.315 . S
C148 O143 1.279 . S
C149 O150 1.315 . S
C149 O151 1.279 . S
O150 Cd142 2.223 . S
O150 C149 1.315 . S
O151 Cd141 2.240 . S
O151 C149 1.279 . S
O152 Cd142 2.297 1_655 S
O152 C147 1.247 . S
O153 Cd142 2.439 1_655 S
O153 C147 1.208 . S
O154 Cd155 2.223 . S
O154 C162 1.315 . S
Cd155 O154 2.223 . S
Cd155 O158 2.297 . S
Cd155 O159 2.439 . S
Cd155 O165 2.240 . S
Cd156 O157 2.240 . S
Cd156 O164 2.223 . S
Cd156 O166 2.297 . S
Cd156 O167 2.439 . S
O157 Cd156 2.240 . S
O157 C162 1.279 . S
O158 Cd155 2.297 . S
O158 C160 1.247 . S
O159 Cd155 2.439 . S
O159 C160 1.208 . S
C160 O158 1.247 . S
C160 O159 1.208 . S
C161 O166 1.247 . S
C161 O167 1.208 . S
C162 O154 1.315 . S
C162 O157 1.279 . S
C163 O164 1.315 . S
C163 O165 1.279 . S
O164 Cd156 2.223 . S
O164 C163 1.315 . S
O165 Cd155 2.240 . S
O165 C163 1.279 . S
O166 Cd156 2.297 . S
O166 C161 1.247 . S
O167 Cd156 2.439 . S
O167 C161 1.208 . S
O168 Cd169 2.223 . S
O168 C176 1.315 . S
Cd169 O168 2.223 . S
Cd169 O172 2.297 . S
Cd169 O173 2.439 . S
Cd169 O179 2.240 . S
Cd170 O171 2.240 . S
Cd170 O178 2.223 . S
Cd170 O180 2.297 1_545 S
Cd170 O181 2.439 1_545 S
O171 Cd170 2.240 . S
O171 C176 1.279 . S
O172 Cd169 2.297 . S
O172 C174 1.247 . S
O173 Cd169 2.439 . S
O173 C174 1.208 . S
C174 O172 1.247 . S
C174 O173 1.208 . S
C175 O180 1.247 . S
C175 O181 1.208 . S
C176 O168 1.315 . S
C176 O171 1.279 . S
C177 O178 1.315 . S
C177 O179 1.279 . S
O178 Cd170 2.223 . S
O178 C177 1.315 . S
O179 Cd169 2.240 . S
O179 C177 1.279 . S
O180 Cd170 2.297 1_565 S
O180 C175 1.247 . S
O181 Cd170 2.439 1_565 S
O181 C175 1.208 . S
O182 Cd183 2.223 . S
O182 C190 1.315 . S
Cd183 O182 2.223 . S
Cd183 O186 2.297 . S
Cd183 O187 2.439 . S
Cd183 O193 2.240 . S
Cd184 O185 2.240 . S
Cd184 O192 2.223 . S
Cd184 O194 2.297 1_655 S
Cd184 O195 2.439 1_655 S
O185 Cd184 2.240 . S
O185 C190 1.279 . S
O186 Cd183 2.297 . S
O186 C188 1.247 . S
O187 Cd183 2.439 . S
O187 C188 1.208 . S
C188 O186 1.247 . S
C188 O187 1.208 . S
C189 O194 1.247 . S
C189 O195 1.208 . S
C190 O182 1.315 . S
C190 O185 1.279 . S
C191 O192 1.315 . S
C191 O193 1.279 . S
O192 Cd184 2.223 . S
O192 C191 1.315 . S
O193 Cd183 2.240 . S
O193 C191 1.279 . S
O194 Cd184 2.297 1_455 S
O194 C189 1.247 . S
O195 Cd184 2.439 1_455 S
O195 C189 1.208 . S
O196 Cd197 2.223 . S
O196 C204 1.315 . S
Cd197 O196 2.223 . S
Cd197 O200 2.297 . S
Cd197 O201 2.439 . S
Cd197 O207 2.240 . S
Cd198 O199 2.240 . S
Cd198 O206 2.223 . S
Cd198 O208 2.297 . S
Cd198 O209 2.439 . S
O199 Cd198 2.240 . S
O199 C204 1.279 . S
O200 Cd197 2.297 . S
O200 C202 1.247 . S
O201 Cd197 2.439 . S
O201 C202 1.208 . S
C202 O200 1.247 . S
C202 O201 1.208 . S
C203 O208 1.247 . S
C203 O209 1.208 . S
C204 O196 1.315 . S
C204 O199 1.279 . S
C205 O206 1.315 . S
C205 O207 1.279 . S
O206 Cd198 2.223 . S
O206 C205 1.315 . S
O207 Cd197 2.240 . S
O207 C205 1.279 . S
O208 Cd198 2.297 . S
O208 C203 1.247 . S
O209 Cd198 2.439 . S
O209 C203 1.208 . S
O210 Cd211 2.223 . S
O210 C218 1.315 . S
Cd211 O210 2.223 . S
Cd211 O214 2.297 . S
Cd211 O215 2.439 . S
Cd211 O221 2.240 . S
Cd212 O213 2.240 . S
Cd212 O220 2.223 . S
Cd212 O222 2.297 . S
Cd212 O223 2.439 . S
O213 Cd212 2.240 . S
O213 C218 1.279 . S
O214 Cd211 2.297 . S
O214 C216 1.247 . S
O215 Cd211 2.439 . S
O215 C216 1.208 . S
C216 O214 1.247 . S
C216 O215 1.208 . S
C217 O222 1.247 . S
C217 O223 1.208 . S
C218 O210 1.315 . S
C218 O213 1.279 . S
C219 O220 1.315 . S
C219 O221 1.279 . S
O220 Cd212 2.223 . S
O220 C219 1.315 . S
O221 Cd211 2.240 . S
O221 C219 1.279 . S
O222 Cd212 2.297 . S
O222 C217 1.247 . S
O223 Cd212 2.439 . S
O223 C217 1.208 . S
O224 Cd225 2.223 . S
O224 C232 1.315 . S
Cd225 O224 2.223 . S
Cd225 O228 2.297 1_545 S
Cd225 O229 2.439 1_545 S
Cd225 O235 2.240 . S
Cd226 O227 2.240 . S
Cd226 O234 2.223 . S
Cd226 O236 2.297 . S
Cd226 O237 2.439 . S
O227 Cd226 2.240 . S
O227 C232 1.279 . S
O228 Cd225 2.297 1_565 S
O228 C230 1.247 . S
O229 Cd225 2.439 1_565 S
O229 C230 1.208 . S
C230 O228 1.247 . S
C230 O229 1.208 . S
C231 O236 1.247 . S
C231 O237 1.208 . S
C232 O224 1.315 . S
C232 O227 1.279 . S
C233 O234 1.315 . S
C233 O235 1.279 . S
O234 Cd226 2.223 . S
O234 C233 1.315 . S
O235 Cd225 2.240 . S
O235 C233 1.279 . S
O236 Cd226 2.297 . S
O236 C231 1.247 . S
O237 Cd226 2.439 . S
O237 C231 1.208 . S
O238 Cd239 2.223 . S
O238 C246 1.315 . S
Cd239 O238 2.223 . S
Cd239 O242 2.297 . S
Cd239 O243 2.439 . S
Cd239 O249 2.240 . S
Cd240 O241 2.240 . S
Cd240 O248 2.223 . S
Cd240 O250 2.297 1_655 S
Cd240 O251 2.439 1_655 S
O241 Cd240 2.240 . S
O241 C246 1.279 . S
O242 Cd239 2.297 . S
O242 C244 1.247 . S
O243 Cd239 2.439 . S
O243 C244 1.208 . S
C244 O242 1.247 . S
C244 O243 1.208 . S
C245 O250 1.247 . S
C245 O251 1.208 . S
C246 O238 1.315 . S
C246 O241 1.279 . S
C247 O248 1.315 . S
C247 O249 1.279 . S
O248 Cd240 2.223 . S
O248 C247 1.315 . S
O249 Cd239 2.240 . S
O249 C247 1.279 . S
O250 Cd240 2.297 1_455 S
O250 C245 1.247 . S
O251 Cd240 2.439 1_455 S
O251 C245 1.208 . S
H252 C271 0.949 . S
H253 C272 0.950 . S
H254 C274 0.950 . S
H255 C275 0.950 . S
H256 C277 0.950 . S
H257 C280 0.950 . S
H258 C281 0.950 . S
H259 C283 0.951 . S
H260 C284 0.949 . S
H261 C286 0.949 . S
H262 C287 0.950 . S
H263 C289 0.950 . S
H264 C290 0.950 . S
H265 C292 0.950 . S
H266 C295 0.950 . S
H267 C296 0.950 . S
H268 C298 0.951 . S
H269 C299 0.949 . S
C270 C271 1.376 . S
C270 C275 1.386 . S
C270 C276 1.483 . S
C271 H252 0.949 . S
C271 C270 1.376 . S
C271 C272 1.397 . S
C272 H253 0.950 . S
C272 C271 1.397 . S
C272 C273 1.391 . S
C273 C272 1.391 . S
C273 C274 1.405 . S
C274 H254 0.950 . S
C274 C273 1.405 . S
C274 C275 1.367 . S
C275 H255 0.950 . S
C275 C270 1.386 . S
C275 C274 1.367 . S
C276 C270 1.483 . S
C276 C277 1.382 . S
C276 C278 1.403 . S
C277 H256 0.950 . S
C277 C276 1.382 . S
C277 C293 1.411 . S
C278 C276 1.403 . S
C278 C279 1.489 . S
C278 C292 1.411 . S
C279 C278 1.489 . S
C279 C280 1.383 . S
C279 C284 1.382 . S
C280 H257 0.950 . S
C280 C279 1.383 . S
C280 C281 1.395 . S
C281 H258 0.950 . S
C281 C280 1.395 . S
C281 C282 1.288 . S
C282 C281 1.288 . S
C282 C283 1.392 . S
C283 H259 0.951 . S
C283 C282 1.392 . S
C283 C284 1.392 . S
C284 H260 0.949 . S
C284 C279 1.382 . S
C284 C283 1.392 . S
C285 C286 1.376 . S
C285 C290 1.386 . S
C285 C291 1.483 . S
C286 H261 0.949 . S
C286 C285 1.376 . S
C286 C287 1.397 . S
C287 H262 0.950 . S
C287 C286 1.397 . S
C287 C288 1.391 . S
C288 C287 1.391 . S
C288 C289 1.405 . S
C289 H263 0.950 . S
C289 C288 1.405 . S
C289 C290 1.367 . S
C290 H264 0.950 . S
C290 C285 1.386 . S
C290 C289 1.367 . S
C291 C285 1.483 . S
C291 C292 1.382 . S
C291 C293 1.403 . S
C292 H265 0.950 . S
C292 C278 1.411 . S
C292 C291 1.382 . S
C293 C277 1.411 . S
C293 C291 1.403 . S
C293 C294 1.489 . S
C294 C293 1.489 . S
C294 C295 1.383 . S
C294 C299 1.382 . S
C295 H266 0.950 . S
C295 C294 1.383 . S
C295 C296 1.395 . S
C296 H267 0.950 . S
C296 C295 1.395 . S
C296 C297 1.288 . S
C297 C296 1.288 . S
C297 C298 1.392 . S
C298 H268 0.951 . S
C298 C297 1.392 . S
C298 C299 1.392 . S
C299 H269 0.949 . S
C299 C294 1.382 . S
C299 C298 1.392 . S
H300 C319 0.949 . S
H301 C320 0.950 . S
H302 C322 0.950 . S
H303 C323 0.950 . S
H304 C325 0.950 . S
H305 C328 0.950 . S
H306 C329 0.950 . S
H307 C331 0.951 . S
H308 C332 0.949 . S
H309 C334 0.949 . S
H310 C335 0.950 . S
H311 C337 0.950 . S
H312 C338 0.950 . S
H313 C340 0.950 . S
H314 C343 0.950 . S
H315 C344 0.950 . S
H316 C346 0.951 . S
H317 C347 0.949 . S
C318 C319 1.376 . S
C318 C323 1.386 . S
C318 C324 1.483 . S
C319 H300 0.949 . S
C319 C318 1.376 . S
C319 C320 1.397 . S
C320 H301 0.950 . S
C320 C319 1.397 . S
C320 C321 1.391 . S
C321 C320 1.391 . S
C321 C322 1.405 . S
C322 H302 0.950 . S
C322 C321 1.405 . S
C322 C323 1.367 . S
C323 H303 0.950 . S
C323 C318 1.386 . S
C323 C322 1.367 . S
C324 C318 1.483 . S
C324 C325 1.382 . S
C324 C326 1.403 . S
C325 H304 0.950 . S
C325 C324 1.382 . S
C325 C341 1.411 . S
C326 C324 1.403 . S
C326 C327 1.489 . S
C326 C340 1.411 . S
C327 C326 1.489 . S
C327 C328 1.383 . S
C327 C332 1.382 . S
C328 H305 0.950 . S
C328 C327 1.383 . S
C328 C329 1.395 . S
C329 H306 0.950 . S
C329 C328 1.395 . S
C329 C330 1.288 . S
C330 C329 1.288 . S
C330 C331 1.392 . S
C331 H307 0.951 . S
C331 C330 1.392 . S
C331 C332 1.392 . S
C332 H308 0.949 . S
C332 C327 1.382 . S
C332 C331 1.392 . S
C333 C334 1.376 . S
C333 C338 1.386 . S
C333 C339 1.483 . S
C334 H309 0.949 . S
C334 C333 1.376 . S
C334 C335 1.397 . S
C335 H310 0.950 . S
C335 C334 1.397 . S
C335 C336 1.391 . S
C336 C335 1.391 . S
C336 C337 1.405 . S
C337 H311 0.950 . S
C337 C336 1.405 . S
C337 C338 1.367 . S
C338 H312 0.950 . S
C338 C333 1.386 . S
C338 C337 1.367 . S
C339 C333 1.483 . S
C339 C340 1.382 . S
C339 C341 1.403 . S
C340 H313 0.950 . S
C340 C326 1.411 . S
C340 C339 1.382 . S
C341 C325 1.411 . S
C341 C339 1.403 . S
C341 C342 1.489 . S
C342 C341 1.489 . S
C342 C343 1.383 . S
C342 C347 1.382 . S
C343 H314 0.950 . S
C343 C342 1.383 . S
C343 C344 1.395 . S
C344 H315 0.950 . S
C344 C343 1.395 . S
C344 C345 1.288 . S
C345 C344 1.288 . S
C345 C346 1.392 . S
C346 H316 0.951 . S
C346 C345 1.392 . S
C346 C347 1.392 . S
C347 H317 0.949 . S
C347 C342 1.382 . S
C347 C346 1.392 . S
H348 C367 0.949 . S
H349 C368 0.950 . S
H350 C370 0.950 . S
H351 C371 0.950 . S
H352 C373 0.950 . S
H353 C376 0.950 . S
H354 C377 0.950 . S
H355 C379 0.951 . S
H356 C380 0.949 . S
H357 C382 0.949 . S
H358 C383 0.950 . S
H359 C385 0.950 . S
H360 C386 0.950 . S
H361 C388 0.950 . S
H362 C391 0.950 . S
H363 C392 0.950 . S
H364 C394 0.951 . S
H365 C395 0.949 . S
C366 C367 1.376 . S
C366 C371 1.386 . S
C366 C372 1.483 . S
C367 H348 0.949 . S
C367 C366 1.376 . S
C367 C368 1.397 . S
C368 H349 0.950 . S
C368 C367 1.397 . S
C368 C369 1.391 . S
C369 C368 1.391 . S
C369 C370 1.405 . S
C370 H350 0.950 . S
C370 C369 1.405 . S
C370 C371 1.367 . S
C371 H351 0.950 . S
C371 C366 1.386 . S
C371 C370 1.367 . S
C372 C366 1.483 . S
C372 C373 1.382 . S
C372 C374 1.403 . S
C373 H352 0.950 . S
C373 C372 1.382 . S
C373 C389 1.411 . S
C374 C372 1.403 . S
C374 C375 1.489 . S
C374 C388 1.411 . S
C375 C374 1.489 . S
C375 C376 1.383 . S
C375 C380 1.382 . S
C376 H353 0.950 . S
C376 C375 1.383 . S
C376 C377 1.395 . S
C377 H354 0.950 . S
C377 C376 1.395 . S
C377 C378 1.288 . S
C378 C377 1.288 . S
C378 C379 1.392 . S
C379 H355 0.951 . S
C379 C378 1.392 . S
C379 C380 1.392 . S
C380 H356 0.949 . S
C380 C375 1.382 . S
C380 C379 1.392 . S
C381 C382 1.376 . S
C381 C386 1.386 . S
C381 C387 1.483 . S
C382 H357 0.949 . S
C382 C381 1.376 . S
C382 C383 1.397 . S
C383 H358 0.950 . S
C383 C382 1.397 . S
C383 C384 1.391 . S
C384 C383 1.391 . S
C384 C385 1.405 . S
C385 H359 0.950 . S
C385 C384 1.405 . S
C385 C386 1.367 . S
C386 H360 0.950 . S
C386 C381 1.386 . S
C386 C385 1.367 . S
C387 C381 1.483 . S
C387 C388 1.382 . S
C387 C389 1.403 . S
C388 H361 0.950 . S
C388 C374 1.411 . S
C388 C387 1.382 . S
C389 C373 1.411 . S
C389 C387 1.403 . S
C389 C390 1.489 . S
C390 C389 1.489 . S
C390 C391 1.383 . S
C390 C395 1.382 . S
C391 H362 0.950 . S
C391 C390 1.383 . S
C391 C392 1.395 . S
C392 H363 0.950 . S
C392 C391 1.395 . S
C392 C393 1.288 . S
C393 C392 1.288 . S
C393 C394 1.392 . S
C394 H364 0.951 . S
C394 C393 1.392 . S
C394 C395 1.392 . S
C395 H365 0.949 . S
C395 C390 1.382 . S
C395 C394 1.392 . S
H396 C415 0.949 . S
H397 C416 0.950 . S
H398 C418 0.950 . S
H399 C419 0.950 . S
H400 C421 0.950 . S
H401 C424 0.950 . S
H402 C425 0.950 . S
H403 C427 0.951 . S
H404 C428 0.949 . S
H405 C430 0.949 . S
H406 C431 0.950 . S
H407 C433 0.950 . S
H408 C434 0.950 . S
H409 C436 0.950 . S
H410 C439 0.950 . S
H411 C440 0.950 . S
H412 C442 0.951 . S
H413 C443 0.949 . S
C414 C415 1.376 . S
C414 C419 1.386 . S
C414 C420 1.483 . S
C415 H396 0.949 . S
C415 C414 1.376 . S
C415 C416 1.397 . S
C416 H397 0.950 . S
C416 C415 1.397 . S
C416 C417 1.391 . S
C417 C416 1.391 . S
C417 C418 1.405 . S
C418 H398 0.950 . S
C418 C417 1.405 . S
C418 C419 1.367 . S
C419 H399 0.950 . S
C419 C414 1.386 . S
C419 C418 1.367 . S
C420 C414 1.483 . S
C420 C421 1.382 . S
C420 C422 1.403 . S
C421 H400 0.950 . S
C421 C420 1.382 . S
C421 C437 1.411 . S
C422 C420 1.403 . S
C422 C423 1.489 . S
C422 C436 1.411 . S
C423 C422 1.489 . S
C423 C424 1.383 . S
C423 C428 1.382 . S
C424 H401 0.950 . S
C424 C423 1.383 . S
C424 C425 1.395 . S
C425 H402 0.950 . S
C425 C424 1.395 . S
C425 C426 1.288 . S
C426 C425 1.288 . S
C426 C427 1.392 . S
C427 H403 0.951 . S
C427 C426 1.392 . S
C427 C428 1.392 . S
C428 H404 0.949 . S
C428 C423 1.382 . S
C428 C427 1.392 . S
C429 C430 1.376 . S
C429 C434 1.386 . S
C429 C435 1.483 . S
C430 H405 0.949 . S
C430 C429 1.376 . S
C430 C431 1.397 . S
C431 H406 0.950 . S
C431 C430 1.397 . S
C431 C432 1.391 . S
C432 C431 1.391 . S
C432 C433 1.405 . S
C433 H407 0.950 . S
C433 C432 1.405 . S
C433 C434 1.367 . S
C434 H408 0.950 . S
C434 C429 1.386 . S
C434 C433 1.367 . S
C435 C429 1.483 . S
C435 C436 1.382 . S
C435 C437 1.403 . S
C436 H409 0.950 . S
C436 C422 1.411 . S
C436 C435 1.382 . S
C437 C421 1.411 . S
C437 C435 1.403 . S
C437 C438 1.489 . S
C438 C437 1.489 . S
C438 C439 1.383 . S
C438 C443 1.382 . S
C439 H410 0.950 . S
C439 C438 1.383 . S
C439 C440 1.395 . S
C440 H411 0.950 . S
C440 C439 1.395 . S
C440 C441 1.288 . S
C441 C440 1.288 . S
C441 C442 1.392 . S
C442 H412 0.951 . S
C442 C441 1.392 . S
C442 C443 1.392 . S
C443 H413 0.949 . S
C443 C438 1.382 . S
C443 C442 1.392 . S
H444 C463 0.949 . S
H445 C464 0.950 . S
H446 C466 0.950 . S
H447 C467 0.950 . S
H448 C469 0.950 . S
H449 C472 0.950 . S
H450 C473 0.950 . S
H451 C475 0.951 . S
H452 C476 0.949 . S
H453 C478 0.949 . S
H454 C479 0.950 . S
H455 C481 0.950 . S
H456 C482 0.950 . S
H457 C484 0.950 . S
H458 C487 0.950 . S
H459 C488 0.950 . S
H460 C490 0.951 . S
H461 C491 0.949 . S
C462 C463 1.376 . S
C462 C467 1.386 . S
C462 C468 1.483 . S
C463 H444 0.949 . S
C463 C462 1.376 . S
C463 C464 1.397 . S
C464 H445 0.950 . S
C464 C463 1.397 . S
C464 C465 1.391 . S
C465 C464 1.391 . S
C465 C466 1.405 . S
C466 H446 0.950 . S
C466 C465 1.405 . S
C466 C467 1.367 . S
C467 H447 0.950 . S
C467 C462 1.386 . S
C467 C466 1.367 . S
C468 C462 1.483 . S
C468 C469 1.382 . S
C468 C470 1.403 . S
C469 H448 0.950 . S
C469 C468 1.382 . S
C469 C485 1.411 . S
C470 C468 1.403 . S
C470 C471 1.489 . S
C470 C484 1.411 . S
C471 C470 1.489 . S
C471 C472 1.383 . S
C471 C476 1.382 . S
C472 H449 0.950 . S
C472 C471 1.383 . S
C472 C473 1.395 . S
C473 H450 0.950 . S
C473 C472 1.395 . S
C473 C474 1.288 . S
C474 C473 1.288 . S
C474 C475 1.392 . S
C475 H451 0.951 . S
C475 C474 1.392 . S
C475 C476 1.392 . S
C476 H452 0.949 . S
C476 C471 1.382 . S
C476 C475 1.392 . S
C477 C478 1.376 . S
C477 C482 1.386 . S
C477 C483 1.483 . S
C478 H453 0.949 . S
C478 C477 1.376 . S
C478 C479 1.397 . S
C479 H454 0.950 . S
C479 C478 1.397 . S
C479 C480 1.391 . S
C480 C479 1.391 . S
C480 C481 1.405 . S
C481 H455 0.950 . S
C481 C480 1.405 . S
C481 C482 1.367 . S
C482 H456 0.950 . S
C482 C477 1.386 . S
C482 C481 1.367 . S
C483 C477 1.483 . S
C483 C484 1.382 . S
C483 C485 1.403 . S
C484 H457 0.950 . S
C484 C470 1.411 . S
C484 C483 1.382 . S
C485 C469 1.411 . S
C485 C483 1.403 . S
C485 C486 1.489 . S
C486 C485 1.489 . S
C486 C487 1.383 . S
C486 C491 1.382 . S
C487 H458 0.950 . S
C487 C486 1.383 . S
C487 C488 1.395 . S
C488 H459 0.950 . S
C488 C487 1.395 . S
C488 C489 1.288 . S
C489 C488 1.288 . S
C489 C490 1.392 . S
C490 H460 0.951 . S
C490 C489 1.392 . S
C490 C491 1.392 . S
C491 H461 0.949 . S
C491 C486 1.382 . S
C491 C490 1.392 . S
H492 C511 0.949 . S
H493 C512 0.950 . S
H494 C514 0.950 . S
H495 C515 0.950 . S
H496 C517 0.950 . S
H497 C520 0.950 . S
H498 C521 0.950 . S
H499 C523 0.951 . S
H500 C524 0.949 . S
H501 C526 0.949 . S
H502 C527 0.950 . S
H503 C529 0.950 . S
H504 C530 0.950 . S
H505 C532 0.950 . S
H506 C535 0.950 . S
H507 C536 0.950 . S
H508 C538 0.951 . S
H509 C539 0.949 . S
C510 C511 1.376 . S
C510 C515 1.386 . S
C510 C516 1.483 . S
C511 H492 0.949 . S
C511 C510 1.376 . S
C511 C512 1.397 . S
C512 H493 0.950 . S
C512 C511 1.397 . S
C512 C513 1.391 . S
C513 C512 1.391 . S
C513 C514 1.405 . S
C514 H494 0.950 . S
C514 C513 1.405 . S
C514 C515 1.367 . S
C515 H495 0.950 . S
C515 C510 1.386 . S
C515 C514 1.367 . S
C516 C510 1.483 . S
C516 C517 1.382 . S
C516 C518 1.403 . S
C517 H496 0.950 . S
C517 C516 1.382 . S
C517 C533 1.411 . S
C518 C516 1.403 . S
C518 C519 1.489 . S
C518 C532 1.411 . S
C519 C518 1.489 . S
C519 C520 1.383 . S
C519 C524 1.382 . S
C520 H497 0.950 . S
C520 C519 1.383 . S
C520 C521 1.395 . S
C521 H498 0.950 . S
C521 C520 1.395 . S
C521 C522 1.288 . S
C522 C521 1.288 . S
C522 C523 1.392 . S
C523 H499 0.951 . S
C523 C522 1.392 . S
C523 C524 1.392 . S
C524 H500 0.949 . S
C524 C519 1.382 . S
C524 C523 1.392 . S
C525 C526 1.376 . S
C525 C530 1.386 . S
C525 C531 1.483 . S
C526 H501 0.949 . S
C526 C525 1.376 . S
C526 C527 1.397 . S
C527 H502 0.950 . S
C527 C526 1.397 . S
C527 C528 1.391 . S
C528 C527 1.391 . S
C528 C529 1.405 . S
C529 H503 0.950 . S
C529 C528 1.405 . S
C529 C530 1.367 . S
C530 H504 0.950 . S
C530 C525 1.386 . S
C530 C529 1.367 . S
C531 C525 1.483 . S
C531 C532 1.382 . S
C531 C533 1.403 . S
C532 H505 0.950 . S
C532 C518 1.411 . S
C532 C531 1.382 . S
C533 C517 1.411 . S
C533 C531 1.403 . S
C533 C534 1.489 . S
C534 C533 1.489 . S
C534 C535 1.383 . S
C534 C539 1.382 . S
C535 H506 0.950 . S
C535 C534 1.383 . S
C535 C536 1.395 . S
C536 H507 0.950 . S
C536 C535 1.395 . S
C536 C537 1.288 . S
C537 C536 1.288 . S
C537 C538 1.392 . S
C538 H508 0.951 . S
C538 C537 1.392 . S
C538 C539 1.392 . S
C539 H509 0.949 . S
C539 C534 1.382 . S
C539 C538 1.392 . S
H540 C559 0.949 . S
H541 C560 0.950 . S
H542 C562 0.950 . S
H543 C563 0.950 . S
H544 C565 0.950 . S
H545 C568 0.950 . S
H546 C569 0.950 . S
H547 C571 0.951 . S
H548 C572 0.949 . S
H549 C574 0.949 . S
H550 C575 0.950 . S
H551 C577 0.950 . S
H552 C578 0.950 . S
H553 C580 0.950 . S
H554 C583 0.950 . S
H555 C584 0.950 . S
H556 C586 0.951 . S
H557 C587 0.949 . S
C558 C559 1.376 . S
C558 C563 1.386 . S
C558 C564 1.483 . S
C559 H540 0.949 . S
C559 C558 1.376 . S
C559 C560 1.397 . S
C560 H541 0.950 . S
C560 C559 1.397 . S
C560 C561 1.391 . S
C561 C560 1.391 . S
C561 C562 1.405 . S
C562 H542 0.950 . S
C562 C561 1.405 . S
C562 C563 1.367 . S
C563 H543 0.950 . S
C563 C558 1.386 . S
C563 C562 1.367 . S
C564 C558 1.483 . S
C564 C565 1.382 . S
C564 C566 1.403 . S
C565 H544 0.950 . S
C565 C564 1.382 . S
C565 C581 1.411 . S
C566 C564 1.403 . S
C566 C567 1.489 . S
C566 C580 1.411 . S
C567 C566 1.489 . S
C567 C568 1.383 . S
C567 C572 1.382 . S
C568 H545 0.950 . S
C568 C567 1.383 . S
C568 C569 1.395 . S
C569 H546 0.950 . S
C569 C568 1.395 . S
C569 C570 1.288 . S
C570 C569 1.288 . S
C570 C571 1.392 . S
C571 H547 0.951 . S
C571 C570 1.392 . S
C571 C572 1.392 . S
C572 H548 0.949 . S
C572 C567 1.382 . S
C572 C571 1.392 . S
C573 C574 1.376 . S
C573 C578 1.386 . S
C573 C579 1.483 . S
C574 H549 0.949 . S
C574 C573 1.376 . S
C574 C575 1.397 . S
C575 H550 0.950 . S
C575 C574 1.397 . S
C575 C576 1.391 . S
C576 C575 1.391 . S
C576 C577 1.405 . S
C577 H551 0.950 . S
C577 C576 1.405 . S
C577 C578 1.367 . S
C578 H552 0.950 . S
C578 C573 1.386 . S
C578 C577 1.367 . S
C579 C573 1.483 . S
C579 C580 1.382 . S
C579 C581 1.403 . S
C580 H553 0.950 . S
C580 C566 1.411 . S
C580 C579 1.382 . S
C581 C565 1.411 . S
C581 C579 1.403 . S
C581 C582 1.489 . S
C582 C581 1.489 . S
C582 C583 1.383 . S
C582 C587 1.382 . S
C583 H554 0.950 . S
C583 C582 1.383 . S
C583 C584 1.395 . S
C584 H555 0.950 . S
C584 C583 1.395 . S
C584 C585 1.288 . S
C585 C584 1.288 . S
C585 C586 1.392 . S
C586 H556 0.951 . S
C586 C585 1.392 . S
C586 C587 1.392 . S
C587 H557 0.949 . S
C587 C582 1.382 . S
C587 C586 1.392 . S
H588 C607 0.949 . S
H589 C608 0.950 . S
H590 C610 0.950 . S
H591 C611 0.950 . S
H592 C613 0.950 . S
H593 C616 0.950 . S
H594 C617 0.950 . S
H595 C619 0.951 . S
H596 C620 0.949 . S
H597 C622 0.949 . S
H598 C623 0.950 . S
H599 C625 0.950 . S
H600 C626 0.950 . S
H601 C628 0.950 . S
H602 C631 0.950 . S
H603 C632 0.950 . S
H604 C634 0.951 . S
H605 C635 0.949 . S
C606 C607 1.376 . S
C606 C611 1.386 . S
C606 C612 1.483 . S
C607 H588 0.949 . S
C607 C606 1.376 . S
C607 C608 1.397 . S
C608 H589 0.950 . S
C608 C607 1.397 . S
C608 C609 1.391 . S
C609 C608 1.391 . S
C609 C610 1.405 . S
C610 H590 0.950 . S
C610 C609 1.405 . S
C610 C611 1.367 . S
C611 H591 0.950 . S
C611 C606 1.386 . S
C611 C610 1.367 . S
C612 C606 1.483 . S
C612 C613 1.382 . S
C612 C614 1.403 . S
C613 H592 0.950 . S
C613 C612 1.382 . S
C613 C629 1.411 . S
C614 C612 1.403 . S
C614 C615 1.489 . S
C614 C628 1.411 . S
C615 C614 1.489 . S
C615 C616 1.383 . S
C615 C620 1.382 . S
C616 H593 0.950 . S
C616 C615 1.383 . S
C616 C617 1.395 . S
C617 H594 0.950 . S
C617 C616 1.395 . S
C617 C618 1.288 . S
C618 C617 1.288 . S
C618 C619 1.392 . S
C619 H595 0.951 . S
C619 C618 1.392 . S
C619 C620 1.392 . S
C620 H596 0.949 . S
C620 C615 1.382 . S
C620 C619 1.392 . S
C621 C622 1.376 . S
C621 C626 1.386 . S
C621 C627 1.483 . S
C622 H597 0.949 . S
C622 C621 1.376 . S
C622 C623 1.397 . S
C623 H598 0.950 . S
C623 C622 1.397 . S
C623 C624 1.391 . S
C624 C623 1.391 . S
C624 C625 1.405 . S
C625 H599 0.950 . S
C625 C624 1.405 . S
C625 C626 1.367 . S
C626 H600 0.950 . S
C626 C621 1.386 . S
C626 C625 1.367 . S
C627 C621 1.483 . S
C627 C628 1.382 . S
C627 C629 1.403 . S
C628 H601 0.950 . S
C628 C614 1.411 . S
C628 C627 1.382 . S
C629 C613 1.411 . S
C629 C627 1.403 . S
C629 C630 1.489 . S
C630 C629 1.489 . S
C630 C631 1.383 . S
C630 C635 1.382 . S
C631 H602 0.950 . S
C631 C630 1.383 . S
C631 C632 1.395 . S
C632 H603 0.950 . S
C632 C631 1.395 . S
C632 C633 1.288 . S
C633 C632 1.288 . S
C633 C634 1.392 . S
C634 H604 0.951 . S
C634 C633 1.392 . S
C634 C635 1.392 . S
C635 H605 0.949 . S
C635 C630 1.382 . S
C635 C634 1.392 . S
H636 C655 0.949 . S
H637 C656 0.950 . S
H638 C658 0.950 . S
H639 C659 0.950 . S
H640 C661 0.950 . S
H641 C664 0.950 . S
H642 C665 0.950 . S
H643 C667 0.951 . S
H644 C668 0.949 . S
H645 C670 0.949 . S
H646 C671 0.950 . S
H647 C673 0.950 . S
H648 C674 0.950 . S
H649 C676 0.950 . S
H650 C679 0.950 . S
H651 C680 0.950 . S
H652 C682 0.951 . S
H653 C683 0.949 . S
C654 C655 1.376 . S
C654 C659 1.386 . S
C654 C660 1.483 . S
C655 H636 0.949 . S
C655 C654 1.376 . S
C655 C656 1.397 . S
C656 H637 0.950 . S
C656 C655 1.397 . S
C656 C657 1.391 . S
C657 C656 1.391 . S
C657 C658 1.405 . S
C658 H638 0.950 . S
C658 C657 1.405 . S
C658 C659 1.367 . S
C659 H639 0.950 . S
C659 C654 1.386 . S
C659 C658 1.367 . S
C660 C654 1.483 . S
C660 C661 1.382 . S
C660 C662 1.403 . S
C661 H640 0.950 . S
C661 C660 1.382 . S
C661 C677 1.411 . S
C662 C660 1.403 . S
C662 C663 1.489 . S
C662 C676 1.411 . S
C663 C662 1.489 . S
C663 C664 1.383 . S
C663 C668 1.382 . S
C664 H641 0.950 . S
C664 C663 1.383 . S
C664 C665 1.395 . S
C665 H642 0.950 . S
C665 C664 1.395 . S
C665 C666 1.288 . S
C666 C665 1.288 . S
C666 C667 1.392 . S
C667 H643 0.951 . S
C667 C666 1.392 . S
C667 C668 1.392 . S
C668 H644 0.949 . S
C668 C663 1.382 . S
C668 C667 1.392 . S
C669 C670 1.376 . S
C669 C674 1.386 . S
C669 C675 1.483 . S
C670 H645 0.949 . S
C670 C669 1.376 . S
C670 C671 1.397 . S
C671 H646 0.950 . S
C671 C670 1.397 . S
C671 C672 1.391 . S
C672 C671 1.391 . S
C672 C673 1.405 . S
C673 H647 0.950 . S
C673 C672 1.405 . S
C673 C674 1.367 . S
C674 H648 0.950 . S
C674 C669 1.386 . S
C674 C673 1.367 . S
C675 C669 1.483 . S
C675 C676 1.382 . S
C675 C677 1.403 . S
C676 H649 0.950 . S
C676 C662 1.411 . S
C676 C675 1.382 . S
C677 C661 1.411 . S
C677 C675 1.403 . S
C677 C678 1.489 . S
C678 C677 1.489 . S
C678 C679 1.383 . S
C678 C683 1.382 . S
C679 H650 0.950 . S
C679 C678 1.383 . S
C679 C680 1.395 . S
C680 H651 0.950 . S
C680 C679 1.395 . S
C680 C681 1.288 . S
C681 C680 1.288 . S
C681 C682 1.392 . S
C682 H652 0.951 . S
C682 C681 1.392 . S
C682 C683 1.392 . S
C683 H653 0.949 . S
C683 C678 1.382 . S
C683 C682 1.392 . S
H684 C703 0.949 . S
H685 C704 0.950 . S
H686 C706 0.950 . S
H687 C707 0.950 . S
H688 C709 0.950 . S
H689 C712 0.950 . S
H690 C713 0.950 . S
H691 C715 0.951 . S
H692 C716 0.949 . S
H693 C718 0.949 . S
H694 C719 0.950 . S
H695 C721 0.950 . S
H696 C722 0.950 . S
H697 C724 0.950 . S
H698 C727 0.950 . S
H699 C728 0.950 . S
H700 C730 0.951 . S
H701 C731 0.949 . S
C702 C703 1.376 . S
C702 C707 1.386 1_655 S
C702 C708 1.483 . S
C703 H684 0.949 . S
C703 C702 1.376 . S
C703 C704 1.397 . S
C704 H685 0.950 . S
C704 C703 1.397 . S
C704 C705 1.391 . S
C705 C704 1.391 . S
C705 C706 1.405 1_655 S
C706 H686 0.950 . S
C706 C705 1.405 1_455 S
C706 C707 1.367 . S
C707 H687 0.950 . S
C707 C702 1.386 1_455 S
C707 C706 1.367 . S
C708 C702 1.483 . S
C708 C709 1.382 . S
C708 C710 1.403 1_655 S
C709 H688 0.950 . S
C709 C708 1.382 . S
C709 C725 1.411 . S
C710 C708 1.403 1_455 S
C710 C711 1.489 . S
C710 C724 1.411 . S
C711 C710 1.489 . S
C711 C712 1.383 1_455 S
C711 C716 1.382 . S
C712 H689 0.950 . S
C712 C711 1.383 1_655 S
C712 C713 1.395 . S
C713 H690 0.950 . S
C713 C712 1.395 . S
C713 C714 1.288 1_655 S
C714 C713 1.288 1_455 S
C714 C715 1.392 . S
C715 H691 0.951 . S
C715 C714 1.392 . S
C715 C716 1.392 . S
C716 H692 0.949 . S
C716 C711 1.382 . S
C716 C715 1.392 . S
C717 C718 1.376 . S
C717 C722 1.386 1_455 S
C717 C723 1.483 . S
C718 H693 0.949 . S
C718 C717 1.376 . S
C718 C719 1.397 . S
C719 H694 0.950 . S
C719 C718 1.397 . S
C719 C720 1.391 . S
C720 C719 1.391 . S
C720 C721 1.405 1_455 S
C721 H695 0.950 . S
C721 C720 1.405 1_655 S
C721 C722 1.367 . S
C722 H696 0.950 . S
C722 C717 1.386 1_655 S
C722 C721 1.367 . S
C723 C717 1.483 . S
C723 C724 1.382 . S
C723 C725 1.403 1_455 S
C724 H697 0.950 . S
C724 C710 1.411 . S
C724 C723 1.382 . S
C725 C709 1.411 . S
C725 C723 1.403 1_655 S
C725 C726 1.489 . S
C726 C725 1.489 . S
C726 C727 1.383 1_655 S
C726 C731 1.382 . S
C727 H698 0.950 . S
C727 C726 1.383 1_455 S
C727 C728 1.395 . S
C728 H699 0.950 . S
C728 C727 1.395 . S
C728 C729 1.288 1_455 S
C729 C728 1.288 1_655 S
C729 C730 1.392 . S
C730 H700 0.951 . S
C730 C729 1.392 . S
C730 C731 1.392 . S
C731 H701 0.949 . S
C731 C726 1.382 . S
C731 C730 1.392 . S
H732 C751 0.949 . S
H733 C752 0.950 . S
H734 C754 0.950 . S
H735 C755 0.950 . S
H736 C757 0.950 . S
H737 C760 0.950 . S
H738 C761 0.950 . S
H739 C763 0.951 . S
H740 C764 0.949 . S
H741 C766 0.949 . S
H742 C767 0.950 . S
H743 C769 0.950 . S
H744 C770 0.950 . S
H745 C772 0.950 . S
H746 C775 0.950 . S
H747 C776 0.950 . S
H748 C778 0.951 . S
H749 C779 0.949 . S
C750 C751 1.376 . S
C750 C755 1.386 . S
C750 C756 1.483 . S
C751 H732 0.949 . S
C751 C750 1.376 . S
C751 C752 1.397 . S
C752 H733 0.950 . S
C752 C751 1.397 . S
C752 C753 1.391 . S
C753 C752 1.391 . S
C753 C754 1.405 . S
C754 H734 0.950 . S
C754 C753 1.405 . S
C754 C755 1.367 . S
C755 H735 0.950 . S
C755 C750 1.386 . S
C755 C754 1.367 . S
C756 C750 1.483 . S
C756 C757 1.382 . S
C756 C758 1.403 . S
C757 H736 0.950 . S
C757 C756 1.382 . S
C757 C773 1.411 . S
C758 C756 1.403 . S
C758 C759 1.489 . S
C758 C772 1.411 . S
C759 C758 1.489 . S
C759 C760 1.383 . S
C759 C764 1.382 . S
C760 H737 0.950 . S
C760 C759 1.383 . S
C760 C761 1.395 . S
C761 H738 0.950 . S
C761 C760 1.395 . S
C761 C762 1.288 . S
C762 C761 1.288 . S
C762 C763 1.392 . S
C763 H739 0.951 . S
C763 C762 1.392 . S
C763 C764 1.392 . S
C764 H740 0.949 . S
C764 C759 1.382 . S
C764 C763 1.392 . S
C765 C766 1.376 . S
C765 C770 1.386 . S
C765 C771 1.483 . S
C766 H741 0.949 . S
C766 C765 1.376 . S
C766 C767 1.397 . S
C767 H742 0.950 . S
C767 C766 1.397 . S
C767 C768 1.391 . S
C768 C767 1.391 . S
C768 C769 1.405 . S
C769 H743 0.950 . S
C769 C768 1.405 . S
C769 C770 1.367 . S
C770 H744 0.950 . S
C770 C765 1.386 . S
C770 C769 1.367 . S
C771 C765 1.483 . S
C771 C772 1.382 . S
C771 C773 1.403 . S
C772 H745 0.950 . S
C772 C758 1.411 . S
C772 C771 1.382 . S
C773 C757 1.411 . S
C773 C771 1.403 . S
C773 C774 1.489 . S
C774 C773 1.489 . S
C774 C775 1.383 . S
C774 C779 1.382 . S
C775 H746 0.950 . S
C775 C774 1.383 . S
C775 C776 1.395 . S
C776 H747 0.950 . S
C776 C775 1.395 . S
C776 C777 1.288 . S
C777 C776 1.288 . S
C777 C778 1.392 . S
C778 H748 0.951 . S
C778 C777 1.392 . S
C778 C779 1.392 . S
C779 H749 0.949 . S
C779 C774 1.382 . S
C779 C778 1.392 . S
H780 C799 0.949 . S
H781 C800 0.950 . S
H782 C802 0.950 . S
H783 C803 0.950 . S
H784 C805 0.950 . S
H785 C808 0.950 . S
H786 C809 0.950 . S
H787 C811 0.951 . S
H788 C812 0.949 . S
H789 C814 0.949 . S
H790 C815 0.950 . S
H791 C817 0.950 . S
H792 C818 0.950 . S
H793 C820 0.950 . S
H794 C823 0.950 . S
H795 C824 0.950 . S
H796 C826 0.951 . S
H797 C827 0.949 . S
C798 C799 1.376 . S
C798 C803 1.386 1_545 S
C798 C804 1.483 . S
C799 H780 0.949 . S
C799 C798 1.376 . S
C799 C800 1.397 . S
C800 H781 0.950 . S
C800 C799 1.397 . S
C800 C801 1.391 . S
C801 C800 1.391 . S
C801 C802 1.405 1_545 S
C802 H782 0.950 . S
C802 C801 1.405 1_565 S
C802 C803 1.367 . S
C803 H783 0.950 . S
C803 C798 1.386 1_565 S
C803 C802 1.367 . S
C804 C798 1.483 . S
C804 C805 1.382 . S
C804 C806 1.403 1_545 S
C805 H784 0.950 . S
C805 C804 1.382 . S
C805 C821 1.411 . S
C806 C804 1.403 1_565 S
C806 C807 1.489 . S
C806 C820 1.411 . S
C807 C806 1.489 . S
C807 C808 1.383 1_565 S
C807 C812 1.382 . S
C808 H785 0.950 . S
C808 C807 1.383 1_545 S
C808 C809 1.395 . S
C809 H786 0.950 . S
C809 C808 1.395 . S
C809 C810 1.288 1_545 S
C810 C809 1.288 1_565 S
C810 C811 1.392 . S
C811 H787 0.951 . S
C811 C810 1.392 . S
C811 C812 1.392 . S
C812 H788 0.949 . S
C812 C807 1.382 . S
C812 C811 1.392 . S
C813 C814 1.376 . S
C813 C818 1.386 1_565 S
C813 C819 1.483 . S
C814 H789 0.949 . S
C814 C813 1.376 . S
C814 C815 1.397 . S
C815 H790 0.950 . S
C815 C814 1.397 . S
C815 C816 1.391 . S
C816 C815 1.391 . S
C816 C817 1.405 1_565 S
C817 H791 0.950 . S
C817 C816 1.405 1_545 S
C817 C818 1.367 . S
C818 H792 0.950 . S
C818 C813 1.386 1_545 S
C818 C817 1.367 . S
C819 C813 1.483 . S
C819 C820 1.382 . S
C819 C821 1.403 1_565 S
C820 H793 0.950 . S
C820 C806 1.411 . S
C820 C819 1.382 . S
C821 C805 1.411 . S
C821 C819 1.403 1_545 S
C821 C822 1.489 . S
C822 C821 1.489 . S
C822 C823 1.383 1_545 S
C822 C827 1.382 . S
C823 H794 0.950 . S
C823 C822 1.383 1_565 S
C823 C824 1.395 . S
C824 H795 0.950 . S
C824 C823 1.395 . S
C824 C825 1.288 1_565 S
C825 C824 1.288 1_545 S
C825 C826 1.392 . S
C826 H796 0.951 . S
C826 C825 1.392 . S
C826 C827 1.392 . S
C827 H797 0.949 . S
C827 C822 1.382 . S
C827 C826 1.392 . S
H828 C847 0.949 . S
H829 C848 0.950 . S
H830 C850 0.950 . S
H831 C851 0.950 . S
H832 C853 0.950 . S
H833 C856 0.950 . S
H834 C857 0.950 . S
H835 C859 0.951 . S
H836 C860 0.949 . S
H837 C862 0.949 . S
H838 C863 0.950 . S
H839 C865 0.950 . S
H840 C866 0.950 . S
H841 C868 0.950 . S
H842 C871 0.950 . S
H843 C872 0.950 . S
H844 C874 0.951 . S
H845 C875 0.949 . S
C846 C847 1.395 . S
C846 C851 1.377 1_545 S
C846 C852 1.501 . S
C847 H828 0.949 . S
C847 C846 1.395 . S
C847 C848 1.397 . S
C848 H829 0.950 . S
C848 C847 1.397 . S
C848 C849 1.391 1_545 S
C849 C848 1.391 1_565 S
C849 C850 1.405 . S
C850 H830 0.950 . S
C850 C849 1.405 . S
C850 C851 1.367 . S
C851 H831 0.950 . S
C851 C846 1.377 1_565 S
C851 C850 1.367 . S
C852 C846 1.501 . S
C852 C853 1.356 . S
C852 C854 1.397 1_545 S
C853 H832 0.950 . S
C853 C852 1.356 . S
C853 C869 1.450 . S
C854 C852 1.397 1_565 S
C854 C855 1.488 . S
C854 C868 1.438 . S
C855 C854 1.488 . S
C855 C856 1.334 1_565 S
C855 C860 1.409 . S
C856 H833 0.950 . S
C856 C855 1.334 1_545 S
C856 C857 1.395 . S
C857 H834 0.950 . S
C857 C856 1.395 . S
C857 C858 1.320 . S
C858 C857 1.320 . S
C858 C859 1.330 1_545 S
C859 H835 0.951 . S
C859 C858 1.330 1_565 S
C859 C860 1.392 . S
C860 H836 0.949 . S
C860 C855 1.409 . S
C860 C859 1.392 . S
C861 C862 1.378 . S
C861 C866 1.385 1_565 S
C861 C867 1.501 . S
C862 H837 0.949 . S
C862 C861 1.378 . S
C862 C863 1.397 . S
C863 H838 0.950 . S
C863 C862 1.397 . S
C863 C864 1.391 1_565 S
C864 C863 1.391 1_545 S
C864 C865 1.405 . S
C865 H839 0.950 . S
C865 C864 1.405 . S
C865 C866 1.367 . S
C866 H840 0.950 . S
C866 C861 1.385 1_545 S
C866 C865 1.367 . S
C867 C861 1.501 . S
C867 C868 1.364 . S
C867 C869 1.397 1_565 S
C868 H841 0.950 . S
C868 C854 1.438 . S
C868 C867 1.364 . S
C869 C853 1.450 . S
C869 C867 1.397 1_545 S
C869 C870 1.488 . S
C870 C869 1.488 . S
C870 C871 1.312 1_545 S
C870 C875 1.422 . S
C871 H842 0.950 . S
C871 C870 1.312 1_565 S
C871 C872 1.395 . S
C872 H843 0.950 . S
C872 C871 1.395 . S
C872 C873 1.309 . S
C873 C872 1.309 . S
C873 C874 1.351 1_565 S
C874 H844 0.951 . S
C874 C873 1.351 1_545 S
C874 C875 1.392 . S
C875 H845 0.949 . S
C875 C870 1.422 . S
C875 C874 1.392 . S
H876 C895 0.949 . S
H877 C896 0.950 . S
H878 C898 0.950 . S
H879 C899 0.950 . S
H880 C901 0.950 . S
H881 C904 0.950 . S
H882 C905 0.950 . S
H883 C907 0.951 . S
H884 C908 0.949 . S
H885 C910 0.949 . S
H886 C911 0.950 . S
H887 C913 0.950 . S
H888 C914 0.950 . S
H889 C916 0.950 . S
H890 C919 0.950 . S
H891 C920 0.950 . S
H892 C922 0.951 . S
H893 C923 0.949 . S
C894 C895 1.376 . S
C894 C899 1.386 1_455 S
C894 C900 1.483 . S
C895 H876 0.949 . S
C895 C894 1.376 . S
C895 C896 1.397 . S
C896 H877 0.950 . S
C896 C895 1.397 . S
C896 C897 1.391 . S
C897 C896 1.391 . S
C897 C898 1.405 1_455 S
C898 H878 0.950 . S
C898 C897 1.405 1_655 S
C898 C899 1.367 . S
C899 H879 0.950 . S
C899 C894 1.386 1_655 S
C899 C898 1.367 . S
C900 C894 1.483 . S
C900 C901 1.382 . S
C900 C902 1.403 1_455 S
C901 H880 0.950 . S
C901 C900 1.382 . S
C901 C917 1.411 . S
C902 C900 1.403 1_655 S
C902 C903 1.489 . S
C902 C916 1.411 . S
C903 C902 1.489 . S
C903 C904 1.383 1_655 S
C903 C908 1.382 . S
C904 H881 0.950 . S
C904 C903 1.383 1_455 S
C904 C905 1.395 . S
C905 H882 0.950 . S
C905 C904 1.395 . S
C905 C906 1.288 1_455 S
C906 C905 1.288 1_655 S
C906 C907 1.392 . S
C907 H883 0.951 . S
C907 C906 1.392 . S
C907 C908 1.392 . S
C908 H884 0.949 . S
C908 C903 1.382 . S
C908 C907 1.392 . S
C909 C910 1.376 . S
C909 C914 1.386 1_655 S
C909 C915 1.483 . S
C910 H885 0.949 . S
C910 C909 1.376 . S
C910 C911 1.397 . S
C911 H886 0.950 . S
C911 C910 1.397 . S
C911 C912 1.391 . S
C912 C911 1.391 . S
C912 C913 1.405 1_655 S
C913 H887 0.950 . S
C913 C912 1.405 1_455 S
C913 C914 1.367 . S
C914 H888 0.950 . S
C914 C909 1.386 1_455 S
C914 C913 1.367 . S
C915 C909 1.483 . S
C915 C916 1.382 . S
C915 C917 1.403 1_655 S
C916 H889 0.950 . S
C916 C902 1.411 . S
C916 C915 1.382 . S
C917 C901 1.411 . S
C917 C915 1.403 1_455 S
C917 C918 1.489 . S
C918 C917 1.489 . S
C918 C919 1.383 1_455 S
C918 C923 1.382 . S
C919 H890 0.950 . S
C919 C918 1.383 1_655 S
C919 C920 1.395 . S
C920 H891 0.950 . S
C920 C919 1.395 . S
C920 C921 1.288 1_655 S
C921 C920 1.288 1_455 S
C921 C922 1.392 . S
C922 H892 0.951 . S
C922 C921 1.392 . S
C922 C923 1.392 . S
C923 H893 0.949 . S
C923 C918 1.382 . S
C923 C922 1.392 . S
H924 C943 0.949 . S
H925 C944 0.950 . S
H926 C946 0.950 . S
H927 C947 0.950 . S
H928 C949 0.950 . S
H929 C952 0.950 . S
H930 C953 0.950 . S
H931 C955 0.951 . S
H932 C956 0.949 . S
H933 C958 0.949 . S
H934 C959 0.950 . S
H935 C961 0.950 . S
H936 C962 0.950 . S
H937 C964 0.950 . S
H938 C967 0.950 . S
H939 C968 0.950 . S
H940 C970 0.951 . S
H941 C971 0.949 . S
C942 C943 1.376 . S
C942 C947 1.386 . S
C942 C948 1.483 . S
C943 H924 0.949 . S
C943 C942 1.376 . S
C943 C944 1.397 . S
C944 H925 0.950 . S
C944 C943 1.397 . S
C944 C945 1.391 . S
C945 C944 1.391 . S
C945 C946 1.405 . S
C946 H926 0.950 . S
C946 C945 1.405 . S
C946 C947 1.367 . S
C947 H927 0.950 . S
C947 C942 1.386 . S
C947 C946 1.367 . S
C948 C942 1.483 . S
C948 C949 1.382 . S
C948 C950 1.403 . S
C949 H928 0.950 . S
C949 C948 1.382 . S
C949 C965 1.411 . S
C950 C948 1.403 . S
C950 C951 1.489 . S
C950 C964 1.411 . S
C951 C950 1.489 . S
C951 C952 1.383 . S
C951 C956 1.382 . S
C952 H929 0.950 . S
C952 C951 1.383 . S
C952 C953 1.395 . S
C953 H930 0.950 . S
C953 C952 1.395 . S
C953 C954 1.288 . S
C954 C953 1.288 . S
C954 C955 1.392 . S
C955 H931 0.951 . S
C955 C954 1.392 . S
C955 C956 1.392 . S
C956 H932 0.949 . S
C956 C951 1.382 . S
C956 C955 1.392 . S
C957 C958 1.376 . S
C957 C962 1.386 . S
C957 C963 1.483 . S
C958 H933 0.949 . S
C958 C957 1.376 . S
C958 C959 1.397 . S
C959 H934 0.950 . S
C959 C958 1.397 . S
C959 C960 1.391 . S
C960 C959 1.391 . S
C960 C961 1.405 . S
C961 H935 0.950 . S
C961 C960 1.405 . S
C961 C962 1.367 . S
C962 H936 0.950 . S
C962 C957 1.386 . S
C962 C961 1.367 . S
C963 C957 1.483 . S
C963 C964 1.382 . S
C963 C965 1.403 . S
C964 H937 0.950 . S
C964 C950 1.411 . S
C964 C963 1.382 . S
C965 C949 1.411 . S
C965 C963 1.403 . S
C965 C966 1.489 . S
C966 C965 1.489 . S
C966 C967 1.383 . S
C966 C971 1.382 . S
C967 H938 0.950 . S
C967 C966 1.383 . S
C967 C968 1.395 . S
C968 H939 0.950 . S
C968 C967 1.395 . S
C968 C969 1.288 . S
C969 C968 1.288 . S
C969 C970 1.392 . S
C970 H940 0.951 . S
C970 C969 1.392 . S
C970 C971 1.392 . S
C971 H941 0.949 . S
C971 C966 1.382 . S
C971 C970 1.392 . S
H972 C991 0.949 . S
H973 C992 0.950 . S
H974 C994 0.950 . S
H975 C995 0.950 . S
H976 C997 0.950 . S
H977 C1000 0.950 . S
H978 C1001 0.950 . S
H979 C1003 0.951 . S
H980 C1004 0.949 . S
H981 C1006 0.949 . S
H982 C1007 0.950 . S
H983 C1009 0.950 . S
H984 C1010 0.950 . S
H985 C1012 0.950 . S
H986 C1015 0.950 . S
H987 C1016 0.950 . S
H988 C1018 0.951 . S
H989 C1019 0.949 . S
C990 C991 1.376 . S
C990 C995 1.386 . S
C990 C996 1.483 . S
C991 H972 0.949 . S
C991 C990 1.376 . S
C991 C992 1.397 . S
C992 H973 0.950 . S
C992 C991 1.397 . S
C992 C993 1.391 . S
C993 C992 1.391 . S
C993 C994 1.405 . S
C994 H974 0.950 . S
C994 C993 1.405 . S
C994 C995 1.367 . S
C995 H975 0.950 . S
C995 C990 1.386 . S
C995 C994 1.367 . S
C996 C990 1.483 . S
C996 C997 1.382 . S
C996 C998 1.403 . S
C997 H976 0.950 . S
C997 C996 1.382 . S
C997 C1013 1.411 . S
C998 C996 1.403 . S
C998 C999 1.489 . S
C998 C1012 1.411 . S
C999 C998 1.489 . S
C999 C1000 1.383 . S
C999 C1004 1.382 . S
C1000 H977 0.950 . S
C1000 C999 1.383 . S
C1000 C1001 1.395 . S
C1001 H978 0.950 . S
C1001 C1000 1.395 . S
C1001 C1002 1.288 . S
C1002 C1001 1.288 . S
C1002 C1003 1.392 . S
C1003 H979 0.951 . S
C1003 C1002 1.392 . S
C1003 C1004 1.392 . S
C1004 H980 0.949 . S
C1004 C999 1.382 . S
C1004 C1003 1.392 . S
C1005 C1006 1.376 . S
C1005 C1010 1.386 . S
C1005 C1011 1.483 . S
C1006 H981 0.949 . S
C1006 C1005 1.376 . S
C1006 C1007 1.397 . S
C1007 H982 0.950 . S
C1007 C1006 1.397 . S
C1007 C1008 1.391 . S
C1008 C1007 1.391 . S
C1008 C1009 1.405 . S
C1009 H983 0.950 . S
C1009 C1008 1.405 . S
C1009 C1010 1.367 . S
C1010 H984 0.950 . S
C1010 C1005 1.386 . S
C1010 C1009 1.367 . S
C1011 C1005 1.483 . S
C1011 C1012 1.382 . S
C1011 C1013 1.403 . S
C1012 H985 0.950 . S
C1012 C998 1.411 . S
C1012 C1011 1.382 . S
C1013 C997 1.411 . S
C1013 C1011 1.403 . S
C1013 C1014 1.489 . S
C1014 C1013 1.489 . S
C1014 C1015 1.383 . S
C1014 C1019 1.382 . S
C1015 H986 0.950 . S
C1015 C1014 1.383 . S
C1015 C1016 1.395 . S
C1016 H987 0.950 . S
C1016 C1015 1.395 . S
C1016 C1017 1.288 . S
C1017 C1016 1.288 . S
C1017 C1018 1.392 . S
C1018 H988 0.951 . S
C1018 C1017 1.392 . S
C1018 C1019 1.392 . S
C1019 H989 0.949 . S
C1019 C1014 1.382 . S
C1019 C1018 1.392 . S
H1020 C1039 0.949 . S
H1021 C1040 0.950 . S
H1022 C1042 0.950 . S
H1023 C1043 0.950 . S
H1024 C1045 0.950 . S
H1025 C1048 0.950 . S
H1026 C1049 0.950 . S
H1027 C1051 0.951 . S
H1028 C1052 0.949 . S
H1029 C1054 0.949 . S
H1030 C1055 0.950 . S
H1031 C1057 0.950 . S
H1032 C1058 0.950 . S
H1033 C1060 0.950 . S
H1034 C1063 0.950 . S
H1035 C1064 0.950 . S
H1036 C1066 0.951 . S
H1037 C1067 0.949 . S
C1038 C1039 1.376 . S
C1038 C1043 1.386 . S
C1038 C1044 1.483 . S
C1039 H1020 0.949 . S
C1039 C1038 1.376 . S
C1039 C1040 1.397 . S
C1040 H1021 0.950 . S
C1040 C1039 1.397 . S
C1040 C1041 1.391 . S
C1041 C1040 1.391 . S
C1041 C1042 1.405 . S
C1042 H1022 0.950 . S
C1042 C1041 1.405 . S
C1042 C1043 1.367 . S
C1043 H1023 0.950 . S
C1043 C1038 1.386 . S
C1043 C1042 1.367 . S
C1044 C1038 1.483 . S
C1044 C1045 1.382 . S
C1044 C1046 1.403 . S
C1045 H1024 0.950 . S
C1045 C1044 1.382 . S
C1045 C1061 1.411 . S
C1046 C1044 1.403 . S
C1046 C1047 1.489 . S
C1046 C1060 1.411 . S
C1047 C1046 1.489 . S
C1047 C1048 1.383 . S
C1047 C1052 1.382 . S
C1048 H1025 0.950 . S
C1048 C1047 1.383 . S
C1048 C1049 1.395 . S
C1049 H1026 0.950 . S
C1049 C1048 1.395 . S
C1049 C1050 1.288 . S
C1050 C1049 1.288 . S
C1050 C1051 1.392 . S
C1051 H1027 0.951 . S
C1051 C1050 1.392 . S
C1051 C1052 1.392 . S
C1052 H1028 0.949 . S
C1052 C1047 1.382 . S
C1052 C1051 1.392 . S
C1053 C1054 1.376 . S
C1053 C1058 1.386 . S
C1053 C1059 1.483 . S
C1054 H1029 0.949 . S
C1054 C1053 1.376 . S
C1054 C1055 1.397 . S
C1055 H1030 0.950 . S
C1055 C1054 1.397 . S
C1055 C1056 1.391 . S
C1056 C1055 1.391 . S
C1056 C1057 1.405 . S
C1057 H1031 0.950 . S
C1057 C1056 1.405 . S
C1057 C1058 1.367 . S
C1058 H1032 0.950 . S
C1058 C1053 1.386 . S
C1058 C1057 1.367 . S
C1059 C1053 1.483 . S
C1059 C1060 1.382 . S
C1059 C1061 1.403 . S
C1060 H1033 0.950 . S
C1060 C1046 1.411 . S
C1060 C1059 1.382 . S
C1061 C1045 1.411 . S
C1061 C1059 1.403 . S
C1061 C1062 1.489 . S
C1062 C1061 1.489 . S
C1062 C1063 1.383 . S
C1062 C1067 1.382 . S
C1063 H1034 0.950 . S
C1063 C1062 1.383 . S
C1063 C1064 1.395 . S
C1064 H1035 0.950 . S
C1064 C1063 1.395 . S
C1064 C1065 1.288 . S
C1065 C1064 1.288 . S
C1065 C1066 1.392 . S
C1066 H1036 0.951 . S
C1066 C1065 1.392 . S
C1066 C1067 1.392 . S
C1067 H1037 0.949 . S
C1067 C1062 1.382 . S
C1067 C1066 1.392 . S
H1068 C1087 0.949 . S
H1069 C1088 0.950 . S
H1070 C1090 0.950 . S
H1071 C1091 0.950 . S
H1072 C1093 0.950 . S
H1073 C1096 0.950 . S
H1074 C1097 0.950 . S
H1075 C1099 0.951 . S
H1076 C1100 0.949 . S
H1077 C1102 0.949 . S
H1078 C1103 0.950 . S
H1079 C1105 0.950 . S
H1080 C1106 0.950 . S
H1081 C1108 0.950 . S
H1082 C1111 0.950 . S
H1083 C1112 0.950 . S
H1084 C1114 0.951 . S
H1085 C1115 0.949 . S
C1086 C1087 1.376 . S
C1086 C1091 1.386 . S
C1086 C1092 1.483 . S
C1087 H1068 0.949 . S
C1087 C1086 1.376 . S
C1087 C1088 1.397 . S
C1088 H1069 0.950 . S
C1088 C1087 1.397 . S
C1088 C1089 1.391 . S
C1089 C1088 1.391 . S
C1089 C1090 1.405 . S
C1090 H1070 0.950 . S
C1090 C1089 1.405 . S
C1090 C1091 1.367 . S
C1091 H1071 0.950 . S
C1091 C1086 1.386 . S
C1091 C1090 1.367 . S
C1092 C1086 1.483 . S
C1092 C1093 1.382 . S
C1092 C1094 1.403 . S
C1093 H1072 0.950 . S
C1093 C1092 1.382 . S
C1093 C1109 1.411 . S
C1094 C1092 1.403 . S
C1094 C1095 1.489 . S
C1094 C1108 1.411 . S
C1095 C1094 1.489 . S
C1095 C1096 1.383 . S
C1095 C1100 1.382 . S
C1096 H1073 0.950 . S
C1096 C1095 1.383 . S
C1096 C1097 1.395 . S
C1097 H1074 0.950 . S
C1097 C1096 1.395 . S
C1097 C1098 1.288 . S
C1098 C1097 1.288 . S
C1098 C1099 1.392 . S
C1099 H1075 0.951 . S
C1099 C1098 1.392 . S
C1099 C1100 1.392 . S
C1100 H1076 0.949 . S
C1100 C1095 1.382 . S
C1100 C1099 1.392 . S
C1101 C1102 1.376 . S
C1101 C1106 1.386 . S
C1101 C1107 1.483 . S
C1102 H1077 0.949 . S
C1102 C1101 1.376 . S
C1102 C1103 1.397 . S
C1103 H1078 0.950 . S
C1103 C1102 1.397 . S
C1103 C1104 1.391 . S
C1104 C1103 1.391 . S
C1104 C1105 1.405 . S
C1105 H1079 0.950 . S
C1105 C1104 1.405 . S
C1105 C1106 1.367 . S
C1106 H1080 0.950 . S
C1106 C1101 1.386 . S
C1106 C1105 1.367 . S
C1107 C1101 1.483 . S
C1107 C1108 1.382 . S
C1107 C1109 1.403 . S
C1108 H1081 0.950 . S
C1108 C1094 1.411 . S
C1108 C1107 1.382 . S
C1109 C1093 1.411 . S
C1109 C1107 1.403 . S
C1109 C1110 1.489 . S
C1110 C1109 1.489 . S
C1110 C1111 1.383 . S
C1110 C1115 1.382 . S
C1111 H1082 0.950 . S
C1111 C1110 1.383 . S
C1111 C1112 1.395 . S
C1112 H1083 0.950 . S
C1112 C1111 1.395 . S
C1112 C1113 1.288 . S
C1113 C1112 1.288 . S
C1113 C1114 1.392 . S
C1114 H1084 0.951 . S
C1114 C1113 1.392 . S
C1114 C1115 1.392 . S
C1115 H1085 0.949 . S
C1115 C1110 1.382 . S
C1115 C1114 1.392 . S
H1116 C1134 0.951 . S
H1117 C1136 0.951 . S
H1118 C1138 0.950 . S
H1119 C1139 0.950 . S
H1120 C1141 0.950 . S
H1121 C1144 0.950 . S
H1122 C1145 0.950 . S
H1123 C1147 0.950 . S
H1124 C1148 0.950 . S
H1125 C1149 0.951 . S
H1126 C1151 0.951 . S
H1127 C1153 0.950 . S
H1128 C1154 0.950 . S
H1129 C1156 0.950 . S
H1130 C1159 0.950 . S
H1131 C1160 0.950 . S
H1132 C1162 0.950 . S
H1133 C1163 0.950 . S
C1134 H1116 0.951 . S
C1134 C1135 1.372 1_655 S
C1134 C1136 1.388 . S
C1135 C1134 1.372 1_455 S
C1135 C1139 1.381 . S
C1136 H1117 0.951 . S
C1136 C1134 1.388 . S
C1136 C1137 1.371 1_655 S
C1137 C1136 1.371 1_455 S
C1137 C1138 1.405 . S
C1137 C1140 1.504 . S
C1138 H1118 0.950 . S
C1138 C1137 1.405 . S
C1138 C1139 1.374 . S
C1139 H1119 0.950 . S
C1139 C1135 1.381 . S
C1139 C1138 1.374 . S
C1140 C1137 1.504 . S
C1140 C1141 1.374 . S
C1140 C1142 1.386 1_455 S
C1141 H1120 0.950 . S
C1141 C1140 1.374 . S
C1141 C1157 1.380 . S
C1142 C1140 1.386 1_655 S
C1142 C1143 1.524 . S
C1142 C1156 1.377 . S
C1143 C1142 1.524 . S
C1143 C1144 1.397 1_655 S
C1143 C1148 1.363 . S
C1144 H1121 0.950 . S
C1144 C1143 1.397 1_455 S
C1144 C1145 1.334 . S
C1145 H1122 0.950 . S
C1145 C1144 1.334 . S
C1145 C1146 1.340 . S
C1146 C1145 1.340 . S
C1146 C1147 1.473 1_455 S
C1146 H1165 0.917 . S
C1147 H1123 0.950 . S
C1147 C1146 1.473 1_655 S
C1147 C1148 1.415 . S
C1148 H1124 0.950 . S
C1148 C1143 1.363 . S
C1148 C1147 1.415 . S
C1149 H1125 0.951 . S
C1149 C1150 1.366 1_455 S
C1149 C1151 1.388 . S
C1150 C1149 1.366 1_655 S
C1150 C1154 1.385 . S
C1151 H1126 0.951 . S
C1151 C1149 1.388 . S
C1151 C1152 1.366 1_455 S
C1152 C1151 1.366 1_655 S
C1152 C1153 1.414 . S
C1152 C1155 1.499 . S
C1153 H1127 0.950 . S
C1153 C1152 1.414 . S
C1153 C1154 1.374 . S
C1154 H1128 0.950 . S
C1154 C1150 1.385 . S
C1154 C1153 1.374 . S
C1155 C1152 1.499 . S
C1155 C1156 1.373 . S
C1155 C1157 1.384 1_655 S
C1156 H1129 0.950 . S
C1156 C1142 1.377 . S
C1156 C1155 1.373 . S
C1157 C1141 1.380 . S
C1157 C1155 1.384 1_455 S
C1157 C1158 1.520 . S
C1158 C1157 1.520 . S
C1158 C1159 1.365 1_455 S
C1158 C1163 1.398 . S
C1159 H1130 0.950 . S
C1159 C1158 1.365 1_655 S
C1159 C1160 1.334 . S
C1160 H1131 0.950 . S
C1160 C1159 1.334 . S
C1160 C1161 1.287 . S
C1161 C1160 1.287 . S
C1161 C1162 1.524 1_655 S
C1161 H1164 0.999 . S
C1162 H1132 0.950 . S
C1162 C1161 1.524 1_455 S
C1162 C1163 1.415 . S
C1163 H1133 0.950 . S
C1163 C1158 1.398 . S
C1163 C1162 1.415 . S
H1164 C1161 0.999 . S
H1165 C1146 0.917 . S
H1166 C1184 0.951 . S
H1167 C1186 0.951 . S
H1168 C1188 0.950 . S
H1169 C1189 0.950 . S
H1170 C1191 0.950 . S
H1171 C1194 0.950 . S
H1172 C1195 0.950 . S
H1173 C1197 0.950 . S
H1174 C1198 0.950 . S
H1175 C1199 0.951 . S
H1176 C1201 0.951 . S
H1177 C1203 0.950 . S
H1178 C1204 0.950 . S
H1179 C1206 0.950 . S
H1180 C1209 0.950 . S
H1181 C1210 0.950 . S
H1182 C1212 0.950 . S
H1183 C1213 0.950 . S
C1184 H1166 0.951 . S
C1184 C1185 1.366 . S
C1184 C1186 1.388 . S
C1185 C1184 1.366 . S
C1185 C1189 1.385 . S
C1186 H1167 0.951 . S
C1186 C1184 1.388 . S
C1186 C1187 1.366 . S
C1187 C1186 1.366 . S
C1187 C1188 1.414 . S
C1187 C1190 1.499 . S
C1188 H1168 0.950 . S
C1188 C1187 1.414 . S
C1188 C1189 1.374 . S
C1189 H1169 0.950 . S
C1189 C1185 1.385 . S
C1189 C1188 1.374 . S
C1190 C1187 1.499 . S
C1190 C1191 1.373 . S
C1190 C1192 1.389 . S
C1191 H1170 0.950 . S
C1191 C1190 1.373 . S
C1191 C1207 1.377 . S
C1192 C1190 1.389 . S
C1192 C1193 1.524 . S
C1192 C1206 1.377 . S
C1193 C1192 1.524 . S
C1193 C1194 1.397 . S
C1193 C1198 1.363 . S
C1194 H1171 0.950 . S
C1194 C1193 1.397 . S
C1194 C1195 1.334 . S
C1195 H1172 0.950 . S
C1195 C1194 1.334 . S
C1195 C1196 1.287 . S
C1196 C1195 1.287 . S
C1196 C1197 1.524 . S
C1196 H1215 0.913 . S
C1197 H1173 0.950 . S
C1197 C1196 1.524 . S
C1197 C1198 1.415 . S
C1198 H1174 0.950 . S
C1198 C1193 1.363 . S
C1198 C1197 1.415 . S
C1199 H1175 0.951 . S
C1199 C1200 1.366 . S
C1199 C1201 1.388 . S
C1200 C1199 1.366 . S
C1200 C1204 1.385 . S
C1201 H1176 0.951 . S
C1201 C1199 1.388 . S
C1201 C1202 1.366 . S
C1202 C1201 1.366 . S
C1202 C1203 1.414 . S
C1202 C1205 1.499 . S
C1203 H1177 0.950 . S
C1203 C1202 1.414 . S
C1203 C1204 1.374 . S
C1204 H1178 0.950 . S
C1204 C1200 1.385 . S
C1204 C1203 1.374 . S
C1205 C1202 1.499 . S
C1205 C1206 1.373 . S
C1205 C1207 1.389 . S
C1206 H1179 0.950 . S
C1206 C1192 1.377 . S
C1206 C1205 1.373 . S
C1207 C1191 1.377 . S
C1207 C1205 1.389 . S
C1207 C1208 1.524 . S
C1208 C1207 1.524 . S
C1208 C1209 1.397 . S
C1208 C1213 1.363 . S
C1209 H1180 0.950 . S
C1209 C1208 1.397 . S
C1209 C1210 1.334 . S
C1210 H1181 0.950 . S
C1210 C1209 1.334 . S
C1210 C1211 1.287 . S
C1211 C1210 1.287 . S
C1211 C1212 1.524 . S
C1211 H1214 0.999 . S
C1212 H1182 0.950 . S
C1212 C1211 1.524 . S
C1212 C1213 1.415 . S
C1213 H1183 0.950 . S
C1213 C1208 1.363 . S
C1213 C1212 1.415 . S
H1214 C1211 0.999 . S
H1215 C1196 0.913 . S
H1216 C1234 0.951 . S
H1217 C1236 0.958 . S
H1218 C1238 0.950 . S
H1219 C1239 0.950 . S
H1220 C1241 0.950 . S
H1221 C1244 0.950 . S
H1222 C1245 0.950 . S
H1223 C1247 0.950 . S
H1224 C1248 0.950 . S
H1225 C1249 0.951 . S
H1226 C1251 0.951 . S
H1227 C1253 0.950 . S
H1228 C1254 0.962 . S
H1229 C1256 0.950 . S
H1230 C1259 0.950 . S
H1231 C1260 0.950 . S
H1232 C1262 0.950 . S
H1233 C1263 0.950 . S
C1234 H1216 0.951 . S
C1234 C1235 1.366 1_565 S
C1234 C1236 1.367 . S
C1235 C1234 1.366 1_545 S
C1235 C1239 1.385 . S
C1236 H1217 0.958 . S
C1236 C1234 1.367 . S
C1236 C1237 1.384 1_565 S
C1237 C1236 1.384 1_545 S
C1237 C1238 1.414 . S
C1237 C1240 1.499 . S
C1238 H1218 0.950 . S
C1238 C1237 1.414 . S
C1238 C1239 1.374 . S
C1239 H1219 0.950 . S
C1239 C1235 1.385 . S
C1239 C1238 1.374 . S
C1240 C1237 1.499 . S
C1240 C1241 1.373 1_545 S
C1240 C1242 1.389 . S
C1241 H1220 0.950 . S
C1241 C1240 1.373 1_565 S
C1241 C1257 1.377 . S
C1242 C1240 1.389 . S
C1242 C1243 1.524 . S
C1242 C1256 1.377 . S
C1243 C1242 1.524 . S
C1243 C1244 1.397 . S
C1243 C1248 1.363 . S
C1244 H1221 0.950 . S
C1244 C1243 1.397 . S
C1244 C1245 1.334 . S
C1245 H1222 0.950 . S
C1245 C1244 1.334 . S
C1245 C1246 1.287 . S
C1246 C1245 1.287 . S
C1246 C1247 1.524 . S
C1246 H1265 0.913 . S
C1247 H1223 0.950 . S
C1247 C1246 1.524 . S
C1247 C1248 1.415 . S
C1248 H1224 0.950 . S
C1248 C1243 1.363 . S
C1248 C1247 1.415 . S
C1249 H1225 0.951 . S
C1249 C1250 1.366 . S
C1249 C1251 1.388 . S
C1250 C1249 1.366 . S
C1250 C1254 1.412 1_545 S
C1251 H1226 0.951 . S
C1251 C1249 1.388 . S
C1251 C1252 1.366 . S
C1252 C1251 1.366 . S
C1252 C1253 1.414 1_545 S
C1252 C1255 1.466 . S
C1253 H1227 0.950 . S
C1253 C1252 1.414 1_565 S
C1253 C1254 1.344 . S
C1254 H1228 0.962 . S
C1254 C1250 1.412 1_565 S
C1254 C1253 1.344 . S
C1255 C1252 1.466 . S
C1255 C1256 1.454 . S
C1255 C1257 1.353 1_545 S
C1256 H1229 0.950 . S
C1256 C1242 1.377 . S
C1256 C1255 1.454 . S
C1257 C1241 1.377 . S
C1257 C1255 1.353 1_565 S
C1257 C1258 1.524 . S
C1258 C1257 1.524 . S
C1258 C1259 1.397 . S
C1258 C1263 1.363 . S
C1259 H1230 0.950 . S
C1259 C1258 1.397 . S
C1259 C1260 1.334 . S
C1260 H1231 0.950 . S
C1260 C1259 1.334 . S
C1260 C1261 1.287 . S
C1261 C1260 1.287 . S
C1261 C1262 1.524 . S
C1261 H1264 0.999 . S
C1262 H1232 0.950 . S
C1262 C1261 1.524 . S
C1262 C1263 1.415 . S
C1263 H1233 0.950 . S
C1263 C1258 1.363 . S
C1263 C1262 1.415 . S
H1264 C1261 0.999 . S
H1265 C1246 0.913 . S
H1266 C1284 0.951 . S
H1267 C1286 0.951 . S
H1268 C1288 0.950 . S
H1269 C1289 0.950 . S
H1270 C1291 0.950 . S
H1271 C1294 0.950 . S
H1272 C1295 0.950 . S
H1273 C1297 0.950 . S
H1274 C1298 0.950 1_545 S
H1275 C1299 0.951 . S
H1276 C1301 0.951 . S
H1277 C1303 0.950 . S
H1278 C1304 0.950 . S
H1279 C1306 0.950 . S
H1280 C1309 0.950 . S
H1281 C1310 0.950 . S
H1282 C1312 0.950 . S
H1283 C1313 0.920 1_565 S
C1284 H1266 0.951 . S
C1284 C1285 1.364 . S
C1284 C1286 1.388 . S
C1285 C1284 1.364 . S
C1285 C1289 1.388 1_545 S
C1286 H1267 0.951 . S
C1286 C1284 1.388 . S
C1286 C1287 1.366 1_545 S
C1287 C1286 1.366 1_565 S
C1287 C1288 1.414 . S
C1287 C1290 1.499 . S
C1288 H1268 0.950 . S
C1288 C1287 1.414 . S
C1288 C1289 1.374 . S
C1289 H1269 0.950 . S
C1289 C1285 1.388 1_565 S
C1289 C1288 1.374 . S
C1290 C1287 1.499 . S
C1290 C1291 1.373 1_565 S
C1290 C1292 1.389 . S
C1291 H1270 0.950 . S
C1291 C1290 1.373 1_545 S
C1291 C1307 1.377 . S
C1292 C1290 1.389 . S
C1292 C1293 1.524 . S
C1292 C1306 1.377 . S
C1293 C1292 1.524 . S
C1293 C1294 1.397 . S
C1293 C1298 1.363 . S
C1294 H1271 0.950 . S
C1294 C1293 1.397 . S
C1294 C1295 1.334 . S
C1295 H1272 0.950 . S
C1295 C1294 1.334 . S
C1295 C1296 1.287 . S
C1296 C1295 1.287 . S
C1296 C1297 1.524 . S
C1296 H1315 0.913 . S
C1297 H1273 0.950 . S
C1297 C1296 1.524 . S
C1297 C1298 1.415 . S
C1298 H1274 0.950 1_565 S
C1298 C1293 1.363 . S
C1298 C1297 1.415 . S
C1299 H1275 0.951 . S
C1299 C1300 1.366 . S
C1299 C1301 1.388 . S
C1300 C1299 1.366 . S
C1300 C1304 1.385 1_565 S
C1301 H1276 0.951 . S
C1301 C1299 1.388 . S
C1301 C1302 1.430 . S
C1302 C1301 1.430 . S
C1302 C1303 1.384 1_565 S
C1302 C1305 1.474 . S
C1303 H1277 0.950 . S
C1303 C1302 1.384 1_545 S
C1303 C1304 1.374 . S
C1304 H1278 0.950 . S
C1304 C1300 1.385 1_545 S
C1304 C1303 1.374 . S
C1305 C1302 1.474 . S
C1305 C1306 1.370 . S
C1305 C1307 1.388 1_565 S
C1306 H1279 0.950 . S
C1306 C1292 1.377 . S
C1306 C1305 1.370 . S
C1307 C1291 1.377 . S
C1307 C1305 1.388 1_545 S
C1307 C1308 1.524 . S
C1308 C1307 1.524 . S
C1308 C1309 1.397 . S
C1308 C1313 1.409 . S
C1309 H1280 0.950 . S
C1309 C1308 1.397 . S
C1309 C1310 1.334 . S
C1310 H1281 0.950 . S
C1310 C1309 1.334 . S
C1310 C1311 1.287 . S
C1311 C1310 1.287 . S
C1311 C1312 1.524 . S
C1311 H1314 0.999 . S
C1312 H1282 0.950 . S
C1312 C1311 1.524 . S
C1312 C1313 1.406 . S
C1313 H1283 0.920 1_545 S
C1313 C1308 1.409 . S
C1313 C1312 1.406 . S
H1314 C1311 0.999 . S
H1315 C1296 0.913 . S
H1316 C1334 0.951 . S
H1317 C1336 0.951 . S
H1318 C1338 0.950 . S
H1319 C1339 0.950 . S
H1320 C1341 0.950 . S
H1321 C1344 0.950 . S
H1322 C1345 0.950 . S
H1323 C1347 0.950 1_554 S
H1324 C1348 0.950 1_455 S
H1325 C1349 0.951 . S
H1326 C1351 0.951 . S
H1327 C1353 0.950 . S
H1328 C1354 0.950 . S
H1329 C1356 1.012 . S
H1330 C1359 0.950 . S
H1331 C1360 0.950 . S
H1332 C1362 0.950 . S
H1333 C1363 0.950 1_655 S
C1334 H1316 0.951 . S
C1334 C1335 1.366 . S
C1334 C1336 1.388 . S
C1335 C1334 1.366 . S
C1335 C1339 1.385 1_455 S
C1336 H1317 0.951 . S
C1336 C1334 1.388 . S
C1336 C1337 1.366 . S
C1337 C1336 1.366 . S
C1337 C1338 1.414 1_455 S
C1337 C1340 1.533 . S
C1338 H1318 0.950 . S
C1338 C1337 1.414 1_655 S
C1338 C1339 1.374 . S
C1339 H1319 0.950 . S
C1339 C1335 1.385 1_655 S
C1339 C1338 1.374 . S
C1340 C1337 1.533 . S
C1340 C1341 1.401 . S
C1340 C1342 1.338 1_455 S
C1341 H1320 0.950 . S
C1341 C1340 1.401 . S
C1341 C1357 1.377 . S
C1342 C1340 1.338 1_655 S
C1342 C1343 1.524 . S
C1342 C1356 1.349 . S
C1343 C1342 1.524 . S
C1343 C1344 1.397 . S
C1343 C1348 1.363 . S
C1344 H1321 0.950 . S
C1344 C1343 1.397 . S
C1344 C1345 1.334 . S
C1345 H1322 0.950 . S
C1345 C1344 1.334 . S
C1345 C1346 1.287 . S
C1346 C1345 1.287 . S
C1346 C1347 1.524 . S
C1346 H1365 0.913 1_556 S
C1347 H1323 0.950 1_556 S
C1347 C1346 1.524 . S
C1347 C1348 1.415 . S
C1348 H1324 0.950 1_655 S
C1348 C1343 1.363 . S
C1348 C1347 1.415 . S
C1349 H1325 0.951 . S
C1349 C1350 1.366 1_655 S
C1349 C1351 1.388 . S
C1350 C1349 1.366 1_455 S
C1350 C1354 1.385 . S
C1351 H1326 0.951 . S
C1351 C1349 1.388 . S
C1351 C1352 1.366 1_655 S
C1352 C1351 1.366 1_455 S
C1352 C1353 1.414 . S
C1352 C1355 1.499 . S
C1353 H1327 0.950 . S
C1353 C1352 1.414 . S
C1353 C1354 1.374 . S
C1354 H1328 0.950 . S
C1354 C1350 1.385 . S
C1354 C1353 1.374 . S
C1355 C1352 1.499 . S
C1355 C1356 1.348 1_455 S
C1355 C1357 1.389 . S
C1356 H1329 1.012 . S
C1356 C1342 1.349 . S
C1356 C1355 1.348 1_655 S
C1357 C1341 1.377 . S
C1357 C1355 1.389 . S
C1357 C1358 1.524 . S
C1358 C1357 1.524 . S
C1358 C1359 1.397 . S
C1358 C1363 1.363 . S
C1359 H1330 0.950 . S
C1359 C1358 1.397 . S
C1359 C1360 1.334 . S
C1360 H1331 0.950 . S
C1360 C1359 1.334 . S
C1360 C1361 1.287 . S
C1361 C1360 1.287 . S
C1361 C1362 1.524 . S
C1361 H1364 0.999 . S
C1362 H1332 0.950 . S
C1362 C1361 1.524 . S
C1362 C1363 1.415 . S
C1363 H1333 0.950 1_455 S
C1363 C1358 1.363 . S
C1363 C1362 1.415 . S
H1364 C1361 0.999 . S
H1365 C1346 0.913 1_554 S
H1366 C1384 0.951 . S
H1367 C1386 0.951 . S
H1368 C1388 0.950 . S
H1369 C1389 0.950 . S
H1370 C1391 0.950 . S
H1371 C1394 0.950 . S
H1372 C1395 0.950 . S
H1373 C1397 0.950 . S
H1374 C1398 0.950 . S
H1375 C1399 0.951 . S
H1376 C1401 0.951 . S
H1377 C1403 0.950 . S
H1378 C1404 0.950 . S
H1379 C1406 0.950 . S
H1380 C1409 0.950 . S
H1381 C1410 0.950 . S
H1382 C1412 0.950 . S
H1383 C1413 0.950 . S
C1384 H1366 0.951 . S
C1384 C1385 1.366 . S
C1384 C1386 1.388 . S
C1385 C1384 1.366 . S
C1385 C1389 1.385 . S
C1386 H1367 0.951 . S
C1386 C1384 1.388 . S
C1386 C1387 1.366 . S
C1387 C1386 1.366 . S
C1387 C1388 1.414 . S
C1387 C1390 1.499 . S
C1388 H1368 0.950 . S
C1388 C1387 1.414 . S
C1388 C1389 1.374 . S
C1389 H1369 0.950 . S
C1389 C1385 1.385 . S
C1389 C1388 1.374 . S
C1390 C1387 1.499 . S
C1390 C1391 1.373 . S
C1390 C1392 1.389 . S
C1391 H1370 0.950 . S
C1391 C1390 1.373 . S
C1391 C1407 1.377 . S
C1392 C1390 1.389 . S
C1392 C1393 1.524 . S
C1392 C1406 1.377 . S
C1393 C1392 1.524 . S
C1393 C1394 1.397 . S
C1393 C1398 1.363 . S
C1394 H1371 0.950 . S
C1394 C1393 1.397 . S
C1394 C1395 1.334 . S
C1395 H1372 0.950 . S
C1395 C1394 1.334 . S
C1395 C1396 1.287 . S
C1396 C1395 1.287 . S
C1396 C1397 1.524 . S
C1396 H1415 0.913 . S
C1397 H1373 0.950 . S
C1397 C1396 1.524 . S
C1397 C1398 1.415 . S
C1398 H1374 0.950 . S
C1398 C1393 1.363 . S
C1398 C1397 1.415 . S
C1399 H1375 0.951 . S
C1399 C1400 1.366 . S
C1399 C1401 1.388 . S
C1400 C1399 1.366 . S
C1400 C1404 1.385 . S
C1401 H1376 0.951 . S
C1401 C1399 1.388 . S
C1401 C1402 1.366 . S
C1402 C1401 1.366 . S
C1402 C1403 1.414 . S
C1402 C1405 1.499 . S
C1403 H1377 0.950 . S
C1403 C1402 1.414 . S
C1403 C1404 1.374 . S
C1404 H1378 0.950 . S
C1404 C1400 1.385 . S
C1404 C1403 1.374 . S
C1405 C1402 1.499 . S
C1405 C1406 1.373 . S
C1405 C1407 1.389 . S
C1406 H1379 0.950 . S
C1406 C1392 1.377 . S
C1406 C1405 1.373 . S
C1407 C1391 1.377 . S
C1407 C1405 1.389 . S
C1407 C1408 1.524 . S
C1408 C1407 1.524 . S
C1408 C1409 1.397 . S
C1408 C1413 1.363 . S
C1409 H1380 0.950 . S
C1409 C1408 1.397 . S
C1409 C1410 1.334 . S
C1410 H1381 0.950 . S
C1410 C1409 1.334 . S
C1410 C1411 1.287 . S
C1411 C1410 1.287 . S
C1411 C1412 1.524 . S
C1411 H1414 0.999 . S
C1412 H1382 0.950 . S
C1412 C1411 1.524 . S
C1412 C1413 1.415 . S
C1413 H1383 0.950 . S
C1413 C1408 1.363 . S
C1413 C1412 1.415 . S
H1414 C1411 0.999 . S
H1415 C1396 0.913 . S
H1416 C1434 0.951 . S
H1417 C1436 0.951 . S
H1418 C1438 0.950 . S
H1419 C1439 0.950 . S
H1420 C1441 0.950 . S
H1421 C1444 0.950 1_655 S
H1422 C1445 0.950 . S
H1423 C1447 0.950 . S
H1424 C1448 0.950 . S
H1425 C1449 0.951 . S
H1426 C1451 0.951 . S
H1427 C1453 0.950 . S
H1428 C1454 0.950 . S
H1429 C1456 0.950 . S
H1430 C1459 0.925 1_455 S
H1431 C1460 0.950 1_455 S
H1432 C1462 0.950 . S
H1433 C1463 0.950 . S
C1434 H1416 0.951 . S
C1434 C1435 1.445 . S
C1434 C1436 1.388 . S
C1435 C1434 1.445 . S
C1435 C1439 1.343 1_455 S
C1436 H1417 0.951 . S
C1436 C1434 1.388 . S
C1436 C1437 1.416 . S
C1437 C1436 1.416 . S
C1437 C1438 1.329 1_455 S
C1437 C1440 1.510 . S
C1438 H1418 0.950 . S
C1438 C1437 1.329 1_655 S
C1438 C1439 1.374 . S
C1439 H1419 0.950 . S
C1439 C1435 1.343 1_655 S
C1439 C1438 1.374 . S
C1440 C1437 1.510 . S
C1440 C1441 1.381 1_455 S
C1440 C1442 1.416 . S
C1441 H1420 0.950 . S
C1441 C1440 1.381 1_655 S
C1441 C1457 1.377 . S
C1442 C1440 1.416 . S
C1442 C1443 1.524 . S
C1442 C1456 1.377 . S
C1443 C1442 1.524 . S
C1443 C1444 1.397 . S
C1443 C1448 1.363 . S
C1444 H1421 0.950 1_455 S
C1444 C1443 1.397 . S
C1444 C1445 1.334 . S
C1445 H1422 0.950 . S
C1445 C1444 1.334 . S
C1445 C1446 1.287 . S
C1446 C1445 1.287 . S
C1446 C1447 1.524 . S
C1446 H1465 0.913 . S
C1447 H1423 0.950 . S
C1447 C1446 1.524 . S
C1447 C1448 1.415 . S
C1448 H1424 0.950 . S
C1448 C1443 1.363 . S
C1448 C1447 1.415 . S
C1449 H1425 0.951 . S
C1449 C1450 1.366 1_655 S
C1449 C1451 1.388 . S
C1450 C1449 1.366 1_455 S
C1450 C1454 1.385 . S
C1451 H1426 0.951 . S
C1451 C1449 1.388 . S
C1451 C1452 1.366 1_655 S
C1452 C1451 1.366 1_455 S
C1452 C1453 1.414 . S
C1452 C1455 1.499 . S
C1453 H1427 0.950 . S
C1453 C1452 1.414 . S
C1453 C1454 1.374 . S
C1454 H1428 0.950 . S
C1454 C1450 1.385 . S
C1454 C1453 1.374 . S
C1455 C1452 1.499 . S
C1455 C1456 1.373 . S
C1455 C1457 1.389 1_455 S
C1456 H1429 0.950 . S
C1456 C1442 1.377 . S
C1456 C1455 1.373 . S
C1457 C1441 1.377 . S
C1457 C1455 1.389 1_655 S
C1457 C1458 1.524 . S
C1458 C1457 1.524 . S
C1458 C1459 1.428 . S
C1458 C1463 1.363 . S
C1459 H1430 0.925 1_655 S
C1459 C1458 1.428 . S
C1459 C1460 1.328 . S
C1460 H1431 0.950 1_655 S
C1460 C1459 1.328 . S
C1460 C1461 1.287 . S
C1461 C1460 1.287 . S
C1461 C1462 1.524 . S
C1461 H1464 0.999 . S
C1462 H1432 0.950 . S
C1462 C1461 1.524 . S
C1462 C1463 1.415 . S
C1463 H1433 0.950 . S
C1463 C1458 1.363 . S
C1463 C1462 1.415 . S
H1464 C1461 0.999 . S
H1465 C1446 0.913 . S
H1466 C1484 0.951 . S
H1467 C1486 0.951 . S
H1468 C1488 0.950 . S
H1469 C1489 0.950 . S
H1470 C1491 0.950 . S
H1471 C1494 0.950 . S
H1472 C1495 0.950 . S
H1473 C1497 0.950 . S
H1474 C1498 0.950 . S
H1475 C1499 0.951 . S
H1476 C1501 0.951 . S
H1477 C1503 0.950 . S
H1478 C1504 0.950 . S
H1479 C1506 0.950 . S
H1480 C1509 0.950 . S
H1481 C1510 0.950 . S
H1482 C1512 0.950 . S
H1483 C1513 0.950 . S
C1484 H1466 0.951 . S
C1484 C1485 1.366 . S
C1484 C1486 1.388 . S
C1485 C1484 1.366 . S
C1485 C1489 1.385 . S
C1486 H1467 0.951 . S
C1486 C1484 1.388 . S
C1486 C1487 1.366 . S
C1487 C1486 1.366 . S
C1487 C1488 1.414 . S
C1487 C1490 1.499 . S
C1488 H1468 0.950 . S
C1488 C1487 1.414 . S
C1488 C1489 1.374 . S
C1489 H1469 0.950 . S
C1489 C1485 1.385 . S
C1489 C1488 1.374 . S
C1490 C1487 1.499 . S
C1490 C1491 1.373 . S
C1490 C1492 1.389 . S
C1491 H1470 0.950 . S
C1491 C1490 1.373 . S
C1491 C1507 1.377 . S
C1492 C1490 1.389 . S
C1492 C1493 1.524 . S
C1492 C1506 1.377 . S
C1493 C1492 1.524 . S
C1493 C1494 1.397 . S
C1493 C1498 1.363 . S
C1494 H1471 0.950 . S
C1494 C1493 1.397 . S
C1494 C1495 1.334 . S
C1495 H1472 0.950 . S
C1495 C1494 1.334 . S
C1495 C1496 1.287 . S
C1496 C1495 1.287 . S
C1496 C1497 1.524 . S
C1496 H1515 0.913 . S
C1497 H1473 0.950 . S
C1497 C1496 1.524 . S
C1497 C1498 1.415 . S
C1498 H1474 0.950 . S
C1498 C1493 1.363 . S
C1498 C1497 1.415 . S
C1499 H1475 0.951 . S
C1499 C1500 1.366 . S
C1499 C1501 1.388 . S
C1500 C1499 1.366 . S
C1500 C1504 1.385 . S
C1501 H1476 0.951 . S
C1501 C1499 1.388 . S
C1501 C1502 1.366 . S
C1502 C1501 1.366 . S
C1502 C1503 1.414 . S
C1502 C1505 1.499 . S
C1503 H1477 0.950 . S
C1503 C1502 1.414 . S
C1503 C1504 1.374 . S
C1504 H1478 0.950 . S
C1504 C1500 1.385 . S
C1504 C1503 1.374 . S
C1505 C1502 1.499 . S
C1505 C1506 1.373 . S
C1505 C1507 1.389 . S
C1506 H1479 0.950 . S
C1506 C1492 1.377 . S
C1506 C1505 1.373 . S
C1507 C1491 1.377 . S
C1507 C1505 1.389 . S
C1507 C1508 1.524 . S
C1508 C1507 1.524 . S
C1508 C1509 1.397 . S
C1508 C1513 1.363 . S
C1509 H1480 0.950 . S
C1509 C1508 1.397 . S
C1509 C1510 1.334 . S
C1510 H1481 0.950 . S
C1510 C1509 1.334 . S
C1510 C1511 1.287 . S
C1511 C1510 1.287 . S
C1511 C1512 1.524 . S
C1511 H1514 0.999 . S
C1512 H1482 0.950 . S
C1512 C1511 1.524 . S
C1512 C1513 1.415 . S
C1513 H1483 0.950 . S
C1513 C1508 1.363 . S
C1513 C1512 1.415 . S
H1514 C1511 0.999 . S
H1515 C1496 0.913 . S
H1516 C1534 0.951 . S
H1517 C1536 0.951 . S
H1518 C1538 0.950 . S
H1519 C1539 0.950 . S
H1520 C1541 0.950 . S
H1521 C1544 0.950 . S
H1522 C1545 0.950 . S
H1523 C1547 0.950 . S
H1524 C1548 0.950 . S
H1525 C1549 0.959 . S
H1526 C1551 0.951 . S
H1527 C1553 0.950 . S
H1528 C1554 0.950 . S
H1529 C1556 0.950 . S
H1530 C1559 0.950 . S
H1531 C1560 0.950 . S
H1532 C1562 0.950 . S
H1533 C1563 0.950 . S
C1534 H1516 0.951 . S
C1534 C1535 1.351 . S
C1534 C1536 1.388 . S
C1535 C1534 1.351 . S
C1535 C1539 1.382 1_565 S
C1536 H1517 0.951 . S
C1536 C1534 1.388 . S
C1536 C1537 1.366 . S
C1537 C1536 1.366 . S
C1537 C1538 1.414 1_565 S
C1537 C1540 1.499 . S
C1538 H1518 0.950 . S
C1538 C1537 1.414 1_545 S
C1538 C1539 1.374 . S
C1539 H1519 0.950 . S
C1539 C1535 1.382 1_545 S
C1539 C1538 1.374 . S
C1540 C1537 1.499 . S
C1540 C1541 1.373 1_565 S
C1540 C1542 1.389 . S
C1541 H1520 0.950 . S
C1541 C1540 1.373 1_545 S
C1541 C1557 1.377 . S
C1542 C1540 1.389 . S
C1542 C1543 1.524 . S
C1542 C1556 1.377 . S
C1543 C1542 1.524 . S
C1543 C1544 1.397 . S
C1543 C1548 1.363 . S
C1544 H1521 0.950 . S
C1544 C1543 1.397 . S
C1544 C1545 1.334 . S
C1545 H1522 0.950 . S
C1545 C1544 1.334 . S
C1545 C1546 1.287 . S
C1546 C1545 1.287 . S
C1546 C1547 1.524 . S
C1546 H1565 0.913 . S
C1547 H1523 0.950 . S
C1547 C1546 1.524 . S
C1547 C1548 1.415 . S
C1548 H1524 0.950 . S
C1548 C1543 1.363 . S
C1548 C1547 1.415 . S
C1549 H1525 0.959 . S
C1549 C1550 1.392 1_545 S
C1549 C1551 1.361 . S
C1550 C1549 1.392 1_565 S
C1550 C1554 1.385 . S
C1551 H1526 0.951 . S
C1551 C1549 1.361 . S
C1551 C1552 1.363 1_545 S
C1552 C1551 1.363 1_565 S
C1552 C1553 1.393 . S
C1552 C1555 1.505 . S
C1553 H1527 0.950 . S
C1553 C1552 1.393 . S
C1553 C1554 1.374 . S
C1554 H1528 0.950 . S
C1554 C1550 1.385 . S
C1554 C1553 1.374 . S
C1555 C1552 1.505 . S
C1555 C1556 1.425 . S
C1555 C1557 1.371 1_565 S
C1556 H1529 0.950 . S
C1556 C1542 1.377 . S
C1556 C1555 1.425 . S
C1557 C1541 1.377 . S
C1557 C1555 1.371 1_545 S
C1557 C1558 1.524 . S
C1558 C1557 1.524 . S
C1558 C1559 1.397 . S
C1558 C1563 1.363 . S
C1559 H1530 0.950 . S
C1559 C1558 1.397 . S
C1559 C1560 1.334 . S
C1560 H1531 0.950 . S
C1560 C1559 1.334 . S
C1560 C1561 1.287 . S
C1561 C1560 1.287 . S
C1561 C1562 1.524 . S
C1561 H1564 0.999 . S
C1562 H1532 0.950 . S
C1562 C1561 1.524 . S
C1562 C1563 1.415 . S
C1563 H1533 0.950 . S
C1563 C1558 1.363 . S
C1563 C1562 1.415 . S
H1564 C1561 0.999 . S
H1565 C1546 0.913 . S
H1566 C1584 0.951 . S
H1567 C1586 0.951 . S
H1568 C1588 0.950 . S
H1569 C1589 0.950 . S
H1570 C1591 0.950 . S
H1571 C1594 0.950 . S
H1572 C1595 0.950 . S
H1573 C1597 0.950 . S
H1574 C1598 0.950 . S
H1575 C1599 0.951 . S
H1576 C1601 0.951 . S
H1577 C1603 0.950 . S
H1578 C1604 0.950 . S
H1579 C1606 0.950 . S
H1580 C1609 0.950 . S
H1581 C1610 0.950 . S
H1582 C1612 0.950 . S
H1583 C1613 0.950 . S
C1584 H1566 0.951 . S
C1584 C1585 1.314 1_565 S
C1584 C1586 1.388 . S
C1585 C1584 1.314 1_545 S
C1585 C1589 1.477 . S
C1586 H1567 0.951 . S
C1586 C1584 1.388 . S
C1586 C1587 1.272 1_565 S
C1587 C1586 1.272 1_545 S
C1587 C1588 1.472 . S
C1587 C1590 1.541 . S
C1588 H1568 0.950 . S
C1588 C1587 1.472 . S
C1588 C1589 1.374 . S
C1589 H1569 0.950 . S
C1589 C1585 1.477 . S
C1589 C1588 1.374 . S
C1590 C1587 1.541 . S
C1590 C1591 1.373 . S
C1590 C1592 1.389 1_545 S
C1591 H1570 0.950 . S
C1591 C1590 1.373 . S
C1591 C1607 1.377 . S
C1592 C1590 1.389 1_565 S
C1592 C1593 1.524 . S
C1592 C1606 1.377 . S
C1593 C1592 1.524 . S
C1593 C1594 1.397 . S
C1593 C1598 1.363 . S
C1594 H1571 0.950 . S
C1594 C1593 1.397 . S
C1594 C1595 1.334 . S
C1595 H1572 0.950 . S
C1595 C1594 1.334 . S
C1595 C1596 1.287 . S
C1596 C1595 1.287 . S
C1596 C1597 1.524 . S
C1596 H1615 0.913 . S
C1597 H1573 0.950 . S
C1597 C1596 1.524 . S
C1597 C1598 1.415 . S
C1598 H1574 0.950 . S
C1598 C1593 1.363 . S
C1598 C1597 1.415 . S
C1599 H1575 0.951 . S
C1599 C1600 1.366 . S
C1599 C1601 1.388 . S
C1600 C1599 1.366 . S
C1600 C1604 1.385 1_545 S
C1601 H1576 0.951 . S
C1601 C1599 1.388 . S
C1601 C1602 1.366 . S
C1602 C1601 1.366 . S
C1602 C1603 1.414 1_545 S
C1602 C1605 1.499 . S
C1603 H1577 0.950 . S
C1603 C1602 1.414 1_565 S
C1603 C1604 1.374 . S
C1604 H1578 0.950 . S
C1604 C1600 1.385 1_565 S
C1604 C1603 1.374 . S
C1605 C1602 1.499 . S
C1605 C1606 1.373 1_545 S
C1605 C1607 1.389 . S
C1606 H1579 0.950 . S
C1606 C1592 1.377 . S
C1606 C1605 1.373 1_565 S
C1607 C1591 1.377 . S
C1607 C1605 1.389 . S
C1607 C1608 1.524 . S
C1608 C1607 1.524 . S
C1608 C1609 1.397 . S
C1608 C1613 1.363 . S
C1609 H1580 0.950 . S
C1609 C1608 1.397 . S
C1609 C1610 1.334 . S
C1610 H1581 0.950 . S
C1610 C1609 1.334 . S
C1610 C1611 1.287 . S
C1611 C1610 1.287 . S
C1611 C1612 1.524 . S
C1611 H1614 0.999 . S
C1612 H1582 0.950 . S
C1612 C1611 1.524 . S
C1612 C1613 1.415 . S
C1613 H1583 0.950 . S
C1613 C1608 1.363 . S
C1613 C1612 1.415 . S
H1614 C1611 0.999 . S
H1615 C1596 0.913 . S
H1616 C1634 0.951 . S
H1617 C1636 0.951 . S
H1618 C1638 0.950 . S
H1619 C1639 0.950 . S
H1620 C1641 0.950 . S
H1621 C1644 0.950 1_655 S
H1622 C1645 0.950 . S
H1623 C1647 0.950 . S
H1624 C1648 0.950 . S
H1625 C1649 0.951 . S
H1626 C1651 0.951 . S
H1627 C1653 0.950 . S
H1628 C1654 0.950 . S
H1629 C1656 0.950 . S
H1630 C1659 0.880 1_455 S
H1631 C1660 0.950 . S
H1632 C1662 0.950 . S
H1633 C1663 0.950 . S
C1634 H1616 0.951 . S
C1634 C1635 1.310 1_455 S
C1634 C1636 1.388 . S
C1635 C1634 1.310 1_655 S
C1635 C1639 1.419 . S
C1636 H1617 0.951 . S
C1636 C1634 1.388 . S
C1636 C1637 1.312 1_455 S
C1637 C1636 1.312 1_655 S
C1637 C1638 1.511 . S
C1637 C1640 1.466 . S
C1638 H1618 0.950 . S
C1638 C1637 1.511 . S
C1638 C1639 1.374 . S
C1639 H1619 0.950 . S
C1639 C1635 1.419 . S
C1639 C1638 1.374 . S
C1640 C1637 1.466 . S
C1640 C1641 1.373 . S
C1640 C1642 1.389 1_655 S
C1641 H1620 0.950 . S
C1641 C1640 1.373 . S
C1641 C1657 1.377 . S
C1642 C1640 1.389 1_455 S
C1642 C1643 1.524 . S
C1642 C1656 1.377 . S
C1643 C1642 1.524 . S
C1643 C1644 1.397 . S
C1643 C1648 1.363 . S
C1644 H1621 0.950 1_455 S
C1644 C1643 1.397 . S
C1644 C1645 1.334 . S
C1645 H1622 0.950 . S
C1645 C1644 1.334 . S
C1645 C1646 1.287 . S
C1646 C1645 1.287 . S
C1646 C1647 1.524 . S
C1646 H1665 0.913 . S
C1647 H1623 0.950 . S
C1647 C1646 1.524 . S
C1647 C1648 1.415 . S
C1648 H1624 0.950 . S
C1648 C1643 1.363 . S
C1648 C1647 1.415 . S
C1649 H1625 0.951 . S
C1649 C1650 1.366 . S
C1649 C1651 1.388 . S
C1650 C1649 1.366 . S
C1650 C1654 1.385 1_655 S
C1651 H1626 0.951 . S
C1651 C1649 1.388 . S
C1651 C1652 1.366 . S
C1652 C1651 1.366 . S
C1652 C1653 1.414 1_655 S
C1652 C1655 1.469 . S
C1653 H1627 0.950 . S
C1653 C1652 1.414 1_455 S
C1653 C1654 1.374 . S
C1654 H1628 0.950 . S
C1654 C1650 1.385 1_455 S
C1654 C1653 1.374 . S
C1655 C1652 1.469 . S
C1655 C1656 1.330 1_655 S
C1655 C1657 1.471 . S
C1656 H1629 0.950 . S
C1656 C1642 1.377 . S
C1656 C1655 1.330 1_455 S
C1657 C1641 1.377 . S
C1657 C1655 1.471 . S
C1657 C1658 1.524 . S
C1658 C1657 1.524 . S
C1658 C1659 1.397 . S
C1658 C1663 1.363 . S
C1659 H1630 0.880 1_655 S
C1659 C1658 1.397 . S
C1659 C1660 1.334 . S
C1660 H1631 0.950 . S
C1660 C1659 1.334 . S
C1660 C1661 1.287 . S
C1661 C1660 1.287 . S
C1661 C1662 1.524 . S
C1661 H1664 0.999 . S
C1662 H1632 0.950 . S
C1662 C1661 1.524 . S
C1662 C1663 1.415 . S
C1663 H1633 0.950 . S
C1663 C1658 1.363 . S
C1663 C1662 1.415 . S
H1664 C1661 0.999 . S
H1665 C1646 0.913 . S
H1666 C1684 0.951 . S
H1667 C1686 0.951 . S
H1668 C1688 0.950 . S
H1669 C1689 0.950 . S
H1670 C1691 0.950 . S
H1671 C1694 0.950 . S
H1672 C1695 0.950 . S
H1673 C1697 0.950 . S
H1674 C1698 0.950 . S
H1675 C1699 0.951 . S
H1676 C1701 0.951 . S
H1677 C1703 0.950 . S
H1678 C1704 0.950 . S
H1679 C1706 0.950 . S
H1680 C1709 0.950 . S
H1681 C1710 0.950 . S
H1682 C1712 0.950 . S
H1683 C1713 0.950 . S
C1684 H1666 0.951 . S
C1684 C1685 1.366 . S
C1684 C1686 1.388 . S
C1685 C1684 1.366 . S
C1685 C1689 1.385 . S
C1686 H1667 0.951 . S
C1686 C1684 1.388 . S
C1686 C1687 1.366 . S
C1687 C1686 1.366 . S
C1687 C1688 1.414 . S
C1687 C1690 1.499 . S
C1688 H1668 0.950 . S
C1688 C1687 1.414 . S
C1688 C1689 1.374 . S
C1689 H1669 0.950 . S
C1689 C1685 1.385 . S
C1689 C1688 1.374 . S
C1690 C1687 1.499 . S
C1690 C1691 1.373 . S
C1690 C1692 1.389 . S
C1691 H1670 0.950 . S
C1691 C1690 1.373 . S
C1691 C1707 1.377 . S
C1692 C1690 1.389 . S
C1692 C1693 1.524 . S
C1692 C1706 1.377 . S
C1693 C1692 1.524 . S
C1693 C1694 1.397 . S
C1693 C1698 1.363 . S
C1694 H1671 0.950 . S
C1694 C1693 1.397 . S
C1694 C1695 1.334 . S
C1695 H1672 0.950 . S
C1695 C1694 1.334 . S
C1695 C1696 1.287 . S
C1696 C1695 1.287 . S
C1696 C1697 1.524 . S
C1696 H1715 0.913 . S
C1697 H1673 0.950 . S
C1697 C1696 1.524 . S
C1697 C1698 1.415 . S
C1698 H1674 0.950 . S
C1698 C1693 1.363 . S
C1698 C1697 1.415 . S
C1699 H1675 0.951 . S
C1699 C1700 1.366 . S
C1699 C1701 1.388 . S
C1700 C1699 1.366 . S
C1700 C1704 1.385 . S
C1701 H1676 0.951 . S
C1701 C1699 1.388 . S
C1701 C1702 1.366 . S
C1702 C1701 1.366 . S
C1702 C1703 1.414 . S
C1702 C1705 1.499 . S
C1703 H1677 0.950 . S
C1703 C1702 1.414 . S
C1703 C1704 1.374 . S
C1704 H1678 0.950 . S
C1704 C1700 1.385 . S
C1704 C1703 1.374 . S
C1705 C1702 1.499 . S
C1705 C1706 1.373 . S
C1705 C1707 1.389 . S
C1706 H1679 0.950 . S
C1706 C1692 1.377 . S
C1706 C1705 1.373 . S
C1707 C1691 1.377 . S
C1707 C1705 1.389 . S
C1707 C1708 1.524 . S
C1708 C1707 1.524 . S
C1708 C1709 1.397 . S
C1708 C1713 1.363 . S
C1709 H1680 0.950 . S
C1709 C1708 1.397 . S
C1709 C1710 1.334 . S
C1710 H1681 0.950 . S
C1710 C1709 1.334 . S
C1710 C1711 1.287 . S
C1711 C1710 1.287 . S
C1711 C1712 1.524 . S
C1711 H1714 0.999 . S
C1712 H1682 0.950 . S
C1712 C1711 1.524 . S
C1712 C1713 1.415 . S
C1713 H1683 0.950 . S
C1713 C1708 1.363 . S
C1713 C1712 1.415 . S
H1714 C1711 0.999 . S
H1715 C1696 0.913 . S
H1716 C1734 0.951 . S
H1717 C1736 0.951 . S
H1718 C1738 0.950 . S
H1719 C1739 0.950 . S
H1720 C1741 0.950 . S
H1721 C1744 0.950 . S
H1722 C1745 0.950 . S
H1723 C1747 0.950 . S
H1724 C1748 0.950 . S
H1725 C1749 0.951 . S
H1726 C1751 0.951 . S
H1727 C1753 0.950 . S
H1728 C1754 0.950 . S
H1729 C1756 0.950 . S
H1730 C1759 0.950 . S
H1731 C1760 0.950 . S
H1732 C1762 0.950 . S
H1733 C1763 0.950 . S
C1734 H1716 0.951 . S
C1734 C1735 1.366 . S
C1734 C1736 1.388 . S
C1735 C1734 1.366 . S
C1735 C1739 1.385 . S
C1736 H1717 0.951 . S
C1736 C1734 1.388 . S
C1736 C1737 1.366 . S
C1737 C1736 1.366 . S
C1737 C1738 1.414 . S
C1737 C1740 1.499 . S
C1738 H1718 0.950 . S
C1738 C1737 1.414 . S
C1738 C1739 1.374 . S
C1739 H1719 0.950 . S
C1739 C1735 1.385 . S
C1739 C1738 1.374 . S
C1740 C1737 1.499 . S
C1740 C1741 1.373 . S
C1740 C1742 1.389 . S
C1741 H1720 0.950 . S
C1741 C1740 1.373 . S
C1741 C1757 1.377 . S
C1742 C1740 1.389 . S
C1742 C1743 1.524 . S
C1742 C1756 1.377 . S
C1743 C1742 1.524 . S
C1743 C1744 1.397 . S
C1743 C1748 1.363 . S
C1744 H1721 0.950 . S
C1744 C1743 1.397 . S
C1744 C1745 1.334 . S
C1745 H1722 0.950 . S
C1745 C1744 1.334 . S
C1745 C1746 1.287 . S
C1746 C1745 1.287 . S
C1746 C1747 1.524 . S
C1746 H1765 0.913 . S
C1747 H1723 0.950 . S
C1747 C1746 1.524 . S
C1747 C1748 1.415 . S
C1748 H1724 0.950 . S
C1748 C1743 1.363 . S
C1748 C1747 1.415 . S
C1749 H1725 0.951 . S
C1749 C1750 1.366 . S
C1749 C1751 1.388 . S
C1750 C1749 1.366 . S
C1750 C1754 1.385 . S
C1751 H1726 0.951 . S
C1751 C1749 1.388 . S
C1751 C1752 1.366 . S
C1752 C1751 1.366 . S
C1752 C1753 1.414 . S
C1752 C1755 1.499 . S
C1753 H1727 0.950 . S
C1753 C1752 1.414 . S
C1753 C1754 1.374 . S
C1754 H1728 0.950 . S
C1754 C1750 1.385 . S
C1754 C1753 1.374 . S
C1755 C1752 1.499 . S
C1755 C1756 1.373 . S
C1755 C1757 1.389 . S
C1756 H1729 0.950 . S
C1756 C1742 1.377 . S
C1756 C1755 1.373 . S
C1757 C1741 1.377 . S
C1757 C1755 1.389 . S
C1757 C1758 1.524 . S
C1758 C1757 1.524 . S
C1758 C1759 1.397 . S
C1758 C1763 1.363 . S
C1759 H1730 0.950 . S
C1759 C1758 1.397 . S
C1759 C1760 1.334 . S
C1760 H1731 0.950 . S
C1760 C1759 1.334 . S
C1760 C1761 1.287 . S
C1761 C1760 1.287 . S
C1761 C1762 1.524 . S
C1761 H1764 0.999 . S
C1762 H1732 0.950 . S
C1762 C1761 1.524 . S
C1762 C1763 1.415 . S
C1763 H1733 0.950 . S
C1763 C1758 1.363 . S
C1763 C1762 1.415 . S
H1764 C1761 0.999 . S
H1765 C1746 0.913 . S
H1766 C1784 0.951 . S
H1767 C1786 0.951 . S
H1768 C1788 0.950 . S
H1769 C1789 0.950 . S
H1770 C1791 0.950 . S
H1771 C1794 0.950 . S
H1772 C1795 0.950 . S
H1773 C1797 0.950 . S
H1774 C1798 0.950 . S
H1775 C1799 0.951 . S
H1776 C1801 0.951 . S
H1777 C1803 0.950 . S
H1778 C1804 0.950 . S
H1779 C1806 0.950 . S
H1780 C1809 0.950 . S
H1781 C1810 0.950 . S
H1782 C1812 0.950 . S
H1783 C1813 0.950 . S
C1784 H1766 0.951 . S
C1784 C1785 1.366 . S
C1784 C1786 1.388 . S
C1785 C1784 1.366 . S
C1785 C1789 1.385 . S
C1786 H1767 0.951 . S
C1786 C1784 1.388 . S
C1786 C1787 1.366 . S
C1787 C1786 1.366 . S
C1787 C1788 1.414 . S
C1787 C1790 1.499 . S
C1788 H1768 0.950 . S
C1788 C1787 1.414 . S
C1788 C1789 1.374 . S
C1789 H1769 0.950 . S
C1789 C1785 1.385 . S
C1789 C1788 1.374 . S
C1790 C1787 1.499 . S
C1790 C1791 1.373 . S
C1790 C1792 1.389 . S
C1791 H1770 0.950 . S
C1791 C1790 1.373 . S
C1791 C1807 1.377 . S
C1792 C1790 1.389 . S
C1792 C1793 1.524 . S
C1792 C1806 1.377 . S
C1793 C1792 1.524 . S
C1793 C1794 1.397 . S
C1793 C1798 1.363 . S
C1794 H1771 0.950 . S
C1794 C1793 1.397 . S
C1794 C1795 1.334 . S
C1795 H1772 0.950 . S
C1795 C1794 1.334 . S
C1795 C1796 1.287 . S
C1796 C1795 1.287 . S
C1796 C1797 1.524 . S
C1796 H1815 0.913 . S
C1797 H1773 0.950 . S
C1797 C1796 1.524 . S
C1797 C1798 1.415 . S
C1798 H1774 0.950 . S
C1798 C1793 1.363 . S
C1798 C1797 1.415 . S
C1799 H1775 0.951 . S
C1799 C1800 1.366 . S
C1799 C1801 1.388 . S
C1800 C1799 1.366 . S
C1800 C1804 1.385 . S
C1801 H1776 0.951 . S
C1801 C1799 1.388 . S
C1801 C1802 1.366 . S
C1802 C1801 1.366 . S
C1802 C1803 1.414 . S
C1802 C1805 1.499 . S
C1803 H1777 0.950 . S
C1803 C1802 1.414 . S
C1803 C1804 1.374 . S
C1804 H1778 0.950 . S
C1804 C1800 1.385 . S
C1804 C1803 1.374 . S
C1805 C1802 1.499 . S
C1805 C1806 1.373 . S
C1805 C1807 1.389 . S
C1806 H1779 0.950 . S
C1806 C1792 1.377 . S
C1806 C1805 1.373 . S
C1807 C1791 1.377 . S
C1807 C1805 1.389 . S
C1807 C1808 1.524 . S
C1808 C1807 1.524 . S
C1808 C1809 1.397 . S
C1808 C1813 1.363 . S
C1809 H1780 0.950 . S
C1809 C1808 1.397 . S
C1809 C1810 1.334 . S
C1810 H1781 0.950 . S
C1810 C1809 1.334 . S
C1810 C1811 1.287 . S
C1811 C1810 1.287 . S
C1811 C1812 1.524 . S
C1811 H1814 0.999 . S
C1812 H1782 0.950 . S
C1812 C1811 1.524 . S
C1812 C1813 1.415 . S
C1813 H1783 0.950 . S
C1813 C1808 1.363 . S
C1813 C1812 1.415 . S
H1814 C1811 0.999 . S
H1815 C1796 0.913 . S
H1816 C1834 0.951 . S
H1817 C1836 0.951 . S
H1818 C1838 0.950 . S
H1819 C1839 0.950 . S
H1820 C1841 0.950 . S
H1821 C1844 0.950 . S
H1822 C1845 0.950 . S
H1823 C1847 0.950 . S
H1824 C1848 0.950 . S
H1825 C1849 0.951 . S
H1826 C1851 0.951 . S
H1827 C1853 0.950 . S
H1828 C1854 0.950 . S
H1829 C1856 0.950 . S
H1830 C1859 0.950 . S
H1831 C1860 0.950 . S
H1832 C1862 0.950 . S
H1833 C1863 0.950 . S
C1834 H1816 0.951 . S
C1834 C1835 1.366 . S
C1834 C1836 1.388 . S
C1835 C1834 1.366 . S
C1835 C1839 1.385 . S
C1836 H1817 0.951 . S
C1836 C1834 1.388 . S
C1836 C1837 1.366 . S
C1837 C1836 1.366 . S
C1837 C1838 1.414 . S
C1837 C1840 1.499 . S
C1838 H1818 0.950 . S
C1838 C1837 1.414 . S
C1838 C1839 1.374 . S
C1839 H1819 0.950 . S
C1839 C1835 1.385 . S
C1839 C1838 1.374 . S
C1840 C1837 1.499 . S
C1840 C1841 1.373 . S
C1840 C1842 1.389 . S
C1841 H1820 0.950 . S
C1841 C1840 1.373 . S
C1841 C1857 1.377 . S
C1842 C1840 1.389 . S
C1842 C1843 1.524 . S
C1842 C1856 1.377 . S
C1843 C1842 1.524 . S
C1843 C1844 1.397 . S
C1843 C1848 1.363 . S
C1844 H1821 0.950 . S
C1844 C1843 1.397 . S
C1844 C1845 1.334 . S
C1845 H1822 0.950 . S
C1845 C1844 1.334 . S
C1845 C1846 1.287 . S
C1846 C1845 1.287 . S
C1846 C1847 1.524 . S
C1846 H1865 0.913 . S
C1847 H1823 0.950 . S
C1847 C1846 1.524 . S
C1847 C1848 1.415 . S
C1848 H1824 0.950 . S
C1848 C1843 1.363 . S
C1848 C1847 1.415 . S
C1849 H1825 0.951 . S
C1849 C1850 1.366 . S
C1849 C1851 1.388 . S
C1850 C1849 1.366 . S
C1850 C1854 1.385 . S
C1851 H1826 0.951 . S
C1851 C1849 1.388 . S
C1851 C1852 1.366 . S
C1852 C1851 1.366 . S
C1852 C1853 1.414 . S
C1852 C1855 1.499 . S
C1853 H1827 0.950 . S
C1853 C1852 1.414 . S
C1853 C1854 1.374 . S
C1854 H1828 0.950 . S
C1854 C1850 1.385 . S
C1854 C1853 1.374 . S
C1855 C1852 1.499 . S
C1855 C1856 1.373 . S
C1855 C1857 1.389 . S
C1856 H1829 0.950 . S
C1856 C1842 1.377 . S
C1856 C1855 1.373 . S
C1857 C1841 1.377 . S
C1857 C1855 1.389 . S
C1857 C1858 1.524 . S
C1858 C1857 1.524 . S
C1858 C1859 1.397 . S
C1858 C1863 1.363 . S
C1859 H1830 0.950 . S
C1859 C1858 1.397 . S
C1859 C1860 1.334 . S
C1860 H1831 0.950 . S
C1860 C1859 1.334 . S
C1860 C1861 1.287 . S
C1861 C1860 1.287 . S
C1861 C1862 1.524 . S
C1861 H1864 0.999 . S
C1862 H1832 0.950 . S
C1862 C1861 1.524 . S
C1862 C1863 1.415 . S
C1863 H1833 0.950 . S
C1863 C1858 1.363 . S
C1863 C1862 1.415 . S
H1864 C1861 0.999 . S
H1865 C1846 0.913 . S
H1866 C1884 0.951 . S
H1867 C1886 0.951 . S
H1868 C1888 0.950 . S
H1869 C1889 0.950 . S
H1870 C1891 0.950 . S
H1871 C1894 0.950 . S
H1872 C1895 0.950 . S
H1873 C1897 0.950 . S
H1874 C1898 0.950 . S
H1875 C1899 0.951 . S
H1876 C1901 0.951 . S
H1877 C1903 0.950 . S
H1878 C1904 0.950 . S
H1879 C1906 0.950 . S
H1880 C1909 0.950 . S
H1881 C1910 0.950 . S
H1882 C1912 0.950 . S
H1883 C1913 0.950 . S
C1884 H1866 0.951 . S
C1884 C1885 1.366 . S
C1884 C1886 1.388 . S
C1885 C1884 1.366 . S
C1885 C1889 1.385 . S
C1886 H1867 0.951 . S
C1886 C1884 1.388 . S
C1886 C1887 1.366 . S
C1887 C1886 1.366 . S
C1887 C1888 1.414 . S
C1887 C1890 1.499 . S
C1888 H1868 0.950 . S
C1888 C1887 1.414 . S
C1888 C1889 1.374 . S
C1889 H1869 0.950 . S
C1889 C1885 1.385 . S
C1889 C1888 1.374 . S
C1890 C1887 1.499 . S
C1890 C1891 1.373 . S
C1890 C1892 1.389 . S
C1891 H1870 0.950 . S
C1891 C1890 1.373 . S
C1891 C1907 1.377 . S
C1892 C1890 1.389 . S
C1892 C1893 1.524 . S
C1892 C1906 1.377 . S
C1893 C1892 1.524 . S
C1893 C1894 1.397 . S
C1893 C1898 1.363 . S
C1894 H1871 0.950 . S
C1894 C1893 1.397 . S
C1894 C1895 1.334 . S
C1895 H1872 0.950 . S
C1895 C1894 1.334 . S
C1895 C1896 1.287 . S
C1896 C1895 1.287 . S
C1896 C1897 1.524 . S
C1896 H1915 0.913 . S
C1897 H1873 0.950 . S
C1897 C1896 1.524 . S
C1897 C1898 1.415 . S
C1898 H1874 0.950 . S
C1898 C1893 1.363 . S
C1898 C1897 1.415 . S
C1899 H1875 0.951 . S
C1899 C1900 1.366 . S
C1899 C1901 1.388 . S
C1900 C1899 1.366 . S
C1900 C1904 1.385 . S
C1901 H1876 0.951 . S
C1901 C1899 1.388 . S
C1901 C1902 1.366 . S
C1902 C1901 1.366 . S
C1902 C1903 1.414 . S
C1902 C1905 1.499 . S
C1903 H1877 0.950 . S
C1903 C1902 1.414 . S
C1903 C1904 1.374 . S
C1904 H1878 0.950 . S
C1904 C1900 1.385 . S
C1904 C1903 1.374 . S
C1905 C1902 1.499 . S
C1905 C1906 1.373 . S
C1905 C1907 1.389 . S
C1906 H1879 0.950 . S
C1906 C1892 1.377 . S
C1906 C1905 1.373 . S
C1907 C1891 1.377 . S
C1907 C1905 1.389 . S
C1907 C1908 1.524 . S
C1908 C1907 1.524 . S
C1908 C1909 1.397 . S
C1908 C1913 1.363 . S
C1909 H1880 0.950 . S
C1909 C1908 1.397 . S
C1909 C1910 1.334 . S
C1910 H1881 0.950 . S
C1910 C1909 1.334 . S
C1910 C1911 1.287 . S
C1911 C1910 1.287 . S
C1911 C1912 1.524 . S
C1911 H1914 0.999 . S
C1912 H1882 0.950 . S
C1912 C1911 1.524 . S
C1912 C1913 1.415 . S
C1913 H1883 0.950 . S
C1913 C1908 1.363 . S
C1913 C1912 1.415 . S
H1914 C1911 0.999 . S
H1915 C1896 0.913 . S
H1916 C1934 0.951 . S
H1917 C1936 0.951 . S
H1918 C1938 0.950 . S
H1919 C1939 0.950 . S
H1920 C1941 0.950 . S
H1921 C1944 0.950 . S
H1922 C1945 0.950 . S
H1923 C1947 0.950 . S
H1924 C1948 0.950 . S
H1925 C1949 0.951 . S
H1926 C1951 0.951 . S
H1927 C1953 0.950 . S
H1928 C1954 0.950 . S
H1929 C1956 0.950 . S
H1930 C1959 0.950 . S
H1931 C1960 0.950 . S
H1932 C1962 0.950 . S
H1933 C1963 0.950 . S
C1934 H1916 0.951 . S
C1934 C1935 1.366 . S
C1934 C1936 1.388 . S
C1935 C1934 1.366 . S
C1935 C1939 1.385 . S
C1936 H1917 0.951 . S
C1936 C1934 1.388 . S
C1936 C1937 1.366 . S
C1937 C1936 1.366 . S
C1937 C1938 1.414 . S
C1937 C1940 1.499 . S
C1938 H1918 0.950 . S
C1938 C1937 1.414 . S
C1938 C1939 1.374 . S
C1939 H1919 0.950 . S
C1939 C1935 1.385 . S
C1939 C1938 1.374 . S
C1940 C1937 1.499 . S
C1940 C1941 1.373 . S
C1940 C1942 1.389 . S
C1941 H1920 0.950 . S
C1941 C1940 1.373 . S
C1941 C1957 1.377 . S
C1942 C1940 1.389 . S
C1942 C1943 1.524 . S
C1942 C1956 1.377 . S
C1943 C1942 1.524 . S
C1943 C1944 1.397 . S
C1943 C1948 1.363 . S
C1944 H1921 0.950 . S
C1944 C1943 1.397 . S
C1944 C1945 1.334 . S
C1945 H1922 0.950 . S
C1945 C1944 1.334 . S
C1945 C1946 1.287 . S
C1946 C1945 1.287 . S
C1946 C1947 1.524 . S
C1946 H1965 0.913 . S
C1947 H1923 0.950 . S
C1947 C1946 1.524 . S
C1947 C1948 1.415 . S
C1948 H1924 0.950 . S
C1948 C1943 1.363 . S
C1948 C1947 1.415 . S
C1949 H1925 0.951 . S
C1949 C1950 1.366 . S
C1949 C1951 1.388 . S
C1950 C1949 1.366 . S
C1950 C1954 1.385 . S
C1951 H1926 0.951 . S
C1951 C1949 1.388 . S
C1951 C1952 1.366 . S
C1952 C1951 1.366 . S
C1952 C1953 1.414 . S
C1952 C1955 1.499 . S
C1953 H1927 0.950 . S
C1953 C1952 1.414 . S
C1953 C1954 1.374 . S
C1954 H1928 0.950 . S
C1954 C1950 1.385 . S
C1954 C1953 1.374 . S
C1955 C1952 1.499 . S
C1955 C1956 1.373 . S
C1955 C1957 1.389 . S
C1956 H1929 0.950 . S
C1956 C1942 1.377 . S
C1956 C1955 1.373 . S
C1957 C1941 1.377 . S
C1957 C1955 1.389 . S
C1957 C1958 1.524 . S
C1958 C1957 1.524 . S
C1958 C1959 1.397 . S
C1958 C1963 1.363 . S
C1959 H1930 0.950 . S
C1959 C1958 1.397 . S
C1959 C1960 1.334 . S
C1960 H1931 0.950 . S
C1960 C1959 1.334 . S
C1960 C1961 1.287 . S
C1961 C1960 1.287 . S
C1961 C1962 1.524 . S
C1961 H1964 0.999 . S
C1962 H1932 0.950 . S
C1962 C1961 1.524 . S
C1962 C1963 1.415 . S
C1963 H1933 0.950 . S
C1963 C1958 1.363 . S
C1963 C1962 1.415 . S
H1964 C1961 0.999 . S
H1965 C1946 0.913 . S
H1966 C1984 0.951 . S
H1967 C1986 0.951 . S
H1968 C1988 0.950 . S
H1969 C1989 0.950 . S
H1970 C1991 0.950 . S
H1971 C1994 0.950 . S
H1972 C1995 0.950 . S
H1973 C1997 0.950 . S
H1974 C1998 0.950 . S
H1975 C1999 0.951 . S
H1976 C2001 0.951 . S
H1977 C2003 0.950 . S
H1978 C2004 0.950 . S
H1979 C2006 0.950 . S
H1980 C2009 0.950 . S
H1981 C2010 0.950 . S
H1982 C2012 0.950 . S
H1983 C2013 0.950 . S
C1984 H1966 0.951 . S
C1984 C1985 1.366 . S
C1984 C1986 1.388 . S
C1985 C1984 1.366 . S
C1985 C1989 1.385 . S
C1986 H1967 0.951 . S
C1986 C1984 1.388 . S
C1986 C1987 1.366 . S
C1987 C1986 1.366 . S
C1987 C1988 1.414 . S
C1987 C1990 1.499 . S
C1988 H1968 0.950 . S
C1988 C1987 1.414 . S
C1988 C1989 1.374 . S
C1989 H1969 0.950 . S
C1989 C1985 1.385 . S
C1989 C1988 1.374 . S
C1990 C1987 1.499 . S
C1990 C1991 1.373 . S
C1990 C1992 1.389 . S
C1991 H1970 0.950 . S
C1991 C1990 1.373 . S
C1991 C2007 1.377 . S
C1992 C1990 1.389 . S
C1992 C1993 1.524 . S
C1992 C2006 1.377 . S
C1993 C1992 1.524 . S
C1993 C1994 1.397 . S
C1993 C1998 1.363 . S
C1994 H1971 0.950 . S
C1994 C1993 1.397 . S
C1994 C1995 1.334 . S
C1995 H1972 0.950 . S
C1995 C1994 1.334 . S
C1995 C1996 1.287 . S
C1996 C1995 1.287 . S
C1996 C1997 1.524 . S
C1996 H2015 0.913 . S
C1997 H1973 0.950 . S
C1997 C1996 1.524 . S
C1997 C1998 1.415 . S
C1998 H1974 0.950 . S
C1998 C1993 1.363 . S
C1998 C1997 1.415 . S
C1999 H1975 0.951 . S
C1999 C2000 1.366 . S
C1999 C2001 1.388 . S
C2000 C1999 1.366 . S
C2000 C2004 1.385 . S
C2001 H1976 0.951 . S
C2001 C1999 1.388 . S
C2001 C2002 1.366 . S
C2002 C2001 1.366 . S
C2002 C2003 1.414 . S
C2002 C2005 1.499 . S
C2003 H1977 0.950 . S
C2003 C2002 1.414 . S
C2003 C2004 1.374 . S
C2004 H1978 0.950 . S
C2004 C2000 1.385 . S
C2004 C2003 1.374 . S
C2005 C2002 1.499 . S
C2005 C2006 1.373 . S
C2005 C2007 1.389 . S
C2006 H1979 0.950 . S
C2006 C1992 1.377 . S
C2006 C2005 1.373 . S
C2007 C1991 1.377 . S
C2007 C2005 1.389 . S
C2007 C2008 1.524 . S
C2008 C2007 1.524 . S
C2008 C2009 1.397 . S
C2008 C2013 1.363 . S
C2009 H1980 0.950 . S
C2009 C2008 1.397 . S
C2009 C2010 1.334 . S
C2010 H1981 0.950 . S
C2010 C2009 1.334 . S
C2010 C2011 1.287 . S
C2011 C2010 1.287 . S
C2011 C2012 1.524 . S
C2011 H2014 0.999 . S
C2012 H1982 0.950 . S
C2012 C2011 1.524 . S
C2012 C2013 1.415 . S
C2013 H1983 0.950 . S
C2013 C2008 1.363 . S
C2013 C2012 1.415 . S
H2014 C2011 0.999 . S
H2015 C1996 0.913 . S
H2016 C2034 0.951 . S
H2017 C2036 0.951 . S
H2018 C2038 0.950 . S
H2019 C2039 0.950 . S
H2020 C2041 0.950 . S
H2021 C2044 0.950 . S
H2022 C2045 0.950 . S
H2023 C2047 0.950 . S
H2024 C2048 0.950 . S
H2025 C2049 0.951 . S
H2026 C2051 0.951 . S
H2027 C2053 0.950 . S
H2028 C2054 0.950 . S
H2029 C2056 0.950 . S
H2030 C2059 0.950 . S
H2031 C2060 0.950 . S
H2032 C2062 0.950 . S
H2033 C2063 0.950 . S
C2034 H2016 0.951 . S
C2034 C2035 1.366 . S
C2034 C2036 1.388 . S
C2035 C2034 1.366 . S
C2035 C2039 1.385 . S
C2036 H2017 0.951 . S
C2036 C2034 1.388 . S
C2036 C2037 1.366 . S
C2037 C2036 1.366 . S
C2037 C2038 1.414 . S
C2037 C2040 1.499 . S
C2038 H2018 0.950 . S
C2038 C2037 1.414 . S
C2038 C2039 1.374 . S
C2039 H2019 0.950 . S
C2039 C2035 1.385 . S
C2039 C2038 1.374 . S
C2040 C2037 1.499 . S
C2040 C2041 1.373 . S
C2040 C2042 1.389 . S
C2041 H2020 0.950 . S
C2041 C2040 1.373 . S
C2041 C2057 1.377 . S
C2042 C2040 1.389 . S
C2042 C2043 1.524 . S
C2042 C2056 1.377 . S
C2043 C2042 1.524 . S
C2043 C2044 1.397 . S
C2043 C2048 1.363 . S
C2044 H2021 0.950 . S
C2044 C2043 1.397 . S
C2044 C2045 1.334 . S
C2045 H2022 0.950 . S
C2045 C2044 1.334 . S
C2045 C2046 1.287 . S
C2046 C2045 1.287 . S
C2046 C2047 1.524 . S
C2046 H2065 0.913 . S
C2047 H2023 0.950 . S
C2047 C2046 1.524 . S
C2047 C2048 1.415 . S
C2048 H2024 0.950 . S
C2048 C2043 1.363 . S
C2048 C2047 1.415 . S
C2049 H2025 0.951 . S
C2049 C2050 1.366 . S
C2049 C2051 1.388 . S
C2050 C2049 1.366 . S
C2050 C2054 1.385 . S
C2051 H2026 0.951 . S
C2051 C2049 1.388 . S
C2051 C2052 1.366 . S
C2052 C2051 1.366 . S
C2052 C2053 1.414 . S
C2052 C2055 1.499 . S
C2053 H2027 0.950 . S
C2053 C2052 1.414 . S
C2053 C2054 1.374 . S
C2054 H2028 0.950 . S
C2054 C2050 1.385 . S
C2054 C2053 1.374 . S
C2055 C2052 1.499 . S
C2055 C2056 1.373 . S
C2055 C2057 1.389 . S
C2056 H2029 0.950 . S
C2056 C2042 1.377 . S
C2056 C2055 1.373 . S
C2057 C2041 1.377 . S
C2057 C2055 1.389 . S
C2057 C2058 1.524 . S
C2058 C2057 1.524 . S
C2058 C2059 1.397 . S
C2058 C2063 1.363 . S
C2059 H2030 0.950 . S
C2059 C2058 1.397 . S
C2059 C2060 1.334 . S
C2060 H2031 0.950 . S
C2060 C2059 1.334 . S
C2060 C2061 1.287 . S
C2061 C2060 1.287 . S
C2061 C2062 1.524 . S
C2061 H2064 0.999 . S
C2062 H2032 0.950 . S
C2062 C2061 1.524 . S
C2062 C2063 1.415 . S
C2063 H2033 0.950 . S
C2063 C2058 1.363 . S
C2063 C2062 1.415 . S
H2064 C2061 0.999 . S
H2065 C2046 0.913 . S
H2066 C2084 0.951 . S
H2067 C2086 0.951 . S
H2068 C2088 0.950 . S
H2069 C2089 0.950 . S
H2070 C2091 0.950 . S
H2071 C2094 0.950 . S
H2072 C2095 0.950 . S
H2073 C2097 0.950 . S
H2074 C2098 0.950 . S
H2075 C2099 0.951 . S
H2076 C2101 0.951 . S
H2077 C2103 0.950 . S
H2078 C2104 0.950 . S
H2079 C2106 0.950 . S
H2080 C2109 0.950 . S
H2081 C2110 0.950 . S
H2082 C2112 0.950 . S
H2083 C2113 0.950 . S
C2084 H2066 0.951 . S
C2084 C2085 1.366 . S
C2084 C2086 1.388 . S
C2085 C2084 1.366 . S
C2085 C2089 1.385 . S
C2086 H2067 0.951 . S
C2086 C2084 1.388 . S
C2086 C2087 1.366 . S
C2087 C2086 1.366 . S
C2087 C2088 1.414 . S
C2087 C2090 1.499 . S
C2088 H2068 0.950 . S
C2088 C2087 1.414 . S
C2088 C2089 1.374 . S
C2089 H2069 0.950 . S
C2089 C2085 1.385 . S
C2089 C2088 1.374 . S
C2090 C2087 1.499 . S
C2090 C2091 1.373 . S
C2090 C2092 1.389 . S
C2091 H2070 0.950 . S
C2091 C2090 1.373 . S
C2091 C2107 1.377 . S
C2092 C2090 1.389 . S
C2092 C2093 1.524 . S
C2092 C2106 1.377 . S
C2093 C2092 1.524 . S
C2093 C2094 1.397 . S
C2093 C2098 1.363 . S
C2094 H2071 0.950 . S
C2094 C2093 1.397 . S
C2094 C2095 1.334 . S
C2095 H2072 0.950 . S
C2095 C2094 1.334 . S
C2095 C2096 1.287 . S
C2096 C2095 1.287 . S
C2096 C2097 1.524 . S
C2096 H2115 0.913 . S
C2097 H2073 0.950 . S
C2097 C2096 1.524 . S
C2097 C2098 1.415 . S
C2098 H2074 0.950 . S
C2098 C2093 1.363 . S
C2098 C2097 1.415 . S
C2099 H2075 0.951 . S
C2099 C2100 1.366 . S
C2099 C2101 1.388 . S
C2100 C2099 1.366 . S
C2100 C2104 1.385 . S
C2101 H2076 0.951 . S
C2101 C2099 1.388 . S
C2101 C2102 1.366 . S
C2102 C2101 1.366 . S
C2102 C2103 1.414 . S
C2102 C2105 1.499 . S
C2103 H2077 0.950 . S
C2103 C2102 1.414 . S
C2103 C2104 1.374 . S
C2104 H2078 0.950 . S
C2104 C2100 1.385 . S
C2104 C2103 1.374 . S
C2105 C2102 1.499 . S
C2105 C2106 1.373 . S
C2105 C2107 1.389 . S
C2106 H2079 0.950 . S
C2106 C2092 1.377 . S
C2106 C2105 1.373 . S
C2107 C2091 1.377 . S
C2107 C2105 1.389 . S
C2107 C2108 1.524 . S
C2108 C2107 1.524 . S
C2108 C2109 1.397 . S
C2108 C2113 1.363 . S
C2109 H2080 0.950 . S
C2109 C2108 1.397 . S
C2109 C2110 1.334 . S
C2110 H2081 0.950 . S
C2110 C2109 1.334 . S
C2110 C2111 1.287 . S
C2111 C2110 1.287 . S
C2111 C2112 1.524 . S
C2111 H2114 0.999 . S
C2112 H2082 0.950 . S
C2112 C2111 1.524 . S
C2112 C2113 1.415 . S
C2113 H2083 0.950 . S
C2113 C2108 1.363 . S
C2113 C2112 1.415 . S
H2114 C2111 0.999 . S
H2115 C2096 0.913 . S
H2116 C2134 0.951 . S
H2117 C2136 0.951 . S
H2118 C2138 0.950 . S
H2119 C2139 0.950 . S
H2120 C2141 0.950 . S
H2121 C2144 0.950 . S
H2122 C2145 0.950 . S
H2123 C2147 0.950 . S
H2124 C2148 0.950 . S
H2125 C2149 0.951 . S
H2126 C2151 0.951 . S
H2127 C2153 0.950 . S
H2128 C2154 0.950 . S
H2129 C2156 0.950 . S
H2130 C2159 0.950 . S
H2131 C2160 0.950 . S
H2132 C2162 0.950 . S
H2133 C2163 0.950 . S
C2134 H2116 0.951 . S
C2134 C2135 1.366 . S
C2134 C2136 1.388 . S
C2135 C2134 1.366 . S
C2135 C2139 1.385 . S
C2136 H2117 0.951 . S
C2136 C2134 1.388 . S
C2136 C2137 1.366 . S
C2137 C2136 1.366 . S
C2137 C2138 1.414 . S
C2137 C2140 1.499 . S
C2138 H2118 0.950 . S
C2138 C2137 1.414 . S
C2138 C2139 1.374 . S
C2139 H2119 0.950 . S
C2139 C2135 1.385 . S
C2139 C2138 1.374 . S
C2140 C2137 1.499 . S
C2140 C2141 1.373 . S
C2140 C2142 1.389 . S
C2141 H2120 0.950 . S
C2141 C2140 1.373 . S
C2141 C2157 1.377 . S
C2142 C2140 1.389 . S
C2142 C2143 1.524 . S
C2142 C2156 1.377 . S
C2143 C2142 1.524 . S
C2143 C2144 1.397 . S
C2143 C2148 1.363 . S
C2144 H2121 0.950 . S
C2144 C2143 1.397 . S
C2144 C2145 1.334 . S
C2145 H2122 0.950 . S
C2145 C2144 1.334 . S
C2145 C2146 1.287 . S
C2146 C2145 1.287 . S
C2146 C2147 1.524 . S
C2146 H2165 0.913 . S
C2147 H2123 0.950 . S
C2147 C2146 1.524 . S
C2147 C2148 1.415 . S
C2148 H2124 0.950 . S
C2148 C2143 1.363 . S
C2148 C2147 1.415 . S
C2149 H2125 0.951 . S
C2149 C2150 1.366 . S
C2149 C2151 1.388 . S
C2150 C2149 1.366 . S
C2150 C2154 1.385 . S
C2151 H2126 0.951 . S
C2151 C2149 1.388 . S
C2151 C2152 1.366 . S
C2152 C2151 1.366 . S
C2152 C2153 1.414 . S
C2152 C2155 1.499 . S
C2153 H2127 0.950 . S
C2153 C2152 1.414 . S
C2153 C2154 1.374 . S
C2154 H2128 0.950 . S
C2154 C2150 1.385 . S
C2154 C2153 1.374 . S
C2155 C2152 1.499 . S
C2155 C2156 1.373 . S
C2155 C2157 1.389 . S
C2156 H2129 0.950 . S
C2156 C2142 1.377 . S
C2156 C2155 1.373 . S
C2157 C2141 1.377 . S
C2157 C2155 1.389 . S
C2157 C2158 1.524 . S
C2158 C2157 1.524 . S
C2158 C2159 1.397 . S
C2158 C2163 1.363 . S
C2159 H2130 0.950 . S
C2159 C2158 1.397 . S
C2159 C2160 1.334 . S
C2160 H2131 0.950 . S
C2160 C2159 1.334 . S
C2160 C2161 1.287 . S
C2161 C2160 1.287 . S
C2161 C2162 1.524 . S
C2161 H2164 0.999 . S
C2162 H2132 0.950 . S
C2162 C2161 1.524 . S
C2162 C2163 1.415 . S
C2163 H2133 0.950 . S
C2163 C2158 1.363 . S
C2163 C2162 1.415 . S
H2164 C2161 0.999 . S
H2165 C2146 0.913 . S
H2166 C2184 0.951 . S
H2167 C2186 0.951 . S
H2168 C2188 0.950 . S
H2169 C2189 0.950 . S
H2170 C2191 0.950 . S
H2171 C2194 0.950 . S
H2172 C2195 0.950 . S
H2173 C2197 0.950 . S
H2174 C2198 0.950 . S
H2175 C2199 0.951 . S
H2176 C2201 0.951 . S
H2177 C2203 0.950 . S
H2178 C2204 0.950 . S
H2179 C2206 0.950 . S
H2180 C2209 0.950 . S
H2181 C2210 0.950 . S
H2182 C2212 0.950 . S
H2183 C2213 0.950 . S
C2184 H2166 0.951 . S
C2184 C2185 1.366 . S
C2184 C2186 1.388 . S
C2185 C2184 1.366 . S
C2185 C2189 1.385 . S
C2186 H2167 0.951 . S
C2186 C2184 1.388 . S
C2186 C2187 1.366 . S
C2187 C2186 1.366 . S
C2187 C2188 1.414 . S
C2187 C2190 1.499 . S
C2188 H2168 0.950 . S
C2188 C2187 1.414 . S
C2188 C2189 1.374 . S
C2189 H2169 0.950 . S
C2189 C2185 1.385 . S
C2189 C2188 1.374 . S
C2190 C2187 1.499 . S
C2190 C2191 1.373 . S
C2190 C2192 1.389 . S
C2191 H2170 0.950 . S
C2191 C2190 1.373 . S
C2191 C2207 1.377 . S
C2192 C2190 1.389 . S
C2192 C2193 1.524 . S
C2192 C2206 1.377 . S
C2193 C2192 1.524 . S
C2193 C2194 1.397 . S
C2193 C2198 1.363 . S
C2194 H2171 0.950 . S
C2194 C2193 1.397 . S
C2194 C2195 1.334 . S
C2195 H2172 0.950 . S
C2195 C2194 1.334 . S
C2195 C2196 1.287 . S
C2196 C2195 1.287 . S
C2196 C2197 1.524 . S
C2196 H2215 0.913 . S
C2197 H2173 0.950 . S
C2197 C2196 1.524 . S
C2197 C2198 1.415 . S
C2198 H2174 0.950 . S
C2198 C2193 1.363 . S
C2198 C2197 1.415 . S
C2199 H2175 0.951 . S
C2199 C2200 1.366 . S
C2199 C2201 1.388 . S
C2200 C2199 1.366 . S
C2200 C2204 1.385 . S
C2201 H2176 0.951 . S
C2201 C2199 1.388 . S
C2201 C2202 1.366 . S
C2202 C2201 1.366 . S
C2202 C2203 1.414 . S
C2202 C2205 1.499 . S
C2203 H2177 0.950 . S
C2203 C2202 1.414 . S
C2203 C2204 1.374 . S
C2204 H2178 0.950 . S
C2204 C2200 1.385 . S
C2204 C2203 1.374 . S
C2205 C2202 1.499 . S
C2205 C2206 1.373 . S
C2205 C2207 1.389 . S
C2206 H2179 0.950 . S
C2206 C2192 1.377 . S
C2206 C2205 1.373 . S
C2207 C2191 1.377 . S
C2207 C2205 1.389 . S
C2207 C2208 1.524 . S
C2208 C2207 1.524 . S
C2208 C2209 1.397 . S
C2208 C2213 1.363 . S
C2209 H2180 0.950 . S
C2209 C2208 1.397 . S
C2209 C2210 1.334 . S
C2210 H2181 0.950 . S
C2210 C2209 1.334 . S
C2210 C2211 1.287 . S
C2211 C2210 1.287 . S
C2211 C2212 1.524 . S
C2211 H2214 0.999 . S
C2212 H2182 0.950 . S
C2212 C2211 1.524 . S
C2212 C2213 1.415 . S
C2213 H2183 0.950 . S
C2213 C2208 1.363 . S
C2213 C2212 1.415 . S
H2214 C2211 0.999 . S
H2215 C2196 0.913 . S
H2216 C2234 0.951 . S
H2217 C2236 0.951 . S
H2218 C2238 0.950 . S
H2219 C2239 0.950 . S
H2220 C2241 0.950 . S
H2221 C2244 0.950 . S
H2222 C2245 0.950 . S
H2223 C2247 0.950 . S
H2224 C2248 0.950 . S
H2225 C2249 0.951 . S
H2226 C2251 0.951 . S
H2227 C2253 0.950 . S
H2228 C2254 0.950 . S
H2229 C2256 0.950 . S
H2230 C2259 0.950 . S
H2231 C2260 0.950 . S
H2232 C2262 0.950 . S
H2233 C2263 0.950 . S
C2234 H2216 0.951 . S
C2234 C2235 1.366 . S
C2234 C2236 1.388 . S
C2235 C2234 1.366 . S
C2235 C2239 1.385 . S
C2236 H2217 0.951 . S
C2236 C2234 1.388 . S
C2236 C2237 1.366 . S
C2237 C2236 1.366 . S
C2237 C2238 1.414 . S
C2237 C2240 1.499 . S
C2238 H2218 0.950 . S
C2238 C2237 1.414 . S
C2238 C2239 1.374 . S
C2239 H2219 0.950 . S
C2239 C2235 1.385 . S
C2239 C2238 1.374 . S
C2240 C2237 1.499 . S
C2240 C2241 1.373 . S
C2240 C2242 1.389 . S
C2241 H2220 0.950 . S
C2241 C2240 1.373 . S
C2241 C2257 1.377 . S
C2242 C2240 1.389 . S
C2242 C2243 1.524 . S
C2242 C2256 1.377 . S
C2243 C2242 1.524 . S
C2243 C2244 1.397 . S
C2243 C2248 1.363 . S
C2244 H2221 0.950 . S
C2244 C2243 1.397 . S
C2244 C2245 1.334 . S
C2245 H2222 0.950 . S
C2245 C2244 1.334 . S
C2245 C2246 1.287 . S
C2246 C2245 1.287 . S
C2246 C2247 1.524 . S
C2246 H2265 0.913 . S
C2247 H2223 0.950 . S
C2247 C2246 1.524 . S
C2247 C2248 1.415 . S
C2248 H2224 0.950 . S
C2248 C2243 1.363 . S
C2248 C2247 1.415 . S
C2249 H2225 0.951 . S
C2249 C2250 1.366 . S
C2249 C2251 1.388 . S
C2250 C2249 1.366 . S
C2250 C2254 1.385 . S
C2251 H2226 0.951 . S
C2251 C2249 1.388 . S
C2251 C2252 1.366 . S
C2252 C2251 1.366 . S
C2252 C2253 1.414 . S
C2252 C2255 1.499 . S
C2253 H2227 0.950 . S
C2253 C2252 1.414 . S
C2253 C2254 1.374 . S
C2254 H2228 0.950 . S
C2254 C2250 1.385 . S
C2254 C2253 1.374 . S
C2255 C2252 1.499 . S
C2255 C2256 1.373 . S
C2255 C2257 1.389 . S
C2256 H2229 0.950 . S
C2256 C2242 1.377 . S
C2256 C2255 1.373 . S
C2257 C2241 1.377 . S
C2257 C2255 1.389 . S
C2257 C2258 1.524 . S
C2258 C2257 1.524 . S
C2258 C2259 1.397 . S
C2258 C2263 1.363 . S
C2259 H2230 0.950 . S
C2259 C2258 1.397 . S
C2259 C2260 1.334 . S
C2260 H2231 0.950 . S
C2260 C2259 1.334 . S
C2260 C2261 1.287 . S
C2261 C2260 1.287 . S
C2261 C2262 1.524 . S
C2261 H2264 0.999 . S
C2262 H2232 0.950 . S
C2262 C2261 1.524 . S
C2262 C2263 1.415 . S
C2263 H2233 0.950 . S
C2263 C2258 1.363 . S
C2263 C2262 1.415 . S
H2264 C2261 0.999 . S
H2265 C2246 0.913 . S
H2266 C2284 0.951 . S
H2267 C2286 0.951 . S
H2268 C2288 0.950 . S
H2269 C2289 0.950 . S
H2270 C2291 0.950 . S
H2271 C2294 0.950 . S
H2272 C2295 0.950 . S
H2273 C2297 0.950 . S
H2274 C2298 0.950 . S
H2275 C2299 0.951 . S
H2276 C2301 0.951 . S
H2277 C2303 0.950 . S
H2278 C2304 0.950 . S
H2279 C2306 0.950 . S
H2280 C2309 0.950 . S
H2281 C2310 0.950 . S
H2282 C2312 0.950 . S
H2283 C2313 0.950 . S
C2284 H2266 0.951 . S
C2284 C2285 1.366 . S
C2284 C2286 1.388 . S
C2285 C2284 1.366 . S
C2285 C2289 1.385 . S
C2286 H2267 0.951 . S
C2286 C2284 1.388 . S
C2286 C2287 1.366 . S
C2287 C2286 1.366 . S
C2287 C2288 1.414 . S
C2287 C2290 1.499 . S
C2288 H2268 0.950 . S
C2288 C2287 1.414 . S
C2288 C2289 1.374 . S
C2289 H2269 0.950 . S
C2289 C2285 1.385 . S
C2289 C2288 1.374 . S
C2290 C2287 1.499 . S
C2290 C2291 1.373 . S
C2290 C2292 1.389 . S
C2291 H2270 0.950 . S
C2291 C2290 1.373 . S
C2291 C2307 1.377 . S
C2292 C2290 1.389 . S
C2292 C2293 1.524 . S
C2292 C2306 1.377 . S
C2293 C2292 1.524 . S
C2293 C2294 1.397 . S
C2293 C2298 1.363 . S
C2294 H2271 0.950 . S
C2294 C2293 1.397 . S
C2294 C2295 1.334 . S
C2295 H2272 0.950 . S
C2295 C2294 1.334 . S
C2295 C2296 1.287 . S
C2296 C2295 1.287 . S
C2296 C2297 1.524 . S
C2296 H2315 0.913 . S
C2297 H2273 0.950 . S
C2297 C2296 1.524 . S
C2297 C2298 1.415 . S
C2298 H2274 0.950 . S
C2298 C2293 1.363 . S
C2298 C2297 1.415 . S
C2299 H2275 0.951 . S
C2299 C2300 1.366 . S
C2299 C2301 1.388 . S
C2300 C2299 1.366 . S
C2300 C2304 1.385 . S
C2301 H2276 0.951 . S
C2301 C2299 1.388 . S
C2301 C2302 1.366 . S
C2302 C2301 1.366 . S
C2302 C2303 1.414 . S
C2302 C2305 1.499 . S
C2303 H2277 0.950 . S
C2303 C2302 1.414 . S
C2303 C2304 1.374 . S
C2304 H2278 0.950 . S
C2304 C2300 1.385 . S
C2304 C2303 1.374 . S
C2305 C2302 1.499 . S
C2305 C2306 1.373 . S
C2305 C2307 1.389 . S
C2306 H2279 0.950 . S
C2306 C2292 1.377 . S
C2306 C2305 1.373 . S
C2307 C2291 1.377 . S
C2307 C2305 1.389 . S
C2307 C2308 1.524 . S
C2308 C2307 1.524 . S
C2308 C2309 1.397 . S
C2308 C2313 1.363 . S
C2309 H2280 0.950 . S
C2309 C2308 1.397 . S
C2309 C2310 1.334 . S
C2310 H2281 0.950 . S
C2310 C2309 1.334 . S
C2310 C2311 1.287 . S
C2311 C2310 1.287 . S
C2311 C2312 1.524 . S
C2311 H2314 0.999 . S
C2312 H2282 0.950 . S
C2312 C2311 1.524 . S
C2312 C2313 1.415 . S
C2313 H2283 0.950 . S
C2313 C2308 1.363 . S
C2313 C2312 1.415 . S
H2314 C2311 0.999 . S
H2315 C2296 0.913 . S
H2316 C2334 0.951 . S
H2317 C2336 0.951 . S
H2318 C2338 0.950 . S
H2319 C2339 0.950 . S
H2320 C2341 0.950 . S
H2321 C2344 0.950 . S
H2322 C2345 0.950 . S
H2323 C2347 0.950 . S
H2324 C2348 0.950 . S
H2325 C2349 0.951 . S
H2326 C2351 0.951 . S
H2327 C2353 0.950 . S
H2328 C2354 0.950 . S
H2329 C2356 0.950 . S
H2330 C2359 0.950 . S
H2331 C2360 0.950 . S
H2332 C2362 0.950 . S
H2333 C2363 0.950 . S
C2334 H2316 0.951 . S
C2334 C2335 1.366 . S
C2334 C2336 1.388 . S
C2335 C2334 1.366 . S
C2335 C2339 1.385 . S
C2336 H2317 0.951 . S
C2336 C2334 1.388 . S
C2336 C2337 1.366 . S
C2337 C2336 1.366 . S
C2337 C2338 1.414 . S
C2337 C2340 1.499 . S
C2338 H2318 0.950 . S
C2338 C2337 1.414 . S
C2338 C2339 1.374 . S
C2339 H2319 0.950 . S
C2339 C2335 1.385 . S
C2339 C2338 1.374 . S
C2340 C2337 1.499 . S
C2340 C2341 1.373 . S
C2340 C2342 1.389 . S
C2341 H2320 0.950 . S
C2341 C2340 1.373 . S
C2341 C2357 1.377 . S
C2342 C2340 1.389 . S
C2342 C2343 1.524 . S
C2342 C2356 1.377 . S
C2343 C2342 1.524 . S
C2343 C2344 1.397 . S
C2343 C2348 1.363 . S
C2344 H2321 0.950 . S
C2344 C2343 1.397 . S
C2344 C2345 1.334 . S
C2345 H2322 0.950 . S
C2345 C2344 1.334 . S
C2345 C2346 1.287 . S
C2346 C2345 1.287 . S
C2346 C2347 1.524 . S
C2346 H2365 0.913 . S
C2347 H2323 0.950 . S
C2347 C2346 1.524 . S
C2347 C2348 1.415 . S
C2348 H2324 0.950 . S
C2348 C2343 1.363 . S
C2348 C2347 1.415 . S
C2349 H2325 0.951 . S
C2349 C2350 1.366 . S
C2349 C2351 1.388 . S
C2350 C2349 1.366 . S
C2350 C2354 1.385 . S
C2351 H2326 0.951 . S
C2351 C2349 1.388 . S
C2351 C2352 1.366 . S
C2352 C2351 1.366 . S
C2352 C2353 1.414 . S
C2352 C2355 1.499 . S
C2353 H2327 0.950 . S
C2353 C2352 1.414 . S
C2353 C2354 1.374 . S
C2354 H2328 0.950 . S
C2354 C2350 1.385 . S
C2354 C2353 1.374 . S
C2355 C2352 1.499 . S
C2355 C2356 1.373 . S
C2355 C2357 1.389 . S
C2356 H2329 0.950 . S
C2356 C2342 1.377 . S
C2356 C2355 1.373 . S
C2357 C2341 1.377 . S
C2357 C2355 1.389 . S
C2357 C2358 1.524 . S
C2358 C2357 1.524 . S
C2358 C2359 1.397 . S
C2358 C2363 1.363 . S
C2359 H2330 0.950 . S
C2359 C2358 1.397 . S
C2359 C2360 1.334 . S
C2360 H2331 0.950 . S
C2360 C2359 1.334 . S
C2360 C2361 1.287 . S
C2361 C2360 1.287 . S
C2361 C2362 1.524 . S
C2361 H2364 0.999 . S
C2362 H2332 0.950 . S
C2362 C2361 1.524 . S
C2362 C2363 1.415 . S
C2363 H2333 0.950 . S
C2363 C2358 1.363 . S
C2363 C2362 1.415 . S
H2364 C2361 0.999 . S
H2365 C2346 0.913 . S
H2366 C2384 0.951 . S
H2367 C2386 0.951 . S
H2368 C2388 0.950 . S
H2369 C2389 0.950 . S
H2370 C2391 0.950 . S
H2371 C2394 0.950 . S
H2372 C2395 0.950 . S
H2373 C2397 0.950 . S
H2374 C2398 0.950 . S
H2375 C2399 0.951 . S
H2376 C2401 0.951 . S
H2377 C2403 0.950 . S
H2378 C2404 0.950 . S
H2379 C2406 0.950 . S
H2380 C2409 0.950 . S
H2381 C2410 0.950 . S
H2382 C2412 0.950 . S
H2383 C2413 0.950 . S
C2384 H2366 0.951 . S
C2384 C2385 1.366 . S
C2384 C2386 1.388 . S
C2385 C2384 1.366 . S
C2385 C2389 1.385 . S
C2386 H2367 0.951 . S
C2386 C2384 1.388 . S
C2386 C2387 1.366 . S
C2387 C2386 1.366 . S
C2387 C2388 1.414 . S
C2387 C2390 1.499 . S
C2388 H2368 0.950 . S
C2388 C2387 1.414 . S
C2388 C2389 1.374 . S
C2389 H2369 0.950 . S
C2389 C2385 1.385 . S
C2389 C2388 1.374 . S
C2390 C2387 1.499 . S
C2390 C2391 1.373 . S
C2390 C2392 1.389 . S
C2391 H2370 0.950 . S
C2391 C2390 1.373 . S
C2391 C2407 1.377 . S
C2392 C2390 1.389 . S
C2392 C2393 1.524 . S
C2392 C2406 1.377 . S
C2393 C2392 1.524 . S
C2393 C2394 1.397 . S
C2393 C2398 1.363 . S
C2394 H2371 0.950 . S
C2394 C2393 1.397 . S
C2394 C2395 1.334 . S
C2395 H2372 0.950 . S
C2395 C2394 1.334 . S
C2395 C2396 1.287 . S
C2396 C2395 1.287 . S
C2396 C2397 1.524 . S
C2396 H2415 0.913 . S
C2397 H2373 0.950 . S
C2397 C2396 1.524 . S
C2397 C2398 1.415 . S
C2398 H2374 0.950 . S
C2398 C2393 1.363 . S
C2398 C2397 1.415 . S
C2399 H2375 0.951 . S
C2399 C2400 1.366 . S
C2399 C2401 1.388 . S
C2400 C2399 1.366 . S
C2400 C2404 1.385 . S
C2401 H2376 0.951 . S
C2401 C2399 1.388 . S
C2401 C2402 1.366 . S
C2402 C2401 1.366 . S
C2402 C2403 1.414 . S
C2402 C2405 1.499 . S
C2403 H2377 0.950 . S
C2403 C2402 1.414 . S
C2403 C2404 1.374 . S
C2404 H2378 0.950 . S
C2404 C2400 1.385 . S
C2404 C2403 1.374 . S
C2405 C2402 1.499 . S
C2405 C2406 1.373 . S
C2405 C2407 1.389 . S
C2406 H2379 0.950 . S
C2406 C2392 1.377 . S
C2406 C2405 1.373 . S
C2407 C2391 1.377 . S
C2407 C2405 1.389 . S
C2407 C2408 1.524 . S
C2408 C2407 1.524 . S
C2408 C2409 1.397 . S
C2408 C2413 1.363 . S
C2409 H2380 0.950 . S
C2409 C2408 1.397 . S
C2409 C2410 1.334 . S
C2410 H2381 0.950 . S
C2410 C2409 1.334 . S
C2410 C2411 1.287 . S
C2411 C2410 1.287 . S
C2411 C2412 1.524 . S
C2411 H2414 0.999 . S
C2412 H2382 0.950 . S
C2412 C2411 1.524 . S
C2412 C2413 1.415 . S
C2413 H2383 0.950 . S
C2413 C2408 1.363 . S
C2413 C2412 1.415 . S
H2414 C2411 0.999 . S
H2415 C2396 0.913 . S
H2416 C2434 0.951 . S
H2417 C2436 0.951 . S
H2418 C2438 0.950 . S
H2419 C2439 0.950 . S
H2420 C2441 0.950 . S
H2421 C2444 0.950 . S
H2422 C2445 0.950 . S
H2423 C2447 0.950 . S
H2424 C2448 0.950 . S
H2425 C2449 0.951 . S
H2426 C2451 0.951 . S
H2427 C2453 0.950 . S
H2428 C2454 0.950 . S
H2429 C2456 0.950 . S
H2430 C2459 0.950 . S
H2431 C2460 0.950 . S
H2432 C2462 0.950 . S
H2433 C2463 0.950 . S
C2434 H2416 0.951 . S
C2434 C2435 1.366 . S
C2434 C2436 1.388 . S
C2435 C2434 1.366 . S
C2435 C2439 1.385 . S
C2436 H2417 0.951 . S
C2436 C2434 1.388 . S
C2436 C2437 1.366 . S
C2437 C2436 1.366 . S
C2437 C2438 1.414 . S
C2437 C2440 1.499 . S
C2438 H2418 0.950 . S
C2438 C2437 1.414 . S
C2438 C2439 1.374 . S
C2439 H2419 0.950 . S
C2439 C2435 1.385 . S
C2439 C2438 1.374 . S
C2440 C2437 1.499 . S
C2440 C2441 1.373 . S
C2440 C2442 1.389 . S
C2441 H2420 0.950 . S
C2441 C2440 1.373 . S
C2441 C2457 1.377 . S
C2442 C2440 1.389 . S
C2442 C2443 1.524 . S
C2442 C2456 1.377 . S
C2443 C2442 1.524 . S
C2443 C2444 1.397 . S
C2443 C2448 1.363 . S
C2444 H2421 0.950 . S
C2444 C2443 1.397 . S
C2444 C2445 1.334 . S
C2445 H2422 0.950 . S
C2445 C2444 1.334 . S
C2445 C2446 1.287 . S
C2446 C2445 1.287 . S
C2446 C2447 1.524 . S
C2446 H2465 0.913 . S
C2447 H2423 0.950 . S
C2447 C2446 1.524 . S
C2447 C2448 1.415 . S
C2448 H2424 0.950 . S
C2448 C2443 1.363 . S
C2448 C2447 1.415 . S
C2449 H2425 0.951 . S
C2449 C2450 1.366 . S
C2449 C2451 1.388 . S
C2450 C2449 1.366 . S
C2450 C2454 1.385 . S
C2451 H2426 0.951 . S
C2451 C2449 1.388 . S
C2451 C2452 1.366 . S
C2452 C2451 1.366 . S
C2452 C2453 1.414 . S
C2452 C2455 1.499 . S
C2453 H2427 0.950 . S
C2453 C2452 1.414 . S
C2453 C2454 1.374 . S
C2454 H2428 0.950 . S
C2454 C2450 1.385 . S
C2454 C2453 1.374 . S
C2455 C2452 1.499 . S
C2455 C2456 1.373 . S
C2455 C2457 1.389 . S
C2456 H2429 0.950 . S
C2456 C2442 1.377 . S
C2456 C2455 1.373 . S
C2457 C2441 1.377 . S
C2457 C2455 1.389 . S
C2457 C2458 1.524 . S
C2458 C2457 1.524 . S
C2458 C2459 1.397 . S
C2458 C2463 1.363 . S
C2459 H2430 0.950 . S
C2459 C2458 1.397 . S
C2459 C2460 1.334 . S
C2460 H2431 0.950 . S
C2460 C2459 1.334 . S
C2460 C2461 1.287 . S
C2461 C2460 1.287 . S
C2461 C2462 1.524 . S
C2461 H2464 0.999 . S
C2462 H2432 0.950 . S
C2462 C2461 1.524 . S
C2462 C2463 1.415 . S
C2463 H2433 0.950 . S
C2463 C2458 1.363 . S
C2463 C2462 1.415 . S
H2464 C2461 0.999 . S
H2465 C2446 0.913 . S
H2466 C2484 0.951 . S
H2467 C2486 0.951 . S
H2468 C2488 0.950 . S
H2469 C2489 0.950 . S
H2470 C2491 0.950 . S
H2471 C2494 0.950 . S
H2472 C2495 0.950 . S
H2473 C2497 0.950 . S
H2474 C2498 0.950 . S
H2475 C2499 0.951 . S
H2476 C2501 0.951 . S
H2477 C2503 0.950 . S
H2478 C2504 0.950 . S
H2479 C2506 0.950 . S
H2480 C2509 0.950 . S
H2481 C2510 0.950 . S
H2482 C2512 0.950 . S
H2483 C2513 0.950 . S
C2484 H2466 0.951 . S
C2484 C2485 1.366 . S
C2484 C2486 1.388 . S
C2485 C2484 1.366 . S
C2485 C2489 1.385 . S
C2486 H2467 0.951 . S
C2486 C2484 1.388 . S
C2486 C2487 1.366 . S
C2487 C2486 1.366 . S
C2487 C2488 1.414 . S
C2487 C2490 1.499 . S
C2488 H2468 0.950 . S
C2488 C2487 1.414 . S
C2488 C2489 1.374 . S
C2489 H2469 0.950 . S
C2489 C2485 1.385 . S
C2489 C2488 1.374 . S
C2490 C2487 1.499 . S
C2490 C2491 1.373 . S
C2490 C2492 1.389 . S
C2491 H2470 0.950 . S
C2491 C2490 1.373 . S
C2491 C2507 1.377 . S
C2492 C2490 1.389 . S
C2492 C2493 1.524 . S
C2492 C2506 1.377 . S
C2493 C2492 1.524 . S
C2493 C2494 1.397 . S
C2493 C2498 1.363 . S
C2494 H2471 0.950 . S
C2494 C2493 1.397 . S
C2494 C2495 1.334 . S
C2495 H2472 0.950 . S
C2495 C2494 1.334 . S
C2495 C2496 1.287 . S
C2496 C2495 1.287 . S
C2496 C2497 1.524 . S
C2496 H2515 0.913 . S
C2497 H2473 0.950 . S
C2497 C2496 1.524 . S
C2497 C2498 1.415 . S
C2498 H2474 0.950 . S
C2498 C2493 1.363 . S
C2498 C2497 1.415 . S
C2499 H2475 0.951 . S
C2499 C2500 1.366 . S
C2499 C2501 1.388 . S
C2500 C2499 1.366 . S
C2500 C2504 1.385 . S
C2501 H2476 0.951 . S
C2501 C2499 1.388 . S
C2501 C2502 1.366 . S
C2502 C2501 1.366 . S
C2502 C2503 1.414 . S
C2502 C2505 1.499 . S
C2503 H2477 0.950 . S
C2503 C2502 1.414 . S
C2503 C2504 1.374 . S
C2504 H2478 0.950 . S
C2504 C2500 1.385 . S
C2504 C2503 1.374 . S
C2505 C2502 1.499 . S
C2505 C2506 1.373 . S
C2505 C2507 1.389 . S
C2506 H2479 0.950 . S
C2506 C2492 1.377 . S
C2506 C2505 1.373 . S
C2507 C2491 1.377 . S
C2507 C2505 1.389 . S
C2507 C2508 1.524 . S
C2508 C2507 1.524 . S
C2508 C2509 1.397 . S
C2508 C2513 1.363 . S
C2509 H2480 0.950 . S
C2509 C2508 1.397 . S
C2509 C2510 1.334 . S
C2510 H2481 0.950 . S
C2510 C2509 1.334 . S
C2510 C2511 1.287 . S
C2511 C2510 1.287 . S
C2511 C2512 1.524 . S
C2511 H2514 0.999 . S
C2512 H2482 0.950 . S
C2512 C2511 1.524 . S
C2512 C2513 1.415 . S
C2513 H2483 0.950 . S
C2513 C2508 1.363 . S
C2513 C2512 1.415 . S
H2514 C2511 0.999 . S
H2515 C2496 0.913 . S
H2516 C2534 0.951 . S
H2517 C2536 0.951 . S
H2518 C2538 0.950 . S
H2519 C2539 0.950 . S
H2520 C2541 0.950 . S
H2521 C2544 0.950 . S
H2522 C2545 0.950 . S
H2523 C2547 0.950 . S
H2524 C2548 0.950 . S
H2525 C2549 0.951 . S
H2526 C2551 0.951 . S
H2527 C2553 0.950 . S
H2528 C2554 0.950 . S
H2529 C2556 0.950 . S
H2530 C2559 0.950 . S
H2531 C2560 0.950 . S
H2532 C2562 0.950 . S
H2533 C2563 0.950 . S
C2534 H2516 0.951 . S
C2534 C2535 1.366 . S
C2534 C2536 1.388 . S
C2535 C2534 1.366 . S
C2535 C2539 1.385 . S
C2536 H2517 0.951 . S
C2536 C2534 1.388 . S
C2536 C2537 1.366 . S
C2537 C2536 1.366 . S
C2537 C2538 1.414 . S
C2537 C2540 1.499 . S
C2538 H2518 0.950 . S
C2538 C2537 1.414 . S
C2538 C2539 1.374 . S
C2539 H2519 0.950 . S
C2539 C2535 1.385 . S
C2539 C2538 1.374 . S
C2540 C2537 1.499 . S
C2540 C2541 1.373 . S
C2540 C2542 1.389 . S
C2541 H2520 0.950 . S
C2541 C2540 1.373 . S
C2541 C2557 1.377 . S
C2542 C2540 1.389 . S
C2542 C2543 1.524 . S
C2542 C2556 1.377 . S
C2543 C2542 1.524 . S
C2543 C2544 1.397 . S
C2543 C2548 1.363 . S
C2544 H2521 0.950 . S
C2544 C2543 1.397 . S
C2544 C2545 1.334 . S
C2545 H2522 0.950 . S
C2545 C2544 1.334 . S
C2545 C2546 1.287 . S
C2546 C2545 1.287 . S
C2546 C2547 1.524 . S
C2546 H2565 0.913 . S
C2547 H2523 0.950 . S
C2547 C2546 1.524 . S
C2547 C2548 1.415 . S
C2548 H2524 0.950 . S
C2548 C2543 1.363 . S
C2548 C2547 1.415 . S
C2549 H2525 0.951 . S
C2549 C2550 1.366 . S
C2549 C2551 1.388 . S
C2550 C2549 1.366 . S
C2550 C2554 1.385 . S
C2551 H2526 0.951 . S
C2551 C2549 1.388 . S
C2551 C2552 1.366 . S
C2552 C2551 1.366 . S
C2552 C2553 1.414 . S
C2552 C2555 1.499 . S
C2553 H2527 0.950 . S
C2553 C2552 1.414 . S
C2553 C2554 1.374 . S
C2554 H2528 0.950 . S
C2554 C2550 1.385 . S
C2554 C2553 1.374 . S
C2555 C2552 1.499 . S
C2555 C2556 1.373 . S
C2555 C2557 1.389 . S
C2556 H2529 0.950 . S
C2556 C2542 1.377 . S
C2556 C2555 1.373 . S
C2557 C2541 1.377 . S
C2557 C2555 1.389 . S
C2557 C2558 1.524 . S
C2558 C2557 1.524 . S
C2558 C2559 1.397 . S
C2558 C2563 1.363 . S
C2559 H2530 0.950 . S
C2559 C2558 1.397 . S
C2559 C2560 1.334 . S
C2560 H2531 0.950 . S
C2560 C2559 1.334 . S
C2560 C2561 1.287 . S
C2561 C2560 1.287 . S
C2561 C2562 1.524 . S
C2561 H2564 0.999 . S
C2562 H2532 0.950 . S
C2562 C2561 1.524 . S
C2562 C2563 1.415 . S
C2563 H2533 0.950 . S
C2563 C2558 1.363 . S
C2563 C2562 1.415 . S
H2564 C2561 0.999 . S
H2565 C2546 0.913 . S
H2566 C2584 0.951 . S
H2567 C2586 0.951 . S
H2568 C2588 0.950 . S
H2569 C2589 0.950 . S
H2570 C2591 0.950 . S
H2571 C2594 0.950 . S
H2572 C2595 0.950 . S
H2573 C2597 0.950 . S
H2574 C2598 0.950 . S
H2575 C2599 0.951 . S
H2576 C2601 0.951 . S
H2577 C2603 0.950 . S
H2578 C2604 0.950 . S
H2579 C2606 0.950 . S
H2580 C2609 0.950 . S
H2581 C2610 0.950 . S
H2582 C2612 0.950 . S
H2583 C2613 0.950 . S
C2584 H2566 0.951 . S
C2584 C2585 1.366 . S
C2584 C2586 1.388 . S
C2585 C2584 1.366 . S
C2585 C2589 1.385 . S
C2586 H2567 0.951 . S
C2586 C2584 1.388 . S
C2586 C2587 1.366 . S
C2587 C2586 1.366 . S
C2587 C2588 1.414 . S
C2587 C2590 1.499 . S
C2588 H2568 0.950 . S
C2588 C2587 1.414 . S
C2588 C2589 1.374 . S
C2589 H2569 0.950 . S
C2589 C2585 1.385 . S
C2589 C2588 1.374 . S
C2590 C2587 1.499 . S
C2590 C2591 1.373 . S
C2590 C2592 1.389 . S
C2591 H2570 0.950 . S
C2591 C2590 1.373 . S
C2591 C2607 1.377 . S
C2592 C2590 1.389 . S
C2592 C2593 1.524 . S
C2592 C2606 1.377 . S
C2593 C2592 1.524 . S
C2593 C2594 1.397 . S
C2593 C2598 1.363 . S
C2594 H2571 0.950 . S
C2594 C2593 1.397 . S
C2594 C2595 1.334 . S
C2595 H2572 0.950 . S
C2595 C2594 1.334 . S
C2595 C2596 1.287 . S
C2596 C2595 1.287 . S
C2596 C2597 1.524 . S
C2596 H2615 0.913 . S
C2597 H2573 0.950 . S
C2597 C2596 1.524 . S
C2597 C2598 1.415 . S
C2598 H2574 0.950 . S
C2598 C2593 1.363 . S
C2598 C2597 1.415 . S
C2599 H2575 0.951 . S
C2599 C2600 1.366 . S
C2599 C2601 1.388 . S
C2600 C2599 1.366 . S
C2600 C2604 1.385 . S
C2601 H2576 0.951 . S
C2601 C2599 1.388 . S
C2601 C2602 1.366 . S
C2602 C2601 1.366 . S
C2602 C2603 1.414 . S
C2602 C2605 1.499 . S
C2603 H2577 0.950 . S
C2603 C2602 1.414 . S
C2603 C2604 1.374 . S
C2604 H2578 0.950 . S
C2604 C2600 1.385 . S
C2604 C2603 1.374 . S
C2605 C2602 1.499 . S
C2605 C2606 1.373 . S
C2605 C2607 1.389 . S
C2606 H2579 0.950 . S
C2606 C2592 1.377 . S
C2606 C2605 1.373 . S
C2607 C2591 1.377 . S
C2607 C2605 1.389 . S
C2607 C2608 1.524 . S
C2608 C2607 1.524 . S
C2608 C2609 1.397 . S
C2608 C2613 1.363 . S
C2609 H2580 0.950 . S
C2609 C2608 1.397 . S
C2609 C2610 1.334 . S
C2610 H2581 0.950 . S
C2610 C2609 1.334 . S
C2610 C2611 1.287 . S
C2611 C2610 1.287 . S
C2611 C2612 1.524 . S
C2611 H2614 0.999 . S
C2612 H2582 0.950 . S
C2612 C2611 1.524 . S
C2612 C2613 1.415 . S
C2613 H2583 0.950 . S
C2613 C2608 1.363 . S
C2613 C2612 1.415 . S
H2614 C2611 0.999 . S
H2615 C2596 0.913 . S
H2616 C2634 0.951 . S
H2617 C2636 0.951 . S
H2618 C2638 0.950 . S
H2619 C2639 0.950 . S
H2620 C2641 0.950 . S
H2621 C2644 0.950 . S
H2622 C2645 0.950 . S
H2623 C2647 0.950 . S
H2624 C2648 0.950 . S
H2625 C2649 0.951 . S
H2626 C2651 0.951 . S
H2627 C2653 0.950 . S
H2628 C2654 0.950 . S
H2629 C2656 0.950 . S
H2630 C2659 0.950 . S
H2631 C2660 0.950 . S
H2632 C2662 0.950 . S
H2633 C2663 0.950 . S
C2634 H2616 0.951 . S
C2634 C2635 1.366 . S
C2634 C2636 1.388 . S
C2635 C2634 1.366 . S
C2635 C2639 1.385 . S
C2636 H2617 0.951 . S
C2636 C2634 1.388 . S
C2636 C2637 1.366 . S
C2637 C2636 1.366 . S
C2637 C2638 1.414 . S
C2637 C2640 1.499 . S
C2638 H2618 0.950 . S
C2638 C2637 1.414 . S
C2638 C2639 1.374 . S
C2639 H2619 0.950 . S
C2639 C2635 1.385 . S
C2639 C2638 1.374 . S
C2640 C2637 1.499 . S
C2640 C2641 1.373 . S
C2640 C2642 1.389 . S
C2641 H2620 0.950 . S
C2641 C2640 1.373 . S
C2641 C2657 1.377 . S
C2642 C2640 1.389 . S
C2642 C2643 1.524 . S
C2642 C2656 1.377 . S
C2643 C2642 1.524 . S
C2643 C2644 1.397 . S
C2643 C2648 1.363 . S
C2644 H2621 0.950 . S
C2644 C2643 1.397 . S
C2644 C2645 1.334 . S
C2645 H2622 0.950 . S
C2645 C2644 1.334 . S
C2645 C2646 1.287 . S
C2646 C2645 1.287 . S
C2646 C2647 1.524 . S
C2646 H2665 0.913 . S
C2647 H2623 0.950 . S
C2647 C2646 1.524 . S
C2647 C2648 1.415 . S
C2648 H2624 0.950 . S
C2648 C2643 1.363 . S
C2648 C2647 1.415 . S
C2649 H2625 0.951 . S
C2649 C2650 1.366 . S
C2649 C2651 1.388 . S
C2650 C2649 1.366 . S
C2650 C2654 1.385 . S
C2651 H2626 0.951 . S
C2651 C2649 1.388 . S
C2651 C2652 1.366 . S
C2652 C2651 1.366 . S
C2652 C2653 1.414 . S
C2652 C2655 1.499 . S
C2653 H2627 0.950 . S
C2653 C2652 1.414 . S
C2653 C2654 1.374 . S
C2654 H2628 0.950 . S
C2654 C2650 1.385 . S
C2654 C2653 1.374 . S
C2655 C2652 1.499 . S
C2655 C2656 1.373 . S
C2655 C2657 1.389 . S
C2656 H2629 0.950 . S
C2656 C2642 1.377 . S
C2656 C2655 1.373 . S
C2657 C2641 1.377 . S
C2657 C2655 1.389 . S
C2657 C2658 1.524 . S
C2658 C2657 1.524 . S
C2658 C2659 1.397 . S
C2658 C2663 1.363 . S
C2659 H2630 0.950 . S
C2659 C2658 1.397 . S
C2659 C2660 1.334 . S
C2660 H2631 0.950 . S
C2660 C2659 1.334 . S
C2660 C2661 1.287 . S
C2661 C2660 1.287 . S
C2661 C2662 1.524 . S
C2661 H2664 0.999 . S
C2662 H2632 0.950 . S
C2662 C2661 1.524 . S
C2662 C2663 1.415 . S
C2663 H2633 0.950 . S
C2663 C2658 1.363 . S
C2663 C2662 1.415 . S
H2664 C2661 0.999 . S
H2665 C2646 0.913 . S
H2666 C2684 0.951 . S
H2667 C2686 0.951 . S
H2668 C2688 0.950 . S
H2669 C2689 0.950 . S
H2670 C2691 0.950 . S
H2671 C2694 0.950 . S
H2672 C2695 0.950 . S
H2673 C2697 0.950 . S
H2674 C2698 0.950 . S
H2675 C2699 0.951 . S
H2676 C2701 0.951 . S
H2677 C2703 0.950 . S
H2678 C2704 0.950 . S
H2679 C2706 0.950 . S
H2680 C2709 0.950 . S
H2681 C2710 0.950 . S
H2682 C2712 0.950 . S
H2683 C2713 0.950 . S
C2684 H2666 0.951 . S
C2684 C2685 1.366 . S
C2684 C2686 1.388 . S
C2685 C2684 1.366 . S
C2685 C2689 1.385 . S
C2686 H2667 0.951 . S
C2686 C2684 1.388 . S
C2686 C2687 1.366 . S
C2687 C2686 1.366 . S
C2687 C2688 1.414 . S
C2687 C2690 1.499 . S
C2688 H2668 0.950 . S
C2688 C2687 1.414 . S
C2688 C2689 1.374 . S
C2689 H2669 0.950 . S
C2689 C2685 1.385 . S
C2689 C2688 1.374 . S
C2690 C2687 1.499 . S
C2690 C2691 1.373 . S
C2690 C2692 1.389 . S
C2691 H2670 0.950 . S
C2691 C2690 1.373 . S
C2691 C2707 1.377 . S
C2692 C2690 1.389 . S
C2692 C2693 1.524 . S
C2692 C2706 1.377 . S
C2693 C2692 1.524 . S
C2693 C2694 1.397 . S
C2693 C2698 1.363 . S
C2694 H2671 0.950 . S
C2694 C2693 1.397 . S
C2694 C2695 1.334 . S
C2695 H2672 0.950 . S
C2695 C2694 1.334 . S
C2695 C2696 1.287 . S
C2696 C2695 1.287 . S
C2696 C2697 1.524 . S
C2696 H2715 0.913 . S
C2697 H2673 0.950 . S
C2697 C2696 1.524 . S
C2697 C2698 1.415 . S
C2698 H2674 0.950 . S
C2698 C2693 1.363 . S
C2698 C2697 1.415 . S
C2699 H2675 0.951 . S
C2699 C2700 1.366 . S
C2699 C2701 1.388 . S
C2700 C2699 1.366 . S
C2700 C2704 1.385 . S
C2701 H2676 0.951 . S
C2701 C2699 1.388 . S
C2701 C2702 1.366 . S
C2702 C2701 1.366 . S
C2702 C2703 1.414 . S
C2702 C2705 1.499 . S
C2703 H2677 0.950 . S
C2703 C2702 1.414 . S
C2703 C2704 1.374 . S
C2704 H2678 0.950 . S
C2704 C2700 1.385 . S
C2704 C2703 1.374 . S
C2705 C2702 1.499 . S
C2705 C2706 1.373 . S
C2705 C2707 1.389 . S
C2706 H2679 0.950 . S
C2706 C2692 1.377 . S
C2706 C2705 1.373 . S
C2707 C2691 1.377 . S
C2707 C2705 1.389 . S
C2707 C2708 1.524 . S
C2708 C2707 1.524 . S
C2708 C2709 1.397 . S
C2708 C2713 1.363 . S
C2709 H2680 0.950 . S
C2709 C2708 1.397 . S
C2709 C2710 1.334 . S
C2710 H2681 0.950 . S
C2710 C2709 1.334 . S
C2710 C2711 1.287 . S
C2711 C2710 1.287 . S
C2711 C2712 1.524 . S
C2711 H2714 0.999 . S
C2712 H2682 0.950 . S
C2712 C2711 1.524 . S
C2712 C2713 1.415 . S
C2713 H2683 0.950 . S
C2713 C2708 1.363 . S
C2713 C2712 1.415 . S
H2714 C2711 0.999 . S
H2715 C2696 0.913 . S
H2716 C2734 0.951 . S
H2717 C2736 0.951 . S
H2718 C2738 0.950 . S
H2719 C2739 0.950 . S
H2720 C2741 0.950 . S
H2721 C2744 0.950 . S
H2722 C2745 0.950 . S
H2723 C2747 0.950 . S
H2724 C2748 0.950 . S
H2725 C2749 0.951 . S
H2726 C2751 0.951 . S
H2727 C2753 0.950 . S
H2728 C2754 0.950 . S
H2729 C2756 0.950 . S
H2730 C2759 0.950 . S
H2731 C2760 0.950 . S
H2732 C2762 0.950 . S
H2733 C2763 0.950 . S
C2734 H2716 0.951 . S
C2734 C2735 1.366 . S
C2734 C2736 1.388 . S
C2735 C2734 1.366 . S
C2735 C2739 1.385 . S
C2736 H2717 0.951 . S
C2736 C2734 1.388 . S
C2736 C2737 1.366 . S
C2737 C2736 1.366 . S
C2737 C2738 1.414 . S
C2737 C2740 1.499 . S
C2738 H2718 0.950 . S
C2738 C2737 1.414 . S
C2738 C2739 1.374 . S
C2739 H2719 0.950 . S
C2739 C2735 1.385 . S
C2739 C2738 1.374 . S
C2740 C2737 1.499 . S
C2740 C2741 1.373 . S
C2740 C2742 1.389 . S
C2741 H2720 0.950 . S
C2741 C2740 1.373 . S
C2741 C2757 1.377 . S
C2742 C2740 1.389 . S
C2742 C2743 1.524 . S
C2742 C2756 1.377 . S
C2743 C2742 1.524 . S
C2743 C2744 1.397 . S
C2743 C2748 1.363 . S
C2744 H2721 0.950 . S
C2744 C2743 1.397 . S
C2744 C2745 1.334 . S
C2745 H2722 0.950 . S
C2745 C2744 1.334 . S
C2745 C2746 1.287 . S
C2746 C2745 1.287 . S
C2746 C2747 1.524 . S
C2746 H2765 0.913 . S
C2747 H2723 0.950 . S
C2747 C2746 1.524 . S
C2747 C2748 1.415 . S
C2748 H2724 0.950 . S
C2748 C2743 1.363 . S
C2748 C2747 1.415 . S
C2749 H2725 0.951 . S
C2749 C2750 1.366 . S
C2749 C2751 1.388 . S
C2750 C2749 1.366 . S
C2750 C2754 1.385 . S
C2751 H2726 0.951 . S
C2751 C2749 1.388 . S
C2751 C2752 1.366 . S
C2752 C2751 1.366 . S
C2752 C2753 1.414 . S
C2752 C2755 1.499 . S
C2753 H2727 0.950 . S
C2753 C2752 1.414 . S
C2753 C2754 1.374 . S
C2754 H2728 0.950 . S
C2754 C2750 1.385 . S
C2754 C2753 1.374 . S
C2755 C2752 1.499 . S
C2755 C2756 1.373 . S
C2755 C2757 1.389 . S
C2756 H2729 0.950 . S
C2756 C2742 1.377 . S
C2756 C2755 1.373 . S
C2757 C2741 1.377 . S
C2757 C2755 1.389 . S
C2757 C2758 1.524 . S
C2758 C2757 1.524 . S
C2758 C2759 1.397 . S
C2758 C2763 1.363 . S
C2759 H2730 0.950 . S
C2759 C2758 1.397 . S
C2759 C2760 1.334 . S
C2760 H2731 0.950 . S
C2760 C2759 1.334 . S
C2760 C2761 1.287 . S
C2761 C2760 1.287 . S
C2761 C2762 1.524 . S
C2761 H2764 0.999 . S
C2762 H2732 0.950 . S
C2762 C2761 1.524 . S
C2762 C2763 1.415 . S
C2763 H2733 0.950 . S
C2763 C2758 1.363 . S
C2763 C2762 1.415 . S
H2764 C2761 0.999 . S
H2765 C2746 0.913 . S
H2766 C2784 0.951 . S
H2767 C2786 0.951 . S
H2768 C2788 0.950 . S
H2769 C2789 0.950 . S
H2770 C2791 0.950 . S
H2771 C2794 0.950 . S
H2772 C2795 0.950 . S
H2773 C2797 0.950 . S
H2774 C2798 0.950 . S
H2775 C2799 0.951 . S
H2776 C2801 0.951 . S
H2777 C2803 0.950 . S
H2778 C2804 0.950 . S
H2779 C2806 0.950 . S
H2780 C2809 0.950 . S
H2781 C2810 0.950 . S
H2782 C2812 0.950 . S
H2783 C2813 0.950 . S
C2784 H2766 0.951 . S
C2784 C2785 1.366 . S
C2784 C2786 1.388 . S
C2785 C2784 1.366 . S
C2785 C2789 1.385 . S
C2786 H2767 0.951 . S
C2786 C2784 1.388 . S
C2786 C2787 1.366 . S
C2787 C2786 1.366 . S
C2787 C2788 1.414 . S
C2787 C2790 1.499 . S
C2788 H2768 0.950 . S
C2788 C2787 1.414 . S
C2788 C2789 1.374 . S
C2789 H2769 0.950 . S
C2789 C2785 1.385 . S
C2789 C2788 1.374 . S
C2790 C2787 1.499 . S
C2790 C2791 1.373 . S
C2790 C2792 1.389 . S
C2791 H2770 0.950 . S
C2791 C2790 1.373 . S
C2791 C2807 1.377 . S
C2792 C2790 1.389 . S
C2792 C2793 1.524 . S
C2792 C2806 1.377 . S
C2793 C2792 1.524 . S
C2793 C2794 1.397 . S
C2793 C2798 1.363 . S
C2794 H2771 0.950 . S
C2794 C2793 1.397 . S
C2794 C2795 1.334 . S
C2795 H2772 0.950 . S
C2795 C2794 1.334 . S
C2795 C2796 1.287 . S
C2796 C2795 1.287 . S
C2796 C2797 1.524 . S
C2796 H2815 0.913 . S
C2797 H2773 0.950 . S
C2797 C2796 1.524 . S
C2797 C2798 1.415 . S
C2798 H2774 0.950 . S
C2798 C2793 1.363 . S
C2798 C2797 1.415 . S
C2799 H2775 0.951 . S
C2799 C2800 1.366 . S
C2799 C2801 1.388 . S
C2800 C2799 1.366 . S
C2800 C2804 1.385 . S
C2801 H2776 0.951 . S
C2801 C2799 1.388 . S
C2801 C2802 1.366 . S
C2802 C2801 1.366 . S
C2802 C2803 1.414 . S
C2802 C2805 1.499 . S
C2803 H2777 0.950 . S
C2803 C2802 1.414 . S
C2803 C2804 1.374 . S
C2804 H2778 0.950 . S
C2804 C2800 1.385 . S
C2804 C2803 1.374 . S
C2805 C2802 1.499 . S
C2805 C2806 1.373 . S
C2805 C2807 1.389 . S
C2806 H2779 0.950 . S
C2806 C2792 1.377 . S
C2806 C2805 1.373 . S
C2807 C2791 1.377 . S
C2807 C2805 1.389 . S
C2807 C2808 1.524 . S
C2808 C2807 1.524 . S
C2808 C2809 1.397 . S
C2808 C2813 1.363 . S
C2809 H2780 0.950 . S
C2809 C2808 1.397 . S
C2809 C2810 1.334 . S
C2810 H2781 0.950 . S
C2810 C2809 1.334 . S
C2810 C2811 1.287 . S
C2811 C2810 1.287 . S
C2811 C2812 1.524 . S
C2811 H2814 0.999 . S
C2812 H2782 0.950 . S
C2812 C2811 1.524 . S
C2812 C2813 1.415 . S
C2813 H2783 0.950 . S
C2813 C2808 1.363 . S
C2813 C2812 1.415 . S
H2814 C2811 0.999 . S
H2815 C2796 0.913 . S
H2816 C2834 0.951 . S
H2817 C2836 0.951 . S
H2818 C2838 0.950 . S
H2819 C2839 0.950 . S
H2820 C2841 0.950 . S
H2821 C2844 0.950 . S
H2822 C2845 0.950 . S
H2823 C2847 0.950 . S
H2824 C2848 0.950 . S
H2825 C2849 0.951 . S
H2826 C2851 0.951 . S
H2827 C2853 0.950 . S
H2828 C2854 0.950 . S
H2829 C2856 0.950 . S
H2830 C2859 0.950 . S
H2831 C2860 0.950 . S
H2832 C2862 0.950 . S
H2833 C2863 0.950 . S
C2834 H2816 0.951 . S
C2834 C2835 1.366 . S
C2834 C2836 1.388 . S
C2835 C2834 1.366 . S
C2835 C2839 1.385 . S
C2836 H2817 0.951 . S
C2836 C2834 1.388 . S
C2836 C2837 1.366 . S
C2837 C2836 1.366 . S
C2837 C2838 1.414 . S
C2837 C2840 1.499 . S
C2838 H2818 0.950 . S
C2838 C2837 1.414 . S
C2838 C2839 1.374 . S
C2839 H2819 0.950 . S
C2839 C2835 1.385 . S
C2839 C2838 1.374 . S
C2840 C2837 1.499 . S
C2840 C2841 1.373 . S
C2840 C2842 1.389 . S
C2841 H2820 0.950 . S
C2841 C2840 1.373 . S
C2841 C2857 1.377 . S
C2842 C2840 1.389 . S
C2842 C2843 1.524 . S
C2842 C2856 1.377 . S
C2843 C2842 1.524 . S
C2843 C2844 1.397 . S
C2843 C2848 1.363 . S
C2844 H2821 0.950 . S
C2844 C2843 1.397 . S
C2844 C2845 1.334 . S
C2845 H2822 0.950 . S
C2845 C2844 1.334 . S
C2845 C2846 1.287 . S
C2846 C2845 1.287 . S
C2846 C2847 1.524 . S
C2846 H2865 0.913 . S
C2847 H2823 0.950 . S
C2847 C2846 1.524 . S
C2847 C2848 1.415 . S
C2848 H2824 0.950 . S
C2848 C2843 1.363 . S
C2848 C2847 1.415 . S
C2849 H2825 0.951 . S
C2849 C2850 1.366 . S
C2849 C2851 1.388 . S
C2850 C2849 1.366 . S
C2850 C2854 1.385 . S
C2851 H2826 0.951 . S
C2851 C2849 1.388 . S
C2851 C2852 1.366 . S
C2852 C2851 1.366 . S
C2852 C2853 1.414 . S
C2852 C2855 1.499 . S
C2853 H2827 0.950 . S
C2853 C2852 1.414 . S
C2853 C2854 1.374 . S
C2854 H2828 0.950 . S
C2854 C2850 1.385 . S
C2854 C2853 1.374 . S
C2855 C2852 1.499 . S
C2855 C2856 1.373 . S
C2855 C2857 1.389 . S
C2856 H2829 0.950 . S
C2856 C2842 1.377 . S
C2856 C2855 1.373 . S
C2857 C2841 1.377 . S
C2857 C2855 1.389 . S
C2857 C2858 1.524 . S
C2858 C2857 1.524 . S
C2858 C2859 1.397 . S
C2858 C2863 1.363 . S
C2859 H2830 0.950 . S
C2859 C2858 1.397 . S
C2859 C2860 1.334 . S
C2860 H2831 0.950 . S
C2860 C2859 1.334 . S
C2860 C2861 1.287 . S
C2861 C2860 1.287 . S
C2861 C2862 1.524 . S
C2861 H2864 0.999 . S
C2862 H2832 0.950 . S
C2862 C2861 1.524 . S
C2862 C2863 1.415 . S
C2863 H2833 0.950 . S
C2863 C2858 1.363 . S
C2863 C2862 1.415 . S
H2864 C2861 0.999 . S
H2865 C2846 0.913 . S
H2866 C2884 0.951 . S
H2867 C2886 0.951 . S
H2868 C2888 0.950 . S
H2869 C2889 0.950 . S
H2870 C2891 0.950 . S
H2871 C2894 0.950 . S
H2872 C2895 0.950 . S
H2873 C2897 0.950 . S
H2874 C2898 0.950 . S
H2875 C2899 0.951 . S
H2876 C2901 0.951 . S
H2877 C2903 0.950 . S
H2878 C2904 0.950 . S
H2879 C2906 0.950 . S
H2880 C2909 0.950 . S
H2881 C2910 0.950 . S
H2882 C2912 0.950 . S
H2883 C2913 0.950 . S
C2884 H2866 0.951 . S
C2884 C2885 1.366 . S
C2884 C2886 1.388 . S
C2885 C2884 1.366 . S
C2885 C2889 1.385 . S
C2886 H2867 0.951 . S
C2886 C2884 1.388 . S
C2886 C2887 1.366 . S
C2887 C2886 1.366 . S
C2887 C2888 1.414 . S
C2887 C2890 1.499 . S
C2888 H2868 0.950 . S
C2888 C2887 1.414 . S
C2888 C2889 1.374 . S
C2889 H2869 0.950 . S
C2889 C2885 1.385 . S
C2889 C2888 1.374 . S
C2890 C2887 1.499 . S
C2890 C2891 1.373 . S
C2890 C2892 1.389 . S
C2891 H2870 0.950 . S
C2891 C2890 1.373 . S
C2891 C2907 1.377 . S
C2892 C2890 1.389 . S
C2892 C2893 1.524 . S
C2892 C2906 1.377 . S
C2893 C2892 1.524 . S
C2893 C2894 1.397 . S
C2893 C2898 1.363 . S
C2894 H2871 0.950 . S
C2894 C2893 1.397 . S
C2894 C2895 1.334 . S
C2895 H2872 0.950 . S
C2895 C2894 1.334 . S
C2895 C2896 1.287 . S
C2896 C2895 1.287 . S
C2896 C2897 1.524 . S
C2896 H2915 0.913 . S
C2897 H2873 0.950 . S
C2897 C2896 1.524 . S
C2897 C2898 1.415 . S
C2898 H2874 0.950 . S
C2898 C2893 1.363 . S
C2898 C2897 1.415 . S
C2899 H2875 0.951 . S
C2899 C2900 1.366 . S
C2899 C2901 1.388 . S
C2900 C2899 1.366 . S
C2900 C2904 1.385 . S
C2901 H2876 0.951 . S
C2901 C2899 1.388 . S
C2901 C2902 1.366 . S
C2902 C2901 1.366 . S
C2902 C2903 1.414 . S
C2902 C2905 1.499 . S
C2903 H2877 0.950 . S
C2903 C2902 1.414 . S
C2903 C2904 1.374 . S
C2904 H2878 0.950 . S
C2904 C2900 1.385 . S
C2904 C2903 1.374 . S
C2905 C2902 1.499 . S
C2905 C2906 1.373 . S
C2905 C2907 1.389 . S
C2906 H2879 0.950 . S
C2906 C2892 1.377 . S
C2906 C2905 1.373 . S
C2907 C2891 1.377 . S
C2907 C2905 1.389 . S
C2907 C2908 1.524 . S
C2908 C2907 1.524 . S
C2908 C2909 1.397 . S
C2908 C2913 1.363 . S
C2909 H2880 0.950 . S
C2909 C2908 1.397 . S
C2909 C2910 1.334 . S
C2910 H2881 0.950 . S
C2910 C2909 1.334 . S
C2910 C2911 1.287 . S
C2911 C2910 1.287 . S
C2911 C2912 1.524 . S
C2911 H2914 0.999 . S
C2912 H2882 0.950 . S
C2912 C2911 1.524 . S
C2912 C2913 1.415 . S
C2913 H2883 0.950 . S
C2913 C2908 1.363 . S
C2913 C2912 1.415 . S
H2914 C2911 0.999 . S
H2915 C2896 0.913 . S
H2916 C2934 0.951 . S
H2917 C2936 0.951 . S
H2918 C2938 0.950 . S
H2919 C2939 0.950 . S
H2920 C2941 0.950 . S
H2921 C2944 0.950 . S
H2922 C2945 0.950 . S
H2923 C2947 0.950 . S
H2924 C2948 0.950 . S
H2925 C2949 0.951 . S
H2926 C2951 0.951 . S
H2927 C2953 0.950 . S
H2928 C2954 0.950 . S
H2929 C2956 0.950 . S
H2930 C2959 0.950 . S
H2931 C2960 0.950 . S
H2932 C2962 0.950 . S
H2933 C2963 0.950 . S
C2934 H2916 0.951 . S
C2934 C2935 1.366 . S
C2934 C2936 1.388 . S
C2935 C2934 1.366 . S
C2935 C2939 1.385 . S
C2936 H2917 0.951 . S
C2936 C2934 1.388 . S
C2936 C2937 1.366 . S
C2937 C2936 1.366 . S
C2937 C2938 1.414 . S
C2937 C2940 1.499 . S
C2938 H2918 0.950 . S
C2938 C2937 1.414 . S
C2938 C2939 1.374 . S
C2939 H2919 0.950 . S
C2939 C2935 1.385 . S
C2939 C2938 1.374 . S
C2940 C2937 1.499 . S
C2940 C2941 1.373 . S
C2940 C2942 1.389 . S
C2941 H2920 0.950 . S
C2941 C2940 1.373 . S
C2941 C2957 1.377 . S
C2942 C2940 1.389 . S
C2942 C2943 1.524 . S
C2942 C2956 1.377 . S
C2943 C2942 1.524 . S
C2943 C2944 1.397 . S
C2943 C2948 1.363 . S
C2944 H2921 0.950 . S
C2944 C2943 1.397 . S
C2944 C2945 1.334 . S
C2945 H2922 0.950 . S
C2945 C2944 1.334 . S
C2945 C2946 1.287 . S
C2946 C2945 1.287 . S
C2946 C2947 1.524 . S
C2946 H2965 0.913 . S
C2947 H2923 0.950 . S
C2947 C2946 1.524 . S
C2947 C2948 1.415 . S
C2948 H2924 0.950 . S
C2948 C2943 1.363 . S
C2948 C2947 1.415 . S
C2949 H2925 0.951 . S
C2949 C2950 1.366 . S
C2949 C2951 1.388 . S
C2950 C2949 1.366 . S
C2950 C2954 1.385 . S
C2951 H2926 0.951 . S
C2951 C2949 1.388 . S
C2951 C2952 1.366 . S
C2952 C2951 1.366 . S
C2952 C2953 1.414 . S
C2952 C2955 1.499 . S
C2953 H2927 0.950 . S
C2953 C2952 1.414 . S
C2953 C2954 1.374 . S
C2954 H2928 0.950 . S
C2954 C2950 1.385 . S
C2954 C2953 1.374 . S
C2955 C2952 1.499 . S
C2955 C2956 1.373 . S
C2955 C2957 1.389 . S
C2956 H2929 0.950 . S
C2956 C2942 1.377 . S
C2956 C2955 1.373 . S
C2957 C2941 1.377 . S
C2957 C2955 1.389 . S
C2957 C2958 1.524 . S
C2958 C2957 1.524 . S
C2958 C2959 1.397 . S
C2958 C2963 1.363 . S
C2959 H2930 0.950 . S
C2959 C2958 1.397 . S
C2959 C2960 1.334 . S
C2960 H2931 0.950 . S
C2960 C2959 1.334 . S
C2960 C2961 1.287 . S
C2961 C2960 1.287 . S
C2961 C2962 1.524 . S
C2961 H2964 0.999 . S
C2962 H2932 0.950 . S
C2962 C2961 1.524 . S
C2962 C2963 1.415 . S
C2963 H2933 0.950 . S
C2963 C2958 1.363 . S
C2963 C2962 1.415 . S
H2964 C2961 0.999 . S
H2965 C2946 0.913 . S
H2966 C2984 0.951 . S
H2967 C2986 0.951 . S
H2968 C2988 0.950 . S
H2969 C2989 0.950 . S
H2970 C2991 0.950 . S
H2971 C2994 0.950 . S
H2972 C2995 0.950 . S
H2973 C2997 0.950 . S
H2974 C2998 0.950 . S
H2975 C2999 0.951 . S
H2976 C3001 0.951 . S
H2977 C3003 0.950 . S
H2978 C3004 0.950 . S
H2979 C3006 0.950 . S
H2980 C3009 0.950 . S
H2981 C3010 0.950 . S
H2982 C3012 0.950 . S
H2983 C3013 0.950 . S
C2984 H2966 0.951 . S
C2984 C2985 1.366 . S
C2984 C2986 1.388 . S
C2985 C2984 1.366 . S
C2985 C2989 1.385 . S
C2986 H2967 0.951 . S
C2986 C2984 1.388 . S
C2986 C2987 1.366 . S
C2987 C2986 1.366 . S
C2987 C2988 1.414 . S
C2987 C2990 1.499 . S
C2988 H2968 0.950 . S
C2988 C2987 1.414 . S
C2988 C2989 1.374 . S
C2989 H2969 0.950 . S
C2989 C2985 1.385 . S
C2989 C2988 1.374 . S
C2990 C2987 1.499 . S
C2990 C2991 1.373 . S
C2990 C2992 1.389 . S
C2991 H2970 0.950 . S
C2991 C2990 1.373 . S
C2991 C3007 1.377 . S
C2992 C2990 1.389 . S
C2992 C2993 1.524 . S
C2992 C3006 1.377 . S
C2993 C2992 1.524 . S
C2993 C2994 1.397 . S
C2993 C2998 1.363 . S
C2994 H2971 0.950 . S
C2994 C2993 1.397 . S
C2994 C2995 1.334 . S
C2995 H2972 0.950 . S
C2995 C2994 1.334 . S
C2995 C2996 1.287 . S
C2996 C2995 1.287 . S
C2996 C2997 1.524 . S
C2996 H3015 0.913 . S
C2997 H2973 0.950 . S
C2997 C2996 1.524 . S
C2997 C2998 1.415 . S
C2998 H2974 0.950 . S
C2998 C2993 1.363 . S
C2998 C2997 1.415 . S
C2999 H2975 0.951 . S
C2999 C3000 1.366 . S
C2999 C3001 1.388 . S
C3000 C2999 1.366 . S
C3000 C3004 1.385 . S
C3001 H2976 0.951 . S
C3001 C2999 1.388 . S
C3001 C3002 1.366 . S
C3002 C3001 1.366 . S
C3002 C3003 1.414 . S
C3002 C3005 1.499 . S
C3003 H2977 0.950 . S
C3003 C3002 1.414 . S
C3003 C3004 1.374 . S
C3004 H2978 0.950 . S
C3004 C3000 1.385 . S
C3004 C3003 1.374 . S
C3005 C3002 1.499 . S
C3005 C3006 1.373 . S
C3005 C3007 1.389 . S
C3006 H2979 0.950 . S
C3006 C2992 1.377 . S
C3006 C3005 1.373 . S
C3007 C2991 1.377 . S
C3007 C3005 1.389 . S
C3007 C3008 1.524 . S
C3008 C3007 1.524 . S
C3008 C3009 1.397 . S
C3008 C3013 1.363 . S
C3009 H2980 0.950 . S
C3009 C3008 1.397 . S
C3009 C3010 1.334 . S
C3010 H2981 0.950 . S
C3010 C3009 1.334 . S
C3010 C3011 1.287 . S
C3011 C3010 1.287 . S
C3011 C3012 1.524 . S
C3011 H3014 0.999 . S
C3012 H2982 0.950 . S
C3012 C3011 1.524 . S
C3012 C3013 1.415 . S
C3013 H2983 0.950 . S
C3013 C3008 1.363 . S
C3013 C3012 1.415 . S
H3014 C3011 0.999 . S
H3015 C2996 0.913 . S
H3016 C3034 0.951 . S
H3017 C3036 0.951 . S
H3018 C3038 0.950 . S
H3019 C3039 0.950 . S
H3020 C3041 0.950 . S
H3021 C3044 0.950 . S
H3022 C3045 0.950 . S
H3023 C3047 0.950 . S
H3024 C3048 0.950 . S
H3025 C3049 0.951 . S
H3026 C3051 0.951 . S
H3027 C3053 0.950 . S
H3028 C3054 0.950 . S
H3029 C3056 0.950 . S
H3030 C3059 0.950 . S
H3031 C3060 0.950 . S
H3032 C3062 0.950 . S
H3033 C3063 0.950 . S
C3034 H3016 0.951 . S
C3034 C3035 1.366 . S
C3034 C3036 1.388 . S
C3035 C3034 1.366 . S
C3035 C3039 1.385 . S
C3036 H3017 0.951 . S
C3036 C3034 1.388 . S
C3036 C3037 1.366 . S
C3037 C3036 1.366 . S
C3037 C3038 1.414 . S
C3037 C3040 1.499 . S
C3038 H3018 0.950 . S
C3038 C3037 1.414 . S
C3038 C3039 1.374 . S
C3039 H3019 0.950 . S
C3039 C3035 1.385 . S
C3039 C3038 1.374 . S
C3040 C3037 1.499 . S
C3040 C3041 1.373 . S
C3040 C3042 1.389 . S
C3041 H3020 0.950 . S
C3041 C3040 1.373 . S
C3041 C3057 1.377 . S
C3042 C3040 1.389 . S
C3042 C3043 1.524 . S
C3042 C3056 1.377 . S
C3043 C3042 1.524 . S
C3043 C3044 1.397 . S
C3043 C3048 1.363 . S
C3044 H3021 0.950 . S
C3044 C3043 1.397 . S
C3044 C3045 1.334 . S
C3045 H3022 0.950 . S
C3045 C3044 1.334 . S
C3045 C3046 1.287 . S
C3046 C3045 1.287 . S
C3046 C3047 1.524 . S
C3046 H3065 0.913 . S
C3047 H3023 0.950 . S
C3047 C3046 1.524 . S
C3047 C3048 1.415 . S
C3048 H3024 0.950 . S
C3048 C3043 1.363 . S
C3048 C3047 1.415 . S
C3049 H3025 0.951 . S
C3049 C3050 1.366 . S
C3049 C3051 1.388 . S
C3050 C3049 1.366 . S
C3050 C3054 1.385 . S
C3051 H3026 0.951 . S
C3051 C3049 1.388 . S
C3051 C3052 1.366 . S
C3052 C3051 1.366 . S
C3052 C3053 1.414 . S
C3052 C3055 1.499 . S
C3053 H3027 0.950 . S
C3053 C3052 1.414 . S
C3053 C3054 1.374 . S
C3054 H3028 0.950 . S
C3054 C3050 1.385 . S
C3054 C3053 1.374 . S
C3055 C3052 1.499 . S
C3055 C3056 1.373 . S
C3055 C3057 1.389 . S
C3056 H3029 0.950 . S
C3056 C3042 1.377 . S
C3056 C3055 1.373 . S
C3057 C3041 1.377 . S
C3057 C3055 1.389 . S
C3057 C3058 1.524 . S
C3058 C3057 1.524 . S
C3058 C3059 1.397 . S
C3058 C3063 1.363 . S
C3059 H3030 0.950 . S
C3059 C3058 1.397 . S
C3059 C3060 1.334 . S
C3060 H3031 0.950 . S
C3060 C3059 1.334 . S
C3060 C3061 1.287 . S
C3061 C3060 1.287 . S
C3061 C3062 1.524 . S
C3061 H3064 0.999 . S
C3062 H3032 0.950 . S
C3062 C3061 1.524 . S
C3062 C3063 1.415 . S
C3063 H3033 0.950 . S
C3063 C3058 1.363 . S
C3063 C3062 1.415 . S
H3064 C3061 0.999 . S
H3065 C3046 0.913 . S
H3066 C3084 0.989 . S
H3067 C3086 0.951 . S
H3068 C3088 0.950 . S
H3069 C3089 0.950 . S
H3070 C3091 0.950 . S
H3071 C3094 0.950 . S
H3072 C3095 0.950 . S
H3073 C3097 0.950 . S
H3074 C3098 0.950 . S
H3075 C3099 0.951 . S
H3076 C3101 0.951 . S
H3077 C3103 0.950 . S
H3078 C3104 0.950 . S
H3079 C3106 0.950 . S
H3080 C3109 0.950 . S
H3081 C3110 0.950 . S
H3082 C3112 0.950 . S
H3083 C3113 0.950 . S
C3084 H3066 0.989 . S
C3084 C3085 1.366 . S
C3084 C3086 1.388 . S
C3085 C3084 1.366 . S
C3085 C3089 1.385 . S
C3086 H3067 0.951 . S
C3086 C3084 1.388 . S
C3086 C3087 1.366 . S
C3087 C3086 1.366 . S
C3087 C3088 1.414 . S
C3087 C3090 1.499 . S
C3088 H3068 0.950 . S
C3088 C3087 1.414 . S
C3088 C3089 1.374 . S
C3089 H3069 0.950 . S
C3089 C3085 1.385 . S
C3089 C3088 1.374 . S
C3090 C3087 1.499 . S
C3090 C3091 1.373 . S
C3090 C3092 1.389 . S
C3091 H3070 0.950 . S
C3091 C3090 1.373 . S
C3091 C3107 1.377 . S
C3092 C3090 1.389 . S
C3092 C3093 1.524 . S
C3092 C3106 1.377 . S
C3093 C3092 1.524 . S
C3093 C3094 1.397 . S
C3093 C3098 1.363 . S
C3094 H3071 0.950 . S
C3094 C3093 1.397 . S
C3094 C3095 1.334 . S
C3095 H3072 0.950 . S
C3095 C3094 1.334 . S
C3095 C3096 1.287 . S
C3096 C3095 1.287 . S
C3096 C3097 1.524 . S
C3096 H3115 0.913 . S
C3097 H3073 0.950 . S
C3097 C3096 1.524 . S
C3097 C3098 1.415 . S
C3098 H3074 0.950 . S
C3098 C3093 1.363 . S
C3098 C3097 1.415 . S
C3099 H3075 0.951 . S
C3099 C3100 1.366 . S
C3099 C3101 1.388 . S
C3100 C3099 1.366 . S
C3100 C3104 1.385 . S
C3101 H3076 0.951 . S
C3101 C3099 1.388 . S
C3101 C3102 1.366 . S
C3102 C3101 1.366 . S
C3102 C3103 1.414 . S
C3102 C3105 1.499 . S
C3103 H3077 0.950 . S
C3103 C3102 1.414 . S
C3103 C3104 1.374 . S
C3104 H3078 0.950 . S
C3104 C3100 1.385 . S
C3104 C3103 1.374 . S
C3105 C3102 1.499 . S
C3105 C3106 1.373 . S
C3105 C3107 1.389 . S
C3106 H3079 0.950 . S
C3106 C3092 1.377 . S
C3106 C3105 1.373 . S
C3107 C3091 1.377 . S
C3107 C3105 1.389 . S
C3107 C3108 1.524 . S
C3108 C3107 1.524 . S
C3108 C3109 1.397 . S
C3108 C3113 1.363 . S
C3109 H3080 0.950 . S
C3109 C3108 1.397 . S
C3109 C3110 1.334 . S
C3110 H3081 0.950 . S
C3110 C3109 1.334 . S
C3110 C3111 1.287 . S
C3111 C3110 1.287 . S
C3111 C3112 1.524 . S
C3111 H3114 0.999 . S
C3112 H3082 0.950 . S
C3112 C3111 1.524 . S
C3112 C3113 1.415 . S
C3113 H3083 0.950 . S
C3113 C3108 1.363 . S
C3113 C3112 1.415 . S
H3114 C3111 0.999 . S
H3115 C3096 0.913 . S
H3116 C3134 0.951 . S
H3117 C3136 0.951 . S
H3118 C3138 0.950 . S
H3119 C3139 0.950 . S
H3120 C3141 0.950 . S
H3121 C3144 0.950 . S
H3122 C3145 0.950 . S
H3123 C3147 0.950 . S
H3124 C3148 0.950 . S
H3125 C3149 0.951 . S
H3126 C3151 0.951 . S
H3127 C3153 0.950 . S
H3128 C3154 0.950 . S
H3129 C3156 0.950 . S
H3130 C3159 0.950 . S
H3131 C3160 0.950 . S
H3132 C3162 0.950 . S
H3133 C3163 0.950 . S
C3134 H3116 0.951 . S
C3134 C3135 1.366 . S
C3134 C3136 1.388 . S
C3135 C3134 1.366 . S
C3135 C3139 1.385 . S
C3136 H3117 0.951 . S
C3136 C3134 1.388 . S
C3136 C3137 1.366 . S
C3137 C3136 1.366 . S
C3137 C3138 1.414 . S
C3137 C3140 1.499 . S
C3138 H3118 0.950 . S
C3138 C3137 1.414 . S
C3138 C3139 1.374 . S
C3139 H3119 0.950 . S
C3139 C3135 1.385 . S
C3139 C3138 1.374 . S
C3140 C3137 1.499 . S
C3140 C3141 1.373 . S
C3140 C3142 1.389 . S
C3141 H3120 0.950 . S
C3141 C3140 1.373 . S
C3141 C3157 1.377 . S
C3142 C3140 1.389 . S
C3142 C3143 1.524 . S
C3142 C3156 1.377 . S
C3143 C3142 1.524 . S
C3143 C3144 1.397 . S
C3143 C3148 1.363 . S
C3144 H3121 0.950 . S
C3144 C3143 1.397 . S
C3144 C3145 1.334 1_556 S
C3145 H3122 0.950 . S
C3145 C3144 1.334 1_554 S
C3145 C3146 1.287 . S
C3146 C3145 1.287 . S
C3146 C3147 1.524 1_554 S
C3146 H3165 0.913 . S
C3147 H3123 0.950 . S
C3147 C3146 1.524 1_556 S
C3147 C3148 1.415 . S
C3148 H3124 0.950 . S
C3148 C3143 1.363 . S
C3148 C3147 1.415 . S
C3149 H3125 0.951 . S
C3149 C3150 1.366 . S
C3149 C3151 1.388 . S
C3150 C3149 1.366 . S
C3150 C3154 1.385 . S
C3151 H3126 0.951 . S
C3151 C3149 1.388 . S
C3151 C3152 1.366 . S
C3152 C3151 1.366 . S
C3152 C3153 1.414 . S
C3152 C3155 1.499 . S
C3153 H3127 0.950 . S
C3153 C3152 1.414 . S
C3153 C3154 1.374 . S
C3154 H3128 0.950 . S
C3154 C3150 1.385 . S
C3154 C3153 1.374 . S
C3155 C3152 1.499 . S
C3155 C3156 1.373 . S
C3155 C3157 1.389 . S
C3156 H3129 0.950 . S
C3156 C3142 1.377 . S
C3156 C3155 1.373 . S
C3157 C3141 1.377 . S
C3157 C3155 1.389 . S
C3157 C3158 1.524 . S
C3158 C3157 1.524 . S
C3158 C3159 1.397 . S
C3158 C3163 1.363 . S
C3159 H3130 0.950 . S
C3159 C3158 1.397 . S
C3159 C3160 1.334 . S
C3160 H3131 0.950 . S
C3160 C3159 1.334 . S
C3160 C3161 1.287 . S
C3161 C3160 1.287 . S
C3161 C3162 1.524 . S
C3161 H3164 0.999 . S
C3162 H3132 0.950 . S
C3162 C3161 1.524 . S
C3162 C3163 1.415 . S
C3163 H3133 0.950 . S
C3163 C3158 1.363 . S
C3163 C3162 1.415 . S
H3164 C3161 0.999 . S
H3165 C3146 0.913 . S
H3166 C3184 0.951 1_554 S
H3167 C3186 0.951 . S
H3168 C3188 0.950 . S
H3169 C3189 0.950 . S
H3170 C3191 0.950 . S
H3171 C3194 0.950 . S
H3172 C3195 0.950 . S
H3173 C3197 0.950 . S
H3174 C3198 0.950 . S
H3175 C3199 0.951 . S
H3176 C3201 0.951 . S
H3177 C3203 0.950 . S
H3178 C3204 0.950 . S
H3179 C3206 0.950 . S
H3180 C3209 0.950 . S
H3181 C3210 0.950 . S
H3182 C3212 0.950 . S
H3183 C3213 0.950 . S
C3184 H3166 0.951 1_556 S
C3184 C3185 1.366 . S
C3184 C3186 1.388 . S
C3185 C3184 1.366 . S
C3185 C3189 1.385 . S
C3186 H3167 0.951 . S
C3186 C3184 1.388 . S
C3186 C3187 1.366 . S
C3187 C3186 1.366 . S
C3187 C3188 1.414 . S
C3187 C3190 1.499 . S
C3188 H3168 0.950 . S
C3188 C3187 1.414 . S
C3188 C3189 1.374 . S
C3189 H3169 0.950 . S
C3189 C3185 1.385 . S
C3189 C3188 1.374 . S
C3190 C3187 1.499 . S
C3190 C3191 1.373 . S
C3190 C3192 1.389 . S
C3191 H3170 0.950 . S
C3191 C3190 1.373 . S
C3191 C3207 1.377 . S
C3192 C3190 1.389 . S
C3192 C3193 1.524 . S
C3192 C3206 1.377 . S
C3193 C3192 1.524 . S
C3193 C3194 1.397 . S
C3193 C3198 1.363 . S
C3194 H3171 0.950 . S
C3194 C3193 1.397 . S
C3194 C3195 1.334 . S
C3195 H3172 0.950 . S
C3195 C3194 1.334 . S
C3195 C3196 1.287 . S
C3196 C3195 1.287 . S
C3196 C3197 1.524 . S
C3196 H3215 0.913 . S
C3197 H3173 0.950 . S
C3197 C3196 1.524 . S
C3197 C3198 1.415 . S
C3198 H3174 0.950 . S
C3198 C3193 1.363 . S
C3198 C3197 1.415 . S
C3199 H3175 0.951 . S
C3199 C3200 1.366 . S
C3199 C3201 1.388 . S
C3200 C3199 1.366 . S
C3200 C3204 1.385 . S
C3201 H3176 0.951 . S
C3201 C3199 1.388 . S
C3201 C3202 1.366 . S
C3202 C3201 1.366 . S
C3202 C3203 1.414 . S
C3202 C3205 1.499 . S
C3203 H3177 0.950 . S
C3203 C3202 1.414 . S
C3203 C3204 1.374 . S
C3204 H3178 0.950 . S
C3204 C3200 1.385 . S
C3204 C3203 1.374 . S
C3205 C3202 1.499 . S
C3205 C3206 1.373 . S
C3205 C3207 1.389 . S
C3206 H3179 0.950 . S
C3206 C3192 1.377 . S
C3206 C3205 1.373 . S
C3207 C3191 1.377 . S
C3207 C3205 1.389 . S
C3207 C3208 1.524 . S
C3208 C3207 1.524 . S
C3208 C3209 1.397 . S
C3208 C3213 1.363 . S
C3209 H3180 0.950 . S
C3209 C3208 1.397 . S
C3209 C3210 1.334 . S
C3210 H3181 0.950 . S
C3210 C3209 1.334 . S
C3210 C3211 1.287 . S
C3211 C3210 1.287 . S
C3211 C3212 1.524 . S
C3211 H3214 0.999 . S
C3212 H3182 0.950 . S
C3212 C3211 1.524 . S
C3212 C3213 1.415 . S
C3213 H3183 0.950 . S
C3213 C3208 1.363 . S
C3213 C3212 1.415 . S
H3214 C3211 0.999 . S
H3215 C3196 0.913 . S
H3216 C3234 0.951 . S
H3217 C3236 0.951 . S
H3218 C3238 0.950 . S
H3219 C3239 0.950 1_554 S
H3220 C3241 0.950 . S
H3221 C3244 0.950 . S
H3222 C3245 0.950 . S
H3223 C3247 0.950 . S
H3224 C3248 0.950 . S
H3225 C3249 0.951 . S
H3226 C3251 0.951 . S
H3227 C3253 0.950 . S
H3228 C3254 0.950 . S
H3229 C3256 0.950 . S
H3230 C3259 0.950 . S
H3231 C3260 0.950 . S
H3232 C3262 0.950 . S
H3233 C3263 0.950 . S
C3234 H3216 0.951 . S
C3234 C3235 1.366 . S
C3234 C3236 1.388 . S
C3235 C3234 1.366 . S
C3235 C3239 1.385 . S
C3236 H3217 0.951 . S
C3236 C3234 1.388 . S
C3236 C3237 1.366 . S
C3237 C3236 1.366 . S
C3237 C3238 1.414 . S
C3237 C3240 1.499 . S
C3238 H3218 0.950 . S
C3238 C3237 1.414 . S
C3238 C3239 1.374 . S
C3239 H3219 0.950 1_556 S
C3239 C3235 1.385 . S
C3239 C3238 1.374 . S
C3240 C3237 1.499 . S
C3240 C3241 1.373 . S
C3240 C3242 1.389 . S
C3241 H3220 0.950 . S
C3241 C3240 1.373 . S
C3241 C3257 1.377 . S
C3242 C3240 1.389 . S
C3242 C3243 1.524 . S
C3242 C3256 1.377 . S
C3243 C3242 1.524 . S
C3243 C3244 1.397 . S
C3243 C3248 1.363 . S
C3244 H3221 0.950 . S
C3244 C3243 1.397 . S
C3244 C3245 1.334 . S
C3245 H3222 0.950 . S
C3245 C3244 1.334 . S
C3245 C3246 1.287 . S
C3246 C3245 1.287 . S
C3246 C3247 1.524 . S
C3246 H3265 0.913 . S
C3247 H3223 0.950 . S
C3247 C3246 1.524 . S
C3247 C3248 1.415 . S
C3248 H3224 0.950 . S
C3248 C3243 1.363 . S
C3248 C3247 1.415 . S
C3249 H3225 0.951 . S
C3249 C3250 1.366 . S
C3249 C3251 1.388 . S
C3250 C3249 1.366 . S
C3250 C3254 1.385 . S
C3251 H3226 0.951 . S
C3251 C3249 1.388 . S
C3251 C3252 1.366 . S
C3252 C3251 1.366 . S
C3252 C3253 1.414 . S
C3252 C3255 1.499 . S
C3253 H3227 0.950 . S
C3253 C3252 1.414 . S
C3253 C3254 1.374 . S
C3254 H3228 0.950 . S
C3254 C3250 1.385 . S
C3254 C3253 1.374 . S
C3255 C3252 1.499 . S
C3255 C3256 1.373 . S
C3255 C3257 1.389 . S
C3256 H3229 0.950 . S
C3256 C3242 1.377 . S
C3256 C3255 1.373 . S
C3257 C3241 1.377 . S
C3257 C3255 1.389 . S
C3257 C3258 1.524 . S
C3258 C3257 1.524 . S
C3258 C3259 1.397 . S
C3258 C3263 1.363 . S
C3259 H3230 0.950 . S
C3259 C3258 1.397 . S
C3259 C3260 1.334 . S
C3260 H3231 0.950 . S
C3260 C3259 1.334 . S
C3260 C3261 1.287 . S
C3261 C3260 1.287 . S
C3261 C3262 1.524 . S
C3261 H3264 0.999 . S
C3262 H3232 0.950 . S
C3262 C3261 1.524 . S
C3262 C3263 1.415 . S
C3263 H3233 0.950 . S
C3263 C3258 1.363 . S
C3263 C3262 1.415 . S
H3264 C3261 0.999 . S
H3265 C3246 0.913 . S
H3266 C3284 0.951 1_554 S
H3267 C3286 0.951 . S
H3268 C3288 0.950 . S
H3269 C3289 0.950 . S
H3270 C3291 0.950 . S
H3271 C3294 0.950 . S
H3272 C3295 0.950 . S
H3273 C3297 0.950 . S
H3274 C3298 0.950 . S
H3275 C3299 0.951 . S
H3276 C3301 0.951 . S
H3277 C3303 0.950 . S
H3278 C3304 0.950 . S
H3279 C3306 0.950 . S
H3280 C3309 0.950 . S
H3281 C3310 0.950 . S
H3282 C3312 0.950 . S
H3283 C3313 0.950 . S
C3284 H3266 0.951 1_556 S
C3284 C3285 1.366 . S
C3284 C3286 1.388 . S
C3285 C3284 1.366 . S
C3285 C3289 1.385 . S
C3286 H3267 0.951 . S
C3286 C3284 1.388 . S
C3286 C3287 1.366 . S
C3287 C3286 1.366 . S
C3287 C3288 1.414 . S
C3287 C3290 1.499 . S
C3288 H3268 0.950 . S
C3288 C3287 1.414 . S
C3288 C3289 1.374 . S
C3289 H3269 0.950 . S
C3289 C3285 1.385 . S
C3289 C3288 1.374 . S
C3290 C3287 1.499 . S
C3290 C3291 1.373 . S
C3290 C3292 1.389 . S
C3291 H3270 0.950 . S
C3291 C3290 1.373 . S
C3291 C3307 1.377 . S
C3292 C3290 1.389 . S
C3292 C3293 1.524 . S
C3292 C3306 1.377 . S
C3293 C3292 1.524 . S
C3293 C3294 1.397 . S
C3293 C3298 1.363 . S
C3294 H3271 0.950 . S
C3294 C3293 1.397 . S
C3294 C3295 1.334 . S
C3295 H3272 0.950 . S
C3295 C3294 1.334 . S
C3295 C3296 1.287 . S
C3296 C3295 1.287 . S
C3296 C3297 1.524 . S
C3296 H3315 0.913 . S
C3297 H3273 0.950 . S
C3297 C3296 1.524 . S
C3297 C3298 1.415 . S
C3298 H3274 0.950 . S
C3298 C3293 1.363 . S
C3298 C3297 1.415 . S
C3299 H3275 0.951 . S
C3299 C3300 1.366 . S
C3299 C3301 1.388 . S
C3300 C3299 1.366 . S
C3300 C3304 1.385 . S
C3301 H3276 0.951 . S
C3301 C3299 1.388 . S
C3301 C3302 1.366 . S
C3302 C3301 1.366 . S
C3302 C3303 1.414 . S
C3302 C3305 1.499 . S
C3303 H3277 0.950 . S
C3303 C3302 1.414 . S
C3303 C3304 1.374 . S
C3304 H3278 0.950 . S
C3304 C3300 1.385 . S
C3304 C3303 1.374 . S
C3305 C3302 1.499 . S
C3305 C3306 1.373 . S
C3305 C3307 1.389 . S
C3306 H3279 0.950 . S
C3306 C3292 1.377 . S
C3306 C3305 1.373 . S
C3307 C3291 1.377 . S
C3307 C3305 1.389 . S
C3307 C3308 1.524 . S
C3308 C3307 1.524 . S
C3308 C3309 1.397 . S
C3308 C3313 1.363 . S
C3309 H3280 0.950 . S
C3309 C3308 1.397 . S
C3309 C3310 1.334 . S
C3310 H3281 0.950 . S
C3310 C3309 1.334 . S
C3310 C3311 1.287 . S
C3311 C3310 1.287 . S
C3311 C3312 1.524 . S
C3311 H3314 0.999 . S
C3312 H3282 0.950 . S
C3312 C3311 1.524 . S
C3312 C3313 1.415 . S
C3313 H3283 0.950 . S
C3313 C3308 1.363 . S
C3313 C3312 1.415 . S
H3314 C3311 0.999 . S
H3315 C3296 0.913 . S
H3316 C3334 0.951 . S
H3317 C3336 0.951 . S
H3318 C3338 0.950 . S
H3319 C3339 0.950 . S
H3320 C3341 0.950 . S
H3321 C3344 0.950 . S
H3322 C3345 0.950 . S
H3323 C3347 0.950 . S
H3324 C3348 0.950 . S
H3325 C3349 0.951 . S
H3326 C3351 0.951 . S
H3327 C3353 0.950 . S
H3328 C3354 0.950 . S
H3329 C3356 0.950 . S
H3330 C3359 0.950 . S
H3331 C3360 0.950 . S
H3332 C3362 0.950 . S
H3333 C3363 0.950 . S
C3334 H3316 0.951 . S
C3334 C3335 1.366 . S
C3334 C3336 1.388 . S
C3335 C3334 1.366 . S
C3335 C3339 1.385 . S
C3336 H3317 0.951 . S
C3336 C3334 1.388 . S
C3336 C3337 1.366 . S
C3337 C3336 1.366 . S
C3337 C3338 1.414 . S
C3337 C3340 1.499 . S
C3338 H3318 0.950 . S
C3338 C3337 1.414 . S
C3338 C3339 1.374 . S
C3339 H3319 0.950 . S
C3339 C3335 1.385 . S
C3339 C3338 1.374 . S
C3340 C3337 1.499 . S
C3340 C3341 1.373 . S
C3340 C3342 1.389 . S
C3341 H3320 0.950 . S
C3341 C3340 1.373 . S
C3341 C3357 1.377 . S
C3342 C3340 1.389 . S
C3342 C3343 1.524 . S
C3342 C3356 1.377 . S
C3343 C3342 1.524 . S
C3343 C3344 1.397 . S
C3343 C3348 1.363 . S
C3344 H3321 0.950 . S
C3344 C3343 1.397 . S
C3344 C3345 1.334 . S
C3345 H3322 0.950 . S
C3345 C3344 1.334 . S
C3345 C3346 1.287 . S
C3346 C3345 1.287 . S
C3346 C3347 1.524 . S
C3346 H3365 0.913 . S
C3347 H3323 0.950 . S
C3347 C3346 1.524 . S
C3347 C3348 1.415 . S
C3348 H3324 0.950 . S
C3348 C3343 1.363 . S
C3348 C3347 1.415 . S
C3349 H3325 0.951 . S
C3349 C3350 1.366 . S
C3349 C3351 1.388 . S
C3350 C3349 1.366 . S
C3350 C3354 1.385 . S
C3351 H3326 0.951 . S
C3351 C3349 1.388 . S
C3351 C3352 1.366 . S
C3352 C3351 1.366 . S
C3352 C3353 1.414 . S
C3352 C3355 1.499 . S
C3353 H3327 0.950 . S
C3353 C3352 1.414 . S
C3353 C3354 1.374 . S
C3354 H3328 0.950 . S
C3354 C3350 1.385 . S
C3354 C3353 1.374 . S
C3355 C3352 1.499 . S
C3355 C3356 1.373 . S
C3355 C3357 1.389 . S
C3356 H3329 0.950 . S
C3356 C3342 1.377 . S
C3356 C3355 1.373 . S
C3357 C3341 1.377 . S
C3357 C3355 1.389 . S
C3357 C3358 1.524 . S
C3358 C3357 1.524 . S
C3358 C3359 1.397 . S
C3358 C3363 1.363 . S
C3359 H3330 0.950 . S
C3359 C3358 1.397 . S
C3359 C3360 1.334 . S
C3360 H3331 0.950 . S
C3360 C3359 1.334 . S
C3360 C3361 1.287 . S
C3361 C3360 1.287 . S
C3361 C3362 1.524 . S
C3361 H3364 0.999 . S
C3362 H3332 0.950 . S
C3362 C3361 1.524 . S
C3362 C3363 1.415 . S
C3363 H3333 0.950 . S
C3363 C3358 1.363 . S
C3363 C3362 1.415 . S
H3364 C3361 0.999 . S
H3365 C3346 0.913 . S
H3366 C3384 0.951 . S
H3367 C3386 0.951 . S
H3368 C3388 0.950 . S
H3369 C3389 0.950 . S
H3370 C3391 0.950 . S
H3371 C3394 0.950 . S
H3372 C3395 0.950 . S
H3373 C3397 0.950 . S
H3374 C3398 0.950 . S
H3375 C3399 0.951 . S
H3376 C3401 0.951 . S
H3377 C3403 0.950 . S
H3378 C3404 0.950 . S
H3379 C3406 0.950 . S
H3380 C3409 0.950 . S
H3381 C3410 0.950 . S
H3382 C3412 0.950 . S
H3383 C3413 0.950 . S
C3384 H3366 0.951 . S
C3384 C3385 1.366 . S
C3384 C3386 1.388 . S
C3385 C3384 1.366 . S
C3385 C3389 1.385 . S
C3386 H3367 0.951 . S
C3386 C3384 1.388 . S
C3386 C3387 1.366 . S
C3387 C3386 1.366 . S
C3387 C3388 1.414 . S
C3387 C3390 1.499 . S
C3388 H3368 0.950 . S
C3388 C3387 1.414 . S
C3388 C3389 1.374 . S
C3389 H3369 0.950 . S
C3389 C3385 1.385 . S
C3389 C3388 1.374 . S
C3390 C3387 1.499 . S
C3390 C3391 1.373 . S
C3390 C3392 1.389 . S
C3391 H3370 0.950 . S
C3391 C3390 1.373 . S
C3391 C3407 1.377 . S
C3392 C3390 1.389 . S
C3392 C3393 1.524 . S
C3392 C3406 1.377 . S
C3393 C3392 1.524 . S
C3393 C3394 1.397 . S
C3393 C3398 1.363 . S
C3394 H3371 0.950 . S
C3394 C3393 1.397 . S
C3394 C3395 1.334 . S
C3395 H3372 0.950 . S
C3395 C3394 1.334 . S
C3395 C3396 1.287 . S
C3396 C3395 1.287 . S
C3396 C3397 1.524 . S
C3396 H3415 0.913 . S
C3397 H3373 0.950 . S
C3397 C3396 1.524 . S
C3397 C3398 1.415 . S
C3398 H3374 0.950 . S
C3398 C3393 1.363 . S
C3398 C3397 1.415 . S
C3399 H3375 0.951 . S
C3399 C3400 1.366 . S
C3399 C3401 1.388 . S
C3400 C3399 1.366 . S
C3400 C3404 1.385 . S
C3401 H3376 0.951 . S
C3401 C3399 1.388 . S
C3401 C3402 1.366 . S
C3402 C3401 1.366 . S
C3402 C3403 1.414 . S
C3402 C3405 1.499 . S
C3403 H3377 0.950 . S
C3403 C3402 1.414 . S
C3403 C3404 1.374 . S
C3404 H3378 0.950 . S
C3404 C3400 1.385 . S
C3404 C3403 1.374 . S
C3405 C3402 1.499 . S
C3405 C3406 1.373 . S
C3405 C3407 1.389 . S
C3406 H3379 0.950 . S
C3406 C3392 1.377 . S
C3406 C3405 1.373 . S
C3407 C3391 1.377 . S
C3407 C3405 1.389 . S
C3407 C3408 1.524 . S
C3408 C3407 1.524 . S
C3408 C3409 1.397 . S
C3408 C3413 1.363 . S
C3409 H3380 0.950 . S
C3409 C3408 1.397 . S
C3409 C3410 1.334 . S
C3410 H3381 0.950 . S
C3410 C3409 1.334 . S
C3410 C3411 1.287 . S
C3411 C3410 1.287 . S
C3411 C3412 1.524 . S
C3411 H3414 0.999 . S
C3412 H3382 0.950 . S
C3412 C3411 1.524 . S
C3412 C3413 1.415 . S
C3413 H3383 0.950 . S
C3413 C3408 1.363 . S
C3413 C3412 1.415 . S
H3414 C3411 0.999 . S
H3415 C3396 0.913 . S
H3416 C3434 0.951 . S
H3417 C3436 0.951 . S
H3418 C3438 0.950 . S
H3419 C3439 0.950 . S
H3420 C3441 0.950 . S
H3421 C3444 0.950 . S
H3422 C3445 0.950 . S
H3423 C3447 0.950 . S
H3424 C3448 0.950 . S
H3425 C3449 0.951 . S
H3426 C3451 0.951 . S
H3427 C3453 0.950 . S
H3428 C3454 0.950 . S
H3429 C3456 0.950 . S
H3430 C3459 0.950 . S
H3431 C3460 0.950 . S
H3432 C3462 0.950 . S
H3433 C3463 0.950 . S
C3434 H3416 0.951 . S
C3434 C3435 1.366 . S
C3434 C3436 1.388 . S
C3435 C3434 1.366 . S
C3435 C3439 1.385 . S
C3436 H3417 0.951 . S
C3436 C3434 1.388 . S
C3436 C3437 1.366 . S
C3437 C3436 1.366 . S
C3437 C3438 1.414 . S
C3437 C3440 1.499 . S
C3438 H3418 0.950 . S
C3438 C3437 1.414 . S
C3438 C3439 1.374 . S
C3439 H3419 0.950 . S
C3439 C3435 1.385 . S
C3439 C3438 1.374 . S
C3440 C3437 1.499 . S
C3440 C3441 1.373 . S
C3440 C3442 1.389 . S
C3441 H3420 0.950 . S
C3441 C3440 1.373 . S
C3441 C3457 1.377 . S
C3442 C3440 1.389 . S
C3442 C3443 1.524 . S
C3442 C3456 1.377 . S
C3443 C3442 1.524 . S
C3443 C3444 1.397 . S
C3443 C3448 1.363 . S
C3444 H3421 0.950 . S
C3444 C3443 1.397 . S
C3444 C3445 1.334 . S
C3445 H3422 0.950 . S
C3445 C3444 1.334 . S
C3445 C3446 1.287 . S
C3446 C3445 1.287 . S
C3446 C3447 1.524 . S
C3446 H3465 0.913 . S
C3447 H3423 0.950 . S
C3447 C3446 1.524 . S
C3447 C3448 1.415 . S
C3448 H3424 0.950 . S
C3448 C3443 1.363 . S
C3448 C3447 1.415 . S
C3449 H3425 0.951 . S
C3449 C3450 1.366 . S
C3449 C3451 1.388 . S
C3450 C3449 1.366 . S
C3450 C3454 1.385 . S
C3451 H3426 0.951 . S
C3451 C3449 1.388 . S
C3451 C3452 1.366 . S
C3452 C3451 1.366 . S
C3452 C3453 1.414 . S
C3452 C3455 1.499 . S
C3453 H3427 0.950 . S
C3453 C3452 1.414 . S
C3453 C3454 1.374 . S
C3454 H3428 0.950 . S
C3454 C3450 1.385 . S
C3454 C3453 1.374 . S
C3455 C3452 1.499 . S
C3455 C3456 1.373 . S
C3455 C3457 1.389 . S
C3456 H3429 0.950 . S
C3456 C3442 1.377 . S
C3456 C3455 1.373 . S
C3457 C3441 1.377 . S
C3457 C3455 1.389 . S
C3457 C3458 1.524 . S
C3458 C3457 1.524 . S
C3458 C3459 1.397 . S
C3458 C3463 1.363 . S
C3459 H3430 0.950 . S
C3459 C3458 1.397 . S
C3459 C3460 1.334 . S
C3460 H3431 0.950 . S
C3460 C3459 1.334 . S
C3460 C3461 1.287 . S
C3461 C3460 1.287 . S
C3461 C3462 1.524 . S
C3461 H3464 0.999 . S
C3462 H3432 0.950 . S
C3462 C3461 1.524 . S
C3462 C3463 1.415 . S
C3463 H3433 0.950 . S
C3463 C3458 1.363 . S
C3463 C3462 1.415 . S
H3464 C3461 0.999 . S
H3465 C3446 0.913 . S
H3466 C3484 0.951 . S
H3467 C3486 0.951 . S
H3468 C3488 0.950 . S
H3469 C3489 0.950 . S
H3470 C3491 0.950 . S
H3471 C3494 0.950 . S
H3472 C3495 0.950 . S
H3473 C3497 0.950 . S
H3474 C3498 0.950 . S
H3475 C3499 0.951 . S
H3476 C3501 0.951 . S
H3477 C3503 0.950 . S
H3478 C3504 0.950 . S
H3479 C3506 0.950 . S
H3480 C3509 0.950 . S
H3481 C3510 0.950 . S
H3482 C3512 0.950 . S
H3483 C3513 0.950 . S
C3484 H3466 0.951 . S
C3484 C3485 1.366 . S
C3484 C3486 1.388 . S
C3485 C3484 1.366 . S
C3485 C3489 1.385 . S
C3486 H3467 0.951 . S
C3486 C3484 1.388 . S
C3486 C3487 1.366 . S
C3487 C3486 1.366 . S
C3487 C3488 1.414 . S
C3487 C3490 1.499 . S
C3488 H3468 0.950 . S
C3488 C3487 1.414 . S
C3488 C3489 1.374 . S
C3489 H3469 0.950 . S
C3489 C3485 1.385 . S
C3489 C3488 1.374 . S
C3490 C3487 1.499 . S
C3490 C3491 1.373 . S
C3490 C3492 1.389 . S
C3491 H3470 0.950 . S
C3491 C3490 1.373 . S
C3491 C3507 1.377 . S
C3492 C3490 1.389 . S
C3492 C3493 1.524 . S
C3492 C3506 1.377 . S
C3493 C3492 1.524 . S
C3493 C3494 1.397 . S
C3493 C3498 1.363 . S
C3494 H3471 0.950 . S
C3494 C3493 1.397 . S
C3494 C3495 1.334 . S
C3495 H3472 0.950 . S
C3495 C3494 1.334 . S
C3495 C3496 1.287 . S
C3496 C3495 1.287 . S
C3496 C3497 1.524 . S
C3496 H3515 0.913 . S
C3497 H3473 0.950 . S
C3497 C3496 1.524 . S
C3497 C3498 1.415 . S
C3498 H3474 0.950 . S
C3498 C3493 1.363 . S
C3498 C3497 1.415 . S
C3499 H3475 0.951 . S
C3499 C3500 1.366 . S
C3499 C3501 1.388 . S
C3500 C3499 1.366 . S
C3500 C3504 1.385 . S
C3501 H3476 0.951 . S
C3501 C3499 1.388 . S
C3501 C3502 1.366 . S
C3502 C3501 1.366 . S
C3502 C3503 1.414 . S
C3502 C3505 1.499 . S
C3503 H3477 0.950 . S
C3503 C3502 1.414 . S
C3503 C3504 1.374 . S
C3504 H3478 0.950 . S
C3504 C3500 1.385 . S
C3504 C3503 1.374 . S
C3505 C3502 1.499 . S
C3505 C3506 1.373 . S
C3505 C3507 1.389 . S
C3506 H3479 0.950 . S
C3506 C3492 1.377 . S
C3506 C3505 1.373 . S
C3507 C3491 1.377 . S
C3507 C3505 1.389 . S
C3507 C3508 1.524 . S
C3508 C3507 1.524 . S
C3508 C3509 1.397 . S
C3508 C3513 1.363 . S
C3509 H3480 0.950 . S
C3509 C3508 1.397 . S
C3509 C3510 1.334 . S
C3510 H3481 0.950 . S
C3510 C3509 1.334 . S
C3510 C3511 1.287 . S
C3511 C3510 1.287 . S
C3511 C3512 1.524 . S
C3511 H3514 0.999 . S
C3512 H3482 0.950 . S
C3512 C3511 1.524 . S
C3512 C3513 1.415 . S
C3513 H3483 0.950 . S
C3513 C3508 1.363 . S
C3513 C3512 1.415 . S
H3514 C3511 0.999 . S
H3515 C3496 0.913 . S
H3516 C3534 0.951 . S
H3517 C3536 0.951 . S
H3518 C3538 0.950 . S
H3519 C3539 0.950 . S
H3520 C3541 0.950 . S
H3521 C3544 0.950 . S
H3522 C3545 0.950 . S
H3523 C3547 0.950 . S
H3524 C3548 0.950 . S
H3525 C3549 0.951 . S
H3526 C3551 0.951 . S
H3527 C3553 0.950 . S
H3528 C3554 0.950 . S
H3529 C3556 0.950 . S
H3530 C3559 0.950 . S
H3531 C3560 0.950 . S
H3532 C3562 0.950 . S
H3533 C3563 0.950 . S
C3534 H3516 0.951 . S
C3534 C3535 1.366 . S
C3534 C3536 1.388 . S
C3535 C3534 1.366 . S
C3535 C3539 1.385 . S
C3536 H3517 0.951 . S
C3536 C3534 1.388 . S
C3536 C3537 1.366 . S
C3537 C3536 1.366 . S
C3537 C3538 1.414 . S
C3537 C3540 1.499 . S
C3538 H3518 0.950 . S
C3538 C3537 1.414 . S
C3538 C3539 1.374 . S
C3539 H3519 0.950 . S
C3539 C3535 1.385 . S
C3539 C3538 1.374 . S
C3540 C3537 1.499 . S
C3540 C3541 1.373 . S
C3540 C3542 1.389 . S
C3541 H3520 0.950 . S
C3541 C3540 1.373 . S
C3541 C3557 1.377 . S
C3542 C3540 1.389 . S
C3542 C3543 1.524 . S
C3542 C3556 1.377 . S
C3543 C3542 1.524 . S
C3543 C3544 1.397 . S
C3543 C3548 1.363 . S
C3544 H3521 0.950 . S
C3544 C3543 1.397 . S
C3544 C3545 1.334 . S
C3545 H3522 0.950 . S
C3545 C3544 1.334 . S
C3545 C3546 1.287 . S
C3546 C3545 1.287 . S
C3546 C3547 1.524 . S
C3546 H3565 0.913 . S
C3547 H3523 0.950 . S
C3547 C3546 1.524 . S
C3547 C3548 1.415 . S
C3548 H3524 0.950 . S
C3548 C3543 1.363 . S
C3548 C3547 1.415 . S
C3549 H3525 0.951 . S
C3549 C3550 1.366 . S
C3549 C3551 1.388 . S
C3550 C3549 1.366 . S
C3550 C3554 1.385 . S
C3551 H3526 0.951 . S
C3551 C3549 1.388 . S
C3551 C3552 1.366 . S
C3552 C3551 1.366 . S
C3552 C3553 1.414 . S
C3552 C3555 1.499 . S
C3553 H3527 0.950 . S
C3553 C3552 1.414 . S
C3553 C3554 1.374 . S
C3554 H3528 0.950 . S
C3554 C3550 1.385 . S
C3554 C3553 1.374 . S
C3555 C3552 1.499 . S
C3555 C3556 1.373 . S
C3555 C3557 1.389 . S
C3556 H3529 0.950 . S
C3556 C3542 1.377 . S
C3556 C3555 1.373 . S
C3557 C3541 1.377 . S
C3557 C3555 1.389 . S
C3557 C3558 1.524 . S
C3558 C3557 1.524 . S
C3558 C3559 1.397 . S
C3558 C3563 1.363 . S
C3559 H3530 0.950 . S
C3559 C3558 1.397 . S
C3559 C3560 1.334 . S
C3560 H3531 0.950 . S
C3560 C3559 1.334 . S
C3560 C3561 1.287 . S
C3561 C3560 1.287 . S
C3561 C3562 1.524 . S
C3561 H3564 0.999 . S
C3562 H3532 0.950 . S
C3562 C3561 1.524 . S
C3562 C3563 1.415 . S
C3563 H3533 0.950 . S
C3563 C3558 1.363 . S
C3563 C3562 1.415 . S
H3564 C3561 0.999 . S
H3565 C3546 0.913 . S
H3566 C3584 0.951 . S
H3567 C3586 0.951 . S
H3568 C3588 0.950 . S
H3569 C3589 0.950 . S
H3570 C3591 0.950 . S
H3571 C3594 0.950 . S
H3572 C3595 0.950 . S
H3573 C3597 0.950 . S
H3574 C3598 0.950 . S
H3575 C3599 0.951 . S
H3576 C3601 0.951 . S
H3577 C3603 0.950 . S
H3578 C3604 0.950 . S
H3579 C3606 0.950 . S
H3580 C3609 0.950 . S
H3581 C3610 0.950 . S
H3582 C3612 0.950 . S
H3583 C3613 0.950 . S
C3584 H3566 0.951 . S
C3584 C3585 1.366 . S
C3584 C3586 1.388 . S
C3585 C3584 1.366 . S
C3585 C3589 1.385 . S
C3586 H3567 0.951 . S
C3586 C3584 1.388 . S
C3586 C3587 1.366 . S
C3587 C3586 1.366 . S
C3587 C3588 1.414 . S
C3587 C3590 1.499 . S
C3588 H3568 0.950 . S
C3588 C3587 1.414 . S
C3588 C3589 1.374 . S
C3589 H3569 0.950 . S
C3589 C3585 1.385 . S
C3589 C3588 1.374 . S
C3590 C3587 1.499 . S
C3590 C3591 1.373 . S
C3590 C3592 1.389 . S
C3591 H3570 0.950 . S
C3591 C3590 1.373 . S
C3591 C3607 1.377 . S
C3592 C3590 1.389 . S
C3592 C3593 1.524 . S
C3592 C3606 1.377 . S
C3593 C3592 1.524 . S
C3593 C3594 1.397 . S
C3593 C3598 1.363 . S
C3594 H3571 0.950 . S
C3594 C3593 1.397 . S
C3594 C3595 1.334 . S
C3595 H3572 0.950 . S
C3595 C3594 1.334 . S
C3595 C3596 1.287 . S
C3596 C3595 1.287 . S
C3596 C3597 1.524 . S
C3596 H3615 0.913 . S
C3597 H3573 0.950 . S
C3597 C3596 1.524 . S
C3597 C3598 1.415 . S
C3598 H3574 0.950 . S
C3598 C3593 1.363 . S
C3598 C3597 1.415 . S
C3599 H3575 0.951 . S
C3599 C3600 1.366 . S
C3599 C3601 1.388 . S
C3600 C3599 1.366 . S
C3600 C3604 1.385 . S
C3601 H3576 0.951 . S
C3601 C3599 1.388 . S
C3601 C3602 1.366 . S
C3602 C3601 1.366 . S
C3602 C3603 1.414 . S
C3602 C3605 1.499 . S
C3603 H3577 0.950 . S
C3603 C3602 1.414 . S
C3603 C3604 1.374 . S
C3604 H3578 0.950 . S
C3604 C3600 1.385 . S
C3604 C3603 1.374 . S
C3605 C3602 1.499 . S
C3605 C3606 1.373 . S
C3605 C3607 1.389 . S
C3606 H3579 0.950 . S
C3606 C3592 1.377 . S
C3606 C3605 1.373 . S
C3607 C3591 1.377 . S
C3607 C3605 1.389 . S
C3607 C3608 1.524 . S
C3608 C3607 1.524 . S
C3608 C3609 1.397 . S
C3608 C3613 1.363 . S
C3609 H3580 0.950 . S
C3609 C3608 1.397 . S
C3609 C3610 1.334 . S
C3610 H3581 0.950 . S
C3610 C3609 1.334 . S
C3610 C3611 1.287 . S
C3611 C3610 1.287 . S
C3611 C3612 1.524 . S
C3611 H3614 0.999 . S
C3612 H3582 0.950 . S
C3612 C3611 1.524 . S
C3612 C3613 1.415 . S
C3613 H3583 0.950 . S
C3613 C3608 1.363 . S
C3613 C3612 1.415 . S
H3614 C3611 0.999 . S
H3615 C3596 0.913 . S
H3616 C3634 0.951 . S
H3617 C3636 0.951 . S
H3618 C3638 0.950 . S
H3619 C3639 0.950 . S
H3620 C3641 0.950 . S
H3621 C3644 0.950 . S
H3622 C3645 0.950 . S
H3623 C3647 0.950 . S
H3624 C3648 0.950 . S
H3625 C3649 0.951 . S
H3626 C3651 0.951 . S
H3627 C3653 0.950 . S
H3628 C3654 0.950 . S
H3629 C3656 0.950 . S
H3630 C3659 0.950 . S
H3631 C3660 0.950 . S
H3632 C3662 0.950 . S
H3633 C3663 0.950 . S
C3634 H3616 0.951 . S
C3634 C3635 1.366 . S
C3634 C3636 1.388 . S
C3635 C3634 1.366 . S
C3635 C3639 1.385 . S
C3636 H3617 0.951 . S
C3636 C3634 1.388 . S
C3636 C3637 1.366 . S
C3637 C3636 1.366 . S
C3637 C3638 1.414 . S
C3637 C3640 1.499 . S
C3638 H3618 0.950 . S
C3638 C3637 1.414 . S
C3638 C3639 1.374 . S
C3639 H3619 0.950 . S
C3639 C3635 1.385 . S
C3639 C3638 1.374 . S
C3640 C3637 1.499 . S
C3640 C3641 1.373 . S
C3640 C3642 1.389 . S
C3641 H3620 0.950 . S
C3641 C3640 1.373 . S
C3641 C3657 1.377 . S
C3642 C3640 1.389 . S
C3642 C3643 1.524 . S
C3642 C3656 1.377 . S
C3643 C3642 1.524 . S
C3643 C3644 1.397 . S
C3643 C3648 1.363 . S
C3644 H3621 0.950 . S
C3644 C3643 1.397 . S
C3644 C3645 1.334 . S
C3645 H3622 0.950 . S
C3645 C3644 1.334 . S
C3645 C3646 1.287 . S
C3646 C3645 1.287 . S
C3646 C3647 1.524 . S
C3646 H3665 0.913 . S
C3647 H3623 0.950 . S
C3647 C3646 1.524 . S
C3647 C3648 1.415 . S
C3648 H3624 0.950 . S
C3648 C3643 1.363 . S
C3648 C3647 1.415 . S
C3649 H3625 0.951 . S
C3649 C3650 1.366 . S
C3649 C3651 1.388 . S
C3650 C3649 1.366 . S
C3650 C3654 1.385 . S
C3651 H3626 0.951 . S
C3651 C3649 1.388 . S
C3651 C3652 1.366 . S
C3652 C3651 1.366 . S
C3652 C3653 1.414 . S
C3652 C3655 1.499 . S
C3653 H3627 0.950 . S
C3653 C3652 1.414 . S
C3653 C3654 1.374 . S
C3654 H3628 0.950 . S
C3654 C3650 1.385 . S
C3654 C3653 1.374 . S
C3655 C3652 1.499 . S
C3655 C3656 1.373 . S
C3655 C3657 1.389 . S
C3656 H3629 0.950 . S
C3656 C3642 1.377 . S
C3656 C3655 1.373 . S
C3657 C3641 1.377 . S
C3657 C3655 1.389 . S
C3657 C3658 1.524 . S
C3658 C3657 1.524 . S
C3658 C3659 1.397 . S
C3658 C3663 1.363 . S
C3659 H3630 0.950 . S
C3659 C3658 1.397 . S
C3659 C3660 1.334 . S
C3660 H3631 0.950 . S
C3660 C3659 1.334 . S
C3660 C3661 1.287 . S
C3661 C3660 1.287 . S
C3661 C3662 1.524 . S
C3661 H3664 0.999 . S
C3662 H3632 0.950 . S
C3662 C3661 1.524 . S
C3662 C3663 1.415 . S
C3663 H3633 0.950 . S
C3663 C3658 1.363 . S
C3663 C3662 1.415 . S
H3664 C3661 0.999 . S
H3665 C3646 0.913 . S
H3666 C3684 0.951 . S
H3667 C3686 0.951 . S
H3668 C3688 0.950 . S
H3669 C3689 0.950 . S
H3670 C3691 0.950 . S
H3671 C3694 0.950 . S
H3672 C3695 0.950 . S
H3673 C3697 0.950 . S
H3674 C3698 0.950 . S
H3675 C3699 0.951 . S
H3676 C3701 0.951 . S
H3677 C3703 0.950 . S
H3678 C3704 0.950 . S
H3679 C3706 0.950 1_655 S
H3680 C3709 0.916 1_655 S
H3681 C3710 0.950 1_655 S
H3682 C3712 0.950 . S
H3683 C3713 0.950 . S
C3684 H3666 0.951 . S
C3684 C3685 1.366 1_655 S
C3684 C3686 1.388 . S
C3685 C3684 1.366 1_455 S
C3685 C3689 1.385 . S
C3686 H3667 0.951 . S
C3686 C3684 1.388 . S
C3686 C3687 1.366 1_655 S
C3687 C3686 1.366 1_455 S
C3687 C3688 1.414 . S
C3687 C3690 1.499 . S
C3688 H3668 0.950 . S
C3688 C3687 1.414 . S
C3688 C3689 1.374 . S
C3689 H3669 0.950 . S
C3689 C3685 1.385 . S
C3689 C3688 1.374 . S
C3690 C3687 1.499 . S
C3690 C3691 1.373 . S
C3690 C3692 1.389 . S
C3691 H3670 0.950 . S
C3691 C3690 1.373 . S
C3691 C3707 1.377 . S
C3692 C3690 1.389 . S
C3692 C3693 1.516 . S
C3692 C3706 1.377 . S
C3693 C3692 1.516 . S
C3693 C3694 1.428 . S
C3693 C3698 1.341 1_455 S
C3694 H3671 0.950 . S
C3694 C3693 1.428 . S
C3694 C3695 1.334 . S
C3695 H3672 0.950 . S
C3695 C3694 1.334 . S
C3695 C3696 1.241 1_455 S
C3696 C3695 1.241 1_655 S
C3696 C3697 1.595 . S
C3696 H3715 0.892 . S
C3697 H3673 0.950 . S
C3697 C3696 1.595 . S
C3697 C3698 1.415 . S
C3698 H3674 0.950 . S
C3698 C3693 1.341 1_655 S
C3698 C3697 1.415 . S
C3699 H3675 0.951 . S
C3699 C3700 1.366 . S
C3699 C3701 1.388 . S
C3700 C3699 1.366 . S
C3700 C3704 1.385 1_455 S
C3701 H3676 0.951 . S
C3701 C3699 1.388 . S
C3701 C3702 1.366 . S
C3702 C3701 1.366 . S
C3702 C3703 1.414 1_455 S
C3702 C3705 1.499 . S
C3703 H3677 0.950 . S
C3703 C3702 1.414 1_655 S
C3703 C3704 1.374 . S
C3704 H3678 0.950 . S
C3704 C3700 1.385 1_655 S
C3704 C3703 1.374 . S
C3705 C3702 1.499 . S
C3705 C3706 1.373 . S
C3705 C3707 1.389 . S
C3706 H3679 0.950 1_455 S
C3706 C3692 1.377 . S
C3706 C3705 1.373 . S
C3707 C3691 1.377 . S
C3707 C3705 1.389 . S
C3707 C3708 1.524 . S
C3708 C3707 1.524 . S
C3708 C3709 1.450 . S
C3708 C3713 1.363 . S
C3709 H3680 0.916 1_455 S
C3709 C3708 1.450 . S
C3709 C3710 1.316 . S
C3710 H3681 0.950 1_455 S
C3710 C3709 1.316 . S
C3710 C3711 1.287 . S
C3711 C3710 1.287 . S
C3711 C3712 1.524 . S
C3711 H3714 0.999 . S
C3712 H3682 0.950 . S
C3712 C3711 1.524 . S
C3712 C3713 1.415 . S
C3713 H3683 0.950 . S
C3713 C3708 1.363 . S
C3713 C3712 1.415 . S
H3714 C3711 0.999 . S
H3715 C3696 0.892 . S
H3716 C3734 0.951 . S
H3717 C3736 0.951 . S
H3718 C3738 0.950 . S
H3719 C3739 0.950 . S
H3720 C3741 0.950 . S
H3721 C3744 0.950 . S
H3722 C3745 0.950 . S
H3723 C3747 0.950 . S
H3724 C3748 0.950 . S
H3725 C3749 0.951 . S
H3726 C3751 0.951 . S
H3727 C3753 0.950 . S
H3728 C3754 0.950 . S
H3729 C3756 0.950 . S
H3730 C3759 0.950 . S
H3731 C3760 0.950 . S
H3732 C3762 0.950 . S
H3733 C3763 0.950 . S
C3734 H3716 0.951 . S
C3734 C3735 1.366 . S
C3734 C3736 1.388 . S
C3735 C3734 1.366 . S
C3735 C3739 1.385 . S
C3736 H3717 0.951 . S
C3736 C3734 1.388 . S
C3736 C3737 1.366 . S
C3737 C3736 1.366 . S
C3737 C3738 1.414 . S
C3737 C3740 1.499 . S
C3738 H3718 0.950 . S
C3738 C3737 1.414 . S
C3738 C3739 1.374 . S
C3739 H3719 0.950 . S
C3739 C3735 1.385 . S
C3739 C3738 1.374 . S
C3740 C3737 1.499 . S
C3740 C3741 1.373 . S
C3740 C3742 1.389 . S
C3741 H3720 0.950 . S
C3741 C3740 1.373 . S
C3741 C3757 1.377 . S
C3742 C3740 1.389 . S
C3742 C3743 1.524 . S
C3742 C3756 1.377 . S
C3743 C3742 1.524 . S
C3743 C3744 1.397 . S
C3743 C3748 1.363 . S
C3744 H3721 0.950 . S
C3744 C3743 1.397 . S
C3744 C3745 1.334 . S
C3745 H3722 0.950 . S
C3745 C3744 1.334 . S
C3745 C3746 1.287 . S
C3746 C3745 1.287 . S
C3746 C3747 1.524 . S
C3746 H3765 0.913 . S
C3747 H3723 0.950 . S
C3747 C3746 1.524 . S
C3747 C3748 1.415 . S
C3748 H3724 0.950 . S
C3748 C3743 1.363 . S
C3748 C3747 1.415 . S
C3749 H3725 0.951 . S
C3749 C3750 1.366 . S
C3749 C3751 1.388 . S
C3750 C3749 1.366 . S
C3750 C3754 1.385 . S
C3751 H3726 0.951 . S
C3751 C3749 1.388 . S
C3751 C3752 1.366 . S
C3752 C3751 1.366 . S
C3752 C3753 1.414 . S
C3752 C3755 1.499 . S
C3753 H3727 0.950 . S
C3753 C3752 1.414 . S
C3753 C3754 1.374 . S
C3754 H3728 0.950 . S
C3754 C3750 1.385 . S
C3754 C3753 1.374 . S
C3755 C3752 1.499 . S
C3755 C3756 1.373 . S
C3755 C3757 1.389 . S
C3756 H3729 0.950 . S
C3756 C3742 1.377 . S
C3756 C3755 1.373 . S
C3757 C3741 1.377 . S
C3757 C3755 1.389 . S
C3757 C3758 1.524 . S
C3758 C3757 1.524 . S
C3758 C3759 1.397 . S
C3758 C3763 1.363 . S
C3759 H3730 0.950 . S
C3759 C3758 1.397 . S
C3759 C3760 1.334 . S
C3760 H3731 0.950 . S
C3760 C3759 1.334 . S
C3760 C3761 1.287 . S
C3761 C3760 1.287 . S
C3761 C3762 1.524 . S
C3761 H3764 0.999 . S
C3762 H3732 0.950 . S
C3762 C3761 1.524 . S
C3762 C3763 1.415 . S
C3763 H3733 0.950 . S
C3763 C3758 1.363 . S
C3763 C3762 1.415 . S
H3764 C3761 0.999 . S
H3765 C3746 0.913 . S
H3766 C3784 0.951 . S
H3767 C3786 0.951 . S
H3768 C3788 0.950 . S
H3769 C3789 0.950 . S
H3770 C3791 0.950 . S
H3771 C3794 0.991 . S
H3772 C3795 0.950 . S
H3773 C3797 0.950 . S
H3774 C3798 0.950 . S
H3775 C3799 0.951 . S
H3776 C3801 0.951 . S
H3777 C3803 0.950 . S
H3778 C3804 0.950 . S
H3779 C3806 0.950 . S
H3780 C3809 0.950 . S
H3781 C3810 0.950 . S
H3782 C3812 0.950 . S
H3783 C3813 0.950 . S
C3784 H3766 0.951 . S
C3784 C3785 1.366 1_545 S
C3784 C3786 1.388 . S
C3785 C3784 1.366 1_565 S
C3785 C3789 1.385 . S
C3786 H3767 0.951 . S
C3786 C3784 1.388 . S
C3786 C3787 1.366 1_545 S
C3787 C3786 1.366 1_565 S
C3787 C3788 1.414 . S
C3787 C3790 1.499 . S
C3788 H3768 0.950 . S
C3788 C3787 1.414 . S
C3788 C3789 1.374 . S
C3789 H3769 0.950 . S
C3789 C3785 1.385 . S
C3789 C3788 1.374 . S
C3790 C3787 1.499 . S
C3790 C3791 1.373 . S
C3790 C3792 1.389 1_565 S
C3791 H3770 0.950 . S
C3791 C3790 1.373 . S
C3791 C3807 1.377 . S
C3792 C3790 1.389 1_545 S
C3792 C3793 1.524 . S
C3792 C3806 1.377 . S
C3793 C3792 1.524 . S
C3793 C3794 1.397 . S
C3793 C3798 1.363 . S
C3794 H3771 0.991 . S
C3794 C3793 1.397 . S
C3794 C3795 1.334 . S
C3795 H3772 0.950 . S
C3795 C3794 1.334 . S
C3795 C3796 1.287 . S
C3796 C3795 1.287 . S
C3796 C3797 1.524 . S
C3796 H3815 0.913 . S
C3797 H3773 0.950 . S
C3797 C3796 1.524 . S
C3797 C3798 1.415 . S
C3798 H3774 0.950 . S
C3798 C3793 1.363 . S
C3798 C3797 1.415 . S
C3799 H3775 0.951 . S
C3799 C3800 1.366 . S
C3799 C3801 1.388 . S
C3800 C3799 1.366 . S
C3800 C3804 1.385 1_565 S
C3801 H3776 0.951 . S
C3801 C3799 1.388 . S
C3801 C3802 1.366 . S
C3802 C3801 1.366 . S
C3802 C3803 1.414 1_565 S
C3802 C3805 1.499 . S
C3803 H3777 0.950 . S
C3803 C3802 1.414 1_545 S
C3803 C3804 1.374 . S
C3804 H3778 0.950 . S
C3804 C3800 1.385 1_545 S
C3804 C3803 1.374 . S
C3805 C3802 1.499 . S
C3805 C3806 1.373 1_565 S
C3805 C3807 1.389 . S
C3806 H3779 0.950 . S
C3806 C3792 1.377 . S
C3806 C3805 1.373 1_545 S
C3807 C3791 1.377 . S
C3807 C3805 1.389 . S
C3807 C3808 1.524 . S
C3808 C3807 1.524 . S
C3808 C3809 1.397 . S
C3808 C3813 1.363 . S
C3809 H3780 0.950 . S
C3809 C3808 1.397 . S
C3809 C3810 1.334 . S
C3810 H3781 0.950 . S
C3810 C3809 1.334 . S
C3810 C3811 1.287 . S
C3811 C3810 1.287 . S
C3811 C3812 1.524 . S
C3811 H3814 0.999 . S
C3812 H3782 0.950 . S
C3812 C3811 1.524 . S
C3812 C3813 1.415 . S
C3813 H3783 0.950 . S
C3813 C3808 1.363 . S
C3813 C3812 1.415 . S
H3814 C3811 0.999 . S
H3815 C3796 0.913 . S
H3816 C3834 0.951 . S
H3817 C3836 0.951 . S
H3818 C3838 0.950 . S
H3819 C3839 0.950 . S
H3820 C3841 0.950 . S
H3821 C3844 0.950 . S
H3822 C3845 0.950 . S
H3823 C3847 0.950 . S
H3824 C3848 0.950 . S
H3825 C3849 0.903 1_545 S
H3826 C3851 0.961 . S
H3827 C3853 0.950 . S
H3828 C3854 0.950 . S
H3829 C3856 0.950 . S
H3830 C3859 0.950 . S
H3831 C3860 0.950 . S
H3832 C3862 0.950 . S
H3833 C3863 0.950 . S
C3834 H3816 0.951 . S
C3834 C3835 1.366 . S
C3834 C3836 1.388 . S
C3835 C3834 1.366 . S
C3835 C3839 1.385 . S
C3836 H3817 0.951 . S
C3836 C3834 1.388 . S
C3836 C3837 1.366 . S
C3837 C3836 1.366 . S
C3837 C3838 1.414 . S
C3837 C3840 1.499 . S
C3838 H3818 0.950 . S
C3838 C3837 1.414 . S
C3838 C3839 1.374 . S
C3839 H3819 0.950 . S
C3839 C3835 1.385 . S
C3839 C3838 1.374 . S
C3840 C3837 1.499 . S
C3840 C3841 1.373 . S
C3840 C3842 1.389 1_565 S
C3841 H3820 0.950 . S
C3841 C3840 1.373 . S
C3841 C3857 1.377 . S
C3842 C3840 1.389 1_545 S
C3842 C3843 1.524 . S
C3842 C3856 1.377 . S
C3843 C3842 1.524 . S
C3843 C3844 1.397 . S
C3843 C3848 1.363 . S
C3844 H3821 0.950 . S
C3844 C3843 1.397 . S
C3844 C3845 1.334 . S
C3845 H3822 0.950 . S
C3845 C3844 1.334 . S
C3845 C3846 1.287 . S
C3846 C3845 1.287 . S
C3846 C3847 1.524 . S
C3846 H3865 0.913 . S
C3847 H3823 0.950 . S
C3847 C3846 1.524 . S
C3847 C3848 1.415 . S
C3848 H3824 0.950 . S
C3848 C3843 1.363 . S
C3848 C3847 1.415 . S
C3849 H3825 0.903 1_565 S
C3849 C3850 1.377 . S
C3849 C3851 1.431 . S
C3850 C3849 1.377 . S
C3850 C3854 1.385 . S
C3851 H3826 0.961 . S
C3851 C3849 1.431 . S
C3851 C3852 1.366 . S
C3852 C3851 1.366 . S
C3852 C3853 1.414 . S
C3852 C3855 1.499 . S
C3853 H3827 0.950 . S
C3853 C3852 1.414 . S
C3853 C3854 1.374 . S
C3854 H3828 0.950 . S
C3854 C3850 1.385 . S
C3854 C3853 1.374 . S
C3855 C3852 1.499 . S
C3855 C3856 1.373 1_565 S
C3855 C3857 1.389 . S
C3856 H3829 0.950 . S
C3856 C3842 1.377 . S
C3856 C3855 1.373 1_545 S
C3857 C3841 1.377 . S
C3857 C3855 1.389 . S
C3857 C3858 1.524 . S
C3858 C3857 1.524 . S
C3858 C3859 1.397 . S
C3858 C3863 1.363 . S
C3859 H3830 0.950 . S
C3859 C3858 1.397 . S
C3859 C3860 1.334 . S
C3860 H3831 0.950 . S
C3860 C3859 1.334 . S
C3860 C3861 1.287 . S
C3861 C3860 1.287 . S
C3861 C3862 1.524 . S
C3861 H3864 0.999 . S
C3862 H3832 0.950 . S
C3862 C3861 1.524 . S
C3862 C3863 1.415 . S
C3863 H3833 0.950 . S
C3863 C3858 1.363 . S
C3863 C3862 1.415 . S
H3864 C3861 0.999 . S
H3865 C3846 0.913 . S
H3866 C3884 0.951 . S
H3867 C3886 0.951 . S
H3868 C3888 0.950 . S
H3869 C3889 0.950 . S
H3870 C3891 0.950 . S
H3871 C3894 0.950 . S
H3872 C3895 0.950 . S
H3873 C3897 0.950 . S
H3874 C3898 0.950 . S
H3875 C3899 0.951 . S
H3876 C3901 0.951 . S
H3877 C3903 0.950 . S
H3878 C3904 0.950 . S
H3879 C3906 0.950 . S
H3880 C3909 0.950 . S
H3881 C3910 0.950 . S
H3882 C3912 0.950 . S
H3883 C3913 0.950 . S
C3884 H3866 0.951 . S
C3884 C3885 1.366 . S
C3884 C3886 1.388 . S
C3885 C3884 1.366 . S
C3885 C3889 1.385 . S
C3886 H3867 0.951 . S
C3886 C3884 1.388 . S
C3886 C3887 1.366 . S
C3887 C3886 1.366 . S
C3887 C3888 1.414 . S
C3887 C3890 1.499 . S
C3888 H3868 0.950 . S
C3888 C3887 1.414 . S
C3888 C3889 1.374 . S
C3889 H3869 0.950 . S
C3889 C3885 1.385 . S
C3889 C3888 1.374 . S
C3890 C3887 1.499 . S
C3890 C3891 1.373 . S
C3890 C3892 1.389 1_455 S
C3891 H3870 0.950 . S
C3891 C3890 1.373 . S
C3891 C3907 1.377 . S
C3892 C3890 1.389 1_655 S
C3892 C3893 1.524 . S
C3892 C3906 1.377 . S
C3893 C3892 1.524 . S
C3893 C3894 1.397 . S
C3893 C3898 1.363 . S
C3894 H3871 0.950 . S
C3894 C3893 1.397 . S
C3894 C3895 1.334 . S
C3895 H3872 0.950 . S
C3895 C3894 1.334 . S
C3895 C3896 1.287 . S
C3896 C3895 1.287 . S
C3896 C3897 1.524 . S
C3896 H3915 0.913 . S
C3897 H3873 0.950 . S
C3897 C3896 1.524 . S
C3897 C3898 1.415 . S
C3898 H3874 0.950 . S
C3898 C3893 1.363 . S
C3898 C3897 1.415 . S
C3899 H3875 0.951 . S
C3899 C3900 1.366 . S
C3899 C3901 1.388 . S
C3900 C3899 1.366 . S
C3900 C3904 1.385 . S
C3901 H3876 0.951 . S
C3901 C3899 1.388 . S
C3901 C3902 1.366 . S
C3902 C3901 1.366 . S
C3902 C3903 1.414 . S
C3902 C3905 1.499 . S
C3903 H3877 0.950 . S
C3903 C3902 1.414 . S
C3903 C3904 1.374 . S
C3904 H3878 0.950 . S
C3904 C3900 1.385 . S
C3904 C3903 1.374 . S
C3905 C3902 1.499 . S
C3905 C3906 1.373 1_455 S
C3905 C3907 1.389 . S
C3906 H3879 0.950 . S
C3906 C3892 1.377 . S
C3906 C3905 1.373 1_655 S
C3907 C3891 1.377 . S
C3907 C3905 1.389 . S
C3907 C3908 1.524 . S
C3908 C3907 1.524 . S
C3908 C3909 1.397 . S
C3908 C3913 1.363 . S
C3909 H3880 0.950 . S
C3909 C3908 1.397 . S
C3909 C3910 1.334 . S
C3910 H3881 0.950 . S
C3910 C3909 1.334 . S
C3910 C3911 1.287 . S
C3911 C3910 1.287 . S
C3911 C3912 1.524 . S
C3911 H3914 0.999 . S
C3912 H3882 0.950 . S
C3912 C3911 1.524 . S
C3912 C3913 1.415 . S
C3913 H3883 0.950 . S
C3913 C3908 1.363 . S
C3913 C3912 1.415 . S
H3914 C3911 0.999 . S
H3915 C3896 0.913 . S
H3916 C3934 0.951 . S
H3917 C3936 0.951 . S
H3918 C3938 0.950 . S
H3919 C3939 0.950 . S
H3920 C3941 0.950 . S
H3921 C3944 0.950 . S
H3922 C3945 0.950 . S
H3923 C3947 0.950 . S
H3924 C3948 0.950 . S
H3925 C3949 0.951 . S
H3926 C3951 0.951 . S
H3927 C3953 0.950 . S
H3928 C3954 0.950 . S
H3929 C3956 0.950 . S
H3930 C3959 0.950 . S
H3931 C3960 0.950 . S
H3932 C3962 0.950 . S
H3933 C3963 0.950 . S
C3934 H3916 0.951 . S
C3934 C3935 1.366 . S
C3934 C3936 1.388 . S
C3935 C3934 1.366 . S
C3935 C3939 1.385 . S
C3936 H3917 0.951 . S
C3936 C3934 1.388 . S
C3936 C3937 1.366 . S
C3937 C3936 1.366 . S
C3937 C3938 1.414 . S
C3937 C3940 1.499 . S
C3938 H3918 0.950 . S
C3938 C3937 1.414 . S
C3938 C3939 1.374 . S
C3939 H3919 0.950 . S
C3939 C3935 1.385 . S
C3939 C3938 1.374 . S
C3940 C3937 1.499 . S
C3940 C3941 1.373 . S
C3940 C3942 1.389 . S
C3941 H3920 0.950 . S
C3941 C3940 1.373 . S
C3941 C3957 1.377 . S
C3942 C3940 1.389 . S
C3942 C3943 1.524 . S
C3942 C3956 1.377 . S
C3943 C3942 1.524 . S
C3943 C3944 1.397 . S
C3943 C3948 1.363 . S
C3944 H3921 0.950 . S
C3944 C3943 1.397 . S
C3944 C3945 1.334 . S
C3945 H3922 0.950 . S
C3945 C3944 1.334 . S
C3945 C3946 1.287 . S
C3946 C3945 1.287 . S
C3946 C3947 1.524 . S
C3946 H3965 0.913 . S
C3947 H3923 0.950 . S
C3947 C3946 1.524 . S
C3947 C3948 1.415 . S
C3948 H3924 0.950 . S
C3948 C3943 1.363 . S
C3948 C3947 1.415 . S
C3949 H3925 0.951 . S
C3949 C3950 1.366 . S
C3949 C3951 1.388 . S
C3950 C3949 1.366 . S
C3950 C3954 1.385 . S
C3951 H3926 0.951 . S
C3951 C3949 1.388 . S
C3951 C3952 1.366 . S
C3952 C3951 1.366 . S
C3952 C3953 1.414 . S
C3952 C3955 1.499 . S
C3953 H3927 0.950 . S
C3953 C3952 1.414 . S
C3953 C3954 1.374 . S
C3954 H3928 0.950 . S
C3954 C3950 1.385 . S
C3954 C3953 1.374 . S
C3955 C3952 1.499 . S
C3955 C3956 1.373 . S
C3955 C3957 1.389 . S
C3956 H3929 0.950 . S
C3956 C3942 1.377 . S
C3956 C3955 1.373 . S
C3957 C3941 1.377 . S
C3957 C3955 1.389 . S
C3957 C3958 1.524 . S
C3958 C3957 1.524 . S
C3958 C3959 1.397 . S
C3958 C3963 1.363 . S
C3959 H3930 0.950 . S
C3959 C3958 1.397 . S
C3959 C3960 1.334 . S
C3960 H3931 0.950 . S
C3960 C3959 1.334 . S
C3960 C3961 1.287 . S
C3961 C3960 1.287 . S
C3961 C3962 1.524 . S
C3961 H3964 0.999 . S
C3962 H3932 0.950 . S
C3962 C3961 1.524 . S
C3962 C3963 1.415 . S
C3963 H3933 0.950 . S
C3963 C3958 1.363 . S
C3963 C3962 1.415 . S
H3964 C3961 0.999 . S
H3965 C3946 0.913 . S
H3966 C3984 0.951 . S
H3967 C3986 0.951 . S
H3968 C3988 0.950 . S
H3969 C3989 0.950 . S
H3970 C3991 0.950 . S
H3971 C3994 0.950 . S
H3972 C3995 0.950 . S
H3973 C3997 0.950 . S
H3974 C3998 0.950 . S
H3975 C3999 0.951 . S
H3976 C4001 0.951 . S
H3977 C4003 0.950 . S
H3978 C4004 0.950 . S
H3979 C4006 0.950 . S
H3980 C4009 0.950 . S
H3981 C4010 0.950 . S
H3982 C4012 0.950 . S
H3983 C4013 0.950 . S
C3984 H3966 0.951 . S
C3984 C3985 1.366 . S
C3984 C3986 1.388 . S
C3985 C3984 1.366 . S
C3985 C3989 1.385 . S
C3986 H3967 0.951 . S
C3986 C3984 1.388 . S
C3986 C3987 1.366 . S
C3987 C3986 1.366 . S
C3987 C3988 1.414 . S
C3987 C3990 1.499 . S
C3988 H3968 0.950 . S
C3988 C3987 1.414 . S
C3988 C3989 1.374 . S
C3989 H3969 0.950 . S
C3989 C3985 1.385 . S
C3989 C3988 1.374 . S
C3990 C3987 1.499 . S
C3990 C3991 1.373 . S
C3990 C3992 1.389 . S
C3991 H3970 0.950 . S
C3991 C3990 1.373 . S
C3991 C4007 1.377 . S
C3992 C3990 1.389 . S
C3992 C3993 1.524 . S
C3992 C4006 1.377 . S
C3993 C3992 1.524 . S
C3993 C3994 1.397 . S
C3993 C3998 1.363 . S
C3994 H3971 0.950 . S
C3994 C3993 1.397 . S
C3994 C3995 1.334 . S
C3995 H3972 0.950 . S
C3995 C3994 1.334 . S
C3995 C3996 1.287 . S
C3996 C3995 1.287 . S
C3996 C3997 1.524 . S
C3996 H4015 0.913 . S
C3997 H3973 0.950 . S
C3997 C3996 1.524 . S
C3997 C3998 1.415 . S
C3998 H3974 0.950 . S
C3998 C3993 1.363 . S
C3998 C3997 1.415 . S
C3999 H3975 0.951 . S
C3999 C4000 1.366 . S
C3999 C4001 1.388 . S
C4000 C3999 1.366 . S
C4000 C4004 1.385 . S
C4001 H3976 0.951 . S
C4001 C3999 1.388 . S
C4001 C4002 1.366 . S
C4002 C4001 1.366 . S
C4002 C4003 1.414 . S
C4002 C4005 1.499 . S
C4003 H3977 0.950 . S
C4003 C4002 1.414 . S
C4003 C4004 1.374 . S
C4004 H3978 0.950 . S
C4004 C4000 1.385 . S
C4004 C4003 1.374 . S
C4005 C4002 1.499 . S
C4005 C4006 1.373 . S
C4005 C4007 1.389 . S
C4006 H3979 0.950 . S
C4006 C3992 1.377 . S
C4006 C4005 1.373 . S
C4007 C3991 1.377 . S
C4007 C4005 1.389 . S
C4007 C4008 1.524 . S
C4008 C4007 1.524 . S
C4008 C4009 1.397 . S
C4008 C4013 1.363 . S
C4009 H3980 0.950 . S
C4009 C4008 1.397 . S
C4009 C4010 1.334 . S
C4010 H3981 0.950 . S
C4010 C4009 1.334 . S
C4010 C4011 1.287 . S
C4011 C4010 1.287 . S
C4011 C4012 1.524 . S
C4011 H4014 0.999 . S
C4012 H3982 0.950 . S
C4012 C4011 1.524 . S
C4012 C4013 1.415 . S
C4013 H3983 0.950 . S
C4013 C4008 1.363 . S
C4013 C4012 1.415 . S
H4014 C4011 0.999 . S
H4015 C3996 0.913 . S
H4016 C4034 0.951 . S
H4017 C4036 0.951 . S
H4018 C4038 0.950 . S
H4019 C4039 0.950 . S
H4020 C4041 0.950 . S
H4021 C4044 0.950 . S
H4022 C4045 0.950 . S
H4023 C4047 0.950 . S
H4024 C4048 0.950 . S
H4025 C4049 0.951 . S
H4026 C4051 0.951 . S
H4027 C4053 0.950 . S
H4028 C4054 0.950 . S
H4029 C4056 0.950 . S
H4030 C4059 0.950 . S
H4031 C4060 0.950 . S
H4032 C4062 0.950 . S
H4033 C4063 0.950 . S
C4034 H4016 0.951 . S
C4034 C4035 1.366 . S
C4034 C4036 1.388 . S
C4035 C4034 1.366 . S
C4035 C4039 1.385 . S
C4036 H4017 0.951 . S
C4036 C4034 1.388 . S
C4036 C4037 1.366 . S
C4037 C4036 1.366 . S
C4037 C4038 1.414 . S
C4037 C4040 1.499 . S
C4038 H4018 0.950 . S
C4038 C4037 1.414 . S
C4038 C4039 1.374 . S
C4039 H4019 0.950 . S
C4039 C4035 1.385 . S
C4039 C4038 1.374 . S
C4040 C4037 1.499 . S
C4040 C4041 1.373 . S
C4040 C4042 1.389 . S
C4041 H4020 0.950 . S
C4041 C4040 1.373 . S
C4041 C4057 1.377 . S
C4042 C4040 1.389 . S
C4042 C4043 1.524 . S
C4042 C4056 1.377 . S
C4043 C4042 1.524 . S
C4043 C4044 1.397 . S
C4043 C4048 1.363 . S
C4044 H4021 0.950 . S
C4044 C4043 1.397 . S
C4044 C4045 1.334 . S
C4045 H4022 0.950 . S
C4045 C4044 1.334 . S
C4045 C4046 1.287 . S
C4046 C4045 1.287 . S
C4046 C4047 1.524 . S
C4046 H4065 0.913 . S
C4047 H4023 0.950 . S
C4047 C4046 1.524 . S
C4047 C4048 1.415 . S
C4048 H4024 0.950 . S
C4048 C4043 1.363 . S
C4048 C4047 1.415 . S
C4049 H4025 0.951 . S
C4049 C4050 1.366 . S
C4049 C4051 1.388 . S
C4050 C4049 1.366 . S
C4050 C4054 1.385 . S
C4051 H4026 0.951 . S
C4051 C4049 1.388 . S
C4051 C4052 1.366 . S
C4052 C4051 1.366 . S
C4052 C4053 1.414 . S
C4052 C4055 1.499 . S
C4053 H4027 0.950 . S
C4053 C4052 1.414 . S
C4053 C4054 1.374 . S
C4054 H4028 0.950 . S
C4054 C4050 1.385 . S
C4054 C4053 1.374 . S
C4055 C4052 1.499 . S
C4055 C4056 1.373 . S
C4055 C4057 1.389 . S
C4056 H4029 0.950 . S
C4056 C4042 1.377 . S
C4056 C4055 1.373 . S
C4057 C4041 1.377 . S
C4057 C4055 1.389 . S
C4057 C4058 1.524 . S
C4058 C4057 1.524 . S
C4058 C4059 1.397 . S
C4058 C4063 1.363 . S
C4059 H4030 0.950 . S
C4059 C4058 1.397 . S
C4059 C4060 1.334 . S
C4060 H4031 0.950 . S
C4060 C4059 1.334 . S
C4060 C4061 1.287 . S
C4061 C4060 1.287 . S
C4061 C4062 1.524 . S
C4061 H4064 0.999 . S
C4062 H4032 0.950 . S
C4062 C4061 1.524 . S
C4062 C4063 1.415 . S
C4063 H4033 0.950 . S
C4063 C4058 1.363 . S
C4063 C4062 1.415 . S
H4064 C4061 0.999 . S
H4065 C4046 0.913 . S
H4066 C4084 0.951 . S
H4067 C4086 0.951 . S
H4068 C4088 0.950 . S
H4069 C4089 0.950 . S
H4070 C4091 0.950 . S
H4071 C4094 0.950 . S
H4072 C4095 0.950 . S
H4073 C4097 0.950 . S
H4074 C4098 0.950 . S
H4075 C4099 0.951 . S
H4076 C4101 0.951 . S
H4077 C4103 0.950 . S
H4078 C4104 0.950 . S
H4079 C4106 0.950 . S
H4080 C4109 0.950 . S
H4081 C4110 0.950 . S
H4082 C4112 0.950 . S
H4083 C4113 0.950 . S
C4084 H4066 0.951 . S
C4084 C4085 1.366 . S
C4084 C4086 1.388 . S
C4085 C4084 1.366 . S
C4085 C4089 1.385 . S
C4086 H4067 0.951 . S
C4086 C4084 1.388 . S
C4086 C4087 1.366 . S
C4087 C4086 1.366 . S
C4087 C4088 1.414 . S
C4087 C4090 1.499 . S
C4088 H4068 0.950 . S
C4088 C4087 1.414 . S
C4088 C4089 1.374 . S
C4089 H4069 0.950 . S
C4089 C4085 1.385 . S
C4089 C4088 1.374 . S
C4090 C4087 1.499 . S
C4090 C4091 1.373 . S
C4090 C4092 1.389 . S
C4091 H4070 0.950 . S
C4091 C4090 1.373 . S
C4091 C4107 1.377 . S
C4092 C4090 1.389 . S
C4092 C4093 1.524 . S
C4092 C4106 1.377 . S
C4093 C4092 1.524 . S
C4093 C4094 1.397 . S
C4093 C4098 1.363 . S
C4094 H4071 0.950 . S
C4094 C4093 1.397 . S
C4094 C4095 1.334 . S
C4095 H4072 0.950 . S
C4095 C4094 1.334 . S
C4095 C4096 1.287 . S
C4096 C4095 1.287 . S
C4096 C4097 1.524 . S
C4096 H4115 0.913 . S
C4097 H4073 0.950 . S
C4097 C4096 1.524 . S
C4097 C4098 1.415 . S
C4098 H4074 0.950 . S
C4098 C4093 1.363 . S
C4098 C4097 1.415 . S
C4099 H4075 0.951 . S
C4099 C4100 1.366 . S
C4099 C4101 1.388 . S
C4100 C4099 1.366 . S
C4100 C4104 1.385 . S
C4101 H4076 0.951 . S
C4101 C4099 1.388 . S
C4101 C4102 1.366 . S
C4102 C4101 1.366 . S
C4102 C4103 1.414 . S
C4102 C4105 1.499 . S
C4103 H4077 0.950 . S
C4103 C4102 1.414 . S
C4103 C4104 1.374 . S
C4104 H4078 0.950 . S
C4104 C4100 1.385 . S
C4104 C4103 1.374 . S
C4105 C4102 1.499 . S
C4105 C4106 1.373 . S
C4105 C4107 1.389 . S
C4106 H4079 0.950 . S
C4106 C4092 1.377 . S
C4106 C4105 1.373 . S
C4107 C4091 1.377 . S
C4107 C4105 1.389 . S
C4107 C4108 1.524 . S
C4108 C4107 1.524 . S
C4108 C4109 1.397 . S
C4108 C4113 1.363 . S
C4109 H4080 0.950 . S
C4109 C4108 1.397 . S
C4109 C4110 1.334 . S
C4110 H4081 0.950 . S
C4110 C4109 1.334 . S
C4110 C4111 1.287 . S
C4111 C4110 1.287 . S
C4111 C4112 1.524 . S
C4111 H4114 0.999 . S
C4112 H4082 0.950 . S
C4112 C4111 1.524 . S
C4112 C4113 1.415 . S
C4113 H4083 0.950 . S
C4113 C4108 1.363 . S
C4113 C4112 1.415 . S
H4114 C4111 0.999 . S
H4115 C4096 0.913 . S
H4116 C4134 0.951 . S
H4117 C4136 0.951 . S
H4118 C4138 0.950 1_565 S
H4119 C4139 0.950 1_565 S
H4120 C4141 0.950 . S
H4121 C4144 0.950 . S
H4122 C4145 0.950 . S
H4123 C4147 0.950 . S
H4124 C4148 0.950 . S
H4125 C4149 0.951 . S
H4126 C4151 0.951 . S
H4127 C4153 0.950 . S
H4128 C4154 0.950 . S
H4129 C4156 0.950 . S
H4130 C4159 0.950 . S
H4131 C4160 0.950 . S
H4132 C4162 0.950 . S
H4133 C4163 0.950 . S
C4134 H4116 0.951 . S
C4134 C4135 1.366 . S
C4134 C4136 1.388 . S
C4135 C4134 1.366 . S
C4135 C4139 1.385 . S
C4136 H4117 0.951 . S
C4136 C4134 1.388 . S
C4136 C4137 1.366 . S
C4137 C4136 1.366 . S
C4137 C4138 1.414 . S
C4137 C4140 1.499 . S
C4138 H4118 0.950 1_545 S
C4138 C4137 1.414 . S
C4138 C4139 1.374 . S
C4139 H4119 0.950 1_545 S
C4139 C4135 1.385 . S
C4139 C4138 1.374 . S
C4140 C4137 1.499 . S
C4140 C4141 1.373 1_545 S
C4140 C4142 1.389 . S
C4141 H4120 0.950 . S
C4141 C4140 1.373 1_565 S
C4141 C4157 1.377 . S
C4142 C4140 1.389 . S
C4142 C4143 1.524 . S
C4142 C4156 1.377 . S
C4143 C4142 1.524 . S
C4143 C4144 1.397 . S
C4143 C4148 1.363 . S
C4144 H4121 0.950 . S
C4144 C4143 1.397 . S
C4144 C4145 1.334 . S
C4145 H4122 0.950 . S
C4145 C4144 1.334 . S
C4145 C4146 1.287 . S
C4146 C4145 1.287 . S
C4146 C4147 1.524 . S
C4146 H4165 0.913 . S
C4147 H4123 0.950 . S
C4147 C4146 1.524 . S
C4147 C4148 1.415 . S
C4148 H4124 0.950 . S
C4148 C4143 1.363 . S
C4148 C4147 1.415 . S
C4149 H4125 0.951 . S
C4149 C4150 1.366 1_565 S
C4149 C4151 1.388 . S
C4150 C4149 1.366 1_545 S
C4150 C4154 1.385 . S
C4151 H4126 0.951 . S
C4151 C4149 1.388 . S
C4151 C4152 1.366 1_565 S
C4152 C4151 1.366 1_545 S
C4152 C4153 1.414 . S
C4152 C4155 1.499 . S
C4153 H4127 0.950 . S
C4153 C4152 1.414 . S
C4153 C4154 1.374 . S
C4154 H4128 0.950 . S
C4154 C4150 1.385 . S
C4154 C4153 1.374 . S
C4155 C4152 1.499 . S
C4155 C4156 1.373 . S
C4155 C4157 1.389 1_545 S
C4156 H4129 0.950 . S
C4156 C4142 1.377 . S
C4156 C4155 1.373 . S
C4157 C4141 1.377 . S
C4157 C4155 1.389 1_565 S
C4157 C4158 1.524 . S
C4158 C4157 1.524 . S
C4158 C4159 1.397 . S
C4158 C4163 1.363 . S
C4159 H4130 0.950 . S
C4159 C4158 1.397 . S
C4159 C4160 1.334 . S
C4160 H4131 0.950 . S
C4160 C4159 1.334 . S
C4160 C4161 1.287 . S
C4161 C4160 1.287 . S
C4161 C4162 1.524 . S
C4161 H4164 0.999 . S
C4162 H4132 0.950 . S
C4162 C4161 1.524 . S
C4162 C4163 1.415 . S
C4163 H4133 0.950 . S
C4163 C4158 1.363 . S
C4163 C4162 1.415 . S
H4164 C4161 0.999 . S
H4165 C4146 0.913 . S
H4166 C4184 0.951 . S
H4167 C4186 0.951 . S
H4168 C4188 0.971 . S
H4169 C4189 0.950 . S
H4170 C4191 0.950 . S
H4171 C4194 0.950 . S
H4172 C4195 0.950 . S
H4173 C4197 0.950 . S
H4174 C4198 1.044 . S
H4175 C4199 0.971 . S
H4176 C4201 0.931 1_455 S
H4177 C4203 0.950 . S
H4178 C4204 0.950 . S
H4179 C4206 0.953 . S
H4180 C4209 0.950 . S
H4181 C4210 0.950 . S
H4182 C4212 0.950 . S
H4183 C4213 0.950 . S
C4184 H4166 0.951 . S
C4184 C4185 1.366 . S
C4184 C4186 1.388 . S
C4185 C4184 1.366 . S
C4185 C4189 1.385 . S
C4186 H4167 0.951 . S
C4186 C4184 1.388 . S
C4186 C4187 1.366 . S
C4187 C4186 1.366 . S
C4187 C4188 1.414 . S
C4187 C4190 1.499 . S
C4188 H4168 0.971 . S
C4188 C4187 1.414 . S
C4188 C4189 1.374 . S
C4189 H4169 0.950 . S
C4189 C4185 1.385 . S
C4189 C4188 1.374 . S
C4190 C4187 1.499 . S
C4190 C4191 1.373 . S
C4190 C4192 1.389 1_655 S
C4191 H4170 0.950 . S
C4191 C4190 1.373 . S
C4191 C4207 1.377 . S
C4192 C4190 1.389 1_455 S
C4192 C4193 1.524 . S
C4192 C4206 1.417 . S
C4193 C4192 1.524 . S
C4193 C4194 1.397 . S
C4193 C4198 1.363 . S
C4194 H4171 0.950 . S
C4194 C4193 1.397 . S
C4194 C4195 1.334 . S
C4195 H4172 0.950 . S
C4195 C4194 1.334 . S
C4195 C4196 1.287 . S
C4196 C4195 1.287 . S
C4196 C4197 1.524 . S
C4196 H4215 0.913 . S
C4197 H4173 0.950 . S
C4197 C4196 1.524 . S
C4197 C4198 1.415 . S
C4198 H4174 1.044 . S
C4198 C4193 1.363 . S
C4198 C4197 1.415 . S
C4199 H4175 0.971 . S
C4199 C4200 1.326 1_455 S
C4199 C4201 1.426 1_455 S
C4200 C4199 1.326 1_655 S
C4200 C4204 1.385 . S
C4201 H4176 0.931 1_655 S
C4201 C4199 1.426 1_655 S
C4201 C4202 1.374 . S
C4202 C4201 1.374 . S
C4202 C4203 1.414 . S
C4202 C4205 1.499 . S
C4203 H4177 0.950 . S
C4203 C4202 1.414 . S
C4203 C4204 1.374 . S
C4204 H4178 0.950 . S
C4204 C4200 1.385 . S
C4204 C4203 1.374 . S
C4205 C4202 1.499 . S
C4205 C4206 1.339 1_655 S
C4205 C4207 1.389 . S
C4206 H4179 0.953 . S
C4206 C4192 1.417 . S
C4206 C4205 1.339 1_455 S
C4207 C4191 1.377 . S
C4207 C4205 1.389 . S
C4207 C4208 1.524 . S
C4208 C4207 1.524 . S
C4208 C4209 1.397 . S
C4208 C4213 1.363 . S
C4209 H4180 0.950 . S
C4209 C4208 1.397 . S
C4209 C4210 1.334 . S
C4210 H4181 0.950 . S
C4210 C4209 1.334 . S
C4210 C4211 1.287 . S
C4211 C4210 1.287 . S
C4211 C4212 1.524 . S
C4211 H4214 0.999 . S
C4212 H4182 0.950 . S
C4212 C4211 1.524 . S
C4212 C4213 1.415 . S
C4213 H4183 0.950 . S
C4213 C4208 1.363 . S
C4213 C4212 1.415 . S
H4214 C4211 0.999 . S
H4215 C4196 0.913 . S
H4216 C4234 0.951 . S
H4217 C4236 0.951 . S
H4218 C4238 0.950 . S
H4219 C4239 0.950 . S
H4220 C4241 0.950 . S
H4221 C4244 0.950 . S
H4222 C4245 0.950 . S
H4223 C4247 0.950 . S
H4224 C4248 0.950 . S
H4225 C4249 0.951 . S
H4226 C4251 0.951 . S
H4227 C4253 0.950 . S
H4228 C4254 0.950 . S
H4229 C4256 0.950 . S
H4230 C4259 0.950 . S
H4231 C4260 0.950 . S
H4232 C4262 0.950 . S
H4233 C4263 0.950 . S
C4234 H4216 0.951 . S
C4234 C4235 1.366 . S
C4234 C4236 1.388 . S
C4235 C4234 1.366 . S
C4235 C4239 1.385 . S
C4236 H4217 0.951 . S
C4236 C4234 1.388 . S
C4236 C4237 1.366 . S
C4237 C4236 1.366 . S
C4237 C4238 1.414 . S
C4237 C4240 1.499 . S
C4238 H4218 0.950 . S
C4238 C4237 1.414 . S
C4238 C4239 1.374 . S
C4239 H4219 0.950 . S
C4239 C4235 1.385 . S
C4239 C4238 1.374 . S
C4240 C4237 1.499 . S
C4240 C4241 1.373 . S
C4240 C4242 1.389 . S
C4241 H4220 0.950 . S
C4241 C4240 1.373 . S
C4241 C4257 1.377 . S
C4242 C4240 1.389 . S
C4242 C4243 1.524 . S
C4242 C4256 1.377 . S
C4243 C4242 1.524 . S
C4243 C4244 1.397 . S
C4243 C4248 1.363 . S
C4244 H4221 0.950 . S
C4244 C4243 1.397 . S
C4244 C4245 1.334 . S
C4245 H4222 0.950 . S
C4245 C4244 1.334 . S
C4245 C4246 1.287 . S
C4246 C4245 1.287 . S
C4246 C4247 1.524 . S
C4246 H4265 0.913 . S
C4247 H4223 0.950 . S
C4247 C4246 1.524 . S
C4247 C4248 1.415 . S
C4248 H4224 0.950 . S
C4248 C4243 1.363 . S
C4248 C4247 1.415 . S
C4249 H4225 0.951 . S
C4249 C4250 1.366 . S
C4249 C4251 1.388 . S
C4250 C4249 1.366 . S
C4250 C4254 1.385 . S
C4251 H4226 0.951 . S
C4251 C4249 1.388 . S
C4251 C4252 1.366 . S
C4252 C4251 1.366 . S
C4252 C4253 1.414 . S
C4252 C4255 1.499 . S
C4253 H4227 0.950 . S
C4253 C4252 1.414 . S
C4253 C4254 1.374 . S
C4254 H4228 0.950 . S
C4254 C4250 1.385 . S
C4254 C4253 1.374 . S
C4255 C4252 1.499 . S
C4255 C4256 1.373 . S
C4255 C4257 1.389 . S
C4256 H4229 0.950 . S
C4256 C4242 1.377 . S
C4256 C4255 1.373 . S
C4257 C4241 1.377 . S
C4257 C4255 1.389 . S
C4257 C4258 1.524 . S
C4258 C4257 1.524 . S
C4258 C4259 1.397 . S
C4258 C4263 1.363 . S
C4259 H4230 0.950 . S
C4259 C4258 1.397 . S
C4259 C4260 1.334 . S
C4260 H4231 0.950 . S
C4260 C4259 1.334 . S
C4260 C4261 1.287 . S
C4261 C4260 1.287 . S
C4261 C4262 1.524 . S
C4261 H4264 0.999 . S
C4262 H4232 0.950 . S
C4262 C4261 1.524 . S
C4262 C4263 1.415 . S
C4263 H4233 0.950 . S
C4263 C4258 1.363 . S
C4263 C4262 1.415 . S
H4264 C4261 0.999 . S
H4265 C4246 0.913 . S
H4266 C4284 0.951 . S
H4267 C4286 0.951 . S
H4268 C4288 0.950 . S
H4269 C4289 0.950 . S
H4270 C4291 0.950 . S
H4271 C4294 0.950 . S
H4272 C4295 0.950 . S
H4273 C4297 0.950 . S
H4274 C4298 0.950 . S
H4275 C4299 0.951 . S
H4276 C4301 0.951 . S
H4277 C4303 0.950 . S
H4278 C4304 0.950 . S
H4279 C4306 0.950 . S
H4280 C4309 0.950 . S
H4281 C4310 0.950 . S
H4282 C4312 0.950 . S
H4283 C4313 0.950 . S
C4284 H4266 0.951 . S
C4284 C4285 1.366 . S
C4284 C4286 1.388 . S
C4285 C4284 1.366 . S
C4285 C4289 1.385 . S
C4286 H4267 0.951 . S
C4286 C4284 1.388 . S
C4286 C4287 1.366 . S
C4287 C4286 1.366 . S
C4287 C4288 1.414 . S
C4287 C4290 1.499 . S
C4288 H4268 0.950 . S
C4288 C4287 1.414 . S
C4288 C4289 1.374 . S
C4289 H4269 0.950 . S
C4289 C4285 1.385 . S
C4289 C4288 1.374 . S
C4290 C4287 1.499 . S
C4290 C4291 1.373 . S
C4290 C4292 1.389 . S
C4291 H4270 0.950 . S
C4291 C4290 1.373 . S
C4291 C4307 1.377 . S
C4292 C4290 1.389 . S
C4292 C4293 1.524 . S
C4292 C4306 1.377 . S
C4293 C4292 1.524 . S
C4293 C4294 1.397 . S
C4293 C4298 1.363 . S
C4294 H4271 0.950 . S
C4294 C4293 1.397 . S
C4294 C4295 1.334 . S
C4295 H4272 0.950 . S
C4295 C4294 1.334 . S
C4295 C4296 1.287 . S
C4296 C4295 1.287 . S
C4296 C4297 1.524 . S
C4296 H4315 0.913 . S
C4297 H4273 0.950 . S
C4297 C4296 1.524 . S
C4297 C4298 1.415 . S
C4298 H4274 0.950 . S
C4298 C4293 1.363 . S
C4298 C4297 1.415 . S
C4299 H4275 0.951 . S
C4299 C4300 1.366 . S
C4299 C4301 1.388 . S
C4300 C4299 1.366 . S
C4300 C4304 1.385 . S
C4301 H4276 0.951 . S
C4301 C4299 1.388 . S
C4301 C4302 1.366 . S
C4302 C4301 1.366 . S
C4302 C4303 1.414 . S
C4302 C4305 1.499 . S
C4303 H4277 0.950 . S
C4303 C4302 1.414 . S
C4303 C4304 1.374 . S
C4304 H4278 0.950 . S
C4304 C4300 1.385 . S
C4304 C4303 1.374 . S
C4305 C4302 1.499 . S
C4305 C4306 1.373 . S
C4305 C4307 1.389 . S
C4306 H4279 0.950 . S
C4306 C4292 1.377 . S
C4306 C4305 1.373 . S
C4307 C4291 1.377 . S
C4307 C4305 1.389 . S
C4307 C4308 1.524 . S
C4308 C4307 1.524 . S
C4308 C4309 1.397 . S
C4308 C4313 1.363 . S
C4309 H4280 0.950 . S
C4309 C4308 1.397 . S
C4309 C4310 1.334 . S
C4310 H4281 0.950 . S
C4310 C4309 1.334 . S
C4310 C4311 1.287 . S
C4311 C4310 1.287 . S
C4311 C4312 1.524 . S
C4311 H4314 0.999 . S
C4312 H4282 0.950 . S
C4312 C4311 1.524 . S
C4312 C4313 1.415 . S
C4313 H4283 0.950 . S
C4313 C4308 1.363 . S
C4313 C4312 1.415 . S
H4314 C4311 0.999 . S
H4315 C4296 0.913 . S
H4316 C4334 0.951 . S
H4317 C4336 0.951 . S
H4318 C4338 0.950 . S
H4319 C4339 0.950 . S
H4320 C4341 0.950 . S
H4321 C4344 0.950 . S
H4322 C4345 0.950 . S
H4323 C4347 0.950 . S
H4324 C4348 0.950 . S
H4325 C4349 0.951 . S
H4326 C4351 0.951 . S
H4327 C4353 0.950 . S
H4328 C4354 0.950 . S
H4329 C4356 0.950 . S
H4330 C4359 0.950 . S
H4331 C4360 0.950 . S
H4332 C4362 0.950 . S
H4333 C4363 0.950 . S
C4334 H4316 0.951 . S
C4334 C4335 1.366 . S
C4334 C4336 1.388 . S
C4335 C4334 1.366 . S
C4335 C4339 1.385 . S
C4336 H4317 0.951 . S
C4336 C4334 1.388 . S
C4336 C4337 1.366 . S
C4337 C4336 1.366 . S
C4337 C4338 1.414 . S
C4337 C4340 1.499 . S
C4338 H4318 0.950 . S
C4338 C4337 1.414 . S
C4338 C4339 1.374 . S
C4339 H4319 0.950 . S
C4339 C4335 1.385 . S
C4339 C4338 1.374 . S
C4340 C4337 1.499 . S
C4340 C4341 1.373 . S
C4340 C4342 1.389 . S
C4341 H4320 0.950 . S
C4341 C4340 1.373 . S
C4341 C4357 1.377 . S
C4342 C4340 1.389 . S
C4342 C4343 1.524 . S
C4342 C4356 1.377 . S
C4343 C4342 1.524 . S
C4343 C4344 1.397 . S
C4343 C4348 1.363 . S
C4344 H4321 0.950 . S
C4344 C4343 1.397 . S
C4344 C4345 1.334 . S
C4345 H4322 0.950 . S
C4345 C4344 1.334 . S
C4345 C4346 1.287 . S
C4346 C4345 1.287 . S
C4346 C4347 1.524 . S
C4346 H4365 0.913 . S
C4347 H4323 0.950 . S
C4347 C4346 1.524 . S
C4347 C4348 1.415 . S
C4348 H4324 0.950 . S
C4348 C4343 1.363 . S
C4348 C4347 1.415 . S
C4349 H4325 0.951 . S
C4349 C4350 1.366 . S
C4349 C4351 1.388 . S
C4350 C4349 1.366 . S
C4350 C4354 1.385 . S
C4351 H4326 0.951 . S
C4351 C4349 1.388 . S
C4351 C4352 1.366 . S
C4352 C4351 1.366 . S
C4352 C4353 1.414 . S
C4352 C4355 1.499 . S
C4353 H4327 0.950 . S
C4353 C4352 1.414 . S
C4353 C4354 1.374 . S
C4354 H4328 0.950 . S
C4354 C4350 1.385 . S
C4354 C4353 1.374 . S
C4355 C4352 1.499 . S
C4355 C4356 1.373 . S
C4355 C4357 1.389 . S
C4356 H4329 0.950 . S
C4356 C4342 1.377 . S
C4356 C4355 1.373 . S
C4357 C4341 1.377 . S
C4357 C4355 1.389 . S
C4357 C4358 1.524 . S
C4358 C4357 1.524 . S
C4358 C4359 1.397 . S
C4358 C4363 1.363 . S
C4359 H4330 0.950 . S
C4359 C4358 1.397 . S
C4359 C4360 1.334 . S
C4360 H4331 0.950 . S
C4360 C4359 1.334 . S
C4360 C4361 1.287 . S
C4361 C4360 1.287 . S
C4361 C4362 1.524 . S
C4361 H4364 0.999 . S
C4362 H4332 0.950 . S
C4362 C4361 1.524 . S
C4362 C4363 1.415 . S
C4363 H4333 0.950 . S
C4363 C4358 1.363 . S
C4363 C4362 1.415 . S
H4364 C4361 0.999 . S
H4365 C4346 0.913 . S
H4366 C4384 0.951 . S
H4367 C4386 0.951 . S
H4368 C4388 0.950 . S
H4369 C4389 0.950 . S
H4370 C4391 0.950 . S
H4371 C4394 0.950 . S
H4372 C4395 0.950 . S
H4373 C4397 0.950 . S
H4374 C4398 0.950 . S
H4375 C4399 0.951 . S
H4376 C4401 0.951 . S
H4377 C4403 0.950 . S
H4378 C4404 0.950 . S
H4379 C4406 0.950 . S
H4380 C4409 0.950 . S
H4381 C4410 0.950 . S
H4382 C4412 0.950 . S
H4383 C4413 0.950 . S
C4384 H4366 0.951 . S
C4384 C4385 1.366 . S
C4384 C4386 1.388 . S
C4385 C4384 1.366 . S
C4385 C4389 1.385 . S
C4386 H4367 0.951 . S
C4386 C4384 1.388 . S
C4386 C4387 1.366 . S
C4387 C4386 1.366 . S
C4387 C4388 1.414 . S
C4387 C4390 1.499 . S
C4388 H4368 0.950 . S
C4388 C4387 1.414 . S
C4388 C4389 1.374 . S
C4389 H4369 0.950 . S
C4389 C4385 1.385 . S
C4389 C4388 1.374 . S
C4390 C4387 1.499 . S
C4390 C4391 1.373 . S
C4390 C4392 1.389 . S
C4391 H4370 0.950 . S
C4391 C4390 1.373 . S
C4391 C4407 1.377 . S
C4392 C4390 1.389 . S
C4392 C4393 1.524 . S
C4392 C4406 1.377 . S
C4393 C4392 1.524 . S
C4393 C4394 1.397 . S
C4393 C4398 1.363 . S
C4394 H4371 0.950 . S
C4394 C4393 1.397 . S
C4394 C4395 1.334 . S
C4395 H4372 0.950 . S
C4395 C4394 1.334 . S
C4395 C4396 1.287 . S
C4396 C4395 1.287 . S
C4396 C4397 1.524 . S
C4396 H4415 0.913 . S
C4397 H4373 0.950 . S
C4397 C4396 1.524 . S
C4397 C4398 1.415 . S
C4398 H4374 0.950 . S
C4398 C4393 1.363 . S
C4398 C4397 1.415 . S
C4399 H4375 0.951 . S
C4399 C4400 1.366 . S
C4399 C4401 1.388 . S
C4400 C4399 1.366 . S
C4400 C4404 1.385 . S
C4401 H4376 0.951 . S
C4401 C4399 1.388 . S
C4401 C4402 1.366 . S
C4402 C4401 1.366 . S
C4402 C4403 1.414 . S
C4402 C4405 1.499 . S
C4403 H4377 0.950 . S
C4403 C4402 1.414 . S
C4403 C4404 1.374 . S
C4404 H4378 0.950 . S
C4404 C4400 1.385 . S
C4404 C4403 1.374 . S
C4405 C4402 1.499 . S
C4405 C4406 1.373 . S
C4405 C4407 1.389 . S
C4406 H4379 0.950 . S
C4406 C4392 1.377 . S
C4406 C4405 1.373 . S
C4407 C4391 1.377 . S
C4407 C4405 1.389 . S
C4407 C4408 1.524 . S
C4408 C4407 1.524 . S
C4408 C4409 1.397 . S
C4408 C4413 1.363 . S
C4409 H4380 0.950 . S
C4409 C4408 1.397 . S
C4409 C4410 1.334 . S
C4410 H4381 0.950 . S
C4410 C4409 1.334 . S
C4410 C4411 1.287 . S
C4411 C4410 1.287 . S
C4411 C4412 1.524 . S
C4411 H4414 0.999 . S
C4412 H4382 0.950 . S
C4412 C4411 1.524 . S
C4412 C4413 1.415 . S
C4413 H4383 0.950 . S
C4413 C4408 1.363 . S
C4413 C4412 1.415 . S
H4414 C4411 0.999 . S
H4415 C4396 0.913 . S
H4416 C4434 0.951 . S
H4417 C4436 0.951 . S
H4418 C4438 0.950 . S
H4419 C4439 0.950 . S
H4420 C4441 0.950 . S
H4421 C4444 0.950 . S
H4422 C4445 0.950 . S
H4423 C4447 0.950 . S
H4424 C4448 0.950 . S
H4425 C4449 0.951 . S
H4426 C4451 0.951 . S
H4427 C4453 0.950 . S
H4428 C4454 0.950 . S
H4429 C4456 0.950 . S
H4430 C4459 0.950 . S
H4431 C4460 0.950 . S
H4432 C4462 0.950 . S
H4433 C4463 0.950 . S
C4434 H4416 0.951 . S
C4434 C4435 1.366 . S
C4434 C4436 1.388 . S
C4435 C4434 1.366 . S
C4435 C4439 1.385 . S
C4436 H4417 0.951 . S
C4436 C4434 1.388 . S
C4436 C4437 1.366 . S
C4437 C4436 1.366 . S
C4437 C4438 1.414 . S
C4437 C4440 1.499 . S
C4438 H4418 0.950 . S
C4438 C4437 1.414 . S
C4438 C4439 1.374 . S
C4439 H4419 0.950 . S
C4439 C4435 1.385 . S
C4439 C4438 1.374 . S
C4440 C4437 1.499 . S
C4440 C4441 1.373 . S
C4440 C4442 1.389 . S
C4441 H4420 0.950 . S
C4441 C4440 1.373 . S
C4441 C4457 1.377 . S
C4442 C4440 1.389 . S
C4442 C4443 1.524 . S
C4442 C4456 1.377 . S
C4443 C4442 1.524 . S
C4443 C4444 1.397 . S
C4443 C4448 1.363 . S
C4444 H4421 0.950 . S
C4444 C4443 1.397 . S
C4444 C4445 1.334 . S
C4445 H4422 0.950 . S
C4445 C4444 1.334 . S
C4445 C4446 1.287 . S
C4446 C4445 1.287 . S
C4446 C4447 1.524 . S
C4446 H4465 0.913 . S
C4447 H4423 0.950 . S
C4447 C4446 1.524 . S
C4447 C4448 1.415 . S
C4448 H4424 0.950 . S
C4448 C4443 1.363 . S
C4448 C4447 1.415 . S
C4449 H4425 0.951 . S
C4449 C4450 1.366 . S
C4449 C4451 1.388 . S
C4450 C4449 1.366 . S
C4450 C4454 1.385 . S
C4451 H4426 0.951 . S
C4451 C4449 1.388 . S
C4451 C4452 1.366 . S
C4452 C4451 1.366 . S
C4452 C4453 1.414 . S
C4452 C4455 1.499 . S
C4453 H4427 0.950 . S
C4453 C4452 1.414 . S
C4453 C4454 1.374 . S
C4454 H4428 0.950 . S
C4454 C4450 1.385 . S
C4454 C4453 1.374 . S
C4455 C4452 1.499 . S
C4455 C4456 1.373 . S
C4455 C4457 1.389 . S
C4456 H4429 0.950 . S
C4456 C4442 1.377 . S
C4456 C4455 1.373 . S
C4457 C4441 1.377 . S
C4457 C4455 1.389 . S
C4457 C4458 1.524 . S
C4458 C4457 1.524 . S
C4458 C4459 1.397 . S
C4458 C4463 1.363 . S
C4459 H4430 0.950 . S
C4459 C4458 1.397 . S
C4459 C4460 1.334 . S
C4460 H4431 0.950 . S
C4460 C4459 1.334 . S
C4460 C4461 1.287 . S
C4461 C4460 1.287 . S
C4461 C4462 1.524 . S
C4461 H4464 0.999 . S
C4462 H4432 0.950 . S
C4462 C4461 1.524 . S
C4462 C4463 1.415 . S
C4463 H4433 0.950 . S
C4463 C4458 1.363 . S
C4463 C4462 1.415 . S
H4464 C4461 0.999 . S
H4465 C4446 0.913 . S
H4466 C4484 0.951 . S
H4467 C4486 0.951 . S
H4468 C4488 0.950 . S
H4469 C4489 0.950 . S
H4470 C4491 0.950 . S
H4471 C4494 0.950 . S
H4472 C4495 0.950 . S
H4473 C4497 0.950 . S
H4474 C4498 0.950 . S
H4475 C4499 0.951 . S
H4476 C4501 0.951 . S
H4477 C4503 0.950 . S
H4478 C4504 0.950 . S
H4479 C4506 0.950 . S
H4480 C4509 0.950 . S
H4481 C4510 0.950 . S
H4482 C4512 0.950 . S
H4483 C4513 0.950 . S
C4484 H4466 0.951 . S
C4484 C4485 1.366 . S
C4484 C4486 1.388 . S
C4485 C4484 1.366 . S
C4485 C4489 1.385 . S
C4486 H4467 0.951 . S
C4486 C4484 1.388 . S
C4486 C4487 1.366 . S
C4487 C4486 1.366 . S
C4487 C4488 1.414 . S
C4487 C4490 1.499 . S
C4488 H4468 0.950 . S
C4488 C4487 1.414 . S
C4488 C4489 1.374 . S
C4489 H4469 0.950 . S
C4489 C4485 1.385 . S
C4489 C4488 1.374 . S
C4490 C4487 1.499 . S
C4490 C4491 1.373 . S
C4490 C4492 1.389 . S
C4491 H4470 0.950 . S
C4491 C4490 1.373 . S
C4491 C4507 1.377 . S
C4492 C4490 1.389 . S
C4492 C4493 1.524 . S
C4492 C4506 1.377 . S
C4493 C4492 1.524 . S
C4493 C4494 1.397 . S
C4493 C4498 1.363 . S
C4494 H4471 0.950 . S
C4494 C4493 1.397 . S
C4494 C4495 1.334 . S
C4495 H4472 0.950 . S
C4495 C4494 1.334 . S
C4495 C4496 1.287 . S
C4496 C4495 1.287 . S
C4496 C4497 1.524 . S
C4496 H4515 0.913 . S
C4497 H4473 0.950 . S
C4497 C4496 1.524 . S
C4497 C4498 1.415 . S
C4498 H4474 0.950 . S
C4498 C4493 1.363 . S
C4498 C4497 1.415 . S
C4499 H4475 0.951 . S
C4499 C4500 1.366 . S
C4499 C4501 1.388 . S
C4500 C4499 1.366 . S
C4500 C4504 1.385 . S
C4501 H4476 0.951 . S
C4501 C4499 1.388 . S
C4501 C4502 1.366 . S
C4502 C4501 1.366 . S
C4502 C4503 1.414 . S
C4502 C4505 1.499 . S
C4503 H4477 0.950 . S
C4503 C4502 1.414 . S
C4503 C4504 1.374 . S
C4504 H4478 0.950 . S
C4504 C4500 1.385 . S
C4504 C4503 1.374 . S
C4505 C4502 1.499 . S
C4505 C4506 1.373 . S
C4505 C4507 1.389 . S
C4506 H4479 0.950 . S
C4506 C4492 1.377 . S
C4506 C4505 1.373 . S
C4507 C4491 1.377 . S
C4507 C4505 1.389 . S
C4507 C4508 1.524 . S
C4508 C4507 1.524 . S
C4508 C4509 1.397 . S
C4508 C4513 1.363 . S
C4509 H4480 0.950 . S
C4509 C4508 1.397 . S
C4509 C4510 1.334 . S
C4510 H4481 0.950 . S
C4510 C4509 1.334 . S
C4510 C4511 1.287 . S
C4511 C4510 1.287 . S
C4511 C4512 1.524 . S
C4511 H4514 0.999 . S
C4512 H4482 0.950 . S
C4512 C4511 1.524 . S
C4512 C4513 1.415 . S
C4513 H4483 0.950 . S
C4513 C4508 1.363 . S
C4513 C4512 1.415 . S
H4514 C4511 0.999 . S
H4515 C4496 0.913 . S
H4516 C4534 0.951 . S
H4517 C4536 0.951 . S
H4518 C4538 0.950 . S
H4519 C4539 0.950 . S
H4520 C4541 0.950 . S
H4521 C4544 0.950 . S
H4522 C4545 0.950 . S
H4523 C4547 0.950 . S
H4524 C4548 0.950 . S
H4525 C4549 0.951 . S
H4526 C4551 0.951 . S
H4527 C4553 0.950 . S
H4528 C4554 0.950 . S
H4529 C4556 0.950 . S
H4530 C4559 0.950 . S
H4531 C4560 0.950 . S
H4532 C4562 0.950 . S
H4533 C4563 0.950 . S
C4534 H4516 0.951 . S
C4534 C4535 1.366 . S
C4534 C4536 1.388 . S
C4535 C4534 1.366 . S
C4535 C4539 1.385 . S
C4536 H4517 0.951 . S
C4536 C4534 1.388 . S
C4536 C4537 1.366 . S
C4537 C4536 1.366 . S
C4537 C4538 1.414 . S
C4537 C4540 1.499 . S
C4538 H4518 0.950 . S
C4538 C4537 1.414 . S
C4538 C4539 1.374 . S
C4539 H4519 0.950 . S
C4539 C4535 1.385 . S
C4539 C4538 1.374 . S
C4540 C4537 1.499 . S
C4540 C4541 1.373 . S
C4540 C4542 1.389 . S
C4541 H4520 0.950 . S
C4541 C4540 1.373 . S
C4541 C4557 1.377 . S
C4542 C4540 1.389 . S
C4542 C4543 1.524 . S
C4542 C4556 1.377 . S
C4543 C4542 1.524 . S
C4543 C4544 1.397 . S
C4543 C4548 1.363 . S
C4544 H4521 0.950 . S
C4544 C4543 1.397 . S
C4544 C4545 1.334 . S
C4545 H4522 0.950 . S
C4545 C4544 1.334 . S
C4545 C4546 1.287 . S
C4546 C4545 1.287 . S
C4546 C4547 1.524 . S
C4546 H4565 0.913 . S
C4547 H4523 0.950 . S
C4547 C4546 1.524 . S
C4547 C4548 1.415 . S
C4548 H4524 0.950 . S
C4548 C4543 1.363 . S
C4548 C4547 1.415 . S
C4549 H4525 0.951 . S
C4549 C4550 1.366 . S
C4549 C4551 1.388 . S
C4550 C4549 1.366 . S
C4550 C4554 1.385 . S
C4551 H4526 0.951 . S
C4551 C4549 1.388 . S
C4551 C4552 1.366 . S
C4552 C4551 1.366 . S
C4552 C4553 1.414 . S
C4552 C4555 1.499 . S
C4553 H4527 0.950 . S
C4553 C4552 1.414 . S
C4553 C4554 1.374 . S
C4554 H4528 0.950 . S
C4554 C4550 1.385 . S
C4554 C4553 1.374 . S
C4555 C4552 1.499 . S
C4555 C4556 1.373 . S
C4555 C4557 1.389 . S
C4556 H4529 0.950 . S
C4556 C4542 1.377 . S
C4556 C4555 1.373 . S
C4557 C4541 1.377 . S
C4557 C4555 1.389 . S
C4557 C4558 1.524 . S
C4558 C4557 1.524 . S
C4558 C4559 1.397 . S
C4558 C4563 1.363 . S
C4559 H4530 0.950 . S
C4559 C4558 1.397 . S
C4559 C4560 1.334 . S
C4560 H4531 0.950 . S
C4560 C4559 1.334 . S
C4560 C4561 1.287 . S
C4561 C4560 1.287 . S
C4561 C4562 1.524 . S
C4561 H4564 0.999 . S
C4562 H4532 0.950 . S
C4562 C4561 1.524 . S
C4562 C4563 1.415 . S
C4563 H4533 0.950 . S
C4563 C4558 1.363 . S
C4563 C4562 1.415 . S
H4564 C4561 0.999 . S
H4565 C4546 0.913 . S
H4566 C4584 0.951 . S
H4567 C4586 0.951 . S
H4568 C4588 0.950 . S
H4569 C4589 0.950 . S
H4570 C4591 0.950 . S
H4571 C4594 0.950 . S
H4572 C4595 0.950 . S
H4573 C4597 0.950 . S
H4574 C4598 0.950 . S
H4575 C4599 0.951 . S
H4576 C4601 0.951 . S
H4577 C4603 0.950 . S
H4578 C4604 0.950 . S
H4579 C4606 0.950 . S
H4580 C4609 0.950 1_655 S
H4581 C4610 0.950 . S
H4582 C4612 0.950 . S
H4583 C4613 0.950 . S
C4584 H4566 0.951 . S
C4584 C4585 1.366 . S
C4584 C4586 1.388 . S
C4585 C4584 1.366 . S
C4585 C4589 1.385 1_655 S
C4586 H4567 0.951 . S
C4586 C4584 1.388 . S
C4586 C4587 1.366 . S
C4587 C4586 1.366 . S
C4587 C4588 1.414 1_655 S
C4587 C4590 1.499 . S
C4588 H4568 0.950 . S
C4588 C4587 1.414 1_455 S
C4588 C4589 1.374 . S
C4589 H4569 0.950 . S
C4589 C4585 1.385 1_455 S
C4589 C4588 1.374 . S
C4590 C4587 1.499 . S
C4590 C4591 1.373 1_655 S
C4590 C4592 1.389 . S
C4591 H4570 0.950 . S
C4591 C4590 1.373 1_455 S
C4591 C4607 1.377 . S
C4592 C4590 1.389 . S
C4592 C4593 1.524 . S
C4592 C4606 1.377 . S
C4593 C4592 1.524 . S
C4593 C4594 1.397 . S
C4593 C4598 1.363 . S
C4594 H4571 0.950 . S
C4594 C4593 1.397 . S
C4594 C4595 1.334 . S
C4595 H4572 0.950 . S
C4595 C4594 1.334 . S
C4595 C4596 1.287 . S
C4596 C4595 1.287 . S
C4596 C4597 1.524 . S
C4596 H4615 0.913 . S
C4597 H4573 0.950 . S
C4597 C4596 1.524 . S
C4597 C4598 1.415 . S
C4598 H4574 0.950 . S
C4598 C4593 1.363 . S
C4598 C4597 1.415 . S
C4599 H4575 0.951 . S
C4599 C4600 1.366 1_455 S
C4599 C4601 1.388 . S
C4600 C4599 1.366 1_655 S
C4600 C4604 1.385 . S
C4601 H4576 0.951 . S
C4601 C4599 1.388 . S
C4601 C4602 1.366 1_455 S
C4602 C4601 1.366 1_655 S
C4602 C4603 1.414 . S
C4602 C4605 1.499 . S
C4603 H4577 0.950 . S
C4603 C4602 1.414 . S
C4603 C4604 1.374 . S
C4604 H4578 0.950 . S
C4604 C4600 1.385 . S
C4604 C4603 1.374 . S
C4605 C4602 1.499 . S
C4605 C4606 1.373 . S
C4605 C4607 1.389 1_655 S
C4606 H4579 0.950 . S
C4606 C4592 1.377 . S
C4606 C4605 1.373 . S
C4607 C4591 1.377 . S
C4607 C4605 1.389 1_455 S
C4607 C4608 1.524 . S
C4608 C4607 1.524 . S
C4608 C4609 1.397 . S
C4608 C4613 1.363 . S
C4609 H4580 0.950 1_455 S
C4609 C4608 1.397 . S
C4609 C4610 1.334 . S
C4610 H4581 0.950 . S
C4610 C4609 1.334 . S
C4610 C4611 1.287 . S
C4611 C4610 1.287 . S
C4611 C4612 1.524 . S
C4611 H4614 0.999 . S
C4612 H4582 0.950 . S
C4612 C4611 1.524 . S
C4612 C4613 1.415 . S
C4613 H4583 0.950 . S
C4613 C4608 1.363 . S
C4613 C4612 1.415 . S
H4614 C4611 0.999 . S
H4615 C4596 0.913 . S
H4616 C4634 0.951 . S
H4617 C4636 0.951 . S
H4618 C4638 0.950 . S
H4619 C4639 0.950 . S
H4620 C4641 0.950 . S
H4621 C4644 0.950 . S
H4622 C4645 0.950 . S
H4623 C4647 0.950 . S
H4624 C4648 0.950 . S
H4625 C4649 0.951 . S
H4626 C4651 0.951 . S
H4627 C4653 0.950 . S
H4628 C4654 0.950 . S
H4629 C4656 0.950 . S
H4630 C4659 0.950 . S
H4631 C4660 0.950 . S
H4632 C4662 0.950 . S
H4633 C4663 0.950 . S
C4634 H4616 0.951 . S
C4634 C4635 1.366 . S
C4634 C4636 1.388 . S
C4635 C4634 1.366 . S
C4635 C4639 1.385 . S
C4636 H4617 0.951 . S
C4636 C4634 1.388 . S
C4636 C4637 1.366 . S
C4637 C4636 1.366 . S
C4637 C4638 1.414 . S
C4637 C4640 1.499 . S
C4638 H4618 0.950 . S
C4638 C4637 1.414 . S
C4638 C4639 1.374 . S
C4639 H4619 0.950 . S
C4639 C4635 1.385 . S
C4639 C4638 1.374 . S
C4640 C4637 1.499 . S
C4640 C4641 1.373 . S
C4640 C4642 1.389 . S
C4641 H4620 0.950 . S
C4641 C4640 1.373 . S
C4641 C4657 1.377 . S
C4642 C4640 1.389 . S
C4642 C4643 1.524 . S
C4642 C4656 1.377 . S
C4643 C4642 1.524 . S
C4643 C4644 1.397 . S
C4643 C4648 1.363 . S
C4644 H4621 0.950 . S
C4644 C4643 1.397 . S
C4644 C4645 1.334 . S
C4645 H4622 0.950 . S
C4645 C4644 1.334 . S
C4645 C4646 1.287 . S
C4646 C4645 1.287 . S
C4646 C4647 1.524 . S
C4646 H4665 0.913 . S
C4647 H4623 0.950 . S
C4647 C4646 1.524 . S
C4647 C4648 1.415 . S
C4648 H4624 0.950 . S
C4648 C4643 1.363 . S
C4648 C4647 1.415 . S
C4649 H4625 0.951 . S
C4649 C4650 1.366 . S
C4649 C4651 1.388 . S
C4650 C4649 1.366 . S
C4650 C4654 1.385 . S
C4651 H4626 0.951 . S
C4651 C4649 1.388 . S
C4651 C4652 1.366 . S
C4652 C4651 1.366 . S
C4652 C4653 1.414 . S
C4652 C4655 1.499 . S
C4653 H4627 0.950 . S
C4653 C4652 1.414 . S
C4653 C4654 1.374 . S
C4654 H4628 0.950 . S
C4654 C4650 1.385 . S
C4654 C4653 1.374 . S
C4655 C4652 1.499 . S
C4655 C4656 1.373 . S
C4655 C4657 1.389 . S
C4656 H4629 0.950 . S
C4656 C4642 1.377 . S
C4656 C4655 1.373 . S
C4657 C4641 1.377 . S
C4657 C4655 1.389 . S
C4657 C4658 1.524 . S
C4658 C4657 1.524 . S
C4658 C4659 1.397 . S
C4658 C4663 1.363 . S
C4659 H4630 0.950 . S
C4659 C4658 1.397 . S
C4659 C4660 1.334 . S
C4660 H4631 0.950 . S
C4660 C4659 1.334 . S
C4660 C4661 1.287 . S
C4661 C4660 1.287 . S
C4661 C4662 1.524 . S
C4661 H4664 0.999 . S
C4662 H4632 0.950 . S
C4662 C4661 1.524 . S
C4662 C4663 1.415 . S
C4663 H4633 0.950 . S
C4663 C4658 1.363 . S
C4663 C4662 1.415 . S
H4664 C4661 0.999 . S
H4665 C4646 0.913 . S
H4666 C4684 0.951 . S
H4667 C4686 0.978 . S
H4668 C4688 0.950 . S
H4669 C4689 0.950 . S
H4670 C4691 0.950 . S
H4671 C4694 0.950 . S
H4672 C4695 0.950 . S
H4673 C4697 0.950 . S
H4674 C4698 0.950 . S
H4675 C4699 0.951 . S
H4676 C4701 0.951 . S
H4677 C4703 0.950 1_565 S
H4678 C4704 0.975 . S
H4679 C4706 0.950 . S
H4680 C4709 0.950 . S
H4681 C4710 0.950 . S
H4682 C4712 0.950 . S
H4683 C4713 0.950 . S
C4684 H4666 0.951 . S
C4684 C4685 1.366 . S
C4684 C4686 1.388 . S
C4685 C4684 1.366 . S
C4685 C4689 1.385 . S
C4686 H4667 0.978 . S
C4686 C4684 1.388 . S
C4686 C4687 1.366 . S
C4687 C4686 1.366 . S
C4687 C4688 1.414 . S
C4687 C4690 1.499 . S
C4688 H4668 0.950 . S
C4688 C4687 1.414 . S
C4688 C4689 1.374 . S
C4689 H4669 0.950 . S
C4689 C4685 1.385 . S
C4689 C4688 1.374 . S
C4690 C4687 1.499 . S
C4690 C4691 1.373 . S
C4690 C4692 1.389 1_545 S
C4691 H4670 0.950 . S
C4691 C4690 1.373 . S
C4691 C4707 1.377 . S
C4692 C4690 1.389 1_565 S
C4692 C4693 1.524 . S
C4692 C4706 1.377 . S
C4693 C4692 1.524 . S
C4693 C4694 1.397 . S
C4693 C4698 1.363 . S
C4694 H4671 0.950 . S
C4694 C4693 1.397 . S
C4694 C4695 1.334 . S
C4695 H4672 0.950 . S
C4695 C4694 1.334 . S
C4695 C4696 1.287 . S
C4696 C4695 1.287 . S
C4696 C4697 1.524 . S
C4696 H4715 0.913 . S
C4697 H4673 0.950 . S
C4697 C4696 1.524 . S
C4697 C4698 1.415 . S
C4698 H4674 0.950 . S
C4698 C4693 1.363 . S
C4698 C4697 1.415 . S
C4699 H4675 0.951 . S
C4699 C4700 1.366 . S
C4699 C4701 1.388 . S
C4700 C4699 1.366 . S
C4700 C4704 1.333 1_545 S
C4701 H4676 0.951 . S
C4701 C4699 1.388 . S
C4701 C4702 1.366 . S
C4702 C4701 1.366 . S
C4702 C4703 1.414 . S
C4702 C4705 1.499 . S
C4703 H4677 0.950 1_545 S
C4703 C4702 1.414 . S
C4703 C4704 1.407 1_545 S
C4704 H4678 0.975 . S
C4704 C4700 1.333 1_565 S
C4704 C4703 1.407 1_565 S
C4705 C4702 1.499 . S
C4705 C4706 1.373 1_545 S
C4705 C4707 1.389 . S
C4706 H4679 0.950 . S
C4706 C4692 1.377 . S
C4706 C4705 1.373 1_565 S
C4707 C4691 1.377 . S
C4707 C4705 1.389 . S
C4707 C4708 1.524 . S
C4708 C4707 1.524 . S
C4708 C4709 1.397 . S
C4708 C4713 1.363 . S
C4709 H4680 0.950 . S
C4709 C4708 1.397 . S
C4709 C4710 1.334 . S
C4710 H4681 0.950 . S
C4710 C4709 1.334 . S
C4710 C4711 1.287 . S
C4711 C4710 1.287 . S
C4711 C4712 1.524 . S
C4711 H4714 0.999 . S
C4712 H4682 0.950 . S
C4712 C4711 1.524 . S
C4712 C4713 1.415 . S
C4713 H4683 0.950 . S
C4713 C4708 1.363 . S
C4713 C4712 1.415 . S
H4714 C4711 0.999 . S
H4715 C4696 0.913 . S
C1135 C8 1.481 . S
C1150 C729 1.501 . S
C1185 C22 1.552 . S
C1200 C777 1.567 . S
C1250 C825 1.513 . S
C1235 C37 1.493 1_545 S
C1285 C36 1.485 . S
C1300 C849 1.508 . S
C1335 C9 1.489 1_455 S
C1350 C921 1.514 . S
C1385 C23 1.553 . S
C1400 C969 1.567 . S
C1435 C50 1.434 1_455 S
C1450 C897 1.499 . S
C1500 C945 1.571 . S
C1485 C64 1.554 . S
C1550 C873 1.531 . S
C1535 C79 1.506 1_565 S
C1585 C78 1.431 1_545 S
C1600 C801 1.498 . S
C1650 C705 1.525 . S
C1635 C51 1.511 1_655 S
C1685 C65 1.554 . S
C1700 C753 1.571 . S
C1735 C92 1.596 . S
C1750 C1017 1.610 . S
C1785 C106 1.605 . S
C1800 C1065 1.616 . S
C1850 C1089 1.585 . S
C1835 C121 1.578 . S
C1885 C120 1.539 . S
C1900 C273 1.548 . S
C1935 C93 1.563 . S
C1950 C345 1.578 . S
C1985 C107 1.570 . S
C2000 C393 1.583 . S
C2035 C134 1.534 . S
C2050 C321 1.551 . S
C2085 C148 1.574 . S
C2100 C369 1.589 . S
C2150 C297 1.558 . S
C2135 C163 1.563 . S
C2200 C1113 1.592 . S
C2185 C162 1.597 . S
C2250 C993 1.588 . S
C2235 C135 1.575 . S
C2300 C1041 1.621 . S
C2285 C149 1.608 . S
C2335 C176 1.535 . S
C2350 C441 1.551 . S
C2385 C190 1.568 . S
C2400 C489 1.582 . S
C2435 C205 1.568 . S
C2450 C513 1.577 . S
C2485 C204 1.598 . S
C2500 C561 1.607 . S
C2550 C633 1.587 . S
C2535 C177 1.575 . S
C2600 C681 1.616 . S
C2585 C191 1.605 . S
C2650 C609 1.616 . S
C2635 C218 1.600 . S
C2700 C657 1.621 . S
C2685 C232 1.608 . S
C2735 C247 1.571 . S
C2750 C585 1.563 . S
C2800 C537 1.528 . S
C2785 C246 1.532 . S
C2835 C219 1.567 . S
C2850 C417 1.583 . S
C2900 C465 1.588 . S
C2885 C233 1.573 . S
C2950 C282 1.548 . S
C2935 C6 1.522 . S
C2985 C20 1.479 . S
C3000 C336 1.498 . S
C3050 C384 1.542 . S
C3035 C35 1.527 . S
C3100 C432 1.543 . S
C3085 C34 1.526 . S
C3150 C480 1.540 . S
C3135 C7 1.525 . S
C3200 C522 1.506 . S
C3185 C21 1.477 . S
C3235 C48 1.529 . S
C3250 C528 1.561 . S
C3285 C62 1.481 . S
C3300 C426 1.492 . S
C3335 C77 1.521 . S
C3350 C474 1.522 . S
C3385 C76 1.526 . S
C3400 C330 1.544 . S
C3450 C378 1.530 . S
C3435 C49 1.521 . S
C3485 C63 1.482 . S
C3500 C288 1.507 . S
C3550 C570 1.539 . S
C3535 C90 1.509 . S
C3585 C104 1.551 . S
C3600 C624 1.576 . S
C3635 C119 1.557 . S
C3650 C672 1.581 . S
C3700 C720 1.499 . S
C3685 C118 1.456 . S
C3735 C91 1.518 . S
C3750 C768 1.540 . S
C3785 C105 1.459 . S
C3800 C816 1.502 . S
C3835 C132 1.456 . S
C3850 C810 1.487 . S
C3885 C146 1.462 . S
C3900 C714 1.501 . S
C3950 C762 1.532 . S
C3935 C161 1.517 . S
C3985 C160 1.511 . S
C4000 C618 1.526 . S
C4035 C133 1.553 . S
C4050 C666 1.570 . S
C4100 C576 1.580 . S
C4085 C147 1.550 . S
C4150 C858 1.531 . S
C4135 C174 1.452 . S
C4185 C188 1.459 . S
C4200 C912 1.501 . S
C4235 C203 1.520 . S
C4250 C960 1.542 . S
C4300 C1008 1.533 . S
C4285 C202 1.512 . S
C4350 C1056 1.578 . S
C4335 C175 1.555 . S
C4385 C189 1.549 . S
C4400 C1098 1.584 . S
C4435 C216 1.515 . S
C4450 C1104 1.542 . S
C4485 C230 1.549 . S
C4500 C1002 1.568 . S
C4550 C1050 1.568 . S
C4535 C245 1.551 . S
C4600 C906 1.489 . S
C4585 C244 1.447 . S
C4650 C954 1.535 . S
C4635 C217 1.521 . S
C4685 C231 1.463 . S
C4700 C864 1.506 . S
