# Generated by pormake.
# Topology pto, (3,4)-cn, num edge types: 1
# Building blocks:
#     Node 0, Type 0, BuildingBlock: OLANEW_clean_sbu_2, # of connection points: 3
#     Node 1, Type 0, BuildingBlock: OLANEW_clean_sbu_2, # of connection points: 3
#     Node 2, Type 0, BuildingBlock: OLANEW_clean_sbu_2, # of connection points: 3
#     Node 3, Type 0, BuildingBlock: OLANEW_clean_sbu_2, # of connection points: 3
#     Node 4, Type 0, BuildingBlock: OLANEW_clean_sbu_2, # of connection points: 3
#     Node 5, Type 0, BuildingBlock: OLANEW_clean_sbu_2, # of connection points: 3
#     Node 6, Type 0, BuildingBlock: OLANEW_clean_sbu_2, # of connection points: 3
#     Node 7, Type 0, BuildingBlock: OLANEW_clean_sbu_2, # of connection points: 3
#     Node 8, Type 1, BuildingBlock: MIFKUJ_clean_linker_1, # of connection points: 4
#     Node 9, Type 1, BuildingBlock: MIFKUJ_clean_linker_1, # of connection points: 4
#     Node 10, Type 1, BuildingBlock: MIFKUJ_clean_linker_1, # of connection points: 4
#     Node 11, Type 1, BuildingBlock: MIFKUJ_clean_linker_1, # of connection points: 4
#     Node 12, Type 1, BuildingBlock: MIFKUJ_clean_linker_1, # of connection points: 4
#     Node 13, Type 1, BuildingBlock: MIFKUJ_clean_linker_1, # of connection points: 4
#     Edge 14, Type (0, 1), BuildingBlock: XIVTED_clean_linker_0, # of connection points: 2
#     Edge 15, Type (0, 1), BuildingBlock: XIVTED_clean_linker_0, # of connection points: 2
#     Edge 16, Type (0, 1), BuildingBlock: XIVTED_clean_linker_0, # of connection points: 2
#     Edge 17, Type (0, 1), BuildingBlock: XIVTED_clean_linker_0, # of connection points: 2
#     Edge 18, Type (0, 1), BuildingBlock: XIVTED_clean_linker_0, # of connection points: 2
#     Edge 19, Type (0, 1), BuildingBlock: XIVTED_clean_linker_0, # of connection points: 2
#     Edge 20, Type (0, 1), BuildingBlock: XIVTED_clean_linker_0, # of connection points: 2
#     Edge 21, Type (0, 1), BuildingBlock: XIVTED_clean_linker_0, # of connection points: 2
#     Edge 22, Type (0, 1), BuildingBlock: XIVTED_clean_linker_0, # of connection points: 2
#     Edge 23, Type (0, 1), BuildingBlock: XIVTED_clean_linker_0, # of connection points: 2
#     Edge 24, Type (0, 1), BuildingBlock: XIVTED_clean_linker_0, # of connection points: 2
#     Edge 25, Type (0, 1), BuildingBlock: XIVTED_clean_linker_0, # of connection points: 2
#     Edge 26, Type (0, 1), BuildingBlock: XIVTED_clean_linker_0, # of connection points: 2
#     Edge 27, Type (0, 1), BuildingBlock: XIVTED_clean_linker_0, # of connection points: 2
#     Edge 28, Type (0, 1), BuildingBlock: XIVTED_clean_linker_0, # of connection points: 2
#     Edge 29, Type (0, 1), BuildingBlock: XIVTED_clean_linker_0, # of connection points: 2
#     Edge 30, Type (0, 1), BuildingBlock: XIVTED_clean_linker_0, # of connection points: 2
#     Edge 31, Type (0, 1), BuildingBlock: XIVTED_clean_linker_0, # of connection points: 2
#     Edge 32, Type (0, 1), BuildingBlock: XIVTED_clean_linker_0, # of connection points: 2
#     Edge 33, Type (0, 1), BuildingBlock: XIVTED_clean_linker_0, # of connection points: 2
#     Edge 34, Type (0, 1), BuildingBlock: XIVTED_clean_linker_0, # of connection points: 2
#     Edge 35, Type (0, 1), BuildingBlock: XIVTED_clean_linker_0, # of connection points: 2
#     Edge 36, Type (0, 1), BuildingBlock: XIVTED_clean_linker_0, # of connection points: 2
#     Edge 37, Type (0, 1), BuildingBlock: XIVTED_clean_linker_0, # of connection points: 2
# Relax obj value: 0.008
# Max RMSD: 0.124
# Mean RMSD: 0.053
data_MOF--net-pto--node1-OLANEW_clean_sbu_2--node2-MIFKUJ_clean_linker_1--edge1-XIVTED_clean_linker_0
_symmetry_space_group_name_H-M    P1
_symmetry_Int_Tables_number       1
_symmetry_cell_setting            triclinic
loop_
_symmetry_equiv_pos_as_xyz
'x, y, z'
_cell_length_a     40.567907
_cell_length_b     62.591935
_cell_length_c     52.105865
_cell_angle_alpha  92.461005
_cell_angle_beta   89.598032
_cell_angle_gamma 105.04118
loop_
_atom_site_label
_atom_site_type_symbol
_atom_site_fract_x
_atom_site_fract_y
_atom_site_fract_z
_atom_type_partial_charge
O0 O 0.32229 0.33693 0.27138 0.0
Cd1 Cd 0.29369 0.34175 0.31183 0.0
O2 O 0.36036 0.3691 0.27508 0.0
Cd3 Cd 0.33199 0.38012 0.30646 0.0
O4 O 0.29152 0.39487 0.32011 0.0
C5 C 0.27179 0.39773 0.30249 0.0
O6 O 0.27706 0.39141 0.27877 0.0
C7 C 0.34879 0.35055 0.26311 0.0
C8 C 0.2959 0.30733 0.34348 0.0
O9 O 0.27063 0.3058 0.32827 0.0
O10 O 0.31987 0.32531 0.34405 0.0
O11 O 0.34235 0.86016 0.73134 0.0
Cd12 Cd 0.30687 0.85825 0.69306 0.0
O13 O 0.31215 0.82676 0.74042 0.0
Cd14 Cd 0.27683 0.81988 0.70793 0.0
O15 O 0.23342 0.79524 0.69098 0.0
C16 C 0.21089 0.78639 0.70711 0.0
O17 O 0.21462 0.79374 0.7312 0.0
C18 C 0.33626 0.84383 0.74595 0.0
C19 C 0.31663 0.89782 0.66788 0.0
O20 O 0.2954 0.89327 0.68644 0.0
O21 O 0.33373 0.88384 0.66155 0.0
O22 O 0.79927 0.79146 0.31655 0.0
Cd23 Cd 0.7921 0.76138 0.2838 0.0
O24 O 0.74505 0.78112 0.32721 0.0
Cd25 Cd 0.7309 0.75818 0.29408 0.0
O26 O 0.71148 0.75604 0.25489 0.0
C27 C 0.72423 0.77288 0.24184 0.0
O28 O 0.74874 0.7889 0.25217 0.0
C29 C 0.77481 0.79382 0.33088 0.0
C30 C 0.82671 0.72999 0.29596 0.0
O31 O 0.84031 0.7459 0.28143 0.0
O32 O 0.79683 0.72899 0.30485 0.0
O33 O 0.74128 0.29368 0.64634 0.0
Cd34 Cd 0.69479 0.26011 0.64936 0.0
O35 O 0.76149 0.29094 0.68477 0.0
Cd36 Cd 0.71778 0.26474 0.69631 0.0
O37 O 0.6771 0.25605 0.72461 0.0
C38 C 0.65511 0.2673 0.72536 0.0
O39 O 0.65639 0.28205 0.70792 0.0
C40 C 0.76383 0.30071 0.66368 0.0
C41 C 0.71364 0.22383 0.62685 0.0
O42 O 0.70063 0.23627 0.6134 0.0
O43 O 0.71749 0.22843 0.65104 0.0
O44 O 0.74561 0.78378 0.63407 0.0
Cd45 Cd 0.72403 0.75046 0.65855 0.0
O46 O 0.78491 0.8019 0.66159 0.0
Cd47 Cd 0.76592 0.77854 0.69147 0.0
O48 O 0.73694 0.77267 0.72706 0.0
C49 C 0.71086 0.78035 0.72821 0.0
O50 O 0.70267 0.78973 0.70796 0.0
C51 C 0.76998 0.8006 0.64 0.0
C52 C 0.7659 0.72135 0.65705 0.0
O53 O 0.74692 0.72246 0.63787 0.0
O54 O 0.76549 0.73414 0.67684 0.0
O55 O 0.80401 0.28524 0.30583 0.0
Cd56 Cd 0.76998 0.24895 0.28973 0.0
O57 O 0.76094 0.30002 0.30073 0.0
Cd58 Cd 0.72661 0.27197 0.2801 0.0
O59 O 0.68892 0.26276 0.24911 0.0
C60 C 0.69719 0.25718 0.22672 0.0
O61 O 0.72828 0.25512 0.22281 0.0
C62 C 0.79135 0.3018 0.3082 0.0
C63 C 0.77639 0.2146 0.32025 0.0
O64 O 0.79576 0.22011 0.30078 0.0
O65 O 0.75409 0.22539 0.32534 0.0
O66 O 0.27316 0.35066 0.74782 0.0
Cd67 Cd 0.24103 0.34599 0.70738 0.0
O68 O 0.32314 0.36642 0.73129 0.0
Cd69 Cd 0.30311 0.35834 0.69236 0.0
O70 O 0.29403 0.33233 0.662 0.0
C71 C 0.28252 0.31278 0.66962 0.0
O72 O 0.27536 0.31008 0.69409 0.0
C73 C 0.30489 0.35974 0.75076 0.0
C74 C 0.20628 0.37849 0.70063 0.0
O75 O 0.19362 0.36175 0.71423 0.0
O76 O 0.23559 0.38004 0.6904 0.0
O77 O 0.38243 0.85686 0.27676 0.0
Cd78 Cd 0.35749 0.8519 0.31972 0.0
O79 O 0.33771 0.83299 0.2594 0.0
Cd80 Cd 0.30893 0.82293 0.29435 0.0
O81 O 0.27128 0.7947 0.30943 0.0
C82 C 0.25916 0.77983 0.29214 0.0
O83 O 0.26976 0.7832 0.2684 0.0
C84 C 0.36688 0.84647 0.25703 0.0
C85 C 0.35429 0.89141 0.34534 0.0
O86 O 0.38083 0.88403 0.34705 0.0
O87 O 0.32942 0.88022 0.33129 0.0
H88 H 0.94873 0.50274 0.30964 0.0
H89 H 0.91429 0.46447 0.30845 0.0
H90 H 0.96703 0.45214 0.37572 0.0
H91 H 0.00122 0.49074 0.37716 0.0
H92 H 0.95342 0.53547 0.34145 0.0
H93 H 0.0297 0.49567 0.30885 0.0
H94 H 0.06531 0.46983 0.30437 0.0
H95 H 0.12257 0.50046 0.37196 0.0
H96 H 0.08546 0.52545 0.37716 0.0
H97 H 0.08345 0.59364 0.37574 0.0
H98 H 0.11991 0.63079 0.36888 0.0
H99 H 0.06883 0.6315 0.2965 0.0
H100 H 0.03374 0.59416 0.30295 0.0
H101 H 0.07988 0.55609 0.34576 0.0
H102 H -0.00273 0.59749 0.37412 0.0
H103 H 0.9677 0.62639 0.36716 0.0
H104 H 0.92825 0.59362 0.29494 0.0
H105 H 0.95756 0.56474 0.30206 0.0
C106 C 0.97765 0.49968 0.34346 0.0
C107 C 0.95276 0.4919 0.3243 0.0
C108 C 0.93307 0.47001 0.32363 0.0
C109 C 0.93789 0.45534 0.34206 0.0
C110 C 0.96298 0.46303 0.36115 0.0
C111 C 0.98251 0.48507 0.36197 0.0
C112 C -0.00177 0.52312 0.34392 0.0
C113 C 0.98109 0.53988 0.34238 0.0
C114 C 0.03438 0.52905 0.34523 0.0
C115 C 0.05455 0.51234 0.34357 0.0
C116 C 0.04934 0.49646 0.32311 0.0
C117 C 0.07011 0.48189 0.32035 0.0
C118 C 0.09704 0.48313 0.3377 0.0
C119 C 0.10184 0.4988 0.35843 0.0
C120 C 0.08081 0.51325 0.36132 0.0
C121 C 0.05558 0.59123 0.34003 0.0
C122 C 0.08008 0.60189 0.35847 0.0
C123 C 0.1007 0.62318 0.35461 0.0
C124 C 0.09733 0.63413 0.33212 0.0
C125 C 0.07241 0.62347 0.31388 0.0
C126 C 0.05198 0.6022 0.3177 0.0
C127 C 0.03504 0.56818 0.34333 0.0
C128 C 0.05219 0.55155 0.34555 0.0
C129 C -0.00099 0.56225 0.34179 0.0
C130 C 0.97961 0.57902 0.33858 0.0
C131 C 0.98202 0.59648 0.3569 0.0
C132 C 0.96509 0.6129 0.35295 0.0
C133 C 0.94587 0.61225 0.33046 0.0
C134 C 0.94316 0.5946 0.31233 0.0
C135 C 0.95964 0.57804 0.31646 0.0
H136 H 0.05042 0.59193 0.62702 0.0
H137 H 0.08225 0.63073 0.63311 0.0
H138 H 0.01812 0.63791 0.69788 0.0
H139 H 0.98838 0.5989 0.69281 0.0
H140 H 0.04558 0.55889 0.66019 0.0
H141 H 0.95565 0.58649 0.61477 0.0
H142 H 0.92077 0.61285 0.61335 0.0
H143 H 0.88935 0.59868 0.69183 0.0
H144 H 0.92189 0.57106 0.69192 0.0
H145 H 0.91659 0.50162 0.68684 0.0
H146 H 0.88724 0.46219 0.68594 0.0
H147 H 0.94602 0.45114 0.61956 0.0
H148 H 0.97531 0.49076 0.62048 0.0
H149 H 0.91956 0.53285 0.65188 0.0
H150 H -0.00646 0.49848 0.69323 0.0
H151 H 0.02809 0.47282 0.70001 0.0
H152 H 0.09726 0.50336 0.64057 0.0
H153 H 0.06068 0.52773 0.63239 0.0
C154 C 0.01659 0.59257 0.65916 0.0
C155 C 0.04324 0.60193 0.64248 0.0
C156 C 0.06119 0.62419 0.64585 0.0
C157 C 0.05278 0.63754 0.66598 0.0
C158 C 0.02566 0.62813 0.68237 0.0
C159 C 0.00812 0.60585 0.67921 0.0
C160 C -0.00121 0.56868 0.65651 0.0
C161 C 0.01812 0.5531 0.65773 0.0
C162 C 0.96287 0.56123 0.65451 0.0
C163 C 0.94122 0.57688 0.65342 0.0
C164 C 0.9408 0.58897 0.63147 0.0
C165 C 0.9211 0.60427 0.63089 0.0
C166 C 0.90208 0.60823 0.65254 0.0
C167 C 0.90275 0.59592 0.67449 0.0
C168 C 0.92163 0.58017 0.67473 0.0
C169 C 0.9482 0.49907 0.65381 0.0
C170 C 0.92305 0.49073 0.67202 0.0
C171 C 0.90654 0.46819 0.67162 0.0
C172 C 0.91455 0.45361 0.65278 0.0
C173 C 0.9393 0.46204 0.63423 0.0
C174 C 0.9561 0.4846 0.63481 0.0
C175 C 0.96641 0.5229 0.65501 0.0
C176 C 0.94712 0.53848 0.6537 0.0
C177 C 0.0024 0.53027 0.65753 0.0
C178 C 0.02391 0.51474 0.66183 0.0
C179 C 0.01566 0.49931 0.68118 0.0
C180 C 0.03596 0.48487 0.6854 0.0
C181 C 0.06572 0.48591 0.67091 0.0
C182 C 0.07427 0.50167 0.65182 0.0
C183 C 0.05353 0.51585 0.64728 0.0
H184 H 0.27183 0.06338 0.54934 0.0
H185 H 0.27252 0.03203 0.57547 0.0
H186 H 0.3749 0.03465 0.54948 0.0
H187 H 0.37371 0.06578 0.52303 0.0
H188 H 0.3118 0.10512 0.55155 0.0
H189 H 0.28368 0.04487 0.48923 0.0
H190 H 0.28968 0.01193 0.46469 0.0
H191 H 0.38682 0.04921 0.43586 0.0
H192 H 0.38099 0.08201 0.46096 0.0
H193 H 0.37037 0.14815 0.45972 0.0
H194 H 0.36655 0.17965 0.43463 0.0
H195 H 0.26359 0.17287 0.46179 0.0
H196 H 0.26731 0.14114 0.48624 0.0
H197 H 0.33217 0.10463 0.45754 0.0
H198 H 0.35748 0.16578 0.51965 0.0
H199 H 0.34816 0.19825 0.54332 0.0
H200 H 0.25206 0.15846 0.57111 0.0
H201 H 0.26176 0.12602 0.54758 0.0
C202 C 0.32261 0.06681 0.5341 0.0
C203 C 0.29442 0.05719 0.5493 0.0
C204 C 0.29494 0.03933 0.56433 0.0
C205 C 0.32381 0.03082 0.56465 0.0
C206 C 0.35206 0.04055 0.54941 0.0
C207 C 0.35147 0.05838 0.53431 0.0
C208 C 0.32201 0.08599 0.5185 0.0
C209 C 0.31588 0.1049 0.53095 0.0
C210 C 0.32808 0.08589 0.49171 0.0
C211 C 0.33206 0.06583 0.47713 0.0
C212 C 0.30644 0.04588 0.47784 0.0
C213 C 0.30975 0.02713 0.46361 0.0
C214 C 0.33871 0.02796 0.4483 0.0
C215 C 0.36439 0.04796 0.44768 0.0
C216 C 0.36099 0.06675 0.46187 0.0
C217 C 0.31925 0.14244 0.475 0.0
C218 C 0.34695 0.15341 0.46013 0.0
C219 C 0.34482 0.1715 0.44599 0.0
C220 C 0.3148 0.1788 0.4463 0.0
C221 C 0.28695 0.16755 0.46095 0.0
C222 C 0.28913 0.14953 0.47511 0.0
C223 C 0.32176 0.12365 0.49059 0.0
C224 C 0.32831 0.10485 0.47816 0.0
C225 C 0.31582 0.12376 0.51738 0.0
C226 C 0.31022 0.1435 0.53174 0.0
C227 C 0.3343 0.1641 0.53071 0.0
C228 C 0.32886 0.18267 0.54417 0.0
C229 C 0.29931 0.18098 0.55907 0.0
C230 C 0.27528 0.16029 0.56008 0.0
C231 C 0.28075 0.14173 0.54662 0.0
H232 H 0.51662 0.86685 0.95447 0.0
H233 H 0.48346 0.87085 0.91662 0.0
H234 H 0.46938 0.8014 0.89617 0.0
H235 H 0.50142 0.7974 0.93428 0.0
H236 H 0.49721 0.84126 -0.0043 0.0
H237 H 0.58097 0.84738 0.92932 0.0
H238 H 0.60393 0.83856 0.88788 0.0
H239 H 0.59376 0.77155 0.9105 0.0
H240 H 0.5706 0.78043 0.95189 0.0
H241 H 0.57175 0.78007 0.02702 0.0
H242 H 0.60069 0.77125 0.06459 0.0
H243 H 0.61758 0.83887 0.09399 0.0
H244 H 0.58952 0.84773 0.056 0.0
H245 H 0.59581 0.80813 -0.00984 0.0
H246 H 0.50444 0.79838 0.05081 0.0
H247 H 0.47609 0.8036 0.09129 0.0
H248 H 0.49754 0.87375 0.07949 0.0
H249 H 0.52613 0.86842 0.03891 0.0
C250 C 0.51175 0.83188 0.94706 0.0
C251 C 0.50633 0.85252 0.9418 0.0
C252 C 0.48763 0.85481 0.92008 0.0
C253 C 0.47376 0.83644 0.9034 0.0
C254 C 0.47935 0.81583 0.90877 0.0
C255 C 0.49797 0.81355 0.93042 0.0
C256 C 0.53109 0.8292 0.97024 0.0
C257 C 0.51924 0.83447 -0.00553 0.0
C258 C 0.5592 0.81971 0.96866 0.0
C259 C 0.57373 0.81452 0.94364 0.0
C260 C 0.58341 0.83074 0.92529 0.0
C261 C 0.59649 0.82567 0.90159 0.0
C262 C 0.60051 0.80432 0.89588 0.0
C263 C 0.59126 0.78819 0.91442 0.0
C264 C 0.578 0.79324 0.93806 0.0
C265 C 0.57832 0.81453 0.03877 0.0
C266 C 0.58174 0.793 0.04156 0.0
C267 C 0.59804 0.78794 0.06314 0.0
C268 C 0.61143 0.80436 0.08229 0.0
C269 C 0.60788 0.82591 0.07946 0.0
C270 C 0.59154 0.83095 0.05788 0.0
C271 C 0.56159 0.81986 0.01554 0.0
C272 C 0.57405 0.81518 -0.00866 0.0
C273 C 0.53381 0.82961 0.01712 0.0
C274 C 0.51756 0.83304 0.04198 0.0
C275 C 0.50328 0.81491 0.05704 0.0
C276 C 0.4869 0.81789 0.08005 0.0
C277 C 0.48454 0.83908 0.08848 0.0
C278 C 0.49922 0.85728 0.07353 0.0
C279 C 0.51534 0.85424 0.05034 0.0
H280 H 0.75393 0.97682 0.53738 0.0
H281 H 0.75267 0.94312 0.56 0.0
H282 H 0.85177 0.94307 0.52919 0.0
H283 H 0.85289 0.97681 0.50657 0.0
H284 H 0.79686 0.01881 0.53741 0.0
H285 H 0.75633 0.95748 0.48136 0.0
H286 H 0.75472 0.92206 0.45971 0.0
H287 H 0.84612 0.95267 0.41795 0.0
H288 H 0.84876 0.98794 0.44116 0.0
H289 H 0.84757 0.0578 0.4428 0.0
H290 H 0.84379 0.08874 0.41691 0.0
H291 H 0.7415 0.08331 0.44503 0.0
H292 H 0.74593 0.05275 0.47131 0.0
H293 H 0.80512 0.01398 0.44234 0.0
H294 H 0.83501 0.07923 0.50015 0.0
H295 H 0.82335 0.11206 0.52161 0.0
H296 H 0.73561 0.07053 0.55849 0.0
H297 H 0.74674 0.03784 0.53652 0.0
C298 C 0.80342 0.97923 0.52023 0.0
C299 C 0.77559 0.96973 0.53582 0.0
C300 C 0.77477 0.9504 0.54851 0.0
C301 C 0.80201 0.94041 0.54615 0.0
C302 C 0.8305 0.95047 0.5314 0.0
C303 C 0.83113 0.96967 0.51845 0.0
C304 C 0.80232 -0.00183 0.50441 0.0
C305 C 0.79858 0.01779 0.51663 0.0
C306 C 0.8042 -0.00335 0.47729 0.0
C307 C 0.80306 0.97529 0.46329 0.0
C308 C 0.77639 0.95651 0.46788 0.0
C309 C 0.77524 0.93628 0.45516 0.0
C310 C 0.80025 0.93443 0.43698 0.0
C311 C 0.82673 0.95337 0.43212 0.0
C312 C 0.8281 0.97362 0.44515 0.0
C313 C 0.79719 0.05315 0.45915 0.0
C314 C 0.82433 0.06329 0.4433 0.0
C315 C 0.82204 0.08091 0.42843 0.0
C316 C 0.79235 0.08861 0.42889 0.0
C317 C 0.76499 0.07813 0.44454 0.0
C318 C 0.76738 0.06058 0.45949 0.0
C319 C 0.8001 0.03482 0.47535 0.0
C320 C 0.80406 0.01521 0.46315 0.0
C321 C 0.79707 0.0361 0.50245 0.0
C322 C 0.79147 0.05606 0.51641 0.0
C323 C 0.8131 0.0772 0.51268 0.0
C324 C 0.80647 0.09594 0.52498 0.0
C325 C 0.77853 0.09383 0.54166 0.0
C326 C 0.7575 0.07263 0.54592 0.0
C327 C 0.76385 0.05395 0.53337 0.0
H328 H 0.47618 0.35282 0.95799 0.0
H329 H 0.44555 0.36417 0.92277 0.0
H330 H 0.40561 0.29558 0.89806 0.0
H331 H 0.43621 0.28436 0.93328 0.0
H332 H 0.44828 0.32476 -0.00204 0.0
H333 H 0.52737 0.32734 0.92786 0.0
H334 H 0.54691 0.31844 0.88527 0.0
H335 H 0.51968 0.24898 0.90191 0.0
H336 H 0.50038 0.25807 0.9446 0.0
H337 H 0.51787 0.25682 0.02132 0.0
H338 H 0.54728 0.24662 0.05798 0.0
H339 H 0.57049 0.31426 0.08806 0.0
H340 H 0.54194 0.3245 0.0512 0.0
H341 H 0.53642 0.28345 0.98355 0.0
H342 H 0.45776 0.27881 0.05213 0.0
H343 H 0.43834 0.28564 0.09541 0.0
H344 H 0.45872 0.35544 0.08141 0.0
H345 H 0.47943 0.34857 0.03845 0.0
C346 C 0.45858 0.31777 0.94812 0.0
C347 C 0.46083 0.34026 0.94494 0.0
C348 C 0.4435 0.34672 0.92478 0.0
C349 C 0.42316 0.33075 0.90773 0.0
C350 C 0.42084 0.30822 0.91106 0.0
C351 C 0.43847 0.3018 0.93103 0.0
C352 C 0.4767 0.31097 0.96965 0.0
C353 C 0.46791 0.31601 -0.00515 0.0
C354 C 0.50129 0.29879 0.96552 0.0
C355 C 0.51216 0.29335 0.93934 0.0
C356 C 0.5252 0.31017 0.92221 0.0
C357 C 0.53629 0.30504 0.89783 0.0
C358 C 0.53478 0.28297 0.89014 0.0
C359 C 0.52155 0.26616 0.90732 0.0
C360 C 0.51043 0.27131 0.9317 0.0
C361 C 0.52716 0.29135 0.03369 0.0
C362 C 0.52955 0.26949 0.0357 0.0
C363 C 0.54631 0.26367 0.05664 0.0
C364 C 0.5608 0.2796 0.076 0.0
C365 C 0.55898 0.30155 0.07368 0.0
C366 C 0.54264 0.3074 0.05263 0.0
C367 C 0.5083 0.29743 0.01197 0.0
C368 C 0.51679 0.29219 0.98674 0.0
C369 C 0.48292 0.30906 0.01605 0.0
C370 C 0.47041 0.31321 0.04215 0.0
C371 C 0.45835 0.29561 0.05847 0.0
C372 C 0.44694 0.29952 0.08314 0.0
C373 C 0.447 0.3211 0.09191 0.0
C374 C 0.45881 0.33868 0.07541 0.0
C375 C 0.47033 0.33475 0.05076 0.0
H376 H 0.22901 0.40874 0.26825 0.0
H377 H 0.12773 0.46334 0.37357 0.0
H378 H 0.25179 0.41196 0.34936 0.0
H379 H 0.12175 0.47083 0.29185 0.0
H380 H 0.16922 0.44156 0.36562 0.0
H381 H 0.18513 0.42817 0.27717 0.0
C382 C 0.22473 0.41347 0.28798 0.0
C383 C 0.24426 0.40879 0.30808 0.0
C384 C 0.15868 0.44793 0.34947 0.0
C385 C 0.19387 0.43114 0.31844 0.0
C386 C 0.13509 0.46044 0.35397 0.0
C387 C 0.12109 0.46897 0.33336 0.0
C388 C 0.16825 0.44381 0.32416 0.0
C389 C 0.13127 0.46433 0.30836 0.0
C390 C 0.19966 0.42463 0.29305 0.0
C391 C 0.23743 0.41531 0.33327 0.0
N392 N 0.15419 0.45212 0.3045 0.0
N393 N 0.2128 0.42619 0.33774 0.0
H394 H 0.16217 0.76217 0.73818 0.0
H395 H 0.08164 0.6685 0.63061 0.0
H396 H 0.19691 0.76511 0.65957 0.0
H397 H 0.07098 0.65977 0.71233 0.0
H398 H 0.11727 0.70614 0.63947 0.0
H399 H 0.12081 0.72718 0.72731 0.0
C400 C 0.16092 0.75557 0.71855 0.0
C401 C 0.18332 0.76649 0.69982 0.0
C402 C 0.1069 0.69596 0.65539 0.0
C403 C 0.13599 0.72628 0.68727 0.0
C404 C 0.08672 0.67443 0.65038 0.0
C405 C 0.07319 0.66083 0.67074 0.0
C406 C 0.1134 0.70401 0.68091 0.0
C407 C 0.08021 0.66965 0.69596 0.0
C408 C 0.13735 0.73552 0.71238 0.0
C409 C 0.1803 0.75717 0.67466 0.0
N410 N 0.0998 0.69061 0.70029 0.0
N411 N 0.15718 0.7375 0.66913 0.0
H412 H 0.81167 0.69964 0.33346 0.0
H413 H 0.94836 0.63526 0.28686 0.0
H414 H 0.88274 0.7218 0.27211 0.0
H415 H 0.90546 0.62978 0.363 0.0
H416 H 0.91996 0.66443 0.27884 0.0
H417 H 0.84137 0.67133 0.34249 0.0
C418 C 0.83352 0.69856 0.3219 0.0
C419 C 0.84476 0.7131 0.302 0.0
C420 C 0.91685 0.65689 0.29732 0.0
C421 C 0.87858 0.68066 0.31208 0.0
C422 C 0.93286 0.64019 0.30185 0.0
C423 C 0.92915 0.63011 0.3256 0.0
C424 C 0.89656 0.66334 0.31656 0.0
C425 C 0.90909 0.63725 0.34448 0.0
C426 C 0.8505 0.68246 0.32713 0.0
C427 C 0.87327 0.71098 0.28768 0.0
N428 N 0.89331 0.65333 0.33949 0.0
N429 N 0.88905 0.69496 0.29288 0.0
H430 H 0.81282 0.3221 0.69845 0.0
H431 H 0.88606 0.42633 0.61176 0.0
H432 H 0.77719 0.32627 0.62138 0.0
H433 H 0.9029 0.42658 0.69344 0.0
H434 H 0.85354 0.38742 0.61271 0.0
H435 H 0.85364 0.35802 0.69446 0.0
C436 C 0.81378 0.33044 0.68056 0.0
C437 C 0.79124 0.32123 0.66031 0.0
C438 C 0.86454 0.39598 0.63038 0.0
C439 C 0.83793 0.3625 0.65569 0.0
C440 C 0.88321 0.41811 0.62982 0.0
C441 C 0.89688 0.4297 0.6526 0.0
C442 C 0.85982 0.38536 0.65384 0.0
C443 C 0.8923 0.41833 0.67552 0.0
C444 C 0.83705 0.35101 0.67835 0.0
C445 C 0.79387 0.33282 0.63756 0.0
N446 N 0.8741 0.39682 0.67556 0.0
N447 N 0.81663 0.35293 0.63593 0.0
H448 H 0.24834 0.26764 0.34768 0.0
H449 H 0.36317 0.21818 0.44131 0.0
H450 H 0.34781 0.30437 0.3754 0.0
H451 H 0.26104 0.18333 0.41738 0.0
H452 H 0.35852 0.24971 0.41676 0.0
H453 H 0.25275 0.23652 0.37293 0.0
C454 C 0.27108 0.2692 0.35914 0.0
C455 C 0.29776 0.28865 0.35941 0.0
C456 C 0.3371 0.23518 0.4169 0.0
C457 C 0.30306 0.25299 0.3883 0.0
C458 C 0.33983 0.21711 0.43078 0.0
C459 C 0.31245 0.19807 0.43139 0.0
C460 C 0.30683 0.23419 0.40344 0.0
C461 C 0.28264 0.19776 0.41769 0.0
C462 C 0.27359 0.2514 0.37356 0.0
C463 C 0.32661 0.2897 0.37463 0.0
N464 N 0.28065 0.21551 0.40425 0.0
N465 N 0.32853 0.2721 0.3884 0.0
H466 H 0.39205 0.87631 0.76419 0.0
H467 H 0.41459 0.80762 0.88628 0.0
H468 H 0.3273 0.81209 0.78139 0.0
H469 H 0.48493 0.86991 0.86917 0.0
H470 H 0.38129 0.81021 0.84845 0.0
H471 H 0.42545 0.87554 0.80313 0.0
C472 C 0.38481 0.8621 0.77612 0.0
C473 C 0.35685 0.84422 0.76944 0.0
C474 C 0.40399 0.82336 0.85289 0.0
C475 C 0.39481 0.84327 0.81389 0.0
C476 C 0.42316 0.82182 0.87447 0.0
C477 C 0.45281 0.83846 0.8808 0.0
C478 C 0.41441 0.84171 0.83739 0.0
C479 C 0.46215 0.85675 0.86507 0.0
C480 C 0.40388 0.86167 0.79832 0.0
C481 C 0.34864 0.82625 0.78564 0.0
N482 N 0.44308 0.85785 0.84401 0.0
N483 N 0.3675 0.82625 0.80701 0.0
H484 H 0.72682 0.80542 0.36156 0.0
H485 H 0.85263 0.91609 0.42194 0.0
H486 H 0.83432 0.82513 0.34373 0.0
H487 H 0.74282 0.9036 0.41954 0.0
H488 H 0.8478 0.88069 0.39837 0.0
H489 H 0.73398 0.83873 0.38914 0.0
C490 C 0.75204 0.81662 0.36364 0.0
C491 C 0.77996 0.81254 0.35008 0.0
C492 C 0.82483 0.88574 0.40313 0.0
C493 C 0.78825 0.85089 0.38162 0.0
C494 C 0.82754 0.90601 0.41643 0.0
C495 C 0.79809 0.91293 0.42284 0.0
C496 C 0.79245 0.87221 0.39636 0.0
C497 C 0.76624 0.89889 0.41553 0.0
C498 C 0.75606 0.83572 0.37931 0.0
C499 C 0.81205 0.82767 0.35368 0.0
N500 N 0.76431 0.87926 0.40275 0.0
N501 N 0.8153 0.84627 0.36902 0.0
H502 H 0.60633 0.28991 0.73344 0.0
H503 H 0.57251 0.25332 0.8784 0.0
H504 H 0.6508 0.24232 0.76787 0.0
H505 H 0.52769 0.30064 0.84379 0.0
H506 H 0.59702 0.24644 0.83692 0.0
H507 H 0.57296 0.29132 0.77234 0.0
C508 C 0.60883 0.27957 0.74907 0.0
C509 C 0.63168 0.26614 0.74746 0.0
C510 C 0.58164 0.25823 0.83834 0.0
C511 C 0.59369 0.26782 0.79221 0.0
C512 C 0.56745 0.26208 0.86201 0.0
C513 C 0.54813 0.27769 0.86466 0.0
C514 C 0.57659 0.2701 0.81709 0.0
C515 C 0.54289 0.28875 0.84277 0.0
C516 C 0.58979 0.28042 0.77132 0.0
C517 C 0.63367 0.25302 0.7683 0.0
N518 N 0.55717 0.28482 0.81997 0.0
N519 N 0.61517 0.25434 0.78989 0.0
H520 H 0.35443 0.91018 0.62467 0.0
H521 H 0.29821 0.02295 0.61326 0.0
H522 H 0.2872 0.93195 0.67842 0.0
H523 H 0.35085 -0.00443 0.55317 0.0
H524 H 0.29798 0.99129 0.63909 0.0
H525 H 0.35791 0.94313 0.60015 0.0
C526 C 0.34055 0.92194 0.63141 0.0
C527 C 0.3204 0.91825 0.6536 0.0
C528 C 0.30962 0.99222 0.62026 0.0
C529 C 0.32424 0.956 0.62559 0.0
C530 C 0.30959 0.01025 0.60541 0.0
C531 C 0.32439 0.01192 0.58088 0.0
C532 C 0.32467 0.97572 0.61062 0.0
C533 C 0.33944 0.99515 0.57204 0.0
C534 C 0.34247 0.94072 0.61735 0.0
C535 C 0.30295 0.93407 0.66139 0.0
N536 N 0.33914 0.97775 0.58687 0.0
N537 N 0.30525 0.95223 0.64739 0.0
H538 H 0.66957 0.74495 0.21647 0.0
H539 H 0.67016 0.82943 0.10516 0.0
H540 H 0.7452 0.8073 0.20997 0.0
H541 H 0.59391 0.76729 0.11093 0.0
H542 H 0.69911 0.82079 0.14272 0.0
H543 H 0.64308 0.75173 0.17662 0.0
C544 C 0.68078 0.75997 0.20657 0.0
C545 C 0.70955 0.77563 0.21666 0.0
C546 C 0.67609 0.809 0.13576 0.0
C547 C 0.67924 0.78356 0.17117 0.0
C548 C 0.6594 0.814 0.11441 0.0
C549 C 0.62945 0.79912 0.10495 0.0
C550 C 0.66273 0.78897 0.14786 0.0
C551 C 0.61708 0.77917 0.11743 0.0
C552 C 0.66559 0.76386 0.18385 0.0
C553 C 0.72297 0.79479 0.203 0.0
N554 N 0.6337 0.77471 0.1383 0.0
N555 N 0.70761 0.79826 0.18106 0.0
H556 H 0.7325 0.19059 0.65059 0.0
H557 H 0.77703 0.13255 0.51985 0.0
H558 H 0.71875 0.2138 0.57558 0.0
H559 H 0.76234 0.10013 0.59202 0.0
H560 H 0.76227 0.16464 0.54069 0.0
H561 H 0.74965 0.15927 0.63008 0.0
C562 C 0.73313 0.18912 0.62981 0.0
C563 C 0.72408 0.2048 0.61477 0.0
C564 C 0.76231 0.15051 0.55196 0.0
C565 C 0.74391 0.16911 0.59121 0.0
C566 C 0.77096 0.13228 0.54013 0.0
C567 C 0.77085 0.11367 0.55424 0.0
C568 C 0.75385 0.15022 0.57816 0.0
C569 C 0.76241 0.11407 0.5804 0.0
C570 C 0.74284 0.17122 0.61813 0.0
C571 C 0.72536 0.20205 0.58793 0.0
N572 N 0.75433 0.13208 0.59154 0.0
N573 N 0.73519 0.18459 0.57701 0.0
H574 H 0.32949 0.31301 0.23202 0.0
H575 H 0.47325 0.35566 0.12645 0.0
H576 H 0.40517 0.37583 0.2392 0.0
H577 H 0.39169 0.29587 0.11689 0.0
H578 H 0.45095 0.36238 0.1689 0.0
H579 H 0.35466 0.30529 0.19116 0.0
C580 C 0.35152 0.32515 0.22509 0.0
C581 C 0.36513 0.34516 0.23905 0.0
C582 C 0.43799 0.34776 0.15753 0.0
C583 C 0.39404 0.33642 0.19211 0.0
C584 C 0.4506 0.34398 0.13322 0.0
C585 C 0.43429 0.32519 0.118 0.0
C586 C 0.40885 0.33266 0.16673 0.0
C587 C 0.40537 0.31043 0.12802 0.0
C588 C 0.36585 0.32074 0.20169 0.0
C589 C 0.39375 0.36022 0.22908 0.0
N590 N 0.39357 0.3145 0.15169 0.0
N591 N 0.40718 0.35558 0.20618 0.0
H592 H 0.78357 0.70035 0.69751 0.0
H593 H 0.91492 0.64679 0.6257 0.0
H594 H 0.79578 0.70589 0.61556 0.0
H595 H 0.84304 0.60897 0.67914 0.0
H596 H 0.88166 0.67419 0.62605 0.0
H597 H 0.81666 0.67253 0.69609 0.0
C598 C 0.79348 0.69584 0.67929 0.0
C599 C 0.78694 0.70532 0.6566 0.0
C600 C 0.8734 0.65982 0.63765 0.0
C601 C 0.8251 0.67405 0.65499 0.0
C602 C 0.89216 0.64399 0.63736 0.0
C603 C 0.88203 0.62524 0.6524 0.0
C604 C 0.84489 0.65731 0.65363 0.0
C605 C 0.85265 0.62323 0.66767 0.0
C606 C 0.8121 0.67995 0.67849 0.0
C607 C 0.80015 0.69884 0.63344 0.0
N608 N 0.83537 0.63916 0.66809 0.0
N609 N 0.81896 0.68373 0.63324 0.0
H610 H 0.77048 0.33939 0.31823 0.0
H611 H 0.95796 0.41704 0.34731 0.0
H612 H 0.85991 0.31421 0.32033 0.0
H613 H 0.86898 0.44096 0.33496 0.0
H614 H 0.92204 0.37889 0.34297 0.0
H615 H 0.80572 0.37619 0.33008 0.0
C616 C 0.79754 0.34154 0.32136 0.0
C617 C 0.81228 0.32366 0.31801 0.0
C618 C 0.9104 0.39251 0.34136 0.0
C619 C 0.853 0.36603 0.3315 0.0
C620 C 0.93083 0.41426 0.34395 0.0
C621 C 0.91645 0.43217 0.34124 0.0
C622 C 0.87534 0.38872 0.33622 0.0
C623 C 0.88121 0.42765 0.33675 0.0
C624 C 0.81769 0.36264 0.3281 0.0
C625 C 0.84748 0.32752 0.32257 0.0
N626 N 0.86194 0.40641 0.33431 0.0
N627 N 0.86672 0.34834 0.3289 0.0
H628 H 0.21549 0.40845 0.66273 0.0
H629 H 0.07875 0.46956 0.71701 0.0
H630 H 0.15367 0.38665 0.72912 0.0
H631 H 0.10354 0.46755 0.63627 0.0
H632 H 0.11331 0.44382 0.72441 0.0
H633 H 0.18215 0.43524 0.65553 0.0
C634 C 0.19506 0.40939 0.67587 0.0
C635 C 0.18725 0.39527 0.69652 0.0
C636 C 0.11112 0.44906 0.70509 0.0
C637 C 0.1494 0.42595 0.68853 0.0
C638 C 0.09117 0.46366 0.70075 0.0
C639 C 0.08775 0.47073 0.67586 0.0
C640 C 0.12842 0.4417 0.68456 0.0
C641 C 0.1056 0.46291 0.65583 0.0
C642 C 0.17599 0.42458 0.67167 0.0
C643 C 0.16042 0.39714 0.71289 0.0
N644 N 0.12521 0.44889 0.66063 0.0
N645 N 0.14257 0.41228 0.70863 0.0
H646 H 0.23001 0.7453 0.25907 0.0
H647 H 0.12089 0.66974 0.3661 0.0
H648 H 0.23174 0.7664 0.33915 0.0
H649 H 0.12716 0.64866 0.28664 0.0
H650 H 0.15985 0.70562 0.35696 0.0
H651 H 0.19027 0.71037 0.26907 0.0
C652 C 0.222 0.74262 0.27881 0.0
C653 C 0.23434 0.75883 0.29831 0.0
C654 C 0.1526 0.69313 0.34155 0.0
C655 C 0.18862 0.71862 0.30996 0.0
C656 C 0.13049 0.67261 0.34677 0.0
C657 C 0.12057 0.65615 0.32709 0.0
C658 C 0.1649 0.6972 0.31648 0.0
C659 C 0.13354 0.66092 0.30234 0.0
C660 C 0.19926 0.7226 0.28452 0.0
C661 C 0.22291 0.75435 0.32352 0.0
N662 N 0.15497 0.68095 0.29778 0.0
N663 N 0.20069 0.73463 0.32864 0.0
H664 H 0.73633 0.80636 0.59655 0.0
H665 H 0.85086 0.92914 0.57489 0.0
H666 H 0.82276 0.8383 0.64474 0.0
H667 H 0.74883 0.90332 0.5448 0.0
H668 H 0.84618 0.8939 0.59545 0.0
H669 H 0.74639 0.83965 0.57178 0.0
C670 C 0.7577 0.82025 0.60175 0.0
C671 C 0.77856 0.81957 0.62293 0.0
C672 C 0.82489 0.89597 0.58429 0.0
C673 C 0.79008 0.85781 0.59465 0.0
C674 C 0.82758 0.916 0.57252 0.0
C675 C 0.80006 0.91917 0.55835 0.0
C676 C 0.79465 0.87892 0.58153 0.0
C677 C 0.77043 0.90166 0.5559 0.0
C678 C 0.76329 0.83931 0.58767 0.0
C679 C 0.80588 0.83813 0.62869 0.0
N680 N 0.76852 0.8823 0.56734 0.0
N681 N 0.81077 0.85655 0.6147 0.0
H682 H 0.70559 0.24489 0.17641 0.0
H683 H 0.55291 0.29075 0.12648 0.0
H684 H 0.63562 0.26753 0.22688 0.0
H685 H 0.60714 0.25458 0.07704 0.0
H686 H 0.58313 0.28225 0.16351 0.0
H687 H 0.66975 0.24766 0.13977 0.0
C688 C 0.68252 0.25021 0.17984 0.0
C689 C 0.67376 0.25615 0.20476 0.0
C690 C 0.58829 0.27602 0.1446 0.0
C691 C 0.63286 0.25959 0.16287 0.0
C692 C 0.5712 0.28099 0.12345 0.0
C693 C 0.57774 0.27349 0.09866 0.0
C694 C 0.61244 0.26365 0.14095 0.0
C695 C 0.60129 0.26062 0.09586 0.0
C696 C 0.66207 0.25179 0.15889 0.0
C697 C 0.64349 0.26286 0.20802 0.0
N698 N 0.61806 0.25628 0.11673 0.0
N699 N 0.62436 0.26462 0.18731 0.0
H700 H 0.25855 0.26915 0.68024 0.0
H701 H 0.31271 0.22409 0.54449 0.0
H702 H 0.30205 0.31187 0.61903 0.0
H703 H 0.27386 0.18261 0.60778 0.0
H704 H 0.30566 0.25623 0.5702 0.0
H705 H 0.25983 0.23706 0.65246 0.0
C706 C 0.26817 0.2718 0.66087 0.0
C707 C 0.28043 0.29327 0.65202 0.0
C708 C 0.29854 0.24008 0.5784 0.0
C709 C 0.28217 0.25647 0.62007 0.0
C710 C 0.30275 0.22173 0.56379 0.0
C711 C 0.29398 0.20059 0.574 0.0
C712 C 0.2855 0.23729 0.60343 0.0
C713 C 0.28061 0.1985 0.59897 0.0
C714 C 0.26895 0.25343 0.64501 0.0
C715 C 0.29244 0.29562 0.62669 0.0
N716 N 0.27692 0.21661 0.61282 0.0
N717 N 0.29321 0.27745 0.61164 0.0
H718 H 0.43025 0.87226 0.24379 0.0
H719 H 0.42247 0.81423 0.10367 0.0
H720 H 0.34111 0.82523 0.21183 0.0
H721 H 0.50436 0.87044 0.12779 0.0
H722 H 0.39289 0.81807 0.14383 0.0
H723 H 0.4583 0.87233 0.20192 0.0
C724 C 0.41645 0.86212 0.22797 0.0
C725 C 0.38333 0.8486 0.23144 0.0
C726 C 0.41726 0.82967 0.14036 0.0
C727 C 0.41536 0.84847 0.18364 0.0
C728 C 0.43425 0.82738 0.1175 0.0
C729 C 0.46601 0.84194 0.1125 0.0
C730 C 0.43222 0.84653 0.15859 0.0
C731 C 0.47984 0.85891 0.1309 0.0
C732 C 0.43249 0.86217 0.20409 0.0
C733 C 0.36671 0.83583 0.2102 0.0
N734 N 0.46299 0.86064 0.15326 0.0
N735 N 0.38298 0.83596 0.18735 0.0
H736 H 0.81592 0.1856 0.31148 0.0
H737 H 0.76254 0.12236 0.44168 0.0
H738 H 0.7439 0.20169 0.36547 0.0
H739 H 0.8168 0.09805 0.38017 0.0
H740 H 0.75859 0.15298 0.4154 0.0
H741 H 0.82011 0.15508 0.33795 0.0
C742 C 0.80103 0.18275 0.32893 0.0
C743 C 0.77949 0.19622 0.33625 0.0
C744 C 0.77133 0.14093 0.40766 0.0
C745 C 0.78424 0.16132 0.36668 0.0
C746 C 0.77344 0.12334 0.4226 0.0
C747 C 0.78997 0.10748 0.41316 0.0
C748 C 0.78602 0.14283 0.3831 0.0
C749 C 0.80423 0.10999 0.38846 0.0
C750 C 0.80338 0.16528 0.344 0.0
C751 C 0.76077 0.19171 0.35904 0.0
N752 N 0.80196 0.12731 0.37433 0.0
N753 N 0.76364 0.17468 0.37347 0.0
H754 H 0.37135 0.37926 0.76491 0.0
H755 H 0.35668 0.3131 0.89335 0.0
H756 H 0.27579 0.34048 0.79447 0.0
H757 H 0.44673 0.36368 0.87399 0.0
H758 H 0.32662 0.32322 0.85719 0.0
H759 H 0.39936 0.37471 0.80498 0.0
C760 C 0.35614 0.37004 0.77994 0.0
C761 C 0.32118 0.36008 0.77619 0.0
C762 C 0.35287 0.33224 0.86093 0.0
C763 C 0.35323 0.35454 0.82194 0.0
C764 C 0.3701 0.32635 0.88146 0.0
C765 C 0.40429 0.33747 0.88654 0.0
C766 C 0.37007 0.34919 0.84513 0.0
C767 C 0.42032 0.35474 0.87077 0.0
C768 C 0.37219 0.36743 0.8028 0.0
C769 C 0.3028 0.34838 0.7964 0.0
N770 N 0.40317 0.35994 0.85061 0.0
N771 N 0.31912 0.34571 0.81825 0.0
H772 H 0.30019 0.91003 0.34792 0.0
H773 H 0.39537 0.01212 0.44137 0.0
H774 H 0.40342 0.91968 0.3753 0.0
H775 H 0.28923 -0.00137 0.41974 0.0
H776 H 0.39978 0.97938 0.4156 0.0
H777 H 0.29665 0.94349 0.37248 0.0
C778 C 0.32216 0.91921 0.35904 0.0
C779 C 0.35214 0.912 0.35957 0.0
C780 C 0.37552 0.98358 0.4165 0.0
C781 C 0.34824 0.95036 0.38779 0.0
C782 C 0.37303 0.00233 0.4311 0.0
C783 C 0.34186 0.00811 0.43277 0.0
C784 C 0.34667 0.97053 0.40333 0.0
C785 C 0.31365 0.99465 0.4193 0.0
C786 C 0.3201 0.93831 0.3731 0.0
C787 C 0.37978 0.92459 0.37435 0.0
N788 N 0.31675 0.97653 0.40514 0.0
N789 N 0.37716 0.94314 0.38787 0.0
H790 H 0.72281 0.76474 0.77482 0.0
H791 H 0.58511 0.816 0.84826 0.0
H792 H 0.65604 0.79734 0.73714 0.0
H793 H 0.64753 0.78045 0.8861 0.0
H794 H 0.60969 0.80817 0.80714 0.0
H795 H 0.69401 0.76876 0.81548 0.0
C796 C 0.70193 0.77258 0.77504 0.0
C797 C 0.69198 0.78084 0.75255 0.0
C798 C 0.61795 0.80199 0.8244 0.0
C799 C 0.65907 0.78562 0.79903 0.0
C800 C 0.60407 0.80659 0.84792 0.0
C801 C 0.61443 0.79899 0.87068 0.0
C802 C 0.64256 0.78978 0.82358 0.0
C803 C 0.63863 0.7865 0.86901 0.0
C804 C 0.68553 0.7749 0.79827 0.0
C805 C 0.66472 0.79081 0.75399 0.0
N806 N 0.65201 0.7824 0.84589 0.0
N807 N 0.64939 0.79304 0.77684 0.0
loop_
_geom_bond_atom_site_label_1
_geom_bond_atom_site_label_2
_geom_bond_distance
_geom_bond_site_symmetry_2
_ccdc_geom_bond_type
O0 Cd1 2.300 . S
O0 C7 1.275 . S
Cd1 O0 2.300 . S
Cd1 O9 2.381 . S
Cd1 O10 2.378 . S
O2 Cd3 2.385 . S
O2 C7 1.255 . S
Cd3 O2 2.385 . S
Cd3 O4 2.317 . S
O4 Cd3 2.317 . S
O4 C5 1.232 . S
C5 O4 1.232 . S
C5 O6 1.218 . S
O6 C5 1.218 . S
C7 O0 1.275 . S
C7 O2 1.255 . S
C8 O9 1.258 . S
C8 O10 1.256 . S
O9 Cd1 2.381 . S
O9 C8 1.258 . S
O10 Cd1 2.378 . S
O10 C8 1.256 . S
O11 Cd12 2.300 . S
O11 C18 1.275 . S
Cd12 O11 2.300 . S
Cd12 O20 2.381 . S
Cd12 O21 2.378 . S
O13 Cd14 2.385 . S
O13 C18 1.255 . S
Cd14 O13 2.385 . S
Cd14 O15 2.317 . S
O15 Cd14 2.317 . S
O15 C16 1.232 . S
C16 O15 1.232 . S
C16 O17 1.218 . S
O17 C16 1.218 . S
C18 O11 1.275 . S
C18 O13 1.255 . S
C19 O20 1.258 . S
C19 O21 1.256 . S
O20 Cd12 2.381 . S
O20 C19 1.258 . S
O21 Cd12 2.378 . S
O21 C19 1.256 . S
O22 Cd23 2.300 . S
O22 C29 1.275 . S
Cd23 O22 2.300 . S
Cd23 O31 2.381 . S
Cd23 O32 2.378 . S
O24 Cd25 2.385 . S
O24 C29 1.255 . S
Cd25 O24 2.385 . S
Cd25 O26 2.317 . S
O26 Cd25 2.317 . S
O26 C27 1.232 . S
C27 O26 1.232 . S
C27 O28 1.218 . S
O28 C27 1.218 . S
C29 O22 1.275 . S
C29 O24 1.255 . S
C30 O31 1.258 . S
C30 O32 1.256 . S
O31 Cd23 2.381 . S
O31 C30 1.258 . S
O32 Cd23 2.378 . S
O32 C30 1.256 . S
O33 Cd34 2.300 . S
O33 C40 1.275 . S
Cd34 O33 2.300 . S
Cd34 O42 2.381 . S
Cd34 O43 2.378 . S
O35 Cd36 2.385 . S
O35 C40 1.255 . S
Cd36 O35 2.385 . S
Cd36 O37 2.317 . S
O37 Cd36 2.317 . S
O37 C38 1.232 . S
C38 O37 1.232 . S
C38 O39 1.218 . S
O39 C38 1.218 . S
C40 O33 1.275 . S
C40 O35 1.255 . S
C41 O42 1.258 . S
C41 O43 1.256 . S
O42 Cd34 2.381 . S
O42 C41 1.258 . S
O43 Cd34 2.378 . S
O43 C41 1.256 . S
O44 Cd45 2.300 . S
O44 C51 1.275 . S
Cd45 O44 2.300 . S
Cd45 O53 2.381 . S
Cd45 O54 2.378 . S
O46 Cd47 2.385 . S
O46 C51 1.255 . S
Cd47 O46 2.385 . S
Cd47 O48 2.317 . S
O48 Cd47 2.317 . S
O48 C49 1.232 . S
C49 O48 1.232 . S
C49 O50 1.218 . S
O50 C49 1.218 . S
C51 O44 1.275 . S
C51 O46 1.255 . S
C52 O53 1.258 . S
C52 O54 1.256 . S
O53 Cd45 2.381 . S
O53 C52 1.258 . S
O54 Cd45 2.378 . S
O54 C52 1.256 . S
O55 Cd56 2.300 . S
O55 C62 1.275 . S
Cd56 O55 2.300 . S
Cd56 O64 2.381 . S
Cd56 O65 2.378 . S
O57 Cd58 2.385 . S
O57 C62 1.255 . S
Cd58 O57 2.385 . S
Cd58 O59 2.317 . S
O59 Cd58 2.317 . S
O59 C60 1.232 . S
C60 O59 1.232 . S
C60 O61 1.218 . S
O61 C60 1.218 . S
C62 O55 1.275 . S
C62 O57 1.255 . S
C63 O64 1.258 . S
C63 O65 1.256 . S
O64 Cd56 2.381 . S
O64 C63 1.258 . S
O65 Cd56 2.378 . S
O65 C63 1.256 . S
O66 Cd67 2.300 . S
O66 C73 1.275 . S
Cd67 O66 2.300 . S
Cd67 O75 2.381 . S
Cd67 O76 2.378 . S
O68 Cd69 2.385 . S
O68 C73 1.255 . S
Cd69 O68 2.385 . S
Cd69 O70 2.317 . S
O70 Cd69 2.317 . S
O70 C71 1.232 . S
C71 O70 1.232 . S
C71 O72 1.218 . S
O72 C71 1.218 . S
C73 O66 1.275 . S
C73 O68 1.255 . S
C74 O75 1.258 . S
C74 O76 1.256 . S
O75 Cd67 2.381 . S
O75 C74 1.258 . S
O76 Cd67 2.378 . S
O76 C74 1.256 . S
O77 Cd78 2.300 . S
O77 C84 1.275 . S
Cd78 O77 2.300 . S
Cd78 O86 2.381 . S
Cd78 O87 2.378 . S
O79 Cd80 2.385 . S
O79 C84 1.255 . S
Cd80 O79 2.385 . S
Cd80 O81 2.317 . S
O81 Cd80 2.317 . S
O81 C82 1.232 . S
C82 O81 1.232 . S
C82 O83 1.218 . S
O83 C82 1.218 . S
C84 O77 1.275 . S
C84 O79 1.255 . S
C85 O86 1.258 . S
C85 O87 1.256 . S
O86 Cd78 2.381 . S
O86 C85 1.258 . S
O87 Cd78 2.378 . S
O87 C85 1.256 . S
H88 C107 0.949 . S
H89 C108 0.950 . S
H90 C110 0.950 . S
H91 C111 0.950 . S
H92 C113 0.950 1_655 S
H93 C116 0.950 . S
H94 C117 0.950 . S
H95 C119 0.951 . S
H96 C120 0.949 . S
H97 C122 0.949 . S
H98 C123 0.950 . S
H99 C125 0.950 . S
H100 C126 0.950 . S
H101 C128 0.950 . S
H102 C131 0.950 . S
H103 C132 0.950 . S
H104 C134 0.951 . S
H105 C135 0.949 . S
C106 C107 1.376 1_455 S
C106 C111 1.386 . S
C106 C112 1.483 . S
C107 H88 0.949 . S
C107 C106 1.376 1_655 S
C107 C108 1.397 . S
C108 H89 0.950 . S
C108 C107 1.397 . S
C108 C109 1.391 . S
C109 C108 1.391 . S
C109 C110 1.405 . S
C110 H90 0.950 . S
C110 C109 1.405 . S
C110 C111 1.367 1_655 S
C111 H91 0.950 . S
C111 C106 1.386 . S
C111 C110 1.367 1_455 S
C112 C106 1.483 . S
C112 C113 1.382 . S
C112 C114 1.403 . S
C113 H92 0.950 1_455 S
C113 C112 1.382 . S
C113 C129 1.411 . S
C114 C112 1.403 . S
C114 C115 1.489 . S
C114 C128 1.411 . S
C115 C114 1.489 . S
C115 C116 1.383 . S
C115 C120 1.382 . S
C116 H93 0.950 . S
C116 C115 1.383 . S
C116 C117 1.395 . S
C117 H94 0.950 . S
C117 C116 1.395 . S
C117 C118 1.288 . S
C118 C117 1.288 . S
C118 C119 1.392 . S
C119 H95 0.951 . S
C119 C118 1.392 . S
C119 C120 1.392 . S
C120 H96 0.949 . S
C120 C115 1.382 . S
C120 C119 1.392 . S
C121 C122 1.376 . S
C121 C126 1.386 . S
C121 C127 1.483 . S
C122 H97 0.949 . S
C122 C121 1.376 . S
C122 C123 1.397 . S
C123 H98 0.950 . S
C123 C122 1.397 . S
C123 C124 1.391 . S
C124 C123 1.391 . S
C124 C125 1.405 . S
C125 H99 0.950 . S
C125 C124 1.405 . S
C125 C126 1.367 . S
C126 H100 0.950 . S
C126 C121 1.386 . S
C126 C125 1.367 . S
C127 C121 1.483 . S
C127 C128 1.382 . S
C127 C129 1.403 . S
C128 H101 0.950 . S
C128 C114 1.411 . S
C128 C127 1.382 . S
C129 C113 1.411 . S
C129 C127 1.403 . S
C129 C130 1.489 . S
C130 C129 1.489 . S
C130 C131 1.383 . S
C130 C135 1.382 1_455 S
C131 H102 0.950 . S
C131 C130 1.383 . S
C131 C132 1.395 1_455 S
C132 H103 0.950 . S
C132 C131 1.395 1_655 S
C132 C133 1.288 . S
C133 C132 1.288 . S
C133 C134 1.392 . S
C134 H104 0.951 . S
C134 C133 1.392 . S
C134 C135 1.392 . S
C135 H105 0.949 . S
C135 C130 1.382 1_655 S
C135 C134 1.392 . S
H136 C155 0.949 . S
H137 C156 0.950 . S
H138 C158 0.950 . S
H139 C159 0.950 . S
H140 C161 0.950 . S
H141 C164 0.950 . S
H142 C165 0.950 . S
H143 C167 0.951 . S
H144 C168 0.949 . S
H145 C170 0.949 . S
H146 C171 0.950 . S
H147 C173 0.950 . S
H148 C174 0.950 . S
H149 C176 0.950 . S
H150 C179 0.950 . S
H151 C180 0.950 . S
H152 C182 0.951 . S
H153 C183 0.949 . S
C154 C155 1.376 . S
C154 C159 1.386 . S
C154 C160 1.483 . S
C155 H136 0.949 . S
C155 C154 1.376 . S
C155 C156 1.397 . S
C156 H137 0.950 . S
C156 C155 1.397 . S
C156 C157 1.391 . S
C157 C156 1.391 . S
C157 C158 1.405 . S
C158 H138 0.950 . S
C158 C157 1.405 . S
C158 C159 1.367 . S
C159 H139 0.950 . S
C159 C154 1.386 . S
C159 C158 1.367 . S
C160 C154 1.483 . S
C160 C161 1.382 . S
C160 C162 1.403 1_455 S
C161 H140 0.950 . S
C161 C160 1.382 . S
C161 C177 1.411 . S
C162 C160 1.403 1_655 S
C162 C163 1.489 . S
C162 C176 1.411 . S
C163 C162 1.489 . S
C163 C164 1.383 . S
C163 C168 1.382 . S
C164 H141 0.950 . S
C164 C163 1.383 . S
C164 C165 1.395 . S
C165 H142 0.950 . S
C165 C164 1.395 . S
C165 C166 1.288 . S
C166 C165 1.288 . S
C166 C167 1.392 . S
C167 H143 0.951 . S
C167 C166 1.392 . S
C167 C168 1.392 . S
C168 H144 0.949 . S
C168 C163 1.382 . S
C168 C167 1.392 . S
C169 C170 1.376 . S
C169 C174 1.386 . S
C169 C175 1.483 . S
C170 H145 0.949 . S
C170 C169 1.376 . S
C170 C171 1.397 . S
C171 H146 0.950 . S
C171 C170 1.397 . S
C171 C172 1.391 . S
C172 C171 1.391 . S
C172 C173 1.405 . S
C173 H147 0.950 . S
C173 C172 1.405 . S
C173 C174 1.367 . S
C174 H148 0.950 . S
C174 C169 1.386 . S
C174 C173 1.367 . S
C175 C169 1.483 . S
C175 C176 1.382 . S
C175 C177 1.403 1_655 S
C176 H149 0.950 . S
C176 C162 1.411 . S
C176 C175 1.382 . S
C177 C161 1.411 . S
C177 C175 1.403 1_455 S
C177 C178 1.489 . S
C178 C177 1.489 . S
C178 C179 1.383 . S
C178 C183 1.382 . S
C179 H150 0.950 . S
C179 C178 1.383 . S
C179 C180 1.395 . S
C180 H151 0.950 . S
C180 C179 1.395 . S
C180 C181 1.288 . S
C181 C180 1.288 . S
C181 C182 1.392 . S
C182 H152 0.951 . S
C182 C181 1.392 . S
C182 C183 1.392 . S
C183 H153 0.949 . S
C183 C178 1.382 . S
C183 C182 1.392 . S
H184 C203 0.949 . S
H185 C204 0.950 . S
H186 C206 0.950 . S
H187 C207 0.950 . S
H188 C209 0.950 . S
H189 C212 0.950 . S
H190 C213 0.950 . S
H191 C215 0.951 . S
H192 C216 0.949 . S
H193 C218 0.949 . S
H194 C219 0.950 . S
H195 C221 0.950 . S
H196 C222 0.950 . S
H197 C224 0.950 . S
H198 C227 0.950 . S
H199 C228 0.950 . S
H200 C230 0.951 . S
H201 C231 0.949 . S
C202 C203 1.376 . S
C202 C207 1.386 . S
C202 C208 1.483 . S
C203 H184 0.949 . S
C203 C202 1.376 . S
C203 C204 1.397 . S
C204 H185 0.950 . S
C204 C203 1.397 . S
C204 C205 1.391 . S
C205 C204 1.391 . S
C205 C206 1.405 . S
C206 H186 0.950 . S
C206 C205 1.405 . S
C206 C207 1.367 . S
C207 H187 0.950 . S
C207 C202 1.386 . S
C207 C206 1.367 . S
C208 C202 1.483 . S
C208 C209 1.382 . S
C208 C210 1.403 . S
C209 H188 0.950 . S
C209 C208 1.382 . S
C209 C225 1.411 . S
C210 C208 1.403 . S
C210 C211 1.489 . S
C210 C224 1.411 . S
C211 C210 1.489 . S
C211 C212 1.383 . S
C211 C216 1.382 . S
C212 H189 0.950 . S
C212 C211 1.383 . S
C212 C213 1.395 . S
C213 H190 0.950 . S
C213 C212 1.395 . S
C213 C214 1.288 . S
C214 C213 1.288 . S
C214 C215 1.392 . S
C215 H191 0.951 . S
C215 C214 1.392 . S
C215 C216 1.392 . S
C216 H192 0.949 . S
C216 C211 1.382 . S
C216 C215 1.392 . S
C217 C218 1.376 . S
C217 C222 1.386 . S
C217 C223 1.483 . S
C218 H193 0.949 . S
C218 C217 1.376 . S
C218 C219 1.397 . S
C219 H194 0.950 . S
C219 C218 1.397 . S
C219 C220 1.391 . S
C220 C219 1.391 . S
C220 C221 1.405 . S
C221 H195 0.950 . S
C221 C220 1.405 . S
C221 C222 1.367 . S
C222 H196 0.950 . S
C222 C217 1.386 . S
C222 C221 1.367 . S
C223 C217 1.483 . S
C223 C224 1.382 . S
C223 C225 1.403 . S
C224 H197 0.950 . S
C224 C210 1.411 . S
C224 C223 1.382 . S
C225 C209 1.411 . S
C225 C223 1.403 . S
C225 C226 1.489 . S
C226 C225 1.489 . S
C226 C227 1.383 . S
C226 C231 1.382 . S
C227 H198 0.950 . S
C227 C226 1.383 . S
C227 C228 1.395 . S
C228 H199 0.950 . S
C228 C227 1.395 . S
C228 C229 1.288 . S
C229 C228 1.288 . S
C229 C230 1.392 . S
C230 H200 0.951 . S
C230 C229 1.392 . S
C230 C231 1.392 . S
C231 H201 0.949 . S
C231 C226 1.382 . S
C231 C230 1.392 . S
H232 C251 0.949 . S
H233 C252 0.950 . S
H234 C254 0.950 . S
H235 C255 0.950 . S
H236 C257 0.950 . S
H237 C260 0.950 . S
H238 C261 0.950 . S
H239 C263 0.951 . S
H240 C264 0.949 . S
H241 C266 0.949 . S
H242 C267 0.950 . S
H243 C269 0.950 . S
H244 C270 0.950 . S
H245 C272 0.950 . S
H246 C275 0.950 . S
H247 C276 0.950 . S
H248 C278 0.951 . S
H249 C279 0.949 . S
C250 C251 1.376 . S
C250 C255 1.386 . S
C250 C256 1.483 . S
C251 H232 0.949 . S
C251 C250 1.376 . S
C251 C252 1.397 . S
C252 H233 0.950 . S
C252 C251 1.397 . S
C252 C253 1.391 . S
C253 C252 1.391 . S
C253 C254 1.405 . S
C254 H234 0.950 . S
C254 C253 1.405 . S
C254 C255 1.367 . S
C255 H235 0.950 . S
C255 C250 1.386 . S
C255 C254 1.367 . S
C256 C250 1.483 . S
C256 C257 1.382 1_556 S
C256 C258 1.403 . S
C257 H236 0.950 . S
C257 C256 1.382 1_554 S
C257 C273 1.411 . S
C258 C256 1.403 . S
C258 C259 1.489 . S
C258 C272 1.411 1_556 S
C259 C258 1.489 . S
C259 C260 1.383 . S
C259 C264 1.382 . S
C260 H237 0.950 . S
C260 C259 1.383 . S
C260 C261 1.395 . S
C261 H238 0.950 . S
C261 C260 1.395 . S
C261 C262 1.288 . S
C262 C261 1.288 . S
C262 C263 1.392 . S
C263 H239 0.951 . S
C263 C262 1.392 . S
C263 C264 1.392 . S
C264 H240 0.949 . S
C264 C259 1.382 . S
C264 C263 1.392 . S
C265 C266 1.376 . S
C265 C270 1.386 . S
C265 C271 1.483 . S
C266 H241 0.949 . S
C266 C265 1.376 . S
C266 C267 1.397 . S
C267 H242 0.950 . S
C267 C266 1.397 . S
C267 C268 1.391 . S
C268 C267 1.391 . S
C268 C269 1.405 . S
C269 H243 0.950 . S
C269 C268 1.405 . S
C269 C270 1.367 . S
C270 H244 0.950 . S
C270 C265 1.386 . S
C270 C269 1.367 . S
C271 C265 1.483 . S
C271 C272 1.382 . S
C271 C273 1.403 . S
C272 H245 0.950 . S
C272 C258 1.411 1_554 S
C272 C271 1.382 . S
C273 C257 1.411 . S
C273 C271 1.403 . S
C273 C274 1.489 . S
C274 C273 1.489 . S
C274 C275 1.383 . S
C274 C279 1.382 . S
C275 H246 0.950 . S
C275 C274 1.383 . S
C275 C276 1.395 . S
C276 H247 0.950 . S
C276 C275 1.395 . S
C276 C277 1.288 . S
C277 C276 1.288 . S
C277 C278 1.392 . S
C278 H248 0.951 . S
C278 C277 1.392 . S
C278 C279 1.392 . S
C279 H249 0.949 . S
C279 C274 1.382 . S
C279 C278 1.392 . S
H280 C299 0.949 . S
H281 C300 0.950 . S
H282 C302 0.950 . S
H283 C303 0.950 . S
H284 C305 0.950 . S
H285 C308 0.950 . S
H286 C309 0.950 . S
H287 C311 0.951 . S
H288 C312 0.949 . S
H289 C314 0.949 . S
H290 C315 0.950 . S
H291 C317 0.950 . S
H292 C318 0.950 . S
H293 C320 0.950 . S
H294 C323 0.950 . S
H295 C324 0.950 . S
H296 C326 0.951 . S
H297 C327 0.949 . S
C298 C299 1.376 . S
C298 C303 1.386 . S
C298 C304 1.483 . S
C299 H280 0.949 . S
C299 C298 1.376 . S
C299 C300 1.397 . S
C300 H281 0.950 . S
C300 C299 1.397 . S
C300 C301 1.391 . S
C301 C300 1.391 . S
C301 C302 1.405 . S
C302 H282 0.950 . S
C302 C301 1.405 . S
C302 C303 1.367 . S
C303 H283 0.950 . S
C303 C298 1.386 . S
C303 C302 1.367 . S
C304 C298 1.483 . S
C304 C305 1.382 1_565 S
C304 C306 1.403 . S
C305 H284 0.950 . S
C305 C304 1.382 1_545 S
C305 C321 1.411 . S
C306 C304 1.403 . S
C306 C307 1.489 . S
C306 C320 1.411 1_565 S
C307 C306 1.489 . S
C307 C308 1.383 . S
C307 C312 1.382 . S
C308 H285 0.950 . S
C308 C307 1.383 . S
C308 C309 1.395 . S
C309 H286 0.950 . S
C309 C308 1.395 . S
C309 C310 1.288 . S
C310 C309 1.288 . S
C310 C311 1.392 . S
C311 H287 0.951 . S
C311 C310 1.392 . S
C311 C312 1.392 . S
C312 H288 0.949 . S
C312 C307 1.382 . S
C312 C311 1.392 . S
C313 C314 1.376 . S
C313 C318 1.386 . S
C313 C319 1.483 . S
C314 H289 0.949 . S
C314 C313 1.376 . S
C314 C315 1.397 . S
C315 H290 0.950 . S
C315 C314 1.397 . S
C315 C316 1.391 . S
C316 C315 1.391 . S
C316 C317 1.405 . S
C317 H291 0.950 . S
C317 C316 1.405 . S
C317 C318 1.367 . S
C318 H292 0.950 . S
C318 C313 1.386 . S
C318 C317 1.367 . S
C319 C313 1.483 . S
C319 C320 1.382 . S
C319 C321 1.403 . S
C320 H293 0.950 . S
C320 C306 1.411 1_545 S
C320 C319 1.382 . S
C321 C305 1.411 . S
C321 C319 1.403 . S
C321 C322 1.489 . S
C322 C321 1.489 . S
C322 C323 1.383 . S
C322 C327 1.382 . S
C323 H294 0.950 . S
C323 C322 1.383 . S
C323 C324 1.395 . S
C324 H295 0.950 . S
C324 C323 1.395 . S
C324 C325 1.288 . S
C325 C324 1.288 . S
C325 C326 1.392 . S
C326 H296 0.951 . S
C326 C325 1.392 . S
C326 C327 1.392 . S
C327 H297 0.949 . S
C327 C322 1.382 . S
C327 C326 1.392 . S
H328 C347 0.949 . S
H329 C348 0.950 . S
H330 C350 0.950 . S
H331 C351 0.950 . S
H332 C353 0.950 . S
H333 C356 0.950 . S
H334 C357 0.950 . S
H335 C359 0.951 . S
H336 C360 0.949 . S
H337 C362 0.949 . S
H338 C363 0.950 . S
H339 C365 0.950 . S
H340 C366 0.950 . S
H341 C368 0.950 . S
H342 C371 0.950 . S
H343 C372 0.950 . S
H344 C374 0.951 . S
H345 C375 0.949 . S
C346 C347 1.376 . S
C346 C351 1.386 . S
C346 C352 1.483 . S
C347 H328 0.949 . S
C347 C346 1.376 . S
C347 C348 1.397 . S
C348 H329 0.950 . S
C348 C347 1.397 . S
C348 C349 1.391 . S
C349 C348 1.391 . S
C349 C350 1.405 . S
C350 H330 0.950 . S
C350 C349 1.405 . S
C350 C351 1.367 . S
C351 H331 0.950 . S
C351 C346 1.386 . S
C351 C350 1.367 . S
C352 C346 1.483 . S
C352 C353 1.382 1_556 S
C352 C354 1.403 . S
C353 H332 0.950 . S
C353 C352 1.382 1_554 S
C353 C369 1.411 . S
C354 C352 1.403 . S
C354 C355 1.489 . S
C354 C368 1.411 1_556 S
C355 C354 1.489 . S
C355 C356 1.383 . S
C355 C360 1.382 . S
C356 H333 0.950 . S
C356 C355 1.383 . S
C356 C357 1.395 . S
C357 H334 0.950 . S
C357 C356 1.395 . S
C357 C358 1.288 . S
C358 C357 1.288 . S
C358 C359 1.392 . S
C359 H335 0.951 . S
C359 C358 1.392 . S
C359 C360 1.392 . S
C360 H336 0.949 . S
C360 C355 1.382 . S
C360 C359 1.392 . S
C361 C362 1.376 . S
C361 C366 1.386 . S
C361 C367 1.483 . S
C362 H337 0.949 . S
C362 C361 1.376 . S
C362 C363 1.397 . S
C363 H338 0.950 . S
C363 C362 1.397 . S
C363 C364 1.391 . S
C364 C363 1.391 . S
C364 C365 1.405 . S
C365 H339 0.950 . S
C365 C364 1.405 . S
C365 C366 1.367 . S
C366 H340 0.950 . S
C366 C361 1.386 . S
C366 C365 1.367 . S
C367 C361 1.483 . S
C367 C368 1.382 . S
C367 C369 1.403 . S
C368 H341 0.950 . S
C368 C354 1.411 1_554 S
C368 C367 1.382 . S
C369 C353 1.411 . S
C369 C367 1.403 . S
C369 C370 1.489 . S
C370 C369 1.489 . S
C370 C371 1.383 . S
C370 C375 1.382 . S
C371 H342 0.950 . S
C371 C370 1.383 . S
C371 C372 1.395 . S
C372 H343 0.950 . S
C372 C371 1.395 . S
C372 C373 1.288 . S
C373 C372 1.288 . S
C373 C374 1.392 . S
C374 H344 0.951 . S
C374 C373 1.392 . S
C374 C375 1.392 . S
C375 H345 0.949 . S
C375 C370 1.382 . S
C375 C374 1.392 . S
H376 C382 0.930 . S
H377 C386 0.930 . S
H378 C391 0.929 . S
H379 C389 0.929 . S
H380 C384 0.929 . S
H381 C390 0.929 . S
C382 H376 0.930 . S
C382 C383 1.367 . S
C382 C390 1.378 . S
C383 C382 1.367 . S
C383 C391 1.433 . S
C384 H380 0.929 . S
C384 C386 1.378 . S
C384 C388 1.350 . S
C385 C388 1.463 . S
C385 C390 1.350 . S
C385 N393 1.427 . S
C386 H377 0.930 . S
C386 C384 1.378 . S
C386 C387 1.367 . S
C387 C386 1.367 . S
C387 C389 1.433 . S
C388 C384 1.350 . S
C388 C385 1.463 . S
C388 N392 1.427 . S
C389 H379 0.929 . S
C389 C387 1.433 . S
C389 N392 1.384 . S
C390 H381 0.929 . S
C390 C382 1.378 . S
C390 C385 1.350 . S
C391 H378 0.929 . S
C391 C383 1.433 . S
C391 N393 1.384 . S
N392 C388 1.427 . S
N392 C389 1.384 . S
N393 C385 1.427 . S
N393 C391 1.384 . S
H394 C400 0.930 . S
H395 C404 0.930 . S
H396 C409 0.929 . S
H397 C407 0.929 . S
H398 C402 0.929 . S
H399 C408 0.929 . S
C400 H394 0.930 . S
C400 C401 1.367 . S
C400 C408 1.378 . S
C401 C400 1.367 . S
C401 C409 1.433 . S
C402 H398 0.929 . S
C402 C404 1.378 . S
C402 C406 1.350 . S
C403 C406 1.463 . S
C403 C408 1.350 . S
C403 N411 1.427 . S
C404 H395 0.930 . S
C404 C402 1.378 . S
C404 C405 1.367 . S
C405 C404 1.367 . S
C405 C407 1.433 . S
C406 C402 1.350 . S
C406 C403 1.463 . S
C406 N410 1.427 . S
C407 H397 0.929 . S
C407 C405 1.433 . S
C407 N410 1.384 . S
C408 H399 0.929 . S
C408 C400 1.378 . S
C408 C403 1.350 . S
C409 H396 0.929 . S
C409 C401 1.433 . S
C409 N411 1.384 . S
N410 C406 1.427 . S
N410 C407 1.384 . S
N411 C403 1.427 . S
N411 C409 1.384 . S
H412 C418 0.930 . S
H413 C422 0.930 . S
H414 C427 0.929 . S
H415 C425 0.929 . S
H416 C420 0.929 . S
H417 C426 0.929 . S
C418 H412 0.930 . S
C418 C419 1.367 . S
C418 C426 1.378 . S
C419 C418 1.367 . S
C419 C427 1.433 . S
C420 H416 0.929 . S
C420 C422 1.378 . S
C420 C424 1.350 . S
C421 C424 1.463 . S
C421 C426 1.350 . S
C421 N429 1.427 . S
C422 H413 0.930 . S
C422 C420 1.378 . S
C422 C423 1.367 . S
C423 C422 1.367 . S
C423 C425 1.433 . S
C424 C420 1.350 . S
C424 C421 1.463 . S
C424 N428 1.427 . S
C425 H415 0.929 . S
C425 C423 1.433 . S
C425 N428 1.384 . S
C426 H417 0.929 . S
C426 C418 1.378 . S
C426 C421 1.350 . S
C427 H414 0.929 . S
C427 C419 1.433 . S
C427 N429 1.384 . S
N428 C424 1.427 . S
N428 C425 1.384 . S
N429 C421 1.427 . S
N429 C427 1.384 . S
H430 C436 0.930 . S
H431 C440 0.930 . S
H432 C445 0.929 . S
H433 C443 0.929 . S
H434 C438 0.929 . S
H435 C444 0.929 . S
C436 H430 0.930 . S
C436 C437 1.367 . S
C436 C444 1.378 . S
C437 C436 1.367 . S
C437 C445 1.433 . S
C438 H434 0.929 . S
C438 C440 1.378 . S
C438 C442 1.350 . S
C439 C442 1.463 . S
C439 C444 1.350 . S
C439 N447 1.427 . S
C440 H431 0.930 . S
C440 C438 1.378 . S
C440 C441 1.367 . S
C441 C440 1.367 . S
C441 C443 1.433 . S
C442 C438 1.350 . S
C442 C439 1.463 . S
C442 N446 1.427 . S
C443 H433 0.929 . S
C443 C441 1.433 . S
C443 N446 1.384 . S
C444 H435 0.929 . S
C444 C436 1.378 . S
C444 C439 1.350 . S
C445 H432 0.929 . S
C445 C437 1.433 . S
C445 N447 1.384 . S
N446 C442 1.427 . S
N446 C443 1.384 . S
N447 C439 1.427 . S
N447 C445 1.384 . S
H448 C454 0.930 . S
H449 C458 0.930 . S
H450 C463 0.929 . S
H451 C461 0.929 . S
H452 C456 0.929 . S
H453 C462 0.929 . S
C454 H448 0.930 . S
C454 C455 1.367 . S
C454 C462 1.378 . S
C455 C454 1.367 . S
C455 C463 1.433 . S
C456 H452 0.929 . S
C456 C458 1.378 . S
C456 C460 1.350 . S
C457 C460 1.463 . S
C457 C462 1.350 . S
C457 N465 1.427 . S
C458 H449 0.930 . S
C458 C456 1.378 . S
C458 C459 1.367 . S
C459 C458 1.367 . S
C459 C461 1.433 . S
C460 C456 1.350 . S
C460 C457 1.463 . S
C460 N464 1.427 . S
C461 H451 0.929 . S
C461 C459 1.433 . S
C461 N464 1.384 . S
C462 H453 0.929 . S
C462 C454 1.378 . S
C462 C457 1.350 . S
C463 H450 0.929 . S
C463 C455 1.433 . S
C463 N465 1.384 . S
N464 C460 1.427 . S
N464 C461 1.384 . S
N465 C457 1.427 . S
N465 C463 1.384 . S
H466 C472 0.930 . S
H467 C476 0.930 . S
H468 C481 0.929 . S
H469 C479 0.929 . S
H470 C474 0.929 . S
H471 C480 0.929 . S
C472 H466 0.930 . S
C472 C473 1.367 . S
C472 C480 1.378 . S
C473 C472 1.367 . S
C473 C481 1.433 . S
C474 H470 0.929 . S
C474 C476 1.378 . S
C474 C478 1.350 . S
C475 C478 1.463 . S
C475 C480 1.350 . S
C475 N483 1.427 . S
C476 H467 0.930 . S
C476 C474 1.378 . S
C476 C477 1.367 . S
C477 C476 1.367 . S
C477 C479 1.433 . S
C478 C474 1.350 . S
C478 C475 1.463 . S
C478 N482 1.427 . S
C479 H469 0.929 . S
C479 C477 1.433 . S
C479 N482 1.384 . S
C480 H471 0.929 . S
C480 C472 1.378 . S
C480 C475 1.350 . S
C481 H468 0.929 . S
C481 C473 1.433 . S
C481 N483 1.384 . S
N482 C478 1.427 . S
N482 C479 1.384 . S
N483 C475 1.427 . S
N483 C481 1.384 . S
H484 C490 0.930 . S
H485 C494 0.930 . S
H486 C499 0.929 . S
H487 C497 0.929 . S
H488 C492 0.929 . S
H489 C498 0.929 . S
C490 H484 0.930 . S
C490 C491 1.367 . S
C490 C498 1.378 . S
C491 C490 1.367 . S
C491 C499 1.433 . S
C492 H488 0.929 . S
C492 C494 1.378 . S
C492 C496 1.350 . S
C493 C496 1.463 . S
C493 C498 1.350 . S
C493 N501 1.427 . S
C494 H485 0.930 . S
C494 C492 1.378 . S
C494 C495 1.367 . S
C495 C494 1.367 . S
C495 C497 1.433 . S
C496 C492 1.350 . S
C496 C493 1.463 . S
C496 N500 1.427 . S
C497 H487 0.929 . S
C497 C495 1.433 . S
C497 N500 1.384 . S
C498 H489 0.929 . S
C498 C490 1.378 . S
C498 C493 1.350 . S
C499 H486 0.929 . S
C499 C491 1.433 . S
C499 N501 1.384 . S
N500 C496 1.427 . S
N500 C497 1.384 . S
N501 C493 1.427 . S
N501 C499 1.384 . S
H502 C508 0.930 . S
H503 C512 0.930 . S
H504 C517 0.929 . S
H505 C515 0.929 . S
H506 C510 0.929 . S
H507 C516 0.929 . S
C508 H502 0.930 . S
C508 C509 1.367 . S
C508 C516 1.378 . S
C509 C508 1.367 . S
C509 C517 1.433 . S
C510 H506 0.929 . S
C510 C512 1.378 . S
C510 C514 1.350 . S
C511 C514 1.463 . S
C511 C516 1.350 . S
C511 N519 1.427 . S
C512 H503 0.930 . S
C512 C510 1.378 . S
C512 C513 1.367 . S
C513 C512 1.367 . S
C513 C515 1.433 . S
C514 C510 1.350 . S
C514 C511 1.463 . S
C514 N518 1.427 . S
C515 H505 0.929 . S
C515 C513 1.433 . S
C515 N518 1.384 . S
C516 H507 0.929 . S
C516 C508 1.378 . S
C516 C511 1.350 . S
C517 H504 0.929 . S
C517 C509 1.433 . S
C517 N519 1.384 . S
N518 C514 1.427 . S
N518 C515 1.384 . S
N519 C511 1.427 . S
N519 C517 1.384 . S
H520 C526 0.930 . S
H521 C530 0.930 . S
H522 C535 0.929 . S
H523 C533 0.929 . S
H524 C528 0.929 . S
H525 C534 0.929 . S
C526 H520 0.930 . S
C526 C527 1.367 . S
C526 C534 1.378 . S
C527 C526 1.367 . S
C527 C535 1.433 . S
C528 H524 0.929 . S
C528 C530 1.378 1_565 S
C528 C532 1.350 . S
C529 C532 1.463 . S
C529 C534 1.350 . S
C529 N537 1.427 . S
C530 H521 0.930 . S
C530 C528 1.378 1_545 S
C530 C531 1.367 . S
C531 C530 1.367 . S
C531 C533 1.433 1_545 S
C532 C528 1.350 . S
C532 C529 1.463 . S
C532 N536 1.427 . S
C533 H523 0.929 . S
C533 C531 1.433 1_565 S
C533 N536 1.384 . S
C534 H525 0.929 . S
C534 C526 1.378 . S
C534 C529 1.350 . S
C535 H522 0.929 . S
C535 C527 1.433 . S
C535 N537 1.384 . S
N536 C532 1.427 . S
N536 C533 1.384 . S
N537 C529 1.427 . S
N537 C535 1.384 . S
H538 C544 0.930 . S
H539 C548 0.930 . S
H540 C553 0.929 . S
H541 C551 0.929 . S
H542 C546 0.929 . S
H543 C552 0.929 . S
C544 H538 0.930 . S
C544 C545 1.367 . S
C544 C552 1.378 . S
C545 C544 1.367 . S
C545 C553 1.433 . S
C546 H542 0.929 . S
C546 C548 1.378 . S
C546 C550 1.350 . S
C547 C550 1.463 . S
C547 C552 1.350 . S
C547 N555 1.427 . S
C548 H539 0.930 . S
C548 C546 1.378 . S
C548 C549 1.367 . S
C549 C548 1.367 . S
C549 C551 1.433 . S
C550 C546 1.350 . S
C550 C547 1.463 . S
C550 N554 1.427 . S
C551 H541 0.929 . S
C551 C549 1.433 . S
C551 N554 1.384 . S
C552 H543 0.929 . S
C552 C544 1.378 . S
C552 C547 1.350 . S
C553 H540 0.929 . S
C553 C545 1.433 . S
C553 N555 1.384 . S
N554 C550 1.427 . S
N554 C551 1.384 . S
N555 C547 1.427 . S
N555 C553 1.384 . S
H556 C562 0.930 . S
H557 C566 0.930 . S
H558 C571 0.929 . S
H559 C569 0.929 . S
H560 C564 0.929 . S
H561 C570 0.929 . S
C562 H556 0.930 . S
C562 C563 1.367 . S
C562 C570 1.378 . S
C563 C562 1.367 . S
C563 C571 1.433 . S
C564 H560 0.929 . S
C564 C566 1.378 . S
C564 C568 1.350 . S
C565 C568 1.463 . S
C565 C570 1.350 . S
C565 N573 1.427 . S
C566 H557 0.930 . S
C566 C564 1.378 . S
C566 C567 1.367 . S
C567 C566 1.367 . S
C567 C569 1.433 . S
C568 C564 1.350 . S
C568 C565 1.463 . S
C568 N572 1.427 . S
C569 H559 0.929 . S
C569 C567 1.433 . S
C569 N572 1.384 . S
C570 H561 0.929 . S
C570 C562 1.378 . S
C570 C565 1.350 . S
C571 H558 0.929 . S
C571 C563 1.433 . S
C571 N573 1.384 . S
N572 C568 1.427 . S
N572 C569 1.384 . S
N573 C565 1.427 . S
N573 C571 1.384 . S
H574 C580 0.930 . S
H575 C584 0.930 . S
H576 C589 0.929 . S
H577 C587 0.929 . S
H578 C582 0.929 . S
H579 C588 0.929 . S
C580 H574 0.930 . S
C580 C581 1.367 . S
C580 C588 1.378 . S
C581 C580 1.367 . S
C581 C589 1.433 . S
C582 H578 0.929 . S
C582 C584 1.378 . S
C582 C586 1.350 . S
C583 C586 1.463 . S
C583 C588 1.350 . S
C583 N591 1.427 . S
C584 H575 0.930 . S
C584 C582 1.378 . S
C584 C585 1.367 . S
C585 C584 1.367 . S
C585 C587 1.433 . S
C586 C582 1.350 . S
C586 C583 1.463 . S
C586 N590 1.427 . S
C587 H577 0.929 . S
C587 C585 1.433 . S
C587 N590 1.384 . S
C588 H579 0.929 . S
C588 C580 1.378 . S
C588 C583 1.350 . S
C589 H576 0.929 . S
C589 C581 1.433 . S
C589 N591 1.384 . S
N590 C586 1.427 . S
N590 C587 1.384 . S
N591 C583 1.427 . S
N591 C589 1.384 . S
H592 C598 0.930 . S
H593 C602 0.930 . S
H594 C607 0.929 . S
H595 C605 0.929 . S
H596 C600 0.929 . S
H597 C606 0.929 . S
C598 H592 0.930 . S
C598 C599 1.367 . S
C598 C606 1.378 . S
C599 C598 1.367 . S
C599 C607 1.433 . S
C600 H596 0.929 . S
C600 C602 1.378 . S
C600 C604 1.350 . S
C601 C604 1.463 . S
C601 C606 1.350 . S
C601 N609 1.427 . S
C602 H593 0.930 . S
C602 C600 1.378 . S
C602 C603 1.367 . S
C603 C602 1.367 . S
C603 C605 1.433 . S
C604 C600 1.350 . S
C604 C601 1.463 . S
C604 N608 1.427 . S
C605 H595 0.929 . S
C605 C603 1.433 . S
C605 N608 1.384 . S
C606 H597 0.929 . S
C606 C598 1.378 . S
C606 C601 1.350 . S
C607 H594 0.929 . S
C607 C599 1.433 . S
C607 N609 1.384 . S
N608 C604 1.427 . S
N608 C605 1.384 . S
N609 C601 1.427 . S
N609 C607 1.384 . S
H610 C616 0.930 . S
H611 C620 0.930 . S
H612 C625 0.929 . S
H613 C623 0.929 . S
H614 C618 0.929 . S
H615 C624 0.929 . S
C616 H610 0.930 . S
C616 C617 1.367 . S
C616 C624 1.378 . S
C617 C616 1.367 . S
C617 C625 1.433 . S
C618 H614 0.929 . S
C618 C620 1.378 . S
C618 C622 1.350 . S
C619 C622 1.463 . S
C619 C624 1.350 . S
C619 N627 1.427 . S
C620 H611 0.930 . S
C620 C618 1.378 . S
C620 C621 1.367 . S
C621 C620 1.367 . S
C621 C623 1.433 . S
C622 C618 1.350 . S
C622 C619 1.463 . S
C622 N626 1.427 . S
C623 H613 0.929 . S
C623 C621 1.433 . S
C623 N626 1.384 . S
C624 H615 0.929 . S
C624 C616 1.378 . S
C624 C619 1.350 . S
C625 H612 0.929 . S
C625 C617 1.433 . S
C625 N627 1.384 . S
N626 C622 1.427 . S
N626 C623 1.384 . S
N627 C619 1.427 . S
N627 C625 1.384 . S
H628 C634 0.930 . S
H629 C638 0.930 . S
H630 C643 0.929 . S
H631 C641 0.929 . S
H632 C636 0.929 . S
H633 C642 0.929 . S
C634 H628 0.930 . S
C634 C635 1.367 . S
C634 C642 1.378 . S
C635 C634 1.367 . S
C635 C643 1.433 . S
C636 H632 0.929 . S
C636 C638 1.378 . S
C636 C640 1.350 . S
C637 C640 1.463 . S
C637 C642 1.350 . S
C637 N645 1.427 . S
C638 H629 0.930 . S
C638 C636 1.378 . S
C638 C639 1.367 . S
C639 C638 1.367 . S
C639 C641 1.433 . S
C640 C636 1.350 . S
C640 C637 1.463 . S
C640 N644 1.427 . S
C641 H631 0.929 . S
C641 C639 1.433 . S
C641 N644 1.384 . S
C642 H633 0.929 . S
C642 C634 1.378 . S
C642 C637 1.350 . S
C643 H630 0.929 . S
C643 C635 1.433 . S
C643 N645 1.384 . S
N644 C640 1.427 . S
N644 C641 1.384 . S
N645 C637 1.427 . S
N645 C643 1.384 . S
H646 C652 0.930 . S
H647 C656 0.930 . S
H648 C661 0.929 . S
H649 C659 0.929 . S
H650 C654 0.929 . S
H651 C660 0.929 . S
C652 H646 0.930 . S
C652 C653 1.367 . S
C652 C660 1.378 . S
C653 C652 1.367 . S
C653 C661 1.433 . S
C654 H650 0.929 . S
C654 C656 1.378 . S
C654 C658 1.350 . S
C655 C658 1.463 . S
C655 C660 1.350 . S
C655 N663 1.427 . S
C656 H647 0.930 . S
C656 C654 1.378 . S
C656 C657 1.367 . S
C657 C656 1.367 . S
C657 C659 1.433 . S
C658 C654 1.350 . S
C658 C655 1.463 . S
C658 N662 1.427 . S
C659 H649 0.929 . S
C659 C657 1.433 . S
C659 N662 1.384 . S
C660 H651 0.929 . S
C660 C652 1.378 . S
C660 C655 1.350 . S
C661 H648 0.929 . S
C661 C653 1.433 . S
C661 N663 1.384 . S
N662 C658 1.427 . S
N662 C659 1.384 . S
N663 C655 1.427 . S
N663 C661 1.384 . S
H664 C670 0.930 . S
H665 C674 0.930 . S
H666 C679 0.929 . S
H667 C677 0.929 . S
H668 C672 0.929 . S
H669 C678 0.929 . S
C670 H664 0.930 . S
C670 C671 1.367 . S
C670 C678 1.378 . S
C671 C670 1.367 . S
C671 C679 1.433 . S
C672 H668 0.929 . S
C672 C674 1.378 . S
C672 C676 1.350 . S
C673 C676 1.463 . S
C673 C678 1.350 . S
C673 N681 1.427 . S
C674 H665 0.930 . S
C674 C672 1.378 . S
C674 C675 1.367 . S
C675 C674 1.367 . S
C675 C677 1.433 . S
C676 C672 1.350 . S
C676 C673 1.463 . S
C676 N680 1.427 . S
C677 H667 0.929 . S
C677 C675 1.433 . S
C677 N680 1.384 . S
C678 H669 0.929 . S
C678 C670 1.378 . S
C678 C673 1.350 . S
C679 H666 0.929 . S
C679 C671 1.433 . S
C679 N681 1.384 . S
N680 C676 1.427 . S
N680 C677 1.384 . S
N681 C673 1.427 . S
N681 C679 1.384 . S
H682 C688 0.930 . S
H683 C692 0.930 . S
H684 C697 0.929 . S
H685 C695 0.929 . S
H686 C690 0.929 . S
H687 C696 0.929 . S
C688 H682 0.930 . S
C688 C689 1.367 . S
C688 C696 1.378 . S
C689 C688 1.367 . S
C689 C697 1.433 . S
C690 H686 0.929 . S
C690 C692 1.378 . S
C690 C694 1.350 . S
C691 C694 1.463 . S
C691 C696 1.350 . S
C691 N699 1.427 . S
C692 H683 0.930 . S
C692 C690 1.378 . S
C692 C693 1.367 . S
C693 C692 1.367 . S
C693 C695 1.433 . S
C694 C690 1.350 . S
C694 C691 1.463 . S
C694 N698 1.427 . S
C695 H685 0.929 . S
C695 C693 1.433 . S
C695 N698 1.384 . S
C696 H687 0.929 . S
C696 C688 1.378 . S
C696 C691 1.350 . S
C697 H684 0.929 . S
C697 C689 1.433 . S
C697 N699 1.384 . S
N698 C694 1.427 . S
N698 C695 1.384 . S
N699 C691 1.427 . S
N699 C697 1.384 . S
H700 C706 0.930 . S
H701 C710 0.930 . S
H702 C715 0.929 . S
H703 C713 0.929 . S
H704 C708 0.929 . S
H705 C714 0.929 . S
C706 H700 0.930 . S
C706 C707 1.367 . S
C706 C714 1.378 . S
C707 C706 1.367 . S
C707 C715 1.433 . S
C708 H704 0.929 . S
C708 C710 1.378 . S
C708 C712 1.350 . S
C709 C712 1.463 . S
C709 C714 1.350 . S
C709 N717 1.427 . S
C710 H701 0.930 . S
C710 C708 1.378 . S
C710 C711 1.367 . S
C711 C710 1.367 . S
C711 C713 1.433 . S
C712 C708 1.350 . S
C712 C709 1.463 . S
C712 N716 1.427 . S
C713 H703 0.929 . S
C713 C711 1.433 . S
C713 N716 1.384 . S
C714 H705 0.929 . S
C714 C706 1.378 . S
C714 C709 1.350 . S
C715 H702 0.929 . S
C715 C707 1.433 . S
C715 N717 1.384 . S
N716 C712 1.427 . S
N716 C713 1.384 . S
N717 C709 1.427 . S
N717 C715 1.384 . S
H718 C724 0.930 . S
H719 C728 0.930 . S
H720 C733 0.929 . S
H721 C731 0.929 . S
H722 C726 0.929 . S
H723 C732 0.929 . S
C724 H718 0.930 . S
C724 C725 1.367 . S
C724 C732 1.378 . S
C725 C724 1.367 . S
C725 C733 1.433 . S
C726 H722 0.929 . S
C726 C728 1.378 . S
C726 C730 1.350 . S
C727 C730 1.463 . S
C727 C732 1.350 . S
C727 N735 1.427 . S
C728 H719 0.930 . S
C728 C726 1.378 . S
C728 C729 1.367 . S
C729 C728 1.367 . S
C729 C731 1.433 . S
C730 C726 1.350 . S
C730 C727 1.463 . S
C730 N734 1.427 . S
C731 H721 0.929 . S
C731 C729 1.433 . S
C731 N734 1.384 . S
C732 H723 0.929 . S
C732 C724 1.378 . S
C732 C727 1.350 . S
C733 H720 0.929 . S
C733 C725 1.433 . S
C733 N735 1.384 . S
N734 C730 1.427 . S
N734 C731 1.384 . S
N735 C727 1.427 . S
N735 C733 1.384 . S
H736 C742 0.930 . S
H737 C746 0.930 . S
H738 C751 0.929 . S
H739 C749 0.929 . S
H740 C744 0.929 . S
H741 C750 0.929 . S
C742 H736 0.930 . S
C742 C743 1.367 . S
C742 C750 1.378 . S
C743 C742 1.367 . S
C743 C751 1.433 . S
C744 H740 0.929 . S
C744 C746 1.378 . S
C744 C748 1.350 . S
C745 C748 1.463 . S
C745 C750 1.350 . S
C745 N753 1.427 . S
C746 H737 0.930 . S
C746 C744 1.378 . S
C746 C747 1.367 . S
C747 C746 1.367 . S
C747 C749 1.433 . S
C748 C744 1.350 . S
C748 C745 1.463 . S
C748 N752 1.427 . S
C749 H739 0.929 . S
C749 C747 1.433 . S
C749 N752 1.384 . S
C750 H741 0.929 . S
C750 C742 1.378 . S
C750 C745 1.350 . S
C751 H738 0.929 . S
C751 C743 1.433 . S
C751 N753 1.384 . S
N752 C748 1.427 . S
N752 C749 1.384 . S
N753 C745 1.427 . S
N753 C751 1.384 . S
H754 C760 0.930 . S
H755 C764 0.930 . S
H756 C769 0.929 . S
H757 C767 0.929 . S
H758 C762 0.929 . S
H759 C768 0.929 . S
C760 H754 0.930 . S
C760 C761 1.367 . S
C760 C768 1.378 . S
C761 C760 1.367 . S
C761 C769 1.433 . S
C762 H758 0.929 . S
C762 C764 1.378 . S
C762 C766 1.350 . S
C763 C766 1.463 . S
C763 C768 1.350 . S
C763 N771 1.427 . S
C764 H755 0.930 . S
C764 C762 1.378 . S
C764 C765 1.367 . S
C765 C764 1.367 . S
C765 C767 1.433 . S
C766 C762 1.350 . S
C766 C763 1.463 . S
C766 N770 1.427 . S
C767 H757 0.929 . S
C767 C765 1.433 . S
C767 N770 1.384 . S
C768 H759 0.929 . S
C768 C760 1.378 . S
C768 C763 1.350 . S
C769 H756 0.929 . S
C769 C761 1.433 . S
C769 N771 1.384 . S
N770 C766 1.427 . S
N770 C767 1.384 . S
N771 C763 1.427 . S
N771 C769 1.384 . S
H772 C778 0.930 . S
H773 C782 0.930 . S
H774 C787 0.929 . S
H775 C785 0.927 1_545 S
H776 C780 0.929 . S
H777 C786 0.929 . S
C778 H772 0.930 . S
C778 C779 1.367 . S
C778 C786 1.378 . S
C779 C778 1.367 . S
C779 C787 1.433 . S
C780 H776 0.929 . S
C780 C782 1.378 1_565 S
C780 C784 1.350 . S
C781 C784 1.463 . S
C781 C786 1.350 . S
C781 N789 1.427 . S
C782 H773 0.930 . S
C782 C780 1.378 1_545 S
C782 C783 1.367 . S
C783 C782 1.367 . S
C783 C785 1.433 1_545 S
C784 C780 1.350 . S
C784 C781 1.463 . S
C784 N788 1.427 . S
C785 H775 0.927 1_565 S
C785 C783 1.433 1_565 S
C785 N788 1.384 . S
C786 H777 0.929 . S
C786 C778 1.378 . S
C786 C781 1.350 . S
C787 H774 0.929 . S
C787 C779 1.433 . S
C787 N789 1.384 . S
N788 C784 1.427 . S
N788 C785 1.384 . S
N789 C781 1.427 . S
N789 C787 1.384 . S
H790 C796 0.930 . S
H791 C800 0.930 . S
H792 C805 0.929 . S
H793 C803 0.929 . S
H794 C798 0.929 . S
H795 C804 0.929 . S
C796 H790 0.930 . S
C796 C797 1.367 . S
C796 C804 1.378 . S
C797 C796 1.367 . S
C797 C805 1.433 . S
C798 H794 0.929 . S
C798 C800 1.378 . S
C798 C802 1.350 . S
C799 C802 1.463 . S
C799 C804 1.350 . S
C799 N807 1.427 . S
C800 H791 0.930 . S
C800 C798 1.378 . S
C800 C801 1.367 . S
C801 C800 1.367 . S
C801 C803 1.433 . S
C802 C798 1.350 . S
C802 C799 1.463 . S
C802 N806 1.427 . S
C803 H793 0.929 . S
C803 C801 1.433 . S
C803 N806 1.384 . S
C804 H795 0.929 . S
C804 C796 1.378 . S
C804 C799 1.350 . S
C805 H792 0.929 . S
C805 C797 1.433 . S
C805 N807 1.384 . S
N806 C802 1.427 . S
N806 C803 1.384 . S
N807 C799 1.427 . S
N807 C805 1.384 . S
C387 C118 1.531 . S
C383 C5 1.368 . S
C405 C157 1.563 . S
C401 C16 1.313 . S
C423 C133 1.702 . S
C419 C30 1.707 . S
C441 C172 1.675 . S
C437 C40 1.620 . S
C459 C220 1.469 . S
C455 C8 1.464 . S
C477 C253 1.490 . S
C473 C18 1.419 . S
C491 C29 1.757 . S
C495 C310 1.787 . S
C513 C358 1.551 . S
C509 C38 1.315 . S
C531 C205 1.433 . S
C527 C19 1.423 . S
C545 C27 1.476 . S
C549 C268 1.632 . S
C567 C325 1.607 . S
C563 C41 1.598 . S
C585 C373 1.545 . S
C581 C7 1.497 . S
C599 C52 1.609 . S
C603 C166 1.623 . S
C621 C109 1.598 . S
C617 C62 1.564 . S
C635 C74 1.430 . S
C639 C181 1.447 . S
C653 C82 1.220 . S
C657 C124 1.412 . S
C675 C301 1.842 . S
C671 C51 1.748 . S
C693 C364 1.610 . S
C689 C60 1.379 . S
C711 C229 1.481 . S
C707 C71 1.251 . S
C725 C84 1.451 . S
C729 C277 1.526 . S
C747 C316 1.715 . S
C743 C63 1.717 . S
C765 C349 1.496 . S
C761 C73 1.439 . S
C783 C214 1.561 . S
C779 C85 1.557 . S
C797 C49 1.367 . S
C801 C262 1.655 . S
