# Generated by pormake.
# Topology the, (3,8)-cn, num edge types: 1
# Building blocks:
#     Node 0, Type 0, BuildingBlock: KAKCAD_clean_linker_0, # of connection points: 3
#     Node 1, Type 0, BuildingBlock: KAKCAD_clean_linker_0, # of connection points: 3
#     Node 2, Type 0, BuildingBlock: KAKCAD_clean_linker_0, # of connection points: 3
#     Node 3, Type 0, BuildingBlock: KAKCAD_clean_linker_0, # of connection points: 3
#     Node 4, Type 0, BuildingBlock: KAKCAD_clean_linker_0, # of connection points: 3
#     Node 5, Type 0, BuildingBlock: KAKCAD_clean_linker_0, # of connection points: 3
#     Node 6, Type 0, BuildingBlock: KAKCAD_clean_linker_0, # of connection points: 3
#     Node 7, Type 0, BuildingBlock: KAKCAD_clean_linker_0, # of connection points: 3
#     Node 8, Type 1, BuildingBlock: GIZVER_clean_sbu_0, # of connection points: 8
#     Node 9, Type 1, BuildingBlock: GIZVER_clean_sbu_0, # of connection points: 8
#     Node 10, Type 1, BuildingBlock: GIZVER_clean_sbu_0, # of connection points: 8
#     Edge 11, Type (0, 1), BuildingBlock: OJICUG_clean_linker_0, # of connection points: 2
#     Edge 12, Type (0, 1), BuildingBlock: OJICUG_clean_linker_0, # of connection points: 2
#     Edge 13, Type (0, 1), BuildingBlock: OJICUG_clean_linker_0, # of connection points: 2
#     Edge 14, Type (0, 1), BuildingBlock: OJICUG_clean_linker_0, # of connection points: 2
#     Edge 15, Type (0, 1), BuildingBlock: OJICUG_clean_linker_0, # of connection points: 2
#     Edge 16, Type (0, 1), BuildingBlock: OJICUG_clean_linker_0, # of connection points: 2
#     Edge 17, Type (0, 1), BuildingBlock: OJICUG_clean_linker_0, # of connection points: 2
#     Edge 18, Type (0, 1), BuildingBlock: OJICUG_clean_linker_0, # of connection points: 2
#     Edge 19, Type (0, 1), BuildingBlock: OJICUG_clean_linker_0, # of connection points: 2
#     Edge 20, Type (0, 1), BuildingBlock: OJICUG_clean_linker_0, # of connection points: 2
#     Edge 21, Type (0, 1), BuildingBlock: OJICUG_clean_linker_0, # of connection points: 2
#     Edge 22, Type (0, 1), BuildingBlock: OJICUG_clean_linker_0, # of connection points: 2
#     Edge 23, Type (0, 1), BuildingBlock: OJICUG_clean_linker_0, # of connection points: 2
#     Edge 24, Type (0, 1), BuildingBlock: OJICUG_clean_linker_0, # of connection points: 2
#     Edge 25, Type (0, 1), BuildingBlock: OJICUG_clean_linker_0, # of connection points: 2
#     Edge 26, Type (0, 1), BuildingBlock: OJICUG_clean_linker_0, # of connection points: 2
#     Edge 27, Type (0, 1), BuildingBlock: OJICUG_clean_linker_0, # of connection points: 2
#     Edge 28, Type (0, 1), BuildingBlock: OJICUG_clean_linker_0, # of connection points: 2
#     Edge 29, Type (0, 1), BuildingBlock: OJICUG_clean_linker_0, # of connection points: 2
#     Edge 30, Type (0, 1), BuildingBlock: OJICUG_clean_linker_0, # of connection points: 2
#     Edge 31, Type (0, 1), BuildingBlock: OJICUG_clean_linker_0, # of connection points: 2
#     Edge 32, Type (0, 1), BuildingBlock: OJICUG_clean_linker_0, # of connection points: 2
#     Edge 33, Type (0, 1), BuildingBlock: OJICUG_clean_linker_0, # of connection points: 2
#     Edge 34, Type (0, 1), BuildingBlock: OJICUG_clean_linker_0, # of connection points: 2
# Relax obj value: 0.048
# Max RMSD: 0.138
# Mean RMSD: 0.073
data_MOF--net-the--node1-GIZVER_clean_sbu_0--node2-KAKCAD_clean_linker_0--edge1-OJICUG_clean_linker_0
_symmetry_space_group_name_H-M    P1
_symmetry_Int_Tables_number       1
_symmetry_cell_setting            triclinic
loop_
_symmetry_equiv_pos_as_xyz
'x, y, z'
_cell_length_a     39.876169
_cell_length_b     37.539993
_cell_length_c     34.471675
_cell_angle_alpha  86.571325
_cell_angle_beta   95.687317
_cell_angle_gamma 104.51359
loop_
_atom_site_label
_atom_site_type_symbol
_atom_site_fract_x
_atom_site_fract_y
_atom_site_fract_z
_atom_type_partial_charge
C0 C 0.34327 0.37756 0.25725 0.0
C1 C 0.35445 0.41615 0.25454 0.0
C2 C 0.33331 0.35962 0.29235 0.0
C3 C 0.33432 0.37984 0.32559 0.0
C4 C 0.34425 0.41849 0.32267 0.0
C5 C 0.35438 0.43651 0.28745 0.0
C6 C 0.32601 0.36035 0.36336 0.0
C7 C 0.33937 0.3299 0.37532 0.0
C8 C 0.33064 0.31023 0.41024 0.0
C9 C 0.30871 0.32144 0.43368 0.0
C10 C 0.29479 0.35157 0.42192 0.0
C11 C 0.30385 0.37115 0.38686 0.0
C12 C 0.26851 0.36077 0.44432 0.0
C13 C 0.24159 0.33271 0.45851 0.0
C14 C 0.2685 0.39766 0.44884 0.0
C15 C 0.24099 0.40635 0.46491 0.0
C16 C 0.21303 0.37831 0.47705 0.0
C17 C 0.34322 0.27697 0.42123 0.0
C18 C 0.34047 0.25024 0.39354 0.0
C19 C 0.35813 0.2718 0.45913 0.0
C20 C 0.37104 0.24082 0.4688 0.0
C21 C 0.36883 0.21443 0.44082 0.0
C22 C 0.35306 0.21918 0.40328 0.0
C23 C 0.21415 0.34141 0.47484 0.0
H24 H 0.34347 0.36102 0.23262 0.0
H25 H 0.32526 0.32982 0.29363 0.0
H26 H 0.34525 0.43471 0.3479 0.0
H27 H 0.3627 0.46629 0.28614 0.0
H28 H 0.35679 0.32154 0.35748 0.0
H29 H 0.29236 0.39371 0.37685 0.0
H30 H 0.3017 0.30602 0.46052 0.0
H31 H 0.24076 0.30398 0.45524 0.0
H32 H 0.28919 0.41984 0.4387 0.0
H33 H 0.2408 0.43509 0.46583 0.0
H34 H 0.32865 0.25343 0.36427 0.0
H35 H 0.36052 0.29211 0.48094 0.0
H36 H 0.1932 0.31925 0.48445 0.0
H37 H 0.35138 0.1994 0.38109 0.0
H38 H 0.38298 0.23759 0.49801 0.0
C39 C 0.80867 0.42707 0.3707 0.0
C40 C 0.8326 0.40665 0.38569 0.0
C41 C 0.77656 0.40973 0.35146 0.0
C42 C 0.76739 0.37144 0.34665 0.0
C43 C 0.79162 0.35115 0.36096 0.0
C44 C 0.82369 0.36847 0.38023 0.0
C45 C 0.73232 0.35248 0.32813 0.0
C46 C 0.71642 0.36864 0.29554 0.0
C47 C 0.68336 0.35064 0.27837 0.0
C48 C 0.66616 0.31652 0.29461 0.0
C49 C 0.6811 0.3001 0.32727 0.0
C50 C 0.71428 0.31816 0.34366 0.0
C51 C 0.66139 0.26436 0.34428 0.0
C52 C 0.62536 0.25786 0.34687 0.0
C53 C 0.67789 0.23613 0.35684 0.0
C54 C 0.65861 0.20196 0.37072 0.0
C55 C 0.6224 0.19526 0.37214 0.0
C56 C 0.66571 0.36713 0.24409 0.0
C57 C 0.66531 0.40457 0.24238 0.0
C58 C 0.64647 0.34455 0.21429 0.0
C59 C 0.62584 0.35839 0.18495 0.0
C60 C 0.62409 0.39533 0.18424 0.0
C61 C 0.64478 0.41853 0.21273 0.0
C62 C 0.60616 0.22381 0.36046 0.0
H63 H 0.81427 0.45641 0.37484 0.0
H64 H 0.75849 0.42624 0.34139 0.0
H65 H 0.78583 0.32173 0.35722 0.0
H66 H 0.84158 0.35189 0.39077 0.0
H67 H 0.73005 0.39476 0.28299 0.0
H68 H 0.72556 0.30602 0.36942 0.0
H69 H 0.64063 0.30267 0.28186 0.0
H70 H 0.61188 0.27922 0.33846 0.0
H71 H 0.70555 0.2401 0.35504 0.0
H72 H 0.6719 0.18053 0.37951 0.0
H73 H 0.67959 0.42271 0.26491 0.0
H74 H 0.64677 0.31579 0.21408 0.0
H75 H 0.57849 0.21997 0.36219 0.0
H76 H 0.64393 0.44711 0.21314 0.0
H77 H 0.61085 0.33995 0.16302 0.0
C78 C 0.65791 0.63521 0.22931 0.0
C79 C 0.64051 0.65127 0.19829 0.0
C80 C 0.67831 0.65665 0.25868 0.0
C81 C 0.68251 0.69504 0.25779 0.0
C82 C 0.66574 0.7114 0.22632 0.0
C83 C 0.64502 0.68973 0.19676 0.0
C84 C 0.70388 0.71707 0.2903 0.0
C85 C 0.73382 0.70717 0.30759 0.0
C86 C 0.75163 0.72328 0.34179 0.0
C87 C 0.74032 0.75109 0.3581 0.0
C88 C 0.71083 0.76219 0.3409 0.0
C89 C 0.69292 0.74527 0.30677 0.0
C90 C 0.69674 0.78869 0.36079 0.0
C91 C 0.6917 0.78343 0.40073 0.0
C92 C 0.68702 0.81844 0.33999 0.0
C93 C 0.67228 0.84224 0.35872 0.0
C94 C 0.66634 0.83623 0.39838 0.0
C95 C 0.77961 0.70778 0.36217 0.0
C96 C 0.77288 0.66974 0.37044 0.0
C97 C 0.81309 0.72991 0.37198 0.0
C98 C 0.83983 0.71381 0.38804 0.0
C99 C 0.83334 0.6754 0.3948 0.0
C100 C 0.79926 0.65382 0.38679 0.0
C101 C 0.67643 0.80676 0.41923 0.0
H102 H 0.65538 0.60576 0.23123 0.0
H103 H 0.69015 0.64279 0.28268 0.0
H104 H 0.66855 0.74089 0.22458 0.0
H105 H 0.63176 0.70291 0.17339 0.0
H106 H 0.74294 0.68589 0.29502 0.0
H107 H 0.66926 0.75244 0.29459 0.0
H108 H 0.75368 0.76311 0.38494 0.0
H109 H 0.69861 0.76055 0.41744 0.0
H110 H 0.69067 0.82315 0.30921 0.0
H111 H 0.66443 0.86457 0.34193 0.0
H112 H 0.7471 0.65218 0.3639 0.0
H113 H 0.81882 0.75936 0.36594 0.0
H114 H 0.67211 0.8015 0.44981 0.0
H115 H 0.79292 0.62436 0.39283 0.0
H116 H 0.86573 0.73126 0.39394 0.0
C117 C 0.33378 0.63104 0.21011 0.0
C118 C 0.36745 0.626 0.22012 0.0
C119 C 0.31782 0.64798 0.23573 0.0
C120 C 0.33536 0.66058 0.27163 0.0
C121 C 0.36852 0.65472 0.28202 0.0
C122 C 0.38421 0.63742 0.25682 0.0
C123 C 0.31972 0.68035 0.29825 0.0
C124 C 0.28602 0.66536 0.30951 0.0
C125 C 0.2723 0.68274 0.33711 0.0
C126 C 0.2925 0.71608 0.35251 0.0
C127 C 0.32624 0.73153 0.34141 0.0
C128 C 0.33951 0.71344 0.3142 0.0
C129 C 0.34841 0.76558 0.35943 0.0
C130 C 0.33489 0.79599 0.36472 0.0
C131 C 0.38354 0.76776 0.37156 0.0
C132 C 0.40475 0.7996 0.38811 0.0
C133 C 0.39152 0.83031 0.39292 0.0
C134 C 0.23797 0.66468 0.35185 0.0
C135 C 0.20978 0.64689 0.32639 0.0
C136 C 0.23369 0.66357 0.39195 0.0
C137 C 0.20236 0.64442 0.40635 0.0
C138 C 0.17442 0.62583 0.38105 0.0
C139 C 0.17838 0.62772 0.34081 0.0
C140 C 0.35622 0.82804 0.38125 0.0
H141 H 0.32011 0.62281 0.1821 0.0
H142 H 0.29219 0.65217 0.22703 0.0
H143 H 0.38235 0.66345 0.30985 0.0
H144 H 0.40963 0.63303 0.26625 0.0
H145 H 0.27122 0.63918 0.29825 0.0
H146 H 0.3654 0.72522 0.30523 0.0
H147 H 0.28228 0.72958 0.37389 0.0
H148 H 0.30797 0.79526 0.35547 0.0
H149 H 0.39461 0.74457 0.36874 0.0
H150 H 0.4315 0.79987 0.39771 0.0
H151 H 0.21204 0.64761 0.29529 0.0
H152 H 0.25502 0.67638 0.41251 0.0
H153 H 0.34521 0.85121 0.3843 0.0
H154 H 0.15726 0.61416 0.32043 0.0
H155 H 0.20054 0.64302 0.43757 0.0
C156 C 0.21049 0.62454 0.70068 0.0
C157 C 0.20116 0.62989 0.66067 0.0
C158 C 0.24306 0.6432 0.71794 0.0
C159 C 0.26725 0.66761 0.69561 0.0
C160 C 0.25777 0.67295 0.65561 0.0
C161 C 0.22522 0.6545 0.63846 0.0
C162 C 0.30237 0.68727 0.71348 0.0
C163 C 0.32139 0.66942 0.74161 0.0
C164 C 0.35523 0.68731 0.75668 0.0
C165 C 0.36987 0.7234 0.7428 0.0
C166 C 0.3517 0.74193 0.71465 0.0
C167 C 0.31756 0.72372 0.70105 0.0
C168 C 0.36929 0.77922 0.69804 0.0
C169 C 0.3967 0.80327 0.71964 0.0
C170 C 0.36037 0.79033 0.65944 0.0
C171 C 0.37883 0.8235 0.64279 0.0
C172 C 0.40797 0.84618 0.66341 0.0
C173 C 0.37613 0.66859 0.78612 0.0
C174 C 0.36056 0.64447 0.81582 0.0
C175 C 0.41248 0.67604 0.78562 0.0
C176 C 0.43273 0.66149 0.81462 0.0
C177 C 0.41745 0.63752 0.84457 0.0
C178 C 0.38089 0.62896 0.84447 0.0
C179 C 0.41612 0.83562 0.70245 0.0
H180 H 0.19253 0.60598 0.71876 0.0
H181 H 0.24915 0.63867 0.74887 0.0
H182 H 0.27585 0.69082 0.63714 0.0
H183 H 0.21934 0.65872 0.60743 0.0
H184 H 0.31036 0.64113 0.75068 0.0
H185 H 0.30248 0.73795 0.68074 0.0
H186 H 0.39597 0.73695 0.75375 0.0
H187 H 0.40389 0.79702 0.74988 0.0
H188 H 0.33977 0.77302 0.64126 0.0
H189 H 0.37027 0.83073 0.6133 0.0
H190 H 0.3327 0.63806 0.81746 0.0
H191 H 0.42569 0.69346 0.76281 0.0
H192 H 0.4382 0.85153 0.71988 0.0
H193 H 0.36781 0.61022 0.86642 0.0
H194 H 0.46064 0.66977 0.81358 0.0
C195 C 0.36119 0.35995 0.84572 0.0
C196 C 0.39699 0.37463 0.84309 0.0
C197 C 0.34102 0.33793 0.81621 0.0
C198 C 0.35636 0.32985 0.78378 0.0
C199 C 0.39242 0.34336 0.78216 0.0
C200 C 0.41243 0.36545 0.81139 0.0
C201 C 0.33488 0.30942 0.75044 0.0
C202 C 0.30375 0.31809 0.7354 0.0
C203 C 0.28481 0.30168 0.7016 0.0
C204 C 0.29776 0.27631 0.68264 0.0
C205 C 0.32909 0.26739 0.69706 0.0
C206 C 0.34694 0.28359 0.73145 0.0
C207 C 0.34454 0.24311 0.67515 0.0
C208 C 0.3237 0.21202 0.65604 0.0
C209 C 0.38071 0.25141 0.67282 0.0
C210 C 0.39566 0.22927 0.65235 0.0
C211 C 0.37494 0.19837 0.63291 0.0
C212 C 0.25286 0.31318 0.68512 0.0
C213 C 0.23024 0.32152 0.71012 0.0
C214 C 0.2459 0.31835 0.64457 0.0
C215 C 0.21798 0.33298 0.62963 0.0
C216 C 0.19674 0.34315 0.65493 0.0
C217 C 0.20274 0.33663 0.69523 0.0
C218 C 0.33873 0.1899 0.63517 0.0
H219 H 0.34859 0.36664 0.86975 0.0
H220 H 0.31335 0.32767 0.81848 0.0
H221 H 0.40508 0.33804 0.7575 0.0
H222 H 0.44003 0.37603 0.80876 0.0
H223 H 0.29523 0.3392 0.74899 0.0
H224 H 0.37064 0.27637 0.74339 0.0
H225 H 0.28387 0.26415 0.65614 0.0
H226 H 0.29579 0.20457 0.65741 0.0
H227 H 0.39767 0.27542 0.68645 0.0
H228 H 0.42368 0.2364 0.65202 0.0
H229 H 0.2342 0.31714 0.7414 0.0
H230 H 0.2629 0.31272 0.62437 0.0
H231 H 0.32191 0.16648 0.6204 0.0
H232 H 0.18653 0.34396 0.71533 0.0
H233 H 0.21411 0.33811 0.59844 0.0
C234 C 0.67861 0.19964 0.65413 0.0
C235 C 0.64362 0.19806 0.64173 0.0
C236 C 0.69902 0.22977 0.67493 0.0
C237 C 0.68462 0.25851 0.68422 0.0
C238 C 0.64935 0.25619 0.67264 0.0
C239 C 0.62919 0.22645 0.65169 0.0
C240 C 0.70609 0.29164 0.70462 0.0
C241 C 0.73908 0.30978 0.69289 0.0
C242 C 0.75763 0.34344 0.70898 0.0
C243 C 0.74286 0.35853 0.73755 0.0
C244 C 0.70994 0.34091 0.74974 0.0
C245 C 0.69215 0.30711 0.73353 0.0
C246 C 0.69303 0.35914 0.777 0.0
C247 C 0.71255 0.3802 0.8078 0.0
C248 C 0.65716 0.35696 0.77121 0.0
C249 C 0.64139 0.37562 0.79499 0.0
C250 C 0.66102 0.39761 0.825 0.0
C251 C 0.79134 0.36419 0.69431 0.0
C252 C 0.81634 0.34593 0.68549 0.0
C253 C 0.79862 0.4027 0.68872 0.0
C254 C 0.83014 0.42248 0.67532 0.0
C255 C 0.85526 0.40436 0.66683 0.0
C256 C 0.84791 0.36579 0.6718 0.0
C257 C 0.69677 0.39925 0.83143 0.0
H258 H 0.69043 0.17822 0.64672 0.0
H259 H 0.72607 0.23066 0.68362 0.0
H260 H 0.63747 0.27797 0.67882 0.0
H261 H 0.60222 0.22587 0.64282 0.0
H262 H 0.74944 0.29872 0.66968 0.0
H263 H 0.66704 0.29286 0.74309 0.0
H264 H 0.75668 0.3847 0.74955 0.0
H265 H 0.74014 0.38218 0.81356 0.0
H266 H 0.64121 0.34156 0.74757 0.0
H267 H 0.61367 0.37293 0.78958 0.0
H268 H 0.81171 0.31633 0.68966 0.0
H269 H 0.7797 0.41769 0.69409 0.0
H270 H 0.7128 0.41596 0.85412 0.0
H271 H 0.86676 0.35101 0.66562 0.0
H272 H 0.83453 0.45205 0.67088 0.0
C273 C 0.6433 0.61695 0.74654 0.0
C274 C 0.66712 0.61098 0.77764 0.0
C275 C 0.65498 0.63475 0.71196 0.0
C276 C 0.69074 0.64707 0.70772 0.0
C277 C 0.71458 0.64024 0.73839 0.0
C278 C 0.70288 0.62236 0.77301 0.0
C279 C 0.70309 0.66811 0.67195 0.0
C280 C 0.68742 0.69575 0.65558 0.0
C281 C 0.69967 0.71672 0.62241 0.0
C282 C 0.72776 0.70954 0.60544 0.0
C283 C 0.74409 0.68265 0.62207 0.0
C284 C 0.73148 0.66179 0.65501 0.0
C285 C 0.77557 0.67757 0.60652 0.0
C286 C 0.77603 0.67185 0.56672 0.0
C287 C 0.80529 0.67776 0.63198 0.0
C288 C 0.83467 0.67109 0.61821 0.0
C289 C 0.83477 0.66385 0.57874 0.0
C290 C 0.68463 0.74767 0.60731 0.0
C291 C 0.64873 0.74445 0.60672 0.0
C292 C 0.70633 0.78139 0.59543 0.0
C293 C 0.69254 0.8115 0.5843 0.0
C294 C 0.65683 0.80867 0.58521 0.0
C295 C 0.63501 0.77465 0.59601 0.0
C296 C 0.8054 0.66473 0.55294 0.0
H297 H 0.61558 0.60897 0.74935 0.0
H298 H 0.636 0.63925 0.68867 0.0
H299 H 0.74232 0.64967 0.7361 0.0
H300 H 0.72183 0.61789 0.79633 0.0
H301 H 0.66663 0.70201 0.66978 0.0
H302 H 0.74383 0.64053 0.66738 0.0
H303 H 0.73763 0.72555 0.57995 0.0
H304 H 0.75332 0.67169 0.54661 0.0
H305 H 0.8056 0.68258 0.66272 0.0
H306 H 0.85679 0.67004 0.63881 0.0
H307 H 0.63126 0.71871 0.61518 0.0
H308 H 0.73417 0.78496 0.59593 0.0
H309 H 0.80497 0.65921 0.52237 0.0
H310 H 0.60742 0.77157 0.59746 0.0
H311 H 0.70997 0.83715 0.57554 0.0
Co312 Co 0.08043 0.46938 0.56097 0.0
Co313 Co 0.0508 0.45704 0.48936 0.0
Co314 Co 0.0175 0.51307 0.52624 0.0
O315 O 0.03482 0.46748 0.53567 0.0
H316 H 0.01728 0.44666 0.54465 0.0
O317 O 1.00042 0.55866 0.51657 0.0
Co318 Co 0.95476 0.5566 0.49169 0.0
Co319 Co 0.98492 0.5692 0.56269 0.0
H320 H 0.01792 0.5794 0.5074 0.0
O321 O 0.06138 0.41231 0.48092 0.0
O322 O 0.09615 0.46136 0.51068 0.0
O323 O 0.05413 0.49394 0.44742 0.0
O324 O 0.05333 0.53689 0.48853 0.0
O325 O 0.98413 0.48798 0.48253 0.0
O326 O 0.9142 0.55845 0.46735 0.0
O327 O 0.96226 0.60499 0.47598 0.0
O328 O 0.94074 0.50577 0.50341 0.0
O329 O 0.98167 0.48914 0.564 0.0
O330 O 0.98021 0.53225 0.60457 0.0
O331 O 0.94 0.56759 0.54168 0.0
O332 O 0.97813 0.61515 0.57093 0.0
C333 C 0.10514 0.43233 0.58948 0.0
C334 C 0.08305 0.54119 0.57143 0.0
C335 C 0.06173 0.52743 0.45651 0.0
C336 C 0.09182 0.42927 0.49624 0.0
C337 C 0.93005 0.59281 0.46166 0.0
C338 C 0.95151 0.48493 0.48262 0.0
C339 C 0.97255 0.49875 0.59555 0.0
C340 C 0.94702 0.6003 0.55567 0.0
O341 O 0.12089 0.46693 0.58559 0.0
O342 O 0.0731 0.42056 0.57442 0.0
O343 O 0.05045 0.5385 0.57007 0.0
O344 O 0.09445 0.52041 0.55129 0.0
Co345 Co 0.55487 0.94817 0.49176 0.0
Co346 Co 0.56987 0.97657 0.56203 0.0
Co347 Co 0.51806 0.01659 0.51302 0.0
O348 O 0.55955 0.99614 0.51199 0.0
H349 H 0.57953 0.01424 0.50348 0.0
O350 O 0.47628 0.03642 0.51437 0.0
Co351 Co 0.48084 0.08441 0.53334 0.0
Co352 Co 0.46503 0.05446 0.46435 0.0
H353 H 0.45658 0.01835 0.52355 0.0
O354 O 0.61259 0.96528 0.57707 0.0
O355 O 0.56566 0.92958 0.54497 0.0
O356 O 0.53561 0.9707 0.59984 0.0
O357 O 0.49548 0.9786 0.55295 0.0
O358 O 0.5447 0.05108 0.55449 0.0
O359 O 0.48146 0.12762 0.55165 0.0
O360 O 0.43644 0.07757 0.54653 0.0
O361 O 0.52792 0.09766 0.52395 0.0
O362 O 0.54051 0.05434 0.47262 0.0
O363 O 0.4992 0.06132 0.42684 0.0
O364 O 0.46788 0.10144 0.48012 0.0
O365 O 0.42145 0.06326 0.44968 0.0
C366 C 0.58698 0.92142 0.46843 0.0
C367 C 0.48691 0.94823 0.47549 0.0
C368 C 0.50403 0.96614 0.58679 0.0
C369 C 0.5967 0.93386 0.56236 0.0
C370 C 0.44927 0.11157 0.55695 0.0
C371 C 0.54873 0.08582 0.54869 0.0
C372 C 0.53108 0.06692 0.43913 0.0
C373 C 0.43636 0.09529 0.46362 0.0
O374 O 0.55455 0.90539 0.47246 0.0
O375 O 0.59975 0.95498 0.48026 0.0
O376 O 0.49151 0.98302 0.4713 0.0
O377 O 0.50722 0.93462 0.49912 0.0
Co378 Co 0.47436 0.53478 0.09465 0.0
Co379 Co 0.45874 0.46713 0.07313 0.0
Co380 Co 0.51558 0.51604 0.02007 0.0
O381 O 0.47196 0.51199 0.04599 0.0
H382 H 0.45303 0.51606 0.02785 0.0
O383 O 0.55917 0.51935 0.99422 0.0
Co384 Co 0.55613 0.49708 0.94502 0.0
Co385 Co 0.57404 0.56453 0.96851 0.0
H386 H 0.57779 0.51431 1.0122 0.0
O387 O 0.41312 0.44866 0.08492 0.0
O388 O 0.45639 0.48638 0.1207 0.0
O389 O 0.4925 0.43791 0.08294 0.0
O390 O 0.53482 0.48147 0.05876 0.0
O391 O 0.4891 0.47392 0.98675 0.0
O392 O 0.55656 0.47575 0.90075 0.0
O393 O 0.59912 0.48788 0.94969 0.0
O394 O 0.51077 0.50243 0.93405 0.0
O395 O 0.49672 0.55097 0.98105 0.0
O396 O 0.5411 0.59415 0.95979 0.0
O397 O 0.57399 0.5457 0.92002 0.0
O398 O 0.61937 0.58202 0.954 0.0
C399 C 0.44304 0.55856 0.12281 0.0
C400 C 0.54306 0.55454 0.09062 0.0
C401 C 0.5245 0.4517 0.07901 0.0
C402 C 0.42471 0.46602 0.11688 0.0
C403 C 0.58739 0.47402 0.91562 0.0
C404 C 0.48766 0.47777 0.94961 0.0
C405 C 0.50872 0.58091 0.96167 0.0
C406 C 0.60587 0.56537 0.92213 0.0
O407 O 0.47384 0.55721 0.13806 0.0
O408 O 0.43106 0.54326 0.08947 0.0
O409 O 0.54201 0.55817 0.05347 0.0
O410 O 0.51982 0.52998 0.10614 0.0
C411 C 0.14832 0.36777 0.47285 0.0
C412 C 0.18137 0.38775 0.48773 0.0
H413 H 0.09391 0.36515 0.46404 0.0
C414 C 0.18407 0.41929 0.50887 0.0
H415 H 0.14539 0.34353 0.45608 0.0
C416 C 0.15474 0.43214 0.51255 0.0
C417 C 0.12197 0.41331 0.49584 0.0
H418 H 0.20908 0.43486 0.52131 0.0
H419 H 0.15805 0.45751 0.52748 0.0
C420 C 0.11884 0.38037 0.47702 0.0
C421 C 0.56847 0.14339 0.36721 0.0
C422 C 0.60131 0.15902 0.38622 0.0
H423 H 0.52091 0.10165 0.36833 0.0
C424 C 0.61263 0.14098 0.42004 0.0
H425 H 0.55926 0.15617 0.34063 0.0
C426 C 0.59067 0.10943 0.43588 0.0
C427 C 0.55691 0.09518 0.41819 0.0
H428 H 0.63773 0.15232 0.43544 0.0
H429 H 0.59954 0.09742 0.46312 0.0
C430 C 0.54658 0.11189 0.38295 0.0
C431 C 0.88778 0.67229 0.43826 0.0
C432 C 0.86164 0.65712 0.40906 0.0
H433 H 0.93079 0.66395 0.47761 0.0
C434 C 0.86153 0.62289 0.39446 0.0
H435 H 0.8886 0.69854 0.45024 0.0
C436 C 0.88508 0.60308 0.4105 0.0
C437 C 0.91 0.6173 0.44088 0.0
H438 H 0.84258 0.61083 0.37116 0.0
H439 H 0.88321 0.57605 0.39973 0.0
C440 C 0.91198 0.65259 0.45389 0.0
C441 C 0.40287 0.8837 0.43782 0.0
C442 C 0.41466 0.86412 0.41058 0.0
H443 H 0.41679 0.92643 0.47969 0.0
C444 C 0.4496 0.87579 0.40197 0.0
H445 H 0.37624 0.87532 0.44542 0.0
C446 C 0.4726 0.90471 0.42172 0.0
C447 C 0.4611 0.92306 0.44999 0.0
H448 H 0.45946 0.86196 0.38059 0.0
H449 H 0.4997 0.91203 0.41575 0.0
C450 C 0.42596 0.91297 0.4574 0.0
C451 C 0.14827 0.62471 0.61213 0.0
C452 C 0.16747 0.60838 0.64146 0.0
H453 H 0.10563 0.61619 0.56738 0.0
C454 C 0.15553 0.57052 0.65037 0.0
H455 H 0.15651 0.65385 0.60475 0.0
C456 C 0.12643 0.54922 0.62911 0.0
C457 C 0.10825 0.56528 0.59885 0.0
H458 H 0.16974 0.55688 0.67238 0.0
H459 H 0.11893 0.51982 0.63534 0.0
C460 C 0.11888 0.60334 0.59107 0.0
C461 C 0.37985 0.13686 0.61047 0.0
C462 C 0.39155 0.17556 0.61047 0.0
H463 H 0.38874 0.08603 0.59328 0.0
C464 C 0.42056 0.19257 0.59009 0.0
H465 H 0.35766 0.12275 0.62593 0.0
C466 C 0.43861 0.17161 0.5723 0.0
C467 C 0.42781 0.13298 0.57351 0.0
H468 H 0.42974 0.22227 0.58823 0.0
H469 H 0.46134 0.18585 0.55775 0.0
C470 C 0.39771 0.11577 0.59193 0.0
C471 C 0.90588 0.45994 0.66792 0.0
C472 C 0.88847 0.42596 0.65192 0.0
H473 H 0.94642 0.50914 0.66335 0.0
C474 C 0.90178 0.41414 0.62004 0.0
H475 H 0.89673 0.46953 0.69297 0.0
C476 C 0.93053 0.43684 0.60309 0.0
C477 C 0.94664 0.47183 0.6177 0.0
H478 H 0.88893 0.38819 0.60694 0.0
H479 H 0.93901 0.42765 0.57736 0.0
C480 C 0.93458 0.48256 0.65108 0.0
C481 C 0.66114 0.87607 0.59046 0.0
C482 C 0.64254 0.84144 0.57691 0.0
H483 H 0.66137 0.93256 0.5963 0.0
C484 C 0.60937 0.83795 0.55726 0.0
H485 H 0.68655 0.8796 0.60626 0.0
C486 C 0.59465 0.86804 0.55247 0.0
C487 C 0.61303 0.90252 0.56645 0.0
H488 H 0.59458 0.81186 0.54584 0.0
H489 H 0.56866 0.86408 0.53809 0.0
C490 C 0.64659 0.90636 0.58512 0.0
C491 C 0.36706 0.14756 0.43846 0.0
C492 C 0.38484 0.18316 0.4497 0.0
H493 H 0.36934 0.0916 0.43438 0.0
C494 C 0.41906 0.18934 0.46694 0.0
H495 H 0.34054 0.14214 0.4253 0.0
C496 C 0.43565 0.16066 0.47168 0.0
C497 C 0.41816 0.12513 0.45982 0.0
H498 H 0.43345 0.21665 0.47545 0.0
H499 H 0.46242 0.16657 0.48403 0.0
C500 C 0.38355 0.11872 0.44362 0.0
C501 C 0.87853 0.40787 0.44213 0.0
C502 C 0.86604 0.42494 0.40809 0.0
H503 H 0.91589 0.41353 0.49232 0.0
C504 C 0.88485 0.46046 0.39685 0.0
H505 H 0.86455 0.38081 0.45207 0.0
C506 C 0.91433 0.47894 0.41985 0.0
C507 C 0.92588 0.4623 0.45443 0.0
H508 H 0.87636 0.47435 0.37067 0.0
H509 H 0.9273 0.50691 0.41146 0.0
C510 C 0.90802 0.42647 0.46517 0.0
C511 C 0.61754 0.84116 0.43611 0.0
C512 C 0.64728 0.85873 0.41737 0.0
H513 H 0.57514 0.84715 0.46624 0.0
C514 C 0.65792 0.89744 0.41637 0.0
H515 H 0.60863 0.81141 0.4371 0.0
C516 C 0.63908 0.91813 0.43398 0.0
C517 C 0.6088 0.90042 0.45188 0.0
H518 H 0.68085 0.91161 0.40215 0.0
H519 H 0.64767 0.94789 0.43273 0.0
C520 C 0.59833 0.86172 0.45271 0.0
C521 C 0.12648 0.56775 0.38233 0.0
C522 C 0.1423 0.6027 0.39706 0.0
H523 H 0.08846 0.51683 0.38908 0.0
C524 C 0.12863 0.61413 0.42893 0.0
H525 H 0.13645 0.55787 0.35806 0.0
C526 C 0.10108 0.59046 0.4469 0.0
C527 C 0.08656 0.55473 0.43349 0.0
H528 H 0.13977 0.64111 0.4406 0.0
H529 H 0.09215 0.59971 0.4723 0.0
C530 C 0.09897 0.54409 0.40028 0.0
C531 C 0.45285 0.90814 0.66549 0.0
C532 C 0.43066 0.87927 0.64377 0.0
H533 H 0.49396 0.95782 0.66478 0.0
C534 C 0.43177 0.88147 0.60287 0.0
H535 H 0.45252 0.90871 0.69676 0.0
C536 C 0.45424 0.91087 0.58461 0.0
C537 C 0.47734 0.93838 0.60659 0.0
H538 H 0.41635 0.8599 0.58455 0.0
H539 H 0.45476 0.91101 0.55323 0.0
C540 C 0.47643 0.93684 0.6472 0.0
C541 C 0.1456 0.35109 0.60897 0.0
C542 C 0.17075 0.3639 0.63987 0.0
H543 H 0.10389 0.36231 0.56949 0.0
C544 C 0.17225 0.39798 0.65554 0.0
H545 H 0.14403 0.32492 0.59634 0.0
C546 C 0.14995 0.41946 0.63983 0.0
C547 C 0.12507 0.40697 0.60872 0.0
H548 H 0.19161 0.40869 0.67906 0.0
H549 H 0.15258 0.44624 0.65161 0.0
C550 C 0.12253 0.37226 0.59387 0.0
C551 C 0.60296 0.17798 0.58306 0.0
C552 C 0.62224 0.16839 0.61654 0.0
H553 H 0.56552 0.1598 0.53548 0.0
C554 C 0.61947 0.13082 0.62618 0.0
H555 H 0.60505 0.20663 0.57441 0.0
C556 C 0.59638 0.10346 0.60368 0.0
C557 C 0.57599 0.11335 0.57109 0.0
H558 H 0.63413 0.12267 0.65184 0.0
H559 H 0.59379 0.07477 0.61241 0.0
C560 C 0.5803 0.15096 0.56066 0.0
C561 C 0.85778 0.61869 0.5462 0.0
C562 C 0.86415 0.65156 0.56609 0.0
H563 H 0.87905 0.57638 0.52772 0.0
C564 C 0.89847 0.66962 0.57855 0.0
H565 H 0.8315 0.60412 0.53654 0.0
C566 C 0.92577 0.65378 0.57353 0.0
C567 C 0.91909 0.6195 0.55621 0.0
H568 H 0.90398 0.69523 0.59362 0.0
H569 H 0.95183 0.66766 0.5847 0.0
C570 C 0.88501 0.60268 0.54147 0.0
C571 C 0.40059 0.4614 0.22058 0.0
C572 C 0.36898 0.43435 0.21842 0.0
H573 H 0.44297 0.4929 0.19 0.0
C574 C 0.35361 0.42176 0.18169 0.0
H575 H 0.41315 0.47158 0.24846 0.0
C576 C 0.37083 0.43371 0.1482 0.0
C577 C 0.40377 0.4585 0.15082 0.0
H578 H 0.32889 0.40148 0.17906 0.0
H579 H 0.35902 0.42218 0.12059 0.0
C580 C 0.41781 0.4734 0.18707 0.0
C581 C 0.47207 0.61668 0.86638 0.0
C582 C 0.4399 0.62187 0.87525 0.0
H583 H 0.51883 0.60095 0.88675 0.0
C584 C 0.43023 0.6127 0.91365 0.0
H585 H 0.48022 0.6216 0.83711 0.0
C586 C 0.45227 0.59923 0.94213 0.0
C587 C 0.48489 0.5958 0.93315 0.0
H588 H 0.40593 0.6164 0.92205 0.0
H589 H 0.44414 0.59217 0.97125 0.0
C590 C 0.49436 0.60453 0.89495 0.0
C591 C 0.44016 0.43397 0.85734 0.0
C592 C 0.41809 0.40157 0.8714 0.0
H593 H 0.47859 0.48325 0.87069 0.0
C594 C 0.41711 0.39526 0.91202 0.0
H595 H 0.44095 0.44006 0.82627 0.0
C596 C 0.43902 0.42029 0.93795 0.0
C597 C 0.46197 0.45211 0.9236 0.0
H598 H 0.40023 0.37051 0.92364 0.0
H599 H 0.43855 0.41433 0.96906 0.0
C600 C 0.46167 0.45887 0.88298 0.0
C601 C 0.65346 0.42397 0.88878 0.0
C602 C 0.64409 0.41926 0.84852 0.0
H603 H 0.6431 0.44525 0.94173 0.0
C604 C 0.61766 0.43497 0.83066 0.0
H605 H 0.67359 0.41217 0.90362 0.0
C606 C 0.6 0.45326 0.85251 0.0
C607 C 0.60855 0.457 0.89284 0.0
H608 H 0.61038 0.43306 0.7996 0.0
H609 H 0.57938 0.46435 0.83766 0.0
C610 C 0.63596 0.44284 0.91069 0.0
C611 C 0.67096 0.61096 0.85065 0.0
C612 C 0.65448 0.59528 0.81553 0.0
H613 H 0.66868 0.61353 0.91214 0.0
C614 C 0.6241 0.56673 0.81665 0.0
H615 H 0.69429 0.63319 0.85074 0.0
C616 C 0.6092 0.55583 0.85171 0.0
C617 C 0.62453 0.57302 0.88647 0.0
H618 H 0.6112 0.55359 0.79019 0.0
H619 H 0.58492 0.5349 0.85119 0.0
C620 C 0.65617 0.59983 0.88583 0.0
C621 C 0.59384 0.59451 0.18304 0.0
C622 C 0.61604 0.62717 0.1696 0.0
H623 H 0.5543 0.54628 0.169 0.0
C624 C 0.61459 0.63587 0.12922 0.0
H625 H 0.59373 0.58719 0.21392 0.0
C626 C 0.59152 0.6121 0.10297 0.0
C627 C 0.56933 0.57947 0.11677 0.0
H628 H 0.6315 0.66078 0.11796 0.0
H629 H 0.59074 0.61946 0.07208 0.0
C630 C 0.57098 0.57105 0.15712 0.0
C631 C 0.4219 0.62299 0.19107 0.0
C632 C 0.38575 0.60985 0.1925 0.0
H633 H 0.46793 0.61702 0.16811 0.0
C634 C 0.36793 0.58094 0.16815 0.0
H635 H 0.43649 0.64591 0.20827 0.0
C636 C 0.38612 0.56488 0.14407 0.0
C637 C 0.42243 0.57718 0.14433 0.0
H638 H 0.34014 0.56993 0.16857 0.0
H639 H 0.37203 0.54198 0.12651 0.0
C640 C 0.43997 0.60663 0.16771 0.0
C641 C 0.56513 0.38761 0.1473 0.0
C642 C 0.59938 0.40892 0.15513 0.0
H643 H 0.5148 0.38413 0.11723 0.0
C644 C 0.60929 0.4435 0.1358 0.0
H645 H 0.55649 0.361 0.16197 0.0
C646 C 0.58542 0.45664 0.10978 0.0
C647 C 0.55086 0.43576 0.10282 0.0
H648 H 0.6355 0.46049 0.14093 0.0
H649 H 0.59381 0.48375 0.09607 0.0
C650 C 0.54116 0.40091 0.12168 0.0
loop_
_geom_bond_atom_site_label_1
_geom_bond_atom_site_label_2
_geom_bond_distance
_geom_bond_site_symmetry_2
_ccdc_geom_bond_type
C0 C1 1.386 . S
C0 C2 1.397 . S
C0 H24 0.931 . S
C1 C0 1.386 . S
C1 C5 1.397 . S
C2 C0 1.397 . S
C2 C3 1.384 . S
C2 H25 0.930 . S
C3 C2 1.384 . S
C3 C4 1.377 . S
C3 C6 1.481 . S
C4 C3 1.377 . S
C4 C5 1.389 . S
C4 H26 0.929 . S
C5 C1 1.397 . S
C5 C4 1.389 . S
C5 H27 0.931 . S
C6 C3 1.481 . S
C6 C7 1.387 . S
C6 C11 1.390 . S
C7 C6 1.387 . S
C7 C8 1.401 . S
C7 H28 0.930 . S
C8 C7 1.401 . S
C8 C9 1.376 . S
C8 C17 1.511 . S
C9 C8 1.376 . S
C9 C10 1.392 . S
C9 H30 0.931 . S
C10 C9 1.392 . S
C10 C11 1.361 . S
C10 C12 1.500 . S
C11 C6 1.390 . S
C11 C10 1.361 . S
C11 H29 0.931 . S
C12 C10 1.500 . S
C12 C13 1.371 . S
C12 C14 1.365 . S
C13 C12 1.371 . S
C13 C23 1.386 . S
C13 H31 0.931 . S
C14 C12 1.365 . S
C14 C15 1.409 . S
C14 H32 0.929 . S
C15 C14 1.409 . S
C15 C16 1.380 . S
C15 H33 0.930 . S
C16 C15 1.380 . S
C16 C23 1.357 . S
C17 C8 1.511 . S
C17 C18 1.341 . S
C17 C19 1.371 . S
C18 C17 1.341 . S
C18 C22 1.394 . S
C18 H34 0.930 . S
C19 C17 1.371 . S
C19 C20 1.392 . S
C19 H35 0.931 . S
C20 C19 1.392 . S
C20 C21 1.331 . S
C20 H38 0.932 . S
C21 C20 1.331 . S
C21 C22 1.336 . S
C22 C18 1.394 . S
C22 C21 1.336 . S
C22 H37 0.929 . S
C23 C13 1.386 . S
C23 C16 1.357 . S
C23 H36 0.928 . S
H24 C0 0.931 . S
H25 C2 0.930 . S
H26 C4 0.929 . S
H27 C5 0.931 . S
H28 C7 0.930 . S
H29 C11 0.931 . S
H30 C9 0.931 . S
H31 C13 0.931 . S
H32 C14 0.929 . S
H33 C15 0.930 . S
H34 C18 0.930 . S
H35 C19 0.931 . S
H36 C23 0.928 . S
H37 C22 0.929 . S
H38 C20 0.932 . S
C39 C40 1.386 . S
C39 C41 1.397 . S
C39 H63 0.931 . S
C40 C39 1.386 . S
C40 C44 1.397 . S
C41 C39 1.397 . S
C41 C42 1.384 . S
C41 H64 0.930 . S
C42 C41 1.384 . S
C42 C43 1.377 . S
C42 C45 1.481 . S
C43 C42 1.377 . S
C43 C44 1.389 . S
C43 H65 0.929 . S
C44 C40 1.397 . S
C44 C43 1.389 . S
C44 H66 0.931 . S
C45 C42 1.481 . S
C45 C46 1.387 . S
C45 C50 1.390 . S
C46 C45 1.387 . S
C46 C47 1.401 . S
C46 H67 0.930 . S
C47 C46 1.401 . S
C47 C48 1.376 . S
C47 C56 1.511 . S
C48 C47 1.376 . S
C48 C49 1.392 . S
C48 H69 0.931 . S
C49 C48 1.392 . S
C49 C50 1.361 . S
C49 C51 1.500 . S
C50 C45 1.390 . S
C50 C49 1.361 . S
C50 H68 0.931 . S
C51 C49 1.500 . S
C51 C52 1.371 . S
C51 C53 1.365 . S
C52 C51 1.371 . S
C52 C62 1.386 . S
C52 H70 0.931 . S
C53 C51 1.365 . S
C53 C54 1.409 . S
C53 H71 0.929 . S
C54 C53 1.409 . S
C54 C55 1.380 . S
C54 H72 0.930 . S
C55 C54 1.380 . S
C55 C62 1.357 . S
C56 C47 1.511 . S
C56 C57 1.341 . S
C56 C58 1.371 . S
C57 C56 1.341 . S
C57 C61 1.394 . S
C57 H73 0.930 . S
C58 C56 1.371 . S
C58 C59 1.392 . S
C58 H74 0.931 . S
C59 C58 1.392 . S
C59 C60 1.331 . S
C59 H77 0.932 . S
C60 C59 1.331 . S
C60 C61 1.336 . S
C61 C57 1.394 . S
C61 C60 1.336 . S
C61 H76 0.929 . S
C62 C52 1.386 . S
C62 C55 1.357 . S
C62 H75 0.928 . S
H63 C39 0.931 . S
H64 C41 0.930 . S
H65 C43 0.929 . S
H66 C44 0.931 . S
H67 C46 0.930 . S
H68 C50 0.931 . S
H69 C48 0.931 . S
H70 C52 0.931 . S
H71 C53 0.929 . S
H72 C54 0.930 . S
H73 C57 0.930 . S
H74 C58 0.931 . S
H75 C62 0.928 . S
H76 C61 0.929 . S
H77 C59 0.932 . S
C78 C79 1.386 . S
C78 C80 1.397 . S
C78 H102 0.931 . S
C79 C78 1.386 . S
C79 C83 1.397 . S
C80 C78 1.397 . S
C80 C81 1.384 . S
C80 H103 0.930 . S
C81 C80 1.384 . S
C81 C82 1.377 . S
C81 C84 1.481 . S
C82 C81 1.377 . S
C82 C83 1.389 . S
C82 H104 0.929 . S
C83 C79 1.397 . S
C83 C82 1.389 . S
C83 H105 0.931 . S
C84 C81 1.481 . S
C84 C85 1.387 . S
C84 C89 1.390 . S
C85 C84 1.387 . S
C85 C86 1.401 . S
C85 H106 0.930 . S
C86 C85 1.401 . S
C86 C87 1.376 . S
C86 C95 1.511 . S
C87 C86 1.376 . S
C87 C88 1.392 . S
C87 H108 0.931 . S
C88 C87 1.392 . S
C88 C89 1.361 . S
C88 C90 1.500 . S
C89 C84 1.390 . S
C89 C88 1.361 . S
C89 H107 0.931 . S
C90 C88 1.500 . S
C90 C91 1.371 . S
C90 C92 1.365 . S
C91 C90 1.371 . S
C91 C101 1.386 . S
C91 H109 0.931 . S
C92 C90 1.365 . S
C92 C93 1.409 . S
C92 H110 0.929 . S
C93 C92 1.409 . S
C93 C94 1.380 . S
C93 H111 0.930 . S
C94 C93 1.380 . S
C94 C101 1.357 . S
C95 C86 1.511 . S
C95 C96 1.341 . S
C95 C97 1.371 . S
C96 C95 1.341 . S
C96 C100 1.394 . S
C96 H112 0.930 . S
C97 C95 1.371 . S
C97 C98 1.392 . S
C97 H113 0.931 . S
C98 C97 1.392 . S
C98 C99 1.331 . S
C98 H116 0.932 . S
C99 C98 1.331 . S
C99 C100 1.336 . S
C100 C96 1.394 . S
C100 C99 1.336 . S
C100 H115 0.929 . S
C101 C91 1.386 . S
C101 C94 1.357 . S
C101 H114 0.928 . S
H102 C78 0.931 . S
H103 C80 0.930 . S
H104 C82 0.929 . S
H105 C83 0.931 . S
H106 C85 0.930 . S
H107 C89 0.931 . S
H108 C87 0.931 . S
H109 C91 0.931 . S
H110 C92 0.929 . S
H111 C93 0.930 . S
H112 C96 0.930 . S
H113 C97 0.931 . S
H114 C101 0.928 . S
H115 C100 0.929 . S
H116 C98 0.932 . S
C117 C118 1.386 . S
C117 C119 1.397 . S
C117 H141 0.931 . S
C118 C117 1.386 . S
C118 C122 1.397 . S
C119 C117 1.397 . S
C119 C120 1.384 . S
C119 H142 0.930 . S
C120 C119 1.384 . S
C120 C121 1.377 . S
C120 C123 1.481 . S
C121 C120 1.377 . S
C121 C122 1.389 . S
C121 H143 0.929 . S
C122 C118 1.397 . S
C122 C121 1.389 . S
C122 H144 0.931 . S
C123 C120 1.481 . S
C123 C124 1.387 . S
C123 C128 1.390 . S
C124 C123 1.387 . S
C124 C125 1.401 . S
C124 H145 0.930 . S
C125 C124 1.401 . S
C125 C126 1.376 . S
C125 C134 1.511 . S
C126 C125 1.376 . S
C126 C127 1.392 . S
C126 H147 0.931 . S
C127 C126 1.392 . S
C127 C128 1.361 . S
C127 C129 1.500 . S
C128 C123 1.390 . S
C128 C127 1.361 . S
C128 H146 0.931 . S
C129 C127 1.500 . S
C129 C130 1.371 . S
C129 C131 1.365 . S
C130 C129 1.371 . S
C130 C140 1.386 . S
C130 H148 0.931 . S
C131 C129 1.365 . S
C131 C132 1.409 . S
C131 H149 0.929 . S
C132 C131 1.409 . S
C132 C133 1.380 . S
C132 H150 0.930 . S
C133 C132 1.380 . S
C133 C140 1.357 . S
C134 C125 1.511 . S
C134 C135 1.341 . S
C134 C136 1.371 . S
C135 C134 1.341 . S
C135 C139 1.394 . S
C135 H151 0.930 . S
C136 C134 1.371 . S
C136 C137 1.392 . S
C136 H152 0.931 . S
C137 C136 1.392 . S
C137 C138 1.331 . S
C137 H155 0.932 . S
C138 C137 1.331 . S
C138 C139 1.336 . S
C139 C135 1.394 . S
C139 C138 1.336 . S
C139 H154 0.929 . S
C140 C130 1.386 . S
C140 C133 1.357 . S
C140 H153 0.928 . S
H141 C117 0.931 . S
H142 C119 0.930 . S
H143 C121 0.929 . S
H144 C122 0.931 . S
H145 C124 0.930 . S
H146 C128 0.931 . S
H147 C126 0.931 . S
H148 C130 0.931 . S
H149 C131 0.929 . S
H150 C132 0.930 . S
H151 C135 0.930 . S
H152 C136 0.931 . S
H153 C140 0.928 . S
H154 C139 0.929 . S
H155 C137 0.932 . S
C156 C157 1.386 . S
C156 C158 1.397 . S
C156 H180 0.931 . S
C157 C156 1.386 . S
C157 C161 1.397 . S
C158 C156 1.397 . S
C158 C159 1.384 . S
C158 H181 0.930 . S
C159 C158 1.384 . S
C159 C160 1.377 . S
C159 C162 1.481 . S
C160 C159 1.377 . S
C160 C161 1.389 . S
C160 H182 0.929 . S
C161 C157 1.397 . S
C161 C160 1.389 . S
C161 H183 0.931 . S
C162 C159 1.481 . S
C162 C163 1.387 . S
C162 C167 1.390 . S
C163 C162 1.387 . S
C163 C164 1.401 . S
C163 H184 0.930 . S
C164 C163 1.401 . S
C164 C165 1.376 . S
C164 C173 1.511 . S
C165 C164 1.376 . S
C165 C166 1.392 . S
C165 H186 0.931 . S
C166 C165 1.392 . S
C166 C167 1.361 . S
C166 C168 1.500 . S
C167 C162 1.390 . S
C167 C166 1.361 . S
C167 H185 0.931 . S
C168 C166 1.500 . S
C168 C169 1.371 . S
C168 C170 1.365 . S
C169 C168 1.371 . S
C169 C179 1.386 . S
C169 H187 0.931 . S
C170 C168 1.365 . S
C170 C171 1.409 . S
C170 H188 0.929 . S
C171 C170 1.409 . S
C171 C172 1.380 . S
C171 H189 0.930 . S
C172 C171 1.380 . S
C172 C179 1.357 . S
C173 C164 1.511 . S
C173 C174 1.341 . S
C173 C175 1.371 . S
C174 C173 1.341 . S
C174 C178 1.394 . S
C174 H190 0.930 . S
C175 C173 1.371 . S
C175 C176 1.392 . S
C175 H191 0.931 . S
C176 C175 1.392 . S
C176 C177 1.331 . S
C176 H194 0.932 . S
C177 C176 1.331 . S
C177 C178 1.336 . S
C178 C174 1.394 . S
C178 C177 1.336 . S
C178 H193 0.929 . S
C179 C169 1.386 . S
C179 C172 1.357 . S
C179 H192 0.928 . S
H180 C156 0.931 . S
H181 C158 0.930 . S
H182 C160 0.929 . S
H183 C161 0.931 . S
H184 C163 0.930 . S
H185 C167 0.931 . S
H186 C165 0.931 . S
H187 C169 0.931 . S
H188 C170 0.929 . S
H189 C171 0.930 . S
H190 C174 0.930 . S
H191 C175 0.931 . S
H192 C179 0.928 . S
H193 C178 0.929 . S
H194 C176 0.932 . S
C195 C196 1.386 . S
C195 C197 1.397 . S
C195 H219 0.931 . S
C196 C195 1.386 . S
C196 C200 1.397 . S
C197 C195 1.397 . S
C197 C198 1.384 . S
C197 H220 0.930 . S
C198 C197 1.384 . S
C198 C199 1.377 . S
C198 C201 1.481 . S
C199 C198 1.377 . S
C199 C200 1.389 . S
C199 H221 0.929 . S
C200 C196 1.397 . S
C200 C199 1.389 . S
C200 H222 0.931 . S
C201 C198 1.481 . S
C201 C202 1.387 . S
C201 C206 1.390 . S
C202 C201 1.387 . S
C202 C203 1.401 . S
C202 H223 0.930 . S
C203 C202 1.401 . S
C203 C204 1.376 . S
C203 C212 1.511 . S
C204 C203 1.376 . S
C204 C205 1.392 . S
C204 H225 0.931 . S
C205 C204 1.392 . S
C205 C206 1.361 . S
C205 C207 1.500 . S
C206 C201 1.390 . S
C206 C205 1.361 . S
C206 H224 0.931 . S
C207 C205 1.500 . S
C207 C208 1.371 . S
C207 C209 1.365 . S
C208 C207 1.371 . S
C208 C218 1.386 . S
C208 H226 0.931 . S
C209 C207 1.365 . S
C209 C210 1.409 . S
C209 H227 0.929 . S
C210 C209 1.409 . S
C210 C211 1.380 . S
C210 H228 0.930 . S
C211 C210 1.380 . S
C211 C218 1.357 . S
C212 C203 1.511 . S
C212 C213 1.341 . S
C212 C214 1.371 . S
C213 C212 1.341 . S
C213 C217 1.394 . S
C213 H229 0.930 . S
C214 C212 1.371 . S
C214 C215 1.392 . S
C214 H230 0.931 . S
C215 C214 1.392 . S
C215 C216 1.331 . S
C215 H233 0.932 . S
C216 C215 1.331 . S
C216 C217 1.336 . S
C217 C213 1.394 . S
C217 C216 1.336 . S
C217 H232 0.929 . S
C218 C208 1.386 . S
C218 C211 1.357 . S
C218 H231 0.928 . S
H219 C195 0.931 . S
H220 C197 0.930 . S
H221 C199 0.929 . S
H222 C200 0.931 . S
H223 C202 0.930 . S
H224 C206 0.931 . S
H225 C204 0.931 . S
H226 C208 0.931 . S
H227 C209 0.929 . S
H228 C210 0.930 . S
H229 C213 0.930 . S
H230 C214 0.931 . S
H231 C218 0.928 . S
H232 C217 0.929 . S
H233 C215 0.932 . S
C234 C235 1.386 . S
C234 C236 1.397 . S
C234 H258 0.931 . S
C235 C234 1.386 . S
C235 C239 1.397 . S
C236 C234 1.397 . S
C236 C237 1.384 . S
C236 H259 0.930 . S
C237 C236 1.384 . S
C237 C238 1.377 . S
C237 C240 1.481 . S
C238 C237 1.377 . S
C238 C239 1.389 . S
C238 H260 0.929 . S
C239 C235 1.397 . S
C239 C238 1.389 . S
C239 H261 0.931 . S
C240 C237 1.481 . S
C240 C241 1.387 . S
C240 C245 1.390 . S
C241 C240 1.387 . S
C241 C242 1.401 . S
C241 H262 0.930 . S
C242 C241 1.401 . S
C242 C243 1.376 . S
C242 C251 1.511 . S
C243 C242 1.376 . S
C243 C244 1.392 . S
C243 H264 0.931 . S
C244 C243 1.392 . S
C244 C245 1.361 . S
C244 C246 1.500 . S
C245 C240 1.390 . S
C245 C244 1.361 . S
C245 H263 0.931 . S
C246 C244 1.500 . S
C246 C247 1.371 . S
C246 C248 1.365 . S
C247 C246 1.371 . S
C247 C257 1.386 . S
C247 H265 0.931 . S
C248 C246 1.365 . S
C248 C249 1.409 . S
C248 H266 0.929 . S
C249 C248 1.409 . S
C249 C250 1.380 . S
C249 H267 0.930 . S
C250 C249 1.380 . S
C250 C257 1.357 . S
C251 C242 1.511 . S
C251 C252 1.341 . S
C251 C253 1.371 . S
C252 C251 1.341 . S
C252 C256 1.394 . S
C252 H268 0.930 . S
C253 C251 1.371 . S
C253 C254 1.392 . S
C253 H269 0.931 . S
C254 C253 1.392 . S
C254 C255 1.331 . S
C254 H272 0.932 . S
C255 C254 1.331 . S
C255 C256 1.336 . S
C256 C252 1.394 . S
C256 C255 1.336 . S
C256 H271 0.929 . S
C257 C247 1.386 . S
C257 C250 1.357 . S
C257 H270 0.928 . S
H258 C234 0.931 . S
H259 C236 0.930 . S
H260 C238 0.929 . S
H261 C239 0.931 . S
H262 C241 0.930 . S
H263 C245 0.931 . S
H264 C243 0.931 . S
H265 C247 0.931 . S
H266 C248 0.929 . S
H267 C249 0.930 . S
H268 C252 0.930 . S
H269 C253 0.931 . S
H270 C257 0.928 . S
H271 C256 0.929 . S
H272 C254 0.932 . S
C273 C274 1.386 . S
C273 C275 1.397 . S
C273 H297 0.931 . S
C274 C273 1.386 . S
C274 C278 1.397 . S
C275 C273 1.397 . S
C275 C276 1.384 . S
C275 H298 0.930 . S
C276 C275 1.384 . S
C276 C277 1.377 . S
C276 C279 1.481 . S
C277 C276 1.377 . S
C277 C278 1.389 . S
C277 H299 0.929 . S
C278 C274 1.397 . S
C278 C277 1.389 . S
C278 H300 0.931 . S
C279 C276 1.481 . S
C279 C280 1.387 . S
C279 C284 1.390 . S
C280 C279 1.387 . S
C280 C281 1.401 . S
C280 H301 0.930 . S
C281 C280 1.401 . S
C281 C282 1.376 . S
C281 C290 1.511 . S
C282 C281 1.376 . S
C282 C283 1.392 . S
C282 H303 0.931 . S
C283 C282 1.392 . S
C283 C284 1.361 . S
C283 C285 1.500 . S
C284 C279 1.390 . S
C284 C283 1.361 . S
C284 H302 0.931 . S
C285 C283 1.500 . S
C285 C286 1.371 . S
C285 C287 1.365 . S
C286 C285 1.371 . S
C286 C296 1.386 . S
C286 H304 0.931 . S
C287 C285 1.365 . S
C287 C288 1.409 . S
C287 H305 0.929 . S
C288 C287 1.409 . S
C288 C289 1.380 . S
C288 H306 0.930 . S
C289 C288 1.380 . S
C289 C296 1.357 . S
C290 C281 1.511 . S
C290 C291 1.341 . S
C290 C292 1.371 . S
C291 C290 1.341 . S
C291 C295 1.394 . S
C291 H307 0.930 . S
C292 C290 1.371 . S
C292 C293 1.392 . S
C292 H308 0.931 . S
C293 C292 1.392 . S
C293 C294 1.331 . S
C293 H311 0.932 . S
C294 C293 1.331 . S
C294 C295 1.336 . S
C295 C291 1.394 . S
C295 C294 1.336 . S
C295 H310 0.929 . S
C296 C286 1.386 . S
C296 C289 1.357 . S
C296 H309 0.928 . S
H297 C273 0.931 . S
H298 C275 0.930 . S
H299 C277 0.929 . S
H300 C278 0.931 . S
H301 C280 0.930 . S
H302 C284 0.931 . S
H303 C282 0.931 . S
H304 C286 0.931 . S
H305 C287 0.929 . S
H306 C288 0.930 . S
H307 C291 0.930 . S
H308 C292 0.931 . S
H309 C296 0.928 . S
H310 C295 0.929 . S
H311 C293 0.932 . S
Co312 O315 2.042 . S
Co312 O322 2.264 . S
Co312 O341 2.286 . S
Co312 O342 2.069 . S
Co312 O344 2.015 . S
Co313 O315 2.122 . S
Co313 O321 2.073 . S
Co313 O322 2.327 . S
Co313 O323 1.976 . S
Co314 O315 2.087 . S
Co314 O317 2.087 1_455 S
Co314 O324 2.111 . S
Co314 O325 2.143 1_455 S
Co314 O329 2.111 1_455 S
Co314 O343 2.143 . S
O315 Co312 2.042 . S
O315 Co313 2.122 . S
O315 Co314 2.087 . S
O315 H316 0.980 . S
H316 O315 0.980 . S
O317 Co314 2.087 1_655 S
O317 Co318 2.042 . S
O317 Co319 2.122 . S
O317 H320 0.980 . S
Co318 O317 2.042 . S
Co318 O326 2.286 . S
Co318 O327 2.069 . S
Co318 O328 2.015 . S
Co318 O331 2.264 . S
Co319 O317 2.122 . S
Co319 O330 1.976 . S
Co319 O331 2.327 . S
Co319 O332 2.073 . S
H320 O317 0.980 . S
O321 Co313 2.073 . S
O321 C336 1.245 . S
O322 Co312 2.264 . S
O322 Co313 2.327 . S
O322 C336 1.257 . S
O323 Co313 1.976 . S
O323 C335 1.251 . S
O324 Co314 2.111 . S
O324 C335 1.274 . S
O325 Co314 2.143 1_655 S
O325 C338 1.246 . S
O326 Co318 2.286 . S
O326 C337 1.259 . S
O327 Co318 2.069 . S
O327 C337 1.289 . S
O328 Co318 2.015 . S
O328 C338 1.257 . S
O329 Co314 2.111 1_655 S
O329 C339 1.274 . S
O330 Co319 1.976 . S
O330 C339 1.251 . S
O331 Co318 2.264 . S
O331 Co319 2.327 . S
O331 C340 1.257 . S
O332 Co319 2.073 . S
O332 C340 1.245 . S
C333 O341 1.259 . S
C333 O342 1.289 . S
C334 O343 1.246 . S
C334 O344 1.257 . S
C335 O323 1.251 . S
C335 O324 1.274 . S
C336 O321 1.245 . S
C336 O322 1.257 . S
C337 O326 1.259 . S
C337 O327 1.289 . S
C338 O325 1.246 . S
C338 O328 1.257 . S
C339 O329 1.274 . S
C339 O330 1.251 . S
C340 O331 1.257 . S
C340 O332 1.245 . S
O341 Co312 2.286 . S
O341 C333 1.259 . S
O342 Co312 2.069 . S
O342 C333 1.289 . S
O343 Co314 2.143 . S
O343 C334 1.246 . S
O344 Co312 2.015 . S
O344 C334 1.257 . S
Co345 O348 2.042 . S
Co345 O355 2.264 . S
Co345 O374 2.286 . S
Co345 O375 2.069 . S
Co345 O377 2.015 . S
Co346 O348 2.122 . S
Co346 O354 2.073 . S
Co346 O355 2.327 . S
Co346 O356 1.976 . S
Co347 O348 2.087 1_545 S
Co347 O350 2.087 . S
Co347 O357 2.111 1_545 S
Co347 O358 2.143 . S
Co347 O362 2.111 . S
Co347 O376 2.143 1_545 S
O348 Co345 2.042 . S
O348 Co346 2.122 . S
O348 Co347 2.087 1_565 S
O348 H349 0.980 . S
H349 O348 0.980 . S
O350 Co347 2.087 . S
O350 Co351 2.042 . S
O350 Co352 2.122 . S
O350 H353 0.980 . S
Co351 O350 2.042 . S
Co351 O359 2.286 . S
Co351 O360 2.069 . S
Co351 O361 2.015 . S
Co351 O364 2.264 . S
Co352 O350 2.122 . S
Co352 O363 1.976 . S
Co352 O364 2.327 . S
Co352 O365 2.073 . S
H353 O350 0.980 . S
O354 Co346 2.073 . S
O354 C369 1.245 . S
O355 Co345 2.264 . S
O355 Co346 2.327 . S
O355 C369 1.257 . S
O356 Co346 1.976 . S
O356 C368 1.251 . S
O357 Co347 2.111 1_565 S
O357 C368 1.274 . S
O358 Co347 2.143 . S
O358 C371 1.246 . S
O359 Co351 2.286 . S
O359 C370 1.259 . S
O360 Co351 2.069 . S
O360 C370 1.289 . S
O361 Co351 2.015 . S
O361 C371 1.257 . S
O362 Co347 2.111 . S
O362 C372 1.274 . S
O363 Co352 1.976 . S
O363 C372 1.251 . S
O364 Co351 2.264 . S
O364 Co352 2.327 . S
O364 C373 1.257 . S
O365 Co352 2.073 . S
O365 C373 1.245 . S
C366 O374 1.259 . S
C366 O375 1.289 . S
C367 O376 1.246 . S
C367 O377 1.257 . S
C368 O356 1.251 . S
C368 O357 1.274 . S
C369 O354 1.245 . S
C369 O355 1.257 . S
C370 O359 1.259 . S
C370 O360 1.289 . S
C371 O358 1.246 . S
C371 O361 1.257 . S
C372 O362 1.274 . S
C372 O363 1.251 . S
C373 O364 1.257 . S
C373 O365 1.245 . S
O374 Co345 2.286 . S
O374 C366 1.259 . S
O375 Co345 2.069 . S
O375 C366 1.289 . S
O376 Co347 2.143 1_565 S
O376 C367 1.246 . S
O377 Co345 2.015 . S
O377 C367 1.257 . S
Co378 O381 2.042 . S
Co378 O388 2.264 . S
Co378 O407 2.286 . S
Co378 O408 2.069 . S
Co378 O410 2.015 . S
Co379 O381 2.122 . S
Co379 O387 2.073 . S
Co379 O388 2.327 . S
Co379 O389 1.976 . S
Co380 O381 2.087 . S
Co380 O383 2.087 1_554 S
Co380 O390 2.111 . S
Co380 O391 2.143 1_554 S
Co380 O395 2.111 1_554 S
Co380 O409 2.143 . S
O381 Co378 2.042 . S
O381 Co379 2.122 . S
O381 Co380 2.087 . S
O381 H382 0.980 . S
H382 O381 0.980 . S
O383 Co380 2.087 1_556 S
O383 Co384 2.042 . S
O383 Co385 2.122 . S
O383 H386 0.980 . S
Co384 O383 2.042 . S
Co384 O392 2.286 . S
Co384 O393 2.069 . S
Co384 O394 2.015 . S
Co384 O397 2.264 . S
Co385 O383 2.122 . S
Co385 O396 1.976 . S
Co385 O397 2.327 . S
Co385 O398 2.073 . S
H386 O383 0.980 . S
O387 Co379 2.073 . S
O387 C402 1.245 . S
O388 Co378 2.264 . S
O388 Co379 2.327 . S
O388 C402 1.257 . S
O389 Co379 1.976 . S
O389 C401 1.251 . S
O390 Co380 2.111 . S
O390 C401 1.274 . S
O391 Co380 2.143 1_556 S
O391 C404 1.246 . S
O392 Co384 2.286 . S
O392 C403 1.259 . S
O393 Co384 2.069 . S
O393 C403 1.289 . S
O394 Co384 2.015 . S
O394 C404 1.257 . S
O395 Co380 2.111 1_556 S
O395 C405 1.274 . S
O396 Co385 1.976 . S
O396 C405 1.251 . S
O397 Co384 2.264 . S
O397 Co385 2.327 . S
O397 C406 1.257 . S
O398 Co385 2.073 . S
O398 C406 1.245 . S
C399 O407 1.259 . S
C399 O408 1.289 . S
C400 O409 1.246 . S
C400 O410 1.257 . S
C401 O389 1.251 . S
C401 O390 1.274 . S
C402 O387 1.245 . S
C402 O388 1.257 . S
C403 O392 1.259 . S
C403 O393 1.289 . S
C404 O391 1.246 . S
C404 O394 1.257 . S
C405 O395 1.274 . S
C405 O396 1.251 . S
C406 O397 1.257 . S
C406 O398 1.245 . S
O407 Co378 2.286 . S
O407 C399 1.259 . S
O408 Co378 2.069 . S
O408 C399 1.289 . S
O409 Co380 2.143 . S
O409 C400 1.246 . S
O410 Co378 2.015 . S
O410 C400 1.257 . S
C411 C412 1.387 . S
C411 H415 0.950 . S
C411 C420 1.390 . S
C412 C411 1.387 . S
C412 C414 1.387 . S
H413 C420 0.950 . S
C414 C412 1.387 . S
C414 C416 1.390 . S
C414 H418 0.950 . S
H415 C411 0.950 . S
C416 C414 1.390 . S
C416 C417 1.387 . S
C416 H419 0.950 . S
C417 C416 1.387 . S
C417 C420 1.387 . S
H418 C414 0.950 . S
H419 C416 0.950 . S
C420 C411 1.390 . S
C420 H413 0.950 . S
C420 C417 1.387 . S
C421 C422 1.387 . S
C421 H425 0.950 . S
C421 C430 1.390 . S
C422 C421 1.387 . S
C422 C424 1.387 . S
H423 C430 0.950 . S
C424 C422 1.387 . S
C424 C426 1.390 . S
C424 H428 0.950 . S
H425 C421 0.950 . S
C426 C424 1.390 . S
C426 C427 1.387 . S
C426 H429 0.950 . S
C427 C426 1.387 . S
C427 C430 1.387 . S
H428 C424 0.950 . S
H429 C426 0.950 . S
C430 C421 1.390 . S
C430 H423 0.950 . S
C430 C427 1.387 . S
C431 C432 1.387 . S
C431 H435 0.950 . S
C431 C440 1.390 . S
C432 C431 1.387 . S
C432 C434 1.387 . S
H433 C440 0.950 . S
C434 C432 1.387 . S
C434 C436 1.390 . S
C434 H438 0.950 . S
H435 C431 0.950 . S
C436 C434 1.390 . S
C436 C437 1.387 . S
C436 H439 0.950 . S
C437 C436 1.387 . S
C437 C440 1.387 . S
H438 C434 0.950 . S
H439 C436 0.950 . S
C440 C431 1.390 . S
C440 H433 0.950 . S
C440 C437 1.387 . S
C441 C442 1.387 . S
C441 H445 0.950 . S
C441 C450 1.390 . S
C442 C441 1.387 . S
C442 C444 1.387 . S
H443 C450 0.950 . S
C444 C442 1.387 . S
C444 C446 1.390 . S
C444 H448 0.950 . S
H445 C441 0.950 . S
C446 C444 1.390 . S
C446 C447 1.387 . S
C446 H449 0.950 . S
C447 C446 1.387 . S
C447 C450 1.387 . S
H448 C444 0.950 . S
H449 C446 0.950 . S
C450 C441 1.390 . S
C450 H443 0.950 . S
C450 C447 1.387 . S
C451 C452 1.387 . S
C451 H455 0.950 . S
C451 C460 1.390 . S
C452 C451 1.387 . S
C452 C454 1.387 . S
H453 C460 0.950 . S
C454 C452 1.387 . S
C454 C456 1.390 . S
C454 H458 0.950 . S
H455 C451 0.950 . S
C456 C454 1.390 . S
C456 C457 1.387 . S
C456 H459 0.950 . S
C457 C456 1.387 . S
C457 C460 1.387 . S
H458 C454 0.950 . S
H459 C456 0.950 . S
C460 C451 1.390 . S
C460 H453 0.950 . S
C460 C457 1.387 . S
C461 C462 1.387 . S
C461 H465 0.950 . S
C461 C470 1.390 . S
C462 C461 1.387 . S
C462 C464 1.387 . S
H463 C470 0.950 . S
C464 C462 1.387 . S
C464 C466 1.390 . S
C464 H468 0.950 . S
H465 C461 0.950 . S
C466 C464 1.390 . S
C466 C467 1.387 . S
C466 H469 0.950 . S
C467 C466 1.387 . S
C467 C470 1.387 . S
H468 C464 0.950 . S
H469 C466 0.950 . S
C470 C461 1.390 . S
C470 H463 0.950 . S
C470 C467 1.387 . S
C471 C472 1.387 . S
C471 H475 0.950 . S
C471 C480 1.390 . S
C472 C471 1.387 . S
C472 C474 1.387 . S
H473 C480 0.950 . S
C474 C472 1.387 . S
C474 C476 1.390 . S
C474 H478 0.950 . S
H475 C471 0.950 . S
C476 C474 1.390 . S
C476 C477 1.387 . S
C476 H479 0.950 . S
C477 C476 1.387 . S
C477 C480 1.387 . S
H478 C474 0.950 . S
H479 C476 0.950 . S
C480 C471 1.390 . S
C480 H473 0.950 . S
C480 C477 1.387 . S
C481 C482 1.387 . S
C481 H485 0.950 . S
C481 C490 1.390 . S
C482 C481 1.387 . S
C482 C484 1.387 . S
H483 C490 0.950 . S
C484 C482 1.387 . S
C484 C486 1.390 . S
C484 H488 0.950 . S
H485 C481 0.950 . S
C486 C484 1.390 . S
C486 C487 1.387 . S
C486 H489 0.950 . S
C487 C486 1.387 . S
C487 C490 1.387 . S
H488 C484 0.950 . S
H489 C486 0.950 . S
C490 C481 1.390 . S
C490 H483 0.950 . S
C490 C487 1.387 . S
C491 C492 1.387 . S
C491 H495 0.950 . S
C491 C500 1.390 . S
C492 C491 1.387 . S
C492 C494 1.387 . S
H493 C500 0.950 . S
C494 C492 1.387 . S
C494 C496 1.390 . S
C494 H498 0.950 . S
H495 C491 0.950 . S
C496 C494 1.390 . S
C496 C497 1.387 . S
C496 H499 0.950 . S
C497 C496 1.387 . S
C497 C500 1.387 . S
H498 C494 0.950 . S
H499 C496 0.950 . S
C500 C491 1.390 . S
C500 H493 0.950 . S
C500 C497 1.387 . S
C501 C502 1.387 . S
C501 H505 0.950 . S
C501 C510 1.390 . S
C502 C501 1.387 . S
C502 C504 1.387 . S
H503 C510 0.950 . S
C504 C502 1.387 . S
C504 C506 1.390 . S
C504 H508 0.950 . S
H505 C501 0.950 . S
C506 C504 1.390 . S
C506 C507 1.387 . S
C506 H509 0.950 . S
C507 C506 1.387 . S
C507 C510 1.387 . S
H508 C504 0.950 . S
H509 C506 0.950 . S
C510 C501 1.390 . S
C510 H503 0.950 . S
C510 C507 1.387 . S
C511 C512 1.387 . S
C511 H515 0.950 . S
C511 C520 1.390 . S
C512 C511 1.387 . S
C512 C514 1.387 . S
H513 C520 0.950 . S
C514 C512 1.387 . S
C514 C516 1.390 . S
C514 H518 0.950 . S
H515 C511 0.950 . S
C516 C514 1.390 . S
C516 C517 1.387 . S
C516 H519 0.950 . S
C517 C516 1.387 . S
C517 C520 1.387 . S
H518 C514 0.950 . S
H519 C516 0.950 . S
C520 C511 1.390 . S
C520 H513 0.950 . S
C520 C517 1.387 . S
C521 C522 1.387 . S
C521 H525 0.950 . S
C521 C530 1.390 . S
C522 C521 1.387 . S
C522 C524 1.387 . S
H523 C530 0.950 . S
C524 C522 1.387 . S
C524 C526 1.390 . S
C524 H528 0.950 . S
H525 C521 0.950 . S
C526 C524 1.390 . S
C526 C527 1.387 . S
C526 H529 0.950 . S
C527 C526 1.387 . S
C527 C530 1.387 . S
H528 C524 0.950 . S
H529 C526 0.950 . S
C530 C521 1.390 . S
C530 H523 0.950 . S
C530 C527 1.387 . S
C531 C532 1.387 . S
C531 H535 0.950 . S
C531 C540 1.390 . S
C532 C531 1.387 . S
C532 C534 1.387 . S
H533 C540 0.950 . S
C534 C532 1.387 . S
C534 C536 1.390 . S
C534 H538 0.950 . S
H535 C531 0.950 . S
C536 C534 1.390 . S
C536 C537 1.387 . S
C536 H539 0.950 . S
C537 C536 1.387 . S
C537 C540 1.387 . S
H538 C534 0.950 . S
H539 C536 0.950 . S
C540 C531 1.390 . S
C540 H533 0.950 . S
C540 C537 1.387 . S
C541 C542 1.387 . S
C541 H545 0.950 . S
C541 C550 1.390 . S
C542 C541 1.387 . S
C542 C544 1.387 . S
H543 C550 0.950 . S
C544 C542 1.387 . S
C544 C546 1.390 . S
C544 H548 0.950 . S
H545 C541 0.950 . S
C546 C544 1.390 . S
C546 C547 1.387 . S
C546 H549 0.950 . S
C547 C546 1.387 . S
C547 C550 1.387 . S
H548 C544 0.950 . S
H549 C546 0.950 . S
C550 C541 1.390 . S
C550 H543 0.950 . S
C550 C547 1.387 . S
C551 C552 1.387 . S
C551 H555 0.950 . S
C551 C560 1.390 . S
C552 C551 1.387 . S
C552 C554 1.387 . S
H553 C560 0.950 . S
C554 C552 1.387 . S
C554 C556 1.390 . S
C554 H558 0.950 . S
H555 C551 0.950 . S
C556 C554 1.390 . S
C556 C557 1.387 . S
C556 H559 0.950 . S
C557 C556 1.387 . S
C557 C560 1.387 . S
H558 C554 0.950 . S
H559 C556 0.950 . S
C560 C551 1.390 . S
C560 H553 0.950 . S
C560 C557 1.387 . S
C561 C562 1.387 . S
C561 H565 0.950 . S
C561 C570 1.390 . S
C562 C561 1.387 . S
C562 C564 1.387 . S
H563 C570 0.950 . S
C564 C562 1.387 . S
C564 C566 1.390 . S
C564 H568 0.950 . S
H565 C561 0.950 . S
C566 C564 1.390 . S
C566 C567 1.387 . S
C566 H569 0.950 . S
C567 C566 1.387 . S
C567 C570 1.387 . S
H568 C564 0.950 . S
H569 C566 0.950 . S
C570 C561 1.390 . S
C570 H563 0.950 . S
C570 C567 1.387 . S
C571 C572 1.387 . S
C571 H575 0.950 . S
C571 C580 1.390 . S
C572 C571 1.387 . S
C572 C574 1.387 . S
H573 C580 0.950 . S
C574 C572 1.387 . S
C574 C576 1.390 . S
C574 H578 0.950 . S
H575 C571 0.950 . S
C576 C574 1.390 . S
C576 C577 1.387 . S
C576 H579 0.950 . S
C577 C576 1.387 . S
C577 C580 1.387 . S
H578 C574 0.950 . S
H579 C576 0.950 . S
C580 C571 1.390 . S
C580 H573 0.950 . S
C580 C577 1.387 . S
C581 C582 1.387 . S
C581 H585 0.950 . S
C581 C590 1.390 . S
C582 C581 1.387 . S
C582 C584 1.387 . S
H583 C590 0.950 . S
C584 C582 1.387 . S
C584 C586 1.390 . S
C584 H588 0.950 . S
H585 C581 0.950 . S
C586 C584 1.390 . S
C586 C587 1.387 . S
C586 H589 0.950 . S
C587 C586 1.387 . S
C587 C590 1.387 . S
H588 C584 0.950 . S
H589 C586 0.950 . S
C590 C581 1.390 . S
C590 H583 0.950 . S
C590 C587 1.387 . S
C591 C592 1.387 . S
C591 H595 0.950 . S
C591 C600 1.390 . S
C592 C591 1.387 . S
C592 C594 1.387 . S
H593 C600 0.950 . S
C594 C592 1.387 . S
C594 C596 1.390 . S
C594 H598 0.950 . S
H595 C591 0.950 . S
C596 C594 1.390 . S
C596 C597 1.387 . S
C596 H599 0.950 . S
C597 C596 1.387 . S
C597 C600 1.387 . S
H598 C594 0.950 . S
H599 C596 0.950 . S
C600 C591 1.390 . S
C600 H593 0.950 . S
C600 C597 1.387 . S
C601 C602 1.387 . S
C601 H605 0.950 . S
C601 C610 1.390 . S
C602 C601 1.387 . S
C602 C604 1.387 . S
H603 C610 0.950 . S
C604 C602 1.387 . S
C604 C606 1.390 . S
C604 H608 0.950 . S
H605 C601 0.950 . S
C606 C604 1.390 . S
C606 C607 1.387 . S
C606 H609 0.950 . S
C607 C606 1.387 . S
C607 C610 1.387 . S
H608 C604 0.950 . S
H609 C606 0.950 . S
C610 C601 1.390 . S
C610 H603 0.950 . S
C610 C607 1.387 . S
C611 C612 1.387 . S
C611 H615 0.950 . S
C611 C620 1.390 . S
C612 C611 1.387 . S
C612 C614 1.387 . S
H613 C620 0.950 . S
C614 C612 1.387 . S
C614 C616 1.390 . S
C614 H618 0.950 . S
H615 C611 0.950 . S
C616 C614 1.390 . S
C616 C617 1.387 . S
C616 H619 0.950 . S
C617 C616 1.387 . S
C617 C620 1.387 . S
H618 C614 0.950 . S
H619 C616 0.950 . S
C620 C611 1.390 . S
C620 H613 0.950 . S
C620 C617 1.387 . S
C621 C622 1.387 . S
C621 H625 0.950 . S
C621 C630 1.390 . S
C622 C621 1.387 . S
C622 C624 1.387 . S
H623 C630 0.950 . S
C624 C622 1.387 . S
C624 C626 1.390 . S
C624 H628 0.950 . S
H625 C621 0.950 . S
C626 C624 1.390 . S
C626 C627 1.387 . S
C626 H629 0.950 . S
C627 C626 1.387 . S
C627 C630 1.387 . S
H628 C624 0.950 . S
H629 C626 0.950 . S
C630 C621 1.390 . S
C630 H623 0.950 . S
C630 C627 1.387 . S
C631 C632 1.387 . S
C631 H635 0.950 . S
C631 C640 1.390 . S
C632 C631 1.387 . S
C632 C634 1.387 . S
H633 C640 0.950 . S
C634 C632 1.387 . S
C634 C636 1.390 . S
C634 H638 0.950 . S
H635 C631 0.950 . S
C636 C634 1.390 . S
C636 C637 1.387 . S
C636 H639 0.950 . S
C637 C636 1.387 . S
C637 C640 1.387 . S
H638 C634 0.950 . S
H639 C636 0.950 . S
C640 C631 1.390 . S
C640 H633 0.950 . S
C640 C637 1.387 . S
C641 C642 1.387 . S
C641 H645 0.950 . S
C641 C650 1.390 . S
C642 C641 1.387 . S
C642 C644 1.387 . S
H643 C650 0.950 . S
C644 C642 1.387 . S
C644 C646 1.390 . S
C644 H648 0.950 . S
H645 C641 0.950 . S
C646 C644 1.390 . S
C646 C647 1.387 . S
C646 H649 0.950 . S
C647 C646 1.387 . S
C647 C650 1.387 . S
H648 C644 0.950 . S
H649 C646 0.950 . S
C650 C641 1.390 . S
C650 H643 0.950 . S
C650 C647 1.387 . S
C417 C336 1.190 . S
C412 C16 1.236 . S
C427 C372 1.694 . S
C422 C55 1.785 . S
C437 C337 1.451 . S
C432 C99 1.421 . S
C447 C367 1.558 . S
C442 C133 1.566 . S
C457 C334 1.561 . S
C452 C157 1.604 . S
C462 C211 1.691 . S
C467 C370 1.735 . S
C472 C255 1.277 . S
C477 C339 1.161 . S
C487 C369 1.545 . S
C482 C294 1.516 . S
C497 C373 1.546 . S
C492 C21 1.525 . S
C507 C338 1.557 . S
C502 C40 1.591 . S
C517 C366 1.734 . S
C512 C94 1.695 . S
C527 C335 1.162 . S
C522 C138 1.278 . S
C537 C368 1.697 . S
C532 C172 1.785 . S
C542 C216 1.432 . S
C547 C333 1.451 . S
C552 C235 1.574 . S
C557 C371 1.564 . S
C567 C340 1.193 . S
C562 C289 1.242 . S
C577 C402 1.607 . S
C572 C1 1.717 . S
C582 C177 2.034 . S
C587 C405 1.920 . S
C597 C404 1.741 . S
C592 C196 1.752 . S
C602 C250 2.000 . S
C607 C403 2.006 . S
C617 C406 1.611 . S
C612 C274 1.717 . S
C622 C79 1.744 . S
C627 C400 1.739 . S
C637 C399 2.010 . S
C632 C118 2.012 . S
C642 C60 2.019 . S
C647 C401 1.923 . S
