# Generated by pormake.
# Topology rtl, (3,6)-cn, num edge types: 1
# Building blocks:
#     Node 0, Type 0, BuildingBlock: KAKCAD_clean_linker_0, # of connection points: 3
#     Node 1, Type 0, BuildingBlock: KAKCAD_clean_linker_0, # of connection points: 3
#     Node 2, Type 0, BuildingBlock: KAKCAD_clean_linker_0, # of connection points: 3
#     Node 3, Type 0, BuildingBlock: KAKCAD_clean_linker_0, # of connection points: 3
#     Node 4, Type 1, BuildingBlock: KUMBOL_clean_sbu_1, # of connection points: 6
#     Node 5, Type 1, BuildingBlock: KUMBOL_clean_sbu_1, # of connection points: 6
#     Edge 6, Type (0, 1), BuildingBlock: AJUNOK_clean_linker_0, # of connection points: 2
#     Edge 7, Type (0, 1), BuildingBlock: AJUNOK_clean_linker_0, # of connection points: 2
#     Edge 8, Type (0, 1), BuildingBlock: AJUNOK_clean_linker_0, # of connection points: 2
#     Edge 9, Type (0, 1), BuildingBlock: AJUNOK_clean_linker_0, # of connection points: 2
#     Edge 10, Type (0, 1), BuildingBlock: AJUNOK_clean_linker_0, # of connection points: 2
#     Edge 11, Type (0, 1), BuildingBlock: AJUNOK_clean_linker_0, # of connection points: 2
#     Edge 12, Type (0, 1), BuildingBlock: AJUNOK_clean_linker_0, # of connection points: 2
#     Edge 13, Type (0, 1), BuildingBlock: AJUNOK_clean_linker_0, # of connection points: 2
#     Edge 14, Type (0, 1), BuildingBlock: AJUNOK_clean_linker_0, # of connection points: 2
#     Edge 15, Type (0, 1), BuildingBlock: AJUNOK_clean_linker_0, # of connection points: 2
#     Edge 16, Type (0, 1), BuildingBlock: AJUNOK_clean_linker_0, # of connection points: 2
#     Edge 17, Type (0, 1), BuildingBlock: AJUNOK_clean_linker_0, # of connection points: 2
# Relax obj value: 0.018
# Max RMSD: 0.113
# Mean RMSD: 0.067
data_MOF--net-rtl--node1-KUMBOL_clean_sbu_1--node2-KAKCAD_clean_linker_0--edge1-AJUNOK_clean_linker_0
_symmetry_space_group_name_H-M    P1
_symmetry_Int_Tables_number       1
_symmetry_cell_setting            triclinic
loop_
_symmetry_equiv_pos_as_xyz
'x, y, z'
_cell_length_a     31.395233
_cell_length_b     32.153161
_cell_length_c     28.459061
_cell_angle_alpha  77.452161
_cell_angle_beta   99.016662
_cell_angle_gamma 91.148764
loop_
_atom_site_label
_atom_site_type_symbol
_atom_site_fract_x
_atom_site_fract_y
_atom_site_fract_z
_atom_type_partial_charge
C0 C 0.13224 0.86403 0.84179 0.0
C1 C 0.12123 0.90759 0.82887 0.0
C2 C 0.15274 0.84578 0.8887 0.0
C3 C 0.16328 0.87077 0.92367 0.0
C4 C 0.1526 0.91449 0.91055 0.0
C5 C 0.13183 0.93272 0.86358 0.0
C6 C 0.18555 0.85113 0.97345 0.0
C7 C 0.21794 0.82006 0.97986 0.0
C8 C 0.23811 0.79983 0.02661 0.0
C9 C 0.22649 0.812 0.0675 0.0
C10 C 0.1944 0.84344 0.06192 0.0
C11 C 0.17398 0.86257 0.01469 0.0
C12 C 0.18104 0.8556 0.10514 0.0
C13 C 0.17659 0.82454 0.14726 0.0
C14 C 0.17086 0.89829 0.10378 0.0
C15 C 0.15537 0.90947 0.14283 0.0
C16 C 0.1502 0.87834 0.18454 0.0
C17 C 0.27076 0.76557 0.03211 0.0
C18 C 0.2639 0.73516 1.00295 0.0
C19 C 0.30929 0.76351 0.0653 0.0
C20 C 0.34059 0.73219 0.06851 0.0
C21 C 0.33385 0.70234 0.0387 0.0
C22 C 0.29514 0.70402 0.0061 0.0
C23 C 0.16133 0.83581 0.1865 0.0
H24 H 0.12529 0.84406 0.81545 0.0
H25 H 0.16003 0.81193 0.89764 0.0
H26 H 0.16074 0.93475 0.93639 0.0
H27 H 0.12376 0.96642 0.85449 0.0
H28 H 0.22791 0.81189 0.94819 0.0
H29 H 0.14798 0.88547 0.01006 0.0
H30 H 0.24215 0.79671 0.10366 0.0
H31 H 0.18362 0.79129 0.14939 0.0
H32 H 0.17436 0.92312 0.0722 0.0
H33 H 0.14617 0.94237 0.13963 0.0
H34 H 0.23424 0.73537 0.97765 0.0
H35 H 0.31572 0.78674 0.08786 0.0
H36 H 0.15762 0.81112 0.21815 0.0
H37 H 0.28898 0.68108 0.9831 0.0
H38 H 0.37045 0.7319 0.0935 0.0
C39 C 0.62753 0.67307 0.79411 0.0
C40 C 0.6219 0.62898 0.80978 0.0
C41 C 0.6451 0.68912 0.75149 0.0
C42 C 0.65708 0.66135 0.72369 0.0
C43 C 0.6524 0.61724 0.74023 0.0
C44 C 0.63509 0.60128 0.78272 0.0
C45 C 0.67319 0.67777 0.67674 0.0
C46 C 0.70473 0.70953 0.67237 0.0
C47 C 0.72181 0.72233 0.62865 0.0
C48 C 0.70647 0.70357 0.58908 0.0
C49 C 0.67427 0.67257 0.59235 0.0
C50 C 0.65769 0.6602 0.63629 0.0
C51 C 0.65872 0.65238 0.55039 0.0
C52 C 0.6546 0.67621 0.50208 0.0
C53 C 0.64839 0.60883 0.55831 0.0
C54 C 0.63437 0.5897 0.51909 0.0
C55 C 0.63107 0.61343 0.47108 0.0
C56 C 0.75623 0.75472 0.62382 0.0
C57 C 0.75247 0.79361 0.63791 0.0
C58 C 0.79214 0.74771 0.60247 0.0
C59 C 0.82273 0.7794 0.59365 0.0
C60 C 0.81798 0.81906 0.60553 0.0
C61 C 0.78307 0.82552 0.62879 0.0
C62 C 0.6412 0.65684 0.46284 0.0
H63 H 0.61827 0.69509 0.81474 0.0
H64 H 0.64832 0.72324 0.73967 0.0
H65 H 0.66197 0.59495 0.7201 0.0
H66 H 0.63114 0.56718 0.79389 0.0
H67 H 0.71719 0.72303 0.70343 0.0
H68 H 0.6322 0.63699 0.63904 0.0
H69 H 0.72 0.71305 0.55565 0.0
H70 H 0.66142 0.70994 0.49447 0.0
H71 H 0.65191 0.58918 0.59482 0.0
H72 H 0.627 0.55606 0.52621 0.0
H73 H 0.72509 0.79992 0.65434 0.0
H74 H 0.79641 0.71772 0.59219 0.0
H75 H 0.63842 0.67583 0.42602 0.0
H76 H 0.77872 0.85572 0.63856 0.0
H77 H 0.85002 0.77296 0.57714 0.0
C78 C 0.8811 0.08574 0.23336 0.0
C79 C 0.89509 0.11087 0.26727 0.0
C80 C 0.8626 0.10478 0.18588 0.0
C81 C 0.85766 0.14929 0.17152 0.0
C82 C 0.87223 0.17445 0.20536 0.0
C83 C 0.891 0.15538 0.2528 0.0
C84 C 0.83596 0.1691 0.12181 0.0
C85 C 0.80318 0.19963 0.11514 0.0
C86 C 0.77895 0.21579 0.06877 0.0
C87 C 0.79098 0.2027 0.02821 0.0
C88 C 0.82605 0.17433 0.03409 0.0
C89 C 0.84718 0.15665 0.08126 0.0
C90 C 0.84209 0.16359 0.99155 0.0
C91 C 0.8137 0.1551 0.95139 0.0
C92 C 0.88679 0.16065 0.99184 0.0
C93 C 0.90276 0.148 0.95407 0.0
C94 C 0.87454 0.13855 0.91462 0.0
C95 C 0.74172 0.24613 0.06358 0.0
C96 C 0.72125 0.24765 0.10394 0.0
C97 C 0.72661 0.27457 0.01908 0.0
C98 C 0.69254 0.30321 0.01537 0.0
C99 C 0.67364 0.30571 0.05644 0.0
C100 C 0.68925 0.27792 0.10091 0.0
C101 C 0.82984 0.14276 0.91312 0.0
H102 H 0.88457 0.05135 0.2436 0.0
H103 H 0.85138 0.08463 0.16064 0.0
H104 H 0.86915 0.20886 0.19508 0.0
H105 H 0.90174 0.17532 0.27844 0.0
H106 H 0.7966 0.2101 0.1469 0.0
H107 H 0.87298 0.13339 0.08651 0.0
H108 H 0.77373 0.21467 0.99194 0.0
H109 H 0.77912 0.15685 0.95015 0.0
H110 H 0.90963 0.16802 0.0215 0.0
H111 H 0.93736 0.14561 0.95566 0.0
H112 H 0.72972 0.22574 0.13867 0.0
H113 H 0.74124 0.2756 0.98693 0.0
H114 H 0.80747 0.13547 0.88303 0.0
H115 H 0.67761 0.27972 0.13421 0.0
H116 H 0.68143 0.32372 0.9802 0.0
C117 C 0.37583 0.41205 0.31116 0.0
C118 C 0.38885 0.38592 0.28222 0.0
C119 C 0.35934 0.3943 0.35374 0.0
C120 C 0.35585 0.34988 0.36888 0.0
C121 C 0.36846 0.32364 0.33971 0.0
C122 C 0.38503 0.3415 0.29689 0.0
C123 C 0.3406 0.33148 0.41593 0.0
C124 C 0.31094 0.29782 0.42011 0.0
C125 C 0.29564 0.28206 0.46453 0.0
C126 C 0.30966 0.30077 0.50441 0.0
C127 C 0.33925 0.334 0.50076 0.0
C128 C 0.35509 0.34872 0.45691 0.0
C129 C 0.35198 0.3549 0.54206 0.0
C130 C 0.32065 0.37521 0.55959 0.0
C131 C 0.39538 0.35574 0.56317 0.0
C132 C 0.40719 0.37611 0.6019 0.0
C133 C 0.37586 0.39663 0.6196 0.0
C134 C 0.26419 0.24685 0.4698 0.0
C135 C 0.22623 0.24828 0.43596 0.0
C136 C 0.27066 0.21293 0.51083 0.0
C137 C 0.23952 0.18155 0.51842 0.0
C138 C 0.20101 0.18343 0.48531 0.0
C139 C 0.1948 0.21707 0.44382 0.0
C140 C 0.33252 0.3964 0.59748 0.0
H141 H 0.37914 0.44632 0.30136 0.0
H142 H 0.34947 0.4155 0.375 0.0
H143 H 0.36651 0.28931 0.35056 0.0
H144 H 0.3949 0.32063 0.27526 0.0
H145 H 0.29951 0.28419 0.38888 0.0
H146 H 0.37816 0.37436 0.45453 0.0
H147 H 0.29717 0.28977 0.53835 0.0
H148 H 0.28707 0.37553 0.54314 0.0
H149 H 0.42003 0.34029 0.54999 0.0
H150 H 0.44082 0.37564 0.61813 0.0
H151 H 0.22013 0.27441 0.4044 0.0
H152 H 0.29978 0.21086 0.53734 0.0
H153 H 0.30776 0.41323 0.60879 0.0
H154 H 0.16509 0.22002 0.41816 0.0
H155 H 0.24549 0.15586 0.55044 0.0
C156 C 0.94838 0.1295 0.48353 0.0
C157 C 0.87479 0.11911 0.44728 0.0
C158 C 0.91141 0.10535 0.48238 0.0
C159 C 0.87668 0.15671 0.41173 0.0
C160 C 0.94961 0.1685 0.44964 0.0
C161 C 0.91406 0.18135 0.41288 0.0
N162 N 0.98208 0.11613 0.51963 0.0
C163 C 0.01553 0.14281 0.52757 0.0
C164 C 0.98594 0.19403 0.4548 0.0
C165 C 0.0186 0.18156 0.49461 0.0
Gd166 Gd 0.04099 0.95892 0.52384 0.0
Gd167 Gd 0.97605 0.04773 0.56882 0.0
N168 N 0.91109 0.06853 0.51634 0.0
C169 C 0.83725 0.09494 0.44948 0.0
C170 C 0.87405 0.04596 0.52042 0.0
C171 C 0.83668 0.05859 0.48673 0.0
H172 H 0.87384 0.0176 0.5489 0.0
H173 H 0.80761 0.0401 0.48922 0.0
H174 H 0.13405 0.00913 0.50045 0.0
H175 H 0.0398 0.13446 0.5595 0.0
H176 H 0.20847 0.01175 0.54249 0.0
H177 H 0.8084 0.10442 0.42316 0.0
H178 H 0.84914 0.16749 0.38388 0.0
H179 H 1.00101 0.86699 0.57572 0.0
H180 H 0.98821 0.22421 0.42952 0.0
H181 H 0.0459 0.20198 0.50028 0.0
H182 H 0.21701 0.89666 0.68318 0.0
H183 H 0.91466 0.21088 0.38604 0.0
H184 H 0.09441 0.80561 0.69629 0.0
H185 H 0.02243 0.80662 0.64585 0.0
N186 N 0.06024 0.89914 0.58696 0.0
C187 C 0.1007 0.89797 0.61232 0.0
C188 C 0.03266 0.86625 0.59732 0.0
C189 C 0.08534 0.83178 0.66535 0.0
C190 C 0.04467 0.83222 0.63693 0.0
C191 C 0.11415 0.86469 0.65286 0.0
H192 H 0.16673 0.8401 0.71073 0.0
N193 N 0.11481 0.96048 0.55646 0.0
C194 C 0.12867 0.93006 0.59702 0.0
C195 C 0.1999 0.96014 0.60256 0.0
C196 C 0.17136 0.9294 0.62162 0.0
C197 C 0.14355 0.98808 0.53547 0.0
C198 C 0.18615 0.98904 0.55872 0.0
O199 O 0.95261 0.02609 0.49896 0.0
O200 O 0.01438 0.01769 0.46923 0.0
O201 O 0.07827 0.93369 0.47751 0.0
O202 O 0.01118 0.9179 0.47725 0.0
O203 O 0.95048 0.98031 0.5859 0.0
O204 O 0.97048 0.94513 0.52875 0.0
O205 O 0.03037 0.95167 0.60184 0.0
O206 O 0.0387 0.01948 0.61262 0.0
O207 O 0.94739 0.03087 0.63498 0.0
O208 O 0.9615 0.0965 0.60633 0.0
O209 O 0.06051 0.028 0.50229 0.0
O210 O 0.04764 0.05837 0.56534 0.0
C211 C 0.97439 0.0311 0.46265 0.0
C212 C 0.94592 0.94963 0.56116 0.0
C213 C 0.03663 0.93097 0.40184 0.0
C214 C 0.05701 0.93063 0.3228 0.0
C215 C 0.99669 0.97452 0.32792 0.0
C216 C 1.00299 0.96002 0.37842 0.0
C217 C 0.02363 0.95997 0.30015 0.0
C218 C 0.06356 0.91617 0.37371 0.0
C219 C 0.04461 0.91755 0.45547 0.0
C220 C 0.1845 0.89736 0.66342 0.0
C221 C 0.15592 0.86508 0.67903 0.0
H222 H 0.23299 0.96075 0.62032 0.0
C223 C 0.04341 0.97841 0.62956 0.0
C224 C 0.06835 0.05711 0.52869 0.0
C225 C 0.96927 0.07355 0.69136 0.0
C226 C 0.96277 0.08777 0.77074 0.0
C227 C 0.03291 0.07127 0.75241 0.0
C228 C 0.01393 0.06763 0.70582 0.0
C229 C 0.0076 0.08135 0.78469 0.0
C230 C 0.94374 0.0834 0.72389 0.0
C231 C 0.9492 0.06938 0.64247 0.0
H232 H 0.97087 0.99707 0.31032 0.0
H233 H 0.98157 0.97158 0.39915 0.0
H234 H 0.01834 0.97141 0.26094 0.0
H235 H 0.0896 0.89379 0.39129 0.0
H236 H 0.06738 0.06657 0.76343 0.0
H237 H 0.03411 0.06036 0.68108 0.0
H238 H 0.02319 0.0847 0.8204 0.0
H239 H 0.90915 0.08729 0.71283 0.0
C240 C 0.64061 0.55454 0.05569 0.0
C241 C 0.63198 0.62967 0.01699 0.0
C242 C 0.61536 0.59164 0.04209 0.0
C243 C 0.67386 0.62984 0.00539 0.0
C244 C 0.68266 0.55464 0.04411 0.0
C245 C 0.69912 0.59246 0.01892 0.0
N246 N 0.62337 0.51798 0.07855 0.0
C247 C 0.64681 0.4809 0.09248 0.0
C248 C 0.70672 0.51652 0.05761 0.0
C249 C 0.68876 0.47955 0.08208 0.0
Gd250 Gd 0.45757 0.48817 0.99633 0.0
Gd251 Gd 0.55237 0.52303 0.09245 0.0
N252 N 0.57426 0.5902 0.05229 0.0
C253 C 0.60597 0.66646 1.0042 0.0
C254 C 0.54985 0.6266 0.04246 0.0
C255 C 0.56498 0.66502 0.01758 0.0
H256 H 0.51913 0.62677 0.05452 0.0
H257 H 0.54515 0.69363 0.00918 0.0
H258 H 0.49047 0.38478 0.02224 0.0
H259 H 0.63325 0.4524 0.11199 0.0
H260 H 0.466 0.31523 0.06328 0.0
H261 H 0.61753 0.69629 0.98484 0.0
H262 H 0.68702 0.65874 0.98592 0.0
H263 H 0.3748 0.55599 0.9809 0.0
H264 H 0.73914 0.5153 0.04933 0.0
H265 H 0.7072 0.45 0.09289 0.0
H266 H 0.32648 0.3449 0.09771 0.0
H267 H 0.73131 0.59311 0.00955 0.0
H268 H 0.27097 0.48792 0.04252 0.0
H269 H 0.30105 0.55531 1.00124 0.0
N270 N 0.38668 0.49029 0.01196 0.0
C271 C 0.37047 0.45269 0.03359 0.0
C272 C 0.36221 0.52673 0.9998 0.0
C273 C 0.30338 0.48813 0.03387 0.0
C274 C 0.3203 0.52628 0.01075 0.0
C275 C 0.32848 0.4507 0.04558 0.0
H276 H 0.28099 0.4096 0.07904 0.0
N277 N 0.43716 0.41936 0.03315 0.0
C278 C 0.39655 0.41629 0.04482 0.0
C279 C 0.40665 0.34039 0.07549 0.0
C280 C 0.38064 0.37686 0.06734 0.0
C281 C 0.46099 0.38339 0.03727 0.0
C282 C 0.44659 0.34356 0.05939 0.0
O283 O 0.56285 0.52715 0.01444 0.0
O284 O 0.49663 0.54528 0.96833 0.0
O285 O 0.46245 0.45748 0.93635 0.0
O286 O 0.40999 0.50166 0.93086 0.0
O287 O 0.48738 0.55649 0.07983 0.0
O288 O 0.45795 0.55747 0.99984 0.0
O289 O 0.44569 0.48392 0.07375 0.0
O290 O 0.51185 0.46701 0.12079 0.0
O291 O 0.54843 0.55683 0.15004 0.0
O292 O 0.59895 0.50984 0.15888 0.0
O293 O 0.52321 0.45515 0.00997 0.0
O294 O 0.55027 0.4534 0.09084 0.0
C295 C 0.53887 0.54684 0.9741 0.0
C296 C 0.45956 0.57151 0.04023 0.0
C297 C 0.43439 0.49704 0.85805 0.0
C298 C 0.42573 0.4909 0.77308 0.0
C299 C 0.45045 0.55715 0.79588 0.0
C300 C 0.4477 0.53925 0.84458 0.0
C301 C 0.43924 0.53333 0.76023 0.0
C302 C 0.42445 0.47277 0.82253 0.0
C303 C 0.42919 0.47807 0.90857 0.0
C304 C 0.33905 0.37488 0.08003 0.0
C305 C 0.31306 0.41169 0.06921 0.0
H306 H 0.39557 0.30947 0.09252 0.0
C307 C 0.46956 0.46656 0.11519 0.0
C308 C 0.54892 0.43891 0.05088 0.0
C309 C 0.57261 0.51765 0.22951 0.0
C310 C 0.57851 0.52447 0.31408 0.0
C311 C 0.5479 0.46076 0.28969 0.0
C312 C 0.55442 0.47732 0.24185 0.0
C313 C 0.56002 0.484 0.32568 0.0
C314 C 0.58402 0.54134 0.26546 0.0
C315 C 0.58029 0.53526 0.17948 0.0
H316 H 0.46064 0.58979 0.7856 0.0
H317 H 0.45544 0.55837 0.8716 0.0
H318 H 0.44046 0.54834 0.72253 0.0
H319 H 0.41555 0.43976 0.83362 0.0
H320 H 0.53387 0.42959 0.29901 0.0
H321 H 0.54562 0.45858 0.21462 0.0
H322 H 0.55552 0.47002 0.36275 0.0
H323 H 0.59707 0.57292 0.25539 0.0
C324 C 0.15538 0.13963 0.54215 0.0
C325 C 0.16702 0.15109 0.49523 0.0
C326 C 0.12354 0.10928 0.55265 0.0
C327 C 0.10189 0.08925 0.51665 0.0
H328 H 0.17077 0.15451 0.57099 0.0
H329 H 0.11598 0.10137 0.58938 0.0
S330 S 0.12109 0.107 0.38828 0.0
N331 N 0.15524 0.13893 0.41285 0.0
N332 N 0.09468 0.08285 0.4321 0.0
C333 C 0.11331 0.1003 0.4696 0.0
C334 C 0.14589 0.13105 0.45898 0.0
C335 C 0.3805 0.66468 0.99711 0.0
C336 C 0.36729 0.66987 0.04052 0.0
C337 C 0.41094 0.63333 0.99744 0.0
C338 C 0.42915 0.60581 0.04119 0.0
H339 H 0.3672 0.68509 0.96256 0.0
H340 H 0.42006 0.63049 0.96308 0.0
S341 S 0.40427 0.60545 0.16462 0.0
N342 N 0.37404 0.64454 0.12825 0.0
N343 N 0.43137 0.58558 0.12911 0.0
C344 C 0.41648 0.61091 0.08496 0.0
C345 C 0.38549 0.64291 0.08456 0.0
C346 C 0.8679 0.87623 0.62794 0.0
C347 C 0.84914 0.85365 0.59292 0.0
C348 C 0.89859 0.90782 0.61712 0.0
C349 C 0.91177 0.91787 0.57095 0.0
H350 H 0.85951 0.8688 0.66431 0.0
H351 H 0.91283 0.92374 0.64556 0.0
S352 S 0.86862 0.87162 0.46474 0.0
N353 N 0.84318 0.84625 0.5089 0.0
N354 N 0.90119 0.905 0.48884 0.0
C355 C 0.89233 0.8964 0.53521 0.0
C356 C 0.86096 0.86447 0.54612 0.0
C357 C 0.64058 0.37905 0.02247 0.0
C358 C 0.63937 0.3384 0.0535 0.0
C359 C 0.61029 0.41102 0.02073 0.0
C360 C 0.57883 0.40423 0.0514 0.0
H361 H 0.66568 0.38683 1.00005 0.0
H362 H 0.61252 0.44182 0.99656 0.0
S363 S 0.55863 0.30406 0.13668 0.0
N364 N 0.59974 0.29258 0.11175 0.0
N365 N 0.54697 0.35481 0.1128 0.0
C366 C 0.57696 0.36435 0.0826 0.0
C367 C 0.60618 0.33093 0.08259 0.0
C368 C 0.09594 0.86548 0.24181 0.0
C369 C 0.13021 0.8898 0.22416 0.0
C370 C 0.07341 0.878 0.2754 0.0
C371 C 0.08449 0.91513 0.29255 0.0
H372 H 0.08529 0.83749 0.22811 0.0
H373 H 0.04627 0.85932 0.28684 0.0
S374 S 0.1737 0.98784 0.26176 0.0
N375 N 0.17602 0.95111 0.22963 0.0
N376 N 0.13289 0.97486 0.2921 0.0
C377 C 0.11945 0.93891 0.27678 0.0
C378 C 0.14253 0.92618 0.24273 0.0
C379 C 0.62146 0.57663 0.88895 0.0
C380 C 0.60168 0.61125 0.85363 0.0
C381 C 0.60128 0.55663 0.92832 0.0
C382 C 0.56035 0.57022 0.93367 0.0
H383 H 0.65261 0.56454 0.88577 0.0
H384 H 0.61745 0.52959 0.95406 0.0
S385 S 0.49623 0.66143 0.85342 0.0
N386 N 0.53966 0.65947 0.82782 0.0
N387 N 0.50217 0.62242 0.90251 0.0
C388 C 0.54086 0.60571 0.89966 0.0
C389 C 0.56145 0.62615 0.85955 0.0
C390 C 0.95561 0.10251 0.33697 0.0
C391 C 0.91433 0.09064 0.31761 0.0
C392 C 0.97507 0.08274 0.38402 0.0
C393 C 0.95349 0.05115 0.41337 0.0
H394 H 0.9732 0.12676 0.31531 0.0
H395 H 0.00688 0.09267 0.39779 0.0
S396 S 0.84491 0.0091 0.38011 0.0
N397 N 0.85239 0.04562 0.33155 0.0
N398 N 0.88911 0.00862 0.42025 0.0
C399 C 0.91214 0.03929 0.39477 0.0
C400 C 0.89251 0.05901 0.34673 0.0
C401 C 0.42518 0.44522 0.66024 0.0
C402 C 0.38856 0.41922 0.66004 0.0
C403 C 0.43706 0.46796 0.69697 0.0
C404 C 0.41267 0.4659 0.7349 0.0
H405 H 0.44455 0.44861 0.63134 0.0
H406 H 0.46572 0.48723 0.69566 0.0
S407 S 0.31409 0.40198 0.75158 0.0
N408 N 0.32897 0.39134 0.7023 0.0
N409 N 0.34957 0.43616 0.76943 0.0
C410 C 0.37593 0.43999 0.73516 0.0
C411 C 0.36427 0.41626 0.6982 0.0
C412 C 0.57789 0.57174 0.42559 0.0
C413 C 0.61765 0.59252 0.42975 0.0
C414 C 0.56523 0.55045 0.38767 0.0
C415 C 0.59212 0.54869 0.35286 0.0
H416 H 0.55637 0.57208 0.45179 0.0
H417 H 0.53407 0.5353 0.38561 0.0
S418 S 0.7009 0.59595 0.35007 0.0
N419 N 0.68434 0.60937 0.39711 0.0
N420 N 0.66142 0.56824 0.3267 0.0
C421 C 0.63219 0.56922 0.35699 0.0
C422 C 0.64475 0.59136 0.39524 0.0
C423 C 0.92159 0.08877 0.88899 0.0
C424 C 0.89257 0.1236 0.87601 0.0
C425 C 0.94298 0.07661 0.85436 0.0
C426 C 0.93642 0.099 0.80543 0.0
H427 H 0.92837 0.07121 0.92648 0.0
H428 H 0.96535 0.0498 0.86619 0.0
S429 S 0.86362 0.19271 0.753 0.0
N430 N 0.85774 0.17999 0.81104 0.0
N431 N 0.8985 0.1577 0.7458 0.0
C432 C 0.90662 0.13331 0.79172 0.0
C433 C 0.88457 0.14548 0.82706 0.0
C434 C 0.44759 0.39043 0.23084 0.0
C435 C 0.40762 0.40522 0.23775 0.0
C436 C 0.46745 0.41037 0.19104 0.0
C437 C 0.44792 0.44564 0.15659 0.0
H438 H 0.46415 0.36391 0.25703 0.0
H439 H 0.4983 0.39805 0.18724 0.0
S440 S 0.34272 0.49591 0.15733 0.0
N441 N 0.34854 0.45632 0.20582 0.0
N442 N 0.38621 0.49428 0.13181 0.0
C443 C 0.40763 0.46024 0.16262 0.0
C444 C 0.38744 0.43998 0.20304 0.0
C445 C 0.11495 0.96436 0.75212 0.0
C446 C 0.09927 0.92672 0.77898 0.0
C447 C 0.09599 0.98167 0.70399 0.0
C448 C 0.06092 0.96177 0.68117 0.0
H449 H 0.14275 0.97993 0.76799 0.0
H450 H 0.10962 0.01008 0.68406 0.0
S451 S 1.00417 0.86612 0.73746 0.0
N452 N 0.044 0.87254 0.78051 0.0
N453 N 0.0087 0.90496 0.69 0.0
C454 C 0.04399 0.92509 0.70805 0.0
C455 C 0.0631 0.90757 0.75698 0.0
loop_
_geom_bond_atom_site_label_1
_geom_bond_atom_site_label_2
_geom_bond_distance
_geom_bond_site_symmetry_2
_ccdc_geom_bond_type
C0 C1 1.386 . S
C0 C2 1.397 . S
C0 H24 0.931 . S
C1 C0 1.386 . S
C1 C5 1.397 . S
C2 C0 1.397 . S
C2 C3 1.384 . S
C2 H25 0.930 . S
C3 C2 1.384 . S
C3 C4 1.377 . S
C3 C6 1.481 . S
C4 C3 1.377 . S
C4 C5 1.389 . S
C4 H26 0.929 . S
C5 C1 1.397 . S
C5 C4 1.389 . S
C5 H27 0.931 1_565 S
C6 C3 1.481 . S
C6 C7 1.387 . S
C6 C11 1.390 1_556 S
C7 C6 1.387 . S
C7 C8 1.401 1_556 S
C7 H28 0.930 . S
C8 C7 1.401 1_554 S
C8 C9 1.376 . S
C8 C17 1.511 . S
C9 C8 1.376 . S
C9 C10 1.392 . S
C9 H30 0.931 . S
C10 C9 1.392 . S
C10 C11 1.361 . S
C10 C12 1.500 . S
C11 C6 1.390 1_554 S
C11 C10 1.361 . S
C11 H29 0.931 . S
C12 C10 1.500 . S
C12 C13 1.371 . S
C12 C14 1.365 . S
C13 C12 1.371 . S
C13 C23 1.386 . S
C13 H31 0.931 . S
C14 C12 1.365 . S
C14 C15 1.409 . S
C14 H32 0.929 . S
C15 C14 1.409 . S
C15 C16 1.380 . S
C15 H33 0.930 . S
C16 C15 1.380 . S
C16 C23 1.357 . S
C17 C8 1.511 . S
C17 C18 1.341 1_554 S
C17 C19 1.371 . S
C18 C17 1.341 1_556 S
C18 C22 1.394 1_556 S
C18 H34 0.930 . S
C19 C17 1.371 . S
C19 C20 1.392 . S
C19 H35 0.931 . S
C20 C19 1.392 . S
C20 C21 1.331 . S
C20 H38 0.932 . S
C21 C20 1.331 . S
C21 C22 1.336 . S
C22 C18 1.394 1_554 S
C22 C21 1.336 . S
C22 H37 0.929 1_554 S
C23 C13 1.386 . S
C23 C16 1.357 . S
C23 H36 0.928 . S
H24 C0 0.931 . S
H25 C2 0.930 . S
H26 C4 0.929 . S
H27 C5 0.931 1_545 S
H28 C7 0.930 . S
H29 C11 0.931 . S
H30 C9 0.931 . S
H31 C13 0.931 . S
H32 C14 0.929 . S
H33 C15 0.930 . S
H34 C18 0.930 . S
H35 C19 0.931 . S
H36 C23 0.928 . S
H37 C22 0.929 1_556 S
H38 C20 0.932 . S
C39 C40 1.386 . S
C39 C41 1.397 . S
C39 H63 0.931 . S
C40 C39 1.386 . S
C40 C44 1.397 . S
C41 C39 1.397 . S
C41 C42 1.384 . S
C41 H64 0.930 . S
C42 C41 1.384 . S
C42 C43 1.377 . S
C42 C45 1.481 . S
C43 C42 1.377 . S
C43 C44 1.389 . S
C43 H65 0.929 . S
C44 C40 1.397 . S
C44 C43 1.389 . S
C44 H66 0.931 . S
C45 C42 1.481 . S
C45 C46 1.387 . S
C45 C50 1.390 . S
C46 C45 1.387 . S
C46 C47 1.401 . S
C46 H67 0.930 . S
C47 C46 1.401 . S
C47 C48 1.376 . S
C47 C56 1.511 . S
C48 C47 1.376 . S
C48 C49 1.392 . S
C48 H69 0.931 . S
C49 C48 1.392 . S
C49 C50 1.361 . S
C49 C51 1.500 . S
C50 C45 1.390 . S
C50 C49 1.361 . S
C50 H68 0.931 . S
C51 C49 1.500 . S
C51 C52 1.371 . S
C51 C53 1.365 . S
C52 C51 1.371 . S
C52 C62 1.386 . S
C52 H70 0.931 . S
C53 C51 1.365 . S
C53 C54 1.409 . S
C53 H71 0.929 . S
C54 C53 1.409 . S
C54 C55 1.380 . S
C54 H72 0.930 . S
C55 C54 1.380 . S
C55 C62 1.357 . S
C56 C47 1.511 . S
C56 C57 1.341 . S
C56 C58 1.371 . S
C57 C56 1.341 . S
C57 C61 1.394 . S
C57 H73 0.930 . S
C58 C56 1.371 . S
C58 C59 1.392 . S
C58 H74 0.931 . S
C59 C58 1.392 . S
C59 C60 1.331 . S
C59 H77 0.932 . S
C60 C59 1.331 . S
C60 C61 1.336 . S
C61 C57 1.394 . S
C61 C60 1.336 . S
C61 H76 0.929 . S
C62 C52 1.386 . S
C62 C55 1.357 . S
C62 H75 0.928 . S
H63 C39 0.931 . S
H64 C41 0.930 . S
H65 C43 0.929 . S
H66 C44 0.931 . S
H67 C46 0.930 . S
H68 C50 0.931 . S
H69 C48 0.931 . S
H70 C52 0.931 . S
H71 C53 0.929 . S
H72 C54 0.930 . S
H73 C57 0.930 . S
H74 C58 0.931 . S
H75 C62 0.928 . S
H76 C61 0.929 . S
H77 C59 0.932 . S
C78 C79 1.386 . S
C78 C80 1.397 . S
C78 H102 0.931 . S
C79 C78 1.386 . S
C79 C83 1.397 . S
C80 C78 1.397 . S
C80 C81 1.384 . S
C80 H103 0.930 . S
C81 C80 1.384 . S
C81 C82 1.377 . S
C81 C84 1.481 . S
C82 C81 1.377 . S
C82 C83 1.389 . S
C82 H104 0.929 . S
C83 C79 1.397 . S
C83 C82 1.389 . S
C83 H105 0.931 . S
C84 C81 1.481 . S
C84 C85 1.387 . S
C84 C89 1.390 . S
C85 C84 1.387 . S
C85 C86 1.401 . S
C85 H106 0.930 . S
C86 C85 1.401 . S
C86 C87 1.376 . S
C86 C95 1.511 . S
C87 C86 1.376 . S
C87 C88 1.392 . S
C87 H108 0.931 1_554 S
C88 C87 1.392 . S
C88 C89 1.361 . S
C88 C90 1.500 1_554 S
C89 C84 1.390 . S
C89 C88 1.361 . S
C89 H107 0.931 . S
C90 C88 1.500 1_556 S
C90 C91 1.371 . S
C90 C92 1.365 . S
C91 C90 1.371 . S
C91 C101 1.386 . S
C91 H109 0.931 . S
C92 C90 1.365 . S
C92 C93 1.409 . S
C92 H110 0.929 1_556 S
C93 C92 1.409 . S
C93 C94 1.380 . S
C93 H111 0.930 . S
C94 C93 1.380 . S
C94 C101 1.357 . S
C95 C86 1.511 . S
C95 C96 1.341 . S
C95 C97 1.371 . S
C96 C95 1.341 . S
C96 C100 1.394 . S
C96 H112 0.930 . S
C97 C95 1.371 . S
C97 C98 1.391 . S
C97 H113 0.931 1_554 S
C98 C97 1.391 . S
C98 C99 1.339 . S
C98 H116 0.925 1_554 S
C99 C98 1.339 . S
C99 C100 1.336 . S
C100 C96 1.394 . S
C100 C99 1.336 . S
C100 H115 0.929 . S
C101 C91 1.386 . S
C101 C94 1.357 . S
C101 H114 0.928 . S
H102 C78 0.931 . S
H103 C80 0.930 . S
H104 C82 0.929 . S
H105 C83 0.931 . S
H106 C85 0.930 . S
H107 C89 0.931 . S
H108 C87 0.931 1_556 S
H109 C91 0.931 . S
H110 C92 0.929 1_554 S
H111 C93 0.930 . S
H112 C96 0.930 . S
H113 C97 0.931 1_556 S
H114 C101 0.928 . S
H115 C100 0.929 . S
H116 C98 0.925 1_556 S
C117 C118 1.386 . S
C117 C119 1.397 . S
C117 H141 0.931 . S
C118 C117 1.386 . S
C118 C122 1.397 . S
C119 C117 1.397 . S
C119 C120 1.384 . S
C119 H142 0.930 . S
C120 C119 1.384 . S
C120 C121 1.377 . S
C120 C123 1.481 . S
C121 C120 1.377 . S
C121 C122 1.389 . S
C121 H143 0.929 . S
C122 C118 1.397 . S
C122 C121 1.389 . S
C122 H144 0.931 . S
C123 C120 1.481 . S
C123 C124 1.387 . S
C123 C128 1.390 . S
C124 C123 1.387 . S
C124 C125 1.401 . S
C124 H145 0.930 . S
C125 C124 1.401 . S
C125 C126 1.376 . S
C125 C134 1.511 . S
C126 C125 1.376 . S
C126 C127 1.392 . S
C126 H147 0.931 . S
C127 C126 1.392 . S
C127 C128 1.361 . S
C127 C129 1.500 . S
C128 C123 1.390 . S
C128 C127 1.361 . S
C128 H146 0.931 . S
C129 C127 1.500 . S
C129 C130 1.371 . S
C129 C131 1.365 . S
C130 C129 1.371 . S
C130 C140 1.386 . S
C130 H148 0.931 . S
C131 C129 1.365 . S
C131 C132 1.409 . S
C131 H149 0.929 . S
C132 C131 1.409 . S
C132 C133 1.380 . S
C132 H150 0.930 . S
C133 C132 1.380 . S
C133 C140 1.357 . S
C134 C125 1.511 . S
C134 C135 1.341 . S
C134 C136 1.371 . S
C135 C134 1.341 . S
C135 C139 1.394 . S
C135 H151 0.930 . S
C136 C134 1.371 . S
C136 C137 1.392 . S
C136 H152 0.931 . S
C137 C136 1.392 . S
C137 C138 1.331 . S
C137 H155 0.932 . S
C138 C137 1.331 . S
C138 C139 1.336 . S
C139 C135 1.394 . S
C139 C138 1.336 . S
C139 H154 0.929 . S
C140 C130 1.386 . S
C140 C133 1.357 . S
C140 H153 0.928 . S
H141 C117 0.931 . S
H142 C119 0.930 . S
H143 C121 0.929 . S
H144 C122 0.931 . S
H145 C124 0.930 . S
H146 C128 0.931 . S
H147 C126 0.931 . S
H148 C130 0.931 . S
H149 C131 0.929 . S
H150 C132 0.930 . S
H151 C135 0.930 . S
H152 C136 0.931 . S
H153 C140 0.928 . S
H154 C139 0.929 . S
H155 C137 0.932 . S
C156 C158 1.422 . S
C156 C160 1.415 . S
C156 N162 1.369 . S
C157 C158 1.421 . S
C157 C159 1.417 . S
C157 C169 1.422 . S
C158 C156 1.422 . S
C158 C157 1.421 . S
C158 N168 1.359 . S
C159 C157 1.417 . S
C159 C161 1.329 . S
C159 H178 0.930 . S
C160 C156 1.415 . S
C160 C161 1.437 . S
C160 C164 1.413 . S
C161 C159 1.329 . S
C161 C160 1.437 . S
C161 H183 0.929 . S
N162 C156 1.369 . S
N162 C163 1.338 . S
N162 Gd167 2.622 . S
C163 N162 1.338 . S
C163 C165 1.378 . S
C163 H175 0.929 1_655 S
C164 C160 1.413 . S
C164 C165 1.348 . S
C164 H180 0.931 . S
C165 C163 1.378 . S
C165 C164 1.348 . S
C165 H181 0.930 1_655 S
Gd166 N186 2.622 . S
Gd166 N193 2.570 . S
Gd166 O200 2.344 1_465 S
Gd166 O201 2.468 . S
Gd166 O202 2.427 . S
Gd166 O204 2.388 1_455 S
Gd166 O205 2.386 . S
Gd166 O209 2.307 1_565 S
Gd166 C219 2.805 . S
Gd167 N162 2.622 . S
Gd167 N168 2.570 . S
Gd167 O199 2.386 . S
Gd167 O203 2.307 1_545 S
Gd167 O206 2.353 1_655 S
Gd167 O207 2.468 . S
Gd167 O208 2.427 . S
Gd167 O210 2.388 1_655 S
Gd167 C231 2.805 . S
N168 C158 1.359 . S
N168 Gd167 2.570 . S
N168 C170 1.343 . S
C169 C157 1.422 . S
C169 C171 1.321 . S
C169 H177 0.931 . S
C170 N168 1.343 . S
C170 C171 1.390 . S
C170 H172 0.931 . S
C171 C169 1.321 . S
C171 C170 1.390 . S
C171 H173 0.930 . S
H172 C170 0.931 . S
H173 C171 0.930 . S
H174 C197 0.931 . S
H175 C163 0.929 1_455 S
H176 C198 0.930 . S
H177 C169 0.931 . S
H178 C159 0.930 . S
H179 C188 0.929 1_655 S
H180 C164 0.931 . S
H181 C165 0.930 1_455 S
H182 C220 0.930 . S
H183 C161 0.929 . S
H184 C189 0.931 . S
H185 C190 0.930 1_655 S
N186 Gd166 2.622 . S
N186 C187 1.369 . S
N186 C188 1.338 . S
C187 N186 1.369 . S
C187 C191 1.415 . S
C187 C194 1.422 . S
C188 H179 0.929 1_455 S
C188 N186 1.338 . S
C188 C190 1.378 . S
C189 H184 0.931 . S
C189 C190 1.348 . S
C189 C191 1.413 . S
C190 H185 0.930 1_455 S
C190 C188 1.378 . S
C190 C189 1.348 . S
C191 C187 1.415 . S
C191 C189 1.413 . S
C191 C221 1.437 . S
H192 C221 0.929 . S
N193 Gd166 2.570 . S
N193 C194 1.359 . S
N193 C197 1.343 . S
C194 C187 1.422 . S
C194 N193 1.359 . S
C194 C196 1.421 . S
C195 C196 1.422 . S
C195 C198 1.321 . S
C195 H222 0.931 . S
C196 C194 1.421 . S
C196 C195 1.422 . S
C196 C220 1.417 . S
C197 H174 0.931 . S
C197 N193 1.343 . S
C197 C198 1.390 . S
C198 H176 0.930 . S
C198 C195 1.321 . S
C198 C197 1.390 . S
O199 Gd167 2.386 . S
O199 C211 1.265 . S
O200 Gd166 2.344 1_645 S
O200 C211 1.257 . S
O201 Gd166 2.468 . S
O201 C219 1.263 . S
O202 Gd166 2.427 . S
O202 C219 1.252 . S
O203 Gd167 2.307 1_565 S
O203 C212 1.261 . S
O204 Gd166 2.388 1_655 S
O204 C212 1.252 . S
O205 Gd166 2.386 . S
O205 C223 1.265 . S
O206 Gd167 2.353 1_455 S
O206 C223 1.242 1_545 S
O207 Gd167 2.468 . S
O207 C231 1.263 . S
O208 Gd167 2.427 . S
O208 C231 1.252 . S
O209 Gd166 2.307 1_545 S
O209 C224 1.261 . S
O210 Gd167 2.388 1_455 S
O210 C224 1.252 . S
C211 O199 1.265 . S
C211 O200 1.257 . S
C212 O203 1.261 . S
C212 O204 1.252 . S
C213 C216 1.394 . S
C213 C218 1.370 . S
C213 C219 1.500 . S
C214 C217 1.383 . S
C214 C218 1.395 . S
C215 C216 1.396 . S
C215 C217 1.365 . S
C215 H232 0.929 . S
C216 C213 1.394 . S
C216 C215 1.396 . S
C216 H233 0.930 . S
C217 C214 1.383 . S
C217 C215 1.365 . S
C217 H234 0.931 . S
C218 C213 1.370 . S
C218 C214 1.395 . S
C218 H235 0.930 . S
C219 Gd166 2.805 . S
C219 O201 1.263 . S
C219 O202 1.252 . S
C219 C213 1.500 . S
C220 H182 0.930 . S
C220 C196 1.417 . S
C220 C221 1.329 . S
C221 C191 1.437 . S
C221 H192 0.929 . S
C221 C220 1.329 . S
H222 C195 0.931 . S
C223 O205 1.265 . S
C223 O206 1.242 1_565 S
C224 O209 1.261 . S
C224 O210 1.252 . S
C225 C228 1.394 . S
C225 C230 1.370 . S
C225 C231 1.500 . S
C226 C229 1.383 . S
C226 C230 1.395 . S
C227 C228 1.396 . S
C227 C229 1.365 . S
C227 H236 0.929 . S
C228 C225 1.394 . S
C228 C227 1.396 . S
C228 H237 0.930 . S
C229 C226 1.383 . S
C229 C227 1.365 . S
C229 H238 0.931 . S
C230 C225 1.370 . S
C230 C226 1.395 . S
C230 H239 0.930 . S
C231 Gd167 2.805 . S
C231 O207 1.263 . S
C231 O208 1.252 . S
C231 C225 1.500 . S
H232 C215 0.929 . S
H233 C216 0.930 . S
H234 C217 0.931 . S
H235 C218 0.930 . S
H236 C227 0.929 . S
H237 C228 0.930 . S
H238 C229 0.931 . S
H239 C230 0.930 . S
C240 C242 1.422 . S
C240 C244 1.415 . S
C240 N246 1.369 . S
C241 C242 1.421 . S
C241 C243 1.417 . S
C241 C253 1.422 . S
C242 C240 1.422 . S
C242 C241 1.421 . S
C242 N252 1.359 . S
C243 C241 1.417 . S
C243 C245 1.329 . S
C243 H262 0.930 . S
C244 C240 1.415 . S
C244 C245 1.437 . S
C244 C248 1.413 . S
C245 C243 1.329 . S
C245 C244 1.437 . S
C245 H267 0.929 . S
N246 C240 1.369 . S
N246 C247 1.338 . S
N246 Gd251 2.622 . S
C247 N246 1.338 . S
C247 C249 1.378 . S
C247 H259 0.929 . S
C248 C244 1.413 . S
C248 C249 1.348 . S
C248 H264 0.931 . S
C249 C247 1.378 . S
C249 C248 1.348 . S
C249 H265 0.930 . S
Gd250 N270 2.623 . S
Gd250 N277 2.570 1_556 S
Gd250 O284 2.353 . S
Gd250 O285 2.468 . S
Gd250 O286 2.427 . S
Gd250 O288 2.388 1_556 S
Gd250 O289 2.386 1_556 S
Gd250 O293 2.307 1_556 S
Gd250 C303 2.805 . S
Gd251 N246 2.622 . S
Gd251 N252 2.570 . S
Gd251 O283 2.386 . S
Gd251 O287 2.307 . S
Gd251 O290 2.353 . S
Gd251 O291 2.468 . S
Gd251 O292 2.427 . S
Gd251 O294 2.388 . S
Gd251 C315 2.805 . S
N252 C242 1.359 . S
N252 Gd251 2.570 . S
N252 C254 1.343 . S
C253 C241 1.422 . S
C253 C255 1.321 . S
C253 H261 0.931 . S
C254 N252 1.343 . S
C254 C255 1.390 . S
C254 H256 0.931 . S
C255 C253 1.321 . S
C255 C254 1.390 . S
C255 H257 0.930 . S
H256 C254 0.931 . S
H257 C255 0.930 . S
H258 C281 0.931 . S
H259 C247 0.929 . S
H260 C282 0.930 . S
H261 C253 0.931 . S
H262 C243 0.930 . S
H263 C272 0.929 . S
H264 C248 0.931 . S
H265 C249 0.930 . S
H266 C304 0.930 . S
H267 C245 0.929 . S
H268 C273 0.931 . S
H269 C274 0.930 . S
N270 Gd250 2.623 . S
N270 C271 1.367 1_556 S
N270 C272 1.337 . S
C271 N270 1.367 1_554 S
C271 C275 1.415 . S
C271 C278 1.422 . S
C272 H263 0.929 . S
C272 N270 1.337 . S
C272 C274 1.378 . S
C273 H268 0.931 . S
C273 C274 1.348 1_554 S
C273 C275 1.413 . S
C274 H269 0.930 . S
C274 C272 1.378 . S
C274 C273 1.348 1_556 S
C275 C271 1.415 . S
C275 C273 1.413 . S
C275 C305 1.437 . S
H276 C305 0.929 . S
N277 Gd250 2.570 1_554 S
N277 C278 1.359 . S
N277 C281 1.343 . S
C278 C271 1.422 . S
C278 N277 1.359 . S
C278 C280 1.421 . S
C279 C280 1.422 . S
C279 C282 1.321 . S
C279 H306 0.931 . S
C280 C278 1.421 . S
C280 C279 1.422 . S
C280 C304 1.417 . S
C281 H258 0.931 . S
C281 N277 1.343 . S
C281 C282 1.390 . S
C282 H260 0.930 . S
C282 C279 1.321 . S
C282 C281 1.390 . S
O283 Gd251 2.386 . S
O283 C295 1.265 1_554 S
O284 Gd250 2.353 . S
O284 C295 1.242 . S
O285 Gd250 2.468 . S
O285 C303 1.263 . S
O286 Gd250 2.427 . S
O286 C303 1.252 . S
O287 Gd251 2.307 . S
O287 C296 1.261 . S
O288 Gd250 2.388 1_554 S
O288 C296 1.252 . S
O289 Gd250 2.386 1_554 S
O289 C307 1.265 . S
O290 Gd251 2.353 . S
O290 C307 1.242 . S
O291 Gd251 2.468 . S
O291 C315 1.263 . S
O292 Gd251 2.427 . S
O292 C315 1.252 . S
O293 Gd250 2.307 1_554 S
O293 C308 1.261 . S
O294 Gd251 2.388 . S
O294 C308 1.252 . S
C295 O283 1.265 1_556 S
C295 O284 1.242 . S
C296 O287 1.261 . S
C296 O288 1.252 . S
C297 C300 1.394 . S
C297 C302 1.370 . S
C297 C303 1.500 . S
C298 C301 1.383 . S
C298 C302 1.395 . S
C299 C300 1.396 . S
C299 C301 1.365 . S
C299 H316 0.929 . S
C300 C297 1.394 . S
C300 C299 1.396 . S
C300 H317 0.930 . S
C301 C298 1.383 . S
C301 C299 1.365 . S
C301 H318 0.931 . S
C302 C297 1.370 . S
C302 C298 1.395 . S
C302 H319 0.930 . S
C303 Gd250 2.805 . S
C303 O285 1.263 . S
C303 O286 1.252 . S
C303 C297 1.500 . S
C304 H266 0.930 . S
C304 C280 1.417 . S
C304 C305 1.329 . S
C305 C275 1.437 . S
C305 H276 0.929 . S
C305 C304 1.329 . S
H306 C279 0.931 . S
C307 O289 1.265 . S
C307 O290 1.242 . S
C308 O293 1.261 . S
C308 O294 1.252 . S
C309 C312 1.394 . S
C309 C314 1.370 . S
C309 C315 1.500 . S
C310 C313 1.383 . S
C310 C314 1.395 . S
C311 C312 1.396 . S
C311 C313 1.365 . S
C311 H320 0.929 . S
C312 C309 1.394 . S
C312 C311 1.396 . S
C312 H321 0.930 . S
C313 C310 1.383 . S
C313 C311 1.365 . S
C313 H322 0.931 . S
C314 C309 1.370 . S
C314 C310 1.395 . S
C314 H323 0.930 . S
C315 Gd251 2.805 . S
C315 O291 1.263 . S
C315 O292 1.252 . S
C315 C309 1.500 . S
H316 C299 0.929 . S
H317 C300 0.930 . S
H318 C301 0.931 . S
H319 C302 0.930 . S
H320 C311 0.929 . S
H321 C312 0.930 . S
H322 C313 0.931 . S
H323 C314 0.930 . S
C324 C325 1.369 . S
C324 C326 1.419 . S
C324 H328 0.930 . S
C325 C324 1.369 . S
C325 C334 1.429 . S
C326 C324 1.419 . S
C326 C327 1.363 . S
C326 H329 0.929 . S
C327 C326 1.363 . S
C327 C333 1.428 . S
H328 C324 0.930 . S
H329 C326 0.929 . S
S330 N331 1.613 . S
S330 N332 1.610 . S
N331 S330 1.613 . S
N331 C334 1.350 . S
N332 S330 1.610 . S
N332 C333 1.351 . S
C333 C327 1.428 . S
C333 N332 1.351 . S
C333 C334 1.434 . S
C334 C325 1.429 . S
C334 N331 1.350 . S
C334 C333 1.434 . S
C335 C336 1.369 . S
C335 C337 1.419 . S
C335 H339 0.930 . S
C336 C335 1.369 . S
C336 C345 1.429 . S
C337 C335 1.419 . S
C337 C338 1.363 . S
C337 H340 0.929 . S
C338 C337 1.363 . S
C338 C344 1.428 . S
H339 C335 0.930 . S
H340 C337 0.929 . S
S341 N342 1.613 . S
S341 N343 1.610 . S
N342 S341 1.613 . S
N342 C345 1.350 . S
N343 S341 1.610 . S
N343 C344 1.351 . S
C344 C338 1.428 . S
C344 N343 1.351 . S
C344 C345 1.434 . S
C345 C336 1.429 . S
C345 N342 1.350 . S
C345 C344 1.434 . S
C346 C347 1.369 . S
C346 C348 1.419 . S
C346 H350 0.930 . S
C347 C346 1.369 . S
C347 C356 1.429 . S
C348 C346 1.419 . S
C348 C349 1.363 . S
C348 H351 0.929 . S
C349 C348 1.363 . S
C349 C355 1.428 . S
H350 C346 0.930 . S
H351 C348 0.929 . S
S352 N353 1.613 . S
S352 N354 1.610 . S
N353 S352 1.613 . S
N353 C356 1.350 . S
N354 S352 1.610 . S
N354 C355 1.351 . S
C355 C349 1.428 . S
C355 N354 1.351 . S
C355 C356 1.434 . S
C356 C347 1.429 . S
C356 N353 1.350 . S
C356 C355 1.434 . S
C357 C358 1.369 . S
C357 C359 1.419 . S
C357 H361 0.930 1_554 S
C358 C357 1.369 . S
C358 C367 1.429 . S
C359 C357 1.419 . S
C359 C360 1.363 . S
C359 H362 0.929 1_554 S
C360 C359 1.363 . S
C360 C366 1.428 . S
H361 C357 0.930 1_556 S
H362 C359 0.929 1_556 S
S363 N364 1.613 . S
S363 N365 1.610 . S
N364 S363 1.613 . S
N364 C367 1.350 . S
N365 S363 1.610 . S
N365 C366 1.351 . S
C366 C360 1.428 . S
C366 N365 1.351 . S
C366 C367 1.434 . S
C367 C358 1.429 . S
C367 N364 1.350 . S
C367 C366 1.434 . S
C368 C369 1.369 . S
C368 C370 1.419 . S
C368 H372 0.930 . S
C369 C368 1.369 . S
C369 C378 1.429 . S
C370 C368 1.419 . S
C370 C371 1.363 . S
C370 H373 0.929 . S
C371 C370 1.363 . S
C371 C377 1.428 . S
H372 C368 0.930 . S
H373 C370 0.929 . S
S374 N375 1.613 . S
S374 N376 1.610 . S
N375 S374 1.613 . S
N375 C378 1.350 1_545 S
N376 S374 1.610 . S
N376 C377 1.351 1_545 S
C377 C371 1.428 . S
C377 N376 1.351 1_565 S
C377 C378 1.434 . S
C378 C369 1.429 . S
C378 N375 1.350 1_565 S
C378 C377 1.434 . S
C379 C380 1.369 . S
C379 C381 1.419 . S
C379 H383 0.930 . S
C380 C379 1.369 . S
C380 C389 1.429 . S
C381 C379 1.419 . S
C381 C382 1.363 . S
C381 H384 0.929 . S
C382 C381 1.363 . S
C382 C388 1.428 . S
H383 C379 0.930 . S
H384 C381 0.929 . S
S385 N386 1.613 . S
S385 N387 1.610 . S
N386 S385 1.613 . S
N386 C389 1.350 . S
N387 S385 1.610 . S
N387 C388 1.351 . S
C388 C382 1.428 . S
C388 N387 1.351 . S
C388 C389 1.434 . S
C389 C380 1.429 . S
C389 N386 1.350 . S
C389 C388 1.434 . S
C390 C391 1.369 . S
C390 C392 1.419 . S
C390 H394 0.930 . S
C391 C390 1.369 . S
C391 C400 1.429 . S
C392 C390 1.419 . S
C392 C393 1.363 . S
C392 H395 0.929 . S
C393 C392 1.363 . S
C393 C399 1.428 . S
H394 C390 0.930 . S
H395 C392 0.929 . S
S396 N397 1.613 . S
S396 N398 1.610 . S
N397 S396 1.613 . S
N397 C400 1.350 . S
N398 S396 1.610 . S
N398 C399 1.351 . S
C399 C393 1.428 . S
C399 N398 1.351 . S
C399 C400 1.434 . S
C400 C391 1.429 . S
C400 N397 1.350 . S
C400 C399 1.434 . S
C401 C402 1.369 . S
C401 C403 1.419 . S
C401 H405 0.930 . S
C402 C401 1.369 . S
C402 C411 1.429 . S
C403 C401 1.419 . S
C403 C404 1.363 . S
C403 H406 0.929 . S
C404 C403 1.363 . S
C404 C410 1.428 . S
H405 C401 0.930 . S
H406 C403 0.929 . S
S407 N408 1.613 . S
S407 N409 1.610 . S
N408 S407 1.613 . S
N408 C411 1.350 . S
N409 S407 1.610 . S
N409 C410 1.351 . S
C410 C404 1.428 . S
C410 N409 1.351 . S
C410 C411 1.434 . S
C411 C402 1.429 . S
C411 N408 1.350 . S
C411 C410 1.434 . S
C412 C413 1.369 . S
C412 C414 1.419 . S
C412 H416 0.930 . S
C413 C412 1.369 . S
C413 C422 1.429 . S
C414 C412 1.419 . S
C414 C415 1.363 . S
C414 H417 0.929 . S
C415 C414 1.363 . S
C415 C421 1.428 . S
H416 C412 0.930 . S
H417 C414 0.929 . S
S418 N419 1.613 . S
S418 N420 1.610 . S
N419 S418 1.613 . S
N419 C422 1.350 . S
N420 S418 1.610 . S
N420 C421 1.351 . S
C421 C415 1.428 . S
C421 N420 1.351 . S
C421 C422 1.434 . S
C422 C413 1.429 . S
C422 N419 1.350 . S
C422 C421 1.434 . S
C423 C424 1.369 . S
C423 C425 1.419 . S
C423 H427 0.930 . S
C424 C423 1.369 . S
C424 C433 1.429 . S
C425 C423 1.419 . S
C425 C426 1.363 . S
C425 H428 0.929 . S
C426 C425 1.363 . S
C426 C432 1.428 . S
H427 C423 0.930 . S
H428 C425 0.929 . S
S429 N430 1.613 . S
S429 N431 1.610 . S
N430 S429 1.613 . S
N430 C433 1.350 . S
N431 S429 1.610 . S
N431 C432 1.351 . S
C432 C426 1.428 . S
C432 N431 1.351 . S
C432 C433 1.434 . S
C433 C424 1.429 . S
C433 N430 1.350 . S
C433 C432 1.434 . S
C434 C435 1.369 . S
C434 C436 1.419 . S
C434 H438 0.930 . S
C435 C434 1.369 . S
C435 C444 1.429 . S
C436 C434 1.419 . S
C436 C437 1.363 . S
C436 H439 0.929 . S
C437 C436 1.363 . S
C437 C443 1.428 . S
H438 C434 0.930 . S
H439 C436 0.929 . S
S440 N441 1.613 . S
S440 N442 1.610 . S
N441 S440 1.613 . S
N441 C444 1.350 . S
N442 S440 1.610 . S
N442 C443 1.351 . S
C443 C437 1.428 . S
C443 N442 1.351 . S
C443 C444 1.434 . S
C444 C435 1.429 . S
C444 N441 1.350 . S
C444 C443 1.434 . S
C445 C446 1.369 . S
C445 C447 1.417 . S
C445 H449 0.930 1_565 S
C446 C445 1.369 . S
C446 C455 1.429 . S
C447 C445 1.417 . S
C447 C448 1.369 . S
C447 H450 0.924 1_565 S
C448 C447 1.369 . S
C448 C454 1.428 . S
H449 C445 0.930 1_545 S
H450 C447 0.924 1_545 S
S451 N452 1.613 . S
S451 N453 1.610 . S
N452 S451 1.613 . S
N452 C455 1.350 . S
N453 S451 1.610 . S
N453 C454 1.351 . S
C454 C448 1.428 . S
C454 N453 1.351 . S
C454 C455 1.434 . S
C455 C446 1.429 . S
C455 N452 1.350 . S
C455 C454 1.434 . S
C327 C224 1.678 . S
C325 C138 1.645 . S
C336 C21 1.631 . S
C338 C296 1.665 . S
C347 C60 1.648 . S
C349 C212 1.676 . S
C358 C99 1.651 . S
C360 C308 1.662 . S
C371 C214 1.432 . S
C369 C16 1.552 . S
C382 C295 1.633 . S
C380 C40 1.613 . S
C391 C79 1.630 . S
C393 C211 1.667 . S
C402 C133 1.535 . S
C404 C298 1.412 . S
C415 C310 1.414 . S
C413 C55 1.535 . S
C426 C226 1.422 . S
C424 C94 1.547 . S
C437 C307 1.632 . S
C435 C118 1.611 . S
C446 C1 1.621 . S
C448 C223 1.668 . S
