# Generated by pormake.
# Topology apo, (3,6)-cn, num edge types: 1
# Building blocks:
#     Node 0, Type 0, BuildingBlock: BETDIP_clean_linker_0, # of connection points: 3
#     Node 1, Type 0, BuildingBlock: BETDIP_clean_linker_0, # of connection points: 3
#     Node 2, Type 0, BuildingBlock: BETDIP_clean_linker_0, # of connection points: 3
#     Node 3, Type 0, BuildingBlock: BETDIP_clean_linker_0, # of connection points: 3
#     Node 4, Type 0, BuildingBlock: BETDIP_clean_linker_0, # of connection points: 3
#     Node 5, Type 0, BuildingBlock: BETDIP_clean_linker_0, # of connection points: 3
#     Node 6, Type 0, BuildingBlock: BETDIP_clean_linker_0, # of connection points: 3
#     Node 7, Type 0, BuildingBlock: BETDIP_clean_linker_0, # of connection points: 3
#     Node 8, Type 1, BuildingBlock: MIDCAF_clean_sbu_0, # of connection points: 6
#     Node 9, Type 1, BuildingBlock: MIDCAF_clean_sbu_0, # of connection points: 6
#     Node 10, Type 1, BuildingBlock: MIDCAF_clean_sbu_0, # of connection points: 6
#     Node 11, Type 1, BuildingBlock: MIDCAF_clean_sbu_0, # of connection points: 6
#     Edge 12, Type (0, 1), BuildingBlock: EZIPEK_clean_linker_0, # of connection points: 2
#     Edge 13, Type (0, 1), BuildingBlock: EZIPEK_clean_linker_0, # of connection points: 2
#     Edge 14, Type (0, 1), BuildingBlock: EZIPEK_clean_linker_0, # of connection points: 2
#     Edge 15, Type (0, 1), BuildingBlock: EZIPEK_clean_linker_0, # of connection points: 2
#     Edge 16, Type (0, 1), BuildingBlock: EZIPEK_clean_linker_0, # of connection points: 2
#     Edge 17, Type (0, 1), BuildingBlock: EZIPEK_clean_linker_0, # of connection points: 2
#     Edge 18, Type (0, 1), BuildingBlock: EZIPEK_clean_linker_0, # of connection points: 2
#     Edge 19, Type (0, 1), BuildingBlock: EZIPEK_clean_linker_0, # of connection points: 2
#     Edge 20, Type (0, 1), BuildingBlock: EZIPEK_clean_linker_0, # of connection points: 2
#     Edge 21, Type (0, 1), BuildingBlock: EZIPEK_clean_linker_0, # of connection points: 2
#     Edge 22, Type (0, 1), BuildingBlock: EZIPEK_clean_linker_0, # of connection points: 2
#     Edge 23, Type (0, 1), BuildingBlock: EZIPEK_clean_linker_0, # of connection points: 2
#     Edge 24, Type (0, 1), BuildingBlock: EZIPEK_clean_linker_0, # of connection points: 2
#     Edge 25, Type (0, 1), BuildingBlock: EZIPEK_clean_linker_0, # of connection points: 2
#     Edge 26, Type (0, 1), BuildingBlock: EZIPEK_clean_linker_0, # of connection points: 2
#     Edge 27, Type (0, 1), BuildingBlock: EZIPEK_clean_linker_0, # of connection points: 2
#     Edge 28, Type (0, 1), BuildingBlock: EZIPEK_clean_linker_0, # of connection points: 2
#     Edge 29, Type (0, 1), BuildingBlock: EZIPEK_clean_linker_0, # of connection points: 2
#     Edge 30, Type (0, 1), BuildingBlock: EZIPEK_clean_linker_0, # of connection points: 2
#     Edge 31, Type (0, 1), BuildingBlock: EZIPEK_clean_linker_0, # of connection points: 2
#     Edge 32, Type (0, 1), BuildingBlock: EZIPEK_clean_linker_0, # of connection points: 2
#     Edge 33, Type (0, 1), BuildingBlock: EZIPEK_clean_linker_0, # of connection points: 2
#     Edge 34, Type (0, 1), BuildingBlock: EZIPEK_clean_linker_0, # of connection points: 2
#     Edge 35, Type (0, 1), BuildingBlock: EZIPEK_clean_linker_0, # of connection points: 2
# Relax obj value: 0.011
# Max RMSD: 0.060
# Mean RMSD: 0.050
data_MOF--net-apo--node1-MIDCAF_clean_sbu_0--node2-BETDIP_clean_linker_0--edge1-EZIPEK_clean_linker_0
_symmetry_space_group_name_H-M    P1
_symmetry_Int_Tables_number       1
_symmetry_cell_setting            triclinic
loop_
_symmetry_equiv_pos_as_xyz
'x, y, z'
_cell_length_a     27.140949
_cell_length_b     30.301251
_cell_length_c     24.743982
_cell_angle_alpha  90.610591
_cell_angle_beta   90.397766
_cell_angle_gamma 90.584346
loop_
_atom_site_label
_atom_site_type_symbol
_atom_site_fract_x
_atom_site_fract_y
_atom_site_fract_z
_atom_type_partial_charge
H0 H 0.34512 0.25386 0.41947 0.0
H1 H 0.32743 0.35864 0.30418 0.0
H2 H 0.42607 0.37576 0.43864 0.0
H3 H 0.31037 0.3021 0.24575 0.0
C4 C 0.28859 0.28018 0.27071 0.0
C5 C 0.35446 0.28661 0.40539 0.0
C6 C 0.38669 0.31382 0.43619 0.0
C7 C 0.33416 0.30183 0.35638 0.0
C8 C 0.34519 0.34513 0.33952 0.0
C9 C 0.37913 0.37159 0.36849 0.0
C10 C 0.40005 0.35523 0.41601 0.0
N11 N 0.30111 0.27396 0.3262 0.0
H12 H 0.13053 0.23084 0.92207 0.0
H13 H 0.16228 0.13629 0.79637 0.0
H14 H 0.0711 0.09837 0.92918 0.0
H15 H 0.24485 0.17222 0.83682 0.0
C16 C 0.23326 0.20434 0.82252 0.0
C17 C 0.12586 0.19803 0.90483 0.0
C18 C 0.09809 0.16587 0.93243 0.0
C19 C 0.15025 0.18693 0.85665 0.0
C20 C 0.14369 0.14479 0.83365 0.0
C21 C 0.11375 0.11342 0.85876 0.0
C22 C 0.09229 0.12361 0.90867 0.0
N23 N 0.18399 0.21711 0.83321 0.0
H24 H 0.83314 0.20797 0.60149 0.0
H25 H 0.82023 0.12434 0.74083 0.0
H26 H 0.9185 0.08952 0.61287 0.0
H27 H 0.78622 0.18246 0.78032 0.0
C28 C 0.76872 0.20103 0.74842 0.0
C29 C 0.84415 0.17906 0.6238 0.0
C30 C 0.87844 0.14988 0.60132 0.0
C31 C 0.82373 0.17098 0.67482 0.0
C32 C 0.83743 0.1328 0.70299 0.0
C33 C 0.87198 0.10373 0.68099 0.0
C34 C 0.89259 0.11253 0.63041 0.0
N35 N 0.78745 0.2004 0.69483 0.0
H36 H 0.70738 0.28531 0.08458 0.0
H37 H 0.66454 0.36027 0.22562 0.0
H38 H 0.59954 0.38746 0.07156 0.0
H39 H 0.72866 0.33553 0.26558 0.0
C40 C 0.74916 0.31336 0.23984 0.0
C41 C 0.68541 0.31079 0.1034 0.0
C42 C 0.65035 0.33348 0.07246 0.0
C43 C 0.69243 0.32127 0.15851 0.0
C44 C 0.66199 0.35303 0.1829 0.0
C45 C 0.62981 0.37829 0.15151 0.0
C46 C 0.62454 0.36837 0.09621 0.0
N47 N 0.73196 0.30116 0.18705 0.0
H48 H 0.6931 0.70962 0.59085 0.0
H49 H 0.65746 0.62955 0.7287 0.0
H50 H 0.5993 0.59529 0.57227 0.0
H51 H 0.71961 0.66157 0.76903 0.0
C52 C 0.73247 0.69001 0.74693 0.0
C53 C 0.67409 0.68163 0.60833 0.0
C54 C 0.64346 0.65474 0.57559 0.0
C55 C 0.68038 0.67254 0.66355 0.0
C56 C 0.6547 0.6366 0.68611 0.0
C57 C 0.62666 0.60777 0.65305 0.0
C58 C 0.62122 0.61722 0.59795 0.0
N59 N 0.71398 0.69933 0.69425 0.0
H60 H 0.82667 0.778 0.11066 0.0
H61 H 0.85699 0.87354 0.23662 0.0
H62 H 0.94528 0.87091 0.09263 0.0
H63 H 0.80444 0.73537 0.1865 0.0
C64 C 0.78267 0.76056 0.20648 0.0
C65 C 0.84961 0.80415 0.12769 0.0
C66 C 0.88663 0.82297 0.09581 0.0
C67 C 0.84064 0.82109 0.18003 0.0
C68 C 0.86691 0.85844 0.19836 0.0
C69 C 0.90482 0.87699 0.1672 0.0
C70 C 0.91603 0.85724 0.11719 0.0
N71 N 0.80263 0.80374 0.21311 0.0
H72 H 0.19238 0.79536 0.43931 0.0
H73 H 0.17842 0.89875 0.32233 0.0
H74 H 0.08487 0.89672 0.46182 0.0
H75 H 0.2179 0.75615 0.36418 0.0
C76 C 0.24025 0.78057 0.34352 0.0
C77 C 0.17379 0.82424 0.42434 0.0
C78 C 0.13716 0.84391 0.45611 0.0
C79 C 0.18722 0.84319 0.37457 0.0
C80 C 0.16595 0.88295 0.35896 0.0
C81 C 0.1288 0.90242 0.38997 0.0
C82 C 0.11337 0.88171 0.43743 0.0
N83 N 0.22377 0.82472 0.34056 0.0
H84 H 0.29396 0.70538 0.94234 0.0
H85 H 0.3171 0.6109 0.81428 0.0
H86 H 0.41592 0.61667 0.95096 0.0
H87 H 0.28114 0.66626 0.76142 0.0
C88 C 0.2535 0.67896 0.78882 0.0
C89 C 0.31614 0.67976 0.92407 0.0
C90 C 0.35622 0.66265 0.95259 0.0
C91 C 0.30366 0.66306 0.87262 0.0
C92 C 0.32954 0.62677 0.8514 0.0
C93 C 0.37016 0.6095 0.8796 0.0
C94 C 0.38487 0.62972 0.92861 0.0
N95 N 0.26265 0.68146 0.84538 0.0
Zn96 Zn 0.05696 0.17086 0.34096 0.0
Zn97 Zn 0.93016 0.14087 0.21462 0.0
Zn98 Zn 0.00422 0.1461 0.26774 0.0
C99 C 0.00667 0.17238 0.14546 0.0
C100 C 0.95346 0.05462 0.22903 0.0
O101 O 0.9662 0.16093 0.34759 0.0
O102 O 0.01802 0.19653 0.39997 0.0
C103 C 0.10416 0.20498 0.25792 0.0
O104 O 0.03298 0.16872 0.18878 0.0
O105 O 0.96054 0.16768 0.14875 0.0
O106 O 0.9182 0.07661 0.21024 0.0
O107 O 0.99 0.07472 0.25213 0.0
O108 O 0.10324 0.2103 0.30831 0.0
O109 O 0.0711 0.18069 0.23391 0.0
O110 O 0.02471 0.08239 0.29553 0.0
O111 O 0.08095 0.1081 0.35253 0.0
C112 C 0.05927 0.07558 0.32981 0.0
O113 O 0.94744 0.19535 0.29462 0.0
O114 O 0.88062 0.17762 0.24806 0.0
C115 C 0.97748 0.17634 0.39489 0.0
C116 C 0.90259 0.20329 0.28071 0.0
Zn117 Zn 0.58261 0.34409 0.65639 0.0
Zn118 Zn 0.4563 0.35088 0.8447 0.0
Zn119 Zn 0.49909 0.35765 0.76166 0.0
C120 C 0.44766 0.4387 0.81789 0.0
C121 C 0.40388 0.29908 0.77553 0.0
O122 O 0.56608 0.32052 0.77729 0.0
O123 O 0.5721 0.2872 0.69808 0.0
C124 C 0.54977 0.43639 0.70776 0.0
O125 O 0.48187 0.42716 0.7849 0.0
O126 O 0.42524 0.40951 0.84444 0.0
O127 O 0.41348 0.30116 0.82535 0.0
O128 O 0.43005 0.3212 0.74188 0.0
O129 O 0.57347 0.40882 0.67942 0.0
O130 O 0.5165 0.4242 0.74119 0.0
O131 O 0.46308 0.33018 0.68706 0.0
O132 O 0.52645 0.29738 0.64846 0.0
C133 C 0.48153 0.30869 0.64684 0.0
O134 O 0.54915 0.33141 0.82758 0.0
O135 O 0.50583 0.34149 0.90163 0.0
C136 C 0.58593 0.29122 0.74665 0.0
C137 C 0.54584 0.33122 0.87963 0.0
Zn138 Zn 0.05293 0.8499 0.85049 0.0
Zn139 Zn 0.94976 0.84704 0.6919 0.0
Zn140 Zn 0.00014 0.85401 0.77177 0.0
C141 C 0.93489 0.9323 0.73737 0.0
C142 C 0.90396 0.79282 0.75965 0.0
O143 O 0.06508 0.81347 0.74983 0.0
O144 O 0.09141 0.7972 0.83185 0.0
C145 C 0.06542 0.93484 0.80711 0.0
O146 O 0.97567 0.92326 0.76178 0.0
O147 O 0.91691 0.90384 0.70508 0.0
O148 O 0.90921 0.79498 0.70918 0.0
O149 O 0.93239 0.81559 0.79154 0.0
O150 O 0.08534 0.90738 0.83811 0.0
O151 O 0.02438 0.92376 0.78377 0.0
O152 O 0.95803 0.82402 0.84011 0.0
O153 O 0.00548 0.8438 0.90931 0.0
C154 C 0.96568 0.82734 0.89154 0.0
O155 O 0.04411 0.82713 0.70218 0.0
O156 O 0.99657 0.84278 0.63227 0.0
C157 C 0.09349 0.79147 0.78142 0.0
C158 C 0.03738 0.83011 0.6506 0.0
Zn159 Zn 0.54327 0.62936 0.1734 0.0
Zn160 Zn 0.45586 0.63488 0.34411 0.0
Zn161 Zn 0.49891 0.6285 0.26223 0.0
C162 C 0.54813 0.6519 0.37705 0.0
C163 C 0.44029 0.5499 0.31545 0.0
O164 O 0.44989 0.65872 0.1994 0.0
O165 O 0.49151 0.64761 0.12393 0.0
C166 C 0.6011 0.68027 0.24009 0.0
O167 O 0.5507 0.65658 0.32532 0.0
O168 O 0.5093 0.63688 0.39781 0.0
O169 O 0.41667 0.57988 0.33922 0.0
O170 O 0.4778 0.56028 0.28627 0.0
O171 O 0.59567 0.67211 0.19038 0.0
O172 O 0.57017 0.66485 0.27465 0.0
O173 O 0.5121 0.55821 0.24279 0.0
O174 O 0.56091 0.56663 0.17223 0.0
C175 C 0.54027 0.54192 0.2061 0.0
O176 O 0.43151 0.66954 0.25033 0.0
O177 O 0.41921 0.68923 0.33523 0.0
C178 C 0.45316 0.66045 0.14739 0.0
C179 C 0.40859 0.69289 0.28592 0.0
C180 C 0.10886 0.98158 0.41244 0.0
C181 C 0.10832 0.94602 0.37459 0.0
C182 C 0.07917 -0.00361 0.30491 0.0
C183 C 0.07336 0.03004 0.34473 0.0
N184 N 0.06709 0.04773 0.43999 0.0
N185 N 0.07907 0.91765 0.28828 0.0
C186 C 0.08337 0.02056 0.39968 0.0
C187 C 0.08903 0.95273 0.32182 0.0
N188 N 0.13551 0.97939 0.45936 0.0
N189 N 0.07828 0.00612 0.25116 0.0
H190 H 0.08352 0.88502 0.30021 0.0
H191 H 0.06124 0.92101 0.25111 0.0
H192 H 0.07566 0.03821 0.23683 0.0
H193 H 0.08606 0.98286 0.22114 0.0
H194 H 0.13955 0.00625 0.48578 0.0
H195 H 0.15826 0.95298 0.46863 0.0
H196 H 0.07077 0.04009 0.48081 0.0
H197 H 0.04434 0.07453 0.43252 0.0
C198 C 0.40939 0.55996 0.80792 0.0
C199 C 0.39364 0.56711 0.86208 0.0
C200 C 0.43006 0.49667 0.88648 0.0
C201 C 0.43632 0.48551 0.83124 0.0
N202 N 0.42089 0.50448 0.73827 0.0
N203 N 0.37561 0.53299 0.94818 0.0
C204 C 0.42338 0.51668 0.79135 0.0
C205 C 0.40034 0.53293 0.90028 0.0
N206 N 0.41207 0.59418 0.77265 0.0
N207 N 0.45204 0.47246 0.92598 0.0
H208 H 0.3485 0.55589 0.95753 0.0
H209 H 0.37731 0.50682 0.97514 0.0
H210 H 0.47611 0.44671 0.91728 0.0
H211 H 0.45075 0.4815 0.96675 0.0
H212 H 0.42686 0.59076 0.73407 0.0
H213 H 0.40462 0.62666 0.78404 0.0
H214 H 0.40719 0.52516 0.70841 0.0
H215 H 0.42765 0.47231 0.72526 0.0
C216 C 0.55369 0.55681 0.66607 0.0
C217 C 0.60449 0.56638 0.67506 0.0
C218 C 0.61241 0.49578 0.72159 0.0
C219 C 0.56467 0.48325 0.70344 0.0
N220 N 0.49399 0.49882 0.64752 0.0
N221 N 0.68478 0.53934 0.70182 0.0
C222 C 0.53608 0.513 0.67302 0.0
C223 C 0.63464 0.5346 0.70087 0.0
N224 N 0.52219 0.58947 0.65136 0.0
N225 N 0.63693 0.47008 0.75774 0.0
H226 H 0.70343 0.56523 0.68328 0.0
H227 H 0.70825 0.51484 0.71565 0.0
H228 H 0.62149 0.44135 0.77357 0.0
H229 H 0.67017 0.47971 0.77588 0.0
H230 H 0.48419 0.58455 0.6483 0.0
H231 H 0.53347 0.62235 0.64798 0.0
H232 H 0.47462 0.51828 0.62031 0.0
H233 H 0.48084 0.46645 0.65017 0.0
C234 C 0.94428 0.92905 0.2371 0.0
C235 C 0.92782 0.92043 0.18321 0.0
C236 C 0.9506 -0.00408 0.15959 0.0
C237 C 0.95503 0.00709 0.21492 0.0
N238 N 0.955 0.98446 0.30798 0.0
N239 N 0.90783 0.94817 0.09558 0.0
C240 C 0.95229 0.97363 0.25438 0.0
C241 C 0.92964 0.95471 0.1448 0.0
N242 N 0.95319 0.89482 0.27107 0.0
N243 N 0.96703 0.02459 0.1214 0.0
H244 H 0.90371 0.97272 0.06668 0.0
H245 H 0.90371 0.97272 0.06668 0.0
H246 H 0.98522 0.05397 0.132 0.0
H247 H 0.96834 0.01657 0.08036 0.0
H248 H 0.96888 0.89908 0.30935 0.0
H249 H 0.94986 0.86194 0.25849 0.0
H250 H 0.94841 0.96184 0.33858 0.0
H251 H 0.96089 0.01676 0.32165 0.0
C252 C 0.91588 0.05687 0.75019 0.0
C253 C 0.88128 0.06065 0.707 0.0
C254 C 0.8651 0.98161 0.71093 0.0
C255 C 0.90959 0.97632 0.74049 0.0
N256 N 0.95779 0.00792 0.8131 0.0
N257 N 0.81902 0.02679 0.64935 0.0
C258 C 0.92951 0.01378 0.76802 0.0
C259 C 0.85434 0.02311 0.68865 0.0
N260 N 0.93541 0.09429 0.77343 0.0
N261 N 0.83127 0.94796 0.70819 0.0
H262 H 0.80791 0.05698 0.63373 0.0
H263 H 0.80275 -0.00053 0.63016 0.0
H264 H 0.83524 0.91923 0.73063 0.0
H265 H 0.79649 0.95116 0.69063 0.0
H266 H 0.96081 0.0946 0.80503 0.0
H267 H 0.9259 0.12584 0.76083 0.0
H268 H 0.9735 0.03337 0.83607 0.0
H269 H 0.96143 0.97705 0.83076 0.0
C270 C 0.6289 0.45009 0.20546 0.0
C271 C 0.60305 0.4166 0.17556 0.0
C272 C 0.53084 0.46411 0.17191 0.0
C273 C 0.55515 0.49532 0.20595 0.0
N274 N 0.62219 0.51233 0.26704 0.0
N275 N 0.52381 0.38702 0.14694 0.0
C276 C 0.6021 0.48578 0.22761 0.0
C277 C 0.552 0.42194 0.16452 0.0
N278 N 0.67922 0.45069 0.20825 0.0
N279 N 0.48976 0.47554 0.14347 0.0
H280 H 0.53767 0.35511 0.14371 0.0
H281 H 0.4858 0.38911 0.14138 0.0
H282 H 0.47424 0.50683 0.14636 0.0
H283 H 0.4737 0.455 0.11405 0.0
H284 H 0.69927 0.47672 0.22574 0.0
H285 H 0.70129 0.42847 0.18739 0.0
H286 H 0.65494 0.50487 0.28707 0.0
H287 H 0.60336 0.53922 0.28318 0.0
C288 C 0.39044 0.45198 0.39114 0.0
C289 C 0.39174 0.4176 0.35181 0.0
C290 C 0.41811 0.47204 0.28516 0.0
C291 C 0.42641 0.50348 0.32703 0.0
N292 N 0.43178 0.51785 0.42342 0.0
N293 N 0.41785 0.39443 0.2624 0.0
C294 C 0.41601 0.49182 0.38118 0.0
C295 C 0.40863 0.42734 0.29889 0.0
N296 N 0.36362 0.44732 0.43728 0.0
N297 N 0.41613 0.48493 0.23264 0.0
H298 H 0.41469 0.36106 0.27159 0.0
H299 H 0.43376 0.40059 0.22495 0.0
H300 H 0.42026 0.51782 0.22137 0.0
H301 H 0.40478 0.46357 0.20154 0.0
H302 H 0.35906 0.47307 0.46504 0.0
H303 H 0.34131 0.41975 0.44434 0.0
H304 H 0.42788 0.50845 0.46361 0.0
H305 H 0.45386 0.54586 0.41832 0.0
C306 C 0.137 0.03381 0.85715 0.0
C307 C 0.10848 0.06825 0.83532 0.0
C308 C 0.067 0.01491 0.77405 0.0
C309 C 0.08799 0.98042 0.80451 0.0
N310 N 0.16627 0.95974 0.84301 0.0
N311 N 0.05381 0.09407 0.76547 0.0
C312 C 0.13024 0.99045 0.83665 0.0
C313 C 0.07612 0.05965 0.79076 0.0
N314 N 0.17026 0.04228 0.89778 0.0
N315 N 0.04181 0.00478 0.72756 0.0
H316 H 0.05941 0.12687 0.7773 0.0
H317 H 0.02901 0.09058 0.7335 0.0
H318 H 0.04146 0.97292 0.7112 0.0
H319 H 0.02582 0.02783 0.70225 0.0
H320 H 0.18738 0.01737 0.91949 0.0
H321 H 0.17877 0.07406 0.91178 0.0
H322 H 0.19959 0.96638 0.86277 0.0
H323 H 0.16611 0.93008 0.82118 0.0
C324 C 0.10036 0.19082 0.03196 0.0
C325 C 0.07374 0.17528 0.98564 0.0
C326 C 0.0048 0.1559 0.04385 0.0
C327 C 0.02891 0.17589 0.08982 0.0
N328 N 0.09239 0.22727 0.11875 0.0
N329 N 0.99341 0.15984 0.94719 0.0
C330 C 0.07465 0.19786 0.08135 0.0
C331 C 0.02345 0.16382 0.99152 0.0
N332 N 0.15018 0.197 0.03026 0.0
N333 N 0.96675 0.12639 0.04909 0.0
H334 H 0.00551 0.16692 0.90824 0.0
H335 H 0.95549 0.15457 0.95024 0.0
H336 H 0.95475 0.11392 0.08567 0.0
H337 H 0.95164 0.10918 1.0161 0.0
H338 H 0.17102 0.20481 0.0647 0.0
H339 H 0.17111 0.18993 0.99618 0.0
H340 H 0.12407 0.24627 0.11254 0.0
H341 H 0.07145 0.23692 0.15185 0.0
C342 C 0.38061 0.29572 0.5367 0.0
C343 C 0.40916 0.30061 0.48907 0.0
C344 C 0.48208 0.31437 0.54485 0.0
C345 C 0.45538 0.30507 0.59289 0.0
N346 N 0.38164 0.27353 0.6304 0.0
N347 N 0.48989 0.29852 0.44949 0.0
C348 C 0.40519 0.29175 0.58768 0.0
C349 C 0.46097 0.3036 0.49399 0.0
N350 N 0.33041 0.29668 0.53409 0.0
N351 N 0.52529 0.33775 0.54685 0.0
H352 H 0.47514 0.29035 0.41155 0.0
H353 H 0.52826 0.29781 0.45193 0.0
H354 H 0.53777 0.35359 0.58187 0.0
H355 H 0.54406 0.34749 0.51225 0.0
H356 H 0.30845 0.29772 0.56848 0.0
H357 H 0.31096 0.29976 0.49792 0.0
H358 H 0.34605 0.26037 0.628 0.0
H359 H 0.40072 0.26647 0.66569 0.0
C360 C 0.65363 0.35105 0.97383 0.0
C361 C 0.63894 0.32161 1.01502 0.0
C362 C 0.58206 0.28482 0.95126 0.0
C363 C 0.58804 0.32051 0.91549 0.0
N364 N 0.63301 0.38529 0.88827 0.0
N365 N 0.59166 0.25807 0.04272 0.0
C366 C 0.62596 0.35229 0.92468 0.0
C367 C 0.60486 0.28693 1.00319 0.0
N368 N 0.69335 0.37827 0.98267 0.0
N369 N 0.55361 0.2495 0.93544 0.0
H370 H 0.60842 0.25802 0.08075 0.0
H371 H 0.5627 0.23545 0.03878 0.0
H372 H 0.53704 0.24782 0.89722 0.0
H373 H 0.55036 0.2206 0.95756 0.0
H374 H 0.70853 0.39852 0.95331 0.0
H375 H 0.71378 0.37756 0.01856 0.0
H376 H 0.65587 0.41257 0.89517 0.0
H377 H 0.61456 0.38593 0.8512 0.0
C378 C 0.95041 0.17143 0.54524 0.0
C379 C 0.90064 0.15809 0.54739 0.0
C380 C 0.89826 0.15254 0.4477 0.0
C381 C 0.94934 0.1652 0.446 0.0
N382 N 0.02567 0.15998 0.49775 0.0
N383 N 0.82935 0.12702 0.50235 0.0
C384 C 0.97602 0.16721 0.49606 0.0
C385 C 0.87506 0.1462 0.49904 0.0
N386 N 0.97395 0.18732 0.59051 0.0
N387 N 0.87151 0.1461 0.40131 0.0
H388 H 0.81103 0.12286 0.53889 0.0
H389 H 0.81099 0.11225 0.46971 0.0
H390 H 0.8865 0.14469 0.36301 0.0
H391 H 0.83321 0.14395 0.40045 0.0
H392 H 0.00935 0.20102 0.5894 0.0
H393 H 0.95649 0.19071 0.62775 0.0
H394 H 0.0455 0.15792 0.53387 0.0
H395 H 0.0455 0.14874 0.46453 0.0
C396 C 0.87086 0.84165 0.99928 0.0
C397 C 0.89132 0.81211 0.03729 0.0
C398 C 0.94007 0.77805 0.96556 0.0
C399 C 0.92855 0.81394 0.93176 0.0
N400 N 0.88002 0.87787 0.9127 0.0
N401 N 0.94098 0.74895 0.0568 0.0
C402 C 0.89181 0.8444 0.94687 0.0
C403 C 0.92375 0.77852 0.02013 0.0
N404 N 0.83238 0.86773 1.01418 0.0
N405 N 0.96772 0.7444 0.94529 0.0
H406 H 0.92818 0.74794 0.09645 0.0
H407 H 0.96874 0.72645 0.04868 0.0
H408 H 0.97945 0.74401 0.90515 0.0
H409 H 0.97532 0.71562 0.96619 0.0
H410 H 0.81322 0.88776 0.98755 0.0
H411 H 0.81684 0.8664 0.05259 0.0
H412 H 0.858 0.90444 0.92339 0.0
H413 H 0.89404 0.87979 0.87364 0.0
C414 C 0.60293 0.69931 0.50192 0.0
C415 C 0.63428 0.66422 0.5173 0.0
C416 C 0.62323 0.62944 0.42815 0.0
C417 C 0.58944 0.66284 0.41428 0.0
N418 N 0.55992 0.73618 0.42879 0.0
N419 N 0.68739 0.6052 0.4896 0.0
C420 C 0.58432 0.70037 0.44803 0.0
C421 C 0.64923 0.63267 0.47812 0.0
N422 N 0.58769 0.72943 0.53955 0.0
N423 N 0.62733 0.59298 0.39567 0.0
H424 H 0.70686 0.60728 0.5261 0.0
H425 H 0.70255 0.58366 0.46133 0.0
H426 H 0.60858 0.58996 0.35887 0.0
H427 H 0.64694 0.56502 0.40645 0.0
H428 H 0.56037 0.75251 0.53211 0.0
H429 H 0.60016 0.72981 0.57945 0.0
H430 H 0.55788 0.76614 0.44962 0.0
H431 H 0.54596 0.73688 0.38935 0.0
C432 C 0.34899 0.64306 0.0497 0.0
C433 C 0.36507 0.67371 1.01056 0.0
C434 C 0.4179 0.70974 0.07865 0.0
C435 C 0.41134 0.67272 0.11233 0.0
N436 N 0.36969 0.60413 0.13163 0.0
N437 N 0.41055 0.73937 0.98801 0.0
C438 C 0.37528 0.6401 0.09931 0.0
C439 C 0.3974 0.70878 0.02552 0.0
N440 N 0.30963 0.61598 0.03843 0.0
N441 N 0.44528 0.74479 0.09734 0.0
H442 H 0.39472 0.73988 0.94947 0.0
H443 H 0.438 0.76314 0.99431 0.0
H444 H 0.46026 0.74536 0.13637 0.0
H445 H 0.44946 0.77425 0.07653 0.0
H446 H 0.29358 0.59529 0.06681 0.0
H447 H 0.29017 0.61744 1.00197 0.0
H448 H 0.34863 0.57646 0.12087 0.0
H449 H 0.38849 0.60091 0.16824 0.0
C450 C 0.14175 0.8555 0.55583 0.0
C451 C 0.12586 0.82867 0.51167 0.0
C452 C 0.07007 0.7888 0.57171 0.0
C453 C 0.07734 0.82231 0.61139 0.0
N454 N 0.1203 0.88808 0.64221 0.0
N455 N 0.07748 0.76748 0.47721 0.0
C456 C 0.11435 0.85511 0.60453 0.0
C457 C 0.0916 0.79382 0.5198 0.0
N458 N 0.1823 0.8821 0.55035 0.0
N459 N 0.04164 0.75285 0.58378 0.0
H460 H 0.09365 0.76977 0.4392 0.0
H461 H 0.04854 0.74474 0.47881 0.0
H462 H 0.02596 0.74893 0.62189 0.0
H463 H 0.03742 0.72549 0.55831 0.0
H464 H 0.19826 0.89988 0.58231 0.0
H465 H 0.20274 0.88284 0.51477 0.0
H466 H 0.14227 0.91595 0.63626 0.0
H467 H 0.10107 0.88882 0.67853 0.0
C468 C 0.23687 0.21499 0.23984 0.0
C469 C 0.24196 0.2612 0.24824 0.0
C470 C 0.15349 0.27062 0.23333 0.0
C471 C 0.1477 0.22413 0.23101 0.0
N472 N 0.18307 0.15351 0.21307 0.0
N473 N 0.20903 0.334 0.23564 0.0
C474 C 0.18949 0.19689 0.22703 0.0
C475 C 0.20157 0.28941 0.23841 0.0
N476 N 0.27693 0.18852 0.24592 0.0
N477 N 0.11246 0.29632 0.23525 0.0
H478 H 0.24368 0.34874 0.24059 0.0
H479 H 0.18179 0.35602 0.22418 0.0
H480 H 0.07705 0.28296 0.23048 0.0
H481 H 0.11319 0.33005 0.24361 0.0
H482 H 0.27504 0.1542 0.24589 0.0
H483 H 0.31234 0.20119 0.25287 0.0
H484 H 0.2119 0.13181 0.2063 0.0
H485 H 0.14831 0.14044 0.20353 0.0
C486 C 0.3092 0.20855 0.76666 0.0
C487 C 0.27054 0.23164 0.79298 0.0
C488 C 0.31359 0.3009 0.77204 0.0
C489 C 0.35682 0.27702 0.76107 0.0
N490 N 0.3968 0.20732 0.74864 0.0
N491 N 0.23943 0.30256 0.82471 0.0
C492 C 0.35475 0.23054 0.7576 0.0
C493 C 0.27271 0.27875 0.7956 0.0
N494 N 0.30244 0.16568 0.75043 0.0
N495 N 0.31308 0.34527 0.76317 0.0
H496 H 0.21076 0.28895 0.84661 0.0
H497 H 0.24337 0.33636 0.83191 0.0
H498 H 0.34338 0.36184 0.74689 0.0
H499 H 0.28135 0.36417 0.76644 0.0
H500 H 0.32836 0.1485 0.72778 0.0
H501 H 0.26873 0.14914 0.75411 0.0
H502 H 0.39856 0.17312 0.75198 0.0
H503 H 0.43044 0.22286 0.74055 0.0
C504 C 0.68077 0.20443 0.77899 0.0
C505 C 0.7237 0.22666 0.76049 0.0
C506 C 0.67753 0.29548 0.75249 0.0
C507 C 0.63341 0.27136 0.76196 0.0
N508 N 0.59148 0.20482 0.78798 0.0
N509 N 0.7656 0.2938 0.7356 0.0
C510 C 0.6347 0.22651 0.77727 0.0
C511 C 0.72292 0.27253 0.74956 0.0
N512 N 0.68407 0.16214 0.79733 0.0
N513 N 0.67572 0.34026 0.74626 0.0
H514 H 0.80004 0.27893 0.73801 0.0
H515 H 0.76727 0.32571 0.72064 0.0
H516 H 0.64297 0.35788 0.74762 0.0
H517 H 0.70658 0.3607 0.74356 0.0
H518 H 0.65528 0.14522 0.81568 0.0
H519 H 0.71688 0.14456 0.79757 0.0
H520 H 0.58845 0.17093 0.79352 0.0
H521 H 0.55772 0.22098 0.78977 0.0
C522 C 0.79995 0.27522 0.31098 0.0
C523 C 0.79691 0.29638 0.26007 0.0
C524 C 0.88095 0.2738 0.23919 0.0
C525 C 0.88086 0.24766 0.28627 0.0
N526 N 0.854 0.24137 0.37714 0.0
N527 N 0.8405 0.33024 0.18649 0.0
C528 C 0.8446 0.25425 0.32567 0.0
C529 C 0.83955 0.30049 0.22759 0.0
N530 N 0.75975 0.27298 0.34377 0.0
N531 N 0.91933 0.2704 0.20401 0.0
H532 H 0.81117 0.35126 0.17853 0.0
H533 H 0.87173 0.33712 0.16377 0.0
H534 H 0.95096 0.25266 0.21353 0.0
H535 H 0.91933 0.28385 0.16548 0.0
H536 H 0.75866 0.25398 0.37858 0.0
H537 H 0.72645 0.28812 0.33462 0.0
H538 H 0.83047 0.24722 0.40945 0.0
H539 H 0.88885 0.22994 0.38763 0.0
C540 C 0.82083 0.6947 0.77807 0.0
C541 C 0.77525 0.71598 0.76816 0.0
C542 C 0.8152 0.78827 0.78107 0.0
C543 C 0.86146 0.76722 0.77967 0.0
N544 N 0.91027 0.70191 0.78393 0.0
N545 N 0.72642 0.78185 0.76876 0.0
C546 C 0.86476 0.72074 0.78166 0.0
C547 C 0.77157 0.76254 0.77308 0.0
N548 N 0.82216 0.64979 0.78255 0.0
N549 N 0.81364 0.83296 0.7889 0.0
H550 H 0.69367 0.76352 0.76683 0.0
H551 H 0.72097 0.81569 0.76644 0.0
H552 H 0.8455 0.852 0.79484 0.0
H553 H 0.78143 0.85088 0.79327 0.0
H554 H 0.85342 0.63241 0.79363 0.0
H555 H 0.79096 0.62966 0.7787 0.0
H556 H 0.91662 0.66829 0.77946 0.0
H557 H 0.94239 0.72076 0.78938 0.0
C558 C 0.73485 0.70662 0.26124 0.0
C559 C 0.7358 0.74687 0.23244 0.0
C560 C 0.64608 0.75108 0.24034 0.0
C561 C 0.6449 0.70652 0.25622 0.0
N562 N 0.68738 0.64127 0.284 0.0
N563 N 0.69112 0.80736 0.19236 0.0
C564 C 0.6891 0.68443 0.2688 0.0
C565 C 0.69124 0.76994 0.2227 0.0
N566 N 0.77774 0.68965 0.28092 0.0
N567 N 0.60333 0.77444 0.24001 0.0
H568 H 0.72274 0.82157 0.17628 0.0
H569 H 0.65896 0.82245 0.17919 0.0
H570 H 0.57 0.76044 0.25246 0.0
H571 H 0.60195 0.80823 0.23291 0.0
H572 H 0.77901 0.66229 0.30599 0.0
H573 H 0.81167 0.7057 0.27652 0.0
H574 H 0.71843 0.62157 0.28755 0.0
H575 H 0.65419 0.62457 0.29031 0.0
C576 C 0.32948 0.78618 0.31437 0.0
C577 C 0.28253 0.76497 0.31085 0.0
C578 C 0.31938 0.70129 0.26544 0.0
C579 C 0.36638 0.72119 0.27273 0.0
N580 N 0.41447 0.78723 0.28381 0.0
N581 N 0.23071 0.71054 0.26623 0.0
C582 C 0.37041 0.76572 0.28937 0.0
C583 C 0.2768 0.72527 0.28041 0.0
N584 N 0.3363 0.82323 0.34561 0.0
N585 N 0.31573 0.65837 0.24848 0.0
H586 H 0.19896 0.72798 0.27601 0.0
H587 H 0.22433 0.68373 0.24034 0.0
H588 H 0.34631 0.64042 0.23633 0.0
H589 H 0.28302 0.64011 0.2489 0.0
H590 H 0.37087 0.83701 0.35393 0.0
H591 H 0.30826 0.83833 0.36721 0.0
H592 H 0.41933 0.82088 0.29142 0.0
H593 H 0.44471 0.77174 0.26616 0.0
C594 C 0.21633 0.74416 0.74339 0.0
C595 C 0.20993 0.70229 0.76746 0.0
C596 C 0.12109 0.71429 0.77286 0.0
C597 C 0.12938 0.75925 0.76078 0.0
N598 N 0.18323 0.81762 0.73136 0.0
N599 N 0.15665 0.64456 0.79979 0.0
C600 C 0.1763 0.77414 0.7435 0.0
C601 C 0.16217 0.68614 0.77968 0.0
N602 N 0.26095 0.75552 0.72215 0.0
N603 N 0.07383 0.6992 0.77867 0.0
H604 H 0.18592 0.62257 0.80235 0.0
H605 H 0.12379 0.63225 0.81529 0.0
H606 H 0.04353 0.71972 0.77325 0.0
H607 H 0.06441 0.66618 0.78409 0.0
H608 H 0.26712 0.78418 0.70028 0.0
H609 H 0.29091 0.73423 0.7224 0.0
H610 H 0.21756 0.83199 0.7244 0.0
H611 H 0.15433 0.83999 0.73069 0.0
loop_
_geom_bond_atom_site_label_1
_geom_bond_atom_site_label_2
_geom_bond_distance
_geom_bond_site_symmetry_2
_ccdc_geom_bond_type
H0 C5 0.930 . S
H1 C8 0.930 . S
H2 C10 0.930 . S
H3 C4 1.016 . S
C4 H3 1.016 . S
C4 N11 1.286 . S
C5 H0 0.930 . S
C5 C6 1.397 . S
C5 C7 1.361 . S
C6 C5 1.397 . S
C6 C10 1.390 . S
C7 C5 1.361 . S
C7 C8 1.393 . S
C7 N11 1.413 . S
C8 H1 0.930 . S
C8 C7 1.393 . S
C8 C9 1.399 . S
C9 C8 1.399 . S
C9 C10 1.381 . S
C10 H2 0.930 . S
C10 C6 1.390 . S
C10 C9 1.381 . S
N11 C4 1.286 . S
N11 C7 1.413 . S
H12 C17 0.930 . S
H13 C20 0.930 . S
H14 C22 0.930 . S
H15 C16 1.016 . S
C16 H15 1.016 . S
C16 N23 1.286 . S
C17 H12 0.930 . S
C17 C18 1.397 . S
C17 C19 1.361 . S
C18 C17 1.397 . S
C18 C22 1.390 . S
C19 C17 1.361 . S
C19 C20 1.393 . S
C19 N23 1.413 . S
C20 H13 0.930 . S
C20 C19 1.393 . S
C20 C21 1.399 . S
C21 C20 1.399 . S
C21 C22 1.381 . S
C22 H14 0.930 . S
C22 C18 1.390 . S
C22 C21 1.381 . S
N23 C16 1.286 . S
N23 C19 1.413 . S
H24 C29 0.930 . S
H25 C32 0.930 . S
H26 C34 0.930 . S
H27 C28 1.016 . S
C28 H27 1.016 . S
C28 N35 1.286 . S
C29 H24 0.930 . S
C29 C30 1.397 . S
C29 C31 1.361 . S
C30 C29 1.397 . S
C30 C34 1.390 . S
C31 C29 1.361 . S
C31 C32 1.393 . S
C31 N35 1.413 . S
C32 H25 0.930 . S
C32 C31 1.393 . S
C32 C33 1.399 . S
C33 C32 1.399 . S
C33 C34 1.381 . S
C34 H26 0.930 . S
C34 C30 1.390 . S
C34 C33 1.381 . S
N35 C28 1.286 . S
N35 C31 1.413 . S
H36 C41 0.930 . S
H37 C44 0.930 . S
H38 C46 0.930 . S
H39 C40 1.016 . S
C40 H39 1.016 . S
C40 N47 1.286 . S
C41 H36 0.930 . S
C41 C42 1.397 . S
C41 C43 1.361 . S
C42 C41 1.397 . S
C42 C46 1.390 . S
C43 C41 1.361 . S
C43 C44 1.393 . S
C43 N47 1.413 . S
C44 H37 0.930 . S
C44 C43 1.393 . S
C44 C45 1.399 . S
C45 C44 1.399 . S
C45 C46 1.381 . S
C46 H38 0.930 . S
C46 C42 1.390 . S
C46 C45 1.381 . S
N47 C40 1.286 . S
N47 C43 1.413 . S
H48 C53 0.930 . S
H49 C56 0.930 . S
H50 C58 0.930 . S
H51 C52 1.016 . S
C52 H51 1.016 . S
C52 N59 1.286 . S
C53 H48 0.930 . S
C53 C54 1.397 . S
C53 C55 1.361 . S
C54 C53 1.397 . S
C54 C58 1.390 . S
C55 C53 1.361 . S
C55 C56 1.393 . S
C55 N59 1.413 . S
C56 H49 0.930 . S
C56 C55 1.393 . S
C56 C57 1.399 . S
C57 C56 1.399 . S
C57 C58 1.381 . S
C58 H50 0.930 . S
C58 C54 1.390 . S
C58 C57 1.381 . S
N59 C52 1.286 . S
N59 C55 1.413 . S
H60 C65 0.930 . S
H61 C68 0.930 . S
H62 C70 0.930 . S
H63 C64 1.016 . S
C64 H63 1.016 . S
C64 N71 1.286 . S
C65 H60 0.930 . S
C65 C66 1.397 . S
C65 C67 1.361 . S
C66 C65 1.397 . S
C66 C70 1.390 . S
C67 C65 1.361 . S
C67 C68 1.393 . S
C67 N71 1.413 . S
C68 H61 0.930 . S
C68 C67 1.393 . S
C68 C69 1.399 . S
C69 C68 1.399 . S
C69 C70 1.381 . S
C70 H62 0.930 . S
C70 C66 1.390 . S
C70 C69 1.381 . S
N71 C64 1.286 . S
N71 C67 1.413 . S
H72 C77 0.930 . S
H73 C80 0.930 . S
H74 C82 0.930 . S
H75 C76 1.016 . S
C76 H75 1.016 . S
C76 N83 1.286 . S
C77 H72 0.930 . S
C77 C78 1.397 . S
C77 C79 1.361 . S
C78 C77 1.397 . S
C78 C82 1.390 . S
C79 C77 1.361 . S
C79 C80 1.393 . S
C79 N83 1.413 . S
C80 H73 0.930 . S
C80 C79 1.393 . S
C80 C81 1.399 . S
C81 C80 1.399 . S
C81 C82 1.381 . S
C82 H74 0.930 . S
C82 C78 1.390 . S
C82 C81 1.381 . S
N83 C76 1.286 . S
N83 C79 1.413 . S
H84 C89 0.930 . S
H85 C92 0.930 . S
H86 C94 0.930 . S
H87 C88 1.016 . S
C88 H87 1.016 . S
C88 N95 1.286 . S
C89 H84 0.930 . S
C89 C90 1.397 . S
C89 C91 1.361 . S
C90 C89 1.397 . S
C90 C94 1.390 . S
C91 C89 1.361 . S
C91 C92 1.393 . S
C91 N95 1.413 . S
C92 H85 0.930 . S
C92 C91 1.393 . S
C92 C93 1.399 . S
C93 C92 1.399 . S
C93 C94 1.381 . S
C94 H86 0.930 . S
C94 C90 1.390 . S
C94 C93 1.381 . S
N95 C88 1.286 . S
N95 C91 1.413 . S
Zn96 O102 1.918 . S
Zn96 O108 1.898 . S
Zn96 O111 1.905 . S
Zn97 O105 1.905 1_655 S
Zn97 O106 1.898 . S
Zn97 O114 1.920 . S
Zn98 O101 2.080 1_455 S
Zn98 O104 2.114 . S
Zn98 O107 2.120 1_455 S
Zn98 O109 2.120 . S
Zn98 O110 2.114 . S
Zn98 O113 2.080 1_455 S
C99 O104 1.166 . S
C99 O105 1.182 . S
C100 O106 1.167 . S
C100 O107 1.299 . S
O101 Zn98 2.080 1_655 S
O101 C115 1.305 . S
O102 Zn96 1.918 . S
O102 C115 1.236 1_455 S
C103 O108 1.167 . S
C103 O109 1.299 . S
O104 Zn98 2.114 . S
O104 C99 1.166 . S
O105 Zn97 1.905 1_455 S
O105 C99 1.182 . S
O106 Zn97 1.898 . S
O106 C100 1.167 . S
O107 Zn98 2.120 1_655 S
O107 C100 1.299 . S
O108 Zn96 1.898 . S
O108 C103 1.167 . S
O109 Zn98 2.120 . S
O109 C103 1.299 . S
O110 Zn98 2.114 . S
O110 C112 1.166 . S
O111 Zn96 1.905 . S
O111 C112 1.182 . S
C112 O110 1.166 . S
C112 O111 1.182 . S
O113 Zn98 2.080 1_655 S
O113 C116 1.305 . S
O114 Zn97 1.920 . S
O114 C116 1.234 . S
C115 O101 1.305 . S
C115 O102 1.236 1_655 S
C116 O113 1.305 . S
C116 O114 1.234 . S
Zn117 O123 1.920 . S
Zn117 O129 1.898 . S
Zn117 O132 1.905 . S
Zn118 O126 1.905 . S
Zn118 O127 1.898 . S
Zn118 O135 1.920 . S
Zn119 O122 2.080 . S
Zn119 O125 2.114 . S
Zn119 O128 2.120 . S
Zn119 O130 2.120 . S
Zn119 O131 2.114 . S
Zn119 O134 2.080 . S
C120 O125 1.166 . S
C120 O126 1.182 . S
C121 O127 1.167 . S
C121 O128 1.299 . S
O122 Zn119 2.080 . S
O122 C136 1.305 . S
O123 Zn117 1.920 . S
O123 C136 1.234 . S
C124 O129 1.167 . S
C124 O130 1.299 . S
O125 Zn119 2.114 . S
O125 C120 1.166 . S
O126 Zn118 1.905 . S
O126 C120 1.182 . S
O127 Zn118 1.898 . S
O127 C121 1.167 . S
O128 Zn119 2.120 . S
O128 C121 1.299 . S
O129 Zn117 1.898 . S
O129 C124 1.167 . S
O130 Zn119 2.120 . S
O130 C124 1.299 . S
O131 Zn119 2.114 . S
O131 C133 1.166 . S
O132 Zn117 1.905 . S
O132 C133 1.182 . S
C133 O131 1.166 . S
C133 O132 1.182 . S
O134 Zn119 2.080 . S
O134 C137 1.305 . S
O135 Zn118 1.920 . S
O135 C137 1.234 . S
C136 O122 1.305 . S
C136 O123 1.234 . S
C137 O134 1.305 . S
C137 O135 1.234 . S
Zn138 O144 1.920 . S
Zn138 O150 1.898 . S
Zn138 O153 1.905 1_455 S
Zn139 O147 1.905 . S
Zn139 O148 1.898 . S
Zn139 O156 1.920 1_655 S
Zn140 O143 2.080 . S
Zn140 O146 2.114 1_455 S
Zn140 O149 2.120 1_455 S
Zn140 O151 2.120 . S
Zn140 O152 2.114 1_455 S
Zn140 O155 2.080 . S
C141 O146 1.166 . S
C141 O147 1.182 . S
C142 O148 1.167 . S
C142 O149 1.299 . S
O143 Zn140 2.080 . S
O143 C157 1.305 . S
O144 Zn138 1.920 . S
O144 C157 1.234 . S
C145 O150 1.167 . S
C145 O151 1.299 . S
O146 Zn140 2.114 1_655 S
O146 C141 1.166 . S
O147 Zn139 1.905 . S
O147 C141 1.182 . S
O148 Zn139 1.898 . S
O148 C142 1.167 . S
O149 Zn140 2.120 1_655 S
O149 C142 1.299 . S
O150 Zn138 1.898 . S
O150 C145 1.167 . S
O151 Zn140 2.120 . S
O151 C145 1.299 . S
O152 Zn140 2.114 1_655 S
O152 C154 1.166 . S
O153 Zn138 1.905 1_655 S
O153 C154 1.182 . S
C154 O152 1.166 . S
C154 O153 1.182 . S
O155 Zn140 2.080 . S
O155 C158 1.305 . S
O156 Zn139 1.920 1_455 S
O156 C158 1.234 . S
C157 O143 1.305 . S
C157 O144 1.234 . S
C158 O155 1.305 . S
C158 O156 1.234 . S
Zn159 O165 1.920 . S
Zn159 O171 1.898 . S
Zn159 O174 1.905 . S
Zn160 O168 1.905 . S
Zn160 O169 1.898 . S
Zn160 O177 1.920 . S
Zn161 O164 2.080 . S
Zn161 O167 2.114 . S
Zn161 O170 2.120 . S
Zn161 O172 2.120 . S
Zn161 O173 2.114 . S
Zn161 O176 2.080 . S
C162 O167 1.166 . S
C162 O168 1.182 . S
C163 O169 1.167 . S
C163 O170 1.299 . S
O164 Zn161 2.080 . S
O164 C178 1.305 . S
O165 Zn159 1.920 . S
O165 C178 1.234 . S
C166 O171 1.167 . S
C166 O172 1.299 . S
O167 Zn161 2.114 . S
O167 C162 1.166 . S
O168 Zn160 1.905 . S
O168 C162 1.182 . S
O169 Zn160 1.898 . S
O169 C163 1.167 . S
O170 Zn161 2.120 . S
O170 C163 1.299 . S
O171 Zn159 1.898 . S
O171 C166 1.167 . S
O172 Zn161 2.120 . S
O172 C166 1.299 . S
O173 Zn161 2.114 . S
O173 C175 1.166 . S
O174 Zn159 1.905 . S
O174 C175 1.182 . S
C175 O173 1.166 . S
C175 O174 1.182 . S
O176 Zn161 2.080 . S
O176 C179 1.305 . S
O177 Zn160 1.920 . S
O177 C179 1.234 . S
C178 O164 1.305 . S
C178 O165 1.234 . S
C179 O176 1.305 . S
C179 O177 1.234 . S
C180 C181 1.363 . S
C180 C186 1.379 . S
C180 N188 1.356 . S
C181 C180 1.363 . S
C181 C187 1.363 . S
C182 C183 1.363 . S
C182 C187 1.379 . S
C182 N189 1.356 1_565 S
C183 C182 1.363 . S
C183 C186 1.363 . S
N184 C186 1.356 . S
N184 H196 0.984 . S
N184 H197 0.985 1_565 S
N185 C187 1.356 . S
N185 H190 0.984 . S
N185 H191 0.985 . S
C186 C180 1.379 . S
C186 C183 1.363 . S
C186 N184 1.356 . S
C187 C181 1.363 . S
C187 C182 1.379 . S
C187 N185 1.356 . S
N188 C180 1.356 . S
N188 H194 0.984 . S
N188 H195 0.984 . S
N189 C182 1.356 1_545 S
N189 H192 0.984 . S
N189 H193 0.985 1_545 S
H190 N185 0.984 . S
H191 N185 0.985 . S
H192 N189 0.984 . S
H193 N189 0.985 1_565 S
H194 N188 0.984 . S
H195 N188 0.984 . S
H196 N184 0.984 . S
H197 N184 0.985 1_545 S
C198 C199 1.363 . S
C198 C204 1.379 . S
C198 N206 1.356 . S
C199 C198 1.363 . S
C199 C205 1.363 . S
C200 C201 1.363 . S
C200 C205 1.379 . S
C200 N207 1.356 . S
C201 C200 1.363 . S
C201 C204 1.363 . S
N202 C204 1.356 . S
N202 H214 0.984 . S
N202 H215 0.985 . S
N203 C205 1.356 . S
N203 H208 0.984 . S
N203 H209 0.985 . S
C204 C198 1.379 . S
C204 C201 1.363 . S
C204 N202 1.356 . S
C205 C199 1.363 . S
C205 C200 1.379 . S
C205 N203 1.356 . S
N206 C198 1.356 . S
N206 H212 0.984 . S
N206 H213 0.984 . S
N207 C200 1.356 . S
N207 H210 0.984 . S
N207 H211 0.985 . S
H208 N203 0.984 . S
H209 N203 0.985 . S
H210 N207 0.984 . S
H211 N207 0.985 . S
H212 N206 0.984 . S
H213 N206 0.984 . S
H214 N202 0.984 . S
H215 N202 0.985 . S
C216 C217 1.363 . S
C216 C222 1.379 . S
C216 N224 1.356 . S
C217 C216 1.363 . S
C217 C223 1.363 . S
C218 C219 1.363 . S
C218 C223 1.379 . S
C218 N225 1.356 . S
C219 C218 1.363 . S
C219 C222 1.363 . S
N220 C222 1.356 . S
N220 H232 0.984 . S
N220 H233 0.985 . S
N221 C223 1.356 . S
N221 H226 0.984 . S
N221 H227 0.985 . S
C222 C216 1.379 . S
C222 C219 1.363 . S
C222 N220 1.356 . S
C223 C217 1.363 . S
C223 C218 1.379 . S
C223 N221 1.356 . S
N224 C216 1.356 . S
N224 H230 0.984 . S
N224 H231 0.984 . S
N225 C218 1.356 . S
N225 H228 0.984 . S
N225 H229 0.985 . S
H226 N221 0.984 . S
H227 N221 0.985 . S
H228 N225 0.984 . S
H229 N225 0.985 . S
H230 N224 0.984 . S
H231 N224 0.984 . S
H232 N220 0.984 . S
H233 N220 0.985 . S
C234 C235 1.363 . S
C234 C240 1.379 . S
C234 N242 1.356 . S
C235 C234 1.363 . S
C235 C241 1.363 . S
C236 C237 1.363 . S
C236 C241 1.379 . S
C236 N243 1.356 . S
C237 C236 1.363 . S
C237 C240 1.363 . S
N238 C240 1.356 . S
N238 H250 0.984 . S
N238 H251 0.985 1_565 S
N239 C241 1.356 . S
N239 H244 0.984 . S
N239 H245 0.985 . S
C240 C234 1.379 . S
C240 C237 1.363 . S
C240 N238 1.356 . S
C241 C235 1.363 . S
C241 C236 1.379 . S
C241 N239 1.356 . S
N242 C234 1.356 . S
N242 H248 0.984 . S
N242 H249 0.984 . S
N243 C236 1.356 . S
N243 H246 0.984 1_565 S
N243 H247 0.985 . S
H244 N239 0.984 . S
H245 N239 0.985 . S
H246 N243 0.984 1_545 S
H247 N243 0.985 . S
H248 N242 0.984 . S
H249 N242 0.984 . S
H250 N238 0.984 . S
H251 N238 0.985 1_545 S
C252 C253 1.363 . S
C252 C258 1.379 . S
C252 N260 1.356 . S
C253 C252 1.363 . S
C253 C259 1.363 . S
C254 C255 1.363 . S
C254 C259 1.379 . S
C254 N261 1.356 1_545 S
C255 C254 1.363 . S
C255 C258 1.363 . S
N256 C258 1.356 . S
N256 H268 0.984 . S
N256 H269 0.985 . S
N257 C259 1.356 . S
N257 H262 0.984 . S
N257 H263 0.985 . S
C258 C252 1.379 . S
C258 C255 1.363 . S
C258 N256 1.356 . S
C259 C253 1.363 . S
C259 C254 1.379 . S
C259 N257 1.356 . S
N260 C252 1.356 . S
N260 H266 0.984 . S
N260 H267 0.984 . S
N261 C254 1.356 1_565 S
N261 H264 0.984 . S
N261 H265 0.985 . S
H262 N257 0.984 . S
H263 N257 0.985 . S
H264 N261 0.984 . S
H265 N261 0.985 . S
H266 N260 0.984 . S
H267 N260 0.984 . S
H268 N256 0.984 . S
H269 N256 0.985 . S
C270 C271 1.363 . S
C270 C276 1.379 . S
C270 N278 1.356 . S
C271 C270 1.363 . S
C271 C277 1.363 . S
C272 C273 1.363 . S
C272 C277 1.379 . S
C272 N279 1.356 . S
C273 C272 1.363 . S
C273 C276 1.363 . S
N274 C276 1.356 . S
N274 H286 0.984 . S
N274 H287 0.985 . S
N275 C277 1.356 . S
N275 H280 0.984 . S
N275 H281 0.985 . S
C276 C270 1.379 . S
C276 C273 1.363 . S
C276 N274 1.356 . S
C277 C271 1.363 . S
C277 C272 1.379 . S
C277 N275 1.356 . S
N278 C270 1.356 . S
N278 H284 0.984 . S
N278 H285 0.984 . S
N279 C272 1.356 . S
N279 H282 0.984 . S
N279 H283 0.985 . S
H280 N275 0.984 . S
H281 N275 0.985 . S
H282 N279 0.984 . S
H283 N279 0.985 . S
H284 N278 0.984 . S
H285 N278 0.984 . S
H286 N274 0.984 . S
H287 N274 0.985 . S
C288 C289 1.363 . S
C288 C294 1.379 . S
C288 N296 1.356 . S
C289 C288 1.363 . S
C289 C295 1.363 . S
C290 C291 1.363 . S
C290 C295 1.379 . S
C290 N297 1.356 . S
C291 C290 1.363 . S
C291 C294 1.363 . S
N292 C294 1.356 . S
N292 H304 0.984 . S
N292 H305 0.985 . S
N293 C295 1.356 . S
N293 H298 0.984 . S
N293 H299 0.985 . S
C294 C288 1.379 . S
C294 C291 1.363 . S
C294 N292 1.356 . S
C295 C289 1.363 . S
C295 C290 1.379 . S
C295 N293 1.356 . S
N296 C288 1.356 . S
N296 H302 0.984 . S
N296 H303 0.984 . S
N297 C290 1.356 . S
N297 H300 0.984 . S
N297 H301 0.985 . S
H298 N293 0.984 . S
H299 N293 0.985 . S
H300 N297 0.984 . S
H301 N297 0.985 . S
H302 N296 0.984 . S
H303 N296 0.984 . S
H304 N292 0.984 . S
H305 N292 0.985 . S
C306 C307 1.363 . S
C306 C312 1.379 . S
C306 N314 1.356 . S
C307 C306 1.363 . S
C307 C313 1.363 . S
C308 C309 1.363 . S
C308 C313 1.379 . S
C308 N315 1.356 . S
C309 C308 1.363 . S
C309 C312 1.363 . S
N310 C312 1.356 1_565 S
N310 H322 0.984 . S
N310 H323 0.985 . S
N311 C313 1.356 . S
N311 H316 0.984 . S
N311 H317 0.985 . S
C312 C306 1.379 . S
C312 C309 1.363 . S
C312 N310 1.356 1_545 S
C313 C307 1.363 . S
C313 C308 1.379 . S
C313 N311 1.356 . S
N314 C306 1.356 . S
N314 H320 0.984 . S
N314 H321 0.984 . S
N315 C308 1.356 . S
N315 H318 0.984 . S
N315 H319 0.985 . S
H316 N311 0.984 . S
H317 N311 0.985 . S
H318 N315 0.984 . S
H319 N315 0.985 . S
H320 N314 0.984 . S
H321 N314 0.984 . S
H322 N310 0.984 . S
H323 N310 0.985 . S
C324 C325 1.363 . S
C324 C330 1.379 . S
C324 N332 1.356 . S
C325 C324 1.363 . S
C325 C331 1.363 . S
C326 C327 1.363 . S
C326 C331 1.379 . S
C326 N333 1.356 . S
C327 C326 1.363 . S
C327 C330 1.363 . S
N328 C330 1.356 . S
N328 H340 0.984 . S
N328 H341 0.985 . S
N329 C331 1.356 1_556 S
N329 H334 0.984 . S
N329 H335 0.985 . S
C330 C324 1.379 . S
C330 C327 1.363 . S
C330 N328 1.356 . S
C331 C325 1.363 . S
C331 C326 1.379 . S
C331 N329 1.356 1_554 S
N332 C324 1.356 . S
N332 H338 0.984 . S
N332 H339 0.984 1_554 S
N333 C326 1.356 . S
N333 H336 0.986 . S
N333 H337 0.985 1_455 S
H334 N329 0.984 . S
H335 N329 0.985 . S
H336 N333 0.986 . S
H337 N333 0.985 1_655 S
H338 N332 0.984 . S
H339 N332 0.984 1_556 S
H340 N328 0.984 . S
H341 N328 0.985 . S
C342 C343 1.363 . S
C342 C348 1.379 . S
C342 N350 1.356 . S
C343 C342 1.363 . S
C343 C349 1.363 . S
C344 C345 1.363 . S
C344 C349 1.379 . S
C344 N351 1.356 . S
C345 C344 1.363 . S
C345 C348 1.363 . S
N346 C348 1.356 . S
N346 H358 0.984 . S
N346 H359 0.985 . S
N347 C349 1.356 . S
N347 H352 0.984 . S
N347 H353 0.985 . S
C348 C342 1.379 . S
C348 C345 1.363 . S
C348 N346 1.356 . S
C349 C343 1.363 . S
C349 C344 1.379 . S
C349 N347 1.356 . S
N350 C342 1.356 . S
N350 H356 0.984 . S
N350 H357 0.984 . S
N351 C344 1.356 . S
N351 H354 0.984 . S
N351 H355 0.985 . S
H352 N347 0.984 . S
H353 N347 0.985 . S
H354 N351 0.984 . S
H355 N351 0.985 . S
H356 N350 0.984 . S
H357 N350 0.984 . S
H358 N346 0.984 . S
H359 N346 0.985 . S
C360 C361 1.363 . S
C360 C366 1.379 . S
C360 N368 1.356 1_556 S
C361 C360 1.363 . S
C361 C367 1.363 . S
C362 C363 1.363 . S
C362 C367 1.379 . S
C362 N369 1.356 . S
C363 C362 1.363 . S
C363 C366 1.363 . S
N364 C366 1.356 . S
N364 H376 0.984 . S
N364 H377 0.985 . S
N365 C367 1.356 1_554 S
N365 H370 0.984 . S
N365 H371 0.985 . S
C366 C360 1.379 . S
C366 C363 1.363 . S
C366 N364 1.356 . S
C367 C361 1.363 . S
C367 C362 1.379 . S
C367 N365 1.356 1_556 S
N368 C360 1.356 1_554 S
N368 H374 0.984 1_554 S
N368 H375 0.984 . S
N369 C362 1.356 . S
N369 H372 0.984 . S
N369 H373 0.985 . S
H370 N365 0.984 . S
H371 N365 0.985 . S
H372 N369 0.984 . S
H373 N369 0.985 . S
H374 N368 0.984 1_556 S
H375 N368 0.984 . S
H376 N364 0.984 . S
H377 N364 0.985 . S
C378 C379 1.363 . S
C378 C384 1.379 . S
C378 N386 1.356 . S
C379 C378 1.363 . S
C379 C385 1.363 . S
C380 C381 1.363 . S
C380 C385 1.379 . S
C380 N387 1.356 . S
C381 C380 1.363 . S
C381 C384 1.363 . S
N382 C384 1.356 . S
N382 H394 0.984 . S
N382 H395 0.985 . S
N383 C385 1.356 . S
N383 H388 0.984 . S
N383 H389 0.985 . S
C384 C378 1.379 . S
C384 C381 1.363 . S
C384 N382 1.356 . S
C385 C379 1.363 . S
C385 C380 1.379 . S
C385 N383 1.356 . S
N386 C378 1.356 . S
N386 H392 0.984 . S
N386 H393 0.984 . S
N387 C380 1.356 . S
N387 H390 0.984 . S
N387 H391 0.985 . S
H388 N383 0.984 . S
H389 N383 0.985 . S
H390 N387 0.984 . S
H391 N387 0.985 . S
H392 N386 0.984 . S
H393 N386 0.984 . S
H394 N382 0.984 . S
H395 N382 0.985 . S
C396 C397 1.363 . S
C396 C402 1.379 . S
C396 N404 1.348 1_556 S
C397 C396 1.363 . S
C397 C403 1.363 . S
C398 C399 1.363 . S
C398 C403 1.379 . S
C398 N405 1.356 . S
C399 C398 1.363 . S
C399 C402 1.363 . S
N400 C402 1.356 . S
N400 H412 0.984 . S
N400 H413 0.985 . S
N401 C403 1.356 1_554 S
N401 H406 0.984 . S
N401 H407 0.985 1_554 S
C402 C396 1.379 . S
C402 C399 1.363 . S
C402 N400 1.356 . S
C403 C397 1.363 . S
C403 C398 1.379 . S
C403 N401 1.356 1_556 S
N404 C396 1.348 1_554 S
N404 H410 0.982 1_554 S
N404 H411 0.996 . S
N405 C398 1.356 . S
N405 H408 0.984 . S
N405 H409 0.985 . S
H406 N401 0.984 . S
H407 N401 0.985 1_556 S
H408 N405 0.984 . S
H409 N405 0.985 . S
H410 N404 0.982 1_556 S
H411 N404 0.996 . S
H412 N400 0.984 . S
H413 N400 0.985 . S
C414 C415 1.363 . S
C414 C420 1.379 . S
C414 N422 1.356 . S
C415 C414 1.363 . S
C415 C421 1.363 . S
C416 C417 1.363 . S
C416 C421 1.379 . S
C416 N423 1.356 . S
C417 C416 1.363 . S
C417 C420 1.363 . S
N418 C420 1.356 . S
N418 H430 0.984 . S
N418 H431 0.985 . S
N419 C421 1.356 . S
N419 H424 0.984 . S
N419 H425 0.985 . S
C420 C414 1.379 . S
C420 C417 1.363 . S
C420 N418 1.356 . S
C421 C415 1.363 . S
C421 C416 1.379 . S
C421 N419 1.356 . S
N422 C414 1.356 . S
N422 H428 0.984 . S
N422 H429 0.984 . S
N423 C416 1.356 . S
N423 H426 0.984 . S
N423 H427 0.985 . S
H424 N419 0.984 . S
H425 N419 0.985 . S
H426 N423 0.984 . S
H427 N423 0.985 . S
H428 N422 0.984 . S
H429 N422 0.984 . S
H430 N418 0.984 . S
H431 N418 0.985 . S
C432 C433 1.363 . S
C432 C438 1.379 . S
C432 N440 1.356 . S
C433 C432 1.363 . S
C433 C439 1.363 . S
C434 C435 1.363 . S
C434 C439 1.379 . S
C434 N441 1.356 . S
C435 C434 1.363 . S
C435 C438 1.363 . S
N436 C438 1.356 . S
N436 H448 0.984 . S
N436 H449 0.985 . S
N437 C439 1.356 1_556 S
N437 H442 0.984 . S
N437 H443 0.985 . S
C438 C432 1.379 . S
C438 C435 1.363 . S
C438 N436 1.356 . S
C439 C433 1.363 . S
C439 C434 1.379 . S
C439 N437 1.356 1_554 S
N440 C432 1.356 . S
N440 H446 0.984 . S
N440 H447 0.984 1_554 S
N441 C434 1.356 . S
N441 H444 0.984 . S
N441 H445 0.985 . S
H442 N437 0.984 . S
H443 N437 0.985 . S
H444 N441 0.984 . S
H445 N441 0.985 . S
H446 N440 0.984 . S
H447 N440 0.984 1_556 S
H448 N436 0.984 . S
H449 N436 0.985 . S
C450 C451 1.363 . S
C450 C456 1.379 . S
C450 N458 1.356 . S
C451 C450 1.363 . S
C451 C457 1.363 . S
C452 C453 1.363 . S
C452 C457 1.379 . S
C452 N459 1.356 . S
C453 C452 1.363 . S
C453 C456 1.363 . S
N454 C456 1.356 . S
N454 H466 0.984 . S
N454 H467 0.985 . S
N455 C457 1.356 . S
N455 H460 0.984 . S
N455 H461 0.985 . S
C456 C450 1.379 . S
C456 C453 1.363 . S
C456 N454 1.356 . S
C457 C451 1.363 . S
C457 C452 1.379 . S
C457 N455 1.356 . S
N458 C450 1.356 . S
N458 H464 0.984 . S
N458 H465 0.984 . S
N459 C452 1.356 . S
N459 H462 0.984 . S
N459 H463 0.985 . S
H460 N455 0.984 . S
H461 N455 0.985 . S
H462 N459 0.984 . S
H463 N459 0.985 . S
H464 N458 0.984 . S
H465 N458 0.984 . S
H466 N454 0.984 . S
H467 N454 0.985 . S
C468 C469 1.363 . S
C468 C474 1.379 . S
C468 N476 1.356 . S
C469 C468 1.363 . S
C469 C475 1.363 . S
C470 C471 1.363 . S
C470 C475 1.379 . S
C470 N477 1.356 . S
C471 C470 1.363 . S
C471 C474 1.363 . S
N472 C474 1.356 . S
N472 H484 0.984 . S
N472 H485 0.985 . S
N473 C475 1.356 . S
N473 H478 0.984 . S
N473 H479 0.985 . S
C474 C468 1.379 . S
C474 C471 1.363 . S
C474 N472 1.356 . S
C475 C469 1.363 . S
C475 C470 1.379 . S
C475 N473 1.356 . S
N476 C468 1.356 . S
N476 H482 0.984 . S
N476 H483 0.984 . S
N477 C470 1.356 . S
N477 H480 0.984 . S
N477 H481 0.985 . S
H478 N473 0.984 . S
H479 N473 0.985 . S
H480 N477 0.984 . S
H481 N477 0.985 . S
H482 N476 0.984 . S
H483 N476 0.984 . S
H484 N472 0.984 . S
H485 N472 0.985 . S
C486 C487 1.363 . S
C486 C492 1.379 . S
C486 N494 1.356 . S
C487 C486 1.363 . S
C487 C493 1.363 . S
C488 C489 1.363 . S
C488 C493 1.379 . S
C488 N495 1.356 . S
C489 C488 1.363 . S
C489 C492 1.363 . S
N490 C492 1.356 . S
N490 H502 0.984 . S
N490 H503 0.985 . S
N491 C493 1.356 . S
N491 H496 0.984 . S
N491 H497 0.985 . S
C492 C486 1.379 . S
C492 C489 1.363 . S
C492 N490 1.356 . S
C493 C487 1.363 . S
C493 C488 1.379 . S
C493 N491 1.356 . S
N494 C486 1.356 . S
N494 H500 0.984 . S
N494 H501 0.984 . S
N495 C488 1.356 . S
N495 H498 0.984 . S
N495 H499 0.985 . S
H496 N491 0.984 . S
H497 N491 0.985 . S
H498 N495 0.984 . S
H499 N495 0.985 . S
H500 N494 0.984 . S
H501 N494 0.984 . S
H502 N490 0.984 . S
H503 N490 0.985 . S
C504 C505 1.363 . S
C504 C510 1.379 . S
C504 N512 1.356 . S
C505 C504 1.363 . S
C505 C511 1.363 . S
C506 C507 1.363 . S
C506 C511 1.379 . S
C506 N513 1.356 . S
C507 C506 1.363 . S
C507 C510 1.363 . S
N508 C510 1.356 . S
N508 H520 0.984 . S
N508 H521 0.985 . S
N509 C511 1.356 . S
N509 H514 0.984 . S
N509 H515 0.985 . S
C510 C504 1.379 . S
C510 C507 1.363 . S
C510 N508 1.356 . S
C511 C505 1.363 . S
C511 C506 1.379 . S
C511 N509 1.356 . S
N512 C504 1.356 . S
N512 H518 0.984 . S
N512 H519 0.984 . S
N513 C506 1.356 . S
N513 H516 0.984 . S
N513 H517 0.985 . S
H514 N509 0.984 . S
H515 N509 0.985 . S
H516 N513 0.984 . S
H517 N513 0.985 . S
H518 N512 0.984 . S
H519 N512 0.984 . S
H520 N508 0.984 . S
H521 N508 0.985 . S
C522 C523 1.363 . S
C522 C528 1.379 . S
C522 N530 1.356 . S
C523 C522 1.363 . S
C523 C529 1.363 . S
C524 C525 1.363 . S
C524 C529 1.379 . S
C524 N531 1.356 . S
C525 C524 1.363 . S
C525 C528 1.363 . S
N526 C528 1.356 . S
N526 H538 0.984 . S
N526 H539 0.985 . S
N527 C529 1.356 . S
N527 H532 0.984 . S
N527 H533 0.985 . S
C528 C522 1.379 . S
C528 C525 1.363 . S
C528 N526 1.356 . S
C529 C523 1.363 . S
C529 C524 1.379 . S
C529 N527 1.356 . S
N530 C522 1.356 . S
N530 H536 0.984 . S
N530 H537 0.984 . S
N531 C524 1.356 . S
N531 H534 0.984 . S
N531 H535 0.985 . S
H532 N527 0.984 . S
H533 N527 0.985 . S
H534 N531 0.984 . S
H535 N531 0.985 . S
H536 N530 0.984 . S
H537 N530 0.984 . S
H538 N526 0.984 . S
H539 N526 0.985 . S
C540 C541 1.363 . S
C540 C546 1.379 . S
C540 N548 1.356 . S
C541 C540 1.363 . S
C541 C547 1.363 . S
C542 C543 1.363 . S
C542 C547 1.379 . S
C542 N549 1.356 . S
C543 C542 1.363 . S
C543 C546 1.363 . S
N544 C546 1.356 . S
N544 H556 0.984 . S
N544 H557 0.985 . S
N545 C547 1.356 . S
N545 H550 0.984 . S
N545 H551 0.985 . S
C546 C540 1.379 . S
C546 C543 1.363 . S
C546 N544 1.356 . S
C547 C541 1.363 . S
C547 C542 1.379 . S
C547 N545 1.356 . S
N548 C540 1.356 . S
N548 H554 0.984 . S
N548 H555 0.984 . S
N549 C542 1.356 . S
N549 H552 0.984 . S
N549 H553 0.985 . S
H550 N545 0.984 . S
H551 N545 0.985 . S
H552 N549 0.984 . S
H553 N549 0.985 . S
H554 N548 0.984 . S
H555 N548 0.984 . S
H556 N544 0.984 . S
H557 N544 0.985 . S
C558 C559 1.363 . S
C558 C564 1.379 . S
C558 N566 1.356 . S
C559 C558 1.363 . S
C559 C565 1.363 . S
C560 C561 1.363 . S
C560 C565 1.379 . S
C560 N567 1.356 . S
C561 C560 1.363 . S
C561 C564 1.363 . S
N562 C564 1.356 . S
N562 H574 0.984 . S
N562 H575 0.985 . S
N563 C565 1.356 . S
N563 H568 0.984 . S
N563 H569 0.985 . S
C564 C558 1.379 . S
C564 C561 1.363 . S
C564 N562 1.356 . S
C565 C559 1.363 . S
C565 C560 1.379 . S
C565 N563 1.356 . S
N566 C558 1.356 . S
N566 H572 0.984 . S
N566 H573 0.984 . S
N567 C560 1.356 . S
N567 H570 0.984 . S
N567 H571 0.985 . S
H568 N563 0.984 . S
H569 N563 0.985 . S
H570 N567 0.984 . S
H571 N567 0.985 . S
H572 N566 0.984 . S
H573 N566 0.984 . S
H574 N562 0.984 . S
H575 N562 0.985 . S
C576 C577 1.363 . S
C576 C582 1.379 . S
C576 N584 1.356 . S
C577 C576 1.363 . S
C577 C583 1.363 . S
C578 C579 1.363 . S
C578 C583 1.379 . S
C578 N585 1.356 . S
C579 C578 1.363 . S
C579 C582 1.363 . S
N580 C582 1.356 . S
N580 H592 0.984 . S
N580 H593 0.985 . S
N581 C583 1.356 . S
N581 H586 0.984 . S
N581 H587 0.985 . S
C582 C576 1.379 . S
C582 C579 1.363 . S
C582 N580 1.356 . S
C583 C577 1.363 . S
C583 C578 1.379 . S
C583 N581 1.356 . S
N584 C576 1.356 . S
N584 H590 0.984 . S
N584 H591 0.984 . S
N585 C578 1.356 . S
N585 H588 0.984 . S
N585 H589 0.985 . S
H586 N581 0.984 . S
H587 N581 0.985 . S
H588 N585 0.984 . S
H589 N585 0.985 . S
H590 N584 0.984 . S
H591 N584 0.984 . S
H592 N580 0.984 . S
H593 N580 0.985 . S
C594 C595 1.363 . S
C594 C600 1.379 . S
C594 N602 1.356 . S
C595 C594 1.363 . S
C595 C601 1.363 . S
C596 C597 1.363 . S
C596 C601 1.379 . S
C596 N603 1.356 . S
C597 C596 1.363 . S
C597 C600 1.363 . S
N598 C600 1.356 . S
N598 H610 0.984 . S
N598 H611 0.985 . S
N599 C601 1.356 . S
N599 H604 0.984 . S
N599 H605 0.985 . S
C600 C594 1.379 . S
C600 C597 1.363 . S
C600 N598 1.356 . S
C601 C595 1.363 . S
C601 C596 1.379 . S
C601 N599 1.356 . S
N602 C594 1.356 . S
N602 H608 0.984 . S
N602 H609 0.984 . S
N603 C596 1.356 . S
N603 H606 0.984 . S
N603 H607 0.985 . S
H604 N599 0.984 . S
H605 N599 0.985 . S
H606 N603 0.984 . S
H607 N603 0.985 . S
H608 N602 0.984 . S
H609 N602 0.984 . S
H610 N598 0.984 . S
H611 N598 0.985 . S
C181 C81 1.429 . S
C183 C112 1.380 1_565 S
C201 C120 1.380 . S
C199 C93 1.429 . S
C219 C124 1.372 . S
C217 C57 1.430 . S
C235 C69 1.430 . S
C237 C100 1.372 1_565 S
C255 C141 1.380 1_545 S
C253 C33 1.433 . S
C273 C175 1.380 . S
C271 C45 1.433 . S
C289 C9 1.433 . S
C291 C163 1.372 . S
C307 C21 1.433 . S
C309 C145 1.372 1_545 S
C327 C99 1.346 . S
C325 C18 1.492 1_554 S
C345 C133 1.346 . S
C343 C6 1.492 . S
C363 C137 1.343 . S
C361 C42 1.490 1_556 S
C381 C115 1.342 . S
C379 C30 1.490 . S
C399 C154 1.346 . S
C397 C66 1.484 1_556 S
C415 C54 1.484 . S
C417 C162 1.346 . S
C435 C178 1.343 . S
C433 C90 1.483 1_554 S
C451 C78 1.483 . S
C453 C158 1.342 . S
C471 C103 1.354 . S
C469 C4 1.511 . S
C489 C121 1.354 . S
C487 C16 1.511 . S
C505 C28 1.508 . S
C507 C136 1.359 . S
C525 C116 1.359 . S
C523 C40 1.508 . S
C543 C142 1.354 . S
C541 C52 1.515 . S
C559 C64 1.515 . S
C561 C166 1.354 . S
C577 C76 1.511 . S
C579 C179 1.359 . S
C595 C88 1.511 . S
C597 C157 1.359 . S
