# Generated by pormake.
# Topology anh, (6,3)-cn, num edge types: 1
# Building blocks:
#     Node 0, Type 0, BuildingBlock: BETFEN_clean_sbu_0, # of connection points: 6
#     Node 1, Type 0, BuildingBlock: BETFEN_clean_sbu_0, # of connection points: 6
#     Node 2, Type 0, BuildingBlock: BETFEN_clean_sbu_0, # of connection points: 6
#     Node 3, Type 1, BuildingBlock: CUQRIR_clean_linker_1, # of connection points: 3
#     Node 4, Type 1, BuildingBlock: CUQRIR_clean_linker_1, # of connection points: 3
#     Node 5, Type 1, BuildingBlock: CUQRIR_clean_linker_1, # of connection points: 3
#     Node 6, Type 1, BuildingBlock: CUQRIR_clean_linker_1, # of connection points: 3
#     Node 7, Type 1, BuildingBlock: CUQRIR_clean_linker_1, # of connection points: 3
#     Node 8, Type 1, BuildingBlock: CUQRIR_clean_linker_1, # of connection points: 3
#     Edge 9, Type (0, 1), BuildingBlock: CIFDUS_clean_linker_0, # of connection points: 2
#     Edge 10, Type (0, 1), BuildingBlock: CIFDUS_clean_linker_0, # of connection points: 2
#     Edge 11, Type (0, 1), BuildingBlock: CIFDUS_clean_linker_0, # of connection points: 2
#     Edge 12, Type (0, 1), BuildingBlock: CIFDUS_clean_linker_0, # of connection points: 2
#     Edge 13, Type (0, 1), BuildingBlock: CIFDUS_clean_linker_0, # of connection points: 2
#     Edge 14, Type (0, 1), BuildingBlock: CIFDUS_clean_linker_0, # of connection points: 2
#     Edge 15, Type (0, 1), BuildingBlock: CIFDUS_clean_linker_0, # of connection points: 2
#     Edge 16, Type (0, 1), BuildingBlock: CIFDUS_clean_linker_0, # of connection points: 2
#     Edge 17, Type (0, 1), BuildingBlock: CIFDUS_clean_linker_0, # of connection points: 2
#     Edge 18, Type (0, 1), BuildingBlock: CIFDUS_clean_linker_0, # of connection points: 2
#     Edge 19, Type (0, 1), BuildingBlock: CIFDUS_clean_linker_0, # of connection points: 2
#     Edge 20, Type (0, 1), BuildingBlock: CIFDUS_clean_linker_0, # of connection points: 2
#     Edge 21, Type (0, 1), BuildingBlock: CIFDUS_clean_linker_0, # of connection points: 2
#     Edge 22, Type (0, 1), BuildingBlock: CIFDUS_clean_linker_0, # of connection points: 2
#     Edge 23, Type (0, 1), BuildingBlock: CIFDUS_clean_linker_0, # of connection points: 2
#     Edge 24, Type (0, 1), BuildingBlock: CIFDUS_clean_linker_0, # of connection points: 2
#     Edge 25, Type (0, 1), BuildingBlock: CIFDUS_clean_linker_0, # of connection points: 2
#     Edge 26, Type (0, 1), BuildingBlock: CIFDUS_clean_linker_0, # of connection points: 2
# Relax obj value: 0.223
# Max RMSD: 0.215
# Mean RMSD: 0.166
data_MOF--net-anh--node1-BETFEN_clean_sbu_0--node2-CUQRIR_clean_linker_1--edge1-CIFDUS_clean_linker_0
_symmetry_space_group_name_H-M    P1
_symmetry_Int_Tables_number       1
_symmetry_cell_setting            triclinic
loop_
_symmetry_equiv_pos_as_xyz
'x, y, z'
_cell_length_a     23.910697
_cell_length_b     24.973764
_cell_length_c     40.308494
_cell_angle_alpha  85.806037
_cell_angle_beta   89.939431
_cell_angle_gamma 98.034457
loop_
_atom_site_label
_atom_site_type_symbol
_atom_site_fract_x
_atom_site_fract_y
_atom_site_fract_z
_atom_type_partial_charge
Pr0 Pr 0.0736 0.52115 0.1664 0.0
Pr1 Pr 0.10317 0.64835 0.14283 0.0
C2 C 0.04612 0.42373 0.20027 0.0
C3 C 0.99486 0.38386 0.20725 0.0
C4 C 0.99979 0.32868 0.21282 0.0
C5 C 0.95198 0.29044 0.22029 0.0
C6 C 0.89795 0.3065 0.22253 0.0
C7 C 0.89313 0.36196 0.21644 0.0
C8 C 0.94104 0.40019 0.20882 0.0
C9 C 0.0835 0.54439 0.09778 0.0
C10 C 0.96911 0.59032 0.13976 0.0
C11 C 0.14915 0.74501 0.11361 0.0
C12 C 0.1946 0.78569 0.12502 0.0
C13 C 0.21633 0.77897 0.15717 0.0
C14 C 0.26058 0.81618 0.168 0.0
C15 C 0.28449 0.86098 0.14688 0.0
C16 C 0.26249 0.86747 0.11459 0.0
C17 C 0.21803 0.83014 0.10378 0.0
C18 C 0.07784 0.63479 0.2115 0.0
C19 C 0.20988 0.58044 0.16724 0.0
O20 O 0.0483 0.46993 0.21399 0.0
O21 O 0.06589 0.42918 0.16971 0.0
O22 O 0.11435 0.56873 0.11909 0.0
O23 O 0.04724 0.5057 0.11198 0.0
O24 O 1.0083 0.6285 0.12587 0.0
O25 O 0.98298 0.54927 0.15953 0.0
O26 O 0.16497 0.69908 0.10651 0.0
O27 O 0.10175 0.7383 0.1307 0.0
O28 O 0.07918 0.59878 0.19158 0.0
O29 O 0.08994 0.68189 0.19547 0.0
O30 O 0.17457 0.53411 0.17137 0.0
O31 O 0.19176 0.62716 0.15885 0.0
H32 H 0.0408 0.31512 0.2115 0.0
H33 H 0.95742 0.24812 0.22411 0.0
H34 H 0.8525 0.37608 0.21818 0.0
H35 H 0.93609 0.44259 0.20445 0.0
H36 H 0.19907 0.74474 0.17393 0.0
H37 H 0.27555 0.8101 0.19315 0.0
H38 H 0.28016 0.90097 0.09744 0.0
H39 H 0.20226 0.83577 0.07877 0.0
Pr40 Pr 0.65338 0.12475 0.53458 0.0
Pr41 Pr 0.52794 0.10767 0.5228 0.0
C42 C 0.76586 0.15695 0.5263 0.0
C43 C 0.80638 0.20611 0.51688 0.0
C44 C 0.79116 0.25819 0.51801 0.0
C45 C 0.82911 0.30428 0.50723 0.0
C46 C 0.88346 0.29908 0.49552 0.0
C47 C 0.89861 0.24668 0.4947 0.0
C48 C 0.86036 0.20075 0.50509 0.0
C49 C 0.58659 0.11405 0.5921 0.0
C50 C 0.58519 0.23893 0.52769 0.0
C51 C 0.41686 1.06784 0.52395 0.0
C52 C 0.38392 1.01499 0.51723 0.0
C53 C 0.33293 1.01307 0.49986 0.0
C54 C 0.30268 0.96316 0.49241 0.0
C55 C 0.32306 0.91413 0.50204 0.0
C56 C 0.37377 0.91628 0.51988 0.0
C57 C 0.40374 0.96603 0.52741 0.0
C58 C 0.59138 0.12199 0.46413 0.0
C59 C 0.59741 0.99341 0.53769 0.0
O60 O 0.73281 0.13843 0.50268 0.0
O61 O 0.73989 0.15407 0.55513 0.0
O62 O 0.57902 0.14114 0.56545 0.0
O63 O 0.63287 0.09205 0.59086 0.0
O64 O 0.53646 0.205 0.53036 0.0
O65 O 0.63304 0.21734 0.52494 0.0
O66 O 0.44868 1.06807 0.55032 0.0
O67 O 0.44168 0.09694 0.49837 0.0
O68 O 0.6021 0.09269 0.48973 0.0
O69 O 0.54703 0.14531 0.4688 0.0
O70 O 0.64509 1.02797 0.53781 0.0
O71 O 0.54862 1.01369 0.53369 0.0
H72 H 0.74994 0.26295 0.5273 0.0
H73 H 0.81632 0.344 0.50861 0.0
H74 H 0.9399 0.24115 0.48561 0.0
H75 H 0.87288 0.1609 0.50376 0.0
H76 H 0.31681 1.05024 0.49171 0.0
H77 H 0.26412 0.96308 0.47834 0.0
H78 H 0.39036 0.8794 0.52811 0.0
H79 H 0.44265 0.96606 0.54108 0.0
Pr80 Pr 0.6222 0.58722 0.84285 0.0
Pr81 Pr 0.63915 0.7003 0.84628 0.0
C82 C 0.58698 0.48471 0.8288 0.0
C83 C 0.5319 0.45624 0.82008 0.0
C84 C 0.48694 0.4851 0.81148 0.0
C85 C 0.43312 0.45734 0.80606 0.0
C86 C 0.42367 0.40041 0.80932 0.0
C87 C 0.46935 0.37197 0.81748 0.0
C88 C 0.52284 0.39967 0.82298 0.0
C89 C 0.66369 0.61106 0.90558 0.0
C90 C 0.75385 0.64707 0.83967 0.0
C91 C 0.63791 0.80456 0.858 0.0
C92 C 0.59987 0.84318 0.84618 0.0
C93 C 0.59061 0.85331 0.81199 0.0
C94 C 0.54996 0.88535 0.80116 0.0
C95 C 0.51732 0.9074 0.82426 0.0
C96 C 0.52704 0.89758 0.85845 0.0
C97 C 0.56813 0.86596 0.86927 0.0
C98 C 0.63127 0.6718 0.78004 0.0
C99 C 0.50588 0.64386 0.85245 0.0
O100 O 0.58992 0.50014 0.85907 0.0
O101 O 0.61134 0.52156 0.80661 0.0
O102 O 0.62625 0.63468 0.89056 0.0
O103 O 0.68143 0.57567 0.88766 0.0
O104 O 0.73167 0.6837 0.85526 0.0
O105 O 0.71966 0.60786 0.82654 0.0
O106 O 0.61504 0.76439 0.87835 0.0
O107 O 0.67116 0.78948 0.83583 0.0
O108 O 0.59885 0.65157 0.80375 0.0
O109 O 0.67134 0.7069 0.79038 0.0
O110 O 0.52738 0.59791 0.85605 0.0
O111 O 0.53979 0.68958 0.84538 0.0
H112 H 0.49334 0.52901 0.80928 0.0
H113 H 0.39894 0.4803 0.79963 0.0
H114 H 0.46405 0.32806 0.81917 0.0
H115 H 0.55706 0.3769 0.82973 0.0
H116 H 0.61403 0.83578 0.79355 0.0
H117 H 0.54426 0.89295 0.77467 0.0
H118 H 0.50216 0.91345 0.87691 0.0
H119 H 0.57407 0.85807 0.89574 0.0
C120 C 0.57917 1.07543 0.22015 0.0
N121 N 0.60854 0.10366 0.24366 0.0
N122 N 0.54034 1.03565 0.2345 0.0
C123 C 0.59072 0.08409 0.18334 0.0
C124 C 0.54727 1.04053 0.26755 0.0
N125 N 0.58898 1.08139 0.27315 0.0
C126 C 0.51018 1.00827 0.29427 0.0
H127 H 0.56576 0.11528 0.17262 0.0
H128 H 0.57808 1.04612 0.17091 0.0
H129 H 0.63613 0.0985 0.17821 0.0
H130 H 0.53144 0.97397 0.30443 0.0
H131 H 0.46862 0.99172 0.28429 0.0
H132 H 0.50325 1.03362 0.31497 0.0
C133 C 0.5705 0.61424 0.53964 0.0
N134 N 0.58515 0.65749 0.55921 0.0
N135 N 0.58473 0.56574 0.55386 0.0
C136 C 0.54262 0.61912 0.50654 0.0
C137 C 0.60747 0.58146 0.58304 0.0
N138 N 0.60738 0.63549 0.58648 0.0
C139 C 0.6255 0.54232 0.60985 0.0
H140 H 0.49627 0.61546 0.51049 0.0
H141 H 0.5515 0.58623 0.49107 0.0
H142 H 0.55723 0.65925 0.49339 0.0
H143 H 0.65176 0.5146 0.59905 0.0
H144 H 0.58736 0.51722 0.6212 0.0
H145 H 0.65003 0.56344 0.62956 0.0
C146 C 0.13092 0.62003 0.85481 0.0
N147 N 0.16808 0.61382 0.88013 0.0
N148 N 0.07733 0.61914 0.86676 0.0
C149 C 0.14645 0.62479 0.81856 0.0
C150 C 0.08319 0.61193 0.90002 0.0
N151 N 0.1375 0.608 0.90814 0.0
C152 C 1.03501 0.60685 0.9248 0.0
H153 H 0.16598 0.66702 0.81145 0.0
H154 H 0.10864 0.61503 0.80302 0.0
H155 H 0.17795 0.59749 0.81375 0.0
H156 H 1.01795 0.56334 0.92974 0.0
H157 H 1.00021 0.62846 0.91529 0.0
H158 H 0.04961 0.62315 0.94867 0.0
C159 C 0.08953 0.61183 0.45803 0.0
N160 N 0.06595 0.58105 0.43383 0.0
N161 N 0.1213 0.65748 0.44456 0.0
C162 C 0.07994 0.59837 0.49474 0.0
C163 C 0.1157 0.65387 0.41141 0.0
N164 N 0.08161 0.60789 0.40481 0.0
C165 C 0.14264 0.69603 0.38539 0.0
H166 H 1.03562 0.57957 0.49982 0.0
H167 H 0.08957 0.63487 0.50893 0.0
H168 H 0.10811 0.5687 0.50356 0.0
H169 H 0.15384 0.67681 0.36279 0.0
H170 H 0.18113 0.71995 0.39478 0.0
H171 H 0.11209 0.72436 0.3783 0.0
C172 C 0.26404 0.10138 0.75237 0.0
N173 N 0.29983 1.07752 0.73407 0.0
N174 N 0.27072 0.15603 0.74559 0.0
C175 C 0.22453 1.07084 0.77855 0.0
C176 C 0.30923 0.16387 0.72018 0.0
N177 N 0.32614 0.11649 0.71319 0.0
C178 C 0.339 0.21859 0.7067 0.0
H179 H 0.19324 0.09624 0.78667 0.0
H180 H 0.2487 1.05747 0.80035 0.0
H181 H 0.2022 1.03368 0.76838 0.0
H182 H 0.3576 0.24188 0.72738 0.0
H183 H 0.30824 0.2418 0.69365 0.0
H184 H 0.37381 0.21552 0.68911 0.0
C185 C 0.58704 0.56059 0.14635 0.0
N186 N 0.63055 0.57663 0.12407 0.0
N187 N 0.53719 0.57338 0.13398 0.0
C188 C 0.59303 0.53494 0.18078 0.0
C189 C 0.55163 0.59758 0.1035 0.0
N190 N 0.6079 0.60021 0.09754 0.0
C191 C 0.50959 0.61453 0.07835 0.0
H192 H 0.5885 0.49028 0.17976 0.0
H193 H 0.55942 0.54434 0.19754 0.0
H194 H 0.63503 0.54923 0.19109 0.0
H195 H 0.51021 0.65907 0.07795 0.0
H196 H 0.46602 0.59466 0.08451 0.0
H197 H 0.52086 0.60441 0.05307 0.0
H198 H 0.27724 0.49836 0.16148 0.0
H199 H 0.28629 0.66843 0.17761 0.0
H200 H 0.3883 0.68016 0.17182 0.0
H201 H 0.47541 0.64539 0.15617 0.0
H202 H 0.47005 0.47654 0.14057 0.0
H203 H 0.36773 0.46092 0.1524 0.0
C204 C 0.30159 0.53765 0.16448 0.0
C205 C 0.27307 0.58245 0.16966 0.0
C206 C 0.36156 0.54458 0.16096 0.0
C207 C 0.30612 0.63309 0.17325 0.0
C208 C 0.36495 0.64007 0.16991 0.0
C209 C 0.45194 0.60494 0.15638 0.0
C210 C 0.48036 0.56204 0.14799 0.0
C211 C 0.39311 0.59659 0.16291 0.0
C212 C 0.4493 0.50995 0.14758 0.0
C213 C 0.39063 0.50125 0.15402 0.0
H214 H 0.8662 0.38877 0.45541 0.0
H215 H 0.9944 0.31903 0.51231 0.0
H216 H 0.06311 0.39866 0.49649 0.0
H217 H 0.08643 0.48981 0.46797 0.0
H218 H 0.95955 0.56044 0.41114 0.0
H219 H 0.89096 0.47887 0.42479 0.0
C220 C 0.90915 0.39113 0.46439 0.0
C221 C 0.92498 0.34789 0.48513 0.0
C222 C 0.94879 0.43715 0.45497 0.0
C223 C 0.98109 0.35137 0.49615 0.0
C224 C 1.02043 0.39703 0.48718 0.0
C225 C 0.04377 0.48697 0.45853 0.0
C226 C 1.02777 0.53085 0.43871 0.0
C227 C 1.00474 0.44026 0.46679 0.0
C228 C 0.97272 0.52682 0.4262 0.0
C229 C 0.93351 0.48043 0.43426 0.0
H230 H 0.44396 0.89219 0.77263 0.0
H231 H 0.49425 0.99985 0.84983 0.0
H232 H 0.42586 1.05817 0.83045 0.0
H233 H 0.35765 0.08243 0.78948 0.0
H234 H 0.31035 0.98095 0.70958 0.0
H235 H 0.37257 0.91614 0.73169 0.0
C236 C 0.44009 0.92854 0.7851 0.0
C237 C 0.47417 0.94154 0.81273 0.0
C238 C 0.40142 0.96273 0.77334 0.0
C239 C 0.46802 0.98834 0.82892 0.0
C240 C 0.42921 1.02196 0.81772 0.0
C241 C 0.3598 1.04517 0.77759 0.0
C242 C 0.32876 1.03517 0.74866 0.0
C243 C 0.39627 1.00977 0.78987 0.0
C244 C 0.33321 0.98832 0.73234 0.0
C245 C 0.36899 0.95185 0.74484 0.0
H246 H 0.87491 0.5136 0.15348 0.0
H247 H 0.92356 0.67786 0.11214 0.0
H248 H 0.82449 0.68816 0.10361 0.0
H249 H 0.72261 0.6518 0.10908 0.0
H250 H 0.67391 0.4861 0.14697 0.0
H251 H 0.77311 0.47556 0.15594 0.0
C252 C 0.864 0.55168 0.14254 0.0
C253 C 0.90757 0.59491 0.13364 0.0
C254 C 0.80627 0.55736 0.13728 0.0
C255 C 0.89173 0.64367 0.11927 0.0
C256 C 0.8347 0.64974 0.1144 0.0
C257 C 0.7337 0.6132 0.11898 0.0
C258 C 0.69015 0.57012 0.12791 0.0
C259 C 0.79143 0.60702 0.12341 0.0
C260 C 0.7059 0.52049 0.14078 0.0
C261 C 0.76294 0.51429 0.14565 0.0
H262 H 0.20917 0.87888 0.5035 0.0
H263 H 0.36935 0.82979 0.47897 0.0
H264 H 0.32115 0.74381 0.46176 0.0
H265 H 0.23287 0.68405 0.4506 0.0
H266 H 0.07292 0.73323 0.47348 0.0
H267 H 0.12107 0.81734 0.49453 0.0
C268 C 0.23351 0.84943 0.49431 0.0
C269 C 0.29291 0.86106 0.49252 0.0
C270 C 0.20542 0.7999 0.48425 0.0
C271 C 0.32372 0.82191 0.48099 0.0
C272 C 0.29616 0.77271 0.47097 0.0
C273 C 0.20899 0.71302 0.46077 0.0
C274 C 0.14976 0.70282 0.46089 0.0
C275 C 0.23706 0.76143 0.47222 0.0
C276 C 0.11863 0.74045 0.47362 0.0
C277 C 0.14617 0.78852 0.48536 0.0
H278 H 0.37079 0.31069 0.84375 0.0
H279 H 0.35136 0.42087 0.75848 0.0
H280 H 0.27836 0.35444 0.73678 0.0
H281 H 0.24336 0.25719 0.73407 0.0
H282 H 0.28942 0.14461 0.81209 0.0
H283 H 0.32324 0.21815 0.84545 0.0
C284 C 0.34966 0.32055 0.82075 0.0
C285 C 0.36797 0.36954 0.80209 0.0
C286 C 0.31156 0.28067 0.80707 0.0
C287 C 0.33872 0.38295 0.77308 0.0
C288 C 0.29724 0.34472 0.76051 0.0
C289 C 0.25962 0.24902 0.75872 0.0
C290 C 0.26578 0.19538 0.76968 0.0
C291 C 0.28674 0.29204 0.776 0.0
C292 C 0.28415 0.18503 0.80244 0.0
C293 C 0.30502 0.22751 0.82146 0.0
H294 H 0.5137 0.89865 0.53199 0.0
H295 H 0.68965 0.94338 0.55458 0.0
H296 H 0.7014 0.84814 0.5627 0.0
H297 H 0.6641 0.74948 0.56327 0.0
H298 H 0.48922 0.7017 0.54094 0.0
H299 H 0.47589 0.79772 0.53253 0.0
C300 C 0.55476 0.88801 0.53878 0.0
C301 C 0.60066 0.93099 0.54258 0.0
C302 C 0.56194 0.83098 0.54341 0.0
C303 C 0.65301 0.91359 0.55123 0.0
C304 C 0.66001 0.8581 0.55599 0.0
C305 C 0.62266 0.75953 0.55706 0.0
C306 C 0.57775 0.71616 0.55318 0.0
C307 C 0.61509 0.81601 0.55223 0.0
C308 C 0.52514 0.7324 0.544 0.0
C309 C 0.51738 0.78816 0.53933 0.0
H310 H 0.822 0.56769 0.82875 0.0
H311 H 0.82941 0.73623 0.84818 0.0
H312 H 0.93145 0.74474 0.85289 0.0
H313 H 1.01854 0.70268 0.85789 0.0
H314 H 1.0135 0.5342 0.84154 0.0
H315 H 0.91232 0.52743 0.82858 0.0
C316 C 0.84605 0.60644 0.83347 0.0
C317 C 0.81721 0.65107 0.8384 0.0
C318 C 0.90582 0.61118 0.83666 0.0
C319 C 0.84967 0.70085 0.84465 0.0
C320 C 0.90845 0.70595 0.84729 0.0
C321 C 0.99558 0.66515 0.85018 0.0
C322 C 1.02377 0.61935 0.84989 0.0
C323 C 0.93697 0.66125 0.8441 0.0
C324 C 0.99309 0.57031 0.84108 0.0
C325 C 0.93497 0.56634 0.8342 0.0
H326 H 0.37384 0.84049 0.18598 0.0
H327 H 0.30149 0.97176 0.13456 0.0
H328 H 0.37636 1.0372 0.15534 0.0
H329 H 0.46041 1.05792 0.19063 0.0
H330 H 0.53002 0.92709 0.24351 0.0
H331 H 0.45811 0.86084 0.22016 0.0
C332 C 0.37406 0.88342 0.17946 0.0
C333 C 0.3316 0.90086 0.15873 0.0
C334 C 0.41686 0.92105 0.19193 0.0
C335 C 0.33371 0.95679 0.1501 0.0
C336 C 0.37641 0.99443 0.16218 0.0
C337 C 0.45994 1.01482 0.1966 0.0
C338 C 0.50023 0.99712 0.21867 0.0
C339 C 0.41797 0.97712 0.18334 0.0
C340 C 0.49917 0.94133 0.22663 0.0
C341 C 0.45811 0.90361 0.21331 0.0
H342 H 0.50123 0.31096 0.53674 0.0
H343 H 0.68027 0.31422 0.52186 0.0
H344 H 0.69578 0.41109 0.52702 0.0
H345 H 0.66125 0.49822 0.53773 0.0
H346 H 0.4831 0.49989 0.55042 0.0
H347 H 0.46538 0.40157 0.54377 0.0
C348 C 0.54377 0.33253 0.5344 0.0
C349 C 0.58959 0.30209 0.52926 0.0
C350 C 0.55296 0.39108 0.53688 0.0
C351 C 0.6437 0.33358 0.5263 0.0
C352 C 0.65288 0.39028 0.52913 0.0
C353 C 0.61826 0.47754 0.53846 0.0
C354 C 0.57364 0.50849 0.54417 0.0
C355 C 0.60823 0.41992 0.53465 0.0
C356 C 0.51859 0.47898 0.54544 0.0
C357 C 0.50848 0.42188 0.54193 0.0
H358 H 0.42157 0.56446 0.87946 0.0
H359 H 0.4477 0.72646 0.83164 0.0
H360 H 0.34679 0.73118 0.83523 0.0
H361 H 0.24957 0.6901 0.85223 0.0
H362 H 0.2227 0.53067 0.90257 0.0
H363 H 0.32404 0.52425 0.898 0.0
C364 C 0.40524 0.60079 0.8698 0.0
C365 C 0.44307 0.645 0.8552 0.0
C366 C 0.34639 0.60382 0.8725 0.0
C367 C 0.42041 0.69173 0.84308 0.0
C368 C 0.3623 0.69454 0.84508 0.0
C369 C 0.26602 0.65395 0.86207 0.0
C370 C 0.22842 0.6108 0.87763 0.0
C371 C 0.32473 0.65098 0.85976 0.0
C372 C 0.25062 0.56449 0.89065 0.0
C373 C 0.30866 0.56081 0.88791 0.0
H374 H 0.79037 0.30236 0.19802 0.0
H375 H 0.89089 0.21808 0.26763 0.0
H376 H 0.81003 0.14884 0.28087 0.0
H377 H 0.71104 0.11008 0.2715 0.0
H378 H 0.60959 0.19543 0.20368 0.0
H379 H 0.68995 0.26653 0.1912 0.0
C380 C 0.79455 0.26929 0.21641 0.0
C381 C 0.84725 0.26549 0.23146 0.0
C382 C 0.74752 0.22957 0.2242 0.0
C383 C 0.85151 0.22173 0.255 0.0
C384 C 0.80505 0.18216 0.26283 0.0
C385 C 0.70657 0.14468 0.25434 0.0
C386 C 0.65481 0.14739 0.23825 0.0
C387 C 0.75298 0.18536 0.2474 0.0
C388 C 0.64939 0.19217 0.21589 0.0
C389 C 0.69526 0.23282 0.20887 0.0
H390 H 0.15271 0.62293 0.05997 0.0
H391 H 0.04936 0.46749 0.05544 0.0
H392 H 0.07145 0.46747 0.99656 0.0
H393 H 0.10951 0.51619 0.94497 0.0
H394 H 0.20107 0.67649 0.94648 0.0
H395 H 0.19727 0.66948 0.0077 0.0
C396 C 0.13541 0.58904 0.04606 0.0
C397 C 0.09885 0.54561 0.06206 0.0
C398 C 0.14716 0.58987 0.01166 0.0
C399 C 0.07691 0.50181 0.04374 0.0
C400 C 0.08987 0.5015 0.01005 0.0
C401 C 0.13062 0.54848 0.95898 0.0
C402 C 0.15582 0.59651 0.94159 0.0
C403 C 0.12385 0.54573 0.99363 0.0
C404 C 0.18224 0.63885 0.95955 0.0
C405 C 0.17885 0.63519 0.99445 0.0
H406 H 0.58194 0.18656 0.40815 0.0
H407 H 0.63989 1.03696 0.4436 0.0
H408 H 0.65068 1.01353 0.38624 0.0
H409 H 0.631 1.03023 0.32627 0.0
H410 H 0.57374 0.17969 0.29106 0.0
H411 H 0.57606 0.20931 0.34783 0.0
C412 C 0.59805 0.14936 0.40325 0.0
C413 C 0.60938 0.1132 0.43003 0.0
C414 C 0.60385 0.13609 0.37023 0.0
C415 C 0.63076 1.06541 0.42341 0.0
C416 C 0.63658 1.05183 0.39061 0.0
C417 C 0.62045 1.06976 0.33118 0.0
C418 C 0.60196 0.10284 0.3049 0.0
C419 C 0.62143 0.08601 0.36389 0.0
C420 C 0.58832 0.154 0.31109 0.0
C421 C 0.58922 0.17058 0.34351 0.0
H422 H 0.69638 0.70881 0.72469 0.0
H423 H 0.53412 0.62072 0.75523 0.0
H424 H 0.50905 0.60978 0.69721 0.0
H425 H 0.53521 0.61976 0.63771 0.0
H426 H 0.70061 0.69779 0.60713 0.0
H427 H 0.72202 0.71983 0.66453 0.0
C428 C 0.65546 0.68748 0.71858 0.0
C429 C 0.61722 0.66564 0.74439 0.0
C430 C 0.64155 0.6804 0.68492 0.0
C431 C 0.56448 0.63781 0.736 0.0
C432 C 0.54996 0.63169 0.70274 0.0
C433 C 0.57514 0.6432 0.64365 0.0
C434 C 0.61534 0.65937 0.61806 0.0
C435 C 0.58824 0.65241 0.67701 0.0
C436 C 0.66806 0.68738 0.62609 0.0
C437 C 0.68064 0.69887 0.65907 0.0
H438 H 0.48231 0.14035 0.5886 0.0
H439 H 0.59661 1.0731 0.65724 0.0
H440 H 0.52464 1.06595 0.70181 0.0
H441 H 0.43003 0.08392 0.72093 0.0
H442 H 0.3134 0.13724 0.64846 0.0
H443 H 0.38535 0.14311 0.60476 0.0
C444 C 0.49121 0.12249 0.613 0.0
C445 C 0.54446 0.10673 0.61952 0.0
C446 C 0.44909 0.11584 0.63753 0.0
C447 C 0.55577 0.08536 0.65162 0.0
C448 C 0.51462 1.08121 0.67699 0.0
C449 C 0.41979 0.09482 0.69541 0.0
C450 C 0.36637 0.10994 0.68767 0.0
C451 C 0.46108 0.09664 0.67021 0.0
C452 C 0.35423 0.12539 0.65465 0.0
C453 C 0.39535 0.12908 0.62986 0.0
H454 H 0.64436 0.685 0.94949 0.0
H455 H 0.69549 0.5269 0.94413 0.0
H456 H 0.69117 0.51221 0.00456 0.0
H457 H 0.65968 0.53913 0.05855 0.0
H458 H 0.61342 0.69838 0.06468 0.0
H459 H 0.6302 0.71849 0.0048 0.0
C460 C 0.6554 0.64777 0.96165 0.0
C461 C 0.6691 0.60676 0.94229 0.0
C462 C 0.65366 0.63977 0.99666 0.0
C463 C 0.68426 0.55902 0.95838 0.0
C464 C 0.68176 0.55046 0.99302 0.0
C465 C 0.6555 0.57886 0.04687 0.0
C466 C 0.63475 0.61705 0.06568 0.0
C467 C 0.66487 0.58984 0.01239 0.0
C468 C 0.62904 0.66839 0.05041 0.0
C469 C 0.63811 0.67963 0.01618 0.0
H470 H 0.09598 0.55252 0.25749 0.0
H471 H 1.02267 0.70084 0.24487 0.0
H472 H 1.00538 0.69829 0.30459 0.0
H473 H 1.02402 0.66199 0.3608 0.0
H474 H 0.10728 0.52064 0.37524 0.0
H475 H 0.1061 0.5106 0.31491 0.0
C476 C 0.07511 0.58343 0.2679 0.0
C477 C 0.06082 0.62698 0.24695 0.0
C478 C 0.0672 0.58282 0.30267 0.0
C479 C 1.03442 0.66723 0.26061 0.0
C480 C 1.02445 0.66577 0.29474 0.0
C481 C 0.04032 0.62818 0.35061 0.0
C482 C 0.06587 0.59224 0.37203 0.0
C483 C 0.04242 0.62491 0.31607 0.0
C484 C 0.0871 0.54847 0.359 0.0
C485 C 0.08712 0.54333 0.32453 0.0
loop_
_geom_bond_atom_site_label_1
_geom_bond_atom_site_label_2
_geom_bond_distance
_geom_bond_site_symmetry_2
_ccdc_geom_bond_type
Pr0 C2 2.880 . S
Pr0 O20 2.562 . S
Pr0 O21 2.490 . S
Pr0 O22 2.695 1_655 S
Pr0 O23 2.512 . S
Pr0 O25 2.437 . S
Pr0 O28 2.436 . S
Pr0 O30 2.438 1_655 S
Pr1 C11 2.880 . S
Pr1 O22 2.436 . S
Pr1 O24 2.438 1_455 S
Pr1 O26 2.562 . S
Pr1 O27 2.490 . S
Pr1 O28 2.695 1_455 S
Pr1 O29 2.512 . S
Pr1 O31 2.437 . S
C2 Pr0 2.880 . S
C2 C3 1.491 . S
C2 O20 1.254 . S
C2 O21 1.225 . S
C3 C2 1.491 . S
C3 C4 1.392 . S
C3 C8 1.356 . S
C4 C3 1.392 . S
C4 C5 1.368 . S
C4 H32 0.929 . S
C5 C4 1.368 . S
C5 C6 1.386 . S
C5 H33 0.929 . S
C6 C5 1.386 . S
C6 C7 1.373 . S
C7 C6 1.373 . S
C7 C8 1.409 . S
C7 H34 0.931 . S
C8 C3 1.356 . S
C8 C7 1.409 . S
C8 H35 0.930 . S
C9 O22 1.270 . S
C9 O23 1.248 1_455 S
C10 O24 1.267 . S
C10 O25 1.278 . S
C11 Pr1 2.880 . S
C11 C12 1.491 . S
C11 O26 1.254 . S
C11 O27 1.225 . S
C12 C11 1.491 . S
C12 C13 1.392 . S
C12 C17 1.356 . S
C13 C12 1.392 . S
C13 C14 1.368 . S
C13 H36 0.929 . S
C14 C13 1.368 . S
C14 C15 1.386 . S
C14 H37 0.929 . S
C15 C14 1.386 . S
C15 C16 1.373 . S
C16 C15 1.373 . S
C16 C17 1.409 . S
C16 H38 0.931 . S
C17 C12 1.356 . S
C17 C16 1.409 . S
C17 H39 0.930 . S
C18 O28 1.270 1_455 S
C18 O29 1.248 . S
C19 O30 1.267 . S
C19 O31 1.278 . S
O20 Pr0 2.562 . S
O20 C2 1.254 . S
O21 Pr0 2.490 . S
O21 C2 1.225 . S
O22 Pr0 2.695 1_455 S
O22 Pr1 2.436 . S
O22 C9 1.270 . S
O23 Pr0 2.512 . S
O23 C9 1.248 1_655 S
O24 Pr1 2.438 1_655 S
O24 C10 1.267 . S
O25 Pr0 2.437 . S
O25 C10 1.278 . S
O26 Pr1 2.562 . S
O26 C11 1.254 . S
O27 Pr1 2.490 . S
O27 C11 1.225 . S
O28 Pr0 2.436 . S
O28 Pr1 2.695 1_655 S
O28 C18 1.270 1_655 S
O29 Pr1 2.512 . S
O29 C18 1.248 . S
O30 Pr0 2.438 1_455 S
O30 C19 1.267 . S
O31 Pr1 2.437 . S
O31 C19 1.278 . S
H32 C4 0.929 . S
H33 C5 0.929 . S
H34 C7 0.931 . S
H35 C8 0.930 . S
H36 C13 0.929 . S
H37 C14 0.929 . S
H38 C16 0.931 . S
H39 C17 0.930 . S
Pr40 C42 2.880 . S
Pr40 O60 2.562 . S
Pr40 O61 2.490 . S
Pr40 O62 2.695 . S
Pr40 O63 2.512 . S
Pr40 O65 2.437 . S
Pr40 O68 2.436 . S
Pr40 O70 2.438 1_545 S
Pr41 C51 2.880 . S
Pr41 O62 2.436 1_565 S
Pr41 O64 2.438 1_565 S
Pr41 O66 2.562 . S
Pr41 O67 2.490 . S
Pr41 O68 2.695 1_565 S
Pr41 O69 2.512 . S
Pr41 O71 2.437 . S
C42 Pr40 2.880 . S
C42 C43 1.491 . S
C42 O60 1.254 . S
C42 O61 1.225 . S
C43 C42 1.491 . S
C43 C44 1.392 . S
C43 C48 1.356 . S
C44 C43 1.392 . S
C44 C45 1.368 . S
C44 H72 0.929 . S
C45 C44 1.368 . S
C45 C46 1.386 . S
C45 H73 0.929 . S
C46 C45 1.386 . S
C46 C47 1.373 . S
C47 C46 1.373 . S
C47 C48 1.409 . S
C47 H74 0.931 . S
C48 C43 1.356 . S
C48 C47 1.409 . S
C48 H75 0.930 . S
C49 O62 1.270 . S
C49 O63 1.248 . S
C50 O64 1.267 . S
C50 O65 1.278 . S
C51 Pr41 2.880 . S
C51 C52 1.491 . S
C51 O66 1.254 . S
C51 O67 1.225 . S
C52 C51 1.491 . S
C52 C53 1.392 . S
C52 C57 1.356 . S
C53 C52 1.392 . S
C53 C54 1.368 . S
C53 H76 0.929 . S
C54 C53 1.368 . S
C54 C55 1.386 . S
C54 H77 0.929 . S
C55 C54 1.386 . S
C55 C56 1.373 . S
C56 C55 1.373 . S
C56 C57 1.409 . S
C56 H78 0.931 . S
C57 C52 1.356 . S
C57 C56 1.409 . S
C57 H79 0.930 . S
C58 O68 1.270 . S
C58 O69 1.248 1_545 S
C59 O70 1.267 . S
C59 O71 1.278 . S
O60 Pr40 2.562 . S
O60 C42 1.254 . S
O61 Pr40 2.490 . S
O61 C42 1.225 . S
O62 Pr40 2.695 . S
O62 Pr41 2.436 1_545 S
O62 C49 1.270 . S
O63 Pr40 2.512 . S
O63 C49 1.248 . S
O64 Pr41 2.438 1_545 S
O64 C50 1.267 . S
O65 Pr40 2.437 . S
O65 C50 1.278 . S
O66 Pr41 2.562 . S
O66 C51 1.254 . S
O67 Pr41 2.490 . S
O67 C51 1.225 . S
O68 Pr40 2.436 . S
O68 Pr41 2.695 1_545 S
O68 C58 1.270 . S
O69 Pr41 2.512 . S
O69 C58 1.248 1_565 S
O70 Pr40 2.438 1_565 S
O70 C59 1.267 . S
O71 Pr41 2.437 . S
O71 C59 1.278 . S
H72 C44 0.929 . S
H73 C45 0.929 . S
H74 C47 0.931 . S
H75 C48 0.930 . S
H76 C53 0.929 . S
H77 C54 0.929 . S
H78 C56 0.931 . S
H79 C57 0.930 . S
Pr80 C82 2.880 . S
Pr80 O100 2.562 . S
Pr80 O101 2.490 . S
Pr80 O102 2.695 . S
Pr80 O103 2.512 . S
Pr80 O105 2.437 . S
Pr80 O108 2.436 . S
Pr80 O110 2.438 . S
Pr81 C91 2.880 . S
Pr81 O102 2.436 . S
Pr81 O104 2.438 . S
Pr81 O106 2.562 . S
Pr81 O107 2.490 . S
Pr81 O108 2.695 . S
Pr81 O109 2.512 . S
Pr81 O111 2.437 . S
C82 Pr80 2.880 . S
C82 C83 1.491 . S
C82 O100 1.254 . S
C82 O101 1.225 . S
C83 C82 1.491 . S
C83 C84 1.392 . S
C83 C88 1.356 . S
C84 C83 1.392 . S
C84 C85 1.368 . S
C84 H112 0.929 . S
C85 C84 1.368 . S
C85 C86 1.386 . S
C85 H113 0.929 . S
C86 C85 1.386 . S
C86 C87 1.373 . S
C87 C86 1.373 . S
C87 C88 1.409 . S
C87 H114 0.931 . S
C88 C83 1.356 . S
C88 C87 1.409 . S
C88 H115 0.930 . S
C89 O102 1.270 . S
C89 O103 1.248 . S
C90 O104 1.267 . S
C90 O105 1.278 . S
C91 Pr81 2.880 . S
C91 C92 1.491 . S
C91 O106 1.254 . S
C91 O107 1.225 . S
C92 C91 1.491 . S
C92 C93 1.392 . S
C92 C97 1.356 . S
C93 C92 1.392 . S
C93 C94 1.368 . S
C93 H116 0.929 . S
C94 C93 1.368 . S
C94 C95 1.386 . S
C94 H117 0.929 . S
C95 C94 1.386 . S
C95 C96 1.373 . S
C96 C95 1.373 . S
C96 C97 1.409 . S
C96 H118 0.931 . S
C97 C92 1.356 . S
C97 C96 1.409 . S
C97 H119 0.930 . S
C98 O108 1.270 . S
C98 O109 1.248 . S
C99 O110 1.267 . S
C99 O111 1.278 . S
O100 Pr80 2.562 . S
O100 C82 1.254 . S
O101 Pr80 2.490 . S
O101 C82 1.225 . S
O102 Pr80 2.695 . S
O102 Pr81 2.436 . S
O102 C89 1.270 . S
O103 Pr80 2.512 . S
O103 C89 1.248 . S
O104 Pr81 2.438 . S
O104 C90 1.267 . S
O105 Pr80 2.437 . S
O105 C90 1.278 . S
O106 Pr81 2.562 . S
O106 C91 1.254 . S
O107 Pr81 2.490 . S
O107 C91 1.225 . S
O108 Pr80 2.436 . S
O108 Pr81 2.695 . S
O108 C98 1.270 . S
O109 Pr81 2.512 . S
O109 C98 1.248 . S
O110 Pr80 2.438 . S
O110 C99 1.267 . S
O111 Pr81 2.437 . S
O111 C99 1.278 . S
H112 C84 0.929 . S
H113 C85 0.929 . S
H114 C87 0.931 . S
H115 C88 0.930 . S
H116 C93 0.929 . S
H117 C94 0.929 . S
H118 C96 0.931 . S
H119 C97 0.930 . S
C120 N121 1.317 . S
C120 N122 1.348 1_545 S
C120 C123 1.485 . S
N121 C120 1.317 . S
N121 N125 1.370 . S
N122 C120 1.348 1_565 S
N122 C124 1.346 . S
C123 C120 1.485 . S
C123 H127 0.960 . S
C123 H128 0.961 1_545 S
C123 H129 0.960 . S
C124 N122 1.346 . S
C124 N125 1.307 1_565 S
C124 C126 1.486 . S
N125 N121 1.370 . S
N125 C124 1.307 1_545 S
C126 C124 1.486 . S
C126 H130 0.960 . S
C126 H131 0.960 . S
C126 H132 0.959 . S
H127 C123 0.960 . S
H128 C123 0.961 1_565 S
H129 C123 0.960 . S
H130 C126 0.960 . S
H131 C126 0.960 . S
H132 C126 0.959 . S
C133 N134 1.317 . S
C133 N135 1.348 . S
C133 C136 1.485 . S
N134 C133 1.317 . S
N134 N138 1.370 . S
N135 C133 1.348 . S
N135 C137 1.346 . S
C136 C133 1.485 . S
C136 H140 0.960 . S
C136 H141 0.961 . S
C136 H142 0.960 . S
C137 N135 1.346 . S
C137 N138 1.307 . S
C137 C139 1.486 . S
N138 N134 1.370 . S
N138 C137 1.307 . S
C139 C137 1.486 . S
C139 H143 0.960 . S
C139 H144 0.960 . S
C139 H145 0.959 . S
H140 C136 0.960 . S
H141 C136 0.961 . S
H142 C136 0.960 . S
H143 C139 0.960 . S
H144 C139 0.960 . S
H145 C139 0.959 . S
C146 N147 1.317 . S
C146 N148 1.348 1_455 S
C146 C149 1.485 . S
N147 C146 1.317 . S
N147 N151 1.370 . S
N148 C146 1.348 1_655 S
N148 C150 1.346 . S
C149 C146 1.485 . S
C149 H153 0.960 . S
C149 H154 0.961 . S
C149 H155 0.960 . S
C150 N148 1.346 . S
C150 N151 1.307 1_655 S
C150 C152 1.486 . S
N151 N147 1.370 . S
N151 C150 1.307 1_455 S
C152 C150 1.486 . S
C152 H156 0.960 . S
C152 H157 0.960 . S
C152 H158 0.959 . S
H153 C149 0.960 . S
H154 C149 0.961 . S
H155 C149 0.960 . S
H156 C152 0.960 . S
H157 C152 0.960 . S
H158 C152 0.959 . S
C159 N160 1.317 . S
C159 N161 1.348 . S
C159 C162 1.485 . S
N160 C159 1.317 . S
N160 N164 1.370 . S
N161 C159 1.348 . S
N161 C163 1.346 . S
C162 C159 1.485 . S
C162 H166 0.960 . S
C162 H167 0.961 . S
C162 H168 0.960 . S
C163 N161 1.346 . S
C163 N164 1.307 . S
C163 C165 1.486 . S
N164 N160 1.370 . S
N164 C163 1.307 . S
C165 C163 1.486 . S
C165 H169 0.960 . S
C165 H170 0.960 . S
C165 H171 0.959 . S
H166 C162 0.960 . S
H167 C162 0.961 . S
H168 C162 0.960 . S
H169 C165 0.960 . S
H170 C165 0.960 . S
H171 C165 0.959 . S
C172 N173 1.317 . S
C172 N174 1.348 . S
C172 C175 1.485 . S
N173 C172 1.317 . S
N173 N177 1.370 . S
N174 C172 1.348 . S
N174 C176 1.346 . S
C175 C172 1.485 . S
C175 H179 0.960 . S
C175 H180 0.961 . S
C175 H181 0.960 1_545 S
C176 N174 1.346 . S
C176 N177 1.307 . S
C176 C178 1.486 . S
N177 N173 1.370 . S
N177 C176 1.307 . S
C178 C176 1.486 . S
C178 H182 0.960 . S
C178 H183 0.960 . S
C178 H184 0.959 . S
H179 C175 0.960 . S
H180 C175 0.961 . S
H181 C175 0.960 1_565 S
H182 C178 0.960 . S
H183 C178 0.960 . S
H184 C178 0.959 . S
C185 N186 1.317 . S
C185 N187 1.348 . S
C185 C188 1.485 . S
N186 C185 1.317 . S
N186 N190 1.370 . S
N187 C185 1.348 . S
N187 C189 1.346 . S
C188 C185 1.485 . S
C188 H192 0.960 . S
C188 H193 0.961 . S
C188 H194 0.960 . S
C189 N187 1.346 . S
C189 N190 1.307 . S
C189 C191 1.486 . S
N190 N186 1.370 . S
N190 C189 1.307 . S
C191 C189 1.486 . S
C191 H195 0.960 . S
C191 H196 0.960 . S
C191 H197 0.959 . S
H192 C188 0.960 . S
H193 C188 0.961 . S
H194 C188 0.960 . S
H195 C191 0.960 . S
H196 C191 0.960 . S
H197 C191 0.959 . S
H198 C204 0.930 . S
H199 C207 0.930 . S
H200 C208 0.930 . S
H201 C209 0.930 . S
H202 C212 0.930 . S
H203 C213 0.930 . S
C204 H198 0.930 . S
C204 C205 1.355 . S
C204 C206 1.415 . S
C205 C204 1.355 . S
C205 C207 1.419 . S
C206 C204 1.415 . S
C206 C211 1.425 . S
C206 C213 1.409 . S
C207 H199 0.930 . S
C207 C205 1.419 . S
C207 C208 1.362 . S
C208 H200 0.930 . S
C208 C207 1.362 . S
C208 C211 1.409 . S
C209 H201 0.930 . S
C209 C210 1.355 . S
C209 C211 1.415 . S
C210 C209 1.355 . S
C210 C212 1.419 . S
C211 C206 1.425 . S
C211 C208 1.409 . S
C211 C209 1.415 . S
C212 H202 0.930 . S
C212 C210 1.419 . S
C212 C213 1.362 . S
C213 H203 0.930 . S
C213 C206 1.409 . S
C213 C212 1.362 . S
H214 C220 0.930 . S
H215 C223 0.930 . S
H216 C224 0.930 . S
H217 C225 0.930 . S
H218 C228 0.930 . S
H219 C229 0.930 . S
C220 H214 0.930 . S
C220 C221 1.355 . S
C220 C222 1.415 . S
C221 C220 1.355 . S
C221 C223 1.419 . S
C222 C220 1.415 . S
C222 C227 1.425 . S
C222 C229 1.409 . S
C223 H215 0.930 . S
C223 C221 1.419 . S
C223 C224 1.362 . S
C224 H216 0.930 . S
C224 C223 1.362 . S
C224 C227 1.409 . S
C225 H217 0.930 . S
C225 C226 1.355 . S
C225 C227 1.415 . S
C226 C225 1.355 . S
C226 C228 1.419 . S
C227 C222 1.425 . S
C227 C224 1.409 . S
C227 C225 1.415 . S
C228 H218 0.930 . S
C228 C226 1.419 . S
C228 C229 1.362 . S
C229 H219 0.930 . S
C229 C222 1.409 . S
C229 C228 1.362 . S
H230 C236 0.930 . S
H231 C239 0.930 . S
H232 C240 0.930 . S
H233 C241 0.930 . S
H234 C244 0.930 1_545 S
H235 C245 0.930 . S
C236 H230 0.930 . S
C236 C237 1.355 . S
C236 C238 1.415 . S
C237 C236 1.355 . S
C237 C239 1.419 . S
C238 C236 1.415 . S
C238 C243 1.425 . S
C238 C245 1.409 . S
C239 H231 0.930 . S
C239 C237 1.419 . S
C239 C240 1.362 . S
C240 H232 0.930 . S
C240 C239 1.362 . S
C240 C243 1.409 . S
C241 H233 0.930 . S
C241 C242 1.355 . S
C241 C243 1.415 . S
C242 C241 1.355 . S
C242 C244 1.419 . S
C243 C238 1.425 . S
C243 C240 1.409 . S
C243 C241 1.415 . S
C244 H234 0.930 1_565 S
C244 C242 1.419 . S
C244 C245 1.362 . S
C245 H235 0.930 . S
C245 C238 1.409 . S
C245 C244 1.362 . S
H246 C252 0.930 . S
H247 C255 0.930 . S
H248 C256 0.930 . S
H249 C257 0.930 . S
H250 C260 0.930 . S
H251 C261 0.930 . S
C252 H246 0.930 . S
C252 C253 1.355 . S
C252 C254 1.415 . S
C253 C252 1.355 . S
C253 C255 1.419 . S
C254 C252 1.415 . S
C254 C259 1.425 . S
C254 C261 1.409 . S
C255 H247 0.930 . S
C255 C253 1.419 . S
C255 C256 1.362 . S
C256 H248 0.930 . S
C256 C255 1.362 . S
C256 C259 1.409 . S
C257 H249 0.930 . S
C257 C258 1.355 . S
C257 C259 1.415 . S
C258 C257 1.355 . S
C258 C260 1.419 . S
C259 C254 1.425 . S
C259 C256 1.409 . S
C259 C257 1.415 . S
C260 H250 0.930 . S
C260 C258 1.419 . S
C260 C261 1.362 . S
C261 H251 0.930 . S
C261 C254 1.409 . S
C261 C260 1.362 . S
H262 C268 0.930 . S
H263 C271 0.930 . S
H264 C272 0.930 . S
H265 C273 0.930 . S
H266 C276 0.930 . S
H267 C277 0.930 . S
C268 H262 0.930 . S
C268 C269 1.355 . S
C268 C270 1.415 . S
C269 C268 1.355 . S
C269 C271 1.419 . S
C270 C268 1.415 . S
C270 C275 1.425 . S
C270 C277 1.409 . S
C271 H263 0.930 . S
C271 C269 1.419 . S
C271 C272 1.362 . S
C272 H264 0.930 . S
C272 C271 1.362 . S
C272 C275 1.409 . S
C273 H265 0.930 . S
C273 C274 1.355 . S
C273 C275 1.415 . S
C274 C273 1.355 . S
C274 C276 1.419 . S
C275 C270 1.425 . S
C275 C272 1.409 . S
C275 C273 1.415 . S
C276 H266 0.930 . S
C276 C274 1.419 . S
C276 C277 1.362 . S
C277 H267 0.930 . S
C277 C270 1.409 . S
C277 C276 1.362 . S
H278 C284 0.930 . S
H279 C287 0.930 . S
H280 C288 0.930 . S
H281 C289 0.930 . S
H282 C292 0.930 . S
H283 C293 0.930 . S
C284 H278 0.930 . S
C284 C285 1.355 . S
C284 C286 1.415 . S
C285 C284 1.355 . S
C285 C287 1.419 . S
C286 C284 1.415 . S
C286 C291 1.425 . S
C286 C293 1.409 . S
C287 H279 0.930 . S
C287 C285 1.419 . S
C287 C288 1.362 . S
C288 H280 0.930 . S
C288 C287 1.362 . S
C288 C291 1.409 . S
C289 H281 0.930 . S
C289 C290 1.355 . S
C289 C291 1.415 . S
C290 C289 1.355 . S
C290 C292 1.419 . S
C291 C286 1.425 . S
C291 C288 1.409 . S
C291 C289 1.415 . S
C292 H282 0.930 . S
C292 C290 1.419 . S
C292 C293 1.362 . S
C293 H283 0.930 . S
C293 C286 1.409 . S
C293 C292 1.362 . S
H294 C300 0.930 . S
H295 C303 0.930 . S
H296 C304 0.930 . S
H297 C305 0.930 . S
H298 C308 0.930 . S
H299 C309 0.930 . S
C300 H294 0.930 . S
C300 C301 1.355 . S
C300 C302 1.415 . S
C301 C300 1.355 . S
C301 C303 1.419 . S
C302 C300 1.415 . S
C302 C307 1.425 . S
C302 C309 1.409 . S
C303 H295 0.930 . S
C303 C301 1.419 . S
C303 C304 1.362 . S
C304 H296 0.930 . S
C304 C303 1.362 . S
C304 C307 1.409 . S
C305 H297 0.930 . S
C305 C306 1.355 . S
C305 C307 1.415 . S
C306 C305 1.355 . S
C306 C308 1.419 . S
C307 C302 1.425 . S
C307 C304 1.409 . S
C307 C305 1.415 . S
C308 H298 0.930 . S
C308 C306 1.419 . S
C308 C309 1.362 . S
C309 H299 0.930 . S
C309 C302 1.409 . S
C309 C308 1.362 . S
H310 C316 0.930 . S
H311 C319 0.930 . S
H312 C320 0.930 . S
H313 C321 0.930 . S
H314 C324 0.930 . S
H315 C325 0.930 . S
C316 H310 0.930 . S
C316 C317 1.355 . S
C316 C318 1.415 . S
C317 C316 1.355 . S
C317 C319 1.419 . S
C318 C316 1.415 . S
C318 C323 1.425 . S
C318 C325 1.409 . S
C319 H311 0.930 . S
C319 C317 1.419 . S
C319 C320 1.362 . S
C320 H312 0.930 . S
C320 C319 1.362 . S
C320 C323 1.409 . S
C321 H313 0.930 . S
C321 C322 1.355 . S
C321 C323 1.415 . S
C322 C321 1.355 . S
C322 C324 1.419 . S
C323 C318 1.425 . S
C323 C320 1.409 . S
C323 C321 1.415 . S
C324 H314 0.930 . S
C324 C322 1.419 . S
C324 C325 1.362 . S
C325 H315 0.930 . S
C325 C318 1.409 . S
C325 C324 1.362 . S
H326 C332 0.930 . S
H327 C335 0.930 . S
H328 C336 0.930 . S
H329 C337 0.930 . S
H330 C340 0.930 . S
H331 C341 0.930 . S
C332 H326 0.930 . S
C332 C333 1.355 . S
C332 C334 1.415 . S
C333 C332 1.355 . S
C333 C335 1.419 . S
C334 C332 1.415 . S
C334 C339 1.425 . S
C334 C341 1.409 . S
C335 H327 0.930 . S
C335 C333 1.419 . S
C335 C336 1.362 . S
C336 H328 0.930 . S
C336 C335 1.362 . S
C336 C339 1.409 . S
C337 H329 0.930 . S
C337 C338 1.355 . S
C337 C339 1.415 . S
C338 C337 1.355 . S
C338 C340 1.419 . S
C339 C334 1.425 . S
C339 C336 1.409 . S
C339 C337 1.415 . S
C340 H330 0.930 . S
C340 C338 1.419 . S
C340 C341 1.362 . S
C341 H331 0.930 . S
C341 C334 1.409 . S
C341 C340 1.362 . S
H342 C348 0.930 . S
H343 C351 0.930 . S
H344 C352 0.930 . S
H345 C353 0.930 . S
H346 C356 0.930 . S
H347 C357 0.930 . S
C348 H342 0.930 . S
C348 C349 1.355 . S
C348 C350 1.415 . S
C349 C348 1.355 . S
C349 C351 1.419 . S
C350 C348 1.415 . S
C350 C355 1.425 . S
C350 C357 1.409 . S
C351 H343 0.930 . S
C351 C349 1.419 . S
C351 C352 1.362 . S
C352 H344 0.930 . S
C352 C351 1.362 . S
C352 C355 1.409 . S
C353 H345 0.930 . S
C353 C354 1.355 . S
C353 C355 1.415 . S
C354 C353 1.355 . S
C354 C356 1.419 . S
C355 C350 1.425 . S
C355 C352 1.409 . S
C355 C353 1.415 . S
C356 H346 0.930 . S
C356 C354 1.419 . S
C356 C357 1.362 . S
C357 H347 0.930 . S
C357 C350 1.409 . S
C357 C356 1.362 . S
H358 C364 0.930 . S
H359 C367 0.930 . S
H360 C368 0.930 . S
H361 C369 0.930 . S
H362 C372 0.930 . S
H363 C373 0.930 . S
C364 H358 0.930 . S
C364 C365 1.355 . S
C364 C366 1.415 . S
C365 C364 1.355 . S
C365 C367 1.419 . S
C366 C364 1.415 . S
C366 C371 1.425 . S
C366 C373 1.409 . S
C367 H359 0.930 . S
C367 C365 1.419 . S
C367 C368 1.362 . S
C368 H360 0.930 . S
C368 C367 1.362 . S
C368 C371 1.409 . S
C369 H361 0.930 . S
C369 C370 1.355 . S
C369 C371 1.415 . S
C370 C369 1.355 . S
C370 C372 1.419 . S
C371 C366 1.425 . S
C371 C368 1.409 . S
C371 C369 1.415 . S
C372 H362 0.930 . S
C372 C370 1.419 . S
C372 C373 1.362 . S
C373 H363 0.930 . S
C373 C366 1.409 . S
C373 C372 1.362 . S
H374 C380 0.930 . S
H375 C383 0.930 . S
H376 C384 0.930 . S
H377 C385 0.930 . S
H378 C388 0.930 . S
H379 C389 0.930 . S
C380 H374 0.930 . S
C380 C381 1.355 . S
C380 C382 1.415 . S
C381 C380 1.355 . S
C381 C383 1.419 . S
C382 C380 1.415 . S
C382 C387 1.425 . S
C382 C389 1.409 . S
C383 H375 0.930 . S
C383 C381 1.419 . S
C383 C384 1.362 . S
C384 H376 0.930 . S
C384 C383 1.362 . S
C384 C387 1.409 . S
C385 H377 0.930 . S
C385 C386 1.355 . S
C385 C387 1.415 . S
C386 C385 1.355 . S
C386 C388 1.419 . S
C387 C382 1.425 . S
C387 C384 1.409 . S
C387 C385 1.415 . S
C388 H378 0.930 . S
C388 C386 1.419 . S
C388 C389 1.362 . S
C389 H379 0.930 . S
C389 C382 1.409 . S
C389 C388 1.362 . S
H390 C396 0.930 1_655 S
H391 C399 0.930 . S
H392 C400 0.930 . S
H393 C401 0.930 . S
H394 C404 0.930 . S
H395 C405 0.930 1_655 S
C396 H390 0.930 1_455 S
C396 C397 1.355 . S
C396 C398 1.415 . S
C397 C396 1.355 . S
C397 C399 1.419 . S
C398 C396 1.415 . S
C398 C403 1.425 1_554 S
C398 C405 1.409 1_554 S
C399 H391 0.930 . S
C399 C397 1.419 . S
C399 C400 1.362 . S
C400 H392 0.930 . S
C400 C399 1.362 . S
C400 C403 1.409 1_554 S
C401 H393 0.930 . S
C401 C402 1.355 . S
C401 C403 1.415 . S
C402 C401 1.355 . S
C402 C404 1.419 . S
C403 C398 1.425 1_556 S
C403 C400 1.409 1_556 S
C403 C401 1.415 . S
C404 H394 0.930 . S
C404 C402 1.419 . S
C404 C405 1.362 . S
C405 H395 0.930 1_455 S
C405 C398 1.409 1_556 S
C405 C404 1.362 . S
H406 C412 0.930 . S
H407 C415 0.930 . S
H408 C416 0.930 . S
H409 C417 0.930 . S
H410 C420 0.930 . S
H411 C421 0.930 . S
C412 H406 0.930 . S
C412 C413 1.355 . S
C412 C414 1.415 . S
C413 C412 1.355 . S
C413 C415 1.419 1_545 S
C414 C412 1.415 . S
C414 C419 1.425 . S
C414 C421 1.409 . S
C415 H407 0.930 . S
C415 C413 1.419 1_565 S
C415 C416 1.362 . S
C416 H408 0.930 . S
C416 C415 1.362 . S
C416 C419 1.409 1_565 S
C417 H409 0.930 . S
C417 C418 1.355 1_565 S
C417 C419 1.415 1_565 S
C418 C417 1.355 1_545 S
C418 C420 1.419 . S
C419 C414 1.425 . S
C419 C416 1.409 1_545 S
C419 C417 1.415 1_545 S
C420 H410 0.930 . S
C420 C418 1.419 . S
C420 C421 1.362 . S
C421 H411 0.930 . S
C421 C414 1.409 . S
C421 C420 1.362 . S
H422 C428 0.930 . S
H423 C431 0.930 . S
H424 C432 0.930 . S
H425 C433 0.930 . S
H426 C436 0.930 . S
H427 C437 0.930 . S
C428 H422 0.930 . S
C428 C429 1.355 . S
C428 C430 1.415 . S
C429 C428 1.355 . S
C429 C431 1.419 . S
C430 C428 1.415 . S
C430 C435 1.425 . S
C430 C437 1.409 . S
C431 H423 0.930 . S
C431 C429 1.419 . S
C431 C432 1.362 . S
C432 H424 0.930 . S
C432 C431 1.362 . S
C432 C435 1.409 . S
C433 H425 0.930 . S
C433 C434 1.355 . S
C433 C435 1.415 . S
C434 C433 1.355 . S
C434 C436 1.419 . S
C435 C430 1.425 . S
C435 C432 1.409 . S
C435 C433 1.415 . S
C436 H426 0.930 . S
C436 C434 1.419 . S
C436 C437 1.362 . S
C437 H427 0.930 . S
C437 C430 1.409 . S
C437 C436 1.362 . S
H438 C444 0.930 . S
H439 C447 0.930 . S
H440 C448 0.930 . S
H441 C449 0.930 . S
H442 C452 0.930 . S
H443 C453 0.930 . S
C444 H438 0.930 . S
C444 C445 1.355 1_565 S
C444 C446 1.415 . S
C445 C444 1.355 1_545 S
C445 C447 1.419 . S
C446 C444 1.415 . S
C446 C451 1.425 1_565 S
C446 C453 1.409 . S
C447 H439 0.930 . S
C447 C445 1.419 . S
C447 C448 1.362 . S
C448 H440 0.930 . S
C448 C447 1.362 . S
C448 C451 1.409 . S
C449 H441 0.930 . S
C449 C450 1.355 . S
C449 C451 1.415 . S
C450 C449 1.355 . S
C450 C452 1.419 1_545 S
C451 C446 1.425 1_545 S
C451 C448 1.409 . S
C451 C449 1.415 . S
C452 H442 0.930 . S
C452 C450 1.419 1_565 S
C452 C453 1.362 . S
C453 H443 0.930 . S
C453 C446 1.409 . S
C453 C452 1.362 . S
H454 C460 0.930 . S
H455 C463 0.930 . S
H456 C464 0.930 . S
H457 C465 0.930 . S
H458 C468 0.930 . S
H459 C469 0.930 . S
C460 H454 0.930 . S
C460 C461 1.355 . S
C460 C462 1.415 . S
C461 C460 1.355 . S
C461 C463 1.419 . S
C462 C460 1.415 . S
C462 C467 1.425 1_556 S
C462 C469 1.409 1_556 S
C463 H455 0.930 . S
C463 C461 1.419 . S
C463 C464 1.362 . S
C464 H456 0.930 . S
C464 C463 1.362 . S
C464 C467 1.409 1_556 S
C465 H457 0.930 . S
C465 C466 1.355 . S
C465 C467 1.415 . S
C466 C465 1.355 . S
C466 C468 1.419 . S
C467 C462 1.425 1_554 S
C467 C464 1.409 1_554 S
C467 C465 1.415 . S
C468 H458 0.930 . S
C468 C466 1.419 . S
C468 C469 1.362 . S
C469 H459 0.930 . S
C469 C462 1.409 1_554 S
C469 C468 1.362 . S
H470 C476 0.930 . S
H471 C479 0.930 . S
H472 C480 0.930 . S
H473 C481 0.930 . S
H474 C484 0.930 . S
H475 C485 0.930 . S
C476 H470 0.930 . S
C476 C477 1.355 1_455 S
C476 C478 1.415 . S
C477 C476 1.355 1_655 S
C477 C479 1.419 . S
C478 C476 1.415 . S
C478 C483 1.425 1_455 S
C478 C485 1.409 . S
C479 H471 0.930 . S
C479 C477 1.419 . S
C479 C480 1.362 . S
C480 H472 0.930 . S
C480 C479 1.362 . S
C480 C483 1.409 . S
C481 H473 0.930 . S
C481 C482 1.355 1_655 S
C481 C483 1.415 . S
C482 C481 1.355 1_455 S
C482 C484 1.419 . S
C483 C478 1.425 1_655 S
C483 C480 1.409 . S
C483 C481 1.415 . S
C484 H474 0.930 . S
C484 C482 1.419 . S
C484 C485 1.362 . S
C485 H475 0.930 . S
C485 C478 1.409 . S
C485 C484 1.362 . S
C205 C19 1.703 . S
C210 N187 1.677 . S
C221 C46 1.261 . S
C226 N160 1.268 1_655 S
C237 C95 0.416 . S
C242 N173 0.381 1_565 S
C253 C10 2.097 . S
C258 N186 2.159 . S
C274 N161 1.415 . S
C269 C55 1.402 . S
C290 N174 0.846 . S
C285 C86 0.807 . S
C301 C59 3.007 . S
C306 N134 3.012 . S
C317 C90 1.730 . S
C322 N148 1.746 . S
C333 C15 1.376 . S
C338 N122 1.407 . S
C354 N135 3.064 . S
C349 C50 3.055 . S
C370 N147 2.139 . S
C365 C99 2.109 . S
C381 C6 1.119 . S
C386 N121 1.137 . S
C402 N151 1.429 . S
C397 C9 1.409 . S
C413 C58 1.443 . S
C418 N125 1.616 . S
C429 C98 1.739 . S
C434 N138 1.751 . S
C450 N177 1.322 . S
C445 C49 1.285 . S
C466 N190 1.418 . S
C461 C89 1.341 . S
C477 C18 1.479 1_655 S
C482 N164 1.493 . S
