# Generated by pormake.
# Topology pts, (4,4)-cn, num edge types: 1
# Building blocks:
#     Node 0, Type 0, BuildingBlock: AZAVOO_clean_linker_0, # of connection points: 4
#     Node 1, Type 0, BuildingBlock: AZAVOO_clean_linker_0, # of connection points: 4
#     Node 2, Type 1, BuildingBlock: QUQFOY_clean_sbu_1, # of connection points: 4
#     Node 3, Type 1, BuildingBlock: QUQFOY_clean_sbu_1, # of connection points: 4
#     Edge 4, Type (0, 1), BuildingBlock: TEMPAE_clean_linker_10, # of connection points: 2
#     Edge 5, Type (0, 1), BuildingBlock: TEMPAE_clean_linker_10, # of connection points: 2
#     Edge 6, Type (0, 1), BuildingBlock: TEMPAE_clean_linker_10, # of connection points: 2
#     Edge 7, Type (0, 1), BuildingBlock: TEMPAE_clean_linker_10, # of connection points: 2
#     Edge 8, Type (0, 1), BuildingBlock: TEMPAE_clean_linker_10, # of connection points: 2
#     Edge 9, Type (0, 1), BuildingBlock: TEMPAE_clean_linker_10, # of connection points: 2
#     Edge 10, Type (0, 1), BuildingBlock: TEMPAE_clean_linker_10, # of connection points: 2
#     Edge 11, Type (0, 1), BuildingBlock: TEMPAE_clean_linker_10, # of connection points: 2
# Relax obj value: 0.197
# Max RMSD: 0.245
# Mean RMSD: 0.235
data_MOF--net-pts--node1-QUQFOY_clean_sbu_1--node2-AZAVOO_clean_linker_0--edge1-TEMPAE_clean_linker_10
_symmetry_space_group_name_H-M    P1
_symmetry_Int_Tables_number       1
_symmetry_cell_setting            triclinic
loop_
_symmetry_equiv_pos_as_xyz
'x, y, z'
_cell_length_a     25.137955
_cell_length_b     28.263019
_cell_length_c     49.593974
_cell_angle_alpha  90.784993
_cell_angle_beta   92.932171
_cell_angle_gamma 90.190494
loop_
_atom_site_label
_atom_site_type_symbol
_atom_site_fract_x
_atom_site_fract_y
_atom_site_fract_z
_atom_type_partial_charge
H0 H 0.44257 0.12811 0.82045 0.0
H1 H 0.86985 0.98397 0.03938 0.0
H2 H 0.45561 0.18196 0.96815 0.0
H3 H 0.37744 0.19495 0.93784 0.0
H4 H 0.32347 0.05268 0.95244 0.0
H5 H 0.40135 0.04041 0.98306 0.0
H6 H 0.54319 0.15255 0.92882 0.0
H7 H 0.50882 0.15464 0.88174 0.0
H8 H 0.43004 0.02026 0.89187 0.0
H9 H 0.46523 0.01839 0.93878 0.0
H10 H 0.65834 0.12868 0.9559 0.0
H11 H 0.71533 0.1114 0.91849 0.0
H12 H 0.63753 0.9756 0.90608 0.0
H13 H 0.58026 0.99356 0.94341 0.0
H14 H 0.67203 0.13872 0.01992 0.0
H15 H 0.76426 0.12205 0.03487 0.0
H16 H 0.73939 0.97426 0.01398 0.0
H17 H 0.64698 0.99136 -0.00053 0.0
H18 H 0.57713 0.16624 0.05115 0.0
H19 H 0.62489 0.17258 0.0955 0.0
H20 H 0.63452 0.02024 0.09873 0.0
H21 H 0.58761 0.01417 0.05423 0.0
H22 H 0.44739 0.17336 0.02745 0.0
H23 H 0.38527 0.17941 0.06414 0.0
H24 H 0.417 0.03376 0.08446 0.0
H25 H 0.47748 0.02755 0.04757 0.0
O26 O 0.45652 0.12621 0.83896 0.0
O27 O 0.4161 0.05748 0.8454 0.0
O28 O 0.84421 0.06789 0.04405 0.0
O29 O 0.83368 0.99162 0.03341 0.0
C30 C 0.48907 0.09692 0.98619 0.0
C31 C 0.52502 0.0855 0.9661 0.0
C32 C 0.57833 0.07445 0.97349 0.0
C33 C 0.59625 0.07611 0.00087 0.0
C34 C 0.55996 0.08668 0.02094 0.0
C35 C 0.50598 0.09579 0.01367 0.0
C36 C 0.4341 0.11016 0.97755 0.0
C37 C 0.42544 0.15452 0.96586 0.0
C38 C 0.3812 0.16165 0.94832 0.0
C39 C 0.34514 0.12445 0.94232 0.0
C40 C 0.35054 0.08203 0.95672 0.0
C41 C 0.39486 0.07497 0.97432 0.0
C42 C 0.50655 0.0854 0.93715 0.0
C43 C 0.51888 0.12344 0.92072 0.0
C44 C 0.49904 0.1246 0.89389 0.0
C45 C 0.46656 0.08766 0.88306 0.0
C46 C 0.45488 0.0493 0.89957 0.0
C47 C 0.47491 0.04812 0.92635 0.0
C48 C 0.61543 0.06232 0.95229 0.0
C49 C 0.65414 0.09501 0.94528 0.0
C50 C 0.68663 0.08501 0.92398 0.0
C51 C 0.68083 0.04212 0.90936 0.0
C52 C 0.64246 0.00911 0.91678 0.0
C53 C 0.61004 0.01915 0.93813 0.0
C54 C 0.6529 0.06623 0.00867 0.0
C55 C 0.68663 0.10279 0.01859 0.0
C56 C 0.73927 0.09317 0.02709 0.0
C57 C 0.75919 0.04677 0.02565 0.0
C58 C 0.72534 0.01035 0.01538 0.0
C59 C 0.67263 0.02002 0.00698 0.0
C60 C 0.57939 0.08979 0.04956 0.0
C61 C 0.58837 0.13428 0.06179 0.0
C62 C 0.61555 0.13786 0.08699 0.0
C63 C 0.63315 0.09689 0.10037 0.0
C64 C 0.62072 0.05226 0.08889 0.0
C65 C 0.59428 0.04874 0.06352 0.0
C66 C 0.46698 0.10006 0.03495 0.0
C67 C 0.44042 0.14272 0.03969 0.0
C68 C 0.40525 0.14617 0.06061 0.0
C69 C 0.39703 0.10719 0.07723 0.0
C70 C 0.42339 0.06452 0.07221 0.0
C71 C 0.45772 0.06091 0.05115 0.0
C72 C 0.44482 0.08935 0.8547 0.0
C73 C 0.81493 0.03627 0.03493 0.0
H74 H 0.03509 0.46917 0.32412 0.0
H75 H 0.11765 0.84496 0.57351 0.0
H76 H 0.9937 0.44581 0.48997 0.0
H77 H 0.99219 0.36662 0.46938 0.0
H78 H 0.152 0.38912 0.44349 0.0
H79 H 0.15411 0.46667 0.46554 0.0
H80 H 0.99514 0.50748 0.43745 0.0
H81 H -0.00328 0.48622 0.38953 0.0
H82 H 0.15631 0.54326 0.38757 0.0
H83 H 0.1545 0.56372 0.43563 0.0
H84 H -0.00457 0.61955 0.44125 0.0
H85 H -0.00478 0.68315 0.40834 0.0
H86 H 0.15309 0.72518 0.43848 0.0
H87 H 0.15379 0.65996 0.47044 0.0
H88 H 0.99215 0.67143 0.50276 0.0
H89 H 0.99144 0.75134 0.52254 0.0
H90 H 0.1559 0.73475 0.55072 0.0
H91 H 0.15617 0.65528 0.5306 0.0
H92 H 0.98246 0.60264 0.54919 0.0
H93 H 0.98417 0.6534 0.58932 0.0
H94 H 0.151 0.62171 0.60476 0.0
H95 H 0.14902 0.57177 0.56396 0.0
H96 H 0.98411 0.49912 0.5444 0.0
H97 H 0.97532 0.43143 0.57419 0.0
H98 H 0.1381 0.39211 0.5611 0.0
H99 H 0.14678 0.46047 0.53176 0.0
O100 O 0.03526 0.47807 0.34304 0.0
O101 O 0.11685 0.50874 0.34295 0.0
O102 O 0.03243 0.82077 0.55019 0.0
O103 O 0.11713 0.81404 0.56486 0.0
C104 C 0.07259 0.51207 0.48844 0.0
C105 C 0.07404 0.54876 0.46931 0.0
C106 C 0.0744 0.59652 0.47807 0.0
C107 C 0.07296 0.60752 0.50581 0.0
C108 C 0.06943 0.57086 0.52479 0.0
C109 C 0.06967 0.52316 0.5162 0.0
C110 C 0.0739 0.46202 0.47907 0.0
C111 C 0.02885 0.43295 0.4805 0.0
C112 C 0.02792 0.38793 0.4685 0.0
C113 C 0.07176 0.37158 0.45451 0.0
C114 C 0.11777 0.40008 0.45437 0.0
C115 C 0.11892 0.4447 0.46671 0.0
C116 C 0.07472 0.53706 0.44001 0.0
C117 C 0.03043 0.51526 0.42664 0.0
C118 C 0.03142 0.50322 0.39926 0.0
C119 C 0.07667 0.513 0.38472 0.0
C120 C 0.12084 0.53522 0.39817 0.0
C121 C 0.11987 0.54708 0.42559 0.0
C122 C 0.07463 0.63517 0.45816 0.0
C123 C 0.03006 0.64234 0.44057 0.0
C124 C 0.02985 0.67898 0.42199 0.0
C125 C 0.07406 0.70944 0.42086 0.0
C126 C 0.11866 0.70207 0.4386 0.0
C127 C 0.119 0.66512 0.45701 0.0
C128 C 0.07417 0.65767 0.51529 0.0
C129 C 0.02815 0.68546 0.51287 0.0
C130 C 0.0278 0.73092 0.52433 0.0
C131 C 0.07356 0.74932 0.53838 0.0
C132 C 0.11997 0.72168 0.54013 0.0
C133 C 0.12028 0.67632 0.5286 0.0
C134 C 0.0657 0.58398 0.55362 0.0
C135 C 0.01869 0.60486 0.56197 0.0
C136 C 0.01987 0.63406 0.58488 0.0
C137 C 0.06808 0.6424 0.59986 0.0
C138 C 0.11357 0.61669 0.59325 0.0
C139 C 0.11235 0.58755 0.57023 0.0
C140 C 0.06612 0.48472 0.53605 0.0
C141 C 0.01805 0.47625 0.54831 0.0
C142 C 0.01294 0.43731 0.56503 0.0
C143 C 0.05591 0.40626 0.5698 0.0
C144 C 0.10444 0.41556 0.55795 0.0
C145 C 0.10946 0.45448 0.54119 0.0
C146 C 0.07767 0.49991 0.35566 0.0
C147 C 0.07292 0.79688 0.55143 0.0
O148 O 0.97144 0.02927 0.22857 0.0
Cd149 Cd 0.04669 0.01632 0.24466 0.0
Cd150 Cd 0.04654 0.10853 0.25651 0.0
O151 O 0.97013 0.10522 0.23927 0.0
O152 O 0.05014 0.94797 0.25343 0.0
O153 O 0.05901 0.00546 0.28419 0.0
C154 C 0.05732 0.96074 0.27845 0.0
C155 C 0.05798 0.1479 0.29789 0.0
C156 C 0.94746 0.06874 0.22869 0.0
C157 C 0.12835 0.07372 0.21865 0.0
O158 O 0.10945 0.10877 0.23127 0.0
O159 O 0.10913 0.03253 0.22132 0.0
O160 O 0.05183 0.17066 0.27561 0.0
O161 O 0.05783 0.10225 0.29672 0.0
O162 O 0.94292 0.06793 0.75131 0.0
Cd163 Cd 0.01447 0.09067 0.73783 0.0
Cd164 Cd 0.04252 0.99852 0.74577 0.0
O165 O 0.96975 0.99658 0.76293 0.0
O166 O -0.00121 0.15581 0.72527 0.0
O167 O 0.02832 0.09971 0.69849 0.0
C168 C 0.01379 0.14311 0.70183 0.0
C169 C 0.0602 0.93515 0.71713 0.0
C170 C 0.93428 0.02849 0.76229 0.0
C171 C 0.10778 0.07158 0.7764 0.0
O172 O 0.10435 0.02849 0.76888 0.0
O173 O 0.0746 0.10166 0.767 0.0
O174 O 0.06295 0.93087 0.74298 0.0
O175 O 0.04832 0.97614 0.70734 0.0
C176 C 0.37708 0.09409 0.12527 0.0
C177 C 0.3605 0.11012 0.09959 0.0
C178 C 0.3414 0.09181 0.14601 0.0
C179 C 0.28776 0.10531 0.14076 0.0
C180 C 0.27131 0.12325 0.11514 0.0
C181 C 0.30809 0.12572 0.09485 0.0
C182 C 0.36061 0.07321 0.17318 0.0
C183 C 0.21431 0.13762 0.10875 0.0
C184 C 0.18362 0.04544 0.18127 0.0
C185 C 0.171 0.0813 0.19967 0.0
C186 C 0.22155 0.05291 0.16202 0.0
C187 C 0.248 0.09713 0.16134 0.0
C188 C 0.23631 0.1332 0.18017 0.0
C189 C 0.19768 0.12495 0.19904 0.0
C190 C 0.23272 0.01367 0.14212 0.0
C191 C 0.26434 0.18054 0.18025 0.0
H192 H 0.41787 0.08254 0.12896 0.0
H193 H 0.29528 0.13783 0.07492 0.0
H194 H 0.34907 0.09765 0.18955 0.0
H195 H 0.34148 0.03853 0.17663 0.0
H196 H 0.40452 0.06851 0.17474 0.0
H197 H 0.20889 0.154 0.08857 0.0
H198 H 0.18804 0.10604 0.10923 0.0
H199 H 0.20097 0.16304 0.12422 0.0
H200 H 0.16302 0.0117 0.18152 0.0
H201 H 0.18827 0.1528 0.21325 0.0
H202 H 0.27547 0.00398 0.1439 0.0
H203 H 0.22416 0.02597 0.1212 0.0
H204 H 0.20852 0.98145 0.14529 0.0
H205 H 0.30807 0.17549 0.1826 0.0
H206 H 0.25174 0.20438 0.19672 0.0
H207 H 0.256 0.19821 0.16066 0.0
C208 C 0.08994 0.35254 0.60648 0.0
C209 C 0.04994 0.36419 0.58699 0.0
C210 C 0.08391 0.31393 0.62355 0.0
C211 C 0.0368 0.28626 0.62102 0.0
C212 C -0.0031 0.29707 0.6009 0.0
C213 C 0.00392 0.33597 0.58415 0.0
C214 C 0.12725 0.30366 0.64486 0.0
C215 C 0.94626 0.26825 0.59751 0.0
C216 C 0.0391 0.16689 0.6556 0.0
C217 C 0.01627 0.17825 0.68006 0.0
C218 C 0.04507 0.20144 0.63583 0.0
C219 C 0.02775 0.24828 0.64073 0.0
C220 C 0.00334 0.25953 0.66507 0.0
C221 C -0.00209 0.22442 0.6844 0.0
C222 C 0.07112 0.18818 0.61005 0.0
C223 C 0.98412 0.30901 0.67101 0.0
H224 H 0.12538 0.37445 0.6089 0.0
H225 H 0.9733 0.34437 0.56879 0.0
H226 H 0.11174 0.30909 0.66522 0.0
H227 H 0.13983 0.26617 0.64335 0.0
H228 H 0.16276 0.3267 0.64311 0.0
H229 H 0.92079 0.27932 0.57975 0.0
H230 H 0.95577 0.23016 0.59517 0.0
H231 H 0.92307 0.2721 0.61585 0.0
H232 H 0.05336 0.13129 0.65211 0.0
H233 H 0.97998 0.23349 0.7032 0.0
H234 H 0.10914 0.20793 0.6089 0.0
H235 H 0.0452 0.19829 0.5923 0.0
H236 H 0.07957 0.1497 0.60864 0.0
H237 H 0.0183 0.33402 0.6718 0.0
H238 H 0.96423 0.3115 0.69047 0.0
H239 H 0.95571 0.32072 0.65461 0.0
C240 C 0.66294 0.07474 0.14736 0.0
C241 C 0.67108 0.10044 0.12398 0.0
C242 C 0.70293 0.07236 0.1681 0.0
C243 C 0.75243 0.09507 0.16484 0.0
C244 C 0.75978 0.1228 0.14175 0.0
C245 C 0.71874 0.12546 0.12169 0.0
C246 C 0.69323 0.04353 0.19278 0.0
C247 C 0.8123 0.14682 0.13725 0.0
C248 C 0.86095 0.1109 0.22022 0.0
C249 C 0.89456 0.07289 0.21462 0.0
C250 C 0.81271 0.11717 0.20518 0.0
C251 C 0.79874 0.08539 0.18366 0.0
C252 C 0.83177 0.04616 0.1785 0.0
C253 C 0.87896 0.04009 0.19427 0.0
C254 C 0.77768 0.15863 0.21169 0.0
C255 C 0.81874 0.01194 0.1554 0.0
H256 H 0.62589 0.05551 0.14905 0.0
H257 H 0.72517 0.14478 0.10338 0.0
H258 H 0.71593 0.01001 0.1919 0.0
H259 H 0.70744 0.06292 0.2114 0.0
H260 H 0.65039 0.03471 0.19427 0.0
H261 H 0.81012 0.16985 0.11925 0.0
H262 H 0.82534 0.16861 0.15515 0.0
H263 H 0.84333 0.11962 0.13436 0.0
H264 H 0.87266 0.13607 0.23614 0.0
H265 H 0.90489 0.01074 0.1898 0.0
H266 H 0.73564 0.14695 0.21271 0.0
H267 H 0.77896 0.18509 0.19542 0.0
H268 H 0.79049 0.17621 0.23113 0.0
H269 H 0.77824 0.99694 0.15706 0.0
H270 H 0.84759 0.98231 0.15475 0.0
H271 H 0.81895 0.03093 0.13596 0.0
C272 C 0.11515 0.7144 0.61881 0.0
C273 C 0.07229 0.68253 0.61947 0.0
C274 C 0.11686 0.75574 0.63479 0.0
C275 C 0.0745 0.76564 0.65167 0.0
C276 C 0.03165 0.7332 0.65286 0.0
C277 C 0.03116 0.69193 0.6368 0.0
C278 C 0.16339 0.78933 0.63314 0.0
C279 C 0.98562 0.7427 0.67055 0.0
C280 C 0.09237 0.85275 0.71025 0.0
C281 C 0.06798 0.89342 0.69953 0.0
C282 C 0.09622 0.81132 0.69463 0.0
C283 C 0.07438 0.81034 0.66777 0.0
C284 C 0.05081 0.85161 0.6566 0.0
C285 C 0.04825 0.89286 0.67259 0.0
C286 C 0.12254 0.76829 0.70705 0.0
C287 C 0.02663 0.8517 0.62809 0.0
H288 H 0.14652 0.70796 0.60503 0.0
H289 H -0.00191 0.66734 0.63747 0.0
H290 H 0.14913 0.82437 0.62608 0.0
H291 H 0.1831 0.79481 0.65348 0.0
H292 H 0.19342 0.77615 0.61921 0.0
H293 H 0.95574 0.71359 0.66944 0.0
H294 H 0.0004 0.74748 0.69188 0.0
H295 H 0.96553 0.77602 0.66437 0.0
H296 H 0.10804 0.85312 0.73103 0.0
H297 H 0.02913 0.92414 0.66427 0.0
H298 H 0.15422 0.75513 0.69413 0.0
H299 H 0.09283 0.73941 0.70836 0.0
H300 H 0.14041 0.77577 0.72763 0.0
H301 H 0.05597 0.839 0.61373 0.0
H302 H 0.0128 0.88741 0.62187 0.0
H303 H 0.99219 0.82699 0.62643 0.0
C304 C 0.25632 0.10837 0.91873 0.0
C305 C 0.30808 0.12667 0.91819 0.0
C306 C 0.22392 0.10404 0.89494 0.0
C307 C 0.24402 0.11816 0.8701 0.0
C308 C 0.29538 0.13855 0.86963 0.0
C309 C 0.32687 0.14245 0.89369 0.0
C310 C 0.16908 0.08249 0.89621 0.0
C311 C 0.31817 0.15401 0.84356 0.0
C312 C 0.185 0.05325 0.80826 0.0
C313 C 0.14712 0.08576 0.79826 0.0
C314 C 0.218 0.06405 0.83116 0.0
C315 C 0.21276 0.1083 0.84445 0.0
C316 C 0.17624 0.14205 0.83385 0.0
C317 C 0.14393 0.13044 0.8108 0.0
C318 C 0.25716 0.02742 0.84169 0.0
C319 C 0.16987 0.18969 0.84744 0.0
H320 H 0.24168 0.09636 0.93766 0.0
H321 H 0.36728 0.15576 0.89305 0.0
H322 H 0.13887 0.10568 0.88611 0.0
H323 H 0.1677 0.04797 0.88526 0.0
H324 H 0.15792 0.07666 0.9173 0.0
H325 H 0.35588 0.17428 0.84708 0.0
H326 H 0.32622 0.12243 0.8309 0.0
H327 H 0.28921 0.17624 0.83188 0.0
H328 H 0.18798 0.01879 0.7986 0.0
H329 H 0.1148 0.15582 0.80322 0.0
H330 H 0.24597 0.01567 0.8619 0.0
H331 H 0.29773 0.04297 0.84413 0.0
H332 H 0.25855 0.99591 0.82812 0.0
H333 H 0.15392 0.18482 0.86767 0.0
H334 H 0.14247 0.2132 0.83558 0.0
H335 H 0.20908 0.20761 0.85051 0.0
C336 C 0.02073 0.31786 0.42199 0.0
C337 C 0.06776 0.32781 0.43754 0.0
C338 C 0.01901 0.28193 0.40222 0.0
C339 C 0.06568 0.25586 0.39756 0.0
C340 C 0.11212 0.26332 0.41444 0.0
C341 C 0.11248 0.29901 0.43438 0.0
C342 C 0.9684 0.27453 0.38491 0.0
C343 C 0.16269 0.23623 0.41009 0.0
C344 C 0.05308 0.15182 0.34818 0.0
C345 C 0.06386 0.17387 0.32389 0.0
C346 C 0.05459 0.17771 0.37262 0.0
C347 C 0.06797 0.2264 0.37263 0.0
C348 C 0.08093 0.24824 0.34828 0.0
C349 C 0.07829 0.22179 0.32419 0.0
C350 C 0.03991 0.15347 0.39814 0.0
C351 C 0.09625 0.29995 0.34751 0.0
H352 H 0.98604 0.34003 0.42401 0.0
H353 H 0.1486 0.30572 0.44673 0.0
H354 H 0.9736 0.28922 0.36457 0.0
H355 H 0.95939 0.23624 0.38227 0.0
H356 H 0.93373 0.29219 0.39369 0.0
H357 H 0.19246 0.24096 0.42726 0.0
H358 H 0.15418 0.19792 0.40717 0.0
H359 H 0.18059 0.2489 0.39149 0.0
H360 H 0.04175 0.11477 0.34797 0.0
H361 H 0.08719 0.23883 0.30549 0.0
H362 H 0.00167 0.16789 0.40481 0.0
H363 H 0.07046 0.16057 0.41464 0.0
H364 H 0.0355 0.11458 0.39524 0.0
H365 H 0.06203 0.32216 0.35301 0.0
H366 H 0.1085 0.31067 0.32726 0.0
H367 H 0.12955 0.30762 0.3625 0.0
C368 C 0.69097 0.01393 0.86179 0.0
C369 C 0.71396 0.0326 0.88605 0.0
C370 C 0.7214 0.00771 0.83907 0.0
C371 C 0.77585 0.02075 0.84071 0.0
C372 C 0.79954 0.03835 0.86538 0.0
C373 C 0.76831 0.04393 0.88776 0.0
C374 C 0.69497 0.98857 0.81314 0.0
C375 C 0.85764 0.05244 0.86797 0.0
C376 C 0.87862 0.98081 0.79237 0.0
C377 C 0.88607 0.02237 0.77783 0.0
C378 C 0.83984 0.97838 0.81165 0.0
C379 C 0.80804 0.01849 0.81649 0.0
C380 C 0.81228 0.05902 0.80029 0.0
C381 C 0.85117 0.06042 0.78106 0.0
C382 C 0.83583 0.93424 0.82824 0.0
C383 C 0.77878 0.10243 0.80475 0.0
H384 H 0.64882 0.00551 0.86032 0.0
H385 H 0.78639 0.05756 0.90662 0.0
H386 H 0.69332 0.01669 0.79773 0.0
H387 H 0.71854 0.95899 0.80502 0.0
H388 H 0.65378 0.97585 0.81593 0.0
H389 H 0.87022 0.06417 0.88881 0.0
H390 H 0.88296 0.02225 0.8622 0.0
H391 H 0.86519 0.08174 0.85398 0.0
H392 H 0.90498 0.95099 0.78978 0.0
H393 H 0.85622 0.09252 0.76974 0.0
H394 H 0.79356 0.9243 0.83045 0.0
H395 H 0.85395 0.94108 0.84881 0.0
H396 H 0.85677 0.90385 0.81917 0.0
H397 H 0.73627 0.09256 0.80607 0.0
H398 H 0.78215 0.12855 0.78838 0.0
H399 H 0.7919 0.11974 0.82419 0.0
C400 C 0.0272 0.77502 0.39592 0.0
C401 C 0.07362 0.74853 0.40114 0.0
C402 C 0.02551 0.8108 0.3766 0.0
C403 C 0.07153 0.82069 0.36235 0.0
C404 C 0.11888 0.79491 0.36794 0.0
C405 C 0.11928 0.75896 0.38717 0.0
C406 C 0.9742 0.83744 0.37109 0.0
C407 C 0.16881 0.80468 0.35323 0.0
C408 C 0.05167 0.87723 0.29373 0.0
C409 C 0.06241 0.92499 0.29988 0.0
C410 C 0.05469 0.84293 0.31389 0.0
C411 C 0.06936 0.85668 0.3408 0.0
C412 C 0.08101 0.90472 0.3471 0.0
C413 C 0.0771 0.93841 0.32656 0.0
C414 C 0.04146 0.79208 0.30644 0.0
C415 C 0.09733 0.92053 0.37554 0.0
H416 H 0.99206 0.76778 0.40698 0.0
H417 H 0.15511 0.7383 0.39083 0.0
H418 H 0.98106 0.87598 0.37412 0.0
H419 H 0.95994 0.83178 0.34974 0.0
H420 H 0.94232 0.82612 0.38434 0.0
H421 H 0.20317 0.78339 0.36106 0.0
H422 H 0.16166 0.7965 0.3314 0.0
H423 H 0.17953 0.84274 0.35512 0.0
H424 H 0.0401 0.86663 0.27317 0.0
H425 H 0.08563 0.97526 0.33142 0.0
H426 H 0.00736 0.77988 0.31793 0.0
H427 H 0.0758 0.76902 0.31201 0.0
H428 H 0.03109 0.7872 0.28453 0.0
H429 H 0.065 0.91262 0.38923 0.0
H430 H 0.10642 0.95901 0.37696 0.0
H431 H 0.13302 0.90067 0.38297 0.0
loop_
_geom_bond_atom_site_label_1
_geom_bond_atom_site_label_2
_geom_bond_distance
_geom_bond_site_symmetry_2
_ccdc_geom_bond_type
H0 O26 0.856 . S
H1 O29 0.854 . S
H2 C37 0.930 . S
H3 C38 0.930 . S
H4 C40 0.930 . S
H5 C41 0.930 . S
H6 C43 0.931 . S
H7 C44 0.930 . S
H8 C46 0.930 1_565 S
H9 C47 0.929 1_565 S
H10 C49 0.930 . S
H11 C50 0.931 . S
H12 C52 0.930 1_565 S
H13 C53 0.929 1_565 S
H14 C55 0.931 . S
H15 C56 0.930 . S
H16 C58 0.930 1_565 S
H17 C59 0.932 1_566 S
H18 C61 0.930 . S
H19 C62 0.929 . S
H20 C64 0.931 . S
H21 C65 0.930 . S
H22 C67 0.929 . S
H23 C68 0.931 . S
H24 C70 0.930 1_565 S
H25 C71 0.929 . S
O26 H0 0.856 . S
O26 C72 1.300 . S
O27 C72 1.209 . S
O28 C73 1.199 . S
O29 H1 0.854 . S
O29 C73 1.297 . S
C30 C31 1.404 . S
C30 C35 1.397 1_556 S
C30 C36 1.492 . S
C31 C30 1.404 . S
C31 C32 1.396 . S
C31 C42 1.492 . S
C32 C31 1.396 . S
C32 C33 1.397 1_556 S
C32 C48 1.509 . S
C33 C32 1.397 1_554 S
C33 C34 1.412 . S
C33 C54 1.485 . S
C34 C33 1.412 . S
C34 C35 1.388 . S
C34 C60 1.490 . S
C35 C30 1.397 1_554 S
C35 C34 1.388 . S
C35 C66 1.519 . S
C36 C30 1.492 . S
C36 C37 1.363 . S
C36 C41 1.390 . S
C37 H2 0.930 . S
C37 C36 1.363 . S
C37 C38 1.372 . S
C38 H3 0.930 . S
C38 C37 1.372 . S
C38 C39 1.383 . S
C39 C38 1.383 . S
C39 C40 1.395 . S
C40 H4 0.930 . S
C40 C39 1.395 . S
C40 C41 1.362 . S
C41 H5 0.930 . S
C41 C36 1.390 . S
C41 C40 1.362 . S
C42 C31 1.492 . S
C42 C43 1.377 . S
C42 C47 1.397 . S
C43 H6 0.931 . S
C43 C42 1.377 . S
C43 C44 1.376 . S
C44 H7 0.930 . S
C44 C43 1.376 . S
C44 C45 1.376 . S
C45 C44 1.376 . S
C45 C46 1.378 . S
C45 C72 1.486 . S
C46 H8 0.930 1_545 S
C46 C45 1.378 . S
C46 C47 1.376 . S
C47 H9 0.929 1_545 S
C47 C42 1.397 . S
C47 C46 1.376 . S
C48 C32 1.509 . S
C48 C49 1.391 . S
C48 C53 1.386 . S
C49 H10 0.930 . S
C49 C48 1.391 . S
C49 C50 1.375 . S
C50 H11 0.931 . S
C50 C49 1.375 . S
C50 C51 1.375 . S
C51 C50 1.375 . S
C51 C52 1.361 . S
C52 H12 0.930 1_545 S
C52 C51 1.361 . S
C52 C53 1.399 . S
C53 H13 0.929 1_545 S
C53 C48 1.386 . S
C53 C52 1.399 . S
C54 C33 1.485 . S
C54 C55 1.394 . S
C54 C59 1.360 . S
C55 H14 0.931 . S
C55 C54 1.394 . S
C55 C56 1.372 . S
C56 H15 0.930 . S
C56 C55 1.372 . S
C56 C57 1.397 . S
C57 C56 1.397 . S
C57 C58 1.390 . S
C57 C73 1.476 . S
C58 H16 0.930 1_545 S
C58 C57 1.390 . S
C58 C59 1.366 . S
C59 H17 0.932 1_544 S
C59 C54 1.360 . S
C59 C58 1.366 . S
C60 C34 1.490 . S
C60 C61 1.380 . S
C60 C65 1.386 . S
C61 H18 0.930 . S
C61 C60 1.380 . S
C61 C62 1.381 . S
C62 H19 0.929 . S
C62 C61 1.381 . S
C62 C63 1.371 . S
C63 C62 1.371 . S
C63 C64 1.380 . S
C64 H20 0.931 . S
C64 C63 1.380 . S
C64 C65 1.387 . S
C65 H21 0.930 . S
C65 C60 1.386 . S
C65 C64 1.387 . S
C66 C35 1.519 . S
C66 C67 1.377 . S
C66 C71 1.361 . S
C67 H22 0.929 . S
C67 C66 1.377 . S
C67 C68 1.386 . S
C68 H23 0.931 . S
C68 C67 1.386 . S
C68 C69 1.363 . S
C69 C68 1.363 . S
C69 C70 1.385 . S
C70 H24 0.930 1_545 S
C70 C69 1.385 . S
C70 C71 1.396 . S
C71 H25 0.929 . S
C71 C66 1.361 . S
C71 C70 1.396 . S
C72 O26 1.300 . S
C72 O27 1.209 . S
C72 C45 1.486 . S
C73 O28 1.199 . S
C73 O29 1.297 . S
C73 C57 1.476 . S
H74 O100 0.856 . S
H75 O103 0.854 . S
H76 C111 0.930 1_655 S
H77 C112 0.930 . S
H78 C114 0.930 . S
H79 C115 0.930 . S
H80 C117 0.931 1_655 S
H81 C118 0.930 1_655 S
H82 C120 0.930 . S
H83 C121 0.929 . S
H84 C123 0.930 1_655 S
H85 C124 0.936 . S
H86 C126 0.930 . S
H87 C127 0.929 . S
H88 C129 0.931 1_655 S
H89 C130 0.930 1_655 S
H90 C132 0.930 . S
H91 C133 0.932 . S
H92 C135 0.930 1_655 S
H93 C136 0.929 . S
H94 C138 0.931 . S
H95 C139 0.930 . S
H96 C141 0.929 1_655 S
H97 C142 0.931 1_655 S
H98 C144 0.930 . S
H99 C145 0.929 . S
O100 H74 0.856 . S
O100 C146 1.300 . S
O101 C146 1.209 . S
O102 C147 1.199 . S
O103 H75 0.854 . S
O103 C147 1.297 . S
C104 C105 1.404 . S
C104 C109 1.397 . S
C104 C110 1.492 . S
C105 C104 1.404 . S
C105 C106 1.396 . S
C105 C116 1.492 . S
C106 C105 1.396 . S
C106 C107 1.397 . S
C106 C122 1.509 . S
C107 C106 1.397 . S
C107 C108 1.412 . S
C107 C128 1.485 . S
C108 C107 1.412 . S
C108 C109 1.388 . S
C108 C134 1.490 . S
C109 C104 1.397 . S
C109 C108 1.388 . S
C109 C140 1.519 . S
C110 C104 1.492 . S
C110 C111 1.363 . S
C110 C115 1.390 . S
C111 H76 0.930 1_455 S
C111 C110 1.363 . S
C111 C112 1.372 1_455 S
C112 H77 0.930 . S
C112 C111 1.372 1_655 S
C112 C113 1.383 1_655 S
C113 C112 1.383 1_455 S
C113 C114 1.395 . S
C114 H78 0.930 . S
C114 C113 1.395 . S
C114 C115 1.362 . S
C115 H79 0.930 . S
C115 C110 1.390 . S
C115 C114 1.362 . S
C116 C105 1.492 . S
C116 C117 1.377 . S
C116 C121 1.397 . S
C117 H80 0.931 1_455 S
C117 C116 1.377 . S
C117 C118 1.376 . S
C118 H81 0.930 1_455 S
C118 C117 1.376 . S
C118 C119 1.376 . S
C119 C118 1.376 . S
C119 C120 1.378 . S
C119 C146 1.486 . S
C120 H82 0.930 . S
C120 C119 1.378 . S
C120 C121 1.376 . S
C121 H83 0.929 . S
C121 C116 1.397 . S
C121 C120 1.376 . S
C122 C106 1.509 . S
C122 C123 1.391 . S
C122 C127 1.386 . S
C123 H84 0.930 1_455 S
C123 C122 1.391 . S
C123 C124 1.375 . S
C124 H85 0.936 . S
C124 C123 1.375 . S
C124 C125 1.375 . S
C125 C124 1.375 . S
C125 C126 1.361 . S
C126 H86 0.930 . S
C126 C125 1.361 . S
C126 C127 1.399 . S
C127 H87 0.929 . S
C127 C122 1.386 . S
C127 C126 1.399 . S
C128 C107 1.485 . S
C128 C129 1.394 . S
C128 C133 1.360 . S
C129 H88 0.931 1_455 S
C129 C128 1.394 . S
C129 C130 1.372 . S
C130 H89 0.930 1_455 S
C130 C129 1.372 . S
C130 C131 1.397 . S
C131 C130 1.397 . S
C131 C132 1.390 . S
C131 C147 1.476 . S
C132 H90 0.930 . S
C132 C131 1.390 . S
C132 C133 1.366 . S
C133 H91 0.932 . S
C133 C128 1.360 . S
C133 C132 1.366 . S
C134 C108 1.490 . S
C134 C135 1.380 . S
C134 C139 1.386 . S
C135 H92 0.930 1_455 S
C135 C134 1.380 . S
C135 C136 1.381 1_455 S
C136 H93 0.929 . S
C136 C135 1.381 1_655 S
C136 C137 1.371 1_655 S
C137 C136 1.371 1_455 S
C137 C138 1.380 . S
C138 H94 0.931 . S
C138 C137 1.380 . S
C138 C139 1.387 . S
C139 H95 0.930 . S
C139 C134 1.386 . S
C139 C138 1.387 . S
C140 C109 1.519 . S
C140 C141 1.377 . S
C140 C145 1.361 . S
C141 H96 0.929 1_455 S
C141 C140 1.377 . S
C141 C142 1.386 . S
C142 H97 0.931 1_455 S
C142 C141 1.386 . S
C142 C143 1.363 . S
C143 C142 1.363 . S
C143 C144 1.385 . S
C144 H98 0.930 . S
C144 C143 1.385 . S
C144 C145 1.396 . S
C145 H99 0.929 . S
C145 C140 1.361 . S
C145 C144 1.396 . S
C146 O100 1.300 . S
C146 O101 1.209 . S
C146 C119 1.486 . S
C147 O102 1.199 . S
C147 O103 1.297 . S
C147 C131 1.476 . S
O148 Cd149 2.223 . S
O148 C156 1.315 1_455 S
Cd149 O148 2.223 . S
Cd149 O152 2.297 1_545 S
Cd149 O153 2.439 . S
Cd149 O159 2.240 . S
Cd150 O151 2.240 1_455 S
Cd150 O158 2.223 . S
Cd150 O160 2.297 . S
Cd150 O161 2.439 . S
O151 Cd150 2.240 1_655 S
O151 C156 1.279 . S
O152 Cd149 2.297 1_565 S
O152 C154 1.247 . S
O153 Cd149 2.439 . S
O153 C154 1.208 1_545 S
C154 O152 1.247 . S
C154 O153 1.208 1_565 S
C155 O160 1.247 . S
C155 O161 1.208 . S
C156 O148 1.315 1_655 S
C156 O151 1.279 . S
C157 O158 1.315 . S
C157 O159 1.279 . S
O158 Cd150 2.223 . S
O158 C157 1.315 . S
O159 Cd149 2.240 . S
O159 C157 1.279 . S
O160 Cd150 2.297 . S
O160 C155 1.247 . S
O161 Cd150 2.439 . S
O161 C155 1.208 . S
O162 Cd163 2.223 . S
O162 C170 1.315 1_455 S
Cd163 O162 2.223 . S
Cd163 O166 2.297 . S
Cd163 O167 2.439 . S
Cd163 O173 2.240 . S
Cd164 O165 2.240 1_465 S
Cd164 O172 2.223 . S
Cd164 O174 2.297 . S
Cd164 O175 2.439 . S
O165 Cd164 2.240 1_645 S
O165 C170 1.279 . S
O166 Cd163 2.297 . S
O166 C168 1.247 . S
O167 Cd163 2.439 . S
O167 C168 1.208 . S
C168 O166 1.247 . S
C168 O167 1.208 . S
C169 O174 1.247 . S
C169 O175 1.208 . S
C170 O162 1.315 1_655 S
C170 O165 1.279 . S
C171 O172 1.315 1_545 S
C171 O173 1.279 . S
O172 Cd164 2.223 . S
O172 C171 1.315 1_565 S
O173 Cd163 2.240 . S
O173 C171 1.279 . S
O174 Cd164 2.297 . S
O174 C169 1.247 . S
O175 Cd164 2.439 . S
O175 C169 1.208 . S
C176 C177 1.391 . S
C176 C178 1.394 . S
C176 H192 0.931 . S
C177 C176 1.391 . S
C177 C181 1.376 . S
C178 C176 1.394 . S
C178 C179 1.369 . S
C178 C182 1.531 . S
C179 C178 1.369 . S
C179 C180 1.410 . S
C179 C187 1.503 . S
C180 C179 1.410 . S
C180 C181 1.392 . S
C180 C183 1.511 . S
C181 C177 1.376 . S
C181 C180 1.392 . S
C181 H193 0.929 . S
C182 C178 1.531 . S
C182 H194 0.960 . S
C182 H195 0.962 . S
C182 H196 0.960 . S
C183 C180 1.511 . S
C183 H197 0.961 . S
C183 H198 0.961 . S
C183 H199 0.961 . S
C184 C185 1.370 . S
C184 C186 1.363 . S
C184 H200 0.931 . S
C185 C184 1.370 . S
C185 C189 1.408 . S
C186 C184 1.363 . S
C186 C187 1.370 . S
C186 C190 1.537 . S
C187 C179 1.503 . S
C187 C186 1.370 . S
C187 C188 1.403 . S
C188 C187 1.403 . S
C188 C189 1.404 . S
C188 C191 1.539 . S
C189 C185 1.408 . S
C189 C188 1.404 . S
C189 H201 0.930 . S
C190 C186 1.537 . S
C190 H202 0.952 1_545 S
C190 H203 0.962 . S
C190 H204 0.951 1_545 S
C191 C188 1.539 . S
C191 H205 0.958 . S
C191 H206 0.961 . S
C191 H207 0.960 . S
H192 C176 0.931 . S
H193 C181 0.929 . S
H194 C182 0.960 . S
H195 C182 0.962 . S
H196 C182 0.960 . S
H197 C183 0.961 . S
H198 C183 0.961 . S
H199 C183 0.961 . S
H200 C184 0.931 . S
H201 C189 0.930 . S
H202 C190 0.952 1_565 S
H203 C190 0.962 . S
H204 C190 0.951 1_565 S
H205 C191 0.958 . S
H206 C191 0.961 . S
H207 C191 0.960 . S
C208 C209 1.391 . S
C208 C210 1.394 . S
C208 H224 0.931 . S
C209 C208 1.391 . S
C209 C213 1.376 . S
C210 C208 1.394 . S
C210 C211 1.369 . S
C210 C214 1.531 . S
C211 C210 1.369 . S
C211 C212 1.410 . S
C211 C219 1.503 . S
C212 C211 1.410 . S
C212 C213 1.392 . S
C212 C215 1.511 . S
C213 C209 1.376 . S
C213 C212 1.392 . S
C213 H225 0.929 . S
C214 C210 1.531 . S
C214 H226 0.960 . S
C214 H227 0.962 . S
C214 H228 0.960 . S
C215 C212 1.511 . S
C215 H229 0.961 . S
C215 H230 0.961 . S
C215 H231 0.961 1_455 S
C216 C217 1.370 . S
C216 C218 1.363 . S
C216 H232 0.931 . S
C217 C216 1.370 . S
C217 C221 1.408 1_455 S
C218 C216 1.363 . S
C218 C219 1.370 . S
C218 C222 1.524 . S
C219 C211 1.503 . S
C219 C218 1.370 . S
C219 C220 1.403 1_455 S
C220 C219 1.403 1_655 S
C220 C221 1.404 . S
C220 C223 1.539 . S
C221 C217 1.408 1_655 S
C221 C220 1.404 . S
C221 H233 0.930 . S
C222 C218 1.524 . S
C222 H234 0.956 . S
C222 H235 0.961 . S
C222 H236 0.961 . S
C223 C220 1.539 . S
C223 H237 0.958 . S
C223 H238 0.961 . S
C223 H239 0.960 . S
H224 C208 0.931 . S
H225 C213 0.929 . S
H226 C214 0.960 . S
H227 C214 0.962 . S
H228 C214 0.960 . S
H229 C215 0.961 . S
H230 C215 0.961 . S
H231 C215 0.961 1_655 S
H232 C216 0.931 . S
H233 C221 0.930 . S
H234 C222 0.956 . S
H235 C222 0.961 . S
H236 C222 0.961 . S
H237 C223 0.958 . S
H238 C223 0.961 . S
H239 C223 0.960 . S
C240 C241 1.391 . S
C240 C242 1.394 . S
C240 H256 0.931 . S
C241 C240 1.391 . S
C241 C245 1.376 . S
C242 C240 1.394 . S
C242 C243 1.369 . S
C242 C246 1.531 . S
C243 C242 1.369 . S
C243 C244 1.410 . S
C243 C251 1.503 . S
C244 C243 1.410 . S
C244 C245 1.392 . S
C244 C247 1.511 . S
C245 C241 1.376 . S
C245 C244 1.392 . S
C245 H257 0.929 . S
C246 C242 1.531 . S
C246 H258 0.960 1_545 S
C246 H259 0.962 . S
C246 H260 0.960 1_545 S
C247 C244 1.511 . S
C247 H261 0.961 . S
C247 H262 0.961 . S
C247 H263 0.961 . S
C248 C249 1.370 . S
C248 C250 1.363 . S
C248 H264 0.931 . S
C249 C248 1.370 . S
C249 C253 1.408 . S
C250 C248 1.363 . S
C250 C251 1.370 . S
C250 C254 1.524 . S
C251 C243 1.503 . S
C251 C250 1.370 . S
C251 C252 1.403 . S
C252 C251 1.403 . S
C252 C253 1.404 . S
C252 C255 1.539 1_545 S
C253 C249 1.408 . S
C253 C252 1.404 . S
C253 H265 0.930 1_545 S
C254 C250 1.524 . S
C254 H266 0.956 . S
C254 H267 0.961 . S
C254 H268 0.961 . S
C255 C252 1.539 1_565 S
C255 H269 0.958 . S
C255 H270 0.961 . S
C255 H271 0.960 1_565 S
H256 C240 0.931 . S
H257 C245 0.929 . S
H258 C246 0.960 1_565 S
H259 C246 0.962 . S
H260 C246 0.960 1_565 S
H261 C247 0.961 . S
H262 C247 0.961 . S
H263 C247 0.961 . S
H264 C248 0.931 . S
H265 C253 0.930 1_565 S
H266 C254 0.956 . S
H267 C254 0.961 . S
H268 C254 0.961 . S
H269 C255 0.958 . S
H270 C255 0.961 . S
H271 C255 0.960 1_545 S
C272 C273 1.391 . S
C272 C274 1.394 . S
C272 H288 0.931 . S
C273 C272 1.391 . S
C273 C277 1.376 1_455 S
C274 C272 1.394 . S
C274 C275 1.369 . S
C274 C278 1.531 . S
C275 C274 1.369 . S
C275 C276 1.410 1_455 S
C275 C283 1.503 . S
C276 C275 1.410 1_655 S
C276 C277 1.392 . S
C276 C279 1.511 . S
C277 C273 1.376 1_655 S
C277 C276 1.392 . S
C277 H289 0.929 . S
C278 C274 1.531 . S
C278 H290 0.960 . S
C278 H291 0.962 . S
C278 H292 0.960 . S
C279 C276 1.511 . S
C279 H293 0.961 . S
C279 H294 0.961 . S
C279 H295 0.961 . S
C280 C281 1.370 . S
C280 C282 1.363 . S
C280 H296 0.931 . S
C281 C280 1.370 . S
C281 C285 1.408 . S
C282 C280 1.363 . S
C282 C283 1.370 . S
C282 C286 1.524 . S
C283 C275 1.503 . S
C283 C282 1.370 . S
C283 C284 1.403 . S
C284 C283 1.403 . S
C284 C285 1.404 . S
C284 C287 1.539 . S
C285 C281 1.408 . S
C285 C284 1.404 . S
C285 H297 0.930 . S
C286 C282 1.524 . S
C286 H298 0.956 . S
C286 H299 0.961 . S
C286 H300 0.961 . S
C287 C284 1.539 . S
C287 H301 0.958 . S
C287 H302 0.961 . S
C287 H303 0.960 . S
H288 C272 0.931 . S
H289 C277 0.929 . S
H290 C278 0.960 . S
H291 C278 0.962 . S
H292 C278 0.960 . S
H293 C279 0.961 . S
H294 C279 0.961 . S
H295 C279 0.961 . S
H296 C280 0.931 . S
H297 C285 0.930 . S
H298 C286 0.956 . S
H299 C286 0.961 . S
H300 C286 0.961 . S
H301 C287 0.958 . S
H302 C287 0.961 . S
H303 C287 0.960 . S
C304 C305 1.391 . S
C304 C306 1.394 . S
C304 H320 0.931 . S
C305 C304 1.391 . S
C305 C309 1.376 . S
C306 C304 1.394 . S
C306 C307 1.369 . S
C306 C310 1.531 . S
C307 C306 1.369 . S
C307 C308 1.410 . S
C307 C315 1.503 . S
C308 C307 1.410 . S
C308 C309 1.392 . S
C308 C311 1.511 . S
C309 C305 1.376 . S
C309 C308 1.392 . S
C309 H321 0.929 . S
C310 C306 1.531 . S
C310 H322 0.960 . S
C310 H323 0.962 . S
C310 H324 0.960 . S
C311 C308 1.511 . S
C311 H325 0.961 . S
C311 H326 0.961 . S
C311 H327 0.961 . S
C312 C313 1.370 1_565 S
C312 C314 1.363 1_565 S
C312 H328 0.931 . S
C313 C312 1.370 1_545 S
C313 C317 1.408 . S
C314 C312 1.363 1_545 S
C314 C315 1.370 . S
C314 C318 1.524 1_545 S
C315 C307 1.503 . S
C315 C314 1.370 . S
C315 C316 1.403 . S
C316 C315 1.403 . S
C316 C317 1.404 . S
C316 C319 1.539 . S
C317 C313 1.408 . S
C317 C316 1.404 . S
C317 H329 0.930 . S
C318 C314 1.524 1_565 S
C318 H330 0.956 . S
C318 H331 0.961 . S
C318 H332 0.961 . S
C319 C316 1.539 . S
C319 H333 0.958 . S
C319 H334 0.961 . S
C319 H335 0.960 . S
H320 C304 0.931 . S
H321 C309 0.929 . S
H322 C310 0.960 . S
H323 C310 0.962 . S
H324 C310 0.960 . S
H325 C311 0.961 . S
H326 C311 0.961 . S
H327 C311 0.961 . S
H328 C312 0.931 . S
H329 C317 0.930 . S
H330 C318 0.956 . S
H331 C318 0.961 . S
H332 C318 0.961 . S
H333 C319 0.958 . S
H334 C319 0.961 . S
H335 C319 0.960 . S
C336 C337 1.391 . S
C336 C338 1.394 . S
C336 H352 0.931 . S
C337 C336 1.391 . S
C337 C341 1.376 . S
C338 C336 1.394 . S
C338 C339 1.369 . S
C338 C342 1.531 . S
C339 C338 1.369 . S
C339 C340 1.410 . S
C339 C347 1.503 . S
C340 C339 1.410 . S
C340 C341 1.392 . S
C340 C343 1.511 . S
C341 C337 1.376 . S
C341 C340 1.392 . S
C341 H353 0.929 . S
C342 C338 1.531 . S
C342 H354 0.960 . S
C342 H355 0.962 . S
C342 H356 0.960 . S
C343 C340 1.511 . S
C343 H357 0.961 . S
C343 H358 0.961 . S
C343 H359 0.961 . S
C344 C345 1.370 . S
C344 C346 1.363 . S
C344 H360 0.931 1_455 S
C345 C344 1.370 . S
C345 C349 1.408 . S
C346 C344 1.363 . S
C346 C347 1.370 . S
C346 C350 1.524 1_455 S
C347 C339 1.503 . S
C347 C346 1.370 . S
C347 C348 1.403 . S
C348 C347 1.403 . S
C348 C349 1.404 . S
C348 C351 1.539 . S
C349 C345 1.408 . S
C349 C348 1.404 . S
C349 H361 0.930 . S
C350 C346 1.524 1_655 S
C350 H362 0.956 . S
C350 H363 0.961 . S
C350 H364 0.961 . S
C351 C348 1.539 . S
C351 H365 0.958 . S
C351 H366 0.961 . S
C351 H367 0.960 . S
H352 C336 0.931 . S
H353 C341 0.929 . S
H354 C342 0.960 . S
H355 C342 0.962 . S
H356 C342 0.960 . S
H357 C343 0.961 . S
H358 C343 0.961 . S
H359 C343 0.961 . S
H360 C344 0.931 1_655 S
H361 C349 0.930 . S
H362 C350 0.956 . S
H363 C350 0.961 . S
H364 C350 0.961 . S
H365 C351 0.958 . S
H366 C351 0.961 . S
H367 C351 0.960 . S
C368 C369 1.391 . S
C368 C370 1.394 . S
C368 H384 0.931 1_545 S
C369 C368 1.391 . S
C369 C373 1.376 . S
C370 C368 1.394 . S
C370 C371 1.369 . S
C370 C374 1.531 1_545 S
C371 C370 1.369 . S
C371 C372 1.410 . S
C371 C379 1.503 . S
C372 C371 1.410 . S
C372 C373 1.392 . S
C372 C375 1.511 . S
C373 C369 1.376 . S
C373 C372 1.392 . S
C373 H385 0.929 . S
C374 C370 1.531 1_565 S
C374 H386 0.960 . S
C374 H387 0.962 . S
C374 H388 0.960 . S
C375 C372 1.511 . S
C375 H389 0.961 . S
C375 H390 0.961 . S
C375 H391 0.961 . S
C376 C377 1.370 . S
C376 C378 1.363 . S
C376 H392 0.931 . S
C377 C376 1.370 . S
C377 C381 1.408 . S
C378 C376 1.363 . S
C378 C379 1.370 . S
C378 C382 1.524 . S
C379 C371 1.503 . S
C379 C378 1.370 . S
C379 C380 1.403 . S
C380 C379 1.403 . S
C380 C381 1.404 . S
C380 C383 1.539 . S
C381 C377 1.408 . S
C381 C380 1.404 . S
C381 H393 0.930 . S
C382 C378 1.524 . S
C382 H394 0.956 1_545 S
C382 H395 0.961 . S
C382 H396 0.965 . S
C383 C380 1.539 . S
C383 H397 0.958 . S
C383 H398 0.961 . S
C383 H399 0.960 . S
H384 C368 0.931 1_565 S
H385 C373 0.929 . S
H386 C374 0.960 . S
H387 C374 0.962 . S
H388 C374 0.960 . S
H389 C375 0.961 . S
H390 C375 0.961 . S
H391 C375 0.961 . S
H392 C376 0.931 . S
H393 C381 0.930 . S
H394 C382 0.956 1_565 S
H395 C382 0.961 . S
H396 C382 0.965 . S
H397 C383 0.958 . S
H398 C383 0.961 . S
H399 C383 0.960 . S
C400 C401 1.391 . S
C400 C402 1.394 . S
C400 H416 0.931 . S
C401 C400 1.391 . S
C401 C405 1.376 . S
C402 C400 1.394 . S
C402 C403 1.369 . S
C402 C406 1.531 1_455 S
C403 C402 1.369 . S
C403 C404 1.410 . S
C403 C411 1.503 . S
C404 C403 1.410 . S
C404 C405 1.392 . S
C404 C407 1.511 . S
C405 C401 1.376 . S
C405 C404 1.392 . S
C405 H417 0.929 . S
C406 C402 1.531 1_655 S
C406 H418 0.960 . S
C406 H419 0.962 . S
C406 H420 0.960 . S
C407 C404 1.511 . S
C407 H421 0.961 . S
C407 H422 0.961 . S
C407 H423 0.961 . S
C408 C409 1.370 1_655 S
C408 C410 1.363 1_655 S
C408 H424 0.931 . S
C409 C408 1.370 1_455 S
C409 C413 1.408 . S
C410 C408 1.363 1_455 S
C410 C411 1.370 . S
C410 C414 1.524 . S
C411 C403 1.503 . S
C411 C410 1.370 . S
C411 C412 1.403 . S
C412 C411 1.403 . S
C412 C413 1.404 . S
C412 C415 1.539 . S
C413 C409 1.408 . S
C413 C412 1.404 . S
C413 H425 0.930 . S
C414 C410 1.524 . S
C414 H426 0.956 1_455 S
C414 H427 0.961 . S
C414 H428 0.961 1_455 S
C415 C412 1.539 . S
C415 H429 0.958 . S
C415 H430 0.961 . S
C415 H431 0.960 . S
H416 C400 0.931 . S
H417 C405 0.929 . S
H418 C406 0.960 . S
H419 C406 0.962 . S
H420 C406 0.960 . S
H421 C407 0.961 . S
H422 C407 0.961 . S
H423 C407 0.961 . S
H424 C408 0.931 . S
H425 C413 0.930 . S
H426 C414 0.956 1_655 S
H427 C414 0.961 . S
H428 C414 0.961 1_655 S
H429 C415 0.958 . S
H430 C415 0.961 . S
H431 C415 0.960 . S
C185 C157 2.203 . S
C177 C69 2.181 . S
C217 C168 2.233 . S
C209 C143 2.284 . S
C249 C156 1.665 . S
C241 C63 1.492 . S
C281 C169 1.594 . S
C273 C137 1.514 . S
C313 C171 1.675 . S
C305 C39 1.563 . S
C345 C155 1.520 . S
C337 C113 1.444 . S
C377 C170 0.890 . S
C369 C51 0.879 . S
C401 C125 0.949 . S
C409 C154 0.922 . S
