# Generated by pormake.
# Topology pyr, (3,6)-cn, num edge types: 1
# Building blocks:
#     Node 0, Type 0, BuildingBlock: KAKCAD_clean_linker_0, # of connection points: 3
#     Node 1, Type 0, BuildingBlock: KAKCAD_clean_linker_0, # of connection points: 3
#     Node 2, Type 0, BuildingBlock: KAKCAD_clean_linker_0, # of connection points: 3
#     Node 3, Type 0, BuildingBlock: KAKCAD_clean_linker_0, # of connection points: 3
#     Node 4, Type 0, BuildingBlock: KAKCAD_clean_linker_0, # of connection points: 3
#     Node 5, Type 0, BuildingBlock: KAKCAD_clean_linker_0, # of connection points: 3
#     Node 6, Type 0, BuildingBlock: KAKCAD_clean_linker_0, # of connection points: 3
#     Node 7, Type 0, BuildingBlock: KAKCAD_clean_linker_0, # of connection points: 3
#     Node 8, Type 1, BuildingBlock: JUFBIX_clean_sbu_0, # of connection points: 6
#     Node 9, Type 1, BuildingBlock: JUFBIX_clean_sbu_0, # of connection points: 6
#     Node 10, Type 1, BuildingBlock: JUFBIX_clean_sbu_0, # of connection points: 6
#     Node 11, Type 1, BuildingBlock: JUFBIX_clean_sbu_0, # of connection points: 6
#     Edge 12, Type (0, 1), BuildingBlock: MIFKUJ_clean_linker_0, # of connection points: 2
#     Edge 13, Type (0, 1), BuildingBlock: MIFKUJ_clean_linker_0, # of connection points: 2
#     Edge 14, Type (0, 1), BuildingBlock: MIFKUJ_clean_linker_0, # of connection points: 2
#     Edge 15, Type (0, 1), BuildingBlock: MIFKUJ_clean_linker_0, # of connection points: 2
#     Edge 16, Type (0, 1), BuildingBlock: MIFKUJ_clean_linker_0, # of connection points: 2
#     Edge 17, Type (0, 1), BuildingBlock: MIFKUJ_clean_linker_0, # of connection points: 2
#     Edge 18, Type (0, 1), BuildingBlock: MIFKUJ_clean_linker_0, # of connection points: 2
#     Edge 19, Type (0, 1), BuildingBlock: MIFKUJ_clean_linker_0, # of connection points: 2
#     Edge 20, Type (0, 1), BuildingBlock: MIFKUJ_clean_linker_0, # of connection points: 2
#     Edge 21, Type (0, 1), BuildingBlock: MIFKUJ_clean_linker_0, # of connection points: 2
#     Edge 22, Type (0, 1), BuildingBlock: MIFKUJ_clean_linker_0, # of connection points: 2
#     Edge 23, Type (0, 1), BuildingBlock: MIFKUJ_clean_linker_0, # of connection points: 2
#     Edge 24, Type (0, 1), BuildingBlock: MIFKUJ_clean_linker_0, # of connection points: 2
#     Edge 25, Type (0, 1), BuildingBlock: MIFKUJ_clean_linker_0, # of connection points: 2
#     Edge 26, Type (0, 1), BuildingBlock: MIFKUJ_clean_linker_0, # of connection points: 2
#     Edge 27, Type (0, 1), BuildingBlock: MIFKUJ_clean_linker_0, # of connection points: 2
#     Edge 28, Type (0, 1), BuildingBlock: MIFKUJ_clean_linker_0, # of connection points: 2
#     Edge 29, Type (0, 1), BuildingBlock: MIFKUJ_clean_linker_0, # of connection points: 2
#     Edge 30, Type (0, 1), BuildingBlock: MIFKUJ_clean_linker_0, # of connection points: 2
#     Edge 31, Type (0, 1), BuildingBlock: MIFKUJ_clean_linker_0, # of connection points: 2
#     Edge 32, Type (0, 1), BuildingBlock: MIFKUJ_clean_linker_0, # of connection points: 2
#     Edge 33, Type (0, 1), BuildingBlock: MIFKUJ_clean_linker_0, # of connection points: 2
#     Edge 34, Type (0, 1), BuildingBlock: MIFKUJ_clean_linker_0, # of connection points: 2
#     Edge 35, Type (0, 1), BuildingBlock: MIFKUJ_clean_linker_0, # of connection points: 2
# Relax obj value: 0.036
# Max RMSD: 0.087
# Mean RMSD: 0.030
data_MOF--net-pry--node1-JUFBIX_clean_sbu_0--node2-KAKCAD_clean_linker_0--edge1-MIFKUJ_clean_linker_0
_symmetry_space_group_name_H-M    P1
_symmetry_Int_Tables_number       1
_symmetry_cell_setting            triclinic
loop_
_symmetry_equiv_pos_as_xyz
'x, y, z'
_cell_length_a     57.103094
_cell_length_b     54.714086
_cell_length_c     56.866392
_cell_angle_alpha  86.449412
_cell_angle_beta   89.904142
_cell_angle_gamma 91.745906
loop_
_atom_site_label
_atom_site_type_symbol
_atom_site_fract_x
_atom_site_fract_y
_atom_site_fract_z
_atom_type_partial_charge
C0 C 0.12497 0.13252 0.22742 0.0
C1 C 0.13797 0.12158 0.24607 0.0
C2 C 0.13612 0.14317 0.20715 0.0
C3 C 0.16071 0.14358 0.2049 0.0
C4 C 0.17373 0.13246 0.22344 0.0
C5 C 0.16254 0.12155 0.24362 0.0
C6 C 0.17266 0.15611 0.18365 0.0
C7 C 0.16338 0.17746 0.17263 0.0
C8 C 0.17444 0.18974 0.15299 0.0
C9 C 0.19537 0.18063 0.14438 0.0
C10 C 0.205 0.15906 0.15473 0.0
C11 C 0.19339 0.14699 0.17435 0.0
C12 C 0.22693 0.14896 0.14489 0.0
C13 C 0.23128 0.15029 0.12044 0.0
C14 C 0.24369 0.13776 0.15981 0.0
C15 C 0.26405 0.12814 0.1506 0.0
C16 C 0.2684 0.12947 0.12614 0.0
C17 C 0.16383 0.21203 0.14152 0.0
C18 C 0.14013 0.21152 0.1348 0.0
C19 C 0.17703 0.23404 0.13769 0.0
C20 C 0.1666 0.25521 0.12782 0.0
C21 C 0.1429 0.25466 0.12107 0.0
C22 C 0.12986 0.2325 0.12448 0.0
C23 C 0.25168 0.14077 0.11124 0.0
H24 H 0.10609 0.1333 0.22855 0.0
H25 H 0.12532 0.15108 0.19321 0.0
H26 H 0.19267 0.13254 0.22262 0.0
H27 H 0.17327 0.113 0.25728 0.0
H28 H 0.14773 0.18508 0.17966 0.0
H29 H 0.20018 0.13006 0.18204 0.0
H30 H 0.20403 0.19035 0.12947 0.0
H31 H 0.21877 0.15843 0.10826 0.0
H32 H 0.24124 0.13659 0.17873 0.0
H33 H 0.27623 0.11937 0.16273 0.0
H34 H 0.12955 0.1948 0.13745 0.0
H35 H 0.19529 0.23501 0.14279 0.0
H36 H 0.25441 0.14253 0.09236 0.0
H37 H 0.11155 0.23153 0.11959 0.0
H38 H 0.17712 0.27198 0.12531 0.0
C39 C 0.42078 0.92804 0.69769 0.0
C40 C 0.44506 0.93304 0.69685 0.0
C41 C 0.40983 0.91485 0.68042 0.0
C42 C 0.42287 0.9062 0.66188 0.0
C43 C 0.44717 0.91116 0.6609 0.0
C44 C 0.45817 0.92451 0.67822 0.0
C45 C 0.41096 0.89143 0.64418 0.0
C46 C 0.38903 0.89833 0.63534 0.0
C47 C 0.37615 0.88318 0.62077 0.0
C48 C 0.38578 0.86129 0.61436 0.0
C49 C 0.4077 0.85401 0.62303 0.0
C50 C 0.42032 0.86934 0.63776 0.0
C51 C 0.41647 0.82959 0.618 0.0
C52 C 0.40093 0.80916 0.61825 0.0
C53 C 0.44026 0.82644 0.61302 0.0
C54 C 0.44824 0.80339 0.60807 0.0
C55 C 0.43257 0.78304 0.60796 0.0
C56 C 0.35182 0.88912 0.61396 0.0
C57 C 0.33638 0.89753 0.63073 0.0
C58 C 0.3435 0.88535 0.59117 0.0
C59 C 0.32017 0.88976 0.58536 0.0
C60 C 0.30474 0.89805 0.60221 0.0
C61 C 0.31313 0.90195 0.62492 0.0
C62 C 0.40884 0.78623 0.61316 0.0
H63 H 0.41022 0.93367 0.71212 0.0
H64 H 0.39118 0.91084 0.68197 0.0
H65 H 0.45762 0.90478 0.64673 0.0
H66 H 0.47689 0.92814 0.67703 0.0
H67 H 0.38178 0.91542 0.64016 0.0
H68 H 0.43678 0.86344 0.6453 0.0
H69 H 0.3758 0.84944 0.60324 0.0
H70 H 0.38257 0.81081 0.62248 0.0
H71 H 0.45266 0.84184 0.61264 0.0
H72 H 0.46669 0.8015 0.60439 0.0
H73 H 0.3421 0.90009 0.64859 0.0
H74 H 0.35505 0.87907 0.57783 0.0
H75 H 0.39621 0.77107 0.61294 0.0
H76 H 0.30156 0.90796 0.6384 0.0
H77 H 0.31425 0.8869 0.56762 0.0
C78 C 0.75336 0.41008 0.87126 0.0
C79 C 0.7687 0.39396 0.88303 0.0
C80 C 0.73243 0.40125 0.8617 0.0
C81 C 0.72656 0.37599 0.86332 0.0
C82 C 0.74225 0.35988 0.8748 0.0
C83 C 0.76295 0.36879 0.88473 0.0
C84 C 0.70408 0.36657 0.85339 0.0
C85 C 0.69476 0.37764 0.83255 0.0
C86 C 0.67334 0.36919 0.82337 0.0
C87 C 0.66127 0.34931 0.83522 0.0
C88 C 0.67051 0.33765 0.85564 0.0
C89 C 0.69177 0.34646 0.86471 0.0
C90 C 0.65821 0.31579 0.86707 0.0
C91 C 0.63413 0.31609 0.87215 0.0
C92 C 0.67035 0.29416 0.87214 0.0
C93 C 0.65854 0.27306 0.88164 0.0
C94 C 0.63444 0.27331 0.88661 0.0
C95 C 0.66363 0.38085 0.80126 0.0
C96 C 0.66496 0.40644 0.79674 0.0
C97 C 0.65261 0.36642 0.78462 0.0
C98 C 0.64274 0.3773 0.76425 0.0
C99 C 0.64381 0.40286 0.7599 0.0
C100 C 0.65523 0.41732 0.77623 0.0
C101 C 0.62239 0.2951 0.88202 0.0
H102 H 0.75731 0.42962 0.86991 0.0
H103 H 0.72068 0.41432 0.85342 0.0
H104 H 0.7387 0.34029 0.87599 0.0
H105 H 0.77465 0.35596 0.89349 0.0
H106 H 0.70448 0.39246 0.82308 0.0
H107 H 0.69839 0.33784 0.88093 0.0
H108 H 0.64471 0.34263 0.82842 0.0
H109 H 0.6244 0.33258 0.86848 0.0
H110 H 0.68888 0.29342 0.86823 0.0
H111 H 0.66826 0.25655 0.88519 0.0
H112 H 0.67308 0.41813 0.80928 0.0
H113 H 0.65171 0.34664 0.78723 0.0
H114 H 0.60379 0.29573 0.88563 0.0
H115 H 0.65615 0.43708 0.77342 0.0
H116 H 0.63443 0.36565 0.75178 0.0
C117 C 0.9275 0.57967 0.33265 0.0
C118 C 0.95119 0.57883 0.32614 0.0
C119 C 0.92112 0.58831 0.3542 0.0
C120 C 0.93825 0.59606 0.37007 0.0
C121 C 0.96202 0.59491 0.36379 0.0
C122 C 0.96843 0.58633 0.34204 0.0
C123 C 0.93098 0.60595 0.39267 0.0
C124 C 0.91138 0.59557 0.40493 0.0
C125 C 0.90197 0.60667 0.42426 0.0
C126 C 0.91346 0.62754 0.43244 0.0
C127 C 0.93341 0.63811 0.42071 0.0
C128 C 0.94202 0.62712 0.40081 0.0
C129 C 0.94399 0.66173 0.42797 0.0
C130 C 0.92963 0.6801 0.43574 0.0
C131 C 0.96834 0.66652 0.42644 0.0
C132 C 0.97799 0.68918 0.43225 0.0
C133 C 0.96354 0.70738 0.44004 0.0
C134 C 0.87866 0.59824 0.43389 0.0
C135 C 0.86057 0.5922 0.41834 0.0
C136 C 0.87377 0.59758 0.45818 0.0
C137 C 0.85112 0.59151 0.46662 0.0
C138 C 0.83295 0.5862 0.45089 0.0
C139 C 0.83806 0.58619 0.42673 0.0
C140 C 0.93931 0.70255 0.44185 0.0
H141 H 0.91375 0.57366 0.32104 0.0
H142 H 0.90263 0.58933 0.35819 0.0
H143 H 0.97565 0.60062 0.37567 0.0
H144 H 0.98684 0.58605 0.33749 0.0
H145 H 0.9029 0.57909 0.39895 0.0
H146 H 0.95648 0.63584 0.39082 0.0
H147 H 0.90627 0.63613 0.44739 0.0
H148 H 0.91077 0.67746 0.43655 0.0
H149 H 0.97997 0.65275 0.42078 0.0
H150 H 0.99676 0.69244 0.4308 0.0
H151 H 0.86356 0.59288 0.39949 0.0
H152 H 0.88736 0.602 0.47062 0.0
H153 H 0.92771 0.71643 0.44739 0.0
H154 H 0.82453 0.58185 0.4142 0.0
H155 H 0.84766 0.59174 0.48534 0.0
C156 C 0.87621 0.86637 0.762 0.0
C157 C 0.87568 0.89167 0.75619 0.0
C158 C 0.86564 0.85613 0.78273 0.0
C159 C 0.85458 0.87095 0.79861 0.0
C160 C 0.85391 0.89633 0.79261 0.0
C161 C 0.86415 0.9065 0.7716 0.0
C162 C 0.84426 0.85992 0.8214 0.0
C163 C 0.85463 0.83955 0.83318 0.0
C164 C 0.84513 0.8285 0.85423 0.0
C165 C 0.82511 0.83847 0.86395 0.0
C166 C 0.8144 0.85898 0.85278 0.0
C167 C 0.82411 0.86947 0.83148 0.0
C168 C 0.79297 0.86927 0.86331 0.0
C169 C 0.77505 0.85369 0.87332 0.0
C170 C 0.79031 0.89474 0.86368 0.0
C171 C 0.77046 0.90433 0.87396 0.0
C172 C 0.75257 0.88874 0.8841 0.0
C173 C 0.85619 0.80641 0.86583 0.0
C174 C 0.86381 0.78749 0.85227 0.0
C175 C 0.85953 0.80412 0.89037 0.0
C176 C 0.8705 0.78364 0.90099 0.0
C177 C 0.87832 0.76478 0.88739 0.0
C178 C 0.87462 0.76698 0.86287 0.0
C179 C 0.75517 0.86326 0.88349 0.0
H180 H 0.8846 0.85438 0.75031 0.0
H181 H 0.86604 0.83647 0.78615 0.0
H182 H 0.84592 0.90851 0.80436 0.0
H183 H 0.86356 0.9261 0.76768 0.0
H184 H 0.87056 0.83247 0.82625 0.0
H185 H 0.81551 0.88469 0.82243 0.0
H186 H 0.81782 0.83018 0.88024 0.0
H187 H 0.77622 0.83399 0.87303 0.0
H188 H 0.80384 0.90734 0.85643 0.0
H189 H 0.76941 0.92402 0.87434 0.0
H190 H 0.86118 0.7884 0.83338 0.0
H191 H 0.85413 0.81844 0.90134 0.0
H192 H 0.74166 0.85058 0.89063 0.0
H193 H 0.87985 0.7527 0.85178 0.0
H194 H 0.87327 0.78289 0.91984 0.0
C195 C 0.56499 0.07397 0.34693 0.0
C196 C 0.55882 0.0867 0.32568 0.0
C197 C 0.5748 0.08653 0.36539 0.0
C198 C 0.57835 0.11208 0.3631 0.0
C199 C 0.5713 0.12492 0.34231 0.0
C200 C 0.56177 0.11238 0.32378 0.0
C201 C 0.59082 0.12528 0.38154 0.0
C202 C 0.61218 0.11669 0.39048 0.0
C203 C 0.62545 0.13038 0.40609 0.0
C204 C 0.61674 0.15243 0.41332 0.0
C205 C 0.59545 0.16126 0.40457 0.0
C206 C 0.58257 0.14759 0.38868 0.0
C207 C 0.58766 0.18559 0.41087 0.0
C208 C 0.58902 0.19232 0.43427 0.0
C209 C 0.5802 0.20277 0.3933 0.0
C210 C 0.57482 0.22645 0.39892 0.0
C211 C 0.57674 0.23339 0.42225 0.0
C212 C 0.64922 0.12273 0.41333 0.0
C213 C 0.65363 0.09804 0.41949 0.0
C214 C 0.6679 0.14009 0.41327 0.0
C215 C 0.69053 0.1329 0.41898 0.0
C216 C 0.69502 0.10818 0.42482 0.0
C217 C 0.67631 0.09084 0.4252 0.0
C218 C 0.58356 0.21595 0.43991 0.0
H219 H 0.56264 0.05425 0.34916 0.0
H220 H 0.5799 0.07624 0.38136 0.0
H221 H 0.57416 0.14458 0.33992 0.0
H222 H 0.55777 0.12282 0.30757 0.0
H223 H 0.61913 0.10007 0.38416 0.0
H224 H 0.56615 0.15437 0.38176 0.0
H225 H 0.62696 0.16317 0.42524 0.0
H226 H 0.59444 0.17933 0.44821 0.0
H227 H 0.57931 0.19818 0.37505 0.0
H228 H 0.56984 0.23953 0.38487 0.0
H229 H 0.63955 0.0843 0.41993 0.0
H230 H 0.66518 0.15918 0.40815 0.0
H231 H 0.58473 0.22057 0.45813 0.0
H232 H 0.67919 0.07169 0.42993 0.0
H233 H 0.70463 0.14663 0.41815 0.0
C234 C 0.2567 0.62803 0.16055 0.0
C235 C 0.25429 0.6292 0.13589 0.0
C236 C 0.27721 0.63679 0.17099 0.0
C237 C 0.29592 0.64681 0.15704 0.0
C238 C 0.29359 0.64775 0.13238 0.0
C239 C 0.27303 0.63916 0.12195 0.0
C240 C 0.31768 0.65643 0.16813 0.0
C241 C 0.32696 0.64437 0.18846 0.0
C242 C 0.34744 0.65342 0.19902 0.0
C243 C 0.35868 0.6748 0.18903 0.0
C244 C 0.34976 0.68709 0.16873 0.0
C245 C 0.32925 0.67782 0.15844 0.0
C246 C 0.36187 0.70963 0.15826 0.0
C247 C 0.37002 0.72805 0.17264 0.0
C248 C 0.3655 0.7128 0.1338 0.0
C249 C 0.37711 0.73387 0.12395 0.0
C250 C 0.38524 0.75236 0.1383 0.0
C251 C 0.35717 0.64058 0.22047 0.0
C252 C 0.34241 0.63209 0.23924 0.0
C253 C 0.38139 0.63714 0.22251 0.0
C254 C 0.39069 0.6258 0.24295 0.0
C255 C 0.37601 0.61769 0.26194 0.0
C256 C 0.35173 0.62081 0.25976 0.0
C257 C 0.38151 0.74919 0.16278 0.0
H258 H 0.24279 0.62018 0.17187 0.0
H259 H 0.27824 0.63599 0.19003 0.0
H260 H 0.30773 0.65502 0.12104 0.0
H261 H 0.27175 0.64065 0.10293 0.0
H262 H 0.31859 0.62754 0.19578 0.0
H263 H 0.32198 0.68767 0.14317 0.0
H264 H 0.37447 0.68191 0.19707 0.0
H265 H 0.36721 0.72627 0.19152 0.0
H266 H 0.35971 0.69877 0.1223 0.0
H267 H 0.38004 0.73546 0.10509 0.0
H268 H 0.3237 0.63469 0.23829 0.0
H269 H 0.39317 0.64309 0.20819 0.0
H270 H 0.38717 0.76321 0.17433 0.0
H271 H 0.33995 0.61506 0.27412 0.0
H272 H 0.40941 0.62325 0.24381 0.0
C273 C 0.08279 0.28355 0.57973 0.0
C274 C 0.05838 0.28106 0.58306 0.0
C275 C 0.09539 0.30346 0.58813 0.0
C276 C 0.08394 0.32125 0.60025 0.0
C277 C 0.05952 0.31903 0.60331 0.0
C278 C 0.04687 0.29921 0.59473 0.0
C279 C 0.09759 0.34145 0.61054 0.0
C280 C 0.11543 0.35436 0.59747 0.0
C281 C 0.12906 0.37279 0.60754 0.0
C282 C 0.12468 0.3781 0.63099 0.0
C283 C 0.10702 0.36532 0.64435 0.0
C284 C 0.09343 0.34715 0.63391 0.0
C285 C 0.10319 0.37066 0.66935 0.0
C286 C 0.12239 0.37476 0.68421 0.0
C287 C 0.0804 0.37204 0.67847 0.0
C288 C 0.07691 0.37791 0.70178 0.0
C289 C 0.09613 0.38258 0.71643 0.0
C290 C 0.14856 0.38591 0.59415 0.0
C291 C 0.16366 0.37311 0.58006 0.0
C292 C 0.15312 0.41104 0.59655 0.0
C293 C 0.17294 0.4228 0.58615 0.0
C294 C 0.18853 0.40975 0.57291 0.0
C295 C 0.18341 0.38494 0.5695 0.0
C296 C 0.1189 0.3807 0.70745 0.0
H297 H 0.09235 0.26972 0.57123 0.0
H298 H 0.11424 0.3045 0.58581 0.0
H299 H 0.05021 0.33264 0.61236 0.0
H300 H 0.02806 0.29812 0.59727 0.0
H301 H 0.11851 0.35021 0.57935 0.0
H302 H 0.0802 0.33673 0.64429 0.0
H303 H 0.13529 0.39205 0.63902 0.0
H304 H 0.14017 0.3733 0.6779 0.0
H305 H 0.06525 0.3692 0.66742 0.0
H306 H 0.05916 0.37948 0.70813 0.0
H307 H 0.16083 0.3537 0.57803 0.0
H308 H 0.14157 0.42158 0.60683 0.0
H309 H 0.13405 0.38378 0.71844 0.0
H310 H 0.19526 0.37437 0.55958 0.0
H311 H 0.17629 0.44203 0.58878 0.0
Co312 Co 0.98701 1.00346 0.49018 0.0
C313 C 0.00872 0.95849 0.4848 0.0
Co314 Co 0.02183 0.99971 0.50648 0.0
C315 C 0.94408 0.02256 0.46946 0.0
C316 C 0.9434 0.98346 0.47463 0.0
N317 N 0.95726 1.00357 0.47711 0.0
N318 N 0.92273 0.01495 0.46217 0.0
C319 C 0.92231 0.99037 0.46536 0.0
H320 H 0.94985 0.04158 0.4696 0.0
H321 H 0.94793 0.9649 0.47998 0.0
C322 C 1.00039 0.04463 0.512 0.0
N323 N 0.05138 0.99943 0.51957 0.0
C324 C 0.06287 0.98051 0.53002 0.0
C325 C 0.06652 0.01881 0.51995 0.0
N326 N 0.08452 0.98743 0.53699 0.0
C327 C 0.08684 0.01152 0.53074 0.0
C328 C 0.02266 0.01943 0.45947 0.0
O329 O 0.98355 0.03574 0.50035 0.0
O330 O 0.01816 0.03177 0.51634 0.0
O331 O 0.0351 0.01301 0.47723 0.0
O332 O 1.00046 0.0168 0.46106 0.0
O333 O 0.0253 0.96744 0.49669 0.0
H334 H 0.06319 0.03701 0.51243 0.0
H335 H 0.05555 0.96204 0.53238 0.0
O336 O 0.99098 0.9713 0.4801 0.0
O337 O 0.97372 0.99017 0.51949 0.0
O338 O 1.00837 0.98654 0.5356 0.0
C339 C 0.98619 0.98404 0.53731 0.0
H340 H 0.90738 0.97831 0.46233 0.0
H341 H 0.10244 0.02286 0.53304 0.0
Co342 Co 0.50281 0.00629 0.99292 0.0
C343 C 0.49824 0.96904 0.02816 0.0
Co344 Co 0.5229 0.01341 0.02484 0.0
C345 C 0.49387 1.00052 0.94409 0.0
C346 C 0.46248 0.99524 0.96465 0.0
N347 N 0.48566 1.00035 0.96633 0.0
N348 N 0.47679 0.99576 0.92858 0.0
C349 C 0.45695 0.99251 0.94138 0.0
H350 H 0.51203 1.00435 0.9393 0.0
H351 H 0.45042 0.99351 0.9794 0.0
C352 C 0.52718 0.05071 0.98958 0.0
N353 N 0.54033 0.01964 0.05115 0.0
C354 C 0.5336 0.01773 0.07396 0.0
C355 C 0.56256 0.02866 0.05132 0.0
N356 N 0.55069 0.0255 0.0883 0.0
C357 C 0.56896 0.03236 0.07413 0.0
C358 C 0.5483 0.98926 0.99142 0.0
O359 O 0.51414 0.03645 0.97821 0.0
O360 O 0.53283 0.04442 0.01062 0.0
O361 O 0.54954 0.99847 0.01139 0.0
O362 O 0.529 0.99014 0.98034 0.0
O363 O 0.51267 0.98246 0.03898 0.0
H364 H 0.57325 0.0328 0.03577 0.0
H365 H 0.51621 0.01166 0.07982 0.0
O366 O 0.49157 0.97615 1.00761 0.0
O367 O 0.47666 0.02248 1.00579 0.0
O368 O 0.49626 0.02828 0.0381 0.0
C369 C 0.4774 0.0304 0.02636 0.0
H370 H 0.43982 0.98796 0.93448 0.0
H371 H 0.58565 0.03977 0.07984 0.0
Co372 Co 0.52411 0.51941 0.50507 0.0
C373 C 0.48607 0.52213 0.47431 0.0
Co374 Co 0.49153 0.50131 0.5193 0.0
C375 C 0.57329 0.53063 0.49501 0.0
C376 C 0.55052 0.55805 0.48058 0.0
N377 N 0.55047 0.53617 0.49286 0.0
N378 N 0.58758 0.54825 0.48454 0.0
C379 C 0.57321 0.56549 0.47544 0.0
H380 H 0.57924 0.51407 0.50422 0.0
H381 H 0.53504 0.56824 0.47614 0.0
C382 C 0.5297 0.49864 0.55 0.0
N383 N 0.46496 0.4848 0.53157 0.0
C384 C 0.44224 0.48941 0.52706 0.0
C385 C 0.46437 0.46506 0.54706 0.0
N386 N 0.42762 0.47348 0.53928 0.0
C387 C 0.44144 0.45819 0.55196 0.0
C388 C 0.52024 0.47106 0.49509 0.0
O389 O 0.54049 0.51073 0.53332 0.0
O390 O 0.50817 0.49289 0.54747 0.0
O391 O 0.50115 0.47224 0.50643 0.0
O392 O 0.53353 0.49008 0.49211 0.0
O393 O 0.47529 0.50991 0.49091 0.0
H394 H 0.47962 0.45603 0.55417 0.0
H395 H 0.43648 0.50426 0.5152 0.0
O396 O 0.50755 0.52802 0.47693 0.0
O397 O 0.51444 0.54846 0.51811 0.0
O398 O 0.48205 0.53056 0.53219 0.0
C399 C 0.49532 0.54958 0.52936 0.0
H400 H 0.57868 0.5827 0.46638 0.0
H401 H 0.43537 0.44281 0.5635 0.0
Co402 Co 0.02223 0.51092 0.99112 0.0
C403 C 0.97858 0.48842 0.98902 0.0
Co404 Co 1.00217 0.51299 0.02398 0.0
C405 C 0.04185 0.49025 0.95046 0.0
C406 C 0.05214 0.52798 0.95267 0.0
N407 N 0.03965 0.50951 0.96391 0.0
N408 N 0.05515 0.49595 0.93109 0.0
C409 C 0.06165 0.51974 0.93251 0.0
H410 H 0.03368 0.47246 0.95485 0.0
H411 H 0.05383 0.54638 0.95853 0.0
C412 C 0.04594 0.53549 0.02589 0.0
N413 N 0.98437 0.51468 0.051 0.0
C414 C 0.99139 0.51511 0.07365 0.0
C415 C 0.96096 0.51709 0.05174 0.0
N416 N 0.97326 0.5179 0.08846 0.0
C417 C 0.95409 0.519 0.07467 0.0
C418 C 0.02968 0.47188 0.02409 0.0
O419 O 0.04759 0.52779 1.00534 0.0
O420 O 0.0269 0.53165 0.03731 0.0
O421 O 0.0159 0.48355 0.03664 0.0
O422 O 0.03441 0.48027 1.00318 0.0
O423 O 0.97758 0.4942 0.01029 0.0
H424 H 0.94963 0.51788 0.0365 0.0
H425 H 0.00952 0.5142 0.07903 0.0
O426 O 0.99689 0.49417 0.97701 0.0
O427 O 0.00979 0.54147 0.97928 0.0
O428 O 0.98858 0.54256 0.01126 0.0
C429 C 0.99458 0.55207 0.99109 0.0
H430 H 0.07193 0.53075 0.91959 0.0
H431 H 0.93632 0.52118 0.08065 0.0
H432 H 0.1537 0.12048 0.29203 0.0
H433 H 0.13409 0.10255 0.32749 0.0
H434 H 0.07492 0.08068 0.28596 0.0
H435 H 0.09472 0.09758 0.2502 0.0
H436 H 0.06221 0.10369 0.3272 0.0
H437 H 0.11103 0.03855 0.305 0.0
H438 H 0.14829 0.02037 0.29436 0.0
H439 H 0.17764 0.03782 0.36097 0.0
H440 H 0.14065 0.05643 0.37188 0.0
H441 H 1.003 0.02741 0.41567 0.0
H442 H 0.02214 0.04422 0.37941 0.0
H443 H 0.08713 0.0528 0.41705 0.0
H444 H 0.06831 0.03518 0.45306 0.0
H445 H 0.09682 0.03663 0.37713 0.0
H446 H 0.05023 0.10235 0.39992 0.0
H447 H 0.01431 0.1225 0.41151 0.0
H448 H 0.98238 0.10691 0.34557 0.0
H449 H 0.01803 0.08636 0.33371 0.0
C450 C 0.1367 0.11152 0.29023 0.0
C451 C 0.12597 0.11055 0.26796 0.0
C452 C 0.12541 0.1014 0.31066 0.0
C453 C 0.10302 0.09019 0.30945 0.0
C454 C 0.09213 0.08934 0.28739 0.0
C455 C 0.1035 0.09919 0.26691 0.0
C456 C 0.091 0.07933 0.33117 0.0
C457 C 0.0696 0.08879 0.33796 0.0
C458 C 0.10094 0.06039 0.34564 0.0
C459 C 0.12315 0.0491 0.33915 0.0
C460 C 0.12549 0.0387 0.3173 0.0
C461 C 0.14655 0.02828 0.31124 0.0
C462 C 0.16534 0.028 0.32695 0.0
C463 C 0.16308 0.03808 0.3488 0.0
C464 C 0.14207 0.04854 0.35494 0.0
C465 C 0.02136 0.03291 0.41623 0.0
C466 C 0.03406 0.02996 0.43735 0.0
C467 C 0.03231 0.04268 0.39546 0.0
C468 C 0.05611 0.05023 0.39538 0.0
C469 C 0.0688 0.04717 0.41648 0.0
C470 C 0.05796 0.03712 0.43715 0.0
C471 C 0.06792 0.061 0.37336 0.0
C472 C 0.08932 0.05152 0.36645 0.0
C473 C 0.05815 0.08021 0.35899 0.0
C474 C 0.03671 0.09259 0.36603 0.0
C475 C 0.03548 0.10306 0.38797 0.0
C476 C 0.01518 0.11458 0.39457 0.0
C477 C 0.99605 0.11592 0.37931 0.0
C478 C 0.99721 0.10581 0.35738 0.0
C479 C 0.01746 0.09425 0.3507 0.0
H480 H 0.98035 0.12485 0.38446 0.0
H481 H 0.18163 0.01992 0.32223 0.0
H482 H 0.48693 0.92296 0.71842 0.0
H483 H 0.50197 0.93933 0.75465 0.0
H484 H 0.44339 0.98721 0.75623 0.0
H485 H 0.42907 0.97205 0.71935 0.0
H486 H 0.4802 0.00881 0.77448 0.0
H487 H 0.44159 0.92871 0.78398 0.0
H488 H 0.43583 0.88493 0.77679 0.0
H489 H 0.50499 0.87064 0.80269 0.0
H490 H 0.51126 0.91443 0.80974 0.0
H491 H 0.44601 0.00916 0.89459 0.0
H492 H 0.44977 1.00366 0.85231 0.0
H493 H 0.51717 0.97167 0.86414 0.0
H494 H 0.51354 0.9773 0.90642 0.0
H495 H 0.48443 0.94329 0.83857 0.0
H496 H 0.51786 0.02425 0.83699 0.0
H497 H 0.51985 0.06777 0.84601 0.0
H498 H 0.45666 0.08048 0.80693 0.0
H499 H 0.45402 0.03693 0.79803 0.0
C500 C 0.47767 0.93755 0.72604 0.0
C501 C 0.4565 0.94581 0.71628 0.0
C502 C 0.48619 0.94675 0.74687 0.0
C503 C 0.47345 0.964 0.75849 0.0
C504 C 0.45341 0.97373 0.74772 0.0
C505 C 0.44508 0.96481 0.72677 0.0
C506 C 0.47916 0.96985 0.78298 0.0
C507 C 0.48117 0.9945 0.7885 0.0
C508 C 0.48076 0.95116 0.80126 0.0
C509 C 0.477 0.92485 0.79709 0.0
C510 C 0.45562 0.91624 0.78798 0.0
C511 C 0.45226 0.89144 0.78395 0.0
C512 C 0.47007 0.87503 0.78921 0.0
C513 C 0.49125 0.88338 0.79857 0.0
C514 C 0.49471 0.90819 0.80258 0.0
C515 C 0.46165 1.00109 0.8881 0.0
C516 C 0.47945 0.9936 0.90369 0.0
C517 C 0.46388 0.99816 0.86401 0.0
C518 C 0.48384 0.98746 0.85518 0.0
C519 C 0.50175 0.98014 0.87066 0.0
C520 C 0.49968 0.98342 0.89472 0.0
C521 C 0.48498 0.98218 0.83007 0.0
C522 C 0.48412 0.9576 0.82448 0.0
C523 C 0.48402 1.00093 0.81188 0.0
C524 C 0.48567 0.02724 0.81696 0.0
C525 C 0.50428 0.03627 0.83046 0.0
C526 C 0.50554 0.06096 0.83554 0.0
C527 C 0.48838 0.07687 0.82707 0.0
C528 C 0.46994 0.06813 0.81348 0.0
C529 C 0.46857 0.04344 0.80839 0.0
H530 H 0.48939 0.09597 0.831 0.0
H531 H 0.46743 0.85583 0.78609 0.0
H532 H 0.60053 0.39237 0.74228 0.0
H533 H 0.58259 0.41016 0.70649 0.0
H534 H 0.64407 0.45682 0.6932 0.0
H535 H 0.66199 0.43928 0.72934 0.0
H536 H 0.60577 0.48182 0.68408 0.0
H537 H 0.63402 0.40498 0.66271 0.0
H538 H 0.63937 0.36035 0.66635 0.0
H539 H 0.5652 0.3477 0.65937 0.0
H540 H 0.55936 0.39227 0.65603 0.0
H541 H 0.57449 0.51095 0.56321 0.0
H542 H 0.59506 0.49628 0.59891 0.0
H543 H 0.53366 0.45327 0.62158 0.0
H544 H 0.51297 0.46784 0.58614 0.0
H545 H 0.57437 0.42702 0.62454 0.0
H546 H 0.54668 0.50463 0.64717 0.0
H547 H 0.54217 0.54935 0.64284 0.0
H548 H 0.61682 0.56051 0.64617 0.0
H549 H 0.62179 0.5158 0.65018 0.0
C550 C 0.61027 0.40634 0.73168 0.0
C551 C 0.63276 0.41427 0.73848 0.0
C552 C 0.60001 0.4165 0.71121 0.0
C553 C 0.61216 0.43451 0.69689 0.0
C554 C 0.6344 0.44289 0.70393 0.0
C555 C 0.64461 0.43288 0.72457 0.0
C556 C 0.60159 0.44442 0.67455 0.0
C557 C 0.59924 0.46985 0.67089 0.0
C558 C 0.5928 0.42882 0.65743 0.0
C559 C 0.59624 0.40198 0.65932 0.0
C560 C 0.61883 0.39268 0.66212 0.0
C561 C 0.62195 0.3674 0.66411 0.0
C562 C 0.60263 0.3512 0.66314 0.0
C563 C 0.58015 0.36027 0.66014 0.0
C564 C 0.57692 0.38554 0.65817 0.0
C565 C 0.56533 0.49847 0.57586 0.0
C566 C 0.54208 0.49059 0.57185 0.0
C567 C 0.57709 0.49016 0.59626 0.0
C568 C 0.56584 0.47376 0.6129 0.0
C569 C 0.54266 0.4659 0.60894 0.0
C570 C 0.53084 0.47433 0.5887 0.0
C571 C 0.57827 0.46431 0.63429 0.0
C572 C 0.58102 0.43895 0.6377 0.0
C573 C 0.58759 0.47999 0.65103 0.0
C574 C 0.58462 0.50686 0.64871 0.0
C575 C 0.56214 0.51661 0.64677 0.0
C576 C 0.5595 0.54196 0.64441 0.0
C577 C 0.5792 0.55776 0.64416 0.0
C578 C 0.60158 0.54825 0.64633 0.0
C579 C 0.60432 0.5229 0.64866 0.0
H580 H 0.57712 0.57739 0.64234 0.0
H581 H 0.60508 0.33163 0.66468 0.0
H582 H 0.98726 0.54944 0.3146 0.0
H583 H 0.9958 0.53432 0.27581 0.0
H584 H 0.93773 0.57409 0.24607 0.0
H585 H 0.9295 0.58972 0.28429 0.0
H586 H 0.93743 0.52481 0.2354 0.0
H587 H 0.99183 0.59526 0.23622 0.0
H588 H 0.02503 0.61881 0.2522 0.0
H589 H 0.0701 0.55857 0.24357 0.0
H590 H 0.03704 0.53453 0.22783 0.0
H591 H 0.9429 0.54235 0.11418 0.0
H592 H 0.94368 0.54682 0.15641 0.0
H593 H 1.00659 0.50523 0.16222 0.0
H594 H 1.00582 0.50043 0.11957 0.0
H595 H 0.00905 0.54622 0.18807 0.0
H596 H 0.95679 0.47822 0.1814 0.0
H597 H 0.92408 0.45411 0.16528 0.0
H598 H 0.87558 0.50749 0.18561 0.0
H599 H 0.90804 0.53213 0.20154 0.0
C600 C 0.97654 0.55522 0.29971 0.0
C601 C 0.95753 0.57057 0.3026 0.0
C602 C 0.98138 0.54648 0.27762 0.0
C603 C 0.96727 0.55297 0.25817 0.0
C604 C 0.94865 0.56865 0.26094 0.0
C605 C 0.94392 0.57748 0.28284 0.0
C606 C 0.97127 0.54327 0.23482 0.0
C607 C 0.95306 0.5295 0.22501 0.0
C608 C 0.99209 0.54852 0.22173 0.0
C609 C 0.01191 0.56299 0.23116 0.0
C610 C 0.00876 0.58695 0.23795 0.0
C611 C 0.02756 0.60041 0.24692 0.0
C612 C 0.04964 0.59016 0.24898 0.0
C613 C 0.05297 0.56646 0.24202 0.0
C614 C 0.03422 0.55292 0.23307 0.0
C615 C 0.95676 0.53383 0.12437 0.0
C616 C 0.97413 0.52075 0.11348 0.0
C617 C 0.95722 0.53648 0.14856 0.0
C618 C 0.97496 0.52599 0.16251 0.0
C619 C 0.99268 0.51336 0.15175 0.0
C620 C 0.99224 0.51069 0.1274 0.0
C621 C 0.97473 0.5287 0.18828 0.0
C622 C 0.99363 0.54103 0.1986 0.0
C623 C 0.95459 0.52192 0.20199 0.0
C624 C 0.93491 0.50709 0.19258 0.0
C625 C 0.93918 0.48491 0.1823 0.0
C626 C 0.92067 0.47113 0.17321 0.0
C627 C 0.89777 0.47928 0.17439 0.0
C628 C 0.89333 0.5012 0.18471 0.0
C629 C 0.91178 0.51506 0.19381 0.0
H630 H 0.88346 0.46859 0.16734 0.0
H631 H 0.06417 0.60061 0.25592 0.0
H632 H 0.31297 0.12894 0.14494 0.0
H633 H 0.34816 0.11183 0.12894 0.0
H634 H 0.30914 0.09035 0.06834 0.0
H635 H 0.27357 0.10624 0.08481 0.0
H636 H 0.33683 0.05515 0.08155 0.0
H637 H 0.34817 0.14203 0.0671 0.0
H638 H 0.35082 0.18515 0.07739 0.0
H639 H 0.40753 0.16856 0.12465 0.0
H640 H 0.40502 0.12525 0.11486 0.0
H641 H 0.43367 0.03509 1.00697 0.0
H642 H 0.39884 0.05172 0.02443 0.0
H643 H 0.4382 0.06663 0.08684 0.0
H644 H 0.47321 0.05015 0.06942 0.0
H645 H 0.41085 0.10482 0.0734 0.0
H646 H 0.39986 0.01774 0.08652 0.0
H647 H 0.39732 0.975 0.07506 0.0
H648 H 0.33983 0.99244 0.02911 0.0
H649 H 0.34224 0.0354 0.03999 0.0
C650 C 0.3117 0.12034 0.12833 0.0
C651 C 0.2902 0.11916 0.11623 0.0
C652 C 0.33203 0.11079 0.11901 0.0
C653 C 0.33159 0.10007 0.09714 0.0
C654 C 0.31012 0.0986 0.08515 0.0
C655 C 0.28975 0.10799 0.09453 0.0
C656 C 0.35337 0.09029 0.08682 0.0
C657 C 0.35289 0.06618 0.07951 0.0
C658 C 0.37466 0.10432 0.08454 0.0
C659 C 0.37624 0.13035 0.09042 0.0
C660 C 0.36109 0.14754 0.07982 0.0
C661 C 0.36258 0.17202 0.08554 0.0
C662 C 0.37929 0.17958 0.10171 0.0
C663 C 0.39458 0.16267 0.11215 0.0
C664 C 0.39314 0.13816 0.10651 0.0
C665 C 0.43499 0.04196 0.02439 0.0
C666 C 0.45634 0.04122 0.03675 0.0
C667 C 0.41497 0.05138 0.03443 0.0
C668 C 0.41571 0.06023 0.05712 0.0
C669 C 0.4371 0.05991 0.06934 0.0
C670 C 0.45713 0.05042 0.05935 0.0
C671 C 0.39421 0.06979 0.06805 0.0
C672 C 0.39476 0.09382 0.07549 0.0
C673 C 0.37296 0.05574 0.07033 0.0
C674 C 0.37137 0.02986 0.06391 0.0
C675 C 0.38678 0.01252 0.07384 0.0
C676 C 0.38536 0.98824 0.06747 0.0
C677 C 0.36847 0.98103 0.05134 0.0
C678 C 0.35292 0.99806 0.04159 0.0
C679 C 0.3543 0.02237 0.04786 0.0
H680 H 0.3674 0.96223 0.04644 0.0
H681 H 0.38042 0.19854 0.10612 0.0
H682 H 0.27448 0.86963 0.57745 0.0
H683 H 0.23333 0.87724 0.56822 0.0
H684 H 0.238 0.94418 0.6045 0.0
H685 H 0.27899 0.93675 0.6137 0.0
H686 H 0.19825 0.91813 0.61604 0.0
H687 H 0.24111 0.94461 0.54465 0.0
H688 H 0.26739 0.93891 0.51109 0.0
H689 H 0.22129 0.8818 0.48795 0.0
H690 H 0.19488 0.88696 0.52158 0.0
H691 H 0.11718 1.00042 0.5683 0.0
H692 H 0.15051 0.9766 0.58196 0.0
H693 H 0.12588 0.91623 0.54232 0.0
H694 H 0.09247 0.94027 0.52835 0.0
H695 H 0.17181 0.92929 0.53312 0.0
H696 H 0.12509 0.90918 0.60091 0.0
H697 H 0.09871 0.91651 0.63393 0.0
H698 H 0.15164 0.96255 0.66373 0.0
H699 H 0.17824 0.95582 0.63071 0.0
C700 C 0.26674 0.88605 0.58329 0.0
C701 C 0.27994 0.90262 0.59627 0.0
C702 C 0.24324 0.8903 0.5781 0.0
C703 C 0.23267 0.91129 0.58565 0.0
C704 C 0.24579 0.92776 0.59869 0.0
C705 C 0.2692 0.9235 0.60392 0.0
C706 C 0.20809 0.91667 0.57959 0.0
C707 C 0.19243 0.92063 0.59792 0.0
C708 C 0.20033 0.91904 0.55597 0.0
C709 C 0.2162 0.91594 0.53578 0.0
C710 C 0.23669 0.93069 0.53251 0.0
C711 C 0.25158 0.92759 0.51346 0.0
C712 C 0.24606 0.90994 0.49744 0.0
C713 C 0.22558 0.89541 0.50041 0.0
C714 C 0.21065 0.89842 0.51945 0.0
C715 C 0.11875 0.98198 0.56271 0.0
C716 C 0.10238 0.97222 0.54719 0.0
C717 C 0.13765 0.9683 0.57068 0.0
C718 C 0.14054 0.94459 0.56328 0.0
C719 C 0.12384 0.93446 0.54832 0.0
C720 C 0.10475 0.94812 0.54048 0.0
C721 C 0.16221 0.93162 0.56955 0.0
C722 C 0.17736 0.9262 0.55127 0.0
C723 C 0.16953 0.92802 0.59322 0.0
C724 C 0.15364 0.93207 0.61323 0.0
C725 C 0.13106 0.92101 0.61441 0.0
C726 C 0.11608 0.92504 0.63315 0.0
C727 C 0.12349 0.94001 0.6509 0.0
C728 C 0.14593 0.95095 0.64997 0.0
C729 C 0.16098 0.947 0.63126 0.0
H730 H 0.11185 0.94311 0.66539 0.0
H731 H 0.2576 0.90757 0.4827 0.0
H732 H 0.80255 0.42429 0.86217 0.0
H733 H 0.83891 0.43954 0.87996 0.0
H734 H 0.82008 0.40056 0.94583 0.0
H735 H 0.78395 0.38489 0.92801 0.0
H736 H 0.8356 0.45297 0.94765 0.0
H737 H 0.85804 0.37614 0.91705 0.0
H738 H 0.86203 0.3473 0.88574 0.0
H739 H 0.90474 0.4005 0.84525 0.0
H740 H 0.90067 0.42982 0.87616 0.0
H741 H 0.94036 0.46597 0.01095 0.0
H742 H 0.90538 0.44895 0.99255 0.0
H743 H 0.93495 0.46828 0.92375 0.0
H744 H 0.97039 0.48438 0.94208 0.0
H745 H 0.91358 0.4264 0.92242 0.0
H746 H 0.89247 0.50333 0.94932 0.0
H747 H 0.88853 0.53529 0.97766 0.0
H748 H 0.84337 0.48708 0.02101 0.0
H749 H 0.8473 0.45468 0.99307 0.0
C750 C 0.8062 0.41904 0.88045 0.0
C751 C 0.79054 0.40338 0.89374 0.0
C752 C 0.82694 0.42768 0.89054 0.0
C753 C 0.83213 0.4211 0.91416 0.0
C754 C 0.81634 0.4058 0.92757 0.0
C755 C 0.79583 0.39679 0.91736 0.0
C756 C 0.85409 0.43013 0.92489 0.0
C757 C 0.85267 0.44696 0.9424 0.0
C758 C 0.8763 0.42294 0.91732 0.0
C759 C 0.87882 0.40527 0.89879 0.0
C760 C 0.86808 0.38178 0.90136 0.0
C761 C 0.8704 0.36533 0.88371 0.0
C762 C 0.88357 0.37209 0.86348 0.0
C763 C 0.8945 0.3953 0.8609 0.0
C764 C 0.8922 0.41184 0.87849 0.0
C765 C 0.93948 0.4664 0.99191 0.0
C766 C 0.95809 0.47662 0.97797 0.0
C767 C 0.9194 0.45682 0.98138 0.0
C768 C 0.91725 0.4578 0.95672 0.0
C769 C 0.93612 0.46737 0.94279 0.0
C770 C 0.95637 0.47659 0.95331 0.0
C771 C 0.89523 0.44918 0.94549 0.0
C772 C 0.89658 0.43248 0.92778 0.0
C773 C 0.87295 0.457 0.95245 0.0
C774 C 0.87036 0.47649 0.96921 0.0
C775 C 0.88182 0.49948 0.96498 0.0
C776 C 0.87958 0.51769 0.98096 0.0
C777 C 0.86576 0.5132 1.00116 0.0
C778 C 0.85409 0.49052 1.00537 0.0
C779 C 0.8563 0.47223 0.98946 0.0
H780 H 0.86404 0.52731 0.01352 0.0
H781 H 0.88535 0.35932 0.84984 0.0
H782 H 0.79352 0.60505 0.43121 0.0
H783 H 0.75302 0.59676 0.44337 0.0
H784 H 0.77609 0.5496 0.50186 0.0
H785 H 0.81701 0.55741 0.48932 0.0
H786 H 0.73939 0.52885 0.47832 0.0
H787 H 0.75549 0.60437 0.51261 0.0
H788 H 0.77027 0.64701 0.5145 0.0
H789 H 0.72171 0.67052 0.46078 0.0
H790 H 0.70686 0.62796 0.45829 0.0
H791 H 0.61743 0.52566 0.51562 0.0
H792 H 0.66028 0.52995 0.51567 0.0
H793 H 0.65782 0.57809 0.4528 0.0
H794 H 0.61529 0.57355 0.45232 0.0
H795 H 0.68536 0.59696 0.48755 0.0
H796 H 0.67394 0.52023 0.44977 0.0
H797 H 0.65937 0.4775 0.44789 0.0
H798 H 0.69926 0.45645 0.50941 0.0
H799 H 0.71382 0.49917 0.51183 0.0
C800 C 0.79003 0.59281 0.44661 0.0
C801 C 0.80845 0.58176 0.45923 0.0
C802 C 0.76686 0.58828 0.45369 0.0
C803 C 0.76154 0.57278 0.47368 0.0
C804 C 0.77985 0.56171 0.48643 0.0
C805 C 0.80317 0.5663 0.47935 0.0
C806 C 0.7367 0.56785 0.48052 0.0
C807 C 0.72764 0.54367 0.48091 0.0
C808 C 0.72136 0.58721 0.4837 0.0
C809 C 0.73014 0.61291 0.48519 0.0
C810 C 0.74806 0.6186 0.50108 0.0
C811 C 0.75644 0.64276 0.50227 0.0
C812 C 0.74696 0.66145 0.48775 0.0
C813 C 0.72904 0.65602 0.47202 0.0
C814 C 0.72061 0.63188 0.47074 0.0
C815 C 0.62602 0.53687 0.50162 0.0
C816 C 0.61285 0.54942 0.48405 0.0
C817 C 0.6505 0.53938 0.50174 0.0
C818 C 0.66218 0.55444 0.4843 0.0
C819 C 0.64912 0.56659 0.46657 0.0
C820 C 0.62477 0.56402 0.46637 0.0
C821 C 0.68799 0.55813 0.48444 0.0
C822 C 0.6972 0.5821 0.48545 0.0
C823 C 0.70342 0.53858 0.48266 0.0
C824 C 0.69472 0.51293 0.48115 0.0
C825 C 0.67943 0.50653 0.46302 0.0
C826 C 0.67121 0.48231 0.46183 0.0
C827 C 0.67832 0.46428 0.47857 0.0
C828 C 0.69373 0.47044 0.49649 0.0
C829 C 0.70197 0.49465 0.49777 0.0
H830 H 0.67195 0.44554 0.47761 0.0
H831 H 0.75347 0.68015 0.4887 0.0
H832 H 0.1168 0.25973 0.0808 0.0
H833 H 0.09783 0.29661 0.06422 0.0
H834 H 0.12393 0.33703 0.12187 0.0
H835 H 0.1434 0.30034 0.13823 0.0
H836 H 0.07256 0.34089 0.10996 0.0
H837 H 0.15024 0.34913 0.07508 0.0
H838 H 0.18346 0.33458 0.05257 0.0
H839 H 0.1389 0.32639 0.99264 0.0
H840 H 0.10531 0.34056 0.01494 0.0
H841 H 0.04133 0.4604 0.06987 0.0
H842 H 0.06089 0.42406 0.08609 0.0
H843 H 0.06133 0.39514 0.01714 0.0
H844 H 0.04338 0.43248 1.00063 0.0
H845 H 0.09916 0.38419 0.035 0.0
H846 H 0.02174 0.37428 0.06665 0.0
H847 H 0.98617 0.38575 0.08748 0.0
H848 H 0.02584 0.3928 0.15091 0.0
H849 H 0.06172 0.38167 0.13038 0.0
C850 C 0.11851 0.27649 0.08991 0.0
C851 C 0.13165 0.27715 0.11079 0.0
C852 C 0.10771 0.29755 0.0804 0.0
C853 C 0.10945 0.31959 0.09181 0.0
C854 C 0.12234 0.32024 0.11278 0.0
C855 C 0.13357 0.29932 0.12203 0.0
C856 C 0.09781 0.34193 0.08183 0.0
C857 C 0.07849 0.3506 0.09372 0.0
C858 C 0.10501 0.35401 0.0602 0.0
C859 C 0.12522 0.34565 0.04676 0.0
C860 C 0.14748 0.34401 0.05718 0.0
C861 C 0.16638 0.33588 0.04444 0.0
C862 C 0.16328 0.3295 0.02121 0.0
C863 C 0.14127 0.3313 0.01065 0.0
C864 C 0.1223 0.3394 0.02332 0.0
C865 C 0.04554 0.44623 0.05821 0.0
C866 C 0.04067 0.44923 0.034 0.0
C867 C 0.05659 0.42527 0.06753 0.0
C868 C 0.0622 0.40625 0.05309 0.0
C869 C 0.05727 0.40933 0.02883 0.0
C870 C 0.04688 0.43067 0.01937 0.0
C871 C 0.07363 0.38351 0.06309 0.0
C872 C 0.09298 0.37464 0.05121 0.0
C873 C 0.06602 0.37082 0.08445 0.0
C874 C 0.04445 0.37736 0.09691 0.0
C875 C 0.0229 0.37842 0.085 0.0
C876 C 1.00269 0.38484 0.09676 0.0
C877 C 1.00376 0.39006 0.12049 0.0
C878 C 0.02504 0.38879 0.13253 0.0
C879 C 0.04532 0.38239 0.12085 0.0
H880 H 0.98809 0.39505 0.12955 0.0
H881 H 0.17794 0.32321 0.01138 0.0
H882 H 0.60525 0.26841 0.92478 0.0
H883 H 0.58539 0.23082 0.94142 0.0
H884 H 0.61521 0.19009 0.88677 0.0
H885 H 0.63534 0.22755 0.87024 0.0
H886 H 0.56499 0.18057 0.89645 0.0
H887 H 0.64012 0.18441 0.9357 0.0
H888 H 0.67103 0.20448 0.95859 0.0
H889 H 0.62243 0.21166 0.01527 0.0
H890 H 0.59112 0.19195 0.99255 0.0
H891 H 0.54081 0.0597 0.94398 0.0
H892 H 0.55806 0.0977 0.92577 0.0
H893 H 0.54981 0.13264 0.99125 0.0
H894 H 0.53437 0.09397 0.00992 0.0
H895 H 0.58865 0.14619 0.97532 0.0
H896 H 0.51327 0.14278 0.9381 0.0
H897 H 0.48102 0.12395 0.91601 0.0
H898 H 0.52681 0.11798 0.85681 0.0
H899 H 0.55942 0.13656 0.87864 0.0
C900 C 0.60743 0.25145 0.91627 0.0
C901 C 0.6219 0.25081 0.89632 0.0
C902 C 0.59614 0.23004 0.92578 0.0
C903 C 0.5989 0.20774 0.91531 0.0
C904 C 0.61286 0.20716 0.89505 0.0
C905 C 0.62446 0.22848 0.88576 0.0
C906 C 0.58789 0.18484 0.926 0.0
C907 C 0.57021 0.17285 0.91361 0.0
C908 C 0.59438 0.17525 0.9486 0.0
C909 C 0.61323 0.18695 0.96232 0.0
C910 C 0.63597 0.19047 0.95296 0.0
C911 C 0.65357 0.20174 0.96591 0.0
C912 C 0.64868 0.2094 0.98834 0.0
C913 C 0.62619 0.20575 0.99788 0.0
C914 C 0.60851 0.19452 0.98498 0.0
C915 C 0.54261 0.07559 0.95438 0.0
C916 C 0.53623 0.07404 0.97828 0.0
C917 C 0.55229 0.09739 0.94393 0.0
C918 C 0.55481 0.11839 0.9569 0.0
C919 C 0.54811 0.11681 0.98078 0.0
C920 C 0.5392 0.09476 0.99144 0.0
C921 C 0.56529 0.1417 0.94597 0.0
C922 C 0.58307 0.15383 0.95826 0.0
C923 C 0.55853 0.15163 0.92343 0.0
C924 C 0.53883 0.14088 0.91009 0.0
C925 C 0.51649 0.13736 0.92041 0.0
C926 C 0.49814 0.12674 0.90792 0.0
C927 C 0.50188 0.11972 0.88504 0.0
C928 C 0.52395 0.12341 0.87454 0.0
C929 C 0.54236 0.13403 0.88695 0.0
H930 H 0.48767 0.11145 0.87543 0.0
H931 H 0.66233 0.21812 0.99835 0.0
H932 H 0.95524 0.73244 0.47898 0.0
H933 H 0.96773 0.7745 0.48602 0.0
H934 H 1.00582 0.77966 0.42021 0.0
H935 H 0.9938 0.73728 0.4134 0.0
H936 H 0.02925 0.80416 0.45225 0.0
H937 H 0.95068 0.80135 0.42334 0.0
H938 H 0.90932 0.78714 0.42235 0.0
H939 H 0.89839 0.8124 0.49141 0.0
H940 H 0.93981 0.82644 0.49295 0.0
H941 H 0.98313 0.93884 0.45004 0.0
H942 H 0.98042 0.89607 0.44031 0.0
H943 H 0.03126 0.87759 0.49413 0.0
H944 H 0.03473 0.92072 0.50327 0.0
H945 H 0.96421 0.8598 0.46569 0.0
H946 H 0.05804 0.82473 0.4826 0.0
H947 H 0.09903 0.84009 0.47872 0.0
H948 H 0.07893 0.89343 0.42452 0.0
H949 H 0.0379 0.87819 0.42785 0.0
C950 C 0.96649 0.74248 0.46616 0.0
C951 C 0.97335 0.73174 0.44553 0.0
C952 C 0.97361 0.76649 0.47018 0.0
C953 C 0.98732 0.78041 0.4534 0.0
C954 C 0.99521 0.76929 0.43336 0.0
C955 C 0.98833 0.74511 0.42948 0.0
C956 C 0.99191 0.80697 0.456 0.0
C957 C 0.01507 0.81637 0.45522 0.0
C958 C 0.97336 0.82302 0.45926 0.0
C959 C 0.9484 0.81474 0.45834 0.0
C960 C 0.9395 0.80372 0.43838 0.0
C961 C 0.91604 0.79572 0.43771 0.0
C962 C 0.90125 0.79881 0.45683 0.0
C963 C 0.90988 0.80998 0.47663 0.0
C964 C 0.93334 0.81798 0.4774 0.0
C965 C 0.99402 0.92573 0.45955 0.0
C966 C 0.0091 0.93308 0.47746 0.0
C967 C 0.99241 0.90126 0.45402 0.0
C968 C 1.00561 0.88352 0.46646 0.0
C969 C 0.02117 0.89094 0.48399 0.0
C970 C 0.02308 0.91558 0.48927 0.0
C971 C 1.00165 0.85717 0.46219 0.0
C972 C 0.9785 0.84772 0.46272 0.0
C973 C 0.02018 0.84134 0.458 0.0
C974 C 0.04486 0.85047 0.45566 0.0
C975 C 0.06239 0.83968 0.4698 0.0
C976 C 0.08562 0.84837 0.4677 0.0
C977 C 0.09156 0.86778 0.45144 0.0
C978 C 0.07429 0.87847 0.43717 0.0
C979 C 0.05104 0.86983 0.43918 0.0
H980 H 0.10956 0.87449 0.44986 0.0
H981 H 0.88309 0.79261 0.45628 0.0
H982 H 0.41888 0.73801 0.62794 0.0
H983 H 0.42963 0.69792 0.61571 0.0
H984 H 0.47604 0.73258 0.56283 0.0
H985 H 0.46434 0.77282 0.57407 0.0
H986 H 0.45073 0.69795 0.5446 0.0
H987 H 0.49653 0.70346 0.61475 0.0
H988 H 0.50379 0.7098 0.6567 0.0
H989 H 0.45713 0.64902 0.67676 0.0
H990 H 0.44934 0.64252 0.63491 0.0
H991 H 0.51541 0.59471 0.51908 0.0
H992 H 0.5043 0.63361 0.53399 0.0
H993 H 0.44938 0.59646 0.57576 0.0
H994 H 0.46027 0.55726 0.56075 0.0
H995 H 0.47802 0.63126 0.60007 0.0
H996 H 0.43313 0.62584 0.52915 0.0
H997 H 0.42755 0.6192 0.48704 0.0
H998 H 0.47446 0.68015 0.46836 0.0
H999 H 0.48063 0.68692 0.51043 0.0
C1000 C 0.43129 0.73714 0.61362 0.0
C1001 C 0.44066 0.75866 0.60191 0.0
C1002 C 0.43764 0.71417 0.60684 0.0
C1003 C 0.45383 0.71223 0.58851 0.0
C1004 C 0.46355 0.73366 0.57706 0.0
C1005 C 0.45703 0.75665 0.58368 0.0
C1006 C 0.45989 0.68789 0.58061 0.0
C1007 C 0.45701 0.68351 0.55671 0.0
C1008 C 0.46749 0.66881 0.5965 0.0
C1009 C 0.47218 0.67266 0.62169 0.0
C1010 C 0.48767 0.69156 0.6281 0.0
C1011 C 0.49191 0.69516 0.65187 0.0
C1012 C 0.48088 0.67986 0.66938 0.0
C1013 C 0.46564 0.66088 0.66317 0.0
C1014 C 0.46132 0.65721 0.63943 0.0
C1015 C 0.50099 0.59475 0.53148 0.0
C1016 C 0.48866 0.57294 0.53872 0.0
C1017 C 0.49466 0.617 0.53992 0.0
C1018 C 0.47598 0.61782 0.55584 0.0
C1019 C 0.46385 0.59609 0.56346 0.0
C1020 C 0.47002 0.57379 0.55481 0.0
C1021 C 0.46903 0.64158 0.56416 0.0
C1022 C 0.4717 0.64578 0.58808 0.0
C1023 C 0.46141 0.66057 0.54829 0.0
C1024 C 0.45751 0.65674 0.52296 0.0
C1025 C 0.4424 0.63771 0.51608 0.0
C1026 C 0.43911 0.63394 0.49221 0.0
C1027 C 0.45068 0.6492 0.47502 0.0
C1028 C 0.46552 0.66832 0.48169 0.0
C1029 C 0.46891 0.67215 0.50555 0.0
H1030 H 0.44811 0.64623 0.45655 0.0
H1031 H 0.48419 0.68268 0.68777 0.0
H1032 H 0.85764 0.92362 0.72228 0.0
H1033 H 0.87638 0.93997 0.68543 0.0
H1034 H 0.93873 0.90069 0.70367 0.0
H1035 H 0.91995 0.88397 0.7403 0.0
H1036 H 0.94648 0.95205 0.68611 0.0
H1037 H 0.90582 0.8772 0.66597 0.0
H1038 H 0.87111 0.84954 0.66364 0.0
H1039 H 0.83558 0.90481 0.62174 0.0
H1040 H 0.86998 0.93296 0.62413 0.0
H1041 H 1.00705 0.9631 0.5768 0.0
H1042 H 0.98835 0.94813 0.61388 0.0
H1043 H 0.92111 0.96948 0.58641 0.0
H1044 H 0.9396 0.98365 0.54904 0.0
H1045 H 0.91517 0.92805 0.60926 0.0
H1046 H 0.95295 1.003 0.62781 0.0
H1047 H 0.98542 0.03345 0.63022 0.0
H1048 H 0.02347 0.98281 0.67517 0.0
H1049 H 0.99133 0.95188 0.67274 0.0
C1050 C 0.87538 0.91859 0.71849 0.0
C1051 C 0.88727 0.90242 0.73418 0.0
C1052 C 0.88605 0.92788 0.6974 0.0
C1053 C 0.90897 0.92152 0.69173 0.0
C1054 C 0.92107 0.90587 0.70765 0.0
C1055 C 0.91026 0.89622 0.72851 0.0
C1056 C 0.92011 0.93067 0.66897 0.0
C1057 C 0.93984 0.9466 0.6693 0.0
C1058 C 0.91099 0.92422 0.64699 0.0
C1059 C 0.89037 0.90727 0.64544 0.0
C1060 C 0.89053 0.88354 0.65644 0.0
C1061 C 0.87093 0.86775 0.65508 0.0
C1062 C 0.85112 0.87544 0.64261 0.0
C1063 C 0.85091 0.8989 0.63143 0.0
C1064 C 0.87046 0.91477 0.63277 0.0
C1065 C 0.98827 0.96459 0.57863 0.0
C1066 C 0.97488 0.97467 0.55989 0.0
C1067 C 0.97757 0.95615 0.59996 0.0
C1068 C 0.95326 0.95798 0.60329 0.0
C1069 C 0.93985 0.96781 0.58446 0.0
C1070 C 0.9505 0.97599 0.56304 0.0
C1071 C 0.94177 0.94948 0.62622 0.0
C1072 C 0.92191 0.93364 0.62599 0.0
C1073 C 0.95049 0.95647 0.64827 0.0
C1074 C 0.96983 0.97503 0.6499 0.0
C1075 C 0.96831 0.99828 0.63807 0.0
C1076 C 0.98665 0.01565 0.63946 0.0
C1077 C 1.00652 0.01006 0.6528 0.0
C1078 C 1.00807 0.9871 0.66482 0.0
C1079 C 0.98979 0.96965 0.66346 0.0
H1080 H 0.0207 0.02353 0.65385 0.0
H1081 H 0.83597 0.86319 0.64157 0.0
H1082 H 0.57455 0.04295 0.31171 0.0
H1083 H 0.56776 0.02509 0.27406 0.0
H1084 H 0.52103 0.08309 0.2537 0.0
H1085 H 0.52641 0.10017 0.292 0.0
H1086 H 0.50739 0.04242 0.23371 0.0
H1087 H 0.58004 0.08882 0.2417 0.0
H1088 H 0.61796 0.09887 0.26004 0.0
H1089 H 0.64224 0.02734 0.24727 0.0
H1090 H 0.6043 0.01677 0.22913 0.0
H1091 H 0.57057 0.06136 0.11255 0.0
H1092 H 0.56792 0.06606 0.15481 0.0
H1093 H 0.52511 0.99963 0.16302 0.0
H1094 H 0.52722 0.99534 0.12036 0.0
H1095 H 0.58268 0.03988 0.19035 0.0
H1096 H 0.48904 1.00277 0.21051 0.0
H1097 H 0.45129 0.99764 0.19001 0.0
H1098 H 0.4688 0.05989 0.14288 0.0
H1099 H 0.50653 0.06552 0.16324 0.0
C1100 C 0.56213 0.05146 0.29966 0.0
C1101 C 0.55141 0.07336 0.30476 0.0
C1102 C 0.55843 0.0413 0.27799 0.0
C1103 C 0.54441 0.05314 0.26082 0.0
C1104 C 0.53211 0.07376 0.26659 0.0
C1105 C 0.53549 0.08371 0.2884 0.0
C1106 C 0.54498 0.04614 0.23604 0.0
C1107 C 0.52384 0.04164 0.22425 0.0
C1108 C 0.56642 0.04555 0.22356 0.0
C1109 C 0.58927 0.05192 0.23432 0.0
C1110 C 0.59342 0.07519 0.24295 0.0
C1111 C 0.61491 0.08098 0.25329 0.0
C1112 C 0.63247 0.06373 0.25488 0.0
C1113 C 0.6286 0.04067 0.24607 0.0
C1114 C 0.60711 0.03477 0.23576 0.0
C1115 C 0.56069 0.04771 0.12339 0.0
C1116 C 0.54916 0.02796 0.11326 0.0
C1117 C 0.55915 0.05041 0.14753 0.0
C1118 C 0.54624 0.03327 0.16212 0.0
C1119 C 0.53485 0.01332 0.15208 0.0
C1120 C 0.5361 0.01084 0.12777 0.0
C1121 C 0.54508 0.03649 0.1878 0.0
C1122 C 0.56619 0.04024 0.19982 0.0
C1123 C 0.52359 0.03714 0.20019 0.0
C1124 C 0.50068 0.03439 0.18826 0.0
C1125 C 0.48477 0.01542 0.19585 0.0
C1126 C 0.4634 0.01241 0.18424 0.0
C1127 C 0.45769 0.02838 0.16511 0.0
C1128 C 0.47328 0.04749 0.15764 0.0
C1129 C 0.49466 0.05058 0.16919 0.0
H1130 H 0.44117 0.02598 0.15611 0.0
H1131 H 0.6491 0.06824 0.26289 0.0
H1132 H 0.41623 0.63159 0.28427 0.0
H1133 H 0.43331 0.61274 0.32 0.0
H1134 H 0.37569 0.5599 0.32588 0.0
H1135 H 0.35858 0.57845 0.28981 0.0
H1136 H 0.38671 0.57893 0.36849 0.0
H1137 H 0.42719 0.54262 0.30623 0.0
H1138 H 0.44982 0.54246 0.26928 0.0
H1139 H 0.50572 0.58395 0.29988 0.0
H1140 H 0.48327 0.58467 0.33692 0.0
H1141 H 0.44324 0.50598 0.45879 0.0
H1142 H 0.42315 0.51953 0.4225 0.0
H1143 H 0.48067 0.57034 0.40462 0.0
H1144 H 0.50116 0.55624 0.44027 0.0
H1145 H 0.46778 0.54888 0.36729 0.0
H1146 H 0.42658 0.58779 0.42852 0.0
H1147 H 0.40418 0.5883 0.4656 0.0
H1148 H 0.34999 0.54274 0.43727 0.0
H1149 H 0.37221 0.54167 0.40011 0.0
C1150 C 0.40728 0.61579 0.29297 0.0
C1151 C 0.38612 0.60641 0.28401 0.0
C1152 C 0.41704 0.6051 0.31347 0.0
C1153 C 0.40591 0.58475 0.32545 0.0
C1154 C 0.38456 0.5756 0.31689 0.0
C1155 C 0.37479 0.58627 0.29631 0.0
C1156 C 0.41675 0.57305 0.34684 0.0
C1157 C 0.40431 0.57201 0.36821 0.0
C1158 C 0.43984 0.56439 0.3465 0.0
C1159 C 0.45345 0.56386 0.32429 0.0
C1160 C 0.44423 0.55187 0.30502 0.0
C1161 C 0.45704 0.55165 0.28407 0.0
C1162 C 0.47917 0.56323 0.28222 0.0
C1163 C 0.48857 0.575 0.30134 0.0
C1164 C 0.47581 0.5753 0.32232 0.0
C1165 C 0.4516 0.52 0.44708 0.0
C1166 C 0.47378 0.53004 0.45239 0.0
C1167 C 0.44004 0.52784 0.4264 0.0
C1168 C 0.45022 0.54623 0.41094 0.0
C1169 C 0.47244 0.55612 0.41621 0.0
C1170 C 0.48413 0.54806 0.43665 0.0
C1171 C 0.43798 0.55523 0.38916 0.0
C1172 C 0.45015 0.55569 0.36765 0.0
C1173 C 0.4147 0.56347 0.38942 0.0
C1174 C 0.40117 0.56445 0.41162 0.0
C1175 C 0.40995 0.57777 0.43024 0.0
C1176 C 0.39728 0.57817 0.45127 0.0
C1177 C 0.37571 0.56551 0.45382 0.0
C1178 C 0.36671 0.55251 0.43529 0.0
C1179 C 0.37933 0.55201 0.41423 0.0
H1180 H 0.36595 0.56582 0.47012 0.0
H1181 H 0.48907 0.56304 0.26598 0.0
H1182 H 0.11928 0.41928 0.73799 0.0
H1183 H 0.11268 0.43294 0.77741 0.0
H1184 H 0.05815 0.37717 0.78923 0.0
H1185 H 0.06458 0.36349 0.74956 0.0
H1186 H 0.04408 0.41974 0.80273 0.0
H1187 H 0.1117 0.3722 0.81684 0.0
H1188 H 0.15159 0.35807 0.80997 0.0
H1189 H 0.18005 0.43 0.82092 0.0
H1190 H 0.1403 0.44467 0.82754 0.0
H1191 H 0.03211 0.45362 0.92049 0.0
H1192 H 0.0398 0.42874 0.88745 0.0
H1193 H 0.09662 0.47846 0.86478 0.0
H1194 H 0.08999 0.50267 0.89848 0.0
H1195 H 0.10839 0.43293 0.85956 0.0
H1196 H 0.04008 0.48113 0.8403 0.0
H1197 H 1.00012 0.49514 0.84718 0.0
H1198 H 0.97303 0.42114 0.84608 0.0
H1199 H 0.01289 0.40667 0.83946 0.0
C1200 C 0.10611 0.40968 0.7491 0.0
C1201 C 0.09252 0.39023 0.74072 0.0
C1202 C 0.10237 0.41749 0.77165 0.0
C1203 C 0.08517 0.40584 0.78643 0.0
C1204 C 0.07157 0.38638 0.77815 0.0
C1205 C 0.07521 0.37863 0.75548 0.0
C1206 C 0.08072 0.41487 0.81005 0.0
C1207 C 0.05805 0.42216 0.81536 0.0
C1208 C 0.099 0.41835 0.82641 0.0
C1209 C 0.12298 0.40957 0.82253 0.0
C1210 C 0.12645 0.38506 0.81763 0.0
C1211 C 0.14904 0.37694 0.8138 0.0
C1212 C 0.16834 0.39314 0.81497 0.0
C1213 C 0.16509 0.41748 0.82002 0.0
C1214 C 0.14253 0.42569 0.82384 0.0
C1215 C 0.04651 0.45913 0.90879 0.0
C1216 C 0.06025 0.48046 0.91216 0.0
C1217 C 0.05073 0.44495 0.8897 0.0
C1218 C 0.0685 0.45199 0.87336 0.0
C1219 C 0.08271 0.47274 0.87708 0.0
C1220 C 0.07869 0.48677 0.89627 0.0
C1221 C 0.07192 0.43836 0.85191 0.0
C1222 C 0.09438 0.43018 0.84704 0.0
C1223 C 0.05345 0.43404 0.83596 0.0
C1224 C 0.02948 0.4428 0.83963 0.0
C1225 C 0.02561 0.46784 0.84166 0.0
C1226 C 1.00299 0.47586 0.8455 0.0
C1227 C 0.98406 0.45903 0.84714 0.0
C1228 C 0.98771 0.43415 0.84484 0.0
C1229 C 0.01031 0.42603 0.84103 0.0
H1230 H 0.96656 0.46528 0.85013 0.0
H1231 H 0.18581 0.38682 0.812 0.0
H1232 H 0.72856 0.93022 0.87021 0.0
H1233 H 0.69444 0.94689 0.88888 0.0
H1234 H 0.69394 0.8871 0.94193 0.0
H1235 H 0.72829 0.87052 0.92367 0.0
H1236 H 0.65019 0.89532 0.92688 0.0
H1237 H 0.71456 0.94419 0.95415 0.0
H1238 H 0.7499 0.97118 0.95012 0.0
H1239 H 0.7109 0.02524 0.91025 0.0
H1240 H 0.67538 0.99841 0.91377 0.0
H1241 H 0.59283 0.98643 0.00939 0.0
H1242 H 0.6272 0.96898 0.99176 0.0
H1243 H 0.58585 0.95021 0.93175 0.0
H1244 H 0.55136 0.96743 0.94934 0.0
H1245 H 0.65111 0.98059 0.95196 0.0
H1246 H 0.60612 0.89769 0.91038 0.0
H1247 H 0.57174 0.86974 0.91731 0.0
H1248 H 0.57382 0.8819 0.99116 0.0
H1249 H 0.60839 0.90966 0.98472 0.0
C1250 C 0.72142 0.92069 0.886 0.0
C1251 C 0.73143 0.89895 0.89536 0.0
C1252 C 0.70177 0.93025 0.89664 0.0
C1253 C 0.69158 0.91841 0.91698 0.0
C1254 C 0.70133 0.89659 0.92622 0.0
C1255 C 0.72101 0.88705 0.91564 0.0
C1256 C 0.67086 0.92874 0.92866 0.0
C1257 C 0.65041 0.914 0.93228 0.0
C1258 C 0.67107 0.953 0.93613 0.0
C1259 C 0.69238 0.96919 0.93403 0.0
C1260 C 0.71357 0.96175 0.94437 0.0
C1261 C 0.73362 0.97703 0.9422 0.0
C1262 C 0.73266 0.99988 0.92988 0.0
C1263 C 0.71162 0.00752 0.91976 0.0
C1264 C 0.69152 0.99229 0.92185 0.0
C1265 C 0.59098 0.97849 0.99249 0.0
C1266 C 0.5692 0.97824 0.9809 0.0
C1267 C 0.61073 0.9686 0.98235 0.0
C1268 C 0.60921 0.95804 0.96046 0.0
C1269 C 0.58751 0.9579 0.94879 0.0
C1270 C 0.56776 0.96783 0.95888 0.0
C1271 C 0.63032 0.9473 0.94984 0.0
C1272 C 0.65084 0.96196 0.94644 0.0
C1273 C 0.63027 0.92286 0.94286 0.0
C1274 C 0.6097 0.90594 0.947 0.0
C1275 C 0.59929 0.89432 0.9281 0.0
C1276 C 0.57976 0.87852 0.93195 0.0
C1277 C 0.57056 0.87411 0.95465 0.0
C1278 C 0.58092 0.88541 0.97357 0.0
C1279 C 0.60046 0.9012 0.96983 0.0
H1280 H 0.55543 0.8619 0.95758 0.0
H1281 H 0.74821 0.01169 0.92823 0.0
H1282 H 0.72853 0.1307 0.45112 0.0
H1283 H 0.76899 0.11847 0.45779 0.0
H1284 H 0.75679 0.05619 0.41597 0.0
H1285 H 0.71645 0.06832 0.40918 0.0
H1286 H 0.77917 0.04356 0.4561 0.0
H1287 H 0.78681 0.10774 0.39395 0.0
H1288 H 0.782 0.14945 0.37595 0.0
H1289 H 0.82239 0.17935 0.43158 0.0
H1290 H 0.82717 0.13781 0.45009 0.0
H1291 H 0.88958 1.00397 0.43067 0.0
H1292 H 0.85243 0.02431 0.42436 0.0
H1293 H 0.87381 0.07896 0.47214 0.0
H1294 H 0.91121 0.05855 0.4785 0.0
H1295 H 0.84765 0.09785 0.43283 0.0
H1296 H 0.84171 0.03374 0.4939 0.0
H1297 H 0.84702 0.99205 0.51172 0.0
H1298 H 0.80327 0.96226 0.45852 0.0
H1299 H 0.79801 1.00376 0.44014 0.0
C1300 C 0.73453 0.11447 0.44325 0.0
C1301 C 0.71931 0.10045 0.42962 0.0
C1302 C 0.75763 0.10753 0.44707 0.0
C1303 C 0.76594 0.08657 0.43717 0.0
C1304 C 0.7507 0.07241 0.4238 0.0
C1305 C 0.72763 0.0793 0.42003 0.0
C1306 C 0.7904 0.07902 0.44089 0.0
C1307 C 0.79411 0.05537 0.45081 0.0
C1308 C 0.80991 0.09474 0.4347 0.0
C1309 C 0.80712 0.1197 0.42354 0.0
C1310 C 0.7945 0.12322 0.40244 0.0
C1311 C 0.79181 0.14683 0.39213 0.0
C1312 C 0.80182 0.16705 0.40266 0.0
C1313 C 0.81461 0.16368 0.42348 0.0
C1314 C 0.81733 0.14011 0.43387 0.0
C1315 C 0.88649 0.02052 0.43956 0.0
C1316 C 0.90305 0.02949 0.45534 0.0
C1317 C 0.86533 0.03213 0.43592 0.0
C1318 C 0.86025 0.05281 0.44817 0.0
C1319 C 0.87742 0.06294 0.46261 0.0
C1320 C 0.89875 0.05133 0.46618 0.0
C1321 C 0.83625 0.06221 0.44741 0.0
C1322 C 0.83266 0.08617 0.43824 0.0
C1323 C 0.81677 0.04683 0.45434 0.0
C1324 C 0.81962 0.02185 0.46554 0.0
C1325 C 0.83335 0.01828 0.4859 0.0
C1326 C 0.83634 0.99469 0.49612 0.0
C1327 C 0.82553 0.97451 0.48623 0.0
C1328 C 0.81165 0.9779 0.46615 0.0
C1329 C 0.80864 1.00146 0.45584 0.0
H1330 H 0.82787 0.95626 0.49416 0.0
H1331 H 0.79973 0.18531 0.39465 0.0
H1332 H 0.20896 0.63349 0.15099 0.0
H1333 H 0.17301 0.61864 0.13267 0.0
H1334 H 0.21355 0.59047 0.07691 0.0
H1335 H 0.24967 0.60459 0.09542 0.0
H1336 H 0.1753 0.61688 0.06047 0.0
H1337 H 0.19151 0.55187 0.11863 0.0
H1338 H 0.19979 0.53416 0.15856 0.0
H1339 H 0.13437 0.55967 0.18339 0.0
H1340 H 0.12585 0.57785 0.14364 0.0
H1341 H 0.09061 0.54046 0.00872 0.0
H1342 H 0.12492 0.55804 0.02764 0.0
H1343 H 0.08211 0.57582 0.08644 0.0
H1344 H 0.04772 0.55748 0.0679 0.0
H1345 H 0.12075 0.55642 0.10205 0.0
H1346 H 0.10345 0.6204 0.04429 0.0
H1347 H 0.09476 0.63874 1.00468 0.0
H1348 H 0.16135 0.61668 0.97953 0.0
H1349 H 0.17031 0.5979 0.01892 0.0
C1350 C 0.21032 0.62384 0.13501 0.0
C1351 C 0.2323 0.62021 0.12475 0.0
C1352 C 0.18971 0.61549 0.12449 0.0
C1353 C 0.19063 0.60337 0.10349 0.0
C1354 C 0.21246 0.59988 0.09307 0.0
C1355 C 0.23309 0.60807 0.10365 0.0
C1356 C 0.16882 0.59435 0.09233 0.0
C1357 C 0.16347 0.60346 0.06943 0.0
C1358 C 0.15309 0.5774 0.10432 0.0
C1359 C 0.15817 0.56646 0.12822 0.0
C1360 C 0.17899 0.5539 0.13265 0.0
C1361 C 0.1837 0.54373 0.15524 0.0
C1362 C 0.16765 0.54585 0.17352 0.0
C1363 C 0.14681 0.55808 0.16922 0.0
C1364 C 0.14202 0.56831 0.14666 0.0
C1365 C 0.08841 0.54828 0.0256 0.0
C1366 C 0.06639 0.54764 0.03676 0.0
C1367 C 0.10807 0.55845 0.03636 0.0
C1368 C 0.10609 0.5686 0.05834 0.0
C1369 C 0.08408 0.56815 0.06947 0.0
C1370 C 0.06442 0.55774 0.0588 0.0
C1371 C 0.12717 0.57886 0.07004 0.0
C1372 C 0.13243 0.56998 0.09307 0.0
C1373 C 0.14274 0.59618 0.05822 0.0
C1374 C 0.13746 0.60756 0.03452 0.0
C1375 C 0.11617 0.61931 0.03027 0.0
C1376 C 0.11121 0.62981 1.00787 0.0
C1377 C 0.12747 0.62883 0.98959 0.0
C1378 C 0.14876 0.6174 0.9937 0.0
C1379 C 0.1538 0.60686 0.01607 0.0
H1380 H 0.12359 0.63696 0.97225 0.0
H1381 H 0.17133 0.53796 0.191 0.0
H1382 H 0.20871 0.40807 0.52928 0.0
H1383 H 0.24747 0.42447 0.51667 0.0
H1384 H 0.25798 0.45321 0.58499 0.0
H1385 H 0.21918 0.43746 0.59736 0.0
H1386 H 0.27609 0.48435 0.55296 0.0
H1387 H 0.27943 0.39688 0.57014 0.0
H1388 H 0.26807 0.35355 0.56573 0.0
H1389 H 0.288 0.36084 0.49273 0.0
H1390 H 0.2992 0.40433 0.49665 0.0
H1391 H 0.39835 0.46431 0.57605 0.0
H1392 H 0.35555 0.45934 0.57463 0.0
H1393 H 0.35738 0.47373 0.49924 0.0
H1394 H 0.40031 0.47945 0.50071 0.0
H1395 H 0.33248 0.4242 0.52691 0.0
H1396 H 0.33388 0.51235 0.51315 0.0
H1397 H 0.34723 0.55426 0.52125 0.0
H1398 H 0.32014 0.54392 0.59178 0.0
H1399 H 0.30697 0.50176 0.58419 0.0
C1400 C 0.21926 0.4181 0.54147 0.0
C1401 C 0.21099 0.42141 0.56432 0.0
C1402 C 0.24138 0.42744 0.53428 0.0
C1403 C 0.25582 0.43977 0.55 0.0
C1404 C 0.24718 0.44385 0.5725 0.0
C1405 C 0.22498 0.43482 0.57957 0.0
C1406 C 0.28045 0.44707 0.54381 0.0
C1407 C 0.28835 0.47118 0.54717 0.0
C1408 C 0.29651 0.43004 0.53596 0.0
C1409 C 0.28986 0.40391 0.53361 0.0
C1410 C 0.28122 0.38928 0.55311 0.0
C1411 C 0.27484 0.36469 0.55071 0.0
C1412 C 0.27724 0.35447 0.52895 0.0
C1413 C 0.2861 0.3688 0.50956 0.0
C1414 C 0.29247 0.39341 0.51185 0.0
C1415 C 0.38955 0.46664 0.55924 0.0
C1416 C 0.40248 0.47223 0.5385 0.0
C1417 C 0.3652 0.46389 0.55845 0.0
C1418 C 0.35345 0.46626 0.53685 0.0
C1419 C 0.36624 0.47201 0.51607 0.0
C1420 C 0.39062 0.47534 0.51693 0.0
C1421 C 0.32793 0.46124 0.53629 0.0
C1422 C 0.31997 0.43749 0.53195 0.0
C1423 C 0.31194 0.47844 0.54357 0.0
C1424 C 0.31966 0.50382 0.54817 0.0
C1425 C 0.33099 0.51892 0.53046 0.0
C1426 C 0.33847 0.54274 0.53494 0.0
C1427 C 0.33459 0.55173 0.55704 0.0
C1428 C 0.32316 0.53692 0.57468 0.0
C1429 C 0.31566 0.51307 0.57028 0.0
H1430 H 0.34039 0.57018 0.56048 0.0
H1431 H 0.27229 0.33543 0.52712 0.0
H1432 H 0.86928 0.74027 0.93049 0.0
H1433 H 0.88914 0.70489 0.94856 0.0
H1434 H 0.9342 0.70394 0.88777 0.0
H1435 H 0.91487 0.73962 0.86978 0.0
H1436 H 0.91752 0.65794 0.90157 0.0
H1437 H 0.95443 0.72579 0.93864 0.0
H1438 H 0.95541 0.76306 0.96093 0.0
H1439 H 0.92202 0.72314 0.01982 0.0
H1440 H 0.92055 0.6857 0.99774 0.0
H1441 H 1.00268 0.57676 0.9482 0.0
H1442 H 0.98305 0.6129 0.93138 0.0
H1443 H 0.94107 0.6146 0.99433 0.0
H1444 H 0.96082 0.57864 0.0114 0.0
H1445 H 0.95548 0.66001 0.97987 0.0
H1446 H 0.91827 0.5925 0.94404 0.0
H1447 H 0.91635 0.55475 0.9225 0.0
H1448 H 0.94854 0.59324 0.86215 0.0
H1449 H 0.95097 0.63116 0.88347 0.0
C1450 C 0.8836 0.73279 0.92102 0.0
C1451 C 0.89038 0.74301 0.89859 0.0
C1452 C 0.89491 0.71242 0.93139 0.0
C1453 C 0.91331 0.70174 0.91963 0.0
C1454 C 0.92 0.71173 0.89719 0.0
C1455 C 0.9088 0.73215 0.88686 0.0
C1456 C 0.92557 0.68015 0.93063 0.0
C1457 C 0.92608 0.65853 0.91855 0.0
C1458 C 0.93621 0.68055 0.95311 0.0
C1459 C 0.93716 0.70301 0.96644 0.0
C1460 C 0.94712 0.72501 0.95627 0.0
C1461 C 0.9478 0.74616 0.96888 0.0
C1462 C 0.93873 0.74548 0.99175 0.0
C1463 C 0.92901 0.72364 1.00209 0.0
C1464 C 0.92827 0.70245 0.98954 0.0
C1465 C 0.98933 0.58485 0.95854 0.0
C1466 C 0.98332 0.57467 0.98116 0.0
C1467 C 0.97802 0.60549 0.94883 0.0
C1468 C 0.9603 0.61639 0.96142 0.0
C1469 C 0.95462 0.60658 0.98421 0.0
C1470 C 0.96593 0.58593 0.99394 0.0
C1471 C 0.94756 0.63784 0.95073 0.0
C1472 C 0.94692 0.65941 0.96288 0.0
C1473 C 0.93661 0.63733 0.92841 0.0
C1474 C 0.93501 0.61462 0.91544 0.0
C1475 C 0.9251 0.59288 0.92624 0.0
C1476 C 0.92389 0.57145 0.91406 0.0
C1477 C 0.93238 0.57158 0.89099 0.0
C1478 C 0.94201 0.59316 0.88003 0.0
C1479 C 0.94329 0.61463 0.89215 0.0
H1480 H 0.93144 0.55498 0.88159 0.0
H1481 H 0.93927 0.76187 1.00149 0.0
H1482 H 0.37524 0.77841 0.09697 0.0
H1483 H 0.39611 0.8146 0.07923 0.0
H1484 H 0.44364 0.81393 0.13808 0.0
H1485 H 0.42319 0.77735 0.15578 0.0
H1486 H 0.42819 0.86045 0.12541 0.0
H1487 H 0.46171 0.79359 0.08781 0.0
H1488 H 0.46114 0.75597 0.06606 0.0
H1489 H 0.42741 0.79383 1.00767 0.0
H1490 H 0.42746 0.8316 0.02922 0.0
H1491 H 0.51006 0.94707 0.07095 0.0
H1492 H 0.49245 0.9098 0.09044 0.0
H1493 H 0.44619 0.90204 0.03127 0.0
H1494 H 0.46404 0.93884 0.01147 0.0
H1495 H 0.46273 0.8591 0.04539 0.0
H1496 H 0.428 0.92566 0.08318 0.0
H1497 H 0.42867 0.96349 0.10466 0.0
H1498 H 0.46414 0.9266 0.16244 0.0
H1499 H 0.46407 0.88864 0.14115 0.0
C1500 C 0.39028 0.78576 0.10607 0.0
C1501 C 0.3976 0.77481 0.12776 0.0
C1502 C 0.40212 0.80653 0.09593 0.0
C1503 C 0.42154 0.81682 0.10724 0.0
C1504 C 0.42866 0.80629 0.12909 0.0
C1505 C 0.41688 0.78543 0.13921 0.0
C1506 C 0.43453 0.83842 0.09608 0.0
C1507 C 0.43605 0.86009 0.10805 0.0
C1508 C 0.44438 0.83804 0.07327 0.0
C1509 C 0.44439 0.81537 0.06023 0.0
C1510 C 0.45399 0.79384 0.07041 0.0
C1511 C 0.4538 0.7725 0.0581 0.0
C1512 C 0.44419 0.77249 0.03552 0.0
C1513 C 0.43482 0.79385 0.02517 0.0
C1514 C 0.43494 0.81524 0.03742 0.0
C1515 C 0.49623 0.93734 0.06204 0.0
C1516 C 0.48843 0.94595 0.03967 0.0
C1517 C 0.48609 0.91612 0.07325 0.0
C1518 C 0.46776 0.90331 0.06246 0.0
C1519 C 0.46028 0.91162 0.03995 0.0
C1520 C 0.4705 0.93271 0.02867 0.0
C1521 C 0.45619 0.8813 0.07456 0.0
C1522 C 0.45495 0.8595 0.06277 0.0
C1523 C 0.44652 0.88163 0.0975 0.0
C1524 C 0.44624 0.90436 0.11046 0.0
C1525 C 0.43609 0.92565 0.1004 0.0
C1526 C 0.43633 0.94711 0.11254 0.0
C1527 C 0.44648 0.94746 0.13487 0.0
C1528 C 0.45632 0.92631 0.14513 0.0
C1529 C 0.45617 0.90481 0.13304 0.0
H1530 H 0.44667 0.9641 0.14423 0.0
H1531 H 0.44406 0.75595 0.02602 0.0
H1532 H 0.06503 0.25708 0.54273 0.0
H1533 H 0.0462 0.21891 0.53181 0.0
H1534 H 1.00235 0.2176 0.59377 0.0
H1535 H 0.02212 0.25508 0.60558 0.0
H1536 H 0.01901 0.17515 0.59076 0.0
H1537 H 0.9797 0.22847 0.53689 0.0
H1538 H 0.97496 0.26218 0.50661 0.0
H1539 H 0.01608 0.22434 0.45797 0.0
H1540 H 0.02137 0.19055 0.48805 0.0
H1541 H 0.96532 0.07805 0.50702 0.0
H1542 H 0.96581 0.11979 0.52078 0.0
H1543 H 0.03529 0.10947 0.54864 0.0
H1544 H 0.03479 0.0681 0.53556 0.0
H1545 H 0.9937 0.15897 0.50961 0.0
H1546 H 0.0437 0.13725 0.59767 0.0
H1547 H 0.04528 0.10365 0.62853 0.0
H1548 H 0.97574 0.07924 0.61075 0.0
H1549 H 0.97357 0.11292 0.58002 0.0
C1550 C 0.05141 0.24869 0.55409 0.0
C1551 C 0.04524 0.25914 0.57514 0.0
C1552 C 0.04037 0.22701 0.54762 0.0
C1553 C 0.0226 0.21548 0.56179 0.0
C1554 C 0.01594 0.2262 0.58248 0.0
C1555 C 0.02714 0.24778 0.5891 0.0
C1556 C 0.01247 0.19125 0.55592 0.0
C1557 C 0.01322 0.1717 0.57309 0.0
C1558 C 1.00421 0.18678 0.53306 0.0
C1559 C 1.00101 0.207 0.5148 0.0
C1560 C 0.98785 0.22739 0.51978 0.0
C1561 C 0.98505 0.24651 0.50264 0.0
C1562 C 0.99523 0.24541 0.48039 0.0
C1563 C 1.00819 0.22516 0.47521 0.0
C1564 C 0.01106 0.20599 0.4923 0.0
C1565 C 0.9806 0.08469 0.51624 0.0
C1566 C 0.99995 0.06971 0.52031 0.0
C1567 C 0.98087 0.10851 0.52404 0.0
C1568 C 1.00042 0.11759 0.5361 0.0
C1569 C 0.01977 0.10269 0.5399 0.0
C1570 C 0.0195 0.07902 0.53225 0.0
C1571 C 1.00142 0.14289 0.54413 0.0
C1572 C 0.99898 0.16258 0.52741 0.0
C1573 C 1.00756 0.1476 0.56756 0.0
C1574 C 1.00853 0.1276 0.58644 0.0
C1575 C 0.02867 0.12485 0.60045 0.0
C1576 C 0.02968 0.10575 0.6179 0.0
C1577 C 0.01065 0.0893 0.62157 0.0
C1578 C 0.99051 0.09196 0.60785 0.0
C1579 C 0.98938 0.11105 0.5904 0.0
H1580 H 0.01149 0.07451 0.63506 0.0
H1581 H 0.99305 0.26024 0.46715 0.0
H1582 H 0.60156 0.26171 0.45198 0.0
H1583 H 0.59322 0.30313 0.46268 0.0
H1584 H 0.53364 0.30434 0.41615 0.0
H1585 H 0.54164 0.26272 0.40558 0.0
H1586 H 0.5597 0.34794 0.41285 0.0
H1587 H 0.52475 0.29253 0.47305 0.0
H1588 H 0.52453 0.25846 0.50355 0.0
H1589 H 0.57651 0.29694 0.54277 0.0
H1590 H 0.57728 0.3311 0.51231 0.0
H1591 H 0.49533 0.42779 0.49886 0.0
H1592 H 0.50617 0.38861 0.48464 0.0
H1593 H 0.57087 0.42142 0.45673 0.0
H1594 H 0.56002 0.46103 0.47076 0.0
H1595 H 0.54267 0.361 0.49669 0.0
H1596 H 0.58459 0.39114 0.40681 0.0
H1597 H 0.58213 0.42465 0.37589 0.0
H1598 H 0.51076 0.43591 0.3954 0.0
H1599 H 0.51271 0.40227 0.4262 0.0
C1600 C 0.58658 0.27071 0.44414 0.0
C1601 C 0.5721 0.25883 0.42812 0.0
C1602 C 0.58195 0.29442 0.45015 0.0
C1603 C 0.56273 0.30667 0.44032 0.0
C1604 C 0.54861 0.29518 0.42385 0.0
C1605 C 0.55321 0.27143 0.41784 0.0
C1606 C 0.55675 0.33104 0.44801 0.0
C1607 C 0.55605 0.35087 0.43118 0.0
C1608 C 0.55177 0.3347 0.47188 0.0
C1609 C 0.55124 0.31425 0.49028 0.0
C1610 C 0.53627 0.29363 0.48809 0.0
C1611 C 0.53602 0.27432 0.50538 0.0
C1612 C 0.55054 0.2755 0.52506 0.0
C1613 C 0.5653 0.29603 0.52751 0.0
C1614 C 0.56563 0.31538 0.51024 0.0
C1615 C 0.51185 0.42678 0.48962 0.0
C1616 C 0.52683 0.44754 0.48592 0.0
C1617 C 0.51803 0.40432 0.48157 0.0
C1618 C 0.53926 0.40214 0.46959 0.0
C1619 C 0.55428 0.42281 0.46575 0.0
C1620 C 0.54809 0.44538 0.47382 0.0
C1621 C 0.54564 0.37801 0.46156 0.0
C1622 C 0.5465 0.35818 0.47837 0.0
C1623 C 0.5504 0.37432 0.43764 0.0
C1624 C 0.5489 0.39437 0.41897 0.0
C1625 C 0.56836 0.40072 0.40444 0.0
C1626 C 0.56705 0.41974 0.38694 0.0
C1627 C 0.54633 0.43246 0.38374 0.0
C1628 C 0.52684 0.42612 0.39796 0.0
C1629 C 0.52804 0.4071 0.41546 0.0
H1630 H 0.54536 0.44719 0.3702 0.0
H1631 H 0.55032 0.26054 0.53843 0.0
loop_
_geom_bond_atom_site_label_1
_geom_bond_atom_site_label_2
_geom_bond_distance
_geom_bond_site_symmetry_2
_ccdc_geom_bond_type
C0 C1 1.386 . S
C0 C2 1.397 . S
C0 H24 0.931 . S
C1 C0 1.386 . S
C1 C5 1.397 . S
C2 C0 1.397 . S
C2 C3 1.384 . S
C2 H25 0.930 . S
C3 C2 1.384 . S
C3 C4 1.377 . S
C3 C6 1.481 . S
C4 C3 1.377 . S
C4 C5 1.389 . S
C4 H26 0.929 . S
C5 C1 1.397 . S
C5 C4 1.389 . S
C5 H27 0.931 . S
C6 C3 1.481 . S
C6 C7 1.387 . S
C6 C11 1.390 . S
C7 C6 1.387 . S
C7 C8 1.401 . S
C7 H28 0.930 . S
C8 C7 1.401 . S
C8 C9 1.376 . S
C8 C17 1.511 . S
C9 C8 1.376 . S
C9 C10 1.392 . S
C9 H30 0.931 . S
C10 C9 1.392 . S
C10 C11 1.361 . S
C10 C12 1.500 . S
C11 C6 1.390 . S
C11 C10 1.361 . S
C11 H29 0.931 . S
C12 C10 1.500 . S
C12 C13 1.371 . S
C12 C14 1.365 . S
C13 C12 1.371 . S
C13 C23 1.386 . S
C13 H31 0.931 . S
C14 C12 1.365 . S
C14 C15 1.409 . S
C14 H32 0.929 . S
C15 C14 1.409 . S
C15 C16 1.380 . S
C15 H33 0.930 . S
C16 C15 1.380 . S
C16 C23 1.357 . S
C17 C8 1.511 . S
C17 C18 1.341 . S
C17 C19 1.371 . S
C18 C17 1.341 . S
C18 C22 1.394 . S
C18 H34 0.930 . S
C19 C17 1.371 . S
C19 C20 1.392 . S
C19 H35 0.931 . S
C20 C19 1.392 . S
C20 C21 1.331 . S
C20 H38 0.932 . S
C21 C20 1.331 . S
C21 C22 1.336 . S
C22 C18 1.394 . S
C22 C21 1.336 . S
C22 H37 0.929 . S
C23 C13 1.386 . S
C23 C16 1.357 . S
C23 H36 0.928 . S
H24 C0 0.931 . S
H25 C2 0.930 . S
H26 C4 0.929 . S
H27 C5 0.931 . S
H28 C7 0.930 . S
H29 C11 0.931 . S
H30 C9 0.931 . S
H31 C13 0.931 . S
H32 C14 0.929 . S
H33 C15 0.930 . S
H34 C18 0.930 . S
H35 C19 0.931 . S
H36 C23 0.928 . S
H37 C22 0.929 . S
H38 C20 0.932 . S
C39 C40 1.386 . S
C39 C41 1.397 . S
C39 H63 0.931 . S
C40 C39 1.386 . S
C40 C44 1.397 . S
C41 C39 1.397 . S
C41 C42 1.384 . S
C41 H64 0.930 . S
C42 C41 1.384 . S
C42 C43 1.377 . S
C42 C45 1.481 . S
C43 C42 1.377 . S
C43 C44 1.389 . S
C43 H65 0.929 . S
C44 C40 1.397 . S
C44 C43 1.389 . S
C44 H66 0.931 . S
C45 C42 1.481 . S
C45 C46 1.387 . S
C45 C50 1.390 . S
C46 C45 1.387 . S
C46 C47 1.401 . S
C46 H67 0.930 . S
C47 C46 1.401 . S
C47 C48 1.376 . S
C47 C56 1.511 . S
C48 C47 1.376 . S
C48 C49 1.392 . S
C48 H69 0.931 . S
C49 C48 1.392 . S
C49 C50 1.361 . S
C49 C51 1.500 . S
C50 C45 1.390 . S
C50 C49 1.361 . S
C50 H68 0.931 . S
C51 C49 1.500 . S
C51 C52 1.371 . S
C51 C53 1.365 . S
C52 C51 1.371 . S
C52 C62 1.386 . S
C52 H70 0.931 . S
C53 C51 1.365 . S
C53 C54 1.409 . S
C53 H71 0.929 . S
C54 C53 1.409 . S
C54 C55 1.380 . S
C54 H72 0.930 . S
C55 C54 1.380 . S
C55 C62 1.357 . S
C56 C47 1.511 . S
C56 C57 1.341 . S
C56 C58 1.371 . S
C57 C56 1.341 . S
C57 C61 1.394 . S
C57 H73 0.930 . S
C58 C56 1.371 . S
C58 C59 1.392 . S
C58 H74 0.931 . S
C59 C58 1.392 . S
C59 C60 1.331 . S
C59 H77 0.932 . S
C60 C59 1.331 . S
C60 C61 1.336 . S
C61 C57 1.394 . S
C61 C60 1.336 . S
C61 H76 0.929 . S
C62 C52 1.386 . S
C62 C55 1.357 . S
C62 H75 0.928 . S
H63 C39 0.931 . S
H64 C41 0.930 . S
H65 C43 0.929 . S
H66 C44 0.931 . S
H67 C46 0.930 . S
H68 C50 0.931 . S
H69 C48 0.931 . S
H70 C52 0.931 . S
H71 C53 0.929 . S
H72 C54 0.930 . S
H73 C57 0.930 . S
H74 C58 0.931 . S
H75 C62 0.928 . S
H76 C61 0.929 . S
H77 C59 0.932 . S
C78 C79 1.386 . S
C78 C80 1.397 . S
C78 H102 0.931 . S
C79 C78 1.386 . S
C79 C83 1.397 . S
C80 C78 1.397 . S
C80 C81 1.384 . S
C80 H103 0.930 . S
C81 C80 1.384 . S
C81 C82 1.377 . S
C81 C84 1.481 . S
C82 C81 1.377 . S
C82 C83 1.389 . S
C82 H104 0.929 . S
C83 C79 1.397 . S
C83 C82 1.389 . S
C83 H105 0.931 . S
C84 C81 1.481 . S
C84 C85 1.387 . S
C84 C89 1.390 . S
C85 C84 1.387 . S
C85 C86 1.401 . S
C85 H106 0.930 . S
C86 C85 1.401 . S
C86 C87 1.376 . S
C86 C95 1.511 . S
C87 C86 1.376 . S
C87 C88 1.392 . S
C87 H108 0.931 . S
C88 C87 1.392 . S
C88 C89 1.361 . S
C88 C90 1.500 . S
C89 C84 1.390 . S
C89 C88 1.361 . S
C89 H107 0.931 . S
C90 C88 1.500 . S
C90 C91 1.371 . S
C90 C92 1.365 . S
C91 C90 1.371 . S
C91 C101 1.386 . S
C91 H109 0.931 . S
C92 C90 1.365 . S
C92 C93 1.409 . S
C92 H110 0.929 . S
C93 C92 1.409 . S
C93 C94 1.380 . S
C93 H111 0.930 . S
C94 C93 1.380 . S
C94 C101 1.357 . S
C95 C86 1.511 . S
C95 C96 1.341 . S
C95 C97 1.371 . S
C96 C95 1.341 . S
C96 C100 1.394 . S
C96 H112 0.930 . S
C97 C95 1.371 . S
C97 C98 1.392 . S
C97 H113 0.931 . S
C98 C97 1.392 . S
C98 C99 1.331 . S
C98 H116 0.932 . S
C99 C98 1.331 . S
C99 C100 1.336 . S
C100 C96 1.394 . S
C100 C99 1.336 . S
C100 H115 0.929 . S
C101 C91 1.386 . S
C101 C94 1.357 . S
C101 H114 0.928 . S
H102 C78 0.931 . S
H103 C80 0.930 . S
H104 C82 0.929 . S
H105 C83 0.931 . S
H106 C85 0.930 . S
H107 C89 0.931 . S
H108 C87 0.931 . S
H109 C91 0.931 . S
H110 C92 0.929 . S
H111 C93 0.930 . S
H112 C96 0.930 . S
H113 C97 0.931 . S
H114 C101 0.928 . S
H115 C100 0.929 . S
H116 C98 0.932 . S
C117 C118 1.386 . S
C117 C119 1.397 . S
C117 H141 0.931 . S
C118 C117 1.386 . S
C118 C122 1.397 . S
C119 C117 1.397 . S
C119 C120 1.384 . S
C119 H142 0.930 . S
C120 C119 1.384 . S
C120 C121 1.377 . S
C120 C123 1.481 . S
C121 C120 1.377 . S
C121 C122 1.389 . S
C121 H143 0.929 . S
C122 C118 1.397 . S
C122 C121 1.389 . S
C122 H144 0.931 . S
C123 C120 1.481 . S
C123 C124 1.387 . S
C123 C128 1.390 . S
C124 C123 1.387 . S
C124 C125 1.401 . S
C124 H145 0.930 . S
C125 C124 1.401 . S
C125 C126 1.376 . S
C125 C134 1.511 . S
C126 C125 1.376 . S
C126 C127 1.392 . S
C126 H147 0.931 . S
C127 C126 1.392 . S
C127 C128 1.361 . S
C127 C129 1.500 . S
C128 C123 1.390 . S
C128 C127 1.361 . S
C128 H146 0.931 . S
C129 C127 1.500 . S
C129 C130 1.371 . S
C129 C131 1.365 . S
C130 C129 1.371 . S
C130 C140 1.386 . S
C130 H148 0.931 . S
C131 C129 1.365 . S
C131 C132 1.409 . S
C131 H149 0.929 . S
C132 C131 1.409 . S
C132 C133 1.380 . S
C132 H150 0.930 . S
C133 C132 1.380 . S
C133 C140 1.357 . S
C134 C125 1.511 . S
C134 C135 1.341 . S
C134 C136 1.371 . S
C135 C134 1.341 . S
C135 C139 1.394 . S
C135 H151 0.930 . S
C136 C134 1.371 . S
C136 C137 1.392 . S
C136 H152 0.931 . S
C137 C136 1.392 . S
C137 C138 1.331 . S
C137 H155 0.932 . S
C138 C137 1.331 . S
C138 C139 1.336 . S
C139 C135 1.394 . S
C139 C138 1.336 . S
C139 H154 0.929 . S
C140 C130 1.386 . S
C140 C133 1.357 . S
C140 H153 0.928 . S
H141 C117 0.931 . S
H142 C119 0.930 . S
H143 C121 0.929 . S
H144 C122 0.931 . S
H145 C124 0.930 . S
H146 C128 0.931 . S
H147 C126 0.931 . S
H148 C130 0.931 . S
H149 C131 0.929 . S
H150 C132 0.930 . S
H151 C135 0.930 . S
H152 C136 0.931 . S
H153 C140 0.928 . S
H154 C139 0.929 . S
H155 C137 0.932 . S
C156 C157 1.386 . S
C156 C158 1.397 . S
C156 H180 0.931 . S
C157 C156 1.386 . S
C157 C161 1.397 . S
C158 C156 1.397 . S
C158 C159 1.384 . S
C158 H181 0.930 . S
C159 C158 1.384 . S
C159 C160 1.377 . S
C159 C162 1.481 . S
C160 C159 1.377 . S
C160 C161 1.389 . S
C160 H182 0.929 . S
C161 C157 1.397 . S
C161 C160 1.389 . S
C161 H183 0.931 . S
C162 C159 1.481 . S
C162 C163 1.387 . S
C162 C167 1.390 . S
C163 C162 1.387 . S
C163 C164 1.401 . S
C163 H184 0.930 . S
C164 C163 1.401 . S
C164 C165 1.376 . S
C164 C173 1.511 . S
C165 C164 1.376 . S
C165 C166 1.392 . S
C165 H186 0.931 . S
C166 C165 1.392 . S
C166 C167 1.361 . S
C166 C168 1.500 . S
C167 C162 1.390 . S
C167 C166 1.361 . S
C167 H185 0.931 . S
C168 C166 1.500 . S
C168 C169 1.371 . S
C168 C170 1.365 . S
C169 C168 1.371 . S
C169 C179 1.386 . S
C169 H187 0.931 . S
C170 C168 1.365 . S
C170 C171 1.409 . S
C170 H188 0.929 . S
C171 C170 1.409 . S
C171 C172 1.380 . S
C171 H189 0.930 . S
C172 C171 1.380 . S
C172 C179 1.357 . S
C173 C164 1.511 . S
C173 C174 1.341 . S
C173 C175 1.371 . S
C174 C173 1.341 . S
C174 C178 1.394 . S
C174 H190 0.930 . S
C175 C173 1.371 . S
C175 C176 1.392 . S
C175 H191 0.931 . S
C176 C175 1.392 . S
C176 C177 1.331 . S
C176 H194 0.932 . S
C177 C176 1.331 . S
C177 C178 1.336 . S
C178 C174 1.394 . S
C178 C177 1.336 . S
C178 H193 0.929 . S
C179 C169 1.386 . S
C179 C172 1.357 . S
C179 H192 0.928 . S
H180 C156 0.931 . S
H181 C158 0.930 . S
H182 C160 0.929 . S
H183 C161 0.931 . S
H184 C163 0.930 . S
H185 C167 0.931 . S
H186 C165 0.931 . S
H187 C169 0.931 . S
H188 C170 0.929 . S
H189 C171 0.930 . S
H190 C174 0.930 . S
H191 C175 0.931 . S
H192 C179 0.928 . S
H193 C178 0.929 . S
H194 C176 0.932 . S
C195 C196 1.386 . S
C195 C197 1.397 . S
C195 H219 0.931 . S
C196 C195 1.386 . S
C196 C200 1.397 . S
C197 C195 1.397 . S
C197 C198 1.384 . S
C197 H220 0.930 . S
C198 C197 1.384 . S
C198 C199 1.377 . S
C198 C201 1.481 . S
C199 C198 1.377 . S
C199 C200 1.389 . S
C199 H221 0.929 . S
C200 C196 1.397 . S
C200 C199 1.389 . S
C200 H222 0.931 . S
C201 C198 1.481 . S
C201 C202 1.387 . S
C201 C206 1.390 . S
C202 C201 1.387 . S
C202 C203 1.401 . S
C202 H223 0.930 . S
C203 C202 1.401 . S
C203 C204 1.376 . S
C203 C212 1.511 . S
C204 C203 1.376 . S
C204 C205 1.392 . S
C204 H225 0.931 . S
C205 C204 1.392 . S
C205 C206 1.361 . S
C205 C207 1.500 . S
C206 C201 1.390 . S
C206 C205 1.361 . S
C206 H224 0.931 . S
C207 C205 1.500 . S
C207 C208 1.371 . S
C207 C209 1.365 . S
C208 C207 1.371 . S
C208 C218 1.386 . S
C208 H226 0.931 . S
C209 C207 1.365 . S
C209 C210 1.409 . S
C209 H227 0.929 . S
C210 C209 1.409 . S
C210 C211 1.380 . S
C210 H228 0.930 . S
C211 C210 1.380 . S
C211 C218 1.357 . S
C212 C203 1.511 . S
C212 C213 1.341 . S
C212 C214 1.371 . S
C213 C212 1.341 . S
C213 C217 1.394 . S
C213 H229 0.930 . S
C214 C212 1.371 . S
C214 C215 1.392 . S
C214 H230 0.931 . S
C215 C214 1.392 . S
C215 C216 1.331 . S
C215 H233 0.932 . S
C216 C215 1.331 . S
C216 C217 1.336 . S
C217 C213 1.394 . S
C217 C216 1.336 . S
C217 H232 0.929 . S
C218 C208 1.386 . S
C218 C211 1.357 . S
C218 H231 0.928 . S
H219 C195 0.931 . S
H220 C197 0.930 . S
H221 C199 0.929 . S
H222 C200 0.931 . S
H223 C202 0.930 . S
H224 C206 0.931 . S
H225 C204 0.931 . S
H226 C208 0.931 . S
H227 C209 0.929 . S
H228 C210 0.930 . S
H229 C213 0.930 . S
H230 C214 0.931 . S
H231 C218 0.928 . S
H232 C217 0.929 . S
H233 C215 0.932 . S
C234 C235 1.386 . S
C234 C236 1.397 . S
C234 H258 0.931 . S
C235 C234 1.386 . S
C235 C239 1.397 . S
C236 C234 1.397 . S
C236 C237 1.384 . S
C236 H259 0.930 . S
C237 C236 1.384 . S
C237 C238 1.377 . S
C237 C240 1.481 . S
C238 C237 1.377 . S
C238 C239 1.389 . S
C238 H260 0.929 . S
C239 C235 1.397 . S
C239 C238 1.389 . S
C239 H261 0.931 . S
C240 C237 1.481 . S
C240 C241 1.387 . S
C240 C245 1.390 . S
C241 C240 1.387 . S
C241 C242 1.401 . S
C241 H262 0.930 . S
C242 C241 1.401 . S
C242 C243 1.376 . S
C242 C251 1.511 . S
C243 C242 1.376 . S
C243 C244 1.392 . S
C243 H264 0.931 . S
C244 C243 1.392 . S
C244 C245 1.361 . S
C244 C246 1.500 . S
C245 C240 1.390 . S
C245 C244 1.361 . S
C245 H263 0.931 . S
C246 C244 1.500 . S
C246 C247 1.371 . S
C246 C248 1.365 . S
C247 C246 1.371 . S
C247 C257 1.386 . S
C247 H265 0.931 . S
C248 C246 1.365 . S
C248 C249 1.409 . S
C248 H266 0.929 . S
C249 C248 1.409 . S
C249 C250 1.380 . S
C249 H267 0.930 . S
C250 C249 1.380 . S
C250 C257 1.357 . S
C251 C242 1.511 . S
C251 C252 1.341 . S
C251 C253 1.371 . S
C252 C251 1.341 . S
C252 C256 1.394 . S
C252 H268 0.930 . S
C253 C251 1.371 . S
C253 C254 1.392 . S
C253 H269 0.931 . S
C254 C253 1.392 . S
C254 C255 1.331 . S
C254 H272 0.932 . S
C255 C254 1.331 . S
C255 C256 1.336 . S
C256 C252 1.394 . S
C256 C255 1.336 . S
C256 H271 0.929 . S
C257 C247 1.386 . S
C257 C250 1.357 . S
C257 H270 0.928 . S
H258 C234 0.931 . S
H259 C236 0.930 . S
H260 C238 0.929 . S
H261 C239 0.931 . S
H262 C241 0.930 . S
H263 C245 0.931 . S
H264 C243 0.931 . S
H265 C247 0.931 . S
H266 C248 0.929 . S
H267 C249 0.930 . S
H268 C252 0.930 . S
H269 C253 0.931 . S
H270 C257 0.928 . S
H271 C256 0.929 . S
H272 C254 0.932 . S
C273 C274 1.386 . S
C273 C275 1.397 . S
C273 H297 0.931 . S
C274 C273 1.386 . S
C274 C278 1.397 . S
C275 C273 1.397 . S
C275 C276 1.384 . S
C275 H298 0.930 . S
C276 C275 1.384 . S
C276 C277 1.377 . S
C276 C279 1.481 . S
C277 C276 1.377 . S
C277 C278 1.389 . S
C277 H299 0.929 . S
C278 C274 1.397 . S
C278 C277 1.389 . S
C278 H300 0.931 . S
C279 C276 1.481 . S
C279 C280 1.387 . S
C279 C284 1.390 . S
C280 C279 1.387 . S
C280 C281 1.401 . S
C280 H301 0.930 . S
C281 C280 1.401 . S
C281 C282 1.376 . S
C281 C290 1.511 . S
C282 C281 1.376 . S
C282 C283 1.392 . S
C282 H303 0.931 . S
C283 C282 1.392 . S
C283 C284 1.361 . S
C283 C285 1.500 . S
C284 C279 1.390 . S
C284 C283 1.361 . S
C284 H302 0.931 . S
C285 C283 1.500 . S
C285 C286 1.371 . S
C285 C287 1.365 . S
C286 C285 1.371 . S
C286 C296 1.386 . S
C286 H304 0.931 . S
C287 C285 1.365 . S
C287 C288 1.409 . S
C287 H305 0.929 . S
C288 C287 1.409 . S
C288 C289 1.380 . S
C288 H306 0.930 . S
C289 C288 1.380 . S
C289 C296 1.357 . S
C290 C281 1.511 . S
C290 C291 1.341 . S
C290 C292 1.371 . S
C291 C290 1.341 . S
C291 C295 1.394 . S
C291 H307 0.930 . S
C292 C290 1.371 . S
C292 C293 1.392 . S
C292 H308 0.931 . S
C293 C292 1.392 . S
C293 C294 1.331 . S
C293 H311 0.932 . S
C294 C293 1.331 . S
C294 C295 1.336 . S
C295 C291 1.394 . S
C295 C294 1.336 . S
C295 H310 0.929 . S
C296 C286 1.386 . S
C296 C289 1.357 . S
C296 H309 0.928 . S
H297 C273 0.931 . S
H298 C275 0.930 . S
H299 C277 0.929 . S
H300 C278 0.931 . S
H301 C280 0.930 . S
H302 C284 0.931 . S
H303 C282 0.931 . S
H304 C286 0.931 . S
H305 C287 0.929 . S
H306 C288 0.930 . S
H307 C291 0.930 . S
H308 C292 0.931 . S
H309 C296 0.928 . S
H310 C295 0.929 . S
H311 C293 0.932 . S
Co312 N317 2.057 . S
Co312 O329 2.021 . S
Co312 O332 2.062 . S
Co312 O336 2.117 1_545 S
Co312 O337 2.020 1_545 S
C313 O333 1.259 1_655 S
C313 O336 1.258 . S
Co314 N323 2.057 . S
Co314 O330 2.117 1_565 S
Co314 O331 2.020 1_565 S
Co314 O333 2.021 . S
Co314 O338 2.062 . S
C315 N317 1.316 . S
C315 N318 1.347 . S
C315 H320 0.931 . S
C316 N317 1.375 1_565 S
C316 C319 1.350 1_565 S
C316 H321 0.930 . S
N317 Co312 2.057 . S
N317 C315 1.316 . S
N317 C316 1.375 1_545 S
N318 C315 1.347 . S
N318 C319 1.373 . S
C319 C316 1.350 1_545 S
C319 N318 1.373 . S
C319 H340 0.931 1_545 S
H320 C315 0.931 . S
H321 C316 0.930 . S
C322 O329 1.259 1_455 S
C322 O330 1.258 . S
N323 Co314 2.057 . S
N323 C324 1.316 . S
N323 C325 1.375 1_565 S
C324 N323 1.316 . S
C324 N326 1.347 . S
C324 H335 0.931 . S
C325 N323 1.375 1_545 S
C325 C327 1.350 1_545 S
C325 H334 0.930 . S
N326 C324 1.347 . S
N326 C327 1.373 . S
C327 C325 1.350 1_565 S
C327 N326 1.373 . S
C327 H341 0.931 1_565 S
C328 O331 1.256 . S
C328 O332 1.255 1_455 S
O329 Co312 2.021 . S
O329 C322 1.259 1_655 S
O330 Co314 2.117 1_545 S
O330 C322 1.258 . S
O331 Co314 2.020 1_545 S
O331 C328 1.256 . S
O332 Co312 2.062 . S
O332 C328 1.255 1_655 S
O333 C313 1.259 1_455 S
O333 Co314 2.021 . S
H334 C325 0.930 . S
H335 C324 0.931 . S
O336 Co312 2.117 1_565 S
O336 C313 1.258 . S
O337 Co312 2.020 1_565 S
O337 C339 1.256 . S
O338 Co314 2.062 . S
O338 C339 1.255 1_455 S
C339 O337 1.256 . S
C339 O338 1.255 1_655 S
H340 C319 0.931 1_565 S
H341 C327 0.931 1_545 S
Co342 N347 2.057 . S
Co342 O359 2.021 1_565 S
Co342 O362 2.062 . S
Co342 O366 2.138 . S
Co342 O367 2.020 1_565 S
C343 O363 1.259 . S
C343 O366 1.221 1_554 S
Co344 N353 2.057 . S
Co344 O360 2.117 . S
Co344 O361 2.020 1_545 S
Co344 O363 2.021 1_545 S
Co344 O368 2.062 . S
C345 N347 1.316 . S
C345 N348 1.347 . S
C345 H350 0.931 1_565 S
C346 N347 1.375 . S
C346 C349 1.350 . S
C346 H351 0.930 . S
N347 Co342 2.057 . S
N347 C345 1.316 . S
N347 C346 1.375 . S
N348 C345 1.347 . S
N348 C349 1.373 . S
C349 C346 1.350 . S
C349 N348 1.373 . S
C349 H370 0.931 . S
H350 C345 0.931 1_545 S
H351 C346 0.930 . S
C352 O359 1.259 . S
C352 O360 1.258 1_556 S
N353 Co344 2.057 . S
N353 C354 1.316 . S
N353 C355 1.375 . S
C354 N353 1.316 . S
C354 N356 1.347 . S
C354 H365 0.931 1_545 S
C355 N353 1.375 . S
C355 C357 1.350 . S
C355 H364 0.930 . S
N356 C354 1.347 . S
N356 C357 1.373 . S
C357 C355 1.350 . S
C357 N356 1.373 . S
C357 H371 0.931 . S
C358 O361 1.256 1_556 S
C358 O362 1.255 . S
O359 Co342 2.021 1_545 S
O359 C352 1.259 . S
O360 Co344 2.117 . S
O360 C352 1.258 1_554 S
O361 Co344 2.020 1_565 S
O361 C358 1.256 1_554 S
O362 Co342 2.062 . S
O362 C358 1.255 . S
O363 C343 1.259 . S
O363 Co344 2.021 1_565 S
H364 C355 0.930 . S
H365 C354 0.931 1_565 S
O366 Co342 2.138 . S
O366 C343 1.221 1_556 S
O367 Co342 2.020 1_545 S
O367 C369 1.256 1_556 S
O368 Co344 2.062 . S
O368 C369 1.255 . S
C369 O367 1.256 1_554 S
C369 O368 1.255 . S
H370 C349 0.931 . S
H371 C357 0.931 . S
Co372 N377 2.057 . S
Co372 O389 2.021 . S
Co372 O392 2.062 . S
Co372 O396 2.117 . S
Co372 O397 2.020 . S
C373 O393 1.259 . S
C373 O396 1.258 . S
Co374 N383 2.057 . S
Co374 O390 2.117 . S
Co374 O391 2.020 . S
Co374 O393 2.021 . S
Co374 O398 2.062 . S
C375 N377 1.316 . S
C375 N378 1.347 . S
C375 H380 0.931 . S
C376 N377 1.375 . S
C376 C379 1.350 . S
C376 H381 0.930 . S
N377 Co372 2.057 . S
N377 C375 1.316 . S
N377 C376 1.375 . S
N378 C375 1.347 . S
N378 C379 1.373 . S
C379 C376 1.350 . S
C379 N378 1.373 . S
C379 H400 0.931 . S
H380 C375 0.931 . S
H381 C376 0.930 . S
C382 O389 1.259 . S
C382 O390 1.258 . S
N383 Co374 2.057 . S
N383 C384 1.316 . S
N383 C385 1.375 . S
C384 N383 1.316 . S
C384 N386 1.347 . S
C384 H395 0.931 . S
C385 N383 1.375 . S
C385 C387 1.350 . S
C385 H394 0.930 . S
N386 C384 1.347 . S
N386 C387 1.373 . S
C387 C385 1.350 . S
C387 N386 1.373 . S
C387 H401 0.931 . S
C388 O391 1.256 . S
C388 O392 1.255 . S
O389 Co372 2.021 . S
O389 C382 1.259 . S
O390 Co374 2.117 . S
O390 C382 1.258 . S
O391 Co374 2.020 . S
O391 C388 1.256 . S
O392 Co372 2.062 . S
O392 C388 1.255 . S
O393 C373 1.259 . S
O393 Co374 2.021 . S
H394 C385 0.930 . S
H395 C384 0.931 . S
O396 Co372 2.117 . S
O396 C373 1.258 . S
O397 Co372 2.020 . S
O397 C399 1.256 . S
O398 Co374 2.062 . S
O398 C399 1.255 . S
C399 O397 1.256 . S
C399 O398 1.255 . S
H400 C379 0.931 . S
H401 C387 0.931 . S
Co402 N407 2.057 . S
Co402 O419 2.021 . S
Co402 O422 2.062 . S
Co402 O426 2.117 1_455 S
Co402 O427 2.020 1_455 S
C403 O423 1.259 1_556 S
C403 O426 1.258 . S
Co404 N413 2.057 . S
Co404 O420 2.117 1_655 S
Co404 O421 2.020 1_655 S
Co404 O423 2.021 . S
Co404 O428 2.062 . S
C405 N407 1.316 . S
C405 N408 1.347 . S
C405 H410 0.931 . S
C406 N407 1.375 1_655 S
C406 C409 1.350 1_655 S
C406 H411 0.930 . S
N407 Co402 2.057 . S
N407 C405 1.316 . S
N407 C406 1.375 1_455 S
N408 C405 1.347 . S
N408 C409 1.373 . S
C409 C406 1.350 1_455 S
C409 N408 1.373 . S
C409 H430 0.931 1_455 S
H410 C405 0.931 . S
H411 C406 0.930 . S
C412 O419 1.259 1_554 S
C412 O420 1.258 . S
N413 Co404 2.057 . S
N413 C414 1.316 . S
N413 C415 1.375 1_655 S
C414 N413 1.316 . S
C414 N416 1.347 . S
C414 H425 0.931 . S
C415 N413 1.375 1_455 S
C415 C417 1.350 1_455 S
C415 H424 0.930 . S
N416 C414 1.347 . S
N416 C417 1.373 . S
C417 C415 1.350 1_655 S
C417 N416 1.373 . S
C417 H431 0.931 1_655 S
C418 O421 1.256 . S
C418 O422 1.255 1_554 S
O419 Co402 2.021 . S
O419 C412 1.259 1_556 S
O420 Co404 2.117 1_455 S
O420 C412 1.258 . S
O421 Co404 2.020 1_455 S
O421 C418 1.256 . S
O422 Co402 2.062 . S
O422 C418 1.255 1_556 S
O423 C403 1.259 1_554 S
O423 Co404 2.021 . S
H424 C415 0.930 . S
H425 C414 0.931 . S
O426 Co402 2.117 1_655 S
O426 C403 1.258 . S
O427 Co402 2.020 1_655 S
O427 C429 1.256 . S
O428 Co404 2.062 . S
O428 C429 1.255 1_554 S
C429 O427 1.256 . S
C429 O428 1.255 1_556 S
H430 C409 0.931 1_655 S
H431 C417 0.931 1_455 S
H432 C450 0.951 . S
H433 C452 0.951 . S
H434 C454 0.950 . S
H435 C455 0.950 . S
H436 C457 0.950 . S
H437 C460 0.950 . S
H438 C461 0.950 . S
H439 C463 0.950 . S
H440 C464 0.950 . S
H441 C465 0.951 1_565 S
H442 C467 0.951 . S
H443 C469 0.950 . S
H444 C470 0.950 . S
H445 C472 0.950 . S
H446 C475 0.950 1_455 S
H447 C476 0.950 . S
H448 C478 0.950 . S
H449 C479 0.950 . S
C450 H432 0.951 . S
C450 C451 1.366 . S
C450 C452 1.388 . S
C451 C450 1.366 . S
C451 C455 1.385 . S
C452 H433 0.951 . S
C452 C450 1.388 . S
C452 C453 1.366 . S
C453 C452 1.366 . S
C453 C454 1.414 . S
C453 C456 1.499 . S
C454 H434 0.950 . S
C454 C453 1.414 . S
C454 C455 1.374 . S
C455 H435 0.950 . S
C455 C451 1.385 . S
C455 C454 1.374 . S
C456 C453 1.499 . S
C456 C457 1.373 . S
C456 C458 1.389 . S
C457 H436 0.950 . S
C457 C456 1.373 . S
C457 C473 1.377 . S
C458 C456 1.389 . S
C458 C459 1.524 . S
C458 C472 1.377 . S
C459 C458 1.524 . S
C459 C460 1.397 . S
C459 C464 1.363 . S
C460 H437 0.950 . S
C460 C459 1.397 . S
C460 C461 1.334 . S
C461 H438 0.950 . S
C461 C460 1.334 . S
C461 C462 1.287 . S
C462 C461 1.287 . S
C462 C463 1.524 . S
C462 H481 0.913 . S
C463 H439 0.950 . S
C463 C462 1.524 . S
C463 C464 1.415 . S
C464 H440 0.950 . S
C464 C459 1.363 . S
C464 C463 1.415 . S
C465 H441 0.951 1_545 S
C465 C466 1.366 . S
C465 C467 1.388 . S
C466 C465 1.366 . S
C466 C470 1.385 . S
C467 H442 0.951 . S
C467 C465 1.388 . S
C467 C468 1.366 . S
C468 C467 1.366 . S
C468 C469 1.414 . S
C468 C471 1.499 . S
C469 H443 0.950 . S
C469 C468 1.414 . S
C469 C470 1.374 . S
C470 H444 0.950 . S
C470 C466 1.385 . S
C470 C469 1.374 . S
C471 C468 1.499 . S
C471 C472 1.373 . S
C471 C473 1.389 . S
C472 H445 0.950 . S
C472 C458 1.377 . S
C472 C471 1.373 . S
C473 C457 1.377 . S
C473 C471 1.389 . S
C473 C474 1.531 . S
C474 C473 1.531 . S
C474 C475 1.394 1_455 S
C474 C479 1.359 1_455 S
C475 H446 0.950 1_655 S
C475 C474 1.394 1_655 S
C475 C476 1.334 . S
C476 H447 0.950 . S
C476 C475 1.334 . S
C476 C477 1.287 . S
C477 C476 1.287 . S
C477 C478 1.524 . S
C477 H480 0.999 . S
C478 H448 0.950 . S
C478 C477 1.524 . S
C478 C479 1.415 . S
C479 H449 0.950 . S
C479 C474 1.359 1_655 S
C479 C478 1.415 . S
H480 C477 0.999 . S
H481 C462 0.913 . S
H482 C500 0.951 . S
H483 C502 0.951 . S
H484 C504 0.950 . S
H485 C505 0.950 . S
H486 C507 0.950 . S
H487 C510 0.950 . S
H488 C511 0.950 . S
H489 C513 0.950 . S
H490 C514 0.950 . S
H491 C515 0.951 . S
H492 C517 0.951 . S
H493 C519 0.950 . S
H494 C520 0.950 . S
H495 C522 0.950 . S
H496 C525 0.950 . S
H497 C526 0.950 . S
H498 C528 0.950 . S
H499 C529 0.950 . S
C500 H482 0.951 . S
C500 C501 1.366 . S
C500 C502 1.388 . S
C501 C500 1.366 . S
C501 C505 1.385 . S
C502 H483 0.951 . S
C502 C500 1.388 . S
C502 C503 1.366 . S
C503 C502 1.366 . S
C503 C504 1.414 . S
C503 C506 1.499 . S
C504 H484 0.950 . S
C504 C503 1.414 . S
C504 C505 1.374 . S
C505 H485 0.950 . S
C505 C501 1.385 . S
C505 C504 1.374 . S
C506 C503 1.499 . S
C506 C507 1.373 . S
C506 C508 1.389 . S
C507 H486 0.950 . S
C507 C506 1.373 . S
C507 C523 1.377 . S
C508 C506 1.389 . S
C508 C509 1.524 . S
C508 C522 1.377 . S
C509 C508 1.524 . S
C509 C510 1.397 . S
C509 C514 1.363 . S
C510 H487 0.950 . S
C510 C509 1.397 . S
C510 C511 1.334 . S
C511 H488 0.950 . S
C511 C510 1.334 . S
C511 C512 1.287 . S
C512 C511 1.287 . S
C512 C513 1.524 . S
C512 H531 0.913 . S
C513 H489 0.950 . S
C513 C512 1.524 . S
C513 C514 1.415 . S
C514 H490 0.950 . S
C514 C509 1.363 . S
C514 C513 1.415 . S
C515 H491 0.951 . S
C515 C516 1.366 . S
C515 C517 1.388 . S
C516 C515 1.366 . S
C516 C520 1.385 . S
C517 H492 0.951 . S
C517 C515 1.388 . S
C517 C518 1.366 . S
C518 C517 1.366 . S
C518 C519 1.414 . S
C518 C521 1.499 . S
C519 H493 0.950 . S
C519 C518 1.414 . S
C519 C520 1.374 . S
C520 H494 0.950 . S
C520 C516 1.385 . S
C520 C519 1.374 . S
C521 C518 1.499 . S
C521 C522 1.373 . S
C521 C523 1.389 . S
C522 H495 0.950 . S
C522 C508 1.377 . S
C522 C521 1.373 . S
C523 C507 1.377 . S
C523 C521 1.389 . S
C523 C524 1.524 . S
C524 C523 1.524 . S
C524 C525 1.397 . S
C524 C529 1.363 1_565 S
C525 H496 0.950 . S
C525 C524 1.397 . S
C525 C526 1.334 1_565 S
C526 H497 0.950 . S
C526 C525 1.334 1_545 S
C526 C527 1.287 . S
C527 C526 1.287 . S
C527 C528 1.524 . S
C527 H530 0.999 . S
C528 H498 0.950 . S
C528 C527 1.524 . S
C528 C529 1.415 . S
C529 H499 0.950 . S
C529 C524 1.363 1_545 S
C529 C528 1.415 . S
H530 C527 0.999 . S
H531 C512 0.913 . S
H532 C550 0.951 . S
H533 C552 0.951 . S
H534 C554 0.950 . S
H535 C555 0.950 . S
H536 C557 0.950 . S
H537 C560 0.950 . S
H538 C561 0.950 . S
H539 C563 0.950 . S
H540 C564 0.950 . S
H541 C565 0.951 . S
H542 C567 0.951 . S
H543 C569 0.950 . S
H544 C570 0.950 . S
H545 C572 0.950 . S
H546 C575 0.950 . S
H547 C576 0.950 . S
H548 C578 0.950 . S
H549 C579 0.950 . S
C550 H532 0.951 . S
C550 C551 1.366 . S
C550 C552 1.388 . S
C551 C550 1.366 . S
C551 C555 1.385 . S
C552 H533 0.951 . S
C552 C550 1.388 . S
C552 C553 1.366 . S
C553 C552 1.366 . S
C553 C554 1.414 . S
C553 C556 1.499 . S
C554 H534 0.950 . S
C554 C553 1.414 . S
C554 C555 1.374 . S
C555 H535 0.950 . S
C555 C551 1.385 . S
C555 C554 1.374 . S
C556 C553 1.499 . S
C556 C557 1.373 . S
C556 C558 1.389 . S
C557 H536 0.950 . S
C557 C556 1.373 . S
C557 C573 1.377 . S
C558 C556 1.389 . S
C558 C559 1.524 . S
C558 C572 1.377 . S
C559 C558 1.524 . S
C559 C560 1.397 . S
C559 C564 1.363 . S
C560 H537 0.950 . S
C560 C559 1.397 . S
C560 C561 1.334 . S
C561 H538 0.950 . S
C561 C560 1.334 . S
C561 C562 1.287 . S
C562 C561 1.287 . S
C562 C563 1.524 . S
C562 H581 0.913 . S
C563 H539 0.950 . S
C563 C562 1.524 . S
C563 C564 1.415 . S
C564 H540 0.950 . S
C564 C559 1.363 . S
C564 C563 1.415 . S
C565 H541 0.951 . S
C565 C566 1.366 . S
C565 C567 1.388 . S
C566 C565 1.366 . S
C566 C570 1.385 . S
C567 H542 0.951 . S
C567 C565 1.388 . S
C567 C568 1.366 . S
C568 C567 1.366 . S
C568 C569 1.414 . S
C568 C571 1.499 . S
C569 H543 0.950 . S
C569 C568 1.414 . S
C569 C570 1.374 . S
C570 H544 0.950 . S
C570 C566 1.385 . S
C570 C569 1.374 . S
C571 C568 1.499 . S
C571 C572 1.373 . S
C571 C573 1.389 . S
C572 H545 0.950 . S
C572 C558 1.377 . S
C572 C571 1.373 . S
C573 C557 1.377 . S
C573 C571 1.389 . S
C573 C574 1.524 . S
C574 C573 1.524 . S
C574 C575 1.397 . S
C574 C579 1.363 . S
C575 H546 0.950 . S
C575 C574 1.397 . S
C575 C576 1.334 . S
C576 H547 0.950 . S
C576 C575 1.334 . S
C576 C577 1.287 . S
C577 C576 1.287 . S
C577 C578 1.524 . S
C577 H580 0.999 . S
C578 H548 0.950 . S
C578 C577 1.524 . S
C578 C579 1.415 . S
C579 H549 0.950 . S
C579 C574 1.363 . S
C579 C578 1.415 . S
H580 C577 0.999 . S
H581 C562 0.913 . S
H582 C600 0.951 . S
H583 C602 0.951 . S
H584 C604 0.950 . S
H585 C605 0.950 . S
H586 C607 0.950 . S
H587 C610 0.950 . S
H588 C611 0.950 . S
H589 C613 0.950 . S
H590 C614 0.950 . S
H591 C615 0.951 . S
H592 C617 0.951 . S
H593 C619 0.950 . S
H594 C620 0.950 . S
H595 C622 0.950 . S
H596 C625 0.950 . S
H597 C626 0.950 . S
H598 C628 0.950 . S
H599 C629 0.950 . S
C600 H582 0.951 . S
C600 C601 1.366 . S
C600 C602 1.388 . S
C601 C600 1.366 . S
C601 C605 1.385 . S
C602 H583 0.951 . S
C602 C600 1.388 . S
C602 C603 1.366 . S
C603 C602 1.366 . S
C603 C604 1.414 . S
C603 C606 1.499 . S
C604 H584 0.950 . S
C604 C603 1.414 . S
C604 C605 1.374 . S
C605 H585 0.950 . S
C605 C601 1.385 . S
C605 C604 1.374 . S
C606 C603 1.499 . S
C606 C607 1.373 . S
C606 C608 1.389 . S
C607 H586 0.950 . S
C607 C606 1.373 . S
C607 C623 1.377 . S
C608 C606 1.389 . S
C608 C609 1.524 . S
C608 C622 1.377 . S
C609 C608 1.524 . S
C609 C610 1.397 . S
C609 C614 1.363 1_655 S
C610 H587 0.950 . S
C610 C609 1.397 . S
C610 C611 1.334 1_655 S
C611 H588 0.950 . S
C611 C610 1.334 1_455 S
C611 C612 1.287 . S
C612 C611 1.287 . S
C612 C613 1.524 . S
C612 H631 0.913 . S
C613 H589 0.950 . S
C613 C612 1.524 . S
C613 C614 1.415 . S
C614 H590 0.950 . S
C614 C609 1.363 1_455 S
C614 C613 1.415 . S
C615 H591 0.951 . S
C615 C616 1.366 . S
C615 C617 1.388 . S
C616 C615 1.366 . S
C616 C620 1.385 . S
C617 H592 0.951 . S
C617 C615 1.388 . S
C617 C618 1.366 . S
C618 C617 1.366 . S
C618 C619 1.414 . S
C618 C621 1.499 . S
C619 H593 0.950 . S
C619 C618 1.414 . S
C619 C620 1.374 . S
C620 H594 0.950 . S
C620 C616 1.385 . S
C620 C619 1.374 . S
C621 C618 1.499 . S
C621 C622 1.373 . S
C621 C623 1.389 . S
C622 H595 0.950 . S
C622 C608 1.377 . S
C622 C621 1.373 . S
C623 C607 1.377 . S
C623 C621 1.389 . S
C623 C624 1.524 . S
C624 C623 1.524 . S
C624 C625 1.397 . S
C624 C629 1.363 . S
C625 H596 0.950 . S
C625 C624 1.397 . S
C625 C626 1.334 . S
C626 H597 0.950 . S
C626 C625 1.334 . S
C626 C627 1.287 . S
C627 C626 1.287 . S
C627 C628 1.524 . S
C627 H630 0.999 . S
C628 H598 0.950 . S
C628 C627 1.524 . S
C628 C629 1.415 . S
C629 H599 0.950 . S
C629 C624 1.363 . S
C629 C628 1.415 . S
H630 C627 0.999 . S
H631 C612 0.913 . S
H632 C650 0.951 . S
H633 C652 0.951 . S
H634 C654 0.950 . S
H635 C655 0.950 . S
H636 C657 0.950 . S
H637 C660 0.950 . S
H638 C661 0.950 . S
H639 C663 0.950 . S
H640 C664 0.950 . S
H641 C665 0.951 1_556 S
H642 C667 0.951 . S
H643 C669 0.950 . S
H644 C670 0.950 . S
H645 C672 0.950 . S
H646 C675 0.950 . S
H647 C676 0.950 . S
H648 C678 0.950 . S
H649 C679 0.950 . S
C650 H632 0.951 . S
C650 C651 1.366 . S
C650 C652 1.388 . S
C651 C650 1.366 . S
C651 C655 1.385 . S
C652 H633 0.951 . S
C652 C650 1.388 . S
C652 C653 1.366 . S
C653 C652 1.366 . S
C653 C654 1.414 . S
C653 C656 1.499 . S
C654 H634 0.950 . S
C654 C653 1.414 . S
C654 C655 1.374 . S
C655 H635 0.950 . S
C655 C651 1.385 . S
C655 C654 1.374 . S
C656 C653 1.499 . S
C656 C657 1.373 . S
C656 C658 1.389 . S
C657 H636 0.950 . S
C657 C656 1.373 . S
C657 C673 1.377 . S
C658 C656 1.389 . S
C658 C659 1.524 . S
C658 C672 1.377 . S
C659 C658 1.524 . S
C659 C660 1.397 . S
C659 C664 1.363 . S
C660 H637 0.950 . S
C660 C659 1.397 . S
C660 C661 1.334 . S
C661 H638 0.950 . S
C661 C660 1.334 . S
C661 C662 1.287 . S
C662 C661 1.287 . S
C662 C663 1.524 . S
C662 H681 0.913 . S
C663 H639 0.950 . S
C663 C662 1.524 . S
C663 C664 1.415 . S
C664 H640 0.950 . S
C664 C659 1.363 . S
C664 C663 1.415 . S
C665 H641 0.951 1_554 S
C665 C666 1.366 . S
C665 C667 1.388 . S
C666 C665 1.366 . S
C666 C670 1.385 . S
C667 H642 0.951 . S
C667 C665 1.388 . S
C667 C668 1.366 . S
C668 C667 1.366 . S
C668 C669 1.414 . S
C668 C671 1.499 . S
C669 H643 0.950 . S
C669 C668 1.414 . S
C669 C670 1.374 . S
C670 H644 0.950 . S
C670 C666 1.385 . S
C670 C669 1.374 . S
C671 C668 1.499 . S
C671 C672 1.373 . S
C671 C673 1.389 . S
C672 H645 0.950 . S
C672 C658 1.377 . S
C672 C671 1.373 . S
C673 C657 1.377 . S
C673 C671 1.389 . S
C673 C674 1.524 1_545 S
C674 C673 1.524 1_565 S
C674 C675 1.397 . S
C674 C679 1.363 . S
C675 H646 0.950 . S
C675 C674 1.397 . S
C675 C676 1.334 . S
C676 H647 0.950 . S
C676 C675 1.334 . S
C676 C677 1.287 . S
C677 C676 1.287 . S
C677 C678 1.524 . S
C677 H680 0.999 . S
C678 H648 0.950 . S
C678 C677 1.524 . S
C678 C679 1.415 . S
C679 H649 0.950 . S
C679 C674 1.363 . S
C679 C678 1.415 . S
H680 C677 0.999 . S
H681 C662 0.913 . S
H682 C700 0.951 . S
H683 C702 0.951 . S
H684 C704 0.950 . S
H685 C705 0.950 . S
H686 C707 0.950 . S
H687 C710 0.950 . S
H688 C711 0.950 . S
H689 C713 0.950 . S
H690 C714 0.950 . S
H691 C715 0.951 . S
H692 C717 0.951 . S
H693 C719 0.950 . S
H694 C720 0.950 . S
H695 C722 0.950 . S
H696 C725 0.950 . S
H697 C726 0.950 . S
H698 C728 0.950 . S
H699 C729 0.950 . S
C700 H682 0.951 . S
C700 C701 1.366 . S
C700 C702 1.388 . S
C701 C700 1.366 . S
C701 C705 1.385 . S
C702 H683 0.951 . S
C702 C700 1.388 . S
C702 C703 1.366 . S
C703 C702 1.366 . S
C703 C704 1.414 . S
C703 C706 1.499 . S
C704 H684 0.950 . S
C704 C703 1.414 . S
C704 C705 1.374 . S
C705 H685 0.950 . S
C705 C701 1.385 . S
C705 C704 1.374 . S
C706 C703 1.499 . S
C706 C707 1.373 . S
C706 C708 1.389 . S
C707 H686 0.950 . S
C707 C706 1.373 . S
C707 C723 1.377 . S
C708 C706 1.389 . S
C708 C709 1.524 . S
C708 C722 1.377 . S
C709 C708 1.524 . S
C709 C710 1.397 . S
C709 C714 1.363 . S
C710 H687 0.950 . S
C710 C709 1.397 . S
C710 C711 1.334 . S
C711 H688 0.950 . S
C711 C710 1.334 . S
C711 C712 1.287 . S
C712 C711 1.287 . S
C712 C713 1.524 . S
C712 H731 0.913 . S
C713 H689 0.950 . S
C713 C712 1.524 . S
C713 C714 1.415 . S
C714 H690 0.950 . S
C714 C709 1.363 . S
C714 C713 1.415 . S
C715 H691 0.951 . S
C715 C716 1.366 . S
C715 C717 1.388 . S
C716 C715 1.366 . S
C716 C720 1.385 . S
C717 H692 0.951 . S
C717 C715 1.388 . S
C717 C718 1.366 . S
C718 C717 1.366 . S
C718 C719 1.414 . S
C718 C721 1.499 . S
C719 H693 0.950 . S
C719 C718 1.414 . S
C719 C720 1.374 . S
C720 H694 0.950 . S
C720 C716 1.385 . S
C720 C719 1.374 . S
C721 C718 1.499 . S
C721 C722 1.373 . S
C721 C723 1.389 . S
C722 H695 0.950 . S
C722 C708 1.377 . S
C722 C721 1.373 . S
C723 C707 1.377 . S
C723 C721 1.389 . S
C723 C724 1.524 . S
C724 C723 1.524 . S
C724 C725 1.397 . S
C724 C729 1.363 . S
C725 H696 0.950 . S
C725 C724 1.397 . S
C725 C726 1.334 . S
C726 H697 0.950 . S
C726 C725 1.334 . S
C726 C727 1.287 . S
C727 C726 1.287 . S
C727 C728 1.524 . S
C727 H730 0.999 . S
C728 H698 0.950 . S
C728 C727 1.524 . S
C728 C729 1.415 . S
C729 H699 0.950 . S
C729 C724 1.363 . S
C729 C728 1.415 . S
H730 C727 0.999 . S
H731 C712 0.913 . S
H732 C750 0.951 . S
H733 C752 0.951 . S
H734 C754 0.950 . S
H735 C755 0.950 . S
H736 C757 0.950 . S
H737 C760 0.950 . S
H738 C761 0.950 . S
H739 C763 0.950 . S
H740 C764 0.950 . S
H741 C765 0.951 1_554 S
H742 C767 0.951 1_554 S
H743 C769 0.950 . S
H744 C770 0.950 . S
H745 C772 0.950 . S
H746 C775 0.950 . S
H747 C776 0.950 . S
H748 C778 0.950 . S
H749 C779 0.950 . S
C750 H732 0.951 . S
C750 C751 1.366 . S
C750 C752 1.388 . S
C751 C750 1.366 . S
C751 C755 1.385 . S
C752 H733 0.951 . S
C752 C750 1.388 . S
C752 C753 1.366 . S
C753 C752 1.366 . S
C753 C754 1.414 . S
C753 C756 1.499 . S
C754 H734 0.950 . S
C754 C753 1.414 . S
C754 C755 1.374 . S
C755 H735 0.950 . S
C755 C751 1.385 . S
C755 C754 1.374 . S
C756 C753 1.499 . S
C756 C757 1.373 . S
C756 C758 1.389 . S
C757 H736 0.950 . S
C757 C756 1.373 . S
C757 C773 1.377 . S
C758 C756 1.389 . S
C758 C759 1.524 . S
C758 C772 1.377 . S
C759 C758 1.524 . S
C759 C760 1.397 . S
C759 C764 1.363 . S
C760 H737 0.950 . S
C760 C759 1.397 . S
C760 C761 1.334 . S
C761 H738 0.950 . S
C761 C760 1.334 . S
C761 C762 1.287 . S
C762 C761 1.287 . S
C762 C763 1.524 . S
C762 H781 0.913 . S
C763 H739 0.950 . S
C763 C762 1.524 . S
C763 C764 1.415 . S
C764 H740 0.950 . S
C764 C759 1.363 . S
C764 C763 1.415 . S
C765 H741 0.951 1_556 S
C765 C766 1.366 . S
C765 C767 1.388 . S
C766 C765 1.366 . S
C766 C770 1.385 . S
C767 H742 0.951 1_556 S
C767 C765 1.388 . S
C767 C768 1.366 . S
C768 C767 1.366 . S
C768 C769 1.414 . S
C768 C771 1.499 . S
C769 H743 0.950 . S
C769 C768 1.414 . S
C769 C770 1.374 . S
C770 H744 0.950 . S
C770 C766 1.385 . S
C770 C769 1.374 . S
C771 C768 1.499 . S
C771 C772 1.373 . S
C771 C773 1.389 . S
C772 H745 0.950 . S
C772 C758 1.377 . S
C772 C771 1.373 . S
C773 C757 1.377 . S
C773 C771 1.389 . S
C773 C774 1.524 . S
C774 C773 1.524 . S
C774 C775 1.397 . S
C774 C779 1.363 1_556 S
C775 H746 0.950 . S
C775 C774 1.397 . S
C775 C776 1.334 1_556 S
C776 H747 0.950 . S
C776 C775 1.334 1_554 S
C776 C777 1.287 . S
C777 C776 1.287 . S
C777 C778 1.524 . S
C777 H780 0.999 . S
C778 H748 0.950 . S
C778 C777 1.524 . S
C778 C779 1.415 . S
C779 H749 0.950 . S
C779 C774 1.363 1_554 S
C779 C778 1.415 . S
H780 C777 0.999 . S
H781 C762 0.913 . S
H782 C800 0.951 . S
H783 C802 0.951 . S
H784 C804 0.950 . S
H785 C805 0.950 . S
H786 C807 0.950 . S
H787 C810 0.950 . S
H788 C811 0.950 . S
H789 C813 0.950 . S
H790 C814 0.950 . S
H791 C815 0.951 . S
H792 C817 0.951 . S
H793 C819 0.950 . S
H794 C820 0.950 . S
H795 C822 0.950 . S
H796 C825 0.950 . S
H797 C826 0.950 . S
H798 C828 0.950 . S
H799 C829 0.950 . S
C800 H782 0.951 . S
C800 C801 1.366 . S
C800 C802 1.388 . S
C801 C800 1.366 . S
C801 C805 1.385 . S
C802 H783 0.951 . S
C802 C800 1.388 . S
C802 C803 1.366 . S
C803 C802 1.366 . S
C803 C804 1.414 . S
C803 C806 1.499 . S
C804 H784 0.950 . S
C804 C803 1.414 . S
C804 C805 1.374 . S
C805 H785 0.950 . S
C805 C801 1.385 . S
C805 C804 1.374 . S
C806 C803 1.499 . S
C806 C807 1.373 . S
C806 C808 1.389 . S
C807 H786 0.950 . S
C807 C806 1.373 . S
C807 C823 1.377 . S
C808 C806 1.389 . S
C808 C809 1.524 . S
C808 C822 1.377 . S
C809 C808 1.524 . S
C809 C810 1.397 . S
C809 C814 1.363 . S
C810 H787 0.950 . S
C810 C809 1.397 . S
C810 C811 1.334 . S
C811 H788 0.950 . S
C811 C810 1.334 . S
C811 C812 1.287 . S
C812 C811 1.287 . S
C812 C813 1.524 . S
C812 H831 0.913 . S
C813 H789 0.950 . S
C813 C812 1.524 . S
C813 C814 1.415 . S
C814 H790 0.950 . S
C814 C809 1.363 . S
C814 C813 1.415 . S
C815 H791 0.951 . S
C815 C816 1.366 . S
C815 C817 1.388 . S
C816 C815 1.366 . S
C816 C820 1.385 . S
C817 H792 0.951 . S
C817 C815 1.388 . S
C817 C818 1.366 . S
C818 C817 1.366 . S
C818 C819 1.414 . S
C818 C821 1.499 . S
C819 H793 0.950 . S
C819 C818 1.414 . S
C819 C820 1.374 . S
C820 H794 0.950 . S
C820 C816 1.385 . S
C820 C819 1.374 . S
C821 C818 1.499 . S
C821 C822 1.373 . S
C821 C823 1.389 . S
C822 H795 0.950 . S
C822 C808 1.377 . S
C822 C821 1.373 . S
C823 C807 1.377 . S
C823 C821 1.389 . S
C823 C824 1.524 . S
C824 C823 1.524 . S
C824 C825 1.397 . S
C824 C829 1.363 . S
C825 H796 0.950 . S
C825 C824 1.397 . S
C825 C826 1.334 . S
C826 H797 0.950 . S
C826 C825 1.334 . S
C826 C827 1.287 . S
C827 C826 1.287 . S
C827 C828 1.524 . S
C827 H830 0.999 . S
C828 H798 0.950 . S
C828 C827 1.524 . S
C828 C829 1.415 . S
C829 H799 0.950 . S
C829 C824 1.363 . S
C829 C828 1.415 . S
H830 C827 0.999 . S
H831 C812 0.913 . S
H832 C850 0.951 . S
H833 C852 0.951 . S
H834 C854 0.950 . S
H835 C855 0.950 . S
H836 C857 0.950 . S
H837 C860 0.950 . S
H838 C861 0.950 . S
H839 C863 0.950 . S
H840 C864 0.950 . S
H841 C865 0.951 . S
H842 C867 0.951 . S
H843 C869 0.950 . S
H844 C870 0.950 1_556 S
H845 C872 0.950 . S
H846 C875 0.950 . S
H847 C876 0.950 . S
H848 C878 0.950 . S
H849 C879 0.950 . S
C850 H832 0.951 . S
C850 C851 1.366 . S
C850 C852 1.388 . S
C851 C850 1.366 . S
C851 C855 1.385 . S
C852 H833 0.951 . S
C852 C850 1.388 . S
C852 C853 1.366 . S
C853 C852 1.366 . S
C853 C854 1.414 . S
C853 C856 1.499 . S
C854 H834 0.950 . S
C854 C853 1.414 . S
C854 C855 1.374 . S
C855 H835 0.950 . S
C855 C851 1.385 . S
C855 C854 1.374 . S
C856 C853 1.499 . S
C856 C857 1.373 . S
C856 C858 1.389 . S
C857 H836 0.950 . S
C857 C856 1.373 . S
C857 C873 1.377 . S
C858 C856 1.389 . S
C858 C859 1.524 . S
C858 C872 1.377 . S
C859 C858 1.524 . S
C859 C860 1.397 . S
C859 C864 1.363 1_554 S
C860 H837 0.950 . S
C860 C859 1.397 . S
C860 C861 1.334 . S
C861 H838 0.950 . S
C861 C860 1.334 . S
C861 C862 1.287 1_554 S
C862 C861 1.287 1_556 S
C862 C863 1.524 . S
C862 H881 0.913 . S
C863 H839 0.950 . S
C863 C862 1.524 . S
C863 C864 1.415 . S
C864 H840 0.950 . S
C864 C859 1.363 1_556 S
C864 C863 1.415 . S
C865 H841 0.951 . S
C865 C866 1.366 . S
C865 C867 1.388 . S
C866 C865 1.366 . S
C866 C870 1.385 . S
C867 H842 0.951 . S
C867 C865 1.388 . S
C867 C868 1.366 . S
C868 C867 1.366 . S
C868 C869 1.414 . S
C868 C871 1.499 . S
C869 H843 0.950 . S
C869 C868 1.414 . S
C869 C870 1.374 . S
C870 H844 0.950 1_554 S
C870 C866 1.385 . S
C870 C869 1.374 . S
C871 C868 1.499 . S
C871 C872 1.373 . S
C871 C873 1.389 . S
C872 H845 0.950 . S
C872 C858 1.377 . S
C872 C871 1.373 . S
C873 C857 1.377 . S
C873 C871 1.389 . S
C873 C874 1.524 . S
C874 C873 1.524 . S
C874 C875 1.397 1_455 S
C874 C879 1.363 . S
C875 H846 0.950 . S
C875 C874 1.397 1_655 S
C875 C876 1.334 . S
C876 H847 0.950 . S
C876 C875 1.334 . S
C876 C877 1.287 . S
C877 C876 1.287 . S
C877 C878 1.524 1_655 S
C877 H880 0.999 . S
C878 H848 0.950 . S
C878 C877 1.524 1_455 S
C878 C879 1.415 . S
C879 H849 0.950 . S
C879 C874 1.363 . S
C879 C878 1.415 . S
H880 C877 0.999 . S
H881 C862 0.913 . S
H882 C900 0.951 . S
H883 C902 0.951 . S
H884 C904 0.950 . S
H885 C905 0.950 . S
H886 C907 0.950 . S
H887 C910 0.950 . S
H888 C911 0.947 1_556 S
H889 C913 0.950 . S
H890 C914 0.950 . S
H891 C915 0.951 . S
H892 C917 0.951 . S
H893 C919 0.950 . S
H894 C920 0.947 . S
H895 C922 0.950 . S
H896 C925 0.950 . S
H897 C926 0.950 . S
H898 C928 0.950 . S
H899 C929 0.950 . S
C900 H882 0.951 . S
C900 C901 1.366 . S
C900 C902 1.388 . S
C901 C900 1.366 . S
C901 C905 1.385 . S
C902 H883 0.951 . S
C902 C900 1.388 . S
C902 C903 1.366 . S
C903 C902 1.366 . S
C903 C904 1.414 . S
C903 C906 1.499 . S
C904 H884 0.950 . S
C904 C903 1.414 . S
C904 C905 1.374 . S
C905 H885 0.950 . S
C905 C901 1.385 . S
C905 C904 1.374 . S
C906 C903 1.499 . S
C906 C907 1.373 . S
C906 C908 1.389 . S
C907 H886 0.950 . S
C907 C906 1.373 . S
C907 C923 1.377 . S
C908 C906 1.389 . S
C908 C909 1.524 . S
C908 C922 1.377 . S
C909 C908 1.524 . S
C909 C910 1.397 . S
C909 C914 1.363 1_556 S
C910 H887 0.950 . S
C910 C909 1.397 . S
C910 C911 1.316 1_556 S
C911 H888 0.947 1_554 S
C911 C910 1.316 1_554 S
C911 C912 1.309 . S
C912 C911 1.309 . S
C912 C913 1.524 . S
C912 H931 0.913 . S
C913 H889 0.950 . S
C913 C912 1.524 . S
C913 C914 1.415 . S
C914 H890 0.950 . S
C914 C909 1.363 1_554 S
C914 C913 1.415 . S
C915 H891 0.951 . S
C915 C916 1.366 . S
C915 C917 1.388 . S
C916 C915 1.366 . S
C916 C920 1.385 . S
C917 H892 0.951 . S
C917 C915 1.388 . S
C917 C918 1.366 . S
C918 C917 1.366 . S
C918 C919 1.414 . S
C918 C921 1.499 . S
C919 H893 0.950 . S
C919 C918 1.414 . S
C919 C920 1.374 . S
C920 H894 0.947 . S
C920 C916 1.385 . S
C920 C919 1.374 . S
C921 C918 1.499 . S
C921 C922 1.373 . S
C921 C923 1.389 . S
C922 H895 0.950 . S
C922 C908 1.377 . S
C922 C921 1.373 . S
C923 C907 1.377 . S
C923 C921 1.389 . S
C923 C924 1.524 . S
C924 C923 1.524 . S
C924 C925 1.397 . S
C924 C929 1.363 . S
C925 H896 0.950 . S
C925 C924 1.397 . S
C925 C926 1.334 . S
C926 H897 0.950 . S
C926 C925 1.334 . S
C926 C927 1.287 . S
C927 C926 1.287 . S
C927 C928 1.524 . S
C927 H930 0.999 . S
C928 H898 0.950 . S
C928 C927 1.524 . S
C928 C929 1.415 . S
C929 H899 0.950 . S
C929 C924 1.363 . S
C929 C928 1.415 . S
H930 C927 0.999 . S
H931 C912 0.913 . S
H932 C950 0.951 . S
H933 C952 0.951 . S
H934 C954 0.950 . S
H935 C955 0.950 . S
H936 C957 0.950 . S
H937 C960 0.950 . S
H938 C961 0.950 . S
H939 C963 0.950 . S
H940 C964 0.950 . S
H941 C965 0.951 . S
H942 C967 0.951 . S
H943 C969 0.950 . S
H944 C970 0.950 . S
H945 C972 0.950 . S
H946 C975 0.950 . S
H947 C976 0.950 . S
H948 C978 0.950 . S
H949 C979 0.950 1_655 S
C950 H932 0.951 . S
C950 C951 1.366 . S
C950 C952 1.388 . S
C951 C950 1.366 . S
C951 C955 1.385 . S
C952 H933 0.951 . S
C952 C950 1.388 . S
C952 C953 1.366 . S
C953 C952 1.366 . S
C953 C954 1.414 . S
C953 C956 1.499 . S
C954 H934 0.950 . S
C954 C953 1.414 . S
C954 C955 1.374 . S
C955 H935 0.950 . S
C955 C951 1.385 . S
C955 C954 1.374 . S
C956 C953 1.499 . S
C956 C957 1.373 . S
C956 C958 1.389 . S
C957 H936 0.950 . S
C957 C956 1.373 . S
C957 C973 1.377 . S
C958 C956 1.389 . S
C958 C959 1.524 . S
C958 C972 1.377 . S
C959 C958 1.524 . S
C959 C960 1.397 . S
C959 C964 1.363 . S
C960 H937 0.950 . S
C960 C959 1.397 . S
C960 C961 1.334 . S
C961 H938 0.950 . S
C961 C960 1.334 . S
C961 C962 1.287 . S
C962 C961 1.287 . S
C962 C963 1.524 . S
C962 H981 0.913 . S
C963 H939 0.950 . S
C963 C962 1.524 . S
C963 C964 1.415 . S
C964 H940 0.950 . S
C964 C959 1.363 . S
C964 C963 1.415 . S
C965 H941 0.951 . S
C965 C966 1.366 . S
C965 C967 1.388 . S
C966 C965 1.366 . S
C966 C970 1.385 . S
C967 H942 0.951 . S
C967 C965 1.388 . S
C967 C968 1.366 . S
C968 C967 1.366 . S
C968 C969 1.414 . S
C968 C971 1.499 . S
C969 H943 0.950 . S
C969 C968 1.414 . S
C969 C970 1.374 . S
C970 H944 0.950 . S
C970 C966 1.385 . S
C970 C969 1.374 . S
C971 C968 1.499 . S
C971 C972 1.373 . S
C971 C973 1.389 . S
C972 H945 0.950 . S
C972 C958 1.377 . S
C972 C971 1.373 . S
C973 C957 1.377 . S
C973 C971 1.389 . S
C973 C974 1.524 1_655 S
C974 C973 1.524 1_455 S
C974 C975 1.397 . S
C974 C979 1.363 . S
C975 H946 0.950 . S
C975 C974 1.397 . S
C975 C976 1.334 . S
C976 H947 0.950 . S
C976 C975 1.334 . S
C976 C977 1.287 . S
C977 C976 1.287 . S
C977 C978 1.524 . S
C977 H980 0.999 . S
C978 H948 0.950 . S
C978 C977 1.524 . S
C978 C979 1.415 . S
C979 H949 0.950 1_455 S
C979 C974 1.363 . S
C979 C978 1.415 . S
H980 C977 0.999 . S
H981 C962 0.913 . S
H982 C1000 0.951 . S
H983 C1002 0.951 . S
H984 C1004 0.950 . S
H985 C1005 0.950 . S
H986 C1007 0.950 . S
H987 C1010 0.950 . S
H988 C1011 0.950 . S
H989 C1013 0.950 . S
H990 C1014 0.950 . S
H991 C1015 0.951 . S
H992 C1017 0.951 . S
H993 C1019 0.950 . S
H994 C1020 0.950 . S
H995 C1022 0.950 . S
H996 C1025 0.950 . S
H997 C1026 0.950 . S
H998 C1028 0.950 . S
H999 C1029 0.950 . S
C1000 H982 0.951 . S
C1000 C1001 1.366 . S
C1000 C1002 1.388 . S
C1001 C1000 1.366 . S
C1001 C1005 1.385 . S
C1002 H983 0.951 . S
C1002 C1000 1.388 . S
C1002 C1003 1.366 . S
C1003 C1002 1.366 . S
C1003 C1004 1.414 . S
C1003 C1006 1.499 . S
C1004 H984 0.950 . S
C1004 C1003 1.414 . S
C1004 C1005 1.374 . S
C1005 H985 0.950 . S
C1005 C1001 1.385 . S
C1005 C1004 1.374 . S
C1006 C1003 1.499 . S
C1006 C1007 1.373 . S
C1006 C1008 1.389 . S
C1007 H986 0.950 . S
C1007 C1006 1.373 . S
C1007 C1023 1.377 . S
C1008 C1006 1.389 . S
C1008 C1009 1.524 . S
C1008 C1022 1.377 . S
C1009 C1008 1.524 . S
C1009 C1010 1.397 . S
C1009 C1014 1.363 . S
C1010 H987 0.950 . S
C1010 C1009 1.397 . S
C1010 C1011 1.334 . S
C1011 H988 0.950 . S
C1011 C1010 1.334 . S
C1011 C1012 1.287 . S
C1012 C1011 1.287 . S
C1012 C1013 1.524 . S
C1012 H1031 0.913 . S
C1013 H989 0.950 . S
C1013 C1012 1.524 . S
C1013 C1014 1.415 . S
C1014 H990 0.950 . S
C1014 C1009 1.363 . S
C1014 C1013 1.415 . S
C1015 H991 0.951 . S
C1015 C1016 1.366 . S
C1015 C1017 1.388 . S
C1016 C1015 1.366 . S
C1016 C1020 1.385 . S
C1017 H992 0.951 . S
C1017 C1015 1.388 . S
C1017 C1018 1.366 . S
C1018 C1017 1.366 . S
C1018 C1019 1.414 . S
C1018 C1021 1.499 . S
C1019 H993 0.950 . S
C1019 C1018 1.414 . S
C1019 C1020 1.374 . S
C1020 H994 0.950 . S
C1020 C1016 1.385 . S
C1020 C1019 1.374 . S
C1021 C1018 1.499 . S
C1021 C1022 1.373 . S
C1021 C1023 1.389 . S
C1022 H995 0.950 . S
C1022 C1008 1.377 . S
C1022 C1021 1.373 . S
C1023 C1007 1.377 . S
C1023 C1021 1.389 . S
C1023 C1024 1.524 . S
C1024 C1023 1.524 . S
C1024 C1025 1.397 . S
C1024 C1029 1.363 . S
C1025 H996 0.950 . S
C1025 C1024 1.397 . S
C1025 C1026 1.334 . S
C1026 H997 0.950 . S
C1026 C1025 1.334 . S
C1026 C1027 1.287 . S
C1027 C1026 1.287 . S
C1027 C1028 1.524 . S
C1027 H1030 0.999 . S
C1028 H998 0.950 . S
C1028 C1027 1.524 . S
C1028 C1029 1.415 . S
C1029 H999 0.950 . S
C1029 C1024 1.363 . S
C1029 C1028 1.415 . S
H1030 C1027 0.999 . S
H1031 C1012 0.913 . S
H1032 C1050 0.951 . S
H1033 C1052 0.951 . S
H1034 C1054 0.950 . S
H1035 C1055 0.950 . S
H1036 C1057 0.950 . S
H1037 C1060 0.950 . S
H1038 C1061 0.950 . S
H1039 C1063 0.950 . S
H1040 C1064 0.950 . S
H1041 C1065 0.951 1_455 S
H1042 C1067 0.953 . S
H1043 C1069 0.950 . S
H1044 C1070 0.950 . S
H1045 C1072 0.950 . S
H1046 C1075 0.950 . S
H1047 C1076 0.950 . S
H1048 C1078 0.956 . S
H1049 C1079 0.950 . S
C1050 H1032 0.951 . S
C1050 C1051 1.366 . S
C1050 C1052 1.388 . S
C1051 C1050 1.366 . S
C1051 C1055 1.385 . S
C1052 H1033 0.951 . S
C1052 C1050 1.388 . S
C1052 C1053 1.366 . S
C1053 C1052 1.366 . S
C1053 C1054 1.414 . S
C1053 C1056 1.499 . S
C1054 H1034 0.950 . S
C1054 C1053 1.414 . S
C1054 C1055 1.374 . S
C1055 H1035 0.950 . S
C1055 C1051 1.385 . S
C1055 C1054 1.374 . S
C1056 C1053 1.499 . S
C1056 C1057 1.373 . S
C1056 C1058 1.389 . S
C1057 H1036 0.950 . S
C1057 C1056 1.373 . S
C1057 C1073 1.377 . S
C1058 C1056 1.389 . S
C1058 C1059 1.524 . S
C1058 C1072 1.377 . S
C1059 C1058 1.524 . S
C1059 C1060 1.397 . S
C1059 C1064 1.363 . S
C1060 H1037 0.950 . S
C1060 C1059 1.397 . S
C1060 C1061 1.334 . S
C1061 H1038 0.950 . S
C1061 C1060 1.334 . S
C1061 C1062 1.287 . S
C1062 C1061 1.287 . S
C1062 C1063 1.524 . S
C1062 H1081 0.913 . S
C1063 H1039 0.950 . S
C1063 C1062 1.524 . S
C1063 C1064 1.415 . S
C1064 H1040 0.950 . S
C1064 C1059 1.363 . S
C1064 C1063 1.415 . S
C1065 H1041 0.951 1_655 S
C1065 C1066 1.366 . S
C1065 C1067 1.388 . S
C1066 C1065 1.366 . S
C1066 C1070 1.385 . S
C1067 H1042 0.953 . S
C1067 C1065 1.388 . S
C1067 C1068 1.366 . S
C1068 C1067 1.366 . S
C1068 C1069 1.414 . S
C1068 C1071 1.499 . S
C1069 H1043 0.950 . S
C1069 C1068 1.414 . S
C1069 C1070 1.374 . S
C1070 H1044 0.950 . S
C1070 C1066 1.385 . S
C1070 C1069 1.374 . S
C1071 C1068 1.499 . S
C1071 C1072 1.373 . S
C1071 C1073 1.389 . S
C1072 H1045 0.950 . S
C1072 C1058 1.377 . S
C1072 C1071 1.373 . S
C1073 C1057 1.377 . S
C1073 C1071 1.389 . S
C1073 C1074 1.524 . S
C1074 C1073 1.524 . S
C1074 C1075 1.397 1_565 S
C1074 C1079 1.363 1_655 S
C1075 H1046 0.950 . S
C1075 C1074 1.397 1_545 S
C1075 C1076 1.334 1_655 S
C1076 H1047 0.950 . S
C1076 C1075 1.334 1_455 S
C1076 C1077 1.287 . S
C1077 C1076 1.287 . S
C1077 C1078 1.524 . S
C1077 H1080 0.999 . S
C1078 H1048 0.956 . S
C1078 C1077 1.524 . S
C1078 C1079 1.415 1_545 S
C1079 H1049 0.950 . S
C1079 C1074 1.363 1_455 S
C1079 C1078 1.415 1_565 S
H1080 C1077 0.999 . S
H1081 C1062 0.913 . S
H1082 C1100 0.951 . S
H1083 C1102 0.951 . S
H1084 C1104 0.950 . S
H1085 C1105 0.950 . S
H1086 C1107 0.950 . S
H1087 C1110 0.950 . S
H1088 C1111 0.950 . S
H1089 C1113 0.950 . S
H1090 C1114 0.950 . S
H1091 C1115 0.951 . S
H1092 C1117 0.951 . S
H1093 C1119 0.950 . S
H1094 C1120 0.950 1_565 S
H1095 C1122 0.950 . S
H1096 C1125 0.950 . S
H1097 C1126 0.950 . S
H1098 C1128 0.950 . S
H1099 C1129 0.950 . S
C1100 H1082 0.951 . S
C1100 C1101 1.366 . S
C1100 C1102 1.388 . S
C1101 C1100 1.366 . S
C1101 C1105 1.385 . S
C1102 H1083 0.951 . S
C1102 C1100 1.388 . S
C1102 C1103 1.366 . S
C1103 C1102 1.366 . S
C1103 C1104 1.414 . S
C1103 C1106 1.499 . S
C1104 H1084 0.950 . S
C1104 C1103 1.414 . S
C1104 C1105 1.374 . S
C1105 H1085 0.950 . S
C1105 C1101 1.385 . S
C1105 C1104 1.374 . S
C1106 C1103 1.499 . S
C1106 C1107 1.373 . S
C1106 C1108 1.389 . S
C1107 H1086 0.950 . S
C1107 C1106 1.373 . S
C1107 C1123 1.377 . S
C1108 C1106 1.389 . S
C1108 C1109 1.524 . S
C1108 C1122 1.377 . S
C1109 C1108 1.524 . S
C1109 C1110 1.397 . S
C1109 C1114 1.363 . S
C1110 H1087 0.950 . S
C1110 C1109 1.397 . S
C1110 C1111 1.334 . S
C1111 H1088 0.950 . S
C1111 C1110 1.334 . S
C1111 C1112 1.287 . S
C1112 C1111 1.287 . S
C1112 C1113 1.524 . S
C1112 H1131 0.913 . S
C1113 H1089 0.950 . S
C1113 C1112 1.524 . S
C1113 C1114 1.415 . S
C1114 H1090 0.950 . S
C1114 C1109 1.363 . S
C1114 C1113 1.415 . S
C1115 H1091 0.951 . S
C1115 C1116 1.366 . S
C1115 C1117 1.388 . S
C1116 C1115 1.366 . S
C1116 C1120 1.385 . S
C1117 H1092 0.951 . S
C1117 C1115 1.388 . S
C1117 C1118 1.366 . S
C1118 C1117 1.366 . S
C1118 C1119 1.414 . S
C1118 C1121 1.499 . S
C1119 H1093 0.950 . S
C1119 C1118 1.414 . S
C1119 C1120 1.374 . S
C1120 H1094 0.950 1_545 S
C1120 C1116 1.385 . S
C1120 C1119 1.374 . S
C1121 C1118 1.499 . S
C1121 C1122 1.373 . S
C1121 C1123 1.389 . S
C1122 H1095 0.950 . S
C1122 C1108 1.377 . S
C1122 C1121 1.373 . S
C1123 C1107 1.377 . S
C1123 C1121 1.389 . S
C1123 C1124 1.524 . S
C1124 C1123 1.524 . S
C1124 C1125 1.397 . S
C1124 C1129 1.363 . S
C1125 H1096 0.950 . S
C1125 C1124 1.397 . S
C1125 C1126 1.334 . S
C1126 H1097 0.950 . S
C1126 C1125 1.334 . S
C1126 C1127 1.287 . S
C1127 C1126 1.287 . S
C1127 C1128 1.524 . S
C1127 H1130 0.999 . S
C1128 H1098 0.950 . S
C1128 C1127 1.524 . S
C1128 C1129 1.415 . S
C1129 H1099 0.950 . S
C1129 C1124 1.363 . S
C1129 C1128 1.415 . S
H1130 C1127 0.999 . S
H1131 C1112 0.913 . S
H1132 C1150 0.951 . S
H1133 C1152 0.951 . S
H1134 C1154 0.950 . S
H1135 C1155 0.950 . S
H1136 C1157 0.950 . S
H1137 C1160 0.950 . S
H1138 C1161 0.950 . S
H1139 C1163 0.950 . S
H1140 C1164 0.950 . S
H1141 C1165 0.951 . S
H1142 C1167 0.951 . S
H1143 C1169 0.950 . S
H1144 C1170 0.950 . S
H1145 C1172 0.950 . S
H1146 C1175 0.950 . S
H1147 C1176 0.950 . S
H1148 C1178 0.950 . S
H1149 C1179 0.950 . S
C1150 H1132 0.951 . S
C1150 C1151 1.366 . S
C1150 C1152 1.388 . S
C1151 C1150 1.366 . S
C1151 C1155 1.385 . S
C1152 H1133 0.951 . S
C1152 C1150 1.388 . S
C1152 C1153 1.366 . S
C1153 C1152 1.366 . S
C1153 C1154 1.414 . S
C1153 C1156 1.499 . S
C1154 H1134 0.950 . S
C1154 C1153 1.414 . S
C1154 C1155 1.374 . S
C1155 H1135 0.950 . S
C1155 C1151 1.385 . S
C1155 C1154 1.374 . S
C1156 C1153 1.499 . S
C1156 C1157 1.373 . S
C1156 C1158 1.389 . S
C1157 H1136 0.950 . S
C1157 C1156 1.373 . S
C1157 C1173 1.377 . S
C1158 C1156 1.389 . S
C1158 C1159 1.524 . S
C1158 C1172 1.377 . S
C1159 C1158 1.524 . S
C1159 C1160 1.397 . S
C1159 C1164 1.363 . S
C1160 H1137 0.950 . S
C1160 C1159 1.397 . S
C1160 C1161 1.334 . S
C1161 H1138 0.950 . S
C1161 C1160 1.334 . S
C1161 C1162 1.287 . S
C1162 C1161 1.287 . S
C1162 C1163 1.524 . S
C1162 H1181 0.913 . S
C1163 H1139 0.950 . S
C1163 C1162 1.524 . S
C1163 C1164 1.415 . S
C1164 H1140 0.950 . S
C1164 C1159 1.363 . S
C1164 C1163 1.415 . S
C1165 H1141 0.951 . S
C1165 C1166 1.366 . S
C1165 C1167 1.388 . S
C1166 C1165 1.366 . S
C1166 C1170 1.385 . S
C1167 H1142 0.951 . S
C1167 C1165 1.388 . S
C1167 C1168 1.366 . S
C1168 C1167 1.366 . S
C1168 C1169 1.414 . S
C1168 C1171 1.499 . S
C1169 H1143 0.950 . S
C1169 C1168 1.414 . S
C1169 C1170 1.374 . S
C1170 H1144 0.950 . S
C1170 C1166 1.385 . S
C1170 C1169 1.374 . S
C1171 C1168 1.499 . S
C1171 C1172 1.373 . S
C1171 C1173 1.389 . S
C1172 H1145 0.950 . S
C1172 C1158 1.377 . S
C1172 C1171 1.373 . S
C1173 C1157 1.377 . S
C1173 C1171 1.389 . S
C1173 C1174 1.524 . S
C1174 C1173 1.524 . S
C1174 C1175 1.397 . S
C1174 C1179 1.363 . S
C1175 H1146 0.950 . S
C1175 C1174 1.397 . S
C1175 C1176 1.334 . S
C1176 H1147 0.950 . S
C1176 C1175 1.334 . S
C1176 C1177 1.287 . S
C1177 C1176 1.287 . S
C1177 C1178 1.524 . S
C1177 H1180 0.999 . S
C1178 H1148 0.950 . S
C1178 C1177 1.524 . S
C1178 C1179 1.415 . S
C1179 H1149 0.950 . S
C1179 C1174 1.363 . S
C1179 C1178 1.415 . S
H1180 C1177 0.999 . S
H1181 C1162 0.913 . S
H1182 C1200 0.951 . S
H1183 C1202 0.951 . S
H1184 C1204 0.950 . S
H1185 C1205 0.950 . S
H1186 C1207 0.950 . S
H1187 C1210 0.950 . S
H1188 C1211 0.950 . S
H1189 C1213 0.950 . S
H1190 C1214 0.950 . S
H1191 C1215 0.951 . S
H1192 C1217 0.951 . S
H1193 C1219 0.950 . S
H1194 C1220 0.950 . S
H1195 C1222 0.950 . S
H1196 C1225 0.950 . S
H1197 C1226 0.950 . S
H1198 C1228 0.950 . S
H1199 C1229 0.950 . S
C1200 H1182 0.951 . S
C1200 C1201 1.366 . S
C1200 C1202 1.388 . S
C1201 C1200 1.366 . S
C1201 C1205 1.385 . S
C1202 H1183 0.951 . S
C1202 C1200 1.388 . S
C1202 C1203 1.366 . S
C1203 C1202 1.366 . S
C1203 C1204 1.414 . S
C1203 C1206 1.499 . S
C1204 H1184 0.950 . S
C1204 C1203 1.414 . S
C1204 C1205 1.374 . S
C1205 H1185 0.950 . S
C1205 C1201 1.385 . S
C1205 C1204 1.374 . S
C1206 C1203 1.499 . S
C1206 C1207 1.373 . S
C1206 C1208 1.389 . S
C1207 H1186 0.950 . S
C1207 C1206 1.373 . S
C1207 C1223 1.377 . S
C1208 C1206 1.389 . S
C1208 C1209 1.524 . S
C1208 C1222 1.377 . S
C1209 C1208 1.524 . S
C1209 C1210 1.397 . S
C1209 C1214 1.363 . S
C1210 H1187 0.950 . S
C1210 C1209 1.397 . S
C1210 C1211 1.334 . S
C1211 H1188 0.950 . S
C1211 C1210 1.334 . S
C1211 C1212 1.287 . S
C1212 C1211 1.287 . S
C1212 C1213 1.524 . S
C1212 H1231 0.913 . S
C1213 H1189 0.950 . S
C1213 C1212 1.524 . S
C1213 C1214 1.415 . S
C1214 H1190 0.950 . S
C1214 C1209 1.363 . S
C1214 C1213 1.415 . S
C1215 H1191 0.951 . S
C1215 C1216 1.366 . S
C1215 C1217 1.388 . S
C1216 C1215 1.366 . S
C1216 C1220 1.385 . S
C1217 H1192 0.951 . S
C1217 C1215 1.388 . S
C1217 C1218 1.366 . S
C1218 C1217 1.366 . S
C1218 C1219 1.414 . S
C1218 C1221 1.499 . S
C1219 H1193 0.950 . S
C1219 C1218 1.414 . S
C1219 C1220 1.374 . S
C1220 H1194 0.950 . S
C1220 C1216 1.385 . S
C1220 C1219 1.374 . S
C1221 C1218 1.499 . S
C1221 C1222 1.373 . S
C1221 C1223 1.389 . S
C1222 H1195 0.950 . S
C1222 C1208 1.377 . S
C1222 C1221 1.373 . S
C1223 C1207 1.377 . S
C1223 C1221 1.389 . S
C1223 C1224 1.524 . S
C1224 C1223 1.524 . S
C1224 C1225 1.397 1_455 S
C1224 C1229 1.363 . S
C1225 H1196 0.950 . S
C1225 C1224 1.397 1_655 S
C1225 C1226 1.334 . S
C1226 H1197 0.950 . S
C1226 C1225 1.334 . S
C1226 C1227 1.287 . S
C1227 C1226 1.287 . S
C1227 C1228 1.524 . S
C1227 H1230 0.999 . S
C1228 H1198 0.950 . S
C1228 C1227 1.524 . S
C1228 C1229 1.415 1_655 S
C1229 H1199 0.950 . S
C1229 C1224 1.363 . S
C1229 C1228 1.415 1_455 S
H1230 C1227 0.999 . S
H1231 C1212 0.913 . S
H1232 C1250 0.951 . S
H1233 C1252 0.951 . S
H1234 C1254 0.950 . S
H1235 C1255 0.950 . S
H1236 C1257 0.950 . S
H1237 C1260 0.950 . S
H1238 C1261 0.950 . S
H1239 C1263 0.950 . S
H1240 C1264 0.950 . S
H1241 C1265 0.951 1_554 S
H1242 C1267 0.951 . S
H1243 C1269 0.950 . S
H1244 C1270 0.950 1_545 S
H1245 C1272 0.950 . S
H1246 C1275 0.950 . S
H1247 C1276 0.950 . S
H1248 C1278 0.950 . S
H1249 C1279 0.950 . S
C1250 H1232 0.951 . S
C1250 C1251 1.366 . S
C1250 C1252 1.388 . S
C1251 C1250 1.366 . S
C1251 C1255 1.385 . S
C1252 H1233 0.951 . S
C1252 C1250 1.388 . S
C1252 C1253 1.366 . S
C1253 C1252 1.366 . S
C1253 C1254 1.414 . S
C1253 C1256 1.499 . S
C1254 H1234 0.950 . S
C1254 C1253 1.414 . S
C1254 C1255 1.374 . S
C1255 H1235 0.950 . S
C1255 C1251 1.385 . S
C1255 C1254 1.374 . S
C1256 C1253 1.499 . S
C1256 C1257 1.373 . S
C1256 C1258 1.389 . S
C1257 H1236 0.950 . S
C1257 C1256 1.373 . S
C1257 C1273 1.377 . S
C1258 C1256 1.389 . S
C1258 C1259 1.524 . S
C1258 C1272 1.377 . S
C1259 C1258 1.524 . S
C1259 C1260 1.397 . S
C1259 C1264 1.363 1_565 S
C1260 H1237 0.950 . S
C1260 C1259 1.397 . S
C1260 C1261 1.334 1_565 S
C1261 H1238 0.950 . S
C1261 C1260 1.334 1_545 S
C1261 C1262 1.287 . S
C1262 C1261 1.287 . S
C1262 C1263 1.524 . S
C1262 H1281 0.913 . S
C1263 H1239 0.950 . S
C1263 C1262 1.524 . S
C1263 C1264 1.415 . S
C1264 H1240 0.950 . S
C1264 C1259 1.363 1_545 S
C1264 C1263 1.415 . S
C1265 H1241 0.951 1_556 S
C1265 C1266 1.366 . S
C1265 C1267 1.388 . S
C1266 C1265 1.366 . S
C1266 C1270 1.385 . S
C1267 H1242 0.951 . S
C1267 C1265 1.388 . S
C1267 C1268 1.366 . S
C1268 C1267 1.366 . S
C1268 C1269 1.414 . S
C1268 C1271 1.499 . S
C1269 H1243 0.950 . S
C1269 C1268 1.414 . S
C1269 C1270 1.374 . S
C1270 H1244 0.950 1_565 S
C1270 C1266 1.385 . S
C1270 C1269 1.374 . S
C1271 C1268 1.499 . S
C1271 C1272 1.373 . S
C1271 C1273 1.389 . S
C1272 H1245 0.950 . S
C1272 C1258 1.377 . S
C1272 C1271 1.373 . S
C1273 C1257 1.377 . S
C1273 C1271 1.389 . S
C1273 C1274 1.524 . S
C1274 C1273 1.524 . S
C1274 C1275 1.397 . S
C1274 C1279 1.363 . S
C1275 H1246 0.950 . S
C1275 C1274 1.397 . S
C1275 C1276 1.334 . S
C1276 H1247 0.950 . S
C1276 C1275 1.334 . S
C1276 C1277 1.287 . S
C1277 C1276 1.287 . S
C1277 C1278 1.524 . S
C1277 H1280 0.999 . S
C1278 H1248 0.950 . S
C1278 C1277 1.524 . S
C1278 C1279 1.415 . S
C1279 H1249 0.950 . S
C1279 C1274 1.363 . S
C1279 C1278 1.415 . S
H1280 C1277 0.999 . S
H1281 C1262 0.913 . S
H1282 C1300 0.951 . S
H1283 C1302 0.951 . S
H1284 C1304 0.950 . S
H1285 C1305 0.950 . S
H1286 C1307 0.950 . S
H1287 C1310 0.950 . S
H1288 C1311 0.950 . S
H1289 C1313 0.950 . S
H1290 C1314 0.950 . S
H1291 C1315 0.951 . S
H1292 C1317 0.951 . S
H1293 C1319 0.950 . S
H1294 C1320 0.950 . S
H1295 C1322 0.950 . S
H1296 C1325 0.950 . S
H1297 C1326 0.950 . S
H1298 C1328 0.950 . S
H1299 C1329 0.950 . S
C1300 H1282 0.951 . S
C1300 C1301 1.366 . S
C1300 C1302 1.388 . S
C1301 C1300 1.366 . S
C1301 C1305 1.385 . S
C1302 H1283 0.951 . S
C1302 C1300 1.388 . S
C1302 C1303 1.366 . S
C1303 C1302 1.366 . S
C1303 C1304 1.414 . S
C1303 C1306 1.499 . S
C1304 H1284 0.950 . S
C1304 C1303 1.414 . S
C1304 C1305 1.374 . S
C1305 H1285 0.950 . S
C1305 C1301 1.385 . S
C1305 C1304 1.374 . S
C1306 C1303 1.499 . S
C1306 C1307 1.373 . S
C1306 C1308 1.389 . S
C1307 H1286 0.950 . S
C1307 C1306 1.373 . S
C1307 C1323 1.377 . S
C1308 C1306 1.389 . S
C1308 C1309 1.524 . S
C1308 C1322 1.377 . S
C1309 C1308 1.524 . S
C1309 C1310 1.397 . S
C1309 C1314 1.363 . S
C1310 H1287 0.950 . S
C1310 C1309 1.397 . S
C1310 C1311 1.334 . S
C1311 H1288 0.950 . S
C1311 C1310 1.334 . S
C1311 C1312 1.287 . S
C1312 C1311 1.287 . S
C1312 C1313 1.524 . S
C1312 H1331 0.913 . S
C1313 H1289 0.950 . S
C1313 C1312 1.524 . S
C1313 C1314 1.415 . S
C1314 H1290 0.950 . S
C1314 C1309 1.363 . S
C1314 C1313 1.415 . S
C1315 H1291 0.951 . S
C1315 C1316 1.366 . S
C1315 C1317 1.388 . S
C1316 C1315 1.366 . S
C1316 C1320 1.385 . S
C1317 H1292 0.951 . S
C1317 C1315 1.388 . S
C1317 C1318 1.366 . S
C1318 C1317 1.366 . S
C1318 C1319 1.414 . S
C1318 C1321 1.499 . S
C1319 H1293 0.950 . S
C1319 C1318 1.414 . S
C1319 C1320 1.374 . S
C1320 H1294 0.950 . S
C1320 C1316 1.385 . S
C1320 C1319 1.374 . S
C1321 C1318 1.499 . S
C1321 C1322 1.373 . S
C1321 C1323 1.389 . S
C1322 H1295 0.950 . S
C1322 C1308 1.377 . S
C1322 C1321 1.373 . S
C1323 C1307 1.377 . S
C1323 C1321 1.389 . S
C1323 C1324 1.524 . S
C1324 C1323 1.524 . S
C1324 C1325 1.397 . S
C1324 C1329 1.363 . S
C1325 H1296 0.950 . S
C1325 C1324 1.397 . S
C1325 C1326 1.334 1_545 S
C1326 H1297 0.950 . S
C1326 C1325 1.334 1_565 S
C1326 C1327 1.287 . S
C1327 C1326 1.287 . S
C1327 C1328 1.524 . S
C1327 H1330 0.999 . S
C1328 H1298 0.950 . S
C1328 C1327 1.524 . S
C1328 C1329 1.415 1_565 S
C1329 H1299 0.950 . S
C1329 C1324 1.363 . S
C1329 C1328 1.415 1_545 S
H1330 C1327 0.999 . S
H1331 C1312 0.913 . S
H1332 C1350 0.951 . S
H1333 C1352 0.951 . S
H1334 C1354 0.950 . S
H1335 C1355 0.950 . S
H1336 C1357 0.950 . S
H1337 C1360 0.950 . S
H1338 C1361 0.950 . S
H1339 C1363 0.950 . S
H1340 C1364 0.950 . S
H1341 C1365 0.951 1_556 S
H1342 C1367 0.951 . S
H1343 C1369 0.950 . S
H1344 C1370 0.950 . S
H1345 C1372 0.950 . S
H1346 C1375 0.950 . S
H1347 C1376 0.960 . S
H1348 C1378 0.950 . S
H1349 C1379 0.950 . S
C1350 H1332 0.951 . S
C1350 C1351 1.366 . S
C1350 C1352 1.388 . S
C1351 C1350 1.366 . S
C1351 C1355 1.385 . S
C1352 H1333 0.951 . S
C1352 C1350 1.388 . S
C1352 C1353 1.366 . S
C1353 C1352 1.366 . S
C1353 C1354 1.414 . S
C1353 C1356 1.499 . S
C1354 H1334 0.950 . S
C1354 C1353 1.414 . S
C1354 C1355 1.374 . S
C1355 H1335 0.950 . S
C1355 C1351 1.385 . S
C1355 C1354 1.374 . S
C1356 C1353 1.499 . S
C1356 C1357 1.373 . S
C1356 C1358 1.389 . S
C1357 H1336 0.950 . S
C1357 C1356 1.373 . S
C1357 C1373 1.377 . S
C1358 C1356 1.389 . S
C1358 C1359 1.524 . S
C1358 C1372 1.377 . S
C1359 C1358 1.524 . S
C1359 C1360 1.397 . S
C1359 C1364 1.363 . S
C1360 H1337 0.950 . S
C1360 C1359 1.397 . S
C1360 C1361 1.334 . S
C1361 H1338 0.950 . S
C1361 C1360 1.334 . S
C1361 C1362 1.287 . S
C1362 C1361 1.287 . S
C1362 C1363 1.524 . S
C1362 H1381 0.913 . S
C1363 H1339 0.950 . S
C1363 C1362 1.524 . S
C1363 C1364 1.415 . S
C1364 H1340 0.950 . S
C1364 C1359 1.363 . S
C1364 C1363 1.415 . S
C1365 H1341 0.951 1_554 S
C1365 C1366 1.366 . S
C1365 C1367 1.388 . S
C1366 C1365 1.366 . S
C1366 C1370 1.385 . S
C1367 H1342 0.951 . S
C1367 C1365 1.388 . S
C1367 C1368 1.366 . S
C1368 C1367 1.366 . S
C1368 C1369 1.414 . S
C1368 C1371 1.499 . S
C1369 H1343 0.950 . S
C1369 C1368 1.414 . S
C1369 C1370 1.374 . S
C1370 H1344 0.950 . S
C1370 C1366 1.385 . S
C1370 C1369 1.374 . S
C1371 C1368 1.499 . S
C1371 C1372 1.373 . S
C1371 C1373 1.389 . S
C1372 H1345 0.950 . S
C1372 C1358 1.377 . S
C1372 C1371 1.373 . S
C1373 C1357 1.377 . S
C1373 C1371 1.389 . S
C1373 C1374 1.524 . S
C1374 C1373 1.524 . S
C1374 C1375 1.397 . S
C1374 C1379 1.363 1_554 S
C1375 H1346 0.950 . S
C1375 C1374 1.397 . S
C1375 C1376 1.363 . S
C1376 H1347 0.960 . S
C1376 C1375 1.363 . S
C1376 C1377 1.250 1_554 S
C1377 C1376 1.250 1_556 S
C1377 C1378 1.524 . S
C1377 H1380 0.999 . S
C1378 H1348 0.950 . S
C1378 C1377 1.524 . S
C1378 C1379 1.415 . S
C1379 H1349 0.950 . S
C1379 C1374 1.363 1_556 S
C1379 C1378 1.415 . S
H1380 C1377 0.999 . S
H1381 C1362 0.913 . S
H1382 C1400 0.951 . S
H1383 C1402 0.951 . S
H1384 C1404 0.950 . S
H1385 C1405 0.950 . S
H1386 C1407 0.950 . S
H1387 C1410 0.950 . S
H1388 C1411 0.950 . S
H1389 C1413 0.950 . S
H1390 C1414 0.950 . S
H1391 C1415 0.951 . S
H1392 C1417 0.951 . S
H1393 C1419 0.950 . S
H1394 C1420 0.950 . S
H1395 C1422 0.950 . S
H1396 C1425 0.950 . S
H1397 C1426 0.950 . S
H1398 C1428 0.950 . S
H1399 C1429 0.950 . S
C1400 H1382 0.951 . S
C1400 C1401 1.366 . S
C1400 C1402 1.388 . S
C1401 C1400 1.366 . S
C1401 C1405 1.385 . S
C1402 H1383 0.951 . S
C1402 C1400 1.388 . S
C1402 C1403 1.366 . S
C1403 C1402 1.366 . S
C1403 C1404 1.414 . S
C1403 C1406 1.499 . S
C1404 H1384 0.950 . S
C1404 C1403 1.414 . S
C1404 C1405 1.374 . S
C1405 H1385 0.950 . S
C1405 C1401 1.385 . S
C1405 C1404 1.374 . S
C1406 C1403 1.499 . S
C1406 C1407 1.373 . S
C1406 C1408 1.389 . S
C1407 H1386 0.950 . S
C1407 C1406 1.373 . S
C1407 C1423 1.377 . S
C1408 C1406 1.389 . S
C1408 C1409 1.524 . S
C1408 C1422 1.377 . S
C1409 C1408 1.524 . S
C1409 C1410 1.397 . S
C1409 C1414 1.363 . S
C1410 H1387 0.950 . S
C1410 C1409 1.397 . S
C1410 C1411 1.334 . S
C1411 H1388 0.950 . S
C1411 C1410 1.334 . S
C1411 C1412 1.287 . S
C1412 C1411 1.287 . S
C1412 C1413 1.524 . S
C1412 H1431 0.913 . S
C1413 H1389 0.950 . S
C1413 C1412 1.524 . S
C1413 C1414 1.415 . S
C1414 H1390 0.950 . S
C1414 C1409 1.363 . S
C1414 C1413 1.415 . S
C1415 H1391 0.951 . S
C1415 C1416 1.366 . S
C1415 C1417 1.388 . S
C1416 C1415 1.366 . S
C1416 C1420 1.385 . S
C1417 H1392 0.951 . S
C1417 C1415 1.388 . S
C1417 C1418 1.366 . S
C1418 C1417 1.366 . S
C1418 C1419 1.414 . S
C1418 C1421 1.499 . S
C1419 H1393 0.950 . S
C1419 C1418 1.414 . S
C1419 C1420 1.374 . S
C1420 H1394 0.950 . S
C1420 C1416 1.385 . S
C1420 C1419 1.374 . S
C1421 C1418 1.499 . S
C1421 C1422 1.373 . S
C1421 C1423 1.389 . S
C1422 H1395 0.950 . S
C1422 C1408 1.377 . S
C1422 C1421 1.373 . S
C1423 C1407 1.377 . S
C1423 C1421 1.389 . S
C1423 C1424 1.524 . S
C1424 C1423 1.524 . S
C1424 C1425 1.397 . S
C1424 C1429 1.363 . S
C1425 H1396 0.950 . S
C1425 C1424 1.397 . S
C1425 C1426 1.334 . S
C1426 H1397 0.950 . S
C1426 C1425 1.334 . S
C1426 C1427 1.287 . S
C1427 C1426 1.287 . S
C1427 C1428 1.524 . S
C1427 H1430 0.999 . S
C1428 H1398 0.950 . S
C1428 C1427 1.524 . S
C1428 C1429 1.415 . S
C1429 H1399 0.950 . S
C1429 C1424 1.363 . S
C1429 C1428 1.415 . S
H1430 C1427 0.999 . S
H1431 C1412 0.913 . S
H1432 C1450 0.951 . S
H1433 C1452 0.951 . S
H1434 C1454 0.950 . S
H1435 C1455 0.950 . S
H1436 C1457 0.950 . S
H1437 C1460 0.950 . S
H1438 C1461 0.950 . S
H1439 C1463 0.950 . S
H1440 C1464 0.950 . S
H1441 C1465 0.953 . S
H1442 C1467 0.951 . S
H1443 C1469 0.950 . S
H1444 C1470 0.950 1_554 S
H1445 C1472 0.950 . S
H1446 C1475 0.950 . S
H1447 C1476 0.950 . S
H1448 C1478 0.950 . S
H1449 C1479 0.950 . S
C1450 H1432 0.951 . S
C1450 C1451 1.366 . S
C1450 C1452 1.388 . S
C1451 C1450 1.366 . S
C1451 C1455 1.385 . S
C1452 H1433 0.951 . S
C1452 C1450 1.388 . S
C1452 C1453 1.366 . S
C1453 C1452 1.366 . S
C1453 C1454 1.414 . S
C1453 C1456 1.499 . S
C1454 H1434 0.950 . S
C1454 C1453 1.414 . S
C1454 C1455 1.374 . S
C1455 H1435 0.950 . S
C1455 C1451 1.385 . S
C1455 C1454 1.374 . S
C1456 C1453 1.499 . S
C1456 C1457 1.373 . S
C1456 C1458 1.389 . S
C1457 H1436 0.950 . S
C1457 C1456 1.373 . S
C1457 C1473 1.377 . S
C1458 C1456 1.389 . S
C1458 C1459 1.524 . S
C1458 C1472 1.377 . S
C1459 C1458 1.524 . S
C1459 C1460 1.397 . S
C1459 C1464 1.363 1_556 S
C1460 H1437 0.950 . S
C1460 C1459 1.397 . S
C1460 C1461 1.334 1_556 S
C1461 H1438 0.950 . S
C1461 C1460 1.334 1_554 S
C1461 C1462 1.287 . S
C1462 C1461 1.287 . S
C1462 C1463 1.524 . S
C1462 H1481 0.913 . S
C1463 H1439 0.950 . S
C1463 C1462 1.524 . S
C1463 C1464 1.415 . S
C1464 H1440 0.950 . S
C1464 C1459 1.363 1_554 S
C1464 C1463 1.415 . S
C1465 H1441 0.953 . S
C1465 C1466 1.366 . S
C1465 C1467 1.388 . S
C1466 C1465 1.366 . S
C1466 C1470 1.385 . S
C1467 H1442 0.951 . S
C1467 C1465 1.388 . S
C1467 C1468 1.366 . S
C1468 C1467 1.366 . S
C1468 C1469 1.414 . S
C1468 C1471 1.499 . S
C1469 H1443 0.950 . S
C1469 C1468 1.414 . S
C1469 C1470 1.374 . S
C1470 H1444 0.950 1_556 S
C1470 C1466 1.385 . S
C1470 C1469 1.374 . S
C1471 C1468 1.499 . S
C1471 C1472 1.373 . S
C1471 C1473 1.389 . S
C1472 H1445 0.950 . S
C1472 C1458 1.377 . S
C1472 C1471 1.373 . S
C1473 C1457 1.377 . S
C1473 C1471 1.389 . S
C1473 C1474 1.524 . S
C1474 C1473 1.524 . S
C1474 C1475 1.397 . S
C1474 C1479 1.363 . S
C1475 H1446 0.950 . S
C1475 C1474 1.397 . S
C1475 C1476 1.334 . S
C1476 H1447 0.950 . S
C1476 C1475 1.334 . S
C1476 C1477 1.287 . S
C1477 C1476 1.287 . S
C1477 C1478 1.524 . S
C1477 H1480 0.999 . S
C1478 H1448 0.950 . S
C1478 C1477 1.524 . S
C1478 C1479 1.415 . S
C1479 H1449 0.950 . S
C1479 C1474 1.363 . S
C1479 C1478 1.415 . S
H1480 C1477 0.999 . S
H1481 C1462 0.913 . S
H1482 C1500 0.951 . S
H1483 C1502 0.951 . S
H1484 C1504 0.950 . S
H1485 C1505 0.950 . S
H1486 C1507 0.950 . S
H1487 C1510 0.950 . S
H1488 C1511 0.950 . S
H1489 C1513 0.950 . S
H1490 C1514 0.950 . S
H1491 C1515 0.951 . S
H1492 C1517 0.951 . S
H1493 C1519 0.950 . S
H1494 C1520 0.950 1_556 S
H1495 C1522 0.950 . S
H1496 C1525 0.950 . S
H1497 C1526 0.950 . S
H1498 C1528 0.950 . S
H1499 C1529 0.950 . S
C1500 H1482 0.951 . S
C1500 C1501 1.366 . S
C1500 C1502 1.388 . S
C1501 C1500 1.366 . S
C1501 C1505 1.385 . S
C1502 H1483 0.951 . S
C1502 C1500 1.388 . S
C1502 C1503 1.366 . S
C1503 C1502 1.366 . S
C1503 C1504 1.414 . S
C1503 C1506 1.499 . S
C1504 H1484 0.950 . S
C1504 C1503 1.414 . S
C1504 C1505 1.374 . S
C1505 H1485 0.950 . S
C1505 C1501 1.385 . S
C1505 C1504 1.374 . S
C1506 C1503 1.499 . S
C1506 C1507 1.373 . S
C1506 C1508 1.389 . S
C1507 H1486 0.950 . S
C1507 C1506 1.373 . S
C1507 C1523 1.377 . S
C1508 C1506 1.389 . S
C1508 C1509 1.524 . S
C1508 C1522 1.377 . S
C1509 C1508 1.524 . S
C1509 C1510 1.397 . S
C1509 C1514 1.363 1_554 S
C1510 H1487 0.950 . S
C1510 C1509 1.397 . S
C1510 C1511 1.334 . S
C1511 H1488 0.950 . S
C1511 C1510 1.334 . S
C1511 C1512 1.287 1_554 S
C1512 C1511 1.287 1_556 S
C1512 C1513 1.524 . S
C1512 H1531 0.913 . S
C1513 H1489 0.950 . S
C1513 C1512 1.524 . S
C1513 C1514 1.415 . S
C1514 H1490 0.950 . S
C1514 C1509 1.363 1_556 S
C1514 C1513 1.415 . S
C1515 H1491 0.951 . S
C1515 C1516 1.366 . S
C1515 C1517 1.388 . S
C1516 C1515 1.366 . S
C1516 C1520 1.385 . S
C1517 H1492 0.951 . S
C1517 C1515 1.388 . S
C1517 C1518 1.366 . S
C1518 C1517 1.366 . S
C1518 C1519 1.414 . S
C1518 C1521 1.499 . S
C1519 H1493 0.950 . S
C1519 C1518 1.414 . S
C1519 C1520 1.374 . S
C1520 H1494 0.950 1_554 S
C1520 C1516 1.385 . S
C1520 C1519 1.374 . S
C1521 C1518 1.499 . S
C1521 C1522 1.373 . S
C1521 C1523 1.389 . S
C1522 H1495 0.950 . S
C1522 C1508 1.377 . S
C1522 C1521 1.373 . S
C1523 C1507 1.377 . S
C1523 C1521 1.389 . S
C1523 C1524 1.524 . S
C1524 C1523 1.524 . S
C1524 C1525 1.397 . S
C1524 C1529 1.363 . S
C1525 H1496 0.950 . S
C1525 C1524 1.397 . S
C1525 C1526 1.334 . S
C1526 H1497 0.950 . S
C1526 C1525 1.334 . S
C1526 C1527 1.287 . S
C1527 C1526 1.287 . S
C1527 C1528 1.524 . S
C1527 H1530 0.999 . S
C1528 H1498 0.950 . S
C1528 C1527 1.524 . S
C1528 C1529 1.415 . S
C1529 H1499 0.950 . S
C1529 C1524 1.363 . S
C1529 C1528 1.415 . S
H1530 C1527 0.999 . S
H1531 C1512 0.913 . S
H1532 C1550 0.951 . S
H1533 C1552 0.951 . S
H1534 C1554 0.950 . S
H1535 C1555 0.950 . S
H1536 C1557 0.950 . S
H1537 C1560 0.950 . S
H1538 C1561 0.950 . S
H1539 C1563 0.950 . S
H1540 C1564 0.950 . S
H1541 C1565 0.951 1_655 S
H1542 C1567 0.951 . S
H1543 C1569 0.950 . S
H1544 C1570 0.950 . S
H1545 C1572 0.950 . S
H1546 C1575 0.950 . S
H1547 C1576 0.950 . S
H1548 C1578 0.950 . S
H1549 C1579 0.950 . S
C1550 H1532 0.951 . S
C1550 C1551 1.366 . S
C1550 C1552 1.388 . S
C1551 C1550 1.366 . S
C1551 C1555 1.385 . S
C1552 H1533 0.951 . S
C1552 C1550 1.388 . S
C1552 C1553 1.366 . S
C1553 C1552 1.366 . S
C1553 C1554 1.414 . S
C1553 C1556 1.499 . S
C1554 H1534 0.950 . S
C1554 C1553 1.414 . S
C1554 C1555 1.374 . S
C1555 H1535 0.950 . S
C1555 C1551 1.385 . S
C1555 C1554 1.374 . S
C1556 C1553 1.499 . S
C1556 C1557 1.373 . S
C1556 C1558 1.389 . S
C1557 H1536 0.950 . S
C1557 C1556 1.373 . S
C1557 C1573 1.377 . S
C1558 C1556 1.389 . S
C1558 C1559 1.524 . S
C1558 C1572 1.377 . S
C1559 C1558 1.524 . S
C1559 C1560 1.397 . S
C1559 C1564 1.363 . S
C1560 H1537 0.950 . S
C1560 C1559 1.397 . S
C1560 C1561 1.334 . S
C1561 H1538 0.950 . S
C1561 C1560 1.334 . S
C1561 C1562 1.287 . S
C1562 C1561 1.287 . S
C1562 C1563 1.524 . S
C1562 H1581 0.913 . S
C1563 H1539 0.950 . S
C1563 C1562 1.524 . S
C1563 C1564 1.415 . S
C1564 H1540 0.950 . S
C1564 C1559 1.363 . S
C1564 C1563 1.415 . S
C1565 H1541 0.951 1_455 S
C1565 C1566 1.366 . S
C1565 C1567 1.388 . S
C1566 C1565 1.366 . S
C1566 C1570 1.385 . S
C1567 H1542 0.951 . S
C1567 C1565 1.388 . S
C1567 C1568 1.366 . S
C1568 C1567 1.366 . S
C1568 C1569 1.414 . S
C1568 C1571 1.499 . S
C1569 H1543 0.950 . S
C1569 C1568 1.414 . S
C1569 C1570 1.374 . S
C1570 H1544 0.950 . S
C1570 C1566 1.385 . S
C1570 C1569 1.374 . S
C1571 C1568 1.499 . S
C1571 C1572 1.373 . S
C1571 C1573 1.389 . S
C1572 H1545 0.950 . S
C1572 C1558 1.377 . S
C1572 C1571 1.373 . S
C1573 C1557 1.377 . S
C1573 C1571 1.389 . S
C1573 C1574 1.524 . S
C1574 C1573 1.524 . S
C1574 C1575 1.397 . S
C1574 C1579 1.363 . S
C1575 H1546 0.950 . S
C1575 C1574 1.397 . S
C1575 C1576 1.334 . S
C1576 H1547 0.950 . S
C1576 C1575 1.334 . S
C1576 C1577 1.287 . S
C1577 C1576 1.287 . S
C1577 C1578 1.524 . S
C1577 H1580 0.999 . S
C1578 H1548 0.950 . S
C1578 C1577 1.524 . S
C1578 C1579 1.415 . S
C1579 H1549 0.950 . S
C1579 C1574 1.363 . S
C1579 C1578 1.415 . S
H1580 C1577 0.999 . S
H1581 C1562 0.913 . S
H1582 C1600 0.951 . S
H1583 C1602 0.951 . S
H1584 C1604 0.950 . S
H1585 C1605 0.950 . S
H1586 C1607 0.950 . S
H1587 C1610 0.950 . S
H1588 C1611 0.950 . S
H1589 C1613 0.950 . S
H1590 C1614 0.950 . S
H1591 C1615 0.951 . S
H1592 C1617 0.951 . S
H1593 C1619 0.950 . S
H1594 C1620 0.950 . S
H1595 C1622 0.950 . S
H1596 C1625 0.950 . S
H1597 C1626 0.950 . S
H1598 C1628 0.950 . S
H1599 C1629 0.950 . S
C1600 H1582 0.951 . S
C1600 C1601 1.366 . S
C1600 C1602 1.388 . S
C1601 C1600 1.366 . S
C1601 C1605 1.385 . S
C1602 H1583 0.951 . S
C1602 C1600 1.388 . S
C1602 C1603 1.366 . S
C1603 C1602 1.366 . S
C1603 C1604 1.414 . S
C1603 C1606 1.499 . S
C1604 H1584 0.950 . S
C1604 C1603 1.414 . S
C1604 C1605 1.374 . S
C1605 H1585 0.950 . S
C1605 C1601 1.385 . S
C1605 C1604 1.374 . S
C1606 C1603 1.499 . S
C1606 C1607 1.373 . S
C1606 C1608 1.389 . S
C1607 H1586 0.950 . S
C1607 C1606 1.373 . S
C1607 C1623 1.377 . S
C1608 C1606 1.389 . S
C1608 C1609 1.524 . S
C1608 C1622 1.377 . S
C1609 C1608 1.524 . S
C1609 C1610 1.397 . S
C1609 C1614 1.363 . S
C1610 H1587 0.950 . S
C1610 C1609 1.397 . S
C1610 C1611 1.334 . S
C1611 H1588 0.950 . S
C1611 C1610 1.334 . S
C1611 C1612 1.287 . S
C1612 C1611 1.287 . S
C1612 C1613 1.524 . S
C1612 H1631 0.913 . S
C1613 H1589 0.950 . S
C1613 C1612 1.524 . S
C1613 C1614 1.415 . S
C1614 H1590 0.950 . S
C1614 C1609 1.363 . S
C1614 C1613 1.415 . S
C1615 H1591 0.951 . S
C1615 C1616 1.366 . S
C1615 C1617 1.388 . S
C1616 C1615 1.366 . S
C1616 C1620 1.385 . S
C1617 H1592 0.951 . S
C1617 C1615 1.388 . S
C1617 C1618 1.366 . S
C1618 C1617 1.366 . S
C1618 C1619 1.414 . S
C1618 C1621 1.499 . S
C1619 H1593 0.950 . S
C1619 C1618 1.414 . S
C1619 C1620 1.374 . S
C1620 H1594 0.950 . S
C1620 C1616 1.385 . S
C1620 C1619 1.374 . S
C1621 C1618 1.499 . S
C1621 C1622 1.373 . S
C1621 C1623 1.389 . S
C1622 H1595 0.950 . S
C1622 C1608 1.377 . S
C1622 C1621 1.373 . S
C1623 C1607 1.377 . S
C1623 C1621 1.389 . S
C1623 C1624 1.524 . S
C1624 C1623 1.524 . S
C1624 C1625 1.397 . S
C1624 C1629 1.363 . S
C1625 H1596 0.950 . S
C1625 C1624 1.397 . S
C1625 C1626 1.334 . S
C1626 H1597 0.950 . S
C1626 C1625 1.334 . S
C1626 C1627 1.287 . S
C1627 C1626 1.287 . S
C1627 C1628 1.524 . S
C1627 H1630 0.999 . S
C1628 H1598 0.950 . S
C1628 C1627 1.524 . S
C1628 C1629 1.415 . S
C1629 H1599 0.950 . S
C1629 C1624 1.363 . S
C1629 C1628 1.415 . S
H1630 C1627 0.999 . S
H1631 C1612 0.913 . S
C451 C1 2.191 . S
C466 C328 2.205 . S
C501 C40 1.093 . S
C516 N348 1.079 . S
C566 C382 1.983 . S
C551 C99 1.976 . S
C601 C118 1.318 . S
C616 N416 1.267 . S
C666 C369 2.394 . S
C651 C16 2.379 . S
C716 N326 1.170 . S
C701 C60 1.203 . S
C766 C403 1.980 . S
C751 C79 1.971 . S
C816 N378 0.987 . S
C801 C138 0.989 . S
C851 C21 1.851 . S
C866 C418 1.862 . S
C916 C352 1.720 . S
C901 C94 1.706 . S
C951 C133 1.454 . S
C966 C313 1.467 . S
C1001 C55 1.460 . S
C1016 C399 1.471 . S
C1066 C339 2.210 . S
C1051 C157 2.191 . S
C1101 C196 1.095 . S
C1116 N356 1.079 . S
C1151 C255 1.964 . S
C1166 C373 1.980 . S
C1201 C289 1.318 . S
C1216 N408 1.265 . S
C1251 C172 2.381 . S
C1266 C358 2.392 . S
C1316 N318 1.173 . S
C1301 C216 1.212 . S
C1366 C412 1.981 . S
C1351 C235 1.968 . S
C1416 N386 0.987 . S
C1401 C294 0.988 . S
C1451 C177 1.842 . S
C1466 C429 1.862 . S
C1516 C343 1.721 . S
C1501 C250 1.710 . S
C1566 C322 1.471 . S
C1551 C274 1.453 . S
C1601 C211 1.451 . S
C1616 C388 1.464 . S
