# Generated by pormake.
# Topology anh, (6,3)-cn, num edge types: 1
# Building blocks:
#     Node 0, Type 0, BuildingBlock: CUWYAW_clean_sbu_0, # of connection points: 6
#     Node 1, Type 0, BuildingBlock: CUWYAW_clean_sbu_0, # of connection points: 6
#     Node 2, Type 0, BuildingBlock: CUWYAW_clean_sbu_0, # of connection points: 6
#     Node 3, Type 1, BuildingBlock: PAMTOO_clean_linker_0, # of connection points: 3
#     Node 4, Type 1, BuildingBlock: PAMTOO_clean_linker_0, # of connection points: 3
#     Node 5, Type 1, BuildingBlock: PAMTOO_clean_linker_0, # of connection points: 3
#     Node 6, Type 1, BuildingBlock: PAMTOO_clean_linker_0, # of connection points: 3
#     Node 7, Type 1, BuildingBlock: PAMTOO_clean_linker_0, # of connection points: 3
#     Node 8, Type 1, BuildingBlock: PAMTOO_clean_linker_0, # of connection points: 3
#     Edge 9, Type (0, 1), BuildingBlock: CIFDUS_clean_linker_0, # of connection points: 2
#     Edge 10, Type (0, 1), BuildingBlock: CIFDUS_clean_linker_0, # of connection points: 2
#     Edge 11, Type (0, 1), BuildingBlock: CIFDUS_clean_linker_0, # of connection points: 2
#     Edge 12, Type (0, 1), BuildingBlock: CIFDUS_clean_linker_0, # of connection points: 2
#     Edge 13, Type (0, 1), BuildingBlock: CIFDUS_clean_linker_0, # of connection points: 2
#     Edge 14, Type (0, 1), BuildingBlock: CIFDUS_clean_linker_0, # of connection points: 2
#     Edge 15, Type (0, 1), BuildingBlock: CIFDUS_clean_linker_0, # of connection points: 2
#     Edge 16, Type (0, 1), BuildingBlock: CIFDUS_clean_linker_0, # of connection points: 2
#     Edge 17, Type (0, 1), BuildingBlock: CIFDUS_clean_linker_0, # of connection points: 2
#     Edge 18, Type (0, 1), BuildingBlock: CIFDUS_clean_linker_0, # of connection points: 2
#     Edge 19, Type (0, 1), BuildingBlock: CIFDUS_clean_linker_0, # of connection points: 2
#     Edge 20, Type (0, 1), BuildingBlock: CIFDUS_clean_linker_0, # of connection points: 2
#     Edge 21, Type (0, 1), BuildingBlock: CIFDUS_clean_linker_0, # of connection points: 2
#     Edge 22, Type (0, 1), BuildingBlock: CIFDUS_clean_linker_0, # of connection points: 2
#     Edge 23, Type (0, 1), BuildingBlock: CIFDUS_clean_linker_0, # of connection points: 2
#     Edge 24, Type (0, 1), BuildingBlock: CIFDUS_clean_linker_0, # of connection points: 2
#     Edge 25, Type (0, 1), BuildingBlock: CIFDUS_clean_linker_0, # of connection points: 2
#     Edge 26, Type (0, 1), BuildingBlock: CIFDUS_clean_linker_0, # of connection points: 2
# Relax obj value: 0.300
# Max RMSD: 0.152
# Mean RMSD: 0.116
data_MOF--net-anh--node1-CUWYAW_clean_sbu_0--node2-PAMTOO_clean_linker_0--edge1-CIFDUS_clean_linker_0
_symmetry_space_group_name_H-M    P1
_symmetry_Int_Tables_number       1
_symmetry_cell_setting            triclinic
loop_
_symmetry_equiv_pos_as_xyz
'x, y, z'
_cell_length_a     27.910474
_cell_length_b     28.012224
_cell_length_c     43.829027
_cell_angle_alpha  86.217126
_cell_angle_beta   92.703859
_cell_angle_gamma 120.31432
loop_
_atom_site_label
_atom_site_type_symbol
_atom_site_fract_x
_atom_site_fract_y
_atom_site_fract_z
_atom_type_partial_charge
C0 C 1.07955 0.40643 0.14052 0.0
Eu1 Eu 0.14521 0.51168 0.14869 0.0
C2 C 1.01908 0.36929 0.13889 0.0
C3 C 0.99417 0.32227 0.15879 0.0
C4 C 0.93648 0.29004 0.16016 0.0
C5 C 0.90266 0.30416 0.14145 0.0
C6 C 0.92783 0.34954 0.12027 0.0
C7 C 0.98551 0.38199 0.11908 0.0
C8 C 0.16972 0.55352 0.20557 0.0
C9 C 1.06589 0.57268 0.13883 0.0
C10 C 0.26641 0.73221 0.15754 0.0
Eu11 Eu 0.20224 0.62977 0.14501 0.0
C12 C 0.30309 0.79048 0.1648 0.0
C13 C 0.29776 0.83238 0.14851 0.0
C14 C 0.3279 0.88683 0.15763 0.0
C15 C 0.36424 0.90047 0.1831 0.0
C16 C 0.37185 0.85889 0.19827 0.0
C17 C 0.34137 0.80433 0.18927 0.0
C18 C 0.17708 0.58508 0.08982 0.0
C19 C 0.28192 0.56852 0.14233 0.0
O20 O 1.10151 0.44385 0.11825 0.0
O21 O 1.10014 0.42618 0.1672 0.0
O22 O 0.17601 0.51346 0.19733 0.0
O23 O 0.15135 0.571 0.18304 0.0
O24 O 1.07036 0.52752 0.13658 0.0
O25 O 0.11266 0.61939 0.14551 0.0
O26 O 0.25976 0.6912 0.17646 0.0
O27 O 0.23796 0.71762 0.13186 0.0
O28 O 0.17312 0.62789 0.09543 0.0
O29 O 0.19627 0.57057 0.11271 0.0
O30 O 0.28091 0.61591 0.14406 0.0
O31 O 0.23267 0.52175 0.14261 0.0
H32 H 1.01935 0.31176 0.17421 0.0
H33 H 0.91854 0.25591 0.17707 0.0
H34 H 0.90293 0.36108 0.10531 0.0
H35 H 1.00362 0.41795 0.10334 0.0
H36 H 0.2685 0.82275 0.12955 0.0
H37 H 0.32043 0.91759 0.14565 0.0
H38 H 0.40021 0.86822 0.21764 0.0
H39 H 0.34673 0.77279 0.20196 0.0
C40 C 0.61241 0.19036 0.47202 0.0
Eu41 Eu 0.65047 0.12262 0.48066 0.0
C42 C 0.64259 0.25133 0.47125 0.0
C43 C 0.68944 0.28218 0.45278 0.0
C44 C 0.72707 0.33748 0.45835 0.0
C45 C 0.71846 0.36282 0.48243 0.0
C46 C 0.66878 0.33359 0.49879 0.0
C47 C 0.63111 0.27824 0.49322 0.0
C48 C 0.66662 0.09081 0.5388 0.0
C49 C 0.78987 0.2053 0.47494 0.0
C50 C 0.75723 1.00878 0.49264 0.0
Eu51 Eu 0.71254 1.0703 0.48105 0.0
C52 C 0.75291 0.9563 0.48477 0.0
C53 C 0.78001 0.95445 0.45897 0.0
C54 C 0.78608 0.90878 0.455 0.0
C55 C 0.76529 0.86421 0.47675 0.0
C56 C 0.73433 0.86415 0.50118 0.0
C57 C 0.72846 0.90992 0.50524 0.0
C58 C 0.69317 0.0989 0.42371 0.0
C59 C 0.57111 0.98834 0.47436 0.0
O60 O 0.62156 0.16743 0.44968 0.0
O61 O 0.613 0.16675 0.49861 0.0
O62 O 0.61917 0.08095 0.52721 0.0
O63 O 0.70413 0.11523 0.51884 0.0
O64 O 0.73954 0.19898 0.4693 0.0
O65 O 0.7908 0.15969 0.48467 0.0
O66 O 0.71885 1.00665 0.50968 0.0
O67 O 0.77392 1.04813 0.47121 0.0
O68 O 0.74049 0.10488 0.43288 0.0
O69 O 0.65807 0.07662 0.44456 0.0
O70 O 0.62014 0.99015 0.479 0.0
O71 O 0.57308 1.03697 0.47221 0.0
H72 H 0.69933 0.26266 0.43554 0.0
H73 H 0.76503 0.35886 0.44542 0.0
H74 H 0.66073 0.35251 0.51717 0.0
H75 H 0.59515 0.25534 0.50763 0.0
H76 H 0.79942 0.98957 0.44274 0.0
H77 H 0.80988 0.90973 0.43591 0.0
H78 H 0.71848 0.83073 0.51859 0.0
H79 H 0.70771 0.9103 0.52543 0.0
C80 C 0.87599 0.71559 0.79215 0.0
Eu81 Eu 0.77392 0.67077 0.80995 0.0
C82 C 0.90653 0.69043 0.78102 0.0
C83 C 0.95719 0.70246 0.79512 0.0
C84 C 0.97793 0.6669 0.79256 0.0
C85 C 0.94804 0.61889 0.77589 0.0
C86 C 0.90145 0.6112 0.75842 0.0
C87 C 0.88056 0.64662 0.76108 0.0
C88 C 0.74518 0.65711 0.87035 0.0
C89 C 0.71932 0.53137 0.80818 0.0
C90 C 0.55823 0.55346 0.83808 0.0
Eu91 Eu 0.65917 0.6041 0.81811 0.0
C92 C 0.50147 0.54259 0.83318 0.0
C93 C 0.47676 0.5335 0.80381 0.0
C94 C 0.41896 0.50581 0.80052 0.0
C95 C 0.3858 0.48695 0.82657 0.0
C96 C 0.4109 0.50132 0.85563 0.0
C97 C 0.46841 0.52895 0.85889 0.0
C98 C 0.68737 0.62008 0.75867 0.0
C99 C 0.71229 0.74503 0.80603 0.0
O100 O 0.83578 0.71283 0.77448 0.0
O101 O 0.86163 0.70296 0.8208 0.0
O102 O 0.77859 0.70421 0.85655 0.0
O103 O 0.7269 0.61896 0.85161 0.0
O104 O 0.7599 0.58218 0.79925 0.0
O105 O 0.67615 0.52935 0.82131 0.0
O106 O 0.59659 0.60108 0.84812 0.0
O107 O 0.57623 0.53398 0.81811 0.0
O108 O 0.64979 0.57293 0.77032 0.0
O109 O 0.70562 0.65605 0.77825 0.0
O110 O 0.66753 0.69517 0.81358 0.0
O111 O 0.75935 0.74525 0.8019 0.0
H112 H 0.97781 0.73612 0.81051 0.0
H113 H 1.01385 0.67374 0.80639 0.0
H114 H 0.87828 0.57489 0.74507 0.0
H115 H 0.84152 0.63665 0.74971 0.0
H116 H 0.5018 0.54387 0.78363 0.0
H117 H 0.40029 0.49556 0.77791 0.0
H118 H 0.38591 0.48815 0.87599 0.0
H119 H 0.48677 0.53557 0.88168 0.0
H120 H 0.6567 0.18434 0.24593 0.0
H121 H 0.52262 0.19494 0.28341 0.0
H122 H 0.57522 0.25733 0.19187 0.0
H123 H 0.44065 0.23158 0.20562 0.0
C124 C 0.45054 0.20769 0.22349 0.0
O125 O 0.50464 0.24115 0.23378 0.0
H126 H 0.42198 0.1981 0.24271 0.0
C127 C 0.62472 0.19547 0.24338 0.0
C128 C 0.62044 0.22205 0.21594 0.0
C129 C 0.59022 0.18582 0.26814 0.0
C130 C 0.54941 0.20119 0.26464 0.0
C131 C 0.54379 0.22619 0.23701 0.0
C132 C 0.57937 0.2369 0.21286 0.0
H133 H 0.7734 0.63725 0.58512 0.0
H134 H 0.90901 0.62171 0.6244 0.0
H135 H 0.91019 0.66892 0.52911 0.0
H136 H 0.99211 0.59759 0.5887 0.0
C137 C 0.97572 0.60869 0.56749 0.0
O138 O 0.9654 0.65065 0.57351 0.0
H139 H 1.00903 0.62492 0.55028 0.0
C140 C 0.81189 0.63752 0.58215 0.0
C141 C 0.83758 0.6531 0.55356 0.0
C142 C 0.83718 0.62614 0.60772 0.0
C143 C 0.88847 0.62931 0.60466 0.0
C144 C 0.91452 0.64469 0.57624 0.0
C145 C 0.88905 0.65622 0.55078 0.0
H146 H 1.02805 0.48906 0.9039 0.0
H147 H 1.09743 0.39091 0.94422 0.0
H148 H 1.07575 0.40153 0.84801 0.0
H149 H 1.05197 0.30419 0.86281 0.0
C150 C 1.08648 0.30989 0.87879 0.0
O151 O 1.10832 0.3586 0.89378 0.0
H152 H 1.07014 0.27417 0.89576 0.0
C153 C 1.04453 0.46171 0.90268 0.0
C154 C 1.04926 0.44655 0.87362 0.0
C155 C 1.06436 0.44493 0.92906 0.0
C156 C 1.08103 0.40551 0.92547 0.0
C157 C 1.08335 0.38854 0.89656 0.0
C158 C 1.06996 0.41121 0.87056 0.0
H159 H 1.06725 0.47172 0.39269 0.0
H160 H 0.22601 0.6213 0.39297 0.0
H161 H 0.1429 0.54562 0.47862 0.0
H162 H 0.23518 0.70061 0.46504 0.0
C163 C 0.26096 0.69291 0.44977 0.0
O164 O 0.24024 0.63416 0.45178 0.0
H165 H 0.25206 0.70409 0.42624 0.0
C166 C 1.09979 0.50464 0.4057 0.0
C167 C 1.09556 0.50154 0.43789 0.0
C168 C 0.146 0.54716 0.38955 0.0
C169 C 0.19025 0.59011 0.40561 0.0
C170 C 0.19099 0.59244 0.43771 0.0
C171 C 0.14294 0.54662 0.4539 0.0
H172 H 0.70804 1.02376 0.72484 0.0
H173 H 0.70512 0.17529 0.72707 0.0
H174 H 0.6984 0.08379 0.8119 0.0
H175 H 0.75882 0.25107 0.7657 0.0
C176 C 0.73405 0.23734 0.78691 0.0
O177 O 0.69556 0.17837 0.78553 0.0
H178 H 0.76418 0.24297 0.80575 0.0
C179 C 0.70734 1.05422 0.73849 0.0
C180 C 0.70464 1.04551 0.77077 0.0
C181 C 0.70814 0.10049 0.72278 0.0
C182 C 0.70605 0.14101 0.73948 0.0
C183 C 0.70345 0.13803 0.77164 0.0
C184 C 0.70212 0.08876 0.78729 0.0
H185 H 0.7945 0.58312 0.05668 0.0
H186 H 0.64932 0.59915 0.05697 0.0
H187 H 0.72778 0.58889 0.14291 0.0
H188 H 0.57128 0.52483 0.13232 0.0
C189 C 0.57866 0.55961 0.11582 0.0
O190 O 0.63782 0.59792 0.11594 0.0
H191 H 0.56681 0.54128 0.09305 0.0
C192 C 0.7636 0.58487 0.06987 0.0
C193 C 0.7692 0.58498 0.10215 0.0
C194 C 0.72143 0.59047 0.05366 0.0
C195 C 0.68091 0.59439 0.06981 0.0
C196 C 0.67939 0.59145 0.10207 0.0
C197 C 0.72553 0.5882 0.11822 0.0
H198 H 0.40096 0.65125 0.13073 0.0
H199 H 0.2909 0.47537 0.14622 0.0
H200 H 0.36791 0.45965 0.14112 0.0
H201 H 0.46719 0.49196 0.13134 0.0
H202 H 0.58114 0.66549 0.11386 0.0
H203 H 0.50486 0.68457 0.12058 0.0
C204 C 0.39327 0.60925 0.13321 0.0
C205 C 0.33677 0.56466 0.13921 0.0
C206 C 0.44001 0.5995 0.1299 0.0
C207 C 0.33128 0.51134 0.14177 0.0
C208 C 0.37637 0.50194 0.13881 0.0
C209 C 0.4764 0.53452 0.12941 0.0
C210 C 0.53284 0.57695 0.12286 0.0
C211 C 0.4311 0.54521 0.13284 0.0
C212 C 0.54044 0.63114 0.11961 0.0
C213 C 0.4957 0.64209 0.12333 0.0
H214 H 0.90469 0.25964 0.49916 0.0
H215 H 0.80136 0.28675 0.43235 0.0
H216 H 0.88049 0.37606 0.41675 0.0
H217 H 0.98145 0.44874 0.41966 0.0
H218 H 1.08612 0.42803 0.48808 0.0
H219 H 1.00667 0.33803 0.50481 0.0
C220 C 0.89889 0.28473 0.48115 0.0
C221 C 0.84411 0.26326 0.46717 0.0
C222 C 0.94631 0.3392 0.47227 0.0
C223 C 0.84063 0.29944 0.44413 0.0
C224 C 0.8869 0.35163 0.43493 0.0
C225 C 0.98761 0.42539 0.43857 0.0
C226 C 1.04254 0.44829 0.45225 0.0
C227 C 0.94034 0.37245 0.44855 0.0
C228 C 1.0463 0.41459 0.4768 0.0
C229 C 0.99999 0.36176 0.48633 0.0
H230 H 0.65473 0.79935 0.83115 0.0
H231 H 0.77137 0.82451 0.76199 0.0
H232 H 0.78075 0.91383 0.74684 0.0
H233 H 0.75826 0.98857 0.75154 0.0
H234 H 0.64507 0.97027 0.82083 0.0
H235 H 0.63402 0.87921 0.83702 0.0
C236 C 0.68204 0.82374 0.81255 0.0
C237 C 0.71182 0.80143 0.79786 0.0
C238 C 0.68881 0.87867 0.80375 0.0
C239 C 0.74729 0.83734 0.77426 0.0
C240 C 0.75295 0.88978 0.76535 0.0
C241 C 0.7307 0.96542 0.77027 0.0
C242 C 0.70254 0.98971 0.78433 0.0
C243 C 0.7243 0.91158 0.77973 0.0
C244 C 0.66838 0.95602 0.80902 0.0
C245 C 0.66155 0.90246 0.81829 0.0
H246 H 1.01479 0.63549 0.15859 0.0
H247 H 0.9802 0.50141 0.10174 0.0
H248 H 0.89055 0.49205 0.08707 0.0
H249 H 0.81923 0.52173 0.08807 0.0
H250 H 0.84723 0.65018 0.14738 0.0
H251 H 0.93785 0.66035 0.16287 0.0
C252 C 0.98806 0.60401 0.14294 0.0
C253 C 1.00777 0.56961 0.13137 0.0
C254 C 0.93321 0.59723 0.1348 0.0
C255 C 0.96925 0.52912 0.11146 0.0
C256 C 0.91674 0.52357 0.10284 0.0
C257 C 0.84431 0.55185 0.10475 0.0
C258 C 0.8231 0.58484 0.11623 0.0
C259 C 0.89771 0.55727 0.11409 0.0
C260 C 0.85916 0.62303 0.13792 0.0
C261 C 0.9124 0.62932 0.1467 0.0
H262 H 0.53329 0.86901 0.46777 0.0
H263 H 0.4694 0.9801 0.47332 0.0
H264 H 0.3756 0.90354 0.46794 0.0
H265 H 0.30704 0.8045 0.46064 0.0
H266 H 0.36384 0.68901 0.45302 0.0
H267 H 0.46073 0.76497 0.46009 0.0
C268 C 0.49918 0.87699 0.46797 0.0
C269 C 0.51195 0.93362 0.47122 0.0
C270 C 0.44193 0.83049 0.46449 0.0
C271 C 0.46435 0.93957 0.47099 0.0
C272 C 0.40922 0.89476 0.46787 0.0
C273 C 0.34017 0.79497 0.46093 0.0
C274 C 0.32512 0.73841 0.45701 0.0
C275 C 0.39686 0.83992 0.46455 0.0
C276 C 0.37122 0.73006 0.45662 0.0
C277 C 0.42774 0.77455 0.46055 0.0
H278 H 0.66132 0.41489 0.83274 0.0
H279 H 0.78345 0.52125 0.7661 0.0
H280 H 0.79478 0.44433 0.75291 0.0
H281 H 0.77496 0.34627 0.76059 0.0
H282 H 0.65428 0.237 0.82681 0.0
H283 H 0.63851 0.31273 0.8391 0.0
C284 C 0.69064 0.42191 0.81526 0.0
C285 C 0.72227 0.47745 0.8011 0.0
C286 C 0.69745 0.37528 0.80731 0.0
C287 C 0.75899 0.48184 0.77837 0.0
C288 C 0.76535 0.43668 0.77048 0.0
C289 C 0.7438 0.33769 0.77726 0.0
C290 C 0.71444 0.28235 0.79147 0.0
C291 C 0.73547 0.38301 0.78479 0.0
C292 C 0.67662 0.2763 0.81407 0.0
C293 C 0.66799 0.32088 0.82148 0.0
H294 H 0.70405 0.75235 0.48735 0.0
H295 H 0.87048 0.88589 0.46926 0.0
H296 H 0.90761 0.82612 0.48564 0.0
H297 H 0.89434 0.74429 0.51599 0.0
H298 H 0.7286 0.61076 0.53568 0.0
H299 H 0.68967 0.66196 0.50762 0.0
C300 C 0.74826 0.76773 0.48623 0.0
C301 C 0.7845 0.82361 0.47766 0.0
C302 C 0.76959 0.73355 0.49655 0.0
C303 C 0.84163 0.84299 0.47575 0.0
C304 C 0.86303 0.80898 0.48544 0.0
C305 C 0.8497 0.72524 0.51313 0.0
C306 C 0.81447 0.67455 0.52869 0.0
C307 C 0.82766 0.75528 0.49748 0.0
C308 C 0.75665 0.65056 0.52464 0.0
C309 C 0.73434 0.67981 0.50864 0.0
H310 H 1.04555 0.61859 0.77799 0.0
H311 H 0.87012 0.51495 0.79317 0.0
H312 H 0.88512 0.44547 0.82078 0.0
H313 H 0.94991 0.42434 0.85002 0.0
H314 H 0.12585 0.52977 0.83773 0.0
H315 H 1.10956 0.5887 0.79991 0.0
C316 C 1.01067 0.57992 0.78652 0.0
C317 C 0.9568 0.5717 0.78347 0.0
C318 C 1.02001 0.54126 0.80367 0.0
C319 C 0.91174 0.52154 0.79455 0.0
C320 C 0.92044 0.48225 0.81093 0.0
C321 C 0.98432 0.45935 0.83828 0.0
C322 C 1.03876 0.47353 0.84647 0.0
C323 C 0.97459 0.49312 0.81701 0.0
C324 C 1.08357 0.51867 0.83149 0.0
C325 C 1.07427 0.55232 0.81005 0.0
H326 H 0.40847 1.00056 0.15151 0.0
H327 H 0.37482 0.92548 0.24305 0.0
H328 H 0.40168 1.01444 0.26357 0.0
H329 H 0.42508 0.11132 0.25512 0.0
H330 H 0.45696 0.18662 0.16394 0.0
H331 H 0.43933 0.09964 0.14351 0.0
C332 C 0.40717 1.00372 0.17596 0.0
C333 C 0.389 0.95621 0.19562 0.0
C334 C 0.42115 1.05475 0.18758 0.0
C335 C 0.38897 0.96133 0.22734 0.0
C336 C 0.40369 1.0121 0.23911 0.0
C337 C 0.42793 0.10836 0.23078 0.0
C338 C 0.44042 0.1543 0.21085 0.0
C339 C 0.41813 1.05859 0.21937 0.0
C340 C 0.44583 0.15102 0.17949 0.0
C341 C 0.43612 0.10155 0.1679 0.0
H342 H 0.75371 0.38603 0.54078 0.0
H343 H 0.78824 0.45688 0.44848 0.0
H344 H 0.87148 0.53913 0.46663 0.0
H345 H 0.93609 0.58918 0.50881 0.0
H346 H 0.90073 0.51722 0.60071 0.0
H347 H 0.81559 0.43694 0.58275 0.0
C348 C 0.77872 0.41999 0.52469 0.0
C349 C 0.76465 0.41567 0.49338 0.0
C350 C 0.82667 0.46642 0.5352 0.0
C351 C 0.79831 0.45936 0.47271 0.0
C352 C 0.84589 0.50623 0.48306 0.0
C353 C 0.90985 0.55546 0.52469 0.0
C354 C 0.925 0.55795 0.55582 0.0
C355 C 0.86092 0.50977 0.51419 0.0
C356 C 0.89026 0.51514 0.57653 0.0
C357 C 0.84154 0.46963 0.56632 0.0
H358 H 0.33026 0.3878 0.85619 0.0
H359 H 0.30772 0.4979 0.79157 0.0
H360 H 0.20661 0.43908 0.79551 0.0
H361 H 0.12757 0.36811 0.82544 0.0
H362 H 0.15311 0.26663 0.89493 0.0
H363 H 0.2498 0.30817 0.88003 0.0
C364 C 0.303 0.39833 0.84267 0.0
C365 C 0.32574 0.44759 0.82433 0.0
C366 C 0.24557 0.36543 0.84579 0.0
C367 C 0.29067 0.46042 0.80616 0.0
C368 C 0.23308 0.42689 0.80847 0.0
C369 C 0.15386 0.35364 0.8364 0.0
C370 C 0.13366 0.31474 0.8613 0.0
C371 C 0.21029 0.3808 0.8293 0.0
C372 C 0.16781 0.2962 0.87554 0.0
C373 C 0.22329 0.32068 0.86739 0.0
H374 H 0.83927 0.35195 0.1428 0.0
H375 H 0.83052 0.19341 0.15319 0.0
H376 H 0.73663 0.1512 0.17301 0.0
H377 H 0.66341 0.16287 0.19422 0.0
H378 H 0.67526 0.32285 0.18564 0.0
H379 H 0.76037 0.36029 0.1568 0.0
C380 C 0.81628 0.30777 0.14841 0.0
C381 C 0.8422 0.27604 0.14696 0.0
C382 C 0.76282 0.28405 0.16016 0.0
C383 C 0.81188 0.21897 0.1547 0.0
C384 C 0.75819 0.1948 0.16596 0.0
C385 C 0.68424 0.20569 0.18559 0.0
C386 C 0.66361 0.24025 0.1925 0.0
C387 C 0.73424 0.22749 0.16995 0.0
C388 C 0.69017 0.2953 0.18061 0.0
C389 C 0.73923 0.31694 0.16439 0.0
H390 H 0.13192 0.60764 0.03823 0.0
H391 H 0.17875 0.49216 0.07866 0.0
H392 H 0.13748 0.43328 0.0355 0.0
H393 H 1.08948 0.41517 -0.01313 0.0
H394 H 1.06418 0.54258 0.94023 0.0
H395 H 1.09197 0.59348 -0.01413 0.0
C396 C 0.13321 0.56969 0.03744 0.0
C397 C 0.15667 0.55331 0.06201 0.0
C398 C 0.1122 0.53737 0.01164 0.0
C399 C 0.15922 0.50472 0.06047 0.0
C400 C 0.13584 0.4711 0.03573 0.0
C401 C 1.09118 0.45459 -0.01443 0.0
C402 C 1.0749 0.47377 0.9587 0.0
C403 C 0.11233 0.48711 0.01114 0.0
C404 C 1.07509 0.52436 0.95978 0.0
C405 C 1.09214 0.55484 -0.01392 0.0
H406 H 0.59326 1.07267 0.39764 0.0
H407 H 0.76957 0.16852 0.38233 0.0
H408 H 0.75311 0.20426 0.33302 0.0
H409 H 0.68913 0.21028 0.29522 0.0
H410 H 0.51227 0.11055 0.30848 0.0
H411 H 0.52847 0.07504 0.35804 0.0
C412 C 0.62794 0.10119 0.38337 0.0
C413 C 0.68251 0.11802 0.39345 0.0
C414 C 0.61812 0.12114 0.35492 0.0
C415 C 0.7272 0.15481 0.37487 0.0
C416 C 0.71783 0.17538 0.34678 0.0
C417 C 0.65394 0.17998 0.30859 0.0
C418 C 0.59951 0.16303 0.29802 0.0
C419 C 0.6635 0.15895 0.33664 0.0
C420 C 0.55461 0.12487 0.3162 0.0
C421 C 0.56382 0.10427 0.34444 0.0
H422 H 0.70671 0.54725 0.73165 0.0
H423 H 0.73202 0.71254 0.72179 0.0
H424 H 0.78244 0.72954 0.67444 0.0
H425 H 0.81831 0.69704 0.63572 0.0
H426 H 0.79948 0.53456 0.64669 0.0
H427 H 0.74854 0.51681 0.6943 0.0
C428 C 0.72277 0.58662 0.71882 0.0
C429 C 0.71476 0.62825 0.72949 0.0
C430 C 0.75342 0.59671 0.69225 0.0
C431 C 0.73717 0.67981 0.71351 0.0
C432 C 0.76615 0.68959 0.68662 0.0
C433 C 0.8032 0.6579 0.64872 0.0
C434 C 0.81193 0.6169 0.63791 0.0
C435 C 0.77446 0.64836 0.67581 0.0
C436 C 0.79305 0.56655 0.65485 0.0
C437 C 0.76369 0.55636 0.68182 0.0
H438 H 0.74244 0.16583 0.57926 0.0
H439 H 0.60599 0.99857 0.57431 0.0
H440 H 0.60823 0.98531 0.62997 0.0
H441 H 0.64504 1.02256 0.68079 0.0
H442 H 0.77651 0.1921 0.68658 0.0
H443 H 0.77986 0.20322 0.63066 0.0
C444 C 0.71398 0.12622 0.59039 0.0
C445 C 0.67468 0.08283 0.57242 0.0
C446 C 0.71402 0.11952 0.62288 0.0
C447 C 0.63704 1.03237 0.58742 0.0
C448 C 0.63811 1.02485 0.61937 0.0
C449 C 0.67481 1.06184 0.66986 0.0
C450 C 0.71051 0.10639 0.68822 0.0
C451 C 0.6758 1.06831 0.63746 0.0
C452 C 0.74818 0.15713 0.6733 0.0
C453 C 0.75028 0.16348 0.64118 0.0
H454 H 0.72355 0.5667 0.90953 0.0
H455 H 0.74936 0.73202 0.90806 0.0
H456 H 0.74078 0.72528 0.96365 0.0
H457 H 0.72955 0.67398 0.01361 0.0
H458 H 0.71235 0.51218 0.01596 0.0
H459 H 0.71389 0.51576 0.95991 0.0
C460 C 0.72682 0.60102 0.92137 0.0
C461 C 0.73677 0.64979 0.90435 0.0
C462 C 0.72367 0.59756 0.95384 0.0
C463 C 0.74172 0.69404 0.92036 0.0
C464 C 0.73683 0.69022 0.95229 0.0
C465 C 0.72572 0.63936 0.00181 0.0
C466 C 0.72045 0.59265 0.01915 0.0
C467 C 0.72833 0.64245 0.96941 0.0
C468 C 0.7164 0.54857 0.00334 0.0
C469 C 0.71728 0.55065 0.97118 0.0
H470 H 0.16329 0.48636 0.25487 0.0
H471 H 0.16759 0.64016 0.23108 0.0
H472 H 0.16248 0.65338 0.28556 0.0
H473 H 0.15648 0.62034 0.34075 0.0
H474 H 0.14577 0.46294 0.36253 0.0
H475 H 0.15365 0.45211 0.30848 0.0
C476 C 0.16325 0.52296 0.26149 0.0
C477 C 0.16626 0.56242 0.23867 0.0
C478 C 0.15905 0.52957 0.29278 0.0
C479 C 0.16542 0.60912 0.24797 0.0
C480 C 0.16253 0.61667 0.27922 0.0
C481 C 0.15594 0.58377 0.33358 0.0
C482 C 0.15061 0.54246 0.3559 0.0
C483 C 0.15932 0.57713 0.30196 0.0
C484 C 0.14956 0.49518 0.34604 0.0
C485 C 0.15419 0.48901 0.31504 0.0
loop_
_geom_bond_atom_site_label_1
_geom_bond_atom_site_label_2
_geom_bond_distance
_geom_bond_site_symmetry_2
_ccdc_geom_bond_type
C0 Eu1 2.835 . S
C0 C2 1.500 . S
C0 O20 1.257 . S
C0 O21 1.260 . S
Eu1 C0 2.835 . S
Eu1 O20 2.473 . S
Eu1 O21 2.480 . S
Eu1 O22 2.430 . S
Eu1 O23 2.670 1_655 S
Eu1 O24 2.394 . S
Eu1 O29 2.355 1_655 S
Eu1 O31 2.374 1_655 S
C2 C0 1.500 . S
C2 C3 1.377 . S
C2 C7 1.377 . S
C3 C2 1.377 . S
C3 C4 1.395 . S
C3 H32 0.931 . S
C4 C3 1.395 . S
C4 C5 1.383 . S
C4 H33 0.931 . S
C5 C4 1.383 . S
C5 C6 1.394 . S
C6 C5 1.394 . S
C6 C7 1.378 . S
C6 H34 0.931 . S
C7 C2 1.377 . S
C7 C6 1.378 . S
C7 H35 0.931 . S
C8 O22 1.259 1_455 S
C8 O23 1.270 . S
C9 O24 1.251 . S
C9 O25 1.251 . S
C10 Eu11 2.835 . S
C10 C12 1.500 . S
C10 O26 1.257 . S
C10 O27 1.260 . S
Eu11 C10 2.835 . S
Eu11 O23 2.355 . S
Eu11 O25 2.374 1_455 S
Eu11 O26 2.473 . S
Eu11 O27 2.480 . S
Eu11 O28 2.430 . S
Eu11 O29 2.670 . S
Eu11 O30 2.394 . S
C12 C10 1.500 . S
C12 C13 1.377 . S
C12 C17 1.377 . S
C13 C12 1.377 . S
C13 C14 1.395 . S
C13 H36 0.931 . S
C14 C13 1.395 . S
C14 C15 1.383 . S
C14 H37 0.931 . S
C15 C14 1.383 . S
C15 C16 1.394 . S
C16 C15 1.394 . S
C16 C17 1.378 . S
C16 H38 0.931 . S
C17 C12 1.377 . S
C17 C16 1.378 . S
C17 H39 0.931 . S
C18 O28 1.259 . S
C18 O29 1.270 . S
C19 O30 1.251 . S
C19 O31 1.251 . S
O20 C0 1.257 . S
O20 Eu1 2.473 . S
O21 C0 1.260 . S
O21 Eu1 2.480 . S
O22 Eu1 2.430 . S
O22 C8 1.259 1_655 S
O23 Eu1 2.670 1_455 S
O23 C8 1.270 . S
O23 Eu11 2.355 . S
O24 Eu1 2.394 . S
O24 C9 1.251 . S
O25 C9 1.251 . S
O25 Eu11 2.374 1_655 S
O26 C10 1.257 . S
O26 Eu11 2.473 . S
O27 C10 1.260 . S
O27 Eu11 2.480 . S
O28 Eu11 2.430 . S
O28 C18 1.259 . S
O29 Eu1 2.355 1_455 S
O29 Eu11 2.670 . S
O29 C18 1.270 . S
O30 Eu11 2.394 . S
O30 C19 1.251 . S
O31 Eu1 2.374 1_455 S
O31 C19 1.251 . S
H32 C3 0.931 . S
H33 C4 0.931 . S
H34 C6 0.931 . S
H35 C7 0.931 . S
H36 C13 0.931 . S
H37 C14 0.931 . S
H38 C16 0.931 . S
H39 C17 0.931 . S
C40 Eu41 2.835 . S
C40 C42 1.500 . S
C40 O60 1.257 . S
C40 O61 1.260 . S
Eu41 C40 2.835 . S
Eu41 O60 2.473 . S
Eu41 O61 2.480 . S
Eu41 O62 2.430 . S
Eu41 O63 2.670 . S
Eu41 O64 2.394 . S
Eu41 O69 2.355 . S
Eu41 O71 2.374 1_545 S
C42 C40 1.500 . S
C42 C43 1.377 . S
C42 C47 1.377 . S
C43 C42 1.377 . S
C43 C44 1.395 . S
C43 H72 0.931 . S
C44 C43 1.395 . S
C44 C45 1.383 . S
C44 H73 0.931 . S
C45 C44 1.383 . S
C45 C46 1.394 . S
C46 C45 1.394 . S
C46 C47 1.378 . S
C46 H74 0.931 . S
C47 C42 1.377 . S
C47 C46 1.378 . S
C47 H75 0.931 . S
C48 O62 1.259 . S
C48 O63 1.270 . S
C49 O64 1.251 . S
C49 O65 1.251 . S
C50 Eu51 2.835 . S
C50 C52 1.500 . S
C50 O66 1.257 . S
C50 O67 1.260 . S
Eu51 C50 2.835 . S
Eu51 O63 2.355 1_565 S
Eu51 O65 2.374 1_565 S
Eu51 O66 2.473 . S
Eu51 O67 2.480 . S
Eu51 O68 2.430 1_565 S
Eu51 O69 2.670 1_565 S
Eu51 O70 2.394 . S
C52 C50 1.500 . S
C52 C53 1.377 . S
C52 C57 1.377 . S
C53 C52 1.377 . S
C53 C54 1.395 . S
C53 H76 0.931 . S
C54 C53 1.395 . S
C54 C55 1.383 . S
C54 H77 0.931 . S
C55 C54 1.383 . S
C55 C56 1.394 . S
C56 C55 1.394 . S
C56 C57 1.378 . S
C56 H78 0.931 . S
C57 C52 1.377 . S
C57 C56 1.378 . S
C57 H79 0.931 . S
C58 O68 1.259 . S
C58 O69 1.270 . S
C59 O70 1.251 . S
C59 O71 1.251 . S
O60 C40 1.257 . S
O60 Eu41 2.473 . S
O61 C40 1.260 . S
O61 Eu41 2.480 . S
O62 Eu41 2.430 . S
O62 C48 1.259 . S
O63 Eu41 2.670 . S
O63 C48 1.270 . S
O63 Eu51 2.355 1_545 S
O64 Eu41 2.394 . S
O64 C49 1.251 . S
O65 C49 1.251 . S
O65 Eu51 2.374 1_545 S
O66 C50 1.257 . S
O66 Eu51 2.473 . S
O67 C50 1.260 . S
O67 Eu51 2.480 . S
O68 Eu51 2.430 1_545 S
O68 C58 1.259 . S
O69 Eu41 2.355 . S
O69 Eu51 2.670 1_545 S
O69 C58 1.270 . S
O70 Eu51 2.394 . S
O70 C59 1.251 . S
O71 Eu41 2.374 1_565 S
O71 C59 1.251 . S
H72 C43 0.931 . S
H73 C44 0.931 . S
H74 C46 0.931 . S
H75 C47 0.931 . S
H76 C53 0.931 . S
H77 C54 0.931 . S
H78 C56 0.931 . S
H79 C57 0.931 . S
C80 Eu81 2.835 . S
C80 C82 1.500 . S
C80 O100 1.257 . S
C80 O101 1.260 . S
Eu81 C80 2.835 . S
Eu81 O100 2.473 . S
Eu81 O101 2.480 . S
Eu81 O102 2.430 . S
Eu81 O103 2.670 . S
Eu81 O104 2.394 . S
Eu81 O109 2.355 . S
Eu81 O111 2.374 . S
C82 C80 1.500 . S
C82 C83 1.377 . S
C82 C87 1.377 . S
C83 C82 1.377 . S
C83 C84 1.395 . S
C83 H112 0.931 . S
C84 C83 1.395 . S
C84 C85 1.383 . S
C84 H113 0.931 . S
C85 C84 1.383 . S
C85 C86 1.394 . S
C86 C85 1.394 . S
C86 C87 1.378 . S
C86 H114 0.931 . S
C87 C82 1.377 . S
C87 C86 1.378 . S
C87 H115 0.931 . S
C88 O102 1.259 . S
C88 O103 1.270 . S
C89 O104 1.251 . S
C89 O105 1.251 . S
C90 Eu91 2.835 . S
C90 C92 1.500 . S
C90 O106 1.257 . S
C90 O107 1.260 . S
Eu91 C90 2.835 . S
Eu91 O103 2.355 . S
Eu91 O105 2.374 . S
Eu91 O106 2.473 . S
Eu91 O107 2.480 . S
Eu91 O108 2.430 . S
Eu91 O109 2.670 . S
Eu91 O110 2.394 . S
C92 C90 1.500 . S
C92 C93 1.377 . S
C92 C97 1.377 . S
C93 C92 1.377 . S
C93 C94 1.395 . S
C93 H116 0.931 . S
C94 C93 1.395 . S
C94 C95 1.383 . S
C94 H117 0.931 . S
C95 C94 1.383 . S
C95 C96 1.394 . S
C96 C95 1.394 . S
C96 C97 1.378 . S
C96 H118 0.931 . S
C97 C92 1.377 . S
C97 C96 1.378 . S
C97 H119 0.931 . S
C98 O108 1.259 . S
C98 O109 1.270 . S
C99 O110 1.251 . S
C99 O111 1.251 . S
O100 C80 1.257 . S
O100 Eu81 2.473 . S
O101 C80 1.260 . S
O101 Eu81 2.480 . S
O102 Eu81 2.430 . S
O102 C88 1.259 . S
O103 Eu81 2.670 . S
O103 C88 1.270 . S
O103 Eu91 2.355 . S
O104 Eu81 2.394 . S
O104 C89 1.251 . S
O105 C89 1.251 . S
O105 Eu91 2.374 . S
O106 C90 1.257 . S
O106 Eu91 2.473 . S
O107 C90 1.260 . S
O107 Eu91 2.480 . S
O108 Eu91 2.430 . S
O108 C98 1.259 . S
O109 Eu81 2.355 . S
O109 Eu91 2.670 . S
O109 C98 1.270 . S
O110 Eu91 2.394 . S
O110 C99 1.251 . S
O111 Eu81 2.374 . S
O111 C99 1.251 . S
H112 C83 0.931 . S
H113 C84 0.931 . S
H114 C86 0.931 . S
H115 C87 0.931 . S
H116 C93 0.931 . S
H117 C94 0.931 . S
H118 C96 0.931 . S
H119 C97 0.931 . S
H120 C127 0.929 . S
H121 C130 0.930 1_565 S
H122 C132 0.929 . S
H123 C124 0.969 . S
C124 H123 0.969 . S
C124 O125 1.550 . S
C124 H126 0.973 . S
O125 C124 1.550 . S
O125 C131 1.412 1_565 S
H126 C124 0.973 . S
C127 H120 0.929 . S
C127 C128 1.400 . S
C127 C129 1.364 . S
C128 C127 1.400 . S
C128 C132 1.377 . S
C129 C127 1.364 . S
C129 C130 1.374 . S
C130 H121 0.930 1_545 S
C130 C129 1.374 . S
C130 C131 1.383 . S
C131 O125 1.412 1_545 S
C131 C130 1.383 . S
C131 C132 1.394 . S
C132 H122 0.929 . S
C132 C128 1.377 . S
C132 C131 1.394 . S
H133 C140 0.929 . S
H134 C143 0.930 . S
H135 C145 0.929 . S
H136 C137 0.969 . S
C137 H136 0.969 . S
C137 O138 1.550 . S
C137 H139 0.973 . S
O138 C137 1.550 . S
O138 C144 1.412 . S
H139 C137 0.973 . S
C140 H133 0.929 . S
C140 C141 1.400 . S
C140 C142 1.364 . S
C141 C140 1.400 . S
C141 C145 1.377 . S
C142 C140 1.364 . S
C142 C143 1.374 . S
C143 H134 0.930 . S
C143 C142 1.374 . S
C143 C144 1.383 . S
C144 O138 1.412 . S
C144 C143 1.383 . S
C144 C145 1.394 . S
C145 H135 0.929 . S
C145 C141 1.377 . S
C145 C144 1.394 . S
H146 C153 0.929 . S
H147 C156 0.930 . S
H148 C158 0.929 . S
H149 C150 0.969 . S
C150 H149 0.969 . S
C150 O151 1.550 . S
C150 H152 0.973 . S
O151 C150 1.550 . S
O151 C157 1.412 . S
H152 C150 0.973 . S
C153 H146 0.929 . S
C153 C154 1.400 . S
C153 C155 1.364 1_655 S
C154 C153 1.400 . S
C154 C158 1.377 1_655 S
C155 C153 1.364 1_455 S
C155 C156 1.374 . S
C156 H147 0.930 . S
C156 C155 1.374 . S
C156 C157 1.383 . S
C157 O151 1.412 . S
C157 C156 1.383 . S
C157 C158 1.394 . S
C158 H148 0.929 . S
C158 C154 1.377 1_455 S
C158 C157 1.394 . S
H159 C166 0.929 . S
H160 C169 0.930 . S
H161 C171 0.929 . S
H162 C163 0.969 . S
C163 H162 0.969 . S
C163 O164 1.550 . S
C163 H165 0.973 . S
O164 C163 1.550 . S
O164 C170 1.412 . S
H165 C163 0.973 . S
C166 H159 0.929 . S
C166 C167 1.400 . S
C166 C168 1.364 . S
C167 C166 1.400 . S
C167 C171 1.377 . S
C168 C166 1.364 . S
C168 C169 1.374 . S
C169 H160 0.930 . S
C169 C168 1.374 . S
C169 C170 1.383 . S
C170 O164 1.412 . S
C170 C169 1.383 . S
C170 C171 1.394 . S
C171 H161 0.929 . S
C171 C167 1.377 . S
C171 C170 1.394 . S
H172 C179 0.929 . S
H173 C182 0.930 . S
H174 C184 0.929 . S
H175 C176 0.969 . S
C176 H175 0.969 . S
C176 O177 1.550 . S
C176 H178 0.973 . S
O177 C176 1.550 . S
O177 C183 1.412 . S
H178 C176 0.973 . S
C179 H172 0.929 . S
C179 C180 1.400 . S
C179 C181 1.364 1_565 S
C180 C179 1.400 . S
C180 C184 1.377 . S
C181 C179 1.364 1_545 S
C181 C182 1.374 . S
C182 H173 0.930 . S
C182 C181 1.374 . S
C182 C183 1.383 . S
C183 O177 1.412 . S
C183 C182 1.383 . S
C183 C184 1.394 1_545 S
C184 H174 0.929 . S
C184 C180 1.377 . S
C184 C183 1.394 1_565 S
H185 C192 0.929 . S
H186 C195 0.930 . S
H187 C197 0.929 . S
H188 C189 0.969 . S
C189 H188 0.969 . S
C189 O190 1.550 . S
C189 H191 0.973 . S
O190 C189 1.550 . S
O190 C196 1.412 . S
H191 C189 0.973 . S
C192 H185 0.929 . S
C192 C193 1.400 . S
C192 C194 1.364 . S
C193 C192 1.400 . S
C193 C197 1.377 . S
C194 C192 1.364 . S
C194 C195 1.374 . S
C195 H186 0.930 . S
C195 C194 1.374 . S
C195 C196 1.383 . S
C196 O190 1.412 . S
C196 C195 1.383 . S
C196 C197 1.394 . S
C197 H187 0.929 . S
C197 C193 1.377 . S
C197 C196 1.394 . S
H198 C204 0.930 . S
H199 C207 0.930 . S
H200 C208 0.930 . S
H201 C209 0.930 . S
H202 C212 0.930 . S
H203 C213 0.930 . S
C204 H198 0.930 . S
C204 C205 1.355 . S
C204 C206 1.415 . S
C205 C204 1.355 . S
C205 C207 1.419 . S
C206 C204 1.415 . S
C206 C211 1.425 . S
C206 C213 1.409 . S
C207 H199 0.930 . S
C207 C205 1.419 . S
C207 C208 1.362 . S
C208 H200 0.930 . S
C208 C207 1.362 . S
C208 C211 1.409 . S
C209 H201 0.930 . S
C209 C210 1.355 . S
C209 C211 1.415 . S
C210 C209 1.355 . S
C210 C212 1.419 . S
C211 C206 1.425 . S
C211 C208 1.409 . S
C211 C209 1.415 . S
C212 H202 0.930 . S
C212 C210 1.419 . S
C212 C213 1.362 . S
C213 H203 0.930 . S
C213 C206 1.409 . S
C213 C212 1.362 . S
H214 C220 0.930 . S
H215 C223 0.930 . S
H216 C224 0.930 . S
H217 C225 0.930 . S
H218 C228 0.930 . S
H219 C229 0.930 . S
C220 H214 0.930 . S
C220 C221 1.355 . S
C220 C222 1.415 . S
C221 C220 1.355 . S
C221 C223 1.419 . S
C222 C220 1.415 . S
C222 C227 1.425 . S
C222 C229 1.409 . S
C223 H215 0.930 . S
C223 C221 1.419 . S
C223 C224 1.362 . S
C224 H216 0.930 . S
C224 C223 1.362 . S
C224 C227 1.409 . S
C225 H217 0.930 . S
C225 C226 1.355 . S
C225 C227 1.415 . S
C226 C225 1.355 . S
C226 C228 1.419 . S
C227 C222 1.425 . S
C227 C224 1.409 . S
C227 C225 1.415 . S
C228 H218 0.930 . S
C228 C226 1.419 . S
C228 C229 1.362 . S
C229 H219 0.930 . S
C229 C222 1.409 . S
C229 C228 1.362 . S
H230 C236 0.930 . S
H231 C239 0.930 . S
H232 C240 0.930 . S
H233 C241 0.930 . S
H234 C244 0.930 . S
H235 C245 0.930 . S
C236 H230 0.930 . S
C236 C237 1.355 . S
C236 C238 1.415 . S
C237 C236 1.355 . S
C237 C239 1.419 . S
C238 C236 1.415 . S
C238 C243 1.425 . S
C238 C245 1.409 . S
C239 H231 0.930 . S
C239 C237 1.419 . S
C239 C240 1.362 . S
C240 H232 0.930 . S
C240 C239 1.362 . S
C240 C243 1.409 . S
C241 H233 0.930 . S
C241 C242 1.355 . S
C241 C243 1.415 . S
C242 C241 1.355 . S
C242 C244 1.419 . S
C243 C238 1.425 . S
C243 C240 1.409 . S
C243 C241 1.415 . S
C244 H234 0.930 . S
C244 C242 1.419 . S
C244 C245 1.362 . S
C245 H235 0.930 . S
C245 C238 1.409 . S
C245 C244 1.362 . S
H246 C252 0.930 . S
H247 C255 0.930 . S
H248 C256 0.930 . S
H249 C257 0.930 . S
H250 C260 0.930 . S
H251 C261 0.930 . S
C252 H246 0.930 . S
C252 C253 1.355 . S
C252 C254 1.415 . S
C253 C252 1.355 . S
C253 C255 1.419 . S
C254 C252 1.415 . S
C254 C259 1.425 . S
C254 C261 1.409 . S
C255 H247 0.930 . S
C255 C253 1.419 . S
C255 C256 1.362 . S
C256 H248 0.930 . S
C256 C255 1.362 . S
C256 C259 1.409 . S
C257 H249 0.930 . S
C257 C258 1.355 . S
C257 C259 1.415 . S
C258 C257 1.355 . S
C258 C260 1.419 . S
C259 C254 1.425 . S
C259 C256 1.409 . S
C259 C257 1.415 . S
C260 H250 0.930 . S
C260 C258 1.419 . S
C260 C261 1.362 . S
C261 H251 0.930 . S
C261 C254 1.409 . S
C261 C260 1.362 . S
H262 C268 0.930 . S
H263 C271 0.930 . S
H264 C272 0.930 . S
H265 C273 0.930 . S
H266 C276 0.930 . S
H267 C277 0.930 . S
C268 H262 0.930 . S
C268 C269 1.355 . S
C268 C270 1.415 . S
C269 C268 1.355 . S
C269 C271 1.419 . S
C270 C268 1.415 . S
C270 C275 1.425 . S
C270 C277 1.409 . S
C271 H263 0.930 . S
C271 C269 1.419 . S
C271 C272 1.362 . S
C272 H264 0.930 . S
C272 C271 1.362 . S
C272 C275 1.409 . S
C273 H265 0.930 . S
C273 C274 1.355 . S
C273 C275 1.415 . S
C274 C273 1.355 . S
C274 C276 1.419 . S
C275 C270 1.425 . S
C275 C272 1.409 . S
C275 C273 1.415 . S
C276 H266 0.930 . S
C276 C274 1.419 . S
C276 C277 1.362 . S
C277 H267 0.930 . S
C277 C270 1.409 . S
C277 C276 1.362 . S
H278 C284 0.930 . S
H279 C287 0.930 . S
H280 C288 0.930 . S
H281 C289 0.930 . S
H282 C292 0.930 . S
H283 C293 0.930 . S
C284 H278 0.930 . S
C284 C285 1.355 . S
C284 C286 1.415 . S
C285 C284 1.355 . S
C285 C287 1.419 . S
C286 C284 1.415 . S
C286 C291 1.425 . S
C286 C293 1.409 . S
C287 H279 0.930 . S
C287 C285 1.419 . S
C287 C288 1.362 . S
C288 H280 0.930 . S
C288 C287 1.362 . S
C288 C291 1.409 . S
C289 H281 0.930 . S
C289 C290 1.355 . S
C289 C291 1.415 . S
C290 C289 1.355 . S
C290 C292 1.419 . S
C291 C286 1.425 . S
C291 C288 1.409 . S
C291 C289 1.415 . S
C292 H282 0.930 . S
C292 C290 1.419 . S
C292 C293 1.362 . S
C293 H283 0.930 . S
C293 C286 1.409 . S
C293 C292 1.362 . S
H294 C300 0.930 . S
H295 C303 0.930 . S
H296 C304 0.930 . S
H297 C305 0.930 . S
H298 C308 0.930 . S
H299 C309 0.930 . S
C300 H294 0.930 . S
C300 C301 1.355 . S
C300 C302 1.415 . S
C301 C300 1.355 . S
C301 C303 1.419 . S
C302 C300 1.415 . S
C302 C307 1.425 . S
C302 C309 1.409 . S
C303 H295 0.930 . S
C303 C301 1.419 . S
C303 C304 1.362 . S
C304 H296 0.930 . S
C304 C303 1.362 . S
C304 C307 1.409 . S
C305 H297 0.930 . S
C305 C306 1.355 . S
C305 C307 1.415 . S
C306 C305 1.355 . S
C306 C308 1.419 . S
C307 C302 1.425 . S
C307 C304 1.409 . S
C307 C305 1.415 . S
C308 H298 0.930 . S
C308 C306 1.419 . S
C308 C309 1.362 . S
C309 H299 0.930 . S
C309 C302 1.409 . S
C309 C308 1.362 . S
H310 C316 0.930 . S
H311 C319 0.930 . S
H312 C320 0.930 . S
H313 C321 0.930 . S
H314 C324 0.931 1_455 S
H315 C325 0.930 . S
C316 H310 0.930 . S
C316 C317 1.355 . S
C316 C318 1.415 . S
C317 C316 1.355 . S
C317 C319 1.419 . S
C318 C316 1.415 . S
C318 C323 1.425 . S
C318 C325 1.409 . S
C319 H311 0.930 . S
C319 C317 1.419 . S
C319 C320 1.362 . S
C320 H312 0.930 . S
C320 C319 1.362 . S
C320 C323 1.409 . S
C321 H313 0.930 . S
C321 C322 1.355 . S
C321 C323 1.415 . S
C322 C321 1.355 . S
C322 C324 1.419 . S
C323 C318 1.425 . S
C323 C320 1.409 . S
C323 C321 1.415 . S
C324 H314 0.931 1_655 S
C324 C322 1.419 . S
C324 C325 1.362 . S
C325 H315 0.930 . S
C325 C318 1.409 . S
C325 C324 1.362 . S
H326 C332 0.930 . S
H327 C335 0.930 . S
H328 C336 0.930 . S
H329 C337 0.930 . S
H330 C340 0.930 . S
H331 C341 0.930 . S
C332 H326 0.930 . S
C332 C333 1.355 . S
C332 C334 1.415 . S
C333 C332 1.355 . S
C333 C335 1.419 . S
C334 C332 1.415 . S
C334 C339 1.425 . S
C334 C341 1.409 . S
C335 H327 0.930 . S
C335 C333 1.419 . S
C335 C336 1.362 . S
C336 H328 0.930 . S
C336 C335 1.362 . S
C336 C339 1.409 . S
C337 H329 0.930 . S
C337 C338 1.355 . S
C337 C339 1.415 . S
C338 C337 1.355 . S
C338 C340 1.419 . S
C339 C334 1.425 . S
C339 C336 1.409 . S
C339 C337 1.415 . S
C340 H330 0.930 . S
C340 C338 1.419 . S
C340 C341 1.362 . S
C341 H331 0.930 . S
C341 C334 1.409 . S
C341 C340 1.362 . S
H342 C348 0.930 . S
H343 C351 0.930 . S
H344 C352 0.930 . S
H345 C353 0.930 . S
H346 C356 0.930 . S
H347 C357 0.930 . S
C348 H342 0.930 . S
C348 C349 1.355 . S
C348 C350 1.415 . S
C349 C348 1.355 . S
C349 C351 1.419 . S
C350 C348 1.415 . S
C350 C355 1.425 . S
C350 C357 1.409 . S
C351 H343 0.930 . S
C351 C349 1.419 . S
C351 C352 1.362 . S
C352 H344 0.930 . S
C352 C351 1.362 . S
C352 C355 1.409 . S
C353 H345 0.930 . S
C353 C354 1.355 . S
C353 C355 1.415 . S
C354 C353 1.355 . S
C354 C356 1.419 . S
C355 C350 1.425 . S
C355 C352 1.409 . S
C355 C353 1.415 . S
C356 H346 0.930 . S
C356 C354 1.419 . S
C356 C357 1.362 . S
C357 H347 0.930 . S
C357 C350 1.409 . S
C357 C356 1.362 . S
H358 C364 0.930 . S
H359 C367 0.930 . S
H360 C368 0.930 . S
H361 C369 0.930 . S
H362 C372 0.930 . S
H363 C373 0.930 . S
C364 H358 0.930 . S
C364 C365 1.355 . S
C364 C366 1.415 . S
C365 C364 1.355 . S
C365 C367 1.419 . S
C366 C364 1.415 . S
C366 C371 1.425 . S
C366 C373 1.409 . S
C367 H359 0.930 . S
C367 C365 1.419 . S
C367 C368 1.362 . S
C368 H360 0.930 . S
C368 C367 1.362 . S
C368 C371 1.409 . S
C369 H361 0.930 . S
C369 C370 1.355 . S
C369 C371 1.415 . S
C370 C369 1.355 . S
C370 C372 1.419 . S
C371 C366 1.425 . S
C371 C368 1.409 . S
C371 C369 1.415 . S
C372 H362 0.930 . S
C372 C370 1.419 . S
C372 C373 1.362 . S
C373 H363 0.930 . S
C373 C366 1.409 . S
C373 C372 1.362 . S
H374 C380 0.930 . S
H375 C383 0.930 . S
H376 C384 0.930 . S
H377 C385 0.930 . S
H378 C388 0.930 . S
H379 C389 0.930 . S
C380 H374 0.930 . S
C380 C381 1.355 . S
C380 C382 1.415 . S
C381 C380 1.355 . S
C381 C383 1.419 . S
C382 C380 1.415 . S
C382 C387 1.425 . S
C382 C389 1.409 . S
C383 H375 0.930 . S
C383 C381 1.419 . S
C383 C384 1.362 . S
C384 H376 0.930 . S
C384 C383 1.362 . S
C384 C387 1.409 . S
C385 H377 0.930 . S
C385 C386 1.355 . S
C385 C387 1.415 . S
C386 C385 1.355 . S
C386 C388 1.419 . S
C387 C382 1.425 . S
C387 C384 1.409 . S
C387 C385 1.415 . S
C388 H378 0.930 . S
C388 C386 1.419 . S
C388 C389 1.362 . S
C389 H379 0.930 . S
C389 C382 1.409 . S
C389 C388 1.362 . S
H390 C396 0.930 . S
H391 C399 0.930 . S
H392 C400 0.930 . S
H393 C401 0.930 . S
H394 C404 0.930 . S
H395 C405 0.930 . S
C396 H390 0.930 . S
C396 C397 1.355 1_655 S
C396 C398 1.415 . S
C397 C396 1.355 1_455 S
C397 C399 1.419 . S
C398 C396 1.415 . S
C398 C403 1.425 1_655 S
C398 C405 1.409 1_554 S
C399 H391 0.930 . S
C399 C397 1.419 . S
C399 C400 1.362 . S
C400 H392 0.930 . S
C400 C399 1.362 . S
C400 C403 1.409 . S
C401 H393 0.930 . S
C401 C402 1.355 . S
C401 C403 1.415 1_556 S
C402 C401 1.355 . S
C402 C404 1.419 1_455 S
C403 C398 1.425 1_455 S
C403 C400 1.409 . S
C403 C401 1.415 1_554 S
C404 H394 0.930 . S
C404 C402 1.419 1_655 S
C404 C405 1.362 . S
C405 H395 0.930 . S
C405 C398 1.409 1_556 S
C405 C404 1.362 . S
H406 C412 0.930 1_565 S
H407 C415 0.930 . S
H408 C416 0.930 . S
H409 C417 0.930 . S
H410 C420 0.930 . S
H411 C421 0.930 . S
C412 H406 0.930 1_545 S
C412 C413 1.355 . S
C412 C414 1.415 . S
C413 C412 1.355 . S
C413 C415 1.419 . S
C414 C412 1.415 . S
C414 C419 1.425 . S
C414 C421 1.409 1_545 S
C415 H407 0.930 . S
C415 C413 1.419 . S
C415 C416 1.362 . S
C416 H408 0.930 . S
C416 C415 1.362 . S
C416 C419 1.409 . S
C417 H409 0.930 . S
C417 C418 1.355 . S
C417 C419 1.415 . S
C418 C417 1.355 . S
C418 C420 1.419 1_545 S
C419 C414 1.425 . S
C419 C416 1.409 . S
C419 C417 1.415 . S
C420 H410 0.930 . S
C420 C418 1.419 1_565 S
C420 C421 1.362 . S
C421 H411 0.930 . S
C421 C414 1.409 1_565 S
C421 C420 1.362 . S
H422 C428 0.930 . S
H423 C431 0.930 . S
H424 C432 0.930 . S
H425 C433 0.930 . S
H426 C436 0.930 . S
H427 C437 0.930 . S
C428 H422 0.930 . S
C428 C429 1.355 . S
C428 C430 1.415 . S
C429 C428 1.355 . S
C429 C431 1.419 . S
C430 C428 1.415 . S
C430 C435 1.425 . S
C430 C437 1.409 . S
C431 H423 0.930 . S
C431 C429 1.419 . S
C431 C432 1.362 . S
C432 H424 0.930 . S
C432 C431 1.362 . S
C432 C435 1.409 . S
C433 H425 0.930 . S
C433 C434 1.355 . S
C433 C435 1.415 . S
C434 C433 1.355 . S
C434 C436 1.419 . S
C435 C430 1.425 . S
C435 C432 1.409 . S
C435 C433 1.415 . S
C436 H426 0.930 . S
C436 C434 1.419 . S
C436 C437 1.362 . S
C437 H427 0.930 . S
C437 C430 1.409 . S
C437 C436 1.362 . S
H438 C444 0.930 . S
H439 C447 0.930 . S
H440 C448 0.930 . S
H441 C449 0.930 . S
H442 C452 0.930 . S
H443 C453 0.930 . S
C444 H438 0.930 . S
C444 C445 1.355 . S
C444 C446 1.415 . S
C445 C444 1.355 . S
C445 C447 1.419 1_545 S
C446 C444 1.415 . S
C446 C451 1.425 1_545 S
C446 C453 1.409 . S
C447 H439 0.930 . S
C447 C445 1.419 1_565 S
C447 C448 1.362 . S
C448 H440 0.930 . S
C448 C447 1.362 . S
C448 C451 1.409 . S
C449 H441 0.930 . S
C449 C450 1.355 1_565 S
C449 C451 1.415 . S
C450 C449 1.355 1_545 S
C450 C452 1.419 . S
C451 C446 1.425 1_565 S
C451 C448 1.409 . S
C451 C449 1.415 . S
C452 H442 0.930 . S
C452 C450 1.419 . S
C452 C453 1.362 . S
C453 H443 0.930 . S
C453 C446 1.409 . S
C453 C452 1.362 . S
H454 C460 0.930 . S
H455 C463 0.930 . S
H456 C464 0.930 . S
H457 C465 0.930 . S
H458 C468 0.930 . S
H459 C469 0.930 . S
C460 H454 0.930 . S
C460 C461 1.355 . S
C460 C462 1.415 . S
C461 C460 1.355 . S
C461 C463 1.419 . S
C462 C460 1.415 . S
C462 C467 1.425 . S
C462 C469 1.409 1_556 S
C463 H455 0.930 . S
C463 C461 1.419 . S
C463 C464 1.362 . S
C464 H456 0.930 . S
C464 C463 1.362 . S
C464 C467 1.409 . S
C465 H457 0.930 . S
C465 C466 1.355 . S
C465 C467 1.415 1_554 S
C466 C465 1.355 . S
C466 C468 1.419 . S
C467 C462 1.425 . S
C467 C464 1.409 . S
C467 C465 1.415 1_556 S
C468 H458 0.930 . S
C468 C466 1.419 . S
C468 C469 1.362 . S
C469 H459 0.930 . S
C469 C462 1.409 1_554 S
C469 C468 1.362 . S
H470 C476 0.930 . S
H471 C479 0.930 . S
H472 C480 0.930 . S
H473 C481 0.930 . S
H474 C484 0.930 . S
H475 C485 0.930 . S
C476 H470 0.930 . S
C476 C477 1.355 . S
C476 C478 1.415 . S
C477 C476 1.355 . S
C477 C479 1.419 . S
C478 C476 1.415 . S
C478 C483 1.425 . S
C478 C485 1.409 . S
C479 H471 0.930 . S
C479 C477 1.419 . S
C479 C480 1.362 . S
C480 H472 0.930 . S
C480 C479 1.362 . S
C480 C483 1.409 . S
C481 H473 0.930 . S
C481 C482 1.355 . S
C481 C483 1.415 . S
C482 C481 1.355 . S
C482 C484 1.419 . S
C483 C478 1.425 . S
C483 C480 1.409 . S
C483 C481 1.415 . S
C484 H474 0.930 . S
C484 C482 1.419 . S
C484 C485 1.362 . S
C485 H475 0.930 . S
C485 C478 1.409 . S
C485 C484 1.362 . S
C205 C19 3.036 . S
C210 C189 2.890 . S
C221 C49 3.012 . S
C226 C167 2.971 1_655 S
C237 C99 2.939 . S
C242 C180 2.930 . S
C253 C9 3.016 . S
C258 C193 2.970 . S
C274 C163 2.902 . S
C269 C59 3.048 . S
C290 C176 2.954 . S
C285 C89 3.141 . S
C301 C55 0.270 . S
C306 C141 0.207 . S
C317 C85 0.391 . S
C322 C154 0.317 . S
C333 C15 0.449 . S
C338 C124 0.617 . S
C354 C137 0.410 . S
C349 C45 0.638 . S
C370 C150 0.545 . S
C365 C95 0.671 . S
C381 C5 0.450 . S
C386 C128 0.385 . S
C402 C155 1.185 . S
C397 C18 1.202 . S
C413 C58 1.238 . S
C418 C129 1.258 . S
C429 C98 1.160 . S
C434 C142 1.185 . S
C450 C181 1.822 . S
C445 C48 1.702 . S
C466 C194 1.730 . S
C461 C88 1.716 . S
C477 C8 1.722 . S
C482 C168 1.770 . S
