# Generated by pormake.
# Topology zzz, (3,6)-cn, num edge types: 1
# Building blocks:
#     Node 0, Type 0, BuildingBlock: CUQRIR_clean_linker_1, # of connection points: 3
#     Node 1, Type 0, BuildingBlock: CUQRIR_clean_linker_1, # of connection points: 3
#     Node 2, Type 0, BuildingBlock: CUQRIR_clean_linker_1, # of connection points: 3
#     Node 3, Type 0, BuildingBlock: CUQRIR_clean_linker_1, # of connection points: 3
#     Node 4, Type 0, BuildingBlock: CUQRIR_clean_linker_1, # of connection points: 3
#     Node 5, Type 0, BuildingBlock: CUQRIR_clean_linker_1, # of connection points: 3
#     Node 6, Type 0, BuildingBlock: CUQRIR_clean_linker_1, # of connection points: 3
#     Node 7, Type 0, BuildingBlock: CUQRIR_clean_linker_1, # of connection points: 3
#     Node 8, Type 1, BuildingBlock: KUMBOL_clean_sbu_1, # of connection points: 6
#     Node 9, Type 1, BuildingBlock: KUMBOL_clean_sbu_1, # of connection points: 6
#     Node 10, Type 1, BuildingBlock: KUMBOL_clean_sbu_1, # of connection points: 6
#     Node 11, Type 1, BuildingBlock: KUMBOL_clean_sbu_1, # of connection points: 6
#     Edge 12, Type (0, 1), BuildingBlock: EZIPEK_clean_linker_0, # of connection points: 2
#     Edge 13, Type (0, 1), BuildingBlock: EZIPEK_clean_linker_0, # of connection points: 2
#     Edge 14, Type (0, 1), BuildingBlock: EZIPEK_clean_linker_0, # of connection points: 2
#     Edge 15, Type (0, 1), BuildingBlock: EZIPEK_clean_linker_0, # of connection points: 2
#     Edge 16, Type (0, 1), BuildingBlock: EZIPEK_clean_linker_0, # of connection points: 2
#     Edge 17, Type (0, 1), BuildingBlock: EZIPEK_clean_linker_0, # of connection points: 2
#     Edge 18, Type (0, 1), BuildingBlock: EZIPEK_clean_linker_0, # of connection points: 2
#     Edge 19, Type (0, 1), BuildingBlock: EZIPEK_clean_linker_0, # of connection points: 2
#     Edge 20, Type (0, 1), BuildingBlock: EZIPEK_clean_linker_0, # of connection points: 2
#     Edge 21, Type (0, 1), BuildingBlock: EZIPEK_clean_linker_0, # of connection points: 2
#     Edge 22, Type (0, 1), BuildingBlock: EZIPEK_clean_linker_0, # of connection points: 2
#     Edge 23, Type (0, 1), BuildingBlock: EZIPEK_clean_linker_0, # of connection points: 2
#     Edge 24, Type (0, 1), BuildingBlock: EZIPEK_clean_linker_0, # of connection points: 2
#     Edge 25, Type (0, 1), BuildingBlock: EZIPEK_clean_linker_0, # of connection points: 2
#     Edge 26, Type (0, 1), BuildingBlock: EZIPEK_clean_linker_0, # of connection points: 2
#     Edge 27, Type (0, 1), BuildingBlock: EZIPEK_clean_linker_0, # of connection points: 2
#     Edge 28, Type (0, 1), BuildingBlock: EZIPEK_clean_linker_0, # of connection points: 2
#     Edge 29, Type (0, 1), BuildingBlock: EZIPEK_clean_linker_0, # of connection points: 2
#     Edge 30, Type (0, 1), BuildingBlock: EZIPEK_clean_linker_0, # of connection points: 2
#     Edge 31, Type (0, 1), BuildingBlock: EZIPEK_clean_linker_0, # of connection points: 2
#     Edge 32, Type (0, 1), BuildingBlock: EZIPEK_clean_linker_0, # of connection points: 2
#     Edge 33, Type (0, 1), BuildingBlock: EZIPEK_clean_linker_0, # of connection points: 2
#     Edge 34, Type (0, 1), BuildingBlock: EZIPEK_clean_linker_0, # of connection points: 2
#     Edge 35, Type (0, 1), BuildingBlock: EZIPEK_clean_linker_0, # of connection points: 2
# Relax obj value: 0.315
# Max RMSD: 0.141
# Mean RMSD: 0.096
data_MOF--net-zzz--node1-KUMBOL_clean_sbu_1--node2-CUQRIR_clean_linker_1--edge1-EZIPEK_clean_linker_0
_symmetry_space_group_name_H-M    P1
_symmetry_Int_Tables_number       1
_symmetry_cell_setting            triclinic
loop_
_symmetry_equiv_pos_as_xyz
'x, y, z'
_cell_length_a     33.189968
_cell_length_b     33.365369
_cell_length_c     10.367784
_cell_angle_alpha  90.43142
_cell_angle_beta   90.505671
_cell_angle_gamma 90.536842
loop_
_atom_site_label
_atom_site_type_symbol
_atom_site_fract_x
_atom_site_fract_y
_atom_site_fract_z
_atom_type_partial_charge
C0 C 0.74089 0.52464 0.40698 0.0
N1 N 0.78069 0.53716 0.39767 0.0
N2 N 0.71731 0.53531 0.30051 0.0
C3 C 0.72689 0.49754 0.51219 0.0
C4 C 0.74531 0.55024 0.22064 0.0
N5 N 0.7827 0.5536 0.27871 0.0
C6 C 0.73661 0.55226 0.07698 0.0
H7 H 0.69385 0.49359 0.50917 0.0
H8 H 0.73746 0.50892 0.60748 0.0
H9 H 0.74086 0.46774 0.49869 0.0
H10 H 0.73584 0.58377 0.04436 0.0
H11 H 0.70819 0.53737 0.04904 0.0
H12 H 0.75784 0.53412 0.02125 0.0
C13 C 1.02128 0.75615 0.41211 0.0
N14 N 0.03873 0.79397 0.42297 0.0
N15 N 1.02091 0.7408 0.28691 0.0
C16 C 1.00741 0.73335 0.52501 0.0
C17 C 0.03827 0.77136 0.22313 0.0
N18 N 0.05227 0.80082 0.30367 0.0
C19 C 0.0414 0.77261 0.0783 0.0
H20 H 0.99918 0.70267 0.49424 0.0
H21 H 0.98119 0.74881 0.56688 0.0
H22 H 0.03166 0.7329 0.59922 0.0
H23 H 1.01046 0.7734 0.0376 0.0
H24 H 0.05619 0.74519 0.04122 0.0
H25 H 0.05767 0.7997 0.04453 0.0
C26 C 0.8216 1.00512 0.43449 0.0
N27 N 0.781 0.99538 0.42106 0.0
N28 N 0.84602 0.98924 0.33664 0.0
C29 C 0.8368 0.03106 0.54222 0.0
C30 C 0.81753 0.96908 0.26607 0.0
N31 N 0.77934 0.97422 0.3106 0.0
C32 C 0.82648 0.94448 0.14827 0.0
H33 H 0.8689 0.0269 0.55359 0.0
H34 H 0.82085 0.02414 0.63311 0.0
H35 H 0.83248 0.06302 0.51995 0.0
H36 H 0.79893 0.9304 0.1062 0.0
H37 H 0.84574 0.91935 0.17461 0.0
H38 H 0.84212 0.96321 0.07609 0.0
C39 C 0.59535 0.79941 0.38254 0.0
N40 N 0.5677 0.76826 0.40916 0.0
N41 N 0.58515 0.82194 0.27345 0.0
C42 C 0.63595 0.80376 0.44488 0.0
C43 C 0.55242 0.80177 0.23173 0.0
N44 N 0.54059 0.7725 0.31364 0.0
C45 C 0.53321 0.80985 0.10307 0.0
H46 H 0.63723 0.78898 0.54005 0.0
H47 H 0.6451 0.83552 0.44941 0.0
H48 H 0.65859 0.78972 0.38129 0.0
H49 H 0.55682 0.81901 0.03415 0.0
H50 H 0.51175 0.83498 0.11224 0.0
H51 H 0.51743 0.78289 0.06399 0.0
C52 C 0.2948 0.5154 0.14658 0.0
N53 N 0.25765 0.53412 0.1575 0.0
N54 N 0.31601 0.513 0.26329 0.0
C55 C 0.31216 0.50396 0.02019 0.0
C56 C 0.29097 0.53205 0.34351 0.0
N57 N 0.25791 0.54595 0.28106 0.0
C58 C 0.30115 0.54205 0.48362 0.0
H59 H 0.30822 0.47122 1.00797 0.0
H60 H 0.34466 0.51167 0.01914 0.0
H61 H 0.29652 0.51929 0.93969 0.0
H62 H 0.33034 0.53026 0.51681 0.0
H63 H 0.27747 0.52953 0.5469 0.0
H64 H 0.3021 0.57498 0.49868 0.0
C65 C 0.03357 0.32512 0.08632 0.0
N66 N 1.01889 0.28593 0.08155 0.0
N67 N 0.02788 0.34395 0.20603 0.0
C68 C 0.05138 0.34526 0.97331 0.0
C69 C 1.00933 0.31459 0.27175 0.0
N70 N 1.00378 0.28133 0.19836 0.0
C71 C 0.9948 0.31862 0.4094 0.0
H72 H 0.08297 0.33526 0.96397 0.0
H73 H 0.05021 0.37809 0.98733 0.0
H74 H 0.03479 0.33637 0.88402 0.0
H75 H 1.00685 0.34569 0.45937 0.0
H76 H 1.00398 0.29241 0.4671 0.0
H77 H 0.96139 0.31957 0.40915 0.0
C78 C 0.26779 0.07076 0.21302 0.0
N79 N 0.30588 0.0537 0.23067 0.0
N80 N 0.24524 0.07334 0.3265 0.0
C81 C 0.25151 0.08218 0.08379 0.0
C82 C 0.27137 0.05807 0.4125 0.0
N83 N 0.30514 0.04349 0.35584 0.0
C84 C 0.2606 0.05076 0.55269 0.0
H85 H 0.25343 0.11521 0.07463 0.0
H86 H 0.21938 0.07336 0.07493 0.0
H87 H 0.26896 0.06805 1.00508 0.0
H88 H 0.2465 1.02064 0.56193 0.0
H89 H 0.23919 0.07309 0.58973 0.0
H90 H 0.28755 0.0524 0.61614 0.0
C91 C 0.53111 0.24584 0.14552 0.0
N92 N 0.51185 0.28201 0.1168 0.0
N93 N 0.50834 0.22042 0.22363 0.0
C94 C 0.57241 0.23507 0.10172 0.0
C95 C 0.47423 0.24176 0.23404 0.0
N96 N 0.47814 0.27984 0.18866 0.0
C97 C 0.4362 0.22568 0.2936 0.0
H98 H 0.59396 0.23878 0.18335 0.0
H99 H 0.58228 0.25439 0.02161 0.0
H100 H 0.57293 0.20308 0.07305 0.0
H101 H 0.44135 0.21935 0.39735 0.0
H102 H 0.42702 0.19724 0.24606 0.0
H103 H 0.41092 0.24671 0.27969 0.0
C104 C 0.13009 0.10088 1.0168 0.0
C105 C 0.10575 0.11611 0.23112 0.0
C106 C 0.10406 0.09246 0.11761 0.0
C107 C 0.1338 0.1477 0.24185 0.0
C108 C 0.15917 0.13197 0.02998 0.0
C109 C 0.16121 0.15482 0.14343 0.0
N110 N 0.12694 0.07903 0.90579 0.0
C111 C 0.15692 0.08226 0.81645 0.0
C112 C 0.18581 0.13901 0.92913 0.0
C113 C 0.18564 0.11304 0.82394 0.0
Gd114 Gd 0.99181 0.04084 0.65778 0.0
Gd115 Gd 0.07668 0.02781 0.90457 0.0
N116 N 0.07424 0.06449 0.09919 0.0
C117 C 0.07537 0.11132 0.32242 0.0
C118 C 0.04457 0.06036 0.18811 0.0
C119 C 0.04435 0.08409 0.29912 0.0
H120 H 1.02039 0.03952 0.17445 0.0
H121 H 1.01947 0.08239 0.36453 0.0
H122 H 0.0728 1.00702 0.4712 0.0
H123 H 0.16058 0.05997 0.74259 0.0
H124 H 0.08993 0.97467 0.27954 0.0
H125 H 0.07349 0.13101 0.40539 0.0
H126 H 0.13385 0.16767 0.32462 0.0
H127 H 0.90997 0.9956 0.80418 0.0
H128 H 0.20827 0.16275 0.93536 0.0
H129 H 0.20836 0.11602 0.75041 0.0
H130 H 0.96379 0.88414 0.1466 0.0
H131 H 0.18304 0.17899 0.15444 0.0
H132 H 0.88448 0.93506 0.49071 0.0
H133 H 0.85757 0.94692 0.76713 0.0
N134 N 0.9359 0.9956 0.62012 0.0
C135 C 0.93174 0.98415 0.49643 0.0
C136 C 0.90878 0.9821 0.70957 0.0
C137 C 0.86845 0.93159 0.57149 0.0
C138 C 0.87699 0.95335 0.68645 0.0
C139 C 0.89281 0.93965 0.46107 0.0
H140 H 0.88571 0.87435 0.30075 0.0
N141 N 1.01022 1.00829 0.45548 0.0
C142 C 0.97912 0.99047 0.39415 0.0
C143 C 0.03156 0.9552 0.22136 0.0
C144 C 0.99223 0.95294 0.25751 0.0
C145 C 0.04809 0.99909 0.41381 0.0
C146 C 0.0582 0.97759 0.29966 0.0
O147 O 0.05031 0.09399 0.90988 0.0
O148 O 1.00666 0.10518 0.7407 0.0
O149 O 0.96076 0.07077 0.50088 0.0
O150 O 0.93165 0.06209 0.6849 0.0
O151 O 1.01707 1.00006 0.98376 0.0
O152 O 0.97094 0.03726 0.8725 0.0
O153 O 1.00944 0.97327 0.66187 0.0
O154 O 0.05835 0.96409 0.81901 0.0
O155 O 0.13576 1.0033 0.86984 0.0
O156 O 0.10943 0.99866 0.05948 0.0
O157 O 0.05311 0.07249 0.5921 0.0
O158 O 0.09338 0.02989 0.69572 0.0
C159 C 0.02603 0.11908 0.84557 0.0
C160 C 0.97989 1.01449 0.97325 0.0
C161 C 0.90383 0.1111 0.55223 0.0
C162 C 0.90045 0.17408 0.44699 0.0
C163 C 0.86186 0.16365 0.64055 0.0
C164 C 0.87756 0.12497 0.64853 0.0
C165 C 0.87493 0.18911 0.54264 0.0
C166 C 0.90999 0.13384 0.44327 0.0
C167 C 0.92787 0.0751 0.56794 0.0
C168 C 0.95502 0.90689 0.21545 0.0
C169 C 0.90426 0.9009 0.31416 0.0
H170 H 0.0428 0.93587 0.14583 0.0
C171 C 0.03501 0.94925 0.72312 0.0
C172 C 0.09064 0.0596 0.61511 0.0
C173 C 0.16674 0.95803 1.01113 0.0
C174 C 0.17689 0.89521 0.12115 0.0
C175 C 0.23422 0.9312 0.03538 0.0
C176 C 0.20844 0.96106 0.99032 0.0
C177 C 0.21865 0.89886 0.10467 0.0
C178 C 0.15109 0.92413 0.06952 0.0
C179 C 0.14121 0.99282 0.98849 0.0
H180 H 0.84255 0.1749 0.71591 0.0
H181 H 0.87062 0.10678 0.73167 0.0
H182 H 0.86743 0.22062 0.54596 0.0
H183 H 0.93025 0.12324 0.36956 0.0
H184 H 0.26641 0.93416 0.02207 0.0
H185 H 0.22118 0.98736 0.94476 0.0
H186 H 0.23896 0.87726 0.14677 0.0
H187 H 0.11881 0.92173 0.08389 0.0
C188 C 0.53855 0.89892 0.74131 0.0
C189 C 0.48145 0.86929 0.85036 0.0
C190 C 0.50203 0.90332 0.80253 0.0
C191 C 0.49792 0.8311 0.83412 0.0
C192 C 0.55661 0.86086 0.73478 0.0
C193 C 0.53611 0.82703 0.78053 0.0
N194 N 0.55594 0.9314 0.68489 0.0
C195 C 0.58929 0.92615 0.61075 0.0
C196 C 0.59448 0.85773 0.67955 0.0
C197 C 0.61045 0.89037 0.61413 0.0
Gd198 Gd 0.55989 0.07362 0.91681 0.0
Gd199 Gd 0.52159 0.99306 0.70531 0.0
N200 N 0.48639 0.94071 0.81399 0.0
C201 C 0.44465 0.87444 0.91188 0.0
C202 C 0.44979 0.94529 0.87164 0.0
C203 C 0.42881 0.91266 0.92273 0.0
H204 H 0.43461 0.97329 0.87057 0.0
H205 H 0.39968 0.91692 0.96653 0.0
H206 H 0.66064 0.08368 0.96645 0.0
H207 H 0.60036 0.94942 0.54964 0.0
H208 H 0.7144 0.13342 0.91839 0.0
H209 H 0.42799 0.8491 0.94944 0.0
H210 H 0.48193 0.80463 0.86666 0.0
H211 H 0.47477 0.12625 0.92407 0.0
H212 H 0.61079 0.82998 0.68434 0.0
H213 H 0.6391 0.88857 0.56624 0.0
H214 H 0.64326 0.24737 0.76134 0.0
H215 H 0.54931 0.79752 0.77341 0.0
H216 H 0.4999 0.24457 0.79488 0.0
H217 H 0.45137 0.19443 0.87299 0.0
N218 N 0.53455 0.13702 0.86274 0.0
C219 C 0.56252 0.1654 0.83152 0.0
C220 C 0.49558 0.14777 0.88568 0.0
C221 C 0.50998 0.21456 0.81215 0.0
C222 C 0.48247 0.18632 0.85752 0.0
C223 C 0.55067 0.20467 0.8008 0.0
H224 H 0.57149 0.2637 0.74503 0.0
N225 N 0.61385 0.11923 0.88739 0.0
C226 C 0.6033 0.15623 0.84381 0.0
C227 C 0.6732 0.17712 0.84539 0.0
C228 C 0.63279 0.18609 0.82171 0.0
C229 C 0.65284 0.11187 0.92258 0.0
C230 C 0.68321 0.14009 0.89755 0.0
O231 O 0.53477 0.97157 0.91579 0.0
O232 O 0.58767 1.01099 0.97685 0.0
O233 O 0.54883 0.06361 0.12134 0.0
O234 O 0.56948 0.12091 0.0555 0.0
O235 O 0.46805 0.03035 0.79921 0.0
O236 O 0.49657 0.05345 0.98511 0.0
O237 O 0.52622 0.09455 0.7294 0.0
O238 O 0.54107 0.04773 0.58123 0.0
O239 O 0.46858 0.99963 0.5825 0.0
O240 O 0.51396 0.95751 0.53252 0.0
O241 O 0.61725 0.04714 0.81498 0.0
O242 O 0.58973 1.00829 0.65272 0.0
C243 C 0.56801 0.97591 0.98657 0.0
C244 C 0.46345 0.0445 0.91957 0.0
C245 C 0.59858 0.09968 0.23908 0.0
C246 C 0.66216 0.06885 0.28565 0.0
C247 C 0.65298 0.13961 0.33162 0.0
C248 C 0.61451 0.13689 0.27895 0.0
C249 C 0.67695 0.10578 0.33352 0.0
C250 C 0.6226 0.06598 0.24308 0.0
C251 C 0.56395 0.09854 0.15383 0.0
C252 C 0.62098 0.22427 0.78039 0.0
C253 C 0.58002 0.2335 0.76979 0.0
H254 H 0.69678 0.19905 0.82794 0.0
C255 C 0.53225 0.08545 0.60673 0.0
C256 C 0.62242 0.02531 0.70801 0.0
C257 C 0.44675 0.93872 0.48284 0.0
C258 C 0.37789 0.92013 0.53112 0.0
C259 C 0.41023 0.8926 0.34103 0.0
C260 C 0.44394 0.91672 0.36692 0.0
C261 C 0.37691 0.89451 0.42181 0.0
C262 C 0.41558 0.93517 0.57054 0.0
C263 C 0.47813 0.96991 0.50648 0.0
H264 H 0.66538 0.16847 0.36034 0.0
H265 H 0.59869 0.16423 0.2594 0.0
H266 H 0.70823 0.10999 0.35692 0.0
H267 H 0.61222 0.03831 0.19822 0.0
H268 H 0.40831 0.87565 0.25172 0.0
H269 H 0.46627 0.91939 0.29266 0.0
H270 H 0.34957 0.87964 0.38945 0.0
H271 H 0.4177 0.95268 0.65672 0.0
C272 C 0.42109 0.47442 0.93834 0.0
C273 C 0.43853 0.45334 0.15382 0.0
C274 C 0.4464 0.47692 0.04544 0.0
C275 C 0.40393 0.42888 0.15625 0.0
C276 C 0.38757 0.44793 0.93812 0.0
C277 C 0.37918 0.42523 0.04757 0.0
N278 N 0.42858 0.49841 0.83582 0.0
C279 C 0.39847 0.50342 0.7463 0.0
C280 C 0.36156 0.44734 0.8317 0.0
C281 C 0.36566 0.47689 0.73927 0.0
Gd282 Gd 0.56928 0.51045 0.61676 0.0
Gd283 Gd 0.48762 0.53918 0.85537 0.0
N284 N 0.48039 0.5001 0.03973 0.0
C285 C 0.46706 0.45299 0.25327 0.0
C286 C 0.50781 0.50013 0.13792 0.0
C287 C 0.50146 0.47678 0.24599 0.0
H288 H 0.53499 0.5175 0.13322 0.0
H289 H 0.52412 0.4754 0.32046 0.0
H290 H 0.49334 0.55993 0.43216 0.0
H291 H 0.39876 0.52842 0.68151 0.0
H292 H 0.48131 0.58983 0.23497 0.0
H293 H 0.46423 0.43261 0.33293 0.0
H294 H 0.39777 0.41011 0.23862 0.0
H295 H 0.66008 0.53705 0.76588 0.0
H296 H 0.3358 0.42716 0.82729 0.0
H297 H 0.34296 0.47981 0.66474 0.0
H298 H 0.62607 0.66027 0.11258 0.0
H299 H 0.35327 0.40525 0.05003 0.0
H300 H 0.72948 0.62036 0.53774 0.0
H301 H 0.71612 0.58241 0.73494 0.0
N302 N 0.63216 0.54416 0.58508 0.0
C303 C 0.63654 0.55697 0.4642 0.0
C304 C 0.66211 0.55154 0.6736 0.0
C305 C 0.70557 0.59821 0.53857 0.0
C306 C 0.696 0.57758 0.65341 0.0
C307 C 0.68223 0.59249 0.4296 0.0
H308 H 0.70392 0.65279 0.27334 0.0
N309 N 0.5546 0.54714 0.42009 0.0
C310 C 0.58818 0.55908 0.36131 0.0
C311 C 0.54128 0.60241 0.18044 0.0
C312 C 0.58201 0.59857 0.2208 0.0
C313 C 0.51902 0.56275 0.37619 0.0
C314 C 0.51235 0.58434 0.25968 0.0
O315 O 0.50413 0.46957 0.87271 0.0
O316 O 0.55112 0.45106 0.72367 0.0
O317 O 0.58795 0.47854 0.44553 0.0
O318 O 0.62252 0.47309 0.6213 0.0
O319 O 0.55077 0.55412 0.94315 0.0
O320 O 0.59168 0.51098 0.8314 0.0
O321 O 0.56691 0.58115 0.62965 0.0
O322 O 0.51732 0.59867 0.7744 0.0
O323 O 0.4632 0.57353 1.01464 0.0
O324 O 0.43416 0.5754 0.82762 0.0
O325 O 0.50362 0.48865 0.55107 0.0
O326 O 0.47204 0.53939 0.64509 0.0
C327 C 0.52728 0.44096 0.82111 0.0
C328 C 0.58462 0.53313 0.93587 0.0
C329 C 0.61415 0.41616 0.49383 0.0
C330 C 0.57156 0.3591 0.44712 0.0
C331 C 0.64426 0.35205 0.44674 0.0
C332 C 0.64857 0.39293 0.4753 0.0
C333 C 0.60574 0.33526 0.42962 0.0
C334 C 0.57608 0.39826 0.49041 0.0
C335 C 0.6165 0.45951 0.50522 0.0
C336 C 0.62931 0.63646 0.18207 0.0
C337 C 0.6798 0.63118 0.2853 0.0
H338 H 0.57078 0.60197 0.20269 0.0
C339 C 0.54495 0.60956 0.6871 0.0
C340 C 0.46934 0.50863 0.56713 0.0
C341 C 0.41266 0.62378 0.98041 0.0
C342 C 0.41198 0.68419 0.11324 0.0
C343 C 0.3497 0.65808 0.02019 0.0
C344 C 0.37088 0.62694 0.96161 0.0
C345 C 0.36985 0.68552 0.10089 0.0
C346 C 0.43323 0.65377 0.04856 0.0
C347 C 0.43242 0.58591 0.94761 0.0
H348 H 0.67067 0.33394 0.43099 0.0
H349 H 0.67834 0.40649 0.47964 0.0
H350 H 0.6029 0.3046 0.39673 0.0
H351 H 0.54932 0.41629 0.50261 0.0
H352 H 0.31731 0.65958 1.00877 0.0
H353 H 0.35432 0.604 0.9082 0.0
H354 H 0.35248 0.70703 0.15523 0.0
H355 H 0.46566 0.65156 0.05991 0.0
C356 C 0.09278 0.44974 0.97059 0.0
C357 C 0.11179 0.47991 0.17553 0.0
C358 C 0.08534 0.47712 0.06871 0.0
C359 C 0.14384 0.45301 0.18683 0.0
C360 C 0.12479 0.42246 0.98189 0.0
C361 C 0.14917 0.4232 0.09305 0.0
N362 N 0.06945 0.45081 0.86196 0.0
C363 C 0.07467 0.42311 0.76602 0.0
C364 C 0.13199 0.39595 0.8796 0.0
C365 C 0.10665 0.39616 0.77143 0.0
Gd366 Gd 0.03142 0.58486 0.64728 0.0
Gd367 Gd 1.01567 0.49652 0.8649 0.0
N368 N 0.05254 0.50123 0.05942 0.0
C369 C 0.10464 0.5092 0.26913 0.0
C370 C 0.04223 0.52482 0.16116 0.0
C371 C 0.06919 0.531 0.26319 0.0
H372 H 1.01401 0.53999 0.16256 0.0
H373 H 0.06278 0.55316 0.3356 0.0
H374 H 0.99918 0.58566 0.4537 0.0
H375 H 0.05382 0.42087 0.68643 0.0
H376 H 0.95339 0.57709 0.18353 0.0
H377 H 0.12499 0.51375 0.34984 0.0
H378 H 0.16422 0.45444 0.26888 0.0
H379 H 0.03434 0.66864 0.84063 0.0
H380 H 0.15653 0.37482 0.88412 0.0
H381 H 0.11106 0.37485 0.69372 0.0
H382 H 0.8834 0.68583 0.37355 0.0
H383 H 0.17344 0.40201 0.10466 0.0
H384 H 0.9265 0.73419 0.78271 0.0
H385 H 0.99151 0.72532 0.89346 0.0
N386 N 0.9919 0.64104 0.71042 0.0
C387 C 0.95972 0.6493 0.63286 0.0
C388 C 1.00515 0.67024 0.79478 0.0
C389 C 0.94445 0.70804 0.76139 0.0
C390 C 0.98126 0.70332 0.82379 0.0
C391 C 0.93483 0.68277 0.65774 0.0
H392 H 0.88624 0.71943 0.58471 0.0
N393 N 0.9844 0.59901 0.48497 0.0
C394 C 0.95671 0.62967 0.51478 0.0
C395 C 0.932 0.62599 0.29777 0.0
C396 C 0.9309 0.64393 0.41895 0.0
C397 C 0.98457 0.57952 0.36474 0.0
C398 C 0.95652 0.59298 0.27431 0.0
O399 O 0.08265 0.51075 0.81101 0.0
O400 O 0.08473 0.5776 0.79518 0.0
O401 O 0.08444 0.59395 0.52807 0.0
O402 O 0.04333 0.64234 0.56074 0.0
O403 O 0.99528 0.55842 0.95666 0.0
O404 O 0.04076 0.59924 0.86073 0.0
O405 O 0.96762 0.55317 0.61532 0.0
O406 O 0.95225 0.52086 0.80096 0.0
O407 O 0.99473 0.45912 0.02088 0.0
O408 O 0.9829 0.44119 0.82389 0.0
O409 O 0.04738 0.52381 0.54374 0.0
O410 O 1.00972 0.47778 0.65389 0.0
C411 C 0.10314 0.54447 0.83294 0.0
C412 C 1.0155 0.5933 0.95512 0.0
C413 C 0.11123 0.65952 0.55212 0.0
C414 C 0.18289 0.6667 0.54068 0.0
C415 C 0.14701 0.70258 0.70604 0.0
C416 C 0.11089 0.68538 0.66015 0.0
C417 C 0.18354 0.69171 0.64979 0.0
C418 C 0.1464 0.65484 0.48463 0.0
C419 C 0.07792 0.63232 0.51723 0.0
C420 C 0.90433 0.67527 0.44628 0.0
C421 C 0.90552 0.69398 0.56705 0.0
H422 H 0.91068 0.63508 0.2243 0.0
C423 C 0.94009 0.53554 0.68839 0.0
C424 C 0.03119 0.4871 0.55226 0.0
C425 C 0.93117 0.43445 0.96936 0.0
C426 C 0.87463 0.47217 0.04496 0.0
C427 C 0.86734 0.40079 1.00416 0.0
C428 C 0.90787 0.3992 0.96706 0.0
C429 C 0.85074 0.43726 0.04499 0.0
C430 C 0.91364 0.47072 1.00154 0.0
C431 C 0.9741 0.43545 0.94398 0.0
H432 H 0.14695 0.72154 0.79122 0.0
H433 H 0.0835 0.69109 0.71167 0.0
H434 H 0.2118 0.70037 0.69546 0.0
H435 H 0.14643 0.63459 0.40191 0.0
H436 H 0.84919 0.37369 1.00458 0.0
H437 H 0.92113 0.3708 0.94056 0.0
H438 H 0.81991 0.43816 0.07819 0.0
H439 H 0.93166 0.49794 1.00656 0.0
C440 C 0.17734 0.04186 0.3604 0.0
C441 C 0.2013 0.07699 0.35954 0.0
C442 C 0.14855 0.10496 0.51172 0.0
C443 C 0.12776 0.06695 0.52164 0.0
N444 N 0.14715 0.99667 0.50753 0.0
N445 N 0.2106 0.14198 0.45522 0.0
C446 C 0.14876 0.03459 0.46051 0.0
C447 C 0.18687 0.10867 0.44148 0.0
N448 N 0.18318 1.01329 0.26933 0.0
N449 N 0.13271 0.13732 0.57368 0.0
H450 H 0.23698 0.14554 0.40212 0.0
H451 H 0.20522 0.16472 0.52195 0.0
H452 H 0.10653 0.1352 0.62836 0.0
H453 H 0.14401 0.16636 0.56489 0.0
H454 H 0.16602 0.98698 0.26684 0.0
H455 H 0.20145 1.01862 0.19022 0.0
H456 H 0.17031 0.9769 0.48649 0.0
H457 H 0.12795 0.98619 0.57816 0.0
C458 C 0.54428 0.1878 0.41746 0.0
C459 C 0.51775 0.18495 0.30859 0.0
C460 C 0.49797 0.11672 0.39594 0.0
C461 C 0.52769 0.11847 0.49761 0.0
N462 N 0.58838 0.15265 0.56203 0.0
N463 N 0.47451 0.14254 0.18577 0.0
C464 C 0.55296 0.15339 0.49645 0.0
C465 C 0.49601 0.14787 0.29663 0.0
N466 N 0.56308 0.22294 0.44779 0.0
N467 N 0.47042 0.0862 0.39659 0.0
H468 H 0.45954 0.11602 0.16007 0.0
H469 H 0.45954 0.11602 0.16007 0.0
H470 H 0.47103 0.064 0.46635 0.0
H471 H 0.44515 0.08487 0.33645 0.0
H472 H 0.5578 0.24951 0.39851 0.0
H473 H 0.5578 0.24951 0.39851 0.0
H474 H 0.60944 0.17602 0.55721 0.0
H475 H 0.59787 0.1267 0.60745 0.0
C476 C 0.38554 0.5379 0.30881 0.0
C477 C 0.35857 0.50512 0.3025 0.0
C478 C 0.40651 0.47134 0.45729 0.0
C479 C 0.432 0.50637 0.47017 0.0
N480 N 0.4201 0.57856 0.46368 0.0
N481 N 0.34261 0.44089 0.39575 0.0
C482 C 0.41503 0.5414 0.41049 0.0
C483 C 0.36874 0.47222 0.38455 0.0
N484 N 0.3804 0.56866 0.2257 0.0
N485 N 0.41682 0.43726 0.52051 0.0
H486 H 0.31527 0.43914 0.34525 0.0
H487 H 0.31527 0.43914 0.34525 0.0
H488 H 0.44381 0.43502 0.57184 0.0
H489 H 0.39915 0.41122 0.51623 0.0
H490 H 0.40022 0.5929 0.22464 0.0
H491 H 0.35913 0.56749 0.15141 0.0
H492 H 0.39862 0.60056 0.44648 0.0
H493 H 0.4402 0.58662 0.53639 0.0
C494 C 0.9976 0.40729 0.28839 0.0
C495 C 0.03288 0.38538 0.2611 0.0
C496 C 0.06948 0.43249 0.41508 0.0
C497 C 0.03349 0.45464 0.44162 0.0
N498 N 0.96174 0.45471 0.42373 0.0
N499 N 0.10197 0.37416 0.31303 0.0
C500 C 0.99729 0.43974 0.38225 0.0
C501 C 0.06883 0.39755 0.32821 0.0
N502 N 0.96368 0.39444 0.2256 0.0
N503 N 0.10409 0.44397 0.47778 0.0
H504 H 0.10191 0.34978 0.2493 0.0
H505 H 0.12906 0.37818 0.36255 0.0
H506 H 0.10523 0.4687 0.53982 0.0
H507 H 0.13184 0.43029 0.46692 0.0
H508 H 0.93549 0.40768 0.23313 0.0
H509 H 0.93549 0.40768 0.23313 0.0
H510 H 0.93431 0.43996 0.41045 0.0
H511 H 0.95982 0.48167 0.47439 0.0
C512 C 0.89617 0.03715 0.23211 0.0
C513 C 0.88898 0.99811 0.29129 0.0
C514 C 0.93155 0.97387 0.13058 0.0
C515 C 0.94915 1.01064 0.08902 0.0
N516 N 0.94334 0.08165 0.11969 0.0
N517 N 0.95379 0.93101 0.40782 0.0
C518 C 0.93067 0.04387 0.14929 0.0
C519 C 0.9234 0.96661 0.27607 0.0
N520 N 0.86805 0.06651 0.24223 0.0
N521 N 0.91945 0.94748 0.0365 0.0
H522 H 0.97716 0.91041 0.428 0.0
H523 H 0.97716 0.91041 0.428 0.0
H524 H 0.90146 0.92242 0.05432 0.0
H525 H 0.9287 0.9506 0.94164 0.0
H526 H 0.86957 0.09304 0.19002 0.0
H527 H 0.84159 0.0634 0.29386 0.0
H528 H 0.93119 0.10736 0.1605 0.0
H529 H 0.96769 0.08699 0.05911 0.0
C530 C 0.61706 0.87544 0.1244 0.0
C531 C 0.59206 0.86469 0.23065 0.0
C532 C 0.55773 0.93108 0.19654 0.0
C533 C 0.58061 0.94088 0.08398 0.0
N534 N 0.64626 0.92975 0.99783 0.0
N535 N 0.54215 0.88619 0.37483 0.0
C536 C 0.61435 0.91494 0.06367 0.0
C537 C 0.56418 0.89429 0.26865 0.0
N538 N 0.64315 0.84762 0.07888 0.0
N539 N 0.53108 0.95786 0.2439 0.0
H540 H 0.54733 0.86162 0.43401 0.0
H541 H 0.51862 0.90355 0.40305 0.0
H542 H 0.52675 0.98618 0.20439 0.0
H543 H 0.52675 0.98618 0.20439 0.0
H544 H 0.65942 0.85157 0.99427 0.0
H545 H 0.64634 0.8198 0.12321 0.0
H546 H 0.67314 0.91424 0.98696 0.0
H547 H 0.64767 0.96007 0.97419 0.0
C548 C 0.65809 0.49589 0.2096 0.0
C549 C 0.67308 0.53311 0.26456 0.0
C550 C 0.63784 0.56489 0.09969 0.0
C551 C 0.61434 0.53155 0.05515 0.0
N552 N 0.60334 0.4616 0.09421 0.0
N553 N 0.62393 0.61308 0.37071 0.0
C554 C 0.62418 0.49585 0.12104 0.0
C555 C 0.64669 0.57085 0.24478 0.0
N556 N 0.6786 0.46137 0.23101 0.0
N557 N 0.65469 0.5895 1.01048 0.0
H558 H 0.62109 0.6247 0.46517 0.0
H559 H 0.62109 0.6247 0.46517 0.0
H560 H 0.64869 0.587 0.91205 0.0
H561 H 0.64869 0.587 0.91205 0.0
H562 H 0.67213 0.43462 0.1822 0.0
H563 H 0.7037 0.46021 0.29159 0.0
H564 H 0.60968 0.43468 0.13955 0.0
H565 H 0.57836 0.4613 0.03266 0.0
C566 C 0.98056 0.6896 0.15265 0.0
C567 C 1.0153 0.69962 0.22933 0.0
C568 C 0.04755 0.63773 0.13843 0.0
C569 C 1.01306 0.62729 0.06109 0.0
N570 N 0.945 0.64314 1.0035 0.0
N571 N 0.08406 0.68542 0.27539 0.0
C572 C 0.97912 0.65344 0.07115 0.0
C573 C 0.04889 0.67366 0.21788 0.0
N574 N 0.94903 0.71551 0.15619 0.0
N575 N 0.07948 0.61244 0.13905 0.0
H576 H 0.08525 0.70821 0.34472 0.0
H577 H 0.11199 0.67451 0.24785 0.0
H578 H 0.08128 0.588 0.0766 0.0
H579 H 0.10296 0.61411 0.20623 0.0
H580 H 0.92322 0.71296 0.09922 0.0
H581 H 0.94923 0.74056 0.21721 0.0
H582 H 0.91835 0.65922 1.0044 0.0
H583 H 0.94296 0.6169 0.9487 0.0
C584 C 0.93882 0.24855 0.20601 0.0
C585 C 0.97999 0.24841 0.23834 0.0
C586 C 0.96908 0.20153 0.41018 0.0
C587 C 0.92727 0.2005 0.37538 0.0
N588 N 0.87362 0.21603 0.226 0.0
N589 N 0.03644 0.22435 0.35863 0.0
C590 C 0.91236 0.22184 0.26834 0.0
C591 C 0.99586 0.22377 0.33452 0.0
N592 N 0.92583 0.27731 0.12352 0.0
N593 N 0.98272 0.18297 0.51903 0.0
H594 H 0.05611 0.24332 0.30983 0.0
H595 H 0.0512 0.20449 0.41927 0.0
H596 H 0.9644 0.16605 0.57798 0.0
H597 H 1.01171 0.18606 0.55691 0.0
H598 H 0.89567 0.28272 0.10134 0.0
H599 H 0.89567 0.28272 0.10134 0.0
H600 H 0.86258 0.22757 0.13977 0.0
H601 H 0.85335 0.19696 0.27215 0.0
C602 C 0.29839 0.9712 0.40669 0.0
C603 C 0.32175 1.0079 0.41247 0.0
C604 C 0.34974 0.98307 0.61252 0.0
C605 C 0.34143 0.94347 0.5713 0.0
N606 N 0.28555 0.90493 0.49153 0.0
N607 N 0.36876 0.04868 0.5354 0.0
C608 C 0.30756 0.93953 0.49103 0.0
C609 C 0.34816 1.01352 0.51896 0.0
N610 N 0.26676 0.966 0.32449 0.0
N611 N 0.35964 0.99072 0.7378 0.0
H612 H 0.3671 0.07163 0.46764 0.0
H613 H 0.38933 0.0532 0.61097 0.0
H614 H 0.36038 0.96753 0.80497 0.0
H615 H 0.36416 1.01974 0.77344 0.0
H616 H 0.25863 0.98702 0.25572 0.0
H617 H 0.25863 0.98702 0.25572 0.0
H618 H 0.26045 0.90031 0.43159 0.0
H619 H 0.29291 0.88173 0.55443 0.0
C620 C 0.4781 0.35022 0.23697 0.0
C621 C 0.46613 0.31246 0.27461 0.0
C622 C 0.507 0.32003 0.46835 0.0
C623 C 0.53152 0.34678 0.39841 0.0
N624 N 0.53442 0.3953 0.22492 0.0
N625 N 0.43812 0.29599 0.48074 0.0
C626 C 0.51476 0.36542 0.28729 0.0
C627 C 0.47054 0.30688 0.40943 0.0
N628 N 0.4586 0.36798 0.13913 0.0
N629 N 0.51728 0.30889 0.58993 0.0
H630 H 0.40977 0.29207 0.43792 0.0
H631 H 0.43876 0.29515 0.58123 0.0
H632 H 0.54268 0.32037 0.63795 0.0
H633 H 0.5005 0.28776 0.63971 0.0
H634 H 0.43249 0.35531 0.09811 0.0
H635 H 0.43249 0.35531 0.09811 0.0
H636 H 0.56247 0.40623 0.25349 0.0
H637 H 0.52295 0.40754 0.14025 0.0
C638 C 0.21298 0.57026 0.44314 0.0
C639 C 0.23723 0.57911 0.33632 0.0
C640 C 0.24014 0.64971 0.40276 0.0
C641 C 0.21603 0.64014 0.50853 0.0
N642 N 0.19509 0.59028 0.6594 0.0
N643 N 0.28572 0.62638 0.24525 0.0
C644 C 0.20864 0.59966 0.5399 0.0
C645 C 0.25445 0.6184 0.32501 0.0
N646 N 0.19648 0.5329 0.45497 0.0
N647 N 0.24969 0.6886 0.37699 0.0
H648 H 0.29888 0.60489 0.18597 0.0
H649 H 0.29888 0.60489 0.18597 0.0
H650 H 0.24023 0.71208 0.43632 0.0
H651 H 0.26689 0.69669 0.29721 0.0
H652 H 0.17651 0.52524 0.52798 0.0
H653 H 0.20055 0.51072 0.3848 0.0
H654 H 0.19222 0.56084 0.69028 0.0
H655 H 0.19134 0.61233 0.73011 0.0
C656 C 0.09459 0.86194 0.31272 0.0
C657 C 0.0894 0.82195 0.27549 0.0
C658 C 0.15376 0.82473 0.16188 0.0
C659 C 0.15844 0.86467 0.20434 0.0
N660 N 0.1445 0.91178 0.37211 0.0
N661 N 0.1223 0.76116 0.21215 0.0
C662 C 0.13297 0.8794 0.30118 0.0
C663 C 0.1221 0.80178 0.21565 0.0
N664 N 0.06264 0.88353 0.3525 0.0
N665 N 0.17699 0.80966 0.06545 0.0
H666 H 0.14622 0.74427 0.17726 0.0
H667 H 0.14622 0.74427 0.17726 0.0
H668 H 0.20079 0.82575 0.02543 0.0
H669 H 0.17086 0.78216 0.02064 0.0
H670 H 0.06578 0.91032 0.40292 0.0
H671 H 0.03319 0.87366 0.33454 0.0
H672 H 0.12722 0.92265 0.44765 0.0
H673 H 0.17365 0.92341 0.3631 0.0
C674 C 0.74675 1.00996 0.13894 0.0
C675 C 0.74588 0.97672 0.22109 0.0
C676 C 0.67942 0.99508 0.28892 0.0
C677 C 0.68904 0.03549 0.25301 0.0
N678 N 0.73034 0.07909 0.11781 0.0
N679 N 0.70087 0.92645 0.29875 0.0
C680 C 0.72227 0.04248 0.16977 0.0
C681 C 0.7081 0.96508 0.26564 0.0
N682 N 0.7677 1.00896 0.02668 0.0
N683 N 0.64514 0.98535 0.35338 0.0
H684 H 0.72228 0.90404 0.28566 0.0
H685 H 0.72228 0.90404 0.28566 0.0
H686 H 0.63761 0.95556 0.37229 0.0
H687 H 0.62556 1.00642 0.39181 0.0
H688 H 0.76666 0.03197 0.95925 0.0
H689 H 0.78053 0.98278 0.99203 0.0
H690 H 0.75722 0.08531 0.0702 0.0
H691 H 0.71125 0.10346 0.12458 0.0
C692 C 0.50148 0.70961 0.29882 0.0
C693 C 0.50286 0.75143 0.29737 0.0
C694 C 0.4355 0.75247 0.20159 0.0
C695 C 0.435 0.71009 0.20529 0.0
N696 N 0.45566 0.65528 0.3368 0.0
N697 N 0.4624 0.81192 0.30013 0.0
C698 C 0.46399 0.69106 0.2831 0.0
C699 C 0.46682 0.77269 0.26874 0.0
N700 N 0.53559 0.68772 0.30744 0.0
N701 N 0.40797 0.77369 0.13269 0.0
H702 H 0.48359 0.82793 0.35522 0.0
H703 H 0.48359 0.82793 0.35522 0.0
H704 H 0.38611 0.76036 0.07361 0.0
H705 H 0.40879 0.80497 0.13059 0.0
H706 H 0.53526 0.65845 0.33992 0.0
H707 H 0.56381 0.6997 0.28501 0.0
H708 H 0.47504 0.64162 0.40232 0.0
H709 H 0.42682 0.64352 0.32677 0.0
C710 C 0.82042 0.57024 0.08067 0.0
C711 C 0.81867 0.56954 0.21582 0.0
C712 C 0.87537 0.5264 0.21557 0.0
C713 C 0.8607 0.51066 0.09561 0.0
N714 N 0.82713 0.52682 0.89424 0.0
N715 N 0.87042 0.58004 0.36876 0.0
C716 C 0.83621 0.53585 0.01934 0.0
C717 C 0.85524 0.55905 0.26865 0.0
N718 N 0.80866 0.60321 1.01496 0.0
N719 N 0.90809 0.51221 0.2784 0.0
H720 H 0.85624 0.60601 0.40157 0.0
H721 H 0.85624 0.60601 0.40157 0.0
H722 H 0.92576 0.48928 0.24188 0.0
H723 H 0.92576 0.48928 0.24188 0.0
H724 H 0.81184 0.6056 0.91534 0.0
H725 H 0.79763 0.62822 0.06413 0.0
H726 H 0.80621 0.54337 0.84184 0.0
H727 H 0.83884 0.5018 0.84721 0.0
C728 C 0.05437 0.22268 1.01599 0.0
C729 C 0.02409 0.25083 0.9898 0.0
C730 C 0.99112 0.19374 0.85968 0.0
C731 C 0.02284 0.16568 0.89094 0.0
N732 N 0.04512 0.15892 0.10344 0.0
N733 N 0.96441 0.26286 0.86575 0.0
C734 C 0.04664 0.18066 0.99525 0.0
C735 C 0.99258 0.23609 0.90511 0.0
N736 N 0.08775 0.2346 0.08283 0.0
N737 N 0.95617 0.17862 0.80903 0.0
H738 H 0.96557 0.29273 0.8967 0.0
H739 H 0.94268 0.25658 0.79524 0.0
H740 H 0.95182 0.14804 0.79304 0.0
H741 H 0.93019 0.1954 0.79664 0.0
H742 H 0.10985 0.21424 0.10876 0.0
H743 H 0.09362 0.26471 0.10472 0.0
H744 H 0.05307 0.172 0.19154 0.0
H745 H 0.02739 0.13306 0.10708 0.0
C746 C 0.35814 0.0839 0.06592 0.0
C747 C 0.34279 0.05098 0.14173 0.0
C748 C 0.40842 1.01752 0.08336 0.0
C749 C 0.42066 0.04674 0.99096 0.0
N750 N 0.3975 0.10508 0.87829 0.0
N751 N 0.35099 0.97962 0.15772 0.0
C752 C 0.39237 0.07897 0.97713 0.0
C753 C 0.36762 1.01602 0.1337 0.0
N754 N 0.3422 0.12095 0.08342 0.0
N755 N 0.43544 0.99008 0.12427 0.0
H756 H 0.31993 0.97634 0.15975 0.0
H757 H 0.36684 0.9529 0.1491 0.0
H758 H 0.46491 0.98927 0.09108 0.0
H759 H 0.42852 0.9705 0.19819 0.0
H760 H 0.35395 0.14647 0.03959 0.0
H761 H 0.32077 0.12668 0.15384 0.0
H762 H 0.3767 0.12732 0.85668 0.0
H763 H 0.42019 0.1013 0.81033 0.0
C764 C 0.49066 0.32925 0.93067 0.0
C765 C 0.52096 0.31599 0.01973 0.0
C766 C 0.56106 0.37609 0.93481 0.0
C767 C 0.52652 0.39532 0.87662 0.0
N768 N 0.45714 0.3847 0.81776 0.0
N769 N 0.58684 0.33235 0.10496 0.0
C770 C 0.49118 0.3698 0.87299 0.0
C771 C 0.55712 0.34039 1.01802 0.0
N772 N 0.46004 0.30276 0.90769 0.0
N773 N 0.59833 0.39165 0.9114 0.0
H774 H 0.58358 0.31 0.17343 0.0
H775 H 0.61194 0.35089 0.11942 0.0
H776 H 0.6027 0.41684 0.8542 0.0
H777 H 0.6248 0.37741 0.93927 0.0
H778 H 0.43699 0.30708 0.84045 0.0
H779 H 0.43699 0.30708 0.84045 0.0
H780 H 0.42889 0.3711 0.82411 0.0
H781 H 0.45679 0.4126 0.7736 0.0
C782 C 0.20384 0.57528 0.03566 0.0
C783 C 0.2222 0.53781 0.06329 0.0
C784 C 0.17242 0.50973 0.89849 0.0
C785 C 0.14688 0.54448 0.9015 0.0
N786 N 0.14676 0.6149 0.96539 0.0
N787 N 0.22257 0.46788 1.00653 0.0
C788 C 0.16509 0.5785 0.968 0.0
C789 C 0.20609 0.50472 0.98956 0.0
N790 N 0.22675 0.60826 0.06095 0.0
N791 N 0.16701 0.48282 0.80015 0.0
H792 H 0.24202 0.46178 0.08304 0.0
H793 H 0.21413 0.44254 0.95348 0.0
H794 H 0.14581 0.48703 0.72697 0.0
H795 H 0.18687 0.45959 0.7812 0.0
H796 H 0.21973 0.63727 0.03219 0.0
H797 H 0.21973 0.63727 0.03219 0.0
H798 H 0.15443 0.63813 0.02897 0.0
H799 H 0.12287 0.62204 0.90526 0.0
C800 C 1.00039 0.84487 0.56563 0.0
C801 C 0.03706 0.82499 0.53178 0.0
C802 C 0.07308 0.881 0.65575 0.0
C803 C 0.03657 0.9031 0.67795 0.0
N804 N 0.96526 0.8937 0.70118 0.0
N805 N 0.1079 0.82137 0.58367 0.0
C806 C 1.00037 0.88074 0.64865 0.0
C807 C 0.07273 0.8417 0.59169 0.0
N808 N 0.96523 0.83167 0.51019 0.0
N809 N 0.10919 0.89744 0.69225 0.0
H810 H 0.10998 0.79309 0.54038 0.0
H811 H 0.10998 0.79309 0.54038 0.0
H812 H 0.11197 0.9256 0.73528 0.0
H813 H 0.13647 0.88289 0.67689 0.0
H814 H 0.93802 0.84666 0.51899 0.0
H815 H 0.96388 0.80755 0.44597 0.0
H816 H 0.93826 0.87764 0.69487 0.0
H817 H 0.96446 0.91831 0.76364 0.0
C818 C 0.73098 0.04407 0.53655 0.0
C819 C 0.74505 1.00447 0.50808 0.0
C820 C 0.6858 0.98018 0.64088 0.0
C821 C 0.66691 1.01885 0.64735 0.0
N822 N 0.67931 0.08927 0.6222 0.0
N823 N 0.73794 0.93564 0.55029 0.0
C824 C 0.69247 0.05119 0.60336 0.0
C825 C 0.72281 0.973 0.56744 0.0
N826 N 0.75411 0.07532 0.49635 0.0
N827 N 0.67026 0.95081 0.71583 0.0
H828 H 0.72371 0.90923 0.57896 0.0
H829 H 0.72371 0.90923 0.57896 0.0
H830 H 0.64379 0.95513 0.76645 0.0
H831 H 0.68471 0.92404 0.73627 0.0
H832 H 0.75214 0.10436 0.53273 0.0
H833 H 0.77478 0.07189 0.42213 0.0
H834 H 0.6948 0.11508 0.59574 0.0
H835 H 0.65186 0.09501 0.66503 0.0
C836 C 0.59692 0.707 0.53868 0.0
C837 C 0.56533 0.73512 0.51186 0.0
C838 C 0.5196 0.68426 0.62324 0.0
C839 C 0.55152 0.65601 0.64697 0.0
N840 N 0.62289 0.65666 0.68788 0.0
N841 N 0.49975 0.75408 0.58532 0.0
C842 C 0.59076 0.67315 0.62616 0.0
C843 C 0.52791 0.72487 0.57402 0.0
N844 N 0.63183 0.7094 0.47152 0.0
N845 N 0.48069 0.67247 0.64217 0.0
H846 H 0.50531 0.78314 0.55281 0.0
H847 H 0.47336 0.75053 0.63783 0.0
H848 H 0.4728 0.64413 0.67507 0.0
H849 H 0.45615 0.68973 0.61428 0.0
H850 H 0.65573 0.68985 0.48602 0.0
H851 H 0.63424 0.727 0.38958 0.0
H852 H 0.65182 0.66904 0.68336 0.0
H853 H 0.61941 0.63258 0.75049 0.0
C854 C 0.82584 0.56297 0.58646 0.0
C855 C 0.81496 0.53203 0.49602 0.0
C856 C 0.87732 0.49687 0.57908 0.0
C857 C 0.89408 0.53239 0.63876 0.0
N858 N 0.87842 0.59838 0.71468 0.0
N859 N 0.83197 0.46677 0.41634 0.0
C860 C 0.86616 0.56502 0.64818 0.0
C861 C 0.84098 0.49797 0.49732 0.0
N862 N 0.79768 0.59155 0.60515 0.0
N863 N 0.8944 0.4611 0.60784 0.0
H864 H 0.80617 0.4666 0.35798 0.0
H865 H 0.85151 0.44297 0.40096 0.0
H866 H 0.91948 0.45916 0.66873 0.0
H867 H 0.88151 0.43366 0.58085 0.0
H868 H 0.80045 0.61524 0.67073 0.0
H869 H 0.80045 0.61524 0.67073 0.0
H870 H 0.86291 0.6253 0.71597 0.0
H871 H 0.90559 0.59929 0.76567 0.0
loop_
_geom_bond_atom_site_label_1
_geom_bond_atom_site_label_2
_geom_bond_distance
_geom_bond_site_symmetry_2
_ccdc_geom_bond_type
C0 N1 1.317 . S
C0 N2 1.348 . S
C0 C3 1.485 . S
N1 C0 1.317 . S
N1 N5 1.370 . S
N2 C0 1.348 . S
N2 C4 1.346 . S
C3 C0 1.485 . S
C3 H7 0.960 . S
C3 H8 0.961 . S
C3 H9 0.960 . S
C4 N2 1.346 . S
C4 N5 1.307 . S
C4 C6 1.486 . S
N5 N1 1.370 . S
N5 C4 1.307 . S
C6 C4 1.486 . S
C6 H10 0.960 . S
C6 H11 0.960 . S
C6 H12 0.959 . S
H7 C3 0.960 . S
H8 C3 0.961 . S
H9 C3 0.960 . S
H10 C6 0.960 . S
H11 C6 0.960 . S
H12 C6 0.959 . S
C13 N14 1.317 . S
C13 N15 1.348 . S
C13 C16 1.485 . S
N14 C13 1.317 . S
N14 N18 1.370 . S
N15 C13 1.348 . S
N15 C17 1.346 . S
C16 C13 1.485 . S
C16 H20 0.960 1_655 S
C16 H21 0.961 . S
C16 H22 0.960 . S
C17 N15 1.346 . S
C17 N18 1.307 . S
C17 C19 1.486 . S
N18 N14 1.370 . S
N18 C17 1.307 . S
C19 C17 1.486 . S
C19 H23 0.960 . S
C19 H24 0.960 1_655 S
C19 H25 0.959 . S
H20 C16 0.960 1_455 S
H21 C16 0.961 . S
H22 C16 0.960 . S
H23 C19 0.960 . S
H24 C19 0.960 1_455 S
H25 C19 0.959 . S
C26 N27 1.317 . S
C26 N28 1.348 . S
C26 C29 1.485 . S
N27 C26 1.317 . S
N27 N31 1.370 . S
N28 C26 1.348 . S
N28 C30 1.346 . S
C29 C26 1.485 . S
C29 H33 0.960 1_565 S
C29 H34 0.961 . S
C29 H35 0.960 . S
C30 N28 1.346 . S
C30 N31 1.307 . S
C30 C32 1.486 . S
N31 N27 1.370 . S
N31 C30 1.307 . S
C32 C30 1.486 . S
C32 H36 0.960 . S
C32 H37 0.960 1_565 S
C32 H38 0.959 . S
H33 C29 0.960 1_545 S
H34 C29 0.961 . S
H35 C29 0.960 . S
H36 C32 0.960 . S
H37 C32 0.960 1_545 S
H38 C32 0.959 . S
C39 N40 1.317 . S
C39 N41 1.348 . S
C39 C42 1.485 . S
N40 C39 1.317 . S
N40 N44 1.370 . S
N41 C39 1.348 . S
N41 C43 1.346 . S
C42 C39 1.485 . S
C42 H46 0.960 . S
C42 H47 0.961 . S
C42 H48 0.960 . S
C43 N41 1.346 . S
C43 N44 1.307 . S
C43 C45 1.486 . S
N44 N40 1.370 . S
N44 C43 1.307 . S
C45 C43 1.486 . S
C45 H49 0.960 . S
C45 H50 0.960 . S
C45 H51 0.959 . S
H46 C42 0.960 . S
H47 C42 0.961 . S
H48 C42 0.960 . S
H49 C45 0.960 . S
H50 C45 0.960 . S
H51 C45 0.959 . S
C52 N53 1.317 . S
C52 N54 1.348 1_556 S
C52 C55 1.485 . S
N53 C52 1.317 . S
N53 N57 1.370 1_556 S
N54 C52 1.348 1_554 S
N54 C56 1.346 . S
C55 C52 1.485 . S
C55 H59 0.960 . S
C55 H60 0.961 . S
C55 H61 0.960 . S
C56 N54 1.346 . S
C56 N57 1.307 . S
C56 C58 1.486 . S
N57 N53 1.370 1_554 S
N57 C56 1.307 . S
C58 C56 1.486 . S
C58 H62 0.960 . S
C58 H63 0.960 . S
C58 H64 0.959 . S
H59 C55 0.960 . S
H60 C55 0.961 . S
H61 C55 0.960 . S
H62 C58 0.960 . S
H63 C58 0.960 . S
H64 C58 0.959 . S
C65 N66 1.317 . S
C65 N67 1.348 1_556 S
C65 C68 1.485 . S
N66 C65 1.317 . S
N66 N70 1.370 1_556 S
N67 C65 1.348 1_554 S
N67 C69 1.346 . S
C68 C65 1.485 . S
C68 H72 0.960 . S
C68 H73 0.961 . S
C68 H74 0.960 . S
C69 N67 1.346 . S
C69 N70 1.307 . S
C69 C71 1.486 . S
N70 N66 1.370 1_554 S
N70 C69 1.307 . S
C71 C69 1.486 . S
C71 H75 0.960 . S
C71 H76 0.960 . S
C71 H77 0.959 . S
H72 C68 0.960 . S
H73 C68 0.961 . S
H74 C68 0.960 . S
H75 C71 0.960 . S
H76 C71 0.960 . S
H77 C71 0.959 . S
C78 N79 1.317 . S
C78 N80 1.348 1_556 S
C78 C81 1.485 . S
N79 C78 1.317 . S
N79 N83 1.370 1_556 S
N80 C78 1.348 1_554 S
N80 C82 1.346 . S
C81 C78 1.485 . S
C81 H85 0.960 . S
C81 H86 0.961 . S
C81 H87 0.960 . S
C82 N80 1.346 . S
C82 N83 1.307 . S
C82 C84 1.486 . S
N83 N79 1.370 1_554 S
N83 C82 1.307 . S
C84 C82 1.486 . S
C84 H88 0.960 . S
C84 H89 0.960 . S
C84 H90 0.959 . S
H85 C81 0.960 . S
H86 C81 0.961 . S
H87 C81 0.960 . S
H88 C84 0.960 . S
H89 C84 0.960 . S
H90 C84 0.959 . S
C91 N92 1.317 . S
C91 N93 1.348 1_556 S
C91 C94 1.485 . S
N92 C91 1.317 . S
N92 N96 1.370 1_556 S
N93 C91 1.348 1_554 S
N93 C95 1.346 . S
C94 C91 1.485 . S
C94 H98 0.960 . S
C94 H99 0.961 . S
C94 H100 0.960 . S
C95 N93 1.346 . S
C95 N96 1.307 . S
C95 C97 1.486 . S
N96 N92 1.370 1_554 S
N96 C95 1.307 . S
C97 C95 1.486 . S
C97 H101 0.960 . S
C97 H102 0.960 . S
C97 H103 0.959 . S
H98 C94 0.960 . S
H99 C94 0.961 . S
H100 C94 0.960 . S
H101 C97 0.960 . S
H102 C97 0.960 . S
H103 C97 0.959 . S
C104 C106 1.422 . S
C104 C108 1.415 . S
C104 N110 1.369 1_554 S
C105 C106 1.421 . S
C105 C107 1.417 . S
C105 C117 1.422 . S
C106 C104 1.422 . S
C106 C105 1.421 . S
C106 N116 1.359 . S
C107 C105 1.417 . S
C107 C109 1.329 . S
C107 H126 0.930 . S
C108 C104 1.415 . S
C108 C109 1.437 . S
C108 C112 1.413 . S
C109 C107 1.329 . S
C109 C108 1.437 . S
C109 H131 0.929 . S
N110 C104 1.369 1_556 S
N110 C111 1.338 . S
N110 Gd115 2.622 1_545 S
C111 N110 1.338 . S
C111 C113 1.378 . S
C111 H123 0.929 1_545 S
C112 C108 1.413 . S
C112 C113 1.348 1_554 S
C112 H128 0.931 . S
C113 C111 1.378 . S
C113 C112 1.348 1_556 S
C113 H129 0.930 . S
Gd114 N134 2.622 . S
Gd114 N141 2.570 . S
Gd114 O148 2.344 1_655 S
Gd114 O149 2.468 . S
Gd114 O150 2.427 . S
Gd114 O152 2.388 . S
Gd114 O153 2.386 1_545 S
Gd114 O157 2.307 1_655 S
Gd114 C167 2.805 . S
Gd115 N110 2.622 1_565 S
Gd115 N116 2.570 1_566 S
Gd115 O147 2.386 1_565 S
Gd115 O151 2.307 1_465 S
Gd115 O154 2.353 . S
Gd115 O155 2.468 1_556 S
Gd115 O156 2.427 . S
Gd115 O158 2.388 . S
Gd115 C179 2.805 1_556 S
N116 C106 1.359 . S
N116 Gd115 2.570 1_544 S
N116 C118 1.343 . S
C117 C105 1.422 . S
C117 C119 1.321 . S
C117 H125 0.931 . S
C118 N116 1.343 . S
C118 C119 1.390 . S
C118 H120 0.931 . S
C119 C117 1.321 . S
C119 C118 1.390 . S
C119 H121 0.930 . S
H120 C118 0.931 . S
H121 C119 0.930 . S
H122 C145 0.931 1_445 S
H123 C111 0.929 1_565 S
H124 C146 0.930 1_455 S
H125 C117 0.931 . S
H126 C107 0.930 . S
H127 C136 0.929 . S
H128 C112 0.931 . S
H129 C113 0.930 . S
H130 C168 0.930 . S
H131 C109 0.929 . S
H132 C137 0.931 . S
H133 C138 0.930 . S
N134 Gd114 2.622 . S
N134 C135 1.369 1_545 S
N134 C136 1.338 . S
C135 N134 1.369 1_565 S
C135 C139 1.415 . S
C135 C142 1.422 . S
C136 H127 0.929 . S
C136 N134 1.338 . S
C136 C138 1.380 . S
C137 H132 0.931 . S
C137 C138 1.345 1_565 S
C137 C139 1.413 . S
C138 H133 0.930 . S
C138 C136 1.380 . S
C138 C137 1.345 1_545 S
C139 C135 1.415 . S
C139 C137 1.413 . S
C139 C169 1.437 . S
H140 C169 0.929 . S
N141 Gd114 2.570 . S
N141 C142 1.359 1_545 S
N141 C145 1.343 1_545 S
C142 C135 1.422 . S
C142 N141 1.359 1_565 S
C142 C144 1.421 . S
C143 C144 1.422 . S
C143 C146 1.321 . S
C143 H170 0.931 . S
C144 C142 1.421 . S
C144 C143 1.422 . S
C144 C168 1.417 . S
C145 H122 0.931 1_665 S
C145 N141 1.343 1_565 S
C145 C146 1.390 . S
C146 H124 0.930 1_655 S
C146 C143 1.321 . S
C146 C145 1.390 . S
O147 Gd115 2.386 1_545 S
O147 C159 1.265 . S
O148 Gd114 2.344 1_455 S
O148 C159 1.255 . S
O149 Gd114 2.468 . S
O149 C167 1.263 . S
O150 Gd114 2.427 . S
O150 C167 1.252 . S
O151 Gd115 2.307 1_645 S
O151 C160 1.261 . S
O152 Gd114 2.388 . S
O152 C160 1.252 . S
O153 Gd114 2.386 1_565 S
O153 C171 1.265 . S
O154 Gd115 2.353 . S
O154 C171 1.242 1_455 S
O155 Gd115 2.468 1_554 S
O155 C179 1.263 . S
O156 Gd115 2.427 . S
O156 C179 1.252 1_556 S
O157 Gd114 2.307 1_455 S
O157 C172 1.261 . S
O158 Gd115 2.388 . S
O158 C172 1.252 1_565 S
C159 O147 1.265 . S
C159 O148 1.255 . S
C160 O151 1.261 . S
C160 O152 1.252 . S
C161 C164 1.394 . S
C161 C166 1.370 . S
C161 C167 1.500 . S
C162 C165 1.383 . S
C162 C166 1.395 . S
C163 C164 1.396 . S
C163 C165 1.365 . S
C163 H180 0.929 . S
C164 C161 1.394 . S
C164 C163 1.396 . S
C164 H181 0.930 . S
C165 C162 1.383 . S
C165 C163 1.365 . S
C165 H182 0.931 . S
C166 C161 1.370 . S
C166 C162 1.395 . S
C166 H183 0.930 1_655 S
C167 Gd114 2.805 . S
C167 O149 1.263 . S
C167 O150 1.252 . S
C167 C161 1.500 . S
C168 H130 0.930 . S
C168 C144 1.417 . S
C168 C169 1.329 . S
C169 C139 1.437 . S
C169 H140 0.929 . S
C169 C168 1.329 . S
H170 C143 0.931 . S
C171 O153 1.265 . S
C171 O154 1.242 1_655 S
C172 O157 1.261 . S
C172 O158 1.252 1_545 S
C173 C176 1.394 . S
C173 C178 1.370 . S
C173 C179 1.500 . S
C174 C177 1.383 . S
C174 C178 1.395 . S
C175 C176 1.396 . S
C175 C177 1.365 . S
C175 H184 0.929 . S
C176 C173 1.394 . S
C176 C175 1.396 . S
C176 H185 0.930 . S
C177 C174 1.383 . S
C177 C175 1.365 . S
C177 H186 0.931 . S
C178 C173 1.370 . S
C178 C174 1.395 . S
C178 H187 0.930 . S
C179 Gd115 2.805 1_554 S
C179 O155 1.263 . S
C179 O156 1.252 1_554 S
C179 C173 1.500 . S
H180 C163 0.929 . S
H181 C164 0.930 . S
H182 C165 0.931 . S
H183 C166 0.930 1_455 S
H184 C175 0.929 . S
H185 C176 0.930 . S
H186 C177 0.931 . S
H187 C178 0.930 . S
C188 C190 1.422 . S
C188 C192 1.415 . S
C188 N194 1.369 . S
C189 C190 1.421 . S
C189 C191 1.417 . S
C189 C201 1.422 . S
C190 C188 1.422 . S
C190 C189 1.421 . S
C190 N200 1.359 . S
C191 C189 1.417 . S
C191 C193 1.329 . S
C191 H210 0.930 . S
C192 C188 1.415 . S
C192 C193 1.437 . S
C192 C196 1.413 . S
C193 C191 1.329 . S
C193 C192 1.437 . S
C193 H215 0.929 . S
N194 C188 1.369 . S
N194 C195 1.338 . S
N194 Gd199 2.622 . S
C195 N194 1.338 . S
C195 C197 1.378 . S
C195 H207 0.929 . S
C196 C192 1.413 . S
C196 C197 1.348 . S
C196 H212 0.931 . S
C197 C195 1.378 . S
C197 C196 1.348 . S
C197 H213 0.930 . S
Gd198 N218 2.622 . S
Gd198 N225 2.570 . S
Gd198 O232 2.353 1_545 S
Gd198 O233 2.468 1_556 S
Gd198 O234 2.427 1_556 S
Gd198 O236 2.388 . S
Gd198 O237 2.386 . S
Gd198 O241 2.307 . S
Gd198 C251 2.805 1_556 S
Gd199 N194 2.622 . S
Gd199 N200 2.570 . S
Gd199 O231 2.386 . S
Gd199 O235 2.307 1_565 S
Gd199 O238 2.353 1_565 S
Gd199 O239 2.468 . S
Gd199 O240 2.427 . S
Gd199 O242 2.388 . S
Gd199 C263 2.805 . S
N200 C190 1.359 . S
N200 Gd199 2.570 . S
N200 C202 1.343 . S
C201 C189 1.422 . S
C201 C203 1.321 . S
C201 H209 0.931 . S
C202 N200 1.343 . S
C202 C203 1.390 . S
C202 H204 0.931 . S
C203 C201 1.321 . S
C203 C202 1.390 . S
C203 H205 0.930 . S
H204 C202 0.931 . S
H205 C203 0.930 . S
H206 C229 0.931 . S
H207 C195 0.929 . S
H208 C230 0.930 . S
H209 C201 0.931 . S
H210 C191 0.930 . S
H211 C220 0.929 . S
H212 C196 0.931 . S
H213 C197 0.930 . S
H214 C252 0.930 . S
H215 C193 0.929 . S
H216 C221 0.931 . S
H217 C222 0.930 . S
N218 Gd198 2.622 . S
N218 C219 1.369 . S
N218 C220 1.338 1_556 S
C219 N218 1.369 . S
C219 C223 1.415 . S
C219 C226 1.422 . S
C220 H211 0.929 . S
C220 N218 1.338 1_554 S
C220 C222 1.378 . S
C221 H216 0.931 . S
C221 C222 1.348 . S
C221 C223 1.413 1_554 S
C222 H217 0.930 . S
C222 C220 1.378 . S
C222 C221 1.348 . S
C223 C219 1.415 . S
C223 C221 1.413 1_556 S
C223 C253 1.437 . S
H224 C253 0.929 . S
N225 Gd198 2.570 . S
N225 C226 1.359 . S
N225 C229 1.343 . S
C226 C219 1.422 . S
C226 N225 1.359 . S
C226 C228 1.421 . S
C227 C228 1.422 . S
C227 C230 1.321 . S
C227 H254 0.931 . S
C228 C226 1.421 . S
C228 C227 1.422 . S
C228 C252 1.417 . S
C229 H206 0.931 . S
C229 N225 1.343 . S
C229 C230 1.390 . S
C230 H208 0.930 . S
C230 C227 1.321 . S
C230 C229 1.390 . S
O231 Gd199 2.386 . S
O231 C243 1.265 . S
O232 Gd198 2.353 1_565 S
O232 C243 1.242 . S
O233 Gd198 2.468 1_554 S
O233 C251 1.263 . S
O234 Gd198 2.427 1_554 S
O234 C251 1.252 . S
O235 Gd199 2.307 1_545 S
O235 C244 1.261 . S
O236 Gd198 2.388 . S
O236 C244 1.252 . S
O237 Gd198 2.386 . S
O237 C255 1.265 . S
O238 Gd199 2.353 1_545 S
O238 C255 1.242 . S
O239 Gd199 2.468 . S
O239 C263 1.263 . S
O240 Gd199 2.427 . S
O240 C263 1.252 . S
O241 Gd198 2.307 . S
O241 C256 1.261 1_545 S
O242 Gd199 2.388 . S
O242 C256 1.252 . S
C243 O231 1.265 . S
C243 O232 1.242 . S
C244 O235 1.261 . S
C244 O236 1.252 . S
C245 C248 1.394 . S
C245 C250 1.370 . S
C245 C251 1.500 . S
C246 C249 1.383 . S
C246 C250 1.395 . S
C247 C248 1.396 . S
C247 C249 1.365 . S
C247 H264 0.929 . S
C248 C245 1.394 . S
C248 C247 1.396 . S
C248 H265 0.930 . S
C249 C246 1.383 . S
C249 C247 1.365 . S
C249 H266 0.931 . S
C250 C245 1.370 . S
C250 C246 1.395 . S
C250 H267 0.930 . S
C251 Gd198 2.805 1_554 S
C251 O233 1.263 . S
C251 O234 1.252 . S
C251 C245 1.500 . S
C252 H214 0.930 . S
C252 C228 1.417 . S
C252 C253 1.329 . S
C253 C223 1.437 . S
C253 H224 0.929 . S
C253 C252 1.329 . S
H254 C227 0.931 . S
C255 O237 1.265 . S
C255 O238 1.242 . S
C256 O241 1.261 1_565 S
C256 O242 1.252 . S
C257 C260 1.394 . S
C257 C262 1.370 . S
C257 C263 1.500 . S
C258 C261 1.383 . S
C258 C262 1.395 . S
C259 C260 1.396 . S
C259 C261 1.365 . S
C259 H268 0.929 . S
C260 C257 1.394 . S
C260 C259 1.396 . S
C260 H269 0.930 . S
C261 C258 1.383 . S
C261 C259 1.365 . S
C261 H270 0.931 . S
C262 C257 1.370 . S
C262 C258 1.395 . S
C262 H271 0.930 . S
C263 Gd199 2.805 . S
C263 O239 1.263 . S
C263 O240 1.252 . S
C263 C257 1.500 . S
H264 C247 0.929 . S
H265 C248 0.930 . S
H266 C249 0.931 . S
H267 C250 0.930 . S
H268 C259 0.929 . S
H269 C260 0.930 . S
H270 C261 0.931 . S
H271 C262 0.930 . S
C272 C274 1.422 . S
C272 C276 1.415 . S
C272 N278 1.369 1_554 S
C273 C274 1.421 . S
C273 C275 1.417 . S
C273 C285 1.422 . S
C274 C272 1.422 . S
C274 C273 1.421 . S
C274 N284 1.359 . S
C275 C273 1.417 . S
C275 C277 1.329 . S
C275 H294 0.930 . S
C276 C272 1.415 . S
C276 C277 1.437 . S
C276 C280 1.413 . S
C277 C275 1.329 . S
C277 C276 1.437 . S
C277 H299 0.929 . S
N278 C272 1.369 1_556 S
N278 C279 1.338 . S
N278 Gd283 2.622 . S
C279 N278 1.338 . S
C279 C281 1.378 . S
C279 H291 0.929 . S
C280 C276 1.413 . S
C280 C281 1.348 1_554 S
C280 H296 0.931 . S
C281 C279 1.378 . S
C281 C280 1.348 1_556 S
C281 H297 0.930 . S
Gd282 N302 2.622 . S
Gd282 N309 2.570 . S
Gd282 O316 2.353 . S
Gd282 O317 2.468 . S
Gd282 O318 2.427 . S
Gd282 O320 2.388 . S
Gd282 O321 2.386 . S
Gd282 O325 2.307 . S
Gd282 C335 2.805 . S
Gd283 N278 2.622 . S
Gd283 N284 2.570 1_556 S
Gd283 O315 2.386 . S
Gd283 O319 2.307 . S
Gd283 O322 2.353 . S
Gd283 O323 2.468 1_556 S
Gd283 O324 2.427 . S
Gd283 O326 2.388 . S
Gd283 C347 2.805 1_556 S
N284 C274 1.359 . S
N284 Gd283 2.570 1_554 S
N284 C286 1.343 . S
C285 C273 1.422 . S
C285 C287 1.321 . S
C285 H293 0.931 . S
C286 N284 1.343 . S
C286 C287 1.390 . S
C286 H288 0.931 . S
C287 C285 1.321 . S
C287 C286 1.390 . S
C287 H289 0.930 . S
H288 C286 0.931 . S
H289 C287 0.930 . S
H290 C313 0.931 . S
H291 C279 0.929 . S
H292 C314 0.930 . S
H293 C285 0.931 . S
H294 C275 0.930 . S
H295 C304 0.929 . S
H296 C280 0.931 . S
H297 C281 0.930 . S
H298 C336 0.930 . S
H299 C277 0.929 . S
H300 C305 0.931 . S
H301 C306 0.930 . S
N302 Gd282 2.622 . S
N302 C303 1.369 . S
N302 C304 1.338 . S
C303 N302 1.369 . S
C303 C307 1.415 . S
C303 C310 1.422 . S
C304 H295 0.929 . S
C304 N302 1.338 . S
C304 C306 1.378 . S
C305 H300 0.931 . S
C305 C306 1.348 . S
C305 C307 1.413 . S
C306 H301 0.930 . S
C306 C304 1.378 . S
C306 C305 1.348 . S
C307 C303 1.415 . S
C307 C305 1.413 . S
C307 C337 1.437 . S
H308 C337 0.929 . S
N309 Gd282 2.570 . S
N309 C310 1.359 . S
N309 C313 1.343 . S
C310 C303 1.422 . S
C310 N309 1.359 . S
C310 C312 1.421 . S
C311 C312 1.422 . S
C311 C314 1.321 . S
C311 H338 0.931 . S
C312 C310 1.421 . S
C312 C311 1.422 . S
C312 C336 1.417 . S
C313 H290 0.931 . S
C313 N309 1.343 . S
C313 C314 1.390 . S
C314 H292 0.930 . S
C314 C311 1.321 . S
C314 C313 1.390 . S
O315 Gd283 2.386 . S
O315 C327 1.265 . S
O316 Gd282 2.353 . S
O316 C327 1.242 . S
O317 Gd282 2.468 . S
O317 C335 1.263 . S
O318 Gd282 2.427 . S
O318 C335 1.252 . S
O319 Gd283 2.307 . S
O319 C328 1.261 . S
O320 Gd282 2.388 . S
O320 C328 1.252 . S
O321 Gd282 2.386 . S
O321 C339 1.265 . S
O322 Gd283 2.353 . S
O322 C339 1.242 . S
O323 Gd283 2.468 1_554 S
O323 C347 1.263 . S
O324 Gd283 2.427 . S
O324 C347 1.252 1_556 S
O325 Gd282 2.307 . S
O325 C340 1.261 . S
O326 Gd283 2.388 . S
O326 C340 1.252 . S
C327 O315 1.265 . S
C327 O316 1.242 . S
C328 O319 1.261 . S
C328 O320 1.252 . S
C329 C332 1.394 . S
C329 C334 1.370 . S
C329 C335 1.500 . S
C330 C333 1.383 . S
C330 C334 1.395 . S
C331 C332 1.396 . S
C331 C333 1.365 . S
C331 H348 0.929 . S
C332 C329 1.394 . S
C332 C331 1.396 . S
C332 H349 0.930 . S
C333 C330 1.383 . S
C333 C331 1.365 . S
C333 H350 0.931 . S
C334 C329 1.370 . S
C334 C330 1.395 . S
C334 H351 0.930 . S
C335 Gd282 2.805 . S
C335 O317 1.263 . S
C335 O318 1.252 . S
C335 C329 1.500 . S
C336 H298 0.930 . S
C336 C312 1.417 . S
C336 C337 1.329 . S
C337 C307 1.437 . S
C337 H308 0.929 . S
C337 C336 1.329 . S
H338 C311 0.931 . S
C339 O321 1.265 . S
C339 O322 1.242 . S
C340 O325 1.261 . S
C340 O326 1.252 . S
C341 C344 1.394 . S
C341 C346 1.370 . S
C341 C347 1.500 . S
C342 C345 1.383 . S
C342 C346 1.395 . S
C343 C344 1.396 . S
C343 C345 1.365 . S
C343 H352 0.929 . S
C344 C341 1.394 . S
C344 C343 1.396 . S
C344 H353 0.930 . S
C345 C342 1.383 . S
C345 C343 1.365 . S
C345 H354 0.931 . S
C346 C341 1.370 . S
C346 C342 1.395 . S
C346 H355 0.930 . S
C347 Gd283 2.805 1_554 S
C347 O323 1.263 . S
C347 O324 1.252 1_554 S
C347 C341 1.500 . S
H348 C331 0.929 . S
H349 C332 0.930 . S
H350 C333 0.931 . S
H351 C334 0.930 . S
H352 C343 0.929 . S
H353 C344 0.930 . S
H354 C345 0.931 . S
H355 C346 0.930 . S
C356 C358 1.422 . S
C356 C360 1.415 . S
C356 N362 1.369 1_554 S
C357 C358 1.421 . S
C357 C359 1.417 . S
C357 C369 1.422 . S
C358 C356 1.422 . S
C358 C357 1.421 . S
C358 N368 1.359 . S
C359 C357 1.417 . S
C359 C361 1.329 . S
C359 H378 0.930 . S
C360 C356 1.415 . S
C360 C361 1.437 . S
C360 C364 1.413 . S
C361 C359 1.329 . S
C361 C360 1.437 . S
C361 H383 0.929 . S
N362 C356 1.369 1_556 S
N362 C363 1.338 . S
N362 Gd367 2.622 1_455 S
C363 N362 1.338 . S
C363 C365 1.380 . S
C363 H375 0.927 1_455 S
C364 C360 1.413 . S
C364 C365 1.348 1_554 S
C364 H380 0.931 . S
C365 C363 1.380 . S
C365 C364 1.348 1_556 S
C365 H381 0.930 . S
Gd366 N386 2.622 . S
Gd366 N393 2.570 . S
Gd366 O400 2.353 . S
Gd366 O401 2.468 . S
Gd366 O402 2.427 . S
Gd366 O404 2.388 . S
Gd366 O405 2.386 1_455 S
Gd366 O409 2.307 . S
Gd366 C419 2.805 . S
Gd367 N362 2.622 1_655 S
Gd367 N368 2.570 1_656 S
Gd367 O399 2.386 1_655 S
Gd367 O403 2.307 1_655 S
Gd367 O406 2.353 . S
Gd367 O407 2.468 1_556 S
Gd367 O408 2.427 . S
Gd367 O410 2.388 . S
Gd367 C431 2.805 1_556 S
N368 C358 1.359 . S
N368 Gd367 2.570 1_454 S
N368 C370 1.343 . S
C369 C357 1.422 . S
C369 C371 1.321 . S
C369 H377 0.931 . S
C370 N368 1.343 . S
C370 C371 1.390 . S
C370 H372 0.931 . S
C371 C369 1.321 . S
C371 C370 1.390 . S
C371 H373 0.930 . S
H372 C370 0.931 . S
H373 C371 0.930 . S
H374 C397 0.931 1_455 S
H375 C363 0.927 1_655 S
H376 C398 0.930 . S
H377 C369 0.931 . S
H378 C359 0.930 . S
H379 C388 0.929 . S
H380 C364 0.931 . S
H381 C365 0.930 . S
H382 C420 0.930 . S
H383 C361 0.929 . S
H384 C389 0.931 . S
H385 C390 0.932 . S
N386 Gd366 2.622 . S
N386 C387 1.369 1_455 S
N386 C388 1.338 . S
C387 N386 1.369 1_655 S
C387 C391 1.415 . S
C387 C394 1.422 . S
C388 H379 0.929 . S
C388 N386 1.338 . S
C388 C390 1.383 . S
C389 H384 0.931 . S
C389 C390 1.340 1_655 S
C389 C391 1.413 . S
C390 H385 0.932 . S
C390 C388 1.383 . S
C390 C389 1.340 1_455 S
C391 C387 1.415 . S
C391 C389 1.413 . S
C391 C421 1.437 . S
H392 C421 0.929 . S
N393 Gd366 2.570 . S
N393 C394 1.359 1_455 S
N393 C397 1.343 1_455 S
C394 C387 1.422 . S
C394 N393 1.359 1_655 S
C394 C396 1.421 . S
C395 C396 1.422 . S
C395 C398 1.321 . S
C395 H422 0.931 . S
C396 C394 1.421 . S
C396 C395 1.422 . S
C396 C420 1.417 . S
C397 H374 0.931 1_655 S
C397 N393 1.343 1_655 S
C397 C398 1.390 . S
C398 H376 0.930 . S
C398 C395 1.321 . S
C398 C397 1.390 . S
O399 Gd367 2.386 1_455 S
O399 C411 1.265 . S
O400 Gd366 2.353 . S
O400 C411 1.242 . S
O401 Gd366 2.468 . S
O401 C419 1.263 . S
O402 Gd366 2.427 . S
O402 C419 1.252 . S
O403 Gd367 2.307 1_455 S
O403 C412 1.261 . S
O404 Gd366 2.388 . S
O404 C412 1.252 . S
O405 Gd366 2.386 1_655 S
O405 C423 1.265 . S
O406 Gd367 2.353 . S
O406 C423 1.242 . S
O407 Gd367 2.468 1_554 S
O407 C431 1.263 . S
O408 Gd367 2.427 . S
O408 C431 1.252 1_556 S
O409 Gd366 2.307 . S
O409 C424 1.261 . S
O410 Gd367 2.388 . S
O410 C424 1.252 1_655 S
C411 O399 1.265 . S
C411 O400 1.242 . S
C412 O403 1.261 . S
C412 O404 1.252 . S
C413 C416 1.394 . S
C413 C418 1.370 . S
C413 C419 1.500 . S
C414 C417 1.383 . S
C414 C418 1.395 . S
C415 C416 1.396 . S
C415 C417 1.365 . S
C415 H432 0.929 . S
C416 C413 1.394 . S
C416 C415 1.396 . S
C416 H433 0.930 . S
C417 C414 1.383 . S
C417 C415 1.365 . S
C417 H434 0.931 . S
C418 C413 1.370 . S
C418 C414 1.395 . S
C418 H435 0.930 . S
C419 Gd366 2.805 . S
C419 O401 1.263 . S
C419 O402 1.252 . S
C419 C413 1.500 . S
C420 H382 0.930 . S
C420 C396 1.417 . S
C420 C421 1.329 . S
C421 C391 1.437 . S
C421 H392 0.929 . S
C421 C420 1.329 . S
H422 C395 0.931 . S
C423 O405 1.265 . S
C423 O406 1.242 . S
C424 O409 1.261 . S
C424 O410 1.252 1_455 S
C425 C428 1.394 . S
C425 C430 1.370 . S
C425 C431 1.500 . S
C426 C429 1.383 . S
C426 C430 1.395 . S
C427 C428 1.396 . S
C427 C429 1.365 . S
C427 H436 0.929 . S
C428 C425 1.394 . S
C428 C427 1.396 . S
C428 H437 0.930 . S
C429 C426 1.383 . S
C429 C427 1.365 . S
C429 H438 0.931 . S
C430 C425 1.370 . S
C430 C426 1.395 . S
C430 H439 0.930 . S
C431 Gd367 2.805 1_554 S
C431 O407 1.263 . S
C431 O408 1.252 1_554 S
C431 C425 1.500 . S
H432 C415 0.929 . S
H433 C416 0.930 . S
H434 C417 0.931 . S
H435 C418 0.930 . S
H436 C427 0.929 . S
H437 C428 0.930 . S
H438 C429 0.931 . S
H439 C430 0.930 . S
C440 C441 1.363 . S
C440 C446 1.379 1_545 S
C440 N448 1.356 1_545 S
C441 C440 1.363 . S
C441 C447 1.363 . S
C442 C443 1.363 . S
C442 C447 1.379 . S
C442 N449 1.356 . S
C443 C442 1.363 . S
C443 C446 1.363 1_545 S
N444 C446 1.356 . S
N444 H456 0.984 . S
N444 H457 0.985 . S
N445 C447 1.356 . S
N445 H450 0.984 . S
N445 H451 0.985 . S
C446 C440 1.379 1_565 S
C446 C443 1.363 1_565 S
C446 N444 1.356 . S
C447 C441 1.363 . S
C447 C442 1.379 . S
C447 N445 1.356 . S
N448 C440 1.356 1_565 S
N448 H454 0.984 . S
N448 H455 0.984 . S
N449 C442 1.356 . S
N449 H452 0.984 . S
N449 H453 0.985 . S
H450 N445 0.984 . S
H451 N445 0.985 . S
H452 N449 0.984 . S
H453 N449 0.985 . S
H454 N448 0.984 . S
H455 N448 0.984 . S
H456 N444 0.984 . S
H457 N444 0.985 . S
C458 C459 1.363 . S
C458 C464 1.379 . S
C458 N466 1.356 . S
C459 C458 1.363 . S
C459 C465 1.363 . S
C460 C461 1.363 . S
C460 C465 1.379 . S
C460 N467 1.356 . S
C461 C460 1.363 . S
C461 C464 1.363 . S
N462 C464 1.356 . S
N462 H474 0.984 . S
N462 H475 0.985 . S
N463 C465 1.356 . S
N463 H468 0.984 . S
N463 H469 0.985 . S
C464 C458 1.379 . S
C464 C461 1.363 . S
C464 N462 1.356 . S
C465 C459 1.363 . S
C465 C460 1.379 . S
C465 N463 1.356 . S
N466 C458 1.356 . S
N466 H472 0.984 . S
N466 H473 0.984 . S
N467 C460 1.356 . S
N467 H470 0.984 . S
N467 H471 0.985 . S
H468 N463 0.984 . S
H469 N463 0.985 . S
H470 N467 0.984 . S
H471 N467 0.985 . S
H472 N466 0.984 . S
H473 N466 0.984 . S
H474 N462 0.984 . S
H475 N462 0.985 . S
C476 C477 1.363 . S
C476 C482 1.379 . S
C476 N484 1.356 . S
C477 C476 1.363 . S
C477 C483 1.363 . S
C478 C479 1.363 . S
C478 C483 1.379 . S
C478 N485 1.356 . S
C479 C478 1.363 . S
C479 C482 1.363 . S
N480 C482 1.356 . S
N480 H492 0.984 . S
N480 H493 0.985 . S
N481 C483 1.356 . S
N481 H486 0.984 . S
N481 H487 0.985 . S
C482 C476 1.379 . S
C482 C479 1.363 . S
C482 N480 1.356 . S
C483 C477 1.363 . S
C483 C478 1.379 . S
C483 N481 1.356 . S
N484 C476 1.356 . S
N484 H490 0.984 . S
N484 H491 0.984 . S
N485 C478 1.356 . S
N485 H488 0.984 . S
N485 H489 0.985 . S
H486 N481 0.984 . S
H487 N481 0.985 . S
H488 N485 0.984 . S
H489 N485 0.985 . S
H490 N484 0.984 . S
H491 N484 0.984 . S
H492 N480 0.984 . S
H493 N480 0.985 . S
C494 C495 1.363 . S
C494 C500 1.379 . S
C494 N502 1.356 . S
C495 C494 1.363 . S
C495 C501 1.363 . S
C496 C497 1.363 . S
C496 C501 1.379 . S
C496 N503 1.356 . S
C497 C496 1.363 . S
C497 C500 1.363 . S
N498 C500 1.356 . S
N498 H510 0.984 . S
N498 H511 0.985 . S
N499 C501 1.356 . S
N499 H504 0.984 . S
N499 H505 0.985 . S
C500 C494 1.379 . S
C500 C497 1.363 . S
C500 N498 1.356 . S
C501 C495 1.363 . S
C501 C496 1.379 . S
C501 N499 1.356 . S
N502 C494 1.356 . S
N502 H508 0.984 . S
N502 H509 0.984 . S
N503 C496 1.356 . S
N503 H506 0.984 . S
N503 H507 0.985 . S
H504 N499 0.984 . S
H505 N499 0.985 . S
H506 N503 0.984 . S
H507 N503 0.985 . S
H508 N502 0.984 . S
H509 N502 0.984 . S
H510 N498 0.984 . S
H511 N498 0.985 . S
C512 C513 1.363 1_545 S
C512 C518 1.379 . S
C512 N520 1.356 . S
C513 C512 1.363 1_565 S
C513 C519 1.363 . S
C514 C515 1.363 . S
C514 C519 1.379 . S
C514 N521 1.356 . S
C515 C514 1.363 . S
C515 C518 1.363 1_565 S
N516 C518 1.356 . S
N516 H528 0.984 . S
N516 H529 0.985 1_554 S
N517 C519 1.356 . S
N517 H522 0.984 . S
N517 H523 0.985 . S
C518 C512 1.379 . S
C518 C515 1.363 1_545 S
C518 N516 1.356 . S
C519 C513 1.363 . S
C519 C514 1.379 . S
C519 N517 1.356 . S
N520 C512 1.356 . S
N520 H526 0.984 . S
N520 H527 0.984 . S
N521 C514 1.356 . S
N521 H524 0.984 1_554 S
N521 H525 0.985 . S
H522 N517 0.984 . S
H523 N517 0.985 . S
H524 N521 0.984 1_556 S
H525 N521 0.985 . S
H526 N520 0.984 . S
H527 N520 0.984 . S
H528 N516 0.984 . S
H529 N516 0.985 1_556 S
C530 C531 1.363 . S
C530 C536 1.379 . S
C530 N538 1.356 . S
C531 C530 1.363 . S
C531 C537 1.363 . S
C532 C533 1.363 . S
C532 C537 1.379 . S
C532 N539 1.356 . S
C533 C532 1.363 . S
C533 C536 1.363 . S
N534 C536 1.356 1_556 S
N534 H546 0.984 . S
N534 H547 0.985 . S
N535 C537 1.356 . S
N535 H540 0.984 . S
N535 H541 0.985 . S
C536 C530 1.379 . S
C536 C533 1.363 . S
C536 N534 1.356 1_554 S
C537 C531 1.363 . S
C537 C532 1.379 . S
C537 N535 1.356 . S
N538 C530 1.356 . S
N538 H544 0.984 . S
N538 H545 0.984 . S
N539 C532 1.356 . S
N539 H542 0.984 . S
N539 H543 0.985 . S
H540 N535 0.984 . S
H541 N535 0.985 . S
H542 N539 0.984 . S
H543 N539 0.985 . S
H544 N538 0.984 . S
H545 N538 0.984 . S
H546 N534 0.984 . S
H547 N534 0.985 . S
C548 C549 1.363 . S
C548 C554 1.379 . S
C548 N556 1.356 . S
C549 C548 1.363 . S
C549 C555 1.363 . S
C550 C551 1.363 . S
C550 C555 1.379 . S
C550 N557 1.356 . S
C551 C550 1.363 . S
C551 C554 1.363 . S
N552 C554 1.356 . S
N552 H564 0.984 . S
N552 H565 0.985 1_554 S
N553 C555 1.356 . S
N553 H558 0.984 . S
N553 H559 0.985 . S
C554 C548 1.379 . S
C554 C551 1.363 . S
C554 N552 1.356 . S
C555 C549 1.363 . S
C555 C550 1.379 . S
C555 N553 1.356 . S
N556 C548 1.356 . S
N556 H562 0.984 . S
N556 H563 0.984 . S
N557 C550 1.356 . S
N557 H560 0.984 . S
N557 H561 0.985 . S
H558 N553 0.984 . S
H559 N553 0.985 . S
H560 N557 0.984 . S
H561 N557 0.985 . S
H562 N556 0.984 . S
H563 N556 0.984 . S
H564 N552 0.984 . S
H565 N552 0.985 1_556 S
C566 C567 1.363 . S
C566 C572 1.379 . S
C566 N574 1.356 . S
C567 C566 1.363 . S
C567 C573 1.363 1_655 S
C568 C569 1.363 1_455 S
C568 C573 1.379 . S
C568 N575 1.356 . S
C569 C568 1.363 1_655 S
C569 C572 1.363 . S
N570 C572 1.356 1_556 S
N570 H582 0.984 . S
N570 H583 0.985 . S
N571 C573 1.356 . S
N571 H576 0.984 . S
N571 H577 0.985 . S
C572 C566 1.379 . S
C572 C569 1.363 . S
C572 N570 1.356 1_554 S
C573 C567 1.363 1_455 S
C573 C568 1.379 . S
C573 N571 1.356 . S
N574 C566 1.356 . S
N574 H580 0.984 . S
N574 H581 0.984 . S
N575 C568 1.356 . S
N575 H578 0.984 . S
N575 H579 0.985 . S
H576 N571 0.984 . S
H577 N571 0.985 . S
H578 N575 0.984 . S
H579 N575 0.985 . S
H580 N574 0.984 . S
H581 N574 0.984 . S
H582 N570 0.984 . S
H583 N570 0.985 . S
C584 C585 1.363 . S
C584 C590 1.379 1_455 S
C584 N592 1.356 1_554 S
C585 C584 1.363 . S
C585 C591 1.363 . S
C586 C587 1.363 1_455 S
C586 C591 1.379 . S
C586 N593 1.356 . S
C587 C586 1.363 1_655 S
C587 C590 1.363 . S
N588 C590 1.356 . S
N588 H600 0.984 1_554 S
N588 H601 0.985 . S
N589 C591 1.356 . S
N589 H594 0.984 . S
N589 H595 0.985 . S
C590 C584 1.379 1_655 S
C590 C587 1.363 . S
C590 N588 1.356 . S
C591 C585 1.363 . S
C591 C586 1.379 . S
C591 N589 1.356 . S
N592 C584 1.356 1_556 S
N592 H598 0.984 1_455 S
N592 H599 0.984 . S
N593 C586 1.356 . S
N593 H596 0.984 1_455 S
N593 H597 0.985 . S
H594 N589 0.984 . S
H595 N589 0.985 . S
H596 N593 0.984 1_655 S
H597 N593 0.985 . S
H598 N592 0.984 1_655 S
H599 N592 0.984 . S
H600 N588 0.984 1_556 S
H601 N588 0.985 . S
C602 C603 1.363 1_565 S
C602 C608 1.379 . S
C602 N610 1.356 . S
C603 C602 1.363 1_545 S
C603 C609 1.363 . S
C604 C605 1.363 1_545 S
C604 C609 1.379 . S
C604 N611 1.356 . S
C605 C604 1.363 1_565 S
C605 C608 1.363 . S
N606 C608 1.356 . S
N606 H618 0.984 . S
N606 H619 0.985 . S
N607 C609 1.356 . S
N607 H612 0.984 . S
N607 H613 0.985 . S
C608 C602 1.379 . S
C608 C605 1.363 . S
C608 N606 1.356 . S
C609 C603 1.363 . S
C609 C604 1.379 . S
C609 N607 1.356 . S
N610 C602 1.356 . S
N610 H616 0.984 . S
N610 H617 0.984 1_565 S
N611 C604 1.356 . S
N611 H614 0.984 . S
N611 H615 0.985 . S
H612 N607 0.984 . S
H613 N607 0.985 . S
H614 N611 0.984 . S
H615 N611 0.985 . S
H616 N610 0.984 . S
H617 N610 0.984 1_545 S
H618 N606 0.984 . S
H619 N606 0.985 . S
C620 C621 1.363 . S
C620 C626 1.379 . S
C620 N628 1.356 1_554 S
C621 C620 1.363 . S
C621 C627 1.363 . S
C622 C623 1.363 . S
C622 C627 1.379 . S
C622 N629 1.356 . S
C623 C622 1.363 . S
C623 C626 1.363 . S
N624 C626 1.356 . S
N624 H636 0.984 1_554 S
N624 H637 0.985 . S
N625 C627 1.356 . S
N625 H630 0.984 . S
N625 H631 0.985 . S
C626 C620 1.379 . S
C626 C623 1.363 . S
C626 N624 1.356 . S
C627 C621 1.363 . S
C627 C622 1.379 . S
C627 N625 1.356 . S
N628 C620 1.356 1_556 S
N628 H634 0.984 . S
N628 H635 0.984 . S
N629 C622 1.356 . S
N629 H632 0.984 . S
N629 H633 0.985 . S
H630 N625 0.984 . S
H631 N625 0.985 . S
H632 N629 0.984 . S
H633 N629 0.985 . S
H634 N628 0.984 . S
H635 N628 0.984 . S
H636 N624 0.984 1_556 S
H637 N624 0.985 . S
C638 C639 1.363 . S
C638 C644 1.379 . S
C638 N646 1.356 . S
C639 C638 1.363 . S
C639 C645 1.363 . S
C640 C641 1.363 . S
C640 C645 1.379 . S
C640 N647 1.356 . S
C641 C640 1.363 . S
C641 C644 1.363 . S
N642 C644 1.356 . S
N642 H654 0.984 . S
N642 H655 0.985 . S
N643 C645 1.356 1_556 S
N643 H648 0.984 . S
N643 H649 0.985 . S
C644 C638 1.379 . S
C644 C641 1.363 . S
C644 N642 1.356 . S
C645 C639 1.363 . S
C645 C640 1.379 . S
C645 N643 1.356 1_554 S
N646 C638 1.356 . S
N646 H652 0.984 . S
N646 H653 0.984 . S
N647 C640 1.356 . S
N647 H650 0.984 . S
N647 H651 0.985 . S
H648 N643 0.984 . S
H649 N643 0.985 . S
H650 N647 0.984 . S
H651 N647 0.985 . S
H652 N646 0.984 . S
H653 N646 0.984 . S
H654 N642 0.984 . S
H655 N642 0.985 . S
C656 C657 1.363 . S
C656 C662 1.379 1_655 S
C656 N664 1.356 . S
C657 C656 1.363 . S
C657 C663 1.363 1_655 S
C658 C659 1.363 . S
C658 C663 1.379 . S
C658 N665 1.356 . S
C659 C658 1.363 . S
C659 C662 1.363 . S
N660 C662 1.356 . S
N660 H672 0.984 . S
N660 H673 0.985 . S
N661 C663 1.356 1_655 S
N661 H666 0.984 . S
N661 H667 0.985 1_655 S
C662 C656 1.379 1_455 S
C662 C659 1.363 . S
C662 N660 1.356 . S
C663 C657 1.363 1_455 S
C663 C658 1.379 . S
C663 N661 1.356 1_455 S
N664 C656 1.356 . S
N664 H670 0.984 . S
N664 H671 0.984 . S
N665 C658 1.356 . S
N665 H668 0.984 . S
N665 H669 0.985 . S
H666 N661 0.984 . S
H667 N661 0.985 1_455 S
H668 N665 0.984 . S
H669 N665 0.985 . S
H670 N664 0.984 . S
H671 N664 0.984 . S
H672 N660 0.984 . S
H673 N660 0.985 . S
C674 C675 1.363 . S
C674 C680 1.379 1_565 S
C674 N682 1.356 . S
C675 C674 1.363 . S
C675 C681 1.358 1_565 S
C676 C677 1.363 . S
C676 C681 1.388 . S
C676 N683 1.356 . S
C677 C676 1.363 . S
C677 C680 1.363 . S
N678 C680 1.356 . S
N678 H690 0.984 . S
N678 H691 0.985 . S
N679 C681 1.350 1_565 S
N679 H684 0.984 . S
N679 H685 0.985 . S
C680 C674 1.379 1_545 S
C680 C677 1.363 . S
C680 N678 1.356 . S
C681 C675 1.358 1_545 S
C681 C676 1.388 . S
C681 N679 1.350 1_545 S
N682 C674 1.356 . S
N682 H688 0.984 . S
N682 H689 0.984 . S
N683 C676 1.356 . S
N683 H686 0.984 . S
N683 H687 0.985 . S
H684 N679 0.984 . S
H685 N679 0.985 . S
H686 N683 0.984 . S
H687 N683 0.985 . S
H688 N682 0.984 . S
H689 N682 0.984 . S
H690 N678 0.984 . S
H691 N678 0.985 . S
C692 C693 1.363 . S
C692 C698 1.379 . S
C692 N700 1.356 . S
C693 C692 1.363 . S
C693 C699 1.363 . S
C694 C695 1.363 . S
C694 C699 1.379 . S
C694 N701 1.356 . S
C695 C694 1.363 . S
C695 C698 1.363 . S
N696 C698 1.356 . S
N696 H708 0.984 . S
N696 H709 0.985 . S
N697 C699 1.356 . S
N697 H702 0.984 . S
N697 H703 0.985 . S
C698 C692 1.379 . S
C698 C695 1.363 . S
C698 N696 1.356 . S
C699 C693 1.363 . S
C699 C694 1.379 . S
C699 N697 1.356 . S
N700 C692 1.356 . S
N700 H706 0.984 . S
N700 H707 0.984 . S
N701 C694 1.356 . S
N701 H704 0.984 . S
N701 H705 0.985 . S
H702 N697 0.984 . S
H703 N697 0.985 . S
H704 N701 0.984 . S
H705 N701 0.985 . S
H706 N700 0.984 . S
H707 N700 0.984 . S
H708 N696 0.984 . S
H709 N696 0.985 . S
C710 C711 1.363 . S
C710 C716 1.379 . S
C710 N718 1.356 . S
C711 C710 1.363 . S
C711 C717 1.363 . S
C712 C713 1.363 . S
C712 C717 1.379 . S
C712 N719 1.356 . S
C713 C712 1.363 . S
C713 C716 1.363 . S
N714 C716 1.356 . S
N714 H726 0.984 . S
N714 H727 0.985 . S
N715 C717 1.356 . S
N715 H720 0.984 . S
N715 H721 0.985 . S
C716 C710 1.379 . S
C716 C713 1.363 . S
C716 N714 1.356 . S
C717 C711 1.363 . S
C717 C712 1.379 . S
C717 N715 1.356 . S
N718 C710 1.356 . S
N718 H724 0.984 . S
N718 H725 0.984 . S
N719 C712 1.356 . S
N719 H722 0.984 . S
N719 H723 0.985 . S
H720 N715 0.984 . S
H721 N715 0.985 . S
H722 N719 0.984 . S
H723 N719 0.985 . S
H724 N718 0.984 . S
H725 N718 0.984 . S
H726 N714 0.984 . S
H727 N714 0.985 . S
C728 C729 1.363 1_554 S
C728 C734 1.379 1_554 S
C728 N736 1.356 . S
C729 C728 1.363 1_556 S
C729 C735 1.363 . S
C730 C731 1.363 . S
C730 C735 1.379 . S
C730 N737 1.356 1_455 S
C731 C730 1.363 . S
C731 C734 1.363 . S
N732 C734 1.356 1_554 S
N732 H744 0.984 . S
N732 H745 0.985 . S
N733 C735 1.356 1_655 S
N733 H738 0.984 . S
N733 H739 0.985 . S
C734 C728 1.379 1_556 S
C734 C731 1.363 . S
C734 N732 1.356 1_556 S
C735 C729 1.363 . S
C735 C730 1.379 . S
C735 N733 1.356 1_455 S
N736 C728 1.356 . S
N736 H742 0.984 . S
N736 H743 0.984 . S
N737 C730 1.356 1_655 S
N737 H740 0.989 . S
N737 H741 0.985 . S
H738 N733 0.984 . S
H739 N733 0.985 . S
H740 N737 0.989 . S
H741 N737 0.985 . S
H742 N736 0.984 . S
H743 N736 0.984 . S
H744 N732 0.984 . S
H745 N732 0.985 . S
C746 C747 1.363 . S
C746 C752 1.379 . S
C746 N754 1.356 . S
C747 C746 1.363 . S
C747 C753 1.363 1_556 S
C748 C749 1.363 . S
C748 C753 1.379 1_556 S
C748 N755 1.351 1_546 S
C749 C748 1.363 . S
C749 C752 1.363 . S
N750 C752 1.356 . S
N750 H762 0.984 . S
N750 H763 0.985 . S
N751 C753 1.356 . S
N751 H756 0.984 . S
N751 H757 0.985 1_545 S
C752 C746 1.379 . S
C752 C749 1.363 . S
C752 N750 1.356 . S
C753 C747 1.363 1_554 S
C753 C748 1.379 1_554 S
C753 N751 1.356 . S
N754 C746 1.356 . S
N754 H760 0.984 . S
N754 H761 0.984 . S
N755 C748 1.351 1_564 S
N755 H758 0.983 1_565 S
N755 H759 0.992 . S
H756 N751 0.984 . S
H757 N751 0.985 1_565 S
H758 N755 0.983 1_545 S
H759 N755 0.992 . S
H760 N754 0.984 . S
H761 N754 0.984 . S
H762 N750 0.984 . S
H763 N750 0.985 . S
C764 C765 1.363 . S
C764 C770 1.379 . S
C764 N772 1.356 1_556 S
C765 C764 1.363 . S
C765 C771 1.363 . S
C766 C767 1.363 . S
C766 C771 1.379 . S
C766 N773 1.356 . S
C767 C766 1.363 . S
C767 C770 1.363 . S
N768 C770 1.356 1_554 S
N768 H780 0.984 . S
N768 H781 0.985 . S
N769 C771 1.356 . S
N769 H774 0.984 . S
N769 H775 0.985 . S
C770 C764 1.379 . S
C770 C767 1.363 . S
C770 N768 1.356 1_556 S
C771 C765 1.363 . S
C771 C766 1.379 . S
C771 N769 1.356 . S
N772 C764 1.356 1_554 S
N772 H778 0.984 . S
N772 H779 0.984 . S
N773 C766 1.356 . S
N773 H776 0.984 . S
N773 H777 0.985 . S
H774 N769 0.984 . S
H775 N769 0.985 . S
H776 N773 0.984 . S
H777 N773 0.985 . S
H778 N772 0.984 . S
H779 N772 0.984 . S
H780 N768 0.984 . S
H781 N768 0.985 . S
C782 C783 1.363 . S
C782 C788 1.379 . S
C782 N790 1.356 1_556 S
C783 C782 1.363 . S
C783 C789 1.363 . S
C784 C785 1.363 . S
C784 C789 1.379 . S
C784 N791 1.356 . S
C785 C784 1.363 . S
C785 C788 1.363 . S
N786 C788 1.356 1_554 S
N786 H798 0.984 . S
N786 H799 0.985 1_554 S
N787 C789 1.356 . S
N787 H792 0.984 . S
N787 H793 0.985 . S
C788 C782 1.379 . S
C788 C785 1.363 . S
C788 N786 1.356 1_556 S
C789 C783 1.363 . S
C789 C784 1.379 . S
C789 N787 1.356 . S
N790 C782 1.356 1_554 S
N790 H796 0.984 . S
N790 H797 0.984 . S
N791 C784 1.356 . S
N791 H794 0.984 . S
N791 H795 0.985 . S
H792 N787 0.984 . S
H793 N787 0.985 . S
H794 N791 0.984 . S
H795 N791 0.985 . S
H796 N790 0.984 . S
H797 N790 0.984 . S
H798 N786 0.984 . S
H799 N786 0.985 1_556 S
C800 C801 1.363 . S
C800 C806 1.379 . S
C800 N808 1.356 . S
C801 C800 1.363 . S
C801 C807 1.363 1_655 S
C802 C803 1.363 1_455 S
C802 C807 1.379 . S
C802 N809 1.356 . S
C803 C802 1.363 1_655 S
C803 C806 1.363 . S
N804 C806 1.356 . S
N804 H816 0.984 . S
N804 H817 0.985 . S
N805 C807 1.356 . S
N805 H810 0.984 . S
N805 H811 0.985 . S
C806 C800 1.379 . S
C806 C803 1.363 . S
C806 N804 1.356 . S
C807 C801 1.363 1_455 S
C807 C802 1.379 . S
C807 N805 1.356 . S
N808 C800 1.356 . S
N808 H814 0.984 . S
N808 H815 0.984 . S
N809 C802 1.356 . S
N809 H812 0.984 . S
N809 H813 0.985 . S
H810 N805 0.984 . S
H811 N805 0.985 . S
H812 N809 0.984 . S
H813 N809 0.985 . S
H814 N808 0.984 . S
H815 N808 0.984 . S
H816 N804 0.984 . S
H817 N804 0.985 . S
C818 C819 1.363 1_545 S
C818 C824 1.379 . S
C818 N826 1.356 . S
C819 C818 1.363 1_565 S
C819 C825 1.363 . S
C820 C821 1.363 . S
C820 C825 1.379 . S
C820 N827 1.356 . S
C821 C820 1.363 . S
C821 C824 1.363 1_565 S
N822 C824 1.356 . S
N822 H834 0.984 . S
N822 H835 0.985 . S
N823 C825 1.356 . S
N823 H828 0.984 . S
N823 H829 0.985 . S
C824 C818 1.379 . S
C824 C821 1.363 1_545 S
C824 N822 1.356 . S
C825 C819 1.363 . S
C825 C820 1.379 . S
C825 N823 1.356 . S
N826 C818 1.356 . S
N826 H832 0.984 . S
N826 H833 0.984 . S
N827 C820 1.356 . S
N827 H830 0.984 . S
N827 H831 0.985 . S
H828 N823 0.984 . S
H829 N823 0.985 . S
H830 N827 0.984 . S
H831 N827 0.985 . S
H832 N826 0.984 . S
H833 N826 0.984 . S
H834 N822 0.984 . S
H835 N822 0.985 . S
C836 C837 1.363 . S
C836 C842 1.379 . S
C836 N844 1.356 . S
C837 C836 1.363 . S
C837 C843 1.363 . S
C838 C839 1.363 . S
C838 C843 1.379 . S
C838 N845 1.356 . S
C839 C838 1.363 . S
C839 C842 1.363 . S
N840 C842 1.356 . S
N840 H852 0.984 . S
N840 H853 0.985 . S
N841 C843 1.356 . S
N841 H846 0.984 . S
N841 H847 0.985 . S
C842 C836 1.379 . S
C842 C839 1.363 . S
C842 N840 1.356 . S
C843 C837 1.363 . S
C843 C838 1.379 . S
C843 N841 1.356 . S
N844 C836 1.356 . S
N844 H850 0.984 . S
N844 H851 0.984 . S
N845 C838 1.356 . S
N845 H848 0.984 . S
N845 H849 0.985 . S
H846 N841 0.984 . S
H847 N841 0.985 . S
H848 N845 0.984 . S
H849 N845 0.985 . S
H850 N844 0.984 . S
H851 N844 0.984 . S
H852 N840 0.984 . S
H853 N840 0.985 . S
C854 C855 1.363 . S
C854 C860 1.379 . S
C854 N862 1.356 . S
C855 C854 1.363 . S
C855 C861 1.363 . S
C856 C857 1.363 . S
C856 C861 1.379 . S
C856 N863 1.356 . S
C857 C856 1.363 . S
C857 C860 1.363 . S
N858 C860 1.356 . S
N858 H870 0.984 . S
N858 H871 0.985 . S
N859 C861 1.356 . S
N859 H864 0.984 . S
N859 H865 0.985 . S
C860 C854 1.379 . S
C860 C857 1.363 . S
C860 N858 1.356 . S
C861 C855 1.363 . S
C861 C856 1.379 . S
C861 N859 1.356 . S
N862 C854 1.356 . S
N862 H868 0.984 . S
N862 H869 0.984 . S
N863 C856 1.356 . S
N863 H866 0.984 . S
N863 H867 0.985 . S
H864 N859 0.984 . S
H865 N859 0.985 . S
H866 N863 0.984 . S
H867 N863 0.985 . S
H868 N862 0.984 . S
H869 N862 0.984 . S
H870 N858 0.984 . S
H871 N858 0.985 . S
C441 N80 2.023 . S
C443 C172 2.154 . S
C461 C255 2.164 . S
C459 N93 2.020 . S
C479 C340 2.153 . S
C477 N54 2.020 . S
C497 C424 2.143 . S
C495 N67 2.012 . S
C515 C160 2.154 1_564 S
C513 N28 2.027 . S
C531 N41 2.024 . S
C533 C243 2.164 1_554 S
C549 N2 2.024 . S
C551 C328 2.153 1_554 S
C567 N15 2.017 . S
C569 C412 2.143 1_654 S
C587 C162 0.739 . S
C585 N70 0.739 . S
C605 C258 0.730 . S
C603 N83 0.730 . S
C623 C330 0.745 . S
C621 N96 0.745 . S
C639 N57 0.726 . S
C641 C414 0.726 . S
C657 N18 0.739 . S
C659 C174 0.739 . S
C677 C246 0.730 . S
C675 N31 0.730 . S
C695 C342 0.745 . S
C693 N44 0.745 . S
C711 N5 0.726 . S
C713 C426 0.726 . S
C729 N66 2.159 . S
C731 C159 2.265 . S
C747 N79 2.164 . S
C749 C244 2.293 . S
C767 C327 2.279 . S
C765 N92 2.171 . S
C785 C411 2.284 . S
C783 N53 2.176 . S
C801 N14 2.160 . S
C803 C171 2.266 . S
C821 C256 2.293 . S
C819 N27 2.165 . S
C839 C339 2.279 . S
C837 N40 2.172 . S
C855 N1 2.177 . S
C857 C423 2.284 . S
