# Generated by pormake.
# Topology anh, (6,3)-cn, num edge types: 1
# Building blocks:
#     Node 0, Type 0, BuildingBlock: CUWYAW_clean_sbu_0, # of connection points: 6
#     Node 1, Type 0, BuildingBlock: CUWYAW_clean_sbu_0, # of connection points: 6
#     Node 2, Type 0, BuildingBlock: CUWYAW_clean_sbu_0, # of connection points: 6
#     Node 3, Type 1, BuildingBlock: PAMTOO_clean_linker_0, # of connection points: 3
#     Node 4, Type 1, BuildingBlock: PAMTOO_clean_linker_0, # of connection points: 3
#     Node 5, Type 1, BuildingBlock: PAMTOO_clean_linker_0, # of connection points: 3
#     Node 6, Type 1, BuildingBlock: PAMTOO_clean_linker_0, # of connection points: 3
#     Node 7, Type 1, BuildingBlock: PAMTOO_clean_linker_0, # of connection points: 3
#     Node 8, Type 1, BuildingBlock: PAMTOO_clean_linker_0, # of connection points: 3
#     Edge 9, Type (0, 1), BuildingBlock: EZIPEK_clean_linker_0, # of connection points: 2
#     Edge 10, Type (0, 1), BuildingBlock: EZIPEK_clean_linker_0, # of connection points: 2
#     Edge 11, Type (0, 1), BuildingBlock: EZIPEK_clean_linker_0, # of connection points: 2
#     Edge 12, Type (0, 1), BuildingBlock: EZIPEK_clean_linker_0, # of connection points: 2
#     Edge 13, Type (0, 1), BuildingBlock: EZIPEK_clean_linker_0, # of connection points: 2
#     Edge 14, Type (0, 1), BuildingBlock: EZIPEK_clean_linker_0, # of connection points: 2
#     Edge 15, Type (0, 1), BuildingBlock: EZIPEK_clean_linker_0, # of connection points: 2
#     Edge 16, Type (0, 1), BuildingBlock: EZIPEK_clean_linker_0, # of connection points: 2
#     Edge 17, Type (0, 1), BuildingBlock: EZIPEK_clean_linker_0, # of connection points: 2
#     Edge 18, Type (0, 1), BuildingBlock: EZIPEK_clean_linker_0, # of connection points: 2
#     Edge 19, Type (0, 1), BuildingBlock: EZIPEK_clean_linker_0, # of connection points: 2
#     Edge 20, Type (0, 1), BuildingBlock: EZIPEK_clean_linker_0, # of connection points: 2
#     Edge 21, Type (0, 1), BuildingBlock: EZIPEK_clean_linker_0, # of connection points: 2
#     Edge 22, Type (0, 1), BuildingBlock: EZIPEK_clean_linker_0, # of connection points: 2
#     Edge 23, Type (0, 1), BuildingBlock: EZIPEK_clean_linker_0, # of connection points: 2
#     Edge 24, Type (0, 1), BuildingBlock: EZIPEK_clean_linker_0, # of connection points: 2
#     Edge 25, Type (0, 1), BuildingBlock: EZIPEK_clean_linker_0, # of connection points: 2
#     Edge 26, Type (0, 1), BuildingBlock: EZIPEK_clean_linker_0, # of connection points: 2
# Relax obj value: 0.385
# Max RMSD: 0.160
# Mean RMSD: 0.122
data_MOF--net-anh--node1-CUWYAW_clean_sbu_0--node2-PAMTOO_clean_linker_0--edge1-EZIPEK_clean_linker_0
_symmetry_space_group_name_H-M    P1
_symmetry_Int_Tables_number       1
_symmetry_cell_setting            triclinic
loop_
_symmetry_equiv_pos_as_xyz
'x, y, z'
_cell_length_a     21.781351
_cell_length_b     22.070842
_cell_length_c     36.402688
_cell_angle_alpha  86.077798
_cell_angle_beta   92.397808
_cell_angle_gamma 119.68427
loop_
_atom_site_label
_atom_site_type_symbol
_atom_site_fract_x
_atom_site_fract_y
_atom_site_fract_z
_atom_type_partial_charge
C0 C 1.15835 0.39959 0.16926 0.0
Eu1 Eu 0.24191 0.53313 0.15687 0.0
C2 C 1.08671 0.35203 0.15628 0.0
C3 C 1.03933 0.29963 0.1808 0.0
C4 C 0.96734 0.26488 0.17257 0.0
C5 C 0.94199 0.28144 0.13946 0.0
C6 C 0.99004 0.32874 0.11323 0.0
C7 C 1.06195 0.36547 0.1221 0.0
C8 C 0.30054 0.61107 0.21686 0.0
C9 C 1.13991 0.6019 0.13863 0.0
C10 C 0.36133 0.81494 0.1386 0.0
Eu11 Eu 0.31081 0.68151 0.13846 0.0
C12 C 0.39027 0.89096 0.13876 0.0
C13 C 0.35412 0.92245 0.12047 0.0
C14 C 0.37049 0.99011 0.12832 0.0
C15 C 0.42304 1.02646 0.1545 0.0
C16 C 0.4634 0.99751 0.17004 0.0
C17 C 0.4471 0.9302 0.16228 0.0
C18 C 0.28913 0.60775 0.07753 0.0
C19 C 0.40871 0.60957 0.14153 0.0
O20 O 0.20848 0.42539 0.14488 0.0
O21 O 1.1626 0.44666 0.19064 0.0
O22 O 0.30807 0.55903 0.20899 0.0
O23 O 0.2658 0.62248 0.19142 0.0
O24 O 1.14335 0.54369 0.14409 0.0
O25 O 1.19838 0.66305 0.13768 0.0
O26 O 0.37775 0.78023 0.16401 0.0
O27 O 0.31964 0.77764 0.11233 0.0
O28 O 0.34579 0.66588 0.08399 0.0
O29 O 0.24598 0.59066 0.1036 0.0
O30 O 0.40716 0.66669 0.14909 0.0
O31 O 0.34857 0.55031 0.13797 0.0
H32 H 1.05735 0.28917 0.20744 0.0
H33 H 0.9309 0.2283 0.19314 0.0
H34 H 0.97136 0.34189 0.08751 0.0
H35 H 1.09716 0.40749 0.10341 0.0
H36 H 0.30989 0.89306 0.10229 0.0
H37 H 0.33899 1.01195 0.11612 0.0
H38 H 0.50442 1.02521 0.19018 0.0
H39 H 0.47602 0.90731 0.17656 0.0
C40 C 0.76689 0.2928 0.43581 0.0
Eu41 Eu 0.81814 0.21779 0.4667 0.0
C42 C 0.76825 0.35509 0.44716 0.0
C43 C 0.80284 0.38354 0.47993 0.0
C44 C 0.78704 0.42783 0.49763 0.0
C45 C 0.73759 0.44677 0.48239 0.0
C46 C 0.70805 0.42158 0.44741 0.0
C47 C 0.72334 0.3764 0.43009 0.0
C48 C 0.83141 0.19934 0.54072 0.0
C49 C 0.99174 0.31667 0.47171 0.0
C50 C 0.95648 1.07344 0.50191 0.0
Eu51 Eu 0.90226 0.15138 0.48206 0.0
C52 C 0.93458 1.00455 0.48832 0.0
C53 C 0.9209 0.99323 0.45043 0.0
C54 C 0.87885 0.92572 0.4386 0.0
C55 C 0.84939 0.86937 0.46459 0.0
C56 C 0.86902 0.88026 0.50194 0.0
C57 C 0.91161 0.94737 0.51369 0.0
C58 C 0.87985 0.17067 0.40929 0.0
C59 C 0.72845 1.04927 0.47267 0.0
O60 O 0.82777 0.30026 0.42688 0.0
O61 O 0.73075 0.23784 0.45779 0.0
O62 O 0.77728 0.19891 0.52446 0.0
O63 O 0.88038 0.2169 0.51772 0.0
O64 O 0.93165 0.31013 0.45778 0.0
O65 O 0.99148 0.26221 0.48928 0.0
O66 O 0.90881 1.07603 0.52157 0.0
O67 O 0.98614 1.126 0.47768 0.0
O68 O 0.93981 0.17995 0.42219 0.0
O69 O 0.83556 0.14879 0.43436 0.0
O70 O 0.78907 1.05414 0.48512 0.0
O71 O 0.72828 1.10674 0.45991 0.0
H72 H 0.83687 0.36603 0.49371 0.0
H73 H 0.80954 0.44043 0.52475 0.0
H74 H 0.66753 0.4301 0.43428 0.0
H75 H 0.69538 0.35355 0.40495 0.0
H76 H 0.93795 1.03664 0.43019 0.0
H77 H 0.86523 0.91813 0.40968 0.0
H78 H 0.847 0.83721 0.52249 0.0
H79 H 0.92114 0.95495 0.54292 0.0
C80 C 1.04762 0.83235 0.78438 0.0
Eu81 Eu 0.91635 0.76072 0.80495 0.0
C82 C 1.10301 0.81238 0.78741 0.0
C83 C 1.11844 0.7901 0.8219 0.0
C84 C 1.14871 0.74743 0.82394 0.0
C85 C 1.16425 0.72673 0.79168 0.0
C86 C 1.15951 0.75773 0.75754 0.0
C87 C 1.12839 0.8002 0.75539 0.0
C88 C 0.88428 0.71554 0.87698 0.0
C89 C 0.83802 0.59372 0.80248 0.0
C90 C 0.64681 0.6123 0.85203 0.0
Eu91 Eu 0.7679 0.69301 0.82038 0.0
C92 C 0.56993 0.57659 0.84637 0.0
C93 C 0.53436 0.50415 0.84253 0.0
C94 C 0.46114 0.46619 0.84318 0.0
C95 C 0.42229 0.49992 0.84779 0.0
C96 C 0.45689 0.57281 0.84943 0.0
C97 C 0.53076 0.61113 0.84895 0.0
C98 C 0.79008 0.72999 0.74793 0.0
C99 C 0.83951 0.85921 0.80471 0.0
O100 O 0.99554 0.7959 0.76197 0.0
O101 O 1.02512 0.84093 0.81531 0.0
O102 O 0.92996 0.70878 0.85862 0.0
O103 O 0.85908 0.747 0.85707 0.0
O104 O 0.89743 0.65183 0.79405 0.0
O105 O 0.78354 0.5975 0.81469 0.0
O106 O 0.6816 0.67992 0.85481 0.0
O107 O 0.68103 0.58985 0.83376 0.0
O108 O 0.73805 0.72553 0.7663 0.0
O109 O 0.82308 0.70606 0.7679 0.0
O110 O 0.78088 0.80249 0.81588 0.0
O111 O 0.89651 0.85428 0.79872 0.0
H112 H 1.10068 0.79938 0.84719 0.0
H113 H 1.15314 0.7247 0.85059 0.0
H114 H 1.17234 0.7429 0.73244 0.0
H115 H 1.11772 0.81751 0.72853 0.0
H116 H 0.56322 0.47614 0.84082 0.0
H117 H 0.43478 0.40988 0.84192 0.0
H118 H 0.42707 0.59919 0.8532 0.0
H119 H 0.55698 0.66691 0.85215 0.0
H120 H 0.80559 0.18829 0.23684 0.0
H121 H 0.647 0.1612 0.3129 0.0
H122 H 0.60638 0.16111 0.19621 0.0
H123 H 0.59288 0.2617 0.24699 0.0
C124 C 0.54313 0.21229 0.25353 0.0
O125 O 0.5566 0.1576 0.2616 0.0
H126 H 0.52268 0.22204 0.27848 0.0
C127 C 0.75282 0.17904 0.24197 0.0
C128 C 0.70884 0.17724 0.21238 0.0
C129 C 0.73011 0.17128 0.27818 0.0
C130 C 0.66396 0.16462 0.28491 0.0
C131 C 0.61939 0.16176 0.25533 0.0
C132 C 0.64056 0.16417 0.21914 0.0
H133 H 0.75231 0.74241 0.56734 0.0
H134 H 0.60404 0.56601 0.63459 0.0
H135 H 0.57009 0.57536 0.51767 0.0
H136 H 0.48339 0.39491 0.56621 0.0
C137 C 0.53306 0.43815 0.57697 0.0
O138 O 0.52528 0.4967 0.57895 0.0
H139 H 0.53562 0.41706 0.60502 0.0
C140 C 0.70318 0.69321 0.56992 0.0
C141 C 0.66367 0.66255 0.53835 0.0
C142 C 0.68138 0.65918 0.60464 0.0
C143 C 0.61981 0.59385 0.60794 0.0
C144 C 0.57992 0.56317 0.57654 0.0
C145 C 0.60068 0.59889 0.54197 0.0
H146 H 1.18834 0.58138 0.91028 0.0
H147 H 1.15093 0.37927 0.95357 0.0
H148 H 1.09927 0.4069 0.84127 0.0
H149 H 1.1035 0.25887 0.85387 0.0
C150 C 1.13217 0.28885 0.87793 0.0
O151 O 1.09358 0.3159 0.89277 0.0
H152 H 1.13055 0.24663 0.89679 0.0
C153 C 1.16969 0.52651 0.90689 0.0
C154 C 1.14612 0.49968 0.87203 0.0
C155 C 1.17367 0.48442 0.93664 0.0
C156 C 1.14785 0.41302 0.93145 0.0
C157 C 1.11822 0.38463 0.8976 0.0
C158 C 1.11887 0.42832 0.86784 0.0
H159 H 0.21156 0.54831 0.37757 0.0
H160 H 0.41224 0.73716 0.38107 0.0
H161 H 0.30999 0.62561 0.48223 0.0
H162 H 0.42388 0.78908 0.4946 0.0
C163 C 0.44232 0.79836 0.46572 0.0
O164 O 0.42806 0.73455 0.45257 0.0
H165 H 0.40868 0.81755 0.45141 0.0
C166 C 0.25399 0.58792 0.39345 0.0
C167 C 0.25147 0.5805 0.43213 0.0
C168 C 0.31138 0.64403 0.37482 0.0
C169 C 0.36715 0.69498 0.39535 0.0
C170 C 0.36769 0.6895 0.43406 0.0
C171 C 0.30927 0.63177 0.45248 0.0
H172 H 0.8349 1.08794 0.70585 0.0
H173 H 0.8378 0.28383 0.70634 0.0
H174 H 0.8418 0.17648 0.80927 0.0
H175 H 0.76702 0.27732 0.81366 0.0
C176 C 0.7882 0.30387 0.78639 0.0
O177 O 0.84386 0.29266 0.7777 0.0
H178 H 0.74212 0.27465 0.76816 0.0
C179 C 0.83552 0.12855 0.72132 0.0
C180 C 0.83755 1.12316 0.76011 0.0
C181 C 0.8363 0.18608 0.70184 0.0
C182 C 0.83671 0.2392 0.72136 0.0
C183 C 0.83709 0.23617 0.76008 0.0
C184 C 0.83836 0.17801 0.7795 0.0
H185 H 0.94045 0.64592 0.04027 0.0
H186 H 0.75033 0.65835 0.03897 0.0
H187 H 0.82261 0.6007 0.14056 0.0
H188 H 0.64695 0.52985 0.12338 0.0
C189 C 0.65398 0.57791 0.10789 0.0
O190 O 0.72476 0.63001 0.11006 0.0
H191 H 0.64024 0.56189 0.07904 0.0
C192 C 0.89584 0.64123 0.05495 0.0
C193 C 0.88855 0.62162 0.0928 0.0
C194 C 0.84568 0.65331 0.03546 0.0
C195 C 0.78806 0.64804 0.05423 0.0
C196 C 0.77882 0.62942 0.09217 0.0
C197 C 0.82899 0.61513 0.11137 0.0
C198 C 0.49977 0.57178 0.16063 0.0
C199 C 0.47874 0.6118 0.13638 0.0
C200 C 0.58119 0.64188 0.09698 0.0
C201 C 0.60121 0.60041 0.12077 0.0
N202 N 0.59447 0.54964 0.18218 0.0
N203 N 0.51358 0.70206 0.08751 0.0
C204 C 0.56499 0.5726 0.15476 0.0
C205 C 0.524 0.65235 0.10655 0.0
N206 N 0.45754 0.53275 0.1895 0.0
N207 N 0.61561 0.6701 0.06447 0.0
H208 H 0.4735 0.71226 0.09346 0.0
H209 H 0.54901 0.73836 0.06827 0.0
H210 H 0.66149 0.66991 0.05803 0.0
H211 H 0.59706 0.69109 0.04325 0.0
H212 H 0.46513 0.49589 0.2054 0.0
H213 H 0.41249 0.53448 0.19636 0.0
H214 H 0.57404 0.53413 0.20866 0.0
H215 H 0.64435 0.55458 0.17986 0.0
C216 C 1.06792 0.45022 0.47424 0.0
C217 C 1.06111 0.38501 0.46559 0.0
C218 C 1.18636 0.44921 0.44574 0.0
C219 C 1.18991 0.51455 0.44946 0.0
N220 N 1.13107 0.57714 0.46478 0.0
N221 N 1.1129 0.32556 0.43681 0.0
C222 C 1.1299 0.51493 0.46329 0.0
C223 C 1.12042 0.38536 0.45004 0.0
N224 N 1.01614 0.45044 0.49405 0.0
N225 N 0.24669 0.44812 0.43812 0.0
H226 H 1.06577 0.27827 0.43793 0.0
H227 H 1.15131 0.3243 0.42129 0.0
H228 H 0.29553 0.49356 0.43481 0.0
H229 H 0.24977 0.40243 0.4388 0.0
H230 H 1.02068 0.49525 0.50451 0.0
H231 H 0.97119 0.40474 0.50304 0.0
H232 H 1.08668 0.58109 0.47026 0.0
H233 H 1.17586 0.62502 0.45827 0.0
C234 C 0.88801 0.97948 0.76926 0.0
C235 C 0.84133 0.92959 0.79642 0.0
C236 C 0.79139 1.00887 0.80205 0.0
C237 C 0.84356 1.06118 0.77806 0.0
N238 N 0.9565 1.10202 0.74992 0.0
N239 N 0.76247 0.91119 0.84626 0.0
C240 C 0.89692 1.04832 0.76565 0.0
C241 C 0.79699 0.94846 0.81507 0.0
N242 N 0.91992 0.96061 0.7444 0.0
N243 N 0.73483 1.01493 0.81155 0.0
H244 H 0.76968 0.87128 0.85877 0.0
H245 H 0.73407 0.92599 0.86229 0.0
H246 H 0.72852 1.05741 0.80264 0.0
H247 H 0.69153 0.97488 0.82564 0.0
H248 H 0.95003 0.99431 0.72269 0.0
H249 H 0.90805 0.90931 0.74162 0.0
H250 H 0.99954 1.09666 0.74309 0.0
H251 H 0.96578 0.15329 0.74776 0.0
C252 C 1.02101 0.55542 0.10445 0.0
C253 C 1.06955 0.59934 0.13121 0.0
C254 C 0.99463 0.6539 0.13647 0.0
C255 C 0.94453 0.60753 0.11118 0.0
N256 N 0.9016 0.50189 0.07919 0.0
N257 N 1.0909 0.67699 0.17966 0.0
C258 C 0.95503 0.5541 0.09804 0.0
C259 C 1.05266 0.64444 0.14935 0.0
N260 N 1.03954 0.51861 0.08303 0.0
N261 N 0.98924 0.70935 0.14687 0.0
H262 H 1.13194 0.66971 0.19061 0.0
H263 H 1.07708 0.70505 0.19616 0.0
H264 H 0.94789 0.71812 0.13835 0.0
H265 H 1.02865 0.74953 0.16166 0.0
H266 H 1.0093 0.49145 0.06069 0.0
H267 H 1.08846 0.52088 0.08484 0.0
H268 H 0.90332 0.45814 0.07152 0.0
H269 H 0.85253 0.49883 0.07469 0.0
C270 C 0.6348 0.92585 0.49832 0.0
C271 C 0.66074 0.97857 0.46895 0.0
C272 C 0.54924 0.90656 0.43415 0.0
C273 C 0.52225 0.85553 0.4641 0.0
N274 N 0.54944 0.80698 0.51945 0.0
N275 N 0.6496 1.00639 0.4046 0.0
C276 C 0.56839 0.8623 0.49448 0.0
C277 C 0.61972 0.96511 0.4357 0.0
N278 N 0.67166 0.93721 0.53078 0.0
N279 N 0.50715 0.9 0.40407 0.0
H280 H 0.70109 1.04793 0.40393 0.0
H281 H 0.62657 0.99544 0.37851 0.0
H282 H 0.45979 0.85463 0.39923 0.0
H283 H 0.51802 0.94043 0.38437 0.0
H284 H 0.6513 0.90594 0.55479 0.0
H285 H 0.72113 0.98041 0.53471 0.0
H286 H 0.58317 0.8049 0.53999 0.0
H287 H 0.50299 0.75941 0.51694 0.0
C288 C 0.85979 0.49174 0.82251 0.0
C289 C 0.83019 0.52204 0.79682 0.0
C290 C 0.78447 0.41608 0.76036 0.0
C291 C 0.80973 0.38324 0.7876 0.0
N292 N 0.86655 0.38956 0.84663 0.0
N293 N 0.77148 0.51673 0.73887 0.0
C294 C 0.84615 0.42135 0.8191 0.0
C295 C 0.79386 0.48466 0.76529 0.0
N296 N 0.90378 0.53151 0.84961 0.0
N297 N 0.7494 0.38087 0.72999 0.0
H298 H 0.77566 0.56525 0.74196 0.0
H299 H 0.75206 0.49788 0.71306 0.0
H300 H 0.75254 0.3385 0.72133 0.0
H301 H 0.71716 0.39338 0.71307 0.0
H302 H 0.93365 0.51654 0.86698 0.0
H303 H 0.91533 0.58263 0.85282 0.0
H304 H 0.88291 0.40895 0.87264 0.0
H305 H 0.8655 0.34233 0.84402 0.0
C306 C 0.72191 0.79046 0.45729 0.0
C307 C 0.79093 0.80016 0.45522 0.0
C308 C 0.75827 0.69406 0.49229 0.0
C309 C 0.69526 0.69338 0.5018 0.0
N310 N 0.60388 0.72029 0.4825 0.0
N311 N 0.86109 0.74543 0.45253 0.0
C312 C 0.67193 0.734 0.48013 0.0
C313 C 0.80267 0.74433 0.46535 0.0
N314 N 0.7075 0.83939 0.44071 0.0
N315 N 0.77869 0.6518 0.51157 0.0
H316 H 0.89504 0.7857 0.43416 0.0
H317 H 0.87193 0.70462 0.45753 0.0
H318 H 0.7475 0.61609 0.53226 0.0
H319 H 0.82738 0.65473 0.5084 0.0
H320 H 0.66083 0.8403 0.44421 0.0
H321 H 0.74351 0.87966 0.42315 0.0
H322 H 0.58209 0.74385 0.46482 0.0
H323 H 0.56744 0.68092 0.50023 0.0
C324 C 0.23048 0.66508 0.81168 0.0
C325 C 1.16988 0.66253 0.79472 0.0
C326 C 1.09605 0.5429 0.81915 0.0
C327 C 1.15512 0.54841 0.8398 0.0
N328 N 0.2818 0.59972 0.84279 0.0
N329 N 1.05365 0.59202 0.76924 0.0
C330 C 0.22377 0.60467 0.83162 0.0
C331 C 1.10592 0.59821 0.79341 0.0
N332 N 0.29304 0.7264 0.8104 0.0
N333 N 1.03006 0.488 0.82595 0.0
H334 H 1.05979 0.63241 0.7505 0.0
H335 H 1.00754 0.54525 0.7648 0.0
H336 H 1.01873 0.44948 0.84684 0.0
H337 H 0.98531 0.48277 0.81216 0.0
H338 H 0.3375 0.73423 0.82583 0.0
H339 H 0.29889 0.77019 0.79454 0.0
H340 H 0.33321 0.63728 0.83563 0.0
H341 H 0.27747 0.55422 0.85593 0.0
C342 C 0.39242 1.08092 0.20296 0.0
C343 C 0.4305 1.08969 0.17048 0.0
C344 C 0.51572 0.20898 0.18549 0.0
C345 C 0.49006 0.19165 0.22189 0.0
N346 N 0.387 0.1312 0.25947 0.0
N347 N 0.51959 0.16493 0.1267 0.0
C348 C 0.42182 0.13439 0.22847 0.0
C349 C 0.48815 0.15572 0.15983 0.0
N350 N 0.33187 1.01935 0.21057 0.0
N351 N 0.56703 0.27552 0.17626 0.0
H352 H 0.49837 1.12664 0.10737 0.0
H353 H 0.56689 0.20902 0.11887 0.0
H354 H 0.58491 0.31485 0.19492 0.0
H355 H 0.58655 0.29298 0.14973 0.0
H356 H 0.30536 1.0061 0.23548 0.0
H357 H 0.30842 0.98044 0.1917 0.0
H358 H 0.33563 1.09242 0.26566 0.0
H359 H 0.40775 0.17199 0.27729 0.0
C360 C 0.64833 0.48558 0.49142 0.0
C361 C 0.70546 0.47824 0.50546 0.0
C362 C 0.6624 0.46838 0.56779 0.0
C363 C 0.59483 0.45281 0.55239 0.0
N364 N 0.5257 0.44963 0.49735 0.0
N365 N 0.78762 0.52019 0.55564 0.0
C366 C 0.58832 0.46211 0.51352 0.0
C367 C 0.71913 0.48528 0.54366 0.0
N368 N 0.65527 0.52263 0.45885 0.0
N369 N 0.67319 0.4673 0.60501 0.0
H370 H 0.82924 0.54431 0.53694 0.0
H371 H 0.80273 0.53289 0.58278 0.0
H372 H 0.6383 0.46534 0.62428 0.0
H373 H 0.71757 0.46743 0.61696 0.0
H374 H 0.61772 0.53611 0.44899 0.0
H375 H 0.70265 0.54604 0.44428 0.0
H376 H 0.51877 0.44983 0.46881 0.0
H377 H 0.48033 0.43685 0.51189 0.0
C378 C 0.29785 0.42978 0.82556 0.0
C379 C 0.34623 0.45621 0.85514 0.0
C380 C 0.25871 0.37115 0.89844 0.0
C381 C 0.20826 0.34519 0.86909 0.0
N382 N 1.17608 0.36437 0.80615 0.0
N383 N 0.36807 0.46671 0.92036 0.0
C384 C 0.22656 0.37867 0.833 0.0
C385 C 0.32505 0.43155 0.89177 0.0
N386 N 0.32046 0.45283 0.79025 0.0
N387 N 0.24412 0.33821 0.93279 0.0
H388 H 0.4177 0.51079 0.91655 0.0
H389 H 0.35174 0.4566 0.94767 0.0
H390 H 1.19496 0.29741 0.94094 0.0
H391 H 0.28263 0.34931 0.95321 0.0
H392 H 0.29042 0.42905 0.76715 0.0
H393 H 0.3712 0.49357 0.78406 0.0
H394 H 1.18592 0.39345 0.78118 0.0
H395 H 1.12261 0.32895 0.80956 0.0
C396 C 0.81978 0.18286 0.13689 0.0
C397 C 0.86516 0.25595 0.1362 0.0
C398 C 0.77366 0.27002 0.1644 0.0
C399 C 0.73986 0.19809 0.17519 0.0
N400 N 0.71723 1.08268 0.16527 0.0
N401 N 0.88146 0.37126 0.1425 0.0
C402 C 0.75743 0.15306 0.15827 0.0
C403 C 0.83962 0.30036 0.14641 0.0
N404 N 0.83963 0.14297 0.11908 0.0
N405 N 0.74455 0.30936 0.17334 0.0
H406 H 0.92885 0.39534 0.12826 0.0
H407 H 0.87031 0.40662 0.15395 0.0
H408 H 0.69725 0.28805 0.18758 0.0
H409 H 0.76343 0.36109 0.16394 0.0
H410 H 0.80867 1.08918 0.11733 0.0
H411 H 0.88607 0.16576 0.10376 0.0
H412 H 0.72976 1.04621 0.15658 0.0
H413 H 0.67057 1.06125 0.18032 0.0
C414 C 0.21848 0.50548 0.03891 0.0
C415 C 0.26764 0.57737 0.04046 0.0
C416 C 0.27034 0.58208 0.97316 0.0
C417 C 0.20717 0.51597 0.97248 0.0
N418 N 1.11152 0.4241 0.00916 0.0
N419 N 0.33084 0.68861 0.00516 0.0
C420 C 1.17799 0.48023 0.00666 0.0
C421 C 0.2913 0.61751 0.00651 0.0
N422 N 0.21556 0.46005 0.06669 0.0
N423 N 0.3126 0.6095 0.94301 0.0
H424 H 0.34314 0.71836 0.02805 0.0
H425 H 0.34404 0.71837 0.98026 0.0
H426 H 0.30378 0.58148 0.91962 0.0
H427 H 0.36123 0.65547 0.94349 0.0
H428 H 1.18369 0.40606 0.06523 0.0
H429 H 0.25444 0.47687 0.08712 0.0
H430 H 1.08934 0.39937 0.0345 0.0
H431 H 1.07634 0.40828 -0.01309 0.0
C432 C 0.87204 0.23652 0.35312 0.0
C433 C 0.85984 0.17219 0.37024 0.0
C434 C 0.77336 1.10823 0.32243 0.0
C435 C 0.77722 0.17196 0.3089 0.0
N436 N 0.83019 0.29712 0.3099 0.0
N437 N 0.8071 1.04748 0.37038 0.0
C438 C 0.82732 0.23647 0.32351 0.0
C439 C 0.81367 1.10819 0.3542 0.0
N440 N 0.92654 0.29728 0.36536 0.0
N441 N 0.73103 1.04817 0.30486 0.0
H442 H 0.83904 1.04705 0.39247 0.0
H443 H 0.76936 0.99775 0.36299 0.0
H444 H 0.69948 1.04623 0.28211 0.0
H445 H 0.72933 1.00077 0.31137 0.0
H446 H 0.94217 0.34639 0.35272 0.0
H447 H 0.96054 0.29769 0.38654 0.0
H448 H 0.86005 0.34496 0.32173 0.0
H449 H 0.79944 0.29916 0.28761 0.0
C450 C 0.75002 0.76494 0.68946 0.0
C451 C 0.78709 0.7331 0.70692 0.0
C452 C 0.77388 0.67071 0.65155 0.0
C453 C 0.72467 0.69129 0.63759 0.0
N454 N 0.66845 0.76126 0.64115 0.0
N455 N 0.86277 0.68472 0.69799 0.0
C456 C 0.71472 0.7407 0.65551 0.0
C457 C 0.80803 0.69467 0.68599 0.0
N458 N 0.75054 0.81966 0.70518 0.0
N459 N 0.78612 0.6268 0.63227 0.0
H460 H 0.89362 0.70882 0.72075 0.0
H461 H 0.88331 0.66012 0.68329 0.0
H462 H 0.76549 0.61245 0.60591 0.0
H463 H 0.81436 0.60266 0.64263 0.0
H464 H 0.72987 0.84954 0.6926 0.0
H465 H 0.7788 0.83987 0.72934 0.0
H466 H 0.65226 0.79044 0.65512 0.0
H467 H 0.64288 0.74589 0.61582 0.0
C468 C 0.89565 0.24645 0.60155 0.0
C469 C 0.83728 0.1946 0.58196 0.0
C470 C 0.77619 0.14196 0.64089 0.0
C471 C 0.83674 0.18993 0.6605 0.0
N472 N 0.95974 0.27855 0.65962 0.0
N473 N 0.72814 1.08441 0.58405 0.0
C474 C 0.8982 0.2394 0.64084 0.0
C475 C 0.77941 0.13988 0.60202 0.0
N476 N 0.94667 0.30466 0.58312 0.0
N477 N 0.71447 1.09981 0.65924 0.0
H478 H 0.72816 1.08053 0.55571 0.0
H479 H 0.68939 1.03917 0.59759 0.0
H480 H 0.70956 1.10016 0.68759 0.0
H481 H 0.66648 1.06925 0.64597 0.0
H482 H 0.98601 0.34745 0.59637 0.0
H483 H 0.94604 0.31366 0.55472 0.0
H484 H 1.00809 0.30984 0.64666 0.0
H485 H 0.96377 0.27488 0.68825 0.0
C486 C 0.84065 0.62922 0.93197 0.0
C487 C 0.87285 0.69964 0.91754 0.0
C488 C 0.87973 0.73903 0.9801 0.0
C489 C 0.85275 0.66922 -0.00529 0.0
N490 N 0.81205 0.54798 0.98535 0.0
N491 N 0.93211 0.82259 0.92811 0.0
C492 C 0.83462 0.6144 0.97082 0.0
C493 C 0.89433 0.75483 0.94166 0.0
N494 N 0.81282 0.57616 0.90841 0.0
N495 N 0.89122 0.7903 0.003 0.0
H496 H 0.94473 0.83639 0.90036 0.0
H497 H 0.95618 0.86522 0.94461 0.0
H498 H 0.88486 0.78162 0.03145 0.0
H499 H 0.90244 0.84036 -0.0063 0.0
H500 H 0.78153 0.5237 0.91663 0.0
H501 H 0.81633 0.58497 0.87999 0.0
H502 H 0.80712 0.50747 0.97019 0.0
H503 H 0.80175 0.5338 0.01327 0.0
C504 C 0.25084 0.63236 0.27429 0.0
C505 C 0.30708 0.63153 0.25594 0.0
C506 C 0.36707 0.6397 0.31575 0.0
C507 C 0.31393 0.64626 0.33352 0.0
N508 N 0.21602 0.66828 0.32749 0.0
N509 N 0.42737 0.65388 0.25872 0.0
C510 C 0.25951 0.6492 0.31198 0.0
C511 C 0.36802 0.64169 0.27657 0.0
N512 N 1.187 0.61189 0.25722 0.0
N513 N 0.41423 0.62722 0.33608 0.0
H514 H 0.43076 0.65737 0.23007 0.0
H515 H 0.47536 0.66799 0.27221 0.0
H516 H 0.41397 0.62234 0.36476 0.0
H517 H 0.44908 0.61468 0.32438 0.0
H518 H 1.14276 0.60491 0.27099 0.0
H519 H 1.17494 0.59415 0.23076 0.0
H520 H 1.17984 0.67783 0.31222 0.0
H521 H 0.2214 0.68173 0.35484 0.0
loop_
_geom_bond_atom_site_label_1
_geom_bond_atom_site_label_2
_geom_bond_distance
_geom_bond_site_symmetry_2
_ccdc_geom_bond_type
C0 Eu1 2.835 . S
C0 C2 1.500 . S
C0 O20 1.257 . S
C0 O21 1.260 . S
Eu1 C0 2.835 . S
Eu1 O20 2.473 . S
Eu1 O21 2.480 . S
Eu1 O22 2.430 . S
Eu1 O23 2.670 1_655 S
Eu1 O24 2.394 . S
Eu1 O29 2.358 1_655 S
Eu1 O31 2.374 1_655 S
C2 C0 1.500 . S
C2 C3 1.377 . S
C2 C7 1.377 . S
C3 C2 1.377 . S
C3 C4 1.395 . S
C3 H32 0.931 . S
C4 C3 1.395 . S
C4 C5 1.383 . S
C4 H33 0.931 . S
C5 C4 1.383 . S
C5 C6 1.394 . S
C6 C5 1.394 . S
C6 C7 1.378 . S
C6 H34 0.931 . S
C7 C2 1.377 . S
C7 C6 1.378 . S
C7 H35 0.931 . S
C8 O22 1.259 1_455 S
C8 O23 1.270 . S
C9 O24 1.251 . S
C9 O25 1.251 . S
C10 Eu11 2.835 . S
C10 C12 1.500 . S
C10 O26 1.257 . S
C10 O27 1.260 . S
Eu11 C10 2.835 . S
Eu11 O23 2.355 . S
Eu11 O25 2.374 1_455 S
Eu11 O26 2.473 . S
Eu11 O27 2.480 . S
Eu11 O28 2.430 . S
Eu11 O29 2.672 . S
Eu11 O30 2.394 . S
C12 C10 1.500 . S
C12 C13 1.377 . S
C12 C17 1.377 . S
C13 C12 1.377 . S
C13 C14 1.395 . S
C13 H36 0.931 . S
C14 C13 1.395 . S
C14 C15 1.383 . S
C14 H37 0.931 . S
C15 C14 1.383 . S
C15 C16 1.394 . S
C16 C15 1.394 . S
C16 C17 1.378 . S
C16 H38 0.931 . S
C17 C12 1.377 . S
C17 C16 1.378 . S
C17 H39 0.931 . S
C18 O28 1.259 . S
C18 O29 1.274 . S
C19 O30 1.251 . S
C19 O31 1.251 . S
O20 C0 1.257 . S
O20 Eu1 2.473 . S
O21 C0 1.260 . S
O21 Eu1 2.480 . S
O22 Eu1 2.430 . S
O22 C8 1.259 1_655 S
O23 Eu1 2.670 1_455 S
O23 C8 1.270 . S
O23 Eu11 2.355 . S
O24 Eu1 2.394 . S
O24 C9 1.251 . S
O25 C9 1.251 . S
O25 Eu11 2.374 1_655 S
O26 C10 1.257 . S
O26 Eu11 2.473 . S
O27 C10 1.260 . S
O27 Eu11 2.480 . S
O28 Eu11 2.430 . S
O28 C18 1.259 . S
O29 Eu1 2.358 1_455 S
O29 Eu11 2.672 . S
O29 C18 1.274 . S
O30 Eu11 2.394 . S
O30 C19 1.251 . S
O31 Eu1 2.374 1_455 S
O31 C19 1.251 . S
H32 C3 0.931 . S
H33 C4 0.931 . S
H34 C6 0.931 . S
H35 C7 0.931 . S
H36 C13 0.931 . S
H37 C14 0.931 . S
H38 C16 0.931 . S
H39 C17 0.931 . S
C40 Eu41 2.835 . S
C40 C42 1.500 . S
C40 O60 1.257 . S
C40 O61 1.260 . S
Eu41 C40 2.835 . S
Eu41 O60 2.473 . S
Eu41 O61 2.480 . S
Eu41 O62 2.430 . S
Eu41 O63 2.670 . S
Eu41 O64 2.394 . S
Eu41 O69 2.355 . S
Eu41 O71 2.374 1_545 S
C42 C40 1.500 . S
C42 C43 1.377 . S
C42 C47 1.377 . S
C43 C42 1.377 . S
C43 C44 1.395 . S
C43 H72 0.931 . S
C44 C43 1.395 . S
C44 C45 1.383 . S
C44 H73 0.931 . S
C45 C44 1.383 . S
C45 C46 1.394 . S
C46 C45 1.394 . S
C46 C47 1.378 . S
C46 H74 0.931 . S
C47 C42 1.377 . S
C47 C46 1.378 . S
C47 H75 0.931 . S
C48 O62 1.259 . S
C48 O63 1.270 . S
C49 O64 1.251 . S
C49 O65 1.251 . S
C50 Eu51 2.835 . S
C50 C52 1.500 . S
C50 O66 1.257 . S
C50 O67 1.260 . S
Eu51 C50 2.835 . S
Eu51 O63 2.355 1_565 S
Eu51 O65 2.374 1_565 S
Eu51 O66 2.473 . S
Eu51 O67 2.480 . S
Eu51 O68 2.430 1_565 S
Eu51 O69 2.670 1_565 S
Eu51 O70 2.394 . S
C52 C50 1.500 . S
C52 C53 1.377 . S
C52 C57 1.377 . S
C53 C52 1.377 . S
C53 C54 1.395 . S
C53 H76 0.931 . S
C54 C53 1.395 . S
C54 C55 1.383 . S
C54 H77 0.931 . S
C55 C54 1.383 . S
C55 C56 1.394 . S
C56 C55 1.394 . S
C56 C57 1.378 . S
C56 H78 0.931 . S
C57 C52 1.377 . S
C57 C56 1.378 . S
C57 H79 0.931 . S
C58 O68 1.259 . S
C58 O69 1.270 . S
C59 O70 1.251 . S
C59 O71 1.251 . S
O60 C40 1.257 . S
O60 Eu41 2.473 . S
O61 C40 1.260 . S
O61 Eu41 2.480 . S
O62 Eu41 2.430 . S
O62 C48 1.259 . S
O63 Eu41 2.670 . S
O63 C48 1.270 . S
O63 Eu51 2.355 1_545 S
O64 Eu41 2.394 . S
O64 C49 1.251 . S
O65 C49 1.251 . S
O65 Eu51 2.374 1_545 S
O66 C50 1.257 . S
O66 Eu51 2.473 . S
O67 C50 1.260 . S
O67 Eu51 2.480 . S
O68 Eu51 2.430 1_545 S
O68 C58 1.259 . S
O69 Eu41 2.355 . S
O69 Eu51 2.670 1_545 S
O69 C58 1.270 . S
O70 Eu51 2.394 . S
O70 C59 1.251 . S
O71 Eu41 2.374 1_565 S
O71 C59 1.251 . S
H72 C43 0.931 . S
H73 C44 0.931 . S
H74 C46 0.931 . S
H75 C47 0.931 . S
H76 C53 0.931 . S
H77 C54 0.931 . S
H78 C56 0.931 . S
H79 C57 0.931 . S
C80 Eu81 2.835 . S
C80 C82 1.500 . S
C80 O100 1.257 . S
C80 O101 1.260 . S
Eu81 C80 2.835 . S
Eu81 O100 2.473 . S
Eu81 O101 2.480 . S
Eu81 O102 2.430 . S
Eu81 O103 2.670 . S
Eu81 O104 2.394 . S
Eu81 O109 2.355 . S
Eu81 O111 2.374 . S
C82 C80 1.500 . S
C82 C83 1.377 . S
C82 C87 1.377 . S
C83 C82 1.377 . S
C83 C84 1.395 . S
C83 H112 0.931 . S
C84 C83 1.395 . S
C84 C85 1.383 . S
C84 H113 0.931 . S
C85 C84 1.383 . S
C85 C86 1.394 . S
C86 C85 1.394 . S
C86 C87 1.378 . S
C86 H114 0.931 . S
C87 C82 1.377 . S
C87 C86 1.378 . S
C87 H115 0.931 . S
C88 O102 1.259 . S
C88 O103 1.270 . S
C89 O104 1.251 . S
C89 O105 1.251 . S
C90 Eu91 2.835 . S
C90 C92 1.500 . S
C90 O106 1.257 . S
C90 O107 1.260 . S
Eu91 C90 2.835 . S
Eu91 O103 2.355 . S
Eu91 O105 2.374 . S
Eu91 O106 2.473 . S
Eu91 O107 2.480 . S
Eu91 O108 2.430 . S
Eu91 O109 2.670 . S
Eu91 O110 2.394 . S
C92 C90 1.500 . S
C92 C93 1.377 . S
C92 C97 1.377 . S
C93 C92 1.377 . S
C93 C94 1.395 . S
C93 H116 0.931 . S
C94 C93 1.395 . S
C94 C95 1.383 . S
C94 H117 0.931 . S
C95 C94 1.383 . S
C95 C96 1.394 . S
C96 C95 1.394 . S
C96 C97 1.378 . S
C96 H118 0.931 . S
C97 C92 1.377 . S
C97 C96 1.378 . S
C97 H119 0.931 . S
C98 O108 1.259 . S
C98 O109 1.270 . S
C99 O110 1.251 . S
C99 O111 1.251 . S
O100 C80 1.257 . S
O100 Eu81 2.473 . S
O101 C80 1.260 . S
O101 Eu81 2.480 . S
O102 Eu81 2.430 . S
O102 C88 1.259 . S
O103 Eu81 2.670 . S
O103 C88 1.270 . S
O103 Eu91 2.355 . S
O104 Eu81 2.394 . S
O104 C89 1.251 . S
O105 C89 1.251 . S
O105 Eu91 2.374 . S
O106 C90 1.257 . S
O106 Eu91 2.473 . S
O107 C90 1.260 . S
O107 Eu91 2.480 . S
O108 Eu91 2.430 . S
O108 C98 1.259 . S
O109 Eu81 2.355 . S
O109 Eu91 2.670 . S
O109 C98 1.270 . S
O110 Eu91 2.394 . S
O110 C99 1.251 . S
O111 Eu81 2.374 . S
O111 C99 1.251 . S
H112 C83 0.931 . S
H113 C84 0.931 . S
H114 C86 0.931 . S
H115 C87 0.931 . S
H116 C93 0.931 . S
H117 C94 0.931 . S
H118 C96 0.931 . S
H119 C97 0.931 . S
H120 C127 0.929 . S
H121 C130 0.930 1_565 S
H122 C132 0.929 . S
H123 C124 0.969 . S
C124 H123 0.969 . S
C124 O125 1.550 . S
C124 H126 0.973 . S
O125 C124 1.550 . S
O125 C131 1.412 1_565 S
H126 C124 0.973 . S
C127 H120 0.929 . S
C127 C128 1.400 . S
C127 C129 1.364 . S
C128 C127 1.400 . S
C128 C132 1.377 . S
C129 C127 1.364 . S
C129 C130 1.374 . S
C130 H121 0.930 1_545 S
C130 C129 1.374 . S
C130 C131 1.383 . S
C131 O125 1.412 1_545 S
C131 C130 1.383 . S
C131 C132 1.394 . S
C132 H122 0.929 . S
C132 C128 1.377 . S
C132 C131 1.394 . S
H133 C140 0.929 . S
H134 C143 0.930 . S
H135 C145 0.929 . S
H136 C137 0.969 . S
C137 H136 0.969 . S
C137 O138 1.550 . S
C137 H139 0.973 . S
O138 C137 1.550 . S
O138 C144 1.412 . S
H139 C137 0.973 . S
C140 H133 0.929 . S
C140 C141 1.400 . S
C140 C142 1.364 . S
C141 C140 1.400 . S
C141 C145 1.377 . S
C142 C140 1.364 . S
C142 C143 1.374 . S
C143 H134 0.930 . S
C143 C142 1.374 . S
C143 C144 1.383 . S
C144 O138 1.412 . S
C144 C143 1.383 . S
C144 C145 1.394 . S
C145 H135 0.929 . S
C145 C141 1.377 . S
C145 C144 1.394 . S
H146 C153 0.929 . S
H147 C156 0.930 . S
H148 C158 0.929 . S
H149 C150 0.969 . S
C150 H149 0.969 . S
C150 O151 1.550 . S
C150 H152 0.973 . S
O151 C150 1.550 . S
O151 C157 1.412 . S
H152 C150 0.973 . S
C153 H146 0.929 . S
C153 C154 1.400 . S
C153 C155 1.364 1_655 S
C154 C153 1.400 . S
C154 C158 1.377 1_655 S
C155 C153 1.364 1_455 S
C155 C156 1.374 . S
C156 H147 0.930 . S
C156 C155 1.374 . S
C156 C157 1.383 . S
C157 O151 1.412 . S
C157 C156 1.383 . S
C157 C158 1.394 . S
C158 H148 0.929 . S
C158 C154 1.377 1_455 S
C158 C157 1.394 . S
H159 C166 0.929 1_655 S
H160 C169 0.930 . S
H161 C171 0.929 . S
H162 C163 0.969 . S
C163 H162 0.969 . S
C163 O164 1.550 . S
C163 H165 0.973 . S
O164 C163 1.550 . S
O164 C170 1.412 . S
H165 C163 0.973 . S
C166 H159 0.929 1_455 S
C166 C167 1.400 . S
C166 C168 1.364 . S
C167 C166 1.400 . S
C167 C171 1.377 . S
C168 C166 1.364 . S
C168 C169 1.374 . S
C169 H160 0.930 . S
C169 C168 1.374 . S
C169 C170 1.383 . S
C170 O164 1.412 . S
C170 C169 1.383 . S
C170 C171 1.394 . S
C171 H161 0.929 . S
C171 C167 1.377 . S
C171 C170 1.394 . S
H172 C179 0.929 . S
H173 C182 0.930 . S
H174 C184 0.929 . S
H175 C176 0.969 . S
C176 H175 0.969 . S
C176 O177 1.550 . S
C176 H178 0.973 . S
O177 C176 1.550 . S
O177 C183 1.412 . S
H178 C176 0.973 . S
C179 H172 0.929 . S
C179 C180 1.400 . S
C179 C181 1.364 1_565 S
C180 C179 1.400 . S
C180 C184 1.377 . S
C181 C179 1.364 1_545 S
C181 C182 1.374 . S
C182 H173 0.930 . S
C182 C181 1.374 . S
C182 C183 1.383 . S
C183 O177 1.412 . S
C183 C182 1.383 . S
C183 C184 1.394 1_545 S
C184 H174 0.929 . S
C184 C180 1.377 . S
C184 C183 1.394 1_565 S
H185 C192 0.929 . S
H186 C195 0.930 . S
H187 C197 0.929 . S
H188 C189 0.969 . S
C189 H188 0.969 . S
C189 O190 1.550 . S
C189 H191 0.973 . S
O190 C189 1.550 . S
O190 C196 1.412 . S
H191 C189 0.973 . S
C192 H185 0.929 . S
C192 C193 1.400 . S
C192 C194 1.364 . S
C193 C192 1.400 . S
C193 C197 1.377 . S
C194 C192 1.364 . S
C194 C195 1.374 . S
C195 H186 0.930 . S
C195 C194 1.374 . S
C195 C196 1.383 . S
C196 O190 1.412 . S
C196 C195 1.383 . S
C196 C197 1.394 . S
C197 H187 0.929 . S
C197 C193 1.377 . S
C197 C196 1.394 . S
C198 C199 1.363 . S
C198 C204 1.379 . S
C198 N206 1.356 . S
C199 C198 1.363 . S
C199 C205 1.363 . S
C200 C201 1.363 . S
C200 C205 1.379 . S
C200 N207 1.356 . S
C201 C200 1.363 . S
C201 C204 1.363 . S
N202 C204 1.356 . S
N202 H214 0.984 . S
N202 H215 0.985 . S
N203 C205 1.356 . S
N203 H208 0.984 . S
N203 H209 0.985 . S
C204 C198 1.379 . S
C204 C201 1.363 . S
C204 N202 1.356 . S
C205 C199 1.363 . S
C205 C200 1.379 . S
C205 N203 1.356 . S
N206 C198 1.356 . S
N206 H212 0.984 . S
N206 H213 0.984 . S
N207 C200 1.356 . S
N207 H210 0.984 . S
N207 H211 0.985 . S
H208 N203 0.984 . S
H209 N203 0.985 . S
H210 N207 0.984 . S
H211 N207 0.985 . S
H212 N206 0.984 . S
H213 N206 0.984 . S
H214 N202 0.984 . S
H215 N202 0.985 . S
C216 C217 1.363 . S
C216 C222 1.379 . S
C216 N224 1.356 . S
C217 C216 1.363 . S
C217 C223 1.363 . S
C218 C219 1.363 . S
C218 C223 1.379 . S
C218 N225 1.356 . S
C219 C218 1.363 . S
C219 C222 1.363 . S
N220 C222 1.356 . S
N220 H232 0.984 . S
N220 H233 0.985 . S
N221 C223 1.356 . S
N221 H226 0.984 . S
N221 H227 0.985 . S
C222 C216 1.379 . S
C222 C219 1.363 . S
C222 N220 1.356 . S
C223 C217 1.363 . S
C223 C218 1.379 . S
C223 N221 1.356 . S
N224 C216 1.356 . S
N224 H230 0.984 . S
N224 H231 0.984 . S
N225 C218 1.356 . S
N225 H228 0.984 1_655 S
N225 H229 0.985 . S
H226 N221 0.984 . S
H227 N221 0.985 . S
H228 N225 0.984 1_455 S
H229 N225 0.985 . S
H230 N224 0.984 . S
H231 N224 0.984 . S
H232 N220 0.984 . S
H233 N220 0.985 . S
C234 C235 1.363 . S
C234 C240 1.379 . S
C234 N242 1.356 . S
C235 C234 1.363 . S
C235 C241 1.363 . S
C236 C237 1.363 . S
C236 C241 1.379 . S
C236 N243 1.356 . S
C237 C236 1.363 . S
C237 C240 1.363 . S
N238 C240 1.356 . S
N238 H250 0.984 . S
N238 H251 0.985 . S
N239 C241 1.356 . S
N239 H244 0.984 . S
N239 H245 0.985 . S
C240 C234 1.379 . S
C240 C237 1.363 . S
C240 N238 1.356 . S
C241 C235 1.363 . S
C241 C236 1.379 . S
C241 N239 1.356 . S
N242 C234 1.356 . S
N242 H248 0.984 . S
N242 H249 0.984 . S
N243 C236 1.356 . S
N243 H246 0.984 . S
N243 H247 0.985 . S
H244 N239 0.984 . S
H245 N239 0.985 . S
H246 N243 0.984 . S
H247 N243 0.985 . S
H248 N242 0.984 . S
H249 N242 0.984 . S
H250 N238 0.984 . S
H251 N238 0.985 . S
C252 C253 1.363 . S
C252 C258 1.379 . S
C252 N260 1.356 . S
C253 C252 1.363 . S
C253 C259 1.363 . S
C254 C255 1.363 . S
C254 C259 1.379 . S
C254 N261 1.356 . S
C255 C254 1.363 . S
C255 C258 1.363 . S
N256 C258 1.356 . S
N256 H268 0.984 . S
N256 H269 0.985 . S
N257 C259 1.356 . S
N257 H262 0.984 . S
N257 H263 0.985 . S
C258 C252 1.379 . S
C258 C255 1.363 . S
C258 N256 1.356 . S
C259 C253 1.363 . S
C259 C254 1.379 . S
C259 N257 1.356 . S
N260 C252 1.356 . S
N260 H266 0.984 . S
N260 H267 0.984 . S
N261 C254 1.356 . S
N261 H264 0.984 . S
N261 H265 0.985 . S
H262 N257 0.984 . S
H263 N257 0.985 . S
H264 N261 0.984 . S
H265 N261 0.985 . S
H266 N260 0.984 . S
H267 N260 0.984 . S
H268 N256 0.984 . S
H269 N256 0.985 . S
C270 C271 1.363 . S
C270 C276 1.379 . S
C270 N278 1.356 . S
C271 C270 1.363 . S
C271 C277 1.363 . S
C272 C273 1.363 . S
C272 C277 1.379 . S
C272 N279 1.356 . S
C273 C272 1.363 . S
C273 C276 1.363 . S
N274 C276 1.356 . S
N274 H286 0.984 . S
N274 H287 0.985 . S
N275 C277 1.356 . S
N275 H280 0.984 . S
N275 H281 0.985 . S
C276 C270 1.379 . S
C276 C273 1.363 . S
C276 N274 1.356 . S
C277 C271 1.363 . S
C277 C272 1.379 . S
C277 N275 1.356 . S
N278 C270 1.356 . S
N278 H284 0.984 . S
N278 H285 0.984 . S
N279 C272 1.356 . S
N279 H282 0.984 . S
N279 H283 0.985 . S
H280 N275 0.984 . S
H281 N275 0.985 . S
H282 N279 0.984 . S
H283 N279 0.985 . S
H284 N278 0.984 . S
H285 N278 0.984 . S
H286 N274 0.984 . S
H287 N274 0.985 . S
C288 C289 1.363 . S
C288 C294 1.379 . S
C288 N296 1.356 . S
C289 C288 1.363 . S
C289 C295 1.363 . S
C290 C291 1.363 . S
C290 C295 1.379 . S
C290 N297 1.356 . S
C291 C290 1.363 . S
C291 C294 1.363 . S
N292 C294 1.356 . S
N292 H304 0.984 . S
N292 H305 0.985 . S
N293 C295 1.356 . S
N293 H298 0.984 . S
N293 H299 0.985 . S
C294 C288 1.379 . S
C294 C291 1.363 . S
C294 N292 1.356 . S
C295 C289 1.363 . S
C295 C290 1.379 . S
C295 N293 1.356 . S
N296 C288 1.356 . S
N296 H302 0.984 . S
N296 H303 0.984 . S
N297 C290 1.356 . S
N297 H300 0.984 . S
N297 H301 0.985 . S
H298 N293 0.984 . S
H299 N293 0.985 . S
H300 N297 0.984 . S
H301 N297 0.985 . S
H302 N296 0.984 . S
H303 N296 0.984 . S
H304 N292 0.984 . S
H305 N292 0.985 . S
C306 C307 1.363 . S
C306 C312 1.379 . S
C306 N314 1.356 . S
C307 C306 1.363 . S
C307 C313 1.363 . S
C308 C309 1.363 . S
C308 C313 1.379 . S
C308 N315 1.356 . S
C309 C308 1.363 . S
C309 C312 1.363 . S
N310 C312 1.356 . S
N310 H322 0.984 . S
N310 H323 0.985 . S
N311 C313 1.356 . S
N311 H316 0.984 . S
N311 H317 0.985 . S
C312 C306 1.379 . S
C312 C309 1.363 . S
C312 N310 1.356 . S
C313 C307 1.363 . S
C313 C308 1.379 . S
C313 N311 1.356 . S
N314 C306 1.356 . S
N314 H320 0.984 . S
N314 H321 0.984 . S
N315 C308 1.356 . S
N315 H318 0.984 . S
N315 H319 0.985 . S
H316 N311 0.984 . S
H317 N311 0.985 . S
H318 N315 0.984 . S
H319 N315 0.985 . S
H320 N314 0.984 . S
H321 N314 0.984 . S
H322 N310 0.984 . S
H323 N310 0.985 . S
C324 C325 1.363 . S
C324 C330 1.379 . S
C324 N332 1.356 . S
C325 C324 1.363 . S
C325 C331 1.363 . S
C326 C327 1.363 . S
C326 C331 1.379 . S
C326 N333 1.356 . S
C327 C326 1.363 . S
C327 C330 1.363 . S
N328 C330 1.356 1_455 S
N328 H340 0.984 . S
N328 H341 0.985 . S
N329 C331 1.356 . S
N329 H334 0.984 . S
N329 H335 0.985 . S
C330 C324 1.379 . S
C330 C327 1.363 . S
C330 N328 1.356 1_655 S
C331 C325 1.363 . S
C331 C326 1.379 . S
C331 N329 1.356 . S
N332 C324 1.356 . S
N332 H338 0.984 1_655 S
N332 H339 0.984 . S
N333 C326 1.356 . S
N333 H336 0.984 . S
N333 H337 0.985 . S
H334 N329 0.984 . S
H335 N329 0.985 . S
H336 N333 0.984 . S
H337 N333 0.985 . S
H338 N332 0.984 1_455 S
H339 N332 0.984 . S
H340 N328 0.984 . S
H341 N328 0.985 . S
C342 C343 1.363 . S
C342 C348 1.379 . S
C342 N350 1.356 . S
C343 C342 1.363 . S
C343 C349 1.363 . S
C344 C345 1.363 . S
C344 C349 1.379 . S
C344 N351 1.356 . S
C345 C344 1.363 . S
C345 C348 1.363 . S
N346 C348 1.356 . S
N346 H358 0.984 . S
N346 H359 0.985 . S
N347 C349 1.356 . S
N347 H352 0.984 . S
N347 H353 0.985 . S
C348 C342 1.379 . S
C348 C345 1.363 . S
C348 N346 1.356 . S
C349 C343 1.363 . S
C349 C344 1.379 . S
C349 N347 1.356 . S
N350 C342 1.356 . S
N350 H356 0.984 . S
N350 H357 0.984 . S
N351 C344 1.356 . S
N351 H354 0.984 1_565 S
N351 H355 0.985 . S
H352 N347 0.984 . S
H353 N347 0.985 . S
H354 N351 0.984 1_545 S
H355 N351 0.985 . S
H356 N350 0.984 . S
H357 N350 0.984 . S
H358 N346 0.984 . S
H359 N346 0.985 . S
C360 C361 1.363 . S
C360 C366 1.379 . S
C360 N368 1.356 . S
C361 C360 1.363 . S
C361 C367 1.363 . S
C362 C363 1.363 . S
C362 C367 1.379 . S
C362 N369 1.356 . S
C363 C362 1.363 . S
C363 C366 1.363 . S
N364 C366 1.356 . S
N364 H376 0.984 . S
N364 H377 0.985 . S
N365 C367 1.356 . S
N365 H370 0.984 . S
N365 H371 0.985 . S
C366 C360 1.379 . S
C366 C363 1.363 . S
C366 N364 1.356 . S
C367 C361 1.363 . S
C367 C362 1.379 . S
C367 N365 1.356 . S
N368 C360 1.356 . S
N368 H374 0.984 . S
N368 H375 0.984 . S
N369 C362 1.356 . S
N369 H372 0.984 . S
N369 H373 0.985 . S
H370 N365 0.984 . S
H371 N365 0.985 . S
H372 N369 0.984 . S
H373 N369 0.985 . S
H374 N368 0.984 . S
H375 N368 0.984 . S
H376 N364 0.984 . S
H377 N364 0.985 . S
C378 C379 1.363 . S
C378 C384 1.379 . S
C378 N386 1.356 . S
C379 C378 1.363 . S
C379 C385 1.363 . S
C380 C381 1.363 . S
C380 C385 1.379 . S
C380 N387 1.356 . S
C381 C380 1.363 . S
C381 C384 1.363 . S
N382 C384 1.356 . S
N382 H394 0.984 . S
N382 H395 0.985 . S
N383 C385 1.356 . S
N383 H388 0.984 . S
N383 H389 0.985 . S
C384 C378 1.379 . S
C384 C381 1.363 . S
C384 N382 1.356 . S
C385 C379 1.363 . S
C385 C380 1.379 . S
C385 N383 1.356 . S
N386 C378 1.356 . S
N386 H392 0.984 . S
N386 H393 0.984 . S
N387 C380 1.356 . S
N387 H390 0.984 . S
N387 H391 0.985 . S
H388 N383 0.984 . S
H389 N383 0.985 . S
H390 N387 0.984 . S
H391 N387 0.985 . S
H392 N386 0.984 . S
H393 N386 0.984 . S
H394 N382 0.984 . S
H395 N382 0.985 . S
C396 C397 1.363 . S
C396 C402 1.379 . S
C396 N404 1.356 . S
C397 C396 1.363 . S
C397 C403 1.363 . S
C398 C399 1.363 . S
C398 C403 1.379 . S
C398 N405 1.356 . S
C399 C398 1.363 . S
C399 C402 1.363 . S
N400 C402 1.356 . S
N400 H412 0.984 . S
N400 H413 0.985 . S
N401 C403 1.356 . S
N401 H406 0.984 . S
N401 H407 0.985 . S
C402 C396 1.379 . S
C402 C399 1.363 . S
C402 N400 1.356 . S
C403 C397 1.363 . S
C403 C398 1.379 . S
C403 N401 1.356 . S
N404 C396 1.356 . S
N404 H410 0.984 . S
N404 H411 0.984 . S
N405 C398 1.356 . S
N405 H408 0.984 . S
N405 H409 0.985 . S
H406 N401 0.984 . S
H407 N401 0.985 . S
H408 N405 0.984 . S
H409 N405 0.985 . S
H410 N404 0.984 . S
H411 N404 0.984 . S
H412 N400 0.984 . S
H413 N400 0.985 . S
C414 C415 1.363 . S
C414 C420 1.379 . S
C414 N422 1.356 . S
C415 C414 1.363 . S
C415 C421 1.363 . S
C416 C417 1.363 . S
C416 C421 1.379 1_556 S
C416 N423 1.356 . S
C417 C416 1.363 . S
C417 C420 1.363 1_556 S
N418 C420 1.356 1_556 S
N418 H430 0.984 1_556 S
N418 H431 0.985 . S
N419 C421 1.356 . S
N419 H424 0.984 . S
N419 H425 0.981 1_455 S
C420 C414 1.379 . S
C420 C417 1.363 1_554 S
C420 N418 1.356 1_554 S
C421 C415 1.363 . S
C421 C416 1.379 1_554 S
C421 N419 1.356 . S
N422 C414 1.356 . S
N422 H428 0.984 . S
N422 H429 0.984 . S
N423 C416 1.356 . S
N423 H426 0.984 . S
N423 H427 0.985 . S
H424 N419 0.984 . S
H425 N419 0.981 1_655 S
H426 N423 0.984 . S
H427 N423 0.985 . S
H428 N422 0.984 . S
H429 N422 0.984 . S
H430 N418 0.984 1_554 S
H431 N418 0.985 . S
C432 C433 1.363 . S
C432 C438 1.379 . S
C432 N440 1.356 . S
C433 C432 1.363 . S
C433 C439 1.363 . S
C434 C435 1.363 . S
C434 C439 1.379 . S
C434 N441 1.356 1_545 S
C435 C434 1.363 . S
C435 C438 1.363 . S
N436 C438 1.356 . S
N436 H448 0.984 . S
N436 H449 0.985 . S
N437 C439 1.356 1_565 S
N437 H442 0.984 . S
N437 H443 0.985 . S
C438 C432 1.379 . S
C438 C435 1.363 . S
C438 N436 1.356 . S
C439 C433 1.363 . S
C439 C434 1.379 . S
C439 N437 1.356 1_545 S
N440 C432 1.356 . S
N440 H446 0.984 . S
N440 H447 0.984 . S
N441 C434 1.356 1_565 S
N441 H444 0.984 . S
N441 H445 0.985 . S
H442 N437 0.984 . S
H443 N437 0.985 . S
H444 N441 0.984 . S
H445 N441 0.985 . S
H446 N440 0.984 . S
H447 N440 0.984 . S
H448 N436 0.984 . S
H449 N436 0.985 . S
C450 C451 1.363 . S
C450 C456 1.379 . S
C450 N458 1.356 . S
C451 C450 1.363 . S
C451 C457 1.363 . S
C452 C453 1.363 . S
C452 C457 1.379 . S
C452 N459 1.356 . S
C453 C452 1.363 . S
C453 C456 1.363 . S
N454 C456 1.356 . S
N454 H466 0.984 . S
N454 H467 0.985 . S
N455 C457 1.356 . S
N455 H460 0.984 . S
N455 H461 0.985 . S
C456 C450 1.379 . S
C456 C453 1.363 . S
C456 N454 1.356 . S
C457 C451 1.363 . S
C457 C452 1.379 . S
C457 N455 1.356 . S
N458 C450 1.356 . S
N458 H464 0.984 . S
N458 H465 0.984 . S
N459 C452 1.356 . S
N459 H462 0.984 . S
N459 H463 0.985 . S
H460 N455 0.984 . S
H461 N455 0.985 . S
H462 N459 0.984 . S
H463 N459 0.985 . S
H464 N458 0.984 . S
H465 N458 0.984 . S
H466 N454 0.984 . S
H467 N454 0.985 . S
C468 C469 1.363 . S
C468 C474 1.379 . S
C468 N476 1.356 . S
C469 C468 1.363 . S
C469 C475 1.363 1_545 S
C470 C471 1.363 1_565 S
C470 C475 1.379 . S
C470 N477 1.356 . S
C471 C470 1.363 1_545 S
C471 C474 1.363 . S
N472 C474 1.356 . S
N472 H484 0.984 . S
N472 H485 0.985 . S
N473 C475 1.356 . S
N473 H478 0.984 . S
N473 H479 0.985 . S
C474 C468 1.379 . S
C474 C471 1.363 . S
C474 N472 1.356 . S
C475 C469 1.363 1_565 S
C475 C470 1.379 . S
C475 N473 1.356 . S
N476 C468 1.356 . S
N476 H482 0.984 . S
N476 H483 0.984 . S
N477 C470 1.356 . S
N477 H480 0.984 . S
N477 H481 0.985 . S
H478 N473 0.984 . S
H479 N473 0.985 . S
H480 N477 0.984 . S
H481 N477 0.985 . S
H482 N476 0.984 . S
H483 N476 0.984 . S
H484 N472 0.984 . S
H485 N472 0.985 . S
C486 C487 1.363 . S
C486 C492 1.379 . S
C486 N494 1.356 . S
C487 C486 1.363 . S
C487 C493 1.363 . S
C488 C489 1.372 . S
C488 C493 1.359 1_554 S
C488 N495 1.372 . S
C489 C488 1.372 . S
C489 C492 1.363 1_554 S
N490 C492 1.356 1_554 S
N490 H502 0.984 . S
N490 H503 0.985 . S
N491 C493 1.356 . S
N491 H496 0.984 . S
N491 H497 0.985 . S
C492 C486 1.379 . S
C492 C489 1.363 1_556 S
C492 N490 1.356 1_556 S
C493 C487 1.363 . S
C493 C488 1.359 1_556 S
C493 N491 1.356 . S
N494 C486 1.356 . S
N494 H500 0.984 . S
N494 H501 0.984 . S
N495 C488 1.372 . S
N495 H498 0.984 . S
N495 H499 0.985 . S
H496 N491 0.984 . S
H497 N491 0.985 . S
H498 N495 0.984 . S
H499 N495 0.985 . S
H500 N494 0.984 . S
H501 N494 0.984 . S
H502 N490 0.984 . S
H503 N490 0.985 . S
C504 C505 1.363 . S
C504 C510 1.379 . S
C504 N512 1.356 1_455 S
C505 C504 1.363 . S
C505 C511 1.363 . S
C506 C507 1.363 . S
C506 C511 1.379 . S
C506 N513 1.356 . S
C507 C506 1.363 . S
C507 C510 1.363 . S
N508 C510 1.356 1_655 S
N508 H520 0.984 . S
N508 H521 0.985 1_655 S
N509 C511 1.356 . S
N509 H514 0.984 . S
N509 H515 0.985 . S
C510 C504 1.379 . S
C510 C507 1.363 . S
C510 N508 1.356 1_455 S
C511 C505 1.363 . S
C511 C506 1.379 . S
C511 N509 1.356 . S
N512 C504 1.356 1_655 S
N512 H518 0.984 . S
N512 H519 0.984 . S
N513 C506 1.356 . S
N513 H516 0.984 . S
N513 H517 0.985 . S
H514 N509 0.984 . S
H515 N509 0.985 . S
H516 N513 0.984 . S
H517 N513 0.985 . S
H518 N512 0.984 . S
H519 N512 0.984 . S
H520 N508 0.984 . S
H521 N508 0.985 1_455 S
C199 C19 3.077 . S
C201 C189 2.883 . S
C217 C49 3.050 . S
C219 C167 3.011 1_655 S
C235 C99 2.999 . S
C237 C180 2.969 . S
C253 C9 3.058 . S
C255 C193 3.021 . S
C273 C163 2.902 . S
C271 C59 3.087 . S
C291 C176 2.948 . S
C289 C89 3.158 . S
C307 C55 0.499 . S
C309 C141 0.416 . S
C325 C85 0.727 . S
C327 C154 0.706 . S
C343 C15 0.732 . S
C345 C124 0.725 . S
C363 C137 0.745 . S
C361 C45 0.747 . S
C381 C150 0.852 . S
C379 C95 0.821 . S
C397 C5 0.706 . S
C399 C128 0.661 . S
C417 C155 1.149 . S
C415 C18 1.150 . S
C433 C58 1.197 . S
C435 C129 1.184 . S
C451 C98 1.058 . S
C453 C142 1.097 . S
C471 C181 1.847 . S
C469 C48 1.712 . S
C489 C194 1.769 . S
C487 C88 1.718 . S
C505 C8 1.717 . S
C507 C168 1.799 . S
