# Generated by pormake.
# Topology pyr, (3,6)-cn, num edge types: 1
# Building blocks:
#     Node 0, Type 0, BuildingBlock: BELTOD_clean_linker_0, # of connection points: 3
#     Node 1, Type 0, BuildingBlock: BELTOD_clean_linker_0, # of connection points: 3
#     Node 2, Type 0, BuildingBlock: BELTOD_clean_linker_0, # of connection points: 3
#     Node 3, Type 0, BuildingBlock: BELTOD_clean_linker_0, # of connection points: 3
#     Node 4, Type 0, BuildingBlock: BELTOD_clean_linker_0, # of connection points: 3
#     Node 5, Type 0, BuildingBlock: BELTOD_clean_linker_0, # of connection points: 3
#     Node 6, Type 0, BuildingBlock: BELTOD_clean_linker_0, # of connection points: 3
#     Node 7, Type 0, BuildingBlock: BELTOD_clean_linker_0, # of connection points: 3
#     Node 8, Type 1, BuildingBlock: MIDCAF_clean_sbu_0, # of connection points: 6
#     Node 9, Type 1, BuildingBlock: MIDCAF_clean_sbu_0, # of connection points: 6
#     Node 10, Type 1, BuildingBlock: MIDCAF_clean_sbu_0, # of connection points: 6
#     Node 11, Type 1, BuildingBlock: MIDCAF_clean_sbu_0, # of connection points: 6
#     Edge 12, Type (0, 1), BuildingBlock: XIVTED_clean_linker_0, # of connection points: 2
#     Edge 13, Type (0, 1), BuildingBlock: XIVTED_clean_linker_0, # of connection points: 2
#     Edge 14, Type (0, 1), BuildingBlock: XIVTED_clean_linker_0, # of connection points: 2
#     Edge 15, Type (0, 1), BuildingBlock: XIVTED_clean_linker_0, # of connection points: 2
#     Edge 16, Type (0, 1), BuildingBlock: XIVTED_clean_linker_0, # of connection points: 2
#     Edge 17, Type (0, 1), BuildingBlock: XIVTED_clean_linker_0, # of connection points: 2
#     Edge 18, Type (0, 1), BuildingBlock: XIVTED_clean_linker_0, # of connection points: 2
#     Edge 19, Type (0, 1), BuildingBlock: XIVTED_clean_linker_0, # of connection points: 2
#     Edge 20, Type (0, 1), BuildingBlock: XIVTED_clean_linker_0, # of connection points: 2
#     Edge 21, Type (0, 1), BuildingBlock: XIVTED_clean_linker_0, # of connection points: 2
#     Edge 22, Type (0, 1), BuildingBlock: XIVTED_clean_linker_0, # of connection points: 2
#     Edge 23, Type (0, 1), BuildingBlock: XIVTED_clean_linker_0, # of connection points: 2
#     Edge 24, Type (0, 1), BuildingBlock: XIVTED_clean_linker_0, # of connection points: 2
#     Edge 25, Type (0, 1), BuildingBlock: XIVTED_clean_linker_0, # of connection points: 2
#     Edge 26, Type (0, 1), BuildingBlock: XIVTED_clean_linker_0, # of connection points: 2
#     Edge 27, Type (0, 1), BuildingBlock: XIVTED_clean_linker_0, # of connection points: 2
#     Edge 28, Type (0, 1), BuildingBlock: XIVTED_clean_linker_0, # of connection points: 2
#     Edge 29, Type (0, 1), BuildingBlock: XIVTED_clean_linker_0, # of connection points: 2
#     Edge 30, Type (0, 1), BuildingBlock: XIVTED_clean_linker_0, # of connection points: 2
#     Edge 31, Type (0, 1), BuildingBlock: XIVTED_clean_linker_0, # of connection points: 2
#     Edge 32, Type (0, 1), BuildingBlock: XIVTED_clean_linker_0, # of connection points: 2
#     Edge 33, Type (0, 1), BuildingBlock: XIVTED_clean_linker_0, # of connection points: 2
#     Edge 34, Type (0, 1), BuildingBlock: XIVTED_clean_linker_0, # of connection points: 2
#     Edge 35, Type (0, 1), BuildingBlock: XIVTED_clean_linker_0, # of connection points: 2
# Relax obj value: 0.020
# Max RMSD: 0.062
# Mean RMSD: 0.033
data_MOF--net-pry--node1-MIDCAF_clean_sbu_0--node2-BELTOD_clean_linker_0--edge1-XIVTED_clean_linker_0
_symmetry_space_group_name_H-M    P1
_symmetry_Int_Tables_number       1
_symmetry_cell_setting            triclinic
loop_
_symmetry_equiv_pos_as_xyz
'x, y, z'
_cell_length_a     40.575194
_cell_length_b     40.898213
_cell_length_c     40.227392
_cell_angle_alpha  89.690366
_cell_angle_beta   90.110072
_cell_angle_gamma 90.346366
loop_
_atom_site_label
_atom_site_type_symbol
_atom_site_fract_x
_atom_site_fract_y
_atom_site_fract_z
_atom_type_partial_charge
P0 P 0.26327 0.27475 0.27572 0.0
H1 H 0.29229 0.28642 0.2101 0.0
H2 H 0.32671 0.25344 0.17414 0.0
H3 H 0.3253 0.17558 0.24736 0.0
H4 H 0.2892 0.20815 0.28228 0.0
H5 H 0.24633 0.34295 0.28777 0.0
H6 H 0.21449 0.38307 0.25627 0.0
H7 H 0.19293 0.31006 0.18196 0.0
H8 H 0.22513 0.27004 0.21361 0.0
H9 H 0.27369 0.24941 0.34281 0.0
H10 H 0.19753 0.24469 0.26806 0.0
O11 O 0.29006 0.29575 0.29893 0.0
H12 H 0.24087 0.21427 0.37933 0.0
H13 H 0.16456 0.2092 0.30444 0.0
C14 C 0.28712 0.24936 0.24837 0.0
C15 C 0.29872 0.26195 0.21809 0.0
C16 C 0.31898 0.24318 0.19774 0.0
C17 C 0.32896 0.21168 0.2077 0.0
C18 C 0.31765 0.19938 0.23843 0.0
C19 C 0.29699 0.21806 0.25855 0.0
C20 C 0.23859 0.30369 0.25273 0.0
C21 C 0.23484 0.33557 0.26466 0.0
C22 C 0.2165 0.35848 0.24667 0.0
C23 C 0.2014 0.34987 0.21643 0.0
C24 C 0.20478 0.31766 0.20482 0.0
C25 C 0.223 0.29471 0.22297 0.0
C26 C 0.23783 0.25015 0.30293 0.0
C27 C 0.24974 0.24106 0.33435 0.0
C28 C 0.23104 0.22073 0.35514 0.0
C29 C 0.20004 0.20895 0.34485 0.0
C30 C 0.18811 0.21824 0.31332 0.0
C31 C 0.20698 0.23847 0.29244 0.0
P32 P 0.31299 0.81632 0.71579 0.0
H33 H 0.37756 0.8359 0.7402 0.0
H34 H 0.39765 0.85243 0.79467 0.0
H35 H 0.30153 0.83241 0.83661 0.0
H36 H 0.28144 0.81626 0.78152 0.0
H37 H 0.28187 0.77391 0.66632 0.0
H38 H 0.2953 0.71921 0.64679 0.0
H39 H 0.37072 0.71205 0.72263 0.0
H40 H 0.35582 0.76556 0.74297 0.0
H41 H 0.28786 0.88047 0.69938 0.0
H42 H 0.24731 0.78547 0.72287 0.0
O43 O 0.33656 0.83639 0.68842 0.0
H44 H 0.23286 0.90087 0.68741 0.0
H45 H 0.1917 0.80581 0.71101 0.0
C46 C 0.32784 0.82571 0.75675 0.0
C47 C 0.36083 0.83495 0.76112 0.0
C48 C 0.37239 0.844 0.79243 0.0
C49 C 0.35116 0.84383 0.82002 0.0
C50 C 0.31838 0.83318 0.81576 0.0
C51 C 0.30686 0.82398 0.78434 0.0
C52 C 0.31728 0.77358 0.7066 0.0
C53 C 0.30037 0.75997 0.67954 0.0
C54 C 0.30844 0.72881 0.66809 0.0
C55 C 0.33429 0.71109 0.68291 0.0
C56 C 0.35024 0.72445 0.71089 0.0
C57 C 0.34182 0.75535 0.72255 0.0
C58 C 0.27167 0.83122 0.71082 0.0
C59 C 0.26699 0.86405 0.7022 0.0
C60 C 0.23542 0.8758 0.69575 0.0
C61 C 0.20786 0.8549 0.69803 0.0
C62 C 0.2125 0.82236 0.70856 0.0
C63 C 0.24422 0.81069 0.71523 0.0
P64 P 0.76983 0.27171 0.77265 0.0
H65 H 0.79861 0.26118 0.83852 0.0
H66 H 0.83327 0.29475 0.87417 0.0
H67 H 0.83354 0.37119 0.79939 0.0
H68 H 0.79714 0.33805 0.76476 0.0
H69 H 0.74894 0.20409 0.76206 0.0
H70 H 0.71454 0.16626 0.79423 0.0
H71 H 0.69778 0.24173 0.86691 0.0
H72 H 0.73236 0.27943 0.83459 0.0
H73 H 0.78218 0.29617 0.70552 0.0
H74 H 0.70415 0.3014 0.77787 0.0
O75 O 0.79599 0.24925 0.75056 0.0
H76 H 0.75011 0.32998 0.6672 0.0
H77 H 0.67195 0.33539 0.73972 0.0
C78 C 0.79426 0.2975 0.79946 0.0
C79 C 0.8055 0.28545 0.83009 0.0
C80 C 0.8259 0.30457 0.85026 0.0
C81 C 0.8364 0.33586 0.8398 0.0
C82 C 0.82549 0.34758 0.8087 0.0
C83 C 0.80467 0.32855 0.78874 0.0
C84 C 0.74379 0.24432 0.79631 0.0
C85 C 0.73799 0.21246 0.78499 0.0
C86 C 0.71817 0.1909 0.80332 0.0
C87 C 0.70367 0.20089 0.83331 0.0
C88 C 0.70912 0.23309 0.84428 0.0
C89 C 0.72877 0.25469 0.82577 0.0
C90 C 0.74533 0.29577 0.74431 0.0
C91 C 0.75802 0.30438 0.71307 0.0
C92 C 0.73974 0.3239 0.69126 0.0
C93 C 0.70839 0.33526 0.70034 0.0
C94 C 0.69577 0.32659 0.73176 0.0
C95 C 0.71421 0.30722 0.75365 0.0
P96 P 0.74848 0.78558 0.25781 0.0
H97 H 0.77832 0.84939 0.24554 0.0
H98 H 0.81289 0.88532 0.27942 0.0
H99 H 0.80493 0.81715 0.36154 0.0
H100 H 0.7699 0.78168 0.32763 0.0
H101 H 0.74142 0.75161 0.19456 0.0
H102 H 0.77846 0.71651 0.1629 0.0
H103 H 0.85449 0.73152 0.23677 0.0
H104 H 0.81718 0.76579 0.26851 0.0
H105 H 0.68355 0.79543 0.2867 0.0
H106 H 0.75548 0.71836 0.28321 0.0
O107 O 0.7252 0.80757 0.23187 0.0
H108 H 0.64753 0.76072 0.3207 0.0
H109 H 0.71988 0.68368 0.31754 0.0
C110 C 0.77107 0.81321 0.28424 0.0
C111 C 0.78358 0.84248 0.27102 0.0
C112 C 0.80357 0.86285 0.29035 0.0
C113 C 0.8117 0.85414 0.32323 0.0
C114 C 0.79872 0.82488 0.33652 0.0
C115 C 0.77872 0.80451 0.31712 0.0
C116 C 0.7767 0.76171 0.23358 0.0
C117 C 0.7662 0.74758 0.2037 0.0
C118 C 0.78745 0.72765 0.18556 0.0
C119 C 0.8195 0.72127 0.19723 0.0
C120 C 0.82989 0.73567 0.2272 0.0
C121 C 0.80863 0.75555 0.24527 0.0
C122 C 0.72188 0.75929 0.28196 0.0
C123 C 0.69148 0.77095 0.29309 0.0
C124 C 0.67102 0.75115 0.3127 0.0
C125 C 0.68075 0.71933 0.32172 0.0
C126 C 0.71136 0.7078 0.31053 0.0
C127 C 0.73182 0.72768 0.29098 0.0
P128 P 0.92466 0.9411 0.94106 0.0
H129 H 0.88598 0.9568 0.99914 0.0
H130 H 0.83089 0.97906 0.0067 0.0
H131 H 0.8174 0.98186 0.90008 0.0
H132 H 0.87233 0.9586 0.89284 0.0
H133 H 0.97975 0.90415 0.96759 0.0
H134 H 0.98504 0.84847 0.98892 0.0
H135 H 0.88137 0.83157 0.97026 0.0
H136 H 0.87655 0.88725 0.94816 0.0
H137 H 0.94131 0.99703 0.8999 0.0
H138 H 0.93919 0.8922 0.8892 0.0
O139 O 0.94918 0.96468 0.96425 0.0
H140 H 0.96196 0.00281 0.84329 0.0
H141 H 0.96082 0.89767 0.83265 0.0
C142 C 0.8834 0.95645 0.9455 0.0
C143 C 0.87114 0.96221 0.97741 0.0
C144 C 0.83971 0.97521 0.98164 0.0
C145 C 0.81983 0.98279 0.95396 0.0
C146 C 0.83199 0.97629 0.92193 0.0
C147 C 0.86351 0.96314 0.91774 0.0
C148 C 0.92768 0.89997 0.95687 0.0
C149 C 0.95813 0.88851 0.96829 0.0
C150 C 0.96104 0.85671 0.9807 0.0
C151 C 0.93352 0.83561 0.98176 0.0
C152 C 0.90307 0.84711 0.96976 0.0
C153 C 0.90022 0.87901 0.9573 0.0
C154 C 0.93908 0.94425 0.89885 0.0
C155 C 0.94554 0.97523 0.88537 0.0
C156 C 0.95762 0.97845 0.85306 0.0
C157 C 0.96358 0.95066 0.83351 0.0
C158 C 0.95646 0.91956 0.84696 0.0
C159 C 0.94424 0.9164 0.87938 0.0
P160 P 0.6703 0.18317 0.34799 0.0
H161 H 0.68167 0.25297 0.35842 0.0
H162 H 0.6671 0.28972 0.40328 0.0
H163 H 0.62663 0.20814 0.45895 0.0
H164 H 0.64019 0.17168 0.4131 0.0
H165 H 0.74114 0.17357 0.34247 0.0
H166 H 0.77796 0.13118 0.36288 0.0
H167 H 0.69468 0.07894 0.40469 0.0
H168 H 0.65805 0.12212 0.38485 0.0
H169 H 0.60569 0.2128 0.33711 0.0
H170 H 0.65276 0.12052 0.31782 0.0
O171 O 0.6894 0.20433 0.31804 0.0
H172 H 0.5565 0.19403 0.3068 0.0
H173 H 0.60378 0.10149 0.28889 0.0
C174 C 0.662 0.20961 0.38244 0.0
C175 C 0.66994 0.2429 0.38037 0.0
C176 C 0.66189 0.26388 0.40632 0.0
C177 C 0.64582 0.25191 0.43492 0.0
C178 C 0.63875 0.21824 0.43722 0.0
C179 C 0.64665 0.19731 0.41109 0.0
C180 C 0.69686 0.15078 0.3618 0.0
C181 C 0.73074 0.15284 0.35572 0.0
C182 C 0.75175 0.12837 0.36717 0.0
C183 C 0.73924 0.10139 0.38509 0.0
C184 C 0.70514 0.09941 0.39107 0.0
C185 C 0.68417 0.12405 0.37971 0.0
C186 C 0.6325 0.16768 0.33065 0.0
C187 C 0.60508 0.1882 0.3273 0.0
C188 C 0.57707 0.17754 0.31 0.0
C189 C 0.57613 0.14611 0.29612 0.0
C190 C 0.60343 0.12548 0.30018 0.0
C191 C 0.63152 0.13636 0.3168 0.0
P192 P 0.42894 0.61041 0.10211 0.0
H193 H 0.38002 0.61466 0.04985 0.0
H194 H 0.32406 0.59337 0.04392 0.0
H195 H 0.3295 0.5517 0.14264 0.0
H196 H 0.3858 0.57288 0.14837 0.0
H197 H 0.48537 0.64704 0.07791 0.0
H198 H 0.49273 0.70299 0.0582 0.0
H199 H 0.38915 0.72126 0.0749 0.0
H200 H 0.38262 0.66569 0.09648 0.0
H201 H 0.4925 0.58617 0.12496 0.0
H202 H 0.40668 0.6302 0.16852 0.0
O203 O 0.45023 0.5868 0.07625 0.0
H204 H 0.51734 0.58041 0.17974 0.0
H205 H 0.43067 0.62304 0.224 0.0
C206 C 0.38676 0.59638 0.09993 0.0
C207 C 0.36907 0.60132 0.07043 0.0
C208 C 0.33719 0.58885 0.06694 0.0
C209 C 0.32238 0.57085 0.09284 0.0
C210 C 0.34014 0.56584 0.12246 0.0
C211 C 0.37229 0.57814 0.1258 0.0
C212 C 0.43333 0.65198 0.08784 0.0
C213 C 0.46425 0.66312 0.07723 0.0
C214 C 0.4683 0.69511 0.06564 0.0
C215 C 0.44139 0.71668 0.06424 0.0
C216 C 0.41047 0.7055 0.07561 0.0
C217 C 0.40659 0.67353 0.08766 0.0
C218 C 0.44719 0.60742 0.14284 0.0
C219 C 0.47879 0.59428 0.14642 0.0
C220 C 0.49299 0.59095 0.17787 0.0
C221 C 0.47578 0.60059 0.2065 0.0
C222 C 0.44472 0.61537 0.20259 0.0
C223 C 0.43073 0.61909 0.17094 0.0
P224 P 0.17699 0.35434 0.69126 0.0
H225 H 0.19382 0.28869 0.66915 0.0
H226 H 0.17051 0.2525 0.62757 0.0
H227 H 0.10303 0.32865 0.59733 0.0
H228 H 0.12508 0.36387 0.64063 0.0
H229 H 0.2427 0.37718 0.70997 0.0
H230 H 0.28055 0.41668 0.68552 0.0
H231 H 0.20629 0.4432 0.61309 0.0
H232 H 0.16927 0.40218 0.6366 0.0
H233 H 0.1529 0.33817 0.75767 0.0
H234 H 0.12872 0.40698 0.67989 0.0
O235 O 0.20003 0.33075 0.71598 0.0
H236 H 0.11178 0.36243 0.79342 0.0
H237 H 0.08576 0.43002 0.71463 0.0
C238 C 0.16094 0.32891 0.65846 0.0
C239 C 0.17397 0.29765 0.65365 0.0
C240 C 0.16084 0.27703 0.62938 0.0
C241 C 0.13471 0.28745 0.60891 0.0
C242 C 0.12267 0.31942 0.61296 0.0
C243 C 0.13548 0.33981 0.63767 0.0
C244 C 0.20327 0.3862 0.67481 0.0
C245 C 0.23447 0.39148 0.68885 0.0
C246 C 0.25605 0.41452 0.67503 0.0
C247 C 0.24667 0.43319 0.64712 0.0
C248 C 0.21469 0.42887 0.63414 0.0
C249 C 0.19329 0.40547 0.64774 0.0
C250 C 0.14431 0.37098 0.71618 0.0
C251 C 0.13841 0.35823 0.74803 0.0
C252 C 0.11439 0.37192 0.76839 0.0
C253 C 0.09525 0.39837 0.75712 0.0
C254 C 0.10035 0.41014 0.72453 0.0
C255 C 0.12483 0.39675 0.7044 0.0
Zn256 Zn 0.96702 0.05731 0.55469 0.0
Zn257 Zn 0.04575 0.97943 0.48382 0.0
Zn258 Zn 0.00637 0.01921 0.52026 0.0
C259 C 0.06805 0.04424 0.4748 0.0
C260 C 0.98118 0.97183 0.46015 0.0
O261 O 0.00822 0.00363 0.57341 0.0
O262 O 0.97739 0.03995 0.59934 0.0
C263 C 0.01456 0.09784 0.52612 0.0
O264 O 0.04346 0.05002 0.49412 0.0
O265 O 0.07535 0.01519 0.46736 0.0
O266 O 0.01024 0.96278 0.45401 0.0
O267 O 0.97557 0.99243 0.48361 0.0
O268 O 0.98775 0.09941 0.54187 0.0
O269 O 0.02546 0.06997 0.51625 0.0
O270 O 0.95571 0.01558 0.49996 0.0
O271 O 0.92481 0.0448 0.53383 0.0
C272 C 0.92738 0.02676 0.50865 0.0
O273 O 0.02987 0.98434 0.55476 0.0
O274 O 0.05942 0.95199 0.52254 0.0
C275 C 0.99575 0.01518 0.60033 0.0
C276 C 0.04943 0.95993 0.5511 0.0
Zn277 Zn 0.47371 0.06002 0.98145 0.0
Zn278 Zn 0.54802 0.99137 0.06679 0.0
Zn279 Zn 0.51205 0.02473 0.02369 0.0
C280 C 0.59185 0.02255 0.02361 0.0
C281 C 0.50943 0.94588 0.0338 0.0
O282 O 0.48269 0.06077 0.05196 0.0
O283 O 0.45599 0.09102 0.01496 0.0
C284 C 0.54003 0.06738 0.96155 0.0
O285 O 0.56459 0.03044 0.00921 0.0
O286 O 0.59153 0.00727 0.05096 0.0
O287 O 0.53369 0.94702 0.05342 0.0
O288 O 0.49752 0.97234 0.02119 0.0
O289 O 0.51103 0.07415 0.95244 0.0
O290 O 0.54505 0.04977 0.98774 0.0
O291 O 0.47882 0.99036 0.99806 0.0
O292 O 0.44598 0.02191 0.96789 0.0
C293 C 0.45441 0.99381 0.97785 0.0
O294 O 0.50369 0.04414 0.07414 0.0
O295 O 0.52952 0.01002 0.10804 0.0
C296 C 0.46295 0.08441 0.04485 0.0
C297 C 0.51157 0.03477 0.10373 0.0
Zn298 Zn 0.55514 0.55968 0.55596 0.0
Zn299 Zn 0.48409 0.47871 0.4797 0.0
Zn300 Zn 0.51956 0.51889 0.51607 0.0
C301 C 0.53114 0.44082 0.51145 0.0
C302 C 0.51315 0.52321 0.43595 0.0
O303 O 0.48568 0.54279 0.55083 0.0
O304 O 0.5171 0.57257 0.5843 0.0
C305 C 0.5806 0.49676 0.56433 0.0
O306 O 0.54052 0.46934 0.52127 0.0
O307 O 0.50534 0.43763 0.49417 0.0
O308 O 0.49657 0.49701 0.43597 0.0
O309 O 0.5234 0.53563 0.46351 0.0
O310 O 0.58629 0.52594 0.57284 0.0
O311 O 0.55703 0.49013 0.54382 0.0
O312 O 0.54309 0.55608 0.4836 0.0
O313 O 0.56885 0.58915 0.5187 0.0
C314 C 0.56103 0.58158 0.48929 0.0
O315 O 0.46738 0.51902 0.53329 0.0
O316 O 0.43993 0.48853 0.49727 0.0
C317 C 0.48893 0.56244 0.57557 0.0
C318 C 0.44012 0.50634 0.52277 0.0
Zn319 Zn 0.04531 0.56804 0.98655 0.0
Zn320 Zn 0.97686 0.4907 0.06846 0.0
Zn321 Zn 0.01174 0.52989 0.02708 0.0
C322 C 0.04295 0.48496 0.08671 0.0
C323 C 0.96465 0.46987 0.00316 0.0
O324 O 0.99295 0.58102 0.03087 0.0
O325 O 0.02614 0.61046 0.99866 0.0
C326 C 0.09098 0.53867 0.02899 0.0
O327 O 0.0464 0.50571 0.06265 0.0
O328 O 0.01474 0.47425 0.09444 0.0
O329 O 0.95718 0.46283 0.03284 0.0
O330 O 0.98473 0.49362 0.99678 0.0
O331 O 0.08958 0.55675 0.00352 0.0
O332 O 0.06441 0.5269 0.04202 0.0
O333 O 0.00675 0.51076 0.97566 0.0
O334 O 0.03165 0.54784 0.94418 0.0
C335 C 0.01591 0.52125 0.94679 0.0
O336 O 0.97588 0.56093 0.05373 0.0
O337 O 0.9511 0.52663 0.08861 0.0
C338 C 0.00209 0.60875 0.01839 0.0
C339 C 0.95509 0.55524 0.07731 0.0
H340 H 0.22301 0.1572 0.38136 0.0
H341 H 0.04653 0.10452 0.45411 0.0
H342 H 0.13339 0.20867 0.35767 0.0
H343 H 0.13345 0.04466 0.46015 0.0
H344 H 0.07881 0.14672 0.42487 0.0
H345 H 0.19137 0.11944 0.41616 0.0
C346 C 0.19668 0.16075 0.3837 0.0
C347 C 0.18086 0.18619 0.36652 0.0
C348 C 0.09085 0.12445 0.43282 0.0
C349 C 0.14431 0.14271 0.40626 0.0
C350 C 0.07253 0.10053 0.44976 0.0
C351 C 0.08747 0.07124 0.45983 0.0
C352 C 0.12431 0.11894 0.42588 0.0
C353 C 0.12101 0.06693 0.45286 0.0
C354 C 0.17858 0.13903 0.40344 0.0
C355 C 0.14656 0.18921 0.37016 0.0
N356 N 0.13827 0.09047 0.43635 0.0
N357 N 0.12943 0.16774 0.38963 0.0
H358 H 0.31761 0.8842 0.86194 0.0
H359 H 0.48019 0.93459 0.96093 0.0
H360 H 0.41102 0.83551 0.85096 0.0
H361 H 0.38934 0.98864 0.96265 0.0
H362 H 0.45204 0.89058 0.93088 0.0
H363 H 0.34007 0.91442 0.90896 0.0
C364 C 0.34263 0.87929 0.86986 0.0
C365 C 0.36263 0.85766 0.8521 0.0
C366 C 0.4381 0.91179 0.93835 0.0
C367 C 0.38877 0.8928 0.90554 0.0
C368 C 0.45409 0.93673 0.9558 0.0
C369 C 0.43696 0.96511 0.96435 0.0
C370 C 0.40489 0.91556 0.92916 0.0
C371 C 0.40343 0.96717 0.95629 0.0
C372 C 0.35555 0.89679 0.89659 0.0
C373 C 0.39498 0.85254 0.86344 0.0
N374 N 0.38855 0.94286 0.93889 0.0
N375 N 0.4072 0.87033 0.88915 0.0
H376 H 0.64223 0.33299 0.68564 0.0
H377 H 0.64603 0.49818 0.57873 0.0
H378 H 0.73129 0.3868 0.6631 0.0
H379 H 0.55984 0.43647 0.58598 0.0
H380 H 0.67769 0.45705 0.60913 0.0
H381 H 0.61141 0.37013 0.64925 0.0
C382 C 0.65529 0.35262 0.67305 0.0
C383 C 0.6894 0.35683 0.67751 0.0
C384 C 0.65196 0.45224 0.60378 0.0
C385 C 0.65431 0.39935 0.63576 0.0
C386 C 0.63391 0.47572 0.58643 0.0
C387 C 0.60043 0.47049 0.57957 0.0
C388 C 0.63627 0.42351 0.61495 0.0
C389 C 0.58578 0.44113 0.5903 0.0
C390 C 0.63773 0.37367 0.65211 0.0
C391 C 0.70511 0.38242 0.6602 0.0
N392 N 0.60375 0.4188 0.60769 0.0
N393 N 0.68743 0.40279 0.64032 0.0
H394 H 0.85996 0.67454 0.22353 0.0
H395 H 0.92224 0.6064 0.04821 0.0
H396 H 0.82901 0.71587 0.12965 0.0
H397 H 0.94608 0.56369 0.14319 0.0
H398 H 0.89142 0.64963 0.07675 0.0
H399 H 0.89499 0.6365 0.19388 0.0
C400 C 0.86077 0.67586 0.19665 0.0
C401 C 0.84151 0.69854 0.17911 0.0
C402 C 0.90366 0.63096 0.09134 0.0
C403 C 0.88138 0.65445 0.14476 0.0
C404 C 0.92161 0.6067 0.07505 0.0
C405 C 0.93723 0.58209 0.09343 0.0
C406 C 0.90128 0.63027 0.12623 0.0
C407 C 0.93439 0.58236 0.12813 0.0
C408 C 0.88065 0.65392 0.17967 0.0
C409 C 0.84316 0.69857 0.14419 0.0
N410 N 0.91682 0.60604 0.14337 0.0
N411 N 0.86272 0.67683 0.12814 0.0
H412 H 0.32927 0.14488 0.19837 0.0
H413 H 0.45446 0.1502 0.04716 0.0
H414 H 0.37985 0.23333 0.16791 0.0
H415 H 0.43452 0.06145 0.10195 0.0
H416 H 0.42436 0.18114 0.08919 0.0
H417 H 0.36505 0.11362 0.16168 0.0
C418 C 0.34802 0.15779 0.18429 0.0
C419 C 0.35121 0.19199 0.18622 0.0
C420 C 0.42686 0.15495 0.09225 0.0
C421 C 0.39182 0.15622 0.14354 0.0
C422 C 0.44394 0.13734 0.06827 0.0
C423 C 0.44715 0.10338 0.0714 0.0
C424 C 0.41218 0.13835 0.11911 0.0
C425 C 0.4329 0.08772 0.09899 0.0
C426 C 0.36837 0.13986 0.16323 0.0
C427 C 0.37575 0.2072 0.16678 0.0
N428 N 0.41574 0.10531 0.1217 0.0
N429 N 0.39485 0.18927 0.14611 0.0
H430 H 0.16326 0.82179 0.65957 0.0
H431 H 0.06711 0.98456 0.61166 0.0
H432 H 0.1785 0.9144 0.70836 0.0
H433 H 0.06277 0.89505 0.5557 0.0
H434 H 0.09701 0.95581 0.65586 0.0
H435 H 0.11565 0.84461 0.63078 0.0
C436 C 0.15614 0.8467 0.66488 0.0
C437 C 0.17528 0.86639 0.68598 0.0
C438 C 0.08895 0.9423 0.63421 0.0
C439 C 0.12117 0.89293 0.65246 0.0
C440 C 0.07159 0.95862 0.60917 0.0
C441 C 0.0624 0.94206 0.58015 0.0
C442 C 0.0974 0.9093 0.62992 0.0
C443 C 0.06963 0.9087 0.57767 0.0
C444 C 0.12908 0.85982 0.64818 0.0
C445 C 0.16491 0.89859 0.69167 0.0
N446 N 0.08697 0.89349 0.60207 0.0
N447 N 0.13885 0.91102 0.67461 0.0
H448 H 0.8865 0.31483 0.88074 0.0
H449 H 0.94143 0.49199 0.94321 0.0
H450 H 0.83775 0.4029 0.8477 0.0
H451 H 0.95308 0.40441 0.00208 0.0
H452 H 0.91284 0.45962 0.90044 0.0
H453 H 0.92032 0.3476 0.91822 0.0
C454 C 0.8827 0.341 0.88137 0.0
C455 C 0.85868 0.35592 0.86123 0.0
C456 C 0.92188 0.44754 0.92265 0.0
C457 C 0.89827 0.39371 0.90359 0.0
C458 C 0.93832 0.4659 0.94687 0.0
C459 C 0.94963 0.45073 0.97605 0.0
C460 C 0.91712 0.41382 0.92762 0.0
C461 C 0.94463 0.41698 0.97991 0.0
C462 C 0.90226 0.3597 0.90265 0.0
C463 C 0.85597 0.39019 0.86249 0.0
N464 N 0.92884 0.39962 0.95594 0.0
N465 N 0.87546 0.40791 0.88336 0.0
H466 H 0.66747 0.65343 0.31723 0.0
H467 H 0.56872 0.64747 0.48904 0.0
H468 H 0.64599 0.73826 0.37657 0.0
H469 H 0.58301 0.56251 0.42792 0.0
H470 H 0.59452 0.68133 0.44617 0.0
H471 H 0.63469 0.61984 0.35561 0.0
C472 C 0.65586 0.665 0.3383 0.0
C473 C 0.65962 0.69874 0.34373 0.0
C474 C 0.59173 0.65536 0.44183 0.0
C475 C 0.62194 0.66046 0.38763 0.0
C476 C 0.577 0.63603 0.46633 0.0
C477 C 0.57349 0.60224 0.46181 0.0
C478 C 0.60359 0.64075 0.41272 0.0
C479 C 0.58473 0.58859 0.43203 0.0
C480 C 0.63698 0.64584 0.36008 0.0
C481 C 0.64356 0.71246 0.37115 0.0
N482 N 0.59953 0.60787 0.40866 0.0
N483 N 0.62565 0.69327 0.39212 0.0
H484 H 0.1574 0.394 0.241 0.0
H485 H 0.10291 0.46468 0.06301 0.0
H486 H 0.20007 0.3612 0.14893 0.0
H487 H 0.0468 0.47545 0.15311 0.0
H488 H 0.14565 0.4356 0.0949 0.0
H489 H 0.12343 0.43247 0.20977 0.0
C490 C 0.15988 0.39511 0.21422 0.0
C491 C 0.18151 0.37418 0.19757 0.0
C492 C 0.12417 0.44476 0.1077 0.0
C493 C 0.1424 0.41814 0.16152 0.0
C494 C 0.10004 0.46164 0.08961 0.0
C495 C 0.07147 0.47251 0.10558 0.0
C496 C 0.11957 0.43897 0.1419 0.0
C497 C 0.06848 0.46735 0.13991 0.0
C498 C 0.14034 0.41699 0.19636 0.0
C499 C 0.18335 0.37653 0.16273 0.0
N500 N 0.09212 0.45088 0.15688 0.0
N501 N 0.16398 0.39805 0.14583 0.0
H502 H 0.70239 0.19095 0.90091 0.0
H503 H 0.54342 0.07549 0.89469 0.0
H504 H 0.6565 0.15872 0.80985 0.0
H505 H 0.59869 0.09211 0.98469 0.0
H506 H 0.5858 0.10474 0.86321 0.0
H507 H 0.66563 0.15443 0.93225 0.0
C508 C 0.68459 0.1762 0.88751 0.0
C509 C 0.68242 0.17802 0.85269 0.0
C510 C 0.58899 0.10167 0.88977 0.0
C511 C 0.6404 0.1361 0.88838 0.0
C512 C 0.5648 0.08496 0.90773 0.0
C513 C 0.56775 0.08121 0.94225 0.0
C514 C 0.61612 0.11535 0.90652 0.0
C515 C 0.59581 0.09404 0.958 0.0
C516 C 0.66379 0.15519 0.9054 0.0
C517 C 0.65923 0.15797 0.83662 0.0
N518 N 0.61881 0.11087 0.94005 0.0
N519 N 0.639 0.13807 0.85459 0.0
H520 H 0.86811 0.88458 0.30183 0.0
H521 H 0.91942 0.95347 0.48092 0.0
H522 H 0.80867 0.87009 0.38961 0.0
H523 H 0.9817 0.95766 0.3943 0.0
H524 H 0.87598 0.92768 0.44728 0.0
H525 H 0.90731 0.91625 0.33463 0.0
C526 C 0.86308 0.88835 0.32795 0.0
C527 C 0.83498 0.8746 0.34294 0.0
C528 C 0.89907 0.93444 0.4356 0.0
C529 C 0.88024 0.91058 0.38093 0.0
C530 C 0.92372 0.94935 0.45472 0.0
C531 C 0.95394 0.95803 0.44019 0.0
C532 C 0.9049 0.92798 0.40182 0.0
C533 C 0.95867 0.95142 0.40639 0.0
C534 C 0.88565 0.90628 0.34676 0.0
C535 C 0.83017 0.87989 0.37709 0.0
N536 N 0.93444 0.93683 0.38838 0.0
N537 N 0.8526 0.89741 0.39495 0.0
H538 H 0.33845 0.69701 0.61629 0.0
H539 H 0.48148 0.57298 0.64179 0.0
H540 H 0.36104 0.65657 0.7131 0.0
H541 H 0.43083 0.58195 0.54792 0.0
H542 H 0.43609 0.60158 0.66884 0.0
H543 H 0.36916 0.65293 0.59075 0.0
C544 C 0.34909 0.67849 0.63228 0.0
C545 C 0.34749 0.68102 0.66709 0.0
C546 C 0.43455 0.59673 0.64244 0.0
C547 C 0.38376 0.63091 0.63773 0.0
C548 C 0.46048 0.58057 0.62703 0.0
C549 C 0.45976 0.57524 0.59268 0.0
C550 C 0.40822 0.60844 0.62315 0.0
C551 C 0.43213 0.58551 0.57454 0.0
C552 C 0.36688 0.65336 0.61757 0.0
C553 C 0.36239 0.65632 0.68624 0.0
N554 N 0.40764 0.60216 0.58991 0.0
N555 N 0.38045 0.63269 0.67134 0.0
H556 H 0.01069 0.9938 0.8114 0.0
H557 H 0.9876 0.95101 0.61876 0.0
H558 H 0.94667 0.91625 0.77714 0.0
H559 H 0.01637 0.04556 0.65603 0.0
H560 H 0.98681 0.92986 0.67631 0.0
H561 H 0.02691 0.00468 0.75402 0.0
C562 C 1.0001 0.97895 0.79185 0.0
C563 C 0.97665 0.95456 0.79913 0.0
C564 C 0.9939 0.95505 0.67172 0.0
C565 C 0.99567 0.96658 0.73329 0.0
C566 C 0.99457 0.96699 0.63901 0.0
C567 C 0.00191 1.00002 0.63296 0.0
C568 C 0.00101 0.97632 0.69817 0.0
C569 C 0.01046 0.01995 0.65985 0.0
C570 C 0.00956 0.98506 0.75911 0.0
C571 C 0.9647 0.93538 0.77275 0.0
N572 N 0.00963 0.00785 0.69129 0.0
N573 N 0.97406 0.94204 0.74092 0.0
H574 H 0.54948 0.17998 0.24402 0.0
H575 H 0.49385 0.0126 0.16491 0.0
H576 H 0.54209 0.08831 0.29699 0.0
H577 H 0.51107 0.10126 0.10902 0.0
H578 H 0.49309 0.04442 0.2161 0.0
H579 H 0.51724 0.15644 0.1985 0.0
C580 C 0.54009 0.15524 0.24655 0.0
C581 C 0.54902 0.13574 0.27387 0.0
C582 C 0.49623 0.0571 0.19261 0.0
C583 C 0.51285 0.10853 0.22179 0.0
C584 C 0.49665 0.03894 0.16343 0.0
C585 C 0.50289 0.05438 0.13292 0.0
C586 C 0.50298 0.09082 0.19128 0.0
C587 C 0.50619 0.0885 0.13216 0.0
C588 C 0.5219 0.14173 0.22046 0.0
C589 C 0.5363 0.10387 0.27593 0.0
N590 N 0.50688 0.10557 0.16106 0.0
N591 N 0.5194 0.09103 0.24991 0.0
H592 H 0.50984 0.54626 0.22616 0.0
H593 H 0.50618 0.58815 0.41988 0.0
H594 H 0.47215 0.6373 0.26398 0.0
H595 H 0.53138 0.49455 0.37866 0.0
H596 H 0.50406 0.61115 0.36319 0.0
H597 H 0.52815 0.53181 0.2817 0.0
C598 C 0.50584 0.56356 0.24601 0.0
C599 C 0.48922 0.59306 0.24018 0.0
C600 C 0.51063 0.58574 0.36666 0.0
C601 C 0.50953 0.57605 0.3046 0.0
C602 C 0.51211 0.57274 0.39893 0.0
C603 C 0.51886 0.53946 0.40371 0.0
C604 C 0.51594 0.56517 0.33928 0.0
C605 C 0.52594 0.52032 0.3759 0.0
C606 C 0.51613 0.55511 0.27792 0.0
C607 C 0.4843 0.61403 0.26732 0.0
N608 N 0.52405 0.53337 0.34492 0.0
N609 N 0.49414 0.605 0.29842 0.0
H610 H 0.08072 0.46386 0.7601 0.0
H611 H 0.0145 0.45433 0.94259 0.0
H612 H 0.05716 0.37154 0.80743 0.0
H613 H 0.01134 0.54202 0.88268 0.0
H614 H 0.02312 0.42228 0.89216 0.0
H615 H 0.04932 0.4918 0.80242 0.0
C616 C 0.06844 0.44925 0.77892 0.0
C617 C 0.0722 0.41514 0.78023 0.0
C618 C 0.0197 0.44843 0.88995 0.0
C619 C 0.03679 0.44747 0.82982 0.0
C620 C 0.01449 0.46671 0.91873 0.0
C621 C 0.0124 0.50089 0.91679 0.0
C622 C 0.0235 0.46463 0.85925 0.0
C623 C 0.01322 0.51573 0.88529 0.0
C624 C 0.05057 0.46537 0.80334 0.0
C625 C 0.05591 0.39791 0.80584 0.0
N626 N 0.01928 0.49761 0.85786 0.0
N627 N 0.03945 0.4143 0.82994 0.0
H628 H 0.80114 0.02888 0.9993 0.0
H629 H 0.60852 0.01412 0.95828 0.0
H630 H 0.76238 0.96947 0.91973 0.0
H631 H 0.64841 0.04252 0.05329 0.0
H632 H 0.66494 0.01158 0.93604 0.0
H633 H 0.74538 0.04725 0.01147 0.0
C634 C 0.78094 0.01973 0.9843 0.0
C635 C 0.78647 0.99698 0.9589 0.0
C636 C 0.66121 0.01899 0.96155 0.0
C637 C 0.72249 0.01848 0.97241 0.0
C638 C 0.62911 0.02072 0.97412 0.0
C639 C 0.62402 0.02839 0.00765 0.0
C640 C 0.68813 0.02527 0.98269 0.0
C641 C 0.65141 0.03635 0.02733 0.0
C642 C 0.74913 0.03043 0.99113 0.0
C643 C 0.75935 0.98692 0.9396 0.0
N644 N 0.68229 0.03438 0.01463 0.0
N645 N 0.72846 0.99745 0.94699 0.0
H646 H 0.73609 0.07206 0.44644 0.0
H647 H 0.92432 0.02507 0.44087 0.0
H648 H 0.79494 0.07533 0.35715 0.0
H649 H 0.86389 0.01973 0.52878 0.0
H650 H 0.8745 0.03035 0.40696 0.0
H651 H 0.77889 0.04012 0.47357 0.0
C652 C 0.75768 0.06547 0.43224 0.0
C653 C 0.76222 0.07708 0.39966 0.0
C654 C 0.87205 0.02726 0.4336 0.0
C655 C 0.81184 0.04114 0.43098 0.0
C656 C 0.90048 0.02399 0.4529 0.0
C657 C 0.89807 0.02213 0.4876 0.0
C658 C 0.8412 0.02932 0.44929 0.0
C659 C 0.8667 0.02142 0.50206 0.0
C660 C 0.78227 0.04735 0.44786 0.0
C661 C 0.79086 0.06779 0.38266 0.0
N662 N 0.83949 0.02552 0.48289 0.0
N663 N 0.81486 0.05088 0.3987 0.0
H664 H 0.27015 0.57205 0.13639 0.0
H665 H 0.14406 0.51804 0.9952 0.0
H666 H 0.298 0.53843 0.03903 0.0
H667 H 0.11238 0.54438 0.09358 0.0
H668 H 0.20093 0.51715 0.01454 0.0
H669 H 0.21311 0.55488 0.12506 0.0
C670 C 0.26435 0.56061 0.11286 0.0
C671 C 0.28869 0.55721 0.08835 0.0
C672 C 0.18167 0.52268 0.0322 0.0
C673 C 0.22371 0.53765 0.07522 0.0
C674 C 0.14919 0.52306 0.02113 0.0
C675 C 0.12374 0.5315 0.04282 0.0
C676 C 0.18896 0.53166 0.06508 0.0
C677 C 0.1315 0.53777 0.07617 0.0
C678 C 0.23182 0.55089 0.10638 0.0
C679 C 0.27987 0.54225 0.05832 0.0
N680 N 0.16361 0.53833 0.08622 0.0
N681 N 0.24814 0.53333 0.05252 0.0
H682 H 0.29608 0.47104 0.67494 0.0
H683 H 0.37777 0.50831 0.49831 0.0
H684 H 0.25356 0.44462 0.58018 0.0
H685 H 0.4324 0.5089 0.59035 0.0
H686 H 0.32684 0.50033 0.52966 0.0
H687 H 0.34095 0.49905 0.64558 0.0
C688 C 0.29593 0.4713 0.64803 0.0
C689 C 0.27114 0.45483 0.6301 0.0
C690 C 0.34987 0.50287 0.54308 0.0
C691 C 0.3221 0.48748 0.59647 0.0
C692 C 0.3789 0.50754 0.52522 0.0
C693 C 0.40927 0.50921 0.54181 0.0
C694 C 0.35124 0.49945 0.57779 0.0
C695 C 0.40942 0.50809 0.57666 0.0
C696 C 0.32146 0.4875 0.63133 0.0
C697 C 0.27185 0.45698 0.59523 0.0
N698 N 0.38084 0.50281 0.59355 0.0
N699 N 0.29705 0.47267 0.57963 0.0
H700 H 0.96976 0.81389 0.03515 0.0
H701 H 0.94477 0.62566 0.98888 0.0
H702 H 0.9055 0.7794 0.95704 0.0
H703 H 0.01873 0.66058 0.05706 0.0
H704 H 0.92149 0.68076 0.98601 0.0
H705 H 0.98007 0.75725 0.05156 0.0
C706 C 0.9577 0.79443 0.02151 0.0
C707 C 0.93712 0.80149 0.99429 0.0
C708 C 0.94234 0.6763 0.00222 0.0
C709 C 0.94856 0.7365 0.01327 0.0
C710 C 0.95535 0.64483 0.0041 0.0
C711 C 0.98318 0.6387 0.02374 0.0
C712 C 0.9578 0.70192 0.01955 0.0
C713 C 0.99682 0.6644 0.04215 0.0
C714 C 0.96345 0.76209 0.03105 0.0
C715 C 0.9215 0.77524 0.97817 0.0
N716 N 0.98417 0.69501 0.03941 0.0
N717 N 0.92781 0.74393 0.98768 0.0
H718 H 0.48193 0.73845 0.01393 0.0
H719 H 0.4447 0.92823 0.04003 0.0
H720 H 0.41132 0.77315 0.08567 0.0
H721 H 0.54034 0.89074 0.01452 0.0
H722 H 0.42284 0.87185 0.0406 0.0
H723 H 0.49418 0.79503 0.9985 0.0
C724 C 0.46889 0.75784 0.02643 0.0
C725 C 0.44606 0.75082 0.05178 0.0
C726 C 0.44843 0.87615 0.03424 0.0
C727 C 0.4593 0.81567 0.03324 0.0
C728 C 0.46079 0.90817 0.03369 0.0
C729 C 0.49429 0.91381 0.02733 0.0
C730 C 0.46974 0.84997 0.02788 0.0
C731 C 0.51436 0.88718 0.01961 0.0
C732 C 0.47572 0.79011 0.01733 0.0
C733 C 0.42908 0.77716 0.06603 0.0
N734 N 0.50181 0.85636 0.0202 0.0
N735 N 0.43624 0.80844 0.05675 0.0
H736 H 0.06913 0.28326 0.59216 0.0
H737 H 0.08192 0.10363 0.52629 0.0
H738 H 0.16297 0.23801 0.57222 0.0
H739 H 0.9928 0.1604 0.52174 0.0
H740 H 0.11346 0.15394 0.53591 0.0
H741 H 0.042 0.2409 0.56008 0.0
C742 C 0.08425 0.26487 0.58053 0.0
C743 C 0.11852 0.26417 0.58549 0.0
C744 C 0.0871 0.1555 0.53199 0.0
C745 C 0.08711 0.21457 0.5493 0.0
C746 C 0.06914 0.12679 0.52621 0.0
C747 C 0.0347 0.12789 0.52339 0.0
C748 C 0.07034 0.18526 0.53559 0.0
C749 C 0.0193 0.15848 0.52414 0.0
C750 C 0.06859 0.24043 0.56227 0.0
C751 C 0.13643 0.23913 0.57001 0.0
N752 N 0.03713 0.18585 0.53072 0.0
N753 N 0.12047 0.21503 0.55313 0.0
H754 H 0.58735 0.24962 0.46894 0.0
H755 H 0.59845 0.43737 0.5123 0.0
H756 H 0.67627 0.30738 0.45893 0.0
H757 H 0.51054 0.37824 0.52106 0.0
H758 H 0.63108 0.38749 0.50701 0.0
H759 H 0.56332 0.29283 0.50207 0.0
C760 C 0.6022 0.27104 0.47431 0.0
C761 C 0.63367 0.27511 0.46039 0.0
C762 C 0.60475 0.38538 0.51089 0.0
C763 C 0.60575 0.32533 0.49766 0.0
C764 C 0.58618 0.41384 0.51417 0.0
C765 C 0.55179 0.41179 0.51676 0.0
C766 C 0.58862 0.35486 0.50978 0.0
C767 C 0.53701 0.38079 0.51865 0.0
C768 C 0.58831 0.29591 0.49312 0.0
C769 C 0.65151 0.30362 0.46822 0.0
N770 N 0.55543 0.35356 0.51459 0.0
N771 N 0.63707 0.32792 0.48579 0.0
loop_
_geom_bond_atom_site_label_1
_geom_bond_atom_site_label_2
_geom_bond_distance
_geom_bond_site_symmetry_2
_ccdc_geom_bond_type
P0 O11 1.490 . S
P0 C14 1.812 . S
P0 C20 1.803 . S
P0 C26 1.819 . S
H1 C15 0.941 . S
H2 C16 0.939 . S
H3 C18 0.940 . S
H4 C19 0.940 . S
H5 C21 0.939 . S
H6 C22 0.942 . S
H7 C24 0.940 . S
H8 C25 0.939 . S
H9 C27 0.941 . S
H10 C31 0.939 . S
O11 P0 1.490 . S
H12 C28 0.939 . S
H13 C30 0.940 . S
C14 P0 1.812 . S
C14 C15 1.389 . S
C14 C19 1.391 . S
C15 H1 0.941 . S
C15 C14 1.389 . S
C15 C16 1.397 . S
C16 H2 0.939 . S
C16 C15 1.397 . S
C16 C17 1.378 . S
C17 C16 1.378 . S
C17 C18 1.378 . S
C18 H3 0.940 . S
C18 C17 1.378 . S
C18 C19 1.396 . S
C19 H4 0.940 . S
C19 C14 1.391 . S
C19 C18 1.396 . S
C20 P0 1.803 . S
C20 C21 1.378 . S
C20 C25 1.400 . S
C21 H5 0.939 . S
C21 C20 1.378 . S
C21 C22 1.361 . S
C22 H6 0.942 . S
C22 C21 1.361 . S
C22 C23 1.369 . S
C23 C22 1.369 . S
C23 C24 1.404 . S
C24 H7 0.940 . S
C24 C23 1.404 . S
C24 C25 1.389 . S
C25 H8 0.939 . S
C25 C20 1.400 . S
C25 C24 1.389 . S
C26 P0 1.819 . S
C26 C27 1.391 . S
C26 C31 1.391 . S
C27 H9 0.941 . S
C27 C26 1.391 . S
C27 C28 1.396 . S
C28 H12 0.939 . S
C28 C27 1.396 . S
C28 C29 1.397 . S
C29 C28 1.397 . S
C29 C30 1.385 . S
C30 H13 0.940 . S
C30 C29 1.385 . S
C30 C31 1.388 . S
C31 H10 0.939 . S
C31 C26 1.391 . S
C31 C30 1.388 . S
P32 O43 1.490 . S
P32 C46 1.812 . S
P32 C52 1.803 . S
P32 C58 1.819 . S
H33 C47 0.941 . S
H34 C48 0.939 . S
H35 C50 0.940 . S
H36 C51 0.940 . S
H37 C53 0.939 . S
H38 C54 0.942 . S
H39 C56 0.940 . S
H40 C57 0.939 . S
H41 C59 0.941 . S
H42 C63 0.939 . S
O43 P32 1.490 . S
H44 C60 0.939 . S
H45 C62 0.940 . S
C46 P32 1.812 . S
C46 C47 1.389 . S
C46 C51 1.391 . S
C47 H33 0.941 . S
C47 C46 1.389 . S
C47 C48 1.397 . S
C48 H34 0.939 . S
C48 C47 1.397 . S
C48 C49 1.378 . S
C49 C48 1.378 . S
C49 C50 1.378 . S
C50 H35 0.940 . S
C50 C49 1.378 . S
C50 C51 1.396 . S
C51 H36 0.940 . S
C51 C46 1.391 . S
C51 C50 1.396 . S
C52 P32 1.803 . S
C52 C53 1.378 . S
C52 C57 1.400 . S
C53 H37 0.939 . S
C53 C52 1.378 . S
C53 C54 1.361 . S
C54 H38 0.942 . S
C54 C53 1.361 . S
C54 C55 1.369 . S
C55 C54 1.369 . S
C55 C56 1.404 . S
C56 H39 0.940 . S
C56 C55 1.404 . S
C56 C57 1.389 . S
C57 H40 0.939 . S
C57 C52 1.400 . S
C57 C56 1.389 . S
C58 P32 1.819 . S
C58 C59 1.391 . S
C58 C63 1.391 . S
C59 H41 0.941 . S
C59 C58 1.391 . S
C59 C60 1.396 . S
C60 H44 0.939 . S
C60 C59 1.396 . S
C60 C61 1.397 . S
C61 C60 1.397 . S
C61 C62 1.385 . S
C62 H45 0.940 . S
C62 C61 1.385 . S
C62 C63 1.388 . S
C63 H42 0.939 . S
C63 C58 1.391 . S
C63 C62 1.388 . S
P64 O75 1.490 . S
P64 C78 1.812 . S
P64 C84 1.803 . S
P64 C90 1.819 . S
H65 C79 0.941 . S
H66 C80 0.939 . S
H67 C82 0.940 . S
H68 C83 0.940 . S
H69 C85 0.939 . S
H70 C86 0.942 . S
H71 C88 0.940 . S
H72 C89 0.939 . S
H73 C91 0.941 . S
H74 C95 0.939 . S
O75 P64 1.490 . S
H76 C92 0.939 . S
H77 C94 0.940 . S
C78 P64 1.812 . S
C78 C79 1.389 . S
C78 C83 1.391 . S
C79 H65 0.941 . S
C79 C78 1.389 . S
C79 C80 1.397 . S
C80 H66 0.939 . S
C80 C79 1.397 . S
C80 C81 1.378 . S
C81 C80 1.378 . S
C81 C82 1.378 . S
C82 H67 0.940 . S
C82 C81 1.378 . S
C82 C83 1.396 . S
C83 H68 0.940 . S
C83 C78 1.391 . S
C83 C82 1.396 . S
C84 P64 1.803 . S
C84 C85 1.378 . S
C84 C89 1.400 . S
C85 H69 0.939 . S
C85 C84 1.378 . S
C85 C86 1.361 . S
C86 H70 0.942 . S
C86 C85 1.361 . S
C86 C87 1.369 . S
C87 C86 1.369 . S
C87 C88 1.404 . S
C88 H71 0.940 . S
C88 C87 1.404 . S
C88 C89 1.389 . S
C89 H72 0.939 . S
C89 C84 1.400 . S
C89 C88 1.389 . S
C90 P64 1.819 . S
C90 C91 1.391 . S
C90 C95 1.391 . S
C91 H73 0.941 . S
C91 C90 1.391 . S
C91 C92 1.396 . S
C92 H76 0.939 . S
C92 C91 1.396 . S
C92 C93 1.397 . S
C93 C92 1.397 . S
C93 C94 1.385 . S
C94 H77 0.940 . S
C94 C93 1.385 . S
C94 C95 1.388 . S
C95 H74 0.939 . S
C95 C90 1.391 . S
C95 C94 1.388 . S
P96 O107 1.490 . S
P96 C110 1.812 . S
P96 C116 1.803 . S
P96 C122 1.819 . S
H97 C111 0.941 . S
H98 C112 0.939 . S
H99 C114 0.940 . S
H100 C115 0.940 . S
H101 C117 0.939 . S
H102 C118 0.942 . S
H103 C120 0.940 . S
H104 C121 0.939 . S
H105 C123 0.941 . S
H106 C127 0.939 . S
O107 P96 1.490 . S
H108 C124 0.939 . S
H109 C126 0.940 . S
C110 P96 1.812 . S
C110 C111 1.389 . S
C110 C115 1.391 . S
C111 H97 0.941 . S
C111 C110 1.389 . S
C111 C112 1.397 . S
C112 H98 0.939 . S
C112 C111 1.397 . S
C112 C113 1.378 . S
C113 C112 1.378 . S
C113 C114 1.378 . S
C114 H99 0.940 . S
C114 C113 1.378 . S
C114 C115 1.396 . S
C115 H100 0.940 . S
C115 C110 1.391 . S
C115 C114 1.396 . S
C116 P96 1.803 . S
C116 C117 1.378 . S
C116 C121 1.400 . S
C117 H101 0.939 . S
C117 C116 1.378 . S
C117 C118 1.361 . S
C118 H102 0.942 . S
C118 C117 1.361 . S
C118 C119 1.369 . S
C119 C118 1.369 . S
C119 C120 1.404 . S
C120 H103 0.940 . S
C120 C119 1.404 . S
C120 C121 1.389 . S
C121 H104 0.939 . S
C121 C116 1.400 . S
C121 C120 1.389 . S
C122 P96 1.819 . S
C122 C123 1.391 . S
C122 C127 1.391 . S
C123 H105 0.941 . S
C123 C122 1.391 . S
C123 C124 1.396 . S
C124 H108 0.939 . S
C124 C123 1.396 . S
C124 C125 1.397 . S
C125 C124 1.397 . S
C125 C126 1.385 . S
C126 H109 0.940 . S
C126 C125 1.385 . S
C126 C127 1.388 . S
C127 H106 0.939 . S
C127 C122 1.391 . S
C127 C126 1.388 . S
P128 O139 1.490 . S
P128 C142 1.812 . S
P128 C148 1.803 . S
P128 C154 1.819 . S
H129 C143 0.941 . S
H130 C144 0.939 . S
H131 C146 0.940 . S
H132 C147 0.940 . S
H133 C149 0.939 1_455 S
H134 C150 0.942 . S
H135 C152 0.940 . S
H136 C153 0.939 . S
H137 C155 0.943 1_545 S
H138 C159 0.939 . S
O139 P128 1.490 . S
H140 C156 0.939 . S
H141 C158 0.940 . S
C142 P128 1.812 . S
C142 C143 1.389 1_556 S
C142 C147 1.391 . S
C143 H129 0.941 . S
C143 C142 1.389 1_554 S
C143 C144 1.397 . S
C144 H130 0.939 . S
C144 C143 1.397 . S
C144 C145 1.378 1_554 S
C145 C144 1.378 1_556 S
C145 C146 1.378 . S
C146 H131 0.940 . S
C146 C145 1.378 . S
C146 C147 1.396 . S
C147 H132 0.940 . S
C147 C142 1.391 . S
C147 C146 1.396 . S
C148 P128 1.803 . S
C148 C149 1.378 . S
C148 C153 1.400 . S
C149 H133 0.939 1_655 S
C149 C148 1.378 . S
C149 C150 1.361 1_655 S
C150 H134 0.942 . S
C150 C149 1.361 1_455 S
C150 C151 1.369 1_455 S
C151 C150 1.369 1_655 S
C151 C152 1.404 . S
C152 H135 0.940 . S
C152 C151 1.404 . S
C152 C153 1.389 . S
C153 H136 0.939 . S
C153 C148 1.400 . S
C153 C152 1.389 . S
C154 P128 1.819 . S
C154 C155 1.389 . S
C154 C159 1.391 . S
C155 H137 0.943 1_565 S
C155 C154 1.389 . S
C155 C156 1.397 1_565 S
C156 H140 0.939 . S
C156 C155 1.397 1_545 S
C156 C157 1.397 1_545 S
C157 C156 1.397 1_565 S
C157 C158 1.385 . S
C158 H141 0.940 . S
C158 C157 1.385 . S
C158 C159 1.388 . S
C159 H138 0.939 . S
C159 C154 1.391 . S
C159 C158 1.388 . S
P160 O171 1.490 . S
P160 C174 1.812 . S
P160 C180 1.803 . S
P160 C186 1.819 . S
H161 C175 0.941 . S
H162 C176 0.939 . S
H163 C178 0.940 . S
H164 C179 0.940 . S
H165 C181 0.939 . S
H166 C182 0.942 . S
H167 C184 0.940 . S
H168 C185 0.939 . S
H169 C187 0.941 . S
H170 C191 0.939 . S
O171 P160 1.490 . S
H172 C188 0.939 . S
H173 C190 0.940 . S
C174 P160 1.812 . S
C174 C175 1.389 . S
C174 C179 1.391 . S
C175 H161 0.941 . S
C175 C174 1.389 . S
C175 C176 1.397 . S
C176 H162 0.939 . S
C176 C175 1.397 . S
C176 C177 1.378 . S
C177 C176 1.378 . S
C177 C178 1.378 . S
C178 H163 0.940 . S
C178 C177 1.378 . S
C178 C179 1.396 . S
C179 H164 0.940 . S
C179 C174 1.391 . S
C179 C178 1.396 . S
C180 P160 1.803 . S
C180 C181 1.378 . S
C180 C185 1.400 . S
C181 H165 0.939 . S
C181 C180 1.378 . S
C181 C182 1.361 . S
C182 H166 0.942 . S
C182 C181 1.361 . S
C182 C183 1.369 . S
C183 C182 1.369 . S
C183 C184 1.404 . S
C184 H167 0.940 . S
C184 C183 1.404 . S
C184 C185 1.389 . S
C185 H168 0.939 . S
C185 C180 1.400 . S
C185 C184 1.389 . S
C186 P160 1.819 . S
C186 C187 1.391 . S
C186 C191 1.391 . S
C187 H169 0.941 . S
C187 C186 1.391 . S
C187 C188 1.396 . S
C188 H172 0.939 . S
C188 C187 1.396 . S
C188 C189 1.397 . S
C189 C188 1.397 . S
C189 C190 1.385 . S
C190 H173 0.940 . S
C190 C189 1.385 . S
C190 C191 1.388 . S
C191 H170 0.939 . S
C191 C186 1.391 . S
C191 C190 1.388 . S
P192 O203 1.490 . S
P192 C206 1.812 . S
P192 C212 1.803 . S
P192 C218 1.819 . S
H193 C207 0.941 . S
H194 C208 0.939 . S
H195 C210 0.940 . S
H196 C211 0.940 . S
H197 C213 0.939 . S
H198 C214 0.942 . S
H199 C216 0.940 . S
H200 C217 0.939 . S
H201 C219 0.941 . S
H202 C223 0.939 . S
O203 P192 1.490 . S
H204 C220 0.939 . S
H205 C222 0.940 . S
C206 P192 1.812 . S
C206 C207 1.389 . S
C206 C211 1.391 . S
C207 H193 0.941 . S
C207 C206 1.389 . S
C207 C208 1.397 . S
C208 H194 0.939 . S
C208 C207 1.397 . S
C208 C209 1.378 . S
C209 C208 1.378 . S
C209 C210 1.378 . S
C210 H195 0.940 . S
C210 C209 1.378 . S
C210 C211 1.396 . S
C211 H196 0.940 . S
C211 C206 1.391 . S
C211 C210 1.396 . S
C212 P192 1.803 . S
C212 C213 1.378 . S
C212 C217 1.400 . S
C213 H197 0.939 . S
C213 C212 1.378 . S
C213 C214 1.361 . S
C214 H198 0.942 . S
C214 C213 1.361 . S
C214 C215 1.369 . S
C215 C214 1.369 . S
C215 C216 1.404 . S
C216 H199 0.940 . S
C216 C215 1.404 . S
C216 C217 1.389 . S
C217 H200 0.939 . S
C217 C212 1.400 . S
C217 C216 1.389 . S
C218 P192 1.819 . S
C218 C219 1.391 . S
C218 C223 1.391 . S
C219 H201 0.941 . S
C219 C218 1.391 . S
C219 C220 1.396 . S
C220 H204 0.939 . S
C220 C219 1.396 . S
C220 C221 1.397 . S
C221 C220 1.397 . S
C221 C222 1.385 . S
C222 H205 0.940 . S
C222 C221 1.385 . S
C222 C223 1.388 . S
C223 H202 0.939 . S
C223 C218 1.391 . S
C223 C222 1.388 . S
P224 O235 1.490 . S
P224 C238 1.812 . S
P224 C244 1.803 . S
P224 C250 1.819 . S
H225 C239 0.941 . S
H226 C240 0.939 . S
H227 C242 0.940 . S
H228 C243 0.940 . S
H229 C245 0.939 . S
H230 C246 0.942 . S
H231 C248 0.940 . S
H232 C249 0.939 . S
H233 C251 0.941 . S
H234 C255 0.939 . S
O235 P224 1.490 . S
H236 C252 0.939 . S
H237 C254 0.940 . S
C238 P224 1.812 . S
C238 C239 1.389 . S
C238 C243 1.391 . S
C239 H225 0.941 . S
C239 C238 1.389 . S
C239 C240 1.397 . S
C240 H226 0.939 . S
C240 C239 1.397 . S
C240 C241 1.378 . S
C241 C240 1.378 . S
C241 C242 1.378 . S
C242 H227 0.940 . S
C242 C241 1.378 . S
C242 C243 1.396 . S
C243 H228 0.940 . S
C243 C238 1.391 . S
C243 C242 1.396 . S
C244 P224 1.803 . S
C244 C245 1.378 . S
C244 C249 1.400 . S
C245 H229 0.939 . S
C245 C244 1.378 . S
C245 C246 1.361 . S
C246 H230 0.942 . S
C246 C245 1.361 . S
C246 C247 1.369 . S
C247 C246 1.369 . S
C247 C248 1.404 . S
C248 H231 0.940 . S
C248 C247 1.404 . S
C248 C249 1.389 . S
C249 H232 0.939 . S
C249 C244 1.400 . S
C249 C248 1.389 . S
C250 P224 1.819 . S
C250 C251 1.391 . S
C250 C255 1.391 . S
C251 H233 0.941 . S
C251 C250 1.391 . S
C251 C252 1.396 . S
C252 H236 0.939 . S
C252 C251 1.396 . S
C252 C253 1.397 . S
C253 C252 1.397 . S
C253 C254 1.385 . S
C254 H237 0.940 . S
C254 C253 1.385 . S
C254 C255 1.388 . S
C255 H234 0.939 . S
C255 C250 1.391 . S
C255 C254 1.388 . S
Zn256 O262 1.920 . S
Zn256 O268 1.898 . S
Zn256 O271 1.905 . S
Zn257 O265 1.905 1_565 S
Zn257 O266 1.898 . S
Zn257 O274 1.920 . S
Zn258 O261 2.080 1_455 S
Zn258 O264 2.114 . S
Zn258 O267 2.120 1_445 S
Zn258 O269 2.120 . S
Zn258 O270 2.114 1_455 S
Zn258 O273 2.080 . S
C259 O264 1.166 . S
C259 O265 1.182 . S
C260 O266 1.167 1_655 S
C260 O267 1.299 . S
O261 Zn258 2.080 1_655 S
O261 C275 1.305 . S
O262 Zn256 1.920 . S
O262 C275 1.234 . S
C263 O268 1.167 1_455 S
C263 O269 1.299 . S
O264 Zn258 2.114 . S
O264 C259 1.166 . S
O265 Zn257 1.905 1_545 S
O265 C259 1.182 . S
O266 Zn257 1.898 . S
O266 C260 1.167 1_455 S
O267 Zn258 2.120 1_665 S
O267 C260 1.299 . S
O268 Zn256 1.898 . S
O268 C263 1.167 1_655 S
O269 Zn258 2.120 . S
O269 C263 1.299 . S
O270 Zn258 2.114 1_655 S
O270 C272 1.166 . S
O271 Zn256 1.905 . S
O271 C272 1.182 . S
C272 O270 1.166 . S
C272 O271 1.182 . S
O273 Zn258 2.080 . S
O273 C276 1.305 1_545 S
O274 Zn257 1.920 . S
O274 C276 1.234 . S
C275 O261 1.305 . S
C275 O262 1.234 . S
C276 O273 1.305 1_565 S
C276 O274 1.234 . S
Zn277 O283 1.920 1_556 S
Zn277 O289 1.898 . S
Zn277 O292 1.905 . S
Zn278 O286 1.905 . S
Zn278 O287 1.898 . S
Zn278 O295 1.920 . S
Zn279 O282 2.080 . S
Zn279 O285 2.114 1_545 S
Zn279 O288 2.120 1_545 S
Zn279 O290 2.120 . S
Zn279 O291 2.115 1_554 S
Zn279 O294 2.080 . S
C280 O285 1.166 . S
C280 O286 1.182 . S
C281 O287 1.167 . S
C281 O288 1.299 . S
O282 Zn279 2.080 . S
O282 C296 1.305 . S
O283 Zn277 1.920 1_554 S
O283 C296 1.234 . S
C284 O289 1.167 . S
C284 O290 1.299 1_556 S
O285 Zn279 2.114 1_565 S
O285 C280 1.166 . S
O286 Zn278 1.905 . S
O286 C280 1.182 . S
O287 Zn278 1.898 . S
O287 C281 1.167 . S
O288 Zn279 2.120 1_565 S
O288 C281 1.299 . S
O289 Zn277 1.898 . S
O289 C284 1.167 . S
O290 Zn279 2.120 . S
O290 C284 1.299 1_554 S
O291 Zn279 2.115 1_556 S
O291 C293 1.166 . S
O292 Zn277 1.905 . S
O292 C293 1.199 . S
C293 O291 1.166 . S
C293 O292 1.199 . S
O294 Zn279 2.080 . S
O294 C297 1.305 . S
O295 Zn278 1.920 . S
O295 C297 1.234 1_565 S
C296 O282 1.305 . S
C296 O283 1.234 . S
C297 O294 1.305 . S
C297 O295 1.234 1_545 S
Zn298 O304 1.920 . S
Zn298 O310 1.898 . S
Zn298 O313 1.905 . S
Zn299 O307 1.905 . S
Zn299 O308 1.898 . S
Zn299 O316 1.920 . S
Zn300 O303 2.080 . S
Zn300 O306 2.114 . S
Zn300 O309 2.120 . S
Zn300 O311 2.120 . S
Zn300 O312 2.114 . S
Zn300 O315 2.080 . S
C301 O306 1.166 . S
C301 O307 1.182 . S
C302 O308 1.167 . S
C302 O309 1.299 . S
O303 Zn300 2.080 . S
O303 C317 1.305 . S
O304 Zn298 1.920 . S
O304 C317 1.234 . S
C305 O310 1.167 . S
C305 O311 1.299 . S
O306 Zn300 2.114 . S
O306 C301 1.166 . S
O307 Zn299 1.905 . S
O307 C301 1.182 . S
O308 Zn299 1.898 . S
O308 C302 1.167 . S
O309 Zn300 2.120 . S
O309 C302 1.299 . S
O310 Zn298 1.898 . S
O310 C305 1.167 . S
O311 Zn300 2.120 . S
O311 C305 1.299 . S
O312 Zn300 2.114 . S
O312 C314 1.166 . S
O313 Zn298 1.905 . S
O313 C314 1.182 . S
C314 O312 1.166 . S
C314 O313 1.182 . S
O315 Zn300 2.080 . S
O315 C318 1.305 . S
O316 Zn299 1.920 . S
O316 C318 1.234 . S
C317 O303 1.305 . S
C317 O304 1.234 . S
C318 O315 1.305 . S
C318 O316 1.234 . S
Zn319 O325 1.920 . S
Zn319 O331 1.898 . S
Zn319 O334 1.905 . S
Zn320 O328 1.905 1_655 S
Zn320 O329 1.898 . S
Zn320 O337 1.920 . S
Zn321 O324 2.080 1_554 S
Zn321 O327 2.114 . S
Zn321 O330 2.120 1_454 S
Zn321 O332 2.120 . S
Zn321 O333 2.114 1_554 S
Zn321 O336 2.080 . S
C322 O327 1.166 . S
C322 O328 1.182 . S
C323 O329 1.167 1_556 S
C323 O330 1.299 . S
O324 Zn321 2.080 1_556 S
O324 C338 1.305 . S
O325 Zn319 1.920 . S
O325 C338 1.234 . S
C326 O331 1.167 1_554 S
C326 O332 1.299 . S
O327 Zn321 2.114 . S
O327 C322 1.166 . S
O328 Zn320 1.905 1_455 S
O328 C322 1.182 . S
O329 Zn320 1.898 . S
O329 C323 1.167 1_554 S
O330 Zn321 2.120 1_656 S
O330 C323 1.299 . S
O331 Zn319 1.898 . S
O331 C326 1.167 1_556 S
O332 Zn321 2.120 . S
O332 C326 1.299 . S
O333 Zn321 2.114 1_556 S
O333 C335 1.166 . S
O334 Zn319 1.905 . S
O334 C335 1.182 . S
C335 O333 1.166 . S
C335 O334 1.182 . S
O336 Zn321 2.080 . S
O336 C339 1.305 1_455 S
O337 Zn320 1.920 . S
O337 C339 1.234 . S
C338 O324 1.305 . S
C338 O325 1.234 . S
C339 O336 1.305 1_655 S
C339 O337 1.234 . S
H340 C346 0.930 . S
H341 C350 0.930 . S
H342 C355 0.929 . S
H343 C353 0.929 . S
H344 C348 0.929 . S
H345 C354 0.929 . S
C346 H340 0.930 . S
C346 C347 1.367 . S
C346 C354 1.378 . S
C347 C346 1.367 . S
C347 C355 1.433 . S
C348 H344 0.929 . S
C348 C350 1.378 . S
C348 C352 1.350 . S
C349 C352 1.463 . S
C349 C354 1.350 . S
C349 N357 1.427 . S
C350 H341 0.930 . S
C350 C348 1.378 . S
C350 C351 1.367 . S
C351 C350 1.367 . S
C351 C353 1.433 . S
C352 C348 1.350 . S
C352 C349 1.463 . S
C352 N356 1.427 . S
C353 H343 0.929 . S
C353 C351 1.433 . S
C353 N356 1.384 . S
C354 H345 0.929 . S
C354 C346 1.378 . S
C354 C349 1.350 . S
C355 H342 0.929 . S
C355 C347 1.433 . S
C355 N357 1.384 . S
N356 C352 1.427 . S
N356 C353 1.384 . S
N357 C349 1.427 . S
N357 C355 1.384 . S
H358 C364 0.930 . S
H359 C368 0.930 . S
H360 C373 0.929 . S
H361 C371 0.929 1_545 S
H362 C366 0.929 . S
H363 C372 0.929 . S
C364 H358 0.930 . S
C364 C365 1.367 . S
C364 C372 1.378 . S
C365 C364 1.367 . S
C365 C373 1.433 . S
C366 H362 0.929 . S
C366 C368 1.378 . S
C366 C370 1.350 . S
C367 C370 1.463 . S
C367 C372 1.350 . S
C367 N375 1.427 . S
C368 H359 0.930 . S
C368 C366 1.378 . S
C368 C369 1.367 . S
C369 C368 1.367 . S
C369 C371 1.433 . S
C370 C366 1.350 . S
C370 C367 1.463 . S
C370 N374 1.427 . S
C371 H361 0.929 1_565 S
C371 C369 1.433 . S
C371 N374 1.384 . S
C372 H363 0.929 . S
C372 C364 1.378 . S
C372 C367 1.350 . S
C373 H360 0.929 . S
C373 C365 1.433 . S
C373 N375 1.384 . S
N374 C370 1.427 . S
N374 C371 1.384 . S
N375 C367 1.427 . S
N375 C373 1.384 . S
H376 C382 0.930 . S
H377 C386 0.930 . S
H378 C391 0.929 . S
H379 C389 0.929 . S
H380 C384 0.929 . S
H381 C390 0.929 . S
C382 H376 0.930 . S
C382 C383 1.367 . S
C382 C390 1.378 . S
C383 C382 1.367 . S
C383 C391 1.433 . S
C384 H380 0.929 . S
C384 C386 1.378 . S
C384 C388 1.350 . S
C385 C388 1.463 . S
C385 C390 1.350 . S
C385 N393 1.427 . S
C386 H377 0.930 . S
C386 C384 1.378 . S
C386 C387 1.367 . S
C387 C386 1.367 . S
C387 C389 1.433 . S
C388 C384 1.350 . S
C388 C385 1.463 . S
C388 N392 1.427 . S
C389 H379 0.929 . S
C389 C387 1.433 . S
C389 N392 1.384 . S
C390 H381 0.929 . S
C390 C382 1.378 . S
C390 C385 1.350 . S
C391 H378 0.929 . S
C391 C383 1.433 . S
C391 N393 1.384 . S
N392 C388 1.427 . S
N392 C389 1.384 . S
N393 C385 1.427 . S
N393 C391 1.384 . S
H394 C400 0.930 . S
H395 C404 0.930 . S
H396 C409 0.929 . S
H397 C407 0.929 . S
H398 C402 0.929 . S
H399 C408 0.929 . S
C400 H394 0.930 . S
C400 C401 1.367 . S
C400 C408 1.378 . S
C401 C400 1.367 . S
C401 C409 1.433 . S
C402 H398 0.929 . S
C402 C404 1.378 . S
C402 C406 1.350 . S
C403 C406 1.463 . S
C403 C408 1.350 . S
C403 N411 1.427 . S
C404 H395 0.930 . S
C404 C402 1.378 . S
C404 C405 1.367 . S
C405 C404 1.367 . S
C405 C407 1.433 . S
C406 C402 1.350 . S
C406 C403 1.463 . S
C406 N410 1.427 . S
C407 H397 0.929 . S
C407 C405 1.433 . S
C407 N410 1.384 . S
C408 H399 0.929 . S
C408 C400 1.378 . S
C408 C403 1.350 . S
C409 H396 0.929 . S
C409 C401 1.433 . S
C409 N411 1.384 . S
N410 C406 1.427 . S
N410 C407 1.384 . S
N411 C403 1.427 . S
N411 C409 1.384 . S
H412 C418 0.930 . S
H413 C422 0.930 . S
H414 C427 0.929 . S
H415 C425 0.929 . S
H416 C420 0.929 . S
H417 C426 0.929 . S
C418 H412 0.930 . S
C418 C419 1.367 . S
C418 C426 1.378 . S
C419 C418 1.367 . S
C419 C427 1.433 . S
C420 H416 0.929 . S
C420 C422 1.378 . S
C420 C424 1.350 . S
C421 C424 1.463 . S
C421 C426 1.350 . S
C421 N429 1.427 . S
C422 H413 0.930 . S
C422 C420 1.378 . S
C422 C423 1.367 . S
C423 C422 1.367 . S
C423 C425 1.433 . S
C424 C420 1.350 . S
C424 C421 1.463 . S
C424 N428 1.427 . S
C425 H415 0.929 . S
C425 C423 1.433 . S
C425 N428 1.384 . S
C426 H417 0.929 . S
C426 C418 1.378 . S
C426 C421 1.350 . S
C427 H414 0.929 . S
C427 C419 1.433 . S
C427 N429 1.384 . S
N428 C424 1.427 . S
N428 C425 1.384 . S
N429 C421 1.427 . S
N429 C427 1.384 . S
H430 C436 0.930 . S
H431 C440 0.930 . S
H432 C445 0.929 . S
H433 C443 0.929 . S
H434 C438 0.929 . S
H435 C444 0.929 . S
C436 H430 0.930 . S
C436 C437 1.367 . S
C436 C444 1.378 . S
C437 C436 1.367 . S
C437 C445 1.433 . S
C438 H434 0.929 . S
C438 C440 1.378 1_565 S
C438 C442 1.350 . S
C439 C442 1.463 . S
C439 C444 1.350 . S
C439 N447 1.427 . S
C440 H431 0.930 . S
C440 C438 1.378 1_545 S
C440 C441 1.367 1_545 S
C441 C440 1.367 1_565 S
C441 C443 1.433 . S
C442 C438 1.350 . S
C442 C439 1.463 . S
C442 N446 1.427 . S
C443 H433 0.929 . S
C443 C441 1.433 . S
C443 N446 1.384 . S
C444 H435 0.929 . S
C444 C436 1.378 . S
C444 C439 1.350 . S
C445 H432 0.929 . S
C445 C437 1.433 . S
C445 N447 1.384 . S
N446 C442 1.427 . S
N446 C443 1.384 . S
N447 C439 1.427 . S
N447 C445 1.384 . S
H448 C454 0.930 . S
H449 C458 0.930 . S
H450 C463 0.929 . S
H451 C461 0.929 . S
H452 C456 0.929 . S
H453 C462 0.929 . S
C454 H448 0.930 . S
C454 C455 1.367 . S
C454 C462 1.378 . S
C455 C454 1.367 . S
C455 C463 1.433 . S
C456 H452 0.929 . S
C456 C458 1.378 . S
C456 C460 1.350 . S
C457 C460 1.463 . S
C457 C462 1.350 . S
C457 N465 1.427 . S
C458 H449 0.930 . S
C458 C456 1.378 . S
C458 C459 1.367 . S
C459 C458 1.367 . S
C459 C461 1.433 . S
C460 C456 1.350 . S
C460 C457 1.463 . S
C460 N464 1.427 . S
C461 H451 0.929 . S
C461 C459 1.433 . S
C461 N464 1.384 . S
C462 H453 0.929 . S
C462 C454 1.378 . S
C462 C457 1.350 . S
C463 H450 0.929 . S
C463 C455 1.433 . S
C463 N465 1.384 . S
N464 C460 1.427 . S
N464 C461 1.384 . S
N465 C457 1.427 . S
N465 C463 1.384 . S
H466 C472 0.930 . S
H467 C476 0.930 . S
H468 C481 0.929 . S
H469 C479 0.929 . S
H470 C474 0.929 . S
H471 C480 0.929 . S
C472 H466 0.930 . S
C472 C473 1.367 . S
C472 C480 1.378 . S
C473 C472 1.367 . S
C473 C481 1.433 . S
C474 H470 0.929 . S
C474 C476 1.378 . S
C474 C478 1.350 . S
C475 C478 1.463 . S
C475 C480 1.350 . S
C475 N483 1.427 . S
C476 H467 0.930 . S
C476 C474 1.378 . S
C476 C477 1.367 . S
C477 C476 1.367 . S
C477 C479 1.433 . S
C478 C474 1.350 . S
C478 C475 1.463 . S
C478 N482 1.427 . S
C479 H469 0.929 . S
C479 C477 1.433 . S
C479 N482 1.384 . S
C480 H471 0.929 . S
C480 C472 1.378 . S
C480 C475 1.350 . S
C481 H468 0.929 . S
C481 C473 1.433 . S
C481 N483 1.384 . S
N482 C478 1.427 . S
N482 C479 1.384 . S
N483 C475 1.427 . S
N483 C481 1.384 . S
H484 C490 0.930 . S
H485 C494 0.930 . S
H486 C499 0.929 . S
H487 C497 0.929 . S
H488 C492 0.929 . S
H489 C498 0.929 . S
C490 H484 0.930 . S
C490 C491 1.367 . S
C490 C498 1.378 . S
C491 C490 1.367 . S
C491 C499 1.433 . S
C492 H488 0.929 . S
C492 C494 1.378 . S
C492 C496 1.350 . S
C493 C496 1.463 . S
C493 C498 1.350 . S
C493 N501 1.427 . S
C494 H485 0.930 . S
C494 C492 1.378 . S
C494 C495 1.367 . S
C495 C494 1.367 . S
C495 C497 1.433 . S
C496 C492 1.350 . S
C496 C493 1.463 . S
C496 N500 1.427 . S
C497 H487 0.929 . S
C497 C495 1.433 . S
C497 N500 1.384 . S
C498 H489 0.929 . S
C498 C490 1.378 . S
C498 C493 1.350 . S
C499 H486 0.929 . S
C499 C491 1.433 . S
C499 N501 1.384 . S
N500 C496 1.427 . S
N500 C497 1.384 . S
N501 C493 1.427 . S
N501 C499 1.384 . S
H502 C508 0.930 . S
H503 C512 0.930 . S
H504 C517 0.929 . S
H505 C515 0.929 . S
H506 C510 0.929 . S
H507 C516 0.929 . S
C508 H502 0.930 . S
C508 C509 1.367 . S
C508 C516 1.378 . S
C509 C508 1.367 . S
C509 C517 1.433 . S
C510 H506 0.929 . S
C510 C512 1.378 . S
C510 C514 1.350 . S
C511 C514 1.463 . S
C511 C516 1.350 . S
C511 N519 1.427 . S
C512 H503 0.930 . S
C512 C510 1.378 . S
C512 C513 1.367 . S
C513 C512 1.367 . S
C513 C515 1.433 1_556 S
C514 C510 1.350 . S
C514 C511 1.463 . S
C514 N518 1.427 . S
C515 H505 0.929 . S
C515 C513 1.433 1_554 S
C515 N518 1.384 1_554 S
C516 H507 0.929 . S
C516 C508 1.378 . S
C516 C511 1.350 . S
C517 H504 0.929 . S
C517 C509 1.433 . S
C517 N519 1.384 . S
N518 C514 1.427 . S
N518 C515 1.384 1_556 S
N519 C511 1.427 . S
N519 C517 1.384 . S
H520 C526 0.930 . S
H521 C530 0.930 . S
H522 C535 0.929 . S
H523 C533 0.929 . S
H524 C528 0.929 . S
H525 C534 0.929 . S
C526 H520 0.930 . S
C526 C527 1.367 . S
C526 C534 1.378 . S
C527 C526 1.367 . S
C527 C535 1.433 . S
C528 H524 0.929 . S
C528 C530 1.378 . S
C528 C532 1.350 . S
C529 C532 1.463 . S
C529 C534 1.350 . S
C529 N537 1.427 . S
C530 H521 0.930 . S
C530 C528 1.378 . S
C530 C531 1.367 . S
C531 C530 1.367 . S
C531 C533 1.433 . S
C532 C528 1.350 . S
C532 C529 1.463 . S
C532 N536 1.427 . S
C533 H523 0.929 . S
C533 C531 1.433 . S
C533 N536 1.384 . S
C534 H525 0.929 . S
C534 C526 1.378 . S
C534 C529 1.350 . S
C535 H522 0.929 . S
C535 C527 1.433 . S
C535 N537 1.384 . S
N536 C532 1.427 . S
N536 C533 1.384 . S
N537 C529 1.427 . S
N537 C535 1.384 . S
H538 C544 0.930 . S
H539 C548 0.930 . S
H540 C553 0.929 . S
H541 C551 0.929 . S
H542 C546 0.929 . S
H543 C552 0.929 . S
C544 H538 0.930 . S
C544 C545 1.367 . S
C544 C552 1.378 . S
C545 C544 1.367 . S
C545 C553 1.433 . S
C546 H542 0.929 . S
C546 C548 1.378 . S
C546 C550 1.350 . S
C547 C550 1.463 . S
C547 C552 1.350 . S
C547 N555 1.427 . S
C548 H539 0.930 . S
C548 C546 1.378 . S
C548 C549 1.367 . S
C549 C548 1.367 . S
C549 C551 1.433 . S
C550 C546 1.350 . S
C550 C547 1.463 . S
C550 N554 1.427 . S
C551 H541 0.929 . S
C551 C549 1.433 . S
C551 N554 1.384 . S
C552 H543 0.929 . S
C552 C544 1.378 . S
C552 C547 1.350 . S
C553 H540 0.929 . S
C553 C545 1.433 . S
C553 N555 1.384 . S
N554 C550 1.427 . S
N554 C551 1.384 . S
N555 C547 1.427 . S
N555 C553 1.384 . S
H556 C562 0.930 . S
H557 C566 0.930 . S
H558 C571 0.929 . S
H559 C569 0.929 . S
H560 C564 0.929 . S
H561 C570 0.929 . S
C562 H556 0.930 . S
C562 C563 1.367 1_545 S
C562 C570 1.378 . S
C563 C562 1.367 1_565 S
C563 C571 1.433 . S
C564 H560 0.929 . S
C564 C566 1.378 . S
C564 C568 1.350 1_565 S
C565 C568 1.463 . S
C565 C570 1.350 . S
C565 N573 1.427 1_545 S
C566 H557 0.930 . S
C566 C564 1.378 . S
C566 C567 1.367 1_565 S
C567 C566 1.367 1_545 S
C567 C569 1.433 . S
C568 C564 1.350 1_545 S
C568 C565 1.463 . S
C568 N572 1.427 . S
C569 H559 0.929 . S
C569 C567 1.433 . S
C569 N572 1.384 . S
C570 H561 0.929 . S
C570 C562 1.378 . S
C570 C565 1.350 . S
C571 H558 0.929 . S
C571 C563 1.433 . S
C571 N573 1.384 . S
N572 C568 1.427 . S
N572 C569 1.384 . S
N573 C565 1.427 1_565 S
N573 C571 1.384 . S
H574 C580 0.930 . S
H575 C584 0.930 1_565 S
H576 C589 0.929 . S
H577 C587 0.929 . S
H578 C582 0.929 . S
H579 C588 0.929 . S
C580 H574 0.930 . S
C580 C581 1.367 . S
C580 C588 1.378 . S
C581 C580 1.367 . S
C581 C589 1.433 . S
C582 H578 0.929 . S
C582 C584 1.378 . S
C582 C586 1.350 . S
C583 C586 1.463 . S
C583 C588 1.350 . S
C583 N591 1.427 . S
C584 H575 0.930 1_545 S
C584 C582 1.378 . S
C584 C585 1.367 . S
C585 C584 1.367 . S
C585 C587 1.433 . S
C586 C582 1.350 . S
C586 C583 1.463 . S
C586 N590 1.427 . S
C587 H577 0.929 . S
C587 C585 1.433 . S
C587 N590 1.384 . S
C588 H579 0.929 . S
C588 C580 1.378 . S
C588 C583 1.350 . S
C589 H576 0.929 . S
C589 C581 1.433 . S
C589 N591 1.384 . S
N590 C586 1.427 . S
N590 C587 1.384 . S
N591 C583 1.427 . S
N591 C589 1.384 . S
H592 C598 0.930 . S
H593 C602 0.930 . S
H594 C607 0.929 . S
H595 C605 0.929 . S
H596 C600 0.929 . S
H597 C606 0.929 . S
C598 H592 0.930 . S
C598 C599 1.367 . S
C598 C606 1.378 . S
C599 C598 1.367 . S
C599 C607 1.433 . S
C600 H596 0.929 . S
C600 C602 1.378 . S
C600 C604 1.350 . S
C601 C604 1.463 . S
C601 C606 1.350 . S
C601 N609 1.427 . S
C602 H593 0.930 . S
C602 C600 1.378 . S
C602 C603 1.367 . S
C603 C602 1.367 . S
C603 C605 1.433 . S
C604 C600 1.350 . S
C604 C601 1.463 . S
C604 N608 1.427 . S
C605 H595 0.929 . S
C605 C603 1.433 . S
C605 N608 1.384 . S
C606 H597 0.929 . S
C606 C598 1.378 . S
C606 C601 1.350 . S
C607 H594 0.929 . S
C607 C599 1.433 . S
C607 N609 1.384 . S
N608 C604 1.427 . S
N608 C605 1.384 . S
N609 C601 1.427 . S
N609 C607 1.384 . S
H610 C616 0.930 . S
H611 C620 0.930 . S
H612 C625 0.929 . S
H613 C623 0.929 . S
H614 C618 0.929 . S
H615 C624 0.929 . S
C616 H610 0.930 . S
C616 C617 1.367 . S
C616 C624 1.378 . S
C617 C616 1.367 . S
C617 C625 1.433 . S
C618 H614 0.929 . S
C618 C620 1.378 . S
C618 C622 1.350 . S
C619 C622 1.463 . S
C619 C624 1.350 . S
C619 N627 1.427 . S
C620 H611 0.930 . S
C620 C618 1.378 . S
C620 C621 1.367 . S
C621 C620 1.367 . S
C621 C623 1.433 . S
C622 C618 1.350 . S
C622 C619 1.463 . S
C622 N626 1.427 . S
C623 H613 0.929 . S
C623 C621 1.433 . S
C623 N626 1.384 . S
C624 H615 0.929 . S
C624 C616 1.378 . S
C624 C619 1.350 . S
C625 H612 0.929 . S
C625 C617 1.433 . S
C625 N627 1.384 . S
N626 C622 1.427 . S
N626 C623 1.384 . S
N627 C619 1.427 . S
N627 C625 1.384 . S
H628 C634 0.930 . S
H629 C638 0.930 . S
H630 C643 0.929 . S
H631 C641 0.929 . S
H632 C636 0.929 . S
H633 C642 0.929 . S
C634 H628 0.930 . S
C634 C635 1.367 1_544 S
C634 C642 1.378 . S
C635 C634 1.367 1_566 S
C635 C643 1.433 . S
C636 H632 0.929 . S
C636 C638 1.378 . S
C636 C640 1.350 1_556 S
C637 C640 1.463 . S
C637 C642 1.350 1_565 S
C637 N645 1.427 1_554 S
C638 H629 0.930 . S
C638 C636 1.378 . S
C638 C639 1.367 1_556 S
C639 C638 1.367 1_554 S
C639 C641 1.433 1_565 S
C640 C636 1.350 1_554 S
C640 C637 1.463 . S
C640 N644 1.427 1_565 S
C641 H631 0.929 . S
C641 C639 1.433 1_545 S
C641 N644 1.384 . S
C642 H633 0.929 . S
C642 C634 1.378 . S
C642 C637 1.350 1_545 S
C643 H630 0.929 . S
C643 C635 1.433 . S
C643 N645 1.384 . S
N644 C640 1.427 1_545 S
N644 C641 1.384 . S
N645 C637 1.427 1_556 S
N645 C643 1.384 . S
H646 C652 0.930 . S
H647 C656 0.930 . S
H648 C661 0.929 . S
H649 C659 0.929 . S
H650 C654 0.929 . S
H651 C660 0.929 . S
C652 H646 0.930 . S
C652 C653 1.367 . S
C652 C660 1.378 . S
C653 C652 1.367 . S
C653 C661 1.433 . S
C654 H650 0.929 . S
C654 C656 1.378 . S
C654 C658 1.350 . S
C655 C658 1.463 . S
C655 C660 1.350 . S
C655 N663 1.427 . S
C656 H647 0.930 . S
C656 C654 1.378 . S
C656 C657 1.367 . S
C657 C656 1.367 . S
C657 C659 1.433 . S
C658 C654 1.350 . S
C658 C655 1.463 . S
C658 N662 1.427 . S
C659 H649 0.929 . S
C659 C657 1.433 . S
C659 N662 1.384 . S
C660 H651 0.929 . S
C660 C652 1.378 . S
C660 C655 1.350 . S
C661 H648 0.929 . S
C661 C653 1.433 . S
C661 N663 1.384 . S
N662 C658 1.427 . S
N662 C659 1.384 . S
N663 C655 1.427 . S
N663 C661 1.384 . S
H664 C670 0.930 . S
H665 C674 0.930 1_556 S
H666 C679 0.929 . S
H667 C677 0.929 . S
H668 C672 0.929 1_556 S
H669 C678 0.929 . S
C670 H664 0.930 . S
C670 C671 1.367 . S
C670 C678 1.378 . S
C671 C670 1.367 . S
C671 C679 1.433 . S
C672 H668 0.929 1_554 S
C672 C674 1.378 . S
C672 C676 1.350 . S
C673 C676 1.463 . S
C673 C678 1.350 . S
C673 N681 1.427 . S
C674 H665 0.930 1_554 S
C674 C672 1.378 . S
C674 C675 1.367 . S
C675 C674 1.367 . S
C675 C677 1.433 . S
C676 C672 1.350 . S
C676 C673 1.463 . S
C676 N680 1.427 . S
C677 H667 0.929 . S
C677 C675 1.433 . S
C677 N680 1.384 . S
C678 H669 0.929 . S
C678 C670 1.378 . S
C678 C673 1.350 . S
C679 H666 0.929 . S
C679 C671 1.433 . S
C679 N681 1.384 . S
N680 C676 1.427 . S
N680 C677 1.384 . S
N681 C673 1.427 . S
N681 C679 1.384 . S
H682 C688 0.930 . S
H683 C692 0.930 . S
H684 C697 0.929 . S
H685 C695 0.929 . S
H686 C690 0.929 . S
H687 C696 0.929 . S
C688 H682 0.930 . S
C688 C689 1.367 . S
C688 C696 1.378 . S
C689 C688 1.367 . S
C689 C697 1.433 . S
C690 H686 0.929 . S
C690 C692 1.378 . S
C690 C694 1.350 . S
C691 C694 1.463 . S
C691 C696 1.350 . S
C691 N699 1.427 . S
C692 H683 0.930 . S
C692 C690 1.378 . S
C692 C693 1.367 . S
C693 C692 1.367 . S
C693 C695 1.433 . S
C694 C690 1.350 . S
C694 C691 1.463 . S
C694 N698 1.427 . S
C695 H685 0.929 . S
C695 C693 1.433 . S
C695 N698 1.384 . S
C696 H687 0.929 . S
C696 C688 1.378 . S
C696 C691 1.350 . S
C697 H684 0.929 . S
C697 C689 1.433 . S
C697 N699 1.384 . S
N698 C694 1.427 . S
N698 C695 1.384 . S
N699 C691 1.427 . S
N699 C697 1.384 . S
H700 C706 0.930 . S
H701 C710 0.930 . S
H702 C715 0.929 . S
H703 C713 0.929 . S
H704 C708 0.929 . S
H705 C714 0.929 . S
C706 H700 0.930 . S
C706 C707 1.367 1_454 S
C706 C714 1.378 . S
C707 C706 1.367 1_656 S
C707 C715 1.433 . S
C708 H704 0.929 . S
C708 C710 1.378 . S
C708 C712 1.367 . S
C709 C712 1.466 . S
C709 C714 1.350 1_656 S
C709 N717 1.427 . S
C710 H701 0.930 . S
C710 C708 1.378 . S
C710 C711 1.367 1_655 S
C711 C710 1.367 1_455 S
C711 C713 1.433 1_556 S
C712 C708 1.367 . S
C712 C709 1.466 . S
C712 N716 1.407 1_656 S
C713 H703 0.929 . S
C713 C711 1.433 1_554 S
C713 N716 1.384 . S
C714 H705 0.929 . S
C714 C706 1.378 . S
C714 C709 1.350 1_454 S
C715 H702 0.929 . S
C715 C707 1.433 . S
C715 N717 1.384 . S
N716 C712 1.407 1_454 S
N716 C713 1.384 . S
N717 C709 1.427 . S
N717 C715 1.384 . S
H718 C724 0.930 . S
H719 C728 0.930 . S
H720 C733 0.929 . S
H721 C731 0.929 . S
H722 C726 0.929 . S
H723 C732 0.929 . S
C724 H718 0.930 . S
C724 C725 1.367 . S
C724 C732 1.378 . S
C725 C724 1.367 . S
C725 C733 1.433 . S
C726 H722 0.929 . S
C726 C728 1.378 . S
C726 C730 1.350 . S
C727 C730 1.463 . S
C727 C732 1.350 . S
C727 N735 1.427 . S
C728 H719 0.930 . S
C728 C726 1.378 . S
C728 C729 1.367 . S
C729 C728 1.367 . S
C729 C731 1.433 . S
C730 C726 1.350 . S
C730 C727 1.463 . S
C730 N734 1.427 . S
C731 H721 0.929 . S
C731 C729 1.433 . S
C731 N734 1.384 . S
C732 H723 0.929 . S
C732 C724 1.378 . S
C732 C727 1.350 . S
C733 H720 0.929 . S
C733 C725 1.433 . S
C733 N735 1.384 . S
N734 C730 1.427 . S
N734 C731 1.384 . S
N735 C727 1.427 . S
N735 C733 1.384 . S
H736 C742 0.933 1_655 S
H737 C746 0.930 . S
H738 C751 0.929 . S
H739 C749 0.929 . S
H740 C744 0.929 . S
H741 C750 0.929 1_655 S
C742 H736 0.933 1_455 S
C742 C743 1.367 . S
C742 C750 1.378 . S
C743 C742 1.367 . S
C743 C751 1.433 . S
C744 H740 0.929 . S
C744 C746 1.378 . S
C744 C748 1.350 . S
C745 C748 1.463 . S
C745 C750 1.350 . S
C745 N753 1.427 . S
C746 H737 0.930 . S
C746 C744 1.378 . S
C746 C747 1.367 . S
C747 C746 1.367 . S
C747 C749 1.433 1_455 S
C748 C744 1.350 . S
C748 C745 1.463 . S
C748 N752 1.427 . S
C749 H739 0.929 . S
C749 C747 1.433 1_655 S
C749 N752 1.384 1_655 S
C750 H741 0.929 1_455 S
C750 C742 1.378 . S
C750 C745 1.350 . S
C751 H738 0.929 . S
C751 C743 1.433 . S
C751 N753 1.384 . S
N752 C748 1.427 . S
N752 C749 1.384 1_455 S
N753 C745 1.427 . S
N753 C751 1.384 . S
H754 C760 0.930 . S
H755 C764 0.930 . S
H756 C769 0.929 . S
H757 C767 0.929 . S
H758 C762 0.929 . S
H759 C768 0.929 . S
C760 H754 0.930 . S
C760 C761 1.367 . S
C760 C768 1.378 . S
C761 C760 1.367 . S
C761 C769 1.433 . S
C762 H758 0.929 . S
C762 C764 1.378 . S
C762 C766 1.350 . S
C763 C766 1.463 . S
C763 C768 1.350 . S
C763 N771 1.427 . S
C764 H755 0.930 . S
C764 C762 1.378 . S
C764 C765 1.367 . S
C765 C764 1.367 . S
C765 C767 1.433 . S
C766 C762 1.350 . S
C766 C763 1.463 . S
C766 N770 1.427 . S
C767 H757 0.929 . S
C767 C765 1.433 . S
C767 N770 1.384 . S
C768 H759 0.929 . S
C768 C760 1.378 . S
C768 C763 1.350 . S
C769 H756 0.929 . S
C769 C761 1.433 . S
C769 N771 1.384 . S
N770 C766 1.427 . S
N770 C767 1.384 . S
N771 C763 1.427 . S
N771 C769 1.384 . S
C347 C29 1.551 . S
C351 C259 1.483 . S
C365 C49 1.459 . S
C369 C293 1.374 1_565 S
C387 C305 1.413 . S
C383 C93 1.500 . S
C401 C119 1.445 . S
C405 C339 1.375 . S
C423 C296 1.420 . S
C419 C17 1.493 . S
C441 C276 1.441 . S
C437 C61 1.512 . S
C459 C323 1.368 . S
C455 C81 1.442 . S
C477 C314 1.427 . S
C473 C125 1.509 . S
C491 C23 1.478 . S
C495 C322 1.399 . S
C513 C284 1.366 . S
C509 C87 1.459 . S
C527 C113 1.515 . S
C531 C260 1.437 . S
C545 C55 1.480 . S
C549 C317 1.412 . S
C567 C275 1.552 . S
C563 C157 1.683 . S
C581 C189 1.523 . S
C585 C297 1.557 . S
C599 C221 1.708 . S
C603 C302 1.573 . S
C617 C253 1.548 . S
C621 C335 1.594 . S
C635 C145 1.737 . S
C639 C280 1.608 . S
C657 C272 1.559 . S
C653 C183 1.530 . S
C675 C326 1.582 . S
C671 C209 1.720 . S
C693 C318 1.535 . S
C689 C247 1.533 . S
C707 C151 1.686 . S
C711 C338 1.557 . S
C729 C281 1.564 . S
C725 C215 1.707 . S
C747 C263 1.582 . S
C743 C241 1.578 . S
C761 C177 1.591 . S
C765 C301 1.607 . S
