# Generated by pormake.
# Topology llj, (12,3)-cn, num edge types: 1
# Building blocks:
#     Node 0, Type 0, BuildingBlock: QEWDON_clean_sbu_0, # of connection points: 12
#     Node 1, Type 0, BuildingBlock: QEWDON_clean_sbu_0, # of connection points: 12
#     Node 2, Type 1, BuildingBlock: KAKCAD_clean_linker_0, # of connection points: 3
#     Node 3, Type 1, BuildingBlock: KAKCAD_clean_linker_0, # of connection points: 3
#     Node 4, Type 1, BuildingBlock: KAKCAD_clean_linker_0, # of connection points: 3
#     Node 5, Type 1, BuildingBlock: KAKCAD_clean_linker_0, # of connection points: 3
#     Node 6, Type 1, BuildingBlock: KAKCAD_clean_linker_0, # of connection points: 3
#     Node 7, Type 1, BuildingBlock: KAKCAD_clean_linker_0, # of connection points: 3
#     Node 8, Type 1, BuildingBlock: KAKCAD_clean_linker_0, # of connection points: 3
#     Node 9, Type 1, BuildingBlock: KAKCAD_clean_linker_0, # of connection points: 3
#     Edge 10, Type (0, 1), BuildingBlock: KIFKEQ_clean_linker_1, # of connection points: 2
#     Edge 11, Type (0, 1), BuildingBlock: KIFKEQ_clean_linker_1, # of connection points: 2
#     Edge 12, Type (0, 1), BuildingBlock: KIFKEQ_clean_linker_1, # of connection points: 2
#     Edge 13, Type (0, 1), BuildingBlock: KIFKEQ_clean_linker_1, # of connection points: 2
#     Edge 14, Type (0, 1), BuildingBlock: KIFKEQ_clean_linker_1, # of connection points: 2
#     Edge 15, Type (0, 1), BuildingBlock: KIFKEQ_clean_linker_1, # of connection points: 2
#     Edge 16, Type (0, 1), BuildingBlock: KIFKEQ_clean_linker_1, # of connection points: 2
#     Edge 17, Type (0, 1), BuildingBlock: KIFKEQ_clean_linker_1, # of connection points: 2
#     Edge 18, Type (0, 1), BuildingBlock: KIFKEQ_clean_linker_1, # of connection points: 2
#     Edge 19, Type (0, 1), BuildingBlock: KIFKEQ_clean_linker_1, # of connection points: 2
#     Edge 20, Type (0, 1), BuildingBlock: KIFKEQ_clean_linker_1, # of connection points: 2
#     Edge 21, Type (0, 1), BuildingBlock: KIFKEQ_clean_linker_1, # of connection points: 2
#     Edge 22, Type (0, 1), BuildingBlock: KIFKEQ_clean_linker_1, # of connection points: 2
#     Edge 23, Type (0, 1), BuildingBlock: KIFKEQ_clean_linker_1, # of connection points: 2
#     Edge 24, Type (0, 1), BuildingBlock: KIFKEQ_clean_linker_1, # of connection points: 2
#     Edge 25, Type (0, 1), BuildingBlock: KIFKEQ_clean_linker_1, # of connection points: 2
#     Edge 26, Type (0, 1), BuildingBlock: KIFKEQ_clean_linker_1, # of connection points: 2
#     Edge 27, Type (0, 1), BuildingBlock: KIFKEQ_clean_linker_1, # of connection points: 2
#     Edge 28, Type (0, 1), BuildingBlock: KIFKEQ_clean_linker_1, # of connection points: 2
#     Edge 29, Type (0, 1), BuildingBlock: KIFKEQ_clean_linker_1, # of connection points: 2
#     Edge 30, Type (0, 1), BuildingBlock: KIFKEQ_clean_linker_1, # of connection points: 2
#     Edge 31, Type (0, 1), BuildingBlock: KIFKEQ_clean_linker_1, # of connection points: 2
#     Edge 32, Type (0, 1), BuildingBlock: KIFKEQ_clean_linker_1, # of connection points: 2
#     Edge 33, Type (0, 1), BuildingBlock: KIFKEQ_clean_linker_1, # of connection points: 2
# Relax obj value: 0.011
# Max RMSD: 0.052
# Mean RMSD: 0.049
data_MOF--net-llj--node1-QEWDON_clean_sbu_0--node2-KAKCAD_clean_linker_0--edge1-KIFKEQ_clean_linker_1
_symmetry_space_group_name_H-M    P1
_symmetry_Int_Tables_number       1
_symmetry_cell_setting            triclinic
loop_
_symmetry_equiv_pos_as_xyz
'x, y, z'
_cell_length_a     45.957086
_cell_length_b     45.951724
_cell_length_c     32.035297
_cell_angle_alpha  89.870864
_cell_angle_beta   90.026348
_cell_angle_gamma 90.039735
loop_
_atom_site_label
_atom_site_type_symbol
_atom_site_fract_x
_atom_site_fract_y
_atom_site_fract_z
_atom_type_partial_charge
Zn0 Zn 0.93235 0.07127 0.97535 0.0
Zn1 Zn 0.93923 0.06865 0.06998 0.0
O2 O 0.96325 0.07592 0.01993 0.0
H3 H 0.97982 0.08883 0.01826 0.0
C4 C 0.93756 -0.00081 0.89474 0.0
O5 O 0.96471 0.00109 0.90726 0.0
Zn6 Zn 0.04551 0.93876 0.06286 0.0
Zn7 Zn 0.06034 0.94012 0.96555 0.0
O8 O 0.02717 0.94242 0.00703 0.0
H9 H 0.00685 0.93915 0.00087 0.0
Zn10 Zn 0.93498 0.96091 0.96675 0.0
O11 O 0.94817 0.98603 0.01454 0.0
Zn12 Zn 0.94411 0.96108 0.06522 0.0
H13 H 0.96127 0.00235 0.01137 0.0
Zn14 Zn 0.04193 0.03934 0.97472 0.0
O15 O 0.02862 0.0169 0.02538 0.0
H16 H 0.0149 0.00098 0.02474 0.0
Zn17 Zn 0.03597 0.04304 0.0739 0.0
C18 C 0.07698 0.00179 0.92359 0.0
O19 O 0.09291 0.00273 0.95764 0.0
O20 O 0.89243 0.08693 0.99476 0.0
O21 O 0.90016 0.08861 0.06338 0.0
O22 O 0.09695 0.92096 0.99054 0.0
O23 O 0.08471 0.91806 0.05776 0.0
O24 O 0.91448 0.9231 0.98512 0.0
O25 O 0.91747 0.92611 0.05441 0.0
C26 C 0.98792 0.07432 0.11929 0.0
O27 O 0.06796 0.07433 0.98899 0.0
O28 O 0.06311 0.07672 0.05803 0.0
O29 O 0.04785 0.92901 0.90548 0.0
C30 C 0.88406 0.09339 0.03158 0.0
O31 O 0.94795 0.08095 0.91632 0.0
C32 C 0.9916 0.92447 0.09914 0.0
O33 O 0.92002 0.98292 0.91466 0.0
C34 C 0.10248 0.9131 0.02793 0.0
O35 O 0.05307 0.01555 0.92264 0.0
C36 C 0.92732 0.01304 0.10965 0.0
O37 O 0.96182 0.08336 0.11941 0.0
O38 O 0.99634 0.05843 0.08927 0.0
C39 C 0.90871 0.91318 0.0214 0.0
O40 O 0.01785 0.91591 0.099 0.0
O41 O 0.98455 0.94625 0.07686 0.0
C42 C 0.05813 0.99252 0.11806 0.0
O43 O 0.92877 0.98553 0.11298 0.0
O44 O 0.93504 0.02526 0.07589 0.0
C45 C 0.07397 0.0862 0.02386 0.0
O46 O 0.05488 0.01995 0.1205 0.0
O47 O 0.04887 0.97977 0.08542 0.0
C48 C 0.02324 0.93881 0.8942 0.0
O49 O 0.00872 0.95552 0.92005 0.0
C50 C 0.9743 0.07332 0.91147 0.0
O51 O 0.9873 0.05905 0.94177 0.0
Zn52 Zn 0.45564 0.54754 0.47713 0.0
Zn53 Zn 0.45696 0.54642 0.5756 0.0
O54 O 0.4826 0.54039 0.52596 0.0
H55 H 0.50002 0.52866 0.52471 0.0
C56 C 0.40466 0.44991 0.39831 0.0
O57 O 0.38506 0.43683 0.42159 0.0
Zn58 Zn 0.53676 0.45872 0.57854 0.0
Zn59 Zn 0.53606 0.45478 0.47936 0.0
O60 O 0.51079 0.46372 0.52924 0.0
H61 H 0.49367 0.47588 0.52827 0.0
Zn62 Zn 0.43916 0.43932 0.47261 0.0
O63 O 0.43483 0.47109 0.51576 0.0
Zn64 Zn 0.43241 0.4494 0.56956 0.0
H65 H 0.42746 0.49038 0.51005 0.0
Zn66 Zn 0.56286 0.5705 0.47968 0.0
O67 O 0.56614 0.53702 0.5205 0.0
H68 H 0.57568 0.51858 0.51579 0.0
Zn69 Zn 0.56198 0.55824 0.5737 0.0
C70 C 0.55801 0.53432 0.40916 0.0
O71 O 0.54033 0.52209 0.43626 0.0
O72 O 0.42234 0.57532 0.49259 0.0
O73 O 0.4245 0.57518 0.56209 0.0
O74 O 0.57367 0.4329 0.49483 0.0
O75 O 0.57121 0.43244 0.56429 0.0
O76 O 0.42116 0.40044 0.49213 0.0
O77 O 0.41353 0.40991 0.55942 0.0
C78 C 0.50791 0.56487 0.62023 0.0
O79 O 0.58094 0.60841 0.50241 0.0
O80 O 0.58231 0.59737 0.57007 0.0
O81 O 0.51381 0.4413 0.42675 0.0
C82 C 0.41322 0.58416 0.52793 0.0
O83 O 0.47571 0.55399 0.42011 0.0
C84 C 0.48648 0.43794 0.62462 0.0
O85 O 0.43025 0.4531 0.41252 0.0
C86 C 0.58367 0.42509 0.53024 0.0
O87 O 0.57075 0.55783 0.4191 0.0
C88 C 0.41914 0.49999 0.61135 0.0
O89 O 0.48082 0.56048 0.62481 0.0
O90 O 0.51919 0.56159 0.58445 0.0
C91 C 0.41137 0.39307 0.52788 0.0
O92 O 0.51394 0.4412 0.62672 0.0
O93 O 0.47372 0.4458 0.59114 0.0
C94 C 0.56992 0.50703 0.61873 0.0
O95 O 0.40973 0.47406 0.61017 0.0
O96 O 0.43965 0.50716 0.5869 0.0
C97 C 0.58777 0.61476 0.53991 0.0
O98 O 0.57898 0.53314 0.61864 0.0
O99 O 0.55173 0.49909 0.59114 0.0
C100 C 0.49748 0.4191 0.43001 0.0
O101 O 0.49588 0.40555 0.46611 0.0
C102 C 0.48996 0.57754 0.41644 0.0
O103 O 0.49036 0.59582 0.44793 0.0
C104 C 0.35176 0.35184 0.87856 0.0
C105 C 0.38228 0.35362 0.87553 0.0
C106 C 0.3385 0.3421 0.91539 0.0
C107 C 0.35545 0.33386 0.95001 0.0
C108 C 0.38594 0.33501 0.94656 0.0
C109 C 0.39915 0.3449 0.90996 0.0
C110 C 0.34163 0.32484 0.99005 0.0
C111 C 0.31671 0.307 0.99063 0.0
C112 C 0.30459 0.2977 0.02872 0.0
C113 C 0.31719 0.30684 0.06644 0.0
C114 C 0.34187 0.32478 0.06633 0.0
C115 C 0.35387 0.33371 0.02819 0.0
C116 C 0.35578 0.33364 0.10597 0.0
C117 C 0.33949 0.34703 0.13764 0.0
C118 C 0.38571 0.32913 0.11193 0.0
C119 C 0.39915 0.33783 0.14893 0.0
C120 C 0.38301 0.35162 0.18039 0.0
C121 C 0.27964 0.27726 0.0293 0.0
C122 C 0.25429 0.28317 0.00627 0.0
C123 C 0.2812 0.2515 0.0529 0.0
C124 C 0.25802 0.23182 0.05306 0.0
C125 C 0.23262 0.23775 0.0302 0.0
C126 C 0.23084 0.26371 0.00706 0.0
C127 C 0.35307 0.35623 0.17443 0.0
H128 H 0.33807 0.35798 0.85249 0.0
H129 H 0.31497 0.34162 0.91702 0.0
H130 H 0.39972 0.32834 0.97228 0.0
H131 H 0.42266 0.34626 0.90909 0.0
H132 H 0.3074 0.29938 0.96155 0.0
H133 H 0.37266 0.34799 0.02836 0.0
H134 H 0.30806 0.29963 0.0959 0.0
H135 H 0.3164 0.35083 0.1336 0.0
H136 H 0.39867 0.31872 0.08801 0.0
H137 H 0.4223 0.33421 0.15269 0.0
H138 H 0.25256 0.30294 0.98797 0.0
H139 H 0.30059 0.24636 0.0707 0.0
H140 H 0.34017 0.36672 0.19836 0.0
H141 H 0.21154 0.26865 0.98897 0.0
H142 H 0.25988 0.212 0.07125 0.0
C143 C 0.64218 0.36788 0.87282 0.0
C144 C 0.64444 0.39805 0.86669 0.0
C145 C 0.64942 0.3556 0.9114 0.0
C146 C 0.65931 0.37327 0.94431 0.0
C147 C 0.66311 0.40324 0.93713 0.0
C148 C 0.65555 0.41551 0.89882 0.0
C149 C 0.66372 0.36097 0.98673 0.0
C150 C 0.67622 0.33339 0.99239 0.0
C151 C 0.6792 0.32129 0.03257 0.0
C152 C 0.66965 0.33731 0.06733 0.0
C153 C 0.6576 0.36512 0.06209 0.0
C154 C 0.65455 0.37666 0.02184 0.0
C155 C 0.64778 0.38235 0.09834 0.0
C156 C 0.62889 0.37022 0.12802 0.0
C157 C 0.65621 0.4116 0.10222 0.0
C158 C 0.64563 0.42857 0.1349 0.0
C159 C 0.62611 0.41674 0.16417 0.0
C160 C 0.69313 0.29237 0.03799 0.0
C161 C 0.68762 0.26984 0.00941 0.0
C162 C 0.71317 0.28752 0.07046 0.0
C163 C 0.72822 0.26118 0.07323 0.0
C164 C 0.72367 0.23926 0.04344 0.0
C165 C 0.70282 0.24362 0.012 0.0
C166 C 0.61801 0.38729 0.16049 0.0
H167 H 0.63352 0.35403 0.84848 0.0
H168 H 0.64604 0.33248 0.91598 0.0
H169 H 0.67137 0.41735 0.96145 0.0
H170 H 0.65789 0.43879 0.89452 0.0
H171 H 0.68424 0.32161 0.96549 0.0
H172 H 0.64416 0.39766 0.0179 0.0
H173 H 0.6717 0.32827 0.09847 0.0
H174 H 0.62185 0.3478 0.12537 0.0
H175 H 0.67102 0.42134 0.07988 0.0
H176 H 0.65286 0.45093 0.13727 0.0
H177 H 0.67185 0.27264 0.98458 0.0
H178 H 0.71816 0.30451 0.09272 0.0
H179 H 0.60272 0.37755 0.1821 0.0
H180 H 0.69865 0.22691 0.98896 0.0
H181 H 0.74442 0.25852 0.09751 0.0
C182 C 0.63397 0.6453 0.16913 0.0
C183 C 0.622 0.6172 0.17143 0.0
C184 C 0.64973 0.65403 0.13398 0.0
C185 C 0.65411 0.63475 0.10054 0.0
C186 C 0.64306 0.60624 0.10372 0.0
C187 C 0.627 0.59764 0.13864 0.0
C188 C 0.66852 0.64484 0.06148 0.0
C189 C 0.6921 0.6643 0.0627 0.0
C190 C 0.70436 0.67545 0.02569 0.0
C191 C 0.69331 0.66589 0.987 0.0
C192 C 0.67014 0.64591 0.98517 0.0
C193 C 0.65769 0.63597 0.02259 0.0
C194 C 0.65797 0.63592 0.94453 0.0
C195 C 0.65449 0.65532 0.91084 0.0
C196 C 0.6483 0.60703 0.93994 0.0
C197 C 0.63428 0.59813 0.90349 0.0
C198 C 0.63002 0.61775 0.87045 0.0
C199 C 0.72797 0.69775 0.02755 0.0
C200 C 0.72787 0.71925 0.05885 0.0
C201 C 0.75038 0.69827 -0.00239 0.0
C202 C 0.77168 0.72002 -0.00158 0.0
C203 C 0.77134 0.74149 0.02956 0.0
C204 C 0.74943 0.7407 0.06003 0.0
C205 C 0.64078 0.64626 0.87405 0.0
H206 H 0.63018 0.6609 0.19383 0.0
H207 H 0.65752 0.67626 0.13241 0.0
H208 H 0.64653 0.59062 0.07896 0.0
H209 H 0.61833 0.57572 0.13993 0.0
H210 H 0.701 0.67067 0.09263 0.0
H211 H 0.63871 0.622 0.0214 0.0
H212 H 0.70248 0.67423 0.95825 0.0
H213 H 0.66136 0.67779 0.91338 0.0
H214 H 0.65123 0.59129 0.96481 0.0
H215 H 0.62657 0.5759 0.90121 0.0
H216 H 0.71071 0.72002 0.08197 0.0
H217 H 0.75158 0.68182 0.97352 0.0
H218 H 0.6376 0.66185 0.84905 0.0
H219 H 0.74846 0.75722 0.08406 0.0
H220 H 0.78852 0.72001 0.97478 0.0
C221 C 0.31894 0.58487 0.14894 0.0
C222 C 0.34762 0.57455 0.15358 0.0
C223 C 0.31194 0.60456 0.11717 0.0
C224 C 0.33333 0.614 0.08899 0.0
C225 C 0.36197 0.60391 0.09361 0.0
C226 C 0.36909 0.58458 0.12572 0.0
C227 C 0.32556 0.63329 0.05368 0.0
C228 C 0.3097 0.65899 0.06028 0.0
C229 C 0.30196 0.67698 0.02646 0.0
C230 C 0.30961 0.66845 0.98576 0.0
C231 C 0.32556 0.64293 0.97887 0.0
C232 C 0.33369 0.62561 0.01298 0.0
C233 C 0.33346 0.63405 0.93601 0.0
C234 C 0.31223 0.63279 0.90449 0.0
C235 C 0.36219 0.62598 0.9267 0.0
C236 C 0.36951 0.6165 0.88672 0.0
C237 C 0.34817 0.61455 0.85543 0.0
C238 C 0.28596 0.70468 0.03322 0.0
C239 C 0.26316 0.70639 0.06239 0.0
C240 C 0.2929 0.7295 0.00944 0.0
C241 C 0.27668 0.75499 0.01341 0.0
C242 C 0.25331 0.75637 0.04153 0.0
C243 C 0.24704 0.73204 0.0666 0.0
C244 C 0.31948 0.6229 0.86459 0.0
H245 H 0.30171 0.57733 0.16929 0.0
H246 H 0.28961 0.61177 0.11389 0.0
H247 H 0.3789 0.6111 0.07244 0.0
H248 H 0.39152 0.5777 0.12882 0.0
H249 H 0.30405 0.66526 0.09184 0.0
H250 H 0.34557 0.60556 0.0077 0.0
H251 H 0.30322 0.6817 0.95927 0.0
H252 H 0.28989 0.63875 0.91102 0.0
H253 H 0.37896 0.62692 0.95045 0.0
H254 H 0.39173 0.6099 0.88059 0.0
H255 H 0.25709 0.68762 0.08096 0.0
H256 H 0.31079 0.72919 0.98744 0.0
H257 H 0.30267 0.62164 0.84096 0.0
H258 H 0.22896 0.73246 0.08827 0.0
H259 H 0.28225 0.77359 0.99416 0.0
C260 C 0.85438 0.83787 0.34699 0.0
C261 C 0.88399 0.83677 0.33605 0.0
C262 C 0.84567 0.83352 0.38832 0.0
C263 C 0.86636 0.82774 0.41964 0.0
C264 C 0.8958 0.82534 0.40835 0.0
C265 C 0.90452 0.82995 0.36715 0.0
C266 C 0.85745 0.8256 0.46415 0.0
C267 C 0.83135 0.81174 0.47538 0.0
C268 C 0.82214 0.8108 0.51723 0.0
C269 C 0.8397 0.82362 0.54807 0.0
C270 C 0.86616 0.83702 0.53751 0.0
C271 C 0.87475 0.8381 0.49553 0.0
C272 C 0.88492 0.84983 0.57034 0.0
C273 C 0.87283 0.86723 0.60185 0.0
C274 C 0.91502 0.84443 0.57062 0.0
C275 C 0.93262 0.85588 0.60214 0.0
C276 C 0.9205 0.87316 0.63379 0.0
C277 C 0.79446 0.79601 0.52864 0.0
C278 C 0.77 0.798 0.50242 0.0
C279 C 0.79247 0.77916 0.56523 0.0
C280 C 0.76691 0.7641 0.57478 0.0
C281 C 0.74282 0.76522 0.54774 0.0
C282 C 0.74458 0.78268 0.51171 0.0
C283 C 0.89045 0.87884 0.63319 0.0
H284 H 0.83794 0.84267 0.32376 0.0
H285 H 0.82282 0.8357 0.39592 0.0
H286 H 0.91224 0.82039 0.43152 0.0
H287 H 0.92755 0.82925 0.36012 0.0
H288 H 0.81848 0.80112 0.45152 0.0
H289 H 0.89462 0.84944 0.48726 0.0
H290 H 0.83289 0.82307 0.58043 0.0
H291 H 0.84974 0.87195 0.6022 0.0
H292 H 0.92488 0.83092 0.54685 0.0
H293 H 0.95574 0.85129 0.60169 0.0
H294 H 0.77056 0.8112 0.47438 0.0
H295 H 0.81092 0.7769 0.58601 0.0
H296 H 0.88044 0.89182 0.65743 0.0
H297 H 0.72664 0.78383 0.48983 0.0
H298 H 0.76621 0.75124 0.60313 0.0
C299 C 0.15212 0.86049 0.36902 0.0
C300 C 0.15179 0.89085 0.36336 0.0
C301 C 0.16201 0.84835 0.40651 0.0
C302 C 0.17164 0.86634 0.43913 0.0
C303 C 0.172 0.89663 0.43302 0.0
C304 C 0.16215 0.90874 0.39564 0.0
C305 C 0.1803 0.85383 0.48004 0.0
C306 C 0.19778 0.82877 0.4824 0.0
C307 C 0.20648 0.81764 0.52134 0.0
C308 C 0.19698 0.83123 0.55804 0.0
C309 C 0.17928 0.856 0.55612 0.0
C310 C 0.17113 0.86723 0.51715 0.0
C311 C 0.16935 0.87031 0.59482 0.0
C312 C 0.15582 0.85403 0.62647 0.0
C313 C 0.17307 0.90041 0.60005 0.0
C314 C 0.16344 0.91403 0.63641 0.0
C315 C 0.14954 0.89783 0.66782 0.0
C316 C 0.22652 0.79256 0.52391 0.0
C317 C 0.22041 0.7666 0.50257 0.0
C318 C 0.25204 0.79459 0.54786 0.0
C319 C 0.27133 0.77121 0.55003 0.0
C320 C 0.26523 0.74522 0.52883 0.0
C321 C 0.2395 0.74298 0.50535 0.0
C322 C 0.14576 0.86773 0.66255 0.0
H323 H 0.14458 0.8461 0.34456 0.0
H324 H 0.16136 0.82493 0.41037 0.0
H325 H 0.17969 0.91107 0.45734 0.0
H326 H 0.16194 0.93222 0.39252 0.0
H327 H 0.20552 0.81857 0.45402 0.0
H328 H 0.15707 0.88615 0.51579 0.0
H329 H 0.20361 0.82269 0.58816 0.0
H330 H 0.1526 0.8308 0.62297 0.0
H331 H 0.18359 0.91335 0.57611 0.0
H332 H 0.16644 0.9373 0.63971 0.0
H333 H 0.20079 0.76454 0.48405 0.0
H334 H 0.25727 0.81446 0.56439 0.0
H335 H 0.13523 0.85479 0.6865 0.0
H336 H 0.23449 0.72318 0.48851 0.0
H337 H 0.29101 0.77339 0.5684 0.0
C338 C 0.10915 0.15825 0.66022 0.0
C339 C 0.09508 0.13115 0.66268 0.0
C340 C 0.12663 0.16509 0.6259 0.0
C341 C 0.13055 0.14487 0.59351 0.0
C342 C 0.11691 0.11754 0.59651 0.0
C343 C 0.09927 0.11081 0.63063 0.0
C344 C 0.14768 0.15271 0.55582 0.0
C345 C 0.17347 0.16901 0.55905 0.0
C346 C 0.18884 0.17766 0.52309 0.0
C347 C 0.17815 0.16957 0.48361 0.0
C348 C 0.15286 0.1527 0.4801 0.0
C349 C 0.13772 0.14451 0.51618 0.0
C350 C 0.14153 0.14392 0.43886 0.0
C351 C 0.13601 0.16479 0.40782 0.0
C352 C 0.13435 0.11472 0.43147 0.0
C353 C 0.12094 0.1066 0.39424 0.0
C354 C 0.114 0.12761 0.36383 0.0
C355 C 0.21576 0.19547 0.52671 0.0
C356 C 0.21785 0.21761 0.55684 0.0
C357 C 0.23937 0.19088 0.49957 0.0
C358 C 0.26412 0.20846 0.50181 0.0
C359 C 0.26596 0.23076 0.53157 0.0
C360 C 0.24275 0.23495 0.55938 0.0
C361 C 0.12222 0.15673 0.37068 0.0
H362 H 0.10611 0.17441 0.6844 0.0
H363 H 0.13645 0.18649 0.62426 0.0
H364 H 0.1199 0.10127 0.57248 0.0
H365 H 0.0891 0.08956 0.63213 0.0
H366 H 0.18177 0.17458 0.58966 0.0
H367 H 0.11753 0.13247 0.51312 0.0
H368 H 0.18937 0.17641 0.4555 0.0
H369 H 0.14121 0.18749 0.41303 0.0
H370 H 0.13876 0.09821 0.45483 0.0
H371 H 0.11561 0.08388 0.38958 0.0
H372 H 0.19994 0.2221 0.57781 0.0
H373 H 0.23877 0.17366 0.47655 0.0
H374 H 0.11697 0.17353 0.34814 0.0
H375 H 0.24345 0.25228 0.58223 0.0
H376 H 0.28186 0.20462 0.48026 0.0
C377 C 0.83898 0.13092 0.6505 0.0
C378 C 0.86842 0.12301 0.65411 0.0
C379 C 0.82931 0.14701 0.61613 0.0
C380 C 0.84886 0.1553 0.58457 0.0
C381 C 0.8784 0.14796 0.58867 0.0
C382 C 0.8881 0.13204 0.62313 0.0
C383 C 0.83826 0.17014 0.54636 0.0
C384 C 0.81858 0.19338 0.54884 0.0
C385 C 0.80768 0.20671 0.51245 0.0
C386 C 0.81716 0.19657 0.47323 0.0
C387 C 0.83712 0.17345 0.47028 0.0
C388 C 0.8473 0.16032 0.50709 0.0
C389 C 0.84687 0.16213 0.42909 0.0
C390 C 0.82724 0.15916 0.39571 0.0
C391 C 0.87571 0.15268 0.42366 0.0
C392 C 0.88437 0.13933 0.38662 0.0
C393 C 0.86454 0.13547 0.35365 0.0
C394 C 0.78618 0.2309 0.51552 0.0
C395 C 0.76466 0.23067 0.54682 0.0
C396 C 0.78685 0.25436 0.48719 0.0
C397 C 0.76637 0.27676 0.48983 0.0
C398 C 0.74504 0.27646 0.52119 0.0
C399 C 0.74449 0.2533 0.5498 0.0
C400 C 0.83601 0.1461 0.35836 0.0
H401 H 0.82338 0.12452 0.67414 0.0
H402 H 0.80638 0.15222 0.61363 0.0
H403 H 0.89398 0.15428 0.56495 0.0
H404 H 0.91087 0.12611 0.62493 0.0
H405 H 0.81213 0.20133 0.57928 0.0
H406 H 0.86165 0.14166 0.50525 0.0
H407 H 0.80887 0.2065 0.44496 0.0
H408 H 0.80481 0.16603 0.39882 0.0
H409 H 0.8916 0.15511 0.4484 0.0
H410 H 0.90642 0.13121 0.38452 0.0
H411 H 0.76302 0.21274 0.56868 0.0
H412 H 0.80337 0.25562 0.46318 0.0
H413 H 0.82026 0.14403 0.3334 0.0
H414 H 0.728 0.25235 0.57393 0.0
H415 H 0.76741 0.29454 0.4676 0.0
H416 H 0.08452 0.12533 0.08689 0.0
H417 H 0.11214 0.1015 0.96257 0.0
H418 H 0.12203 0.16334 0.08857 0.0
H419 H 0.14962 0.13898 0.96477 0.0
H420 H 0.23584 0.17992 0.01319 0.0
H421 H 0.19613 0.14446 0.01188 0.0
H422 H 0.13517 0.21186 0.04545 0.0
H423 H 0.175 0.24758 0.04616 0.0
C424 C 0.09845 0.12825 0.05993 0.0
C425 C 0.09537 0.11034 0.02464 0.0
C426 C 0.1198 0.15004 0.06087 0.0
C427 C 0.13875 0.15389 0.02688 0.0
C428 C 0.13542 0.13627 0.99149 0.0
C429 C 0.11384 0.11491 0.99023 0.0
C430 C 0.21397 0.18712 0.02037 0.0
C431 C 0.20842 0.21643 0.02972 0.0
C432 C 0.19128 0.16691 0.01944 0.0
C433 C 0.16265 0.1755 0.02854 0.0
C434 C 0.1571 0.20473 0.0385 0.0
C435 C 0.17977 0.22511 0.03864 0.0
H436 H 0.86628 0.12531 0.09869 0.0
H437 H 0.83865 0.09624 0.97678 0.0
H438 H 0.82385 0.15672 0.10301 0.0
H439 H 0.79539 0.12652 0.98191 0.0
H440 H 0.75168 0.2161 0.97681 0.0
H441 H 0.78666 0.17663 0.97633 0.0
H442 H 0.77306 0.16348 0.10865 0.0
H443 H 0.73855 0.20396 0.10911 0.0
C444 C 0.85077 0.12512 0.07322 0.0
C445 C 0.85609 0.10875 0.03704 0.0
C446 C 0.82627 0.14301 0.0758 0.0
C447 C 0.80634 0.14456 0.04251 0.0
C448 C 0.81068 0.12653 0.00763 0.0
C449 C 0.8354 0.10902 0.00476 0.0
C450 C 0.75576 0.20442 0.00563 0.0
C451 C 0.74244 0.21309 0.04299 0.0
C452 C 0.77577 0.18165 0.0054 0.0
C453 C 0.78276 0.16674 0.04248 0.0
C454 C 0.76857 0.17476 0.07965 0.0
C455 C 0.74874 0.19784 0.07994 0.0
H456 H 0.87737 0.89356 0.08871 0.0
H457 H 0.90033 0.87188 0.96183 0.0
H458 H 0.84508 0.85143 0.09154 0.0
H459 H 0.86953 0.82906 0.96524 0.0
H460 H 0.78666 0.77604 0.96418 0.0
H461 H 0.8207 0.81656 0.96381 0.0
H462 H 0.83997 0.80068 0.09411 0.0
H463 H 0.80466 0.7609 0.09458 0.0
C464 C 0.87582 0.87956 0.06163 0.0
C465 C 0.89104 0.88632 0.02483 0.0
C466 C 0.85744 0.85525 0.06329 0.0
C467 C 0.85427 0.83688 0.0284 0.0
C468 C 0.8706 0.84308 0.99231 0.0
C469 C 0.8885 0.86759 0.99043 0.0
C470 C 0.79834 0.78114 0.99262 0.0
C471 C 0.79311 0.76532 0.02935 0.0
C472 C 0.81803 0.8043 0.99246 0.0
C473 C 0.8334 0.81195 0.02889 0.0
C474 C 0.82829 0.79582 0.06561 0.0
C475 C 0.80819 0.77291 0.06589 0.0
H476 H 0.11236 0.87553 0.09263 0.0
H477 H 0.15178 0.91038 0.98079 0.0
H478 H 0.15155 0.84016 0.09861 0.0
H479 H 0.19178 0.87606 0.98785 0.0
H480 H 0.23016 0.78509 0.97532 0.0
H481 H 0.197 0.82612 0.97588 0.0
H482 H 0.20084 0.82816 0.11077 0.0
H483 H 0.23347 0.78611 0.10994 0.0
C484 C 0.12982 0.87613 0.06993 0.0
C485 C 0.12875 0.89539 0.03584 0.0
C486 C 0.15241 0.8559 0.07345 0.0
C487 C 0.17464 0.85482 0.04327 0.0
C488 C 0.17459 0.87562 0.01095 0.0
C489 C 0.15177 0.89547 0.00705 0.0
C490 C 0.22421 0.79455 0.00506 0.0
C491 C 0.23442 0.78247 0.04257 0.0
C492 C 0.20529 0.81824 0.00545 0.0
C493 C 0.19631 0.83073 0.04338 0.0
C494 C 0.20698 0.81892 0.08099 0.0
C495 C 0.22571 0.7949 0.08058 0.0
H496 H 0.61645 0.62992 0.61152 0.0
H497 H 0.59772 0.66007 0.48638 0.0
H498 H 0.65073 0.67004 0.62057 0.0
H499 H 0.63189 0.70008 0.49566 0.0
H500 H 0.68535 0.77852 0.53309 0.0
H501 H 0.64362 0.74568 0.53729 0.0
H502 H 0.69939 0.67764 0.58465 0.0
H503 H 0.74115 0.70983 0.5792 0.0
C504 C 0.6192 0.64538 0.58624 0.0
C505 C 0.60471 0.64154 0.54796 0.0
C506 C 0.63888 0.66827 0.59144 0.0
C507 C 0.64411 0.68797 0.5587 0.0
C508 C 0.62815 0.68531 0.52151 0.0
C509 C 0.60873 0.66226 0.51612 0.0
C510 C 0.68872 0.75658 0.54448 0.0
C511 C 0.71673 0.74678 0.55542 0.0
C512 C 0.66479 0.73788 0.54711 0.0
C513 C 0.66831 0.70916 0.56128 0.0
C514 C 0.69596 0.69982 0.5742 0.0
C515 C 0.71992 0.71835 0.57112 0.0
H516 H 0.37681 0.59794 0.59284 0.0
H517 H 0.39732 0.6207 0.46514 0.0
H518 H 0.33967 0.63632 0.59411 0.0
H519 H 0.36076 0.65905 0.4669 0.0
H520 H 0.32296 0.74743 0.5115 0.0
H521 H 0.35791 0.7073 0.51245 0.0
H522 H 0.2899 0.64819 0.55076 0.0
H523 H 0.25468 0.68841 0.54917 0.0
C524 C 0.37337 0.61106 0.56512 0.0
C525 C 0.39 0.60637 0.52892 0.0
C526 C 0.3521 0.63285 0.56583 0.0
C527 C 0.3476 0.6506 0.53066 0.0
C528 C 0.36402 0.64573 0.49447 0.0
C529 C 0.38482 0.6237 0.49347 0.0
C530 C 0.31554 0.72588 0.52027 0.0
C531 C 0.28622 0.72089 0.5302 0.0
C532 C 0.33544 0.70298 0.52066 0.0
C533 C 0.32648 0.67479 0.53168 0.0
C534 C 0.29727 0.66982 0.54237 0.0
C535 C 0.27719 0.69269 0.5412 0.0
H536 H 0.37538 0.37641 0.5914 0.0
H537 H 0.41035 0.34736 0.47342 0.0
H538 H 0.34343 0.33431 0.59344 0.0
H539 H 0.37931 0.30445 0.47635 0.0
H540 H 0.29084 0.25848 0.46556 0.0
H541 H 0.32949 0.29461 0.46683 0.0
H542 H 0.33742 0.28361 0.6005 0.0
H543 H 0.29783 0.24812 0.59911 0.0
C544 C 0.37671 0.36068 0.56632 0.0
C545 C 0.39511 0.36544 0.53196 0.0
C546 C 0.35847 0.33638 0.56761 0.0
C547 C 0.3585 0.31605 0.53482 0.0
C548 C 0.37817 0.32 0.50164 0.0
C549 C 0.39612 0.34451 0.50008 0.0
C550 C 0.30116 0.26351 0.49509 0.0
C551 C 0.2913 0.25064 0.53225 0.0
C552 C 0.32344 0.28414 0.49587 0.0
C553 C 0.33665 0.29214 0.53381 0.0
C554 C 0.32742 0.2784 0.57083 0.0
C555 C 0.30484 0.25801 0.57008 0.0
H556 H 0.60141 0.389 0.59343 0.0
H557 H 0.62453 0.41809 0.46951 0.0
H558 H 0.6413 0.35409 0.59201 0.0
H559 H 0.66524 0.38441 0.46878 0.0
H560 H 0.71159 0.29763 0.45799 0.0
H561 H 0.67394 0.33472 0.46174 0.0
H562 H 0.69173 0.34593 0.59336 0.0
H563 H 0.72857 0.30776 0.58961 0.0
C564 C 0.61534 0.38828 0.56619 0.0
C565 C 0.60962 0.40605 0.5314 0.0
C566 C 0.63835 0.36835 0.5654 0.0
C567 C 0.65643 0.36608 0.53005 0.0
C568 C 0.65136 0.38487 0.49608 0.0
C569 C 0.62812 0.4044 0.4966 0.0
C570 C 0.70752 0.3082 0.48761 0.0
C571 C 0.72296 0.29987 0.52348 0.0
C572 C 0.68603 0.32961 0.48982 0.0
C573 C 0.67976 0.34358 0.52786 0.0
C574 C 0.69555 0.3354 0.56368 0.0
C575 C 0.71677 0.31364 0.56155 0.0
H576 H 0.01446 0.03757 0.17271 0.0
H577 H 0.00481 0.1285 0.14243 0.0
H578 H 0.04702 0.05012 0.23045 0.0
H579 H 0.03717 0.14134 0.20055 0.0
H580 H 0.11987 0.14778 0.28337 0.0
H581 H 0.09022 0.13499 0.2227 0.0
H582 H 0.04 0.07585 0.29889 0.0
H583 H 0.06885 0.08905 0.35956 0.0
C584 C 0.01981 0.06021 0.17817 0.0
C585 C 0.00782 0.08211 0.15308 0.0
C586 C 0.0381 0.06742 0.21132 0.0
C587 C 0.04468 0.0967 0.21978 0.0
C588 C 0.03273 0.11861 0.19434 0.0
C589 C 0.01416 0.11135 0.16141 0.0
C590 C 0.10238 0.1322 0.28724 0.0
C591 C 0.09687 0.11933 0.32634 0.0
C592 C 0.08549 0.12486 0.2525 0.0
C593 C 0.06296 0.10434 0.25615 0.0
C594 C 0.05757 0.09136 0.29507 0.0
C595 C 0.07421 0.09887 0.32979 0.0
H596 H 0.87946 0.04693 0.11353 0.0
H597 H 0.95397 0.01882 0.18476 0.0
H598 H 0.86417 0.0782 0.17141 0.0
H599 H 0.93887 0.05019 0.24285 0.0
H600 H 0.91755 0.13585 0.31373 0.0
H601 H 0.93283 0.106 0.25478 0.0
H602 H 0.84671 0.06897 0.24715 0.0
H603 H 0.83158 0.09769 0.30715 0.0
C604 C 0.89254 0.04764 0.14164 0.0
C605 C 0.91782 0.03077 0.14503 0.0
C606 C 0.88376 0.0653 0.17471 0.0
C607 C 0.90039 0.0666 0.21147 0.0
C608 C 0.9258 0.0497 0.2147 0.0
C609 C 0.9343 0.03165 0.18181 0.0
C610 C 0.90188 0.12117 0.29984 0.0
C611 C 0.87332 0.11916 0.31551 0.0
C612 C 0.91066 0.10417 0.26599 0.0
C613 C 0.89096 0.08517 0.24662 0.0
C614 C 0.86225 0.08367 0.26137 0.0
C615 C 0.85356 0.10031 0.2956 0.0
H616 H 0.95661 0.94931 0.1561 0.0
H617 H 0.98018 0.86644 0.10356 0.0
H618 H 0.92505 0.9252 0.20627 0.0
H619 H 0.94818 0.84176 0.15357 0.0
H620 H 0.92842 0.81296 0.2902 0.0
H621 H 0.94995 0.83234 0.2267 0.0
H622 H 0.8824 0.8976 0.22022 0.0
H623 H 0.86205 0.87951 0.28528 0.0
C624 C 0.95393 0.92597 0.15424 0.0
C625 C 0.97012 0.90973 0.1256 0.0
C626 C 0.93599 0.91203 0.18311 0.0
C627 C 0.93393 0.88147 0.18394 0.0
C628 C 0.94948 0.86529 0.15409 0.0
C629 C 0.96766 0.87933 0.1254 0.0
C630 C 0.9181 0.8314 0.27519 0.0
C631 C 0.89384 0.845 0.29341 0.0
C632 C 0.9302 0.84227 0.23834 0.0
C633 C 0.91813 0.86681 0.21858 0.0
C634 C 0.89259 0.87903 0.2351 0.0
C635 C 0.88067 0.86837 0.27219 0.0
H636 H 0.0833 0.01574 0.18746 0.0
H637 H 0.0653 0.93338 0.12834 0.0
H638 H 0.10673 0.99033 0.24505 0.0
H639 H 0.08921 0.90801 0.18529 0.0
H640 H 0.10301 0.87438 0.32045 0.0
H641 H 0.0811 0.89818 0.26005 0.0
H642 H 0.15077 0.96131 0.25897 0.0
H643 H 0.17285 0.93739 0.31918 0.0
C644 C 0.08435 0.99221 0.18652 0.0
C645 C 0.07233 0.97661 0.15291 0.0
C646 C 0.09802 0.97767 0.21944 0.0
C647 C 0.09993 0.94716 0.21965 0.0
C648 C 0.08787 0.93154 0.18622 0.0
C649 C 0.07427 0.94613 0.15327 0.0
C650 C 0.11393 0.89303 0.3069 0.0
C651 C 0.13962 0.90405 0.32475 0.0
C652 C 0.10133 0.9067 0.27234 0.0
C653 C 0.11411 0.93174 0.25495 0.0
C654 C 0.14014 0.94237 0.27217 0.0
C655 C 0.15278 0.92865 0.30663 0.0
H656 H 0.12693 0.97021 0.91555 0.0
H657 H 0.04998 0.99692 0.84783 0.0
H658 H 0.14424 0.94445 0.85385 0.0
H659 H 0.06731 0.9709 0.78633 0.0
H660 H 0.0955 0.89386 0.70219 0.0
H661 H 0.07747 0.91862 0.76452 0.0
H662 H 0.16136 0.9593 0.78128 0.0
H663 H 0.17934 0.93469 0.71874 0.0
C664 C 0.11372 0.9706 0.88755 0.0
C665 C 0.08715 0.9857 0.88652 0.0
C666 C 0.12368 0.95591 0.85224 0.0
C667 C 0.10716 0.95581 0.81537 0.0
C668 C 0.0804 0.97055 0.81446 0.0
C669 C 0.07058 0.98551 0.84961 0.0
C670 C 0.11007 0.90799 0.7194 0.0
C671 C 0.13878 0.9124 0.70585 0.0
C672 C 0.09972 0.92224 0.75484 0.0
C673 C 0.11805 0.94074 0.77775 0.0
C674 C 0.14686 0.94493 0.76437 0.0
C675 C 0.15707 0.93105 0.72854 0.0
H676 H 0.95444 0.10154 0.84142 0.0
H677 H 0.03185 0.06477 0.89696 0.0
H678 H 0.98304 0.11662 0.78057 0.0
H679 H 0.06002 0.07916 0.83617 0.0
H680 H 0.10666 0.13968 0.7452 0.0
H681 H 0.07629 0.12642 0.80482 0.0
H682 H 0.01076 0.09281 0.72108 0.0
H683 H 0.04103 0.10644 0.66131 0.0
C684 C 0.97745 0.09648 0.84053 0.0
C685 C 0.99086 0.08172 0.87384 0.0
C686 C 0.99373 0.10496 0.80567 0.0
C687 C 0.02369 0.09907 0.80377 0.0
C688 C 0.03701 0.08425 0.837 0.0
C689 C 0.02078 0.07571 0.87163 0.0
C690 C 0.08566 0.12972 0.73955 0.0
C691 C 0.07623 0.12396 0.69871 0.0
C692 C 0.0684 0.12193 0.77362 0.0
C693 C 0.04128 0.10846 0.76749 0.0
C694 C 0.03153 0.10329 0.72663 0.0
C695 C 0.04893 0.11084 0.69253 0.0
H696 H 0.88186 0.01411 0.8753 0.0
H697 H 0.9705 0.02225 0.83206 0.0
H698 H 0.86525 0.04388 0.81698 0.0
H699 H 0.95382 0.05123 0.77276 0.0
H700 H 0.9174 0.12982 0.70159 0.0
H701 H 0.93418 0.09901 0.7588 0.0
H702 H 0.85923 0.04336 0.74252 0.0
H703 H 0.84226 0.07443 0.68577 0.0
C704 C 0.89774 0.022 0.853 0.0
C705 C 0.92747 0.01604 0.8583 0.0
C706 C 0.88823 0.03896 0.81947 0.0
C707 C 0.90821 0.05004 0.79025 0.0
C708 C 0.93792 0.04347 0.79511 0.0
C709 C 0.94746 0.02677 0.82894 0.0
C710 C 0.90459 0.11094 0.71019 0.0
C711 C 0.87845 0.1046 0.68934 0.0
C712 C 0.91426 0.09322 0.74284 0.0
C713 C 0.89809 0.06869 0.75522 0.0
C714 C 0.87198 0.06234 0.73424 0.0
C715 C 0.86223 0.08014 0.70174 0.0
H716 H 0.96861 0.95042 0.86642 0.0
H717 H 0.04877 0.90863 0.83024 0.0
H718 H 0.94654 0.93655 0.80072 0.0
H719 H 0.02664 0.89471 0.76371 0.0
H720 H 0.96212 0.84413 0.67828 0.0
H721 H 0.98935 0.86163 0.73858 0.0
H722 H 0.94774 0.94557 0.72673 0.0
H723 H 0.92025 0.92788 0.6668 0.0
C724 C 0.98172 0.93876 0.84407 0.0
C725 C 0.01052 0.93095 0.85338 0.0
C726 C 0.96907 0.93079 0.80626 0.0
C727 C 0.98489 0.91468 0.77677 0.0
C728 C 0.01383 0.90697 0.7859 0.0
C729 C 0.02652 0.91502 0.82388 0.0
C730 C 0.95915 0.86645 0.6882 0.0
C731 C 0.93887 0.88457 0.6681 0.0
C732 C 0.9748 0.87651 0.72269 0.0
C733 C 0.97056 0.90493 0.73767 0.0
C734 C 0.95109 0.92338 0.71648 0.0
C735 C 0.93535 0.91327 0.68216 0.0
H736 H 0.51184 0.53482 0.69309 0.0
H737 H 0.54481 0.61027 0.62849 0.0
H738 H 0.54323 0.54567 0.75267 0.0
H739 H 0.57531 0.62219 0.68835 0.0
H740 H 0.64471 0.62432 0.78828 0.0
H741 H 0.61646 0.60973 0.72722 0.0
H742 H 0.54823 0.57785 0.80839 0.0
H743 H 0.57718 0.59123 0.86898 0.0
C744 C 0.52573 0.55388 0.69197 0.0
C745 C 0.52629 0.57163 0.65639 0.0
C746 C 0.54363 0.56023 0.72607 0.0
C747 C 0.56189 0.5849 0.72558 0.0
C748 C 0.56213 0.60267 0.6897 0.0
C749 C 0.54463 0.59597 0.6554 0.0
C750 C 0.6237 0.61409 0.79284 0.0
C751 C 0.61314 0.6088 0.83324 0.0
C752 C 0.6074 0.60584 0.75792 0.0
C753 C 0.57993 0.59259 0.76267 0.0
C754 C 0.56948 0.58738 0.8033 0.0
C755 C 0.58599 0.5952 0.83812 0.0
H756 H 0.44924 0.52799 0.67084 0.0
H757 H 0.36277 0.51686 0.62142 0.0
H758 H 0.43045 0.55975 0.72517 0.0
H759 H 0.34351 0.54922 0.67553 0.0
H760 H 0.31956 0.57216 0.81253 0.0
H761 H 0.33536 0.54771 0.74905 0.0
H762 H 0.40945 0.60553 0.74129 0.0
H763 H 0.39401 0.62927 0.80564 0.0
C764 C 0.42629 0.53331 0.67088 0.0
C765 C 0.40749 0.52075 0.64166 0.0
C766 C 0.41543 0.55139 0.70206 0.0
C767 C 0.38543 0.55728 0.70462 0.0
C768 C 0.36666 0.54495 0.67471 0.0
C769 C 0.37761 0.52659 0.64367 0.0
C770 C 0.33894 0.57992 0.79679 0.0
C771 C 0.35574 0.60238 0.81412 0.0
C772 C 0.34797 0.566 0.7603 0.0
C773 C 0.37385 0.57446 0.74021 0.0
C774 C 0.38977 0.59802 0.75646 0.0
C775 C 0.38091 0.6117 0.79319 0.0
H776 H 0.50859 0.4235 0.701 0.0
H777 H 0.42826 0.42412 0.63125 0.0
H778 H 0.48302 0.40283 0.76074 0.0
H779 H 0.4027 0.40388 0.69091 0.0
H780 H 0.3643 0.39863 0.82521 0.0
H781 H 0.38894 0.41876 0.76418 0.0
H782 H 0.45776 0.35566 0.77855 0.0
H783 H 0.43286 0.33491 0.83882 0.0
C784 C 0.48546 0.41938 0.69826 0.0
C785 C 0.47045 0.42583 0.66104 0.0
C786 C 0.47086 0.40741 0.73251 0.0
C787 C 0.44085 0.40176 0.73052 0.0
C788 C 0.42578 0.40833 0.69356 0.0
C789 C 0.44047 0.42003 0.6592 0.0
C790 C 0.38442 0.38868 0.81501 0.0
C791 C 0.39659 0.36516 0.83716 0.0
C792 C 0.39859 0.40033 0.78013 0.0
C793 C 0.42537 0.38891 0.76681 0.0
C794 C 0.43739 0.36523 0.78854 0.0
C795 C 0.42311 0.35339 0.82314 0.0
H796 H 0.53753 0.48025 0.67743 0.0
H797 H 0.62547 0.48986 0.63261 0.0
H798 H 0.55507 0.45045 0.73575 0.0
H799 H 0.64321 0.45997 0.69092 0.0
H800 H 0.65699 0.38364 0.78584 0.0
H801 H 0.63813 0.407 0.72225 0.0
H802 H 0.58759 0.46595 0.79789 0.0
H803 H 0.60647 0.44288 0.86102 0.0
C804 C 0.56051 0.47521 0.67958 0.0
C805 C 0.58021 0.48672 0.65059 0.0
C806 C 0.57056 0.4585 0.71299 0.0
C807 C 0.60045 0.45295 0.71761 0.0
C808 C 0.62004 0.46371 0.68769 0.0
C809 C 0.60999 0.48082 0.65461 0.0
C810 C 0.64179 0.40154 0.78864 0.0
C811 C 0.63327 0.41166 0.82812 0.0
C812 C 0.63111 0.41488 0.75246 0.0
C813 C 0.61134 0.43809 0.75538 0.0
C814 C 0.60257 0.44788 0.79487 0.0
C815 C 0.61357 0.4349 0.8309 0.0
H816 H 0.59655 0.55127 0.34852 0.0
H817 H 0.53407 0.48432 0.37955 0.0
H818 H 0.61073 0.52393 0.28642 0.0
H819 H 0.54855 0.4569 0.31799 0.0
H820 H 0.61546 0.40097 0.24521 0.0
H821 H 0.59592 0.43097 0.30107 0.0
H822 H 0.59109 0.50439 0.21706 0.0
H823 H 0.60978 0.47417 0.16048 0.0
C824 C 0.58574 0.53083 0.34198 0.0
C825 C 0.56463 0.5196 0.36938 0.0
C826 C 0.59375 0.51529 0.30636 0.0
C827 C 0.58105 0.48811 0.2979 0.0
C828 C 0.55906 0.47755 0.32427 0.0
C829 C 0.55081 0.49323 0.35951 0.0
C830 C 0.6098 0.42334 0.23832 0.0
C831 C 0.61418 0.43509 0.19827 0.0
C832 C 0.59866 0.44053 0.27038 0.0
C833 C 0.59192 0.46992 0.26325 0.0
C834 C 0.59633 0.48181 0.22338 0.0
C835 C 0.60717 0.46452 0.19112 0.0
H836 H 0.5257 0.62381 0.40207 0.0
H837 H 0.49422 0.54446 0.34563 0.0
H838 H 0.55722 0.63211 0.34243 0.0
H839 H 0.52659 0.55224 0.2864 0.0
H840 H 0.56866 0.59132 0.16854 0.0
H841 H 0.53578 0.58144 0.22661 0.0
H842 H 0.60055 0.61377 0.31283 0.0
H843 H 0.63287 0.62457 0.25446 0.0
C844 C 0.52544 0.60815 0.37685 0.0
C845 C 0.50753 0.58342 0.37869 0.0
C846 C 0.54379 0.61274 0.3428 0.0
C847 C 0.54479 0.59266 0.30977 0.0
C848 C 0.52619 0.56834 0.31102 0.0
C849 C 0.50772 0.56379 0.3451 0.0
C850 C 0.5759 0.59603 0.19999 0.0
C851 C 0.60319 0.60891 0.20705 0.0
C852 C 0.5571 0.59032 0.2333 0.0
C853 C 0.56532 0.59714 0.27443 0.0
C854 C 0.59314 0.609 0.28149 0.0
C855 C 0.61176 0.61503 0.24814 0.0
H856 H 0.44013 0.47673 0.34146 0.0
H857 H 0.35013 0.45473 0.3651 0.0
H858 H 0.42554 0.50383 0.27929 0.0
H859 H 0.33564 0.48238 0.30331 0.0
H860 H 0.32583 0.57206 0.23329 0.0
H861 H 0.33873 0.5381 0.28874 0.0
H862 H 0.40025 0.4961 0.20701 0.0
H863 H 0.38655 0.52918 0.15061 0.0
C864 C 0.4173 0.47731 0.33311 0.0
C865 C 0.39627 0.46367 0.35833 0.0
C866 C 0.40899 0.49279 0.29748 0.0
C867 C 0.37947 0.49532 0.28681 0.0
C868 C 0.35852 0.48093 0.31117 0.0
C869 C 0.36686 0.46505 0.34642 0.0
C870 C 0.34167 0.55526 0.22667 0.0
C871 C 0.35515 0.5535 0.18733 0.0
C872 C 0.34909 0.53587 0.25855 0.0
C873 C 0.37044 0.51453 0.25203 0.0
C874 C 0.38387 0.51254 0.21284 0.0
C875 C 0.37613 0.53165 0.1807 0.0
H876 H 0.46154 0.37179 0.4263 0.0
H877 H 0.49328 0.44415 0.35269 0.0
H878 H 0.43197 0.35576 0.36729 0.0
H879 H 0.46342 0.42813 0.29396 0.0
H880 H 0.38091 0.4054 0.21633 0.0
H881 H 0.40764 0.42213 0.27808 0.0
H882 H 0.4447 0.33643 0.29299 0.0
H883 H 0.41825 0.31981 0.23118 0.0
C884 C 0.46227 0.38424 0.39757 0.0
C885 C 0.47989 0.40915 0.39411 0.0
C886 C 0.44533 0.37506 0.36387 0.0
C887 C 0.44543 0.39077 0.32624 0.0
C888 C 0.46282 0.41578 0.3228 0.0
C889 C 0.48005 0.42479 0.35632 0.0
C890 C 0.39458 0.39014 0.23311 0.0
C891 C 0.39764 0.36136 0.21907 0.0
C892 C 0.40996 0.39974 0.26816 0.0
C893 C 0.42821 0.38054 0.29013 0.0
C894 C 0.43064 0.35158 0.2767 0.0
C895 C 0.41567 0.34214 0.2413 0.0
loop_
_geom_bond_atom_site_label_1
_geom_bond_atom_site_label_2
_geom_bond_distance
_geom_bond_site_symmetry_2
_ccdc_geom_bond_type
Zn0 O2 1.933 1_556 S
Zn0 O20 1.985 . S
Zn0 O31 1.955 . S
Zn1 O2 1.911 . S
Zn1 O21 1.970 . S
Zn1 O37 1.945 . S
Zn1 O44 1.981 . S
O2 Zn0 1.933 1_554 S
O2 Zn1 1.911 . S
O2 H3 0.841 1_655 S
H3 O2 0.841 1_455 S
C4 O5 1.246 . S
C4 O33 1.276 1_545 S
O5 C4 1.246 . S
Zn6 O8 1.911 . S
Zn6 O23 1.970 . S
Zn6 O40 1.945 . S
Zn6 O47 1.981 . S
Zn7 O8 1.933 1_556 S
Zn7 O22 1.985 . S
Zn7 O29 1.955 . S
O8 Zn6 1.911 . S
O8 Zn7 1.933 1_554 S
O8 H9 0.841 1_455 S
H9 O8 0.841 1_655 S
Zn10 O11 1.933 1_556 S
Zn10 O24 1.985 . S
Zn10 O33 1.955 . S
O11 Zn10 1.933 1_554 S
O11 Zn12 1.911 . S
O11 H13 0.841 1_565 S
Zn12 O11 1.911 . S
Zn12 O25 1.970 . S
Zn12 O41 1.981 . S
Zn12 O43 1.945 . S
H13 O11 0.841 1_545 S
Zn14 O15 1.933 1_556 S
Zn14 O27 1.985 . S
Zn14 O35 1.955 . S
O15 Zn14 1.933 1_554 S
O15 H16 0.841 1_545 S
O15 Zn17 1.911 . S
H16 O15 0.841 1_565 S
Zn17 O15 1.911 . S
Zn17 O28 1.970 . S
Zn17 O38 1.981 . S
Zn17 O46 1.945 . S
C18 O19 1.246 . S
C18 O35 1.276 1_565 S
O19 C18 1.246 . S
O20 Zn0 1.985 . S
O20 C30 1.245 1_556 S
O21 Zn1 1.970 . S
O21 C30 1.263 . S
O22 Zn7 1.985 . S
O22 C34 1.245 1_556 S
O23 Zn6 1.970 . S
O23 C34 1.263 . S
O24 Zn10 1.985 . S
O24 C39 1.245 1_556 S
O25 Zn12 1.970 . S
O25 C39 1.263 . S
C26 O37 1.262 1_455 S
C26 O38 1.245 . S
O27 Zn14 1.985 . S
O27 C45 1.245 1_556 S
O28 Zn17 1.970 . S
O28 C45 1.263 . S
O29 Zn7 1.955 . S
O29 C48 1.276 1_455 S
C30 O20 1.245 1_554 S
C30 O21 1.263 . S
O31 Zn0 1.955 . S
O31 C50 1.276 1_655 S
C32 O40 1.262 1_655 S
C32 O41 1.245 . S
O33 C4 1.276 1_565 S
O33 Zn10 1.955 . S
C34 O22 1.245 1_554 S
C34 O23 1.263 . S
O35 Zn14 1.955 . S
O35 C18 1.276 1_545 S
C36 O43 1.262 1_545 S
C36 O44 1.245 . S
O37 Zn1 1.945 . S
O37 C26 1.262 1_655 S
O38 Zn17 1.981 . S
O38 C26 1.245 . S
C39 O24 1.245 1_554 S
C39 O25 1.263 . S
O40 Zn6 1.945 . S
O40 C32 1.262 1_455 S
O41 Zn12 1.981 . S
O41 C32 1.245 . S
C42 O46 1.262 1_565 S
C42 O47 1.245 . S
O43 Zn12 1.945 . S
O43 C36 1.262 1_565 S
O44 Zn1 1.981 . S
O44 C36 1.245 . S
C45 O27 1.245 1_554 S
C45 O28 1.263 . S
O46 Zn17 1.945 . S
O46 C42 1.262 1_545 S
O47 Zn6 1.981 . S
O47 C42 1.245 . S
C48 O29 1.276 1_655 S
C48 O49 1.246 . S
O49 C48 1.246 . S
C50 O31 1.276 1_455 S
C50 O51 1.246 . S
O51 C50 1.246 . S
Zn52 O54 1.933 . S
Zn52 O72 1.985 . S
Zn52 O83 1.955 . S
Zn53 O54 1.911 . S
Zn53 O73 1.970 . S
Zn53 O89 1.945 . S
Zn53 O96 1.981 . S
O54 Zn52 1.933 . S
O54 Zn53 1.911 . S
O54 H55 0.841 . S
H55 O54 0.841 . S
C56 O57 1.246 . S
C56 O85 1.276 . S
O57 C56 1.246 . S
Zn58 O60 1.911 . S
Zn58 O75 1.970 . S
Zn58 O92 1.945 . S
Zn58 O99 1.981 . S
Zn59 O60 1.933 . S
Zn59 O74 1.985 . S
Zn59 O81 1.955 . S
O60 Zn58 1.911 . S
O60 Zn59 1.933 . S
O60 H61 0.841 . S
H61 O60 0.841 . S
Zn62 O63 1.933 . S
Zn62 O76 1.985 . S
Zn62 O85 1.955 . S
O63 Zn62 1.933 . S
O63 Zn64 1.911 . S
O63 H65 0.841 . S
Zn64 O63 1.911 . S
Zn64 O77 1.970 . S
Zn64 O93 1.981 . S
Zn64 O95 1.945 . S
H65 O63 0.841 . S
Zn66 O67 1.933 . S
Zn66 O79 1.985 . S
Zn66 O87 1.955 . S
O67 Zn66 1.933 . S
O67 H68 0.841 . S
O67 Zn69 1.911 . S
H68 O67 0.841 . S
Zn69 O67 1.911 . S
Zn69 O80 1.970 . S
Zn69 O90 1.981 . S
Zn69 O98 1.945 . S
C70 O71 1.246 . S
C70 O87 1.276 . S
O71 C70 1.246 . S
O72 Zn52 1.985 . S
O72 C82 1.245 . S
O73 Zn53 1.970 . S
O73 C82 1.263 . S
O74 Zn59 1.985 . S
O74 C86 1.245 . S
O75 Zn58 1.970 . S
O75 C86 1.263 . S
O76 Zn62 1.985 . S
O76 C91 1.245 . S
O77 Zn64 1.970 . S
O77 C91 1.263 . S
C78 O89 1.262 . S
C78 O90 1.245 . S
O79 Zn66 1.985 . S
O79 C97 1.245 . S
O80 Zn69 1.970 . S
O80 C97 1.263 . S
O81 Zn59 1.955 . S
O81 C100 1.276 . S
C82 O72 1.245 . S
C82 O73 1.263 . S
O83 Zn52 1.955 . S
O83 C102 1.276 . S
C84 O92 1.262 . S
C84 O93 1.245 . S
O85 C56 1.276 . S
O85 Zn62 1.955 . S
C86 O74 1.245 . S
C86 O75 1.263 . S
O87 Zn66 1.955 . S
O87 C70 1.276 . S
C88 O95 1.262 . S
C88 O96 1.245 . S
O89 Zn53 1.945 . S
O89 C78 1.262 . S
O90 Zn69 1.981 . S
O90 C78 1.245 . S
C91 O76 1.245 . S
C91 O77 1.263 . S
O92 Zn58 1.945 . S
O92 C84 1.262 . S
O93 Zn64 1.981 . S
O93 C84 1.245 . S
C94 O98 1.262 . S
C94 O99 1.245 . S
O95 Zn64 1.945 . S
O95 C88 1.262 . S
O96 Zn53 1.981 . S
O96 C88 1.245 . S
C97 O79 1.245 . S
C97 O80 1.263 . S
O98 Zn69 1.945 . S
O98 C94 1.262 . S
O99 Zn58 1.981 . S
O99 C94 1.245 . S
C100 O81 1.276 . S
C100 O101 1.246 . S
O101 C100 1.246 . S
C102 O83 1.276 . S
C102 O103 1.246 . S
O103 C102 1.246 . S
C104 C105 1.386 . S
C104 C106 1.397 . S
C104 H128 0.931 . S
C105 C104 1.386 . S
C105 C109 1.397 . S
C106 C104 1.397 . S
C106 C107 1.384 . S
C106 H129 0.930 . S
C107 C106 1.384 . S
C107 C108 1.377 . S
C107 C110 1.481 . S
C108 C107 1.377 . S
C108 C109 1.389 . S
C108 H130 0.929 . S
C109 C105 1.397 . S
C109 C108 1.389 . S
C109 H131 0.931 . S
C110 C107 1.481 . S
C110 C111 1.387 . S
C110 C115 1.390 1_556 S
C111 C110 1.387 . S
C111 C112 1.401 1_556 S
C111 H132 0.930 . S
C112 C111 1.401 1_554 S
C112 C113 1.376 . S
C112 C121 1.511 . S
C113 C112 1.376 . S
C113 C114 1.392 . S
C113 H134 0.931 . S
C114 C113 1.392 . S
C114 C115 1.361 . S
C114 C116 1.500 . S
C115 C110 1.390 1_554 S
C115 C114 1.361 . S
C115 H133 0.931 . S
C116 C114 1.500 . S
C116 C117 1.371 . S
C116 C118 1.365 . S
C117 C116 1.371 . S
C117 C127 1.386 . S
C117 H135 0.931 . S
C118 C116 1.365 . S
C118 C119 1.409 . S
C118 H136 0.929 . S
C119 C118 1.409 . S
C119 C120 1.380 . S
C119 H137 0.930 . S
C120 C119 1.380 . S
C120 C127 1.357 . S
C121 C112 1.511 . S
C121 C122 1.341 1_554 S
C121 C123 1.371 . S
C122 C121 1.341 1_556 S
C122 C126 1.394 . S
C122 H138 0.930 . S
C123 C121 1.371 . S
C123 C124 1.392 . S
C123 H139 0.931 . S
C124 C123 1.392 . S
C124 C125 1.331 . S
C124 H142 0.932 . S
C125 C124 1.331 . S
C125 C126 1.336 1_554 S
C126 C122 1.394 . S
C126 C125 1.336 1_556 S
C126 H141 0.929 . S
C127 C117 1.386 . S
C127 C120 1.357 . S
C127 H140 0.928 . S
H128 C104 0.931 . S
H129 C106 0.930 . S
H130 C108 0.929 . S
H131 C109 0.931 . S
H132 C111 0.930 . S
H133 C115 0.931 . S
H134 C113 0.931 . S
H135 C117 0.931 . S
H136 C118 0.929 . S
H137 C119 0.930 . S
H138 C122 0.930 . S
H139 C123 0.931 . S
H140 C127 0.928 . S
H141 C126 0.929 . S
H142 C124 0.932 . S
C143 C144 1.386 . S
C143 C145 1.397 . S
C143 H167 0.931 . S
C144 C143 1.386 . S
C144 C148 1.397 . S
C145 C143 1.397 . S
C145 C146 1.384 . S
C145 H168 0.930 . S
C146 C145 1.384 . S
C146 C147 1.377 . S
C146 C149 1.481 . S
C147 C146 1.377 . S
C147 C148 1.389 . S
C147 H169 0.929 . S
C148 C144 1.397 . S
C148 C147 1.389 . S
C148 H170 0.931 . S
C149 C146 1.481 . S
C149 C150 1.387 . S
C149 C154 1.390 1_556 S
C150 C149 1.387 . S
C150 C151 1.401 1_556 S
C150 H171 0.930 . S
C151 C150 1.401 1_554 S
C151 C152 1.376 . S
C151 C160 1.511 . S
C152 C151 1.376 . S
C152 C153 1.392 . S
C152 H173 0.931 . S
C153 C152 1.392 . S
C153 C154 1.361 . S
C153 C155 1.500 . S
C154 C149 1.390 1_554 S
C154 C153 1.361 . S
C154 H172 0.931 . S
C155 C153 1.500 . S
C155 C156 1.371 . S
C155 C157 1.365 . S
C156 C155 1.371 . S
C156 C166 1.386 . S
C156 H174 0.931 . S
C157 C155 1.365 . S
C157 C158 1.409 . S
C157 H175 0.929 . S
C158 C157 1.409 . S
C158 C159 1.380 . S
C158 H176 0.930 . S
C159 C158 1.380 . S
C159 C166 1.357 . S
C160 C151 1.511 . S
C160 C161 1.341 1_554 S
C160 C162 1.371 . S
C161 C160 1.341 1_556 S
C161 C165 1.394 . S
C161 H177 0.930 . S
C162 C160 1.371 . S
C162 C163 1.392 . S
C162 H178 0.931 . S
C163 C162 1.392 . S
C163 C164 1.331 . S
C163 H181 0.932 . S
C164 C163 1.331 . S
C164 C165 1.336 1_554 S
C165 C161 1.394 . S
C165 C164 1.336 1_556 S
C165 H180 0.929 . S
C166 C156 1.386 . S
C166 C159 1.357 . S
C166 H179 0.928 . S
H167 C143 0.931 . S
H168 C145 0.930 . S
H169 C147 0.929 . S
H170 C148 0.931 . S
H171 C150 0.930 . S
H172 C154 0.931 . S
H173 C152 0.931 . S
H174 C156 0.931 . S
H175 C157 0.929 . S
H176 C158 0.930 . S
H177 C161 0.930 . S
H178 C162 0.931 . S
H179 C166 0.928 . S
H180 C165 0.929 . S
H181 C163 0.932 . S
C182 C183 1.386 . S
C182 C184 1.397 . S
C182 H206 0.931 . S
C183 C182 1.386 . S
C183 C187 1.397 . S
C184 C182 1.397 . S
C184 C185 1.384 . S
C184 H207 0.930 . S
C185 C184 1.384 . S
C185 C186 1.377 . S
C185 C188 1.481 . S
C186 C185 1.377 . S
C186 C187 1.389 . S
C186 H208 0.929 . S
C187 C183 1.397 . S
C187 C186 1.389 . S
C187 H209 0.931 . S
C188 C185 1.481 . S
C188 C189 1.387 . S
C188 C193 1.390 . S
C189 C188 1.387 . S
C189 C190 1.401 . S
C189 H210 0.930 . S
C190 C189 1.401 . S
C190 C191 1.376 1_554 S
C190 C199 1.511 . S
C191 C190 1.376 1_556 S
C191 C192 1.392 . S
C191 H212 0.931 . S
C192 C191 1.392 . S
C192 C193 1.361 1_556 S
C192 C194 1.500 . S
C193 C188 1.390 . S
C193 C192 1.361 1_554 S
C193 H211 0.931 . S
C194 C192 1.500 . S
C194 C195 1.371 . S
C194 C196 1.365 . S
C195 C194 1.371 . S
C195 C205 1.386 . S
C195 H213 0.931 . S
C196 C194 1.365 . S
C196 C197 1.409 . S
C196 H214 0.929 . S
C197 C196 1.409 . S
C197 C198 1.380 . S
C197 H215 0.930 . S
C198 C197 1.380 . S
C198 C205 1.357 . S
C199 C190 1.511 . S
C199 C200 1.341 . S
C199 C201 1.371 1_554 S
C200 C199 1.341 . S
C200 C204 1.394 . S
C200 H216 0.930 . S
C201 C199 1.371 1_556 S
C201 C202 1.392 . S
C201 H217 0.931 . S
C202 C201 1.392 . S
C202 C203 1.331 1_556 S
C202 H220 0.932 . S
C203 C202 1.331 1_554 S
C203 C204 1.336 . S
C204 C200 1.394 . S
C204 C203 1.336 . S
C204 H219 0.929 . S
C205 C195 1.386 . S
C205 C198 1.357 . S
C205 H218 0.928 . S
H206 C182 0.931 . S
H207 C184 0.930 . S
H208 C186 0.929 . S
H209 C187 0.931 . S
H210 C189 0.930 . S
H211 C193 0.931 . S
H212 C191 0.931 . S
H213 C195 0.931 . S
H214 C196 0.929 . S
H215 C197 0.930 . S
H216 C200 0.930 . S
H217 C201 0.931 . S
H218 C205 0.928 . S
H219 C204 0.929 . S
H220 C202 0.932 . S
C221 C222 1.386 . S
C221 C223 1.397 . S
C221 H245 0.931 . S
C222 C221 1.386 . S
C222 C226 1.397 . S
C223 C221 1.397 . S
C223 C224 1.384 . S
C223 H246 0.930 . S
C224 C223 1.384 . S
C224 C225 1.377 . S
C224 C227 1.481 . S
C225 C224 1.377 . S
C225 C226 1.389 . S
C225 H247 0.929 . S
C226 C222 1.397 . S
C226 C225 1.389 . S
C226 H248 0.931 . S
C227 C224 1.481 . S
C227 C228 1.387 . S
C227 C232 1.390 . S
C228 C227 1.387 . S
C228 C229 1.401 . S
C228 H249 0.930 . S
C229 C228 1.401 . S
C229 C230 1.376 1_554 S
C229 C238 1.511 . S
C230 C229 1.376 1_556 S
C230 C231 1.392 . S
C230 H251 0.931 . S
C231 C230 1.392 . S
C231 C232 1.361 1_556 S
C231 C233 1.500 . S
C232 C227 1.390 . S
C232 C231 1.361 1_554 S
C232 H250 0.931 . S
C233 C231 1.500 . S
C233 C234 1.371 . S
C233 C235 1.365 . S
C234 C233 1.371 . S
C234 C244 1.386 . S
C234 H252 0.931 . S
C235 C233 1.365 . S
C235 C236 1.409 . S
C235 H253 0.929 . S
C236 C235 1.409 . S
C236 C237 1.380 . S
C236 H254 0.930 . S
C237 C236 1.380 . S
C237 C244 1.357 . S
C238 C229 1.511 . S
C238 C239 1.341 . S
C238 C240 1.371 1_554 S
C239 C238 1.341 . S
C239 C243 1.394 . S
C239 H255 0.930 . S
C240 C238 1.371 1_556 S
C240 C241 1.392 . S
C240 H256 0.931 . S
C241 C240 1.392 . S
C241 C242 1.331 1_556 S
C241 H259 0.932 . S
C242 C241 1.331 1_554 S
C242 C243 1.336 . S
C243 C239 1.394 . S
C243 C242 1.336 . S
C243 H258 0.929 . S
C244 C234 1.386 . S
C244 C237 1.357 . S
C244 H257 0.928 . S
H245 C221 0.931 . S
H246 C223 0.930 . S
H247 C225 0.929 . S
H248 C226 0.931 . S
H249 C228 0.930 . S
H250 C232 0.931 . S
H251 C230 0.931 . S
H252 C234 0.931 . S
H253 C235 0.929 . S
H254 C236 0.930 . S
H255 C239 0.930 . S
H256 C240 0.931 . S
H257 C244 0.928 . S
H258 C243 0.929 . S
H259 C241 0.932 . S
C260 C261 1.386 . S
C260 C262 1.397 . S
C260 H284 0.931 . S
C261 C260 1.386 . S
C261 C265 1.397 . S
C262 C260 1.397 . S
C262 C263 1.384 . S
C262 H285 0.930 . S
C263 C262 1.384 . S
C263 C264 1.377 . S
C263 C266 1.481 . S
C264 C263 1.377 . S
C264 C265 1.389 . S
C264 H286 0.929 . S
C265 C261 1.397 . S
C265 C264 1.389 . S
C265 H287 0.931 . S
C266 C263 1.481 . S
C266 C267 1.387 . S
C266 C271 1.390 . S
C267 C266 1.387 . S
C267 C268 1.401 . S
C267 H288 0.930 . S
C268 C267 1.401 . S
C268 C269 1.376 . S
C268 C277 1.511 . S
C269 C268 1.376 . S
C269 C270 1.392 . S
C269 H290 0.931 . S
C270 C269 1.392 . S
C270 C271 1.361 . S
C270 C272 1.500 . S
C271 C266 1.390 . S
C271 C270 1.361 . S
C271 H289 0.931 . S
C272 C270 1.500 . S
C272 C273 1.371 . S
C272 C274 1.365 . S
C273 C272 1.371 . S
C273 C283 1.386 . S
C273 H291 0.931 . S
C274 C272 1.365 . S
C274 C275 1.409 . S
C274 H292 0.929 . S
C275 C274 1.409 . S
C275 C276 1.380 . S
C275 H293 0.930 . S
C276 C275 1.380 . S
C276 C283 1.357 . S
C277 C268 1.511 . S
C277 C278 1.341 . S
C277 C279 1.371 . S
C278 C277 1.341 . S
C278 C282 1.394 . S
C278 H294 0.930 . S
C279 C277 1.371 . S
C279 C280 1.392 . S
C279 H295 0.931 . S
C280 C279 1.392 . S
C280 C281 1.331 . S
C280 H298 0.932 . S
C281 C280 1.331 . S
C281 C282 1.336 . S
C282 C278 1.394 . S
C282 C281 1.336 . S
C282 H297 0.929 . S
C283 C273 1.386 . S
C283 C276 1.357 . S
C283 H296 0.928 . S
H284 C260 0.931 . S
H285 C262 0.930 . S
H286 C264 0.929 . S
H287 C265 0.931 . S
H288 C267 0.930 . S
H289 C271 0.931 . S
H290 C269 0.931 . S
H291 C273 0.931 . S
H292 C274 0.929 . S
H293 C275 0.930 . S
H294 C278 0.930 . S
H295 C279 0.931 . S
H296 C283 0.928 . S
H297 C282 0.929 . S
H298 C280 0.932 . S
C299 C300 1.386 . S
C299 C301 1.397 . S
C299 H323 0.931 . S
C300 C299 1.386 . S
C300 C304 1.397 . S
C301 C299 1.397 . S
C301 C302 1.384 . S
C301 H324 0.930 . S
C302 C301 1.384 . S
C302 C303 1.377 . S
C302 C305 1.481 . S
C303 C302 1.377 . S
C303 C304 1.389 . S
C303 H325 0.929 . S
C304 C300 1.397 . S
C304 C303 1.389 . S
C304 H326 0.931 . S
C305 C302 1.481 . S
C305 C306 1.387 . S
C305 C310 1.390 . S
C306 C305 1.387 . S
C306 C307 1.401 . S
C306 H327 0.930 . S
C307 C306 1.401 . S
C307 C308 1.376 . S
C307 C316 1.511 . S
C308 C307 1.376 . S
C308 C309 1.392 . S
C308 H329 0.931 . S
C309 C308 1.392 . S
C309 C310 1.361 . S
C309 C311 1.500 . S
C310 C305 1.390 . S
C310 C309 1.361 . S
C310 H328 0.931 . S
C311 C309 1.500 . S
C311 C312 1.371 . S
C311 C313 1.365 . S
C312 C311 1.371 . S
C312 C322 1.386 . S
C312 H330 0.931 . S
C313 C311 1.365 . S
C313 C314 1.409 . S
C313 H331 0.929 . S
C314 C313 1.409 . S
C314 C315 1.380 . S
C314 H332 0.930 . S
C315 C314 1.380 . S
C315 C322 1.357 . S
C316 C307 1.511 . S
C316 C317 1.341 . S
C316 C318 1.371 . S
C317 C316 1.341 . S
C317 C321 1.394 . S
C317 H333 0.930 . S
C318 C316 1.371 . S
C318 C319 1.392 . S
C318 H334 0.931 . S
C319 C318 1.392 . S
C319 C320 1.331 . S
C319 H337 0.932 . S
C320 C319 1.331 . S
C320 C321 1.336 . S
C321 C317 1.394 . S
C321 C320 1.336 . S
C321 H336 0.929 . S
C322 C312 1.386 . S
C322 C315 1.357 . S
C322 H335 0.928 . S
H323 C299 0.931 . S
H324 C301 0.930 . S
H325 C303 0.929 . S
H326 C304 0.931 . S
H327 C306 0.930 . S
H328 C310 0.931 . S
H329 C308 0.931 . S
H330 C312 0.931 . S
H331 C313 0.929 . S
H332 C314 0.930 . S
H333 C317 0.930 . S
H334 C318 0.931 . S
H335 C322 0.928 . S
H336 C321 0.929 . S
H337 C319 0.932 . S
C338 C339 1.386 . S
C338 C340 1.397 . S
C338 H362 0.931 . S
C339 C338 1.386 . S
C339 C343 1.397 . S
C340 C338 1.397 . S
C340 C341 1.384 . S
C340 H363 0.930 . S
C341 C340 1.384 . S
C341 C342 1.377 . S
C341 C344 1.481 . S
C342 C341 1.377 . S
C342 C343 1.389 . S
C342 H364 0.929 . S
C343 C339 1.397 . S
C343 C342 1.389 . S
C343 H365 0.931 . S
C344 C341 1.481 . S
C344 C345 1.387 . S
C344 C349 1.390 . S
C345 C344 1.387 . S
C345 C346 1.401 . S
C345 H366 0.930 . S
C346 C345 1.401 . S
C346 C347 1.376 . S
C346 C355 1.511 . S
C347 C346 1.376 . S
C347 C348 1.392 . S
C347 H368 0.931 . S
C348 C347 1.392 . S
C348 C349 1.361 . S
C348 C350 1.500 . S
C349 C344 1.390 . S
C349 C348 1.361 . S
C349 H367 0.931 . S
C350 C348 1.500 . S
C350 C351 1.371 . S
C350 C352 1.365 . S
C351 C350 1.371 . S
C351 C361 1.386 . S
C351 H369 0.931 . S
C352 C350 1.365 . S
C352 C353 1.409 . S
C352 H370 0.929 . S
C353 C352 1.409 . S
C353 C354 1.380 . S
C353 H371 0.930 . S
C354 C353 1.380 . S
C354 C361 1.357 . S
C355 C346 1.511 . S
C355 C356 1.341 . S
C355 C357 1.371 . S
C356 C355 1.341 . S
C356 C360 1.394 . S
C356 H372 0.930 . S
C357 C355 1.371 . S
C357 C358 1.392 . S
C357 H373 0.931 . S
C358 C357 1.392 . S
C358 C359 1.331 . S
C358 H376 0.932 . S
C359 C358 1.331 . S
C359 C360 1.336 . S
C360 C356 1.394 . S
C360 C359 1.336 . S
C360 H375 0.929 . S
C361 C351 1.386 . S
C361 C354 1.357 . S
C361 H374 0.928 . S
H362 C338 0.931 . S
H363 C340 0.930 . S
H364 C342 0.929 . S
H365 C343 0.931 . S
H366 C345 0.930 . S
H367 C349 0.931 . S
H368 C347 0.931 . S
H369 C351 0.931 . S
H370 C352 0.929 . S
H371 C353 0.930 . S
H372 C356 0.930 . S
H373 C357 0.931 . S
H374 C361 0.928 . S
H375 C360 0.929 . S
H376 C358 0.932 . S
C377 C378 1.386 . S
C377 C379 1.397 . S
C377 H401 0.931 . S
C378 C377 1.386 . S
C378 C382 1.397 . S
C379 C377 1.397 . S
C379 C380 1.384 . S
C379 H402 0.930 . S
C380 C379 1.384 . S
C380 C381 1.377 . S
C380 C383 1.481 . S
C381 C380 1.377 . S
C381 C382 1.389 . S
C381 H403 0.929 . S
C382 C378 1.397 . S
C382 C381 1.389 . S
C382 H404 0.931 . S
C383 C380 1.481 . S
C383 C384 1.387 . S
C383 C388 1.390 . S
C384 C383 1.387 . S
C384 C385 1.401 . S
C384 H405 0.930 . S
C385 C384 1.401 . S
C385 C386 1.376 . S
C385 C394 1.511 . S
C386 C385 1.376 . S
C386 C387 1.392 . S
C386 H407 0.931 . S
C387 C386 1.392 . S
C387 C388 1.361 . S
C387 C389 1.500 . S
C388 C383 1.390 . S
C388 C387 1.361 . S
C388 H406 0.931 . S
C389 C387 1.500 . S
C389 C390 1.371 . S
C389 C391 1.365 . S
C390 C389 1.371 . S
C390 C400 1.386 . S
C390 H408 0.931 . S
C391 C389 1.365 . S
C391 C392 1.409 . S
C391 H409 0.929 . S
C392 C391 1.409 . S
C392 C393 1.380 . S
C392 H410 0.930 . S
C393 C392 1.380 . S
C393 C400 1.357 . S
C394 C385 1.511 . S
C394 C395 1.341 . S
C394 C396 1.371 . S
C395 C394 1.341 . S
C395 C399 1.394 . S
C395 H411 0.930 . S
C396 C394 1.371 . S
C396 C397 1.392 . S
C396 H412 0.931 . S
C397 C396 1.392 . S
C397 C398 1.331 . S
C397 H415 0.932 . S
C398 C397 1.331 . S
C398 C399 1.336 . S
C399 C395 1.394 . S
C399 C398 1.336 . S
C399 H414 0.929 . S
C400 C390 1.386 . S
C400 C393 1.357 . S
C400 H413 0.928 . S
H401 C377 0.931 . S
H402 C379 0.930 . S
H403 C381 0.929 . S
H404 C382 0.931 . S
H405 C384 0.930 . S
H406 C388 0.931 . S
H407 C386 0.931 . S
H408 C390 0.931 . S
H409 C391 0.929 . S
H410 C392 0.930 . S
H411 C395 0.930 . S
H412 C396 0.931 . S
H413 C400 0.928 . S
H414 C399 0.929 . S
H415 C397 0.932 . S
H416 C424 0.950 . S
H417 C429 0.950 . S
H418 C426 0.950 . S
H419 C428 0.950 . S
H420 C430 0.950 1_556 S
H421 C432 0.950 1_556 S
H422 C434 0.950 . S
H423 C435 0.950 . S
C424 H416 0.950 . S
C424 C425 1.386 . S
C424 C426 1.391 . S
C425 C424 1.386 . S
C425 C429 1.393 . S
C426 H418 0.950 . S
C426 C424 1.391 . S
C426 C427 1.400 . S
C427 C426 1.400 . S
C427 C428 1.398 . S
C427 C433 1.491 . S
C428 H419 0.950 . S
C428 C427 1.398 . S
C428 C429 1.391 . S
C429 H417 0.950 . S
C429 C425 1.393 . S
C429 C428 1.391 . S
C430 H420 0.950 1_554 S
C430 C431 1.386 . S
C430 C432 1.391 . S
C431 C430 1.386 . S
C431 C435 1.393 . S
C432 H421 0.950 1_554 S
C432 C430 1.391 . S
C432 C433 1.400 . S
C433 C427 1.491 . S
C433 C432 1.400 . S
C433 C434 1.398 . S
C434 H422 0.950 . S
C434 C433 1.398 . S
C434 C435 1.391 . S
C435 H423 0.950 . S
C435 C431 1.393 . S
C435 C434 1.391 . S
H436 C444 0.950 . S
H437 C449 0.950 . S
H438 C446 0.950 . S
H439 C448 0.950 . S
H440 C450 0.950 . S
H441 C452 0.950 . S
H442 C454 0.950 . S
H443 C455 0.950 . S
C444 H436 0.950 . S
C444 C445 1.386 . S
C444 C446 1.391 . S
C445 C444 1.386 . S
C445 C449 1.393 1_554 S
C446 H438 0.950 . S
C446 C444 1.391 . S
C446 C447 1.400 . S
C447 C446 1.400 . S
C447 C448 1.398 1_554 S
C447 C453 1.491 . S
C448 H439 0.950 . S
C448 C447 1.398 1_556 S
C448 C449 1.391 . S
C449 H437 0.950 . S
C449 C445 1.393 1_556 S
C449 C448 1.391 . S
C450 H440 0.950 . S
C450 C451 1.386 1_556 S
C450 C452 1.391 . S
C451 C450 1.386 1_554 S
C451 C455 1.393 . S
C452 H441 0.950 . S
C452 C450 1.391 . S
C452 C453 1.400 1_556 S
C453 C447 1.491 . S
C453 C452 1.400 1_554 S
C453 C454 1.398 . S
C454 H442 0.950 . S
C454 C453 1.398 . S
C454 C455 1.391 . S
C455 H443 0.950 . S
C455 C451 1.393 . S
C455 C454 1.391 . S
H456 C464 0.950 . S
H457 C469 0.950 . S
H458 C466 0.950 . S
H459 C468 0.950 . S
H460 C470 0.950 . S
H461 C472 0.950 . S
H462 C474 0.950 . S
H463 C475 0.950 . S
C464 H456 0.950 . S
C464 C465 1.386 . S
C464 C466 1.391 . S
C465 C464 1.386 . S
C465 C469 1.393 1_554 S
C466 H458 0.950 . S
C466 C464 1.391 . S
C466 C467 1.400 . S
C467 C466 1.400 . S
C467 C468 1.398 1_554 S
C467 C473 1.491 . S
C468 H459 0.950 . S
C468 C467 1.398 1_556 S
C468 C469 1.391 . S
C469 H457 0.950 . S
C469 C465 1.393 1_556 S
C469 C468 1.391 . S
C470 H460 0.950 . S
C470 C471 1.386 1_556 S
C470 C472 1.391 . S
C471 C470 1.386 1_554 S
C471 C475 1.393 . S
C472 H461 0.950 . S
C472 C470 1.391 . S
C472 C473 1.400 1_556 S
C473 C467 1.491 . S
C473 C472 1.400 1_554 S
C473 C474 1.398 . S
C474 H462 0.950 . S
C474 C473 1.398 . S
C474 C475 1.391 . S
C475 H463 0.950 . S
C475 C471 1.393 . S
C475 C474 1.391 . S
H476 C484 0.950 . S
H477 C489 0.950 . S
H478 C486 0.950 . S
H479 C488 0.950 . S
H480 C490 0.950 . S
H481 C492 0.950 . S
H482 C494 0.950 . S
H483 C495 0.950 . S
C484 H476 0.950 . S
C484 C485 1.386 . S
C484 C486 1.391 . S
C485 C484 1.386 . S
C485 C489 1.393 1_554 S
C486 H478 0.950 . S
C486 C484 1.391 . S
C486 C487 1.400 . S
C487 C486 1.400 . S
C487 C488 1.398 1_554 S
C487 C493 1.491 . S
C488 H479 0.950 . S
C488 C487 1.398 1_556 S
C488 C489 1.391 . S
C489 H477 0.950 . S
C489 C485 1.393 1_556 S
C489 C488 1.391 . S
C490 H480 0.950 . S
C490 C491 1.386 1_556 S
C490 C492 1.391 . S
C491 C490 1.386 1_554 S
C491 C495 1.393 . S
C492 H481 0.950 . S
C492 C490 1.391 . S
C492 C493 1.400 1_556 S
C493 C487 1.491 . S
C493 C492 1.400 1_554 S
C493 C494 1.398 . S
C494 H482 0.950 . S
C494 C493 1.398 . S
C494 C495 1.391 . S
C495 H483 0.950 . S
C495 C491 1.393 . S
C495 C494 1.391 . S
H496 C504 0.950 . S
H497 C509 0.950 . S
H498 C506 0.950 . S
H499 C508 0.950 . S
H500 C510 0.950 . S
H501 C512 0.950 . S
H502 C514 0.950 . S
H503 C515 0.950 . S
C504 H496 0.950 . S
C504 C505 1.386 . S
C504 C506 1.391 . S
C505 C504 1.386 . S
C505 C509 1.393 . S
C506 H498 0.950 . S
C506 C504 1.391 . S
C506 C507 1.400 . S
C507 C506 1.400 . S
C507 C508 1.398 . S
C507 C513 1.491 . S
C508 H499 0.950 . S
C508 C507 1.398 . S
C508 C509 1.391 . S
C509 H497 0.950 . S
C509 C505 1.393 . S
C509 C508 1.391 . S
C510 H500 0.950 . S
C510 C511 1.386 . S
C510 C512 1.391 . S
C511 C510 1.386 . S
C511 C515 1.393 . S
C512 H501 0.950 . S
C512 C510 1.391 . S
C512 C513 1.400 . S
C513 C507 1.491 . S
C513 C512 1.400 . S
C513 C514 1.398 . S
C514 H502 0.950 . S
C514 C513 1.398 . S
C514 C515 1.391 . S
C515 H503 0.950 . S
C515 C511 1.393 . S
C515 C514 1.391 . S
H516 C524 0.950 . S
H517 C529 0.950 . S
H518 C526 0.950 . S
H519 C528 0.950 . S
H520 C530 0.950 . S
H521 C532 0.950 . S
H522 C534 0.950 . S
H523 C535 0.950 . S
C524 H516 0.950 . S
C524 C525 1.386 . S
C524 C526 1.391 . S
C525 C524 1.386 . S
C525 C529 1.393 . S
C526 H518 0.950 . S
C526 C524 1.391 . S
C526 C527 1.400 . S
C527 C526 1.400 . S
C527 C528 1.398 . S
C527 C533 1.491 . S
C528 H519 0.950 . S
C528 C527 1.398 . S
C528 C529 1.391 . S
C529 H517 0.950 . S
C529 C525 1.393 . S
C529 C528 1.391 . S
C530 H520 0.950 . S
C530 C531 1.386 . S
C530 C532 1.391 . S
C531 C530 1.386 . S
C531 C535 1.393 . S
C532 H521 0.950 . S
C532 C530 1.391 . S
C532 C533 1.400 . S
C533 C527 1.491 . S
C533 C532 1.400 . S
C533 C534 1.398 . S
C534 H522 0.950 . S
C534 C533 1.398 . S
C534 C535 1.391 . S
C535 H523 0.950 . S
C535 C531 1.393 . S
C535 C534 1.391 . S
H536 C544 0.950 . S
H537 C549 0.950 . S
H538 C546 0.950 . S
H539 C548 0.950 . S
H540 C550 0.950 . S
H541 C552 0.950 . S
H542 C554 0.950 . S
H543 C555 0.950 . S
C544 H536 0.950 . S
C544 C545 1.386 . S
C544 C546 1.391 . S
C545 C544 1.386 . S
C545 C549 1.393 . S
C546 H538 0.950 . S
C546 C544 1.391 . S
C546 C547 1.400 . S
C547 C546 1.400 . S
C547 C548 1.398 . S
C547 C553 1.491 . S
C548 H539 0.950 . S
C548 C547 1.398 . S
C548 C549 1.391 . S
C549 H537 0.950 . S
C549 C545 1.393 . S
C549 C548 1.391 . S
C550 H540 0.950 . S
C550 C551 1.386 . S
C550 C552 1.391 . S
C551 C550 1.386 . S
C551 C555 1.393 . S
C552 H541 0.950 . S
C552 C550 1.391 . S
C552 C553 1.400 . S
C553 C547 1.491 . S
C553 C552 1.400 . S
C553 C554 1.398 . S
C554 H542 0.950 . S
C554 C553 1.398 . S
C554 C555 1.391 . S
C555 H543 0.950 . S
C555 C551 1.393 . S
C555 C554 1.391 . S
H556 C564 0.950 . S
H557 C569 0.950 . S
H558 C566 0.950 . S
H559 C568 0.950 . S
H560 C570 0.950 . S
H561 C572 0.950 . S
H562 C574 0.950 . S
H563 C575 0.950 . S
C564 H556 0.950 . S
C564 C565 1.386 . S
C564 C566 1.391 . S
C565 C564 1.386 . S
C565 C569 1.393 . S
C566 H558 0.950 . S
C566 C564 1.391 . S
C566 C567 1.400 . S
C567 C566 1.400 . S
C567 C568 1.398 . S
C567 C573 1.491 . S
C568 H559 0.950 . S
C568 C567 1.398 . S
C568 C569 1.391 . S
C569 H557 0.950 . S
C569 C565 1.393 . S
C569 C568 1.391 . S
C570 H560 0.950 . S
C570 C571 1.386 . S
C570 C572 1.391 . S
C571 C570 1.386 . S
C571 C575 1.393 . S
C572 H561 0.950 . S
C572 C570 1.391 . S
C572 C573 1.400 . S
C573 C567 1.491 . S
C573 C572 1.400 . S
C573 C574 1.398 . S
C574 H562 0.950 . S
C574 C573 1.398 . S
C574 C575 1.391 . S
C575 H563 0.950 . S
C575 C571 1.393 . S
C575 C574 1.391 . S
H576 C584 0.950 . S
H577 C589 0.950 . S
H578 C586 0.950 . S
H579 C588 0.950 . S
H580 C590 0.950 . S
H581 C592 0.950 . S
H582 C594 0.950 . S
H583 C595 0.950 . S
C584 H576 0.950 . S
C584 C585 1.386 . S
C584 C586 1.391 . S
C585 C584 1.386 . S
C585 C589 1.393 . S
C586 H578 0.950 . S
C586 C584 1.391 . S
C586 C587 1.400 . S
C587 C586 1.400 . S
C587 C588 1.398 . S
C587 C593 1.491 . S
C588 H579 0.950 . S
C588 C587 1.398 . S
C588 C589 1.391 . S
C589 H577 0.950 . S
C589 C585 1.393 . S
C589 C588 1.391 . S
C590 H580 0.950 . S
C590 C591 1.386 . S
C590 C592 1.391 . S
C591 C590 1.386 . S
C591 C595 1.393 . S
C592 H581 0.950 . S
C592 C590 1.391 . S
C592 C593 1.400 . S
C593 C587 1.491 . S
C593 C592 1.400 . S
C593 C594 1.398 . S
C594 H582 0.950 . S
C594 C593 1.398 . S
C594 C595 1.391 . S
C595 H583 0.950 . S
C595 C591 1.393 . S
C595 C594 1.391 . S
H596 C604 0.950 . S
H597 C609 0.950 . S
H598 C606 0.950 . S
H599 C608 0.950 . S
H600 C610 0.950 . S
H601 C612 0.950 . S
H602 C614 0.950 . S
H603 C615 0.950 . S
C604 H596 0.950 . S
C604 C605 1.386 . S
C604 C606 1.391 . S
C605 C604 1.386 . S
C605 C609 1.393 . S
C606 H598 0.950 . S
C606 C604 1.391 . S
C606 C607 1.400 . S
C607 C606 1.400 . S
C607 C608 1.398 . S
C607 C613 1.491 . S
C608 H599 0.950 . S
C608 C607 1.398 . S
C608 C609 1.391 . S
C609 H597 0.950 . S
C609 C605 1.393 . S
C609 C608 1.391 . S
C610 H600 0.950 . S
C610 C611 1.386 . S
C610 C612 1.391 . S
C611 C610 1.386 . S
C611 C615 1.393 . S
C612 H601 0.950 . S
C612 C610 1.391 . S
C612 C613 1.400 . S
C613 C607 1.491 . S
C613 C612 1.400 . S
C613 C614 1.398 . S
C614 H602 0.950 . S
C614 C613 1.398 . S
C614 C615 1.391 . S
C615 H603 0.950 . S
C615 C611 1.393 . S
C615 C614 1.391 . S
H616 C624 0.950 . S
H617 C629 0.950 1_455 S
H618 C626 0.950 . S
H619 C628 0.950 . S
H620 C630 0.950 . S
H621 C632 0.950 . S
H622 C634 0.950 . S
H623 C635 0.950 . S
C624 H616 0.950 . S
C624 C625 1.386 . S
C624 C626 1.391 . S
C625 C624 1.386 . S
C625 C629 1.393 . S
C626 H618 0.950 . S
C626 C624 1.391 . S
C626 C627 1.400 . S
C627 C626 1.400 . S
C627 C628 1.398 . S
C627 C633 1.491 . S
C628 H619 0.950 . S
C628 C627 1.398 . S
C628 C629 1.391 . S
C629 H617 0.950 1_655 S
C629 C625 1.393 . S
C629 C628 1.391 . S
C630 H620 0.950 . S
C630 C631 1.386 . S
C630 C632 1.391 . S
C631 C630 1.386 . S
C631 C635 1.393 . S
C632 H621 0.950 . S
C632 C630 1.391 . S
C632 C633 1.400 . S
C633 C627 1.491 . S
C633 C632 1.400 . S
C633 C634 1.398 . S
C634 H622 0.950 . S
C634 C633 1.398 . S
C634 C635 1.391 . S
C635 H623 0.950 . S
C635 C631 1.393 . S
C635 C634 1.391 . S
H636 C644 0.950 1_545 S
H637 C649 0.950 . S
H638 C646 0.950 1_545 S
H639 C648 0.950 . S
H640 C650 0.950 . S
H641 C652 0.950 . S
H642 C654 0.950 . S
H643 C655 0.950 . S
C644 H636 0.950 1_565 S
C644 C645 1.386 . S
C644 C646 1.391 . S
C645 C644 1.386 . S
C645 C649 1.393 . S
C646 H638 0.950 1_565 S
C646 C644 1.391 . S
C646 C647 1.400 . S
C647 C646 1.400 . S
C647 C648 1.398 . S
C647 C653 1.491 . S
C648 H639 0.950 . S
C648 C647 1.398 . S
C648 C649 1.391 . S
C649 H637 0.950 . S
C649 C645 1.393 . S
C649 C648 1.391 . S
C650 H640 0.950 . S
C650 C651 1.386 . S
C650 C652 1.391 . S
C651 C650 1.386 . S
C651 C655 1.393 . S
C652 H641 0.950 . S
C652 C650 1.391 . S
C652 C653 1.400 . S
C653 C647 1.491 . S
C653 C652 1.400 . S
C653 C654 1.398 . S
C654 H642 0.950 . S
C654 C653 1.398 . S
C654 C655 1.391 . S
C655 H643 0.950 . S
C655 C651 1.393 . S
C655 C654 1.391 . S
H656 C664 0.950 . S
H657 C669 0.950 . S
H658 C666 0.950 . S
H659 C668 0.950 . S
H660 C670 0.950 . S
H661 C672 0.950 . S
H662 C674 0.950 . S
H663 C675 0.950 . S
C664 H656 0.950 . S
C664 C665 1.386 . S
C664 C666 1.391 . S
C665 C664 1.386 . S
C665 C669 1.393 . S
C666 H658 0.950 . S
C666 C664 1.391 . S
C666 C667 1.400 . S
C667 C666 1.400 . S
C667 C668 1.398 . S
C667 C673 1.491 . S
C668 H659 0.950 . S
C668 C667 1.398 . S
C668 C669 1.391 . S
C669 H657 0.950 . S
C669 C665 1.393 . S
C669 C668 1.391 . S
C670 H660 0.950 . S
C670 C671 1.386 . S
C670 C672 1.391 . S
C671 C670 1.386 . S
C671 C675 1.393 . S
C672 H661 0.950 . S
C672 C670 1.391 . S
C672 C673 1.400 . S
C673 C667 1.491 . S
C673 C672 1.400 . S
C673 C674 1.398 . S
C674 H662 0.950 . S
C674 C673 1.398 . S
C674 C675 1.391 . S
C675 H663 0.950 . S
C675 C671 1.393 . S
C675 C674 1.391 . S
H676 C684 0.955 . S
H677 C689 0.950 . S
H678 C686 0.950 . S
H679 C688 0.950 . S
H680 C690 0.950 . S
H681 C692 0.950 . S
H682 C694 0.950 . S
H683 C695 0.950 . S
C684 H676 0.955 . S
C684 C685 1.386 . S
C684 C686 1.391 . S
C685 C684 1.386 . S
C685 C689 1.393 . S
C686 H678 0.950 . S
C686 C684 1.391 . S
C686 C687 1.400 . S
C687 C686 1.400 . S
C687 C688 1.398 . S
C687 C693 1.491 . S
C688 H679 0.950 . S
C688 C687 1.398 . S
C688 C689 1.391 . S
C689 H677 0.950 . S
C689 C685 1.393 . S
C689 C688 1.391 . S
C690 H680 0.950 . S
C690 C691 1.386 . S
C690 C692 1.391 . S
C691 C690 1.386 . S
C691 C695 1.393 . S
C692 H681 0.950 . S
C692 C690 1.391 . S
C692 C693 1.400 . S
C693 C687 1.491 . S
C693 C692 1.400 . S
C693 C694 1.398 . S
C694 H682 0.950 . S
C694 C693 1.398 . S
C694 C695 1.391 . S
C695 H683 0.950 . S
C695 C691 1.393 . S
C695 C694 1.391 . S
H696 C704 0.950 . S
H697 C709 0.950 . S
H698 C706 0.950 . S
H699 C708 0.950 . S
H700 C710 0.950 . S
H701 C712 0.950 . S
H702 C714 0.950 . S
H703 C715 0.950 . S
C704 H696 0.950 . S
C704 C705 1.386 . S
C704 C706 1.391 . S
C705 C704 1.386 . S
C705 C709 1.393 . S
C706 H698 0.950 . S
C706 C704 1.391 . S
C706 C707 1.400 . S
C707 C706 1.400 . S
C707 C708 1.398 . S
C707 C713 1.491 . S
C708 H699 0.950 . S
C708 C707 1.398 . S
C708 C709 1.391 . S
C709 H697 0.950 . S
C709 C705 1.393 . S
C709 C708 1.391 . S
C710 H700 0.950 . S
C710 C711 1.386 . S
C710 C712 1.391 . S
C711 C710 1.386 . S
C711 C715 1.393 . S
C712 H701 0.950 . S
C712 C710 1.391 . S
C712 C713 1.400 . S
C713 C707 1.491 . S
C713 C712 1.400 . S
C713 C714 1.398 . S
C714 H702 0.950 . S
C714 C713 1.398 . S
C714 C715 1.391 . S
C715 H703 0.950 . S
C715 C711 1.393 . S
C715 C714 1.391 . S
H716 C724 0.950 . S
H717 C729 0.950 1_455 S
H718 C726 0.950 . S
H719 C728 0.950 . S
H720 C730 0.950 . S
H721 C732 0.950 . S
H722 C734 0.950 . S
H723 C735 0.950 . S
C724 H716 0.950 . S
C724 C725 1.386 . S
C724 C726 1.391 . S
C725 C724 1.386 . S
C725 C729 1.393 . S
C726 H718 0.950 . S
C726 C724 1.391 . S
C726 C727 1.400 . S
C727 C726 1.400 . S
C727 C728 1.398 . S
C727 C733 1.491 . S
C728 H719 0.950 . S
C728 C727 1.398 . S
C728 C729 1.391 . S
C729 H717 0.950 1_655 S
C729 C725 1.393 . S
C729 C728 1.391 . S
C730 H720 0.950 . S
C730 C731 1.386 . S
C730 C732 1.391 . S
C731 C730 1.386 . S
C731 C735 1.393 . S
C732 H721 0.950 . S
C732 C730 1.391 . S
C732 C733 1.400 . S
C733 C727 1.491 . S
C733 C732 1.400 . S
C733 C734 1.398 . S
C734 H722 0.950 . S
C734 C733 1.398 . S
C734 C735 1.391 . S
C735 H723 0.950 . S
C735 C731 1.393 . S
C735 C734 1.391 . S
H736 C744 0.950 . S
H737 C749 0.950 . S
H738 C746 0.950 . S
H739 C748 0.950 . S
H740 C750 0.950 . S
H741 C752 0.950 . S
H742 C754 0.950 . S
H743 C755 0.950 . S
C744 H736 0.950 . S
C744 C745 1.386 . S
C744 C746 1.391 . S
C745 C744 1.386 . S
C745 C749 1.393 . S
C746 H738 0.950 . S
C746 C744 1.391 . S
C746 C747 1.400 . S
C747 C746 1.400 . S
C747 C748 1.398 . S
C747 C753 1.491 . S
C748 H739 0.950 . S
C748 C747 1.398 . S
C748 C749 1.391 . S
C749 H737 0.950 . S
C749 C745 1.393 . S
C749 C748 1.391 . S
C750 H740 0.950 . S
C750 C751 1.386 . S
C750 C752 1.391 . S
C751 C750 1.386 . S
C751 C755 1.393 . S
C752 H741 0.950 . S
C752 C750 1.391 . S
C752 C753 1.400 . S
C753 C747 1.491 . S
C753 C752 1.400 . S
C753 C754 1.398 . S
C754 H742 0.950 . S
C754 C753 1.398 . S
C754 C755 1.391 . S
C755 H743 0.950 . S
C755 C751 1.393 . S
C755 C754 1.391 . S
H756 C764 0.950 . S
H757 C769 0.950 . S
H758 C766 0.950 . S
H759 C768 0.950 . S
H760 C770 0.950 . S
H761 C772 0.950 . S
H762 C774 0.950 . S
H763 C775 0.950 . S
C764 H756 0.950 . S
C764 C765 1.386 . S
C764 C766 1.391 . S
C765 C764 1.386 . S
C765 C769 1.393 . S
C766 H758 0.950 . S
C766 C764 1.391 . S
C766 C767 1.400 . S
C767 C766 1.400 . S
C767 C768 1.398 . S
C767 C773 1.491 . S
C768 H759 0.950 . S
C768 C767 1.398 . S
C768 C769 1.391 . S
C769 H757 0.950 . S
C769 C765 1.393 . S
C769 C768 1.391 . S
C770 H760 0.950 . S
C770 C771 1.386 . S
C770 C772 1.391 . S
C771 C770 1.386 . S
C771 C775 1.393 . S
C772 H761 0.950 . S
C772 C770 1.391 . S
C772 C773 1.400 . S
C773 C767 1.491 . S
C773 C772 1.400 . S
C773 C774 1.398 . S
C774 H762 0.950 . S
C774 C773 1.398 . S
C774 C775 1.391 . S
C775 H763 0.950 . S
C775 C771 1.393 . S
C775 C774 1.391 . S
H776 C784 0.950 . S
H777 C789 0.950 . S
H778 C786 0.950 . S
H779 C788 0.950 . S
H780 C790 0.950 . S
H781 C792 0.950 . S
H782 C794 0.950 . S
H783 C795 0.950 . S
C784 H776 0.950 . S
C784 C785 1.386 . S
C784 C786 1.391 . S
C785 C784 1.386 . S
C785 C789 1.393 . S
C786 H778 0.950 . S
C786 C784 1.391 . S
C786 C787 1.400 . S
C787 C786 1.400 . S
C787 C788 1.398 . S
C787 C793 1.491 . S
C788 H779 0.950 . S
C788 C787 1.398 . S
C788 C789 1.391 . S
C789 H777 0.950 . S
C789 C785 1.393 . S
C789 C788 1.391 . S
C790 H780 0.950 . S
C790 C791 1.386 . S
C790 C792 1.391 . S
C791 C790 1.386 . S
C791 C795 1.393 . S
C792 H781 0.950 . S
C792 C790 1.391 . S
C792 C793 1.400 . S
C793 C787 1.491 . S
C793 C792 1.400 . S
C793 C794 1.398 . S
C794 H782 0.950 . S
C794 C793 1.398 . S
C794 C795 1.391 . S
C795 H783 0.950 . S
C795 C791 1.393 . S
C795 C794 1.391 . S
H796 C804 0.950 . S
H797 C809 0.950 . S
H798 C806 0.950 . S
H799 C808 0.950 . S
H800 C810 0.950 . S
H801 C812 0.950 . S
H802 C814 0.950 . S
H803 C815 0.950 . S
C804 H796 0.950 . S
C804 C805 1.386 . S
C804 C806 1.391 . S
C805 C804 1.386 . S
C805 C809 1.393 . S
C806 H798 0.950 . S
C806 C804 1.391 . S
C806 C807 1.400 . S
C807 C806 1.400 . S
C807 C808 1.398 . S
C807 C813 1.491 . S
C808 H799 0.950 . S
C808 C807 1.398 . S
C808 C809 1.391 . S
C809 H797 0.950 . S
C809 C805 1.393 . S
C809 C808 1.391 . S
C810 H800 0.950 . S
C810 C811 1.386 . S
C810 C812 1.391 . S
C811 C810 1.386 . S
C811 C815 1.393 . S
C812 H801 0.950 . S
C812 C810 1.391 . S
C812 C813 1.400 . S
C813 C807 1.491 . S
C813 C812 1.400 . S
C813 C814 1.398 . S
C814 H802 0.950 . S
C814 C813 1.398 . S
C814 C815 1.391 . S
C815 H803 0.950 . S
C815 C811 1.393 . S
C815 C814 1.391 . S
H816 C824 0.950 . S
H817 C829 0.950 . S
H818 C826 0.950 . S
H819 C828 0.950 . S
H820 C830 0.950 . S
H821 C832 0.950 . S
H822 C834 0.950 . S
H823 C835 0.950 . S
C824 H816 0.950 . S
C824 C825 1.386 . S
C824 C826 1.391 . S
C825 C824 1.386 . S
C825 C829 1.393 . S
C826 H818 0.950 . S
C826 C824 1.391 . S
C826 C827 1.400 . S
C827 C826 1.400 . S
C827 C828 1.398 . S
C827 C833 1.491 . S
C828 H819 0.950 . S
C828 C827 1.398 . S
C828 C829 1.391 . S
C829 H817 0.950 . S
C829 C825 1.393 . S
C829 C828 1.391 . S
C830 H820 0.950 . S
C830 C831 1.386 . S
C830 C832 1.391 . S
C831 C830 1.386 . S
C831 C835 1.393 . S
C832 H821 0.950 . S
C832 C830 1.391 . S
C832 C833 1.400 . S
C833 C827 1.491 . S
C833 C832 1.400 . S
C833 C834 1.398 . S
C834 H822 0.950 . S
C834 C833 1.398 . S
C834 C835 1.391 . S
C835 H823 0.950 . S
C835 C831 1.393 . S
C835 C834 1.391 . S
H836 C844 0.950 . S
H837 C849 0.950 . S
H838 C846 0.950 . S
H839 C848 0.950 . S
H840 C850 0.950 . S
H841 C852 0.950 . S
H842 C854 0.950 . S
H843 C855 0.950 . S
C844 H836 0.950 . S
C844 C845 1.386 . S
C844 C846 1.391 . S
C845 C844 1.386 . S
C845 C849 1.393 . S
C846 H838 0.950 . S
C846 C844 1.391 . S
C846 C847 1.400 . S
C847 C846 1.400 . S
C847 C848 1.398 . S
C847 C853 1.491 . S
C848 H839 0.950 . S
C848 C847 1.398 . S
C848 C849 1.391 . S
C849 H837 0.950 . S
C849 C845 1.393 . S
C849 C848 1.391 . S
C850 H840 0.950 . S
C850 C851 1.386 . S
C850 C852 1.391 . S
C851 C850 1.386 . S
C851 C855 1.393 . S
C852 H841 0.950 . S
C852 C850 1.391 . S
C852 C853 1.400 . S
C853 C847 1.491 . S
C853 C852 1.400 . S
C853 C854 1.398 . S
C854 H842 0.950 . S
C854 C853 1.398 . S
C854 C855 1.391 . S
C855 H843 0.950 . S
C855 C851 1.393 . S
C855 C854 1.391 . S
H856 C864 0.950 . S
H857 C869 0.950 . S
H858 C866 0.950 . S
H859 C868 0.950 . S
H860 C870 0.950 . S
H861 C872 0.950 . S
H862 C874 0.950 . S
H863 C875 0.950 . S
C864 H856 0.950 . S
C864 C865 1.386 . S
C864 C866 1.391 . S
C865 C864 1.386 . S
C865 C869 1.393 . S
C866 H858 0.950 . S
C866 C864 1.391 . S
C866 C867 1.400 . S
C867 C866 1.400 . S
C867 C868 1.398 . S
C867 C873 1.491 . S
C868 H859 0.950 . S
C868 C867 1.398 . S
C868 C869 1.391 . S
C869 H857 0.950 . S
C869 C865 1.393 . S
C869 C868 1.391 . S
C870 H860 0.950 . S
C870 C871 1.386 . S
C870 C872 1.391 . S
C871 C870 1.386 . S
C871 C875 1.393 . S
C872 H861 0.950 . S
C872 C870 1.391 . S
C872 C873 1.400 . S
C873 C867 1.491 . S
C873 C872 1.400 . S
C873 C874 1.398 . S
C874 H862 0.950 . S
C874 C873 1.398 . S
C874 C875 1.391 . S
C875 H863 0.950 . S
C875 C871 1.393 . S
C875 C874 1.391 . S
H876 C884 0.950 . S
H877 C889 0.950 . S
H878 C886 0.950 . S
H879 C888 0.950 . S
H880 C890 0.950 . S
H881 C892 0.950 . S
H882 C894 0.950 . S
H883 C895 0.950 . S
C884 H876 0.950 . S
C884 C885 1.386 . S
C884 C886 1.391 . S
C885 C884 1.386 . S
C885 C889 1.393 . S
C886 H878 0.950 . S
C886 C884 1.391 . S
C886 C887 1.400 . S
C887 C886 1.400 . S
C887 C888 1.398 . S
C887 C893 1.491 . S
C888 H879 0.950 . S
C888 C887 1.398 . S
C888 C889 1.391 . S
C889 H877 0.950 . S
C889 C885 1.393 . S
C889 C888 1.391 . S
C890 H880 0.950 . S
C890 C891 1.386 . S
C890 C892 1.391 . S
C891 C890 1.386 . S
C891 C895 1.393 . S
C892 H881 0.950 . S
C892 C890 1.391 . S
C892 C893 1.400 . S
C893 C887 1.491 . S
C893 C892 1.400 . S
C893 C894 1.398 . S
C894 H882 0.950 . S
C894 C893 1.398 . S
C894 C895 1.391 . S
C895 H883 0.950 . S
C895 C891 1.393 . S
C895 C894 1.391 . S
C425 C45 1.627 . S
C431 C125 1.633 . S
C445 C30 1.623 . S
C451 C164 1.630 . S
C465 C39 1.622 . S
C471 C203 1.643 . S
C491 C242 1.642 . S
C485 C34 1.621 . S
C505 C97 1.625 . S
C511 C281 1.631 . S
C531 C320 1.636 . S
C525 C82 1.629 . S
C551 C359 1.643 . S
C545 C91 1.624 . S
C571 C398 1.642 . S
C565 C86 1.622 . S
C591 C354 1.550 . S
C585 C26 1.504 . S
C611 C393 1.545 . S
C605 C36 1.496 . S
C631 C261 1.540 . S
C625 C32 1.489 . S
C651 C300 1.552 . S
C645 C42 1.506 . S
C665 C18 1.571 . S
C671 C315 1.640 . S
C691 C339 1.636 . S
C685 C50 1.556 . S
C705 C4 1.570 . S
C711 C378 1.645 . S
C725 C48 1.573 . S
C731 C276 1.643 . S
C751 C198 1.550 . S
C745 C78 1.505 . S
C765 C88 1.484 . S
C771 C237 1.537 . S
C791 C105 1.552 . S
C785 C84 1.508 . S
C811 C144 1.553 . S
C805 C94 1.508 . S
C831 C159 1.632 . S
C825 C70 1.554 . S
C851 C183 1.652 . S
C845 C102 1.585 . S
C865 C56 1.559 . S
C871 C222 1.638 . S
C885 C100 1.578 . S
C891 C120 1.645 . S
