# Generated by pormake.
# Topology llk, (3,12)-cn, num edge types: 1
# Building blocks:
#     Node 0, Type 0, BuildingBlock: MIDCAF_clean_linker_0, # of connection points: 3
#     Node 1, Type 0, BuildingBlock: MIDCAF_clean_linker_0, # of connection points: 3
#     Node 2, Type 0, BuildingBlock: MIDCAF_clean_linker_0, # of connection points: 3
#     Node 3, Type 0, BuildingBlock: MIDCAF_clean_linker_0, # of connection points: 3
#     Node 4, Type 0, BuildingBlock: MIDCAF_clean_linker_0, # of connection points: 3
#     Node 5, Type 0, BuildingBlock: MIDCAF_clean_linker_0, # of connection points: 3
#     Node 6, Type 0, BuildingBlock: MIDCAF_clean_linker_0, # of connection points: 3
#     Node 7, Type 0, BuildingBlock: MIDCAF_clean_linker_0, # of connection points: 3
#     Node 8, Type 0, BuildingBlock: MIDCAF_clean_linker_0, # of connection points: 3
#     Node 9, Type 0, BuildingBlock: MIDCAF_clean_linker_0, # of connection points: 3
#     Node 10, Type 0, BuildingBlock: MIDCAF_clean_linker_0, # of connection points: 3
#     Node 11, Type 0, BuildingBlock: MIDCAF_clean_linker_0, # of connection points: 3
#     Node 12, Type 0, BuildingBlock: MIDCAF_clean_linker_0, # of connection points: 3
#     Node 13, Type 0, BuildingBlock: MIDCAF_clean_linker_0, # of connection points: 3
#     Node 14, Type 0, BuildingBlock: MIDCAF_clean_linker_0, # of connection points: 3
#     Node 15, Type 0, BuildingBlock: MIDCAF_clean_linker_0, # of connection points: 3
#     Node 16, Type 0, BuildingBlock: MIDCAF_clean_linker_0, # of connection points: 3
#     Node 17, Type 0, BuildingBlock: MIDCAF_clean_linker_0, # of connection points: 3
#     Node 18, Type 0, BuildingBlock: MIDCAF_clean_linker_0, # of connection points: 3
#     Node 19, Type 0, BuildingBlock: MIDCAF_clean_linker_0, # of connection points: 3
#     Node 20, Type 0, BuildingBlock: MIDCAF_clean_linker_0, # of connection points: 3
#     Node 21, Type 0, BuildingBlock: MIDCAF_clean_linker_0, # of connection points: 3
#     Node 22, Type 0, BuildingBlock: MIDCAF_clean_linker_0, # of connection points: 3
#     Node 23, Type 0, BuildingBlock: MIDCAF_clean_linker_0, # of connection points: 3
#     Node 24, Type 1, BuildingBlock: QEWDON_clean_sbu_0, # of connection points: 12
#     Node 25, Type 1, BuildingBlock: QEWDON_clean_sbu_0, # of connection points: 12
#     Node 26, Type 1, BuildingBlock: QEWDON_clean_sbu_0, # of connection points: 12
#     Node 27, Type 1, BuildingBlock: QEWDON_clean_sbu_0, # of connection points: 12
#     Node 28, Type 1, BuildingBlock: QEWDON_clean_sbu_0, # of connection points: 12
#     Node 29, Type 1, BuildingBlock: QEWDON_clean_sbu_0, # of connection points: 12
#     Edge 30, Type (0, 1), BuildingBlock: AJUNOK_clean_linker_0, # of connection points: 2
#     Edge 31, Type (0, 1), BuildingBlock: AJUNOK_clean_linker_0, # of connection points: 2
#     Edge 32, Type (0, 1), BuildingBlock: AJUNOK_clean_linker_0, # of connection points: 2
#     Edge 33, Type (0, 1), BuildingBlock: AJUNOK_clean_linker_0, # of connection points: 2
#     Edge 34, Type (0, 1), BuildingBlock: AJUNOK_clean_linker_0, # of connection points: 2
#     Edge 35, Type (0, 1), BuildingBlock: AJUNOK_clean_linker_0, # of connection points: 2
#     Edge 36, Type (0, 1), BuildingBlock: AJUNOK_clean_linker_0, # of connection points: 2
#     Edge 37, Type (0, 1), BuildingBlock: AJUNOK_clean_linker_0, # of connection points: 2
#     Edge 38, Type (0, 1), BuildingBlock: AJUNOK_clean_linker_0, # of connection points: 2
#     Edge 39, Type (0, 1), BuildingBlock: AJUNOK_clean_linker_0, # of connection points: 2
#     Edge 40, Type (0, 1), BuildingBlock: AJUNOK_clean_linker_0, # of connection points: 2
#     Edge 41, Type (0, 1), BuildingBlock: AJUNOK_clean_linker_0, # of connection points: 2
#     Edge 42, Type (0, 1), BuildingBlock: AJUNOK_clean_linker_0, # of connection points: 2
#     Edge 43, Type (0, 1), BuildingBlock: AJUNOK_clean_linker_0, # of connection points: 2
#     Edge 44, Type (0, 1), BuildingBlock: AJUNOK_clean_linker_0, # of connection points: 2
#     Edge 45, Type (0, 1), BuildingBlock: AJUNOK_clean_linker_0, # of connection points: 2
#     Edge 46, Type (0, 1), BuildingBlock: AJUNOK_clean_linker_0, # of connection points: 2
#     Edge 47, Type (0, 1), BuildingBlock: AJUNOK_clean_linker_0, # of connection points: 2
#     Edge 48, Type (0, 1), BuildingBlock: AJUNOK_clean_linker_0, # of connection points: 2
#     Edge 49, Type (0, 1), BuildingBlock: AJUNOK_clean_linker_0, # of connection points: 2
#     Edge 50, Type (0, 1), BuildingBlock: AJUNOK_clean_linker_0, # of connection points: 2
#     Edge 51, Type (0, 1), BuildingBlock: AJUNOK_clean_linker_0, # of connection points: 2
#     Edge 52, Type (0, 1), BuildingBlock: AJUNOK_clean_linker_0, # of connection points: 2
#     Edge 53, Type (0, 1), BuildingBlock: AJUNOK_clean_linker_0, # of connection points: 2
#     Edge 54, Type (0, 1), BuildingBlock: AJUNOK_clean_linker_0, # of connection points: 2
#     Edge 55, Type (0, 1), BuildingBlock: AJUNOK_clean_linker_0, # of connection points: 2
#     Edge 56, Type (0, 1), BuildingBlock: AJUNOK_clean_linker_0, # of connection points: 2
#     Edge 57, Type (0, 1), BuildingBlock: AJUNOK_clean_linker_0, # of connection points: 2
#     Edge 58, Type (0, 1), BuildingBlock: AJUNOK_clean_linker_0, # of connection points: 2
#     Edge 59, Type (0, 1), BuildingBlock: AJUNOK_clean_linker_0, # of connection points: 2
#     Edge 60, Type (0, 1), BuildingBlock: AJUNOK_clean_linker_0, # of connection points: 2
#     Edge 61, Type (0, 1), BuildingBlock: AJUNOK_clean_linker_0, # of connection points: 2
#     Edge 62, Type (0, 1), BuildingBlock: AJUNOK_clean_linker_0, # of connection points: 2
#     Edge 63, Type (0, 1), BuildingBlock: AJUNOK_clean_linker_0, # of connection points: 2
#     Edge 64, Type (0, 1), BuildingBlock: AJUNOK_clean_linker_0, # of connection points: 2
#     Edge 65, Type (0, 1), BuildingBlock: AJUNOK_clean_linker_0, # of connection points: 2
#     Edge 66, Type (0, 1), BuildingBlock: AJUNOK_clean_linker_0, # of connection points: 2
#     Edge 67, Type (0, 1), BuildingBlock: AJUNOK_clean_linker_0, # of connection points: 2
#     Edge 68, Type (0, 1), BuildingBlock: AJUNOK_clean_linker_0, # of connection points: 2
#     Edge 69, Type (0, 1), BuildingBlock: AJUNOK_clean_linker_0, # of connection points: 2
#     Edge 70, Type (0, 1), BuildingBlock: AJUNOK_clean_linker_0, # of connection points: 2
#     Edge 71, Type (0, 1), BuildingBlock: AJUNOK_clean_linker_0, # of connection points: 2
#     Edge 72, Type (0, 1), BuildingBlock: AJUNOK_clean_linker_0, # of connection points: 2
#     Edge 73, Type (0, 1), BuildingBlock: AJUNOK_clean_linker_0, # of connection points: 2
#     Edge 74, Type (0, 1), BuildingBlock: AJUNOK_clean_linker_0, # of connection points: 2
#     Edge 75, Type (0, 1), BuildingBlock: AJUNOK_clean_linker_0, # of connection points: 2
#     Edge 76, Type (0, 1), BuildingBlock: AJUNOK_clean_linker_0, # of connection points: 2
#     Edge 77, Type (0, 1), BuildingBlock: AJUNOK_clean_linker_0, # of connection points: 2
#     Edge 78, Type (0, 1), BuildingBlock: AJUNOK_clean_linker_0, # of connection points: 2
#     Edge 79, Type (0, 1), BuildingBlock: AJUNOK_clean_linker_0, # of connection points: 2
#     Edge 80, Type (0, 1), BuildingBlock: AJUNOK_clean_linker_0, # of connection points: 2
#     Edge 81, Type (0, 1), BuildingBlock: AJUNOK_clean_linker_0, # of connection points: 2
#     Edge 82, Type (0, 1), BuildingBlock: AJUNOK_clean_linker_0, # of connection points: 2
#     Edge 83, Type (0, 1), BuildingBlock: AJUNOK_clean_linker_0, # of connection points: 2
#     Edge 84, Type (0, 1), BuildingBlock: AJUNOK_clean_linker_0, # of connection points: 2
#     Edge 85, Type (0, 1), BuildingBlock: AJUNOK_clean_linker_0, # of connection points: 2
#     Edge 86, Type (0, 1), BuildingBlock: AJUNOK_clean_linker_0, # of connection points: 2
#     Edge 87, Type (0, 1), BuildingBlock: AJUNOK_clean_linker_0, # of connection points: 2
#     Edge 88, Type (0, 1), BuildingBlock: AJUNOK_clean_linker_0, # of connection points: 2
#     Edge 89, Type (0, 1), BuildingBlock: AJUNOK_clean_linker_0, # of connection points: 2
#     Edge 90, Type (0, 1), BuildingBlock: AJUNOK_clean_linker_0, # of connection points: 2
#     Edge 91, Type (0, 1), BuildingBlock: AJUNOK_clean_linker_0, # of connection points: 2
#     Edge 92, Type (0, 1), BuildingBlock: AJUNOK_clean_linker_0, # of connection points: 2
#     Edge 93, Type (0, 1), BuildingBlock: AJUNOK_clean_linker_0, # of connection points: 2
#     Edge 94, Type (0, 1), BuildingBlock: AJUNOK_clean_linker_0, # of connection points: 2
#     Edge 95, Type (0, 1), BuildingBlock: AJUNOK_clean_linker_0, # of connection points: 2
#     Edge 96, Type (0, 1), BuildingBlock: AJUNOK_clean_linker_0, # of connection points: 2
#     Edge 97, Type (0, 1), BuildingBlock: AJUNOK_clean_linker_0, # of connection points: 2
#     Edge 98, Type (0, 1), BuildingBlock: AJUNOK_clean_linker_0, # of connection points: 2
#     Edge 99, Type (0, 1), BuildingBlock: AJUNOK_clean_linker_0, # of connection points: 2
#     Edge 100, Type (0, 1), BuildingBlock: AJUNOK_clean_linker_0, # of connection points: 2
#     Edge 101, Type (0, 1), BuildingBlock: AJUNOK_clean_linker_0, # of connection points: 2
# Relax obj value: 0.130
# Max RMSD: 0.164
# Mean RMSD: 0.148
data_MOF--net-llk--node1-QEWDON_clean_sbu_0--node2-MIDCAF_clean_linker_0--edge1-AJUNOK_clean_linker_0
_symmetry_space_group_name_H-M    P1
_symmetry_Int_Tables_number       1
_symmetry_cell_setting            triclinic
loop_
_symmetry_equiv_pos_as_xyz
'x, y, z'
_cell_length_a     44.45341
_cell_length_b     45.420835
_cell_length_c     44.960138
_cell_angle_alpha  90.160118
_cell_angle_beta   89.992501
_cell_angle_gamma 89.695561
loop_
_atom_site_label
_atom_site_type_symbol
_atom_site_fract_x
_atom_site_fract_y
_atom_site_fract_z
_atom_type_partial_charge
C0 C 0.01599 0.36151 0.21564 0.0
C1 C 0.02818 0.35194 0.18845 0.0
C2 C 0.04084 0.32337 0.18702 0.0
C3 C 0.04275 0.30564 0.21268 0.0
H4 H 0.08933 0.223 0.31761 0.0
H5 H 0.08283 0.17775 0.34616 0.0
H6 H 0.98717 0.18181 0.32954 0.0
H7 H -0.00578 0.22603 0.29982 0.0
H8 H 0.04324 0.29052 0.3787 0.0
H9 H 0.03536 0.32305 0.42135 0.0
H10 H 0.04715 0.39873 0.36483 0.0
H11 H 0.05507 0.36649 0.32211 0.0
H12 H 0.00915 0.35282 0.26169 0.0
H13 H 0.00616 0.38329 0.21778 0.0
H14 H 0.04986 0.31499 0.16628 0.0
H15 H 0.0538 0.28437 0.21129 0.0
N16 N 0.039 0.2712 0.27201 0.0
N17 N 0.04899 0.27717 0.32318 0.0
N18 N 0.04313 0.31849 0.29314 0.0
C19 C 0.04458 0.25927 0.29943 0.0
C20 C 0.04833 0.30675 0.32028 0.0
C21 C 0.0386 0.30121 0.26887 0.0
C22 C 0.0424 0.2275 0.30576 0.0
C23 C 0.06721 0.21316 0.3187 0.0
C24 C 0.06335 0.18757 0.33557 0.0
C25 C 0.03447 0.17597 0.34036 0.0
C26 C 0.00988 0.18943 0.32581 0.0
C27 C 0.01387 0.21478 0.30853 0.0
C28 C 0.04927 0.32594 0.34687 0.0
C29 C 0.04484 0.31407 0.37542 0.0
C30 C 0.04024 0.33261 0.39985 0.0
C31 C 0.04032 0.36326 0.39617 0.0
C32 C 0.04704 0.37511 0.36817 0.0
C33 C 0.05138 0.35663 0.34371 0.0
C34 C 0.03213 0.31626 0.24017 0.0
C35 C 0.01792 0.34401 0.24099 0.0
C36 C 0.71104 0.10558 0.14009 0.0
C37 C 0.71949 0.08181 0.12187 0.0
C38 C 0.74559 0.06564 0.12892 0.0
C39 C 0.76055 0.0707 0.15585 0.0
H40 H 0.82202 0.11978 0.27252 0.0
H41 H 0.85719 0.11102 0.31367 0.0
H42 H 0.84366 0.0173 0.3039 0.0
H43 H 0.81003 0.02625 0.26225 0.0
H44 H 0.73205 0.04955 0.30833 0.0
H45 H 0.68881 0.0352 0.33764 0.0
H46 H 0.62917 0.06834 0.26965 0.0
H47 H 0.67272 0.08296 0.23975 0.0
H48 H 0.71683 0.1269 0.18209 0.0
H49 H 0.69106 0.1184 0.13508 0.0
H50 H 0.7524 0.04701 0.11536 0.0
H51 H 0.77835 0.05572 0.16253 0.0
N52 N 0.78238 0.08492 0.21988 0.0
N53 N 0.76017 0.07339 0.26585 0.0
N54 N 0.72964 0.08312 0.22498 0.0
C55 C 0.78504 0.07827 0.24931 0.0
C56 C 0.73241 0.07566 0.25392 0.0
C57 C 0.75433 0.08788 0.20789 0.0
C58 C 0.81401 0.07362 0.26398 0.0
C59 C 0.82799 0.09736 0.2783 0.0
C60 C 0.84736 0.09233 0.30235 0.0
C61 C 0.85244 0.06351 0.31268 0.0
C62 C 0.84027 0.03978 0.2966 0.0
C63 C 0.82129 0.04482 0.27247 0.0
C64 C 0.70586 0.06754 0.27171 0.0
C65 C 0.70982 0.05381 0.29942 0.0
C66 C 0.68508 0.04521 0.31609 0.0
C67 C 0.65585 0.05019 0.3055 0.0
C68 C 0.65164 0.06404 0.27797 0.0
C69 C 0.6765 0.07246 0.26103 0.0
C70 C 0.74937 0.09184 0.17587 0.0
C71 C 0.72588 0.11055 0.16689 0.0
C72 C 0.03503 0.71356 0.15913 0.0
C73 C 0.00828 0.69727 0.15668 0.0
C74 C 0.98475 0.703 0.17675 0.0
C75 C 0.98859 0.72335 0.19988 0.0
H76 H 0.97905 0.82228 0.26852 0.0
H77 H 0.97168 0.86762 0.29767 0.0
H78 H 0.06696 0.871 0.31528 0.0
H79 H 0.07417 0.82526 0.28696 0.0
H80 H 0.05811 0.75104 0.33904 0.0
H81 H 0.05911 0.7157 0.38002 0.0
H82 H 0.03039 0.64721 0.31966 0.0
H83 H 0.03091 0.68153 0.27896 0.0
H84 H 0.06056 0.74419 0.1852 0.0
H85 H 0.05381 0.70911 0.14439 0.0
H86 H 0.964 0.69067 0.1754 0.0
H87 H 0.97097 0.72586 0.21637 0.0
N88 N 0.02245 0.77994 0.23867 0.0
N89 N 0.03849 0.77001 0.28763 0.0
N90 N 0.03176 0.73132 0.25408 0.0
C91 C 0.03028 0.78964 0.26637 0.0
C92 C 0.03916 0.74078 0.28168 0.0
C93 C 0.02369 0.75054 0.23254 0.0
C94 C 0.02722 0.82068 0.27525 0.0
C95 C -0.0015 0.83342 0.27763 0.0
C96 C -0.00573 0.85908 0.29449 0.0
C97 C 0.01879 0.87252 0.30872 0.0
C98 C 0.0478 0.86103 0.30438 0.0
C99 C 0.05193 0.83506 0.28809 0.0
C100 C 0.0443 0.71917 0.30571 0.0
C101 C 0.05284 0.72823 0.33444 0.0
C102 C 0.05339 0.70805 0.3579 0.0
C103 C 0.04529 0.67856 0.35304 0.0
C104 C 0.03788 0.66943 0.32409 0.0
C105 C 0.03778 0.68935 0.30069 0.0
C106 C 0.01596 0.73827 0.20329 0.0
C107 C 0.03886 0.7338 0.18231 0.0
C108 C 0.33337 0.00703 0.18029 0.0
C109 C 0.32513 0.99325 0.15358 0.0
C110 C 0.29541 0.98312 0.1502 0.0
C111 C 0.2747 0.98597 0.17363 0.0
H112 H 0.16711 0.98374 0.23419 0.0
H113 H 0.11809 0.9937 0.25707 0.0
H114 H 0.15296 0.07515 0.29292 0.0
H115 H 0.20038 0.06592 0.26861 0.0
H116 H 0.24082 0.02207 0.33269 0.0
H117 H 0.2682 0.02182 0.37996 0.0
H118 H 0.34025 0.97238 0.3388 0.0
H119 H 0.31327 0.97254 0.29176 0.0
H120 H 0.32039 0.01989 0.22402 0.0
H121 H 0.35552 0.01646 0.18313 0.0
H122 H 0.28833 0.97283 0.12962 0.0
H123 H 0.25209 0.9776 0.17092 0.0
N124 N 0.23438 0.00848 0.22467 0.0
N125 N 0.23125 0.0088 0.27699 0.0
N126 N 0.27637 0.99596 0.25398 0.0
C127 C 0.21816 0.01279 0.25003 0.0
C128 C 0.26025 1.00006 0.27915 0.0
C129 C 0.2638 1.00007 0.22681 0.0
C130 C 0.18728 0.0241 0.24981 0.0
C131 C 0.16333 1.00469 0.24519 0.0
C132 C 0.13546 0.01026 0.25869 0.0
C133 C 0.1316 0.03494 0.27743 0.0
C134 C 0.15452 0.05617 0.2784 0.0
C135 C 0.182 0.05085 0.26451 0.0
C136 C 0.27495 0.99739 0.30845 0.0
C137 C 0.26225 0.01068 0.33388 0.0
C138 C 0.27784 0.01061 0.36088 0.0
C139 C 0.30602 0.99677 0.36296 0.0
C140 C 0.31822 0.98267 0.33786 0.0
C141 C 0.30288 0.98301 0.31087 0.0
C142 C 0.28368 0.99868 0.20068 0.0
C143 C 0.31307 0.00938 0.20361 0.0
C144 C 0.97775 0.70908 0.8492 0.0
C145 C 0.00728 0.6994 0.85513 0.0
C146 C 0.03082 0.70972 0.83711 0.0
C147 C 0.02469 0.72855 0.81307 0.0
H148 H 0.00911 0.83239 0.76961 0.0
H149 H 0.01922 0.88146 0.74953 0.0
H150 H 0.98227 0.85492 0.66489 0.0
H151 H 0.97142 0.80668 0.68478 0.0
H152 H 0.97373 0.73912 0.66884 0.0
H153 H 0.97544 0.6973 0.635 0.0
H154 H 0.94667 0.63988 0.70575 0.0
H155 H 0.94578 0.68161 0.74005 0.0
H156 H 0.94851 0.73304 0.82007 0.0
H157 H 0.95897 0.70091 0.86207 0.0
H158 H 0.05372 0.70243 0.84099 0.0
H159 H 0.04285 0.73476 0.79834 0.0
N160 N 0.99188 0.77641 0.76816 0.0
N161 N 0.97319 0.7645 0.72069 0.0
N162 N 0.97536 0.72842 0.75745 0.0
C163 C 0.98449 0.78483 0.73987 0.0
C164 C 0.96846 0.73637 0.7293 0.0
C165 C 0.98704 0.74807 0.7769 0.0
C166 C 0.98971 0.81531 0.72886 0.0
C167 C 0.00299 0.83708 0.74679 0.0
C168 C 0.00895 0.86514 0.73522 0.0
C169 C 0.0019 0.87197 0.70545 0.0
C170 C 0.98787 0.85048 0.68791 0.0
C171 C 0.98185 0.82263 0.6994 0.0
C172 C 0.96059 0.71346 0.70734 0.0
C173 C 0.96685 0.71779 0.67704 0.0
C174 C 0.96771 0.69383 0.65757 0.0
C175 C 0.96205 0.66529 0.66807 0.0
C176 C 0.95195 0.66159 0.69739 0.0
C177 C 0.95142 0.68548 0.71696 0.0
C178 C -0.00504 0.73714 0.80667 0.0
C179 C 0.9717 0.72763 0.82524 0.0
C180 C 0.19331 0.99421 0.70622 0.0
C181 C 0.18318 0.02352 0.70592 0.0
C182 C 0.19126 0.04236 0.72947 0.0
C183 C 0.21099 0.0326 0.75169 0.0
H184 H 0.27861 0.96803 0.86233 0.0
H185 H 0.31523 0.97652 0.90202 0.0
H186 H 0.33765 0.06026 0.86332 0.0
H187 H 0.30021 0.05234 0.82438 0.0
H188 H 0.35906 0.98279 0.78404 0.0
H189 H 0.40214 0.9897 0.75112 0.0
H190 H 0.34599 0.97229 0.67501 0.0
H191 H 0.30273 0.96527 0.70746 0.0
H192 H 0.22205 0.96237 0.72682 0.0
H193 H 0.18646 0.97885 0.68906 0.0
H194 H 0.18342 0.06497 0.72995 0.0
H195 H 0.21851 0.04803 0.7685 0.0
N196 N 0.25311 1.00436 0.79688 0.0
N197 N 0.30295 0.98679 0.79547 0.0
N198 N 0.27325 0.98395 0.75299 0.0
C199 C 0.27966 0.99865 0.81086 0.0
C200 C 0.30007 0.9795 0.7665 0.0
C201 C 0.24969 0.99603 0.76791 0.0
C202 C 0.28654 0.00968 0.8406 0.0
C203 C 0.28984 0.98912 0.86359 0.0
C204 C 0.31119 0.9937 0.88593 0.0
C205 C 0.32978 0.01852 0.88498 0.0
C206 C 0.32376 0.04075 0.86418 0.0
C207 C 0.30199 0.03647 0.84227 0.0
C208 C 0.32723 0.97416 0.74831 0.0
C209 C 0.35598 0.9794 0.76039 0.0
C210 C 0.38067 0.98344 0.74168 0.0
C211 C 0.37688 0.98191 0.71085 0.0
C212 C 0.34907 0.97369 0.69889 0.0
C213 C 0.32441 0.96966 0.71749 0.0
C214 C 0.2229 1.00395 0.75049 0.0
C215 C 0.21319 0.98461 0.72812 0.0
C216 C 0.03613 0.35422 0.82569 0.0
C217 C 0.01632 0.34801 0.84911 0.0
C218 C -0.00199 0.32286 0.84703 0.0
C219 C -0.00196 0.30554 0.82102 0.0
H220 H 0.03718 0.21412 0.74535 0.0
H221 H 0.04095 0.17138 0.71218 0.0
H222 H 0.95739 0.19666 0.6703 0.0
H223 H 0.95337 0.23867 0.70392 0.0
H224 H 0.02151 0.28965 0.65773 0.0
H225 H 0.03214 0.32035 0.61458 0.0
H226 H 0.02285 0.39831 0.66886 0.0
H227 H 0.01252 0.36775 0.71243 0.0
H228 H 0.05064 0.34353 0.78169 0.0
H229 H 0.05075 0.3732 0.8268 0.0
H230 H 0.98231 0.31768 0.86465 0.0
H231 H 0.98243 0.2874 0.81919 0.0
N232 N 0.00462 0.27116 0.76266 0.0
N233 N 0.00366 0.27906 0.71096 0.0
N234 N 0.01524 0.31796 0.74272 0.0
C235 C 0.00025 0.26079 0.73442 0.0
C236 C 0.01115 0.30753 0.71479 0.0
C237 C 0.01196 0.30014 0.76677 0.0
C238 C -0.00503 0.22961 0.7272 0.0
C239 C 0.01874 0.20944 0.73034 0.0
C240 C 0.02119 0.18538 0.71086 0.0
C241 C 3e-05 0.18137 0.68787 0.0
C242 C 0.97421 0.19927 0.68753 0.0
C243 C 0.97173 0.22319 0.70703 0.0
C244 C 0.01627 0.32632 0.68856 0.0
C245 C 0.02151 0.31335 0.66053 0.0
C246 C 0.02768 0.33079 0.63583 0.0
C247 C 0.02829 0.36148 0.63863 0.0
C248 C 0.02235 0.37459 0.66633 0.0
C249 C 0.01661 0.35713 0.6912 0.0
C250 C 0.0162 0.31334 0.79671 0.0
C251 C 0.03604 0.33717 0.79985 0.0
C252 C 0.87166 0.08425 0.74383 0.0
C253 C 0.89014 0.05918 0.7465 0.0
C254 C 0.88426 0.03926 0.76975 0.0
C255 C 0.85743 0.04146 0.78603 0.0
H256 H 0.75377 0.08534 0.85239 0.0
H257 H 0.71193 0.08676 0.88844 0.0
H258 H 0.68041 1.00335 0.85484 0.0
H259 H 0.72147 1.00214 0.81898 0.0
H260 H 0.70429 0.02427 0.74365 0.0
H261 H 0.67926 0.01784 0.696 0.0
H262 H 0.76008 0.04403 0.65017 0.0
H263 H 0.78537 0.05088 0.69788 0.0
H264 H 0.82948 0.10411 0.75494 0.0
H265 H 0.87551 0.10027 0.72646 0.0
H266 H 0.89878 0.02039 0.77331 0.0
H267 H 0.85125 0.02356 0.80066 0.0
N268 N 0.78893 0.05437 0.80701 0.0
N269 N 0.74612 0.04074 0.77938 0.0
N270 N 0.7906 0.0519 0.75471 0.0
C271 C 0.75943 0.04615 0.80602 0.0
C272 C 0.76153 0.04363 0.75363 0.0
C273 C 0.80446 0.05719 0.781 0.0
C274 C 0.74061 0.04372 0.83287 0.0
C275 C 0.73838 0.06696 0.85347 0.0
C276 C 0.71437 0.06792 0.8738 0.0
C277 C 0.69248 0.04567 0.87355 0.0
C278 C 0.69645 0.02124 0.85477 0.0
C279 C 0.72012 0.02038 0.83452 0.0
C280 C 0.74677 0.03833 0.72466 0.0
C281 C 0.71687 0.02858 0.7235 0.0
C282 C 0.70256 0.02471 0.69622 0.0
C283 C 0.71779 0.03057 0.66953 0.0
C284 C 0.74783 0.0397 0.6705 0.0
C285 C 0.76224 0.0435 0.69784 0.0
C286 C 0.83667 0.06391 0.77958 0.0
C287 C 0.84525 0.08666 0.76039 0.0
C288 C 0.14718 0.34159 0.02502 0.0
C289 C 0.13095 0.33727 0.99857 0.0
C290 C 0.14015 0.31473 0.97895 0.0
C291 C 0.16641 0.29841 0.98462 0.0
H292 H 0.26043 0.22601 0.9604 0.0
H293 H 0.30048 0.18918 0.95387 0.0
H294 H 0.31925 0.19274 0.04798 0.0
H295 H 0.27936 0.22946 0.05434 0.0
H296 H 0.32582 0.30382 0.00089 0.0
H297 H 0.36477 0.34101 0.00265 0.0
H298 H 0.29935 0.40607 0.03027 0.0
H299 H 0.25976 0.36869 0.02861 0.0
H300 H 0.18687 0.33111 0.04981 0.0
H301 H 0.14108 0.35909 0.04031 0.0
H302 H 0.12808 0.31102 0.95836 0.0
H303 H 0.17433 0.28276 0.96813 0.0
N304 N 0.22455 0.2668 0.00853 0.0
N305 N 0.27494 0.28178 0.01218 0.0
N306 N 0.2368 0.31708 0.01379 0.0
C307 C 0.25447 0.26007 0.00968 0.0
C308 C 0.26646 0.31026 0.01398 0.0
C309 C 0.21576 0.2956 0.0111 0.0
C310 C 0.2665 0.23003 0.00794 0.0
C311 C 0.27204 0.21765 0.97984 0.0
C312 C 0.29533 0.19708 0.97606 0.0
C313 C 0.31356 0.18898 0.00029 0.0
C314 C 0.30607 0.19928 0.02881 0.0
C315 C 0.28276 0.21966 0.03258 0.0
C316 C 0.28968 0.33327 0.01486 0.0
C317 C 0.31955 0.32599 0.00742 0.0
C318 C 0.34188 0.34726 0.00818 0.0
C319 C 0.33489 0.37617 0.01664 0.0
C320 C 0.30512 0.38373 0.02387 0.0
C321 C 0.28257 0.36242 0.02285 0.0
C322 C 0.18398 0.3048 0.00972 0.0
C323 C 0.1735 0.32563 0.03043 0.0
C324 C 0.13485 0.73176 0.00994 0.0
C325 C 0.12802 0.71352 0.03437 0.0
C326 C 0.14035 0.72061 0.06224 0.0
C327 C 0.16128 0.7434 0.06492 0.0
H328 H 0.22467 0.86148 0.04505 0.0
H329 H 0.25547 0.90531 0.03578 0.0
H330 H 0.30499 0.85704 0.9686 0.0
H331 H 0.27357 0.81465 0.9768 0.0
H332 H 0.30992 0.76191 0.0179 0.0
H333 H 0.34568 0.72167 0.01169 0.0
H334 H 0.28253 0.66135 0.051 0.0
H335 H 0.24637 0.70157 0.05746 0.0
H336 H 0.16234 0.76648 0.99297 0.0
H337 H 0.1266 0.72664 0.98789 0.0
H338 H 0.13538 0.70729 0.08156 0.0
H339 H 0.17284 0.7463 0.08594 0.0
N340 N 0.20751 0.79896 0.0284 0.0
N341 N 0.2587 0.78544 0.02764 0.0
N342 N 0.22306 0.75162 0.04343 0.0
C343 C 0.23695 0.806 0.02329 0.0
C344 C 0.25201 0.75828 0.0377 0.0
C345 C 0.20076 0.77154 0.03903 0.0
C346 C 0.24671 0.83477 0.01157 0.0
C347 C 0.24104 0.861 0.0272 0.0
C348 C 0.25899 0.88591 0.02214 0.0
C349 C 0.28287 0.88487 0.00143 0.0
C350 C 0.2865 0.85928 0.98412 0.0
C351 C 0.26853 0.83471 0.98899 0.0
C352 C 0.27514 0.73492 0.03793 0.0
C353 C 0.30363 0.74021 0.02556 0.0
C354 C 0.324 0.71717 0.02168 0.0
C355 C 0.31633 0.68851 0.0302 0.0
C356 C 0.28861 0.68333 0.04396 0.0
C357 C 0.26806 0.70636 0.0477 0.0
C358 C 0.17 0.7598 0.0399 0.0
C359 C 0.15528 0.75492 0.01281 0.0
C360 C 0.90012 0.31849 0.03677 0.0
C361 C 0.91576 0.33003 0.01227 0.0
C362 C 0.91085 0.31758 0.984 0.0
C363 C 0.88823 0.29662 0.97983 0.0
H364 H 0.81314 0.19611 0.01926 0.0
H365 H 0.78102 0.15232 0.02219 0.0
H366 H 0.72641 0.18638 0.95052 0.0
H367 H 0.75865 0.22917 0.94721 0.0
H368 H 0.73054 0.29503 0.97428 0.0
H369 H 0.69303 0.33404 0.97823 0.0
H370 H 0.75962 0.39251 0.01508 0.0
H371 H 0.79751 0.35343 0.01136 0.0
H372 H 0.86354 0.29163 0.05129 0.0
H373 H 0.90286 0.3279 0.05875 0.0
H374 H 0.92264 0.32595 0.96473 0.0
H375 H 0.8825 0.28997 0.95738 0.0
N376 N 0.82993 0.25138 0.9932 0.0
N377 N 0.78043 0.26883 0.98645 0.0
N378 N 0.81861 0.30199 0.99749 0.0
C379 C 0.80032 0.24606 0.98713 0.0
C380 C 0.7893 0.29678 0.99176 0.0
C381 C 0.83898 0.27969 0.998 0.0
C382 C 0.78815 0.2161 0.98322 0.0
C383 C 0.79503 0.19349 0.00338 0.0
C384 C 0.77638 0.16868 0.00531 0.0
C385 C 0.75068 0.16626 0.9871 0.0
C386 C 0.74592 0.18748 0.96492 0.0
C387 C 0.76438 0.2121 0.96306 0.0
C388 C 0.76703 0.32103 0.99261 0.0
C389 C 0.73735 0.31618 0.98313 0.0
C390 C 0.71588 0.33852 0.98525 0.0
C391 C 0.72353 0.36611 0.99706 0.0
C392 C 0.75321 0.37127 0.00616 0.0
C393 C 0.77484 0.34894 0.00385 0.0
C394 C 0.87034 0.28775 0.00387 0.0
C395 C 0.87762 0.29752 0.03257 0.0
C396 C 0.72773 0.86166 0.94154 0.0
C397 C 0.72206 0.87733 0.96795 0.0
C398 C 0.74297 0.87521 0.99138 0.0
C399 C 0.76686 0.85504 0.98983 0.0
H400 H 0.84871 0.76272 0.02805 0.0
H401 H 0.88765 0.72541 0.03524 0.0
H402 H 0.89317 0.71265 0.94017 0.0
H403 H 0.85341 0.74961 0.93323 0.0
H404 H 0.7706 0.69796 0.9847 0.0
H405 H 0.72982 0.66318 0.99356 0.0
H406 H 0.6665 0.73538 -0.00067 0.0
H407 H 0.70673 0.77008 0.98987 0.0
H408 H 0.75329 0.82729 0.92077 0.0
H409 H 0.71197 0.86248 0.9232 0.0
H410 H 0.7394 0.88733 0.01188 0.0
H411 H 0.7803 0.85119 0.00956 0.0
N412 N 0.81028 0.79863 0.97162 0.0
N413 N 0.79529 0.7499 0.98184 0.0
N414 N 0.75903 0.78621 0.97418 0.0
C415 C 0.81741 0.7699 0.97742 0.0
C416 C 0.76604 0.75798 0.98036 0.0
C417 C 0.78067 0.80652 0.96969 0.0
C418 C 0.84847 0.75924 0.9801 0.0
C419 C 0.85943 0.75307 0.00866 0.0
C420 C 0.88153 0.73148 0.01274 0.0
C421 C 0.89286 0.71554 0.9883 0.0
C422 C 0.88429 0.72411 0.95946 0.0
C423 C 0.86203 0.74566 0.95542 0.0
C424 C 0.74186 0.73673 0.98625 0.0
C425 C 0.74799 0.7064 0.98783 0.0
C426 C 0.72475 0.68654 0.993 0.0
C427 C 0.69511 0.69672 0.9967 0.0
C428 C 0.6891 0.72701 0.99584 0.0
C429 C 0.7122 0.74683 0.99051 0.0
C430 C 0.77013 0.83676 0.96485 0.0
C431 C 0.75168 0.84168 0.93999 0.0
C432 C 0.56824 0.83816 0.6718 0.0
C433 C 0.54284 0.83774 0.65323 0.0
C434 C 0.52003 0.81708 0.65908 0.0
C435 C 0.5216 0.79898 0.68438 0.0
H436 H 0.5611 0.70105 0.76388 0.0
H437 H 0.55327 0.65788 0.79573 0.0
H438 H 0.47409 0.69938 0.83294 0.0
H439 H 0.48163 0.74173 0.80081 0.0
H440 H 0.55093 0.79046 0.84583 0.0
H441 H 0.54761 0.82659 0.88586 0.0
H442 H 0.54768 0.89684 0.82137 0.0
H443 H 0.55173 0.86093 0.78129 0.0
H444 H 0.58866 0.82274 0.71191 0.0
H445 H 0.58617 0.8538 0.66808 0.0
H446 H 0.50041 0.81585 0.64488 0.0
H447 H 0.50281 0.7848 0.68959 0.0
N448 N 0.53463 0.76214 0.74138 0.0
N449 N 0.53828 0.77341 0.79241 0.0
N450 N 0.5503 0.80911 0.75733 0.0
C451 C 0.53205 0.75386 0.77047 0.0
C452 C 0.54748 0.80101 0.78611 0.0
C453 C 0.54407 0.79002 0.73488 0.0
C454 C 0.52177 0.7245 0.77974 0.0
C455 C 0.54123 0.70014 0.7778 0.0
C456 C 0.53705 0.67573 0.79646 0.0
C457 C 0.51349 0.67553 0.81746 0.0
C458 C 0.49244 0.69872 0.81708 0.0
C459 C 0.49663 0.72297 0.79854 0.0
C460 C 0.5511 0.82279 0.81032 0.0
C461 C 0.55095 0.81363 0.84017 0.0
C462 C 0.5491 0.83427 0.86311 0.0
C463 C 0.54731 0.86445 0.85669 0.0
C464 C 0.54954 0.87374 0.82701 0.0
C465 C 0.5516 0.85309 0.80402 0.0
C466 C 0.54592 0.80142 0.70417 0.0
C467 C 0.56969 0.82035 0.69697 0.0
C468 C 0.2632 0.51941 0.6598 0.0
C469 C 0.25621 0.54542 0.64428 0.0
C470 C 0.27299 0.57089 0.6506 0.0
C471 C 0.29311 0.57136 0.67464 0.0
H472 H 0.35756 0.59994 0.79617 0.0
H473 H 0.39538 0.59722 0.83552 0.0
H474 H 0.40732 0.50445 0.81777 0.0
H475 H 0.36995 0.50756 0.77769 0.0
H476 H 0.27166 0.54717 0.8302 0.0
H477 H 0.22401 0.54523 0.85734 0.0
H478 H 0.1763 0.57281 0.77856 0.0
H479 H 0.2237 0.57472 0.75124 0.0
H480 H 0.28554 0.50042 0.69739 0.0
H481 H 0.25085 0.49935 0.65551 0.0
H482 H 0.26888 0.59107 0.63846 0.0
H483 H 0.30283 0.59219 0.68131 0.0
N484 N 0.33007 0.55005 0.73755 0.0
N485 N 0.30676 0.55815 0.78411 0.0
N486 N 0.27746 0.55479 0.74127 0.0
C487 C 0.33215 0.55412 0.76769 0.0
C488 C 0.27934 0.5585 0.77097 0.0
C489 C 0.30232 0.55062 0.72444 0.0
C490 C 0.36118 0.55406 0.78368 0.0
C491 C 0.36934 0.5793 0.79978 0.0
C492 C 0.39079 0.57766 0.82247 0.0
C493 C 0.40425 0.5506 0.82996 0.0
C494 C 0.39778 0.52574 0.81229 0.0
C495 C 0.37642 0.52749 0.78929 0.0
C496 C 0.25142 0.56094 0.78857 0.0
C497 C 0.25111 0.55333 0.81881 0.0
C498 C 0.22391 0.55206 0.83427 0.0
C499 C 0.19671 0.55884 0.81988 0.0
C500 C 0.19708 0.5677 0.79008 0.0
C501 C 0.22419 0.56862 0.77451 0.0
C502 C 0.29712 0.54629 0.69243 0.0
C503 C 0.28347 0.51987 0.68361 0.0
C504 C 0.45942 0.20234 0.66866 0.0
C505 C 0.48893 0.19777 0.65832 0.0
C506 C 0.5122 0.21474 0.67098 0.0
C507 C 0.50631 0.23447 0.69439 0.0
H508 H 0.51974 0.32329 0.7676 0.0
H509 H 0.53044 0.36526 0.80057 0.0
H510 H 0.44155 0.35783 0.83848 0.0
H511 H 0.43088 0.31702 0.80526 0.0
H512 H 0.44439 0.24526 0.84391 0.0
H513 H 0.45211 0.21145 0.88533 0.0
H514 H 0.48746 0.14617 0.82442 0.0
H515 H 0.47867 0.17923 0.78307 0.0
H516 H 0.43105 0.22309 0.70123 0.0
H517 H 0.44092 0.18988 0.6594 0.0
H518 H 0.53535 0.21134 0.66427 0.0
H519 H 0.52497 0.24545 0.70516 0.0
N520 N 0.47575 0.27803 0.74386 0.0
N521 N 0.46478 0.26597 0.79359 0.0
N522 N 0.46649 0.22885 0.75776 0.0
C523 C 0.4711 0.28654 0.77277 0.0
C524 C 0.46274 0.23717 0.78642 0.0
C525 C 0.47258 0.24892 0.73634 0.0
C526 C 0.47432 0.31719 0.78355 0.0
C527 C 0.50205 0.33176 0.78188 0.0
C528 C 0.50829 0.35545 0.80113 0.0
C529 C 0.48687 0.36503 0.82227 0.0
C530 C 0.4584 0.35172 0.82217 0.0
C531 C 0.45223 0.32821 0.80306 0.0
C532 C 0.46115 0.21498 0.81025 0.0
C533 C 0.45296 0.22335 0.83929 0.0
C534 C 0.45743 0.20407 0.863 0.0
C535 C 0.47033 0.17619 0.85812 0.0
C536 C 0.47677 0.1672 0.82887 0.0
C537 C 0.47192 0.18629 0.80512 0.0
C538 C 0.47712 0.23745 0.70587 0.0
C539 C 0.45365 0.22174 0.69229 0.0
C540 C 0.79982 0.48387 0.68268 0.0
C541 C 0.80997 0.51103 0.67169 0.0
C542 C 0.79445 0.53685 0.67999 0.0
C543 C 0.77023 0.53559 0.69998 0.0
H544 H 0.6631 0.46274 0.77634 0.0
H545 H 0.61885 0.46423 0.80864 0.0
H546 H 0.6253 0.55898 0.81295 0.0
H547 H 0.6688 0.55727 0.78013 0.0
H548 H 0.73238 0.51032 0.85096 0.0
H549 H 0.76576 0.51545 0.89411 0.0
H550 H 0.8429 0.50261 0.83733 0.0
H551 H 0.81023 0.49734 0.79436 0.0
H552 H 0.76985 0.46166 0.71229 0.0
H553 H 0.81166 0.46363 0.67735 0.0
H554 H 0.80172 0.55808 0.67186 0.0
H555 H 0.76009 0.55592 0.7078 0.0
N556 N 0.71437 0.50937 0.74272 0.0
N557 N 0.71917 0.50593 0.79486 0.0
N558 N 0.76207 0.50543 0.76514 0.0
C559 C 0.70156 0.50817 0.77034 0.0
C560 C 0.74943 0.50451 0.79244 0.0
C561 C 0.74499 0.50787 0.74036 0.0
C562 C 0.66897 0.50994 0.77539 0.0
C563 C 0.65371 0.48394 0.78257 0.0
C564 C 0.62868 0.4848 0.80147 0.0
C565 C 0.6187 0.51168 0.81369 0.0
C566 C 0.63195 0.53792 0.80364 0.0
C567 C 0.65686 0.53702 0.78463 0.0
C568 C 0.76868 0.50386 0.81914 0.0
C569 C 0.75643 0.5081 0.84774 0.0
C570 C 0.77535 0.51096 0.87241 0.0
C571 C 0.80657 0.50957 0.86862 0.0
C572 C 0.81874 0.50382 0.84047 0.0
C573 C 0.8 0.50093 0.81594 0.0
C574 C 0.76109 0.50849 0.71184 0.0
C575 C 0.77566 0.48264 0.70248 0.0
C576 C 0.53159 0.19626 0.34148 0.0
C577 C 0.5133 0.20299 0.36607 0.0
C578 C 0.49772 0.23024 0.36609 0.0
C579 C 0.49679 0.24785 0.34038 0.0
H580 H 0.52857 0.32948 0.25958 0.0
H581 H 0.53518 0.37369 0.22895 0.0
H582 H 0.45959 0.34783 0.17475 0.0
H583 H 0.45263 0.30458 0.20546 0.0
H584 H 0.48002 0.23506 0.17666 0.0
H585 H 0.48661 0.19429 0.14169 0.0
H586 H 0.49168 0.13319 0.21483 0.0
H587 H 0.48493 0.17356 0.24989 0.0
H588 H 0.54336 0.20664 0.2967 0.0
H589 H 0.54413 0.17578 0.34047 0.0
H590 H 0.48452 0.23697 0.38518 0.0
H591 H 0.48192 0.26681 0.33982 0.0
N592 N 0.49995 0.27702 0.27578 0.0
N593 N 0.48387 0.26064 0.22851 0.0
N594 N 0.49512 0.22651 0.26537 0.0
C595 C 0.49057 0.28316 0.24736 0.0
C596 C 0.48599 0.23228 0.2374 0.0
C597 C 0.50204 0.24829 0.28472 0.0
C598 C 0.49019 0.31343 0.23487 0.0
C599 C 0.51268 0.33393 0.24187 0.0
C600 C 0.51661 0.35909 0.22414 0.0
C601 C 0.49793 0.36435 0.19932 0.0
C602 C 0.47407 0.34493 0.1939 0.0
C603 C 0.47024 0.3199 0.21145 0.0
C604 C 0.48264 0.20767 0.21609 0.0
C605 C 0.4816 0.21287 0.1853 0.0
C606 C 0.48523 0.18955 0.16526 0.0
C607 C 0.48986 0.16078 0.17575 0.0
C608 C 0.48831 0.15527 0.20634 0.0
C609 C 0.48454 0.17846 0.22633 0.0
C610 C 0.51211 0.23884 0.31462 0.0
C611 C 0.53115 0.21405 0.31623 0.0
C612 C 0.67314 0.47045 0.1846 0.0
C613 C 0.64385 0.47873 0.19292 0.0
C614 C 0.63842 0.48526 0.22323 0.0
C615 C 0.66234 0.48692 0.24369 0.0
H616 H 0.73314 0.47204 0.34687 0.0
H617 H 0.76118 0.48025 0.39301 0.0
H618 H 0.78715 0.56617 0.36125 0.0
H619 H 0.75697 0.55887 0.31711 0.0
H620 H 0.82724 0.50519 0.27663 0.0
H621 H 0.87373 0.51617 0.24964 0.0
H622 H 0.82504 0.51417 0.16671 0.0
H623 H 0.77868 0.50285 0.19321 0.0
H624 H 0.71898 0.46595 0.19695 0.0
H625 H 0.67857 0.46518 0.16172 0.0
H626 H 0.61593 0.49033 0.23096 0.0
H627 H 0.65777 0.49401 0.26627 0.0
N628 N 0.7169 0.49637 0.2824 0.0
N629 N 0.76885 0.50657 0.28217 0.0
N630 N 0.74572 0.49047 0.2388 0.0
C631 C 0.74236 0.50526 0.29696 0.0
C632 C 0.77077 0.49922 0.25321 0.0
C633 C 0.71875 0.48872 0.2529 0.0
C634 C 0.74316 0.51471 0.32833 0.0
C635 C 0.74316 0.49338 0.35082 0.0
C636 C 0.76009 0.49782 0.37682 0.0
C637 C 0.77813 0.52314 0.38005 0.0
C638 C 0.77412 0.54617 0.35958 0.0
C639 C 0.75652 0.54208 0.33419 0.0
C640 C 0.79927 0.50328 0.23702 0.0
C641 C 0.82648 0.50688 0.25261 0.0
C642 C 0.85302 0.51315 0.23732 0.0
C643 C 0.85252 0.51635 0.20638 0.0
C644 C 0.82563 0.51209 0.19071 0.0
C645 C 0.79923 0.50543 0.20587 0.0
C646 C 0.692 0.48128 0.23438 0.0
C647 C 0.69666 0.47136 0.205 0.0
C648 C 0.56554 0.8306 0.3495 0.0
C649 C 0.53473 0.83297 0.35605 0.0
C650 C 0.51436 0.81568 0.33961 0.0
C651 C 0.52431 0.79874 0.31528 0.0
H652 H 0.57142 0.70516 0.24758 0.0
H653 H 0.56795 0.66217 0.21397 0.0
H654 H 0.54222 0.7197 0.14199 0.0
H655 H 0.54572 0.76175 0.17472 0.0
H656 H 0.58965 0.81848 0.17082 0.0
H657 H 0.57573 0.85876 0.1379 0.0
H658 H 0.55235 0.91263 0.21359 0.0
H659 H 0.56597 0.87235 0.24694 0.0
H660 H 0.59889 0.81494 0.3188 0.0
H661 H 0.58179 0.84359 0.36171 0.0
H662 H 0.49051 0.81668 0.34445 0.0
H663 H 0.5078 0.78796 0.30133 0.0
N664 N 0.55914 0.76652 0.26164 0.0
N665 N 0.57278 0.78863 0.2164 0.0
N666 N 0.57113 0.81706 0.25946 0.0
C667 C 0.56457 0.76426 0.23168 0.0
C668 C 0.57602 0.81503 0.22989 0.0
C669 C 0.56307 0.79316 0.2756 0.0
C670 C 0.55918 0.737 0.21388 0.0
C671 C 0.5647 0.70842 0.22467 0.0
C672 C 0.56286 0.68387 0.20537 0.0
C673 C 0.5554 0.68756 0.17505 0.0
C674 C 0.54888 0.71603 0.16487 0.0
C675 C 0.55071 0.74022 0.18387 0.0
C676 C 0.57804 0.84187 0.21147 0.0
C677 C 0.58259 0.8392 0.18063 0.0
C678 C 0.57478 0.86225 0.16174 0.0
C679 C 0.56275 0.88841 0.1734 0.0
C680 C 0.56175 0.89257 0.20427 0.0
C681 C 0.56948 0.86943 0.22328 0.0
C682 C 0.55475 0.79886 0.30695 0.0
C683 C 0.57539 0.81393 0.32509 0.0
C684 C 0.37329 0.6039 0.19281 0.0
C685 C 0.39971 0.58806 0.19959 0.0
C686 C 0.40225 0.5757 0.22832 0.0
C687 C 0.37719 0.57461 0.2473 0.0
H688 H 0.27761 0.52832 0.3264 0.0
H689 H 0.23601 0.52692 0.36209 0.0
H690 H 0.19792 0.60504 0.32209 0.0
H691 H 0.24014 0.60687 0.28741 0.0
H692 H 0.22554 0.51785 0.22805 0.0
H693 H 0.19433 0.50808 0.18453 0.0
H694 H 0.26596 0.53682 0.12695 0.0
H695 H 0.29751 0.54641 0.17015 0.0
H696 H 0.32791 0.61353 0.20479 0.0
H697 H 0.36947 0.61321 0.17105 0.0
H698 H 0.42253 0.56414 0.23491 0.0
H699 H 0.37833 0.56115 0.26713 0.0
N700 N 0.30767 0.57586 0.27341 0.0
N701 N 0.26657 0.54843 0.25523 0.0
N702 N 0.3075 0.55749 0.22446 0.0
C703 C 0.28014 0.56327 0.27775 0.0
C704 C 0.28023 0.54536 0.22851 0.0
C705 C 0.32143 0.57255 0.24646 0.0
C706 C 0.26239 0.56817 0.30485 0.0
C707 C 0.26114 0.546 0.3264 0.0
C708 C 0.23704 0.54494 0.3464 0.0
C709 C 0.21351 0.56578 0.34483 0.0
C710 C 0.21586 0.58899 0.32435 0.0
C711 C 0.24012 0.59016 0.30458 0.0
C712 C 0.26377 0.53347 0.20265 0.0
C713 C 0.23495 0.52145 0.20615 0.0
C714 C 0.21713 0.51577 0.18129 0.0
C715 C 0.2278 0.52219 0.15266 0.0
C716 C 0.25731 0.53206 0.14894 0.0
C717 C 0.27528 0.53745 0.17373 0.0
C718 C 0.34974 0.58696 0.23828 0.0
C719 C 0.34898 0.60402 0.21235 0.0
C720 C 0.69031 0.84529 0.4616 0.0
C721 C 0.67275 0.84611 0.4876 0.0
C722 C 0.67941 0.82591 0.51047 0.0
C723 C 0.70419 0.80661 0.50801 0.0
H724 H 0.79828 0.71327 0.44481 0.0
H725 H 0.82923 0.66878 0.45099 0.0
H726 H 0.83208 0.68465 0.54569 0.0
H727 H 0.80046 0.72815 0.53937 0.0
H728 H 0.86471 0.79092 0.49394 0.0
H729 H 0.90498 0.82619 0.50223 0.0
H730 H 0.84489 0.89745 0.47918 0.0
H731 H 0.80437 0.86238 0.47081 0.0
H732 H 0.72941 0.8278 0.43987 0.0
H733 H 0.68597 0.8606 0.44366 0.0
H734 H 0.66611 0.82577 0.53065 0.0
H735 H 0.70997 0.7926 0.52664 0.0
N736 N 0.75874 0.76482 0.48703 0.0
N737 N 0.81082 0.77387 0.48485 0.0
N738 N 0.77698 0.81302 0.48048 0.0
C739 C 0.7878 0.75465 0.48731 0.0
C740 C 0.80571 0.80303 0.4815 0.0
C741 C 0.75343 0.7943 0.4832 0.0
C742 C 0.79599 0.72346 0.49176 0.0
C743 C 0.80419 0.70618 0.46705 0.0
C744 C 0.82242 0.68107 0.47056 0.0
C745 C 0.83311 0.6729 0.49885 0.0
C746 C 0.82365 0.68959 0.52366 0.0
C747 C 0.8053 0.7145 0.52013 0.0
C748 C 0.83115 0.82386 0.48203 0.0
C749 C 0.86012 0.81403 0.49002 0.0
C750 C 0.88322 0.83414 0.49482 0.0
C751 C 0.87793 0.86437 0.49129 0.0
C752 C 0.84956 0.87415 0.48167 0.0
C753 C 0.82633 0.85407 0.47711 0.0
C754 C 0.72282 0.80738 0.48276 0.0
C755 C 0.71515 0.8264 0.45936 0.0
C756 C 0.68873 0.19328 0.53184 0.0
C757 C 0.66025 0.20219 0.52169 0.0
C758 C 0.6573 0.2302 0.50843 0.0
C759 C 0.68277 0.24753 0.50286 0.0
H760 H 0.76015 0.33148 0.5234 0.0
H761 H 0.7878 0.37817 0.52729 0.0
H762 H 0.82922 0.3614 0.44221 0.0
H763 H 0.80162 0.31528 0.43799 0.0
H764 H 0.84598 0.24801 0.47549 0.0
H765 H 0.88454 0.21017 0.47803 0.0
H766 H 0.81811 0.14371 0.4585 0.0
H767 H 0.77907 0.18166 0.45756 0.0
H768 H 0.73586 0.20189 0.53253 0.0
H769 H 0.69211 0.17175 0.5416 0.0
H770 H 0.6356 0.23775 0.5005 0.0
H771 H 0.68023 0.2678 0.49045 0.0
N772 N 0.74414 0.27883 0.49441 0.0
N773 N 0.7907 0.26833 0.47153 0.0
N774 N 0.75978 0.22986 0.48643 0.0
C775 C 0.7702 0.28833 0.48146 0.0
C776 C 0.78557 0.23914 0.47376 0.0
C777 C 0.73896 0.24928 0.49674 0.0
C778 C 0.77885 0.31972 0.48047 0.0
C779 C 0.77411 0.33843 0.50498 0.0
C780 C 0.79001 0.36498 0.50729 0.0
C781 C 0.8106 0.37306 0.48504 0.0
C782 C 0.81342 0.35555 0.45954 0.0
C783 C 0.7976 0.32922 0.45721 0.0
C784 C 0.80949 0.21766 0.46687 0.0
C785 C 0.83975 0.22546 0.47073 0.0
C786 C 0.86196 0.20371 0.47191 0.0
C787 C 0.85438 0.17387 0.46851 0.0
C788 C 0.82454 0.16649 0.4615 0.0
C789 C 0.80222 0.18818 0.46095 0.0
C790 C 0.71148 0.23699 0.51036 0.0
C791 C 0.71397 0.2105 0.52631 0.0
C792 C 0.33474 0.84305 0.49867 0.0
C793 C 0.35828 0.83894 0.5191 0.0
C794 C 0.35568 0.81624 0.5403 0.0
C795 C 0.32921 0.79952 0.54229 0.0
H796 H 0.24776 0.71288 0.50443 0.0
H797 H 0.21354 0.67104 0.49897 0.0
H798 H 0.17054 0.69438 0.58182 0.0
H799 H 0.2048 0.73587 0.58732 0.0
H800 H 0.16352 0.79965 0.55079 0.0
H801 H 0.12171 0.8329 0.53975 0.0
H802 H 0.18413 0.8975 0.50684 0.0
H803 H 0.22608 0.8645 0.51764 0.0
H804 H 0.28989 0.83175 0.48596 0.0
H805 H 0.33613 0.86001 0.48185 0.0
H806 H 0.37321 0.81273 0.55665 0.0
H807 H 0.32694 0.78368 0.56009 0.0
N808 N 0.2678 0.76612 0.53632 0.0
N809 N 0.21702 0.77925 0.54368 0.0
N810 N 0.25161 0.81528 0.53055 0.0
C811 C 0.23891 0.75839 0.54324 0.0
C812 C 0.22305 0.80764 0.53732 0.0
C813 C 0.27414 0.79498 0.53031 0.0
C814 C 0.22895 0.72757 0.5463 0.0
C815 C 0.23212 0.70808 0.52223 0.0
C816 C 0.21216 0.68446 0.51888 0.0
C817 C 0.18881 0.68 0.53959 0.0
C818 C 0.18813 0.69733 0.56545 0.0
C819 C 0.20791 0.72098 0.56868 0.0
C820 C 0.19819 0.82925 0.53476 0.0
C821 C 0.16846 0.82111 0.54162 0.0
C822 C 0.14448 0.84013 0.53547 0.0
C823 C 0.14985 0.86753 0.52233 0.0
C824 C 0.17955 0.87629 0.51679 0.0
C825 C 0.20352 0.8574 0.52306 0.0
C826 C 0.30483 0.8055 0.52334 0.0
C827 C 0.30833 0.82668 0.50088 0.0
C828 C 0.22563 0.35143 0.48455 0.0
C829 C 0.21902 0.36937 0.50927 0.0
C830 C 0.22981 0.36106 0.53738 0.0
C831 C 0.24506 0.33428 0.54104 0.0
H832 H 0.34359 0.25846 0.50349 0.0
H833 H 0.38709 0.22607 0.4941 0.0
H834 H 0.32789 0.15096 0.49147 0.0
H835 H 0.28514 0.18294 0.49885 0.0
H836 H 0.23872 0.18053 0.55256 0.0
H837 H 0.19538 0.1486 0.55401 0.0
H838 H 0.13634 0.2244 0.5533 0.0
H839 H 0.17997 0.25672 0.55055 0.0
H840 H 0.24448 0.31048 0.46911 0.0
H841 H 0.2175 0.35739 0.46266 0.0
H842 H 0.22476 0.37436 0.55681 0.0
H843 H 0.25103 0.32722 0.56328 0.0
N844 N 0.28178 0.27028 0.51064 0.0
N845 N 0.263 0.22549 0.52862 0.0
N846 N 0.23529 0.26853 0.53598 0.0
C847 C 0.28489 0.24053 0.51431 0.0
C848 C 0.23822 0.2391 0.53951 0.0
C849 C 0.25688 0.28428 0.52191 0.0
C850 C 0.31096 0.22326 0.50275 0.0
C851 C 0.33995 0.23514 0.50006 0.0
C852 C 0.36488 0.21647 0.49505 0.0
C853 C 0.36121 0.18563 0.49296 0.0
C854 C 0.33186 0.17442 0.49299 0.0
C855 C 0.3072 0.1929 0.49766 0.0
C856 C 0.21279 0.22113 0.55018 0.0
C857 C 0.21658 0.19057 0.55342 0.0
C858 C 0.19166 0.17219 0.55457 0.0
C859 C 0.16248 0.18401 0.55273 0.0
C860 C 0.15865 0.21473 0.55377 0.0
C861 C 0.18367 0.23321 0.55237 0.0
C862 C 0.25043 0.31567 0.51657 0.0
C863 C 0.24144 0.32487 0.48815 0.0
Zn864 Zn 0.96868 0.99534 0.44381 0.0
Zn865 Zn 0.95976 0.06207 0.46603 0.0
O866 O 0.98879 0.02752 0.46723 0.0
H867 H 0.00463 0.02467 0.48167 0.0
C868 C 0.95504 0.95569 0.53748 0.0
O869 O 0.96898 0.97497 0.52079 0.0
Zn870 Zn 0.06804 0.06458 0.55801 0.0
Zn871 Zn 0.03319 0.03048 0.6039 0.0
O872 O 0.036 0.03352 0.55874 0.0
H873 H 0.03471 0.01742 0.54472 0.0
Zn874 Zn 0.97046 0.99877 0.58248 0.0
O875 O 0.97121 0.03184 0.55277 0.0
Zn876 Zn 0.96699 0.06914 0.57527 0.0
H877 H 0.97983 0.03016 0.53313 0.0
Zn878 Zn 0.04803 0.99956 0.44268 0.0
O879 O 0.06623 0.02772 0.47236 0.0
H880 H 0.08129 0.02215 0.48682 0.0
Zn881 Zn 0.06402 0.06487 0.44961 0.0
C882 C 0.0599 0.94994 0.48058 0.0
O883 O 0.04651 0.96756 0.49971 0.0
O884 O 0.93578 0.01305 0.41861 0.0
O885 O 0.92125 0.05352 0.44249 0.0
O886 O 0.07087 0.04774 0.62369 0.0
O887 O 0.10209 0.05072 0.58518 0.0
O888 O 0.95663 0.01243 0.62425 0.0
O889 O 0.95224 0.06085 0.61754 0.0
C890 C 0.00476 0.09357 0.43458 0.0
O891 O 0.05801 0.01241 0.39984 0.0
O892 O 0.07551 0.05791 0.40631 0.0
O893 O 0.01888 0.99117 0.62429 0.0
C894 C 0.9185 0.03527 0.42094 0.0
O895 O 0.9911 0.96192 0.42122 0.0
C896 C 0.02708 0.10412 0.58703 0.0
O897 O 0.95356 0.95999 0.5654 0.0
C898 C 0.09742 0.04978 0.61327 0.0
O899 O 0.06101 0.95752 0.45343 0.0
C900 C 0.93848 0.09354 0.52274 0.0
O901 O 0.97681 0.09325 0.43953 0.0
O902 O 0.02127 0.0768 0.45015 0.0
C903 C 0.95013 0.03806 0.63404 0.0
O904 O 0.05428 0.1014 0.57908 0.0
O905 O 0.00865 0.08553 0.57652 0.0
C906 C 0.08826 0.09481 0.50055 0.0
O907 O 0.93925 0.09542 0.55106 0.0
O908 O 0.95519 0.0749 0.50948 0.0
C909 C 0.06974 0.03583 0.38954 0.0
O910 O 0.08756 0.09534 0.47217 0.0
O911 O 0.07663 0.07306 0.51415 0.0
C912 C 0.03442 0.98167 0.64611 0.0
O913 O 0.05805 0.99675 0.65455 0.0
C914 C -0.00219 0.96665 0.39415 0.0
O915 O -0.00583 0.99327 0.38333 0.0
Zn916 Zn 0.43066 0.04762 0.00903 0.0
Zn917 Zn 0.47163 0.08079 0.97962 0.0
O918 O 0.4751 0.05494 0.01579 0.0
H919 H 0.4899 0.03968 0.01918 0.0
C920 C 0.54553 0.08321 0.09026 0.0
O921 O 0.53112 0.06882 0.06932 0.0
Zn922 Zn 0.55862 0.97695 0.96901 0.0
Zn923 Zn 0.58451 0.98188 0.03576 0.0
O924 O 0.55417 0.99882 0.00733 0.0
H925 H 0.54025 0.01474 0.01134 0.0
Zn926 Zn 0.58985 0.07797 0.0456 0.0
O927 O 0.55776 0.0889 0.01601 0.0
Zn928 Zn 0.57975 0.0849 0.97843 0.0
H929 H 0.54176 0.10288 0.01986 0.0
Zn930 Zn 0.44792 0.96583 0.04546 0.0
O931 O 0.47698 0.96835 0.01163 0.0
H932 H 0.49855 0.97009 0.01331 0.0
Zn933 Zn 0.45187 0.97334 0.97583 0.0
C934 C 0.49181 0.95836 0.09179 0.0
O935 O 0.5025 0.98205 0.07895 0.0
O936 O 0.40708 0.08392 0.99588 0.0
O937 O 0.44386 0.11586 0.98855 0.0
O938 O 0.60962 0.94903 0.01673 0.0
O939 O 0.58821 0.94246 0.97238 0.0
O940 O 0.63129 0.09389 0.03221 0.0
O941 O 0.62319 0.09891 0.98364 0.0
C942 C 0.44085 0.03283 0.94885 0.0
O943 O 0.40534 0.95335 0.03251 0.0
O944 O 0.40857 0.9589 0.98346 0.0
O945 O 0.61039 0.0115 0.05899 0.0
C946 C 0.41582 0.11009 0.99121 0.0
O947 O 0.40604 0.02262 0.0381 0.0
C948 C 0.58786 0.02911 0.94509 0.0
O949 O 0.57354 0.08789 0.08722 0.0
C950 C 0.60828 0.93597 0.9917 0.0
O951 O 0.46735 0.94745 0.08231 0.0
C952 C 0.52754 0.10663 0.94904 0.0
O953 O 0.44724 0.05998 0.94797 0.0
O954 O 0.45503 0.01631 0.96673 0.0
C955 C 0.64041 0.10115 0.00635 0.0
O956 O 0.58077 1.00257 0.94021 0.0
O957 O 0.57658 0.04242 0.96728 0.0
C958 C 0.5005 0.94965 0.94091 0.0
O959 O 0.55612 0.10868 0.94866 0.0
O960 O 0.51506 0.08992 0.96798 0.0
C961 C 0.39354 0.95191 0.0067 0.0
O962 O 0.47197 0.94933 0.94363 0.0
O963 O 0.51552 0.9671 0.9573 0.0
C964 C 0.63411 0.02097 0.04652 0.0
O965 O 0.64022 0.01243 0.01923 0.0
C966 C 0.41428 0.01579 0.06414 0.0
O967 O 0.4413 0.02318 0.07324 0.0
Zn968 Zn 0.9658 0.49476 0.95924 0.0
Zn969 Zn 0.95738 0.56631 0.96741 0.0
O970 O 0.98763 0.53315 0.96888 0.0
H971 H 0.00445 0.53361 0.98242 0.0
C972 C 0.95871 0.44877 0.03367 0.0
O973 O 0.94915 0.4698 0.01598 0.0
Zn974 Zn 0.07335 0.56168 0.05331 0.0
Zn975 Zn 0.06991 0.48901 0.06043 0.0
O976 O 0.04477 0.52651 0.05412 0.0
H977 H 0.02557 0.52621 0.04409 0.0
Zn978 Zn 0.97543 0.49997 0.07121 0.0
O979 O 0.96525 0.53268 0.04173 0.0
Zn980 Zn 0.96998 0.56763 0.06921 0.0
H981 H 0.95025 0.5302 0.0264 0.0
Zn982 Zn 0.06104 0.50001 0.93631 0.0
O983 O 0.06106 0.53091 0.96914 0.0
H984 H 0.0588 0.52741 0.9902 0.0
Zn985 Zn 0.05912 0.56888 0.94606 0.0
C986 C 0.06383 0.4428 0.97029 0.0
O987 O 0.04812 0.45685 0.99067 0.0
O988 O 0.92126 0.50214 0.94913 0.0
O989 O 0.91774 0.55099 0.95256 0.0
O990 O 0.11329 0.49979 0.06987 0.0
O991 O 0.11459 0.54875 0.06796 0.0
O992 O 0.95654 0.50975 0.11192 0.0
O993 O 0.95072 0.55826 0.10843 0.0
C994 C -0.00188 0.60044 0.93313 0.0
O995 O 0.08491 0.51598 0.90077 0.0
O996 O 0.08236 0.56447 0.90765 0.0
O997 O 0.05663 0.45105 0.08418 0.0
C998 C 0.90632 0.526 0.94653 0.0
O999 O 0.98582 0.46278 0.93179 0.0
C1000 C 0.02973 0.59582 0.0835 0.0
O1001 O 0.97139 0.45587 0.05797 0.0
C1002 C 0.1273 0.52396 0.07302 0.0
O1003 O 0.07106 0.45628 0.94661 0.0
C1004 C 0.94802 0.60548 0.02417 0.0
O1005 O 0.97061 0.59873 0.94029 0.0
O1006 O 0.01556 0.57979 0.94159 0.0
C1007 C 0.94714 0.53419 0.12248 0.0
O1008 O 0.05789 0.59483 0.07913 0.0
O1009 O 0.01387 0.57506 0.07312 0.0
C1010 C 0.07997 0.60134 0.99743 0.0
O1011 O 0.95172 0.60439 0.05211 0.0
O1012 O 0.95441 0.58253 0.00911 0.0
C1013 C 0.09156 0.54209 0.89294 0.0
O1014 O 0.07672 0.60187 0.9694 0.0
O1015 O 0.07538 0.57717 0.01106 0.0
C1016 C 0.03526 0.44814 0.10278 0.0
O1017 O 0.01684 0.47039 0.10739 0.0
C1018 C 0.99292 0.43697 0.94038 0.0
O1019 O 0.98998 0.43035 0.9686 0.0
Zn1020 Zn 0.48318 0.4928 0.99355 0.0
Zn1021 Zn 0.48175 0.48497 0.06579 0.0
O1022 O 0.50026 0.50924 0.0329 0.0
H1023 H 0.50711 0.52917 0.03563 0.0
C1024 C 0.51628 0.43642 0.92708 0.0
O1025 O 0.50013 0.45926 0.93537 0.0
Zn1026 Zn 0.56835 0.56751 0.0504 0.0
Zn1027 Zn 0.55691 0.5691 0.98103 0.0
O1028 O 0.55785 0.54072 0.01587 0.0
H1029 H 0.56163 0.51987 0.01374 0.0
Zn1030 Zn 0.5568 0.45143 0.98028 0.0
O1031 O 0.53505 0.45562 0.02057 0.0
Zn1032 Zn 0.56736 0.45946 0.05238 0.0
H1033 H 0.51444 0.44996 0.02412 0.0
Zn1034 Zn 0.46598 0.58391 0.97712 0.0
O1035 O 0.49583 0.58437 0.01179 0.0
H1036 H 0.51642 0.59047 0.00914 0.0
Zn1037 Zn 0.47153 0.58951 0.04962 0.0
C1038 C 0.50321 0.60875 0.92715 0.0
O1039 O 0.52383 0.61176 0.94784 0.0
O1040 O 0.44835 0.46403 0.00044 0.0
O1041 O 0.44756 0.46105 0.04978 0.0
O1042 O 0.58542 0.60361 0.98947 0.0
O1043 O 0.59886 0.59698 0.03679 0.0
O1044 O 0.60145 0.44184 0.98707 0.0
O1045 O 0.60694 0.44363 0.03625 0.0
C1046 C 0.46023 0.53822 0.09566 0.0
O1047 O 0.4246 0.59952 0.99008 0.0
O1048 O 0.4308 0.60582 0.03881 0.0
O1049 O 0.55791 0.55377 0.93701 0.0
C1050 C 0.43675 0.45447 0.02442 0.0
O1051 O 0.47994 0.51559 0.95279 0.0
C1052 C 0.58108 0.51674 0.08751 0.0
O1053 O 0.53912 0.4292 0.94261 0.0
C1054 C 0.60123 0.61052 0.01206 0.0
O1055 O 0.47815 0.59731 0.93411 0.0
C1056 C 0.52953 0.43997 0.09936 0.0
O1057 O 0.46436 0.51063 0.09767 0.0
O1058 O 0.46733 0.55046 0.0711 0.0
C1059 C 0.61751 0.43855 0.01031 0.0
O1060 O 0.58224 0.54461 0.08564 0.0
O1061 O 0.57287 0.50216 0.06462 0.0
C1062 C 0.52087 0.6091 0.08146 0.0
O1063 O 0.5556 0.43644 0.08837 0.0
O1064 O 0.5113 0.45735 0.08626 0.0
C1065 C 0.41486 0.60796 0.01534 0.0
O1066 O 0.49343 0.61585 0.07827 0.0
O1067 O 0.53188 0.59033 0.06335 0.0
C1068 C 0.56595 0.52773 0.93015 0.0
O1069 O 0.57214 0.50906 0.95159 0.0
C1070 C 0.45416 0.52656 0.94721 0.0
O1071 O 0.43373 0.5262 0.96833 0.0
Zn1072 Zn 0.94543 0.50017 0.47361 0.0
Zn1073 Zn 0.94833 0.56546 0.46006 0.0
O1074 O 0.97401 0.52994 0.45706 0.0
H1075 H 0.98825 0.52567 0.44137 0.0
C1076 C 0.8978 0.46348 0.51366 0.0
O1077 O 0.88838 0.48955 0.52244 0.0
Zn1078 Zn 0.07845 0.56224 0.56586 0.0
Zn1079 Zn 0.09878 0.4989 0.54591 0.0
O1080 O 0.06213 0.52282 0.55816 0.0
H1081 H 0.04388 0.5152 0.56682 0.0
Zn1082 Zn 0.94972 0.4843 0.54572 0.0
O1083 O 0.96633 0.52289 0.53064 0.0
Zn1084 Zn 0.96277 0.55254 0.56399 0.0
H1085 H 0.98145 0.52411 0.51527 0.0
Zn1086 Zn 0.08767 0.50096 0.46629 0.0
O1087 O 0.0622 0.53186 0.48832 0.0
H1088 H 0.04666 0.5269 0.50243 0.0
Zn1089 Zn 0.0603 0.56786 0.46194 0.0
C1090 C 0.13855 0.46988 0.49267 0.0
O1091 O 0.14997 0.49627 0.48917 0.0
O1092 O 0.90288 0.50866 0.45758 0.0
O1093 O 0.90594 0.55567 0.44382 0.0
O1094 O 0.13803 0.51577 0.56391 0.0
O1095 O 0.12126 0.55785 0.58334 0.0
O1096 O 0.92423 0.49218 0.58204 0.0
O1097 O 0.93546 0.53701 0.59813 0.0
C1098 C 0.0012 0.59579 0.43829 0.0
O1099 O 0.11047 0.51848 0.43121 0.0
O1100 O 0.08938 0.56277 0.42672 0.0
O1101 O 0.09101 0.45524 0.55473 0.0
C1102 C 0.89126 0.53147 0.44561 0.0
O1103 O 0.96244 0.45843 0.46722 0.0
C1104 C 0.01941 0.58019 0.59214 0.0
O1105 O 0.92497 0.45613 0.51884 0.0
C1106 C 0.14243 0.53899 0.57932 0.0
O1107 O 0.11092 0.46598 0.48636 0.0
C1108 C 0.93096 0.58985 0.52212 0.0
O1109 O 0.97241 0.59634 0.43819 0.0
O1110 O 0.01524 0.57619 0.45321 0.0
C1111 C 0.91994 0.51337 0.59999 0.0
O1112 O 0.04808 0.58275 0.59307 0.0
O1113 O 0.00714 0.56317 0.57319 0.0
C1114 C 0.08847 0.60269 0.50902 0.0
O1115 O 0.9371 0.58661 0.54947 0.0
O1116 O 0.94618 0.57488 0.50349 0.0
C1117 C 0.10849 0.54331 0.41835 0.0
O1118 O 0.0799 0.60246 0.48212 0.0
O1119 O 0.07897 0.58213 0.52571 0.0
C1120 C 0.0643 0.44616 0.55104 0.0
O1121 O 0.04464 0.46346 0.5379 0.0
C1122 C 0.99064 0.45463 0.46996 0.0
O1123 O 0.00724 0.47674 0.47904 0.0
Zn1124 Zn 0.46473 0.9835 0.45601 0.0
Zn1125 Zn 0.45085 0.05492 0.46399 0.0
O1126 O 0.48403 0.02425 0.45779 0.0
H1127 H 0.50293 0.02731 0.44772 0.0
C1128 C 0.45221 0.92722 0.53496 0.0
O1129 O 0.47891 0.91977 0.54501 0.0
Zn1130 Zn 0.57516 0.06454 0.55858 0.0
Zn1131 Zn 0.57717 0.99293 0.55329 0.0
O1132 O 0.54894 0.0279 0.55963 0.0
H1133 H 0.53046 0.02543 0.5706 0.0
Zn1134 Zn 0.47196 0.98622 0.55564 0.0
O1135 O 0.48039 0.0258 0.53625 0.0
Zn1136 Zn 0.47371 0.05797 0.56691 0.0
H1137 H 0.492 0.02803 0.51825 0.0
Zn1138 Zn 0.55745 0.99514 0.45591 0.0
O1139 O 0.55067 0.03171 0.48233 0.0
H1140 H 0.54411 0.03134 0.50277 0.0
Zn1141 Zn 0.54958 0.06733 0.45503 0.0
C1142 C 0.59625 0.95064 0.48914 0.0
O1143 O 0.60636 0.97381 0.50345 0.0
O1144 O 0.41957 0.98897 0.44811 0.0
O1145 O 0.41113 0.03732 0.45065 0.0
O1146 O 0.61912 1.00409 0.5682 0.0
O1147 O 0.61695 0.05289 0.57347 0.0
O1148 O 0.4606 0.99214 0.59938 0.0
O1149 O 0.4561 0.04082 0.60457 0.0
C1150 C 0.48693 0.0993 0.43845 0.0
O1151 O 0.57084 0.0072 0.41403 0.0
O1152 O 0.56738 0.05609 0.41535 0.0
O1153 O 0.56513 0.95023 0.56666 0.0
C1154 C 0.40199 0.0111 0.44574 0.0
O1155 O 0.48372 0.94949 0.42955 0.0
C1156 C 0.52861 0.09766 0.58702 0.0
O1157 O 0.44473 0.95434 0.53518 0.0
C1158 C 0.63105 0.02838 0.57588 0.0
O1159 O 0.57557 0.95418 0.46986 0.0
C1160 C 0.44165 0.08996 0.52247 0.0
O1161 O 0.45964 0.09173 0.4412 0.0
O1162 O 0.50669 0.08133 0.44826 0.0
C1163 C 0.45365 0.01473 0.61481 0.0
O1164 O 0.55699 0.09653 0.58455 0.0
O1165 O 0.5137 0.07648 0.57593 0.0
C1166 C 0.5822 0.10221 0.49896 0.0
O1167 O 0.4475 0.08969 0.55012 0.0
O1168 O 0.44968 0.06765 0.50704 0.0
C1169 C 0.57418 0.03223 0.40182 0.0
O1170 O 0.57382 0.1003 0.47201 0.0
O1171 O 0.57528 0.08107 0.51635 0.0
C1172 C 0.54179 0.94382 0.58165 0.0
O1173 O 0.52245 0.96485 0.58806 0.0
C1174 C 0.49798 0.92677 0.43854 0.0
O1175 O 0.50377 0.92401 0.46706 0.0
C1176 C 0.13452 0.13655 0.55717 0.0
C1177 C 0.13754 0.16435 0.54377 0.0
C1178 C 0.11715 0.11449 0.54388 0.0
C1179 C 0.10208 0.11949 0.51691 0.0
H1180 H 0.14719 0.13124 0.57705 0.0
H1181 H 0.11728 0.09287 0.55371 0.0
S1182 S 0.09952 0.18952 0.47472 0.0
N1183 N 0.1219 0.19635 0.50317 0.0
N1184 N 0.08849 0.15517 0.47896 0.0
C1185 C 0.10302 0.14783 0.50452 0.0
C1186 C 0.12081 0.17025 0.51786 0.0
C1187 C 0.86617 0.12919 0.49828 0.0
C1188 C 0.87589 0.15066 0.4779 0.0
C1189 C 0.88663 0.11023 0.51212 0.0
C1190 C 0.91744 0.11196 0.50596 0.0
H1191 H 0.84277 0.12799 0.50485 0.0
H1192 H 0.87839 0.09459 0.52831 0.0
S1193 S 0.95463 0.16338 0.45402 0.0
N1194 N 0.91844 0.17133 0.45117 0.0
N1195 N 0.95705 0.13649 0.47859 0.0
C1196 C 0.92753 0.13261 0.48517 0.0
C1197 C 0.90668 0.15178 0.47077 0.0
C1198 C 0.91146 0.88476 0.53036 0.0
C1199 C 0.90068 0.88586 0.50101 0.0
C1200 C 0.92992 0.90698 0.54164 0.0
C1201 C 0.93851 0.93093 0.52387 0.0
H1202 H 0.90453 0.86724 0.54513 0.0
H1203 H 0.93692 0.90569 0.56469 0.0
S1204 S 0.91807 0.94251 0.4446 0.0
N1205 N 0.90117 0.91156 0.45378 0.0
N1206 N 0.93609 0.95344 0.47476 0.0
C1207 C 0.92898 0.93152 0.49398 0.0
C1208 C 0.90993 0.90898 0.48262 0.0
C1209 C 0.12367 0.89473 0.48209 0.0
C1210 C 0.12464 0.88614 0.51203 0.0
C1211 C 0.1014 0.91394 0.47177 0.0
C1212 C 0.07945 0.92564 0.49113 0.0
H1213 H 0.14061 0.88691 0.46659 0.0
H1214 H 0.1023 0.92058 0.44867 0.0
S1215 S 0.07092 0.90784 0.57127 0.0
N1216 N 0.10087 0.88888 0.5606 0.0
N1217 N 0.05889 0.9254 0.54138 0.0
C1218 C 0.07939 0.91612 0.52093 0.0
C1219 C 0.10203 0.89625 0.53135 0.0
C1220 C 0.52944 0.12485 0.16119 0.0
C1221 C 0.50118 0.13768 0.15548 0.0
C1222 C 0.54309 0.10604 0.14049 0.0
C1223 C 0.52869 0.09903 0.11361 0.0
H1224 H 0.54178 0.13053 0.18117 0.0
H1225 H 0.56545 0.09764 0.14516 0.0
S1226 S 0.45343 0.12541 0.08915 0.0
N1227 N 0.45856 0.14117 0.12191 0.0
N1228 N 0.48384 0.10524 0.08301 0.0
C1229 C 0.4997 0.11056 0.1083 0.0
C1230 C 0.48605 0.13014 0.12922 0.0
C1231 C 0.90349 0.50381 0.18738 0.0
C1232 C 0.87985 0.5242 0.18995 0.0
C1233 C 0.9268 0.50836 0.16699 0.0
C1234 C 0.92724 0.53358 0.1488 0.0
H1235 H 0.90294 0.4834 0.19979 0.0
H1236 H 0.94367 0.49125 0.16434 0.0
S1237 S 0.87219 0.59542 0.15081 0.0
N1238 N 0.85949 0.57166 0.17547 0.0
N1239 N 0.90344 0.58075 0.1374 0.0
C1240 C 0.90491 0.5553 0.15319 0.0
C1241 C 0.88107 0.55041 0.17367 0.0
C1242 C 0.51862 0.89652 0.14123 0.0
C1243 C 0.54508 0.90772 0.15379 0.0
C1244 C 0.5011 0.91352 0.12205 0.0
C1245 C 0.50959 0.94232 0.1144 0.0
H1246 H 0.51146 0.87429 0.14621 0.0
H1247 H 0.48112 0.90362 0.11264 0.0
S1248 S 0.57659 0.98211 0.14278 0.0
N1249 N 0.57858 0.9494 0.1587 0.0
N1250 N 0.54593 0.98168 0.122 0.0
C1251 C 0.53582 0.95403 0.12742 0.0
C1252 C 0.55351 0.93665 0.14732 0.0
C1253 C 0.19092 0.49599 0.12088 0.0
C1254 C 0.20677 0.52175 0.12742 0.0
C1255 C 0.16672 0.49649 0.10109 0.0
C1256 C 0.15711 0.52298 0.08766 0.0
H1257 H 0.19641 0.47561 0.13217 0.0
H1258 H 0.15434 0.47625 0.09792 0.0
S1259 S 0.19388 0.5958 0.09523 0.0
N1260 N 0.21349 0.5738 0.11715 0.0
N1261 N 0.16768 0.57498 0.08001 0.0
C1262 C 0.17426 0.5485 0.09249 0.0
C1263 C 0.19916 0.54784 0.11243 0.0
C1264 C 0.51322 0.87933 0.8979 0.0
C1265 C 0.53847 0.8856 0.88024 0.0
C1266 C 0.50169 0.90009 0.91787 0.0
C1267 C 0.51505 0.92788 0.92114 0.0
H1268 H 0.5015 0.85861 0.89545 0.0
H1269 H 0.48182 0.89443 0.93056 0.0
S1270 S 0.58201 0.95496 0.88065 0.0
N1271 N 0.5772 0.92115 0.86798 0.0
N1272 N 0.55489 0.96057 0.90518 0.0
C1273 C 0.54072 0.93424 0.9042 0.0
C1274 C 0.55254 0.91303 0.88376 0.0
C1275 C 0.16123 0.527 0.84746 0.0
C1276 C 0.16792 0.5547 0.83552 0.0
C1277 C 0.13516 0.52267 0.86417 0.0
C1278 C 0.11503 0.54606 0.87001 0.0
H1279 H 0.17661 0.50866 0.84433 0.0
H1280 H 0.13169 0.50115 0.87387 0.0
S1281 S 0.12121 0.62228 0.84118 0.0
N1282 N 0.15155 0.60529 0.82842 0.0
N1283 N 0.10251 0.59741 0.86041 0.0
C1284 C 0.1208 0.57358 0.85694 0.0
C1285 C 0.14726 0.57785 0.83954 0.0
C1286 C 0.49824 0.17158 0.90597 0.0
C1287 C 0.48087 0.15823 0.88353 0.0
C1288 C 0.51254 0.15468 0.92779 0.0
C1289 C 0.50963 0.12397 0.92809 0.0
H1290 H 0.50207 0.19512 0.90583 0.0
H1291 H 0.52657 0.16562 0.9441 0.0
S1292 S 0.46688 0.07835 0.87472 0.0
N1293 N 0.46092 0.1125 0.86363 0.0
N1294 N 0.48875 0.08069 0.90431 0.0
C1295 C 0.49184 0.11035 0.90641 0.0
C1296 C 0.4772 0.12752 0.88419 0.0
C1297 C 0.83429 0.49561 0.91454 0.0
C1298 C 0.82716 0.51676 0.89298 0.0
C1299 C 0.859 0.49961 0.93347 0.0
C1300 C 0.87701 0.52493 0.93134 0.0
H1301 H 0.8219 0.47516 0.91552 0.0
H1302 H 0.8649 0.48218 0.94884 0.0
S1303 S 0.86619 0.58708 0.87885 0.0
N1304 N 0.83846 0.56424 0.87131 0.0
N1305 N 0.8852 0.57172 0.90632 0.0
C1306 C 0.86889 0.5469 0.91081 0.0
C1307 C 0.84383 0.54278 0.8917 0.0
C1308 C 0.67267 0.65393 0.02301 0.0
C1309 C 0.67038 0.6757 0.001 0.0
C1310 C 0.64971 0.63341 0.02706 0.0
C1311 C 0.62392 0.63379 0.00895 0.0
H1312 H 0.69235 0.65277 0.03719 0.0
H1313 H 0.65257 0.61671 0.04399 0.0
S1314 S 0.60676 0.68729 0.94896 0.0
N1315 N 0.6402 0.69703 0.96138 0.0
N1316 N 0.59683 0.65857 0.96906 0.0
C1317 C 0.62115 0.65583 0.98719 0.0
C1318 C 0.64445 0.67679 0.98321 0.0
C1319 C 0.34829 0.64757 0.04895 0.0
C1320 C 0.33769 0.66427 0.02492 0.0
C1321 C 0.37212 0.62772 0.04519 0.0
C1322 C 0.38599 0.62393 0.01727 0.0
H1323 H 0.3392 0.651 0.07106 0.0
H1324 H 0.3805 0.61616 0.06455 0.0
S1325 S 0.36284 0.6594 0.94649 0.0
N1326 N 0.33993 0.67344 0.97178 0.0
N1327 N 0.38489 0.63615 0.9645 0.0
C1328 C 0.37387 0.63886 0.9926 0.0
C1329 C 0.34972 0.65915 0.99652 0.0
C1330 C 0.37787 0.40269 0.99387 0.0
C1331 C 0.3592 0.39793 0.01856 0.0
C1332 C 0.40268 0.42135 0.99586 0.0
C1333 C 0.40991 0.43554 0.02277 0.0
H1334 H 0.37338 0.39167 0.97294 0.0
H1335 H 0.41661 0.42417 0.9763 0.0
S1336 S 0.36745 0.43035 0.09377 0.0
N1337 N 0.34901 0.40886 0.07047 0.0
N1338 N 0.39571 0.44404 0.07451 0.0
C1339 C 0.39107 0.43118 0.04757 0.0
C1340 C 0.36565 0.41237 0.04538 0.0
C1341 C 0.68201 0.39611 0.97569 0.0
C1342 C 0.69998 0.38893 0.00028 0.0
C1343 C 0.65649 0.4139 0.9789 0.0
C1344 C 0.64771 0.42489 0.00696 0.0
H1345 H 0.68712 0.38702 0.95394 0.0
H1346 H 0.64278 0.41774 0.95936 0.0
S1347 S 0.68954 0.41503 0.07781 0.0
N1348 N 0.70917 0.39605 0.05307 0.0
N1349 N 0.66107 0.42965 0.05934 0.0
C1350 C 0.66672 0.41942 0.03144 0.0
C1351 C 0.69289 0.40138 0.02805 0.0
C1352 C 0.96474 0.63777 0.61981 0.0
C1353 C 0.97206 0.63966 0.65019 0.0
C1354 C 0.97901 0.61716 0.60126 0.0
C1355 C 0.00097 0.59788 0.61254 0.0
H1356 H 0.94898 0.65326 0.61007 0.0
H1357 H 0.97442 0.61773 0.57765 0.0
S1358 S 0.02751 0.59302 0.69038 0.0
N1359 N 0.00221 0.61975 0.69075 0.0
N1360 N 0.02859 0.58089 0.65575 0.0
C1361 C 0.00762 0.59869 0.64296 0.0
C1362 C 0.99314 0.61953 0.66187 0.0
C1363 C 0.42352 0.97412 0.68136 0.0
C1364 C 0.40026 0.9928 0.69081 0.0
C1365 C 0.4425 0.98256 0.65811 0.0
C1366 C 0.43861 0.00978 0.64359 0.0
H1367 H 0.42604 0.95238 0.69093 0.0
H1368 H 0.45943 0.96709 0.6505 0.0
S1369 S 0.38273 0.06766 0.66318 0.0
N1370 N 0.3758 0.04047 0.68647 0.0
N1371 N 0.41141 0.05649 0.64262 0.0
C1372 C 0.41675 0.0295 0.65455 0.0
C1373 C 0.39744 0.02085 0.67816 0.0
C1374 C 0.01614 0.40156 0.60289 0.0
C1375 C 0.03633 0.37996 0.613 0.0
C1376 C 0.02463 0.42155 0.58083 0.0
C1377 C 0.05384 0.42093 0.56871 0.0
H1378 H -0.00604 0.40353 0.61272 0.0
H1379 H 0.00879 0.43868 0.57464 0.0
S1380 S 0.11408 0.36691 0.58611 0.0
N1381 N 0.0858 0.35752 0.6079 0.0
N1382 N 0.10209 0.39554 0.56679 0.0
C1383 C 0.0737 0.39848 0.57765 0.0
C1384 C 0.06486 0.37786 0.59976 0.0
C1385 C 0.68475 1.00274 0.63498 0.0
C1386 C 0.70137 0.02824 0.64108 0.0
C1387 C 0.664 1.00209 0.61168 0.0
C1388 C 0.65877 0.02712 0.59395 0.0
H1389 H 0.68667 0.98368 0.64931 0.0
H1390 H 0.65035 0.98254 0.60915 0.0
S1391 S 0.70099 0.09721 0.59718 0.0
N1392 N 0.71459 0.07758 0.62502 0.0
N1393 N 0.67545 0.0763 0.58096 0.0
C1394 C 0.67729 0.05176 0.59805 0.0
C1395 C 0.69866 0.05233 0.62171 0.0
C1396 C 0.047 0.40759 0.42839 0.0
C1397 C 0.02978 0.38304 0.42017 0.0
C1398 C 0.03492 0.42969 0.44667 0.0
C1399 C 0.00498 0.42821 0.45682 0.0
H1400 H 0.06949 0.41033 0.41955 0.0
H1401 H 0.04852 0.4489 0.45122 0.0
S1402 S 0.95174 0.36683 0.44403 0.0
N1403 N 0.98234 0.3572 0.4255 0.0
N1404 N 0.95952 0.39876 0.4598 0.0
C1405 C 0.98826 0.4028 0.45035 0.0
C1406 C 0.00068 0.38019 0.43199 0.0
C1407 C 0.61072 0.06564 0.33417 0.0
C1408 C 0.63016 0.04303 0.32478 0.0
C1409 C 0.59092 0.06127 0.3579 0.0
C1410 C 0.58988 0.03411 0.3729 0.0
H1411 H 0.61231 0.08742 0.32453 0.0
H1412 H 0.57757 0.07984 0.36553 0.0
S1413 S 0.63291 0.9665 0.35294 0.0
N1414 N 0.64468 0.99165 0.32925 0.0
N1415 N 0.60742 0.98311 0.37386 0.0
C1416 C 0.60734 0.01053 0.3618 0.0
C1417 C 0.62758 0.01511 0.33775 0.0
C1418 C 0.02282 0.66753 0.40263 0.0
C1419 C 0.0404 0.65817 0.37827 0.0
C1420 C 0.01149 0.64724 0.42311 0.0
C1421 C 0.01755 0.61705 0.42001 0.0
H1422 H 0.016 0.69037 0.40476 0.0
H1423 H -0.00321 0.65504 0.44072 0.0
S1424 S 0.06322 0.58137 0.36106 0.0
N1425 N 0.06534 0.6169 0.3538 0.0
N1426 N 0.04193 0.57865 0.39103 0.0
C1427 C 0.03608 0.60751 0.39665 0.0
C1428 C 0.04812 0.62815 0.37613 0.0
C1429 C 0.33236 0.02755 0.40059 0.0
C1430 C 0.32454 0.99948 0.39006 0.0
C1431 C 0.35581 0.03108 0.42108 0.0
C1432 C 0.37219 0.0066 0.43165 0.0
H1433 H 0.32193 0.04704 0.39122 0.0
H1434 H 0.3625 0.05327 0.42685 0.0
S1435 S 0.35533 0.92802 0.41572 0.0
N1436 N 0.33119 0.94668 0.39509 0.0
N1437 N 0.37501 0.95297 0.43392 0.0
C1438 C 0.36216 0.97822 0.4237 0.0
C1439 C 0.33844 0.97475 0.40272 0.0
C1440 C 0.04484 0.15275 0.39043 0.0
C1441 C 0.02961 0.15207 0.3628 0.0
C1442 C 0.03829 0.13249 0.41316 0.0
C1443 C 0.01607 0.11103 0.40922 0.0
H1444 H 0.06102 0.16989 0.3951 0.0
H1445 H 0.04945 0.13466 0.43444 0.0
S1446 S 0.97295 0.09653 0.34016 0.0
N1447 N -0.006 0.12525 0.33196 0.0
N1448 N 0.98095 0.0882 0.375 0.0
C1449 C 0.0018 0.10908 0.38139 0.0
C1450 C 0.0087 0.12934 0.35814 0.0
C1451 C 0.8895 0.03406 0.34185 0.0
C1452 C 0.86905 0.05766 0.3408 0.0
C1453 C 0.90405 0.02642 0.36821 0.0
C1454 C 0.89929 0.0423 0.39484 0.0
H1455 H 0.89452 0.02137 0.32201 0.0
H1456 H 0.91986 0.00821 0.36728 0.0
S1457 S 0.84719 0.1057 0.40438 0.0
N1458 N 0.84367 0.09636 0.36902 0.0
N1459 N 0.87225 0.08272 0.41854 0.0
C1460 C 0.87887 0.06605 0.39423 0.0
C1461 C 0.86358 0.07362 0.36725 0.0
C1462 C 0.02559 0.92453 0.32624 0.0
C1463 C 0.01383 0.89625 0.33082 0.0
C1464 C 0.02089 0.9471 0.3472 0.0
C1465 C 0.00497 0.94189 0.37377 0.0
H1466 H 0.03802 0.92933 0.30612 0.0
H1467 H 0.02965 0.9688 0.3425 0.0
S1468 S 0.97098 0.87095 0.39661 0.0
N1469 N 0.98636 0.86391 0.3639 0.0
N1470 N 0.9781 0.90593 0.40361 0.0
C1471 C -0.00612 0.91338 0.37888 0.0
C1472 C -0.00186 0.89067 0.35729 0.0
C1473 C 0.10358 0.00875 0.31743 0.0
C1474 C 0.10839 0.03491 0.30136 0.0
C1475 C 0.0893 0.00917 0.34513 0.0
C1476 C 0.07976 0.03578 0.35819 0.0
H1477 H 0.11294 0.98801 0.30981 0.0
H1478 H 0.08767 0.98866 0.35727 0.0
S1479 S 0.08062 0.1092 0.32252 0.0
N1480 N 0.09707 0.08725 0.29806 0.0
N1481 N 0.0717 0.08822 0.35111 0.0
C1482 C 0.08199 0.06169 0.34139 0.0
C1483 C 0.09586 0.06117 0.31272 0.0
C1484 C 0.98929 0.91612 0.67395 0.0
C1485 C 0.01008 0.90082 0.69197 0.0
C1486 C -0.00275 0.94218 0.65919 0.0
C1487 C 0.02629 0.95409 0.66194 0.0
H1488 H 0.96667 0.90781 0.67114 0.0
H1489 H 0.98046 0.9531 0.64561 0.0
S1490 S 0.08947 0.92185 0.70538 0.0
N1491 N 0.06125 0.89903 0.71083 0.0
N1492 N 0.07611 0.9481 0.6837 0.0
C1493 C 0.04723 0.93907 0.68003 0.0
C1494 C 0.03915 0.91248 0.6949 0.0
C1495 C 0.13704 0.04908 0.68746 0.0
C1496 C 0.16396 0.03408 0.68116 0.0
C1497 C 0.11662 0.05585 0.66482 0.0
C1498 C 0.12234 0.04798 0.63497 0.0
H1499 H 0.13098 0.05432 0.71021 0.0
H1500 H 0.09553 0.06628 0.67099 0.0
S1501 S 0.19171 0.01227 0.60633 0.0
N1502 N 0.19706 0.01463 0.64261 0.0
N1503 N 0.15827 0.02699 0.60001 0.0
C1504 C 0.15013 0.03485 0.62807 0.0
C1505 C 0.17098 0.02789 0.6512 0.0
C1506 C 0.98486 0.14302 0.65002 0.0
C1507 C 0.00684 0.16191 0.66192 0.0
C1508 C 0.99088 0.12541 0.62486 0.0
C1509 C 0.01912 0.12589 0.61072 0.0
H1510 H 0.96292 0.14165 0.66039 0.0
H1511 H 0.9734 0.11114 0.6167 0.0
S1512 S 0.08252 0.17561 0.62999 0.0
N1513 N 0.05656 0.1829 0.65522 0.0
N1514 N 0.06808 0.14974 0.60859 0.0
C1515 C 0.04071 0.14594 0.62153 0.0
C1516 C 0.03457 0.16383 0.64699 0.0
C1517 C 0.9275 0.07368 0.70729 0.0
C1518 C 0.91087 0.05146 0.7215 0.0
C1519 C 0.94101 0.06886 0.6795 0.0
C1520 C 0.93884 0.04149 0.66494 0.0
H1521 H 0.92892 0.09545 0.71709 0.0
H1522 H 0.95257 0.08698 0.66901 0.0
S1523 S 0.90023 0.97507 0.69349 0.0
N1524 N 0.89443 1.00038 0.71928 0.0
N1525 N 0.9209 0.99111 0.6678 0.0
C1526 C 0.92415 0.01844 0.67976 0.0
C1527 C 0.90996 0.02345 0.70786 0.0
C1528 C 0.33902 1.00179 0.10046 0.0
C1529 C 0.34726 0.99193 0.12891 0.0
C1530 C 0.36089 0.00752 0.07887 0.0
C1531 C 0.39177 1.00405 0.08513 0.0
H1532 H 0.31577 0.00705 0.09546 0.0
H1533 H 0.35352 0.01657 0.0578 0.0
S1534 S 0.42438 0.97219 0.15385 0.0
N1535 N 0.38781 0.9734 0.1602 0.0
N1536 N 0.42903 0.98577 0.12016 0.0
C1537 C 0.40006 0.99172 0.11253 0.0
C1538 C 0.37776 0.98523 0.13427 0.0
C1539 C 0.00426 0.39145 0.15692 0.0
C1540 C 0.02921 0.37305 0.16288 0.0
C1541 C 0.00617 0.41502 0.13684 0.0
C1542 C 0.03299 0.42108 0.12144 0.0
H1543 H 0.98323 0.38814 0.16857 0.0
H1544 H 0.98653 0.4289 0.13376 0.0
S1545 S 0.10463 0.37906 0.12796 0.0
N1546 N 0.08147 0.36227 0.15097 0.0
N1547 N 0.08488 0.406 0.11283 0.0
C1548 C 0.05774 0.4021 0.12613 0.0
C1549 C 0.05587 0.37821 0.14682 0.0
C1550 C 0.66822 0.06366 0.11036 0.0
C1551 C 0.6975 0.06977 0.10036 0.0
C1552 C 0.64771 0.0487 0.0924 0.0
C1553 C 0.65558 0.03925 0.06362 0.0
H1554 H 0.66144 0.06939 0.1328 0.0
H1555 H 0.62574 0.0439 0.10157 0.0
S1556 S 0.72834 0.0533 0.0256 0.0
N1557 N 0.73267 0.06762 0.05914 0.0
N1558 N 0.69398 0.03965 0.02487 0.0
C1559 C 0.68435 0.04656 0.05272 0.0
C1560 C 0.70539 0.06167 0.07125 0.0
C1561 C 0.00115 0.64341 0.14642 0.0
C1562 C 0.00682 0.67199 0.13567 0.0
C1563 C 0.006 0.61846 0.12839 0.0
C1564 C 0.01665 0.62141 0.09914 0.0
H1565 H -0.00508 0.64019 0.16947 0.0
H1566 H 0.00346 0.59678 0.13803 0.0
S1567 S 0.0289 0.69131 0.05888 0.0
N1568 N 0.01912 0.70175 0.09272 0.0
N1569 N 0.02868 0.65493 0.05901 0.0
C1570 C 0.01998 0.64983 0.08748 0.0
C1571 C 0.01492 0.67513 0.1057 0.0
C1572 C 0.38569 0.02125 0.88667 0.0
C1573 C 0.35818 0.01905 0.90201 0.0
C1574 C 0.41302 0.02314 0.90204 0.0
C1575 C 0.41372 0.0229 0.93319 0.0
H1576 H 0.38602 0.02199 0.86258 0.0
H1577 H 0.43362 0.02567 0.88953 0.0
S1578 S 0.34797 0.01706 0.98361 0.0
N1579 N 0.33333 0.01568 0.94989 0.0
N1580 N 0.38467 0.02004 0.97883 0.0
C1581 C 0.38648 0.0197 0.94872 0.0
C1582 C 0.35867 0.01753 0.9331 0.0
C1583 C 0.00719 0.39974 0.8659 0.0
C1584 C 0.01222 0.37006 0.8734 0.0
C1585 C 0.0019 0.42119 0.88773 0.0
C1586 C 0.00139 0.41398 0.91815 0.0
H1587 H 0.0066 0.4064 0.84278 0.0
H1588 H -0.00245 0.44354 0.88051 0.0
S1589 S 0.01594 0.33973 0.94982 0.0
N1590 N 0.01822 0.33475 0.91346 0.0
N1591 N 0.00827 0.37503 0.95474 0.0
C1592 C 0.00733 0.38447 0.9261 0.0
C1593 C 0.01262 0.36252 0.9037 0.0
C1594 C 0.66605 0.05044 0.92265 0.0
C1595 C 0.66459 0.04802 0.89152 0.0
C1596 C 0.64006 0.04729 0.94012 0.0
C1597 C 0.61188 0.04197 0.92694 0.0
H1598 H 0.68761 0.05278 0.93362 0.0
H1599 H 0.64248 0.04659 0.96408 0.0
S1600 S 0.59561 0.03728 0.84639 0.0
N1601 N 0.63224 0.04293 0.84819 0.0
N1602 N 0.58367 0.0366 0.88117 0.0
C1603 C 0.6099 0.04136 0.89588 0.0
C1604 C 0.6362 0.04458 0.87812 0.0
C1605 C 0.0269 0.6498 0.8717 0.0
C1606 C 0.01233 0.67669 0.87852 0.0
C1607 C 0.02503 0.62544 0.89103 0.0
C1608 C 0.00837 0.62729 0.91758 0.0
H1609 H 0.03783 0.64686 0.85036 0.0
H1610 H 0.03446 0.60452 0.88399 0.0
S1611 S 0.97138 0.69426 0.94808 0.0
N1612 N 0.98521 0.70488 0.91584 0.0
N1613 N 0.98075 0.65921 0.9515 0.0
C1614 C -0.00384 0.65478 0.92574 0.0
C1615 C -0.00158 0.67946 0.9064 0.0
C1616 C 0.11226 0.37423 0.96195 0.0
C1617 C 0.10849 0.35984 0.98933 0.0
C1618 C 0.0964 0.40013 0.95536 0.0
C1619 C 0.07617 0.4128 0.97592 0.0
H1620 H 0.12907 0.36656 0.94625 0.0
H1621 H 0.10129 0.41105 0.93454 0.0
S1622 S 0.05378 0.38015 0.04816 0.0
N1623 N 0.07988 0.35752 0.03524 0.0
N1624 N 0.04991 0.40628 0.02297 0.0
C1625 C 0.07026 0.3972 0.00231 0.0
C1626 C 0.0865 0.37075 0.00899 0.0
C1627 C 0.12215 0.65874 0.04232 0.0
C1628 C 0.1114 0.68532 0.02974 0.0
C1629 C 0.11025 0.63124 0.03387 0.0
C1630 C 0.08738 0.62947 0.01242 0.0
H1631 H 0.14116 0.65895 0.05738 0.0
H1632 H 0.12042 0.61132 0.04255 0.0
S1633 S 0.04763 0.69237 0.97709 0.0
N1634 N 0.07346 0.70788 0.99819 0.0
N1635 N 0.05168 0.65657 0.98188 0.0
C1636 C 0.07496 0.65589 0.00149 0.0
C1637 C 0.08685 0.6837 0.01019 0.0
C1638 C 0.33886 0.14377 0.9806 0.0
C1639 C 0.34096 0.17073 0.99572 0.0
C1640 C 0.36389 0.12516 0.97785 0.0
C1641 C 0.39211 0.13294 0.98974 0.0
H1642 H 0.31745 0.1365 0.97181 0.0
H1643 H 0.36087 0.10401 0.96706 0.0
S1644 S 0.41015 0.20244 0.0289 0.0
N1645 N 0.37398 0.2054 0.02089 0.0
N1646 N 0.42113 0.17017 0.01562 0.0
C1647 C 0.39496 0.16048 0.00357 0.0
C1648 C 0.36932 0.17938 0.00668 0.0
C1649 C 0.92403 0.38197 0.99628 0.0
C1650 C 0.93177 0.3586 0.01535 0.0
C1651 C 0.93374 0.41073 0.00188 0.0
C1652 C 0.95179 0.41744 0.02671 0.0
H1653 H 0.90889 0.37839 0.97776 0.0
H1654 H 0.92611 0.428 0.98706 0.0
S1655 S 0.98124 0.36341 0.08153 0.0
N1656 N 0.96076 0.34348 0.05849 0.0
N1657 N 0.9791 0.39758 0.06919 0.0
C1658 C 0.96111 0.39396 0.04505 0.0
C1659 C 0.9511 0.36459 0.03933 0.0
C1660 C 0.67617 0.88629 0.99906 0.0
C1661 C 0.69237 0.89194 0.97274 0.0
C1662 C 0.64794 0.89917 0.00427 0.0
C1663 C 0.63447 0.91772 0.98312 0.0
H1664 H 0.68543 0.87183 0.01589 0.0
H1665 H 0.63685 0.89511 0.02531 0.0
S1666 S 0.66765 0.94058 0.91112 0.0
N1667 N 0.693 0.91809 0.92563 0.0
N1668 N 0.63958 0.94176 0.93517 0.0
C1669 C 0.65001 0.92311 0.95644 0.0
C1670 C 0.67902 0.91035 0.9513 0.0
C1671 C 0.93324 0.68693 0.01465 0.0
C1672 C 0.90996 0.68776 0.99349 0.0
C1673 C 0.94655 0.6602 0.02311 0.0
C1674 C 0.93718 0.63325 0.01074 0.0
H1675 H 0.94069 0.70703 0.02531 0.0
H1676 H 0.96372 0.66055 0.04021 0.0
S1677 S 0.87632 0.62316 0.95559 0.0
N1678 N 0.87771 0.65909 0.96083 0.0
N1679 N 0.9031 0.60896 0.97665 0.0
C1680 C 0.91466 0.63377 0.98894 0.0
C1681 C 0.90093 0.66099 0.98038 0.0
C1682 C 0.31894 0.91759 0.02861 0.0
C1683 C 0.30708 0.90766 0.00136 0.0
C1684 C 0.34595 0.93336 0.02987 0.0
C1685 C 0.36252 0.93977 0.00395 0.0
H1686 H 0.30839 0.91153 0.04941 0.0
H1687 H 0.35456 0.93931 0.0516 0.0
S1688 S 0.33885 0.92283 0.9266 0.0
N1689 N 0.31189 0.90899 0.94749 0.0
N1690 N 0.3631 0.93783 0.94985 0.0
C1691 C 0.34975 0.932 0.97637 0.0
C1692 C 0.32202 0.91613 0.97509 0.0
C1693 C 0.71147 0.13037 0.96989 0.0
C1694 C 0.72631 0.14471 0.99346 0.0
C1695 C 0.68431 0.11543 0.97443 0.0
C1696 C 0.67095 0.11396 0.00278 0.0
H1697 H 0.72025 0.13181 0.94746 0.0
H1698 H 0.67321 0.10582 0.95534 0.0
S1699 S 0.70135 0.14686 0.07221 0.0
N1700 N 0.72606 0.15567 0.0464 0.0
N1701 N 0.67545 0.12721 0.05509 0.0
C1702 C 0.68639 0.12687 0.02685 0.0
C1703 C 0.71397 0.14225 0.02217 0.0
C1704 C 0.48517 0.64139 0.85126 0.0
C1705 C 0.51267 0.6539 0.8424 0.0
C1706 C 0.48267 0.62556 0.87793 0.0
C1707 C 0.50749 0.6219 0.89711 0.0
H1708 H 0.46515 0.64472 0.83793 0.0
H1709 H 0.46075 0.61722 0.88408 0.0
S1710 S 0.58551 0.6467 0.88223 0.0
N1711 N 0.5659 0.65905 0.85366 0.0
N1712 N 0.56127 0.62924 0.90357 0.0
C1713 C 0.53551 0.63276 0.88766 0.0
C1714 C 0.5381 0.6487 0.86037 0.0
C1715 C 0.40684 0.55858 0.88495 0.0
C1716 C 0.42044 0.54746 0.85893 0.0
C1717 C 0.41893 0.55295 0.91314 0.0
C1718 C 0.44535 0.53613 0.91672 0.0
H1719 H 0.38576 0.5706 0.8837 0.0
H1720 H 0.40682 0.56113 0.93241 0.0
S1721 S 0.4919 0.50503 0.85547 0.0
N1722 N 0.46327 0.52094 0.83832 0.0
N1723 N 0.48643 0.51074 0.89138 0.0
C1724 C 0.46033 0.52642 0.89079 0.0
C1725 C 0.44771 0.53185 0.86194 0.0
C1726 C 0.52202 0.38142 0.86285 0.0
C1727 C 0.49512 0.38582 0.84686 0.0
C1728 C 0.52865 0.39794 0.88849 0.0
C1729 C 0.50869 0.41964 0.89941 0.0
H1730 H 0.53769 0.36431 0.85613 0.0
H1731 H 0.54952 0.39331 0.90003 0.0
S1732 S 0.43601 0.44126 0.86461 0.0
N1733 N 0.44925 0.41492 0.84279 0.0
N1734 N 0.46113 0.44524 0.89134 0.0
C1735 C 0.48201 0.4248 0.88321 0.0
C1736 C 0.47538 0.4081 0.85693 0.0
C1737 C 0.60724 0.49344 0.86488 0.0
C1738 C 0.59967 0.5121 0.84101 0.0
C1739 C 0.59457 0.49742 0.89317 0.0
C1740 C 0.57407 0.52045 0.89889 0.0
H1741 H 0.62458 0.47679 0.8623 0.0
H1742 H 0.60242 0.48341 0.91105 0.0
S1743 S 0.54186 0.57117 0.84249 0.0
N1744 N 0.56663 0.55122 0.82379 0.0
N1745 N 0.54325 0.55925 0.87715 0.0
C1746 C 0.56445 0.53774 0.87468 0.0
C1747 C 0.57715 0.53345 0.84575 0.0
C1748 C 0.5354 0.38871 0.16596 0.0
C1749 C 0.50572 0.38712 0.17666 0.0
C1750 C 0.54282 0.4064 0.14155 0.0
C1751 C 0.52091 0.42339 0.12664 0.0
H1752 H 0.55292 0.37513 0.17566 0.0
H1753 H 0.56594 0.40614 0.13392 0.0
S1754 S 0.44043 0.42982 0.14799 0.0
N1755 N 0.45468 0.40619 0.17211 0.0
N1756 N 0.46855 0.43929 0.12606 0.0
C1757 C 0.49136 0.42316 0.13798 0.0
C1758 C 0.48379 0.40506 0.16293 0.0
C1759 C 0.62086 0.4668 0.14281 0.0
C1760 C 0.62099 0.48428 0.16895 0.0
C1761 C 0.60615 0.47615 0.11674 0.0
C1762 C 0.59035 0.50297 0.11604 0.0
H1763 H 0.63382 0.44657 0.14185 0.0
H1764 H 0.60893 0.4633 0.09661 0.0
S1765 S 0.57841 0.55427 0.17949 0.0
N1766 N 0.60069 0.52833 0.19284 0.0
N1767 N 0.57149 0.54455 0.14481 0.0
C1768 C 0.5875 0.519 0.14278 0.0
C1769 C 0.60302 0.50994 0.16904 0.0
C1770 C 0.56538 0.66516 0.12458 0.0
C1771 C 0.55315 0.66243 0.1535 0.0
C1772 C 0.55766 0.64554 0.10153 0.0
C1773 C 0.53753 0.62241 0.10659 0.0
H1774 H 0.57959 0.68372 0.11927 0.0
H1775 H 0.56556 0.64994 0.07918 0.0
S1776 S 0.50236 0.60298 0.17866 0.0
N1777 N 0.52225 0.6327 0.1862 0.0
N1778 N 0.50807 0.59587 0.14306 0.0
C1779 C 0.52722 0.61793 0.13582 0.0
C1780 C 0.53502 0.63785 0.15927 0.0
C1781 C 0.43181 0.54977 0.17454 0.0
C1782 C 0.42066 0.57883 0.17501 0.0
C1783 C 0.44556 0.53786 0.14923 0.0
C1784 C 0.44823 0.55395 0.12255 0.0
H1785 H 0.42848 0.5352 0.19324 0.0
H1786 H 0.45304 0.51516 0.15046 0.0
S1787 S 0.42636 0.63233 0.11297 0.0
N1788 N 0.41779 0.62505 0.14786 0.0
N1789 N 0.43969 0.60125 0.09906 0.0
C1790 C 0.43826 0.58338 0.123 0.0
C1791 C 0.42553 0.59611 0.14943 0.0
C1792 C 0.861 0.53206 0.65935 0.0
C1793 C 0.83758 0.51219 0.65286 0.0
C1794 C 0.88792 0.53209 0.64275 0.0
C1795 C 0.89257 0.51201 0.61925 0.0
H1796 H 0.85868 0.54745 0.67766 0.0
H1797 H 0.90517 0.54791 0.64839 0.0
S1798 S 0.83665 0.45745 0.59152 0.0
N1799 N 0.81983 0.47364 0.61992 0.0
N1800 N 0.87008 0.47283 0.58936 0.0
C1801 C 0.86893 0.49231 0.61238 0.0
C1802 C 0.84158 0.49262 0.62899 0.0
C1803 C 0.56397 0.86877 0.61214 0.0
C1804 C 0.53938 0.86122 0.63028 0.0
C1805 C 0.5638 0.8946 0.59507 0.0
C1806 C 0.5391 0.91418 0.59561 0.0
H1807 H 0.5841 0.85521 0.61212 0.0
H1808 H 0.58386 0.8999 0.58255 0.0
S1809 S 0.46736 0.90255 0.63625 0.0
N1810 N 0.48845 0.87399 0.64544 0.0
N1811 N 0.48794 0.92234 0.61327 0.0
C1812 C 0.51349 0.90582 0.61199 0.0
C1813 C 0.51366 0.8794 0.62929 0.0
C1814 C 0.22277 0.52335 0.60501 0.0
C1815 C 0.22889 0.54654 0.62487 0.0
C1816 C 0.19522 0.52167 0.58984 0.0
C1817 C 0.17243 0.54309 0.5938 0.0
H1818 H 0.23914 0.50591 0.60167 0.0
H1819 H 0.19152 0.50287 0.57549 0.0
S1820 S 0.17745 0.60893 0.64273 0.0
N1821 N 0.20995 0.5918 0.64732 0.0
N1822 N 0.15858 0.58898 0.61841 0.0
C1823 C 0.17867 0.567 0.61282 0.0
C1824 C 0.20675 0.56865 0.62838 0.0
C1825 C 0.48276 0.14527 0.64033 0.0
C1826 C 0.49585 0.17338 0.63675 0.0
C1827 C 0.49185 0.12097 0.62287 0.0
C1828 C 0.51462 0.12381 0.60143 0.0
H1829 H 0.46638 0.14162 0.65775 0.0
H1830 H 0.48224 0.09956 0.62735 0.0
S1831 S 0.55232 0.19315 0.57943 0.0
N1832 N 0.52975 0.20302 0.60693 0.0
N1833 N 0.54739 0.15742 0.57498 0.0
C1834 C 0.52649 0.15203 0.59634 0.0
C1835 C 0.51703 0.17675 0.61377 0.0
C1836 C 0.81379 0.55051 0.41416 0.0
C1837 C 0.80459 0.52383 0.4008 0.0
C1838 C 0.84158 0.55291 0.42898 0.0
C1839 C 0.86109 0.52858 0.43157 0.0
H1840 H 0.79976 0.57 0.41245 0.0
H1841 H 0.84794 0.57403 0.43823 0.0
S1842 S 0.84798 0.45352 0.40133 0.0
N1843 N 0.81792 0.47252 0.39141 0.0
N1844 N 0.86902 0.47672 0.42029 0.0
C1845 C 0.85172 0.50151 0.41944 0.0
C1846 C 0.82378 0.49918 0.40391 0.0
C1847 C 0.53673 0.85852 0.406 0.0
C1848 C 0.52393 0.85598 0.37746 0.0
C1849 C 0.52813 0.88131 0.4256 0.0
C1850 C 0.50681 0.90288 0.41727 0.0
H1851 H 0.55354 0.84275 0.41325 0.0
H1852 H 0.53861 0.88219 0.44733 0.0
S1853 S 0.46737 0.9067 0.34449 0.0
N1854 N 0.48929 0.87739 0.34164 0.0
N1855 N 0.47327 0.92009 0.37814 0.0
C1856 C 0.494 0.90064 0.38867 0.0
C1857 C 0.50249 0.87726 0.36891 0.0
C1858 C 0.17232 0.53327 0.36351 0.0
C1859 C 0.18537 0.56143 0.36228 0.0
C1860 C 0.14637 0.52803 0.38031 0.0
C1861 C 0.13211 0.55077 0.39636 0.0
H1862 H 0.1824 0.51498 0.35156 0.0
H1863 H 0.13782 0.50576 0.3813 0.0
S1864 S 0.15675 0.62863 0.4002 0.0
N1865 N 0.18178 0.61248 0.37837 0.0
N1866 N 0.13258 0.60276 0.40949 0.0
C1867 C 0.14419 0.5793 0.39448 0.0
C1868 C 0.1709 0.58459 0.37759 0.0
C1869 C 0.53024 0.16002 0.3981 0.0
C1870 C 0.50718 0.17947 0.38871 0.0
C1871 C 0.52392 0.13459 0.41487 0.0
C1872 C 0.49427 0.12753 0.42305 0.0
H1873 H 0.55334 0.16402 0.3917 0.0
H1874 H 0.5423 0.11995 0.42065 0.0
S1875 S 0.42582 0.17213 0.40634 0.0
N1876 N 0.45347 0.19007 0.39016 0.0
N1877 N 0.44185 0.14356 0.4225 0.0
C1878 C 0.47123 0.14762 0.41518 0.0
C1879 C 0.4776 0.17323 0.39791 0.0
C1880 C 0.62907 0.87579 0.46803 0.0
C1881 C 0.64955 0.86987 0.49119 0.0
C1882 C 0.61059 0.90101 0.46843 0.0
C1883 C 0.61212 0.9217 0.4918 0.0
H1884 H 0.62805 0.86129 0.44889 0.0
H1885 H 0.59612 0.90502 0.44946 0.0
S1886 S 0.65966 0.91506 0.55939 0.0
N1887 N 0.66845 0.88571 0.53937 0.0
N1888 N 0.63387 0.93302 0.54011 0.0
C1889 C 0.63126 0.9152 0.51592 0.0
C1890 C 0.64988 0.88934 0.51564 0.0
C1891 C 0.62127 0.17604 0.49196 0.0
C1892 C 0.63577 0.17995 0.51941 0.0
C1893 C 0.60325 0.15149 0.48649 0.0
C1894 C 0.59904 0.12926 0.50801 0.0
H1895 H 0.6252 0.19117 0.47381 0.0
H1896 H 0.59347 0.14955 0.46451 0.0
S1897 S 0.62772 0.13193 0.58548 0.0
N1898 N 0.64109 0.16207 0.57002 0.0
N1899 N 0.6087 0.11483 0.5591 0.0
C1900 C 0.612 0.1338 0.53619 0.0
C1901 C 0.62995 0.15933 0.54202 0.0
C1902 C 0.8814 0.64713 0.48347 0.0
C1903 C 0.85607 0.64885 0.50246 0.0
C1904 C 0.90515 0.62709 0.48888 0.0
C1905 C 0.90459 0.60835 0.51371 0.0
H1906 H 0.88352 0.66222 0.465 0.0
H1907 H 0.92461 0.62724 0.47439 0.0
S1908 S 0.84148 0.60045 0.56721 0.0
N1909 N 0.83042 0.62701 0.54466 0.0
N1910 N 0.87511 0.5903 0.55534 0.0
C1911 C 0.87872 0.60872 0.53182 0.0
C1912 C 0.85449 0.62871 0.5261 0.0
C1913 C 0.37677 0.89104 0.51953 0.0
C1914 C 0.3834 0.86067 0.52043 0.0
C1915 C 0.39929 0.91228 0.523 0.0
C1916 C 0.42954 0.90418 0.52766 0.0
H1917 H 0.35373 0.89856 0.51713 0.0
H1918 H 0.39266 0.93526 0.52297 0.0
S1919 S 0.45943 0.82759 0.5284 0.0
N1920 N 0.42282 0.8236 0.52373 0.0
N1921 N 0.46523 0.86341 0.53054 0.0
C1922 C 0.43672 0.87387 0.52738 0.0
C1923 C 0.41368 0.85219 0.5238 0.0
C1924 C 0.16942 0.39159 0.49502 0.0
C1925 C 0.19872 0.39529 0.50619 0.0
C1926 C 0.14965 0.41563 0.49197 0.0
C1927 C 0.15861 0.44442 0.49948 0.0
H1928 H 0.16169 0.36989 0.48864 0.0
H1929 H 0.12748 0.41166 0.48285 0.0
S1930 S 0.23286 0.46551 0.53074 0.0
N1931 N 0.23543 0.42953 0.52585 0.0
N1932 N 0.19874 0.47488 0.51955 0.0
C1933 C 0.18777 0.44826 0.51118 0.0
C1934 C 0.20769 0.42367 0.51469 0.0
C1935 C 0.38654 0.13756 0.47896 0.0
C1936 C 0.38709 0.16442 0.49498 0.0
C1937 C 0.40577 0.11393 0.4863 0.0
C1938 C 0.42639 0.11633 0.50983 0.0
H1939 H 0.36991 0.13417 0.4617 0.0
H1940 H 0.40306 0.09316 0.47478 0.0
S1941 S 0.44105 0.18327 0.55516 0.0
N1942 N 0.41288 0.19274 0.53321 0.0
N1943 N 0.44959 0.14905 0.54599 0.0
C1944 C 0.42927 0.14392 0.52397 0.0
C1945 C 0.40958 0.16781 0.51675 0.0
C1946 C 0.86233 0.38938 0.49753 0.0
C1947 C 0.83252 0.39685 0.49029 0.0
C1948 C 0.88366 0.41114 0.50371 0.0
C1949 C 0.87593 0.44124 0.50293 0.0
H1950 H 0.86903 0.36645 0.49903 0.0
H1951 H 0.90609 0.4042 0.5101 0.0
S1952 S 0.8015 0.47205 0.4813 0.0
N1953 N 0.79679 0.436 0.48004 0.0
N1954 N 0.83676 0.47725 0.49159 0.0
C1955 C 0.84639 0.44895 0.49439 0.0
C1956 C 0.82468 0.42667 0.48814 0.0
C1957 C 0.15163 0.64009 0.55275 0.0
C1958 C 0.16276 0.66071 0.53222 0.0
C1959 C 0.12653 0.62245 0.54595 0.0
C1960 C 0.11169 0.62461 0.51837 0.0
H1961 H 0.16261 0.63735 0.57407 0.0
H1962 H 0.11892 0.60689 0.56228 0.0
S1963 S 0.12858 0.67951 0.45938 0.0
N1964 N 0.15448 0.68522 0.48499 0.0
N1965 N 0.10792 0.65221 0.47202 0.0
C1966 C 0.12164 0.64653 0.49844 0.0
C1967 C 0.14705 0.6644 0.50536 0.0
loop_
_geom_bond_atom_site_label_1
_geom_bond_atom_site_label_2
_geom_bond_distance
_geom_bond_site_symmetry_2
_ccdc_geom_bond_type
C0 C1 1.384 . S
C0 H13 0.947 . S
C0 C35 1.382 . S
C1 C0 1.384 . S
C1 C2 1.378 . S
C2 C1 1.378 . S
C2 C3 1.378 . S
C2 H14 0.952 . S
C3 C2 1.378 . S
C3 H15 0.950 . S
C3 C34 1.383 . S
H4 C23 0.947 . S
H5 C24 0.946 . S
H6 C26 0.953 . S
H7 C27 0.945 . S
H8 C29 0.952 . S
H9 C30 0.949 . S
H10 C32 0.950 . S
H11 C33 0.948 . S
H12 C35 0.951 . S
H13 C0 0.947 . S
H14 C2 0.952 . S
H15 C3 0.950 . S
N16 C19 1.382 . S
N16 C21 1.363 . S
N17 C19 1.371 . S
N17 C20 1.372 . S
N18 C20 1.361 . S
N18 C21 1.377 . S
C19 N16 1.382 . S
C19 N17 1.371 . S
C19 C22 1.480 . S
C20 N17 1.372 . S
C20 N18 1.361 . S
C20 C28 1.457 . S
C21 N16 1.363 . S
C21 N18 1.377 . S
C21 C34 1.479 . S
C22 C19 1.480 . S
C22 C23 1.383 . S
C22 C27 1.385 . S
C23 H4 0.947 . S
C23 C22 1.383 . S
C23 C24 1.388 . S
C24 H5 0.946 . S
C24 C23 1.388 . S
C24 C25 1.384 . S
C25 C24 1.384 . S
C25 C26 1.377 . S
C26 H6 0.953 . S
C26 C25 1.377 . S
C26 C27 1.369 . S
C27 H7 0.945 . S
C27 C22 1.385 . S
C27 C26 1.369 . S
C28 C20 1.457 . S
C28 C29 1.372 . S
C28 C33 1.364 . S
C29 H8 0.952 . S
C29 C28 1.372 . S
C29 C30 1.389 . S
C30 H9 0.949 . S
C30 C29 1.389 . S
C30 C31 1.387 . S
C31 C30 1.387 . S
C31 C32 1.372 . S
C32 H10 0.950 . S
C32 C31 1.372 . S
C32 C33 1.379 . S
C33 H11 0.948 . S
C33 C28 1.364 . S
C33 C32 1.379 . S
C34 C3 1.383 . S
C34 C21 1.479 . S
C34 C35 1.398 . S
C35 C0 1.382 . S
C35 H12 0.951 . S
C35 C34 1.398 . S
C36 C37 1.384 . S
C36 H49 0.947 . S
C36 C71 1.382 . S
C37 C36 1.384 . S
C37 C38 1.378 . S
C38 C37 1.378 . S
C38 C39 1.378 . S
C38 H50 0.952 . S
C39 C38 1.378 . S
C39 H51 0.950 . S
C39 C70 1.383 . S
H40 C59 0.947 . S
H41 C60 0.946 . S
H42 C62 0.953 . S
H43 C63 0.945 . S
H44 C65 0.952 . S
H45 C66 0.949 . S
H46 C68 0.950 . S
H47 C69 0.948 . S
H48 C71 0.951 . S
H49 C36 0.947 . S
H50 C38 0.952 . S
H51 C39 0.950 . S
N52 C55 1.382 . S
N52 C57 1.363 . S
N53 C55 1.371 . S
N53 C56 1.372 . S
N54 C56 1.361 . S
N54 C57 1.377 . S
C55 N52 1.382 . S
C55 N53 1.371 . S
C55 C58 1.480 . S
C56 N53 1.372 . S
C56 N54 1.361 . S
C56 C64 1.457 . S
C57 N52 1.363 . S
C57 N54 1.377 . S
C57 C70 1.479 . S
C58 C55 1.480 . S
C58 C59 1.383 . S
C58 C63 1.385 . S
C59 H40 0.947 . S
C59 C58 1.383 . S
C59 C60 1.388 . S
C60 H41 0.946 . S
C60 C59 1.388 . S
C60 C61 1.384 . S
C61 C60 1.384 . S
C61 C62 1.377 . S
C62 H42 0.953 . S
C62 C61 1.377 . S
C62 C63 1.369 . S
C63 H43 0.945 . S
C63 C58 1.385 . S
C63 C62 1.369 . S
C64 C56 1.457 . S
C64 C65 1.372 . S
C64 C69 1.364 . S
C65 H44 0.952 . S
C65 C64 1.372 . S
C65 C66 1.389 . S
C66 H45 0.949 . S
C66 C65 1.389 . S
C66 C67 1.387 . S
C67 C66 1.387 . S
C67 C68 1.372 . S
C68 H46 0.950 . S
C68 C67 1.372 . S
C68 C69 1.379 . S
C69 H47 0.948 . S
C69 C64 1.364 . S
C69 C68 1.379 . S
C70 C39 1.383 . S
C70 C57 1.479 . S
C70 C71 1.398 . S
C71 C36 1.382 . S
C71 H48 0.951 . S
C71 C70 1.398 . S
C72 C73 1.384 . S
C72 H85 0.947 . S
C72 C107 1.382 . S
C73 C72 1.384 . S
C73 C74 1.378 . S
C74 C73 1.378 . S
C74 C75 1.378 . S
C74 H86 0.952 . S
C75 C74 1.378 . S
C75 H87 0.950 . S
C75 C106 1.383 . S
H76 C95 0.947 . S
H77 C96 0.946 . S
H78 C98 0.953 . S
H79 C99 0.945 . S
H80 C101 0.952 . S
H81 C102 0.949 . S
H82 C104 0.950 . S
H83 C105 0.948 . S
H84 C107 0.951 . S
H85 C72 0.947 . S
H86 C74 0.952 . S
H87 C75 0.950 . S
N88 C91 1.382 . S
N88 C93 1.363 . S
N89 C91 1.371 . S
N89 C92 1.372 . S
N90 C92 1.361 . S
N90 C93 1.377 . S
C91 N88 1.382 . S
C91 N89 1.371 . S
C91 C94 1.480 . S
C92 N89 1.372 . S
C92 N90 1.361 . S
C92 C100 1.457 . S
C93 N88 1.363 . S
C93 N90 1.377 . S
C93 C106 1.479 . S
C94 C91 1.480 . S
C94 C95 1.383 . S
C94 C99 1.385 . S
C95 H76 0.947 . S
C95 C94 1.383 . S
C95 C96 1.388 . S
C96 H77 0.946 . S
C96 C95 1.388 . S
C96 C97 1.384 . S
C97 C96 1.384 . S
C97 C98 1.377 . S
C98 H78 0.953 . S
C98 C97 1.377 . S
C98 C99 1.369 . S
C99 H79 0.945 . S
C99 C94 1.385 . S
C99 C98 1.369 . S
C100 C92 1.457 . S
C100 C101 1.372 . S
C100 C105 1.364 . S
C101 H80 0.952 . S
C101 C100 1.372 . S
C101 C102 1.389 . S
C102 H81 0.949 . S
C102 C101 1.389 . S
C102 C103 1.387 . S
C103 C102 1.387 . S
C103 C104 1.372 . S
C104 H82 0.950 . S
C104 C103 1.372 . S
C104 C105 1.379 . S
C105 H83 0.948 . S
C105 C100 1.364 . S
C105 C104 1.379 . S
C106 C75 1.383 . S
C106 C93 1.479 . S
C106 C107 1.398 . S
C107 C72 1.382 . S
C107 H84 0.951 . S
C107 C106 1.398 . S
C108 C109 1.384 . S
C108 H121 0.947 . S
C108 C143 1.382 . S
C109 C108 1.384 . S
C109 C110 1.378 . S
C110 C109 1.378 . S
C110 C111 1.378 . S
C110 H122 0.952 . S
C111 C110 1.378 . S
C111 H123 0.950 . S
C111 C142 1.383 . S
H112 C131 0.947 . S
H113 C132 0.939 1_565 S
H114 C134 0.953 . S
H115 C135 0.945 . S
H116 C137 0.952 . S
H117 C138 0.951 . S
H118 C140 0.950 . S
H119 C141 0.948 . S
H120 C143 0.951 . S
H121 C108 0.947 . S
H122 C110 0.952 . S
H123 C111 0.950 . S
N124 C127 1.382 . S
N124 C129 1.363 . S
N125 C127 1.371 . S
N125 C128 1.372 . S
N126 C128 1.361 . S
N126 C129 1.377 . S
C127 N124 1.382 . S
C127 N125 1.371 . S
C127 C130 1.480 . S
C128 N125 1.372 . S
C128 N126 1.361 . S
C128 C136 1.457 . S
C129 N124 1.363 . S
C129 N126 1.377 . S
C129 C142 1.479 . S
C130 C127 1.480 . S
C130 C131 1.383 . S
C130 C135 1.385 . S
C131 H112 0.947 . S
C131 C130 1.383 . S
C131 C132 1.388 . S
C132 H113 0.939 1_545 S
C132 C131 1.388 . S
C132 C133 1.384 . S
C133 C132 1.384 . S
C133 C134 1.377 . S
C134 H114 0.953 . S
C134 C133 1.377 . S
C134 C135 1.369 . S
C135 H115 0.945 . S
C135 C130 1.385 . S
C135 C134 1.369 . S
C136 C128 1.457 . S
C136 C137 1.372 . S
C136 C141 1.364 . S
C137 H116 0.952 . S
C137 C136 1.372 . S
C137 C138 1.389 . S
C138 H117 0.951 . S
C138 C137 1.389 . S
C138 C139 1.387 . S
C139 C138 1.387 . S
C139 C140 1.372 . S
C140 H118 0.950 . S
C140 C139 1.372 . S
C140 C141 1.379 . S
C141 H119 0.948 . S
C141 C136 1.364 . S
C141 C140 1.379 . S
C142 C111 1.383 . S
C142 C129 1.479 . S
C142 C143 1.398 . S
C143 C108 1.382 . S
C143 H120 0.951 . S
C143 C142 1.398 . S
C144 C145 1.383 1_455 S
C144 H157 0.948 . S
C144 C179 1.382 1_455 S
C145 C144 1.383 1_655 S
C145 C146 1.378 . S
C146 C145 1.378 . S
C146 C147 1.378 . S
C146 H158 0.952 . S
C147 C146 1.378 . S
C147 H159 0.950 . S
C147 C178 1.383 . S
H148 C167 0.947 . S
H149 C168 0.953 . S
H150 C170 0.953 . S
H151 C171 0.945 . S
H152 C173 0.949 1_455 S
H153 C174 0.949 . S
H154 C176 0.950 . S
H155 C177 0.948 . S
H156 C179 0.952 1_455 S
H157 C144 0.948 . S
H158 C146 0.952 . S
H159 C147 0.950 . S
N160 C163 1.382 . S
N160 C165 1.363 . S
N161 C163 1.371 . S
N161 C164 1.372 . S
N162 C164 1.361 . S
N162 C165 1.377 . S
C163 N160 1.382 . S
C163 N161 1.371 . S
C163 C166 1.480 . S
C164 N161 1.372 . S
C164 N162 1.361 . S
C164 C172 1.457 . S
C165 N160 1.363 . S
C165 N162 1.377 . S
C165 C178 1.479 . S
C166 C163 1.480 . S
C166 C167 1.383 . S
C166 C171 1.385 . S
C167 H148 0.947 . S
C167 C166 1.383 . S
C167 C168 1.385 1_655 S
C168 H149 0.953 . S
C168 C167 1.385 1_455 S
C168 C169 1.381 1_455 S
C169 C168 1.381 1_655 S
C169 C170 1.377 . S
C170 H150 0.953 . S
C170 C169 1.377 . S
C170 C171 1.369 . S
C171 H151 0.945 . S
C171 C166 1.385 . S
C171 C170 1.369 . S
C172 C164 1.457 . S
C172 C173 1.376 . S
C172 C177 1.364 . S
C173 H152 0.949 1_655 S
C173 C172 1.376 . S
C173 C174 1.388 1_655 S
C174 H153 0.949 . S
C174 C173 1.388 1_455 S
C174 C175 1.387 1_455 S
C175 C174 1.387 1_655 S
C175 C176 1.372 . S
C176 H154 0.950 . S
C176 C175 1.372 . S
C176 C177 1.379 . S
C177 H155 0.948 . S
C177 C172 1.364 . S
C177 C176 1.379 . S
C178 C147 1.383 . S
C178 C165 1.479 . S
C178 C179 1.398 . S
C179 C144 1.382 1_655 S
C179 H156 0.952 1_655 S
C179 C178 1.398 . S
C180 C181 1.384 . S
C180 H193 0.947 . S
C180 C215 1.382 . S
C181 C180 1.384 . S
C181 C182 1.378 . S
C182 C181 1.378 . S
C182 C183 1.378 . S
C182 H194 0.952 . S
C183 C182 1.378 . S
C183 H195 0.950 . S
C183 C214 1.383 . S
H184 C203 0.947 . S
H185 C204 0.946 . S
H186 C206 0.953 . S
H187 C207 0.945 . S
H188 C209 0.952 . S
H189 C210 0.949 . S
H190 C212 0.950 . S
H191 C213 0.948 . S
H192 C215 0.951 . S
H193 C180 0.947 . S
H194 C182 0.952 . S
H195 C183 0.950 . S
N196 C199 1.382 . S
N196 C201 1.363 . S
N197 C199 1.371 . S
N197 C200 1.372 . S
N198 C200 1.361 . S
N198 C201 1.377 . S
C199 N196 1.382 . S
C199 N197 1.371 . S
C199 C202 1.480 . S
C200 N197 1.372 . S
C200 N198 1.361 . S
C200 C208 1.457 . S
C201 N196 1.363 . S
C201 N198 1.377 . S
C201 C214 1.479 . S
C202 C199 1.480 . S
C202 C203 1.383 . S
C202 C207 1.385 . S
C203 H184 0.947 . S
C203 C202 1.383 . S
C203 C204 1.388 . S
C204 H185 0.946 . S
C204 C203 1.388 . S
C204 C205 1.384 . S
C205 C204 1.384 . S
C205 C206 1.377 . S
C206 H186 0.953 . S
C206 C205 1.377 . S
C206 C207 1.369 . S
C207 H187 0.945 . S
C207 C202 1.385 . S
C207 C206 1.369 . S
C208 C200 1.457 . S
C208 C209 1.372 . S
C208 C213 1.364 . S
C209 H188 0.952 . S
C209 C208 1.372 . S
C209 C210 1.389 . S
C210 H189 0.949 . S
C210 C209 1.389 . S
C210 C211 1.387 . S
C211 C210 1.387 . S
C211 C212 1.372 . S
C212 H190 0.950 . S
C212 C211 1.372 . S
C212 C213 1.379 . S
C213 H191 0.948 . S
C213 C208 1.364 . S
C213 C212 1.379 . S
C214 C183 1.383 . S
C214 C201 1.479 . S
C214 C215 1.398 . S
C215 C180 1.382 . S
C215 H192 0.951 . S
C215 C214 1.398 . S
C216 C217 1.384 . S
C216 H229 0.947 . S
C216 C251 1.382 . S
C217 C216 1.384 . S
C217 C218 1.378 . S
C218 C217 1.378 . S
C218 C219 1.378 . S
C218 H230 0.952 . S
C219 C218 1.378 . S
C219 H231 0.950 . S
C219 C250 1.383 . S
H220 C239 0.947 . S
H221 C240 0.946 . S
H222 C242 0.953 . S
H223 C243 0.945 . S
H224 C245 0.952 . S
H225 C246 0.949 . S
H226 C248 0.950 . S
H227 C249 0.948 . S
H228 C251 0.951 . S
H229 C216 0.947 . S
H230 C218 0.952 . S
H231 C219 0.950 . S
N232 C235 1.382 . S
N232 C237 1.363 . S
N233 C235 1.371 . S
N233 C236 1.372 . S
N234 C236 1.361 . S
N234 C237 1.377 . S
C235 N232 1.382 . S
C235 N233 1.371 . S
C235 C238 1.480 . S
C236 N233 1.372 . S
C236 N234 1.361 . S
C236 C244 1.457 . S
C237 N232 1.363 . S
C237 N234 1.377 . S
C237 C250 1.479 . S
C238 C235 1.480 . S
C238 C239 1.383 . S
C238 C243 1.385 . S
C239 H220 0.947 . S
C239 C238 1.383 . S
C239 C240 1.388 . S
C240 H221 0.946 . S
C240 C239 1.388 . S
C240 C241 1.384 . S
C241 C240 1.384 . S
C241 C242 1.377 . S
C242 H222 0.953 . S
C242 C241 1.377 . S
C242 C243 1.369 . S
C243 H223 0.945 . S
C243 C238 1.385 . S
C243 C242 1.369 . S
C244 C236 1.457 . S
C244 C245 1.372 . S
C244 C249 1.364 . S
C245 H224 0.952 . S
C245 C244 1.372 . S
C245 C246 1.389 . S
C246 H225 0.949 . S
C246 C245 1.389 . S
C246 C247 1.387 . S
C247 C246 1.387 . S
C247 C248 1.372 . S
C248 H226 0.950 . S
C248 C247 1.372 . S
C248 C249 1.379 . S
C249 H227 0.948 . S
C249 C244 1.364 . S
C249 C248 1.379 . S
C250 C219 1.383 . S
C250 C237 1.479 . S
C250 C251 1.398 . S
C251 C216 1.382 . S
C251 H228 0.951 . S
C251 C250 1.398 . S
C252 C253 1.384 . S
C252 H265 0.947 . S
C252 C287 1.382 . S
C253 C252 1.384 . S
C253 C254 1.378 . S
C254 C253 1.378 . S
C254 C255 1.378 . S
C254 H266 0.952 . S
C255 C254 1.378 . S
C255 H267 0.950 . S
C255 C286 1.383 . S
H256 C275 0.947 . S
H257 C276 0.946 . S
H258 C278 0.953 . S
H259 C279 0.945 . S
H260 C281 0.952 . S
H261 C282 0.949 . S
H262 C284 0.950 . S
H263 C285 0.948 . S
H264 C287 0.951 . S
H265 C252 0.947 . S
H266 C254 0.952 . S
H267 C255 0.950 . S
N268 C271 1.382 . S
N268 C273 1.363 . S
N269 C271 1.371 . S
N269 C272 1.372 . S
N270 C272 1.361 . S
N270 C273 1.377 . S
C271 N268 1.382 . S
C271 N269 1.371 . S
C271 C274 1.480 . S
C272 N269 1.372 . S
C272 N270 1.361 . S
C272 C280 1.457 . S
C273 N268 1.363 . S
C273 N270 1.377 . S
C273 C286 1.479 . S
C274 C271 1.480 . S
C274 C275 1.383 . S
C274 C279 1.385 . S
C275 H256 0.947 . S
C275 C274 1.383 . S
C275 C276 1.388 . S
C276 H257 0.946 . S
C276 C275 1.388 . S
C276 C277 1.384 . S
C277 C276 1.384 . S
C277 C278 1.377 . S
C278 H258 0.953 . S
C278 C277 1.377 . S
C278 C279 1.369 . S
C279 H259 0.945 . S
C279 C274 1.385 . S
C279 C278 1.369 . S
C280 C272 1.457 . S
C280 C281 1.372 . S
C280 C285 1.364 . S
C281 H260 0.952 . S
C281 C280 1.372 . S
C281 C282 1.389 . S
C282 H261 0.949 . S
C282 C281 1.389 . S
C282 C283 1.387 . S
C283 C282 1.387 . S
C283 C284 1.372 . S
C284 H262 0.950 . S
C284 C283 1.372 . S
C284 C285 1.379 . S
C285 H263 0.948 . S
C285 C280 1.364 . S
C285 C284 1.379 . S
C286 C255 1.383 . S
C286 C273 1.479 . S
C286 C287 1.398 . S
C287 C252 1.382 . S
C287 H264 0.951 . S
C287 C286 1.398 . S
C288 C289 1.384 . S
C288 H301 0.947 . S
C288 C323 1.382 . S
C289 C288 1.384 . S
C289 C290 1.378 . S
C290 C289 1.378 . S
C290 C291 1.378 . S
C290 H302 0.952 . S
C291 C290 1.378 . S
C291 H303 0.950 . S
C291 C322 1.383 . S
H292 C311 0.947 . S
H293 C312 0.946 . S
H294 C314 0.953 . S
H295 C315 0.945 . S
H296 C317 0.952 . S
H297 C318 0.949 . S
H298 C320 0.950 . S
H299 C321 0.948 . S
H300 C323 0.951 . S
H301 C288 0.947 . S
H302 C290 0.952 . S
H303 C291 0.950 . S
N304 C307 1.382 . S
N304 C309 1.363 . S
N305 C307 1.371 . S
N305 C308 1.372 . S
N306 C308 1.361 . S
N306 C309 1.377 . S
C307 N304 1.382 . S
C307 N305 1.371 . S
C307 C310 1.480 . S
C308 N305 1.372 . S
C308 N306 1.361 . S
C308 C316 1.457 . S
C309 N304 1.363 . S
C309 N306 1.377 . S
C309 C322 1.479 . S
C310 C307 1.480 . S
C310 C311 1.383 . S
C310 C315 1.385 . S
C311 H292 0.947 . S
C311 C310 1.383 . S
C311 C312 1.388 . S
C312 H293 0.946 . S
C312 C311 1.388 . S
C312 C313 1.384 . S
C313 C312 1.384 . S
C313 C314 1.377 . S
C314 H294 0.953 . S
C314 C313 1.377 . S
C314 C315 1.369 . S
C315 H295 0.945 . S
C315 C310 1.385 . S
C315 C314 1.369 . S
C316 C308 1.457 . S
C316 C317 1.372 . S
C316 C321 1.364 . S
C317 H296 0.952 . S
C317 C316 1.372 . S
C317 C318 1.389 . S
C318 H297 0.949 . S
C318 C317 1.389 . S
C318 C319 1.387 . S
C319 C318 1.387 . S
C319 C320 1.372 . S
C320 H298 0.950 . S
C320 C319 1.372 . S
C320 C321 1.379 . S
C321 H299 0.948 . S
C321 C316 1.364 . S
C321 C320 1.379 . S
C322 C291 1.383 . S
C322 C309 1.479 . S
C322 C323 1.398 . S
C323 C288 1.382 . S
C323 H300 0.951 . S
C323 C322 1.398 . S
C324 C325 1.384 . S
C324 H337 0.947 . S
C324 C359 1.382 . S
C325 C324 1.384 . S
C325 C326 1.378 . S
C326 C325 1.378 . S
C326 C327 1.378 . S
C326 H338 0.952 . S
C327 C326 1.378 . S
C327 H339 0.950 . S
C327 C358 1.383 . S
H328 C347 0.947 . S
H329 C348 0.946 . S
H330 C350 0.953 . S
H331 C351 0.945 . S
H332 C353 0.952 . S
H333 C354 0.949 . S
H334 C356 0.950 . S
H335 C357 0.948 . S
H336 C359 0.951 . S
H337 C324 0.947 . S
H338 C326 0.952 . S
H339 C327 0.950 . S
N340 C343 1.382 . S
N340 C345 1.363 . S
N341 C343 1.371 . S
N341 C344 1.372 . S
N342 C344 1.361 . S
N342 C345 1.377 . S
C343 N340 1.382 . S
C343 N341 1.371 . S
C343 C346 1.480 . S
C344 N341 1.372 . S
C344 N342 1.361 . S
C344 C352 1.457 . S
C345 N340 1.363 . S
C345 N342 1.377 . S
C345 C358 1.479 . S
C346 C343 1.480 . S
C346 C347 1.383 . S
C346 C351 1.385 . S
C347 H328 0.947 . S
C347 C346 1.383 . S
C347 C348 1.388 . S
C348 H329 0.946 . S
C348 C347 1.388 . S
C348 C349 1.384 . S
C349 C348 1.384 . S
C349 C350 1.377 . S
C350 H330 0.953 . S
C350 C349 1.377 . S
C350 C351 1.369 . S
C351 H331 0.945 . S
C351 C346 1.385 . S
C351 C350 1.369 . S
C352 C344 1.457 . S
C352 C353 1.372 . S
C352 C357 1.364 . S
C353 H332 0.952 . S
C353 C352 1.372 . S
C353 C354 1.389 . S
C354 H333 0.949 . S
C354 C353 1.389 . S
C354 C355 1.387 . S
C355 C354 1.387 . S
C355 C356 1.372 . S
C356 H334 0.950 . S
C356 C355 1.372 . S
C356 C357 1.379 . S
C357 H335 0.948 . S
C357 C352 1.364 . S
C357 C356 1.379 . S
C358 C327 1.383 . S
C358 C345 1.479 . S
C358 C359 1.398 . S
C359 C324 1.382 . S
C359 H336 0.951 . S
C359 C358 1.398 . S
C360 C361 1.385 . S
C360 H373 0.947 . S
C360 C395 1.382 . S
C361 C360 1.385 . S
C361 C362 1.376 1_554 S
C362 C361 1.376 1_556 S
C362 C363 1.378 . S
C362 H374 0.952 . S
C363 C362 1.378 . S
C363 H375 0.950 . S
C363 C394 1.383 . S
H364 C383 0.947 . S
H365 C384 0.946 . S
H366 C386 0.953 . S
H367 C387 0.945 . S
H368 C389 0.952 . S
H369 C390 0.949 . S
H370 C392 0.950 . S
H371 C393 0.948 . S
H372 C395 0.951 . S
H373 C360 0.947 . S
H374 C362 0.952 . S
H375 C363 0.950 . S
N376 C379 1.382 . S
N376 C381 1.363 . S
N377 C379 1.371 . S
N377 C380 1.372 . S
N378 C380 1.361 . S
N378 C381 1.377 . S
C379 N376 1.382 . S
C379 N377 1.371 . S
C379 C382 1.480 . S
C380 N377 1.372 . S
C380 N378 1.361 . S
C380 C388 1.457 . S
C381 N376 1.363 . S
C381 N378 1.377 . S
C381 C394 1.479 . S
C382 C379 1.480 . S
C382 C383 1.383 . S
C382 C387 1.385 . S
C383 H364 0.947 . S
C383 C382 1.383 . S
C383 C384 1.388 1_556 S
C384 H365 0.946 . S
C384 C383 1.388 1_554 S
C384 C385 1.384 1_554 S
C385 C384 1.384 1_556 S
C385 C386 1.376 . S
C386 H366 0.953 . S
C386 C385 1.376 . S
C386 C387 1.369 . S
C387 H367 0.945 . S
C387 C382 1.385 . S
C387 C386 1.369 . S
C388 C380 1.457 . S
C388 C389 1.372 1_556 S
C388 C393 1.364 . S
C389 H368 0.952 . S
C389 C388 1.372 1_554 S
C389 C390 1.389 . S
C390 H369 0.949 . S
C390 C389 1.389 . S
C390 C391 1.391 . S
C391 C390 1.391 . S
C391 C392 1.366 1_554 S
C392 H370 0.950 . S
C392 C391 1.366 1_556 S
C392 C393 1.379 . S
C393 H371 0.948 . S
C393 C388 1.364 . S
C393 C392 1.379 . S
C394 C363 1.383 . S
C394 C381 1.479 . S
C394 C395 1.398 1_556 S
C395 C360 1.382 . S
C395 H372 0.951 . S
C395 C394 1.398 1_554 S
C396 C397 1.384 . S
C396 H409 0.947 . S
C396 C431 1.382 . S
C397 C396 1.384 . S
C397 C398 1.374 1_554 S
C398 C397 1.374 1_556 S
C398 C399 1.381 . S
C398 H410 0.955 . S
C399 C398 1.381 . S
C399 H411 0.950 . S
C399 C430 1.381 1_556 S
H400 C419 0.947 . S
H401 C420 0.946 . S
H402 C422 0.955 . S
H403 C423 0.945 . S
H404 C425 0.952 . S
H405 C426 0.949 . S
H406 C428 0.950 . S
H407 C429 0.948 . S
H408 C431 0.951 . S
H409 C396 0.947 . S
H410 C398 0.955 . S
H411 C399 0.950 . S
N412 C415 1.382 . S
N412 C417 1.363 . S
N413 C415 1.369 1_554 S
N413 C416 1.368 1_554 S
N414 C416 1.361 . S
N414 C417 1.377 . S
C415 N412 1.382 . S
C415 N413 1.369 1_556 S
C415 C418 1.481 . S
C416 N413 1.368 1_556 S
C416 N414 1.361 . S
C416 C424 1.457 . S
C417 N412 1.363 . S
C417 N414 1.377 . S
C417 C430 1.478 1_556 S
C418 C415 1.481 . S
C418 C419 1.381 1_556 S
C418 C423 1.388 . S
C419 H400 0.947 . S
C419 C418 1.381 1_554 S
C419 C420 1.388 . S
C420 H401 0.946 . S
C420 C419 1.388 . S
C420 C421 1.384 . S
C421 C420 1.384 . S
C421 C422 1.373 1_554 S
C422 H402 0.955 . S
C422 C421 1.373 1_556 S
C422 C423 1.373 . S
C423 H403 0.945 . S
C423 C418 1.388 . S
C423 C422 1.373 . S
C424 C416 1.457 . S
C424 C425 1.372 1_556 S
C424 C429 1.364 . S
C425 H404 0.952 . S
C425 C424 1.372 1_554 S
C425 C426 1.389 . S
C426 H405 0.949 . S
C426 C425 1.389 . S
C426 C427 1.387 . S
C427 C426 1.387 . S
C427 C428 1.372 1_554 S
C428 H406 0.950 . S
C428 C427 1.372 1_556 S
C428 C429 1.379 . S
C429 H407 0.948 . S
C429 C424 1.364 . S
C429 C428 1.379 . S
C430 C399 1.381 1_554 S
C430 C417 1.478 1_554 S
C430 C431 1.401 . S
C431 C396 1.382 . S
C431 H408 0.951 . S
C431 C430 1.401 . S
C432 C433 1.384 . S
C432 H445 0.947 . S
C432 C467 1.382 . S
C433 C432 1.384 . S
C433 C434 1.378 . S
C434 C433 1.378 . S
C434 C435 1.378 . S
C434 H446 0.952 . S
C435 C434 1.378 . S
C435 H447 0.950 . S
C435 C466 1.383 . S
H436 C455 0.947 . S
H437 C456 0.946 . S
H438 C458 0.953 . S
H439 C459 0.945 . S
H440 C461 0.952 . S
H441 C462 0.949 . S
H442 C464 0.950 . S
H443 C465 0.948 . S
H444 C467 0.951 . S
H445 C432 0.947 . S
H446 C434 0.952 . S
H447 C435 0.950 . S
N448 C451 1.382 . S
N448 C453 1.363 . S
N449 C451 1.371 . S
N449 C452 1.372 . S
N450 C452 1.361 . S
N450 C453 1.377 . S
C451 N448 1.382 . S
C451 N449 1.371 . S
C451 C454 1.480 . S
C452 N449 1.372 . S
C452 N450 1.361 . S
C452 C460 1.457 . S
C453 N448 1.363 . S
C453 N450 1.377 . S
C453 C466 1.479 . S
C454 C451 1.480 . S
C454 C455 1.383 . S
C454 C459 1.385 . S
C455 H436 0.947 . S
C455 C454 1.383 . S
C455 C456 1.388 . S
C456 H437 0.946 . S
C456 C455 1.388 . S
C456 C457 1.384 . S
C457 C456 1.384 . S
C457 C458 1.377 . S
C458 H438 0.953 . S
C458 C457 1.377 . S
C458 C459 1.369 . S
C459 H439 0.945 . S
C459 C454 1.385 . S
C459 C458 1.369 . S
C460 C452 1.457 . S
C460 C461 1.372 . S
C460 C465 1.364 . S
C461 H440 0.952 . S
C461 C460 1.372 . S
C461 C462 1.389 . S
C462 H441 0.949 . S
C462 C461 1.389 . S
C462 C463 1.387 . S
C463 C462 1.387 . S
C463 C464 1.372 . S
C464 H442 0.950 . S
C464 C463 1.372 . S
C464 C465 1.379 . S
C465 H443 0.948 . S
C465 C460 1.364 . S
C465 C464 1.379 . S
C466 C435 1.383 . S
C466 C453 1.479 . S
C466 C467 1.398 . S
C467 C432 1.382 . S
C467 H444 0.951 . S
C467 C466 1.398 . S
C468 C469 1.384 . S
C468 H481 0.947 . S
C468 C503 1.382 . S
C469 C468 1.384 . S
C469 C470 1.378 . S
C470 C469 1.378 . S
C470 C471 1.378 . S
C470 H482 0.952 . S
C471 C470 1.378 . S
C471 H483 0.950 . S
C471 C502 1.383 . S
H472 C491 0.947 . S
H473 C492 0.946 . S
H474 C494 0.953 . S
H475 C495 0.945 . S
H476 C497 0.952 . S
H477 C498 0.949 . S
H478 C500 0.950 . S
H479 C501 0.948 . S
H480 C503 0.951 . S
H481 C468 0.947 . S
H482 C470 0.952 . S
H483 C471 0.950 . S
N484 C487 1.382 . S
N484 C489 1.363 . S
N485 C487 1.371 . S
N485 C488 1.372 . S
N486 C488 1.361 . S
N486 C489 1.377 . S
C487 N484 1.382 . S
C487 N485 1.371 . S
C487 C490 1.480 . S
C488 N485 1.372 . S
C488 N486 1.361 . S
C488 C496 1.457 . S
C489 N484 1.363 . S
C489 N486 1.377 . S
C489 C502 1.479 . S
C490 C487 1.480 . S
C490 C491 1.383 . S
C490 C495 1.385 . S
C491 H472 0.947 . S
C491 C490 1.383 . S
C491 C492 1.388 . S
C492 H473 0.946 . S
C492 C491 1.388 . S
C492 C493 1.384 . S
C493 C492 1.384 . S
C493 C494 1.377 . S
C494 H474 0.953 . S
C494 C493 1.377 . S
C494 C495 1.369 . S
C495 H475 0.945 . S
C495 C490 1.385 . S
C495 C494 1.369 . S
C496 C488 1.457 . S
C496 C497 1.372 . S
C496 C501 1.364 . S
C497 H476 0.952 . S
C497 C496 1.372 . S
C497 C498 1.389 . S
C498 H477 0.949 . S
C498 C497 1.389 . S
C498 C499 1.387 . S
C499 C498 1.387 . S
C499 C500 1.372 . S
C500 H478 0.950 . S
C500 C499 1.372 . S
C500 C501 1.379 . S
C501 H479 0.948 . S
C501 C496 1.364 . S
C501 C500 1.379 . S
C502 C471 1.383 . S
C502 C489 1.479 . S
C502 C503 1.398 . S
C503 C468 1.382 . S
C503 H480 0.951 . S
C503 C502 1.398 . S
C504 C505 1.384 . S
C504 H517 0.947 . S
C504 C539 1.382 . S
C505 C504 1.384 . S
C505 C506 1.378 . S
C506 C505 1.378 . S
C506 C507 1.378 . S
C506 H518 0.952 . S
C507 C506 1.378 . S
C507 H519 0.950 . S
C507 C538 1.383 . S
H508 C527 0.947 . S
H509 C528 0.946 . S
H510 C530 0.953 . S
H511 C531 0.945 . S
H512 C533 0.952 . S
H513 C534 0.949 . S
H514 C536 0.950 . S
H515 C537 0.948 . S
H516 C539 0.951 . S
H517 C504 0.947 . S
H518 C506 0.952 . S
H519 C507 0.950 . S
N520 C523 1.382 . S
N520 C525 1.363 . S
N521 C523 1.371 . S
N521 C524 1.372 . S
N522 C524 1.361 . S
N522 C525 1.377 . S
C523 N520 1.382 . S
C523 N521 1.371 . S
C523 C526 1.480 . S
C524 N521 1.372 . S
C524 N522 1.361 . S
C524 C532 1.457 . S
C525 N520 1.363 . S
C525 N522 1.377 . S
C525 C538 1.479 . S
C526 C523 1.480 . S
C526 C527 1.383 . S
C526 C531 1.385 . S
C527 H508 0.947 . S
C527 C526 1.383 . S
C527 C528 1.388 . S
C528 H509 0.946 . S
C528 C527 1.388 . S
C528 C529 1.384 . S
C529 C528 1.384 . S
C529 C530 1.377 . S
C530 H510 0.953 . S
C530 C529 1.377 . S
C530 C531 1.369 . S
C531 H511 0.945 . S
C531 C526 1.385 . S
C531 C530 1.369 . S
C532 C524 1.457 . S
C532 C533 1.372 . S
C532 C537 1.364 . S
C533 H512 0.952 . S
C533 C532 1.372 . S
C533 C534 1.389 . S
C534 H513 0.949 . S
C534 C533 1.389 . S
C534 C535 1.387 . S
C535 C534 1.387 . S
C535 C536 1.372 . S
C536 H514 0.950 . S
C536 C535 1.372 . S
C536 C537 1.379 . S
C537 H515 0.948 . S
C537 C532 1.364 . S
C537 C536 1.379 . S
C538 C507 1.383 . S
C538 C525 1.479 . S
C538 C539 1.398 . S
C539 C504 1.382 . S
C539 H516 0.951 . S
C539 C538 1.398 . S
C540 C541 1.384 . S
C540 H553 0.947 . S
C540 C575 1.382 . S
C541 C540 1.384 . S
C541 C542 1.378 . S
C542 C541 1.378 . S
C542 C543 1.378 . S
C542 H554 0.952 . S
C543 C542 1.378 . S
C543 H555 0.950 . S
C543 C574 1.383 . S
H544 C563 0.947 . S
H545 C564 0.946 . S
H546 C566 0.953 . S
H547 C567 0.945 . S
H548 C569 0.952 . S
H549 C570 0.949 . S
H550 C572 0.950 . S
H551 C573 0.948 . S
H552 C575 0.951 . S
H553 C540 0.947 . S
H554 C542 0.952 . S
H555 C543 0.950 . S
N556 C559 1.382 . S
N556 C561 1.363 . S
N557 C559 1.371 . S
N557 C560 1.372 . S
N558 C560 1.361 . S
N558 C561 1.377 . S
C559 N556 1.382 . S
C559 N557 1.371 . S
C559 C562 1.480 . S
C560 N557 1.372 . S
C560 N558 1.361 . S
C560 C568 1.457 . S
C561 N556 1.363 . S
C561 N558 1.377 . S
C561 C574 1.479 . S
C562 C559 1.480 . S
C562 C563 1.383 . S
C562 C567 1.385 . S
C563 H544 0.947 . S
C563 C562 1.383 . S
C563 C564 1.388 . S
C564 H545 0.946 . S
C564 C563 1.388 . S
C564 C565 1.384 . S
C565 C564 1.384 . S
C565 C566 1.377 . S
C566 H546 0.953 . S
C566 C565 1.377 . S
C566 C567 1.369 . S
C567 H547 0.945 . S
C567 C562 1.385 . S
C567 C566 1.369 . S
C568 C560 1.457 . S
C568 C569 1.372 . S
C568 C573 1.364 . S
C569 H548 0.952 . S
C569 C568 1.372 . S
C569 C570 1.389 . S
C570 H549 0.949 . S
C570 C569 1.389 . S
C570 C571 1.387 . S
C571 C570 1.387 . S
C571 C572 1.372 . S
C572 H550 0.950 . S
C572 C571 1.372 . S
C572 C573 1.379 . S
C573 H551 0.948 . S
C573 C568 1.364 . S
C573 C572 1.379 . S
C574 C543 1.383 . S
C574 C561 1.479 . S
C574 C575 1.398 . S
C575 C540 1.382 . S
C575 H552 0.951 . S
C575 C574 1.398 . S
C576 C577 1.384 . S
C576 H589 0.947 . S
C576 C611 1.382 . S
C577 C576 1.384 . S
C577 C578 1.378 . S
C578 C577 1.378 . S
C578 C579 1.378 . S
C578 H590 0.952 . S
C579 C578 1.378 . S
C579 H591 0.950 . S
C579 C610 1.383 . S
H580 C599 0.947 . S
H581 C600 0.946 . S
H582 C602 0.953 . S
H583 C603 0.945 . S
H584 C605 0.952 . S
H585 C606 0.949 . S
H586 C608 0.950 . S
H587 C609 0.948 . S
H588 C611 0.951 . S
H589 C576 0.947 . S
H590 C578 0.952 . S
H591 C579 0.950 . S
N592 C595 1.382 . S
N592 C597 1.363 . S
N593 C595 1.371 . S
N593 C596 1.372 . S
N594 C596 1.361 . S
N594 C597 1.377 . S
C595 N592 1.382 . S
C595 N593 1.371 . S
C595 C598 1.480 . S
C596 N593 1.372 . S
C596 N594 1.361 . S
C596 C604 1.457 . S
C597 N592 1.363 . S
C597 N594 1.377 . S
C597 C610 1.479 . S
C598 C595 1.480 . S
C598 C599 1.383 . S
C598 C603 1.385 . S
C599 H580 0.947 . S
C599 C598 1.383 . S
C599 C600 1.388 . S
C600 H581 0.946 . S
C600 C599 1.388 . S
C600 C601 1.384 . S
C601 C600 1.384 . S
C601 C602 1.377 . S
C602 H582 0.953 . S
C602 C601 1.377 . S
C602 C603 1.369 . S
C603 H583 0.945 . S
C603 C598 1.385 . S
C603 C602 1.369 . S
C604 C596 1.457 . S
C604 C605 1.372 . S
C604 C609 1.364 . S
C605 H584 0.952 . S
C605 C604 1.372 . S
C605 C606 1.389 . S
C606 H585 0.949 . S
C606 C605 1.389 . S
C606 C607 1.387 . S
C607 C606 1.387 . S
C607 C608 1.372 . S
C608 H586 0.950 . S
C608 C607 1.372 . S
C608 C609 1.379 . S
C609 H587 0.948 . S
C609 C604 1.364 . S
C609 C608 1.379 . S
C610 C579 1.383 . S
C610 C597 1.479 . S
C610 C611 1.398 . S
C611 C576 1.382 . S
C611 H588 0.951 . S
C611 C610 1.398 . S
C612 C613 1.384 . S
C612 H625 0.947 . S
C612 C647 1.382 . S
C613 C612 1.384 . S
C613 C614 1.378 . S
C614 C613 1.378 . S
C614 C615 1.378 . S
C614 H626 0.952 . S
C615 C614 1.378 . S
C615 H627 0.950 . S
C615 C646 1.383 . S
H616 C635 0.947 . S
H617 C636 0.946 . S
H618 C638 0.953 . S
H619 C639 0.945 . S
H620 C641 0.952 . S
H621 C642 0.949 . S
H622 C644 0.950 . S
H623 C645 0.948 . S
H624 C647 0.951 . S
H625 C612 0.947 . S
H626 C614 0.952 . S
H627 C615 0.950 . S
N628 C631 1.382 . S
N628 C633 1.363 . S
N629 C631 1.371 . S
N629 C632 1.372 . S
N630 C632 1.361 . S
N630 C633 1.377 . S
C631 N628 1.382 . S
C631 N629 1.371 . S
C631 C634 1.480 . S
C632 N629 1.372 . S
C632 N630 1.361 . S
C632 C640 1.457 . S
C633 N628 1.363 . S
C633 N630 1.377 . S
C633 C646 1.479 . S
C634 C631 1.480 . S
C634 C635 1.383 . S
C634 C639 1.385 . S
C635 H616 0.947 . S
C635 C634 1.383 . S
C635 C636 1.388 . S
C636 H617 0.946 . S
C636 C635 1.388 . S
C636 C637 1.384 . S
C637 C636 1.384 . S
C637 C638 1.377 . S
C638 H618 0.953 . S
C638 C637 1.377 . S
C638 C639 1.369 . S
C639 H619 0.945 . S
C639 C634 1.385 . S
C639 C638 1.369 . S
C640 C632 1.457 . S
C640 C641 1.372 . S
C640 C645 1.364 . S
C641 H620 0.952 . S
C641 C640 1.372 . S
C641 C642 1.389 . S
C642 H621 0.949 . S
C642 C641 1.389 . S
C642 C643 1.387 . S
C643 C642 1.387 . S
C643 C644 1.372 . S
C644 H622 0.950 . S
C644 C643 1.372 . S
C644 C645 1.379 . S
C645 H623 0.948 . S
C645 C640 1.364 . S
C645 C644 1.379 . S
C646 C615 1.383 . S
C646 C633 1.479 . S
C646 C647 1.398 . S
C647 C612 1.382 . S
C647 H624 0.951 . S
C647 C646 1.398 . S
C648 C649 1.384 . S
C648 H661 0.947 . S
C648 C683 1.382 . S
C649 C648 1.384 . S
C649 C650 1.378 . S
C650 C649 1.378 . S
C650 C651 1.378 . S
C650 H662 0.952 . S
C651 C650 1.378 . S
C651 H663 0.950 . S
C651 C682 1.383 . S
H652 C671 0.947 . S
H653 C672 0.946 . S
H654 C674 0.953 . S
H655 C675 0.945 . S
H656 C677 0.952 . S
H657 C678 0.949 . S
H658 C680 0.950 . S
H659 C681 0.948 . S
H660 C683 0.951 . S
H661 C648 0.947 . S
H662 C650 0.952 . S
H663 C651 0.950 . S
N664 C667 1.382 . S
N664 C669 1.363 . S
N665 C667 1.371 . S
N665 C668 1.372 . S
N666 C668 1.361 . S
N666 C669 1.377 . S
C667 N664 1.382 . S
C667 N665 1.371 . S
C667 C670 1.480 . S
C668 N665 1.372 . S
C668 N666 1.361 . S
C668 C676 1.457 . S
C669 N664 1.363 . S
C669 N666 1.377 . S
C669 C682 1.479 . S
C670 C667 1.480 . S
C670 C671 1.383 . S
C670 C675 1.385 . S
C671 H652 0.947 . S
C671 C670 1.383 . S
C671 C672 1.388 . S
C672 H653 0.946 . S
C672 C671 1.388 . S
C672 C673 1.384 . S
C673 C672 1.384 . S
C673 C674 1.377 . S
C674 H654 0.953 . S
C674 C673 1.377 . S
C674 C675 1.369 . S
C675 H655 0.945 . S
C675 C670 1.385 . S
C675 C674 1.369 . S
C676 C668 1.457 . S
C676 C677 1.372 . S
C676 C681 1.364 . S
C677 H656 0.952 . S
C677 C676 1.372 . S
C677 C678 1.389 . S
C678 H657 0.949 . S
C678 C677 1.389 . S
C678 C679 1.387 . S
C679 C678 1.387 . S
C679 C680 1.372 . S
C680 H658 0.950 . S
C680 C679 1.372 . S
C680 C681 1.379 . S
C681 H659 0.948 . S
C681 C676 1.364 . S
C681 C680 1.379 . S
C682 C651 1.383 . S
C682 C669 1.479 . S
C682 C683 1.398 . S
C683 C648 1.382 . S
C683 H660 0.951 . S
C683 C682 1.398 . S
C684 C685 1.384 . S
C684 H697 0.947 . S
C684 C719 1.382 . S
C685 C684 1.384 . S
C685 C686 1.378 . S
C686 C685 1.378 . S
C686 C687 1.378 . S
C686 H698 0.952 . S
C687 C686 1.378 . S
C687 H699 0.950 . S
C687 C718 1.383 . S
H688 C707 0.947 . S
H689 C708 0.946 . S
H690 C710 0.953 . S
H691 C711 0.945 . S
H692 C713 0.952 . S
H693 C714 0.949 . S
H694 C716 0.950 . S
H695 C717 0.948 . S
H696 C719 0.951 . S
H697 C684 0.947 . S
H698 C686 0.952 . S
H699 C687 0.950 . S
N700 C703 1.382 . S
N700 C705 1.363 . S
N701 C703 1.371 . S
N701 C704 1.372 . S
N702 C704 1.361 . S
N702 C705 1.377 . S
C703 N700 1.382 . S
C703 N701 1.371 . S
C703 C706 1.480 . S
C704 N701 1.372 . S
C704 N702 1.361 . S
C704 C712 1.457 . S
C705 N700 1.363 . S
C705 N702 1.377 . S
C705 C718 1.479 . S
C706 C703 1.480 . S
C706 C707 1.383 . S
C706 C711 1.385 . S
C707 H688 0.947 . S
C707 C706 1.383 . S
C707 C708 1.388 . S
C708 H689 0.946 . S
C708 C707 1.388 . S
C708 C709 1.384 . S
C709 C708 1.384 . S
C709 C710 1.377 . S
C710 H690 0.953 . S
C710 C709 1.377 . S
C710 C711 1.369 . S
C711 H691 0.945 . S
C711 C706 1.385 . S
C711 C710 1.369 . S
C712 C704 1.457 . S
C712 C713 1.372 . S
C712 C717 1.364 . S
C713 H692 0.952 . S
C713 C712 1.372 . S
C713 C714 1.389 . S
C714 H693 0.949 . S
C714 C713 1.389 . S
C714 C715 1.387 . S
C715 C714 1.387 . S
C715 C716 1.372 . S
C716 H694 0.950 . S
C716 C715 1.372 . S
C716 C717 1.379 . S
C717 H695 0.948 . S
C717 C712 1.364 . S
C717 C716 1.379 . S
C718 C687 1.383 . S
C718 C705 1.479 . S
C718 C719 1.398 . S
C719 C684 1.382 . S
C719 H696 0.951 . S
C719 C718 1.398 . S
C720 C721 1.384 . S
C720 H733 0.947 . S
C720 C755 1.382 . S
C721 C720 1.384 . S
C721 C722 1.378 . S
C722 C721 1.378 . S
C722 C723 1.378 . S
C722 H734 0.952 . S
C723 C722 1.378 . S
C723 H735 0.950 . S
C723 C754 1.383 . S
H724 C743 0.947 . S
H725 C744 0.946 . S
H726 C746 0.953 . S
H727 C747 0.945 . S
H728 C749 0.952 . S
H729 C750 0.949 . S
H730 C752 0.950 . S
H731 C753 0.948 . S
H732 C755 0.951 . S
H733 C720 0.947 . S
H734 C722 0.952 . S
H735 C723 0.950 . S
N736 C739 1.382 . S
N736 C741 1.363 . S
N737 C739 1.371 . S
N737 C740 1.372 . S
N738 C740 1.361 . S
N738 C741 1.377 . S
C739 N736 1.382 . S
C739 N737 1.371 . S
C739 C742 1.480 . S
C740 N737 1.372 . S
C740 N738 1.361 . S
C740 C748 1.457 . S
C741 N736 1.363 . S
C741 N738 1.377 . S
C741 C754 1.479 . S
C742 C739 1.480 . S
C742 C743 1.383 . S
C742 C747 1.385 . S
C743 H724 0.947 . S
C743 C742 1.383 . S
C743 C744 1.388 . S
C744 H725 0.946 . S
C744 C743 1.388 . S
C744 C745 1.384 . S
C745 C744 1.384 . S
C745 C746 1.377 . S
C746 H726 0.953 . S
C746 C745 1.377 . S
C746 C747 1.369 . S
C747 H727 0.945 . S
C747 C742 1.385 . S
C747 C746 1.369 . S
C748 C740 1.457 . S
C748 C749 1.372 . S
C748 C753 1.364 . S
C749 H728 0.952 . S
C749 C748 1.372 . S
C749 C750 1.389 . S
C750 H729 0.949 . S
C750 C749 1.389 . S
C750 C751 1.387 . S
C751 C750 1.387 . S
C751 C752 1.372 . S
C752 H730 0.950 . S
C752 C751 1.372 . S
C752 C753 1.379 . S
C753 H731 0.948 . S
C753 C748 1.364 . S
C753 C752 1.379 . S
C754 C723 1.383 . S
C754 C741 1.479 . S
C754 C755 1.398 . S
C755 C720 1.382 . S
C755 H732 0.951 . S
C755 C754 1.398 . S
C756 C757 1.384 . S
C756 H769 0.947 . S
C756 C791 1.382 . S
C757 C756 1.384 . S
C757 C758 1.378 . S
C758 C757 1.378 . S
C758 C759 1.378 . S
C758 H770 0.952 . S
C759 C758 1.378 . S
C759 H771 0.950 . S
C759 C790 1.383 . S
H760 C779 0.947 . S
H761 C780 0.946 . S
H762 C782 0.953 . S
H763 C783 0.945 . S
H764 C785 0.952 . S
H765 C786 0.949 . S
H766 C788 0.950 . S
H767 C789 0.948 . S
H768 C791 0.951 . S
H769 C756 0.947 . S
H770 C758 0.952 . S
H771 C759 0.950 . S
N772 C775 1.382 . S
N772 C777 1.363 . S
N773 C775 1.371 . S
N773 C776 1.372 . S
N774 C776 1.361 . S
N774 C777 1.377 . S
C775 N772 1.382 . S
C775 N773 1.371 . S
C775 C778 1.480 . S
C776 N773 1.372 . S
C776 N774 1.361 . S
C776 C784 1.457 . S
C777 N772 1.363 . S
C777 N774 1.377 . S
C777 C790 1.479 . S
C778 C775 1.480 . S
C778 C779 1.383 . S
C778 C783 1.385 . S
C779 H760 0.947 . S
C779 C778 1.383 . S
C779 C780 1.388 . S
C780 H761 0.946 . S
C780 C779 1.388 . S
C780 C781 1.384 . S
C781 C780 1.384 . S
C781 C782 1.377 . S
C782 H762 0.953 . S
C782 C781 1.377 . S
C782 C783 1.369 . S
C783 H763 0.945 . S
C783 C778 1.385 . S
C783 C782 1.369 . S
C784 C776 1.457 . S
C784 C785 1.372 . S
C784 C789 1.364 . S
C785 H764 0.952 . S
C785 C784 1.372 . S
C785 C786 1.389 . S
C786 H765 0.949 . S
C786 C785 1.389 . S
C786 C787 1.387 . S
C787 C786 1.387 . S
C787 C788 1.372 . S
C788 H766 0.950 . S
C788 C787 1.372 . S
C788 C789 1.379 . S
C789 H767 0.948 . S
C789 C784 1.364 . S
C789 C788 1.379 . S
C790 C759 1.383 . S
C790 C777 1.479 . S
C790 C791 1.398 . S
C791 C756 1.382 . S
C791 H768 0.951 . S
C791 C790 1.398 . S
C792 C793 1.384 . S
C792 H805 0.947 . S
C792 C827 1.382 . S
C793 C792 1.384 . S
C793 C794 1.378 . S
C794 C793 1.378 . S
C794 C795 1.378 . S
C794 H806 0.952 . S
C795 C794 1.378 . S
C795 H807 0.950 . S
C795 C826 1.383 . S
H796 C815 0.947 . S
H797 C816 0.946 . S
H798 C818 0.953 . S
H799 C819 0.945 . S
H800 C821 0.952 . S
H801 C822 0.949 . S
H802 C824 0.950 . S
H803 C825 0.948 . S
H804 C827 0.951 . S
H805 C792 0.947 . S
H806 C794 0.952 . S
H807 C795 0.950 . S
N808 C811 1.382 . S
N808 C813 1.363 . S
N809 C811 1.371 . S
N809 C812 1.372 . S
N810 C812 1.361 . S
N810 C813 1.377 . S
C811 N808 1.382 . S
C811 N809 1.371 . S
C811 C814 1.480 . S
C812 N809 1.372 . S
C812 N810 1.361 . S
C812 C820 1.457 . S
C813 N808 1.363 . S
C813 N810 1.377 . S
C813 C826 1.479 . S
C814 C811 1.480 . S
C814 C815 1.383 . S
C814 C819 1.385 . S
C815 H796 0.947 . S
C815 C814 1.383 . S
C815 C816 1.388 . S
C816 H797 0.946 . S
C816 C815 1.388 . S
C816 C817 1.384 . S
C817 C816 1.384 . S
C817 C818 1.377 . S
C818 H798 0.953 . S
C818 C817 1.377 . S
C818 C819 1.369 . S
C819 H799 0.945 . S
C819 C814 1.385 . S
C819 C818 1.369 . S
C820 C812 1.457 . S
C820 C821 1.372 . S
C820 C825 1.364 . S
C821 H800 0.952 . S
C821 C820 1.372 . S
C821 C822 1.389 . S
C822 H801 0.949 . S
C822 C821 1.389 . S
C822 C823 1.387 . S
C823 C822 1.387 . S
C823 C824 1.372 . S
C824 H802 0.950 . S
C824 C823 1.372 . S
C824 C825 1.379 . S
C825 H803 0.948 . S
C825 C820 1.364 . S
C825 C824 1.379 . S
C826 C795 1.383 . S
C826 C813 1.479 . S
C826 C827 1.398 . S
C827 C792 1.382 . S
C827 H804 0.951 . S
C827 C826 1.398 . S
C828 C829 1.384 . S
C828 H841 0.947 . S
C828 C863 1.382 . S
C829 C828 1.384 . S
C829 C830 1.378 . S
C830 C829 1.378 . S
C830 C831 1.378 . S
C830 H842 0.952 . S
C831 C830 1.378 . S
C831 H843 0.950 . S
C831 C862 1.383 . S
H832 C851 0.947 . S
H833 C852 0.946 . S
H834 C854 0.953 . S
H835 C855 0.945 . S
H836 C857 0.952 . S
H837 C858 0.949 . S
H838 C860 0.950 . S
H839 C861 0.948 . S
H840 C863 0.951 . S
H841 C828 0.947 . S
H842 C830 0.952 . S
H843 C831 0.950 . S
N844 C847 1.382 . S
N844 C849 1.363 . S
N845 C847 1.371 . S
N845 C848 1.372 . S
N846 C848 1.361 . S
N846 C849 1.377 . S
C847 N844 1.382 . S
C847 N845 1.371 . S
C847 C850 1.480 . S
C848 N845 1.372 . S
C848 N846 1.361 . S
C848 C856 1.457 . S
C849 N844 1.363 . S
C849 N846 1.377 . S
C849 C862 1.479 . S
C850 C847 1.480 . S
C850 C851 1.383 . S
C850 C855 1.385 . S
C851 H832 0.947 . S
C851 C850 1.383 . S
C851 C852 1.388 . S
C852 H833 0.946 . S
C852 C851 1.388 . S
C852 C853 1.384 . S
C853 C852 1.384 . S
C853 C854 1.377 . S
C854 H834 0.953 . S
C854 C853 1.377 . S
C854 C855 1.369 . S
C855 H835 0.945 . S
C855 C850 1.385 . S
C855 C854 1.369 . S
C856 C848 1.457 . S
C856 C857 1.372 . S
C856 C861 1.364 . S
C857 H836 0.952 . S
C857 C856 1.372 . S
C857 C858 1.389 . S
C858 H837 0.949 . S
C858 C857 1.389 . S
C858 C859 1.387 . S
C859 C858 1.387 . S
C859 C860 1.372 . S
C860 H838 0.950 . S
C860 C859 1.372 . S
C860 C861 1.379 . S
C861 H839 0.948 . S
C861 C856 1.364 . S
C861 C860 1.379 . S
C862 C831 1.383 . S
C862 C849 1.479 . S
C862 C863 1.398 . S
C863 C828 1.382 . S
C863 H840 0.951 . S
C863 C862 1.398 . S
Zn864 O866 1.933 1_565 S
Zn864 O884 1.992 . S
Zn864 O895 1.955 . S
Zn865 O866 1.911 . S
Zn865 O885 1.970 . S
Zn865 O901 1.945 . S
Zn865 O908 1.981 . S
O866 Zn864 1.933 1_545 S
O866 Zn865 1.911 . S
O866 H867 0.841 1_655 S
H867 O866 0.841 1_455 S
C868 O869 1.246 . S
C868 O897 1.276 . S
O869 C868 1.246 . S
Zn870 O872 1.911 . S
Zn870 O887 1.970 . S
Zn870 O904 1.945 . S
Zn870 O911 1.981 . S
Zn871 O872 1.933 1_565 S
Zn871 O886 1.985 . S
Zn871 O893 1.955 . S
O872 Zn870 1.911 . S
O872 Zn871 1.933 1_545 S
O872 H873 0.841 . S
H873 O872 0.841 . S
Zn874 O875 1.933 1_565 S
Zn874 O888 1.990 . S
Zn874 O897 1.955 . S
O875 Zn874 1.933 1_545 S
O875 Zn876 1.911 . S
O875 H877 0.841 . S
Zn876 O875 1.911 . S
Zn876 O889 1.970 . S
Zn876 O905 1.981 1_655 S
Zn876 O907 1.945 . S
H877 O875 0.841 . S
Zn878 O879 1.933 1_565 S
Zn878 O891 1.985 . S
Zn878 O899 1.955 . S
O879 Zn878 1.933 1_545 S
O879 H880 0.841 . S
O879 Zn881 1.911 . S
H880 O879 0.841 . S
Zn881 O879 1.911 . S
Zn881 O892 1.970 . S
Zn881 O902 1.981 . S
Zn881 O910 1.945 . S
C882 O883 1.246 . S
C882 O899 1.276 . S
O883 C882 1.246 . S
O884 Zn864 1.992 . S
O884 C894 1.218 1_565 S
O885 Zn865 1.970 . S
O885 C894 1.263 . S
O886 Zn871 1.985 . S
O886 C898 1.245 1_565 S
O887 Zn870 1.970 . S
O887 C898 1.263 . S
O888 Zn874 1.990 . S
O888 C903 1.226 1_565 S
O889 Zn876 1.970 . S
O889 C903 1.263 . S
C890 O901 1.262 1_455 S
C890 O902 1.245 . S
O891 Zn878 1.985 . S
O891 C909 1.245 1_565 S
O892 Zn881 1.970 . S
O892 C909 1.263 . S
O893 Zn871 1.955 . S
O893 C912 1.276 . S
C894 O884 1.218 1_545 S
C894 O885 1.263 . S
O895 Zn864 1.955 . S
O895 C914 1.276 1_655 S
C896 O904 1.262 . S
C896 O905 1.245 . S
O897 C868 1.276 . S
O897 Zn874 1.955 . S
C898 O886 1.245 1_545 S
C898 O887 1.263 . S
O899 Zn878 1.955 . S
O899 C882 1.276 . S
C900 O907 1.262 . S
C900 O908 1.245 . S
O901 Zn865 1.945 . S
O901 C890 1.262 1_655 S
O902 Zn881 1.981 . S
O902 C890 1.245 . S
C903 O888 1.226 1_545 S
C903 O889 1.263 . S
O904 Zn870 1.945 . S
O904 C896 1.262 . S
O905 Zn876 1.981 1_455 S
O905 C896 1.245 . S
C906 O910 1.262 . S
C906 O911 1.245 . S
O907 Zn876 1.945 . S
O907 C900 1.262 . S
O908 Zn865 1.981 . S
O908 C900 1.245 . S
C909 O891 1.245 1_545 S
C909 O892 1.263 . S
O910 Zn881 1.945 . S
O910 C906 1.262 . S
O911 Zn870 1.981 . S
O911 C906 1.245 . S
C912 O893 1.276 . S
C912 O913 1.246 . S
O913 C912 1.246 . S
C914 O895 1.276 1_455 S
C914 O915 1.246 . S
O915 C914 1.246 . S
Zn916 O918 1.933 . S
Zn916 O936 1.985 . S
Zn916 O947 1.955 . S
Zn917 O918 1.911 1_556 S
Zn917 O937 1.970 . S
Zn917 O953 1.945 . S
Zn917 O960 1.981 . S
O918 Zn916 1.933 . S
O918 Zn917 1.911 1_554 S
O918 H919 0.841 . S
H919 O918 0.841 . S
C920 O921 1.246 . S
C920 O949 1.276 . S
O921 C920 1.246 . S
Zn922 O924 1.911 1_556 S
Zn922 O939 1.970 . S
Zn922 O956 1.945 . S
Zn922 O963 1.981 . S
Zn923 O924 1.933 . S
Zn923 O938 1.985 . S
Zn923 O945 1.955 . S
O924 Zn922 1.911 1_554 S
O924 Zn923 1.933 . S
O924 H925 0.841 1_565 S
H925 O924 0.841 1_545 S
Zn926 O927 1.933 . S
Zn926 O940 1.985 . S
Zn926 O949 1.955 . S
O927 Zn926 1.933 . S
O927 Zn928 1.911 1_554 S
O927 H929 0.841 . S
Zn928 O927 1.911 1_556 S
Zn928 O941 1.970 . S
Zn928 O957 1.981 . S
Zn928 O959 1.945 . S
H929 O927 0.841 . S
Zn930 O931 1.933 . S
Zn930 O943 1.985 . S
Zn930 O951 1.955 . S
O931 Zn930 1.933 . S
O931 H932 0.841 . S
O931 Zn933 1.911 1_554 S
H932 O931 0.841 . S
Zn933 O931 1.911 1_556 S
Zn933 O944 1.970 . S
Zn933 O954 1.981 1_565 S
Zn933 O962 1.945 . S
C934 O935 1.246 . S
C934 O951 1.276 . S
O935 C934 1.246 . S
O936 Zn916 1.985 . S
O936 C946 1.245 . S
O937 Zn917 1.970 . S
O937 C946 1.263 1_556 S
O938 Zn923 1.985 . S
O938 C950 1.245 . S
O939 Zn922 1.970 . S
O939 C950 1.263 1_556 S
O940 Zn926 1.985 . S
O940 C955 1.245 . S
O941 Zn928 1.970 . S
O941 C955 1.263 1_556 S
C942 O953 1.262 . S
C942 O954 1.245 . S
O943 Zn930 1.985 . S
O943 C961 1.245 . S
O944 Zn933 1.970 . S
O944 C961 1.263 1_556 S
O945 Zn923 1.955 . S
O945 C964 1.276 1_565 S
C946 O936 1.245 . S
C946 O937 1.263 1_554 S
O947 Zn916 1.955 . S
O947 C966 1.276 . S
C948 O956 1.262 1_545 S
C948 O957 1.245 . S
O949 C920 1.276 . S
O949 Zn926 1.955 . S
C950 O938 1.245 . S
C950 O939 1.263 1_554 S
O951 Zn930 1.955 . S
O951 C934 1.276 . S
C952 O959 1.262 . S
C952 O960 1.245 . S
O953 Zn917 1.945 . S
O953 C942 1.262 . S
O954 Zn933 1.981 1_545 S
O954 C942 1.245 . S
C955 O940 1.245 . S
C955 O941 1.263 1_554 S
O956 Zn922 1.945 . S
O956 C948 1.262 1_565 S
O957 Zn928 1.981 . S
O957 C948 1.245 . S
C958 O962 1.262 . S
C958 O963 1.245 . S
O959 Zn928 1.945 . S
O959 C952 1.262 . S
O960 Zn917 1.981 . S
O960 C952 1.245 . S
C961 O943 1.245 . S
C961 O944 1.263 1_554 S
O962 Zn933 1.945 . S
O962 C958 1.262 . S
O963 Zn922 1.981 . S
O963 C958 1.245 . S
C964 O945 1.276 1_545 S
C964 O965 1.246 . S
O965 C964 1.246 . S
C966 O947 1.276 . S
C966 O967 1.246 . S
O967 C966 1.246 . S
Zn968 O970 1.933 . S
Zn968 O988 1.985 . S
Zn968 O999 1.955 . S
Zn969 O970 1.911 . S
Zn969 O989 1.970 . S
Zn969 O1005 1.945 . S
Zn969 O1012 1.981 . S
O970 Zn968 1.933 . S
O970 Zn969 1.911 . S
O970 H971 0.841 1_655 S
H971 O970 0.841 1_455 S
C972 O973 1.246 1_554 S
C972 O1001 1.276 . S
O973 C972 1.246 1_556 S
Zn974 O976 1.911 . S
Zn974 O991 1.970 . S
Zn974 O1008 1.945 . S
Zn974 O1015 1.981 . S
Zn975 O976 1.933 . S
Zn975 O990 1.985 . S
Zn975 O997 1.955 . S
O976 Zn974 1.911 . S
O976 Zn975 1.933 . S
O976 H977 0.841 . S
H977 O976 0.841 . S
Zn978 O979 1.933 . S
Zn978 O992 1.985 . S
Zn978 O1001 1.955 . S
O979 Zn978 1.933 . S
O979 Zn980 1.911 . S
O979 H981 0.841 . S
Zn980 O979 1.911 . S
Zn980 O993 1.970 . S
Zn980 O1009 1.981 1_655 S
Zn980 O1011 1.945 . S
H981 O979 0.841 . S
Zn982 O983 1.933 . S
Zn982 O995 1.985 . S
Zn982 O1003 1.955 . S
O983 Zn982 1.933 . S
O983 H984 0.841 1_556 S
O983 Zn985 1.911 . S
H984 O983 0.841 1_554 S
Zn985 O983 1.911 . S
Zn985 O996 1.970 . S
Zn985 O1006 1.981 . S
Zn985 O1014 1.945 . S
C986 O987 1.246 . S
C986 O1003 1.276 1_554 S
O987 C986 1.246 . S
O988 Zn968 1.985 . S
O988 C998 1.245 . S
O989 Zn969 1.970 . S
O989 C998 1.263 . S
O990 Zn975 1.985 . S
O990 C1002 1.245 . S
O991 Zn974 1.970 . S
O991 C1002 1.263 . S
O992 Zn978 1.985 . S
O992 C1007 1.245 . S
O993 Zn980 1.970 . S
O993 C1007 1.263 . S
C994 O1005 1.262 1_455 S
C994 O1006 1.245 . S
O995 Zn982 1.985 . S
O995 C1013 1.245 . S
O996 Zn985 1.970 . S
O996 C1013 1.263 . S
O997 Zn975 1.955 . S
O997 C1016 1.276 . S
C998 O988 1.245 . S
C998 O989 1.263 . S
O999 Zn968 1.955 . S
O999 C1018 1.276 1_655 S
C1000 O1008 1.262 . S
C1000 O1009 1.245 . S
O1001 C972 1.276 . S
O1001 Zn978 1.955 . S
C1002 O990 1.245 . S
C1002 O991 1.263 . S
O1003 Zn982 1.955 . S
O1003 C986 1.276 1_556 S
C1004 O1011 1.262 . S
C1004 O1012 1.245 1_554 S
O1005 Zn969 1.945 . S
O1005 C994 1.262 1_655 S
O1006 Zn985 1.981 . S
O1006 C994 1.245 . S
C1007 O992 1.245 . S
C1007 O993 1.263 . S
O1008 Zn974 1.945 . S
O1008 C1000 1.262 . S
O1009 Zn980 1.981 1_455 S
O1009 C1000 1.245 . S
C1010 O1014 1.262 1_554 S
C1010 O1015 1.245 . S
O1011 Zn980 1.945 . S
O1011 C1004 1.262 . S
O1012 Zn969 1.981 . S
O1012 C1004 1.245 1_556 S
C1013 O995 1.245 . S
C1013 O996 1.263 . S
O1014 Zn985 1.945 . S
O1014 C1010 1.262 1_556 S
O1015 Zn974 1.981 . S
O1015 C1010 1.245 . S
C1016 O997 1.276 . S
C1016 O1017 1.246 . S
O1017 C1016 1.246 . S
C1018 O999 1.276 1_455 S
C1018 O1019 1.246 . S
O1019 C1018 1.246 . S
Zn1020 O1022 1.933 1_556 S
Zn1020 O1040 1.985 . S
Zn1020 O1051 1.955 . S
Zn1021 O1022 1.911 . S
Zn1021 O1041 1.970 . S
Zn1021 O1057 1.945 . S
Zn1021 O1064 1.981 . S
O1022 Zn1020 1.933 1_554 S
O1022 Zn1021 1.911 . S
O1022 H1023 0.841 . S
H1023 O1022 0.841 . S
C1024 O1025 1.246 . S
C1024 O1053 1.276 . S
O1025 C1024 1.246 . S
Zn1026 O1028 1.911 . S
Zn1026 O1043 1.970 . S
Zn1026 O1060 1.945 . S
Zn1026 O1067 1.981 . S
Zn1027 O1028 1.933 1_556 S
Zn1027 O1042 1.985 . S
Zn1027 O1049 1.955 . S
O1028 Zn1026 1.911 . S
O1028 Zn1027 1.933 1_554 S
O1028 H1029 0.841 . S
H1029 O1028 0.841 . S
Zn1030 O1031 1.933 1_556 S
Zn1030 O1044 1.985 . S
Zn1030 O1053 1.955 . S
O1031 Zn1030 1.933 1_554 S
O1031 Zn1032 1.911 . S
O1031 H1033 0.841 . S
Zn1032 O1031 1.911 . S
Zn1032 O1045 1.970 . S
Zn1032 O1061 1.981 . S
Zn1032 O1063 1.945 . S
H1033 O1031 0.841 . S
Zn1034 O1035 1.933 1_556 S
Zn1034 O1047 1.985 . S
Zn1034 O1055 1.955 . S
O1035 Zn1034 1.933 1_554 S
O1035 H1036 0.841 . S
O1035 Zn1037 1.911 . S
H1036 O1035 0.841 . S
Zn1037 O1035 1.911 . S
Zn1037 O1048 1.970 . S
Zn1037 O1058 1.981 . S
Zn1037 O1066 1.945 . S
C1038 O1039 1.246 . S
C1038 O1055 1.276 . S
O1039 C1038 1.246 . S
O1040 Zn1020 1.985 . S
O1040 C1050 1.245 1_556 S
O1041 Zn1021 1.970 . S
O1041 C1050 1.263 . S
O1042 Zn1027 1.985 . S
O1042 C1054 1.245 1_556 S
O1043 Zn1026 1.970 . S
O1043 C1054 1.263 . S
O1044 Zn1030 1.985 . S
O1044 C1059 1.245 1_556 S
O1045 Zn1032 1.970 . S
O1045 C1059 1.263 . S
C1046 O1057 1.262 . S
C1046 O1058 1.245 . S
O1047 Zn1034 1.985 . S
O1047 C1065 1.245 1_556 S
O1048 Zn1037 1.970 . S
O1048 C1065 1.263 . S
O1049 Zn1027 1.955 . S
O1049 C1068 1.276 . S
C1050 O1040 1.245 1_554 S
C1050 O1041 1.263 . S
O1051 Zn1020 1.955 . S
O1051 C1070 1.276 . S
C1052 O1060 1.262 . S
C1052 O1061 1.245 . S
O1053 C1024 1.276 . S
O1053 Zn1030 1.955 . S
C1054 O1042 1.245 1_554 S
C1054 O1043 1.263 . S
O1055 Zn1034 1.955 . S
O1055 C1038 1.276 . S
C1056 O1063 1.262 . S
C1056 O1064 1.245 . S
O1057 Zn1021 1.945 . S
O1057 C1046 1.262 . S
O1058 Zn1037 1.981 . S
O1058 C1046 1.245 . S
C1059 O1044 1.245 1_554 S
C1059 O1045 1.263 . S
O1060 Zn1026 1.945 . S
O1060 C1052 1.262 . S
O1061 Zn1032 1.981 . S
O1061 C1052 1.245 . S
C1062 O1066 1.262 . S
C1062 O1067 1.245 . S
O1063 Zn1032 1.945 . S
O1063 C1056 1.262 . S
O1064 Zn1021 1.981 . S
O1064 C1056 1.245 . S
C1065 O1047 1.245 1_554 S
C1065 O1048 1.263 . S
O1066 Zn1037 1.945 . S
O1066 C1062 1.262 . S
O1067 Zn1026 1.981 . S
O1067 C1062 1.245 . S
C1068 O1049 1.276 . S
C1068 O1069 1.246 . S
O1069 C1068 1.246 . S
C1070 O1051 1.276 . S
C1070 O1071 1.246 . S
O1071 C1070 1.246 . S
Zn1072 O1074 1.933 . S
Zn1072 O1092 1.985 . S
Zn1072 O1103 1.955 . S
Zn1073 O1074 1.911 . S
Zn1073 O1093 1.970 . S
Zn1073 O1109 1.945 . S
Zn1073 O1116 1.981 . S
O1074 Zn1072 1.933 . S
O1074 Zn1073 1.911 . S
O1074 H1075 0.841 1_655 S
H1075 O1074 0.841 1_455 S
C1076 O1077 1.246 . S
C1076 O1105 1.276 . S
O1077 C1076 1.246 . S
Zn1078 O1080 1.911 . S
Zn1078 O1095 1.970 . S
Zn1078 O1112 1.945 . S
Zn1078 O1119 1.981 . S
Zn1079 O1080 1.933 . S
Zn1079 O1094 1.985 . S
Zn1079 O1101 1.955 . S
O1080 Zn1078 1.911 . S
O1080 Zn1079 1.933 . S
O1080 H1081 0.841 . S
H1081 O1080 0.841 . S
Zn1082 O1083 1.933 . S
Zn1082 O1096 1.985 . S
Zn1082 O1105 1.955 . S
O1083 Zn1082 1.933 . S
O1083 Zn1084 1.911 . S
O1083 H1085 0.841 . S
Zn1084 O1083 1.911 . S
Zn1084 O1097 1.970 . S
Zn1084 O1113 1.981 1_655 S
Zn1084 O1115 1.945 . S
H1085 O1083 0.841 . S
Zn1086 O1087 1.933 . S
Zn1086 O1099 1.985 . S
Zn1086 O1107 1.955 . S
O1087 Zn1086 1.933 . S
O1087 H1088 0.841 . S
O1087 Zn1089 1.911 . S
H1088 O1087 0.841 . S
Zn1089 O1087 1.911 . S
Zn1089 O1100 1.970 . S
Zn1089 O1110 1.981 . S
Zn1089 O1118 1.945 . S
C1090 O1091 1.246 . S
C1090 O1107 1.276 . S
O1091 C1090 1.246 . S
O1092 Zn1072 1.985 . S
O1092 C1102 1.245 . S
O1093 Zn1073 1.970 . S
O1093 C1102 1.263 . S
O1094 Zn1079 1.985 . S
O1094 C1106 1.245 . S
O1095 Zn1078 1.970 . S
O1095 C1106 1.263 . S
O1096 Zn1082 1.985 . S
O1096 C1111 1.245 . S
O1097 Zn1084 1.970 . S
O1097 C1111 1.263 . S
C1098 O1109 1.262 1_455 S
C1098 O1110 1.245 . S
O1099 Zn1086 1.985 . S
O1099 C1117 1.245 . S
O1100 Zn1089 1.970 . S
O1100 C1117 1.263 . S
O1101 Zn1079 1.955 . S
O1101 C1120 1.276 . S
C1102 O1092 1.245 . S
C1102 O1093 1.263 . S
O1103 Zn1072 1.955 . S
O1103 C1122 1.276 1_655 S
C1104 O1112 1.262 . S
C1104 O1113 1.245 . S
O1105 C1076 1.276 . S
O1105 Zn1082 1.955 . S
C1106 O1094 1.245 . S
C1106 O1095 1.263 . S
O1107 Zn1086 1.955 . S
O1107 C1090 1.276 . S
C1108 O1115 1.262 . S
C1108 O1116 1.245 . S
O1109 Zn1073 1.945 . S
O1109 C1098 1.262 1_655 S
O1110 Zn1089 1.981 . S
O1110 C1098 1.245 . S
C1111 O1096 1.245 . S
C1111 O1097 1.263 . S
O1112 Zn1078 1.945 . S
O1112 C1104 1.262 . S
O1113 Zn1084 1.981 1_455 S
O1113 C1104 1.245 . S
C1114 O1118 1.262 . S
C1114 O1119 1.245 . S
O1115 Zn1084 1.945 . S
O1115 C1108 1.262 . S
O1116 Zn1073 1.981 . S
O1116 C1108 1.245 . S
C1117 O1099 1.245 . S
C1117 O1100 1.263 . S
O1118 Zn1089 1.945 . S
O1118 C1114 1.262 . S
O1119 Zn1078 1.981 . S
O1119 C1114 1.245 . S
C1120 O1101 1.276 . S
C1120 O1121 1.246 . S
O1121 C1120 1.246 . S
C1122 O1103 1.276 1_455 S
C1122 O1123 1.246 . S
O1123 C1122 1.246 . S
Zn1124 O1126 1.933 1_565 S
Zn1124 O1144 1.985 . S
Zn1124 O1155 1.955 . S
Zn1125 O1126 1.911 . S
Zn1125 O1145 1.970 . S
Zn1125 O1161 1.945 . S
Zn1125 O1168 1.981 . S
O1126 Zn1124 1.933 1_545 S
O1126 Zn1125 1.911 . S
O1126 H1127 0.841 . S
H1127 O1126 0.841 . S
C1128 O1129 1.246 . S
C1128 O1157 1.276 . S
O1129 C1128 1.246 . S
Zn1130 O1132 1.911 . S
Zn1130 O1147 1.970 . S
Zn1130 O1164 1.945 . S
Zn1130 O1171 1.981 . S
Zn1131 O1132 1.933 1_565 S
Zn1131 O1146 1.977 1_565 S
Zn1131 O1153 1.955 . S
O1132 Zn1130 1.911 . S
O1132 Zn1131 1.933 1_545 S
O1132 H1133 0.841 . S
H1133 O1132 0.841 . S
Zn1134 O1135 1.933 1_565 S
Zn1134 O1148 1.985 . S
Zn1134 O1157 1.955 . S
O1135 Zn1134 1.933 1_545 S
O1135 Zn1136 1.911 . S
O1135 H1137 0.841 . S
Zn1136 O1135 1.911 . S
Zn1136 O1149 1.970 . S
Zn1136 O1165 1.981 . S
Zn1136 O1167 1.945 . S
H1137 O1135 0.841 . S
Zn1138 O1139 1.933 1_565 S
Zn1138 O1151 1.977 1_565 S
Zn1138 O1159 1.955 . S
O1139 Zn1138 1.933 1_545 S
O1139 H1140 0.841 . S
O1139 Zn1141 1.911 . S
H1140 O1139 0.841 . S
Zn1141 O1139 1.911 . S
Zn1141 O1152 1.970 . S
Zn1141 O1162 1.981 . S
Zn1141 O1170 1.945 . S
C1142 O1143 1.246 . S
C1142 O1159 1.276 . S
O1143 C1142 1.246 . S
O1144 Zn1124 1.985 . S
O1144 C1154 1.245 1_565 S
O1145 Zn1125 1.970 . S
O1145 C1154 1.263 . S
O1146 Zn1131 1.977 1_545 S
O1146 C1158 1.276 . S
O1147 Zn1130 1.970 . S
O1147 C1158 1.263 . S
O1148 Zn1134 1.985 . S
O1148 C1163 1.245 1_565 S
O1149 Zn1136 1.970 . S
O1149 C1163 1.263 . S
C1150 O1161 1.262 . S
C1150 O1162 1.245 . S
O1151 Zn1138 1.977 1_545 S
O1151 C1169 1.278 . S
O1152 Zn1141 1.970 . S
O1152 C1169 1.263 . S
O1153 Zn1131 1.955 . S
O1153 C1172 1.276 . S
C1154 O1144 1.245 1_545 S
C1154 O1145 1.263 . S
O1155 Zn1124 1.955 . S
O1155 C1174 1.276 . S
C1156 O1164 1.262 . S
C1156 O1165 1.245 . S
O1157 C1128 1.276 . S
O1157 Zn1134 1.955 . S
C1158 O1146 1.276 . S
C1158 O1147 1.263 . S
O1159 Zn1138 1.955 . S
O1159 C1142 1.276 . S
C1160 O1167 1.262 . S
C1160 O1168 1.245 . S
O1161 Zn1125 1.945 . S
O1161 C1150 1.262 . S
O1162 Zn1141 1.981 . S
O1162 C1150 1.245 . S
C1163 O1148 1.245 1_545 S
C1163 O1149 1.263 . S
O1164 Zn1130 1.945 . S
O1164 C1156 1.262 . S
O1165 Zn1136 1.981 . S
O1165 C1156 1.245 . S
C1166 O1170 1.262 . S
C1166 O1171 1.245 . S
O1167 Zn1136 1.945 . S
O1167 C1160 1.262 . S
O1168 Zn1125 1.981 . S
O1168 C1160 1.245 . S
C1169 O1151 1.278 . S
C1169 O1152 1.263 . S
O1170 Zn1141 1.945 . S
O1170 C1166 1.262 . S
O1171 Zn1130 1.981 . S
O1171 C1166 1.245 . S
C1172 O1153 1.276 . S
C1172 O1173 1.246 . S
O1173 C1172 1.246 . S
C1174 O1155 1.276 . S
C1174 O1175 1.246 . S
O1175 C1174 1.246 . S
C1176 C1177 1.369 . S
C1176 C1178 1.419 . S
C1176 H1180 0.930 . S
C1177 C1176 1.369 . S
C1177 C1186 1.429 . S
C1178 C1176 1.419 . S
C1178 C1179 1.363 . S
C1178 H1181 0.929 . S
C1179 C1178 1.363 . S
C1179 C1185 1.428 . S
H1180 C1176 0.930 . S
H1181 C1178 0.929 . S
S1182 N1183 1.613 . S
S1182 N1184 1.610 . S
N1183 S1182 1.613 . S
N1183 C1186 1.350 . S
N1184 S1182 1.610 . S
N1184 C1185 1.351 . S
C1185 C1179 1.428 . S
C1185 N1184 1.351 . S
C1185 C1186 1.434 . S
C1186 C1177 1.429 . S
C1186 N1183 1.350 . S
C1186 C1185 1.434 . S
C1187 C1188 1.369 . S
C1187 C1189 1.419 . S
C1187 H1191 0.930 . S
C1188 C1187 1.369 . S
C1188 C1197 1.429 . S
C1189 C1187 1.419 . S
C1189 C1190 1.363 . S
C1189 H1192 0.929 . S
C1190 C1189 1.363 . S
C1190 C1196 1.428 . S
H1191 C1187 0.930 . S
H1192 C1189 0.929 . S
S1193 N1194 1.613 . S
S1193 N1195 1.610 . S
N1194 S1193 1.613 . S
N1194 C1197 1.350 . S
N1195 S1193 1.610 . S
N1195 C1196 1.351 . S
C1196 C1190 1.428 . S
C1196 N1195 1.351 . S
C1196 C1197 1.434 . S
C1197 C1188 1.429 . S
C1197 N1194 1.350 . S
C1197 C1196 1.434 . S
C1198 C1199 1.369 . S
C1198 C1200 1.419 . S
C1198 H1202 0.930 . S
C1199 C1198 1.369 . S
C1199 C1208 1.429 . S
C1200 C1198 1.419 . S
C1200 C1201 1.363 . S
C1200 H1203 0.929 . S
C1201 C1200 1.363 . S
C1201 C1207 1.428 . S
H1202 C1198 0.930 . S
H1203 C1200 0.929 . S
S1204 N1205 1.613 . S
S1204 N1206 1.610 . S
N1205 S1204 1.613 . S
N1205 C1208 1.350 . S
N1206 S1204 1.610 . S
N1206 C1207 1.351 . S
C1207 C1201 1.428 . S
C1207 N1206 1.351 . S
C1207 C1208 1.434 . S
C1208 C1199 1.429 . S
C1208 N1205 1.350 . S
C1208 C1207 1.434 . S
C1209 C1210 1.369 . S
C1209 C1211 1.419 . S
C1209 H1213 0.930 . S
C1210 C1209 1.369 . S
C1210 C1219 1.429 . S
C1211 C1209 1.419 . S
C1211 C1212 1.363 . S
C1211 H1214 0.929 . S
C1212 C1211 1.363 . S
C1212 C1218 1.428 . S
H1213 C1209 0.930 . S
H1214 C1211 0.929 . S
S1215 N1216 1.613 . S
S1215 N1217 1.610 . S
N1216 S1215 1.613 . S
N1216 C1219 1.350 . S
N1217 S1215 1.610 . S
N1217 C1218 1.351 . S
C1218 C1212 1.428 . S
C1218 N1217 1.351 . S
C1218 C1219 1.434 . S
C1219 C1210 1.429 . S
C1219 N1216 1.350 . S
C1219 C1218 1.434 . S
C1220 C1221 1.369 . S
C1220 C1222 1.419 . S
C1220 H1224 0.930 . S
C1221 C1220 1.369 . S
C1221 C1230 1.429 . S
C1222 C1220 1.419 . S
C1222 C1223 1.363 . S
C1222 H1225 0.929 . S
C1223 C1222 1.363 . S
C1223 C1229 1.428 . S
H1224 C1220 0.930 . S
H1225 C1222 0.929 . S
S1226 N1227 1.613 . S
S1226 N1228 1.610 . S
N1227 S1226 1.613 . S
N1227 C1230 1.350 . S
N1228 S1226 1.610 . S
N1228 C1229 1.351 . S
C1229 C1223 1.428 . S
C1229 N1228 1.351 . S
C1229 C1230 1.434 . S
C1230 C1221 1.429 . S
C1230 N1227 1.350 . S
C1230 C1229 1.434 . S
C1231 C1232 1.369 . S
C1231 C1233 1.419 . S
C1231 H1235 0.930 . S
C1232 C1231 1.369 . S
C1232 C1241 1.429 . S
C1233 C1231 1.419 . S
C1233 C1234 1.363 . S
C1233 H1236 0.929 . S
C1234 C1233 1.363 . S
C1234 C1240 1.428 . S
H1235 C1231 0.930 . S
H1236 C1233 0.929 . S
S1237 N1238 1.613 . S
S1237 N1239 1.610 . S
N1238 S1237 1.613 . S
N1238 C1241 1.350 . S
N1239 S1237 1.610 . S
N1239 C1240 1.351 . S
C1240 C1234 1.428 . S
C1240 N1239 1.351 . S
C1240 C1241 1.434 . S
C1241 C1232 1.429 . S
C1241 N1238 1.350 . S
C1241 C1240 1.434 . S
C1242 C1243 1.369 . S
C1242 C1244 1.419 . S
C1242 H1246 0.930 . S
C1243 C1242 1.369 . S
C1243 C1252 1.429 . S
C1244 C1242 1.419 . S
C1244 C1245 1.363 . S
C1244 H1247 0.929 . S
C1245 C1244 1.363 . S
C1245 C1251 1.428 . S
H1246 C1242 0.930 . S
H1247 C1244 0.929 . S
S1248 N1249 1.613 . S
S1248 N1250 1.610 . S
N1249 S1248 1.613 . S
N1249 C1252 1.350 . S
N1250 S1248 1.610 . S
N1250 C1251 1.351 . S
C1251 C1245 1.428 . S
C1251 N1250 1.351 . S
C1251 C1252 1.434 . S
C1252 C1243 1.429 . S
C1252 N1249 1.350 . S
C1252 C1251 1.434 . S
C1253 C1254 1.369 . S
C1253 C1255 1.419 . S
C1253 H1257 0.930 . S
C1254 C1253 1.369 . S
C1254 C1263 1.429 . S
C1255 C1253 1.419 . S
C1255 C1256 1.363 . S
C1255 H1258 0.929 . S
C1256 C1255 1.363 . S
C1256 C1262 1.428 . S
H1257 C1253 0.930 . S
H1258 C1255 0.929 . S
S1259 N1260 1.613 . S
S1259 N1261 1.610 . S
N1260 S1259 1.613 . S
N1260 C1263 1.350 . S
N1261 S1259 1.610 . S
N1261 C1262 1.351 . S
C1262 C1256 1.428 . S
C1262 N1261 1.351 . S
C1262 C1263 1.434 . S
C1263 C1254 1.429 . S
C1263 N1260 1.350 . S
C1263 C1262 1.434 . S
C1264 C1265 1.369 . S
C1264 C1266 1.419 . S
C1264 H1268 0.930 . S
C1265 C1264 1.369 . S
C1265 C1274 1.429 . S
C1266 C1264 1.419 . S
C1266 C1267 1.363 . S
C1266 H1269 0.929 . S
C1267 C1266 1.363 . S
C1267 C1273 1.428 . S
H1268 C1264 0.930 . S
H1269 C1266 0.929 . S
S1270 N1271 1.613 . S
S1270 N1272 1.610 . S
N1271 S1270 1.613 . S
N1271 C1274 1.350 . S
N1272 S1270 1.610 . S
N1272 C1273 1.351 . S
C1273 C1267 1.428 . S
C1273 N1272 1.351 . S
C1273 C1274 1.434 . S
C1274 C1265 1.429 . S
C1274 N1271 1.350 . S
C1274 C1273 1.434 . S
C1275 C1276 1.369 . S
C1275 C1277 1.419 . S
C1275 H1279 0.930 . S
C1276 C1275 1.369 . S
C1276 C1285 1.429 . S
C1277 C1275 1.419 . S
C1277 C1278 1.363 . S
C1277 H1280 0.929 . S
C1278 C1277 1.363 . S
C1278 C1284 1.428 . S
H1279 C1275 0.930 . S
H1280 C1277 0.929 . S
S1281 N1282 1.613 . S
S1281 N1283 1.610 . S
N1282 S1281 1.613 . S
N1282 C1285 1.350 . S
N1283 S1281 1.610 . S
N1283 C1284 1.351 . S
C1284 C1278 1.428 . S
C1284 N1283 1.351 . S
C1284 C1285 1.434 . S
C1285 C1276 1.429 . S
C1285 N1282 1.350 . S
C1285 C1284 1.434 . S
C1286 C1287 1.369 . S
C1286 C1288 1.419 . S
C1286 H1290 0.930 . S
C1287 C1286 1.369 . S
C1287 C1296 1.429 . S
C1288 C1286 1.419 . S
C1288 C1289 1.363 . S
C1288 H1291 0.929 . S
C1289 C1288 1.363 . S
C1289 C1295 1.428 . S
H1290 C1286 0.930 . S
H1291 C1288 0.929 . S
S1292 N1293 1.613 . S
S1292 N1294 1.610 . S
N1293 S1292 1.613 . S
N1293 C1296 1.350 . S
N1294 S1292 1.610 . S
N1294 C1295 1.351 . S
C1295 C1289 1.428 . S
C1295 N1294 1.351 . S
C1295 C1296 1.434 . S
C1296 C1287 1.429 . S
C1296 N1293 1.350 . S
C1296 C1295 1.434 . S
C1297 C1298 1.369 . S
C1297 C1299 1.419 . S
C1297 H1301 0.930 . S
C1298 C1297 1.369 . S
C1298 C1307 1.429 . S
C1299 C1297 1.419 . S
C1299 C1300 1.363 . S
C1299 H1302 0.929 . S
C1300 C1299 1.363 . S
C1300 C1306 1.428 . S
H1301 C1297 0.930 . S
H1302 C1299 0.929 . S
S1303 N1304 1.613 . S
S1303 N1305 1.610 . S
N1304 S1303 1.613 . S
N1304 C1307 1.350 . S
N1305 S1303 1.610 . S
N1305 C1306 1.351 . S
C1306 C1300 1.428 . S
C1306 N1305 1.351 . S
C1306 C1307 1.434 . S
C1307 C1298 1.429 . S
C1307 N1304 1.350 . S
C1307 C1306 1.434 . S
C1308 C1309 1.369 . S
C1308 C1310 1.419 . S
C1308 H1312 0.930 . S
C1309 C1308 1.369 . S
C1309 C1318 1.429 1_554 S
C1310 C1308 1.419 . S
C1310 C1311 1.363 . S
C1310 H1313 0.929 . S
C1311 C1310 1.363 . S
C1311 C1317 1.424 1_554 S
H1312 C1308 0.930 . S
H1313 C1310 0.929 . S
S1314 N1315 1.613 . S
S1314 N1316 1.610 . S
N1315 S1314 1.613 . S
N1315 C1318 1.350 . S
N1316 S1314 1.610 . S
N1316 C1317 1.354 . S
C1317 C1311 1.424 1_556 S
C1317 N1316 1.354 . S
C1317 C1318 1.435 . S
C1318 C1309 1.429 1_556 S
C1318 N1315 1.350 . S
C1318 C1317 1.435 . S
C1319 C1320 1.369 . S
C1319 C1321 1.419 . S
C1319 H1323 0.930 . S
C1320 C1319 1.369 . S
C1320 C1329 1.429 1_554 S
C1321 C1319 1.419 . S
C1321 C1322 1.363 . S
C1321 H1324 0.929 . S
C1322 C1321 1.363 . S
C1322 C1328 1.428 1_554 S
H1323 C1319 0.930 . S
H1324 C1321 0.929 . S
S1325 N1326 1.613 . S
S1325 N1327 1.610 . S
N1326 S1325 1.613 . S
N1326 C1329 1.350 . S
N1327 S1325 1.610 . S
N1327 C1328 1.351 . S
C1328 C1322 1.428 1_556 S
C1328 N1327 1.351 . S
C1328 C1329 1.434 . S
C1329 C1320 1.429 1_556 S
C1329 N1326 1.350 . S
C1329 C1328 1.434 . S
C1330 C1331 1.369 1_556 S
C1330 C1332 1.419 . S
C1330 H1334 0.930 . S
C1331 C1330 1.369 1_554 S
C1331 C1340 1.429 . S
C1332 C1330 1.419 . S
C1332 C1333 1.363 1_556 S
C1332 H1335 0.929 . S
C1333 C1332 1.363 1_554 S
C1333 C1339 1.428 . S
H1334 C1330 0.930 . S
H1335 C1332 0.929 . S
S1336 N1337 1.613 . S
S1336 N1338 1.610 . S
N1337 S1336 1.613 . S
N1337 C1340 1.350 . S
N1338 S1336 1.610 . S
N1338 C1339 1.351 . S
C1339 C1333 1.428 . S
C1339 N1338 1.351 . S
C1339 C1340 1.434 . S
C1340 C1331 1.429 . S
C1340 N1337 1.350 . S
C1340 C1339 1.434 . S
C1341 C1342 1.369 . S
C1341 C1343 1.419 . S
C1341 H1345 0.930 . S
C1342 C1341 1.369 . S
C1342 C1351 1.429 . S
C1343 C1341 1.419 . S
C1343 C1344 1.363 . S
C1343 H1346 0.929 . S
C1344 C1343 1.363 . S
C1344 C1350 1.428 . S
H1345 C1341 0.930 . S
H1346 C1343 0.929 . S
S1347 N1348 1.613 . S
S1347 N1349 1.610 . S
N1348 S1347 1.613 . S
N1348 C1351 1.350 . S
N1349 S1347 1.610 . S
N1349 C1350 1.351 . S
C1350 C1344 1.428 . S
C1350 N1349 1.351 . S
C1350 C1351 1.434 . S
C1351 C1342 1.429 . S
C1351 N1348 1.350 . S
C1351 C1350 1.434 . S
C1352 C1353 1.369 . S
C1352 C1354 1.419 . S
C1352 H1356 0.930 . S
C1353 C1352 1.369 . S
C1353 C1362 1.427 1_455 S
C1354 C1352 1.419 . S
C1354 C1355 1.363 . S
C1354 H1357 0.929 . S
C1355 C1354 1.363 . S
C1355 C1361 1.428 . S
H1356 C1352 0.930 . S
H1357 C1354 0.929 . S
S1358 N1359 1.613 . S
S1358 N1360 1.610 1_655 S
N1359 S1358 1.613 . S
N1359 C1362 1.353 . S
N1360 S1358 1.610 1_455 S
N1360 C1361 1.351 . S
C1361 C1355 1.428 . S
C1361 N1360 1.351 . S
C1361 C1362 1.432 1_455 S
C1362 C1353 1.427 1_655 S
C1362 N1359 1.353 . S
C1362 C1361 1.432 1_655 S
C1363 C1364 1.369 1_565 S
C1363 C1365 1.419 . S
C1363 H1367 0.930 . S
C1364 C1363 1.369 1_545 S
C1364 C1373 1.429 . S
C1365 C1363 1.419 . S
C1365 C1366 1.363 1_565 S
C1365 H1368 0.929 . S
C1366 C1365 1.363 1_545 S
C1366 C1372 1.428 . S
H1367 C1363 0.930 . S
H1368 C1365 0.929 . S
S1369 N1370 1.613 . S
S1369 N1371 1.610 . S
N1370 S1369 1.613 . S
N1370 C1373 1.350 . S
N1371 S1369 1.610 . S
N1371 C1372 1.351 . S
C1372 C1366 1.428 . S
C1372 N1371 1.351 . S
C1372 C1373 1.434 . S
C1373 C1364 1.429 . S
C1373 N1370 1.350 . S
C1373 C1372 1.434 . S
C1374 C1375 1.369 1_655 S
C1374 C1376 1.419 . S
C1374 H1378 0.930 . S
C1375 C1374 1.369 1_455 S
C1375 C1384 1.429 . S
C1376 C1374 1.419 . S
C1376 C1377 1.363 1_655 S
C1376 H1379 0.929 . S
C1377 C1376 1.363 1_455 S
C1377 C1383 1.428 . S
H1378 C1374 0.930 . S
H1379 C1376 0.929 . S
S1380 N1381 1.613 . S
S1380 N1382 1.610 . S
N1381 S1380 1.613 . S
N1381 C1384 1.350 . S
N1382 S1380 1.610 . S
N1382 C1383 1.351 . S
C1383 C1377 1.428 . S
C1383 N1382 1.351 . S
C1383 C1384 1.434 . S
C1384 C1375 1.429 . S
C1384 N1381 1.350 . S
C1384 C1383 1.434 . S
C1385 C1386 1.369 . S
C1385 C1387 1.419 . S
C1385 H1389 0.930 . S
C1386 C1385 1.369 . S
C1386 C1395 1.429 . S
C1387 C1385 1.419 . S
C1387 C1388 1.363 . S
C1387 H1390 0.929 . S
C1388 C1387 1.363 . S
C1388 C1394 1.428 . S
H1389 C1385 0.930 . S
H1390 C1387 0.929 . S
S1391 N1392 1.613 . S
S1391 N1393 1.610 . S
N1392 S1391 1.613 . S
N1392 C1395 1.350 . S
N1393 S1391 1.610 . S
N1393 C1394 1.351 . S
C1394 C1388 1.428 . S
C1394 N1393 1.351 . S
C1394 C1395 1.434 . S
C1395 C1386 1.429 . S
C1395 N1392 1.350 . S
C1395 C1394 1.434 . S
C1396 C1397 1.369 . S
C1396 C1398 1.419 . S
C1396 H1400 0.930 . S
C1397 C1396 1.369 . S
C1397 C1406 1.429 . S
C1398 C1396 1.419 . S
C1398 C1399 1.363 . S
C1398 H1401 0.929 . S
C1399 C1398 1.363 . S
C1399 C1405 1.428 . S
H1400 C1396 0.930 . S
H1401 C1398 0.929 . S
S1402 N1403 1.613 . S
S1402 N1404 1.610 . S
N1403 S1402 1.613 . S
N1403 C1406 1.350 1_655 S
N1404 S1402 1.610 . S
N1404 C1405 1.351 1_655 S
C1405 C1399 1.428 . S
C1405 N1404 1.351 1_455 S
C1405 C1406 1.434 . S
C1406 C1397 1.429 . S
C1406 N1403 1.350 1_455 S
C1406 C1405 1.434 . S
C1407 C1408 1.369 . S
C1407 C1409 1.419 . S
C1407 H1411 0.930 . S
C1408 C1407 1.369 . S
C1408 C1417 1.429 . S
C1409 C1407 1.419 . S
C1409 C1410 1.363 . S
C1409 H1412 0.929 . S
C1410 C1409 1.363 . S
C1410 C1416 1.428 . S
H1411 C1407 0.930 . S
H1412 C1409 0.929 . S
S1413 N1414 1.613 . S
S1413 N1415 1.610 . S
N1414 S1413 1.613 . S
N1414 C1417 1.350 . S
N1415 S1413 1.610 . S
N1415 C1416 1.351 . S
C1416 C1410 1.428 . S
C1416 N1415 1.351 . S
C1416 C1417 1.434 . S
C1417 C1408 1.429 . S
C1417 N1414 1.350 . S
C1417 C1416 1.434 . S
C1418 C1419 1.369 . S
C1418 C1420 1.419 . S
C1418 H1422 0.930 1_455 S
C1419 C1418 1.369 . S
C1419 C1428 1.429 . S
C1420 C1418 1.419 . S
C1420 C1421 1.363 . S
C1420 H1423 0.929 1_455 S
C1421 C1420 1.363 . S
C1421 C1427 1.428 . S
H1422 C1418 0.930 1_655 S
H1423 C1420 0.929 1_655 S
S1424 N1425 1.613 . S
S1424 N1426 1.610 . S
N1425 S1424 1.613 . S
N1425 C1428 1.350 . S
N1426 S1424 1.610 . S
N1426 C1427 1.351 . S
C1427 C1421 1.428 . S
C1427 N1426 1.351 . S
C1427 C1428 1.434 . S
C1428 C1419 1.429 . S
C1428 N1425 1.350 . S
C1428 C1427 1.434 . S
C1429 C1430 1.369 . S
C1429 C1431 1.419 . S
C1429 H1433 0.930 . S
C1430 C1429 1.369 . S
C1430 C1439 1.431 . S
C1431 C1429 1.419 . S
C1431 C1432 1.363 . S
C1431 H1434 0.929 . S
C1432 C1431 1.363 . S
C1432 C1438 1.428 . S
H1433 C1429 0.930 . S
H1434 C1431 0.929 . S
S1435 N1436 1.613 . S
S1435 N1437 1.606 1_565 S
N1436 S1435 1.613 . S
N1436 C1439 1.343 1_565 S
N1437 S1435 1.606 1_545 S
N1437 C1438 1.354 . S
C1438 C1432 1.428 . S
C1438 N1437 1.354 . S
C1438 C1439 1.438 . S
C1439 C1430 1.431 . S
C1439 N1436 1.343 1_545 S
C1439 C1438 1.438 . S
C1440 C1441 1.369 . S
C1440 C1442 1.419 . S
C1440 H1444 0.930 . S
C1441 C1440 1.369 . S
C1441 C1450 1.429 . S
C1442 C1440 1.419 . S
C1442 C1443 1.363 . S
C1442 H1445 0.929 . S
C1443 C1442 1.363 . S
C1443 C1449 1.428 . S
H1444 C1440 0.930 . S
H1445 C1442 0.929 . S
S1446 N1447 1.613 . S
S1446 N1448 1.610 . S
N1447 S1446 1.613 . S
N1447 C1450 1.350 1_655 S
N1448 S1446 1.610 . S
N1448 C1449 1.351 1_655 S
C1449 C1443 1.428 . S
C1449 N1448 1.351 1_455 S
C1449 C1450 1.434 . S
C1450 C1441 1.429 . S
C1450 N1447 1.350 1_455 S
C1450 C1449 1.434 . S
C1451 C1452 1.369 . S
C1451 C1453 1.419 . S
C1451 H1455 0.930 . S
C1452 C1451 1.369 . S
C1452 C1461 1.429 . S
C1453 C1451 1.419 . S
C1453 C1454 1.363 . S
C1453 H1456 0.929 . S
C1454 C1453 1.363 . S
C1454 C1460 1.428 . S
H1455 C1451 0.930 . S
H1456 C1453 0.929 . S
S1457 N1458 1.613 . S
S1457 N1459 1.610 . S
N1458 S1457 1.613 . S
N1458 C1461 1.350 . S
N1459 S1457 1.610 . S
N1459 C1460 1.351 . S
C1460 C1454 1.428 . S
C1460 N1459 1.351 . S
C1460 C1461 1.434 . S
C1461 C1452 1.429 . S
C1461 N1458 1.350 . S
C1461 C1460 1.434 . S
C1462 C1463 1.369 . S
C1462 C1464 1.419 . S
C1462 H1466 0.930 . S
C1463 C1462 1.369 . S
C1463 C1472 1.429 . S
C1464 C1462 1.419 . S
C1464 C1465 1.363 . S
C1464 H1467 0.929 . S
C1465 C1464 1.363 . S
C1465 C1471 1.428 . S
H1466 C1462 0.930 . S
H1467 C1464 0.929 . S
S1468 N1469 1.613 . S
S1468 N1470 1.610 . S
N1469 S1468 1.613 . S
N1469 C1472 1.350 1_655 S
N1470 S1468 1.610 . S
N1470 C1471 1.351 1_655 S
C1471 C1465 1.428 . S
C1471 N1470 1.351 1_455 S
C1471 C1472 1.434 . S
C1472 C1463 1.429 . S
C1472 N1469 1.350 1_455 S
C1472 C1471 1.434 . S
C1473 C1474 1.369 1_565 S
C1473 C1475 1.419 . S
C1473 H1477 0.930 . S
C1474 C1473 1.369 1_545 S
C1474 C1483 1.429 . S
C1475 C1473 1.419 . S
C1475 C1476 1.363 1_565 S
C1475 H1478 0.929 . S
C1476 C1475 1.363 1_545 S
C1476 C1482 1.428 . S
H1477 C1473 0.930 . S
H1478 C1475 0.929 . S
S1479 N1480 1.613 . S
S1479 N1481 1.610 . S
N1480 S1479 1.613 . S
N1480 C1483 1.350 . S
N1481 S1479 1.610 . S
N1481 C1482 1.351 . S
C1482 C1476 1.428 . S
C1482 N1481 1.351 . S
C1482 C1483 1.434 . S
C1483 C1474 1.429 . S
C1483 N1480 1.350 . S
C1483 C1482 1.434 . S
C1484 C1485 1.369 1_655 S
C1484 C1486 1.419 . S
C1484 H1488 0.930 . S
C1485 C1484 1.369 1_455 S
C1485 C1494 1.429 . S
C1486 C1484 1.419 . S
C1486 C1487 1.363 1_655 S
C1486 H1489 0.929 . S
C1487 C1486 1.363 1_455 S
C1487 C1493 1.428 . S
H1488 C1484 0.930 . S
H1489 C1486 0.929 . S
S1490 N1491 1.613 . S
S1490 N1492 1.610 . S
N1491 S1490 1.613 . S
N1491 C1494 1.350 . S
N1492 S1490 1.610 . S
N1492 C1493 1.351 . S
C1493 C1487 1.428 . S
C1493 N1492 1.351 . S
C1493 C1494 1.434 . S
C1494 C1485 1.429 . S
C1494 N1491 1.350 . S
C1494 C1493 1.434 . S
C1495 C1496 1.369 . S
C1495 C1497 1.419 . S
C1495 H1499 0.930 . S
C1496 C1495 1.369 . S
C1496 C1505 1.429 . S
C1497 C1495 1.419 . S
C1497 C1498 1.363 . S
C1497 H1500 0.929 . S
C1498 C1497 1.363 . S
C1498 C1504 1.428 . S
H1499 C1495 0.930 . S
H1500 C1497 0.929 . S
S1501 N1502 1.613 . S
S1501 N1503 1.610 . S
N1502 S1501 1.613 . S
N1502 C1505 1.350 . S
N1503 S1501 1.610 . S
N1503 C1504 1.351 . S
C1504 C1498 1.428 . S
C1504 N1503 1.351 . S
C1504 C1505 1.434 . S
C1505 C1496 1.429 . S
C1505 N1502 1.350 . S
C1505 C1504 1.434 . S
C1506 C1507 1.369 . S
C1506 C1508 1.419 . S
C1506 H1510 0.930 . S
C1507 C1506 1.369 . S
C1507 C1516 1.429 . S
C1508 C1506 1.419 . S
C1508 C1509 1.363 . S
C1508 H1511 0.929 1_455 S
C1509 C1508 1.363 . S
C1509 C1515 1.428 . S
H1510 C1506 0.930 . S
H1511 C1508 0.929 1_655 S
S1512 N1513 1.613 . S
S1512 N1514 1.610 . S
N1513 S1512 1.613 . S
N1513 C1516 1.350 . S
N1514 S1512 1.610 . S
N1514 C1515 1.351 . S
C1515 C1509 1.428 . S
C1515 N1514 1.351 . S
C1515 C1516 1.434 . S
C1516 C1507 1.429 . S
C1516 N1513 1.350 . S
C1516 C1515 1.434 . S
C1517 C1518 1.369 . S
C1517 C1519 1.419 . S
C1517 H1521 0.930 . S
C1518 C1517 1.369 . S
C1518 C1527 1.429 . S
C1519 C1517 1.419 . S
C1519 C1520 1.363 . S
C1519 H1522 0.929 . S
C1520 C1519 1.363 . S
C1520 C1526 1.428 . S
H1521 C1517 0.930 . S
H1522 C1519 0.929 . S
S1523 N1524 1.613 . S
S1523 N1525 1.610 . S
N1524 S1523 1.613 . S
N1524 C1527 1.350 1_565 S
N1525 S1523 1.610 . S
N1525 C1526 1.351 1_565 S
C1526 C1520 1.428 . S
C1526 N1525 1.351 1_545 S
C1526 C1527 1.434 . S
C1527 C1518 1.429 . S
C1527 N1524 1.350 1_545 S
C1527 C1526 1.434 . S
C1528 C1529 1.369 . S
C1528 C1530 1.419 . S
C1528 H1532 0.930 . S
C1529 C1528 1.369 . S
C1529 C1538 1.429 1_545 S
C1530 C1528 1.419 . S
C1530 C1531 1.363 . S
C1530 H1533 0.929 . S
C1531 C1530 1.363 . S
C1531 C1537 1.428 1_545 S
H1532 C1528 0.930 . S
H1533 C1530 0.929 . S
S1534 N1535 1.613 . S
S1534 N1536 1.610 . S
N1535 S1534 1.613 . S
N1535 C1538 1.350 . S
N1536 S1534 1.610 . S
N1536 C1537 1.351 . S
C1537 C1531 1.428 1_565 S
C1537 N1536 1.351 . S
C1537 C1538 1.434 . S
C1538 C1529 1.429 1_565 S
C1538 N1535 1.350 . S
C1538 C1537 1.434 . S
C1539 C1540 1.369 . S
C1539 C1541 1.419 . S
C1539 H1543 0.930 1_455 S
C1540 C1539 1.369 . S
C1540 C1549 1.429 . S
C1541 C1539 1.419 . S
C1541 C1542 1.363 . S
C1541 H1544 0.929 1_455 S
C1542 C1541 1.363 . S
C1542 C1548 1.428 . S
H1543 C1539 0.930 1_655 S
H1544 C1541 0.929 1_655 S
S1545 N1546 1.613 . S
S1545 N1547 1.610 . S
N1546 S1545 1.613 . S
N1546 C1549 1.350 . S
N1547 S1545 1.610 . S
N1547 C1548 1.351 . S
C1548 C1542 1.428 . S
C1548 N1547 1.351 . S
C1548 C1549 1.434 . S
C1549 C1540 1.429 . S
C1549 N1546 1.350 . S
C1549 C1548 1.434 . S
C1550 C1551 1.369 . S
C1550 C1552 1.419 . S
C1550 H1554 0.930 . S
C1551 C1550 1.369 . S
C1551 C1560 1.429 . S
C1552 C1550 1.419 . S
C1552 C1553 1.363 . S
C1552 H1555 0.929 . S
C1553 C1552 1.363 . S
C1553 C1559 1.428 . S
H1554 C1550 0.930 . S
H1555 C1552 0.929 . S
S1556 N1557 1.613 . S
S1556 N1558 1.610 . S
N1557 S1556 1.613 . S
N1557 C1560 1.350 . S
N1558 S1556 1.610 . S
N1558 C1559 1.351 . S
C1559 C1553 1.428 . S
C1559 N1558 1.351 . S
C1559 C1560 1.434 . S
C1560 C1551 1.429 . S
C1560 N1557 1.350 . S
C1560 C1559 1.434 . S
C1561 C1562 1.369 . S
C1561 C1563 1.419 . S
C1561 H1565 0.930 . S
C1562 C1561 1.369 . S
C1562 C1571 1.429 . S
C1563 C1561 1.419 . S
C1563 C1564 1.363 . S
C1563 H1566 0.929 . S
C1564 C1563 1.363 . S
C1564 C1570 1.428 . S
H1565 C1561 0.930 . S
H1566 C1563 0.929 . S
S1567 N1568 1.613 . S
S1567 N1569 1.610 . S
N1568 S1567 1.613 . S
N1568 C1571 1.350 . S
N1569 S1567 1.610 . S
N1569 C1570 1.351 . S
C1570 C1564 1.428 . S
C1570 N1569 1.351 . S
C1570 C1571 1.434 . S
C1571 C1562 1.429 . S
C1571 N1568 1.350 . S
C1571 C1570 1.434 . S
C1572 C1573 1.369 1_565 S
C1572 C1574 1.419 . S
C1572 H1576 0.930 . S
C1573 C1572 1.369 1_545 S
C1573 C1582 1.429 . S
C1574 C1572 1.419 . S
C1574 C1575 1.363 1_565 S
C1574 H1577 0.929 . S
C1575 C1574 1.363 1_545 S
C1575 C1581 1.428 . S
H1576 C1572 0.930 . S
H1577 C1574 0.929 . S
S1578 N1579 1.613 . S
S1578 N1580 1.610 . S
N1579 S1578 1.613 . S
N1579 C1582 1.350 . S
N1580 S1578 1.610 . S
N1580 C1581 1.351 . S
C1581 C1575 1.428 . S
C1581 N1580 1.351 . S
C1581 C1582 1.434 . S
C1582 C1573 1.429 . S
C1582 N1579 1.350 . S
C1582 C1581 1.434 . S
C1583 C1584 1.369 . S
C1583 C1585 1.419 . S
C1583 H1587 0.930 . S
C1584 C1583 1.369 . S
C1584 C1593 1.429 . S
C1585 C1583 1.419 . S
C1585 C1586 1.363 . S
C1585 H1588 0.929 . S
C1586 C1585 1.363 . S
C1586 C1592 1.428 . S
H1587 C1583 0.930 . S
H1588 C1585 0.929 . S
S1589 N1590 1.613 . S
S1589 N1591 1.610 . S
N1590 S1589 1.613 . S
N1590 C1593 1.350 . S
N1591 S1589 1.610 . S
N1591 C1592 1.351 . S
C1592 C1586 1.428 . S
C1592 N1591 1.351 . S
C1592 C1593 1.434 . S
C1593 C1584 1.429 . S
C1593 N1590 1.350 . S
C1593 C1592 1.434 . S
C1594 C1595 1.369 . S
C1594 C1596 1.419 . S
C1594 H1598 0.930 . S
C1595 C1594 1.369 . S
C1595 C1604 1.429 . S
C1596 C1594 1.419 . S
C1596 C1597 1.363 . S
C1596 H1599 0.929 . S
C1597 C1596 1.363 . S
C1597 C1603 1.428 . S
H1598 C1594 0.930 . S
H1599 C1596 0.929 . S
S1600 N1601 1.613 . S
S1600 N1602 1.610 . S
N1601 S1600 1.613 . S
N1601 C1604 1.350 . S
N1602 S1600 1.610 . S
N1602 C1603 1.351 . S
C1603 C1597 1.428 . S
C1603 N1602 1.351 . S
C1603 C1604 1.434 . S
C1604 C1595 1.429 . S
C1604 N1601 1.350 . S
C1604 C1603 1.434 . S
C1605 C1606 1.369 . S
C1605 C1607 1.419 . S
C1605 H1609 0.930 . S
C1606 C1605 1.369 . S
C1606 C1615 1.429 1_455 S
C1607 C1605 1.419 . S
C1607 C1608 1.363 . S
C1607 H1610 0.929 . S
C1608 C1607 1.363 . S
C1608 C1614 1.408 1_455 S
H1609 C1605 0.930 . S
H1610 C1607 0.929 . S
S1611 N1612 1.613 . S
S1611 N1613 1.610 . S
N1612 S1611 1.613 . S
N1612 C1615 1.350 . S
N1613 S1611 1.610 . S
N1613 C1614 1.367 . S
C1614 C1608 1.408 1_655 S
C1614 N1613 1.367 . S
C1614 C1615 1.441 . S
C1615 C1606 1.429 1_655 S
C1615 N1612 1.350 . S
C1615 C1614 1.441 . S
C1616 C1617 1.369 . S
C1616 C1618 1.419 . S
C1616 H1620 0.930 1_554 S
C1617 C1616 1.369 . S
C1617 C1626 1.429 . S
C1618 C1616 1.419 . S
C1618 C1619 1.363 . S
C1618 H1621 0.929 1_554 S
C1619 C1618 1.363 . S
C1619 C1625 1.428 . S
H1620 C1616 0.930 1_556 S
H1621 C1618 0.929 1_556 S
S1622 N1623 1.613 . S
S1622 N1624 1.610 . S
N1623 S1622 1.613 . S
N1623 C1626 1.350 . S
N1624 S1622 1.610 . S
N1624 C1625 1.351 . S
C1625 C1619 1.428 . S
C1625 N1624 1.351 . S
C1625 C1626 1.434 . S
C1626 C1617 1.429 . S
C1626 N1623 1.350 . S
C1626 C1625 1.434 . S
C1627 C1628 1.369 . S
C1627 C1629 1.419 . S
C1627 H1631 0.930 . S
C1628 C1627 1.369 . S
C1628 C1637 1.429 1_554 S
C1629 C1627 1.419 . S
C1629 C1630 1.363 . S
C1629 H1632 0.929 . S
C1630 C1629 1.363 . S
C1630 C1636 1.428 1_554 S
H1631 C1627 0.930 . S
H1632 C1629 0.929 . S
S1633 N1634 1.613 . S
S1633 N1635 1.610 . S
N1634 S1633 1.613 . S
N1634 C1637 1.350 . S
N1635 S1633 1.610 . S
N1635 C1636 1.351 . S
C1636 C1630 1.428 1_556 S
C1636 N1635 1.351 . S
C1636 C1637 1.434 . S
C1637 C1628 1.429 1_556 S
C1637 N1634 1.350 . S
C1637 C1636 1.434 . S
C1638 C1639 1.369 . S
C1638 C1640 1.419 . S
C1638 H1642 0.930 . S
C1639 C1638 1.369 . S
C1639 C1648 1.429 . S
C1640 C1638 1.419 . S
C1640 C1641 1.363 . S
C1640 H1643 0.940 . S
C1641 C1640 1.363 . S
C1641 C1647 1.428 . S
H1642 C1638 0.930 . S
H1643 C1640 0.940 . S
S1644 N1645 1.613 . S
S1644 N1646 1.610 . S
N1645 S1644 1.613 . S
N1645 C1648 1.350 . S
N1646 S1644 1.610 . S
N1646 C1647 1.351 . S
C1647 C1641 1.428 . S
C1647 N1646 1.351 . S
C1647 C1648 1.434 . S
C1648 C1639 1.429 . S
C1648 N1645 1.350 . S
C1648 C1647 1.434 . S
C1649 C1650 1.369 1_556 S
C1649 C1651 1.419 . S
C1649 H1653 0.930 . S
C1650 C1649 1.369 1_554 S
C1650 C1659 1.429 . S
C1651 C1649 1.419 . S
C1651 C1652 1.363 1_556 S
C1651 H1654 0.929 . S
C1652 C1651 1.363 1_554 S
C1652 C1658 1.428 . S
H1653 C1649 0.930 . S
H1654 C1651 0.929 . S
S1655 N1656 1.613 1_455 S
S1655 N1657 1.610 1_455 S
N1656 S1655 1.613 1_655 S
N1656 C1659 1.350 . S
N1657 S1655 1.610 1_655 S
N1657 C1658 1.351 . S
C1658 C1652 1.428 . S
C1658 N1657 1.351 . S
C1658 C1659 1.434 . S
C1659 C1650 1.429 . S
C1659 N1656 1.350 . S
C1659 C1658 1.434 . S
C1660 C1661 1.369 . S
C1660 C1662 1.419 . S
C1660 H1664 0.930 . S
C1661 C1660 1.369 . S
C1661 C1670 1.429 1_554 S
C1662 C1660 1.419 . S
C1662 C1663 1.363 . S
C1662 H1665 0.929 . S
C1663 C1662 1.363 . S
C1663 C1669 1.428 1_554 S
H1664 C1660 0.930 . S
H1665 C1662 0.929 . S
S1666 N1667 1.613 . S
S1666 N1668 1.610 . S
N1667 S1666 1.613 . S
N1667 C1670 1.350 . S
N1668 S1666 1.610 . S
N1668 C1669 1.351 . S
C1669 C1663 1.428 1_556 S
C1669 N1668 1.351 . S
C1669 C1670 1.434 . S
C1670 C1661 1.429 1_556 S
C1670 N1667 1.350 . S
C1670 C1669 1.434 . S
C1671 C1672 1.374 . S
C1671 C1673 1.419 . S
C1671 H1675 0.926 1_554 S
C1672 C1671 1.374 . S
C1672 C1681 1.429 . S
C1673 C1671 1.419 . S
C1673 C1674 1.363 . S
C1673 H1676 0.929 1_554 S
C1674 C1673 1.363 . S
C1674 C1680 1.428 . S
H1675 C1671 0.926 1_556 S
H1676 C1673 0.929 1_556 S
S1677 N1678 1.613 . S
S1677 N1679 1.610 . S
N1678 S1677 1.613 . S
N1678 C1681 1.350 . S
N1679 S1677 1.610 . S
N1679 C1680 1.351 . S
C1680 C1674 1.428 . S
C1680 N1679 1.351 . S
C1680 C1681 1.434 . S
C1681 C1672 1.429 . S
C1681 N1678 1.350 . S
C1681 C1680 1.434 . S
C1682 C1683 1.369 . S
C1682 C1684 1.419 . S
C1682 H1686 0.930 . S
C1683 C1682 1.369 . S
C1683 C1692 1.429 1_554 S
C1684 C1682 1.419 . S
C1684 C1685 1.363 . S
C1684 H1687 0.929 . S
C1685 C1684 1.363 . S
C1685 C1691 1.428 1_554 S
H1686 C1682 0.930 . S
H1687 C1684 0.929 . S
S1688 N1689 1.613 . S
S1688 N1690 1.610 . S
N1689 S1688 1.613 . S
N1689 C1692 1.350 . S
N1690 S1688 1.610 . S
N1690 C1691 1.351 . S
C1691 C1685 1.428 1_556 S
C1691 N1690 1.351 . S
C1691 C1692 1.434 . S
C1692 C1683 1.429 1_556 S
C1692 N1689 1.350 . S
C1692 C1691 1.434 . S
C1693 C1694 1.369 1_556 S
C1693 C1695 1.419 . S
C1693 H1697 0.930 . S
C1694 C1693 1.369 1_554 S
C1694 C1703 1.429 . S
C1695 C1693 1.419 . S
C1695 C1696 1.363 1_556 S
C1695 H1698 0.929 . S
C1696 C1695 1.363 1_554 S
C1696 C1702 1.428 . S
H1697 C1693 0.930 . S
H1698 C1695 0.929 . S
S1699 N1700 1.613 . S
S1699 N1701 1.610 . S
N1700 S1699 1.613 . S
N1700 C1703 1.350 . S
N1701 S1699 1.610 . S
N1701 C1702 1.351 . S
C1702 C1696 1.428 . S
C1702 N1701 1.351 . S
C1702 C1703 1.434 . S
C1703 C1694 1.429 . S
C1703 N1700 1.350 . S
C1703 C1702 1.434 . S
C1704 C1705 1.369 . S
C1704 C1706 1.419 . S
C1704 H1708 0.930 . S
C1705 C1704 1.369 . S
C1705 C1714 1.429 . S
C1706 C1704 1.419 . S
C1706 C1707 1.363 . S
C1706 H1709 0.929 . S
C1707 C1706 1.363 . S
C1707 C1713 1.428 . S
H1708 C1704 0.930 . S
H1709 C1706 0.929 . S
S1710 N1711 1.613 . S
S1710 N1712 1.610 . S
N1711 S1710 1.613 . S
N1711 C1714 1.350 . S
N1712 S1710 1.610 . S
N1712 C1713 1.351 . S
C1713 C1707 1.428 . S
C1713 N1712 1.351 . S
C1713 C1714 1.434 . S
C1714 C1705 1.429 . S
C1714 N1711 1.350 . S
C1714 C1713 1.434 . S
C1715 C1716 1.369 . S
C1715 C1717 1.419 . S
C1715 H1719 0.930 . S
C1716 C1715 1.369 . S
C1716 C1725 1.429 . S
C1717 C1715 1.419 . S
C1717 C1718 1.363 . S
C1717 H1720 0.929 . S
C1718 C1717 1.363 . S
C1718 C1724 1.428 . S
H1719 C1715 0.930 . S
H1720 C1717 0.929 . S
S1721 N1722 1.613 . S
S1721 N1723 1.610 . S
N1722 S1721 1.613 . S
N1722 C1725 1.350 . S
N1723 S1721 1.610 . S
N1723 C1724 1.351 . S
C1724 C1718 1.428 . S
C1724 N1723 1.351 . S
C1724 C1725 1.434 . S
C1725 C1716 1.429 . S
C1725 N1722 1.350 . S
C1725 C1724 1.434 . S
C1726 C1727 1.369 . S
C1726 C1728 1.419 . S
C1726 H1730 0.930 . S
C1727 C1726 1.369 . S
C1727 C1736 1.429 . S
C1728 C1726 1.419 . S
C1728 C1729 1.363 . S
C1728 H1731 0.929 . S
C1729 C1728 1.363 . S
C1729 C1735 1.428 . S
H1730 C1726 0.930 . S
H1731 C1728 0.929 . S
S1732 N1733 1.613 . S
S1732 N1734 1.610 . S
N1733 S1732 1.613 . S
N1733 C1736 1.350 . S
N1734 S1732 1.610 . S
N1734 C1735 1.351 . S
C1735 C1729 1.428 . S
C1735 N1734 1.351 . S
C1735 C1736 1.434 . S
C1736 C1727 1.429 . S
C1736 N1733 1.350 . S
C1736 C1735 1.434 . S
C1737 C1738 1.369 . S
C1737 C1739 1.419 . S
C1737 H1741 0.930 . S
C1738 C1737 1.369 . S
C1738 C1747 1.429 . S
C1739 C1737 1.419 . S
C1739 C1740 1.363 . S
C1739 H1742 0.929 . S
C1740 C1739 1.363 . S
C1740 C1746 1.428 . S
H1741 C1737 0.930 . S
H1742 C1739 0.929 . S
S1743 N1744 1.613 . S
S1743 N1745 1.610 . S
N1744 S1743 1.613 . S
N1744 C1747 1.350 . S
N1745 S1743 1.610 . S
N1745 C1746 1.351 . S
C1746 C1740 1.428 . S
C1746 N1745 1.351 . S
C1746 C1747 1.434 . S
C1747 C1738 1.429 . S
C1747 N1744 1.350 . S
C1747 C1746 1.434 . S
C1748 C1749 1.369 . S
C1748 C1750 1.419 . S
C1748 H1752 0.930 . S
C1749 C1748 1.369 . S
C1749 C1758 1.429 . S
C1750 C1748 1.419 . S
C1750 C1751 1.363 . S
C1750 H1753 0.929 . S
C1751 C1750 1.363 . S
C1751 C1757 1.428 . S
H1752 C1748 0.930 . S
H1753 C1750 0.929 . S
S1754 N1755 1.613 . S
S1754 N1756 1.610 . S
N1755 S1754 1.613 . S
N1755 C1758 1.350 . S
N1756 S1754 1.610 . S
N1756 C1757 1.351 . S
C1757 C1751 1.428 . S
C1757 N1756 1.351 . S
C1757 C1758 1.434 . S
C1758 C1749 1.429 . S
C1758 N1755 1.350 . S
C1758 C1757 1.434 . S
C1759 C1760 1.369 . S
C1759 C1761 1.419 . S
C1759 H1763 0.930 . S
C1760 C1759 1.369 . S
C1760 C1769 1.429 . S
C1761 C1759 1.419 . S
C1761 C1762 1.363 . S
C1761 H1764 0.929 . S
C1762 C1761 1.363 . S
C1762 C1768 1.428 . S
H1763 C1759 0.930 . S
H1764 C1761 0.929 . S
S1765 N1766 1.613 . S
S1765 N1767 1.610 . S
N1766 S1765 1.613 . S
N1766 C1769 1.350 . S
N1767 S1765 1.610 . S
N1767 C1768 1.351 . S
C1768 C1762 1.428 . S
C1768 N1767 1.351 . S
C1768 C1769 1.434 . S
C1769 C1760 1.429 . S
C1769 N1766 1.350 . S
C1769 C1768 1.434 . S
C1770 C1771 1.369 . S
C1770 C1772 1.419 . S
C1770 H1774 0.930 . S
C1771 C1770 1.369 . S
C1771 C1780 1.429 . S
C1772 C1770 1.419 . S
C1772 C1773 1.363 . S
C1772 H1775 0.929 . S
C1773 C1772 1.363 . S
C1773 C1779 1.428 . S
H1774 C1770 0.930 . S
H1775 C1772 0.929 . S
S1776 N1777 1.613 . S
S1776 N1778 1.610 . S
N1777 S1776 1.613 . S
N1777 C1780 1.350 . S
N1778 S1776 1.610 . S
N1778 C1779 1.351 . S
C1779 C1773 1.428 . S
C1779 N1778 1.351 . S
C1779 C1780 1.434 . S
C1780 C1771 1.429 . S
C1780 N1777 1.350 . S
C1780 C1779 1.434 . S
C1781 C1782 1.369 . S
C1781 C1783 1.419 . S
C1781 H1785 0.930 . S
C1782 C1781 1.369 . S
C1782 C1791 1.429 . S
C1783 C1781 1.419 . S
C1783 C1784 1.363 . S
C1783 H1786 0.929 . S
C1784 C1783 1.363 . S
C1784 C1790 1.428 . S
H1785 C1781 0.930 . S
H1786 C1783 0.929 . S
S1787 N1788 1.613 . S
S1787 N1789 1.610 . S
N1788 S1787 1.613 . S
N1788 C1791 1.350 . S
N1789 S1787 1.610 . S
N1789 C1790 1.351 . S
C1790 C1784 1.428 . S
C1790 N1789 1.351 . S
C1790 C1791 1.434 . S
C1791 C1782 1.429 . S
C1791 N1788 1.350 . S
C1791 C1790 1.434 . S
C1792 C1793 1.369 . S
C1792 C1794 1.419 . S
C1792 H1796 0.930 . S
C1793 C1792 1.369 . S
C1793 C1802 1.429 . S
C1794 C1792 1.419 . S
C1794 C1795 1.363 . S
C1794 H1797 0.929 . S
C1795 C1794 1.363 . S
C1795 C1801 1.428 . S
H1796 C1792 0.930 . S
H1797 C1794 0.929 . S
S1798 N1799 1.613 . S
S1798 N1800 1.610 . S
N1799 S1798 1.613 . S
N1799 C1802 1.350 . S
N1800 S1798 1.610 . S
N1800 C1801 1.351 . S
C1801 C1795 1.428 . S
C1801 N1800 1.351 . S
C1801 C1802 1.434 . S
C1802 C1793 1.429 . S
C1802 N1799 1.350 . S
C1802 C1801 1.434 . S
C1803 C1804 1.369 . S
C1803 C1805 1.419 . S
C1803 H1807 0.930 . S
C1804 C1803 1.369 . S
C1804 C1813 1.429 . S
C1805 C1803 1.419 . S
C1805 C1806 1.363 . S
C1805 H1808 0.929 . S
C1806 C1805 1.363 . S
C1806 C1812 1.428 . S
H1807 C1803 0.930 . S
H1808 C1805 0.929 . S
S1809 N1810 1.613 . S
S1809 N1811 1.610 . S
N1810 S1809 1.613 . S
N1810 C1813 1.350 . S
N1811 S1809 1.610 . S
N1811 C1812 1.351 . S
C1812 C1806 1.428 . S
C1812 N1811 1.351 . S
C1812 C1813 1.434 . S
C1813 C1804 1.429 . S
C1813 N1810 1.350 . S
C1813 C1812 1.434 . S
C1814 C1815 1.369 . S
C1814 C1816 1.419 . S
C1814 H1818 0.930 . S
C1815 C1814 1.369 . S
C1815 C1824 1.429 . S
C1816 C1814 1.419 . S
C1816 C1817 1.363 . S
C1816 H1819 0.929 . S
C1817 C1816 1.363 . S
C1817 C1823 1.428 . S
H1818 C1814 0.930 . S
H1819 C1816 0.929 . S
S1820 N1821 1.613 . S
S1820 N1822 1.610 . S
N1821 S1820 1.613 . S
N1821 C1824 1.350 . S
N1822 S1820 1.610 . S
N1822 C1823 1.351 . S
C1823 C1817 1.428 . S
C1823 N1822 1.351 . S
C1823 C1824 1.434 . S
C1824 C1815 1.429 . S
C1824 N1821 1.350 . S
C1824 C1823 1.434 . S
C1825 C1826 1.369 . S
C1825 C1827 1.419 . S
C1825 H1829 0.930 . S
C1826 C1825 1.369 . S
C1826 C1835 1.429 . S
C1827 C1825 1.419 . S
C1827 C1828 1.363 . S
C1827 H1830 0.929 . S
C1828 C1827 1.363 . S
C1828 C1834 1.428 . S
H1829 C1825 0.930 . S
H1830 C1827 0.929 . S
S1831 N1832 1.613 . S
S1831 N1833 1.610 . S
N1832 S1831 1.613 . S
N1832 C1835 1.350 . S
N1833 S1831 1.610 . S
N1833 C1834 1.351 . S
C1834 C1828 1.428 . S
C1834 N1833 1.351 . S
C1834 C1835 1.434 . S
C1835 C1826 1.429 . S
C1835 N1832 1.350 . S
C1835 C1834 1.434 . S
C1836 C1837 1.369 . S
C1836 C1838 1.419 . S
C1836 H1840 0.930 . S
C1837 C1836 1.369 . S
C1837 C1846 1.429 . S
C1838 C1836 1.419 . S
C1838 C1839 1.363 . S
C1838 H1841 0.929 . S
C1839 C1838 1.363 . S
C1839 C1845 1.428 . S
H1840 C1836 0.930 . S
H1841 C1838 0.929 . S
S1842 N1843 1.613 . S
S1842 N1844 1.610 . S
N1843 S1842 1.613 . S
N1843 C1846 1.350 . S
N1844 S1842 1.610 . S
N1844 C1845 1.351 . S
C1845 C1839 1.428 . S
C1845 N1844 1.351 . S
C1845 C1846 1.434 . S
C1846 C1837 1.429 . S
C1846 N1843 1.350 . S
C1846 C1845 1.434 . S
C1847 C1848 1.369 . S
C1847 C1849 1.419 . S
C1847 H1851 0.930 . S
C1848 C1847 1.369 . S
C1848 C1857 1.429 . S
C1849 C1847 1.419 . S
C1849 C1850 1.363 . S
C1849 H1852 0.929 . S
C1850 C1849 1.363 . S
C1850 C1856 1.428 . S
H1851 C1847 0.930 . S
H1852 C1849 0.929 . S
S1853 N1854 1.613 . S
S1853 N1855 1.610 . S
N1854 S1853 1.613 . S
N1854 C1857 1.350 . S
N1855 S1853 1.610 . S
N1855 C1856 1.351 . S
C1856 C1850 1.428 . S
C1856 N1855 1.351 . S
C1856 C1857 1.434 . S
C1857 C1848 1.429 . S
C1857 N1854 1.350 . S
C1857 C1856 1.434 . S
C1858 C1859 1.369 . S
C1858 C1860 1.419 . S
C1858 H1862 0.930 . S
C1859 C1858 1.369 . S
C1859 C1868 1.429 . S
C1860 C1858 1.419 . S
C1860 C1861 1.363 . S
C1860 H1863 0.929 . S
C1861 C1860 1.363 . S
C1861 C1867 1.428 . S
H1862 C1858 0.930 . S
H1863 C1860 0.929 . S
S1864 N1865 1.613 . S
S1864 N1866 1.610 . S
N1865 S1864 1.613 . S
N1865 C1868 1.350 . S
N1866 S1864 1.610 . S
N1866 C1867 1.351 . S
C1867 C1861 1.428 . S
C1867 N1866 1.351 . S
C1867 C1868 1.434 . S
C1868 C1859 1.429 . S
C1868 N1865 1.350 . S
C1868 C1867 1.434 . S
C1869 C1870 1.369 . S
C1869 C1871 1.419 . S
C1869 H1873 0.930 . S
C1870 C1869 1.369 . S
C1870 C1879 1.429 . S
C1871 C1869 1.419 . S
C1871 C1872 1.363 . S
C1871 H1874 0.929 . S
C1872 C1871 1.363 . S
C1872 C1878 1.428 . S
H1873 C1869 0.930 . S
H1874 C1871 0.929 . S
S1875 N1876 1.613 . S
S1875 N1877 1.610 . S
N1876 S1875 1.613 . S
N1876 C1879 1.350 . S
N1877 S1875 1.610 . S
N1877 C1878 1.351 . S
C1878 C1872 1.428 . S
C1878 N1877 1.351 . S
C1878 C1879 1.434 . S
C1879 C1870 1.429 . S
C1879 N1876 1.350 . S
C1879 C1878 1.434 . S
C1880 C1881 1.369 . S
C1880 C1882 1.419 . S
C1880 H1884 0.930 . S
C1881 C1880 1.369 . S
C1881 C1890 1.429 . S
C1882 C1880 1.419 . S
C1882 C1883 1.363 . S
C1882 H1885 0.929 . S
C1883 C1882 1.363 . S
C1883 C1889 1.428 . S
H1884 C1880 0.930 . S
H1885 C1882 0.929 . S
S1886 N1887 1.613 . S
S1886 N1888 1.610 . S
N1887 S1886 1.613 . S
N1887 C1890 1.350 . S
N1888 S1886 1.610 . S
N1888 C1889 1.351 . S
C1889 C1883 1.428 . S
C1889 N1888 1.351 . S
C1889 C1890 1.434 . S
C1890 C1881 1.429 . S
C1890 N1887 1.350 . S
C1890 C1889 1.434 . S
C1891 C1892 1.369 . S
C1891 C1893 1.419 . S
C1891 H1895 0.930 . S
C1892 C1891 1.369 . S
C1892 C1901 1.429 . S
C1893 C1891 1.419 . S
C1893 C1894 1.363 . S
C1893 H1896 0.929 . S
C1894 C1893 1.363 . S
C1894 C1900 1.428 . S
H1895 C1891 0.930 . S
H1896 C1893 0.929 . S
S1897 N1898 1.613 . S
S1897 N1899 1.610 . S
N1898 S1897 1.613 . S
N1898 C1901 1.350 . S
N1899 S1897 1.610 . S
N1899 C1900 1.351 . S
C1900 C1894 1.428 . S
C1900 N1899 1.351 . S
C1900 C1901 1.434 . S
C1901 C1892 1.429 . S
C1901 N1898 1.350 . S
C1901 C1900 1.434 . S
C1902 C1903 1.369 . S
C1902 C1904 1.419 . S
C1902 H1906 0.930 . S
C1903 C1902 1.369 . S
C1903 C1912 1.429 . S
C1904 C1902 1.419 . S
C1904 C1905 1.363 . S
C1904 H1907 0.929 . S
C1905 C1904 1.363 . S
C1905 C1911 1.428 . S
H1906 C1902 0.930 . S
H1907 C1904 0.929 . S
S1908 N1909 1.613 . S
S1908 N1910 1.610 . S
N1909 S1908 1.613 . S
N1909 C1912 1.350 . S
N1910 S1908 1.610 . S
N1910 C1911 1.351 . S
C1911 C1905 1.428 . S
C1911 N1910 1.351 . S
C1911 C1912 1.434 . S
C1912 C1903 1.429 . S
C1912 N1909 1.350 . S
C1912 C1911 1.434 . S
C1913 C1914 1.369 . S
C1913 C1915 1.419 . S
C1913 H1917 0.930 . S
C1914 C1913 1.369 . S
C1914 C1923 1.429 . S
C1915 C1913 1.419 . S
C1915 C1916 1.363 . S
C1915 H1918 0.929 . S
C1916 C1915 1.363 . S
C1916 C1922 1.428 . S
H1917 C1913 0.930 . S
H1918 C1915 0.929 . S
S1919 N1920 1.613 . S
S1919 N1921 1.610 . S
N1920 S1919 1.613 . S
N1920 C1923 1.350 . S
N1921 S1919 1.610 . S
N1921 C1922 1.351 . S
C1922 C1916 1.428 . S
C1922 N1921 1.351 . S
C1922 C1923 1.434 . S
C1923 C1914 1.429 . S
C1923 N1920 1.350 . S
C1923 C1922 1.434 . S
C1924 C1925 1.369 . S
C1924 C1926 1.419 . S
C1924 H1928 0.930 . S
C1925 C1924 1.369 . S
C1925 C1934 1.429 . S
C1926 C1924 1.419 . S
C1926 C1927 1.363 . S
C1926 H1929 0.929 . S
C1927 C1926 1.363 . S
C1927 C1933 1.428 . S
H1928 C1924 0.930 . S
H1929 C1926 0.929 . S
S1930 N1931 1.613 . S
S1930 N1932 1.610 . S
N1931 S1930 1.613 . S
N1931 C1934 1.350 . S
N1932 S1930 1.610 . S
N1932 C1933 1.351 . S
C1933 C1927 1.428 . S
C1933 N1932 1.351 . S
C1933 C1934 1.434 . S
C1934 C1925 1.429 . S
C1934 N1931 1.350 . S
C1934 C1933 1.434 . S
C1935 C1936 1.369 . S
C1935 C1937 1.419 . S
C1935 H1939 0.930 . S
C1936 C1935 1.369 . S
C1936 C1945 1.429 . S
C1937 C1935 1.419 . S
C1937 C1938 1.363 . S
C1937 H1940 0.929 . S
C1938 C1937 1.363 . S
C1938 C1944 1.428 . S
H1939 C1935 0.930 . S
H1940 C1937 0.929 . S
S1941 N1942 1.613 . S
S1941 N1943 1.610 . S
N1942 S1941 1.613 . S
N1942 C1945 1.350 . S
N1943 S1941 1.610 . S
N1943 C1944 1.351 . S
C1944 C1938 1.428 . S
C1944 N1943 1.351 . S
C1944 C1945 1.434 . S
C1945 C1936 1.429 . S
C1945 N1942 1.350 . S
C1945 C1944 1.434 . S
C1946 C1947 1.369 . S
C1946 C1948 1.419 . S
C1946 H1950 0.930 . S
C1947 C1946 1.369 . S
C1947 C1956 1.429 . S
C1948 C1946 1.419 . S
C1948 C1949 1.363 . S
C1948 H1951 0.929 . S
C1949 C1948 1.363 . S
C1949 C1955 1.428 . S
H1950 C1946 0.930 . S
H1951 C1948 0.929 . S
S1952 N1953 1.613 . S
S1952 N1954 1.610 . S
N1953 S1952 1.613 . S
N1953 C1956 1.350 . S
N1954 S1952 1.610 . S
N1954 C1955 1.351 . S
C1955 C1949 1.428 . S
C1955 N1954 1.351 . S
C1955 C1956 1.434 . S
C1956 C1947 1.429 . S
C1956 N1953 1.350 . S
C1956 C1955 1.434 . S
C1957 C1958 1.369 . S
C1957 C1959 1.419 . S
C1957 H1961 0.930 . S
C1958 C1957 1.369 . S
C1958 C1967 1.429 . S
C1959 C1957 1.419 . S
C1959 C1960 1.363 . S
C1959 H1962 0.929 . S
C1960 C1959 1.363 . S
C1960 C1966 1.428 . S
H1961 C1957 0.930 . S
H1962 C1959 0.929 . S
S1963 N1964 1.613 . S
S1963 N1965 1.610 . S
N1964 S1963 1.613 . S
N1964 C1967 1.350 . S
N1965 S1963 1.610 . S
N1965 C1966 1.351 . S
C1966 C1960 1.428 . S
C1966 N1965 1.351 . S
C1966 C1967 1.434 . S
C1967 C1958 1.429 . S
C1967 N1964 1.350 . S
C1967 C1966 1.434 . S
C1179 C906 1.094 . S
C1177 C859 1.123 . S
C1188 C787 1.147 . S
C1190 C900 1.108 . S
C1201 C868 1.212 . S
C1199 C751 1.277 . S
C1210 C823 1.303 . S
C1212 C882 1.223 . S
C1223 C920 1.553 . S
C1221 C607 1.653 . S
C1234 C1007 1.129 . S
C1232 C643 1.167 . S
C1243 C679 1.708 . S
C1245 C934 1.634 . S
C1256 C1002 0.848 . S
C1254 C715 0.852 . S
C1265 C463 1.692 . S
C1267 C958 1.613 . S
C1278 C1013 1.186 . S
C1276 C499 1.212 . S
C1287 C535 1.638 . S
C1289 C952 1.593 . S
C1298 C571 0.899 . S
C1300 C998 0.886 . S
C1311 C1054 0.885 . S
C1309 C427 0.889 . S
C1320 C355 1.222 . S
C1322 C1065 1.204 . S
C1331 C319 0.955 . S
C1333 C1050 0.935 . S
C1344 C1059 1.266 . S
C1342 C391 1.293 . S
C1353 C175 1.241 1_455 S
C1355 C1104 1.192 . S
C1364 C211 0.504 . S
C1366 C1163 0.522 . S
C1375 C247 1.380 . S
C1377 C1120 1.270 . S
C1386 C283 0.870 . S
C1388 C1158 0.862 . S
C1399 C1122 1.310 . S
C1397 C31 1.388 . S
C1410 C1169 0.500 . S
C1408 C67 0.493 . S
C1419 C103 1.218 . S
C1421 C1098 1.158 . S
C1432 C1154 0.833 . S
C1430 C139 0.862 . S
C1443 C890 2.002 . S
C1441 C25 1.958 . S
C1452 C61 1.700 . S
C1454 C894 1.820 . S
C1463 C97 2.001 . S
C1465 C914 2.001 . S
C1474 C133 1.420 . S
C1476 C909 1.670 . S
C1485 C169 2.025 1_455 S
C1487 C912 2.034 . S
C1498 C898 1.812 . S
C1496 C181 1.763 . S
C1507 C241 1.955 . S
C1509 C896 1.975 . S
C1520 C903 1.671 . S
C1518 C253 1.470 . S
C1531 C966 2.024 . S
C1529 C109 2.070 . S
C1540 C1 2.212 . S
C1542 C1016 2.298 . S
C1553 C964 1.672 . S
C1551 C37 1.721 . S
C1564 C1000 2.208 . S
C1562 C73 2.129 . S
C1573 C205 1.603 . S
C1575 C942 1.629 . S
C1586 C1018 2.273 . S
C1584 C217 2.193 . S
C1597 C948 1.994 . S
C1595 C277 1.940 . S
C1608 C994 2.237 . S
C1606 C145 2.161 1_455 S
C1619 C986 2.137 . S
C1617 C289 1.975 . S
C1628 C325 1.889 . S
C1630 C1010 2.098 . S
C1641 C946 1.796 . S
C1639 C313 1.677 . S
C1652 C972 2.123 . S
C1650 C361 1.929 . S
C1661 C397 1.696 . S
C1663 C950 1.725 . S
C1672 C421 1.856 . S
C1674 C1004 2.111 . S
C1685 C961 2.095 . S
C1683 C349 1.808 . S
C1696 C955 2.152 . S
C1694 C385 1.869 1_554 S
C1707 C1038 2.448 . S
C1705 C457 2.238 . S
C1718 C1070 2.226 . S
C1716 C493 1.952 . S
C1727 C529 2.202 . S
C1729 C1024 2.428 . S
C1740 C1068 1.854 . S
C1738 C565 1.633 . S
C1751 C1056 2.398 . S
C1749 C601 2.179 . S
C1760 C613 1.965 . S
C1762 C1052 2.177 . S
C1771 C673 2.259 . S
C1773 C1062 2.485 . S
C1784 C1046 1.813 . S
C1782 C685 1.638 . S
C1795 C1111 1.999 . S
C1793 C541 1.952 . S
C1804 C433 2.079 . S
C1806 C1172 2.247 . S
C1817 C1106 1.871 . S
C1815 C469 1.628 . S
C1828 C1156 2.257 . S
C1826 C505 2.041 . S
C1839 C1102 1.798 . S
C1837 C637 1.502 . S
C1848 C649 1.991 . S
C1850 C1174 2.170 . S
C1861 C1117 1.931 . S
C1859 C709 1.821 . S
C1872 C1150 2.102 . S
C1870 C577 1.958 . S
C1883 C1142 2.206 . S
C1881 C721 2.090 . S
C1892 C757 2.130 . S
C1894 C1166 2.209 . S
C1905 C1108 1.871 . S
C1903 C745 1.835 . S
C1914 C793 2.197 . S
C1916 C1128 2.271 . S
C1927 C1090 1.899 . S
C1925 C829 1.957 . S
C1938 C1160 2.142 . S
C1936 C853 1.952 . S
C1949 C1076 1.912 . S
C1947 C781 1.916 . S
C1958 C817 1.858 . S
C1960 C1114 1.886 . S
