# Generated by pormake.
# Topology wbl, (4,4)-cn, num edge types: 1
# Building blocks:
#     Node 0, Type 0, BuildingBlock: NAWXER_clean_linker_0, # of connection points: 4
#     Node 1, Type 0, BuildingBlock: NAWXER_clean_linker_0, # of connection points: 4
#     Node 2, Type 0, BuildingBlock: NAWXER_clean_linker_0, # of connection points: 4
#     Node 3, Type 0, BuildingBlock: NAWXER_clean_linker_0, # of connection points: 4
#     Node 4, Type 0, BuildingBlock: NAWXER_clean_linker_0, # of connection points: 4
#     Node 5, Type 0, BuildingBlock: NAWXER_clean_linker_0, # of connection points: 4
#     Node 6, Type 0, BuildingBlock: NAWXER_clean_linker_0, # of connection points: 4
#     Node 7, Type 0, BuildingBlock: NAWXER_clean_linker_0, # of connection points: 4
#     Node 8, Type 1, BuildingBlock: CEKHIL_clean_sbu_0, # of connection points: 4
#     Node 9, Type 1, BuildingBlock: CEKHIL_clean_sbu_0, # of connection points: 4
#     Node 10, Type 1, BuildingBlock: CEKHIL_clean_sbu_0, # of connection points: 4
#     Node 11, Type 1, BuildingBlock: CEKHIL_clean_sbu_0, # of connection points: 4
#     Node 12, Type 1, BuildingBlock: CEKHIL_clean_sbu_0, # of connection points: 4
#     Node 13, Type 1, BuildingBlock: CEKHIL_clean_sbu_0, # of connection points: 4
#     Node 14, Type 1, BuildingBlock: CEKHIL_clean_sbu_0, # of connection points: 4
#     Node 15, Type 1, BuildingBlock: CEKHIL_clean_sbu_0, # of connection points: 4
#     Edge 16, Type (0, 1), BuildingBlock: MIFKUJ_clean_linker_0, # of connection points: 2
#     Edge 17, Type (0, 1), BuildingBlock: MIFKUJ_clean_linker_0, # of connection points: 2
#     Edge 18, Type (0, 1), BuildingBlock: MIFKUJ_clean_linker_0, # of connection points: 2
#     Edge 19, Type (0, 1), BuildingBlock: MIFKUJ_clean_linker_0, # of connection points: 2
#     Edge 20, Type (0, 1), BuildingBlock: MIFKUJ_clean_linker_0, # of connection points: 2
#     Edge 21, Type (0, 1), BuildingBlock: MIFKUJ_clean_linker_0, # of connection points: 2
#     Edge 22, Type (0, 1), BuildingBlock: MIFKUJ_clean_linker_0, # of connection points: 2
#     Edge 23, Type (0, 1), BuildingBlock: MIFKUJ_clean_linker_0, # of connection points: 2
#     Edge 24, Type (0, 1), BuildingBlock: MIFKUJ_clean_linker_0, # of connection points: 2
#     Edge 25, Type (0, 1), BuildingBlock: MIFKUJ_clean_linker_0, # of connection points: 2
#     Edge 26, Type (0, 1), BuildingBlock: MIFKUJ_clean_linker_0, # of connection points: 2
#     Edge 27, Type (0, 1), BuildingBlock: MIFKUJ_clean_linker_0, # of connection points: 2
#     Edge 28, Type (0, 1), BuildingBlock: MIFKUJ_clean_linker_0, # of connection points: 2
#     Edge 29, Type (0, 1), BuildingBlock: MIFKUJ_clean_linker_0, # of connection points: 2
#     Edge 30, Type (0, 1), BuildingBlock: MIFKUJ_clean_linker_0, # of connection points: 2
#     Edge 31, Type (0, 1), BuildingBlock: MIFKUJ_clean_linker_0, # of connection points: 2
#     Edge 32, Type (0, 1), BuildingBlock: MIFKUJ_clean_linker_0, # of connection points: 2
#     Edge 33, Type (0, 1), BuildingBlock: MIFKUJ_clean_linker_0, # of connection points: 2
#     Edge 34, Type (0, 1), BuildingBlock: MIFKUJ_clean_linker_0, # of connection points: 2
#     Edge 35, Type (0, 1), BuildingBlock: MIFKUJ_clean_linker_0, # of connection points: 2
#     Edge 36, Type (0, 1), BuildingBlock: MIFKUJ_clean_linker_0, # of connection points: 2
#     Edge 37, Type (0, 1), BuildingBlock: MIFKUJ_clean_linker_0, # of connection points: 2
#     Edge 38, Type (0, 1), BuildingBlock: MIFKUJ_clean_linker_0, # of connection points: 2
#     Edge 39, Type (0, 1), BuildingBlock: MIFKUJ_clean_linker_0, # of connection points: 2
#     Edge 40, Type (0, 1), BuildingBlock: MIFKUJ_clean_linker_0, # of connection points: 2
#     Edge 41, Type (0, 1), BuildingBlock: MIFKUJ_clean_linker_0, # of connection points: 2
#     Edge 42, Type (0, 1), BuildingBlock: MIFKUJ_clean_linker_0, # of connection points: 2
#     Edge 43, Type (0, 1), BuildingBlock: MIFKUJ_clean_linker_0, # of connection points: 2
#     Edge 44, Type (0, 1), BuildingBlock: MIFKUJ_clean_linker_0, # of connection points: 2
#     Edge 45, Type (0, 1), BuildingBlock: MIFKUJ_clean_linker_0, # of connection points: 2
#     Edge 46, Type (0, 1), BuildingBlock: MIFKUJ_clean_linker_0, # of connection points: 2
#     Edge 47, Type (0, 1), BuildingBlock: MIFKUJ_clean_linker_0, # of connection points: 2
# Relax obj value: 0.169
# Max RMSD: 0.172
# Mean RMSD: 0.144
data_MOF--net-wbl--node1-CEKHIL_clean_sbu_0--node2-NAWXER_clean_linker_0--edge1-MIFKUJ_clean_linker_0
_symmetry_space_group_name_H-M    P1
_symmetry_Int_Tables_number       1
_symmetry_cell_setting            triclinic
loop_
_symmetry_equiv_pos_as_xyz
'x, y, z'
_cell_length_a     55.755092
_cell_length_b     56.034004
_cell_length_c     97.826897
_cell_angle_alpha  90.270615
_cell_angle_beta   90.107603
_cell_angle_gamma 90.024391
loop_
_atom_site_label
_atom_site_type_symbol
_atom_site_fract_x
_atom_site_fract_y
_atom_site_fract_z
_atom_type_partial_charge
C0 C 0.09006 0.96541 0.3488 0.0
C1 C 0.10218 0.97427 0.36037 0.0
C2 C 0.07579 0.98047 0.34087 0.0
C3 C 0.07376 0.00484 0.34414 0.0
C4 C 0.09999 0.99866 0.36367 0.0
C5 C 0.08589 0.01375 0.35565 0.0
C6 C 0.05791 0.02077 0.33613 0.0
C7 C 0.11637 0.99723 0.30831 0.0
C8 C 0.10845 0.97986 0.29894 0.0
C9 C 0.09986 0.01108 0.31551 0.0
C10 C 0.07518 0.00782 0.31341 0.0
C11 C 0.08374 0.97704 0.29659 0.0
C12 C 0.06721 0.99115 0.30368 0.0
C13 C 0.0577 0.02119 0.32172 0.0
C14 C 0.98508 0.09889 0.30951 0.0
C15 C 0.97239 0.08732 0.29895 0.0
C16 C 0.00282 0.08673 0.31683 0.0
C17 C 0.00778 0.06265 0.31389 0.0
C18 C 0.97861 0.06374 0.29547 0.0
C19 C 0.99607 0.05156 0.30288 0.0
C20 C 0.02511 0.04868 0.32207 0.0
C21 C 0.9674 0.07204 0.35175 0.0
C22 C 0.97608 0.0852 0.36297 0.0
C23 C 0.98334 0.06017 0.34302 0.0
C24 C 0.00824 0.06181 0.34519 0.0
C25 C 0.00095 0.08669 0.36514 0.0
C26 C 0.01685 0.07508 0.35636 0.0
C27 C 0.02548 0.04854 0.33654 0.0
H28 H 0.09136 0.94677 0.34593 0.0
H29 H 0.06597 0.97288 0.33234 0.0
H30 H 0.10859 0.006 0.37268 0.0
H31 H 0.08431 0.03239 0.3585 0.0
H32 H 0.13532 -0.00037 0.31036 0.0
H33 H 0.10633 0.02406 0.32289 0.0
H34 H 0.07725 0.96387 0.28933 0.0
H35 H 0.04821 0.98851 0.3019 0.0
H36 H 0.98078 0.11704 0.31245 0.0
H37 H 0.01227 0.096 0.32494 0.0
H38 H 0.96968 0.05452 0.28714 0.0
H39 H -5e-05 0.03316 0.30022 0.0
H40 H 0.9483 0.07035 0.34996 0.0
H41 H 0.97619 0.0494 0.33475 0.0
H42 H 0.00813 0.09686 0.37366 0.0
H43 H 0.03594 0.07642 0.35831 0.0
N44 N 0.04196 0.03466 0.34298 0.0
N45 N 0.04121 0.0349 0.31523 0.0
C46 C 0.95065 0.47385 0.6015 0.0
C47 C 0.96319 0.45875 0.61046 0.0
C48 C 0.96287 0.49111 0.59395 0.0
C49 C 0.98789 0.4934 0.5951 0.0
C50 C 0.98826 0.46094 0.61145 0.0
C51 C 0.00045 0.47818 0.6039 0.0
C52 C 0.00104 0.51218 0.58762 0.0
C53 C 0.97431 0.45992 0.55674 0.0
C54 C 0.95363 0.46866 0.55024 0.0
C55 C 0.98934 0.47532 0.564 0.0
C56 C 0.98402 0.49973 0.5648 0.0
C57 C 0.94855 0.49319 0.55085 0.0
C58 C 0.96384 0.5087 0.55797 0.0
C59 C 0.99886 0.51554 0.57339 0.0
C60 C 0.08316 0.57845 0.5623 0.0
C61 C 0.07348 0.59723 0.55455 0.0
C62 C 0.06815 0.56183 0.56852 0.0
C63 C 0.04319 0.56351 0.56702 0.0
C64 C 0.04843 0.59827 0.55267 0.0
C65 C 0.03344 0.58137 0.55874 0.0
C66 C 0.02735 0.54711 0.57452 0.0
C67 C 0.05409 0.60072 0.60528 0.0
C68 C 0.06644 0.59124 0.61652 0.0
C69 C 0.04213 0.58561 0.59613 0.0
C70 C 0.04287 0.56069 0.59784 0.0
C71 C 0.06732 0.56637 0.61819 0.0
C72 C 0.05566 0.55125 0.60893 0.0
C73 C 0.02873 0.5445 0.58887 0.0
H74 H 0.93129 0.47296 0.60072 0.0
H75 H 0.95269 0.50307 0.5875 0.0
H76 H 0.99846 0.44945 0.61818 0.0
H77 H 0.01975 0.47966 0.60495 0.0
H78 H 0.9785 0.44104 0.55653 0.0
H79 H 0.00489 0.46813 0.56921 0.0
H80 H 0.93276 0.50032 0.54586 0.0
H81 H 0.95951 0.52752 0.55852 0.0
H82 H 0.10234 0.57669 0.56369 0.0
H83 H 0.076 0.54783 0.57468 0.0
H84 H 0.04028 0.6126 0.54692 0.0
H85 H 0.0142 0.58287 0.55745 0.0
H86 H 0.05276 0.61985 0.60392 0.0
H87 H 0.03159 0.59353 0.58803 0.0
H88 H 0.07676 0.55863 0.62678 0.0
H89 H 0.05636 0.53215 0.61056 0.0
N90 N 0.01579 0.52686 0.59483 0.0
N91 N 0.01219 0.53278 0.5673 0.0
C92 C 0.54871 0.43724 0.84419 0.0
C93 C 0.56166 0.4465 0.85537 0.0
C94 C 0.53287 0.4517 0.83689 0.0
C95 C 0.53006 0.47591 0.84037 0.0
C96 C 0.5587 0.47071 0.85888 0.0
C97 C 0.54305 0.48522 0.85147 0.0
C98 C 0.51265 0.49125 0.83305 0.0
C99 C 0.56913 0.47167 0.80329 0.0
C100 C 0.56162 0.45326 0.79447 0.0
C101 C 0.55241 0.48459 0.81086 0.0
C102 C 0.52789 0.47939 0.80973 0.0
C103 C 0.537 0.44843 0.79309 0.0
C104 C 0.52019 0.46164 0.80056 0.0
C105 C 0.51058 0.49172 0.81867 0.0
C106 C 0.4393 0.57139 0.80996 0.0
C107 C 0.42324 0.56039 0.8008 0.0
C108 C 0.45763 0.55818 0.81607 0.0
C109 C 0.46002 0.5337 0.81324 0.0
C110 C 0.42653 0.53618 0.79744 0.0
C111 C 0.44483 0.52299 0.80357 0.0
C112 C 0.47796 0.519 0.82046 0.0
C113 C 0.42481 0.54316 0.85268 0.0
C114 C 0.43523 0.55568 0.86366 0.0
C115 C 0.43931 0.5314 0.84312 0.0
C116 C 0.46445 0.53246 0.84422 0.0
C117 C 0.46034 0.55691 0.86465 0.0
C118 C 0.47477 0.54538 0.85505 0.0
C119 C 0.48025 0.51884 0.83487 0.0
H120 H 0.55059 0.41873 0.84115 0.0
H121 H 0.52247 0.44377 0.82869 0.0
H122 H 0.56792 0.47835 0.86761 0.0
H123 H 0.54096 0.50374 0.85448 0.0
H124 H 0.58801 0.47562 0.80463 0.0
H125 H 0.55865 0.49836 0.81783 0.0
H126 H 0.53081 0.43441 0.78628 0.0
H127 H 0.50129 0.45746 0.79956 0.0
H128 H 0.43722 0.58999 0.81278 0.0
H129 H 0.46958 0.56696 0.82324 0.0
H130 H 0.41472 0.52733 0.79022 0.0
H131 H 0.44661 0.50421 0.80108 0.0
H132 H 0.4055 0.54168 0.8518 0.0
H133 H 0.43085 0.52096 0.83511 0.0
H134 H 0.46883 0.5666 0.87295 0.0
H135 H 0.49409 0.54636 0.85616 0.0
N136 N 0.49755 0.505 0.84057 0.0
N137 N 0.49319 0.50536 0.81289 0.0
C138 C 0.49828 0.92357 0.05605 0.0
C139 C 0.4807 0.9315 0.0468 0.0
C140 C 0.51184 0.93989 0.06358 0.0
C141 C 0.50796 0.96448 0.06213 0.0
C142 C 0.47715 0.95616 0.04516 0.0
C143 C 0.49084 0.97253 0.05269 0.0
C144 C 0.52185 0.98171 0.07041 0.0
C145 C 0.4727 0.94536 0.10067 0.0
C146 C 0.48494 0.93134 0.11034 0.0
C147 C 0.48532 0.96068 0.09203 0.0
C148 C 0.51041 0.96226 0.0929 0.0
C149 C 0.51015 0.93255 0.11087 0.0
C150 C 0.5227 0.94804 0.10234 0.0
C151 C 0.52381 0.9799 0.08474 0.0
C152 C 0.57186 0.07096 0.10173 0.0
C153 C 0.5857 0.06197 0.11255 0.0
C154 C 0.56058 0.05532 0.09255 0.0
C155 C 0.5635 0.0305 0.09388 0.0
C156 C 0.58884 0.0372 0.11373 0.0
C157 C 0.57783 0.02164 0.1045 0.0
C158 C 0.5501 0.01345 0.08513 0.0
C159 C 0.59776 0.05629 0.05829 0.0
C160 C 0.58575 0.06929 0.04809 0.0
C161 C 0.58604 0.03806 0.06531 0.0
C162 C 0.5618 0.03299 0.06263 0.0
C163 C 0.56199 0.06294 0.04477 0.0
C164 C 0.55014 0.04506 0.052 0.0
C165 C 0.54845 0.01511 0.07073 0.0
H166 H 0.50129 0.90469 0.05765 0.0
H167 H 0.52532 0.93327 0.07059 0.0
H168 H 0.4639 0.96278 0.038 0.0
H169 H 0.48776 0.99147 0.05134 0.0
H170 H 0.4533 0.94521 0.10012 0.0
H171 H 0.47544 0.97186 0.085 0.0
H172 H 0.52021 0.92171 0.11799 0.0
H173 H 0.54206 0.94902 0.10316 0.0
H174 H 0.56893 0.08998 0.10073 0.0
H175 H 0.54904 0.0626 0.0847 0.0
H176 H 0.59954 0.02984 0.12195 0.0
H177 H 0.58022 0.00259 0.10579 0.0
H178 H 0.61601 0.0606 0.06119 0.0
H179 H 0.59584 0.0283 0.07304 0.0
H180 H 0.55237 0.07198 0.03668 0.0
H181 H 0.53162 0.04108 0.0495 0.0
N182 N 0.53417 0.99928 0.06394 0.0
N183 N 0.53788 0.99577 0.09152 0.0
C184 C 0.062 0.58363 0.90391 0.0
C185 C 0.07553 0.57238 0.89363 0.0
C186 C 0.04599 0.57048 0.91186 0.0
C187 C 0.04345 0.54577 0.90982 0.0
C188 C 0.07295 0.54763 0.89162 0.0
C189 C 0.05697 0.53449 0.89959 0.0
C190 C 0.026 0.5318 0.91789 0.0
C191 C 0.08348 0.55524 0.94661 0.0
C192 C 0.07591 0.57345 0.95554 0.0
C193 C 0.06676 0.54196 0.93919 0.0
C194 C 0.04218 0.54667 0.94054 0.0
C195 C 0.05126 0.57792 0.95704 0.0
C196 C 0.03448 0.56442 0.94968 0.0
C197 C 0.02459 0.53322 0.93228 0.0
C198 C 0.95202 0.45634 0.94492 0.0
C199 C 0.93888 0.46784 0.95528 0.0
C200 C 0.96931 0.46878 0.9375 0.0
C201 C 0.97346 0.49312 0.9401 0.0
C202 C 0.94391 0.49191 0.95829 0.0
C203 C 0.96105 0.5044 0.95077 0.0
C204 C 0.99116 0.50676 0.93202 0.0
C205 C 0.93399 0.48702 0.90102 0.0
C206 C 0.94173 0.46921 0.8919 0.0
C207 C 0.95042 0.4984 0.90969 0.0
C208 C 0.97484 0.49236 0.90918 0.0
C209 C 0.96609 0.46286 0.89162 0.0
C210 C 0.98257 0.47458 0.90007 0.0
C211 C 0.99253 0.5054 0.91761 0.0
H212 H 0.06317 0.60273 0.90552 0.0
H213 H 0.03523 0.57974 0.91941 0.0
H214 H 0.08324 0.53842 0.88384 0.0
H215 H 0.0552 0.51547 0.89779 0.0
H216 H 0.10239 0.55156 0.94518 0.0
H217 H 0.07303 0.52811 0.9323 0.0
H218 H 0.04499 0.59173 0.96394 0.0
H219 H 0.01554 0.56818 0.9509 0.0
H220 H 0.94858 0.43786 0.94228 0.0
H221 H 0.97933 0.45936 0.9297 0.0
H222 H 0.93449 0.50118 0.9664 0.0
H223 H 0.9643 0.52303 0.95315 0.0
H224 H 0.9153 0.49225 0.90136 0.0
H225 H 0.94417 0.51229 0.91655 0.0
H226 H 0.97249 0.44939 0.88453 0.0
H227 H 0.00138 0.46982 0.89949 0.0
N228 N 0.00998 0.51784 0.9111 0.0
N229 N 0.00718 0.52077 0.93881 0.0
C230 C 0.45087 0.56357 0.15562 0.0
C231 C 0.46349 0.57772 0.14621 0.0
C232 C 0.46299 0.54683 0.16363 0.0
C233 C 0.48795 0.54408 0.16247 0.0
C234 C 0.48856 0.57535 0.14537 0.0
C235 C 0.50062 0.55858 0.15334 0.0
C236 C 0.5008 0.52505 0.16993 0.0
C237 C 0.47753 0.57758 0.20148 0.0
C238 C 0.45835 0.56928 0.20945 0.0
C239 C 0.49054 0.56186 0.19331 0.0
C240 C 0.48462 0.53756 0.19295 0.0
C241 C 0.45256 0.54488 0.2092 0.0
C242 C 0.46583 0.52905 0.20111 0.0
C243 C 0.49823 0.52116 0.18409 0.0
C244 C 0.57661 0.44964 0.19481 0.0
C245 C 0.56488 0.43399 0.20378 0.0
C246 C 0.56386 0.46761 0.18817 0.0
C247 C 0.53903 0.46999 0.19016 0.0
C248 C 0.54022 0.43715 0.20623 0.0
C249 C 0.52744 0.45503 0.1995 0.0
C250 C 0.52517 0.48826 0.1827 0.0
C251 C 0.55128 0.43716 0.15006 0.0
C252 C 0.56619 0.44764 0.14019 0.0
C253 C 0.53905 0.45143 0.15952 0.0
C254 C 0.54182 0.47637 0.15938 0.0
C255 C 0.56933 0.47253 0.1403 0.0
C256 C 0.55716 0.48674 0.14975 0.0
C257 C 0.5275 0.49196 0.16848 0.0
H258 H 0.43153 0.5647 0.15637 0.0
H259 H 0.45272 0.53546 0.17037 0.0
H260 H 0.49887 0.58622 0.13839 0.0
H261 H 0.51988 0.55677 0.15228 0.0
H262 H 0.48218 0.59636 0.20137 0.0
H263 H 0.5052 0.56869 0.18721 0.0
H264 H 0.43788 0.5381 0.2153 0.0
H265 H 0.46115 0.51028 0.201 0.0
H266 H 0.59555 0.44767 0.19263 0.0
H267 H 0.57338 0.47948 0.18136 0.0
H268 H 0.53075 0.42572 0.2133 0.0
H269 H 0.50838 0.45685 0.20137 0.0
H270 H 0.54824 0.41807 0.15008 0.0
H271 H 0.52685 0.44304 0.16663 0.0
H272 H 0.5809 0.48108 0.13291 0.0
H273 H 0.55953 0.50593 0.14944 0.0
N274 N 0.51537 0.51033 0.16268 0.0
N275 N 0.51044 0.50289 0.18996 0.0
C276 C 0.47716 0.95276 0.4014 0.0
C277 C 0.46429 0.96588 0.39161 0.0
C278 C 0.49252 0.96436 0.4106 0.0
C279 C 0.49503 0.98931 0.41028 0.0
C280 C 0.46661 0.99086 0.39146 0.0
C281 C 0.48192 0.00243 0.40065 0.0
C282 C 0.51239 0.00182 0.41928 0.0
C283 C 0.4555 0.9718 0.44566 0.0
C284 C 0.46334 0.95413 0.45476 0.0
C285 C 0.47198 0.98634 0.43901 0.0
C286 C 0.49668 0.98315 0.44107 0.0
C287 C 0.488 0.95162 0.45734 0.0
C288 C 0.50458 0.96605 0.45052 0.0
C289 C 0.51414 0.99792 0.43352 0.0
C290 C 0.58605 0.07387 0.44957 0.0
C291 C 0.60229 0.06077 0.45759 0.0
C292 C 0.56749 0.06234 0.4426 0.0
C293 C 0.56504 0.03743 0.4433 0.0
C294 C 0.59886 0.036 0.45893 0.0
C295 C 0.58034 0.02445 0.45187 0.0
C296 C 0.54718 0.02486 0.4347 0.0
C297 C 0.60219 0.05376 0.40516 0.0
C298 C 0.59312 0.07239 0.39711 0.0
C299 C 0.58672 0.03986 0.41304 0.0
C300 C 0.56194 0.0443 0.41289 0.0
C301 C 0.56836 0.07703 0.39717 0.0
C302 C 0.55287 0.06292 0.40489 0.0
C303 C 0.54525 0.02887 0.42051 0.0
H304 H 0.47605 0.93347 0.40162 0.0
H305 H 0.50291 0.95378 0.41771 0.0
H306 H 0.45674 0.00149 0.38414 0.0
H307 H 0.48362 0.02167 0.40019 0.0
H308 H 0.43654 0.97457 0.4438 0.0
H309 H 0.46537 6e-05 0.43221 0.0
H310 H 0.49442 0.93825 0.46441 0.0
H311 H 0.52356 0.96357 0.45242 0.0
H312 H 0.58819 0.09292 0.44823 0.0
H313 H 0.55545 0.07283 0.43634 0.0
H314 H 0.61077 0.02546 0.46524 0.0
H315 H 0.57852 0.00526 0.45271 0.0
H316 H 0.62122 0.04983 0.40525 0.0
H317 H 0.59402 0.02534 0.41902 0.0
H318 H 0.56089 0.09108 0.39089 0.0
H319 H 0.53378 0.06649 0.40458 0.0
N320 N 0.52791 0.01729 0.41336 0.0
N321 N 0.53163 0.00943 0.4407 0.0
C322 C 0.08921 0.9849 0.65231 0.0
C323 C 0.07513 0.97143 0.64315 0.0
C324 C 0.07854 0.00183 0.66092 0.0
C325 C 0.05361 0.00545 0.66059 0.0
C326 C 0.05013 0.97476 0.6431 0.0
C327 C 0.03953 0.99171 0.65165 0.0
C328 C 0.04212 0.02437 0.66889 0.0
C329 C 0.06667 0.96874 0.698 0.0
C330 C 0.08714 0.97575 0.70539 0.0
C331 C 0.05319 0.98552 0.69087 0.0
C332 C 0.05991 0.00964 0.691 0.0
C333 C 0.09375 -4e-05 0.70563 0.0
C334 C 0.08004 0.01686 0.69859 0.0
C335 C 0.04593 0.02709 0.68306 0.0
C336 C 0.96879 0.09819 0.69758 0.0
C337 C 0.98129 0.11391 0.7063 0.0
C338 C 0.98094 0.08021 0.69053 0.0
C339 C 0.00593 0.07792 0.69176 0.0
C340 C 0.00611 0.11055 0.70818 0.0
C341 C 0.0183 0.0927 0.70098 0.0
C342 C 0.01921 0.06029 0.6834 0.0
C343 C 0.98717 0.11316 0.65375 0.0
C344 C 0.97132 0.10295 0.64415 0.0
C345 C 0.00157 0.09864 0.66199 0.0
C346 C 0.00011 0.07365 0.66093 0.0
C347 C 0.97014 0.07793 0.64307 0.0
C348 C 0.98436 0.06349 0.65135 0.0
C349 C 0.01569 0.05778 0.66913 0.0
H350 H 0.10854 0.98303 0.65246 0.0
H351 H 0.08986 0.01259 0.66752 0.0
H352 H 0.03873 0.96443 0.63632 0.0
H353 H 0.02026 0.99417 0.65124 0.0
H354 H 0.0613 0.95017 0.69755 0.0
H355 H 0.03755 0.97966 0.68519 0.0
H356 H 0.10937 0.0058 0.71133 0.0
H357 H 0.08539 0.03544 0.69883 0.0
H358 H 0.94973 0.10024 0.69581 0.0
H359 H 0.97086 0.06846 0.68382 0.0
H360 H 0.0162 0.12194 0.71507 0.0
H361 H 0.03751 0.09091 0.70231 0.0
H362 H 0.98855 0.13235 0.65485 0.0
H363 H 0.01406 0.10696 0.66903 0.0
H364 H 0.95867 0.06939 0.63556 0.0
H365 H 0.98312 0.04428 0.65021 0.0
N366 N 0.02714 0.03978 0.66249 0.0
N367 N 0.03441 0.04497 0.68982 0.0
Co368 Co 0.33127 0.67843 0.01008 0.0
O369 O 0.30646 0.6547 0.00977 0.0
O370 O 0.30223 0.69195 0.00262 0.0
C371 C 0.34423 0.67113 0.0315 0.0
O372 O 0.35227 0.70811 0.0094 0.0
Co373 Co 0.3848 0.66385 0.01317 0.0
O374 O 0.39014 0.69864 0.01518 0.0
C375 C 0.35937 0.65466 0.98724 0.0
C376 C 0.29274 0.67103 0.00455 0.0
C377 C 0.37405 0.71395 0.01225 0.0
O378 O 0.34186 0.66794 0.99123 0.0
O379 O 0.377 0.64912 0.995 0.0
O380 O 0.32551 0.68452 0.02954 0.0
O381 O 0.35286 0.66103 0.0207 0.0
Co382 Co 0.35067 0.83899 0.24792 0.0
O383 O 0.33121 0.86721 0.24878 0.0
O384 O 0.31968 0.83119 0.25539 0.0
C385 C 0.36442 0.84464 0.22655 0.0
O386 O 0.36495 0.80564 0.24797 0.0
Co387 Co 0.40597 0.84218 0.2447 0.0
O388 O 0.40415 0.80702 0.24263 0.0
C389 C 0.38327 0.85616 0.27066 0.0
C390 C 0.31456 0.85365 0.25381 0.0
C391 C 0.38502 0.79543 0.2452 0.0
O392 O 0.36357 0.84618 0.26681 0.0
O393 O 0.40142 0.85853 0.26279 0.0
O394 O 0.34339 0.8352 0.22846 0.0
O395 O 0.37525 0.85215 0.23742 0.0
Co396 Co 0.19535 0.84719 0.50108 0.0
O397 O 0.16964 0.82447 0.50219 0.0
O398 O 0.20694 0.81808 0.50921 0.0
C399 C 0.18778 0.85875 0.47947 0.0
O400 O 0.22682 0.86551 0.50093 0.0
Co401 Co 0.18546 0.9012 0.49665 0.0
O402 O 0.22046 0.90267 0.49318 0.0
C403 C 0.17472 0.87897 0.52319 0.0
C404 C 0.18519 0.8101 0.50762 0.0
C405 C 0.23451 0.88585 0.49674 0.0
O406 O 0.18663 0.86024 0.5197 0.0
O407 O 0.17033 0.89617 0.51499 0.0
O408 O 0.19991 0.83932 0.4817 0.0
O409 O 0.17916 0.86911 0.49018 0.0
Co410 Co 0.16999 0.71741 0.76223 0.0
O411 O 0.14897 0.7442 0.76009 0.0
O412 O 0.18736 0.74378 0.75427 0.0
C413 C 0.15903 0.70818 0.78371 0.0
O414 O 0.1974 0.6935 0.76361 0.0
Co415 Co 0.14929 0.66646 0.7669 0.0
O416 O 0.18298 0.65879 0.77164 0.0
C417 C 0.14628 0.68847 0.73961 0.0
C418 C 0.16727 0.75551 0.75511 0.0
C419 C 0.20043 0.67232 0.76839 0.0
O420 O 0.16059 0.70528 0.74345 0.0
O421 O 0.13809 0.67268 0.74779 0.0
O422 O 0.17451 0.72513 0.78164 0.0
O423 O 0.14918 0.69936 0.77288 0.0
Co424 Co 0.85838 0.21442 0.49619 0.0
O425 O 0.8799 0.24072 0.49891 0.0
O426 O 0.84091 0.24164 0.50325 0.0
C427 C 0.8718 0.20413 0.47528 0.0
O428 O 0.83039 0.19122 0.49398 0.0
Co429 Co 0.87749 0.16258 0.49253 0.0
O430 O 0.84446 0.15622 0.48605 0.0
C431 C 0.87489 0.18396 0.52016 0.0
C432 C 0.8614 0.25276 0.50307 0.0
C433 C 0.82714 0.17018 0.48893 0.0
O434 O 0.865 0.20293 0.51539 0.0
O435 O 0.88203 0.16653 0.51271 0.0
O436 O 0.85646 0.22144 0.47663 0.0
O437 O 0.87997 0.19531 0.48652 0.0
Co438 Co 0.82286 0.36505 0.74377 0.0
O439 O 0.79594 0.38608 0.74519 0.0
O440 O 0.79578 0.34814 0.75149 0.0
C441 C 0.83335 0.37475 0.72231 0.0
O442 O 0.84716 0.33795 0.74314 0.0
Co443 Co 0.87391 0.38666 0.74016 0.0
O444 O 0.88276 0.35292 0.73649 0.0
C445 C 0.84975 0.39015 0.76672 0.0
C446 C 0.78418 0.36817 0.7502 0.0
C447 C 0.86911 0.33533 0.73931 0.0
O448 O 0.83392 0.37499 0.76264 0.0
O449 O 0.8657 0.39905 0.75885 0.0
O450 O 0.8161 0.35959 0.72438 0.0
O451 O 0.84152 0.38531 0.73311 0.0
Co452 Co 0.67683 0.33136 0.99297 0.0
O453 O 0.65279 0.30707 0.99479 0.0
O454 O 0.69078 0.30326 0.00112 0.0
C455 C 0.66748 0.34148 0.97134 0.0
O456 O 0.70693 0.35187 0.9922 0.0
Co457 Co 0.66287 0.38433 0.98802 0.0
O458 O 0.69769 0.38883 0.98507 0.0
C459 C 0.65563 0.36276 0.01519 0.0
C460 C 0.66954 0.29385 3e-05 0.0
C461 C 0.71299 0.37298 0.98839 0.0
O462 O 0.66803 0.3444 0.01159 0.0
O463 O 0.64991 0.37942 0.00688 0.0
O464 O 0.68109 0.3231 0.97365 0.0
O465 O 0.65858 0.35168 0.98203 0.0
Co466 Co 0.69664 0.18666 0.25688 0.0
O467 O 0.66831 0.20571 0.25487 0.0
O468 O 0.70481 0.21659 0.24837 0.0
C469 C 0.69011 0.17585 0.27867 0.0
O470 O 0.73007 0.17221 0.25779 0.0
Co471 Co 0.69236 0.13219 0.26209 0.0
O472 O 0.72747 0.13423 0.265 0.0
C473 C 0.68031 0.15173 0.23507 0.0
C474 C 0.68212 0.22168 0.24941 0.0
C475 C 0.73974 0.15253 0.2617 0.0
O476 O 0.69022 0.17163 0.23845 0.0
O477 O 0.67732 0.13456 0.24349 0.0
O478 O 0.69965 0.19646 0.27599 0.0
O479 O 0.68283 0.16368 0.26821 0.0
H480 H 0.10757 0.93132 0.29703 0.0
H481 H 0.13881 0.90524 0.28755 0.0
H482 H 0.18015 0.9671 0.27614 0.0
H483 H 0.14904 0.99319 0.28559 0.0
H484 H 0.17894 0.93076 0.25593 0.0
H485 H 0.19313 0.94068 0.30468 0.0
H486 H 0.18156 0.93833 0.32895 0.0
H487 H 0.17032 0.86281 0.32483 0.0
H488 H 0.18147 0.86481 0.30045 0.0
H489 H 0.29979 0.89971 0.25162 0.0
H490 H 0.26081 0.91629 0.25765 0.0
H491 H 0.23664 0.84666 0.2703 0.0
H492 H 0.27594 0.82988 0.26442 0.0
H493 H 0.22457 0.88077 0.28868 0.0
H494 H 0.21597 0.86955 0.24084 0.0
H495 H 0.22719 0.87153 0.21651 0.0
H496 H 0.22706 0.94809 0.21849 0.0
H497 H 0.21618 0.94659 0.2429 0.0
C498 C 0.12316 0.93929 0.29228 0.0
C499 C 0.12603 0.96421 0.29206 0.0
C500 C 0.14097 0.92443 0.28695 0.0
C501 C 0.16178 0.93431 0.28125 0.0
C502 C 0.16419 0.95919 0.2805 0.0
C503 C 0.14653 0.97403 0.28596 0.0
C504 C 0.18179 0.91893 0.27676 0.0
C505 C 0.189 0.91986 0.26306 0.0
C506 C 0.19433 0.90417 0.28603 0.0
C507 C 0.18783 0.90294 0.30071 0.0
C508 C 0.18799 0.92361 0.30892 0.0
C509 C 0.18154 0.92234 0.3227 0.0
C510 C 0.17513 0.90045 0.32842 0.0
C511 C 0.17523 0.87977 0.32037 0.0
C512 C 0.18162 0.88096 0.30658 0.0
C513 C 0.28619 0.88787 0.25565 0.0
C514 C 0.29088 0.86348 0.2575 0.0
C515 C 0.26387 0.89736 0.25902 0.0
C516 C 0.24572 0.88262 0.26421 0.0
C517 C 0.25039 0.85828 0.26623 0.0
C518 C 0.2728 0.84875 0.26285 0.0
C519 C 0.2222 0.89306 0.26787 0.0
C520 C 0.21429 0.89124 0.28144 0.0
C521 C 0.20892 0.90689 0.25844 0.0
C522 C 0.2154 0.90794 0.24374 0.0
C523 C 0.2185 0.88681 0.23612 0.0
C524 C 0.22477 0.88785 0.22231 0.0
C525 C 0.22787 0.90992 0.21597 0.0
C526 C 0.22466 0.93101 0.22342 0.0
C527 C 0.2184 0.93007 0.23724 0.0
H528 H 0.23273 0.91069 0.20527 0.0
H529 H 0.17014 0.8995 0.33909 0.0
H530 H 0.11355 0.61673 0.56646 0.0
H531 H 0.13826 0.64929 0.55801 0.0
H532 H 0.09316 0.65475 0.52227 0.0
H533 H 0.06934 0.621 0.53016 0.0
H534 H 0.13782 0.66175 0.5153 0.0
H535 H 0.08633 0.69174 0.55098 0.0
H536 H 0.06897 0.69281 0.57414 0.0
H537 H 0.13885 0.70515 0.59131 0.0
H538 H 0.15667 0.70385 0.56824 0.0
H539 H 0.14648 0.78473 0.49903 0.0
H540 H 0.13366 0.74527 0.50668 0.0
H541 H 0.19472 0.74159 0.53372 0.0
H542 H 0.20801 0.78103 0.52586 0.0
H543 H 0.14755 0.73211 0.54582 0.0
H544 H 0.19748 0.70706 0.50874 0.0
H545 H 0.21277 0.70729 0.48512 0.0
H546 H 0.14316 0.68742 0.47005 0.0
H547 H 0.12734 0.68743 0.49358 0.0
C548 C 0.10917 0.62441 0.55664 0.0
C549 C 0.08929 0.61626 0.54904 0.0
C550 C 0.12317 0.64328 0.55191 0.0
C551 C 0.11727 0.65481 0.53965 0.0
C552 C 0.09797 0.64623 0.53181 0.0
C553 C 0.08417 0.6271 0.53642 0.0
C554 C 0.1305 0.67642 0.53526 0.0
C555 C 0.13981 0.67717 0.52195 0.0
C556 C 0.13358 0.69639 0.54404 0.0
C557 C 0.12286 0.69743 0.5579 0.0
C558 C 0.09801 0.69453 0.5597 0.0
C559 C 0.08809 0.6952 0.57281 0.0
C560 C 0.10281 0.69897 0.58419 0.0
C561 C 0.12748 0.70218 0.58248 0.0
C562 C 0.1375 0.70149 0.56939 0.0
C563 C 0.15728 0.77545 0.50653 0.0
C564 C 0.1782 0.7859 0.51189 0.0
C565 C 0.15 0.7529 0.51084 0.0
C566 C 0.16334 0.74057 0.52069 0.0
C567 C 0.18429 0.75088 0.52605 0.0
C568 C 0.19186 0.77331 0.52155 0.0
C569 C 0.15445 0.71748 0.52583 0.0
C570 C 0.14588 0.7165 0.53927 0.0
C571 C 0.15173 0.69749 0.51711 0.0
C572 C 0.16117 0.69744 0.50293 0.0
C573 C 0.18537 0.70295 0.50038 0.0
C574 C 0.19415 0.70299 0.48701 0.0
C575 C 0.17893 0.69742 0.47608 0.0
C576 C 0.15492 0.69175 0.47852 0.0
C577 C 0.14604 0.6917 0.49188 0.0
H578 H 0.18577 0.69746 0.46574 0.0
H579 H 0.09509 0.69946 0.59434 0.0
H580 H 0.42183 0.60631 0.79114 0.0
H581 H 0.38652 0.6285 0.78333 0.0
H582 H 0.3422 0.56674 0.79063 0.0
H583 H 0.37721 0.54459 0.79844 0.0
H584 H 0.33094 0.58709 0.7668 0.0
H585 H 0.34495 0.61325 0.81339 0.0
H586 H 0.36889 0.63081 0.83214 0.0
H587 H 0.37597 0.69598 0.80957 0.0
H588 H 0.35232 0.67866 0.79061 0.0
H589 H 0.21372 0.62769 0.77652 0.0
H590 H 0.2541 0.61222 0.77965 0.0
H591 H 0.28373 0.68 0.76756 0.0
H592 H 0.24313 0.69588 0.76446 0.0
H593 H 0.30555 0.66103 0.79085 0.0
H594 H 0.28645 0.63579 0.74547 0.0
H595 H 0.26156 0.61776 0.7273 0.0
H596 H 0.26338 0.55038 0.74799 0.0
H597 H 0.28799 0.56808 0.76639 0.0
C598 C 0.40454 0.59751 0.79108 0.0
C599 C 0.4023 0.57369 0.79539 0.0
C600 C 0.38441 0.61018 0.7866 0.0
C601 C 0.36172 0.59931 0.78649 0.0
C602 C 0.35956 0.57543 0.79056 0.0
C603 C 0.37962 0.56277 0.79498 0.0
C604 C 0.33994 0.61272 0.78247 0.0
C605 C 0.32534 0.60321 0.77209 0.0
C606 C 0.33301 0.63413 0.78911 0.0
C607 C 0.34713 0.64457 0.80052 0.0
C608 C 0.35178 0.63126 0.81239 0.0
C609 C 0.36527 0.64117 0.82306 0.0
C610 C 0.37401 0.66447 0.82203 0.0
C611 C 0.36923 0.67792 0.81034 0.0
C612 C 0.35578 0.66807 0.79963 0.0
C613 C 0.22874 0.63939 0.77449 0.0
C614 C 0.22512 0.66303 0.77016 0.0
C615 C 0.25185 0.63045 0.77624 0.0
C616 C 0.27187 0.64488 0.77365 0.0
C617 C 0.26846 0.66857 0.76953 0.0
C618 C 0.24526 0.67757 0.76772 0.0
C619 C 0.29628 0.63499 0.77546 0.0
C620 C 0.31137 0.64517 0.78539 0.0
C621 C 0.30364 0.6141 0.76846 0.0
C622 C 0.28896 0.60332 0.75736 0.0
C623 C 0.28141 0.61717 0.7462 0.0
C624 C 0.26737 0.607 0.73584 0.0
C625 C 0.26086 0.58295 0.7365 0.0
C626 C 0.26843 0.569 0.74749 0.0
C627 C 0.28246 0.57909 0.75788 0.0
H628 H 0.24999 0.57511 0.72847 0.0
H629 H 0.38445 0.67212 0.8303 0.0
H630 H 0.49592 0.89082 0.03416 0.0
H631 H 0.47137 0.85944 0.024 0.0
H632 H 0.40759 0.90094 0.03172 0.0
H633 H 0.43216 0.93223 0.04238 0.0
H634 H 0.40206 0.85683 0.04057 0.0
H635 H 0.42638 0.89064 0.99873 0.0
H636 H 0.45393 0.90808 0.98182 0.0
H637 H 0.4933 0.84231 0.97992 0.0
H638 H 0.46622 0.82457 0.99698 0.0
H639 H 0.34438 0.75307 0.01221 0.0
H640 H 0.3562 0.79516 0.01378 0.0
H641 H 0.43071 0.7745 0.01395 0.0
H642 H 0.4192 0.73265 0.01238 0.0
H643 H 0.42182 0.81396 0.99755 0.0
H644 H 0.40243 0.78507 0.04337 0.0
H645 H 0.37512 0.76795 0.06055 0.0
H646 H 0.32578 0.82577 0.05441 0.0
H647 H 0.3527 0.84306 0.03706 0.0
C648 C 0.47668 0.89335 0.03362 0.0
C649 C 0.46595 0.91389 0.03916 0.0
C650 C 0.46267 0.87553 0.02765 0.0
C651 C 0.43764 0.87795 0.02694 0.0
C652 C 0.42688 0.89878 0.03208 0.0
C653 C 0.44094 0.91668 0.0381 0.0
C654 C 0.42288 0.85762 0.02202 0.0
C655 C 0.40589 0.84785 0.03097 0.0
C656 C 0.42795 0.84579 0.00954 0.0
C657 C 0.44427 0.85629 0.99919 0.0
C658 C 0.441 0.87993 0.99478 0.0
C659 C 0.45653 0.88987 0.98515 0.0
C660 C 0.47536 0.87632 0.97981 0.0
C661 C 0.47869 0.85278 0.98406 0.0
C662 C 0.46322 0.84276 0.99369 0.0
C663 C 0.36328 0.75752 0.01244 0.0
C664 C 0.38085 0.73948 0.01229 0.0
C665 C 0.36997 0.78155 0.01334 0.0
C666 C 0.39431 0.78787 0.01403 0.0
C667 C 0.41183 0.76998 0.01338 0.0
C668 C 0.40519 0.74603 0.01258 0.0
C669 C 0.4019 0.81287 0.01636 0.0
C670 C 0.4175 0.82344 0.00692 0.0
C671 C 0.39548 0.82551 0.02835 0.0
C672 C 0.3794 0.81517 0.0388 0.0
C673 C 0.38566 0.79401 0.04561 0.0
C674 C 0.37028 0.7843 0.05539 0.0
C675 C 0.34869 0.79572 0.05853 0.0
C676 C 0.34248 0.81691 0.05194 0.0
C677 C 0.35779 0.82667 0.04213 0.0
H678 H 0.3368 0.78818 0.06611 0.0
H679 H 0.48738 0.88405 0.97236 0.0
H680 H 0.07812 0.62203 0.9581 0.0
H681 H 0.11026 0.64561 0.96882 0.0
H682 H 0.1464 0.58065 0.98035 0.0
H683 H 0.11435 0.55713 0.96984 0.0
H684 H 0.1472 0.61498 0.00083 0.0
H685 H 0.16165 0.60906 0.95162 0.0
H686 H 0.15037 0.61547 0.92752 0.0
H687 H 0.14541 0.69092 0.93483 0.0
H688 H 0.15632 0.6849 0.95905 0.0
H689 H 0.27033 0.62806 0.00579 0.0
H690 H 0.22914 0.61862 -0.00041 0.0
H691 H 0.21669 0.69225 0.98896 0.0
H692 H 0.25841 0.70181 0.99494 0.0
H693 H 0.19853 0.66286 0.96993 0.0
H694 H 0.19209 0.66946 0.01807 0.0
H695 H 0.20324 0.6632 0.04218 0.0
H696 H 0.19242 0.58774 0.0374 0.0
H697 H 0.18155 0.59349 0.0132 0.0
C698 C 0.09274 0.61285 0.96314 0.0
C699 C 0.09391 0.58779 0.96307 0.0
C700 C 0.11109 0.6263 0.96918 0.0
C701 C 0.13075 0.61483 0.97526 0.0
C702 C 0.13136 0.58982 0.97571 0.0
C703 C 0.11317 0.57642 0.96962 0.0
C704 C 0.15159 0.62849 0.98044 0.0
C705 C 0.15845 0.62549 0.99412 0.0
C706 C 0.16572 0.64289 0.97175 0.0
C707 C 0.15951 0.64651 0.95717 0.0
C708 C 0.15798 0.627 0.94811 0.0
C709 C 0.15168 0.63056 0.93443 0.0
C710 C 0.1471 0.65358 0.92966 0.0
C711 C 0.14891 0.6731 0.93855 0.0
C712 C 0.15515 0.66962 0.95225 0.0
C713 C 0.25885 0.64232 0.0022 0.0
C714 C 0.26758 0.66571 0.00091 0.0
C715 C 0.23523 0.63692 0.99874 0.0
C716 C 0.21968 0.65482 0.99408 0.0
C717 C 0.22835 0.67821 0.99265 0.0
C718 C 0.25214 0.68364 0.99607 0.0
C719 C 0.19473 0.64853 0.99023 0.0
C720 C 0.18704 0.65293 0.9768 0.0
C721 C 0.17975 0.6355 0.99918 0.0
C722 C 0.18608 0.63193 0.01378 0.0
C723 C 0.19222 0.65152 0.02213 0.0
C724 C 0.19848 0.64805 0.03582 0.0
C725 C 0.19856 0.62509 0.04132 0.0
C726 C 0.19234 0.60553 0.03314 0.0
C727 C 0.18608 0.60889 0.01943 0.0
H728 H 0.20342 0.62244 0.05192 0.0
H729 H 0.14221 0.6563 0.91906 0.0
H730 H 0.40961 0.57419 0.21024 0.0
H731 H 0.38702 0.60724 0.22057 0.0
H732 H 0.45284 0.63637 0.23688 0.0
H733 H 0.4753 0.60335 0.22678 0.0
H734 H 0.41533 0.64325 0.25441 0.0
H735 H 0.43316 0.653 0.20593 0.0
H736 H 0.43113 0.64085 0.18168 0.0
H737 H 0.35421 0.64373 0.18301 0.0
H738 H 0.3558 0.65555 0.20735 0.0
H739 H 0.4242 0.76716 0.24877 0.0
H740 H 0.42638 0.72377 0.24682 0.0
H741 H 0.35047 0.72067 0.23844 0.0
H742 H 0.34801 0.76427 0.24061 0.0
H743 H 0.3808 0.69643 0.21904 0.0
H744 H 0.3658 0.69806 0.2667 0.0
H745 H 0.3703 0.7117 0.29056 0.0
H746 H 0.44384 0.68897 0.29059 0.0
H747 H 0.43991 0.67553 0.26666 0.0
C748 C 0.41909 0.58731 0.21636 0.0
C749 C 0.44419 0.58649 0.21759 0.0
C750 C 0.40621 0.60618 0.22221 0.0
C751 C 0.41833 0.62437 0.22933 0.0
C752 C 0.44315 0.62252 0.23142 0.0
C753 C 0.45599 0.60379 0.22556 0.0
C754 C 0.40613 0.64686 0.23314 0.0
C755 C 0.4076 0.65484 0.24673 0.0
C756 C 0.39554 0.66171 0.22313 0.0
C757 C 0.39458 0.65483 0.20849 0.0
C758 C 0.41581 0.65086 0.20107 0.0
C759 C 0.41475 0.64406 0.18732 0.0
C760 C 0.39255 0.64144 0.18082 0.0
C761 C 0.37138 0.6457 0.18806 0.0
C762 C 0.37235 0.65244 0.20184 0.0
C763 C 0.40791 0.75726 0.24664 0.0
C764 C 0.38595 0.7691 0.24481 0.0
C765 C 0.40916 0.73248 0.24562 0.0
C766 C 0.38854 0.71909 0.24261 0.0
C767 C 0.36651 0.73076 0.24088 0.0
C768 C 0.36516 0.7556 0.24214 0.0
C769 C 0.39082 0.69314 0.24022 0.0
C770 C 0.38762 0.68454 0.22687 0.0
C771 C 0.40006 0.67787 0.25041 0.0
C772 C 0.40257 0.68587 0.26484 0.0
C773 C 0.38299 0.69612 0.27176 0.0
C774 C 0.38543 0.7038 0.28531 0.0
C775 C 0.40735 0.70122 0.29209 0.0
C776 C 0.42686 0.69094 0.28533 0.0
C777 C 0.42453 0.68325 0.27178 0.0
H778 H 0.4092 0.70717 0.30258 0.0
H779 H 0.39177 0.63618 0.17017 0.0
H780 H 0.42667 0.92987 0.44285 0.0
H781 H 0.39279 0.91094 0.45426 0.0
H782 H 0.42559 0.92492 0.49348 0.0
H783 H 0.45955 0.94427 0.48203 0.0
H784 H 0.38347 0.87506 0.47224 0.0
H785 H 0.38023 0.94673 0.51392 0.0
H786 H 0.39589 0.98717 0.51866 0.0
H787 H 0.39685 0.00218 0.47566 0.0
H788 H 0.3809 0.96199 0.4707 0.0
H789 H 0.27086 0.85702 0.50601 0.0
H790 H 0.31407 0.86307 0.50327 0.0
H791 H 0.30049 0.92916 0.48217 0.0
H792 H 0.25756 0.92361 0.48512 0.0
H793 H 0.33695 0.93451 0.499 0.0
H794 H 0.31181 0.87569 0.465 0.0
H795 H 0.29436 0.83727 0.45758 0.0
H796 H 0.34706 0.79951 0.48113 0.0
H797 H 0.36465 0.83775 0.4888 0.0
C798 C 0.42684 0.92851 0.4539 0.0
C799 C 0.44544 0.93886 0.4616 0.0
C800 C 0.40761 0.9175 0.4604 0.0
C801 C 0.40657 0.91678 0.47471 0.0
C802 C 0.42603 0.92545 0.48242 0.0
C803 C 0.44539 0.93643 0.47589 0.0
C804 C 0.38366 0.91015 0.48131 0.0
C805 C 0.37344 0.88784 0.47832 0.0
C806 C 0.37049 0.92697 0.48908 0.0
C807 C 0.37971 0.95129 0.49195 0.0
C808 C 0.38375 0.95871 0.50549 0.0
C809 C 0.39266 0.98157 0.50822 0.0
C810 C 0.39745 0.9972 0.49747 0.0
C811 C 0.39322 0.99004 0.48397 0.0
C812 C 0.38425 0.96722 0.4812 0.0
C813 C 0.27709 0.87293 0.50087 0.0
C814 C 0.26071 0.88979 0.49573 0.0
C815 C 0.30179 0.87632 0.4993 0.0
C816 C 0.31049 0.89647 0.49243 0.0
C817 C 0.29419 0.91354 0.48758 0.0
C818 C 0.2696 0.91028 0.48923 0.0
C819 C 0.33642 0.89962 0.48963 0.0
C820 C 0.34723 0.92132 0.49335 0.0
C821 C 0.34987 0.88246 0.48224 0.0
C822 C 0.33934 0.85953 0.4776 0.0
C823 C 0.31955 0.85918 0.46867 0.0
C824 C 0.30966 0.83745 0.46441 0.0
C825 C 0.31954 0.81596 0.46892 0.0
C826 C 0.33939 0.81616 0.47767 0.0
C827 C 0.34933 0.83785 0.48197 0.0
H828 H 0.31186 0.79916 0.46561 0.0
H829 H 0.40439 0.01488 0.49959 0.0
H830 H 0.13577 0.96916 0.70478 0.0
H831 H 0.15852 0.93618 0.71502 0.0
H832 H 0.09319 0.90841 0.7324 0.0
H833 H 0.07058 0.94126 0.72235 0.0
H834 H 0.1313 0.90586 0.75028 0.0
H835 H 0.11374 0.88759 0.70233 0.0
H836 H 0.11625 0.89558 0.67759 0.0
H837 H 0.19315 0.89308 0.67972 0.0
H838 H 0.19106 0.8854 0.70452 0.0
H839 H 0.12764 0.78344 0.7567 0.0
H840 H 0.12333 0.82487 0.74987 0.0
H841 H 0.19724 0.82632 0.73694 0.0
H842 H 0.20172 0.78435 0.74372 0.0
H843 H 0.16659 0.84685 0.71812 0.0
H844 H 0.18294 0.85562 0.7654 0.0
H845 H 0.17969 0.84694 0.79 0.0
H846 H 0.10545 0.86723 0.78939 0.0
H847 H 0.10813 0.8757 0.76473 0.0
C848 C 0.12642 0.95622 0.711 0.0
C849 C 0.10142 0.95758 0.7127 0.0
C850 C 0.13938 0.93739 0.71678 0.0
C851 C 0.12748 0.91979 0.72436 0.0
C852 C 0.10271 0.92181 0.72658 0.0
C853 C 0.08979 0.94046 0.72076 0.0
C854 C 0.14011 0.89825 0.7293 0.0
C855 C 0.13913 0.89297 0.74328 0.0
C856 C 0.15105 0.88186 0.7202 0.0
C857 C 0.15226 0.88624 0.70529 0.0
C858 C 0.13118 0.88893 0.69753 0.0
C859 C 0.13252 0.89337 0.6835 0.0
C860 C 0.15484 0.89492 0.6771 0.0
C861 C 0.17587 0.89193 0.6847 0.0
C862 C 0.17462 0.88754 0.69874 0.0
C863 C 0.14305 0.7925 0.75244 0.0
C864 C 0.16506 0.78064 0.7508 0.0
C865 C 0.14059 0.81626 0.74861 0.0
C866 C 0.16008 0.82879 0.74313 0.0
C867 C 0.18204 0.81698 0.74126 0.0
C868 C 0.18456 0.79307 0.74514 0.0
C869 C 0.15679 0.854 0.73903 0.0
C870 C 0.15952 0.86 0.72522 0.0
C871 C 0.14745 0.87109 0.7483 0.0
C872 C 0.14574 0.86624 0.76318 0.0
C873 C 0.16588 0.85811 0.77049 0.0
C874 C 0.16414 0.85324 0.78445 0.0
C875 C 0.14237 0.85652 0.79125 0.0
C876 C 0.12231 0.86472 0.78411 0.0
C877 C 0.12394 0.86961 0.77014 0.0
H878 H 0.14106 0.85273 0.80207 0.0
H879 H 0.15585 0.89836 0.66623 0.0
H880 H 0.56488 0.40463 0.79303 0.0
H881 H 0.5979 0.3811 0.78325 0.0
H882 H 0.63228 0.446 0.77005 0.0
H883 H 0.59941 0.46944 0.77967 0.0
H884 H 0.63486 0.40967 0.75071 0.0
H885 H 0.64745 0.42107 0.80005 0.0
H886 H 0.63493 0.41623 0.82407 0.0
H887 H 0.63279 0.34016 0.81869 0.0
H888 H 0.64505 0.34459 0.79459 0.0
H889 H 0.75775 0.40868 0.74931 0.0
H890 H 0.71566 0.41382 0.75488 0.0
H891 H 0.71024 0.33923 0.76516 0.0
H892 H 0.753 0.33391 0.75969 0.0
H893 H 0.68765 0.36841 0.78399 0.0
H894 H 0.68503 0.35725 0.73605 0.0
H895 H 0.69739 0.36237 0.71206 0.0
H896 H 0.68009 0.43694 0.71431 0.0
H897 H 0.66796 0.43237 0.73837 0.0
C898 C 0.57928 0.41376 0.78778 0.0
C899 C 0.57975 0.43882 0.78715 0.0
C900 C 0.59813 0.40034 0.78228 0.0
C901 C 0.61758 0.41185 0.77604 0.0
C902 C 0.61742 0.43679 0.77482 0.0
C903 C 0.59874 0.45016 0.78038 0.0
C904 C 0.63909 0.39849 0.77158 0.0
C905 C 0.64638 0.40052 0.75794 0.0
C906 C 0.65362 0.38582 0.78095 0.0
C907 C 0.64686 0.38317 0.7955 0.0
C908 C 0.64419 0.40333 0.80398 0.0
C909 C 0.63716 0.40066 0.81761 0.0
C910 C 0.63294 0.37791 0.82288 0.0
C911 C 0.63598 0.35777 0.81458 0.0
C912 C 0.64298 0.36035 0.80095 0.0
C913 C 0.74771 0.39328 0.75273 0.0
C914 C 0.75868 0.37084 0.75398 0.0
C915 C 0.72356 0.39624 0.75584 0.0
C916 C 0.7097 0.37681 0.76015 0.0
C917 C 0.72062 0.3544 0.76172 0.0
C918 C 0.74498 0.3514 0.7586 0.0
C919 C 0.68397 0.38062 0.76323 0.0
C920 C 0.67584 0.3768 0.77661 0.0
C921 C 0.66858 0.39159 0.7536 0.0
C922 C 0.67562 0.39445 0.73905 0.0
C923 C 0.68397 0.37477 0.73145 0.0
C924 C 0.69093 0.37757 0.71783 0.0
C925 C 0.68953 0.39997 0.71166 0.0
C926 C 0.68113 0.4196 0.7191 0.0
C927 C 0.67417 0.41689 0.73272 0.0
H928 H 0.69494 0.4021 0.70112 0.0
H929 H 0.62735 0.37588 0.8334 0.0
H930 H 0.63339 0.07496 0.04123 0.0
H931 H 0.65262 0.11058 0.03185 0.0
H932 H 0.58404 0.14585 0.02993 0.0
H933 H 0.56481 0.11112 0.03997 0.0
H934 H 0.61434 0.14915 0.0054 0.0
H935 H 0.61609 0.15941 0.05498 0.0
H936 H 0.62696 0.14677 0.0783 0.0
H937 H 0.70145 0.14608 0.06721 0.0
H938 H 0.69095 0.15836 0.04374 0.0
H939 H 0.62605 0.27209 0.0011 0.0
H940 H 0.61721 0.23125 0.00779 0.0
H941 H 0.69243 0.21858 0.01526 0.0
H942 H 0.70141 0.25992 0.00883 0.0
H943 H 0.66583 0.19979 0.03514 0.0
H944 H 0.66567 0.19533 0.98684 0.0
H945 H 0.656 0.20709 0.96321 0.0
H946 H 0.58114 0.19525 0.97086 0.0
H947 H 0.59031 0.18375 0.99461 0.0
C948 C 0.62237 0.09034 0.03893 0.0
C949 C 0.59748 0.09007 0.04141 0.0
C950 C 0.6334 0.11057 0.03347 0.0
C951 C 0.61968 0.13072 0.03022 0.0
C952 C 0.59485 0.13033 0.03229 0.0
C953 C 0.58388 0.11034 0.03795 0.0
C954 C 0.63109 0.15271 0.02512 0.0
C955 C 0.62557 0.1603 0.01186 0.0
C956 C 0.64642 0.16667 0.03345 0.0
C957 C 0.65272 0.15949 0.04757 0.0
C958 C 0.63477 0.15633 0.05748 0.0
C959 C 0.64086 0.14928 0.07073 0.0
C960 C 0.66487 0.14554 0.07422 0.0
C961 C 0.68285 0.14892 0.06448 0.0
C962 C 0.67684 0.15593 0.05121 0.0
C963 C 0.64076 0.26065 0.00415 0.0
C964 C 0.66445 0.26916 0.00436 0.0
C965 C 0.63569 0.23724 0.0079 0.0
C966 C 0.65422 0.2217 0.01175 0.0
C967 C 0.67789 0.23024 0.01223 0.0
C968 C 0.68298 0.25381 0.00854 0.0
C969 C 0.64846 0.19675 0.0155 0.0
C970 C 0.65504 0.18851 0.02851 0.0
C971 C 0.63434 0.18201 0.00685 0.0
C972 C 0.62868 0.1888 0.99254 0.0
C973 C 0.64713 0.19538 0.98352 0.0
C974 C 0.64173 0.20199 0.9701 0.0
C975 C 0.61797 0.20195 0.96555 0.0
C976 C 0.59954 0.19527 0.9744 0.0
C977 C 0.60483 0.18867 0.98784 0.0
H978 H 0.61383 0.20708 0.95515 0.0
H979 H 0.66956 0.14009 0.08448 0.0
H980 H 0.92979 0.06705 0.29178 0.0
H981 H 0.89539 0.08586 0.28105 0.0
H982 H 0.93278 0.15324 0.28046 0.0
H983 H 0.96791 0.13427 0.29102 0.0
H984 H 0.88633 0.15664 0.29063 0.0
H985 H 0.92365 0.12673 0.25077 0.0
H986 H 0.94484 0.09755 0.23623 0.0
H987 H 0.88444 0.05015 0.23822 0.0
H988 H 0.86301 0.07886 0.25294 0.0
H989 H 0.77295 0.18868 0.25977 0.0
H990 H 0.81667 0.1853 0.26193 0.0
H991 H 0.80983 0.10926 0.26741 0.0
H992 H 0.76651 0.11235 0.26522 0.0
H993 H 0.84659 0.12082 0.25 0.0
H994 H 0.81538 0.14633 0.29457 0.0
H995 H 0.79436 0.1745 0.30986 0.0
H996 H 0.84383 0.22996 0.29893 0.0
H997 H 0.86495 0.20214 0.28344 0.0
C998 C 0.93103 0.08575 0.28911 0.0
C999 C 0.95177 0.09907 0.29211 0.0
C1000 C 0.91127 0.0965 0.283 0.0
C1001 C 0.91171 0.12083 0.27975 0.0
C1002 C 0.93221 0.13438 0.28281 0.0
C1003 C 0.95217 0.12354 0.28889 0.0
C1004 C 0.88997 0.1319 0.27384 0.0
C1005 C 0.87792 0.14936 0.28151 0.0
C1006 C 0.87903 0.1223 0.26197 0.0
C1007 C 0.89173 0.10498 0.253 0.0
C1008 C 0.91493 0.11003 0.24817 0.0
C1009 C 0.92698 0.09357 0.23989 0.0
C1010 C 0.916 0.07201 0.23631 0.0
C1011 C 0.89292 0.06688 0.24099 0.0
C1012 C 0.88078 0.08326 0.24928 0.0
C1013 C 0.7808 0.17122 0.26134 0.0
C1014 C 0.7662 0.1508 0.26241 0.0
C1015 C 0.80575 0.16935 0.26258 0.0
C1016 C 0.81642 0.14704 0.26486 0.0
C1017 C 0.80194 0.12664 0.26558 0.0
C1018 C 0.77713 0.12848 0.26443 0.0
C1019 C 0.84252 0.14456 0.2672 0.0
C1020 C 0.85537 0.12873 0.25883 0.0
C1021 C 0.85418 0.15565 0.27841 0.0
C1022 C 0.84151 0.17228 0.28773 0.0
C1023 C 0.82163 0.16459 0.29535 0.0
C1024 C 0.80973 0.18047 0.30406 0.0
C1025 C 0.8177 0.20403 0.30533 0.0
C1026 C 0.83764 0.21173 0.29791 0.0
C1027 C 0.84958 0.19592 0.28917 0.0
H1028 H 0.80847 0.2163 0.31208 0.0
H1029 H 0.92537 0.05929 0.2299 0.0
H1030 H 0.90512 0.46454 0.55339 0.0
H1031 H 0.87906 0.43315 0.54392 0.0
H1032 H 0.93942 0.40348 0.52216 0.0
H1033 H 0.96536 0.4347 0.53153 0.0
H1034 H 0.8972 0.40321 0.50679 0.0
H1035 H 0.92497 0.38272 0.55288 0.0
H1036 H 0.92811 0.39055 0.57766 0.0
H1037 H 0.85132 0.39029 0.58098 0.0
H1038 H 0.84775 0.38282 0.55615 0.0
H1039 H 0.90039 0.28101 0.49971 0.0
H1040 H 0.90535 0.32255 0.50645 0.0
H1041 H 0.83343 0.32361 0.5226 0.0
H1042 H 0.8282 0.28159 0.51576 0.0
H1043 H 0.86839 0.34363 0.54038 0.0
H1044 H 0.84174 0.35377 0.49491 0.0
H1045 H 0.83917 0.34589 0.47014 0.0
H1046 H 0.91303 0.36592 0.46545 0.0
H1047 H 0.91618 0.37356 0.49022 0.0
C1048 C 0.91263 0.45158 0.54635 0.0
C1049 C 0.93723 0.45185 0.54324 0.0
C1050 C 0.89779 0.43366 0.54101 0.0
C1051 C 0.90739 0.41595 0.53243 0.0
C1052 C 0.93167 0.41702 0.52875 0.0
C1053 C 0.9465 0.43473 0.53417 0.0
C1054 C 0.89305 0.39501 0.52812 0.0
C1055 C 0.89074 0.39022 0.5141 0.0
C1056 C 0.88389 0.37852 0.53771 0.0
C1057 C 0.88608 0.38251 0.55265 0.0
C1058 C 0.90876 0.38449 0.55888 0.0
C1059 C 0.91062 0.38885 0.57293 0.0
C1060 C 0.88993 0.391 0.58088 0.0
C1061 C 0.86733 0.38868 0.5748 0.0
C1062 C 0.86538 0.38438 0.56075 0.0
C1063 C 0.88554 0.29001 0.50465 0.0
C1064 C 0.86388 0.27804 0.50719 0.0
C1065 C 0.88837 0.31382 0.50843 0.0
C1066 C 0.86965 0.32622 0.51485 0.0
C1067 C 0.84801 0.31434 0.51756 0.0
C1068 C 0.84506 0.29042 0.51364 0.0
C1069 C 0.87356 0.35135 0.51903 0.0
C1070 C 0.87399 0.35694 0.53303 0.0
C1071 C 0.88095 0.36863 0.50942 0.0
C1072 C 0.8792 0.36417 0.49446 0.0
C1073 C 0.85749 0.35635 0.48861 0.0
C1074 C 0.85592 0.35194 0.47456 0.0
C1075 C 0.87593 0.35539 0.46622 0.0
C1076 C 0.89754 0.36327 0.47192 0.0
C1077 C 0.89921 0.36769 0.48597 0.0
H1078 H 0.87468 0.35196 0.45535 0.0
H1079 H 0.8914 0.3944 0.59175 0.0
H1080 H 0.60479 0.10493 0.46983 0.0
H1081 H 0.64087 0.126 0.47753 0.0
H1082 H 0.68391 0.06477 0.46688 0.0
H1083 H 0.64815 0.0438 0.45892 0.0
H1084 H 0.6974 0.0846 0.49143 0.0
H1085 H 0.68026 0.11038 0.44539 0.0
H1086 H 0.65504 0.12755 0.42718 0.0
H1087 H 0.64908 0.19297 0.44996 0.0
H1088 H 0.67401 0.17604 0.46841 0.0
H1089 H 0.81362 0.12614 0.47966 0.0
H1090 H 0.77318 0.11056 0.47692 0.0
H1091 H 0.74385 0.17779 0.49048 0.0
H1092 H 0.78454 0.19377 0.49331 0.0
H1093 H 0.72079 0.1587 0.46724 0.0
H1094 H 0.74286 0.13369 0.51209 0.0
H1095 H 0.76906 0.11594 0.52963 0.0
H1096 H 0.76651 0.0485 0.50865 0.0
H1097 H 0.74058 0.06594 0.49085 0.0
C1098 C 0.62194 0.09594 0.46914 0.0
C1099 C 0.62359 0.07271 0.46369 0.0
C1100 C 0.6425 0.10798 0.47359 0.0
C1101 C 0.66505 0.097 0.47265 0.0
C1102 C 0.66665 0.07351 0.46773 0.0
C1103 C 0.64615 0.06151 0.46324 0.0
C1104 C 0.68722 0.11023 0.47616 0.0
C1105 C 0.70257 0.10075 0.48612 0.0
C1106 C 0.69363 0.13163 0.46944 0.0
C1107 C 0.67873 0.14185 0.45835 0.0
C1108 C 0.67339 0.12836 0.44657 0.0
C1109 C 0.65919 0.13805 0.4362 0.0
C1110 C 0.6504 0.16131 0.43744 0.0
C1111 C 0.65586 0.17494 0.44903 0.0
C1112 C 0.67003 0.16531 0.45945 0.0
C1113 C 0.79866 0.13773 0.48209 0.0
C1114 C 0.8024 0.1612 0.48683 0.0
C1115 C 0.77552 0.12872 0.48054 0.0
C1116 C 0.75558 0.14291 0.4837 0.0
C1117 C 0.75908 0.16654 0.48808 0.0
C1118 C 0.78232 0.17559 0.48971 0.0
C1119 C 0.73117 0.13279 0.48232 0.0
C1120 C 0.71542 0.14282 0.47274 0.0
C1121 C 0.72443 0.11182 0.48934 0.0
C1122 C 0.73989 0.10118 0.50008 0.0
C1123 C 0.74802 0.11512 0.51116 0.0
C1124 C 0.7628 0.1051 0.52116 0.0
C1125 C 0.76947 0.08112 0.52025 0.0
C1126 C 0.76133 0.06708 0.50934 0.0
C1127 C 0.74656 0.07702 0.4993 0.0
H1128 H 0.78092 0.0734 0.528 0.0
H1129 H 0.63941 0.16879 0.42939 0.0
H1130 H 0.99829 0.15928 0.71001 0.0
H1131 H 0.97684 0.19386 0.71892 0.0
H1132 H 0.91399 0.15052 0.72538 0.0
H1133 H 0.9356 0.11545 0.71689 0.0
H1134 H 0.90476 0.19238 0.7109 0.0
H1135 H 0.94288 0.16941 0.75239 0.0
H1136 H 0.9764 0.15707 0.76722 0.0
H1137 H 0.01262 0.22321 0.75931 0.0
H1138 H 0.97947 0.23581 0.74426 0.0
H1139 H 0.84555 0.29249 0.74174 0.0
H1140 H 0.86235 0.25242 0.73879 0.0
H1141 H 0.93195 0.28292 0.73088 0.0
H1142 H 0.91549 0.32287 0.73378 0.0
H1143 H 0.93399 0.24445 0.74858 0.0
H1144 H 0.89926 0.26483 0.70497 0.0
H1145 H 0.8667 0.27749 0.68952 0.0
H1146 H 0.82503 0.21635 0.70103 0.0
H1147 H 0.85724 0.20351 0.71671 0.0
C1148 C 0.98012 0.15686 0.71364 0.0
C1149 C 0.96872 0.1345 0.71273 0.0
C1150 C 0.96784 0.17672 0.71867 0.0
C1151 C 0.94388 0.17469 0.72286 0.0
C1152 C 0.93248 0.15241 0.72217 0.0
C1153 C 0.94484 0.13244 0.71725 0.0
C1154 C 0.93054 0.19625 0.7272 0.0
C1155 C 0.91079 0.20351 0.71934 0.0
C1156 C 0.93876 0.21094 0.73803 0.0
C1157 C 0.95874 0.20348 0.74711 0.0
C1158 C 0.95807 0.18125 0.75372 0.0
C1159 C 0.977 0.17422 0.76219 0.0
C1160 C 0.99665 0.18933 0.76418 0.0
C1161 C 0.99739 0.21152 0.75775 0.0
C1162 C 0.97852 0.21863 0.74926 0.0
C1163 C 0.86446 0.29068 0.73945 0.0
C1164 C 0.87914 0.31094 0.73799 0.0
C1165 C 0.874 0.26778 0.73775 0.0
C1166 C 0.89836 0.26476 0.7346 0.0
C1167 C 0.91312 0.28488 0.73338 0.0
C1168 C 0.90362 0.30773 0.73498 0.0
C1169 C 0.90851 0.24073 0.73214 0.0
C1170 C 0.92769 0.23307 0.74032 0.0
C1171 C 0.89985 0.22572 0.72157 0.0
C1172 C 0.8805 0.23338 0.71214 0.0
C1173 C 0.88305 0.25421 0.7043 0.0
C1174 C 0.86469 0.2614 0.69549 0.0
C1175 C 0.84378 0.24778 0.69433 0.0
C1176 C 0.84122 0.22691 0.70196 0.0
C1177 C 0.85952 0.21967 0.71081 0.0
H1178 H 0.82959 0.25336 0.6875 0.0
H1179 H 0.01129 0.18385 0.77074 0.0
H1180 H 0.89521 0.48566 0.9627 0.0
H1181 H 0.86174 0.46436 0.97289 0.0
H1182 H 0.90365 0.39971 0.97374 0.0
H1183 H 0.9377 0.42112 0.9638 0.0
H1184 H 0.85969 0.39301 0.96204 0.0
H1185 H 0.88953 0.42526 0.00338 0.0
H1186 H 0.90586 0.45575 0.01907 0.0
H1187 H 0.84093 0.49642 0.0155 0.0
H1188 H 0.82432 0.46636 -0.00039 0.0
H1189 H 0.75194 0.3432 0.99056 0.0
H1190 H 0.79442 0.35416 0.98903 0.0
H1191 H 0.77464 0.42795 0.98375 0.0
H1192 H 0.7324 0.41731 0.98528 0.0
H1193 H 0.81258 0.42238 0.00167 0.0
H1194 H 0.78768 0.39396 0.95657 0.0
H1195 H 0.77168 0.3638 0.94053 0.0
H1196 H 0.82832 0.31564 0.95155 0.0
H1197 H 0.84446 0.34545 0.96781 0.0
C1198 C 0.89762 0.46708 0.96536 0.0
C1199 C 0.9192 0.45513 0.96244 0.0
C1200 C 0.87841 0.4549 0.97117 0.0
C1201 C 0.8803 0.43052 0.97419 0.0
C1202 C 0.90188 0.41855 0.9715 0.0
C1203 C 0.92123 0.43078 0.96575 0.0
C1204 C 0.85895 0.41745 0.97912 0.0
C1205 C 0.8497 0.39897 0.97093 0.0
C1206 C 0.84587 0.42538 0.99065 0.0
C1207 C 0.85571 0.44357 0.00023 0.0
C1208 C 0.87878 0.44078 0.00585 0.0
C1209 C 0.88809 0.45798 0.0148 0.0
C1210 C 0.87445 0.47802 0.01827 0.0
C1211 C 0.85147 0.48088 0.01281 0.0
C1212 C 0.84208 0.46374 0.00384 0.0
C1213 C 0.75665 0.36178 0.98916 0.0
C1214 C 0.73874 0.37936 0.98794 0.0
C1215 C 0.78091 0.36798 0.98828 0.0
C1216 C 0.78761 0.39184 0.98624 0.0
C1217 C 0.76982 0.40944 0.98538 0.0
C1218 C 0.74566 0.40328 0.98616 0.0
C1219 C 0.81299 0.3987 0.98428 0.0
C1220 C 0.82295 0.41598 0.99303 0.0
C1221 C 0.82676 0.38964 0.9733 0.0
C1222 C 0.81707 0.37178 0.96353 0.0
C1223 C 0.79659 0.37686 0.95566 0.0
C1224 C 0.78752 0.35985 0.94651 0.0
C1225 C 0.79893 0.33778 0.94506 0.0
C1226 C 0.81947 0.33271 0.95272 0.0
C1227 C 0.82858 0.34965 0.9619 0.0
H1228 H 0.79189 0.32464 0.93797 0.0
H1229 H 0.88169 0.49131 0.0252 0.0
H1230 H 0.61068 0.4341 0.21415 0.0
H1231 H 0.63317 0.4001 0.22316 0.0
H1232 H 0.57157 0.35473 0.21698 0.0
H1233 H 0.54918 0.38833 0.20765 0.0
H1234 H 0.59388 0.34838 0.24234 0.0
H1235 H 0.61536 0.35384 0.19432 0.0
H1236 H 0.63116 0.37473 0.17411 0.0
H1237 H 0.69856 0.38536 0.19457 0.0
H1238 H 0.68302 0.36482 0.21499 0.0
H1239 H 0.63569 0.23151 0.24344 0.0
H1240 H 0.61853 0.2697 0.23676 0.0
H1241 H 0.68868 0.30217 0.23876 0.0
H1242 H 0.70617 0.26348 0.24491 0.0
H1243 H 0.66552 0.31849 0.21756 0.0
H1244 H 0.64639 0.31015 0.2647 0.0
H1245 H 0.6313 0.29003 0.28534 0.0
H1246 H 0.56083 0.28631 0.26769 0.0
H1247 H 0.57555 0.30612 0.24686 0.0
C1248 C 0.60195 0.41686 0.21465 0.0
C1249 C 0.57814 0.41392 0.21013 0.0
C1250 C 0.61479 0.39751 0.21985 0.0
C1251 C 0.60403 0.37494 0.22064 0.0
C1252 C 0.58012 0.37207 0.2165 0.0
C1253 C 0.56733 0.39133 0.21123 0.0
C1254 C 0.61776 0.35401 0.2254 0.0
C1255 C 0.60946 0.34171 0.2369 0.0
C1256 C 0.63855 0.34591 0.21855 0.0
C1257 C 0.64795 0.35804 0.20623 0.0
C1258 C 0.63349 0.3608 0.19455 0.0
C1259 C 0.64241 0.37254 0.18305 0.0
C1260 C 0.66583 0.38142 0.18307 0.0
C1261 C 0.68041 0.37851 0.19458 0.0
C1262 C 0.67156 0.3668 0.20611 0.0
C1263 C 0.64748 0.24677 0.24242 0.0
C1264 C 0.67222 0.24464 0.2448 0.0
C1265 C 0.63763 0.26863 0.23869 0.0
C1266 C 0.65221 0.28896 0.23763 0.0
C1267 C 0.67707 0.28675 0.23964 0.0
C1268 C 0.68703 0.26469 0.24314 0.0
C1269 C 0.64132 0.31239 0.23436 0.0
C1270 C 0.65015 0.32524 0.22316 0.0
C1271 C 0.62115 0.32118 0.24159 0.0
C1272 C 0.61213 0.3095 0.25418 0.0
C1273 C 0.6277 0.30493 0.26519 0.0
C1274 C 0.61921 0.29359 0.27692 0.0
C1275 C 0.59513 0.28686 0.27781 0.0
C1276 C 0.57948 0.29153 0.26698 0.0
C1277 C 0.58788 0.30285 0.25522 0.0
H1278 H 0.5886 0.27806 0.2869 0.0
H1279 H 0.6727 0.39051 0.17416 0.0
H1280 H 0.09023 0.92871 0.36784 0.0
H1281 H 0.10955 0.90399 0.38508 0.0
H1282 H 0.16322 0.95836 0.3915 0.0
H1283 H 0.14468 0.9828 0.37375 0.0
H1284 H 0.18226 0.91365 0.39473 0.0
H1285 H 0.11327 0.95841 0.41059 0.0
H1286 H 0.07092 0.97108 0.4101 0.0
H1287 H 0.04836 0.8985 0.41572 0.0
H1288 H 0.09062 0.88537 0.41605 0.0
H1289 H 0.16888 0.90192 0.47336 0.0
H1290 H 0.1589 0.91764 0.45095 0.0
H1291 H 0.18675 0.85383 0.4319 0.0
H1292 H 0.19731 0.83801 0.45454 0.0
H1293 H 0.12732 0.89935 0.43369 0.0
H1294 H 0.20496 0.87064 0.39859 0.0
H1295 H 0.24814 0.86127 0.40005 0.0
H1296 H 0.25512 0.90742 0.43499 0.0
H1297 H 0.21209 0.91733 0.43362 0.0
C1298 C 0.10656 0.93516 0.37258 0.0
C1299 C 0.11569 0.95795 0.36953 0.0
C1300 C 0.11751 0.92103 0.38251 0.0
C1301 C 0.13757 0.92952 0.38973 0.0
C1302 C 0.1477 0.9515 0.38608 0.0
C1303 C 0.13687 0.96559 0.37607 0.0
C1304 C 0.14606 0.91708 0.40217 0.0
C1305 C 0.17025 0.91031 0.40322 0.0
C1306 C 0.13045 0.913 0.4133 0.0
C1307 C 0.10506 0.92089 0.41319 0.0
C1308 C 0.09927 0.94514 0.41162 0.0
C1309 C 0.07529 0.95241 0.41138 0.0
C1310 C 0.05696 0.9356 0.41284 0.0
C1311 C 0.06257 0.9115 0.41457 0.0
C1312 C 0.08653 0.90413 0.41479 0.0
C1313 C 0.17314 0.89126 0.46443 0.0
C1314 C 0.18374 0.86865 0.46571 0.0
C1315 C 0.16736 0.90027 0.45161 0.0
C1316 C 0.17195 0.88687 0.43976 0.0
C1317 C 0.18318 0.86452 0.44092 0.0
C1318 C 0.18915 0.8555 0.45383 0.0
C1319 C 0.16363 0.89613 0.4264 0.0
C1320 C 0.13934 0.90226 0.42515 0.0
C1321 C 0.17929 0.90002 0.41526 0.0
C1322 C 0.20525 0.89447 0.4161 0.0
C1323 C 0.21574 0.87883 0.40656 0.0
C1324 C 0.24018 0.87343 0.40737 0.0
C1325 C 0.25434 0.88367 0.41764 0.0
C1326 C 0.24411 0.89942 0.42708 0.0
C1327 C 0.21969 0.90491 0.4263 0.0
H1328 H 0.27325 0.87944 0.41826 0.0
H1329 H 0.0384 0.94126 0.41265 0.0
H1330 H 0.09622 0.62974 0.61304 0.0
H1331 H 0.11231 0.65634 0.63097 0.0
H1332 H 0.07491 0.6156 0.66157 0.0
H1333 H 0.05916 0.58899 0.64385 0.0
H1334 H 0.06925 0.66729 0.66325 0.0
H1335 H 0.13077 0.60495 0.65768 0.0
H1336 H 0.16087 0.58316 0.64404 0.0
H1337 H 0.19776 0.64884 0.63585 0.0
H1338 H 0.16764 0.67105 0.64932 0.0
H1339 H 0.10954 0.6623 0.7291 0.0
H1340 H 0.0985 0.65685 0.70532 0.0
H1341 H 0.15505 0.70469 0.69305 0.0
H1342 H 0.16653 0.71024 0.71716 0.0
H1343 H 0.1544 0.66278 0.67788 0.0
H1344 H 0.09923 0.72328 0.68871 0.0
H1345 H 0.06958 0.74557 0.70238 0.0
H1346 H 0.02089 0.68631 0.70001 0.0
H1347 H 0.05037 0.66349 0.68651 0.0
C1348 C 0.09151 0.62655 0.62361 0.0
C1349 C 0.07663 0.60725 0.62712 0.0
C1350 C 0.10068 0.64169 0.6338 0.0
C1351 C 0.0947 0.6379 0.64754 0.0
C1352 C 0.07964 0.61882 0.65099 0.0
C1353 C 0.07083 0.60354 0.6409 0.0
C1354 C 0.10423 0.65328 0.65861 0.0
C1355 C 0.08788 0.66651 0.66644 0.0
C1356 C 0.12872 0.65306 0.66234 0.0
C1357 C 0.14681 0.63968 0.65433 0.0
C1358 C 0.14517 0.61476 0.65286 0.0
C1359 C 0.16226 0.60233 0.64519 0.0
C1360 C 0.18117 0.61461 0.63904 0.0
C1361 C 0.18307 0.63935 0.64059 0.0
C1362 C 0.16601 0.65187 0.64824 0.0
C1363 C 0.11964 0.67185 0.72142 0.0
C1364 C 0.139 0.68666 0.72507 0.0
C1365 C 0.11315 0.66884 0.70779 0.0
C1366 C 0.12573 0.68061 0.69742 0.0
C1367 C 0.14501 0.69558 0.70093 0.0
C1368 C 0.15148 0.69877 0.71469 0.0
C1369 C 0.11912 0.67574 0.68299 0.0
C1370 C 0.13594 0.66446 0.67449 0.0
C1371 C 0.09506 0.67799 0.67853 0.0
C1372 C 0.07708 0.69164 0.68659 0.0
C1373 C 0.08225 0.71493 0.69116 0.0
C1374 C 0.06546 0.72767 0.69888 0.0
C1375 C 0.04336 0.71736 0.70206 0.0
C1376 C 0.038 0.69429 0.69752 0.0
C1377 C 0.05474 0.68146 0.68981 0.0
H1378 H 0.03039 0.72725 0.70804 0.0
H1379 H 0.19439 0.60496 0.63311 0.0
H1380 H 0.39542 0.58422 0.86103 0.0
H1381 H 0.37158 0.60217 0.87959 0.0
H1382 H 0.41741 0.56835 0.90933 0.0
H1383 H 0.44102 0.55048 0.89099 0.0
H1384 H 0.3688 0.56408 0.91541 0.0
H1385 H 0.42625 0.62551 0.90079 0.0
H1386 H 0.4432 0.65293 0.88367 0.0
H1387 H 0.37413 0.68549 0.87829 0.0
H1388 H 0.35672 0.65804 0.89529 0.0
H1389 H 0.3879 0.61958 0.97696 0.0
H1390 H 0.38926 0.6042 0.95374 0.0
H1391 H 0.33285 0.65252 0.94187 0.0
H1392 H 0.33127 0.66827 0.96537 0.0
H1393 H 0.37245 0.65149 0.92358 0.0
H1394 H 0.31807 0.59684 0.94296 0.0
H1395 H 0.30151 0.56987 0.96039 0.0
H1396 H 0.36317 0.52445 0.95668 0.0
H1397 H 0.38032 0.55133 0.93938 0.0
C1398 C 0.40021 0.58055 0.87155 0.0
C1399 C 0.42017 0.56616 0.87461 0.0
C1400 C 0.38666 0.59082 0.8821 0.0
C1401 C 0.39279 0.58659 0.89581 0.0
C1402 C 0.41235 0.57178 0.89882 0.0
C1403 C 0.42595 0.56176 0.88834 0.0
C1404 C 0.3797 0.598 0.90726 0.0
C1405 C 0.3694 0.5832 0.91717 0.0
C1406 C 0.37962 0.62302 0.90927 0.0
C1407 C 0.39014 0.63955 0.89915 0.0
C1408 C 0.41465 0.6384 0.89587 0.0
C1409 C 0.42435 0.65396 0.88621 0.0
C1410 C 0.40973 0.67088 0.87986 0.0
C1411 C 0.38541 0.67233 0.8832 0.0
C1412 C 0.37563 0.65679 0.89284 0.0
C1413 C 0.37568 0.62701 0.96949 0.0
C1414 C 0.35948 0.64521 0.97306 0.0
C1415 C 0.3764 0.61806 0.9562 0.0
C1416 C 0.36096 0.62702 0.94614 0.0
C1417 C 0.3448 0.64529 0.94954 0.0
C1418 C 0.34391 0.6542 0.96296 0.0
C1419 C 0.36277 0.61739 0.93205 0.0
C1420 C 0.37094 0.63247 0.92163 0.0
C1421 C 0.36078 0.59259 0.92953 0.0
C1422 C 0.35051 0.57617 0.93987 0.0
C1423 C 0.32818 0.58117 0.94591 0.0
C1424 C 0.31867 0.56589 0.95577 0.0
C1425 C 0.33128 0.54546 0.95964 0.0
C1426 C 0.35341 0.54026 0.95365 0.0
C1427 C 0.36301 0.5555 0.94379 0.0
H1428 H 0.32389 0.53365 0.96728 0.0
H1429 H 0.41727 0.68291 0.87239 0.0
H1430 H 0.44387 0.90491 0.10619 0.0
H1431 H 0.42075 0.88294 0.12332 0.0
H1432 H 0.47258 0.90237 0.1542 0.0
H1433 H 0.49531 0.92482 0.13738 0.0
H1434 H 0.45896 0.85475 0.15564 0.0
H1435 H 0.42199 0.93318 0.15134 0.0
H1436 H 0.40182 0.96536 0.13862 0.0
H1437 H 0.34481 0.9174 0.12761 0.0
H1438 H 0.36485 0.88482 0.14012 0.0
H1439 H 0.40952 0.85973 0.22074 0.0
H1440 H 0.42718 0.8663 0.19834 0.0
H1441 H 0.36199 0.84189 0.17898 0.0
H1442 H 0.344 0.83533 0.20156 0.0
H1443 H 0.37787 0.88383 0.16825 0.0
H1444 H 0.41105 0.80769 0.17679 0.0
H1445 H 0.43089 0.77605 0.19007 0.0
H1446 H 0.4946 0.81881 0.1932 0.0
H1447 H 0.47503 0.8509 0.18012 0.0
C1448 C 0.45031 0.90456 0.11663 0.0
C1449 C 0.47149 0.91665 0.12038 0.0
C1450 C 0.43715 0.89188 0.12638 0.0
C1451 C 0.44498 0.89106 0.14001 0.0
C1452 C 0.46636 0.9026 0.1437 0.0
C1453 C 0.47939 0.91536 0.13403 0.0
C1454 C 0.43055 0.87926 0.15073 0.0
C1455 C 0.44122 0.86104 0.15841 0.0
C1456 C 0.40708 0.88695 0.154 0.0
C1457 C 0.39507 0.9065 0.14649 0.0
C1458 C 0.40527 0.92944 0.14609 0.0
C1459 C 0.39384 0.94776 0.13895 0.0
C1460 C 0.37209 0.9434 0.13227 0.0
C1461 C 0.36169 0.92073 0.13275 0.0
C1462 C 0.37307 0.90233 0.13987 0.0
C1463 C 0.39897 0.85551 0.21174 0.0
C1464 C 0.37537 0.84702 0.2129 0.0
C1465 C 0.40915 0.85915 0.19893 0.0
C1466 C 0.39601 0.8543 0.18699 0.0
C1467 C 0.37247 0.8456 0.18808 0.0
C1468 C 0.36226 0.84183 0.20096 0.0
C1469 C 0.40666 0.85989 0.17351 0.0
C1470 C 0.39531 0.87697 0.16528 0.0
C1471 C 0.4295 0.85111 0.16972 0.0
C1472 C 0.4415 0.83177 0.1775 0.0
C1473 C 0.42924 0.81043 0.18037 0.0
C1474 C 0.44045 0.7924 0.18787 0.0
C1475 C 0.46398 0.79543 0.19249 0.0
C1476 C 0.47637 0.81648 0.1896 0.0
C1477 C 0.46524 0.83459 0.18213 0.0
H1478 H 0.47263 0.78145 0.19829 0.0
H1479 H 0.36326 0.95762 0.12674 0.0
H1480 H 0.1061 0.60899 0.90056 0.0
H1481 H 0.12928 0.63428 0.88502 0.0
H1482 H 0.10298 0.59344 0.85062 0.0
H1483 H 0.07991 0.56827 0.86598 0.0
H1484 H 0.14965 0.60379 0.8475 0.0
H1485 H 0.0767 0.64658 0.8607 0.0
H1486 H 0.0495 0.6653 0.87748 0.0
H1487 H 0.1063 0.71159 0.89097 0.0
H1488 H 0.1339 0.69294 0.87435 0.0
H1489 H 0.13124 0.66983 0.78938 0.0
H1490 H 0.12637 0.64974 0.81116 0.0
H1491 H 0.17278 0.70133 0.8306 0.0
H1492 H 0.17815 0.72163 0.80853 0.0
H1493 H 0.12742 0.68943 0.84499 0.0
H1494 H 0.1968 0.65238 0.82666 0.0
H1495 H 0.22163 0.63437 0.80852 0.0
H1496 H 0.17076 0.57734 0.80396 0.0
H1497 H 0.14533 0.59526 0.82186 0.0
C1498 C 0.10537 0.60538 0.88968 0.0
C1499 C 0.09111 0.58666 0.88449 0.0
C1500 C 0.11866 0.61979 0.88083 0.0
C1501 C 0.11773 0.61584 0.86665 0.0
C1502 C 0.10411 0.59671 0.86153 0.0
C1503 C 0.09094 0.5823 0.87033 0.0
C1504 C 0.12954 0.63227 0.85691 0.0
C1505 C 0.14493 0.62255 0.847 0.0
C1506 C 0.12401 0.65693 0.85651 0.0
C1507 C 0.10741 0.66819 0.86643 0.0
C1508 C 0.08341 0.66065 0.86731 0.0
C1509 C 0.06792 0.67125 0.87678 0.0
C1510 C 0.07619 0.68957 0.88532 0.0
C1511 C 0.09994 0.69736 0.88437 0.0
C1512 C 0.1155 0.68679 0.87493 0.0
C1513 C 0.14046 0.677 0.79824 0.0
C1514 C 0.15524 0.69721 0.79722 0.0
C1515 C 0.13766 0.66545 0.81069 0.0
C1516 C 0.14946 0.67391 0.8224 0.0
C1517 C 0.16367 0.69452 0.8216 0.0
C1518 C 0.1667 0.70604 0.80903 0.0
C1519 C 0.14662 0.66066 0.83532 0.0
C1520 C 0.13289 0.67091 0.84579 0.0
C1521 C 0.1536 0.63646 0.8362 0.0
C1522 C 0.1691 0.62523 0.82561 0.0
C1523 C 0.19082 0.63606 0.82175 0.0
C1524 C 0.20501 0.62587 0.8115 0.0
C1525 C 0.19778 0.60472 0.8051 0.0
C1526 C 0.17635 0.59371 0.80894 0.0
C1527 C 0.16205 0.60387 0.81915 0.0
H1528 H 0.2088 0.59684 0.79717 0.0
H1529 H 0.06417 0.69776 0.89264 0.0
H1530 H 0.47222 0.58363 0.11907 0.0
H1531 H 0.4503 0.60808 0.10284 0.0
H1532 H 0.40272 0.63158 0.13491 0.0
H1533 H 0.42492 0.6071 0.15142 0.0
H1534 H 0.37825 0.61792 0.11215 0.0
H1535 H 0.44229 0.67081 0.12177 0.0
H1536 H 0.48417 0.68326 0.12566 0.0
H1537 H 0.50205 0.6636 0.08445 0.0
H1538 H 0.46036 0.65068 0.08036 0.0
H1539 H 0.32751 0.68593 0.05651 0.0
H1540 H 0.34578 0.67838 0.07897 0.0
H1541 H 0.40434 0.64151 0.05933 0.0
H1542 H 0.38633 0.64889 0.03705 0.0
H1543 H 0.41977 0.67179 0.07976 0.0
H1544 H 0.35804 0.61092 0.07262 0.0
H1545 H 0.31638 0.59759 0.06881 0.0
H1546 H 0.29438 0.63297 0.10574 0.0
H1547 H 0.3359 0.64676 0.10968 0.0
C1548 C 0.45743 0.59436 0.12279 0.0
C1549 C 0.45049 0.59358 0.13658 0.0
C1550 C 0.44486 0.60833 0.11347 0.0
C1551 C 0.42512 0.62199 0.1177 0.0
C1552 C 0.41801 0.62128 0.13146 0.0
C1553 C 0.43064 0.60724 0.14084 0.0
C1554 C 0.41142 0.63581 0.10742 0.0
C1555 C 0.38715 0.63023 0.10529 0.0
C1556 C 0.42305 0.65178 0.09843 0.0
C1557 C 0.44816 0.6597 0.10078 0.0
C1558 C 0.45517 0.66901 0.11356 0.0
C1559 C 0.47889 0.67616 0.1158 0.0
C1560 C 0.49576 0.67421 0.10531 0.0
C1561 C 0.48895 0.66513 0.09256 0.0
C1562 C 0.46526 0.65792 0.09027 0.0
C1563 C 0.34436 0.67637 0.05702 0.0
C1564 C 0.35544 0.66789 0.04504 0.0
C1565 C 0.35474 0.67206 0.06983 0.0
C1566 C 0.37637 0.65932 0.07079 0.0
C1567 C 0.3877 0.65146 0.05881 0.0
C1568 C 0.37731 0.6556 0.04608 0.0
C1569 C 0.38703 0.65302 0.08418 0.0
C1570 C 0.41071 0.66007 0.08689 0.0
C1571 C 0.37486 0.63847 0.0937 0.0
C1572 C 0.34997 0.63013 0.09134 0.0
C1573 C 0.34427 0.61602 0.07987 0.0
C1574 C 0.3207 0.60835 0.07769 0.0
C1575 C 0.30273 0.6145 0.087 0.0
C1576 C 0.30831 0.62827 0.09852 0.0
C1577 C 0.33185 0.63601 0.10073 0.0
H1578 H 0.28449 0.60854 0.0853 0.0
H1579 H 0.51411 0.67975 0.10707 0.0
H1580 H 0.4333 0.92812 0.39477 0.0
H1581 H 0.41066 0.90717 0.37682 0.0
H1582 H 0.44026 0.95467 0.34663 0.0
H1583 H 0.46268 0.97557 0.36439 0.0
H1584 H 0.39387 0.94781 0.34195 0.0
H1585 H 0.46307 0.89794 0.35254 0.0
H1586 H 0.4884 0.87358 0.36776 0.0
H1587 H 0.42862 0.82753 0.37603 0.0
H1588 H 0.40287 0.85183 0.36098 0.0
H1589 H 0.41309 0.89123 0.27956 0.0
H1590 H 0.41715 0.90723 0.30265 0.0
H1591 H 0.3626 0.85885 0.31688 0.0
H1592 H 0.35797 0.84287 0.29353 0.0
H1593 H 0.41029 0.86223 0.33266 0.0
H1594 H 0.34407 0.90862 0.31728 0.0
H1595 H 0.32113 0.93278 0.30082 0.0
H1596 H 0.37708 0.98546 0.30071 0.0
H1597 H 0.40056 0.96142 0.317 0.0
C1598 C 0.43492 0.93406 0.3843 0.0
C1599 C 0.44973 0.95354 0.381 0.0
C1600 C 0.42195 0.92211 0.37407 0.0
C1601 C 0.42383 0.9293 0.36037 0.0
C1602 C 0.43834 0.94894 0.35714 0.0
C1603 C 0.45114 0.9609 0.36731 0.0
C1604 C 0.41162 0.9161 0.34916 0.0
C1605 C 0.39736 0.92906 0.33997 0.0
C1606 C 0.41552 0.89144 0.34678 0.0
C1607 C 0.43099 0.87686 0.3558 0.0
C1608 C 0.45529 0.88273 0.3577 0.0
C1609 C 0.46973 0.86892 0.36627 0.0
C1610 C 0.4601 0.84907 0.3729 0.0
C1611 C 0.43604 0.84295 0.37093 0.0
C1612 C 0.42152 0.85673 0.36238 0.0
C1613 C 0.40191 0.88393 0.28757 0.0
C1614 C 0.38525 0.86573 0.28473 0.0
C1615 C 0.4042 0.89317 0.30074 0.0
C1616 C 0.39012 0.88424 0.3114 0.0
C1617 C 0.37356 0.86594 0.30873 0.0
C1618 C 0.37091 0.85693 0.29541 0.0
C1619 C 0.39344 0.89423 0.32528 0.0
C1620 C 0.40608 0.88073 0.33493 0.0
C1621 C 0.38825 0.91845 0.32804 0.0
C1622 C 0.37413 0.93313 0.31833 0.0
C1623 C 0.35157 0.92527 0.31367 0.0
C1624 C 0.33846 0.93896 0.30438 0.0
C1625 C 0.34765 0.96063 0.29971 0.0
C1626 C 0.36997 0.96867 0.30434 0.0
C1627 C 0.38318 0.95503 0.31362 0.0
H1628 H 0.33747 0.9712 0.29251 0.0
H1629 H 0.47131 0.83839 0.37953 0.0
H1630 H 0.06354 0.96622 0.61627 0.0
H1631 H 0.08243 0.94065 0.59929 0.0
H1632 H 0.13195 0.91473 0.62973 0.0
H1633 H 0.11282 0.94036 0.64699 0.0
H1634 H 0.15473 0.92668 0.60624 0.0
H1635 H 0.08937 0.87733 0.61777 0.0
H1636 H 0.04755 0.86682 0.62321 0.0
H1637 H 0.02542 0.88777 0.58296 0.0
H1638 H 0.06703 0.89878 0.57732 0.0
H1639 H 0.19215 0.85803 0.54656 0.0
H1640 H 0.17759 0.86415 0.57006 0.0
H1641 H 0.12184 0.91039 0.5549 0.0
H1642 H 0.13634 0.90474 0.53165 0.0
H1643 H 0.10626 0.87633 0.57476 0.0
H1644 H 0.17029 0.93485 0.56658 0.0
H1645 H 0.21211 0.94576 0.56129 0.0
H1646 H 0.23671 0.90575 0.59593 0.0
H1647 H 0.195 0.89435 0.6013 0.0
C1648 C 0.07812 0.95475 0.61947 0.0
C1649 C 0.08649 0.95515 0.63303 0.0
C1650 C 0.08894 0.94013 0.60973 0.0
C1651 C 0.10831 0.92543 0.6133 0.0
C1652 C 0.1169 0.92582 0.62679 0.0
C1653 C 0.10602 0.94052 0.63661 0.0
C1654 C 0.12006 0.91083 0.60255 0.0
C1655 C 0.14431 0.91508 0.59959 0.0
C1656 C 0.1065 0.89567 0.59386 0.0
C1657 C 0.08138 0.88894 0.59714 0.0
C1658 C 0.07558 0.87983 0.61009 0.0
C1659 C 0.0519 0.87377 0.61321 0.0
C1660 C 0.03384 0.87663 0.60344 0.0
C1661 C 0.03943 0.88554 0.59052 0.0
C1662 C 0.06308 0.89165 0.58734 0.0
C1663 C 0.17668 0.86933 0.54827 0.0
C1664 C 0.16549 0.88107 0.53729 0.0
C1665 C 0.16843 0.8728 0.56166 0.0
C1666 C 0.14867 0.88771 0.56416 0.0
C1667 C 0.13706 0.89875 0.55316 0.0
C1668 C 0.14548 0.89563 0.53989 0.0
C1669 C 0.14043 0.89318 0.57818 0.0
C1670 C 0.11684 0.8872 0.58172 0.0
C1671 C 0.15462 0.90657 0.58743 0.0
C1672 C 0.17961 0.91349 0.58422 0.0
C1673 C 0.18465 0.92821 0.57298 0.0
C1674 C 0.20832 0.93451 0.56999 0.0
C1675 C 0.22707 0.92638 0.57824 0.0
C1676 C 0.22217 0.91198 0.58953 0.0
C1677 C 0.19853 0.9056 0.59255 0.0
H1678 H 0.24538 0.93129 0.57591 0.0
H1679 H 0.01551 0.87194 0.60588 0.0
H1680 H 0.60484 0.45708 0.86752 0.0
H1681 H 0.62681 0.43308 0.88408 0.0
H1682 H 0.57589 0.37577 0.8787 0.0
H1683 H 0.55305 0.40016 0.86277 0.0
H1684 H 0.58049 0.38464 0.90417 0.0
H1685 H 0.63605 0.37041 0.86843 0.0
H1686 H 0.66318 0.38001 0.84935 0.0
H1687 H 0.70683 0.42248 0.87624 0.0
H1688 H 0.67991 0.4133 0.89549 0.0
H1689 H 0.67803 0.32023 0.94672 0.0
H1690 H 0.66402 0.33274 0.924 0.0
H1691 H 0.63008 0.39437 0.94211 0.0
H1692 H 0.64361 0.38196 0.96466 0.0
H1693 H 0.66864 0.3743 0.90802 0.0
H1694 H 0.57492 0.39933 0.9294 0.0
H1695 H 0.54798 0.38695 0.94805 0.0
H1696 H 0.57991 0.31723 0.94802 0.0
H1697 H 0.60678 0.32907 0.92924 0.0
C1698 C 0.59835 0.43934 0.86982 0.0
C1699 C 0.57699 0.43071 0.86391 0.0
C1700 C 0.61117 0.42546 0.87914 0.0
C1701 C 0.60312 0.40251 0.88259 0.0
C1702 C 0.58248 0.3934 0.87619 0.0
C1703 C 0.56953 0.40735 0.86698 0.0
C1704 C 0.61447 0.38933 0.89404 0.0
C1705 C 0.59974 0.38216 0.90489 0.0
C1706 C 0.63957 0.38568 0.89494 0.0
C1707 C 0.65585 0.39127 0.8834 0.0
C1708 C 0.65134 0.38194 0.87026 0.0
C1709 C 0.66669 0.38728 0.85942 0.0
C1710 C 0.68665 0.40191 0.86157 0.0
C1711 C 0.69135 0.41116 0.87459 0.0
C1712 C 0.67609 0.40584 0.88548 0.0
C1713 C 0.66782 0.33658 0.94579 0.0
C1714 C 0.66164 0.34996 0.95746 0.0
C1715 C 0.65991 0.34372 0.93284 0.0
C1716 C 0.64571 0.36425 0.93144 0.0
C1717 C 0.6407 0.37825 0.94301 0.0
C1718 C 0.64846 0.37113 0.95589 0.0
C1719 C 0.63464 0.37055 0.91817 0.0
C1720 C 0.64937 0.37644 0.90708 0.0
C1721 C 0.60946 0.37261 0.91687 0.0
C1722 C 0.59296 0.36516 0.92797 0.0
C1723 C 0.57608 0.38131 0.93331 0.0
C1724 C 0.56084 0.3744 0.94392 0.0
C1725 C 0.56226 0.35134 0.94923 0.0
C1726 C 0.57887 0.33511 0.94392 0.0
C1727 C 0.59412 0.34192 0.9333 0.0
H1728 H 0.55048 0.34604 0.95746 0.0
H1729 H 0.6985 0.40604 0.85315 0.0
H1730 H 0.58059 0.05739 0.13991 0.0
H1731 H 0.59713 0.08278 0.1579 0.0
H1732 H 0.62922 0.12831 0.12755 0.0
H1733 H 0.61247 0.10271 0.10931 0.0
H1734 H 0.66089 0.11446 0.14915 0.0
H1735 H 0.5856 0.15154 0.14399 0.0
H1736 H 0.54183 0.15434 0.14084 0.0
H1737 H 0.53068 0.12033 0.17954 0.0
H1738 H 0.57439 0.11696 0.18285 0.0
H1739 H 0.69188 0.1778 0.21225 0.0
H1740 H 0.67674 0.1719 0.18886 0.0
H1741 H 0.63352 0.11292 0.20266 0.0
H1742 H 0.6486 0.1184 0.22583 0.0
H1743 H 0.60867 0.14638 0.18596 0.0
H1744 H 0.68397 0.10136 0.18748 0.0
H1745 H 0.72779 0.09795 0.19034 0.0
H1746 H 0.73861 0.14832 0.15798 0.0
H1747 H 0.69479 0.15225 0.15506 0.0
C1748 C 0.59117 0.0728 0.13705 0.0
C1749 C 0.5954 0.07805 0.12325 0.0
C1750 C 0.60045 0.08739 0.14733 0.0
C1751 C 0.6142 0.10752 0.14404 0.0
C1752 C 0.61853 0.1129 0.13026 0.0
C1753 C 0.60894 0.09837 0.1199 0.0
C1754 C 0.62456 0.12202 0.15526 0.0
C1755 C 0.64954 0.12213 0.15702 0.0
C1756 C 0.60971 0.13194 0.16552 0.0
C1757 C 0.58333 0.13393 0.16364 0.0
C1758 C 0.57383 0.1445 0.1518 0.0
C1759 C 0.54901 0.14621 0.14998 0.0
C1760 C 0.53348 0.1375 0.15998 0.0
C1761 C 0.54273 0.12708 0.17181 0.0
C1762 C 0.56754 0.12531 0.17367 0.0
C1763 C 0.67914 0.16359 0.21028 0.0
C1764 C 0.67152 0.14849 0.22089 0.0
C1765 C 0.67055 0.16027 0.19693 0.0
C1766 C 0.65399 0.14203 0.19409 0.0
C1767 C 0.64621 0.12717 0.20468 0.0
C1768 C 0.65499 0.13024 0.21791 0.0
C1769 C 0.64483 0.13771 0.1801 0.0
C1770 C 0.62005 0.13953 0.17786 0.0
C1771 C 0.65987 0.12971 0.1694 0.0
C1772 C 0.68614 0.12736 0.17119 0.0
C1773 C 0.6957 0.11189 0.18107 0.0
C1774 C 0.72053 0.10982 0.18269 0.0
C1775 C 0.73597 0.12298 0.17439 0.0
C1776 C 0.72662 0.13819 0.16443 0.0
C1777 C 0.70179 0.14034 0.16279 0.0
H1778 H 0.75519 0.12135 0.17565 0.0
H1779 H 0.51427 0.13885 0.15856 0.0
H1780 H 0.93718 0.11341 0.35729 0.0
H1781 H 0.91107 0.134 0.37379 0.0
H1782 H 0.95145 0.10339 0.40703 0.0
H1783 H 0.97734 0.08282 0.39069 0.0
H1784 H 0.90203 0.10189 0.41125 0.0
H1785 H 0.96352 0.15865 0.39643 0.0
H1786 H 0.98453 0.18252 0.37903 0.0
H1787 H 0.91818 0.21629 0.36799 0.0
H1788 H 0.89674 0.19237 0.38522 0.0
H1789 H 0.9033 0.16825 0.47052 0.0
H1790 H 0.91265 0.14903 0.44885 0.0
H1791 H 0.8634 0.1959 0.42805 0.0
H1792 H 0.854 0.21559 0.44992 0.0
H1793 H 0.90628 0.19026 0.41414 0.0
H1794 H 0.84665 0.14031 0.43273 0.0
H1795 H 0.82598 0.11766 0.45075 0.0
H1796 H 0.88684 0.07122 0.45451 0.0
H1797 H 0.90811 0.09388 0.43671 0.0
C1798 C 0.94024 0.11093 0.36813 0.0
C1799 C 0.95938 0.09672 0.37274 0.0
C1800 C 0.92541 0.12272 0.37751 0.0
C1801 C 0.92942 0.12027 0.39161 0.0
C1802 C 0.94803 0.10548 0.39619 0.0
C1803 C 0.96293 0.09391 0.38685 0.0
C1804 C 0.91526 0.13389 0.40178 0.0
C1805 C 0.90284 0.1212 0.41187 0.0
C1806 C 0.91558 0.15914 0.40227 0.0
C1807 C 0.9285 0.17352 0.39197 0.0
C1808 C 0.9534 0.17102 0.39021 0.0
C1809 C 0.96538 0.18458 0.3804 0.0
C1810 C 0.95268 0.20085 0.37237 0.0
C1811 C 0.92798 0.20364 0.37418 0.0
C1812 C 0.91591 0.1901 0.38397 0.0
C1813 C 0.89441 0.17454 0.46137 0.0
C1814 C 0.87779 0.19333 0.46193 0.0
C1815 C 0.89971 0.16344 0.44898 0.0
C1816 C 0.88838 0.17074 0.43689 0.0
C1817 C 0.87218 0.18991 0.43731 0.0
C1818 C 0.86684 0.2011 0.44978 0.0
C1819 C 0.89399 0.15816 0.42394 0.0
C1820 C 0.90475 0.171 0.41332 0.0
C1821 C 0.89196 0.13304 0.4229 0.0
C1822 C 0.87903 0.11887 0.43338 0.0
C1823 C 0.85569 0.12533 0.43743 0.0
C1824 C 0.84386 0.1125 0.44762 0.0
C1825 C 0.85509 0.09302 0.45377 0.0
C1826 C 0.87816 0.0863 0.44973 0.0
C1827 C 0.8901 0.09912 0.43957 0.0
H1828 H 0.84592 0.08312 0.46167 0.0
H1829 H 0.962 0.21134 0.36478 0.0
H1830 H 0.92503 0.42966 0.60401 0.0
H1831 H 0.90107 0.40555 0.61978 0.0
H1832 H 0.94746 0.4266 0.65308 0.0
H1833 H 0.9713 0.45057 0.63749 0.0
H1834 H 0.93458 0.38048 0.65551 0.0
H1835 H 0.89498 0.4567 0.64606 0.0
H1836 H 0.87631 0.48623 0.63073 0.0
H1837 H 0.82509 0.43379 0.61736 0.0
H1838 H 0.84366 0.40387 0.63252 0.0
H1839 H 0.87464 0.39843 0.71664 0.0
H1840 H 0.89408 0.40291 0.69452 0.0
H1841 H 0.83701 0.36316 0.67518 0.0
H1842 H 0.81746 0.35818 0.6975 0.0
H1843 H 0.85071 0.40793 0.662 0.0
H1844 H 0.88488 0.3353 0.67698 0.0
H1845 H 0.90284 0.3081 0.69386 0.0
H1846 H 0.96408 0.35415 0.69757 0.0
H1847 H 0.94627 0.38194 0.68092 0.0
C1848 C 0.93018 0.42897 0.61468 0.0
C1849 C 0.94999 0.44213 0.61952 0.0
C1850 C 0.91655 0.41513 0.62366 0.0
C1851 C 0.92237 0.41444 0.63763 0.0
C1852 C 0.94273 0.42672 0.64233 0.0
C1853 C 0.95637 0.44044 0.63339 0.0
C1854 C 0.90635 0.40292 0.64772 0.0
C1855 C 0.91619 0.38633 0.65687 0.0
C1856 C 0.88212 0.41002 0.64927 0.0
C1857 C 0.87086 0.42802 0.64027 0.0
C1858 C 0.87982 0.45145 0.63978 0.0
C1859 C 0.86925 0.46825 0.63114 0.0
C1860 C 0.84957 0.46187 0.62305 0.0
C1861 C 0.84037 0.43869 0.62361 0.0
C1862 C 0.8509 0.42181 0.63223 0.0
C1863 C 0.86619 0.39058 0.70772 0.0
C1864 C 0.84457 0.37789 0.7088 0.0
C1865 C 0.87737 0.39309 0.69509 0.0
C1866 C 0.86707 0.38315 0.68329 0.0
C1867 C 0.84524 0.37083 0.68423 0.0
C1868 C 0.83416 0.36801 0.69695 0.0
C1869 C 0.8793 0.38631 0.67004 0.0
C1870 C 0.86878 0.40135 0.66033 0.0
C1871 C 0.90291 0.37783 0.66801 0.0
C1872 C 0.91416 0.36079 0.67771 0.0
C1873 C 0.90213 0.33971 0.68143 0.0
C1874 C 0.91228 0.32418 0.69097 0.0
C1875 C 0.93457 0.3294 0.69679 0.0
C1876 C 0.94681 0.35012 0.69304 0.0
C1877 C 0.9367 0.36577 0.68354 0.0
H1878 H 0.94237 0.31737 0.7042 0.0
H1879 H 0.84141 0.4749 0.61636 0.0
H1880 H 0.62527 0.05439 0.37896 0.0
H1881 H 0.64794 0.07614 0.36174 0.0
H1882 H 0.61977 0.14272 0.37727 0.0
H1883 H 0.59631 0.12076 0.39423 0.0
H1884 H 0.61499 0.14247 0.35149 0.0
H1885 H 0.68099 0.12659 0.38031 0.0
H1886 H 0.70815 0.10329 0.395 0.0
H1887 H 0.72748 0.05911 0.36077 0.0
H1888 H 0.70014 0.0819 0.34591 0.0
H1889 H 0.68803 0.2025 0.30201 0.0
H1890 H 0.67765 0.18856 0.32501 0.0
H1891 H 0.67449 0.11613 0.31003 0.0
H1892 H 0.68414 0.12998 0.28698 0.0
H1893 H 0.6989 0.12544 0.33771 0.0
H1894 H 0.62564 0.13922 0.31084 0.0
H1895 H 0.59946 0.16469 0.29674 0.0
H1896 H 0.59609 0.21649 0.32918 0.0
H1897 H 0.62258 0.19143 0.34338 0.0
C1898 C 0.62432 0.0737 0.37887 0.0
C1899 C 0.60907 0.08593 0.38789 0.0
C1900 C 0.63737 0.08616 0.36906 0.0
C1901 C 0.63586 0.11116 0.36828 0.0
C1902 C 0.62125 0.12346 0.37765 0.0
C1903 C 0.60788 0.11094 0.38733 0.0
C1904 C 0.64766 0.12404 0.35688 0.0
C1905 C 0.63353 0.13914 0.34874 0.0
C1906 C 0.67182 0.11969 0.35312 0.0
C1907 C 0.68837 0.10589 0.362 0.0
C1908 C 0.69089 0.1118 0.37593 0.0
C1909 C 0.70635 0.09869 0.38429 0.0
C1910 C 0.71951 0.07971 0.37883 0.0
C1911 C 0.71727 0.07382 0.36499 0.0
C1912 C 0.70182 0.08686 0.35659 0.0
C1913 C 0.68546 0.18358 0.30369 0.0
C1914 C 0.68667 0.1673 0.29274 0.0
C1915 C 0.67959 0.17567 0.31679 0.0
C1916 C 0.67537 0.15136 0.31914 0.0
C1917 C 0.67783 0.13495 0.30838 0.0
C1918 C 0.68318 0.14289 0.29523 0.0
C1919 C 0.66601 0.14319 0.33242 0.0
C1920 C 0.68056 0.12903 0.34079 0.0
C1921 C 0.64241 0.14872 0.33657 0.0
C1922 C 0.62632 0.16363 0.32809 0.0
C1923 C 0.6195 0.15615 0.31491 0.0
C1924 C 0.60457 0.17048 0.30691 0.0
C1925 C 0.59618 0.19224 0.31204 0.0
C1926 C 0.60264 0.19966 0.3252 0.0
C1927 C 0.61761 0.1854 0.33323 0.0
H1928 H 0.58462 0.20332 0.30583 0.0
H1929 H 0.73147 0.06958 0.38532 0.0
H1930 H 0.98501 0.14441 0.63144 0.0
H1931 H 0.96379 0.16528 0.61312 0.0
H1932 H 0.90491 0.11585 0.61645 0.0
H1933 H 0.92533 0.09554 0.63519 0.0
H1934 H 0.93672 0.12073 0.5896 0.0
H1935 H 0.88746 0.16161 0.62344 0.0
H1936 H 0.88158 0.18763 0.64355 0.0
H1937 H 0.91731 0.24504 0.62298 0.0
H1938 H 0.92375 0.2192 0.60281 0.0
H1939 H 0.86261 0.14639 0.53575 0.0
H1940 H 0.8743 0.13897 0.55942 0.0
H1941 H 0.90838 0.20809 0.56136 0.0
H1942 H 0.89539 0.21608 0.53776 0.0
H1943 H 0.89098 0.19645 0.58607 0.0
H1944 H 0.9409 0.15888 0.5529 0.0
H1945 H 0.9504 0.13457 0.53255 0.0
H1946 H 0.91919 0.073 0.55151 0.0
H1947 H 0.90917 0.09704 0.57191 0.0
C1948 C 0.96718 0.13847 0.62864 0.0
C1949 C 0.95705 0.11803 0.63466 0.0
C1950 C 0.95512 0.15041 0.61815 0.0
C1951 C 0.93285 0.14206 0.61351 0.0
C1952 C 0.92209 0.12256 0.61997 0.0
C1953 C 0.93393 0.11083 0.63057 0.0
C1954 C 0.92265 0.15096 0.60058 0.0
C1955 C 0.92645 0.13713 0.58884 0.0
C1956 C 0.91025 0.17286 0.59959 0.0
C1957 C 0.90637 0.18836 0.6117 0.0
C1958 C 0.89433 0.17968 0.62327 0.0
C1959 C 0.89082 0.19442 0.63466 0.0
C1960 C 0.89914 0.21795 0.63456 0.0
C1961 C 0.91092 0.2268 0.62305 0.0
C1962 C 0.91449 0.21211 0.61164 0.0
C1963 C 0.87209 0.1602 0.54136 0.0
C1964 C 0.87839 0.18165 0.53499 0.0
C1965 C 0.87884 0.15595 0.55484 0.0
C1966 C 0.89286 0.17268 0.56201 0.0
C1967 C 0.89772 0.19488 0.55598 0.0
C1968 C 0.89036 0.19941 0.54253 0.0
C1969 C 0.90435 0.16575 0.5751 0.0
C1970 C 0.90117 0.18002 0.58682 0.0
C1971 C 0.91789 0.14442 0.57608 0.0
C1972 C 0.92411 0.12981 0.56389 0.0
C1973 C 0.93593 0.14019 0.5527 0.0
C1974 C 0.94142 0.12646 0.54116 0.0
C1975 C 0.93536 0.10227 0.54072 0.0
C1976 C 0.92385 0.09175 0.55185 0.0
C1977 C 0.91829 0.10541 0.56341 0.0
H1978 H 0.93962 0.09167 0.53177 0.0
H1979 H 0.8964 0.22934 0.64339 0.0
H1980 H 0.9134 0.49231 0.8737 0.0
H1981 H 0.8896 0.4748 0.85527 0.0
H1982 H 0.9078 0.40419 0.86948 0.0
H1983 H 0.9328 0.42191 0.88751 0.0
H1984 H 0.91408 0.40429 0.84438 0.0
H1985 H 0.84802 0.42879 0.8708 0.0
H1986 H 0.82258 0.45488 0.88502 0.0
H1987 H 0.81427 0.50331 0.85146 0.0
H1988 H 0.83995 0.4777 0.83709 0.0
H1989 H 0.84017 0.36192 0.78874 0.0
H1990 H 0.84753 0.37162 0.81292 0.0
H1991 H 0.86845 0.44295 0.8017 0.0
H1992 H 0.86195 0.43319 0.77756 0.0
H1993 H 0.83622 0.43545 0.82751 0.0
H1994 H 0.91135 0.41155 0.80407 0.0
H1995 H 0.93481 0.38265 0.79049 0.0
H1996 H 0.92179 0.32857 0.82055 0.0
H1997 H 0.89794 0.35712 0.8342 0.0
C1998 C 0.91192 0.47306 0.87301 0.0
C1999 C 0.92486 0.45841 0.88197 0.0
C2000 C 0.89815 0.46301 0.86254 0.0
C2001 C 0.8965 0.43808 0.86104 0.0
C2002 C 0.90874 0.42344 0.87038 0.0
C2003 C 0.92297 0.43352 0.88068 0.0
C2004 C 0.88418 0.42755 0.84891 0.0
C2005 C 0.89674 0.41073 0.84097 0.0
C2006 C 0.86152 0.43579 0.84428 0.0
C2007 C 0.84606 0.45135 0.85288 0.0
C2008 C 0.84092 0.44509 0.86647 0.0
C2009 C 0.82643 0.45978 0.87456 0.0
C2010 C 0.81684 0.48076 0.86915 0.0
C2011 C 0.8217 0.48706 0.85564 0.0
C2012 C 0.8362 0.47243 0.84751 0.0
C2013 C 0.84589 0.37979 0.79148 0.0
C2014 C 0.85067 0.39679 0.78132 0.0
C2015 C 0.85005 0.38528 0.80526 0.0
C2016 C 0.85846 0.40799 0.80902 0.0
C2017 C 0.86181 0.42539 0.79896 0.0
C2018 C 0.85825 0.41975 0.7852 0.0
C2019 C 0.8665 0.41299 0.82313 0.0
C2020 C 0.8532 0.42872 0.8313 0.0
C2021 C 0.88813 0.40335 0.82818 0.0
C2022 C 0.90264 0.38634 0.82004 0.0
C2023 C 0.91331 0.39344 0.80771 0.0
C2024 C 0.92671 0.37714 0.80002 0.0
C2025 C 0.92972 0.35376 0.80463 0.0
C2026 C 0.9194 0.34666 0.81697 0.0
C2027 C 0.90595 0.36289 0.82469 0.0
H2028 H 0.9401 0.34117 0.79866 0.0
H2029 H 0.80562 0.49211 0.87543 0.0
H2030 H 0.56694 0.45786 0.1131 0.0
H2031 H 0.58306 0.43375 0.09451 0.0
H2032 H 0.60508 0.37986 0.12325 0.0
H2033 H 0.58911 0.40429 0.14215 0.0
H2034 H 0.64036 0.39145 0.10263 0.0
H2035 H 0.55926 0.36631 0.10545 0.0
H2036 H 0.51556 0.37127 0.10794 0.0
H2037 H 0.51307 0.41131 0.07066 0.0
H2038 H 0.55682 0.40693 0.06803 0.0
H2039 H 0.66555 0.33351 0.03713 0.0
H2040 H 0.6512 0.33818 0.06074 0.0
H2041 H 0.61287 0.4018 0.04911 0.0
H2042 H 0.62678 0.39735 0.02579 0.0
H2043 H 0.58528 0.37166 0.06431 0.0
H2044 H 0.66687 0.40473 0.06515 0.0
H2045 H 0.71081 0.40154 0.06286 0.0
H2046 H 0.71212 0.34664 0.09334 0.0
H2047 H 0.66812 0.34934 0.09568 0.0
C2048 C 0.57548 0.44104 0.11553 0.0
C2049 C 0.57684 0.433 0.12909 0.0
C2050 C 0.5845 0.42718 0.10488 0.0
C2051 C 0.595 0.40493 0.10752 0.0
C2052 C 0.59691 0.39695 0.12104 0.0
C2053 C 0.5877 0.41083 0.13177 0.0
C2054 C 0.60358 0.39034 0.09587 0.0
C2055 C 0.6283 0.38646 0.09438 0.0
C2056 C 0.58779 0.38387 0.08516 0.0
C2057 C 0.56137 0.38631 0.08657 0.0
C2058 C 0.54943 0.37628 0.09781 0.0
C2059 C 0.52463 0.37898 0.09925 0.0
C2060 C 0.51155 0.3916 0.08947 0.0
C2061 C 0.52323 0.40151 0.07822 0.0
C2062 C 0.54802 0.39888 0.07674 0.0
C2063 C 0.65404 0.34846 0.03962 0.0
C2064 C 0.64736 0.36506 0.02953 0.0
C2065 C 0.6459 0.3511 0.0531 0.0
C2066 C 0.63095 0.37032 0.05664 0.0
C2067 C 0.62426 0.38674 0.04658 0.0
C2068 C 0.63237 0.38421 0.03322 0.0
C2069 C 0.62215 0.37405 0.07076 0.0
C2070 C 0.59731 0.37582 0.07273 0.0
C2071 C 0.63783 0.37856 0.08187 0.0
C2072 C 0.66422 0.377 0.08045 0.0
C2073 C 0.67652 0.39184 0.07127 0.0
C2074 C 0.70143 0.39015 0.06999 0.0
C2075 C 0.71424 0.37383 0.07792 0.0
C2076 C 0.70217 0.35923 0.08718 0.0
C2077 C 0.67725 0.36083 0.08849 0.0
H2078 H 0.73353 0.37256 0.07691 0.0
H2079 H 0.49236 0.39369 0.0906 0.0
loop_
_geom_bond_atom_site_label_1
_geom_bond_atom_site_label_2
_geom_bond_distance
_geom_bond_site_symmetry_2
_ccdc_geom_bond_type
C0 C1 1.384 . S
C0 C2 1.384 . S
C0 H28 0.931 . S
C1 C0 1.384 . S
C1 C4 1.382 1_565 S
C2 C0 1.384 . S
C2 C3 1.381 1_565 S
C2 H29 0.930 . S
C3 C2 1.381 1_545 S
C3 C5 1.381 . S
C3 C6 1.487 . S
C4 C1 1.382 1_545 S
C4 C5 1.387 . S
C4 H30 0.930 . S
C5 C3 1.381 . S
C5 C4 1.387 . S
C5 H31 0.931 . S
C6 C3 1.487 . S
C6 C13 1.399 . S
C6 N44 1.343 . S
C7 C8 1.384 . S
C7 C9 1.384 1_565 S
C7 H32 0.931 . S
C8 C7 1.384 . S
C8 C11 1.382 . S
C9 C7 1.384 1_545 S
C9 C10 1.381 . S
C9 H33 0.930 . S
C10 C9 1.381 . S
C10 C12 1.381 1_545 S
C10 C13 1.488 . S
C11 C8 1.382 . S
C11 C12 1.387 . S
C11 H34 0.930 . S
C12 C10 1.381 1_565 S
C12 C11 1.387 . S
C12 H35 0.931 . S
C13 C6 1.399 . S
C13 C10 1.488 . S
C13 N45 1.343 . S
C14 C15 1.384 . S
C14 C16 1.384 . S
C14 H36 0.931 . S
C15 C14 1.384 . S
C15 C18 1.382 . S
C16 C14 1.384 . S
C16 C17 1.381 . S
C16 H37 0.910 1_655 S
C17 C16 1.381 . S
C17 C19 1.381 . S
C17 C20 1.487 1_655 S
C18 C15 1.382 . S
C18 C19 1.387 . S
C18 H38 0.930 . S
C19 C17 1.381 . S
C19 C18 1.387 . S
C19 H39 0.931 . S
C20 C17 1.487 1_455 S
C20 C27 1.399 . S
C20 N45 1.343 . S
C21 C22 1.384 . S
C21 C23 1.384 . S
C21 H40 0.931 . S
C22 C21 1.384 . S
C22 C25 1.382 . S
C23 C21 1.384 . S
C23 C24 1.397 . S
C23 H41 0.930 . S
C24 C23 1.397 . S
C24 C26 1.376 1_655 S
C24 C27 1.477 1_655 S
C25 C22 1.382 . S
C25 C26 1.387 1_655 S
C25 H42 0.948 . S
C26 C24 1.376 1_455 S
C26 C25 1.387 1_455 S
C26 H43 0.931 . S
C27 C20 1.399 . S
C27 C24 1.477 1_455 S
C27 N44 1.343 . S
H28 C0 0.931 . S
H29 C2 0.930 . S
H30 C4 0.930 . S
H31 C5 0.931 . S
H32 C7 0.931 . S
H33 C9 0.930 . S
H34 C11 0.930 . S
H35 C12 0.931 . S
H36 C14 0.931 . S
H37 C16 0.910 1_455 S
H38 C18 0.930 . S
H39 C19 0.931 . S
H40 C21 0.931 . S
H41 C23 0.930 . S
H42 C25 0.948 . S
H43 C26 0.931 . S
N44 C6 1.343 . S
N44 C27 1.343 . S
N45 C13 1.343 . S
N45 C20 1.343 . S
C46 C47 1.384 . S
C46 C48 1.384 . S
C46 H74 0.931 . S
C47 C46 1.384 . S
C47 C50 1.382 . S
C48 C46 1.384 . S
C48 C49 1.381 . S
C48 H75 0.930 . S
C49 C48 1.381 . S
C49 C51 1.381 . S
C49 C52 1.487 . S
C50 C47 1.382 . S
C50 C51 1.387 . S
C50 H76 0.930 . S
C51 C49 1.381 . S
C51 C50 1.387 . S
C51 H77 0.931 1_655 S
C52 C49 1.487 . S
C52 C59 1.399 . S
C52 N90 1.343 1_655 S
C53 C54 1.384 . S
C53 C55 1.384 . S
C53 H78 0.931 . S
C54 C53 1.384 . S
C54 C57 1.382 . S
C55 C53 1.384 . S
C55 C56 1.381 . S
C55 H79 0.930 . S
C56 C55 1.381 . S
C56 C58 1.381 . S
C56 C59 1.487 . S
C57 C54 1.382 . S
C57 C58 1.387 . S
C57 H80 0.930 . S
C58 C56 1.381 . S
C58 C57 1.387 . S
C58 H81 0.931 . S
C59 C52 1.399 . S
C59 C56 1.487 . S
C59 N91 1.343 1_655 S
C60 C61 1.384 . S
C60 C62 1.384 . S
C60 H82 0.931 . S
C61 C60 1.384 . S
C61 C64 1.382 . S
C62 C60 1.384 . S
C62 C63 1.381 . S
C62 H83 0.930 . S
C63 C62 1.381 . S
C63 C65 1.381 . S
C63 C66 1.487 . S
C64 C61 1.382 . S
C64 C65 1.387 . S
C64 H84 0.930 . S
C65 C63 1.381 . S
C65 C64 1.387 . S
C65 H85 0.931 . S
C66 C63 1.487 . S
C66 C73 1.399 . S
C66 N91 1.343 . S
C67 C68 1.384 . S
C67 C69 1.384 . S
C67 H86 0.931 . S
C68 C67 1.384 . S
C68 C71 1.382 . S
C69 C67 1.384 . S
C69 C70 1.381 . S
C69 H87 0.930 . S
C70 C69 1.381 . S
C70 C72 1.381 . S
C70 C73 1.487 . S
C71 C68 1.382 . S
C71 C72 1.387 . S
C71 H88 0.930 . S
C72 C70 1.381 . S
C72 C71 1.387 . S
C72 H89 0.931 . S
C73 C66 1.399 . S
C73 C70 1.487 . S
C73 N90 1.343 . S
H74 C46 0.931 . S
H75 C48 0.930 . S
H76 C50 0.930 . S
H77 C51 0.931 1_455 S
H78 C53 0.931 . S
H79 C55 0.930 . S
H80 C57 0.930 . S
H81 C58 0.931 . S
H82 C60 0.931 . S
H83 C62 0.930 . S
H84 C64 0.930 . S
H85 C65 0.931 . S
H86 C67 0.931 . S
H87 C69 0.930 . S
H88 C71 0.930 . S
H89 C72 0.931 . S
N90 C52 1.343 1_455 S
N90 C73 1.343 . S
N91 C59 1.343 1_455 S
N91 C66 1.343 . S
C92 C93 1.384 . S
C92 C94 1.384 . S
C92 H120 0.931 . S
C93 C92 1.384 . S
C93 C96 1.382 . S
C94 C92 1.384 . S
C94 C95 1.381 . S
C94 H121 0.930 . S
C95 C94 1.381 . S
C95 C97 1.381 . S
C95 C98 1.487 . S
C96 C93 1.382 . S
C96 C97 1.387 . S
C96 H122 0.930 . S
C97 C95 1.381 . S
C97 C96 1.387 . S
C97 H123 0.931 . S
C98 C95 1.487 . S
C98 C105 1.399 . S
C98 N136 1.343 . S
C99 C100 1.384 . S
C99 C101 1.384 . S
C99 H124 0.931 . S
C100 C99 1.384 . S
C100 C103 1.382 . S
C101 C99 1.384 . S
C101 C102 1.381 . S
C101 H125 0.930 . S
C102 C101 1.381 . S
C102 C104 1.381 . S
C102 C105 1.487 . S
C103 C100 1.382 . S
C103 C104 1.387 . S
C103 H126 0.930 . S
C104 C102 1.381 . S
C104 C103 1.387 . S
C104 H127 0.931 . S
C105 C98 1.399 . S
C105 C102 1.487 . S
C105 N137 1.343 . S
C106 C107 1.384 . S
C106 C108 1.384 . S
C106 H128 0.931 . S
C107 C106 1.384 . S
C107 C110 1.382 . S
C108 C106 1.384 . S
C108 C109 1.381 . S
C108 H129 0.930 . S
C109 C108 1.381 . S
C109 C111 1.381 . S
C109 C112 1.487 . S
C110 C107 1.382 . S
C110 C111 1.387 . S
C110 H130 0.930 . S
C111 C109 1.381 . S
C111 C110 1.387 . S
C111 H131 0.931 . S
C112 C109 1.487 . S
C112 C119 1.399 . S
C112 N137 1.343 . S
C113 C114 1.384 . S
C113 C115 1.384 . S
C113 H132 0.931 . S
C114 C113 1.384 . S
C114 C117 1.382 . S
C115 C113 1.384 . S
C115 C116 1.381 . S
C115 H133 0.930 . S
C116 C115 1.381 . S
C116 C118 1.381 . S
C116 C119 1.487 . S
C117 C114 1.382 . S
C117 C118 1.387 . S
C117 H134 0.930 . S
C118 C116 1.381 . S
C118 C117 1.387 . S
C118 H135 0.931 . S
C119 C112 1.399 . S
C119 C116 1.487 . S
C119 N136 1.343 . S
H120 C92 0.931 . S
H121 C94 0.930 . S
H122 C96 0.930 . S
H123 C97 0.931 . S
H124 C99 0.931 . S
H125 C101 0.930 . S
H126 C103 0.930 . S
H127 C104 0.931 . S
H128 C106 0.931 . S
H129 C108 0.930 . S
H130 C110 0.930 . S
H131 C111 0.931 . S
H132 C113 0.931 . S
H133 C115 0.930 . S
H134 C117 0.930 . S
H135 C118 0.931 . S
N136 C98 1.343 . S
N136 C119 1.343 . S
N137 C105 1.343 . S
N137 C112 1.343 . S
C138 C139 1.384 . S
C138 C140 1.384 . S
C138 H166 0.931 . S
C139 C138 1.384 . S
C139 C142 1.382 . S
C140 C138 1.384 . S
C140 C141 1.381 . S
C140 H167 0.930 . S
C141 C140 1.381 . S
C141 C143 1.381 . S
C141 C144 1.487 . S
C142 C139 1.382 . S
C142 C143 1.387 . S
C142 H168 0.930 . S
C143 C141 1.381 . S
C143 C142 1.387 . S
C143 H169 0.931 . S
C144 C141 1.487 . S
C144 C151 1.399 . S
C144 N182 1.343 1_565 S
C145 C146 1.384 . S
C145 C147 1.384 . S
C145 H170 0.931 . S
C146 C145 1.384 . S
C146 C149 1.382 . S
C147 C145 1.384 . S
C147 C148 1.381 . S
C147 H171 0.930 . S
C148 C147 1.381 . S
C148 C150 1.381 . S
C148 C151 1.487 . S
C149 C146 1.382 . S
C149 C150 1.387 . S
C149 H172 0.930 . S
C150 C148 1.381 . S
C150 C149 1.387 . S
C150 H173 0.931 . S
C151 C144 1.399 . S
C151 C148 1.487 . S
C151 N183 1.343 . S
C152 C153 1.384 . S
C152 C154 1.384 . S
C152 H174 0.931 . S
C153 C152 1.384 . S
C153 C156 1.382 . S
C154 C152 1.384 . S
C154 C155 1.381 . S
C154 H175 0.930 . S
C155 C154 1.381 . S
C155 C157 1.381 . S
C155 C158 1.487 . S
C156 C153 1.382 . S
C156 C157 1.387 . S
C156 H176 0.930 . S
C157 C155 1.381 . S
C157 C156 1.387 . S
C157 H177 0.931 . S
C158 C155 1.487 . S
C158 C165 1.399 . S
C158 N183 1.343 1_545 S
C159 C160 1.384 . S
C159 C161 1.384 . S
C159 H178 0.931 . S
C160 C159 1.384 . S
C160 C163 1.382 . S
C161 C159 1.384 . S
C161 C162 1.381 . S
C161 H179 0.930 . S
C162 C161 1.381 . S
C162 C164 1.381 . S
C162 C165 1.487 . S
C163 C160 1.382 . S
C163 C164 1.387 . S
C163 H180 0.930 . S
C164 C162 1.381 . S
C164 C163 1.387 . S
C164 H181 0.931 . S
C165 C158 1.399 . S
C165 C162 1.487 . S
C165 N182 1.343 . S
H166 C138 0.931 . S
H167 C140 0.930 . S
H168 C142 0.930 . S
H169 C143 0.931 . S
H170 C145 0.931 . S
H171 C147 0.930 . S
H172 C149 0.930 . S
H173 C150 0.931 . S
H174 C152 0.931 . S
H175 C154 0.930 . S
H176 C156 0.930 . S
H177 C157 0.931 . S
H178 C159 0.931 . S
H179 C161 0.930 . S
H180 C163 0.930 . S
H181 C164 0.931 . S
N182 C144 1.343 1_545 S
N182 C165 1.343 . S
N183 C151 1.343 . S
N183 C158 1.343 1_565 S
C184 C185 1.384 . S
C184 C186 1.384 . S
C184 H212 0.931 . S
C185 C184 1.384 . S
C185 C188 1.382 . S
C186 C184 1.384 . S
C186 C187 1.381 . S
C186 H213 0.930 . S
C187 C186 1.381 . S
C187 C189 1.381 . S
C187 C190 1.487 . S
C188 C185 1.382 . S
C188 C189 1.387 . S
C188 H214 0.930 . S
C189 C187 1.381 . S
C189 C188 1.387 . S
C189 H215 0.931 . S
C190 C187 1.487 . S
C190 C197 1.399 . S
C190 N228 1.343 . S
C191 C192 1.384 . S
C191 C193 1.384 . S
C191 H216 0.931 . S
C192 C191 1.384 . S
C192 C195 1.382 . S
C193 C191 1.384 . S
C193 C194 1.381 . S
C193 H217 0.930 . S
C194 C193 1.381 . S
C194 C196 1.381 . S
C194 C197 1.487 . S
C195 C192 1.382 . S
C195 C196 1.387 . S
C195 H218 0.930 . S
C196 C194 1.381 . S
C196 C195 1.387 . S
C196 H219 0.931 . S
C197 C190 1.399 . S
C197 C194 1.487 . S
C197 N229 1.343 1_455 S
C198 C199 1.384 . S
C198 C200 1.384 . S
C198 H220 0.931 . S
C199 C198 1.384 . S
C199 C202 1.382 . S
C200 C198 1.384 . S
C200 C201 1.381 . S
C200 H221 0.930 . S
C201 C200 1.381 . S
C201 C203 1.381 . S
C201 C204 1.487 . S
C202 C199 1.382 . S
C202 C203 1.387 . S
C202 H222 0.930 . S
C203 C201 1.381 . S
C203 C202 1.387 . S
C203 H223 0.931 . S
C204 C201 1.487 . S
C204 C211 1.399 . S
C204 N229 1.343 . S
C205 C206 1.384 . S
C205 C207 1.384 . S
C205 H224 0.931 . S
C206 C205 1.384 . S
C206 C209 1.382 . S
C207 C205 1.384 . S
C207 C208 1.381 . S
C207 H225 0.930 . S
C208 C207 1.381 . S
C208 C210 1.381 . S
C208 C211 1.487 . S
C209 C206 1.382 . S
C209 C210 1.387 . S
C209 H226 0.930 . S
C210 C208 1.381 . S
C210 C209 1.387 . S
C210 H227 0.931 . S
C211 C204 1.399 . S
C211 C208 1.487 . S
C211 N228 1.343 1_655 S
H212 C184 0.931 . S
H213 C186 0.930 . S
H214 C188 0.930 . S
H215 C189 0.931 . S
H216 C191 0.931 . S
H217 C193 0.930 . S
H218 C195 0.930 . S
H219 C196 0.931 . S
H220 C198 0.931 . S
H221 C200 0.930 . S
H222 C202 0.930 . S
H223 C203 0.931 . S
H224 C205 0.931 . S
H225 C207 0.930 . S
H226 C209 0.930 . S
H227 C210 0.931 . S
N228 C190 1.343 . S
N228 C211 1.343 1_455 S
N229 C197 1.343 1_655 S
N229 C204 1.343 . S
C230 C231 1.384 . S
C230 C232 1.384 . S
C230 H258 0.931 . S
C231 C230 1.384 . S
C231 C234 1.382 . S
C232 C230 1.384 . S
C232 C233 1.381 . S
C232 H259 0.930 . S
C233 C232 1.381 . S
C233 C235 1.381 . S
C233 C236 1.487 . S
C234 C231 1.382 . S
C234 C235 1.387 . S
C234 H260 0.930 . S
C235 C233 1.381 . S
C235 C234 1.387 . S
C235 H261 0.931 . S
C236 C233 1.487 . S
C236 C243 1.399 . S
C236 N274 1.343 . S
C237 C238 1.384 . S
C237 C239 1.384 . S
C237 H262 0.931 . S
C238 C237 1.384 . S
C238 C241 1.382 . S
C239 C237 1.384 . S
C239 C240 1.381 . S
C239 H263 0.930 . S
C240 C239 1.381 . S
C240 C242 1.381 . S
C240 C243 1.487 . S
C241 C238 1.382 . S
C241 C242 1.387 . S
C241 H264 0.930 . S
C242 C240 1.381 . S
C242 C241 1.387 . S
C242 H265 0.931 . S
C243 C236 1.399 . S
C243 C240 1.487 . S
C243 N275 1.343 . S
C244 C245 1.384 . S
C244 C246 1.384 . S
C244 H266 0.931 . S
C245 C244 1.384 . S
C245 C248 1.382 . S
C246 C244 1.384 . S
C246 C247 1.381 . S
C246 H267 0.930 . S
C247 C246 1.381 . S
C247 C249 1.381 . S
C247 C250 1.487 . S
C248 C245 1.382 . S
C248 C249 1.387 . S
C248 H268 0.930 . S
C249 C247 1.381 . S
C249 C248 1.387 . S
C249 H269 0.931 . S
C250 C247 1.487 . S
C250 C257 1.399 . S
C250 N275 1.343 . S
C251 C252 1.384 . S
C251 C253 1.384 . S
C251 H270 0.931 . S
C252 C251 1.384 . S
C252 C255 1.382 . S
C253 C251 1.384 . S
C253 C254 1.381 . S
C253 H271 0.930 . S
C254 C253 1.381 . S
C254 C256 1.381 . S
C254 C257 1.487 . S
C255 C252 1.382 . S
C255 C256 1.387 . S
C255 H272 0.930 . S
C256 C254 1.381 . S
C256 C255 1.387 . S
C256 H273 0.931 . S
C257 C250 1.399 . S
C257 C254 1.487 . S
C257 N274 1.343 . S
H258 C230 0.931 . S
H259 C232 0.930 . S
H260 C234 0.930 . S
H261 C235 0.931 . S
H262 C237 0.931 . S
H263 C239 0.930 . S
H264 C241 0.930 . S
H265 C242 0.931 . S
H266 C244 0.931 . S
H267 C246 0.930 . S
H268 C248 0.930 . S
H269 C249 0.931 . S
H270 C251 0.931 . S
H271 C253 0.930 . S
H272 C255 0.930 . S
H273 C256 0.931 . S
N274 C236 1.343 . S
N274 C257 1.343 . S
N275 C243 1.343 . S
N275 C250 1.343 . S
C276 C277 1.384 . S
C276 C278 1.384 . S
C276 H304 0.931 . S
C277 C276 1.384 . S
C277 C280 1.382 . S
C278 C276 1.384 . S
C278 C279 1.381 . S
C278 H305 0.930 . S
C279 C278 1.381 . S
C279 C281 1.381 . S
C279 C282 1.487 . S
C280 C277 1.382 . S
C280 C281 1.387 . S
C280 H306 0.930 . S
C281 C279 1.381 . S
C281 C280 1.387 . S
C281 H307 0.931 1_565 S
C282 C279 1.487 . S
C282 C289 1.399 . S
C282 N320 1.343 1_565 S
C283 C284 1.384 . S
C283 C285 1.384 . S
C283 H308 0.931 . S
C284 C283 1.384 . S
C284 C287 1.382 . S
C285 C283 1.384 . S
C285 C286 1.381 . S
C285 H309 0.930 . S
C286 C285 1.381 . S
C286 C288 1.381 . S
C286 C289 1.487 . S
C287 C284 1.382 . S
C287 C288 1.387 . S
C287 H310 0.930 . S
C288 C286 1.381 . S
C288 C287 1.387 . S
C288 H311 0.931 . S
C289 C282 1.399 . S
C289 C286 1.487 . S
C289 N321 1.343 1_565 S
C290 C291 1.384 . S
C290 C292 1.384 . S
C290 H312 0.931 . S
C291 C290 1.384 . S
C291 C294 1.382 . S
C292 C290 1.384 . S
C292 C293 1.381 . S
C292 H313 0.930 . S
C293 C292 1.381 . S
C293 C295 1.381 . S
C293 C296 1.487 . S
C294 C291 1.382 . S
C294 C295 1.387 . S
C294 H314 0.930 . S
C295 C293 1.381 . S
C295 C294 1.387 . S
C295 H315 0.931 . S
C296 C293 1.487 . S
C296 C303 1.399 . S
C296 N321 1.343 . S
C297 C298 1.384 . S
C297 C299 1.384 . S
C297 H316 0.931 . S
C298 C297 1.384 . S
C298 C301 1.382 . S
C299 C297 1.384 . S
C299 C300 1.381 . S
C299 H317 0.930 . S
C300 C299 1.381 . S
C300 C302 1.381 . S
C300 C303 1.487 . S
C301 C298 1.382 . S
C301 C302 1.387 . S
C301 H318 0.930 . S
C302 C300 1.381 . S
C302 C301 1.387 . S
C302 H319 0.931 . S
C303 C296 1.399 . S
C303 C300 1.487 . S
C303 N320 1.343 . S
H304 C276 0.931 . S
H305 C278 0.930 . S
H306 C280 0.930 . S
H307 C281 0.931 1_545 S
H308 C283 0.931 . S
H309 C285 0.930 . S
H310 C287 0.930 . S
H311 C288 0.931 . S
H312 C290 0.931 . S
H313 C292 0.930 . S
H314 C294 0.930 . S
H315 C295 0.931 . S
H316 C297 0.931 . S
H317 C299 0.930 . S
H318 C301 0.930 . S
H319 C302 0.931 . S
N320 C282 1.343 1_545 S
N320 C303 1.343 . S
N321 C289 1.343 1_545 S
N321 C296 1.343 . S
C322 C323 1.384 . S
C322 C324 1.386 1_565 S
C322 H350 0.931 . S
C323 C322 1.384 . S
C323 C326 1.382 . S
C324 C322 1.386 1_545 S
C324 C325 1.381 . S
C324 H351 0.929 . S
C325 C324 1.381 . S
C325 C327 1.381 1_545 S
C325 C328 1.487 . S
C326 C323 1.382 . S
C326 C327 1.387 . S
C326 H352 0.930 . S
C327 C325 1.381 1_565 S
C327 C326 1.387 . S
C327 H353 0.931 . S
C328 C325 1.487 . S
C328 C335 1.399 . S
C328 N366 1.343 . S
C329 C330 1.384 . S
C329 C331 1.384 . S
C329 H354 0.931 . S
C330 C329 1.384 . S
C330 C333 1.382 . S
C331 C329 1.384 . S
C331 C332 1.381 1_565 S
C331 H355 0.930 . S
C332 C331 1.381 1_545 S
C332 C334 1.381 . S
C332 C335 1.487 . S
C333 C330 1.382 . S
C333 C334 1.387 1_565 S
C333 H356 0.930 1_565 S
C334 C332 1.381 . S
C334 C333 1.387 1_545 S
C334 H357 0.931 . S
C335 C328 1.399 . S
C335 C332 1.487 . S
C335 N367 1.343 . S
C336 C337 1.384 . S
C336 C338 1.384 . S
C336 H358 0.931 . S
C337 C336 1.384 . S
C337 C340 1.382 1_655 S
C338 C336 1.384 . S
C338 C339 1.381 1_655 S
C338 H359 0.930 . S
C339 C338 1.381 1_455 S
C339 C341 1.381 . S
C339 C342 1.487 . S
C340 C337 1.382 1_455 S
C340 C341 1.387 . S
C340 H360 0.930 . S
C341 C339 1.381 . S
C341 C340 1.387 . S
C341 H361 0.931 . S
C342 C339 1.487 . S
C342 C349 1.399 . S
C342 N367 1.343 . S
C343 C344 1.384 . S
C343 C345 1.384 1_655 S
C343 H362 0.931 . S
C344 C343 1.384 . S
C344 C347 1.382 . S
C345 C343 1.384 1_455 S
C345 C346 1.381 . S
C345 H363 0.930 . S
C346 C345 1.381 . S
C346 C348 1.381 1_455 S
C346 C349 1.487 . S
C347 C344 1.382 . S
C347 C348 1.387 . S
C347 H364 0.930 . S
C348 C346 1.381 1_655 S
C348 C347 1.387 . S
C348 H365 0.931 . S
C349 C342 1.399 . S
C349 C346 1.487 . S
C349 N366 1.343 . S
H350 C322 0.931 . S
H351 C324 0.929 . S
H352 C326 0.930 . S
H353 C327 0.931 . S
H354 C329 0.931 . S
H355 C331 0.930 . S
H356 C333 0.930 1_545 S
H357 C334 0.931 . S
H358 C336 0.931 . S
H359 C338 0.930 . S
H360 C340 0.930 . S
H361 C341 0.931 . S
H362 C343 0.931 . S
H363 C345 0.930 . S
H364 C347 0.930 . S
H365 C348 0.931 . S
N366 C328 1.343 . S
N366 C349 1.343 . S
N367 C335 1.343 . S
N367 C342 1.343 . S
Co368 O369 2.216 . S
Co368 O370 2.091 . S
Co368 O372 2.004 . S
Co368 O378 2.021 1_554 S
Co368 O380 2.137 . S
Co368 O381 2.244 . S
O369 Co368 2.216 . S
O369 C376 1.247 . S
O370 Co368 2.091 . S
O370 C376 1.261 . S
C371 O380 1.247 . S
C371 O381 1.272 . S
O372 Co368 2.004 . S
O372 C377 1.259 . S
Co373 O374 2.061 . S
Co373 O379 2.052 1_554 S
Co373 O381 2.135 . S
O374 Co373 2.061 . S
O374 C377 1.235 . S
C375 O378 1.238 . S
C375 O379 1.241 . S
C376 O369 1.247 . S
C376 O370 1.261 . S
C377 O372 1.259 . S
C377 O374 1.235 . S
O378 Co368 2.021 1_556 S
O378 C375 1.238 . S
O379 Co373 2.052 1_556 S
O379 C375 1.241 . S
O380 Co368 2.137 . S
O380 C371 1.247 . S
O381 Co368 2.244 . S
O381 C371 1.272 . S
O381 Co373 2.135 . S
Co382 O383 2.216 . S
Co382 O384 2.091 . S
Co382 O386 2.004 . S
Co382 O392 2.021 . S
Co382 O394 2.137 . S
Co382 O395 2.244 . S
O383 Co382 2.216 . S
O383 C390 1.247 . S
O384 Co382 2.091 . S
O384 C390 1.261 . S
C385 O394 1.247 . S
C385 O395 1.272 . S
O386 Co382 2.004 . S
O386 C391 1.259 . S
Co387 O388 2.061 . S
Co387 O393 2.052 . S
Co387 O395 2.135 . S
O388 Co387 2.061 . S
O388 C391 1.235 . S
C389 O392 1.238 . S
C389 O393 1.241 . S
C390 O383 1.247 . S
C390 O384 1.261 . S
C391 O386 1.259 . S
C391 O388 1.235 . S
O392 Co382 2.021 . S
O392 C389 1.238 . S
O393 Co387 2.052 . S
O393 C389 1.241 . S
O394 Co382 2.137 . S
O394 C385 1.247 . S
O395 Co382 2.244 . S
O395 C385 1.272 . S
O395 Co387 2.135 . S
Co396 O397 2.216 . S
Co396 O398 2.091 . S
Co396 O400 2.004 . S
Co396 O406 2.021 . S
Co396 O408 2.137 . S
Co396 O409 2.244 . S
O397 Co396 2.216 . S
O397 C404 1.247 . S
O398 Co396 2.091 . S
O398 C404 1.261 . S
C399 O408 1.247 . S
C399 O409 1.272 . S
O400 Co396 2.004 . S
O400 C405 1.259 . S
Co401 O402 2.061 . S
Co401 O407 2.052 . S
Co401 O409 2.135 . S
O402 Co401 2.061 . S
O402 C405 1.235 . S
C403 O406 1.238 . S
C403 O407 1.241 . S
C404 O397 1.247 . S
C404 O398 1.261 . S
C405 O400 1.259 . S
C405 O402 1.235 . S
O406 Co396 2.021 . S
O406 C403 1.238 . S
O407 Co401 2.052 . S
O407 C403 1.241 . S
O408 Co396 2.137 . S
O408 C399 1.247 . S
O409 Co396 2.244 . S
O409 C399 1.272 . S
O409 Co401 2.135 . S
Co410 O411 2.216 . S
Co410 O412 2.091 . S
Co410 O414 2.004 . S
Co410 O420 2.021 . S
Co410 O422 2.137 . S
Co410 O423 2.244 . S
O411 Co410 2.216 . S
O411 C418 1.247 . S
O412 Co410 2.091 . S
O412 C418 1.261 . S
C413 O422 1.247 . S
C413 O423 1.272 . S
O414 Co410 2.004 . S
O414 C419 1.259 . S
Co415 O416 2.061 . S
Co415 O421 2.052 . S
Co415 O423 2.135 . S
O416 Co415 2.061 . S
O416 C419 1.235 . S
C417 O420 1.238 . S
C417 O421 1.241 . S
C418 O411 1.247 . S
C418 O412 1.261 . S
C419 O414 1.259 . S
C419 O416 1.235 . S
O420 Co410 2.021 . S
O420 C417 1.238 . S
O421 Co415 2.052 . S
O421 C417 1.241 . S
O422 Co410 2.137 . S
O422 C413 1.247 . S
O423 Co410 2.244 . S
O423 C413 1.272 . S
O423 Co415 2.135 . S
Co424 O425 2.216 . S
Co424 O426 2.091 . S
Co424 O428 2.004 . S
Co424 O434 2.021 . S
Co424 O436 2.137 . S
Co424 O437 2.244 . S
O425 Co424 2.216 . S
O425 C432 1.247 . S
O426 Co424 2.091 . S
O426 C432 1.261 . S
C427 O436 1.247 . S
C427 O437 1.272 . S
O428 Co424 2.004 . S
O428 C433 1.259 . S
Co429 O430 2.061 . S
Co429 O435 2.052 . S
Co429 O437 2.135 . S
O430 Co429 2.061 . S
O430 C433 1.235 . S
C431 O434 1.238 . S
C431 O435 1.241 . S
C432 O425 1.247 . S
C432 O426 1.261 . S
C433 O428 1.259 . S
C433 O430 1.235 . S
O434 Co424 2.021 . S
O434 C431 1.238 . S
O435 Co429 2.052 . S
O435 C431 1.241 . S
O436 Co424 2.137 . S
O436 C427 1.247 . S
O437 Co424 2.244 . S
O437 C427 1.272 . S
O437 Co429 2.135 . S
Co438 O439 2.216 . S
Co438 O440 2.091 . S
Co438 O442 2.004 . S
Co438 O448 2.021 . S
Co438 O450 2.137 . S
Co438 O451 2.244 . S
O439 Co438 2.216 . S
O439 C446 1.247 . S
O440 Co438 2.091 . S
O440 C446 1.261 . S
C441 O450 1.247 . S
C441 O451 1.272 . S
O442 Co438 2.004 . S
O442 C447 1.259 . S
Co443 O444 2.061 . S
Co443 O449 2.052 . S
Co443 O451 2.135 . S
O444 Co443 2.061 . S
O444 C447 1.235 . S
C445 O448 1.238 . S
C445 O449 1.241 . S
C446 O439 1.247 . S
C446 O440 1.261 . S
C447 O442 1.259 . S
C447 O444 1.235 . S
O448 Co438 2.021 . S
O448 C445 1.238 . S
O449 Co443 2.052 . S
O449 C445 1.241 . S
O450 Co438 2.137 . S
O450 C441 1.247 . S
O451 Co438 2.244 . S
O451 C441 1.272 . S
O451 Co443 2.135 . S
Co452 O453 2.216 1_556 S
Co452 O454 2.091 1_556 S
Co452 O456 2.004 . S
Co452 O462 2.021 1_556 S
Co452 O464 2.137 . S
Co452 O465 2.244 . S
O453 Co452 2.216 1_554 S
O453 C460 1.247 . S
O454 Co452 2.091 1_554 S
O454 C460 1.261 . S
C455 O464 1.247 . S
C455 O465 1.272 . S
O456 Co452 2.004 . S
O456 C461 1.259 . S
Co457 O458 2.061 . S
Co457 O463 2.052 1_556 S
Co457 O465 2.135 . S
O458 Co457 2.061 . S
O458 C461 1.235 . S
C459 O462 1.238 . S
C459 O463 1.241 . S
C460 O453 1.247 . S
C460 O454 1.261 . S
C461 O456 1.259 . S
C461 O458 1.235 . S
O462 Co452 2.021 1_554 S
O462 C459 1.238 . S
O463 Co457 2.052 1_554 S
O463 C459 1.241 . S
O464 Co452 2.137 . S
O464 C455 1.247 . S
O465 Co452 2.244 . S
O465 C455 1.272 . S
O465 Co457 2.135 . S
Co466 O467 2.216 . S
Co466 O468 2.091 . S
Co466 O470 2.004 . S
Co466 O476 2.021 . S
Co466 O478 2.137 . S
Co466 O479 2.244 . S
O467 Co466 2.216 . S
O467 C474 1.247 . S
O468 Co466 2.091 . S
O468 C474 1.261 . S
C469 O478 1.247 . S
C469 O479 1.272 . S
O470 Co466 2.004 . S
O470 C475 1.259 . S
Co471 O472 2.061 . S
Co471 O477 2.052 . S
Co471 O479 2.135 . S
O472 Co471 2.061 . S
O472 C475 1.235 . S
C473 O476 1.238 . S
C473 O477 1.241 . S
C474 O467 1.247 . S
C474 O468 1.261 . S
C475 O470 1.259 . S
C475 O472 1.235 . S
O476 Co466 2.021 . S
O476 C473 1.238 . S
O477 Co471 2.052 . S
O477 C473 1.241 . S
O478 Co466 2.137 . S
O478 C469 1.247 . S
O479 Co466 2.244 . S
O479 C469 1.272 . S
O479 Co471 2.135 . S
H480 C498 0.951 . S
H481 C500 0.951 . S
H482 C502 0.950 . S
H483 C503 0.950 . S
H484 C505 0.950 . S
H485 C508 0.950 . S
H486 C509 0.950 . S
H487 C511 0.950 . S
H488 C512 0.950 . S
H489 C513 0.951 . S
H490 C515 0.951 . S
H491 C517 0.950 . S
H492 C518 0.950 . S
H493 C520 0.950 . S
H494 C523 0.950 . S
H495 C524 0.950 . S
H496 C526 0.950 . S
H497 C527 0.950 . S
C498 H480 0.951 . S
C498 C499 1.366 . S
C498 C500 1.388 . S
C499 C498 1.366 . S
C499 C503 1.385 . S
C500 H481 0.951 . S
C500 C498 1.388 . S
C500 C501 1.366 . S
C501 C500 1.366 . S
C501 C502 1.414 . S
C501 C504 1.499 . S
C502 H482 0.950 . S
C502 C501 1.414 . S
C502 C503 1.374 . S
C503 H483 0.950 . S
C503 C499 1.385 . S
C503 C502 1.374 . S
C504 C501 1.499 . S
C504 C505 1.373 . S
C504 C506 1.389 . S
C505 H484 0.950 . S
C505 C504 1.373 . S
C505 C521 1.377 . S
C506 C504 1.389 . S
C506 C507 1.524 . S
C506 C520 1.377 . S
C507 C506 1.524 . S
C507 C508 1.397 . S
C507 C512 1.363 . S
C508 H485 0.950 . S
C508 C507 1.397 . S
C508 C509 1.334 . S
C509 H486 0.950 . S
C509 C508 1.334 . S
C509 C510 1.287 . S
C510 C509 1.287 . S
C510 C511 1.524 . S
C510 H529 0.913 . S
C511 H487 0.950 . S
C511 C510 1.524 . S
C511 C512 1.415 . S
C512 H488 0.950 . S
C512 C507 1.363 . S
C512 C511 1.415 . S
C513 H489 0.951 . S
C513 C514 1.366 . S
C513 C515 1.388 . S
C514 C513 1.366 . S
C514 C518 1.385 . S
C515 H490 0.951 . S
C515 C513 1.388 . S
C515 C516 1.366 . S
C516 C515 1.366 . S
C516 C517 1.414 . S
C516 C519 1.499 . S
C517 H491 0.950 . S
C517 C516 1.414 . S
C517 C518 1.374 . S
C518 H492 0.950 . S
C518 C514 1.385 . S
C518 C517 1.374 . S
C519 C516 1.499 . S
C519 C520 1.373 . S
C519 C521 1.389 . S
C520 H493 0.950 . S
C520 C506 1.377 . S
C520 C519 1.373 . S
C521 C505 1.377 . S
C521 C519 1.389 . S
C521 C522 1.524 . S
C522 C521 1.524 . S
C522 C523 1.397 . S
C522 C527 1.363 . S
C523 H494 0.950 . S
C523 C522 1.397 . S
C523 C524 1.334 . S
C524 H495 0.950 . S
C524 C523 1.334 . S
C524 C525 1.287 . S
C525 C524 1.287 . S
C525 C526 1.524 . S
C525 H528 0.999 . S
C526 H496 0.950 . S
C526 C525 1.524 . S
C526 C527 1.415 . S
C527 H497 0.950 . S
C527 C522 1.363 . S
C527 C526 1.415 . S
H528 C525 0.999 . S
H529 C510 0.913 . S
H530 C548 0.951 . S
H531 C550 0.951 . S
H532 C552 0.950 . S
H533 C553 0.950 . S
H534 C555 0.950 . S
H535 C558 0.950 . S
H536 C559 0.950 . S
H537 C561 0.950 . S
H538 C562 0.950 . S
H539 C563 0.951 . S
H540 C565 0.951 . S
H541 C567 0.950 . S
H542 C568 0.950 . S
H543 C570 0.950 . S
H544 C573 0.950 . S
H545 C574 0.950 . S
H546 C576 0.950 . S
H547 C577 0.950 . S
C548 H530 0.951 . S
C548 C549 1.366 . S
C548 C550 1.388 . S
C549 C548 1.366 . S
C549 C553 1.385 . S
C550 H531 0.951 . S
C550 C548 1.388 . S
C550 C551 1.366 . S
C551 C550 1.366 . S
C551 C552 1.414 . S
C551 C554 1.499 . S
C552 H532 0.950 . S
C552 C551 1.414 . S
C552 C553 1.374 . S
C553 H533 0.950 . S
C553 C549 1.385 . S
C553 C552 1.374 . S
C554 C551 1.499 . S
C554 C555 1.373 . S
C554 C556 1.389 . S
C555 H534 0.950 . S
C555 C554 1.373 . S
C555 C571 1.377 . S
C556 C554 1.389 . S
C556 C557 1.524 . S
C556 C570 1.377 . S
C557 C556 1.524 . S
C557 C558 1.397 . S
C557 C562 1.363 . S
C558 H535 0.950 . S
C558 C557 1.397 . S
C558 C559 1.334 . S
C559 H536 0.950 . S
C559 C558 1.334 . S
C559 C560 1.287 . S
C560 C559 1.287 . S
C560 C561 1.524 . S
C560 H579 0.913 . S
C561 H537 0.950 . S
C561 C560 1.524 . S
C561 C562 1.415 . S
C562 H538 0.950 . S
C562 C557 1.363 . S
C562 C561 1.415 . S
C563 H539 0.951 . S
C563 C564 1.366 . S
C563 C565 1.388 . S
C564 C563 1.366 . S
C564 C568 1.385 . S
C565 H540 0.951 . S
C565 C563 1.388 . S
C565 C566 1.366 . S
C566 C565 1.366 . S
C566 C567 1.414 . S
C566 C569 1.499 . S
C567 H541 0.950 . S
C567 C566 1.414 . S
C567 C568 1.374 . S
C568 H542 0.950 . S
C568 C564 1.385 . S
C568 C567 1.374 . S
C569 C566 1.499 . S
C569 C570 1.373 . S
C569 C571 1.389 . S
C570 H543 0.950 . S
C570 C556 1.377 . S
C570 C569 1.373 . S
C571 C555 1.377 . S
C571 C569 1.389 . S
C571 C572 1.524 . S
C572 C571 1.524 . S
C572 C573 1.397 . S
C572 C577 1.363 . S
C573 H544 0.950 . S
C573 C572 1.397 . S
C573 C574 1.334 . S
C574 H545 0.950 . S
C574 C573 1.334 . S
C574 C575 1.287 . S
C575 C574 1.287 . S
C575 C576 1.524 . S
C575 H578 0.999 . S
C576 H546 0.950 . S
C576 C575 1.524 . S
C576 C577 1.415 . S
C577 H547 0.950 . S
C577 C572 1.363 . S
C577 C576 1.415 . S
H578 C575 0.999 . S
H579 C560 0.913 . S
H580 C598 0.951 . S
H581 C600 0.951 . S
H582 C602 0.950 . S
H583 C603 0.950 . S
H584 C605 0.950 . S
H585 C608 0.950 . S
H586 C609 0.950 . S
H587 C611 0.950 . S
H588 C612 0.950 . S
H589 C613 0.951 . S
H590 C615 0.951 . S
H591 C617 0.950 . S
H592 C618 0.950 . S
H593 C620 0.950 . S
H594 C623 0.950 . S
H595 C624 0.950 . S
H596 C626 0.950 . S
H597 C627 0.950 . S
C598 H580 0.951 . S
C598 C599 1.366 . S
C598 C600 1.388 . S
C599 C598 1.366 . S
C599 C603 1.385 . S
C600 H581 0.951 . S
C600 C598 1.388 . S
C600 C601 1.366 . S
C601 C600 1.366 . S
C601 C602 1.414 . S
C601 C604 1.499 . S
C602 H582 0.950 . S
C602 C601 1.414 . S
C602 C603 1.374 . S
C603 H583 0.950 . S
C603 C599 1.385 . S
C603 C602 1.374 . S
C604 C601 1.499 . S
C604 C605 1.373 . S
C604 C606 1.389 . S
C605 H584 0.950 . S
C605 C604 1.373 . S
C605 C621 1.377 . S
C606 C604 1.389 . S
C606 C607 1.524 . S
C606 C620 1.377 . S
C607 C606 1.524 . S
C607 C608 1.397 . S
C607 C612 1.363 . S
C608 H585 0.950 . S
C608 C607 1.397 . S
C608 C609 1.334 . S
C609 H586 0.950 . S
C609 C608 1.334 . S
C609 C610 1.287 . S
C610 C609 1.287 . S
C610 C611 1.524 . S
C610 H629 0.913 . S
C611 H587 0.950 . S
C611 C610 1.524 . S
C611 C612 1.415 . S
C612 H588 0.950 . S
C612 C607 1.363 . S
C612 C611 1.415 . S
C613 H589 0.951 . S
C613 C614 1.366 . S
C613 C615 1.388 . S
C614 C613 1.366 . S
C614 C618 1.385 . S
C615 H590 0.951 . S
C615 C613 1.388 . S
C615 C616 1.366 . S
C616 C615 1.366 . S
C616 C617 1.414 . S
C616 C619 1.499 . S
C617 H591 0.950 . S
C617 C616 1.414 . S
C617 C618 1.374 . S
C618 H592 0.950 . S
C618 C614 1.385 . S
C618 C617 1.374 . S
C619 C616 1.499 . S
C619 C620 1.373 . S
C619 C621 1.389 . S
C620 H593 0.950 . S
C620 C606 1.377 . S
C620 C619 1.373 . S
C621 C605 1.377 . S
C621 C619 1.389 . S
C621 C622 1.524 . S
C622 C621 1.524 . S
C622 C623 1.397 . S
C622 C627 1.363 . S
C623 H594 0.950 . S
C623 C622 1.397 . S
C623 C624 1.334 . S
C624 H595 0.950 . S
C624 C623 1.334 . S
C624 C625 1.287 . S
C625 C624 1.287 . S
C625 C626 1.524 . S
C625 H628 0.999 . S
C626 H596 0.950 . S
C626 C625 1.524 . S
C626 C627 1.415 . S
C627 H597 0.950 . S
C627 C622 1.363 . S
C627 C626 1.415 . S
H628 C625 0.999 . S
H629 C610 0.913 . S
H630 C648 0.951 . S
H631 C650 0.951 . S
H632 C652 0.950 . S
H633 C653 0.950 . S
H634 C655 0.950 . S
H635 C658 0.950 . S
H636 C659 0.926 1_556 S
H637 C661 0.950 . S
H638 C662 0.950 . S
H639 C663 0.951 . S
H640 C665 0.951 . S
H641 C667 0.950 . S
H642 C668 0.950 . S
H643 C670 0.950 . S
H644 C673 0.950 . S
H645 C674 0.950 . S
H646 C676 0.950 . S
H647 C677 0.950 . S
C648 H630 0.951 . S
C648 C649 1.366 . S
C648 C650 1.388 . S
C649 C648 1.366 . S
C649 C653 1.385 . S
C650 H631 0.951 . S
C650 C648 1.388 . S
C650 C651 1.366 . S
C651 C650 1.366 . S
C651 C652 1.414 . S
C651 C654 1.499 . S
C652 H632 0.950 . S
C652 C651 1.414 . S
C652 C653 1.374 . S
C653 H633 0.950 . S
C653 C649 1.385 . S
C653 C652 1.374 . S
C654 C651 1.499 . S
C654 C655 1.373 . S
C654 C656 1.389 . S
C655 H634 0.950 . S
C655 C654 1.373 . S
C655 C671 1.377 . S
C656 C654 1.389 . S
C656 C657 1.524 . S
C656 C670 1.377 . S
C657 C656 1.524 . S
C657 C658 1.397 . S
C657 C662 1.363 . S
C658 H635 0.950 . S
C658 C657 1.397 . S
C658 C659 1.360 . S
C659 H636 0.926 1_554 S
C659 C658 1.360 . S
C659 C660 1.287 . S
C660 C659 1.287 . S
C660 C661 1.554 . S
C660 H679 0.888 1_554 S
C661 H637 0.950 . S
C661 C660 1.554 . S
C661 C662 1.415 . S
C662 H638 0.950 . S
C662 C657 1.363 . S
C662 C661 1.415 . S
C663 H639 0.951 . S
C663 C664 1.366 . S
C663 C665 1.388 . S
C664 C663 1.366 . S
C664 C668 1.385 . S
C665 H640 0.951 . S
C665 C663 1.388 . S
C665 C666 1.366 . S
C666 C665 1.366 . S
C666 C667 1.414 . S
C666 C669 1.499 . S
C667 H641 0.950 . S
C667 C666 1.414 . S
C667 C668 1.374 . S
C668 H642 0.950 . S
C668 C664 1.385 . S
C668 C667 1.374 . S
C669 C666 1.499 . S
C669 C670 1.373 . S
C669 C671 1.389 . S
C670 H643 0.950 . S
C670 C656 1.377 . S
C670 C669 1.373 . S
C671 C655 1.377 . S
C671 C669 1.389 . S
C671 C672 1.524 . S
C672 C671 1.524 . S
C672 C673 1.397 . S
C672 C677 1.363 . S
C673 H644 0.950 . S
C673 C672 1.397 . S
C673 C674 1.334 . S
C674 H645 0.950 . S
C674 C673 1.334 . S
C674 C675 1.287 . S
C675 C674 1.287 . S
C675 C676 1.524 . S
C675 H678 0.999 . S
C676 H646 0.950 . S
C676 C675 1.524 . S
C676 C677 1.415 . S
C677 H647 0.950 . S
C677 C672 1.363 . S
C677 C676 1.415 . S
H678 C675 0.999 . S
H679 C660 0.888 1_556 S
H680 C698 0.951 . S
H681 C700 0.951 . S
H682 C702 0.950 . S
H683 C703 0.950 . S
H684 C705 0.950 . S
H685 C708 0.950 . S
H686 C709 0.950 . S
H687 C711 0.950 . S
H688 C712 0.950 . S
H689 C713 0.951 . S
H690 C715 0.951 . S
H691 C717 0.946 1_554 S
H692 C718 0.950 . S
H693 C720 0.950 . S
H694 C723 0.950 . S
H695 C724 0.950 . S
H696 C726 0.950 . S
H697 C727 0.950 . S
C698 H680 0.951 . S
C698 C699 1.366 . S
C698 C700 1.388 . S
C699 C698 1.366 . S
C699 C703 1.385 . S
C700 H681 0.951 . S
C700 C698 1.388 . S
C700 C701 1.366 . S
C701 C700 1.366 . S
C701 C702 1.414 . S
C701 C704 1.499 . S
C702 H682 0.950 . S
C702 C701 1.414 . S
C702 C703 1.374 . S
C703 H683 0.950 . S
C703 C699 1.385 . S
C703 C702 1.374 . S
C704 C701 1.499 . S
C704 C705 1.373 . S
C704 C706 1.389 . S
C705 H684 0.950 . S
C705 C704 1.373 . S
C705 C721 1.377 . S
C706 C704 1.389 . S
C706 C707 1.524 . S
C706 C720 1.377 . S
C707 C706 1.524 . S
C707 C708 1.397 . S
C707 C712 1.363 . S
C708 H685 0.950 . S
C708 C707 1.397 . S
C708 C709 1.334 . S
C709 H686 0.950 . S
C709 C708 1.334 . S
C709 C710 1.287 . S
C710 C709 1.287 . S
C710 C711 1.524 . S
C710 H729 0.913 . S
C711 H687 0.950 . S
C711 C710 1.524 . S
C711 C712 1.415 . S
C712 H688 0.950 . S
C712 C707 1.363 . S
C712 C711 1.415 . S
C713 H689 0.951 . S
C713 C714 1.366 . S
C713 C715 1.388 . S
C714 C713 1.366 . S
C714 C718 1.385 1_556 S
C715 H690 0.951 . S
C715 C713 1.388 . S
C715 C716 1.366 . S
C716 C715 1.366 . S
C716 C717 1.422 . S
C716 C719 1.499 . S
C717 H691 0.946 1_556 S
C717 C716 1.422 . S
C717 C718 1.371 1_556 S
C718 H692 0.950 . S
C718 C714 1.385 1_554 S
C718 C717 1.371 1_554 S
C719 C716 1.499 . S
C719 C720 1.373 . S
C719 C721 1.389 . S
C720 H693 0.950 . S
C720 C706 1.377 . S
C720 C719 1.373 . S
C721 C705 1.377 . S
C721 C719 1.389 . S
C721 C722 1.524 . S
C722 C721 1.524 . S
C722 C723 1.397 1_556 S
C722 C727 1.363 . S
C723 H694 0.950 . S
C723 C722 1.397 1_554 S
C723 C724 1.334 . S
C724 H695 0.950 . S
C724 C723 1.334 . S
C724 C725 1.287 . S
C725 C724 1.287 . S
C725 C726 1.524 1_554 S
C725 H728 0.999 . S
C726 H696 0.950 . S
C726 C725 1.524 1_556 S
C726 C727 1.415 . S
C727 H697 0.950 . S
C727 C722 1.363 . S
C727 C726 1.415 . S
H728 C725 0.999 . S
H729 C710 0.913 . S
H730 C748 0.951 . S
H731 C750 0.951 . S
H732 C752 0.950 . S
H733 C753 0.950 . S
H734 C755 0.950 . S
H735 C758 0.950 . S
H736 C759 0.950 . S
H737 C761 0.950 . S
H738 C762 0.950 . S
H739 C763 0.951 . S
H740 C765 0.951 . S
H741 C767 0.950 . S
H742 C768 0.950 . S
H743 C770 0.950 . S
H744 C773 0.950 . S
H745 C774 0.950 . S
H746 C776 0.950 . S
H747 C777 0.950 . S
C748 H730 0.951 . S
C748 C749 1.366 . S
C748 C750 1.388 . S
C749 C748 1.366 . S
C749 C753 1.385 . S
C750 H731 0.951 . S
C750 C748 1.388 . S
C750 C751 1.366 . S
C751 C750 1.366 . S
C751 C752 1.414 . S
C751 C754 1.499 . S
C752 H732 0.950 . S
C752 C751 1.414 . S
C752 C753 1.374 . S
C753 H733 0.950 . S
C753 C749 1.385 . S
C753 C752 1.374 . S
C754 C751 1.499 . S
C754 C755 1.373 . S
C754 C756 1.389 . S
C755 H734 0.950 . S
C755 C754 1.373 . S
C755 C771 1.377 . S
C756 C754 1.389 . S
C756 C757 1.524 . S
C756 C770 1.377 . S
C757 C756 1.524 . S
C757 C758 1.397 . S
C757 C762 1.363 . S
C758 H735 0.950 . S
C758 C757 1.397 . S
C758 C759 1.334 . S
C759 H736 0.950 . S
C759 C758 1.334 . S
C759 C760 1.287 . S
C760 C759 1.287 . S
C760 C761 1.524 . S
C760 H779 0.913 . S
C761 H737 0.950 . S
C761 C760 1.524 . S
C761 C762 1.415 . S
C762 H738 0.950 . S
C762 C757 1.363 . S
C762 C761 1.415 . S
C763 H739 0.951 . S
C763 C764 1.366 . S
C763 C765 1.388 . S
C764 C763 1.366 . S
C764 C768 1.385 . S
C765 H740 0.951 . S
C765 C763 1.388 . S
C765 C766 1.366 . S
C766 C765 1.366 . S
C766 C767 1.414 . S
C766 C769 1.499 . S
C767 H741 0.950 . S
C767 C766 1.414 . S
C767 C768 1.374 . S
C768 H742 0.950 . S
C768 C764 1.385 . S
C768 C767 1.374 . S
C769 C766 1.499 . S
C769 C770 1.373 . S
C769 C771 1.389 . S
C770 H743 0.950 . S
C770 C756 1.377 . S
C770 C769 1.373 . S
C771 C755 1.377 . S
C771 C769 1.389 . S
C771 C772 1.524 . S
C772 C771 1.524 . S
C772 C773 1.397 . S
C772 C777 1.363 . S
C773 H744 0.950 . S
C773 C772 1.397 . S
C773 C774 1.334 . S
C774 H745 0.950 . S
C774 C773 1.334 . S
C774 C775 1.287 . S
C775 C774 1.287 . S
C775 C776 1.524 . S
C775 H778 0.999 . S
C776 H746 0.950 . S
C776 C775 1.524 . S
C776 C777 1.415 . S
C777 H747 0.950 . S
C777 C772 1.363 . S
C777 C776 1.415 . S
H778 C775 0.999 . S
H779 C760 0.913 . S
H780 C798 0.951 . S
H781 C800 0.951 . S
H782 C802 0.950 . S
H783 C803 0.950 . S
H784 C805 0.950 . S
H785 C808 0.950 . S
H786 C809 0.950 1_545 S
H787 C811 0.950 . S
H788 C812 0.950 . S
H789 C813 0.951 . S
H790 C815 0.951 . S
H791 C817 0.950 . S
H792 C818 0.950 . S
H793 C820 0.950 . S
H794 C823 0.950 . S
H795 C824 0.950 . S
H796 C826 0.950 . S
H797 C827 0.950 . S
C798 H780 0.951 . S
C798 C799 1.366 . S
C798 C800 1.388 . S
C799 C798 1.366 . S
C799 C803 1.385 . S
C800 H781 0.951 . S
C800 C798 1.388 . S
C800 C801 1.366 . S
C801 C800 1.366 . S
C801 C802 1.414 . S
C801 C804 1.499 . S
C802 H782 0.950 . S
C802 C801 1.414 . S
C802 C803 1.374 . S
C803 H783 0.950 . S
C803 C799 1.385 . S
C803 C802 1.374 . S
C804 C801 1.499 . S
C804 C805 1.373 . S
C804 C806 1.389 . S
C805 H784 0.950 . S
C805 C804 1.373 . S
C805 C821 1.377 . S
C806 C804 1.389 . S
C806 C807 1.524 . S
C806 C820 1.377 . S
C807 C806 1.524 . S
C807 C808 1.397 . S
C807 C812 1.363 . S
C808 H785 0.950 . S
C808 C807 1.397 . S
C808 C809 1.334 . S
C809 H786 0.950 1_565 S
C809 C808 1.334 . S
C809 C810 1.283 1_565 S
C810 C809 1.283 1_545 S
C810 C811 1.516 1_545 S
C810 H829 0.926 . S
C811 H787 0.950 . S
C811 C810 1.516 1_565 S
C811 C812 1.415 . S
C812 H788 0.950 . S
C812 C807 1.363 . S
C812 C811 1.415 . S
C813 H789 0.951 . S
C813 C814 1.366 . S
C813 C815 1.388 . S
C814 C813 1.366 . S
C814 C818 1.385 . S
C815 H790 0.951 . S
C815 C813 1.388 . S
C815 C816 1.366 . S
C816 C815 1.366 . S
C816 C817 1.414 . S
C816 C819 1.499 . S
C817 H791 0.950 . S
C817 C816 1.414 . S
C817 C818 1.374 . S
C818 H792 0.950 . S
C818 C814 1.385 . S
C818 C817 1.374 . S
C819 C816 1.499 . S
C819 C820 1.373 . S
C819 C821 1.389 . S
C820 H793 0.950 . S
C820 C806 1.377 . S
C820 C819 1.373 . S
C821 C805 1.377 . S
C821 C819 1.389 . S
C821 C822 1.524 . S
C822 C821 1.524 . S
C822 C823 1.397 . S
C822 C827 1.363 . S
C823 H794 0.950 . S
C823 C822 1.397 . S
C823 C824 1.334 . S
C824 H795 0.950 . S
C824 C823 1.334 . S
C824 C825 1.287 . S
C825 C824 1.287 . S
C825 C826 1.524 . S
C825 H828 0.999 . S
C826 H796 0.950 . S
C826 C825 1.524 . S
C826 C827 1.415 . S
C827 H797 0.950 . S
C827 C822 1.363 . S
C827 C826 1.415 . S
H828 C825 0.999 . S
H829 C810 0.926 . S
H830 C848 0.951 . S
H831 C850 0.951 . S
H832 C852 0.950 . S
H833 C853 0.950 . S
H834 C855 0.950 . S
H835 C858 0.950 . S
H836 C859 0.950 . S
H837 C861 0.950 . S
H838 C862 0.950 . S
H839 C863 0.951 . S
H840 C865 0.951 . S
H841 C867 0.950 . S
H842 C868 0.950 . S
H843 C870 0.950 . S
H844 C873 0.950 . S
H845 C874 0.950 . S
H846 C876 0.950 . S
H847 C877 0.950 . S
C848 H830 0.951 . S
C848 C849 1.366 . S
C848 C850 1.388 . S
C849 C848 1.366 . S
C849 C853 1.385 . S
C850 H831 0.951 . S
C850 C848 1.388 . S
C850 C851 1.366 . S
C851 C850 1.366 . S
C851 C852 1.414 . S
C851 C854 1.499 . S
C852 H832 0.950 . S
C852 C851 1.414 . S
C852 C853 1.374 . S
C853 H833 0.950 . S
C853 C849 1.385 . S
C853 C852 1.374 . S
C854 C851 1.499 . S
C854 C855 1.373 . S
C854 C856 1.389 . S
C855 H834 0.950 . S
C855 C854 1.373 . S
C855 C871 1.377 . S
C856 C854 1.389 . S
C856 C857 1.524 . S
C856 C870 1.377 . S
C857 C856 1.524 . S
C857 C858 1.397 . S
C857 C862 1.363 . S
C858 H835 0.950 . S
C858 C857 1.397 . S
C858 C859 1.334 . S
C859 H836 0.950 . S
C859 C858 1.334 . S
C859 C860 1.287 . S
C860 C859 1.287 . S
C860 C861 1.524 . S
C860 H879 0.913 . S
C861 H837 0.950 . S
C861 C860 1.524 . S
C861 C862 1.415 . S
C862 H838 0.950 . S
C862 C857 1.363 . S
C862 C861 1.415 . S
C863 H839 0.951 . S
C863 C864 1.366 . S
C863 C865 1.388 . S
C864 C863 1.366 . S
C864 C868 1.385 . S
C865 H840 0.951 . S
C865 C863 1.388 . S
C865 C866 1.366 . S
C866 C865 1.366 . S
C866 C867 1.414 . S
C866 C869 1.499 . S
C867 H841 0.950 . S
C867 C866 1.414 . S
C867 C868 1.374 . S
C868 H842 0.950 . S
C868 C864 1.385 . S
C868 C867 1.374 . S
C869 C866 1.499 . S
C869 C870 1.373 . S
C869 C871 1.389 . S
C870 H843 0.950 . S
C870 C856 1.377 . S
C870 C869 1.373 . S
C871 C855 1.377 . S
C871 C869 1.389 . S
C871 C872 1.524 . S
C872 C871 1.524 . S
C872 C873 1.397 . S
C872 C877 1.363 . S
C873 H844 0.950 . S
C873 C872 1.397 . S
C873 C874 1.334 . S
C874 H845 0.950 . S
C874 C873 1.334 . S
C874 C875 1.287 . S
C875 C874 1.287 . S
C875 C876 1.524 . S
C875 H878 0.999 . S
C876 H846 0.950 . S
C876 C875 1.524 . S
C876 C877 1.415 . S
C877 H847 0.950 . S
C877 C872 1.363 . S
C877 C876 1.415 . S
H878 C875 0.999 . S
H879 C860 0.913 . S
H880 C898 0.951 . S
H881 C900 0.951 . S
H882 C902 0.950 . S
H883 C903 0.950 . S
H884 C905 0.950 . S
H885 C908 0.950 . S
H886 C909 0.950 . S
H887 C911 0.950 . S
H888 C912 0.950 . S
H889 C913 0.951 . S
H890 C915 0.951 . S
H891 C917 0.950 . S
H892 C918 0.950 . S
H893 C920 0.950 . S
H894 C923 0.950 . S
H895 C924 0.950 . S
H896 C926 0.950 . S
H897 C927 0.950 . S
C898 H880 0.951 . S
C898 C899 1.366 . S
C898 C900 1.388 . S
C899 C898 1.366 . S
C899 C903 1.385 . S
C900 H881 0.951 . S
C900 C898 1.388 . S
C900 C901 1.366 . S
C901 C900 1.366 . S
C901 C902 1.414 . S
C901 C904 1.499 . S
C902 H882 0.950 . S
C902 C901 1.414 . S
C902 C903 1.374 . S
C903 H883 0.950 . S
C903 C899 1.385 . S
C903 C902 1.374 . S
C904 C901 1.499 . S
C904 C905 1.373 . S
C904 C906 1.389 . S
C905 H884 0.950 . S
C905 C904 1.373 . S
C905 C921 1.377 . S
C906 C904 1.389 . S
C906 C907 1.524 . S
C906 C920 1.377 . S
C907 C906 1.524 . S
C907 C908 1.397 . S
C907 C912 1.363 . S
C908 H885 0.950 . S
C908 C907 1.397 . S
C908 C909 1.334 . S
C909 H886 0.950 . S
C909 C908 1.334 . S
C909 C910 1.287 . S
C910 C909 1.287 . S
C910 C911 1.524 . S
C910 H929 0.913 . S
C911 H887 0.950 . S
C911 C910 1.524 . S
C911 C912 1.415 . S
C912 H888 0.950 . S
C912 C907 1.363 . S
C912 C911 1.415 . S
C913 H889 0.951 . S
C913 C914 1.366 . S
C913 C915 1.388 . S
C914 C913 1.366 . S
C914 C918 1.385 . S
C915 H890 0.951 . S
C915 C913 1.388 . S
C915 C916 1.366 . S
C916 C915 1.366 . S
C916 C917 1.414 . S
C916 C919 1.499 . S
C917 H891 0.950 . S
C917 C916 1.414 . S
C917 C918 1.374 . S
C918 H892 0.950 . S
C918 C914 1.385 . S
C918 C917 1.374 . S
C919 C916 1.499 . S
C919 C920 1.373 . S
C919 C921 1.389 . S
C920 H893 0.950 . S
C920 C906 1.377 . S
C920 C919 1.373 . S
C921 C905 1.377 . S
C921 C919 1.389 . S
C921 C922 1.524 . S
C922 C921 1.524 . S
C922 C923 1.397 . S
C922 C927 1.363 . S
C923 H894 0.950 . S
C923 C922 1.397 . S
C923 C924 1.334 . S
C924 H895 0.950 . S
C924 C923 1.334 . S
C924 C925 1.287 . S
C925 C924 1.287 . S
C925 C926 1.524 . S
C925 H928 0.999 . S
C926 H896 0.950 . S
C926 C925 1.524 . S
C926 C927 1.415 . S
C927 H897 0.950 . S
C927 C922 1.363 . S
C927 C926 1.415 . S
H928 C925 0.999 . S
H929 C910 0.913 . S
H930 C948 0.951 . S
H931 C950 0.951 . S
H932 C952 0.950 . S
H933 C953 0.950 . S
H934 C955 0.950 . S
H935 C958 0.950 . S
H936 C959 0.950 . S
H937 C961 0.950 . S
H938 C962 0.950 . S
H939 C963 0.916 1_556 S
H940 C965 0.951 . S
H941 C967 0.950 . S
H942 C968 0.950 . S
H943 C970 0.950 . S
H944 C973 0.950 . S
H945 C974 0.950 . S
H946 C976 0.950 . S
H947 C977 0.950 . S
C948 H930 0.951 . S
C948 C949 1.366 . S
C948 C950 1.388 . S
C949 C948 1.366 . S
C949 C953 1.385 . S
C950 H931 0.951 . S
C950 C948 1.388 . S
C950 C951 1.366 . S
C951 C950 1.366 . S
C951 C952 1.414 . S
C951 C954 1.499 . S
C952 H932 0.950 . S
C952 C951 1.414 . S
C952 C953 1.374 . S
C953 H933 0.950 . S
C953 C949 1.385 . S
C953 C952 1.374 . S
C954 C951 1.499 . S
C954 C955 1.373 . S
C954 C956 1.389 . S
C955 H934 0.950 . S
C955 C954 1.373 . S
C955 C971 1.377 . S
C956 C954 1.389 . S
C956 C957 1.524 . S
C956 C970 1.377 . S
C957 C956 1.524 . S
C957 C958 1.397 . S
C957 C962 1.363 . S
C958 H935 0.950 . S
C958 C957 1.397 . S
C958 C959 1.334 . S
C959 H936 0.950 . S
C959 C958 1.334 . S
C959 C960 1.287 . S
C960 C959 1.287 . S
C960 C961 1.524 . S
C960 H979 0.913 . S
C961 H937 0.950 . S
C961 C960 1.524 . S
C961 C962 1.415 . S
C962 H938 0.950 . S
C962 C957 1.363 . S
C962 C961 1.415 . S
C963 H939 0.916 1_554 S
C963 C964 1.366 . S
C963 C965 1.388 . S
C964 C963 1.366 . S
C964 C968 1.385 . S
C965 H940 0.951 . S
C965 C963 1.388 . S
C965 C966 1.366 . S
C966 C965 1.366 . S
C966 C967 1.414 . S
C966 C969 1.499 . S
C967 H941 0.950 . S
C967 C966 1.414 . S
C967 C968 1.374 . S
C968 H942 0.950 . S
C968 C964 1.385 . S
C968 C967 1.374 . S
C969 C966 1.499 . S
C969 C970 1.373 . S
C969 C971 1.389 . S
C970 H943 0.950 . S
C970 C956 1.377 . S
C970 C969 1.373 . S
C971 C955 1.377 . S
C971 C969 1.389 . S
C971 C972 1.524 1_554 S
C972 C971 1.524 1_556 S
C972 C973 1.397 . S
C972 C977 1.363 . S
C973 H944 0.950 . S
C973 C972 1.397 . S
C973 C974 1.334 . S
C974 H945 0.950 . S
C974 C973 1.334 . S
C974 C975 1.287 . S
C975 C974 1.287 . S
C975 C976 1.524 . S
C975 H978 0.999 . S
C976 H946 0.950 . S
C976 C975 1.524 . S
C976 C977 1.415 . S
C977 H947 0.950 . S
C977 C972 1.363 . S
C977 C976 1.415 . S
H978 C975 0.999 . S
H979 C960 0.913 . S
H980 C998 0.951 . S
H981 C1000 0.951 . S
H982 C1002 0.950 . S
H983 C1003 0.950 . S
H984 C1005 0.950 . S
H985 C1008 0.950 . S
H986 C1009 0.950 . S
H987 C1011 0.950 . S
H988 C1012 0.950 . S
H989 C1013 0.951 . S
H990 C1015 0.951 . S
H991 C1017 0.950 . S
H992 C1018 0.950 . S
H993 C1020 0.950 . S
H994 C1023 0.950 . S
H995 C1024 0.950 . S
H996 C1026 0.950 . S
H997 C1027 0.950 . S
C998 H980 0.951 . S
C998 C999 1.366 . S
C998 C1000 1.388 . S
C999 C998 1.366 . S
C999 C1003 1.385 . S
C1000 H981 0.951 . S
C1000 C998 1.388 . S
C1000 C1001 1.366 . S
C1001 C1000 1.366 . S
C1001 C1002 1.414 . S
C1001 C1004 1.499 . S
C1002 H982 0.950 . S
C1002 C1001 1.414 . S
C1002 C1003 1.374 . S
C1003 H983 0.950 . S
C1003 C999 1.385 . S
C1003 C1002 1.374 . S
C1004 C1001 1.499 . S
C1004 C1005 1.373 . S
C1004 C1006 1.389 . S
C1005 H984 0.950 . S
C1005 C1004 1.373 . S
C1005 C1021 1.377 . S
C1006 C1004 1.389 . S
C1006 C1007 1.524 . S
C1006 C1020 1.377 . S
C1007 C1006 1.524 . S
C1007 C1008 1.397 . S
C1007 C1012 1.363 . S
C1008 H985 0.950 . S
C1008 C1007 1.397 . S
C1008 C1009 1.334 . S
C1009 H986 0.950 . S
C1009 C1008 1.334 . S
C1009 C1010 1.287 . S
C1010 C1009 1.287 . S
C1010 C1011 1.524 . S
C1010 H1029 0.913 . S
C1011 H987 0.950 . S
C1011 C1010 1.524 . S
C1011 C1012 1.415 . S
C1012 H988 0.950 . S
C1012 C1007 1.363 . S
C1012 C1011 1.415 . S
C1013 H989 0.951 . S
C1013 C1014 1.366 . S
C1013 C1015 1.388 . S
C1014 C1013 1.366 . S
C1014 C1018 1.385 . S
C1015 H990 0.951 . S
C1015 C1013 1.388 . S
C1015 C1016 1.366 . S
C1016 C1015 1.366 . S
C1016 C1017 1.414 . S
C1016 C1019 1.499 . S
C1017 H991 0.950 . S
C1017 C1016 1.414 . S
C1017 C1018 1.374 . S
C1018 H992 0.950 . S
C1018 C1014 1.385 . S
C1018 C1017 1.374 . S
C1019 C1016 1.499 . S
C1019 C1020 1.373 . S
C1019 C1021 1.389 . S
C1020 H993 0.950 . S
C1020 C1006 1.377 . S
C1020 C1019 1.373 . S
C1021 C1005 1.377 . S
C1021 C1019 1.389 . S
C1021 C1022 1.524 . S
C1022 C1021 1.524 . S
C1022 C1023 1.397 . S
C1022 C1027 1.363 . S
C1023 H994 0.950 . S
C1023 C1022 1.397 . S
C1023 C1024 1.334 . S
C1024 H995 0.950 . S
C1024 C1023 1.334 . S
C1024 C1025 1.287 . S
C1025 C1024 1.287 . S
C1025 C1026 1.524 . S
C1025 H1028 0.999 . S
C1026 H996 0.950 . S
C1026 C1025 1.524 . S
C1026 C1027 1.415 . S
C1027 H997 0.950 . S
C1027 C1022 1.363 . S
C1027 C1026 1.415 . S
H1028 C1025 0.999 . S
H1029 C1010 0.913 . S
H1030 C1048 0.951 . S
H1031 C1050 0.951 . S
H1032 C1052 0.950 . S
H1033 C1053 0.950 . S
H1034 C1055 0.950 . S
H1035 C1058 0.950 . S
H1036 C1059 0.950 . S
H1037 C1061 0.950 . S
H1038 C1062 0.950 . S
H1039 C1063 0.951 . S
H1040 C1065 0.951 . S
H1041 C1067 0.950 . S
H1042 C1068 0.950 . S
H1043 C1070 0.950 . S
H1044 C1073 0.950 . S
H1045 C1074 0.950 . S
H1046 C1076 0.950 . S
H1047 C1077 0.950 . S
C1048 H1030 0.951 . S
C1048 C1049 1.366 . S
C1048 C1050 1.388 . S
C1049 C1048 1.366 . S
C1049 C1053 1.385 . S
C1050 H1031 0.951 . S
C1050 C1048 1.388 . S
C1050 C1051 1.366 . S
C1051 C1050 1.366 . S
C1051 C1052 1.414 . S
C1051 C1054 1.499 . S
C1052 H1032 0.950 . S
C1052 C1051 1.414 . S
C1052 C1053 1.374 . S
C1053 H1033 0.950 . S
C1053 C1049 1.385 . S
C1053 C1052 1.374 . S
C1054 C1051 1.499 . S
C1054 C1055 1.373 . S
C1054 C1056 1.389 . S
C1055 H1034 0.950 . S
C1055 C1054 1.373 . S
C1055 C1071 1.377 . S
C1056 C1054 1.389 . S
C1056 C1057 1.524 . S
C1056 C1070 1.377 . S
C1057 C1056 1.524 . S
C1057 C1058 1.397 . S
C1057 C1062 1.363 . S
C1058 H1035 0.950 . S
C1058 C1057 1.397 . S
C1058 C1059 1.334 . S
C1059 H1036 0.950 . S
C1059 C1058 1.334 . S
C1059 C1060 1.287 . S
C1060 C1059 1.287 . S
C1060 C1061 1.524 . S
C1060 H1079 0.913 . S
C1061 H1037 0.950 . S
C1061 C1060 1.524 . S
C1061 C1062 1.415 . S
C1062 H1038 0.950 . S
C1062 C1057 1.363 . S
C1062 C1061 1.415 . S
C1063 H1039 0.951 . S
C1063 C1064 1.366 . S
C1063 C1065 1.388 . S
C1064 C1063 1.366 . S
C1064 C1068 1.385 . S
C1065 H1040 0.951 . S
C1065 C1063 1.388 . S
C1065 C1066 1.366 . S
C1066 C1065 1.366 . S
C1066 C1067 1.414 . S
C1066 C1069 1.499 . S
C1067 H1041 0.950 . S
C1067 C1066 1.414 . S
C1067 C1068 1.374 . S
C1068 H1042 0.950 . S
C1068 C1064 1.385 . S
C1068 C1067 1.374 . S
C1069 C1066 1.499 . S
C1069 C1070 1.373 . S
C1069 C1071 1.389 . S
C1070 H1043 0.950 . S
C1070 C1056 1.377 . S
C1070 C1069 1.373 . S
C1071 C1055 1.377 . S
C1071 C1069 1.389 . S
C1071 C1072 1.524 . S
C1072 C1071 1.524 . S
C1072 C1073 1.397 . S
C1072 C1077 1.363 . S
C1073 H1044 0.950 . S
C1073 C1072 1.397 . S
C1073 C1074 1.334 . S
C1074 H1045 0.950 . S
C1074 C1073 1.334 . S
C1074 C1075 1.287 . S
C1075 C1074 1.287 . S
C1075 C1076 1.524 . S
C1075 H1078 0.999 . S
C1076 H1046 0.950 . S
C1076 C1075 1.524 . S
C1076 C1077 1.415 . S
C1077 H1047 0.950 . S
C1077 C1072 1.363 . S
C1077 C1076 1.415 . S
H1078 C1075 0.999 . S
H1079 C1060 0.913 . S
H1080 C1098 0.951 . S
H1081 C1100 0.951 . S
H1082 C1102 0.950 . S
H1083 C1103 0.950 . S
H1084 C1105 0.950 . S
H1085 C1108 0.950 . S
H1086 C1109 0.950 . S
H1087 C1111 0.950 . S
H1088 C1112 0.950 . S
H1089 C1113 0.951 . S
H1090 C1115 0.951 . S
H1091 C1117 0.950 . S
H1092 C1118 0.950 . S
H1093 C1120 0.950 . S
H1094 C1123 0.950 . S
H1095 C1124 0.950 . S
H1096 C1126 0.950 . S
H1097 C1127 0.950 . S
C1098 H1080 0.951 . S
C1098 C1099 1.366 . S
C1098 C1100 1.388 . S
C1099 C1098 1.366 . S
C1099 C1103 1.385 . S
C1100 H1081 0.951 . S
C1100 C1098 1.388 . S
C1100 C1101 1.366 . S
C1101 C1100 1.366 . S
C1101 C1102 1.414 . S
C1101 C1104 1.499 . S
C1102 H1082 0.950 . S
C1102 C1101 1.414 . S
C1102 C1103 1.374 . S
C1103 H1083 0.950 . S
C1103 C1099 1.385 . S
C1103 C1102 1.374 . S
C1104 C1101 1.499 . S
C1104 C1105 1.373 . S
C1104 C1106 1.389 . S
C1105 H1084 0.950 . S
C1105 C1104 1.373 . S
C1105 C1121 1.377 . S
C1106 C1104 1.389 . S
C1106 C1107 1.524 . S
C1106 C1120 1.377 . S
C1107 C1106 1.524 . S
C1107 C1108 1.397 . S
C1107 C1112 1.363 . S
C1108 H1085 0.950 . S
C1108 C1107 1.397 . S
C1108 C1109 1.334 . S
C1109 H1086 0.950 . S
C1109 C1108 1.334 . S
C1109 C1110 1.287 . S
C1110 C1109 1.287 . S
C1110 C1111 1.524 . S
C1110 H1129 0.913 . S
C1111 H1087 0.950 . S
C1111 C1110 1.524 . S
C1111 C1112 1.415 . S
C1112 H1088 0.950 . S
C1112 C1107 1.363 . S
C1112 C1111 1.415 . S
C1113 H1089 0.951 . S
C1113 C1114 1.366 . S
C1113 C1115 1.388 . S
C1114 C1113 1.366 . S
C1114 C1118 1.385 . S
C1115 H1090 0.951 . S
C1115 C1113 1.388 . S
C1115 C1116 1.366 . S
C1116 C1115 1.366 . S
C1116 C1117 1.414 . S
C1116 C1119 1.499 . S
C1117 H1091 0.950 . S
C1117 C1116 1.414 . S
C1117 C1118 1.374 . S
C1118 H1092 0.950 . S
C1118 C1114 1.385 . S
C1118 C1117 1.374 . S
C1119 C1116 1.499 . S
C1119 C1120 1.373 . S
C1119 C1121 1.389 . S
C1120 H1093 0.950 . S
C1120 C1106 1.377 . S
C1120 C1119 1.373 . S
C1121 C1105 1.377 . S
C1121 C1119 1.389 . S
C1121 C1122 1.524 . S
C1122 C1121 1.524 . S
C1122 C1123 1.397 . S
C1122 C1127 1.363 . S
C1123 H1094 0.950 . S
C1123 C1122 1.397 . S
C1123 C1124 1.334 . S
C1124 H1095 0.950 . S
C1124 C1123 1.334 . S
C1124 C1125 1.287 . S
C1125 C1124 1.287 . S
C1125 C1126 1.524 . S
C1125 H1128 0.999 . S
C1126 H1096 0.950 . S
C1126 C1125 1.524 . S
C1126 C1127 1.415 . S
C1127 H1097 0.950 . S
C1127 C1122 1.363 . S
C1127 C1126 1.415 . S
H1128 C1125 0.999 . S
H1129 C1110 0.913 . S
H1130 C1148 0.951 . S
H1131 C1150 0.951 . S
H1132 C1152 0.950 . S
H1133 C1153 0.950 . S
H1134 C1155 0.950 . S
H1135 C1158 0.950 . S
H1136 C1159 0.950 . S
H1137 C1161 0.935 1_455 S
H1138 C1162 0.950 . S
H1139 C1163 0.951 . S
H1140 C1165 0.951 . S
H1141 C1167 0.950 . S
H1142 C1168 0.950 . S
H1143 C1170 0.950 . S
H1144 C1173 0.950 . S
H1145 C1174 0.950 . S
H1146 C1176 0.950 . S
H1147 C1177 0.950 . S
C1148 H1130 0.951 . S
C1148 C1149 1.366 . S
C1148 C1150 1.388 . S
C1149 C1148 1.366 . S
C1149 C1153 1.385 . S
C1150 H1131 0.951 . S
C1150 C1148 1.388 . S
C1150 C1151 1.366 . S
C1151 C1150 1.366 . S
C1151 C1152 1.414 . S
C1151 C1154 1.499 . S
C1152 H1132 0.950 . S
C1152 C1151 1.414 . S
C1152 C1153 1.374 . S
C1153 H1133 0.950 . S
C1153 C1149 1.385 . S
C1153 C1152 1.374 . S
C1154 C1151 1.499 . S
C1154 C1155 1.373 . S
C1154 C1156 1.389 . S
C1155 H1134 0.950 . S
C1155 C1154 1.373 . S
C1155 C1171 1.377 . S
C1156 C1154 1.389 . S
C1156 C1157 1.524 . S
C1156 C1170 1.377 . S
C1157 C1156 1.524 . S
C1157 C1158 1.397 . S
C1157 C1162 1.363 . S
C1158 H1135 0.950 . S
C1158 C1157 1.397 . S
C1158 C1159 1.334 . S
C1159 H1136 0.950 . S
C1159 C1158 1.334 . S
C1159 C1160 1.287 . S
C1160 C1159 1.287 . S
C1160 C1161 1.524 . S
C1160 H1179 0.913 1_655 S
C1161 H1137 0.935 1_655 S
C1161 C1160 1.524 . S
C1161 C1162 1.415 . S
C1162 H1138 0.950 . S
C1162 C1157 1.363 . S
C1162 C1161 1.415 . S
C1163 H1139 0.951 . S
C1163 C1164 1.366 . S
C1163 C1165 1.388 . S
C1164 C1163 1.366 . S
C1164 C1168 1.385 . S
C1165 H1140 0.951 . S
C1165 C1163 1.388 . S
C1165 C1166 1.366 . S
C1166 C1165 1.366 . S
C1166 C1167 1.414 . S
C1166 C1169 1.499 . S
C1167 H1141 0.950 . S
C1167 C1166 1.414 . S
C1167 C1168 1.374 . S
C1168 H1142 0.950 . S
C1168 C1164 1.385 . S
C1168 C1167 1.374 . S
C1169 C1166 1.499 . S
C1169 C1170 1.373 . S
C1169 C1171 1.389 . S
C1170 H1143 0.950 . S
C1170 C1156 1.377 . S
C1170 C1169 1.373 . S
C1171 C1155 1.377 . S
C1171 C1169 1.389 . S
C1171 C1172 1.524 . S
C1172 C1171 1.524 . S
C1172 C1173 1.397 . S
C1172 C1177 1.363 . S
C1173 H1144 0.950 . S
C1173 C1172 1.397 . S
C1173 C1174 1.334 . S
C1174 H1145 0.950 . S
C1174 C1173 1.334 . S
C1174 C1175 1.287 . S
C1175 C1174 1.287 . S
C1175 C1176 1.524 . S
C1175 H1178 0.999 . S
C1176 H1146 0.950 . S
C1176 C1175 1.524 . S
C1176 C1177 1.415 . S
C1177 H1147 0.950 . S
C1177 C1172 1.363 . S
C1177 C1176 1.415 . S
H1178 C1175 0.999 . S
H1179 C1160 0.913 1_455 S
H1180 C1198 0.951 . S
H1181 C1200 0.951 . S
H1182 C1202 0.950 . S
H1183 C1203 0.950 . S
H1184 C1205 0.950 . S
H1185 C1208 0.950 1_556 S
H1186 C1209 0.950 . S
H1187 C1211 0.950 . S
H1188 C1212 0.950 . S
H1189 C1213 0.951 . S
H1190 C1215 0.951 . S
H1191 C1217 0.950 . S
H1192 C1218 0.950 1_554 S
H1193 C1220 1.000 . S
H1194 C1223 0.950 . S
H1195 C1224 0.950 . S
H1196 C1226 0.950 . S
H1197 C1227 0.950 . S
C1198 H1180 0.951 . S
C1198 C1199 1.366 . S
C1198 C1200 1.388 . S
C1199 C1198 1.366 . S
C1199 C1203 1.385 . S
C1200 H1181 0.951 . S
C1200 C1198 1.388 . S
C1200 C1201 1.366 . S
C1201 C1200 1.366 . S
C1201 C1202 1.414 . S
C1201 C1204 1.499 . S
C1202 H1182 0.950 . S
C1202 C1201 1.414 . S
C1202 C1203 1.374 . S
C1203 H1183 0.950 . S
C1203 C1199 1.385 . S
C1203 C1202 1.374 . S
C1204 C1201 1.499 . S
C1204 C1205 1.373 . S
C1204 C1206 1.389 . S
C1205 H1184 0.950 . S
C1205 C1204 1.373 . S
C1205 C1221 1.377 . S
C1206 C1204 1.389 . S
C1206 C1207 1.578 . S
C1206 C1220 1.377 . S
C1207 C1206 1.578 . S
C1207 C1208 1.388 1_556 S
C1207 C1212 1.319 1_556 S
C1208 H1185 0.950 1_554 S
C1208 C1207 1.388 1_554 S
C1208 C1209 1.334 . S
C1209 H1186 0.950 . S
C1209 C1208 1.334 . S
C1209 C1210 1.287 . S
C1210 C1209 1.287 . S
C1210 C1211 1.524 . S
C1210 H1229 0.913 . S
C1211 H1187 0.950 . S
C1211 C1210 1.524 . S
C1211 C1212 1.415 . S
C1212 H1188 0.950 . S
C1212 C1207 1.319 1_554 S
C1212 C1211 1.415 . S
C1213 H1189 0.951 . S
C1213 C1214 1.366 . S
C1213 C1215 1.388 . S
C1214 C1213 1.366 . S
C1214 C1218 1.385 . S
C1215 H1190 0.951 . S
C1215 C1213 1.388 . S
C1215 C1216 1.366 . S
C1216 C1215 1.366 . S
C1216 C1217 1.414 . S
C1216 C1219 1.499 . S
C1217 H1191 0.950 . S
C1217 C1216 1.414 . S
C1217 C1218 1.374 . S
C1218 H1192 0.950 1_556 S
C1218 C1214 1.385 . S
C1218 C1217 1.374 . S
C1219 C1216 1.499 . S
C1219 C1220 1.373 . S
C1219 C1221 1.389 . S
C1220 H1193 1.000 . S
C1220 C1206 1.377 . S
C1220 C1219 1.373 . S
C1221 C1205 1.377 . S
C1221 C1219 1.389 . S
C1221 C1222 1.524 . S
C1222 C1221 1.524 . S
C1222 C1223 1.397 . S
C1222 C1227 1.363 . S
C1223 H1194 0.950 . S
C1223 C1222 1.397 . S
C1223 C1224 1.334 . S
C1224 H1195 0.950 . S
C1224 C1223 1.334 . S
C1224 C1225 1.287 . S
C1225 C1224 1.287 . S
C1225 C1226 1.524 . S
C1225 H1228 0.999 . S
C1226 H1196 0.950 . S
C1226 C1225 1.524 . S
C1226 C1227 1.415 . S
C1227 H1197 0.950 . S
C1227 C1222 1.363 . S
C1227 C1226 1.415 . S
H1228 C1225 0.999 . S
H1229 C1210 0.913 . S
H1230 C1248 0.951 . S
H1231 C1250 0.951 . S
H1232 C1252 0.950 . S
H1233 C1253 0.950 . S
H1234 C1255 0.950 . S
H1235 C1258 0.950 . S
H1236 C1259 0.950 . S
H1237 C1261 0.950 . S
H1238 C1262 0.950 . S
H1239 C1263 0.951 . S
H1240 C1265 0.951 . S
H1241 C1267 0.950 . S
H1242 C1268 0.950 . S
H1243 C1270 0.950 . S
H1244 C1273 0.950 . S
H1245 C1274 0.950 . S
H1246 C1276 0.950 . S
H1247 C1277 0.950 . S
C1248 H1230 0.951 . S
C1248 C1249 1.366 . S
C1248 C1250 1.388 . S
C1249 C1248 1.366 . S
C1249 C1253 1.385 . S
C1250 H1231 0.951 . S
C1250 C1248 1.388 . S
C1250 C1251 1.366 . S
C1251 C1250 1.366 . S
C1251 C1252 1.414 . S
C1251 C1254 1.499 . S
C1252 H1232 0.950 . S
C1252 C1251 1.414 . S
C1252 C1253 1.374 . S
C1253 H1233 0.950 . S
C1253 C1249 1.385 . S
C1253 C1252 1.374 . S
C1254 C1251 1.499 . S
C1254 C1255 1.373 . S
C1254 C1256 1.389 . S
C1255 H1234 0.950 . S
C1255 C1254 1.373 . S
C1255 C1271 1.377 . S
C1256 C1254 1.389 . S
C1256 C1257 1.524 . S
C1256 C1270 1.377 . S
C1257 C1256 1.524 . S
C1257 C1258 1.397 . S
C1257 C1262 1.363 . S
C1258 H1235 0.950 . S
C1258 C1257 1.397 . S
C1258 C1259 1.334 . S
C1259 H1236 0.950 . S
C1259 C1258 1.334 . S
C1259 C1260 1.287 . S
C1260 C1259 1.287 . S
C1260 C1261 1.524 . S
C1260 H1279 0.913 . S
C1261 H1237 0.950 . S
C1261 C1260 1.524 . S
C1261 C1262 1.415 . S
C1262 H1238 0.950 . S
C1262 C1257 1.363 . S
C1262 C1261 1.415 . S
C1263 H1239 0.951 . S
C1263 C1264 1.366 . S
C1263 C1265 1.388 . S
C1264 C1263 1.366 . S
C1264 C1268 1.385 . S
C1265 H1240 0.951 . S
C1265 C1263 1.388 . S
C1265 C1266 1.366 . S
C1266 C1265 1.366 . S
C1266 C1267 1.414 . S
C1266 C1269 1.499 . S
C1267 H1241 0.950 . S
C1267 C1266 1.414 . S
C1267 C1268 1.374 . S
C1268 H1242 0.950 . S
C1268 C1264 1.385 . S
C1268 C1267 1.374 . S
C1269 C1266 1.499 . S
C1269 C1270 1.373 . S
C1269 C1271 1.389 . S
C1270 H1243 0.950 . S
C1270 C1256 1.377 . S
C1270 C1269 1.373 . S
C1271 C1255 1.377 . S
C1271 C1269 1.389 . S
C1271 C1272 1.524 . S
C1272 C1271 1.524 . S
C1272 C1273 1.397 . S
C1272 C1277 1.363 . S
C1273 H1244 0.950 . S
C1273 C1272 1.397 . S
C1273 C1274 1.334 . S
C1274 H1245 0.950 . S
C1274 C1273 1.334 . S
C1274 C1275 1.287 . S
C1275 C1274 1.287 . S
C1275 C1276 1.524 . S
C1275 H1278 0.999 . S
C1276 H1246 0.950 . S
C1276 C1275 1.524 . S
C1276 C1277 1.415 . S
C1277 H1247 0.950 . S
C1277 C1272 1.363 . S
C1277 C1276 1.415 . S
H1278 C1275 0.999 . S
H1279 C1260 0.913 . S
H1280 C1298 0.951 . S
H1281 C1300 0.951 . S
H1282 C1302 0.950 . S
H1283 C1303 0.950 . S
H1284 C1305 0.950 . S
H1285 C1308 0.950 . S
H1286 C1309 0.950 . S
H1287 C1311 0.950 . S
H1288 C1312 0.950 . S
H1289 C1313 0.951 . S
H1290 C1315 0.951 . S
H1291 C1317 0.950 . S
H1292 C1318 0.950 . S
H1293 C1320 0.950 . S
H1294 C1323 0.950 . S
H1295 C1324 0.950 . S
H1296 C1326 0.950 . S
H1297 C1327 0.950 . S
C1298 H1280 0.951 . S
C1298 C1299 1.366 . S
C1298 C1300 1.388 . S
C1299 C1298 1.366 . S
C1299 C1303 1.385 . S
C1300 H1281 0.951 . S
C1300 C1298 1.388 . S
C1300 C1301 1.366 . S
C1301 C1300 1.366 . S
C1301 C1302 1.414 . S
C1301 C1304 1.499 . S
C1302 H1282 0.950 . S
C1302 C1301 1.414 . S
C1302 C1303 1.374 . S
C1303 H1283 0.950 . S
C1303 C1299 1.385 . S
C1303 C1302 1.374 . S
C1304 C1301 1.499 . S
C1304 C1305 1.373 . S
C1304 C1306 1.389 . S
C1305 H1284 0.950 . S
C1305 C1304 1.373 . S
C1305 C1321 1.377 . S
C1306 C1304 1.389 . S
C1306 C1307 1.524 . S
C1306 C1320 1.377 . S
C1307 C1306 1.524 . S
C1307 C1308 1.397 . S
C1307 C1312 1.363 . S
C1308 H1285 0.950 . S
C1308 C1307 1.397 . S
C1308 C1309 1.334 . S
C1309 H1286 0.950 . S
C1309 C1308 1.334 . S
C1309 C1310 1.287 . S
C1310 C1309 1.287 . S
C1310 C1311 1.524 . S
C1310 H1329 0.913 . S
C1311 H1287 0.950 . S
C1311 C1310 1.524 . S
C1311 C1312 1.415 . S
C1312 H1288 0.950 . S
C1312 C1307 1.363 . S
C1312 C1311 1.415 . S
C1313 H1289 0.951 . S
C1313 C1314 1.366 . S
C1313 C1315 1.388 . S
C1314 C1313 1.366 . S
C1314 C1318 1.385 . S
C1315 H1290 0.951 . S
C1315 C1313 1.388 . S
C1315 C1316 1.366 . S
C1316 C1315 1.366 . S
C1316 C1317 1.414 . S
C1316 C1319 1.499 . S
C1317 H1291 0.950 . S
C1317 C1316 1.414 . S
C1317 C1318 1.374 . S
C1318 H1292 0.950 . S
C1318 C1314 1.385 . S
C1318 C1317 1.374 . S
C1319 C1316 1.499 . S
C1319 C1320 1.373 . S
C1319 C1321 1.389 . S
C1320 H1293 0.950 . S
C1320 C1306 1.377 . S
C1320 C1319 1.373 . S
C1321 C1305 1.377 . S
C1321 C1319 1.389 . S
C1321 C1322 1.524 . S
C1322 C1321 1.524 . S
C1322 C1323 1.397 . S
C1322 C1327 1.363 . S
C1323 H1294 0.950 . S
C1323 C1322 1.397 . S
C1323 C1324 1.334 . S
C1324 H1295 0.950 . S
C1324 C1323 1.334 . S
C1324 C1325 1.287 . S
C1325 C1324 1.287 . S
C1325 C1326 1.524 . S
C1325 H1328 0.999 . S
C1326 H1296 0.950 . S
C1326 C1325 1.524 . S
C1326 C1327 1.415 . S
C1327 H1297 0.950 . S
C1327 C1322 1.363 . S
C1327 C1326 1.415 . S
H1328 C1325 0.999 . S
H1329 C1310 0.913 . S
H1330 C1348 0.951 . S
H1331 C1350 0.951 . S
H1332 C1352 0.950 . S
H1333 C1353 0.950 . S
H1334 C1355 0.950 . S
H1335 C1358 0.950 . S
H1336 C1359 0.950 . S
H1337 C1361 0.950 . S
H1338 C1362 0.950 . S
H1339 C1363 0.951 . S
H1340 C1365 0.951 . S
H1341 C1367 0.950 . S
H1342 C1368 0.950 . S
H1343 C1370 0.950 . S
H1344 C1373 0.950 . S
H1345 C1374 0.950 . S
H1346 C1376 0.950 . S
H1347 C1377 0.950 . S
C1348 H1330 0.951 . S
C1348 C1349 1.366 . S
C1348 C1350 1.388 . S
C1349 C1348 1.366 . S
C1349 C1353 1.385 . S
C1350 H1331 0.951 . S
C1350 C1348 1.388 . S
C1350 C1351 1.366 . S
C1351 C1350 1.366 . S
C1351 C1352 1.414 . S
C1351 C1354 1.499 . S
C1352 H1332 0.950 . S
C1352 C1351 1.414 . S
C1352 C1353 1.374 . S
C1353 H1333 0.950 . S
C1353 C1349 1.385 . S
C1353 C1352 1.374 . S
C1354 C1351 1.499 . S
C1354 C1355 1.373 . S
C1354 C1356 1.389 . S
C1355 H1334 0.950 . S
C1355 C1354 1.373 . S
C1355 C1371 1.377 . S
C1356 C1354 1.389 . S
C1356 C1357 1.524 . S
C1356 C1370 1.377 . S
C1357 C1356 1.524 . S
C1357 C1358 1.397 . S
C1357 C1362 1.363 . S
C1358 H1335 0.950 . S
C1358 C1357 1.397 . S
C1358 C1359 1.334 . S
C1359 H1336 0.950 . S
C1359 C1358 1.334 . S
C1359 C1360 1.287 . S
C1360 C1359 1.287 . S
C1360 C1361 1.524 . S
C1360 H1379 0.913 . S
C1361 H1337 0.950 . S
C1361 C1360 1.524 . S
C1361 C1362 1.415 . S
C1362 H1338 0.950 . S
C1362 C1357 1.363 . S
C1362 C1361 1.415 . S
C1363 H1339 0.951 . S
C1363 C1364 1.366 . S
C1363 C1365 1.388 . S
C1364 C1363 1.366 . S
C1364 C1368 1.385 . S
C1365 H1340 0.951 . S
C1365 C1363 1.388 . S
C1365 C1366 1.366 . S
C1366 C1365 1.366 . S
C1366 C1367 1.414 . S
C1366 C1369 1.499 . S
C1367 H1341 0.950 . S
C1367 C1366 1.414 . S
C1367 C1368 1.374 . S
C1368 H1342 0.950 . S
C1368 C1364 1.385 . S
C1368 C1367 1.374 . S
C1369 C1366 1.499 . S
C1369 C1370 1.373 . S
C1369 C1371 1.389 . S
C1370 H1343 0.950 . S
C1370 C1356 1.377 . S
C1370 C1369 1.373 . S
C1371 C1355 1.377 . S
C1371 C1369 1.389 . S
C1371 C1372 1.524 . S
C1372 C1371 1.524 . S
C1372 C1373 1.397 . S
C1372 C1377 1.363 . S
C1373 H1344 0.950 . S
C1373 C1372 1.397 . S
C1373 C1374 1.334 . S
C1374 H1345 0.950 . S
C1374 C1373 1.334 . S
C1374 C1375 1.287 . S
C1375 C1374 1.287 . S
C1375 C1376 1.524 . S
C1375 H1378 0.999 . S
C1376 H1346 0.950 . S
C1376 C1375 1.524 . S
C1376 C1377 1.415 . S
C1377 H1347 0.950 . S
C1377 C1372 1.363 . S
C1377 C1376 1.415 . S
H1378 C1375 0.999 . S
H1379 C1360 0.913 . S
H1380 C1398 0.951 . S
H1381 C1400 0.951 . S
H1382 C1402 0.950 . S
H1383 C1403 0.950 . S
H1384 C1405 0.950 . S
H1385 C1408 0.950 . S
H1386 C1409 0.950 . S
H1387 C1411 0.950 . S
H1388 C1412 0.950 . S
H1389 C1413 0.951 . S
H1390 C1415 0.951 . S
H1391 C1417 0.950 . S
H1392 C1418 0.950 . S
H1393 C1420 0.950 . S
H1394 C1423 0.950 . S
H1395 C1424 0.950 . S
H1396 C1426 0.950 . S
H1397 C1427 0.950 . S
C1398 H1380 0.951 . S
C1398 C1399 1.366 . S
C1398 C1400 1.388 . S
C1399 C1398 1.366 . S
C1399 C1403 1.385 . S
C1400 H1381 0.951 . S
C1400 C1398 1.388 . S
C1400 C1401 1.366 . S
C1401 C1400 1.366 . S
C1401 C1402 1.414 . S
C1401 C1404 1.499 . S
C1402 H1382 0.950 . S
C1402 C1401 1.414 . S
C1402 C1403 1.374 . S
C1403 H1383 0.950 . S
C1403 C1399 1.385 . S
C1403 C1402 1.374 . S
C1404 C1401 1.499 . S
C1404 C1405 1.373 . S
C1404 C1406 1.389 . S
C1405 H1384 0.950 . S
C1405 C1404 1.373 . S
C1405 C1421 1.377 . S
C1406 C1404 1.389 . S
C1406 C1407 1.524 . S
C1406 C1420 1.377 . S
C1407 C1406 1.524 . S
C1407 C1408 1.397 . S
C1407 C1412 1.363 . S
C1408 H1385 0.950 . S
C1408 C1407 1.397 . S
C1408 C1409 1.334 . S
C1409 H1386 0.950 . S
C1409 C1408 1.334 . S
C1409 C1410 1.287 . S
C1410 C1409 1.287 . S
C1410 C1411 1.524 . S
C1410 H1429 0.913 . S
C1411 H1387 0.950 . S
C1411 C1410 1.524 . S
C1411 C1412 1.415 . S
C1412 H1388 0.950 . S
C1412 C1407 1.363 . S
C1412 C1411 1.415 . S
C1413 H1389 0.951 . S
C1413 C1414 1.366 . S
C1413 C1415 1.388 . S
C1414 C1413 1.366 . S
C1414 C1418 1.385 . S
C1415 H1390 0.951 . S
C1415 C1413 1.388 . S
C1415 C1416 1.366 . S
C1416 C1415 1.366 . S
C1416 C1417 1.414 . S
C1416 C1419 1.499 . S
C1417 H1391 0.950 . S
C1417 C1416 1.414 . S
C1417 C1418 1.374 . S
C1418 H1392 0.950 . S
C1418 C1414 1.385 . S
C1418 C1417 1.374 . S
C1419 C1416 1.499 . S
C1419 C1420 1.373 . S
C1419 C1421 1.389 . S
C1420 H1393 0.950 . S
C1420 C1406 1.377 . S
C1420 C1419 1.373 . S
C1421 C1405 1.377 . S
C1421 C1419 1.389 . S
C1421 C1422 1.524 . S
C1422 C1421 1.524 . S
C1422 C1423 1.397 . S
C1422 C1427 1.363 . S
C1423 H1394 0.950 . S
C1423 C1422 1.397 . S
C1423 C1424 1.334 . S
C1424 H1395 0.950 . S
C1424 C1423 1.334 . S
C1424 C1425 1.287 . S
C1425 C1424 1.287 . S
C1425 C1426 1.524 . S
C1425 H1428 0.999 . S
C1426 H1396 0.950 . S
C1426 C1425 1.524 . S
C1426 C1427 1.415 . S
C1427 H1397 0.950 . S
C1427 C1422 1.363 . S
C1427 C1426 1.415 . S
H1428 C1425 0.999 . S
H1429 C1410 0.913 . S
H1430 C1448 0.951 . S
H1431 C1450 0.951 . S
H1432 C1452 0.950 . S
H1433 C1453 0.950 . S
H1434 C1455 0.950 . S
H1435 C1458 0.950 . S
H1436 C1459 0.950 . S
H1437 C1461 0.950 . S
H1438 C1462 0.950 . S
H1439 C1463 0.951 . S
H1440 C1465 0.951 . S
H1441 C1467 0.950 . S
H1442 C1468 0.950 . S
H1443 C1470 0.950 . S
H1444 C1473 0.950 . S
H1445 C1474 0.950 . S
H1446 C1476 0.950 . S
H1447 C1477 0.950 . S
C1448 H1430 0.951 . S
C1448 C1449 1.366 . S
C1448 C1450 1.388 . S
C1449 C1448 1.366 . S
C1449 C1453 1.385 . S
C1450 H1431 0.951 . S
C1450 C1448 1.388 . S
C1450 C1451 1.366 . S
C1451 C1450 1.366 . S
C1451 C1452 1.414 . S
C1451 C1454 1.499 . S
C1452 H1432 0.950 . S
C1452 C1451 1.414 . S
C1452 C1453 1.374 . S
C1453 H1433 0.950 . S
C1453 C1449 1.385 . S
C1453 C1452 1.374 . S
C1454 C1451 1.499 . S
C1454 C1455 1.373 . S
C1454 C1456 1.389 . S
C1455 H1434 0.950 . S
C1455 C1454 1.373 . S
C1455 C1471 1.377 . S
C1456 C1454 1.389 . S
C1456 C1457 1.524 . S
C1456 C1470 1.377 . S
C1457 C1456 1.524 . S
C1457 C1458 1.397 . S
C1457 C1462 1.363 . S
C1458 H1435 0.950 . S
C1458 C1457 1.397 . S
C1458 C1459 1.334 . S
C1459 H1436 0.950 . S
C1459 C1458 1.334 . S
C1459 C1460 1.287 . S
C1460 C1459 1.287 . S
C1460 C1461 1.524 . S
C1460 H1479 0.913 . S
C1461 H1437 0.950 . S
C1461 C1460 1.524 . S
C1461 C1462 1.415 . S
C1462 H1438 0.950 . S
C1462 C1457 1.363 . S
C1462 C1461 1.415 . S
C1463 H1439 0.951 . S
C1463 C1464 1.366 . S
C1463 C1465 1.388 . S
C1464 C1463 1.366 . S
C1464 C1468 1.385 . S
C1465 H1440 0.951 . S
C1465 C1463 1.388 . S
C1465 C1466 1.366 . S
C1466 C1465 1.366 . S
C1466 C1467 1.414 . S
C1466 C1469 1.499 . S
C1467 H1441 0.950 . S
C1467 C1466 1.414 . S
C1467 C1468 1.374 . S
C1468 H1442 0.950 . S
C1468 C1464 1.385 . S
C1468 C1467 1.374 . S
C1469 C1466 1.499 . S
C1469 C1470 1.373 . S
C1469 C1471 1.389 . S
C1470 H1443 0.950 . S
C1470 C1456 1.377 . S
C1470 C1469 1.373 . S
C1471 C1455 1.377 . S
C1471 C1469 1.389 . S
C1471 C1472 1.524 . S
C1472 C1471 1.524 . S
C1472 C1473 1.397 . S
C1472 C1477 1.363 . S
C1473 H1444 0.950 . S
C1473 C1472 1.397 . S
C1473 C1474 1.334 . S
C1474 H1445 0.950 . S
C1474 C1473 1.334 . S
C1474 C1475 1.287 . S
C1475 C1474 1.287 . S
C1475 C1476 1.524 . S
C1475 H1478 0.999 . S
C1476 H1446 0.950 . S
C1476 C1475 1.524 . S
C1476 C1477 1.415 . S
C1477 H1447 0.950 . S
C1477 C1472 1.363 . S
C1477 C1476 1.415 . S
H1478 C1475 0.999 . S
H1479 C1460 0.913 . S
H1480 C1498 0.951 . S
H1481 C1500 0.951 . S
H1482 C1502 0.950 . S
H1483 C1503 0.950 . S
H1484 C1505 0.950 . S
H1485 C1508 0.950 . S
H1486 C1509 0.950 . S
H1487 C1511 0.950 . S
H1488 C1512 0.950 . S
H1489 C1513 0.951 . S
H1490 C1515 0.951 . S
H1491 C1517 0.950 . S
H1492 C1518 0.950 . S
H1493 C1520 0.950 . S
H1494 C1523 0.950 . S
H1495 C1524 0.950 . S
H1496 C1526 0.950 . S
H1497 C1527 0.950 . S
C1498 H1480 0.951 . S
C1498 C1499 1.366 . S
C1498 C1500 1.388 . S
C1499 C1498 1.366 . S
C1499 C1503 1.385 . S
C1500 H1481 0.951 . S
C1500 C1498 1.388 . S
C1500 C1501 1.366 . S
C1501 C1500 1.366 . S
C1501 C1502 1.414 . S
C1501 C1504 1.499 . S
C1502 H1482 0.950 . S
C1502 C1501 1.414 . S
C1502 C1503 1.374 . S
C1503 H1483 0.950 . S
C1503 C1499 1.385 . S
C1503 C1502 1.374 . S
C1504 C1501 1.499 . S
C1504 C1505 1.373 . S
C1504 C1506 1.389 . S
C1505 H1484 0.950 . S
C1505 C1504 1.373 . S
C1505 C1521 1.377 . S
C1506 C1504 1.389 . S
C1506 C1507 1.524 . S
C1506 C1520 1.377 . S
C1507 C1506 1.524 . S
C1507 C1508 1.397 . S
C1507 C1512 1.363 . S
C1508 H1485 0.950 . S
C1508 C1507 1.397 . S
C1508 C1509 1.334 . S
C1509 H1486 0.950 . S
C1509 C1508 1.334 . S
C1509 C1510 1.287 . S
C1510 C1509 1.287 . S
C1510 C1511 1.524 . S
C1510 H1529 0.913 . S
C1511 H1487 0.950 . S
C1511 C1510 1.524 . S
C1511 C1512 1.415 . S
C1512 H1488 0.950 . S
C1512 C1507 1.363 . S
C1512 C1511 1.415 . S
C1513 H1489 0.951 . S
C1513 C1514 1.366 . S
C1513 C1515 1.388 . S
C1514 C1513 1.366 . S
C1514 C1518 1.385 . S
C1515 H1490 0.951 . S
C1515 C1513 1.388 . S
C1515 C1516 1.366 . S
C1516 C1515 1.366 . S
C1516 C1517 1.414 . S
C1516 C1519 1.499 . S
C1517 H1491 0.950 . S
C1517 C1516 1.414 . S
C1517 C1518 1.374 . S
C1518 H1492 0.950 . S
C1518 C1514 1.385 . S
C1518 C1517 1.374 . S
C1519 C1516 1.499 . S
C1519 C1520 1.373 . S
C1519 C1521 1.389 . S
C1520 H1493 0.950 . S
C1520 C1506 1.377 . S
C1520 C1519 1.373 . S
C1521 C1505 1.377 . S
C1521 C1519 1.389 . S
C1521 C1522 1.524 . S
C1522 C1521 1.524 . S
C1522 C1523 1.397 . S
C1522 C1527 1.363 . S
C1523 H1494 0.950 . S
C1523 C1522 1.397 . S
C1523 C1524 1.334 . S
C1524 H1495 0.950 . S
C1524 C1523 1.334 . S
C1524 C1525 1.287 . S
C1525 C1524 1.287 . S
C1525 C1526 1.524 . S
C1525 H1528 0.999 . S
C1526 H1496 0.950 . S
C1526 C1525 1.524 . S
C1526 C1527 1.415 . S
C1527 H1497 0.950 . S
C1527 C1522 1.363 . S
C1527 C1526 1.415 . S
H1528 C1525 0.999 . S
H1529 C1510 0.913 . S
H1530 C1548 0.951 . S
H1531 C1550 0.951 . S
H1532 C1552 0.950 . S
H1533 C1553 0.950 . S
H1534 C1555 0.950 . S
H1535 C1558 0.950 . S
H1536 C1559 0.950 . S
H1537 C1561 0.950 . S
H1538 C1562 0.950 . S
H1539 C1563 0.951 . S
H1540 C1565 0.951 . S
H1541 C1567 0.950 . S
H1542 C1568 0.950 . S
H1543 C1570 0.950 . S
H1544 C1573 0.950 . S
H1545 C1574 0.950 . S
H1546 C1576 0.950 . S
H1547 C1577 0.950 . S
C1548 H1530 0.951 . S
C1548 C1549 1.366 . S
C1548 C1550 1.388 . S
C1549 C1548 1.366 . S
C1549 C1553 1.385 . S
C1550 H1531 0.951 . S
C1550 C1548 1.388 . S
C1550 C1551 1.366 . S
C1551 C1550 1.366 . S
C1551 C1552 1.414 . S
C1551 C1554 1.499 . S
C1552 H1532 0.950 . S
C1552 C1551 1.414 . S
C1552 C1553 1.374 . S
C1553 H1533 0.950 . S
C1553 C1549 1.385 . S
C1553 C1552 1.374 . S
C1554 C1551 1.499 . S
C1554 C1555 1.373 . S
C1554 C1556 1.389 . S
C1555 H1534 0.950 . S
C1555 C1554 1.373 . S
C1555 C1571 1.377 . S
C1556 C1554 1.389 . S
C1556 C1557 1.524 . S
C1556 C1570 1.377 . S
C1557 C1556 1.524 . S
C1557 C1558 1.397 . S
C1557 C1562 1.363 . S
C1558 H1535 0.950 . S
C1558 C1557 1.397 . S
C1558 C1559 1.334 . S
C1559 H1536 0.950 . S
C1559 C1558 1.334 . S
C1559 C1560 1.287 . S
C1560 C1559 1.287 . S
C1560 C1561 1.524 . S
C1560 H1579 0.913 . S
C1561 H1537 0.950 . S
C1561 C1560 1.524 . S
C1561 C1562 1.415 . S
C1562 H1538 0.950 . S
C1562 C1557 1.363 . S
C1562 C1561 1.415 . S
C1563 H1539 0.951 . S
C1563 C1564 1.366 . S
C1563 C1565 1.388 . S
C1564 C1563 1.366 . S
C1564 C1568 1.385 . S
C1565 H1540 0.951 . S
C1565 C1563 1.388 . S
C1565 C1566 1.366 . S
C1566 C1565 1.366 . S
C1566 C1567 1.414 . S
C1566 C1569 1.499 . S
C1567 H1541 0.950 . S
C1567 C1566 1.414 . S
C1567 C1568 1.374 . S
C1568 H1542 0.950 . S
C1568 C1564 1.385 . S
C1568 C1567 1.374 . S
C1569 C1566 1.499 . S
C1569 C1570 1.373 . S
C1569 C1571 1.389 . S
C1570 H1543 0.950 . S
C1570 C1556 1.377 . S
C1570 C1569 1.373 . S
C1571 C1555 1.377 . S
C1571 C1569 1.389 . S
C1571 C1572 1.524 . S
C1572 C1571 1.524 . S
C1572 C1573 1.397 . S
C1572 C1577 1.363 . S
C1573 H1544 0.950 . S
C1573 C1572 1.397 . S
C1573 C1574 1.334 . S
C1574 H1545 0.950 . S
C1574 C1573 1.334 . S
C1574 C1575 1.287 . S
C1575 C1574 1.287 . S
C1575 C1576 1.524 . S
C1575 H1578 0.999 . S
C1576 H1546 0.950 . S
C1576 C1575 1.524 . S
C1576 C1577 1.415 . S
C1577 H1547 0.950 . S
C1577 C1572 1.363 . S
C1577 C1576 1.415 . S
H1578 C1575 0.999 . S
H1579 C1560 0.913 . S
H1580 C1598 0.951 . S
H1581 C1600 0.951 . S
H1582 C1602 0.950 . S
H1583 C1603 0.950 . S
H1584 C1605 0.950 . S
H1585 C1608 0.950 . S
H1586 C1609 0.950 . S
H1587 C1611 0.950 . S
H1588 C1612 0.950 . S
H1589 C1613 0.951 . S
H1590 C1615 0.951 . S
H1591 C1617 0.950 . S
H1592 C1618 0.950 . S
H1593 C1620 0.950 . S
H1594 C1623 0.950 . S
H1595 C1624 0.950 . S
H1596 C1626 0.950 . S
H1597 C1627 0.950 . S
C1598 H1580 0.951 . S
C1598 C1599 1.366 . S
C1598 C1600 1.388 . S
C1599 C1598 1.366 . S
C1599 C1603 1.385 . S
C1600 H1581 0.951 . S
C1600 C1598 1.388 . S
C1600 C1601 1.366 . S
C1601 C1600 1.366 . S
C1601 C1602 1.414 . S
C1601 C1604 1.499 . S
C1602 H1582 0.950 . S
C1602 C1601 1.414 . S
C1602 C1603 1.374 . S
C1603 H1583 0.950 . S
C1603 C1599 1.385 . S
C1603 C1602 1.374 . S
C1604 C1601 1.499 . S
C1604 C1605 1.373 . S
C1604 C1606 1.389 . S
C1605 H1584 0.950 . S
C1605 C1604 1.373 . S
C1605 C1621 1.377 . S
C1606 C1604 1.389 . S
C1606 C1607 1.524 . S
C1606 C1620 1.377 . S
C1607 C1606 1.524 . S
C1607 C1608 1.397 . S
C1607 C1612 1.363 . S
C1608 H1585 0.950 . S
C1608 C1607 1.397 . S
C1608 C1609 1.334 . S
C1609 H1586 0.950 . S
C1609 C1608 1.334 . S
C1609 C1610 1.287 . S
C1610 C1609 1.287 . S
C1610 C1611 1.524 . S
C1610 H1629 0.913 . S
C1611 H1587 0.950 . S
C1611 C1610 1.524 . S
C1611 C1612 1.415 . S
C1612 H1588 0.950 . S
C1612 C1607 1.363 . S
C1612 C1611 1.415 . S
C1613 H1589 0.951 . S
C1613 C1614 1.366 . S
C1613 C1615 1.388 . S
C1614 C1613 1.366 . S
C1614 C1618 1.385 . S
C1615 H1590 0.951 . S
C1615 C1613 1.388 . S
C1615 C1616 1.366 . S
C1616 C1615 1.366 . S
C1616 C1617 1.414 . S
C1616 C1619 1.499 . S
C1617 H1591 0.950 . S
C1617 C1616 1.414 . S
C1617 C1618 1.374 . S
C1618 H1592 0.950 . S
C1618 C1614 1.385 . S
C1618 C1617 1.374 . S
C1619 C1616 1.499 . S
C1619 C1620 1.373 . S
C1619 C1621 1.389 . S
C1620 H1593 0.950 . S
C1620 C1606 1.377 . S
C1620 C1619 1.373 . S
C1621 C1605 1.377 . S
C1621 C1619 1.389 . S
C1621 C1622 1.524 . S
C1622 C1621 1.524 . S
C1622 C1623 1.397 . S
C1622 C1627 1.363 . S
C1623 H1594 0.950 . S
C1623 C1622 1.397 . S
C1623 C1624 1.334 . S
C1624 H1595 0.950 . S
C1624 C1623 1.334 . S
C1624 C1625 1.287 . S
C1625 C1624 1.287 . S
C1625 C1626 1.524 . S
C1625 H1628 0.999 . S
C1626 H1596 0.950 . S
C1626 C1625 1.524 . S
C1626 C1627 1.415 . S
C1627 H1597 0.950 . S
C1627 C1622 1.363 . S
C1627 C1626 1.415 . S
H1628 C1625 0.999 . S
H1629 C1610 0.913 . S
H1630 C1648 0.951 . S
H1631 C1650 0.951 . S
H1632 C1652 0.950 . S
H1633 C1653 0.950 . S
H1634 C1655 0.950 . S
H1635 C1658 0.950 . S
H1636 C1659 0.950 . S
H1637 C1661 0.950 . S
H1638 C1662 0.950 . S
H1639 C1663 0.951 . S
H1640 C1665 0.951 . S
H1641 C1667 0.950 . S
H1642 C1668 0.950 . S
H1643 C1670 0.950 . S
H1644 C1673 0.950 . S
H1645 C1674 0.950 . S
H1646 C1676 0.950 . S
H1647 C1677 0.950 . S
C1648 H1630 0.951 . S
C1648 C1649 1.366 . S
C1648 C1650 1.388 . S
C1649 C1648 1.366 . S
C1649 C1653 1.385 . S
C1650 H1631 0.951 . S
C1650 C1648 1.388 . S
C1650 C1651 1.366 . S
C1651 C1650 1.366 . S
C1651 C1652 1.414 . S
C1651 C1654 1.499 . S
C1652 H1632 0.950 . S
C1652 C1651 1.414 . S
C1652 C1653 1.374 . S
C1653 H1633 0.950 . S
C1653 C1649 1.385 . S
C1653 C1652 1.374 . S
C1654 C1651 1.499 . S
C1654 C1655 1.373 . S
C1654 C1656 1.389 . S
C1655 H1634 0.950 . S
C1655 C1654 1.373 . S
C1655 C1671 1.377 . S
C1656 C1654 1.389 . S
C1656 C1657 1.524 . S
C1656 C1670 1.377 . S
C1657 C1656 1.524 . S
C1657 C1658 1.397 . S
C1657 C1662 1.363 . S
C1658 H1635 0.950 . S
C1658 C1657 1.397 . S
C1658 C1659 1.334 . S
C1659 H1636 0.950 . S
C1659 C1658 1.334 . S
C1659 C1660 1.287 . S
C1660 C1659 1.287 . S
C1660 C1661 1.524 . S
C1660 H1679 0.913 . S
C1661 H1637 0.950 . S
C1661 C1660 1.524 . S
C1661 C1662 1.415 . S
C1662 H1638 0.950 . S
C1662 C1657 1.363 . S
C1662 C1661 1.415 . S
C1663 H1639 0.951 . S
C1663 C1664 1.366 . S
C1663 C1665 1.388 . S
C1664 C1663 1.366 . S
C1664 C1668 1.385 . S
C1665 H1640 0.951 . S
C1665 C1663 1.388 . S
C1665 C1666 1.366 . S
C1666 C1665 1.366 . S
C1666 C1667 1.414 . S
C1666 C1669 1.499 . S
C1667 H1641 0.950 . S
C1667 C1666 1.414 . S
C1667 C1668 1.374 . S
C1668 H1642 0.950 . S
C1668 C1664 1.385 . S
C1668 C1667 1.374 . S
C1669 C1666 1.499 . S
C1669 C1670 1.373 . S
C1669 C1671 1.389 . S
C1670 H1643 0.950 . S
C1670 C1656 1.377 . S
C1670 C1669 1.373 . S
C1671 C1655 1.377 . S
C1671 C1669 1.389 . S
C1671 C1672 1.524 . S
C1672 C1671 1.524 . S
C1672 C1673 1.397 . S
C1672 C1677 1.363 . S
C1673 H1644 0.950 . S
C1673 C1672 1.397 . S
C1673 C1674 1.334 . S
C1674 H1645 0.950 . S
C1674 C1673 1.334 . S
C1674 C1675 1.287 . S
C1675 C1674 1.287 . S
C1675 C1676 1.524 . S
C1675 H1678 0.999 . S
C1676 H1646 0.950 . S
C1676 C1675 1.524 . S
C1676 C1677 1.415 . S
C1677 H1647 0.950 . S
C1677 C1672 1.363 . S
C1677 C1676 1.415 . S
H1678 C1675 0.999 . S
H1679 C1660 0.913 . S
H1680 C1698 0.951 . S
H1681 C1700 0.951 . S
H1682 C1702 0.950 . S
H1683 C1703 0.950 . S
H1684 C1705 0.950 . S
H1685 C1708 0.950 . S
H1686 C1709 0.950 . S
H1687 C1711 0.950 . S
H1688 C1712 0.950 . S
H1689 C1713 0.951 . S
H1690 C1715 0.951 . S
H1691 C1717 0.950 . S
H1692 C1718 0.950 . S
H1693 C1720 0.950 . S
H1694 C1723 0.950 . S
H1695 C1724 0.950 . S
H1696 C1726 0.950 . S
H1697 C1727 0.950 . S
C1698 H1680 0.951 . S
C1698 C1699 1.366 . S
C1698 C1700 1.388 . S
C1699 C1698 1.366 . S
C1699 C1703 1.385 . S
C1700 H1681 0.951 . S
C1700 C1698 1.388 . S
C1700 C1701 1.366 . S
C1701 C1700 1.366 . S
C1701 C1702 1.414 . S
C1701 C1704 1.499 . S
C1702 H1682 0.950 . S
C1702 C1701 1.414 . S
C1702 C1703 1.374 . S
C1703 H1683 0.950 . S
C1703 C1699 1.385 . S
C1703 C1702 1.374 . S
C1704 C1701 1.499 . S
C1704 C1705 1.373 . S
C1704 C1706 1.389 . S
C1705 H1684 0.950 . S
C1705 C1704 1.373 . S
C1705 C1721 1.377 . S
C1706 C1704 1.389 . S
C1706 C1707 1.524 . S
C1706 C1720 1.377 . S
C1707 C1706 1.524 . S
C1707 C1708 1.397 . S
C1707 C1712 1.363 . S
C1708 H1685 0.950 . S
C1708 C1707 1.397 . S
C1708 C1709 1.334 . S
C1709 H1686 0.950 . S
C1709 C1708 1.334 . S
C1709 C1710 1.287 . S
C1710 C1709 1.287 . S
C1710 C1711 1.524 . S
C1710 H1729 0.913 . S
C1711 H1687 0.950 . S
C1711 C1710 1.524 . S
C1711 C1712 1.415 . S
C1712 H1688 0.950 . S
C1712 C1707 1.363 . S
C1712 C1711 1.415 . S
C1713 H1689 0.951 . S
C1713 C1714 1.366 . S
C1713 C1715 1.388 . S
C1714 C1713 1.366 . S
C1714 C1718 1.385 . S
C1715 H1690 0.951 . S
C1715 C1713 1.388 . S
C1715 C1716 1.366 . S
C1716 C1715 1.366 . S
C1716 C1717 1.414 . S
C1716 C1719 1.499 . S
C1717 H1691 0.950 . S
C1717 C1716 1.414 . S
C1717 C1718 1.374 . S
C1718 H1692 0.950 . S
C1718 C1714 1.385 . S
C1718 C1717 1.374 . S
C1719 C1716 1.499 . S
C1719 C1720 1.373 . S
C1719 C1721 1.389 . S
C1720 H1693 0.950 . S
C1720 C1706 1.377 . S
C1720 C1719 1.373 . S
C1721 C1705 1.377 . S
C1721 C1719 1.389 . S
C1721 C1722 1.524 . S
C1722 C1721 1.524 . S
C1722 C1723 1.397 . S
C1722 C1727 1.363 . S
C1723 H1694 0.950 . S
C1723 C1722 1.397 . S
C1723 C1724 1.334 . S
C1724 H1695 0.950 . S
C1724 C1723 1.334 . S
C1724 C1725 1.287 . S
C1725 C1724 1.287 . S
C1725 C1726 1.524 . S
C1725 H1728 0.999 . S
C1726 H1696 0.950 . S
C1726 C1725 1.524 . S
C1726 C1727 1.415 . S
C1727 H1697 0.950 . S
C1727 C1722 1.363 . S
C1727 C1726 1.415 . S
H1728 C1725 0.999 . S
H1729 C1710 0.913 . S
H1730 C1748 0.951 . S
H1731 C1750 0.951 . S
H1732 C1752 0.950 . S
H1733 C1753 0.950 . S
H1734 C1755 0.950 . S
H1735 C1758 0.950 . S
H1736 C1759 0.950 . S
H1737 C1761 0.950 . S
H1738 C1762 0.950 . S
H1739 C1763 0.951 . S
H1740 C1765 0.951 . S
H1741 C1767 0.950 . S
H1742 C1768 0.950 . S
H1743 C1770 0.950 . S
H1744 C1773 0.950 . S
H1745 C1774 0.950 . S
H1746 C1776 0.950 . S
H1747 C1777 0.950 . S
C1748 H1730 0.951 . S
C1748 C1749 1.366 . S
C1748 C1750 1.388 . S
C1749 C1748 1.366 . S
C1749 C1753 1.385 . S
C1750 H1731 0.951 . S
C1750 C1748 1.388 . S
C1750 C1751 1.366 . S
C1751 C1750 1.366 . S
C1751 C1752 1.414 . S
C1751 C1754 1.499 . S
C1752 H1732 0.950 . S
C1752 C1751 1.414 . S
C1752 C1753 1.374 . S
C1753 H1733 0.950 . S
C1753 C1749 1.385 . S
C1753 C1752 1.374 . S
C1754 C1751 1.499 . S
C1754 C1755 1.373 . S
C1754 C1756 1.389 . S
C1755 H1734 0.950 . S
C1755 C1754 1.373 . S
C1755 C1771 1.377 . S
C1756 C1754 1.389 . S
C1756 C1757 1.524 . S
C1756 C1770 1.377 . S
C1757 C1756 1.524 . S
C1757 C1758 1.397 . S
C1757 C1762 1.363 . S
C1758 H1735 0.950 . S
C1758 C1757 1.397 . S
C1758 C1759 1.334 . S
C1759 H1736 0.950 . S
C1759 C1758 1.334 . S
C1759 C1760 1.287 . S
C1760 C1759 1.287 . S
C1760 C1761 1.524 . S
C1760 H1779 0.913 . S
C1761 H1737 0.950 . S
C1761 C1760 1.524 . S
C1761 C1762 1.415 . S
C1762 H1738 0.950 . S
C1762 C1757 1.363 . S
C1762 C1761 1.415 . S
C1763 H1739 0.951 . S
C1763 C1764 1.366 . S
C1763 C1765 1.388 . S
C1764 C1763 1.366 . S
C1764 C1768 1.385 . S
C1765 H1740 0.951 . S
C1765 C1763 1.388 . S
C1765 C1766 1.366 . S
C1766 C1765 1.366 . S
C1766 C1767 1.414 . S
C1766 C1769 1.499 . S
C1767 H1741 0.950 . S
C1767 C1766 1.414 . S
C1767 C1768 1.374 . S
C1768 H1742 0.950 . S
C1768 C1764 1.385 . S
C1768 C1767 1.374 . S
C1769 C1766 1.499 . S
C1769 C1770 1.373 . S
C1769 C1771 1.389 . S
C1770 H1743 0.950 . S
C1770 C1756 1.377 . S
C1770 C1769 1.373 . S
C1771 C1755 1.377 . S
C1771 C1769 1.389 . S
C1771 C1772 1.524 . S
C1772 C1771 1.524 . S
C1772 C1773 1.397 . S
C1772 C1777 1.363 . S
C1773 H1744 0.950 . S
C1773 C1772 1.397 . S
C1773 C1774 1.334 . S
C1774 H1745 0.950 . S
C1774 C1773 1.334 . S
C1774 C1775 1.287 . S
C1775 C1774 1.287 . S
C1775 C1776 1.524 . S
C1775 H1778 0.999 . S
C1776 H1746 0.950 . S
C1776 C1775 1.524 . S
C1776 C1777 1.415 . S
C1777 H1747 0.950 . S
C1777 C1772 1.363 . S
C1777 C1776 1.415 . S
H1778 C1775 0.999 . S
H1779 C1760 0.913 . S
H1780 C1798 0.951 . S
H1781 C1800 0.951 . S
H1782 C1802 0.950 . S
H1783 C1803 0.950 . S
H1784 C1805 0.950 . S
H1785 C1808 0.950 . S
H1786 C1809 0.950 . S
H1787 C1811 0.950 . S
H1788 C1812 0.950 . S
H1789 C1813 0.951 . S
H1790 C1815 0.951 . S
H1791 C1817 0.950 . S
H1792 C1818 0.950 . S
H1793 C1820 0.950 . S
H1794 C1823 0.950 . S
H1795 C1824 0.950 . S
H1796 C1826 0.950 . S
H1797 C1827 0.950 . S
C1798 H1780 0.951 . S
C1798 C1799 1.366 . S
C1798 C1800 1.388 . S
C1799 C1798 1.366 . S
C1799 C1803 1.385 . S
C1800 H1781 0.951 . S
C1800 C1798 1.388 . S
C1800 C1801 1.366 . S
C1801 C1800 1.366 . S
C1801 C1802 1.414 . S
C1801 C1804 1.499 . S
C1802 H1782 0.950 . S
C1802 C1801 1.414 . S
C1802 C1803 1.374 . S
C1803 H1783 0.950 . S
C1803 C1799 1.385 . S
C1803 C1802 1.374 . S
C1804 C1801 1.499 . S
C1804 C1805 1.373 . S
C1804 C1806 1.389 . S
C1805 H1784 0.950 . S
C1805 C1804 1.373 . S
C1805 C1821 1.377 . S
C1806 C1804 1.389 . S
C1806 C1807 1.524 . S
C1806 C1820 1.377 . S
C1807 C1806 1.524 . S
C1807 C1808 1.397 . S
C1807 C1812 1.363 . S
C1808 H1785 0.950 . S
C1808 C1807 1.397 . S
C1808 C1809 1.334 . S
C1809 H1786 0.950 . S
C1809 C1808 1.334 . S
C1809 C1810 1.287 . S
C1810 C1809 1.287 . S
C1810 C1811 1.524 . S
C1810 H1829 0.913 . S
C1811 H1787 0.950 . S
C1811 C1810 1.524 . S
C1811 C1812 1.415 . S
C1812 H1788 0.950 . S
C1812 C1807 1.363 . S
C1812 C1811 1.415 . S
C1813 H1789 0.951 . S
C1813 C1814 1.366 . S
C1813 C1815 1.388 . S
C1814 C1813 1.366 . S
C1814 C1818 1.385 . S
C1815 H1790 0.951 . S
C1815 C1813 1.388 . S
C1815 C1816 1.366 . S
C1816 C1815 1.366 . S
C1816 C1817 1.414 . S
C1816 C1819 1.499 . S
C1817 H1791 0.950 . S
C1817 C1816 1.414 . S
C1817 C1818 1.374 . S
C1818 H1792 0.950 . S
C1818 C1814 1.385 . S
C1818 C1817 1.374 . S
C1819 C1816 1.499 . S
C1819 C1820 1.373 . S
C1819 C1821 1.389 . S
C1820 H1793 0.950 . S
C1820 C1806 1.377 . S
C1820 C1819 1.373 . S
C1821 C1805 1.377 . S
C1821 C1819 1.389 . S
C1821 C1822 1.524 . S
C1822 C1821 1.524 . S
C1822 C1823 1.397 . S
C1822 C1827 1.363 . S
C1823 H1794 0.950 . S
C1823 C1822 1.397 . S
C1823 C1824 1.334 . S
C1824 H1795 0.950 . S
C1824 C1823 1.334 . S
C1824 C1825 1.287 . S
C1825 C1824 1.287 . S
C1825 C1826 1.524 . S
C1825 H1828 0.999 . S
C1826 H1796 0.950 . S
C1826 C1825 1.524 . S
C1826 C1827 1.415 . S
C1827 H1797 0.950 . S
C1827 C1822 1.363 . S
C1827 C1826 1.415 . S
H1828 C1825 0.999 . S
H1829 C1810 0.913 . S
H1830 C1848 0.951 . S
H1831 C1850 0.951 . S
H1832 C1852 0.950 . S
H1833 C1853 0.950 . S
H1834 C1855 0.950 . S
H1835 C1858 0.950 . S
H1836 C1859 0.950 . S
H1837 C1861 0.950 . S
H1838 C1862 0.950 . S
H1839 C1863 0.951 . S
H1840 C1865 0.951 . S
H1841 C1867 0.950 . S
H1842 C1868 0.950 . S
H1843 C1870 0.950 . S
H1844 C1873 0.950 . S
H1845 C1874 0.950 . S
H1846 C1876 0.950 . S
H1847 C1877 0.950 . S
C1848 H1830 0.951 . S
C1848 C1849 1.366 . S
C1848 C1850 1.388 . S
C1849 C1848 1.366 . S
C1849 C1853 1.385 . S
C1850 H1831 0.951 . S
C1850 C1848 1.388 . S
C1850 C1851 1.366 . S
C1851 C1850 1.366 . S
C1851 C1852 1.414 . S
C1851 C1854 1.499 . S
C1852 H1832 0.950 . S
C1852 C1851 1.414 . S
C1852 C1853 1.374 . S
C1853 H1833 0.950 . S
C1853 C1849 1.385 . S
C1853 C1852 1.374 . S
C1854 C1851 1.499 . S
C1854 C1855 1.373 . S
C1854 C1856 1.389 . S
C1855 H1834 0.950 . S
C1855 C1854 1.373 . S
C1855 C1871 1.377 . S
C1856 C1854 1.389 . S
C1856 C1857 1.524 . S
C1856 C1870 1.377 . S
C1857 C1856 1.524 . S
C1857 C1858 1.397 . S
C1857 C1862 1.363 . S
C1858 H1835 0.950 . S
C1858 C1857 1.397 . S
C1858 C1859 1.334 . S
C1859 H1836 0.950 . S
C1859 C1858 1.334 . S
C1859 C1860 1.287 . S
C1860 C1859 1.287 . S
C1860 C1861 1.524 . S
C1860 H1879 0.913 . S
C1861 H1837 0.950 . S
C1861 C1860 1.524 . S
C1861 C1862 1.415 . S
C1862 H1838 0.950 . S
C1862 C1857 1.363 . S
C1862 C1861 1.415 . S
C1863 H1839 0.951 . S
C1863 C1864 1.366 . S
C1863 C1865 1.388 . S
C1864 C1863 1.366 . S
C1864 C1868 1.385 . S
C1865 H1840 0.951 . S
C1865 C1863 1.388 . S
C1865 C1866 1.366 . S
C1866 C1865 1.366 . S
C1866 C1867 1.414 . S
C1866 C1869 1.499 . S
C1867 H1841 0.950 . S
C1867 C1866 1.414 . S
C1867 C1868 1.374 . S
C1868 H1842 0.950 . S
C1868 C1864 1.385 . S
C1868 C1867 1.374 . S
C1869 C1866 1.499 . S
C1869 C1870 1.373 . S
C1869 C1871 1.389 . S
C1870 H1843 0.950 . S
C1870 C1856 1.377 . S
C1870 C1869 1.373 . S
C1871 C1855 1.377 . S
C1871 C1869 1.389 . S
C1871 C1872 1.524 . S
C1872 C1871 1.524 . S
C1872 C1873 1.397 . S
C1872 C1877 1.363 . S
C1873 H1844 0.950 . S
C1873 C1872 1.397 . S
C1873 C1874 1.334 . S
C1874 H1845 0.950 . S
C1874 C1873 1.334 . S
C1874 C1875 1.287 . S
C1875 C1874 1.287 . S
C1875 C1876 1.524 . S
C1875 H1878 0.999 . S
C1876 H1846 0.950 . S
C1876 C1875 1.524 . S
C1876 C1877 1.415 . S
C1877 H1847 0.950 . S
C1877 C1872 1.363 . S
C1877 C1876 1.415 . S
H1878 C1875 0.999 . S
H1879 C1860 0.913 . S
H1880 C1898 0.951 . S
H1881 C1900 0.951 . S
H1882 C1902 0.950 . S
H1883 C1903 0.950 . S
H1884 C1905 0.950 . S
H1885 C1908 0.950 . S
H1886 C1909 0.950 . S
H1887 C1911 0.950 . S
H1888 C1912 0.950 . S
H1889 C1913 0.951 . S
H1890 C1915 0.951 . S
H1891 C1917 0.950 . S
H1892 C1918 0.950 . S
H1893 C1920 0.950 . S
H1894 C1923 0.950 . S
H1895 C1924 0.950 . S
H1896 C1926 0.950 . S
H1897 C1927 0.950 . S
C1898 H1880 0.951 . S
C1898 C1899 1.366 . S
C1898 C1900 1.388 . S
C1899 C1898 1.366 . S
C1899 C1903 1.385 . S
C1900 H1881 0.951 . S
C1900 C1898 1.388 . S
C1900 C1901 1.366 . S
C1901 C1900 1.366 . S
C1901 C1902 1.414 . S
C1901 C1904 1.499 . S
C1902 H1882 0.950 . S
C1902 C1901 1.414 . S
C1902 C1903 1.374 . S
C1903 H1883 0.950 . S
C1903 C1899 1.385 . S
C1903 C1902 1.374 . S
C1904 C1901 1.499 . S
C1904 C1905 1.373 . S
C1904 C1906 1.389 . S
C1905 H1884 0.950 . S
C1905 C1904 1.373 . S
C1905 C1921 1.377 . S
C1906 C1904 1.389 . S
C1906 C1907 1.524 . S
C1906 C1920 1.377 . S
C1907 C1906 1.524 . S
C1907 C1908 1.397 . S
C1907 C1912 1.363 . S
C1908 H1885 0.950 . S
C1908 C1907 1.397 . S
C1908 C1909 1.334 . S
C1909 H1886 0.950 . S
C1909 C1908 1.334 . S
C1909 C1910 1.287 . S
C1910 C1909 1.287 . S
C1910 C1911 1.524 . S
C1910 H1929 0.913 . S
C1911 H1887 0.950 . S
C1911 C1910 1.524 . S
C1911 C1912 1.415 . S
C1912 H1888 0.950 . S
C1912 C1907 1.363 . S
C1912 C1911 1.415 . S
C1913 H1889 0.951 . S
C1913 C1914 1.366 . S
C1913 C1915 1.388 . S
C1914 C1913 1.366 . S
C1914 C1918 1.385 . S
C1915 H1890 0.951 . S
C1915 C1913 1.388 . S
C1915 C1916 1.366 . S
C1916 C1915 1.366 . S
C1916 C1917 1.414 . S
C1916 C1919 1.499 . S
C1917 H1891 0.950 . S
C1917 C1916 1.414 . S
C1917 C1918 1.374 . S
C1918 H1892 0.950 . S
C1918 C1914 1.385 . S
C1918 C1917 1.374 . S
C1919 C1916 1.499 . S
C1919 C1920 1.373 . S
C1919 C1921 1.389 . S
C1920 H1893 0.950 . S
C1920 C1906 1.377 . S
C1920 C1919 1.373 . S
C1921 C1905 1.377 . S
C1921 C1919 1.389 . S
C1921 C1922 1.524 . S
C1922 C1921 1.524 . S
C1922 C1923 1.397 . S
C1922 C1927 1.363 . S
C1923 H1894 0.950 . S
C1923 C1922 1.397 . S
C1923 C1924 1.334 . S
C1924 H1895 0.950 . S
C1924 C1923 1.334 . S
C1924 C1925 1.287 . S
C1925 C1924 1.287 . S
C1925 C1926 1.524 . S
C1925 H1928 0.999 . S
C1926 H1896 0.950 . S
C1926 C1925 1.524 . S
C1926 C1927 1.415 . S
C1927 H1897 0.950 . S
C1927 C1922 1.363 . S
C1927 C1926 1.415 . S
H1928 C1925 0.999 . S
H1929 C1910 0.913 . S
H1930 C1948 0.951 . S
H1931 C1950 0.951 . S
H1932 C1952 0.950 . S
H1933 C1953 0.950 . S
H1934 C1955 0.950 . S
H1935 C1958 0.950 . S
H1936 C1959 0.950 . S
H1937 C1961 0.950 . S
H1938 C1962 0.950 . S
H1939 C1963 0.951 . S
H1940 C1965 0.951 . S
H1941 C1967 0.950 . S
H1942 C1968 0.950 . S
H1943 C1970 0.950 . S
H1944 C1973 0.950 . S
H1945 C1974 0.950 . S
H1946 C1976 0.950 . S
H1947 C1977 0.950 . S
C1948 H1930 0.951 . S
C1948 C1949 1.366 . S
C1948 C1950 1.388 . S
C1949 C1948 1.366 . S
C1949 C1953 1.385 . S
C1950 H1931 0.951 . S
C1950 C1948 1.388 . S
C1950 C1951 1.366 . S
C1951 C1950 1.366 . S
C1951 C1952 1.414 . S
C1951 C1954 1.499 . S
C1952 H1932 0.950 . S
C1952 C1951 1.414 . S
C1952 C1953 1.374 . S
C1953 H1933 0.950 . S
C1953 C1949 1.385 . S
C1953 C1952 1.374 . S
C1954 C1951 1.499 . S
C1954 C1955 1.373 . S
C1954 C1956 1.389 . S
C1955 H1934 0.950 . S
C1955 C1954 1.373 . S
C1955 C1971 1.377 . S
C1956 C1954 1.389 . S
C1956 C1957 1.524 . S
C1956 C1970 1.377 . S
C1957 C1956 1.524 . S
C1957 C1958 1.397 . S
C1957 C1962 1.363 . S
C1958 H1935 0.950 . S
C1958 C1957 1.397 . S
C1958 C1959 1.334 . S
C1959 H1936 0.950 . S
C1959 C1958 1.334 . S
C1959 C1960 1.287 . S
C1960 C1959 1.287 . S
C1960 C1961 1.524 . S
C1960 H1979 0.913 . S
C1961 H1937 0.950 . S
C1961 C1960 1.524 . S
C1961 C1962 1.415 . S
C1962 H1938 0.950 . S
C1962 C1957 1.363 . S
C1962 C1961 1.415 . S
C1963 H1939 0.951 . S
C1963 C1964 1.366 . S
C1963 C1965 1.388 . S
C1964 C1963 1.366 . S
C1964 C1968 1.385 . S
C1965 H1940 0.951 . S
C1965 C1963 1.388 . S
C1965 C1966 1.366 . S
C1966 C1965 1.366 . S
C1966 C1967 1.414 . S
C1966 C1969 1.499 . S
C1967 H1941 0.950 . S
C1967 C1966 1.414 . S
C1967 C1968 1.374 . S
C1968 H1942 0.950 . S
C1968 C1964 1.385 . S
C1968 C1967 1.374 . S
C1969 C1966 1.499 . S
C1969 C1970 1.373 . S
C1969 C1971 1.389 . S
C1970 H1943 0.950 . S
C1970 C1956 1.377 . S
C1970 C1969 1.373 . S
C1971 C1955 1.377 . S
C1971 C1969 1.389 . S
C1971 C1972 1.524 . S
C1972 C1971 1.524 . S
C1972 C1973 1.397 . S
C1972 C1977 1.363 . S
C1973 H1944 0.950 . S
C1973 C1972 1.397 . S
C1973 C1974 1.334 . S
C1974 H1945 0.950 . S
C1974 C1973 1.334 . S
C1974 C1975 1.287 . S
C1975 C1974 1.287 . S
C1975 C1976 1.524 . S
C1975 H1978 0.999 . S
C1976 H1946 0.950 . S
C1976 C1975 1.524 . S
C1976 C1977 1.415 . S
C1977 H1947 0.950 . S
C1977 C1972 1.363 . S
C1977 C1976 1.415 . S
H1978 C1975 0.999 . S
H1979 C1960 0.913 . S
H1980 C1998 0.951 . S
H1981 C2000 0.951 . S
H1982 C2002 0.950 . S
H1983 C2003 0.950 . S
H1984 C2005 0.950 . S
H1985 C2008 0.950 . S
H1986 C2009 0.950 . S
H1987 C2011 0.950 . S
H1988 C2012 0.950 . S
H1989 C2013 0.951 . S
H1990 C2015 0.951 . S
H1991 C2017 0.950 . S
H1992 C2018 0.950 . S
H1993 C2020 0.950 . S
H1994 C2023 0.950 . S
H1995 C2024 0.950 . S
H1996 C2026 0.950 . S
H1997 C2027 0.950 . S
C1998 H1980 0.951 . S
C1998 C1999 1.366 . S
C1998 C2000 1.388 . S
C1999 C1998 1.366 . S
C1999 C2003 1.385 . S
C2000 H1981 0.951 . S
C2000 C1998 1.388 . S
C2000 C2001 1.366 . S
C2001 C2000 1.366 . S
C2001 C2002 1.414 . S
C2001 C2004 1.499 . S
C2002 H1982 0.950 . S
C2002 C2001 1.414 . S
C2002 C2003 1.374 . S
C2003 H1983 0.950 . S
C2003 C1999 1.385 . S
C2003 C2002 1.374 . S
C2004 C2001 1.499 . S
C2004 C2005 1.373 . S
C2004 C2006 1.389 . S
C2005 H1984 0.950 . S
C2005 C2004 1.373 . S
C2005 C2021 1.377 . S
C2006 C2004 1.389 . S
C2006 C2007 1.524 . S
C2006 C2020 1.377 . S
C2007 C2006 1.524 . S
C2007 C2008 1.397 . S
C2007 C2012 1.363 . S
C2008 H1985 0.950 . S
C2008 C2007 1.397 . S
C2008 C2009 1.334 . S
C2009 H1986 0.950 . S
C2009 C2008 1.334 . S
C2009 C2010 1.287 . S
C2010 C2009 1.287 . S
C2010 C2011 1.524 . S
C2010 H2029 0.913 . S
C2011 H1987 0.950 . S
C2011 C2010 1.524 . S
C2011 C2012 1.415 . S
C2012 H1988 0.950 . S
C2012 C2007 1.363 . S
C2012 C2011 1.415 . S
C2013 H1989 0.951 . S
C2013 C2014 1.366 . S
C2013 C2015 1.388 . S
C2014 C2013 1.366 . S
C2014 C2018 1.385 . S
C2015 H1990 0.951 . S
C2015 C2013 1.388 . S
C2015 C2016 1.366 . S
C2016 C2015 1.366 . S
C2016 C2017 1.414 . S
C2016 C2019 1.499 . S
C2017 H1991 0.950 . S
C2017 C2016 1.414 . S
C2017 C2018 1.374 . S
C2018 H1992 0.950 . S
C2018 C2014 1.385 . S
C2018 C2017 1.374 . S
C2019 C2016 1.499 . S
C2019 C2020 1.373 . S
C2019 C2021 1.389 . S
C2020 H1993 0.950 . S
C2020 C2006 1.377 . S
C2020 C2019 1.373 . S
C2021 C2005 1.377 . S
C2021 C2019 1.389 . S
C2021 C2022 1.524 . S
C2022 C2021 1.524 . S
C2022 C2023 1.397 . S
C2022 C2027 1.363 . S
C2023 H1994 0.950 . S
C2023 C2022 1.397 . S
C2023 C2024 1.334 . S
C2024 H1995 0.950 . S
C2024 C2023 1.334 . S
C2024 C2025 1.287 . S
C2025 C2024 1.287 . S
C2025 C2026 1.524 . S
C2025 H2028 0.999 . S
C2026 H1996 0.950 . S
C2026 C2025 1.524 . S
C2026 C2027 1.415 . S
C2027 H1997 0.950 . S
C2027 C2022 1.363 . S
C2027 C2026 1.415 . S
H2028 C2025 0.999 . S
H2029 C2010 0.913 . S
H2030 C2048 0.951 . S
H2031 C2050 0.951 . S
H2032 C2052 0.950 . S
H2033 C2053 0.950 . S
H2034 C2055 0.950 . S
H2035 C2058 0.950 . S
H2036 C2059 0.950 . S
H2037 C2061 0.950 . S
H2038 C2062 0.950 . S
H2039 C2063 0.951 . S
H2040 C2065 0.951 . S
H2041 C2067 0.950 . S
H2042 C2068 0.950 . S
H2043 C2070 0.950 . S
H2044 C2073 0.950 . S
H2045 C2074 0.950 . S
H2046 C2076 0.950 . S
H2047 C2077 0.950 . S
C2048 H2030 0.951 . S
C2048 C2049 1.366 . S
C2048 C2050 1.388 . S
C2049 C2048 1.366 . S
C2049 C2053 1.385 . S
C2050 H2031 0.951 . S
C2050 C2048 1.388 . S
C2050 C2051 1.366 . S
C2051 C2050 1.366 . S
C2051 C2052 1.414 . S
C2051 C2054 1.499 . S
C2052 H2032 0.950 . S
C2052 C2051 1.414 . S
C2052 C2053 1.374 . S
C2053 H2033 0.950 . S
C2053 C2049 1.385 . S
C2053 C2052 1.374 . S
C2054 C2051 1.499 . S
C2054 C2055 1.373 . S
C2054 C2056 1.389 . S
C2055 H2034 0.950 . S
C2055 C2054 1.373 . S
C2055 C2071 1.377 . S
C2056 C2054 1.389 . S
C2056 C2057 1.524 . S
C2056 C2070 1.377 . S
C2057 C2056 1.524 . S
C2057 C2058 1.397 . S
C2057 C2062 1.363 . S
C2058 H2035 0.950 . S
C2058 C2057 1.397 . S
C2058 C2059 1.334 . S
C2059 H2036 0.950 . S
C2059 C2058 1.334 . S
C2059 C2060 1.287 . S
C2060 C2059 1.287 . S
C2060 C2061 1.524 . S
C2060 H2079 0.913 . S
C2061 H2037 0.950 . S
C2061 C2060 1.524 . S
C2061 C2062 1.415 . S
C2062 H2038 0.950 . S
C2062 C2057 1.363 . S
C2062 C2061 1.415 . S
C2063 H2039 0.951 . S
C2063 C2064 1.366 . S
C2063 C2065 1.388 . S
C2064 C2063 1.366 . S
C2064 C2068 1.385 . S
C2065 H2040 0.951 . S
C2065 C2063 1.388 . S
C2065 C2066 1.366 . S
C2066 C2065 1.366 . S
C2066 C2067 1.414 . S
C2066 C2069 1.499 . S
C2067 H2041 0.950 . S
C2067 C2066 1.414 . S
C2067 C2068 1.374 . S
C2068 H2042 0.950 . S
C2068 C2064 1.385 . S
C2068 C2067 1.374 . S
C2069 C2066 1.499 . S
C2069 C2070 1.373 . S
C2069 C2071 1.389 . S
C2070 H2043 0.950 . S
C2070 C2056 1.377 . S
C2070 C2069 1.373 . S
C2071 C2055 1.377 . S
C2071 C2069 1.389 . S
C2071 C2072 1.524 . S
C2072 C2071 1.524 . S
C2072 C2073 1.397 . S
C2072 C2077 1.363 . S
C2073 H2044 0.950 . S
C2073 C2072 1.397 . S
C2073 C2074 1.334 . S
C2074 H2045 0.950 . S
C2074 C2073 1.334 . S
C2074 C2075 1.287 . S
C2075 C2074 1.287 . S
C2075 C2076 1.524 . S
C2075 H2078 0.999 . S
C2076 H2046 0.950 . S
C2076 C2075 1.524 . S
C2076 C2077 1.415 . S
C2077 H2047 0.950 . S
C2077 C2072 1.363 . S
C2077 C2076 1.415 . S
H2078 C2075 0.999 . S
H2079 C2060 0.913 . S
C514 C390 1.220 . S
C499 C8 1.198 . S
C564 C404 1.229 . S
C549 C61 1.207 . S
C614 C419 1.219 . S
C599 C107 1.228 . S
C649 C139 1.206 . S
C664 C377 1.196 . S
C699 C192 1.151 . S
C714 C376 1.173 1_556 S
C749 C238 1.152 . S
C764 C391 1.146 . S
C814 C405 1.207 . S
C799 C284 1.210 . S
C864 C418 1.215 . S
C849 C330 1.191 . S
C899 C100 1.156 . S
C914 C446 1.179 . S
C964 C460 1.229 . S
C949 C160 1.199 . S
C999 C15 1.154 . S
C1014 C475 1.154 . S
C1064 C432 1.150 . S
C1049 C54 1.130 . S
C1099 C291 1.214 . S
C1114 C433 1.205 . S
C1149 C337 1.226 . S
C1164 C447 1.217 . S
C1214 C461 1.216 . S
C1199 C199 1.224 . S
C1249 C245 1.226 . S
C1264 C474 1.251 . S
C1314 C399 1.704 . S
C1299 C1 1.704 . S
C1364 C417 1.660 . S
C1349 C68 1.692 . S
C1399 C114 1.697 . S
C1414 C375 1.668 . S
C1449 C146 1.719 . S
C1464 C385 1.719 . S
C1499 C185 1.634 . S
C1514 C413 1.629 . S
C1564 C371 1.633 . S
C1549 C231 1.638 . S
C1614 C389 1.590 . S
C1599 C277 1.634 . S
C1664 C403 1.591 . S
C1649 C323 1.636 . S
C1714 C455 1.630 . S
C1699 C93 1.634 . S
C1764 C473 1.588 . S
C1749 C153 1.629 . S
C1799 C22 1.626 . S
C1814 C427 1.627 . S
C1864 C441 1.624 . S
C1849 C47 1.629 . S
C1914 C469 1.718 . S
C1899 C298 1.709 . S
C1949 C344 1.705 . S
C1964 C431 1.677 . S
C2014 C445 1.670 . S
C1999 C206 1.699 . S
C2064 C459 1.662 . S
C2049 C252 1.694 . S
