# Generated by pormake.
# Topology pyr, (3,6)-cn, num edge types: 1
# Building blocks:
#     Node 0, Type 0, BuildingBlock: VETTIZ_charged_linker_0, # of connection points: 3
#     Node 1, Type 0, BuildingBlock: VETTIZ_charged_linker_0, # of connection points: 3
#     Node 2, Type 0, BuildingBlock: VETTIZ_charged_linker_0, # of connection points: 3
#     Node 3, Type 0, BuildingBlock: VETTIZ_charged_linker_0, # of connection points: 3
#     Node 4, Type 0, BuildingBlock: VETTIZ_charged_linker_0, # of connection points: 3
#     Node 5, Type 0, BuildingBlock: VETTIZ_charged_linker_0, # of connection points: 3
#     Node 6, Type 0, BuildingBlock: VETTIZ_charged_linker_0, # of connection points: 3
#     Node 7, Type 0, BuildingBlock: VETTIZ_charged_linker_0, # of connection points: 3
#     Node 8, Type 1, BuildingBlock: BETDAH_clean_sbu_0, # of connection points: 6
#     Node 9, Type 1, BuildingBlock: BETDAH_clean_sbu_0, # of connection points: 6
#     Node 10, Type 1, BuildingBlock: BETDAH_clean_sbu_0, # of connection points: 6
#     Node 11, Type 1, BuildingBlock: BETDAH_clean_sbu_0, # of connection points: 6
#     Edge 12, Type (0, 1), BuildingBlock: TEMPAE_clean_linker_10, # of connection points: 2
#     Edge 13, Type (0, 1), BuildingBlock: TEMPAE_clean_linker_10, # of connection points: 2
#     Edge 14, Type (0, 1), BuildingBlock: TEMPAE_clean_linker_10, # of connection points: 2
#     Edge 15, Type (0, 1), BuildingBlock: TEMPAE_clean_linker_10, # of connection points: 2
#     Edge 16, Type (0, 1), BuildingBlock: TEMPAE_clean_linker_10, # of connection points: 2
#     Edge 17, Type (0, 1), BuildingBlock: TEMPAE_clean_linker_10, # of connection points: 2
#     Edge 18, Type (0, 1), BuildingBlock: TEMPAE_clean_linker_10, # of connection points: 2
#     Edge 19, Type (0, 1), BuildingBlock: TEMPAE_clean_linker_10, # of connection points: 2
#     Edge 20, Type (0, 1), BuildingBlock: TEMPAE_clean_linker_10, # of connection points: 2
#     Edge 21, Type (0, 1), BuildingBlock: TEMPAE_clean_linker_10, # of connection points: 2
#     Edge 22, Type (0, 1), BuildingBlock: TEMPAE_clean_linker_10, # of connection points: 2
#     Edge 23, Type (0, 1), BuildingBlock: TEMPAE_clean_linker_10, # of connection points: 2
#     Edge 24, Type (0, 1), BuildingBlock: TEMPAE_clean_linker_10, # of connection points: 2
#     Edge 25, Type (0, 1), BuildingBlock: TEMPAE_clean_linker_10, # of connection points: 2
#     Edge 26, Type (0, 1), BuildingBlock: TEMPAE_clean_linker_10, # of connection points: 2
#     Edge 27, Type (0, 1), BuildingBlock: TEMPAE_clean_linker_10, # of connection points: 2
#     Edge 28, Type (0, 1), BuildingBlock: TEMPAE_clean_linker_10, # of connection points: 2
#     Edge 29, Type (0, 1), BuildingBlock: TEMPAE_clean_linker_10, # of connection points: 2
#     Edge 30, Type (0, 1), BuildingBlock: TEMPAE_clean_linker_10, # of connection points: 2
#     Edge 31, Type (0, 1), BuildingBlock: TEMPAE_clean_linker_10, # of connection points: 2
#     Edge 32, Type (0, 1), BuildingBlock: TEMPAE_clean_linker_10, # of connection points: 2
#     Edge 33, Type (0, 1), BuildingBlock: TEMPAE_clean_linker_10, # of connection points: 2
#     Edge 34, Type (0, 1), BuildingBlock: TEMPAE_clean_linker_10, # of connection points: 2
#     Edge 35, Type (0, 1), BuildingBlock: TEMPAE_clean_linker_10, # of connection points: 2
# Relax obj value: 0.095
# Max RMSD: 0.125
# Mean RMSD: 0.059
data_MOF--net-pyr--node1-BETDAH_clean_sbu_0--node2-VETTIZ_charged_linker_0--edge1-TEMPAE_clean_linker_10
_symmetry_space_group_name_H-M    P1
_symmetry_Int_Tables_number       1
_symmetry_cell_setting            triclinic
loop_
_symmetry_equiv_pos_as_xyz
'x, y, z'
_cell_length_a     46.310735
_cell_length_b     49.410684
_cell_length_c     45.327955
_cell_angle_alpha  91.23599
_cell_angle_beta   88.702231
_cell_angle_gamma 99.630081
loop_
_atom_site_label
_atom_site_type_symbol
_atom_site_fract_x
_atom_site_fract_y
_atom_site_fract_z
_atom_type_partial_charge
C0 C 0.2923 0.24874 0.31806 0.0
C1 C 0.27119 0.26298 0.33106 0.0
C2 C 0.26791 0.28853 0.31944 0.0
C3 C 0.3008 0.2817 0.27871 0.0
C4 C 0.30688 0.25849 0.29202 0.0
C5 C 0.328 0.2446 0.27391 0.0
H6 H 0.38533 0.22078 0.14043 0.0
C7 C 0.31487 0.28328 0.2491 0.0
C8 C 0.33138 0.26198 0.24634 0.0
H9 H 0.40073 0.18493 0.22382 0.0
H10 H 0.37385 0.21618 0.24939 0.0
H11 H 0.39955 0.28419 0.16654 0.0
H12 H 0.3185 0.22843 0.1531 0.0
H13 H 0.31486 0.26089 0.13989 0.0
H14 H 0.34171 0.24271 0.12308 0.0
H15 H 0.38522 0.27594 0.13038 0.0
H16 H 0.37389 0.30304 0.15289 0.0
C17 C 0.35707 0.2471 0.29092 0.0
C18 C 0.31327 0.21461 0.26728 0.0
C19 C 0.28063 0.34483 0.17409 0.0
C20 C 0.2844 0.34722 0.14336 0.0
C21 C 0.30396 0.33226 0.12859 0.0
C22 C 0.31881 0.31463 0.14414 0.0
C23 C 0.31374 0.31163 0.17473 0.0
C24 C 0.29527 0.327 0.18918 0.0
C25 C 0.2911 0.32041 0.22131 0.0
C26 C 0.31055 0.29881 0.22407 0.0
C27 C 0.32355 0.29346 0.19667 0.0
C28 C 0.30244 0.34669 0.23973 0.0
C29 C 0.25821 0.30859 0.22658 0.0
C30 C 0.38322 0.21978 0.16424 0.0
C31 C 0.39455 0.19965 0.17993 0.0
C32 C 0.39139 0.19943 0.21096 0.0
C33 C 0.37595 0.21773 0.22589 0.0
C34 C 0.3634 0.23655 0.20977 0.0
C35 C 0.36806 0.23816 0.17964 0.0
C36 C 0.35458 0.26087 0.16667 0.0
C37 C 0.34081 0.27225 0.19404 0.0
C38 C 0.3454 0.25727 0.219 0.0
C39 C 0.37943 0.28215 0.15316 0.0
C40 C 0.33126 0.24778 0.14433 0.0
H41 H 0.27818 0.31689 0.28483 0.0
H42 H 0.29577 0.22925 0.32652 0.0
H43 H 0.29066 0.21406 0.25925 0.0
H44 H 0.32488 0.2043 0.25008 0.0
H45 H 0.31187 0.20203 0.28743 0.0
H46 H 0.35867 0.2631 0.30874 0.0
H47 H 0.35922 0.22745 0.30144 0.0
H48 H 0.37649 0.25354 0.27639 0.0
H49 H 0.2653 0.3555 0.18608 0.0
H50 H 0.3074 0.33386 0.10493 0.0
H51 H 0.33307 0.30348 0.13165 0.0
H52 H 0.32017 0.36037 0.2277 0.0
H53 H 0.28463 0.35868 0.24481 0.0
H54 H 0.31252 0.34211 0.26057 0.0
H55 H 0.24974 0.29444 0.20815 0.0
H56 H 0.25376 0.29622 0.24655 0.0
H57 H 0.24483 0.32527 0.22793 0.0
H58 H 0.25266 0.3005 0.32959 0.0
C59 C 0.28269 0.298 0.2934 0.0
C60 C 0.22839 0.89663 0.57722 0.0
C61 C 0.21727 0.91312 0.59899 0.0
C62 C 0.22962 0.91517 0.62729 0.0
C63 C 0.26462 0.88642 0.61114 0.0
C64 C 0.25169 0.88326 0.58387 0.0
C65 C 0.26532 0.86413 0.56369 0.0
H66 H 0.3709 0.78642 0.54023 0.0
C67 C 0.28909 0.87083 0.61055 0.0
C68 C 0.28948 0.85747 0.58296 0.0
H69 H 0.2975 0.79154 0.48478 0.0
H70 H 0.28159 0.82508 0.5188 0.0
H71 H 0.38581 0.85332 0.56195 0.0
H72 H 0.33509 0.77906 0.59603 0.0
H73 H 0.34986 0.79845 0.62663 0.0
H74 H 0.37414 0.78648 0.59944 0.0
H75 H 0.40167 0.82479 0.57406 0.0
H76 H 0.39358 0.85103 0.59961 0.0
C77 C 0.27778 0.88008 0.53593 0.0
C78 C 0.24194 0.83847 0.55708 0.0
C79 C 0.35725 0.8792 0.69723 0.0
C80 C 0.38207 0.86762 0.70326 0.0
C81 C 0.39188 0.8493 0.68268 0.0
C82 C 0.37739 0.84316 0.65587 0.0
C83 C 0.35268 0.85521 0.64995 0.0
C84 C 0.34284 0.8726 0.6707 0.0
C85 C 0.31565 0.88269 0.66143 0.0
C86 C 0.31102 0.86889 0.63134 0.0
C87 C 0.33285 0.85306 0.6246 0.0
C88 C 0.32287 0.91437 0.65935 0.0
C89 C 0.29047 0.87205 0.6836 0.0
C90 C 0.35197 0.79552 0.53491 0.0
C91 C 0.33584 0.78716 0.5095 0.0
C92 C 0.31047 0.79825 0.504 0.0
C93 C 0.30118 0.81738 0.5239 0.0
C94 C 0.31707 0.8248 0.54981 0.0
C95 C 0.34201 0.81385 0.5549 0.0
C96 C 0.35458 0.82169 0.58474 0.0
C97 C 0.33313 0.83931 0.59684 0.0
C98 C 0.31146 0.84138 0.57618 0.0
C99 C 0.38564 0.83848 0.5801 0.0
C100 C 0.35366 0.79518 0.60275 0.0
H101 H 0.26189 0.90475 0.65521 0.0
H102 H 0.2196 0.89448 0.55521 0.0
H103 H 0.22472 0.83519 0.57476 0.0
H104 H 0.25128 0.81925 0.55635 0.0
H105 H 0.23083 0.84051 0.53598 0.0
H106 H 0.29017 0.90057 0.54231 0.0
H107 H 0.25987 0.88337 0.52122 0.0
H108 H 0.2933 0.86965 0.52303 0.0
H109 H 0.34902 0.89292 0.71309 0.0
H110 H 0.41093 0.8401 0.68721 0.0
H111 H 0.38598 0.8293 0.64081 0.0
H112 H 0.34469 0.92074 0.64852 0.0
H113 H 0.32349 0.9242 0.68165 0.0
H114 H 0.30731 0.92315 0.6459 0.0
H115 H 0.29428 0.85306 0.69458 0.0
H116 H 0.26914 0.86602 0.67269 0.0
H117 H 0.28826 0.8876 0.7012 0.0
H118 H 0.22103 0.92694 0.64484 0.0
C119 C 0.25327 0.90206 0.6334 0.0
C120 C 0.63151 0.26782 0.89902 0.0
C121 C 0.60583 0.25035 0.88956 0.0
C122 C 0.5912 0.25947 0.86538 0.0
C123 C 0.62734 0.30179 0.86113 0.0
C124 C 0.64168 0.293 0.88473 0.0
C125 C 0.66853 0.31336 0.89266 0.0
H126 H 0.76345 0.43223 0.86986 0.0
C127 C 0.64405 0.32919 0.85128 0.0
C128 C 0.66832 0.33574 0.87005 0.0
H129 H 0.76528 0.3722 0.93747 0.0
H130 H 0.72139 0.34506 0.91856 0.0
H131 H 0.69319 0.43181 0.87547 0.0
H132 H 0.7431 0.38773 0.81564 0.0
H133 H 0.71649 0.40053 0.79542 0.0
H134 H 0.74446 0.4242 0.81397 0.0
H135 H 0.71573 0.44855 0.84626 0.0
H136 H 0.67846 0.43218 0.84013 0.0
C137 C 0.66407 0.32406 0.92457 0.0
C138 C 0.69558 0.29891 0.88829 0.0
C139 C 0.61061 0.38245 0.7639 0.0
C140 C 0.62261 0.4076 0.75001 0.0
C141 C 0.64883 0.42231 0.7618 0.0
C142 C 0.66273 0.41265 0.78588 0.0
C143 C 0.65077 0.38767 0.79919 0.0
C144 C 0.62508 0.37287 0.7882 0.0
C145 C 0.61601 0.34642 0.80524 0.0
C146 C 0.64013 0.34801 0.82826 0.0
C147 C 0.66057 0.37249 0.82452 0.0
C148 C 0.58575 0.34708 0.81992 0.0
C149 C 0.61629 0.32192 0.7836 0.0
C150 C 0.75449 0.41315 0.88048 0.0
C151 C 0.76829 0.40466 0.90553 0.0
C152 C 0.75531 0.37971 0.91857 0.0
C153 C 0.72967 0.36377 0.90739 0.0
C154 C 0.71605 0.37254 0.88267 0.0
C155 C 0.72839 0.39698 0.86969 0.0
C156 C 0.71018 0.40332 0.8441 0.0
C157 C 0.68519 0.37868 0.84373 0.0
C158 C 0.6889 0.36056 0.86637 0.0
C159 C 0.69886 0.43047 0.85155 0.0
C160 C 0.72944 0.40423 0.81569 0.0
H161 H 0.58926 0.29022 0.8333 0.0
H162 H 0.64392 0.26195 0.91707 0.0
H163 H 0.69316 0.28516 0.86841 0.0
H164 H 0.71612 0.31337 0.88432 0.0
H165 H 0.69835 0.28614 0.90757 0.0
H166 H 0.64057 0.32497 0.92936 0.0
H167 H 0.67134 0.31046 0.94107 0.0
H168 H 0.67545 0.34531 0.92836 0.0
H169 H 0.59068 0.37024 0.75575 0.0
H170 H 0.65864 0.44182 0.7526 0.0
H171 H 0.6825 0.4252 0.7933 0.0
H172 H 0.58531 0.36734 0.83095 0.0
H173 H 0.56821 0.34375 0.80325 0.0
H174 H 0.58031 0.3316 0.83721 0.0
H175 H 0.63655 0.32513 0.76957 0.0
H176 H 0.61622 0.30242 0.79499 0.0
H177 H 0.59719 0.3195 0.76881 0.0
H178 H 0.5712 0.24722 0.85746 0.0
C179 C 0.60167 0.28476 0.85131 0.0
C180 C 0.91341 0.77729 0.37213 0.0
C181 C 0.90286 0.7917 0.39649 0.0
C182 C 0.87726 0.77881 0.41137 0.0
C183 C 0.87288 0.73896 0.37812 0.0
C184 C 0.898 0.75107 0.36328 0.0
C185 C 0.90519 0.73295 0.33747 0.0
H186 H 0.87492 0.61004 0.26046 0.0
C187 C 0.86185 0.71177 0.36386 0.0
C188 C 0.88079 0.70787 0.33992 0.0
H189 H 0.94269 0.67868 0.24054 0.0
H190 H 0.92678 0.7044 0.2824 0.0
H191 H 0.87888 0.61384 0.33313 0.0
H192 H 0.82464 0.6482 0.27263 0.0
H193 H 0.80285 0.63493 0.30293 0.0
H194 H 0.8198 0.61202 0.27933 0.0
H195 H 0.85105 0.59286 0.31189 0.0
H196 H 0.84241 0.60841 0.3466 0.0
C197 C 0.9357 0.72533 0.34236 0.0
C198 C 0.90318 0.74862 0.30866 0.0
C199 C 0.76877 0.65348 0.40593 0.0
C200 C 0.75299 0.62715 0.39908 0.0
C201 C 0.76398 0.6121 0.37569 0.0
C202 C 0.78962 0.62295 0.35954 0.0
C203 C 0.80495 0.64933 0.36661 0.0
C204 C 0.79445 0.66398 0.38966 0.0
C205 C 0.81377 0.69135 0.39475 0.0
C206 C 0.83728 0.69109 0.37069 0.0
C207 C 0.83212 0.66643 0.35404 0.0
C208 C 0.82662 0.69145 0.42608 0.0
C209 C 0.79519 0.71414 0.38985 0.0
C210 C 0.88645 0.63054 0.26522 0.0
C211 C 0.91039 0.6421 0.24708 0.0
C212 C 0.92427 0.66915 0.25396 0.0
C213 C 0.91497 0.6841 0.27837 0.0
C214 C 0.89099 0.67232 0.29622 0.0
C215 C 0.87692 0.64603 0.28916 0.0
C216 C 0.85069 0.6373 0.30929 0.0
C217 C 0.85153 0.66225 0.32991 0.0
C218 C 0.87552 0.68286 0.3225 0.0
C219 C 0.85573 0.61163 0.32609 0.0
C220 C 0.82292 0.63263 0.29023 0.0
H221 H 0.84317 0.74468 0.415 0.0
H222 H 0.93286 0.7864 0.35993 0.0
H223 H 0.88428 0.75987 0.30981 0.0
H224 H 0.89934 0.73484 0.28916 0.0
H225 H 0.92335 0.76388 0.30475 0.0
H226 H 0.93738 0.71848 0.36538 0.0
H227 H 0.95323 0.74329 0.33865 0.0
H228 H 0.94019 0.70823 0.32791 0.0
H229 H 0.76158 0.66563 0.42397 0.0
H230 H 0.75247 0.59194 0.3695 0.0
H231 H 0.79655 0.61034 0.34207 0.0
H232 H 0.82954 0.67045 0.43239 0.0
H233 H 0.81196 0.69897 0.44297 0.0
H234 H 0.84877 0.70381 0.42763 0.0
H235 H 0.77997 0.70848 0.37123 0.0
H236 H 0.8085 0.73392 0.38358 0.0
H237 H 0.78175 0.7174 0.40982 0.0
H238 H 0.8687 0.78872 0.43041 0.0
C239 C 0.86242 0.75289 0.40245 0.0
C240 C 0.74636 0.72588 0.87907 0.0
C241 C 0.76649 0.71066 0.86574 0.0
C242 C 0.76994 0.7107 0.83475 0.0
C243 C 0.73563 0.74227 0.8311 0.0
C244 C 0.73104 0.74137 0.86129 0.0
C245 C 0.70942 0.75946 0.87151 0.0
H246 H 0.62496 0.85361 0.83698 0.0
C247 C 0.71802 0.76148 0.81902 0.0
C248 C 0.70193 0.77118 0.8424 0.0
H249 H 0.64165 0.82538 0.92369 0.0
H250 H 0.66938 0.79268 0.9017 0.0
H251 H 0.61902 0.79219 0.80078 0.0
H252 H 0.68314 0.86329 0.81683 0.0
H253 H 0.69718 0.84867 0.78526 0.0
H254 H 0.6622 0.86003 0.78391 0.0
H255 H 0.6192 0.82578 0.78631 0.0
H256 H 0.63803 0.80123 0.76724 0.0
C257 C 0.68259 0.7411 0.88569 0.0
C258 C 0.7254 0.78196 0.89253 0.0
C259 C 0.7415 0.79818 0.71658 0.0
C260 C 0.73193 0.81946 0.70132 0.0
C261 C 0.70582 0.82836 0.71094 0.0
C262 C 0.69161 0.81862 0.73719 0.0
C263 C 0.70367 0.79989 0.754 0.0
C264 C 0.72715 0.78879 0.74281 0.0
C265 C 0.73695 0.76903 0.7637 0.0
C266 C 0.71703 0.772 0.79026 0.0
C267 C 0.69787 0.79034 0.78454 0.0
C268 C 0.73064 0.73981 0.74955 0.0
C269 C 0.76966 0.77927 0.77064 0.0
C270 C 0.63452 0.84044 0.85137 0.0
C271 C 0.63117 0.84241 0.8822 0.0
C272 C 0.6436 0.82431 0.89987 0.0
C273 C 0.66003 0.8055 0.88707 0.0
C274 C 0.66457 0.80503 0.8563 0.0
C275 C 0.65163 0.82217 0.83903 0.0
C276 C 0.66048 0.82064 0.80705 0.0
C277 C 0.6809 0.79967 0.8079 0.0
C278 C 0.68304 0.79034 0.83674 0.0
C279 C 0.63279 0.80954 0.78918 0.0
C280 C 0.67643 0.84952 0.79756 0.0
H281 H 0.75855 0.72573 0.7941 0.0
H282 H 0.74289 0.72603 0.90278 0.0
H283 H 0.74865 0.78831 0.88535 0.0
H284 H 0.71601 0.80106 0.8927 0.0
H285 H 0.72535 0.77442 0.91544 0.0
H286 H 0.67665 0.7217 0.87267 0.0
H287 H 0.68731 0.73557 0.9085 0.0
H288 H 0.66274 0.75075 0.88621 0.0
H289 H 0.76137 0.79072 0.70986 0.0
H290 H 0.69737 0.84408 0.69911 0.0
H291 H 0.67272 0.82715 0.74422 0.0
H292 H 0.71413 0.7383 0.73188 0.0
H293 H 0.75079 0.73385 0.73946 0.0
H294 H 0.7211 0.72411 0.76573 0.0
H295 H 0.77362 0.80182 0.77503 0.0
H296 H 0.77709 0.77008 0.79041 0.0
H297 H 0.78407 0.77499 0.7518 0.0
H298 H 0.7855 0.69954 0.82383 0.0
C299 C 0.75446 0.72616 0.81743 0.0
C300 C 0.80147 0.15826 0.47057 0.0
C301 C 0.81608 0.14511 0.44829 0.0
C302 C 0.80779 0.14692 0.41871 0.0
C303 C 0.76971 0.17247 0.43428 0.0
C304 C 0.77878 0.17208 0.46304 0.0
C305 C 0.76196 0.18818 0.48378 0.0
H306 H 0.64949 0.25806 0.50497 0.0
C307 C 0.74458 0.1872 0.43407 0.0
C308 C 0.74006 0.19669 0.46293 0.0
H309 H 0.71772 0.25077 0.56613 0.0
H310 H 0.73905 0.22167 0.53071 0.0
H311 H 0.64115 0.19413 0.47482 0.0
H312 H 0.69063 0.27356 0.45482 0.0
H313 H 0.6806 0.25765 0.42078 0.0
H314 H 0.65247 0.26477 0.44663 0.0
H315 H 0.62476 0.22259 0.46348 0.0
H316 H 0.63795 0.19968 0.4369 0.0
C317 C 0.74675 0.1687 0.50782 0.0
C318 C 0.78337 0.21323 0.49605 0.0
C319 C 0.68676 0.18743 0.34049 0.0
C320 C 0.66112 0.19761 0.33377 0.0
C321 C 0.64772 0.21215 0.35579 0.0
C322 C 0.65936 0.21596 0.38415 0.0
C323 C 0.68469 0.20515 0.39059 0.0
C324 C 0.69813 0.19148 0.36879 0.0
C325 C 0.72483 0.18136 0.37948 0.0
C326 C 0.72509 0.19107 0.41145 0.0
C327 C 0.70146 0.20478 0.41785 0.0
C328 C 0.71934 0.14961 0.37657 0.0
C329 C 0.75191 0.19579 0.36175 0.0
C330 C 0.66838 0.24928 0.51114 0.0
C331 C 0.6815 0.25574 0.53854 0.0
C332 C 0.707 0.24536 0.54532 0.0
C333 C 0.71947 0.22889 0.52462 0.0
C334 C 0.70671 0.22362 0.49671 0.0
C335 C 0.68159 0.23385 0.49044 0.0
C336 C 0.6729 0.22926 0.45879 0.0
C337 C 0.69698 0.21456 0.44692 0.0
C338 C 0.71637 0.21082 0.46929 0.0
C339 C 0.64252 0.21059 0.45821 0.0
C340 C 0.67393 0.25765 0.44435 0.0
H341 H 0.77916 0.16066 0.38881 0.0
H342 H 0.8071 0.15749 0.49354 0.0
H343 H 0.80303 0.21861 0.48142 0.0
H344 H 0.77342 0.23211 0.49731 0.0
H345 H 0.79122 0.20908 0.51822 0.0
H346 H 0.73546 0.14921 0.49763 0.0
H347 H 0.76298 0.16351 0.52353 0.0
H348 H 0.72983 0.17743 0.52057 0.0
H349 H 0.69737 0.17572 0.32433 0.0
H350 H 0.62813 0.22046 0.35113 0.0
H351 H 0.64801 0.22697 0.40001 0.0
H352 H 0.69661 0.14102 0.38387 0.0
H353 H 0.72216 0.14289 0.35329 0.0
H354 H 0.73368 0.13975 0.39045 0.0
H355 H 0.74843 0.21607 0.35363 0.0
H356 H 0.77172 0.20054 0.37537 0.0
H357 H 0.75672 0.18321 0.34221 0.0
H358 H 0.81918 0.13795 0.40088 0.0
C359 C 0.78464 0.16036 0.41164 0.0
C360 C 0.41683 0.66971 0.28897 0.0
C361 C 0.40486 0.64456 0.30292 0.0
C362 C 0.37904 0.62949 0.29071 0.0
C363 C 0.37737 0.66377 0.25287 0.0
C364 C 0.40269 0.67893 0.26423 0.0
C365 C 0.41177 0.70527 0.24698 0.0
H366 H 0.38446 0.788 0.13317 0.0
C367 C 0.36785 0.67856 0.22711 0.0
C368 C 0.38808 0.7032 0.22343 0.0
H369 H 0.45618 0.80443 0.19386 0.0
H370 H 0.43836 0.76156 0.21844 0.0
H371 H 0.33472 0.76466 0.18124 0.0
H372 H 0.38921 0.72551 0.12173 0.0
H373 H 0.35486 0.70425 0.12263 0.0
H374 H 0.35794 0.73883 0.10932 0.0
H375 H 0.33032 0.76334 0.14196 0.0
H376 H 0.31246 0.73611 0.16514 0.0
C377 C 0.41078 0.72991 0.26825 0.0
C378 C 0.44236 0.70485 0.23297 0.0
C379 C 0.27525 0.63647 0.16985 0.0
C380 C 0.2619 0.64451 0.14429 0.0
C381 C 0.27496 0.6693 0.131 0.0
C382 C 0.30024 0.68558 0.14249 0.0
C383 C 0.3134 0.67728 0.16774 0.0
C384 C 0.30102 0.65296 0.18092 0.0
C385 C 0.31886 0.64708 0.207 0.0
C386 C 0.34363 0.67191 0.20747 0.0
C387 C 0.34013 0.68968 0.18444 0.0
C388 C 0.29908 0.64631 0.23504 0.0
C389 C 0.33058 0.62 0.20021 0.0
C390 C 0.39672 0.78254 0.15153 0.0
C391 C 0.42204 0.80043 0.16115 0.0
C392 C 0.43645 0.79184 0.18578 0.0
C393 C 0.42613 0.76663 0.20009 0.0
C394 C 0.40083 0.74916 0.19007 0.0
C395 C 0.38672 0.75747 0.16605 0.0
C396 C 0.3603 0.73671 0.15787 0.0
C397 C 0.36047 0.71465 0.18083 0.0
C398 C 0.38433 0.72169 0.20003 0.0
C399 C 0.3329 0.75078 0.16146 0.0
C400 C 0.36552 0.72577 0.12619 0.0
H401 H 0.34596 0.62599 0.25853 0.0
H402 H 0.43647 0.68218 0.2974 0.0
H403 H 0.44322 0.68461 0.22207 0.0
H404 H 0.448 0.72034 0.21571 0.0
H405 H 0.45953 0.70838 0.25 0.0
H406 H 0.39016 0.7267 0.28173 0.0
H407 H 0.42948 0.73256 0.28357 0.0
H408 H 0.41109 0.7493 0.25655 0.0
H409 H 0.26619 0.61751 0.18063 0.0
H410 H 0.26532 0.67641 0.11168 0.0
H411 H 0.3086 0.70416 0.13113 0.0
H412 H 0.28536 0.66275 0.23458 0.0
H413 H 0.2841 0.62632 0.23669 0.0
H414 H 0.31164 0.6502 0.25553 0.0
H415 H 0.33641 0.61831 0.17637 0.0
H416 H 0.35098 0.61873 0.21185 0.0
H417 H 0.31387 0.60185 0.20574 0.0
H418 H 0.36929 0.60995 0.29989 0.0
C419 C 0.36545 0.6388 0.26622 0.0
C420 C 0.11583 0.27634 0.67438 0.0
C421 C 0.12693 0.26247 0.64989 0.0
C422 C 0.15263 0.27588 0.63559 0.0
C423 C 0.15633 0.31491 0.66992 0.0
C424 C 0.13097 0.3024 0.68407 0.0
C425 C 0.12306 0.32004 0.70999 0.0
H426 H 0.15582 0.43794 0.79504 0.0
C427 C 0.16736 0.34151 0.6854 0.0
C428 C 0.148 0.34477 0.70919 0.0
H429 H 0.08145 0.37286 0.8052 0.0
H430 H 0.09856 0.34843 0.76339 0.0
H431 H 0.15575 0.4392 0.72222 0.0
H432 H 0.20346 0.39706 0.78223 0.0
H433 H 0.22731 0.41049 0.75342 0.0
H434 H 0.2116 0.43361 0.77794 0.0
H435 H 0.18252 0.45711 0.74695 0.0
H436 H 0.19315 0.4441 0.71169 0.0
C437 C 0.09314 0.32845 0.70388 0.0
C438 C 0.1233 0.30352 0.73851 0.0
C439 C 0.26136 0.40059 0.64644 0.0
C440 C 0.27891 0.4251 0.65634 0.0
C441 C 0.26972 0.43791 0.68229 0.0
C442 C 0.24365 0.42687 0.69769 0.0
C443 C 0.22638 0.40234 0.68748 0.0
C444 C 0.23566 0.38954 0.66239 0.0
C445 C 0.21569 0.3629 0.65549 0.0
C446 C 0.19256 0.36194 0.6801 0.0
C447 C 0.1986 0.38525 0.6988 0.0
C448 C 0.20246 0.3654 0.62477 0.0
C449 C 0.23374 0.33926 0.65773 0.0
C450 C 0.14319 0.41835 0.78858 0.0
C451 C 0.11683 0.40781 0.80398 0.0
C452 C 0.10139 0.38216 0.79392 0.0
C453 C 0.1115 0.36773 0.76954 0.0
C454 C 0.13762 0.37868 0.75442 0.0
C455 C 0.15302 0.40364 0.76413 0.0
C456 C 0.18047 0.41222 0.74557 0.0
C457 C 0.1789 0.3887 0.72295 0.0
C458 C 0.15367 0.36877 0.72817 0.0
C459 C 0.17814 0.4397 0.73086 0.0
C460 C 0.20725 0.41368 0.7657 0.0
H461 H 0.18652 0.31029 0.63313 0.0
H462 H 0.09619 0.26691 0.68605 0.0
H463 H 0.14274 0.29299 0.73853 0.0
H464 H 0.12489 0.31661 0.75861 0.0
H465 H 0.10338 0.28759 0.74037 0.0
H466 H 0.09212 0.33451 0.68047 0.0
H467 H 0.07495 0.31114 0.70798 0.0
H468 H 0.08912 0.34643 0.7172 0.0
H469 H 0.26786 0.38982 0.62698 0.0
H470 H 0.2826 0.45678 0.69052 0.0
H471 H 0.23794 0.43785 0.71706 0.0
H472 H 0.19723 0.38635 0.62189 0.0
H473 H 0.21806 0.36161 0.60679 0.0
H474 H 0.18148 0.35141 0.62161 0.0
H475 H 0.25151 0.34438 0.67405 0.0
H476 H 0.22054 0.32003 0.66584 0.0
H477 H 0.24416 0.33509 0.63617 0.0
H478 H 0.16155 0.26648 0.6164 0.0
C479 C 0.16718 0.30165 0.64531 0.0
Ho480 Ho 0.02923 0.03911 0.49337 0.0
Ho481 Ho 1.00324 1.01539 0.55064 0.0
C482 C 0.04001 0.07811 0.55078 0.0
C483 C 0.0444 0.05912 0.44216 0.0
C484 C 0.0675 0.08173 0.43248 0.0
C485 C 0.06511 0.10933 0.43843 0.0
C486 C 0.08805 0.13036 0.43097 0.0
C487 C 0.11388 0.12425 0.41748 0.0
C488 C 0.11605 0.09665 0.41119 0.0
C489 C 0.09305 0.07566 0.41844 0.0
C490 C 0.06766 1.02078 0.52851 0.0
C491 C 0.99278 0.97615 0.49326 0.0
C492 C 0.98702 0.99547 0.60156 0.0
C493 C 0.96013 0.97682 0.61045 0.0
C494 C 0.96209 0.95243 0.62494 0.0
C495 C 0.93686 0.93331 0.63082 0.0
C496 C 0.9092 0.93833 0.62235 0.0
C497 C 0.90732 0.96302 0.60828 0.0
C498 C 0.93249 0.98198 0.60225 0.0
C499 C 0.96499 0.03463 0.51581 0.0
O500 O 0.03775 0.07772 0.52166 0.0
O501 O 0.03201 0.05526 0.56603 0.0
O502 O 0.0536 0.03756 0.4523 0.0
O503 O 0.02266 0.06592 0.45797 0.0
O504 O 0.07424 0.04191 0.5118 0.0
O505 O 0.04169 1.00933 0.52425 0.0
O506 O 0.99432 0.9768 0.52241 0.0
O507 O 1.00159 0.99873 0.47784 0.0
O508 O 0.98374 1.0201 0.59378 0.0
O509 O 1.00472 0.98468 0.58371 0.0
O510 O 0.9582 1.01337 0.53227 0.0
O511 O 0.99107 0.04553 0.52018 0.0
H512 H 0.04567 0.11477 0.44913 0.0
H513 H 0.08544 0.15142 0.43562 0.0
H514 H 0.13575 0.09119 0.40109 0.0
H515 H 0.0955 0.05459 0.41357 0.0
H516 H 0.98322 0.94789 0.63111 0.0
H517 H 0.93909 0.91437 0.64145 0.0
H518 H 0.88634 0.96777 0.60197 0.0
H519 H 0.93026 1.0005 0.59077 0.0
Ho520 Ho 0.5395 0.03091 0.03885 0.0
Ho521 Ho 0.48616 1.01899 1.00894 0.0
C522 C 0.48342 0.05578 0.06494 0.0
C523 C 0.58454 0.05523 0.06722 0.0
C524 C 0.58743 0.07219 0.09434 0.0
C525 C 0.60711 0.09705 0.09479 0.0
C526 C 0.60955 0.11377 0.12014 0.0
C527 C 0.59249 0.10569 0.14543 0.0
C528 C 0.57245 0.08103 0.14482 0.0
C529 C 0.56974 0.0645 0.11938 0.0
C530 C 0.5081 0.98122 0.05547 0.0
C531 C 0.54199 0.99328 0.98379 0.0
C532 C 0.44103 0.99544 0.97997 0.0
C533 C 0.4379 0.97729 0.95377 0.0
C534 C 0.41376 0.95615 0.95166 0.0
C535 C 0.41067 0.93869 0.92686 0.0
C536 C 0.43164 0.94221 0.90369 0.0
C537 C 0.4562 0.96308 0.90631 0.0
C538 C 0.45936 0.98036 0.93117 0.0
C539 C 0.51785 0.06871 0.99277 0.0
O540 O 0.51215 0.05797 0.06361 0.0
O541 O 0.46688 0.03831 0.04765 0.0
O542 O 0.57362 0.0293 0.07019 0.0
O543 O 0.57369 0.06609 0.04492 0.0
O544 O 0.53604 0.98624 0.05004 0.0
O545 O 0.49767 1.00322 0.05196 0.0
O546 O 0.51324 0.99076 0.98564 0.0
O547 O 0.55857 1.01165 1.00005 0.0
O548 O 0.4538 1.02069 0.97572 0.0
O549 O 0.45035 0.98506 1.00343 0.0
O550 O 0.48998 0.06393 0.99858 0.0
O551 O 0.52802 0.04652 0.99585 0.0
H552 H 0.62064 0.10346 0.07556 0.0
H553 H 0.62532 0.13263 0.12027 0.0
H554 H 0.559 0.07454 0.16409 0.0
H555 H 0.55389 0.0457 0.11936 0.0
H556 H 0.39725 0.95322 0.96914 0.0
H557 H 0.39176 0.92253 0.92578 0.0
H558 H 0.4726 0.96662 0.88879 0.0
H559 H 0.47844 0.99632 0.93257 0.0
Ho560 Ho 0.51901 0.50246 0.5055 0.0
Ho561 Ho 0.51334 0.55215 0.54659 0.0
C562 C 0.53824 0.50172 0.57591 0.0
C563 C 0.54569 0.46978 0.47456 0.0
C564 C 0.55568 0.44457 0.48319 0.0
C565 C 0.57956 0.43615 0.46831 0.0
C566 C 0.59301 0.41559 0.48002 0.0
C567 C 0.58288 0.40342 0.50692 0.0
C568 C 0.55823 0.41123 0.52115 0.0
C569 C 0.54474 0.43167 0.50938 0.0
C570 C 0.4681 0.49065 0.53824 0.0
C571 C 0.48976 0.55115 0.47733 0.0
C572 C 0.49231 0.59079 0.57399 0.0
C573 C 0.47047 0.60691 0.56432 0.0
C574 C 0.44754 0.59493 0.54599 0.0
C575 C 0.42868 0.61097 0.53421 0.0
C576 C 0.43249 0.63928 0.54049 0.0
C577 C 0.45535 0.65112 0.55908 0.0
C578 C 0.47414 0.63504 0.57091 0.0
C579 C 0.56608 0.55416 0.51837 0.0
O580 O 0.53916 0.4912 0.54861 0.0
O581 O 0.52757 0.52476 0.58117 0.0
O582 O 0.51723 0.46897 0.47365 0.0
O583 O 0.5593 0.49173 0.48818 0.0
O584 O 0.47689 0.47407 0.51867 0.0
O585 O 0.48699 0.51231 0.53847 0.0
O586 O 0.49145 0.56282 0.50421 0.0
O587 O 0.49966 0.5277 0.47196 0.0
O588 O 0.51719 0.59503 0.55924 0.0
O589 O 0.48268 0.56473 0.57851 0.0
O590 O 0.5628 0.56257 0.54548 0.0
O591 O 0.541 0.54567 0.50781 0.0
H592 H 0.5886 0.44631 0.4484 0.0
H593 H 0.6121 0.41005 0.46871 0.0
H594 H 0.54973 0.40189 0.54165 0.0
H595 H 0.52654 0.43822 0.52139 0.0
H596 H 0.4445 0.57325 0.54028 0.0
H597 H 0.41118 0.60123 0.52017 0.0
H598 H 0.45921 0.67298 0.5639 0.0
H599 H 0.49201 0.6447 0.58458 0.0
Ho600 Ho 0.01564 0.49874 0.04169 0.0
Ho601 Ho 1.0118 0.55351 1.01222 0.0
C602 C 0.07057 0.55028 0.04824 0.0
C603 C 0.03156 0.45464 0.06062 0.0
C604 C 0.05974 0.44536 0.06573 0.0
C605 C 0.07967 0.44246 0.04244 0.0
C606 C 0.10602 0.43329 0.04788 0.0
C607 C 0.11302 0.42694 0.07668 0.0
C608 C 0.09318 0.43025 0.09992 0.0
C609 C 0.06679 0.4392 0.09447 0.0
C610 C 0.9853 0.53309 0.07321 0.0
C611 C 0.9599 0.5002 1.00076 0.0
C612 C 0.99474 0.59995 1.00438 0.0
C613 C 0.97289 0.61005 0.98643 0.0
C614 C 0.9485 0.59193 0.97595 0.0
C615 C 0.92564 0.60204 0.96269 0.0
C616 C 0.92699 0.63043 0.95938 0.0
C617 C 0.95206 0.64844 0.96867 0.0
C618 C 0.97478 0.63831 0.98227 0.0
C619 C 0.03571 0.52053 0.97177 0.0
O620 O 0.0614 0.5233 0.04951 0.0
O621 O 0.05427 0.56667 0.03628 0.0
O622 O 0.02525 0.4743 0.07813 0.0
O623 O 0.02468 0.45776 0.03321 0.0
O624 O 0.97738 0.50663 0.07107 0.0
O625 O 1.00893 0.53966 0.05848 0.0
O626 O 0.96774 0.52736 1.00092 0.0
O627 O 0.97643 0.48426 1.01311 0.0
O628 O 0.01759 0.59291 0.99054 0.0
O629 O 0.98376 0.58251 0.02467 0.0
O630 O 0.03126 0.54529 0.96686 0.0
O631 O 0.02736 0.51529 0.99816 0.0
H632 H 0.07492 0.44708 1.02 0.0
H633 H 0.12063 0.43071 0.02942 0.0
H634 H 0.09807 0.42604 0.12245 0.0
H635 H 0.05186 0.44134 0.11279 0.0
H636 H 0.94669 0.57005 0.97887 0.0
H637 H 0.90674 0.5877 0.95536 0.0
H638 H 0.95358 0.67043 0.96645 0.0
H639 H 0.99337 0.65259 0.99038 0.0
C640 C 0.25769 0.23086 0.37336 0.0
C641 C 0.24955 0.249 0.3529 0.0
C642 C 0.23643 0.2125 0.38867 0.0
C643 C 0.2064 0.2126 0.38365 0.0
C644 C 0.19808 0.23269 0.36536 0.0
C645 C 0.21972 0.25051 0.35006 0.0
C646 C 0.24618 0.19149 0.40819 0.0
C647 C 0.16626 0.23375 0.35974 0.0
C648 C 0.1537 0.14524 0.38273 0.0
C649 C 0.13834 0.14656 0.40959 0.0
C650 C 0.17648 0.16625 0.37458 0.0
C651 C 0.18392 0.18938 0.39358 0.0
C652 C 0.16881 0.19077 0.42089 0.0
C653 C 0.14622 0.16927 0.42863 0.0
C654 C 0.19215 0.16396 0.34525 0.0
C655 C 0.17608 0.21516 0.44162 0.0
H656 H 0.28068 0.22996 0.37624 0.0
H657 H 0.21299 0.26418 0.33417 0.0
H658 H 0.23292 0.18918 0.42895 0.0
H659 H 0.24286 0.17124 0.39658 0.0
H660 H 0.26969 0.19699 0.41376 0.0
H661 H 0.16342 0.25303 0.34883 0.0
H662 H 0.15712 0.21616 0.34523 0.0
H663 H 0.15328 0.23199 0.38067 0.0
H664 H 0.14749 0.128 0.36769 0.0
H665 H 0.13475 0.17024 0.44964 0.0
H666 H 0.21613 0.16638 0.34846 0.0
H667 H 0.1882 0.18066 0.33065 0.0
H668 H 0.18477 0.14397 0.33381 0.0
H669 H 0.19982 0.21892 0.44637 0.0
H670 H 0.16353 0.21232 0.46281 0.0
H671 H 0.17111 0.23384 0.43101 0.0
C672 C 0.39785 0.85483 0.75254 0.0
C673 C 0.3971 0.87484 0.73131 0.0
C674 C 0.40677 0.86244 0.78138 0.0
C675 C 0.41528 0.89061 0.78875 0.0
C676 C 0.41664 0.91061 0.76663 0.0
C677 C 0.40729 0.90247 0.73819 0.0
C678 C 0.405 0.84057 0.80439 0.0
C679 C 0.42598 0.94082 0.77347 0.0
C680 C 0.39905 0.91964 0.86389 0.0
C681 C 0.42704 0.92553 0.87601 0.0
C682 C 0.39472 0.90672 0.83618 0.0
C683 C 0.41904 0.89976 0.82001 0.0
C684 C 0.44711 0.90438 0.83266 0.0
C685 C 0.45077 0.91717 0.86057 0.0
C686 C 0.36436 0.90197 0.8235 0.0
C687 C 0.47352 0.89717 0.81611 0.0
H688 H 0.38975 0.83348 0.74708 0.0
H689 H 0.40675 0.91783 0.72156 0.0
H690 H 0.42477 0.84401 0.81822 0.0
H691 H 0.3858 0.84157 0.81922 0.0
H692 H 0.40258 0.81964 0.7943 0.0
H693 H 0.42907 0.95328 0.75318 0.0
H694 H 0.40906 0.94831 0.78771 0.0
H695 H 0.44675 0.94431 0.78577 0.0
H696 H 0.38063 0.9263 0.8754 0.0
H697 H 0.47238 0.92123 0.86997 0.0
H698 H 0.35856 0.88052 0.81515 0.0
H699 H 0.3638 0.9157 0.80454 0.0
H700 H 0.34741 0.90601 0.84 0.0
H701 H 0.4686 0.8761 0.80651 0.0
H702 H 0.49286 0.89857 0.83048 0.0
H703 H 0.47931 0.91146 0.79755 0.0
C704 C 0.57814 0.41729 0.72098 0.0
C705 C 0.60871 0.41904 0.72353 0.0
C706 C 0.56557 0.42981 0.69742 0.0
C707 C 0.58366 0.44456 0.67525 0.0
C708 C 0.61442 0.44575 0.67732 0.0
C709 C 0.62638 0.43317 0.70104 0.0
C710 C 0.53273 0.42753 0.6965 0.0
C711 C 0.63497 0.46061 0.65441 0.0
C712 C 0.55366 0.45937 0.59876 0.0
C713 C 0.54944 0.48696 0.6015 0.0
C714 C 0.56372 0.44526 0.62256 0.0
C715 C 0.57076 0.4589 0.65009 0.0
C716 C 0.56649 0.48672 0.65299 0.0
C717 C 0.55575 0.50015 0.62907 0.0
C718 C 0.56702 0.41561 0.6181 0.0
C719 C 0.57362 0.50253 0.68146 0.0
H720 H 0.56393 0.40672 0.7379 0.0
H721 H 0.64992 0.43441 0.70186 0.0
H722 H 0.52663 0.44827 0.6986 0.0
H723 H 0.52462 0.41866 0.67494 0.0
H724 H 0.52143 0.41457 0.71442 0.0
H725 H 0.65832 0.46006 0.65904 0.0
H726 H 0.62989 0.4512 0.63229 0.0
H727 H 0.63188 0.48236 0.65349 0.0
H728 H 0.54877 0.44854 0.57797 0.0
H729 H 0.55273 0.52134 0.6319 0.0
H730 H 0.55646 0.40309 0.63664 0.0
H731 H 0.5906 0.41398 0.61788 0.0
H732 H 0.55729 0.40675 0.59715 0.0
H733 H 0.56105 0.49165 0.70006 0.0
H734 H 0.56858 0.52371 0.68076 0.0
H735 H 0.59722 0.50374 0.68615 0.0
C736 C 0.92963 0.6007 0.22469 0.0
C737 C 0.92085 0.62631 0.22103 0.0
C738 C 0.94049 0.5862 0.20064 0.0
C739 C 0.9418 0.59686 0.17163 0.0
C740 C 0.93235 0.62248 0.16778 0.0
C741 C 0.92258 0.637 0.1924 0.0
C742 C 0.95104 0.55956 0.20642 0.0
C743 C 0.93217 0.63448 0.13747 0.0
C744 C 0.99266 0.57189 0.11156 0.0
C745 C 0.97396 0.55057 0.09712 0.0
C746 C 0.98267 0.58681 0.13578 0.0
C747 C 0.95286 0.5812 0.14547 0.0
C748 C 0.93371 0.56026 0.13022 0.0
C749 C 0.94455 0.54498 0.10683 0.0
C750 C 1.00435 0.60812 0.15157 0.0
C751 C 0.90161 0.55397 0.1386 0.0
H752 H 0.92867 0.59228 0.24664 0.0
H753 H 0.91574 0.65664 0.18915 0.0
H754 H 0.93757 0.54248 0.19417 0.0
H755 H 0.974 0.56072 0.1983 0.0
H756 H 0.94999 0.55459 0.23024 0.0
H757 H 0.92299 0.65386 0.1378 0.0
H758 H 0.95478 0.63868 0.12813 0.0
H759 H 0.91904 0.61947 0.1224 0.0
H760 H 0.01548 0.5763 0.10458 0.0
H761 H 0.92982 0.52865 0.0959 0.0
H762 H 1.00491 0.6029 0.17522 0.0
H763 H 0.99743 0.62851 0.15061 0.0
H764 H 0.02684 0.60975 0.14195 0.0
H765 H 0.89893 0.5459 0.16131 0.0
H766 H 0.88912 0.53863 0.12337 0.0
H767 H 0.89191 0.57304 0.13851 0.0
C768 C 0.4264 0.18481 0.13894 0.0
C769 C 0.40872 0.17837 0.16421 0.0
C770 C 0.43902 0.16458 0.12358 0.0
C771 C 0.43422 0.13733 0.13396 0.0
C772 C 0.41688 0.13078 0.15971 0.0
C773 C 0.40411 0.15126 0.17431 0.0
C774 C 0.45718 0.17227 0.09599 0.0
C775 C 0.41147 0.10202 0.17163 0.0
C776 C 0.44154 0.07963 0.07908 0.0
C777 C 0.47002 0.07497 0.08424 0.0
C778 C 0.42963 0.09983 0.09518 0.0
C779 C 0.44643 0.11544 0.11728 0.0
C780 C 0.47488 0.11025 0.12322 0.0
C781 C 0.48642 0.09021 0.10646 0.0
C782 C 0.39934 0.10497 0.08799 0.0
C783 C 0.49327 0.12611 0.14698 0.0
H784 H 0.43048 0.20571 0.13116 0.0
H785 H 0.39002 0.14584 0.19342 0.0
H786 H 0.47955 0.16748 0.09847 0.0
H787 H 0.44728 0.15996 0.0769 0.0
H788 H 0.45897 0.19439 0.09092 0.0
H789 H 0.39891 0.10067 0.19287 0.0
H790 H 0.39908 0.08771 0.15541 0.0
H791 H 0.43261 0.09489 0.17502 0.0
H792 H 0.42885 0.0681 0.06177 0.0
H793 H 0.50843 0.08664 0.11061 0.0
H794 H 0.4005 0.12644 0.08076 0.0
H795 H 0.38493 0.10236 0.10796 0.0
H796 H 0.38906 0.09091 0.07031 0.0
H797 H 0.49775 0.14824 0.14165 0.0
H798 H 0.51452 0.11886 0.14956 0.0
H799 H 0.48114 0.12419 0.16843 0.0
C800 C 0.1934 0.95503 0.60436 0.0
C801 C 0.19357 0.92874 0.59198 0.0
C802 C 0.17209 0.97058 0.5968 0.0
C803 C 0.15106 0.96 0.57558 0.0
C804 C 0.15076 0.9334 0.56328 0.0
C805 C 0.17169 0.91791 0.57202 0.0
C806 C 0.17253 0.9986 0.61097 0.0
C807 C 0.1289 0.92163 0.54019 0.0
C808 C 0.08161 0.98957 0.56589 0.0
C809 C 0.08957 1.00706 0.54218 0.0
C810 C 0.10182 0.9749 0.57789 0.0
C811 C 0.13025 0.97722 0.56508 0.0
C812 C 0.13849 0.99521 0.54131 0.0
C813 C 0.11812 1.0103 0.53044 0.0
C814 C 0.09261 0.95665 0.60391 0.0
C815 C 0.1684 0.99769 0.52662 0.0
H816 H 0.21039 0.96388 0.61944 0.0
H817 H 0.17106 0.89739 0.56288 0.0
H818 H 0.17876 1.01469 0.59424 0.0
H819 H 0.15038 1.00065 0.61964 0.0
H820 H 0.18826 1.00255 0.62932 0.0
H821 H 0.1316 0.90059 0.53285 0.0
H822 H 0.10624 0.92094 0.54896 0.0
H823 H 0.13145 0.93506 0.52067 0.0
H824 H 0.05961 0.98737 0.57506 0.0
H825 H 0.12416 1.02376 0.51193 0.0
H826 H 0.10871 0.96148 0.62183 0.0
H827 H 0.0922 0.93486 0.59727 0.0
H828 H 0.07058 0.95896 0.61278 0.0
H829 H 0.18573 1.00402 0.54305 0.0
H830 H 0.17138 1.01279 0.50854 0.0
H831 H 0.17163 0.97741 0.51735 0.0
C832 C 0.79885 0.42438 0.94936 0.0
C833 C 0.79587 0.42121 0.91854 0.0
C834 C 0.82499 0.4381 0.96225 0.0
C835 C 0.84949 0.44892 0.94419 0.0
C836 C 0.84652 0.44619 0.91303 0.0
C837 C 0.81988 0.43268 0.90067 0.0
C838 C 0.82646 0.44074 0.99544 0.0
C839 C 0.87184 0.45698 0.89267 0.0
C840 C 0.91067 0.50304 0.97784 0.0
C841 C 0.9317 0.48719 0.98609 0.0
C842 C 0.88419 0.49105 0.96416 0.0
C843 C 0.87822 0.46234 0.95801 0.0
C844 C 0.89952 0.4463 0.96598 0.0
C845 C 0.92565 0.45876 0.97995 0.0
C846 C 0.86233 0.50919 0.95662 0.0
C847 C 0.89469 0.41577 0.95976 0.0
H848 H 0.78054 0.41607 0.96359 0.0
H849 H 0.8182 0.43032 0.87691 0.0
H850 H 0.84352 0.42958 1.00354 0.0
H851 H 0.8328 0.46263 1.00213 0.0
H852 H 0.80526 0.43244 1.00647 0.0
H853 H 0.86606 0.454 0.86903 0.0
H854 H 0.87929 0.47919 0.89712 0.0
H855 H 0.8906 0.44635 0.89686 0.0
H856 H 0.91468 0.52493 0.98244 0.0
H857 H 0.94153 0.44611 0.98588 0.0
H858 H 0.84143 0.5025 0.96886 0.0
H859 H 0.85748 0.50722 0.93274 0.0
H860 H 0.87031 0.53116 0.96209 0.0
H861 H 0.87493 0.40569 0.97201 0.0
H862 H 0.91365 0.40622 0.96616 0.0
H863 H 0.89072 0.41162 0.93591 0.0
C864 C 0.71923 0.58751 0.42347 0.0
C865 C 0.72534 0.61547 0.41613 0.0
C866 C 0.69357 0.57638 0.43957 0.0
C867 C 0.67301 0.59339 0.44861 0.0
C868 C 0.67891 0.62156 0.44107 0.0
C869 C 0.70484 0.63219 0.42516 0.0
C870 C 0.68864 0.54637 0.44723 0.0
C871 C 0.65773 0.64058 0.44982 0.0
C872 C 0.59369 0.56089 0.46935 0.0
C873 C 0.59371 0.56235 0.50036 0.0
C874 C 0.61921 0.57063 0.45231 0.0
C875 C 0.64573 0.58196 0.46643 0.0
C876 C 0.64596 0.58283 0.49776 0.0
C877 C 0.6201 0.5732 0.51421 0.0
C878 C 0.6176 0.56931 0.4191 0.0
C879 C 0.67353 0.59432 0.51401 0.0
H880 H 0.73485 0.57429 0.41711 0.0
H881 H 0.70885 0.65368 0.4194 0.0
H882 H 0.6874 0.5442 0.47156 0.0
H883 H 0.66744 0.53592 0.4384 0.0
H884 H 0.70635 0.5357 0.43831 0.0
H885 H 0.66502 0.66177 0.44183 0.0
H886 H 0.63581 0.63261 0.44079 0.0
H887 H 0.65521 0.64142 0.4742 0.0
H888 H 0.5735 0.55266 0.45833 0.0
H889 H 0.62049 0.57443 0.53811 0.0
H890 H 0.63427 0.55766 0.40976 0.0
H891 H 0.62262 0.59035 0.41018 0.0
H892 H 0.59567 0.55945 0.41138 0.0
H893 H 0.6916 0.58336 0.50681 0.0
H894 H 0.67057 0.59261 0.53833 0.0
H895 H 0.68044 0.61628 0.50862 0.0
C896 C 0.25925 0.38801 0.13897 0.0
C897 C 0.26562 0.36319 0.12703 0.0
C898 C 0.23681 0.40034 0.1276 0.0
C899 C 0.22059 0.38772 0.10344 0.0
C900 C 0.2286 0.36399 0.08968 0.0
C901 C 0.25097 0.35191 0.10172 0.0
C902 C 0.22902 0.42566 0.14292 0.0
C903 C 0.21214 0.35017 0.06358 0.0
C904 C 0.14053 0.39545 0.10291 0.0
C905 C 0.14062 0.41645 0.08256 0.0
C906 C 0.16637 0.38582 0.1096 0.0
C907 C 0.19301 0.39718 0.0953 0.0
C908 C 0.19323 0.41792 0.07421 0.0
C909 C 0.16704 0.42742 0.06819 0.0
C910 C 0.16519 0.3637 0.13231 0.0
C911 C 0.22117 0.43033 0.05834 0.0
H912 H 0.2709 0.39713 0.15818 0.0
H913 H 0.25563 0.33268 0.09242 0.0
H914 H 0.2264 0.44144 0.12662 0.0
H915 H 0.20775 0.4202 0.15492 0.0
H916 H 0.24582 0.43476 0.15902 0.0
H917 H 0.22387 0.33473 0.05261 0.0
H918 H 0.19025 0.33962 0.0711 0.0
H919 H 0.20865 0.36555 0.04712 0.0
H920 H 0.12015 0.38641 0.11364 0.0
H921 H 0.16738 0.44382 0.05262 0.0
H922 H 0.17972 0.37135 0.15089 0.0
H923 H 0.17327 0.34558 0.1224 0.0
H924 H 0.14268 0.35696 0.14132 0.0
H925 H 0.2369 0.44126 0.07443 0.0
H926 H 0.21732 0.44504 0.04125 0.0
H927 H 0.23164 0.41392 0.04767 0.0
C928 C 0.59805 0.21972 0.93526 0.0
C929 C 0.5944 0.22307 0.90477 0.0
C930 C 0.58732 0.19464 0.94971 0.0
C931 C 0.57224 0.17168 0.93371 0.0
C932 C 0.56866 0.17478 0.90294 0.0
C933 C 0.57965 0.20008 0.88902 0.0
C934 C 0.59177 0.19289 0.98244 0.0
C935 C 0.55291 0.15128 0.88458 0.0
C936 C 0.56176 0.09842 0.96684 0.0
C937 C 0.53285 0.09494 0.97819 0.0
C938 C 0.57485 0.12304 0.95253 0.0
C939 C 0.55892 0.14511 0.94931 0.0
C940 C 0.52986 0.14165 0.96105 0.0
C941 C 0.51737 0.11695 0.97513 0.0
C942 C 0.60581 0.12538 0.94064 0.0
C943 C 0.51167 0.16413 0.9586 0.0
H944 H 0.60885 0.23698 0.94823 0.0
H945 H 0.57685 0.20165 0.86551 0.0
H946 H 0.57021 0.18942 0.99416 0.0
H947 H 0.60274 0.17517 0.98706 0.0
H948 H 0.60512 0.21183 0.99165 0.0
H949 H 0.55259 0.15637 0.86085 0.0
H950 H 0.56358 0.13294 0.88672 0.0
H951 H 0.52998 0.14566 0.89279 0.0
H952 H 0.57414 0.08181 0.96893 0.0
H953 H 0.49511 0.11486 0.98376 0.0
H954 H 0.61973 0.14352 0.95076 0.0
H955 H 0.60622 0.12859 0.91647 0.0
H956 H 0.61555 0.10682 0.945 0.0
H957 H 0.52301 0.18329 0.96926 0.0
H958 H 0.48959 0.15861 0.96903 0.0
H959 H 0.50902 0.16862 0.93503 0.0
C960 C 0.94824 0.82667 0.40974 0.0
C961 C 0.91765 0.81992 0.40703 0.0
C962 C 0.96161 0.85209 0.42251 0.0
C963 C 0.94421 0.87167 0.43277 0.0
C964 C 0.91345 0.86529 0.42916 0.0
C965 C 0.9007 0.8398 0.41648 0.0
C966 C 0.99441 0.85769 0.42576 0.0
C967 C 0.89376 0.88526 0.43929 0.0
C968 C 0.97192 0.92512 0.49347 0.0
C969 C 0.98081 0.94938 0.47756 0.0
C970 C 0.96058 0.89988 0.47923 0.0
C971 C 0.95779 0.89837 0.44807 0.0
C972 C 0.96688 0.92272 0.43184 0.0
C973 C 0.97821 0.94771 0.44664 0.0
C974 C 0.95128 0.87477 0.49773 0.0
C975 C 0.96433 0.92246 0.39871 0.0
H976 H 0.96172 0.81166 0.40282 0.0
H977 H 0.87714 0.83532 0.41415 0.0
H978 H 1.00375 0.87751 0.4155 0.0
H979 H 0.99984 0.85953 0.44952 0.0
H980 H 1.00513 0.84121 0.41549 0.0
H981 H 0.87044 0.87786 0.43397 0.0
H982 H 0.89541 0.88866 0.46352 0.0
H983 H 0.90088 0.90543 0.42881 0.0
H984 H 0.97372 0.92579 0.51727 0.0
H985 H 0.98492 0.96606 0.43387 0.0
H986 H 0.963 0.85802 0.49001 0.0
H987 H 0.92751 0.86725 0.49517 0.0
H988 H 0.95567 0.87893 0.52153 0.0
H989 H 0.97636 0.90684 0.38864 0.0
H990 H 0.97309 0.94273 0.38906 0.0
H991 H 0.94102 0.91662 0.39261 0.0
C992 C 0.32461 0.73826 0.49456 0.0
C993 C 0.34341 0.7635 0.49249 0.0
C994 C 0.33592 0.71364 0.49259 0.0
C995 C 0.36649 0.71478 0.48866 0.0
C996 C 0.38426 0.73982 0.48075 0.0
C997 C 0.37246 0.7641 0.48293 0.0
C998 C 0.31601 0.68707 0.49952 0.0
C999 C 0.41671 0.74164 0.4749 0.0
C1000 C 0.40365 0.67751 0.54461 0.0
C1001 C 0.41312 0.65669 0.52745 0.0
C1002 C 0.38764 0.69587 0.53226 0.0
C1003 C 0.38066 0.69325 0.50189 0.0
C1004 C 0.38882 0.6714 0.48471 0.0
C1005 C 0.40503 0.65335 0.49774 0.0
C1006 C 0.37913 0.7187 0.55165 0.0
C1007 C 0.38177 0.6676 0.4524 0.0
H1008 H 0.302 0.7378 0.50162 0.0
H1009 H 0.38683 0.78372 0.48086 0.0
H1010 H 0.32269 0.6697 0.48665 0.0
H1011 H 0.31747 0.68272 0.52332 0.0
H1012 H 0.29282 0.68823 0.49477 0.0
H1013 H 0.42605 0.76082 0.46332 0.0
H1014 H 0.42801 0.74148 0.49622 0.0
H1015 H 0.42127 0.72377 0.46144 0.0
H1016 H 0.40912 0.67969 0.56776 0.0
H1017 H 0.41213 0.63716 0.48438 0.0
H1018 H 0.35515 0.71839 0.55102 0.0
H1019 H 0.39012 0.73888 0.54338 0.0
H1020 H 0.3853 0.71711 0.57501 0.0
H1021 H 0.3794 0.64562 0.44556 0.0
H1022 H 0.40007 0.67908 0.43915 0.0
H1023 H 0.36142 0.67537 0.447 0.0
C1024 C 0.77069 0.82266 0.6612 0.0
C1025 C 0.75208 0.83553 0.67962 0.0
C1026 C 0.79505 0.83801 0.64691 0.0
C1027 C 0.80059 0.86689 0.65081 0.0
C1028 C 0.78022 0.88016 0.66679 0.0
C1029 C 0.75631 0.86433 0.68114 0.0
C1030 C 0.81615 0.82313 0.62981 0.0
C1031 C 0.78507 0.91099 0.67107 0.0
C1032 C 0.87844 0.90486 0.65563 0.0
C1033 C 0.88226 0.91819 0.6285 0.0
C1034 C 0.85234 0.8872 0.66258 0.0
C1035 C 0.82939 0.88294 0.64199 0.0
C1036 C 0.8334 0.8956 0.61419 0.0
C1037 C 0.85986 0.91302 0.60773 0.0
C1038 C 0.84895 0.87391 0.69245 0.0
C1039 C 0.80942 0.89154 0.59172 0.0
H1040 H 0.76723 0.80045 0.65935 0.0
H1041 H 0.74234 0.87461 0.69544 0.0
H1042 H 0.8234 0.83375 0.60895 0.0
H1043 H 0.83593 0.82301 0.64315 0.0
H1044 H 0.80635 0.80152 0.62455 0.0
H1045 H 0.76527 0.91832 0.68031 0.0
H1046 H 0.80334 0.9173 0.68649 0.0
H1047 H 0.7913 0.92136 0.64985 0.0
H1048 H 0.89549 0.90893 0.67191 0.0
H1049 H 0.86288 0.92284 0.58647 0.0
H1050 H 0.84198 0.8514 0.68987 0.0
H1051 H 0.83164 0.88197 0.70561 0.0
H1052 H 0.86957 0.8778 0.70506 0.0
H1053 H 0.80098 0.86936 0.58826 0.0
H1054 H 0.81701 0.90064 0.57013 0.0
H1055 H 0.79081 0.90125 0.60004 0.0
C1056 C 0.66548 0.19101 0.27912 0.0
C1057 C 0.64765 0.19132 0.3045 0.0
C1058 C 0.65383 0.18012 0.25234 0.0
C1059 C 0.62347 0.1699 0.25076 0.0
C1060 C 0.60492 0.17246 0.27553 0.0
C1061 C 0.61728 0.18292 0.30226 0.0
C1062 C 0.67438 0.17764 0.22643 0.0
C1063 C 0.57233 0.1624 0.27443 0.0
C1064 C 0.59636 0.1501 0.17368 0.0
C1065 C 0.5973 0.12191 0.17307 0.0
C1066 C 0.60331 0.16593 0.19942 0.0
C1067 C 0.61211 0.15325 0.22465 0.0
C1068 C 0.61227 0.1246 0.22427 0.0
C1069 C 0.60458 0.10923 0.19852 0.0
C1070 C 0.60211 0.19626 0.19934 0.0
C1071 C 0.62191 0.11036 0.2506 0.0
H1072 H 0.68886 0.19818 0.2805 0.0
H1073 H 0.6033 0.18302 0.32175 0.0
H1074 H 0.67554 0.15565 0.22205 0.0
H1075 H 0.66612 0.18577 0.20623 0.0
H1076 H 0.69689 0.18875 0.23045 0.0
H1077 H 0.56048 0.17038 0.29342 0.0
H1078 H 0.56328 0.16861 0.25364 0.0
H1079 H 0.56802 0.13965 0.27494 0.0
H1080 H 0.59045 0.15976 0.15394 0.0
H1081 H 0.60548 0.08744 0.19785 0.0
H1082 H 0.62467 0.20811 0.19981 0.0
H1083 H 0.59029 0.2023 0.21935 0.0
H1084 H 0.59115 0.20217 0.17949 0.0
H1085 H 0.64511 0.11878 0.25538 0.0
H1086 H 0.61987 0.08782 0.24696 0.0
H1087 H 0.60864 0.11422 0.27044 0.0
C1088 C 0.44896 0.63576 0.33313 0.0
C1089 C 0.41842 0.63344 0.32982 0.0
C1090 C 0.46128 0.62345 0.35701 0.0
C1091 C 0.44294 0.60825 0.37871 0.0
C1092 C 0.41218 0.60654 0.37592 0.0
C1093 C 0.40049 0.61897 0.35192 0.0
C1094 C 0.49413 0.62634 0.35872 0.0
C1095 C 0.39135 0.59113 0.39825 0.0
C1096 C 0.47164 0.55275 0.42437 0.0
C1097 C 0.47749 0.56566 0.45216 0.0
C1098 C 0.46068 0.56624 0.40061 0.0
C1099 C 0.45559 0.59379 0.40394 0.0
C1100 C 0.46175 0.60703 0.43184 0.0
C1101 C 0.47224 0.59292 0.45539 0.0
C1102 C 0.45432 0.55078 0.3718 0.0
C1103 C 0.45753 0.63641 0.43679 0.0
H1104 H 0.46339 0.64661 0.31655 0.0
H1105 H 0.37694 0.61729 0.35056 0.0
H1106 H 0.50153 0.63494 0.38061 0.0
H1107 H 0.50076 0.60582 0.3564 0.0
H1108 H 0.50559 0.63979 0.34128 0.0
H1109 H 0.36809 0.59204 0.39363 0.0
H1110 H 0.39423 0.56928 0.3983 0.0
H1111 H 0.39634 0.59971 0.42073 0.0
H1112 H 0.47544 0.53184 0.42113 0.0
H1113 H 0.47672 0.60354 0.47638 0.0
H1114 H 0.46723 0.56201 0.35362 0.0
H1115 H 0.43083 0.54945 0.36657 0.0
H1116 H 0.45955 0.52967 0.37233 0.0
H1117 H 0.46269 0.64386 0.45968 0.0
H1118 H 0.43461 0.63852 0.43214 0.0
H1119 H 0.47185 0.64987 0.42124 0.0
C1120 C 0.07496 0.42206 0.83541 0.0
C1121 C 0.1053 0.42327 0.83009 0.0
C1122 C 0.06381 0.43635 0.85944 0.0
C1123 C 0.08317 0.45268 0.8792 0.0
C1124 C 0.11378 0.45385 0.87419 0.0
C1125 C 0.12436 0.43931 0.84997 0.0
C1126 C 0.03108 0.43435 0.86335 0.0
C1127 C 0.13551 0.4708 0.89433 0.0
C1128 C 0.05543 0.51275 0.92054 0.0
C1129 C 0.04818 0.50255 0.94901 0.0
C1130 C 0.06684 0.49695 0.89808 0.0
C1131 C 0.07143 0.46985 0.9037 0.0
C1132 C 0.06433 0.4594 0.93252 0.0
C1133 C 0.05282 0.47575 0.95469 0.0
C1134 C 0.07386 0.50936 0.86809 0.0
C1135 C 0.06876 0.4308 0.93992 0.0
H1136 H 0.05967 0.41032 0.82033 0.0
H1137 H 0.14778 0.44037 0.84683 0.0
H1138 H 0.0242 0.42768 0.88602 0.0
H1139 H 0.02487 0.45486 0.86051 0.0
H1140 H 0.01879 0.41972 0.8473 0.0
H1141 H 0.15849 0.46881 0.88847 0.0
H1142 H 0.13326 0.49276 0.89321 0.0
H1143 H 0.13091 0.46447 0.91754 0.0
H1144 H 0.05206 0.53335 0.91562 0.0
H1145 H 0.0474 0.46751 0.97644 0.0
H1146 H 0.06064 0.49675 0.85107 0.0
H1147 H 0.09726 0.50942 0.86223 0.0
H1148 H 0.06943 0.53074 0.86716 0.0
H1149 H 0.0553 0.41562 0.92532 0.0
H1150 H 0.06277 0.42569 0.96326 0.0
H1151 H 0.092 0.42867 0.93589 0.0
C1152 C 0.59951 0.86001 0.92169 0.0
C1153 C 0.6166 0.86451 0.89574 0.0
C1154 C 0.58685 0.8812 0.93515 0.0
C1155 C 0.59097 0.90739 0.9221 0.0
C1156 C 0.6076 0.91192 0.89561 0.0
C1157 C 0.6205 0.89059 0.88298 0.0
C1158 C 0.56939 0.87569 0.96356 0.0
C1159 C 0.6122 0.93947 0.88084 0.0
C1160 C 0.53862 0.95581 0.94545 0.0
C1161 C 0.55536 0.97307 0.96593 0.0
C1162 C 0.55003 0.93456 0.93068 0.0
C1163 C 0.5788 0.93036 0.93673 0.0
C1164 C 0.59599 0.94803 0.95699 0.0
C1165 C 0.58414 0.9693 0.97118 0.0
C1166 C 0.53124 0.91654 0.90875 0.0
C1167 C 0.62662 0.94398 0.96431 0.0
H1168 H 0.596 0.83991 0.93154 0.0
H1169 H 0.6342 0.89462 0.86336 0.0
H1170 H 0.57953 0.88969 0.98132 0.0
H1171 H 0.54682 0.87989 0.9608 0.0
H1172 H 0.56808 0.85417 0.97079 0.0
H1173 H 0.62418 0.93914 0.85935 0.0
H1174 H 0.59078 0.94593 0.87704 0.0
H1175 H 0.62483 0.95525 0.89543 0.0
H1176 H 0.5164 0.95867 0.94122 0.0
H1177 H 0.59712 0.98238 0.98718 0.0
H1178 H 0.53021 0.89456 0.91394 0.0
H1179 H 0.54111 0.91968 0.88629 0.0
H1180 H 0.50856 0.92109 0.90848 0.0
H1181 H 0.62597 0.92332 0.97369 0.0
H1182 H 0.63717 0.95962 0.98041 0.0
H1183 H 0.6405 0.94497 0.94397 0.0
C1184 C 0.84259 0.10515 0.43973 0.0
C1185 C 0.83927 0.12906 0.45592 0.0
C1186 C 0.8637 0.08935 0.44723 0.0
C1187 C 0.88112 0.09699 0.47221 0.0
C1188 C 0.87799 0.121 0.48868 0.0
C1189 C 0.85754 0.13704 0.47997 0.0
C1190 C 0.86714 0.06432 0.42862 0.0
C1191 C 0.89581 0.12949 0.51586 0.0
C1192 C 0.91355 0.04207 0.51066 0.0
C1193 C 0.94323 0.04909 0.50279 0.0
C1194 C 0.89298 0.05743 0.50069 0.0
C1195 C 0.90228 0.07963 0.48159 0.0
C1196 C 0.93204 0.086 0.47255 0.0
C1197 C 0.95228 0.071 0.48384 0.0
C1198 C 0.86158 0.0506 0.51153 0.0
C1199 C 0.94259 0.10893 0.45141 0.0
H1200 H 0.82835 0.09838 0.42145 0.0
H1201 H 0.85583 0.15579 0.49221 0.0
H1202 H 0.89044 0.06512 0.4218 0.0
H1203 H 0.86064 0.04551 0.44173 0.0
H1204 H 0.85362 0.0625 0.40851 0.0
H1205 H 0.88999 0.14823 0.52679 0.0
H1206 H 0.89237 0.1126 0.53198 0.0
H1207 H 0.91948 0.13345 0.50994 0.0
H1208 H 0.90657 1.02525 0.52556 0.0
H1209 H 0.97522 0.07663 0.47806 0.0
H1210 H 0.84666 0.04634 0.49259 0.0
H1211 H 0.85544 0.06847 0.52394 0.0
H1212 H 0.8579 0.03253 0.52614 0.0
H1213 H 0.92873 0.10673 0.43157 0.0
H1214 H 0.96577 0.10933 0.44427 0.0
H1215 H 0.9407 0.12898 0.46208 0.0
C1216 C 0.21007 0.61707 0.1485 0.0
C1217 C 0.23468 0.62768 0.131 0.0
C1218 C 0.18365 0.60354 0.13573 0.0
C1219 C 0.18159 0.59988 0.10457 0.0
C1220 C 0.20674 0.60972 0.08694 0.0
C1221 C 0.23262 0.62354 0.10022 0.0
C1222 C 0.15759 0.59387 0.15562 0.0
C1223 C 0.20621 0.60602 0.05381 0.0
C1224 C 0.11944 0.54641 0.07144 0.0
C1225 C 0.09934 0.56279 0.06208 0.0
C1226 C 0.14605 0.55803 0.08514 0.0
C1227 C 0.15298 0.58687 0.09027 0.0
C1228 C 0.13268 0.60344 0.08106 0.0
C1229 C 0.10648 0.59135 0.06704 0.0
C1230 C 0.1669 0.53937 0.094 0.0
C1231 C 0.13855 0.63414 0.08616 0.0
H1232 H 0.21108 0.62022 0.17221 0.0
H1233 H 0.25143 0.63122 0.08632 0.0
H1234 H 0.13941 0.60493 0.15042 0.0
H1235 H 0.1496 0.57167 0.15169 0.0
H1236 H 0.16278 0.59731 0.17935 0.0
H1237 H 0.22794 0.61325 0.04326 0.0
H1238 H 0.19917 0.58405 0.04782 0.0
H1239 H 0.19005 0.61759 0.04455 0.0
H1240 H 0.11446 0.52437 0.06792 0.0
H1241 H 0.09129 0.60441 0.06032 0.0
H1242 H 0.17062 0.54136 0.11809 0.0
H1243 H 0.18845 0.54553 0.08273 0.0
H1244 H 0.15861 0.51747 0.08844 0.0
H1245 H 0.14188 0.6389 0.11 0.0
H1246 H 0.12036 0.64418 0.0786 0.0
H1247 H 0.15896 0.64321 0.07428 0.0
C1248 C 0.30715 0.43992 0.60912 0.0
C1249 C 0.30674 0.43703 0.63993 0.0
C1250 C 0.33314 0.45073 0.59339 0.0
C1251 C 0.35992 0.4583 0.60849 0.0
C1252 C 0.3596 0.45547 0.63964 0.0
C1253 C 0.33312 0.44528 0.65491 0.0
C1254 C 0.33194 0.45382 0.56041 0.0
C1255 C 0.38749 0.46242 0.65679 0.0
C1256 C 0.43021 0.45557 0.56265 0.0
C1257 C 0.44132 0.48338 0.55764 0.0
C1258 C 0.40444 0.44735 0.57966 0.0
C1259 C 0.38843 0.46729 0.59151 0.0
C1260 C 0.39954 0.49551 0.58652 0.0
C1261 C 0.42599 0.50322 0.57003 0.0
C1262 C 0.39429 0.41714 0.58482 0.0
C1263 C 0.38308 0.51757 0.59796 0.0
H1264 H 0.28695 0.43393 0.59727 0.0
H1265 H 0.33324 0.44297 0.67863 0.0
H1266 H 0.34176 0.47503 0.55418 0.0
H1267 H 0.345 0.43968 0.54907 0.0
H1268 H 0.30919 0.4493 0.55221 0.0
H1269 H 0.3836 0.45994 0.68093 0.0
H1270 H 0.40318 0.44891 0.64925 0.0
H1271 H 0.39804 0.48388 0.65263 0.0
H1272 H 0.44189 0.44004 0.55332 0.0
H1273 H 0.43413 0.5247 0.56605 0.0
H1274 H 0.37278 0.41036 0.57439 0.0
H1275 H 0.39123 0.41334 0.60882 0.0
H1276 H 0.41003 0.4043 0.57569 0.0
H1277 H 0.36089 0.51439 0.58842 0.0
H1278 H 0.3945 0.5385 0.59242 0.0
H1279 H 0.38018 0.51627 0.62227 0.0
C1280 C 0.79905 0.70892 0.90891 0.0
C1281 C 0.7855 0.69621 0.88365 0.0
C1282 C 0.82043 0.69738 0.92342 0.0
C1283 C 0.82863 0.67273 0.91221 0.0
C1284 C 0.81399 0.65911 0.88764 0.0
C1285 C 0.79245 0.6709 0.87383 0.0
C1286 C 0.83523 0.71226 0.94988 0.0
C1287 C 0.8221 0.63279 0.87501 0.0
C1288 C 0.90625 0.66094 0.92515 0.0
C1289 C 0.90183 0.64127 0.94729 0.0
C1290 C 0.88257 0.67136 0.91359 0.0
C1291 C 0.85387 0.66216 0.92479 0.0
C1292 C 0.84934 0.64253 0.94742 0.0
C1293 C 0.87338 0.63216 0.95826 0.0
C1294 C 0.88823 0.692 0.88915 0.0
C1295 C 0.81914 0.63256 0.96021 0.0
H1296 H 0.79399 0.72856 0.91654 0.0
H1297 H 0.78163 0.66066 0.85469 0.0
H1298 H 0.83557 0.69785 0.96825 0.0
H1299 H 0.85832 0.72072 0.94402 0.0
H1300 H 0.82418 0.72943 0.95778 0.0
H1301 H 0.80737 0.62388 0.857 0.0
H1302 H 0.8449 0.6368 0.86611 0.0
H1303 H 0.82129 0.61734 0.89254 0.0
H1304 H 0.92822 0.66786 0.91655 0.0
H1305 H 0.87 0.61721 0.97569 0.0
H1306 H 0.88046 0.71125 0.89611 0.0
H1307 H 0.87578 0.68385 0.86934 0.0
H1308 H 0.91183 0.69699 0.8829 0.0
H1309 H 0.80949 0.65023 0.96909 0.0
H1310 H 0.81944 0.61767 0.97818 0.0
H1311 H 0.80451 0.62259 0.94267 0.0
C1312 C 0.4298 0.83046 0.11501 0.0
C1313 C 0.43326 0.82758 0.14561 0.0
C1314 C 0.44021 0.85543 0.10025 0.0
C1315 C 0.45482 0.87875 0.11603 0.0
C1316 C 0.45823 0.87613 0.1469 0.0
C1317 C 0.44754 0.85093 0.16114 0.0
C1318 C 0.43594 0.85668 0.06744 0.0
C1319 C 0.47352 0.90003 0.16502 0.0
C1320 C 0.50917 0.93343 0.07405 0.0
C1321 C 0.49335 0.95512 0.07044 0.0
C1322 C 0.49698 0.90886 0.08852 0.0
C1323 C 0.46785 0.90521 0.10009 0.0
C1324 C 0.45156 0.92694 0.09632 0.0
C1325 C 0.46438 0.95144 0.08164 0.0
C1326 C 0.51553 0.88674 0.09155 0.0
C1327 C 0.42051 0.92435 0.10799 0.0
H1328 H 0.41939 0.81291 0.1022 0.0
H1329 H 0.45019 0.84971 0.18472 0.0
H1330 H 0.42471 0.87414 0.06242 0.0
H1331 H 0.45757 0.86029 0.05586 0.0
H1332 H 0.42291 0.83748 0.05842 0.0
H1333 H 0.47378 0.89527 0.18884 0.0
H1334 H 0.49646 0.90588 0.15692 0.0
H1335 H 0.46253 0.91812 0.16248 0.0
H1336 H 0.53149 0.93567 0.06554 0.0
H1337 H 0.45174 0.9678 0.07912 0.0
H1338 H 0.50454 0.86733 0.08111 0.0
H1339 H 0.51807 0.88263 0.11524 0.0
H1340 H 0.53765 0.89241 0.08125 0.0
H1341 H 0.40689 0.90594 0.09807 0.0
H1342 H 0.4105 0.94267 0.10321 0.0
H1343 H 0.42 0.92149 0.13222 0.0
C1344 C 0.13004 0.21488 0.62896 0.0
C1345 C 0.11264 0.2343 0.63868 0.0
C1346 C 0.11779 0.18942 0.61584 0.0
C1347 C 0.08708 0.18261 0.61208 0.0
C1348 C 0.06923 0.20173 0.62258 0.0
C1349 C 0.08211 0.22713 0.63576 0.0
C1350 C 0.13795 0.16995 0.60547 0.0
C1351 C 0.03645 0.19563 0.6192 0.0
C1352 C 0.06026 0.12928 0.55093 0.0
C1353 C 0.0518 0.10485 0.56664 0.0
C1354 C 0.07122 0.15453 0.56536 0.0
C1355 C 0.074 0.15587 0.59654 0.0
C1356 C 0.06536 0.13132 0.61256 0.0
C1357 C 0.05445 0.10633 0.59755 0.0
C1358 C 0.08009 0.17984 0.54707 0.0
C1359 C 0.0679 0.13139 0.64568 0.0
H1360 H 0.15357 0.21965 0.63146 0.0
H1361 H 0.06828 0.24177 0.6429 0.0
H1362 H 0.13126 0.14966 0.6158 0.0
H1363 H 0.1363 0.16669 0.58123 0.0
H1364 H 0.16119 0.17772 0.61079 0.0
H1365 H 0.02537 0.21184 0.62953 0.0
H1366 H 0.03112 0.19383 0.59542 0.0
H1367 H 0.02743 0.17567 0.62932 0.0
H1368 H 0.0584 0.12875 0.52713 0.0
H1369 H 0.04803 0.08784 0.61017 0.0
H1370 H 0.10376 0.18779 0.54979 0.0
H1371 H 0.06792 0.19625 0.55484 0.0
H1372 H 0.07591 0.17575 0.52322 0.0
H1373 H 0.09116 0.13762 0.65182 0.0
H1374 H 0.05958 0.11095 0.65515 0.0
H1375 H 0.05548 0.14664 0.65589 0.0
C1376 C 0.64166 0.27491 0.56428 0.0
C1377 C 0.67137 0.27775 0.55622 0.0
C1378 C 0.6277 0.29797 0.56605 0.0
C1379 C 0.64392 0.32394 0.55898 0.0
C1380 C 0.6748 0.32734 0.55638 0.0
C1381 C 0.68832 0.30399 0.55513 0.0
C1382 C 0.59499 0.29399 0.57107 0.0
C1383 C 0.69296 0.35502 0.55038 0.0
C1384 C 0.60707 0.36201 0.5033 0.0
C1385 C 0.59849 0.3832 0.52053 0.0
C1386 C 0.62204 0.34283 0.51573 0.0
C1387 C 0.62848 0.34482 0.54625 0.0
C1388 C 0.6201 0.36636 0.56376 0.0
C1389 C 0.60517 0.38531 0.55062 0.0
C1390 C 0.63079 0.3203 0.49608 0.0
C1391 C 0.62623 0.36954 0.59632 0.0
H1392 H 0.62867 0.25454 0.56547 0.0
H1393 H 0.71139 0.30614 0.54913 0.0
H1394 H 0.58881 0.31124 0.58454 0.0
H1395 H 0.58407 0.29362 0.54949 0.0
H1396 H 0.58674 0.27436 0.5823 0.0
H1397 H 0.71655 0.35517 0.55448 0.0
H1398 H 0.69061 0.36022 0.52694 0.0
H1399 H 0.68523 0.37119 0.56436 0.0
H1400 H 0.60176 0.36027 0.48009 0.0
H1401 H 0.59912 0.40208 0.56382 0.0
H1402 H 0.61946 0.30001 0.50371 0.0
H1403 H 0.65472 0.32039 0.49729 0.0
H1404 H 0.62526 0.32245 0.47262 0.0
H1405 H 0.60564 0.36241 0.60895 0.0
H1406 H 0.63348 0.39152 0.60225 0.0
H1407 H 0.64311 0.35771 0.60346 0.0
loop_
_geom_bond_atom_site_label_1
_geom_bond_atom_site_label_2
_geom_bond_distance
_geom_bond_site_symmetry_2
_ccdc_geom_bond_type
C0 C1 1.391 . S
C0 C4 1.391 . S
C0 H42 0.948 . S
C1 C0 1.391 . S
C1 C2 1.391 . S
C2 C1 1.391 . S
C2 H58 0.947 . S
C2 C59 1.392 . S
C3 C4 1.391 . S
C3 C7 1.397 . S
C3 C59 1.419 . S
C4 C0 1.391 . S
C4 C3 1.391 . S
C4 C5 1.399 . S
C5 C4 1.399 . S
C5 C8 1.396 . S
C5 C17 1.453 . S
C5 C18 1.684 . S
H6 C30 0.948 . S
C7 C3 1.397 . S
C7 C8 1.394 . S
C7 C26 1.723 . S
C8 C5 1.396 . S
C8 C7 1.394 . S
C8 C38 1.723 . S
H9 C32 0.947 . S
H10 C33 0.948 . S
H11 C39 0.982 . S
H12 C40 0.979 . S
H13 C40 0.980 . S
H14 C40 0.983 . S
H15 C39 0.979 . S
H16 C39 0.977 . S
C17 C5 1.453 . S
C17 H46 0.982 . S
C17 H47 0.979 . S
C17 H48 0.977 . S
C18 C5 1.684 . S
C18 H43 0.979 . S
C18 H44 0.980 . S
C18 H45 0.983 . S
C19 C20 1.391 . S
C19 C24 1.391 . S
C19 H49 0.948 . S
C20 C19 1.391 . S
C20 C21 1.391 . S
C21 C20 1.391 . S
C21 C22 1.392 . S
C21 H50 0.947 . S
C22 C21 1.392 . S
C22 C23 1.419 . S
C22 H51 0.948 . S
C23 C22 1.419 . S
C23 C24 1.391 . S
C23 C27 1.397 . S
C24 C19 1.391 . S
C24 C23 1.391 . S
C24 C25 1.399 . S
C25 C24 1.399 . S
C25 C26 1.396 . S
C25 C28 1.453 . S
C25 C29 1.684 . S
C26 C7 1.723 . S
C26 C25 1.396 . S
C26 C27 1.394 . S
C27 C23 1.397 . S
C27 C26 1.394 . S
C27 C37 1.723 . S
C28 C25 1.453 . S
C28 H52 0.982 . S
C28 H53 0.979 . S
C28 H54 0.977 . S
C29 C25 1.684 . S
C29 H55 0.979 . S
C29 H56 0.980 . S
C29 H57 0.983 . S
C30 H6 0.948 . S
C30 C31 1.391 . S
C30 C35 1.391 . S
C31 C30 1.391 . S
C31 C32 1.391 . S
C32 H9 0.947 . S
C32 C31 1.391 . S
C32 C33 1.392 . S
C33 H10 0.948 . S
C33 C32 1.392 . S
C33 C34 1.419 . S
C34 C33 1.419 . S
C34 C35 1.391 . S
C34 C38 1.397 . S
C35 C30 1.391 . S
C35 C34 1.391 . S
C35 C36 1.399 . S
C36 C35 1.399 . S
C36 C37 1.396 . S
C36 C39 1.453 . S
C36 C40 1.684 . S
C37 C27 1.723 . S
C37 C36 1.396 . S
C37 C38 1.394 . S
C38 C8 1.723 . S
C38 C34 1.397 . S
C38 C37 1.394 . S
C39 H11 0.982 . S
C39 H15 0.979 . S
C39 H16 0.977 . S
C39 C36 1.453 . S
C40 H12 0.979 . S
C40 H13 0.980 . S
C40 H14 0.983 . S
C40 C36 1.684 . S
H41 C59 0.948 . S
H42 C0 0.948 . S
H43 C18 0.979 . S
H44 C18 0.980 . S
H45 C18 0.983 . S
H46 C17 0.982 . S
H47 C17 0.979 . S
H48 C17 0.977 . S
H49 C19 0.948 . S
H50 C21 0.947 . S
H51 C22 0.948 . S
H52 C28 0.982 . S
H53 C28 0.979 . S
H54 C28 0.977 . S
H55 C29 0.979 . S
H56 C29 0.980 . S
H57 C29 0.983 . S
H58 C2 0.947 . S
C59 C2 1.392 . S
C59 C3 1.419 . S
C59 H41 0.948 . S
C60 C61 1.391 . S
C60 C64 1.391 . S
C60 H102 0.948 . S
C61 C60 1.391 . S
C61 C62 1.391 . S
C62 C61 1.391 . S
C62 H118 0.947 . S
C62 C119 1.392 . S
C63 C64 1.391 . S
C63 C67 1.397 . S
C63 C119 1.419 . S
C64 C60 1.391 . S
C64 C63 1.391 . S
C64 C65 1.399 . S
C65 C64 1.399 . S
C65 C68 1.396 . S
C65 C77 1.453 . S
C65 C78 1.684 . S
H66 C90 0.948 . S
C67 C63 1.397 . S
C67 C68 1.394 . S
C67 C86 1.723 . S
C68 C65 1.396 . S
C68 C67 1.394 . S
C68 C98 1.723 . S
H69 C92 0.947 . S
H70 C93 0.948 . S
H71 C99 0.982 . S
H72 C100 0.979 . S
H73 C100 0.980 . S
H74 C100 0.983 . S
H75 C99 0.979 . S
H76 C99 0.977 . S
C77 C65 1.453 . S
C77 H106 0.982 . S
C77 H107 0.979 . S
C77 H108 0.977 . S
C78 C65 1.684 . S
C78 H103 0.979 . S
C78 H104 0.980 . S
C78 H105 0.983 . S
C79 C80 1.391 . S
C79 C84 1.391 . S
C79 H109 0.948 . S
C80 C79 1.391 . S
C80 C81 1.391 . S
C81 C80 1.391 . S
C81 C82 1.392 . S
C81 H110 0.947 . S
C82 C81 1.392 . S
C82 C83 1.419 . S
C82 H111 0.948 . S
C83 C82 1.419 . S
C83 C84 1.391 . S
C83 C87 1.397 . S
C84 C79 1.391 . S
C84 C83 1.391 . S
C84 C85 1.399 . S
C85 C84 1.399 . S
C85 C86 1.396 . S
C85 C88 1.453 . S
C85 C89 1.684 . S
C86 C67 1.723 . S
C86 C85 1.396 . S
C86 C87 1.394 . S
C87 C83 1.397 . S
C87 C86 1.394 . S
C87 C97 1.723 . S
C88 C85 1.453 . S
C88 H112 0.982 . S
C88 H113 0.979 . S
C88 H114 0.977 . S
C89 C85 1.684 . S
C89 H115 0.979 . S
C89 H116 0.980 . S
C89 H117 0.983 . S
C90 H66 0.948 . S
C90 C91 1.391 . S
C90 C95 1.391 . S
C91 C90 1.391 . S
C91 C92 1.391 . S
C92 H69 0.947 . S
C92 C91 1.391 . S
C92 C93 1.392 . S
C93 H70 0.948 . S
C93 C92 1.392 . S
C93 C94 1.419 . S
C94 C93 1.419 . S
C94 C95 1.391 . S
C94 C98 1.397 . S
C95 C90 1.391 . S
C95 C94 1.391 . S
C95 C96 1.399 . S
C96 C95 1.399 . S
C96 C97 1.396 . S
C96 C99 1.453 . S
C96 C100 1.684 . S
C97 C87 1.723 . S
C97 C96 1.396 . S
C97 C98 1.394 . S
C98 C68 1.723 . S
C98 C94 1.397 . S
C98 C97 1.394 . S
C99 H71 0.982 . S
C99 H75 0.979 . S
C99 H76 0.977 . S
C99 C96 1.453 . S
C100 H72 0.979 . S
C100 H73 0.980 . S
C100 H74 0.983 . S
C100 C96 1.684 . S
H101 C119 0.948 . S
H102 C60 0.948 . S
H103 C78 0.979 . S
H104 C78 0.980 . S
H105 C78 0.983 . S
H106 C77 0.982 . S
H107 C77 0.979 . S
H108 C77 0.977 . S
H109 C79 0.948 . S
H110 C81 0.947 . S
H111 C82 0.948 . S
H112 C88 0.982 . S
H113 C88 0.979 . S
H114 C88 0.977 . S
H115 C89 0.979 . S
H116 C89 0.980 . S
H117 C89 0.983 . S
H118 C62 0.947 . S
C119 C62 1.392 . S
C119 C63 1.419 . S
C119 H101 0.948 . S
C120 C121 1.391 . S
C120 C124 1.391 . S
C120 H162 0.948 . S
C121 C120 1.391 . S
C121 C122 1.391 . S
C122 C121 1.391 . S
C122 H178 0.947 . S
C122 C179 1.392 . S
C123 C124 1.391 . S
C123 C127 1.397 . S
C123 C179 1.419 . S
C124 C120 1.391 . S
C124 C123 1.391 . S
C124 C125 1.399 . S
C125 C124 1.399 . S
C125 C128 1.396 . S
C125 C137 1.453 . S
C125 C138 1.684 . S
H126 C150 0.948 . S
C127 C123 1.397 . S
C127 C128 1.394 . S
C127 C146 1.723 . S
C128 C125 1.396 . S
C128 C127 1.394 . S
C128 C158 1.723 . S
H129 C152 0.947 . S
H130 C153 0.948 . S
H131 C159 0.982 . S
H132 C160 0.979 . S
H133 C160 0.980 . S
H134 C160 0.983 . S
H135 C159 0.979 . S
H136 C159 0.977 . S
C137 C125 1.453 . S
C137 H166 0.982 . S
C137 H167 0.979 . S
C137 H168 0.977 . S
C138 C125 1.684 . S
C138 H163 0.979 . S
C138 H164 0.980 . S
C138 H165 0.983 . S
C139 C140 1.391 . S
C139 C144 1.391 . S
C139 H169 0.948 . S
C140 C139 1.391 . S
C140 C141 1.391 . S
C141 C140 1.391 . S
C141 C142 1.392 . S
C141 H170 0.947 . S
C142 C141 1.392 . S
C142 C143 1.419 . S
C142 H171 0.948 . S
C143 C142 1.419 . S
C143 C144 1.391 . S
C143 C147 1.397 . S
C144 C139 1.391 . S
C144 C143 1.391 . S
C144 C145 1.399 . S
C145 C144 1.399 . S
C145 C146 1.396 . S
C145 C148 1.453 . S
C145 C149 1.684 . S
C146 C127 1.723 . S
C146 C145 1.396 . S
C146 C147 1.394 . S
C147 C143 1.397 . S
C147 C146 1.394 . S
C147 C157 1.723 . S
C148 C145 1.453 . S
C148 H172 0.982 . S
C148 H173 0.979 . S
C148 H174 0.977 . S
C149 C145 1.684 . S
C149 H175 0.979 . S
C149 H176 0.980 . S
C149 H177 0.983 . S
C150 H126 0.948 . S
C150 C151 1.391 . S
C150 C155 1.391 . S
C151 C150 1.391 . S
C151 C152 1.391 . S
C152 H129 0.947 . S
C152 C151 1.391 . S
C152 C153 1.392 . S
C153 H130 0.948 . S
C153 C152 1.392 . S
C153 C154 1.419 . S
C154 C153 1.419 . S
C154 C155 1.391 . S
C154 C158 1.397 . S
C155 C150 1.391 . S
C155 C154 1.391 . S
C155 C156 1.399 . S
C156 C155 1.399 . S
C156 C157 1.396 . S
C156 C159 1.453 . S
C156 C160 1.684 . S
C157 C147 1.723 . S
C157 C156 1.396 . S
C157 C158 1.394 . S
C158 C128 1.723 . S
C158 C154 1.397 . S
C158 C157 1.394 . S
C159 H131 0.982 . S
C159 H135 0.979 . S
C159 H136 0.977 . S
C159 C156 1.453 . S
C160 H132 0.979 . S
C160 H133 0.980 . S
C160 H134 0.983 . S
C160 C156 1.684 . S
H161 C179 0.948 . S
H162 C120 0.948 . S
H163 C138 0.979 . S
H164 C138 0.980 . S
H165 C138 0.983 . S
H166 C137 0.982 . S
H167 C137 0.979 . S
H168 C137 0.977 . S
H169 C139 0.948 . S
H170 C141 0.947 . S
H171 C142 0.948 . S
H172 C148 0.982 . S
H173 C148 0.979 . S
H174 C148 0.977 . S
H175 C149 0.979 . S
H176 C149 0.980 . S
H177 C149 0.983 . S
H178 C122 0.947 . S
C179 C122 1.392 . S
C179 C123 1.419 . S
C179 H161 0.948 . S
C180 C181 1.391 . S
C180 C184 1.391 . S
C180 H222 0.948 . S
C181 C180 1.391 . S
C181 C182 1.391 . S
C182 C181 1.391 . S
C182 H238 0.947 . S
C182 C239 1.392 . S
C183 C184 1.391 . S
C183 C187 1.397 . S
C183 C239 1.419 . S
C184 C180 1.391 . S
C184 C183 1.391 . S
C184 C185 1.399 . S
C185 C184 1.399 . S
C185 C188 1.396 . S
C185 C197 1.453 . S
C185 C198 1.684 . S
H186 C210 0.948 . S
C187 C183 1.397 . S
C187 C188 1.394 . S
C187 C206 1.723 . S
C188 C185 1.396 . S
C188 C187 1.394 . S
C188 C218 1.723 . S
H189 C212 0.947 . S
H190 C213 0.948 . S
H191 C219 0.982 . S
H192 C220 0.979 . S
H193 C220 0.980 . S
H194 C220 0.983 . S
H195 C219 0.979 . S
H196 C219 0.977 . S
C197 C185 1.453 . S
C197 H226 0.982 . S
C197 H227 0.979 . S
C197 H228 0.977 . S
C198 C185 1.684 . S
C198 H223 0.979 . S
C198 H224 0.980 . S
C198 H225 0.983 . S
C199 C200 1.391 . S
C199 C204 1.391 . S
C199 H229 0.948 . S
C200 C199 1.391 . S
C200 C201 1.391 . S
C201 C200 1.391 . S
C201 C202 1.392 . S
C201 H230 0.947 . S
C202 C201 1.392 . S
C202 C203 1.419 . S
C202 H231 0.948 . S
C203 C202 1.419 . S
C203 C204 1.391 . S
C203 C207 1.397 . S
C204 C199 1.391 . S
C204 C203 1.391 . S
C204 C205 1.399 . S
C205 C204 1.399 . S
C205 C206 1.396 . S
C205 C208 1.453 . S
C205 C209 1.684 . S
C206 C187 1.723 . S
C206 C205 1.396 . S
C206 C207 1.394 . S
C207 C203 1.397 . S
C207 C206 1.394 . S
C207 C217 1.723 . S
C208 C205 1.453 . S
C208 H232 0.982 . S
C208 H233 0.979 . S
C208 H234 0.977 . S
C209 C205 1.684 . S
C209 H235 0.979 . S
C209 H236 0.980 . S
C209 H237 0.983 . S
C210 H186 0.948 . S
C210 C211 1.391 . S
C210 C215 1.391 . S
C211 C210 1.391 . S
C211 C212 1.391 . S
C212 H189 0.947 . S
C212 C211 1.391 . S
C212 C213 1.392 . S
C213 H190 0.948 . S
C213 C212 1.392 . S
C213 C214 1.419 . S
C214 C213 1.419 . S
C214 C215 1.391 . S
C214 C218 1.397 . S
C215 C210 1.391 . S
C215 C214 1.391 . S
C215 C216 1.399 . S
C216 C215 1.399 . S
C216 C217 1.396 . S
C216 C219 1.453 . S
C216 C220 1.684 . S
C217 C207 1.723 . S
C217 C216 1.396 . S
C217 C218 1.394 . S
C218 C188 1.723 . S
C218 C214 1.397 . S
C218 C217 1.394 . S
C219 H191 0.982 . S
C219 H195 0.979 . S
C219 H196 0.977 . S
C219 C216 1.453 . S
C220 H192 0.979 . S
C220 H193 0.980 . S
C220 H194 0.983 . S
C220 C216 1.684 . S
H221 C239 0.948 . S
H222 C180 0.948 . S
H223 C198 0.979 . S
H224 C198 0.980 . S
H225 C198 0.983 . S
H226 C197 0.982 . S
H227 C197 0.979 . S
H228 C197 0.977 . S
H229 C199 0.948 . S
H230 C201 0.947 . S
H231 C202 0.948 . S
H232 C208 0.982 . S
H233 C208 0.979 . S
H234 C208 0.977 . S
H235 C209 0.979 . S
H236 C209 0.980 . S
H237 C209 0.983 . S
H238 C182 0.947 . S
C239 C182 1.392 . S
C239 C183 1.419 . S
C239 H221 0.948 . S
C240 C241 1.391 . S
C240 C244 1.391 . S
C240 H282 0.948 . S
C241 C240 1.391 . S
C241 C242 1.391 . S
C242 C241 1.391 . S
C242 H298 0.947 . S
C242 C299 1.392 . S
C243 C244 1.391 . S
C243 C247 1.397 . S
C243 C299 1.419 . S
C244 C240 1.391 . S
C244 C243 1.391 . S
C244 C245 1.399 . S
C245 C244 1.399 . S
C245 C248 1.396 . S
C245 C257 1.453 . S
C245 C258 1.684 . S
H246 C270 0.948 . S
C247 C243 1.397 . S
C247 C248 1.394 . S
C247 C266 1.723 . S
C248 C245 1.396 . S
C248 C247 1.394 . S
C248 C278 1.723 . S
H249 C272 0.947 . S
H250 C273 0.948 . S
H251 C279 0.982 . S
H252 C280 0.979 . S
H253 C280 0.980 . S
H254 C280 0.983 . S
H255 C279 0.979 . S
H256 C279 0.977 . S
C257 C245 1.453 . S
C257 H286 0.982 . S
C257 H287 0.979 . S
C257 H288 0.977 . S
C258 C245 1.684 . S
C258 H283 0.979 . S
C258 H284 0.980 . S
C258 H285 0.983 . S
C259 C260 1.391 . S
C259 C264 1.391 . S
C259 H289 0.948 . S
C260 C259 1.391 . S
C260 C261 1.391 . S
C261 C260 1.391 . S
C261 C262 1.392 . S
C261 H290 0.947 . S
C262 C261 1.392 . S
C262 C263 1.419 . S
C262 H291 0.948 . S
C263 C262 1.419 . S
C263 C264 1.391 . S
C263 C267 1.397 . S
C264 C259 1.391 . S
C264 C263 1.391 . S
C264 C265 1.399 . S
C265 C264 1.399 . S
C265 C266 1.396 . S
C265 C268 1.453 . S
C265 C269 1.684 . S
C266 C247 1.723 . S
C266 C265 1.396 . S
C266 C267 1.394 . S
C267 C263 1.397 . S
C267 C266 1.394 . S
C267 C277 1.723 . S
C268 C265 1.453 . S
C268 H292 0.982 . S
C268 H293 0.979 . S
C268 H294 0.977 . S
C269 C265 1.684 . S
C269 H295 0.979 . S
C269 H296 0.980 . S
C269 H297 0.983 . S
C270 H246 0.948 . S
C270 C271 1.391 . S
C270 C275 1.391 . S
C271 C270 1.391 . S
C271 C272 1.391 . S
C272 H249 0.947 . S
C272 C271 1.391 . S
C272 C273 1.392 . S
C273 H250 0.948 . S
C273 C272 1.392 . S
C273 C274 1.419 . S
C274 C273 1.419 . S
C274 C275 1.391 . S
C274 C278 1.397 . S
C275 C270 1.391 . S
C275 C274 1.391 . S
C275 C276 1.399 . S
C276 C275 1.399 . S
C276 C277 1.396 . S
C276 C279 1.453 . S
C276 C280 1.684 . S
C277 C267 1.723 . S
C277 C276 1.396 . S
C277 C278 1.394 . S
C278 C248 1.723 . S
C278 C274 1.397 . S
C278 C277 1.394 . S
C279 H251 0.982 . S
C279 H255 0.979 . S
C279 H256 0.977 . S
C279 C276 1.453 . S
C280 H252 0.979 . S
C280 H253 0.980 . S
C280 H254 0.983 . S
C280 C276 1.684 . S
H281 C299 0.948 . S
H282 C240 0.948 . S
H283 C258 0.979 . S
H284 C258 0.980 . S
H285 C258 0.983 . S
H286 C257 0.982 . S
H287 C257 0.979 . S
H288 C257 0.977 . S
H289 C259 0.948 . S
H290 C261 0.947 . S
H291 C262 0.948 . S
H292 C268 0.982 . S
H293 C268 0.979 . S
H294 C268 0.977 . S
H295 C269 0.979 . S
H296 C269 0.980 . S
H297 C269 0.983 . S
H298 C242 0.947 . S
C299 C242 1.392 . S
C299 C243 1.419 . S
C299 H281 0.948 . S
C300 C301 1.391 . S
C300 C304 1.391 . S
C300 H342 0.948 . S
C301 C300 1.391 . S
C301 C302 1.391 . S
C302 C301 1.391 . S
C302 H358 0.947 . S
C302 C359 1.392 . S
C303 C304 1.391 . S
C303 C307 1.397 . S
C303 C359 1.419 . S
C304 C300 1.391 . S
C304 C303 1.391 . S
C304 C305 1.399 . S
C305 C304 1.399 . S
C305 C308 1.396 . S
C305 C317 1.453 . S
C305 C318 1.684 . S
H306 C330 0.948 . S
C307 C303 1.397 . S
C307 C308 1.394 . S
C307 C326 1.723 . S
C308 C305 1.396 . S
C308 C307 1.394 . S
C308 C338 1.723 . S
H309 C332 0.947 . S
H310 C333 0.948 . S
H311 C339 0.982 . S
H312 C340 0.979 . S
H313 C340 0.980 . S
H314 C340 0.983 . S
H315 C339 0.979 . S
H316 C339 0.977 . S
C317 C305 1.453 . S
C317 H346 0.982 . S
C317 H347 0.979 . S
C317 H348 0.977 . S
C318 C305 1.684 . S
C318 H343 0.979 . S
C318 H344 0.980 . S
C318 H345 0.983 . S
C319 C320 1.391 . S
C319 C324 1.391 . S
C319 H349 0.948 . S
C320 C319 1.391 . S
C320 C321 1.391 . S
C321 C320 1.391 . S
C321 C322 1.392 . S
C321 H350 0.947 . S
C322 C321 1.392 . S
C322 C323 1.419 . S
C322 H351 0.948 . S
C323 C322 1.419 . S
C323 C324 1.391 . S
C323 C327 1.397 . S
C324 C319 1.391 . S
C324 C323 1.391 . S
C324 C325 1.399 . S
C325 C324 1.399 . S
C325 C326 1.396 . S
C325 C328 1.453 . S
C325 C329 1.684 . S
C326 C307 1.723 . S
C326 C325 1.396 . S
C326 C327 1.394 . S
C327 C323 1.397 . S
C327 C326 1.394 . S
C327 C337 1.723 . S
C328 C325 1.453 . S
C328 H352 0.982 . S
C328 H353 0.979 . S
C328 H354 0.977 . S
C329 C325 1.684 . S
C329 H355 0.979 . S
C329 H356 0.980 . S
C329 H357 0.983 . S
C330 H306 0.948 . S
C330 C331 1.391 . S
C330 C335 1.391 . S
C331 C330 1.391 . S
C331 C332 1.391 . S
C332 H309 0.947 . S
C332 C331 1.391 . S
C332 C333 1.392 . S
C333 H310 0.948 . S
C333 C332 1.392 . S
C333 C334 1.419 . S
C334 C333 1.419 . S
C334 C335 1.391 . S
C334 C338 1.397 . S
C335 C330 1.391 . S
C335 C334 1.391 . S
C335 C336 1.399 . S
C336 C335 1.399 . S
C336 C337 1.396 . S
C336 C339 1.453 . S
C336 C340 1.684 . S
C337 C327 1.723 . S
C337 C336 1.396 . S
C337 C338 1.394 . S
C338 C308 1.723 . S
C338 C334 1.397 . S
C338 C337 1.394 . S
C339 H311 0.982 . S
C339 H315 0.979 . S
C339 H316 0.977 . S
C339 C336 1.453 . S
C340 H312 0.979 . S
C340 H313 0.980 . S
C340 H314 0.983 . S
C340 C336 1.684 . S
H341 C359 0.948 . S
H342 C300 0.948 . S
H343 C318 0.979 . S
H344 C318 0.980 . S
H345 C318 0.983 . S
H346 C317 0.982 . S
H347 C317 0.979 . S
H348 C317 0.977 . S
H349 C319 0.948 . S
H350 C321 0.947 . S
H351 C322 0.948 . S
H352 C328 0.982 . S
H353 C328 0.979 . S
H354 C328 0.977 . S
H355 C329 0.979 . S
H356 C329 0.980 . S
H357 C329 0.983 . S
H358 C302 0.947 . S
C359 C302 1.392 . S
C359 C303 1.419 . S
C359 H341 0.948 . S
C360 C361 1.391 . S
C360 C364 1.391 . S
C360 H402 0.948 . S
C361 C360 1.391 . S
C361 C362 1.391 . S
C362 C361 1.391 . S
C362 H418 0.947 . S
C362 C419 1.392 . S
C363 C364 1.391 . S
C363 C367 1.397 . S
C363 C419 1.419 . S
C364 C360 1.391 . S
C364 C363 1.391 . S
C364 C365 1.399 . S
C365 C364 1.399 . S
C365 C368 1.396 . S
C365 C377 1.453 . S
C365 C378 1.684 . S
H366 C390 0.948 . S
C367 C363 1.397 . S
C367 C368 1.394 . S
C367 C386 1.723 . S
C368 C365 1.396 . S
C368 C367 1.394 . S
C368 C398 1.723 . S
H369 C392 0.947 . S
H370 C393 0.948 . S
H371 C399 0.982 . S
H372 C400 0.979 . S
H373 C400 0.980 . S
H374 C400 0.983 . S
H375 C399 0.979 . S
H376 C399 0.977 . S
C377 C365 1.453 . S
C377 H406 0.982 . S
C377 H407 0.979 . S
C377 H408 0.977 . S
C378 C365 1.684 . S
C378 H403 0.979 . S
C378 H404 0.980 . S
C378 H405 0.983 . S
C379 C380 1.391 . S
C379 C384 1.391 . S
C379 H409 0.948 . S
C380 C379 1.391 . S
C380 C381 1.391 . S
C381 C380 1.391 . S
C381 C382 1.392 . S
C381 H410 0.947 . S
C382 C381 1.392 . S
C382 C383 1.419 . S
C382 H411 0.948 . S
C383 C382 1.419 . S
C383 C384 1.391 . S
C383 C387 1.397 . S
C384 C379 1.391 . S
C384 C383 1.391 . S
C384 C385 1.399 . S
C385 C384 1.399 . S
C385 C386 1.396 . S
C385 C388 1.453 . S
C385 C389 1.684 . S
C386 C367 1.723 . S
C386 C385 1.396 . S
C386 C387 1.394 . S
C387 C383 1.397 . S
C387 C386 1.394 . S
C387 C397 1.723 . S
C388 C385 1.453 . S
C388 H412 0.982 . S
C388 H413 0.979 . S
C388 H414 0.977 . S
C389 C385 1.684 . S
C389 H415 0.979 . S
C389 H416 0.980 . S
C389 H417 0.983 . S
C390 H366 0.948 . S
C390 C391 1.391 . S
C390 C395 1.391 . S
C391 C390 1.391 . S
C391 C392 1.391 . S
C392 H369 0.947 . S
C392 C391 1.391 . S
C392 C393 1.392 . S
C393 H370 0.948 . S
C393 C392 1.392 . S
C393 C394 1.419 . S
C394 C393 1.419 . S
C394 C395 1.391 . S
C394 C398 1.397 . S
C395 C390 1.391 . S
C395 C394 1.391 . S
C395 C396 1.399 . S
C396 C395 1.399 . S
C396 C397 1.396 . S
C396 C399 1.453 . S
C396 C400 1.684 . S
C397 C387 1.723 . S
C397 C396 1.396 . S
C397 C398 1.394 . S
C398 C368 1.723 . S
C398 C394 1.397 . S
C398 C397 1.394 . S
C399 H371 0.982 . S
C399 H375 0.979 . S
C399 H376 0.977 . S
C399 C396 1.453 . S
C400 H372 0.979 . S
C400 H373 0.980 . S
C400 H374 0.983 . S
C400 C396 1.684 . S
H401 C419 0.948 . S
H402 C360 0.948 . S
H403 C378 0.979 . S
H404 C378 0.980 . S
H405 C378 0.983 . S
H406 C377 0.982 . S
H407 C377 0.979 . S
H408 C377 0.977 . S
H409 C379 0.948 . S
H410 C381 0.947 . S
H411 C382 0.948 . S
H412 C388 0.982 . S
H413 C388 0.979 . S
H414 C388 0.977 . S
H415 C389 0.979 . S
H416 C389 0.980 . S
H417 C389 0.983 . S
H418 C362 0.947 . S
C419 C362 1.392 . S
C419 C363 1.419 . S
C419 H401 0.948 . S
C420 C421 1.391 . S
C420 C424 1.391 . S
C420 H462 0.948 . S
C421 C420 1.391 . S
C421 C422 1.391 . S
C422 C421 1.391 . S
C422 H478 0.947 . S
C422 C479 1.392 . S
C423 C424 1.391 . S
C423 C427 1.397 . S
C423 C479 1.419 . S
C424 C420 1.391 . S
C424 C423 1.391 . S
C424 C425 1.399 . S
C425 C424 1.399 . S
C425 C428 1.396 . S
C425 C437 1.453 . S
C425 C438 1.684 . S
H426 C450 0.948 . S
C427 C423 1.397 . S
C427 C428 1.394 . S
C427 C446 1.723 . S
C428 C425 1.396 . S
C428 C427 1.394 . S
C428 C458 1.723 . S
H429 C452 0.947 . S
H430 C453 0.948 . S
H431 C459 0.982 . S
H432 C460 0.979 . S
H433 C460 0.980 . S
H434 C460 0.983 . S
H435 C459 0.979 . S
H436 C459 0.977 . S
C437 C425 1.453 . S
C437 H466 0.982 . S
C437 H467 0.979 . S
C437 H468 0.977 . S
C438 C425 1.684 . S
C438 H463 0.979 . S
C438 H464 0.980 . S
C438 H465 0.983 . S
C439 C440 1.391 . S
C439 C444 1.391 . S
C439 H469 0.948 . S
C440 C439 1.391 . S
C440 C441 1.391 . S
C441 C440 1.391 . S
C441 C442 1.392 . S
C441 H470 0.947 . S
C442 C441 1.392 . S
C442 C443 1.419 . S
C442 H471 0.948 . S
C443 C442 1.419 . S
C443 C444 1.391 . S
C443 C447 1.397 . S
C444 C439 1.391 . S
C444 C443 1.391 . S
C444 C445 1.399 . S
C445 C444 1.399 . S
C445 C446 1.396 . S
C445 C448 1.453 . S
C445 C449 1.684 . S
C446 C427 1.723 . S
C446 C445 1.396 . S
C446 C447 1.394 . S
C447 C443 1.397 . S
C447 C446 1.394 . S
C447 C457 1.723 . S
C448 C445 1.453 . S
C448 H472 0.982 . S
C448 H473 0.979 . S
C448 H474 0.977 . S
C449 C445 1.684 . S
C449 H475 0.979 . S
C449 H476 0.980 . S
C449 H477 0.983 . S
C450 H426 0.948 . S
C450 C451 1.391 . S
C450 C455 1.391 . S
C451 C450 1.391 . S
C451 C452 1.391 . S
C452 H429 0.947 . S
C452 C451 1.391 . S
C452 C453 1.392 . S
C453 H430 0.948 . S
C453 C452 1.392 . S
C453 C454 1.419 . S
C454 C453 1.419 . S
C454 C455 1.391 . S
C454 C458 1.397 . S
C455 C450 1.391 . S
C455 C454 1.391 . S
C455 C456 1.399 . S
C456 C455 1.399 . S
C456 C457 1.396 . S
C456 C459 1.453 . S
C456 C460 1.684 . S
C457 C447 1.723 . S
C457 C456 1.396 . S
C457 C458 1.394 . S
C458 C428 1.723 . S
C458 C454 1.397 . S
C458 C457 1.394 . S
C459 H431 0.982 . S
C459 H435 0.979 . S
C459 H436 0.977 . S
C459 C456 1.453 . S
C460 H432 0.979 . S
C460 H433 0.980 . S
C460 H434 0.983 . S
C460 C456 1.684 . S
H461 C479 0.948 . S
H462 C420 0.948 . S
H463 C438 0.979 . S
H464 C438 0.980 . S
H465 C438 0.983 . S
H466 C437 0.982 . S
H467 C437 0.979 . S
H468 C437 0.977 . S
H469 C439 0.948 . S
H470 C441 0.947 . S
H471 C442 0.948 . S
H472 C448 0.982 . S
H473 C448 0.979 . S
H474 C448 0.977 . S
H475 C449 0.979 . S
H476 C449 0.980 . S
H477 C449 0.983 . S
H478 C422 0.947 . S
C479 C422 1.392 . S
C479 C423 1.419 . S
C479 H461 0.948 . S
Ho480 C483 2.811 . S
Ho480 O500 2.322 . S
Ho480 O502 2.378 . S
Ho480 O503 2.524 . S
Ho480 O504 2.381 1_545 S
Ho480 O505 2.669 1_545 S
Ho480 O507 2.346 1_445 S
Ho480 O511 2.305 1_455 S
Ho481 C492 2.811 . S
Ho481 O501 2.346 1_665 S
Ho481 O505 2.305 1_655 S
Ho481 O506 2.322 . S
Ho481 O508 2.378 . S
Ho481 O509 2.524 . S
Ho481 O510 2.381 1_565 S
Ho481 O511 2.669 1_565 S
C482 O500 1.259 . S
C482 O501 1.268 . S
C483 Ho480 2.811 . S
C483 C484 1.488 . S
C483 O502 1.215 . S
C483 O503 1.289 . S
C484 C483 1.488 . S
C484 C485 1.348 . S
C484 C489 1.413 . S
C485 C484 1.348 . S
C485 C486 1.442 . S
C485 H512 0.930 . S
C486 C485 1.442 . S
C486 C487 1.381 . S
C486 H513 0.931 . S
C487 C486 1.381 . S
C487 C488 1.321 . S
C488 C487 1.321 . S
C488 C489 1.403 . S
C488 H514 0.934 . S
C489 C484 1.413 . S
C489 C488 1.403 . S
C489 H515 0.930 . S
C490 O504 1.275 . S
C490 O505 1.256 . S
C491 O506 1.259 . S
C491 O507 1.268 . S
C492 Ho481 2.811 . S
C492 C493 1.488 . S
C492 O508 1.215 . S
C492 O509 1.289 . S
C493 C492 1.488 . S
C493 C494 1.348 . S
C493 C498 1.413 . S
C494 C493 1.348 . S
C494 C495 1.442 . S
C494 H516 0.930 . S
C495 C494 1.442 . S
C495 C496 1.381 . S
C495 H517 0.931 . S
C496 C495 1.381 . S
C496 C497 1.321 . S
C497 C496 1.321 . S
C497 C498 1.403 . S
C497 H518 0.934 . S
C498 C493 1.413 . S
C498 C497 1.403 . S
C498 H519 0.930 . S
C499 O510 1.275 . S
C499 O511 1.256 . S
O500 Ho480 2.322 . S
O500 C482 1.259 . S
O501 Ho481 2.346 1_445 S
O501 C482 1.268 . S
O502 Ho480 2.378 . S
O502 C483 1.215 . S
O503 Ho480 2.524 . S
O503 C483 1.289 . S
O504 Ho480 2.381 1_565 S
O504 C490 1.275 . S
O505 Ho480 2.669 1_565 S
O505 Ho481 2.305 1_455 S
O505 C490 1.256 . S
O506 Ho481 2.322 . S
O506 C491 1.259 . S
O507 Ho480 2.346 1_665 S
O507 C491 1.268 . S
O508 Ho481 2.378 . S
O508 C492 1.215 . S
O509 Ho481 2.524 . S
O509 C492 1.289 . S
O510 Ho481 2.381 1_545 S
O510 C499 1.275 . S
O511 Ho480 2.305 1_655 S
O511 Ho481 2.669 1_545 S
O511 C499 1.256 . S
H512 C485 0.930 . S
H513 C486 0.931 . S
H514 C488 0.934 . S
H515 C489 0.930 . S
H516 C494 0.930 . S
H517 C495 0.931 . S
H518 C497 0.934 . S
H519 C498 0.930 . S
Ho520 C523 2.789 1_565 S
Ho520 O540 2.299 1_565 S
Ho520 O542 2.375 1_565 S
Ho520 O543 2.486 1_565 S
Ho520 O544 2.414 . S
Ho520 O545 2.686 . S
Ho520 O547 2.371 1_554 S
Ho520 O551 2.275 1_564 S
Ho521 C532 2.811 1_545 S
Ho521 O541 2.346 1_556 S
Ho521 O545 2.305 1_546 S
Ho521 O546 2.322 1_545 S
Ho521 O548 2.378 1_545 S
Ho521 O549 2.524 1_545 S
Ho521 O550 2.381 . S
Ho521 O551 2.669 . S
C522 O540 1.259 . S
C522 O541 1.268 . S
C523 Ho520 2.789 1_545 S
C523 C524 1.488 . S
C523 O542 1.215 . S
C523 O543 1.289 . S
C524 C523 1.488 . S
C524 C525 1.348 . S
C524 C529 1.413 . S
C525 C524 1.348 . S
C525 C526 1.442 . S
C525 H552 0.930 . S
C526 C525 1.442 . S
C526 C527 1.381 . S
C526 H553 0.931 . S
C527 C526 1.381 . S
C527 C528 1.321 . S
C528 C527 1.321 . S
C528 C529 1.403 . S
C528 H554 0.934 . S
C529 C524 1.413 . S
C529 C528 1.403 . S
C529 H555 0.930 . S
C530 O544 1.275 . S
C530 O545 1.256 . S
C531 O546 1.259 . S
C531 O547 1.268 . S
C532 Ho521 2.811 1_565 S
C532 C533 1.488 . S
C532 O548 1.215 . S
C532 O549 1.289 . S
C533 C532 1.488 . S
C533 C534 1.348 . S
C533 C538 1.413 . S
C534 C533 1.348 . S
C534 C535 1.442 . S
C534 H556 0.930 . S
C535 C534 1.442 . S
C535 C536 1.381 . S
C535 H557 0.931 . S
C536 C535 1.381 . S
C536 C537 1.321 . S
C537 C536 1.321 . S
C537 C538 1.403 . S
C537 H558 0.934 . S
C538 C533 1.413 . S
C538 C537 1.403 . S
C538 H559 0.930 . S
C539 O550 1.275 . S
C539 O551 1.256 . S
O540 Ho520 2.299 1_545 S
O540 C522 1.259 . S
O541 Ho521 2.346 1_554 S
O541 C522 1.268 . S
O542 Ho520 2.375 1_545 S
O542 C523 1.215 . S
O543 Ho520 2.486 1_545 S
O543 C523 1.289 . S
O544 Ho520 2.414 . S
O544 C530 1.275 . S
O545 Ho520 2.686 . S
O545 Ho521 2.305 1_564 S
O545 C530 1.256 . S
O546 Ho521 2.322 1_565 S
O546 C531 1.259 . S
O547 Ho520 2.371 1_556 S
O547 C531 1.268 . S
O548 Ho521 2.378 1_565 S
O548 C532 1.215 . S
O549 Ho521 2.524 1_565 S
O549 C532 1.289 . S
O550 Ho521 2.381 . S
O550 C539 1.275 . S
O551 Ho520 2.275 1_546 S
O551 Ho521 2.669 . S
O551 C539 1.256 . S
H552 C525 0.930 . S
H553 C526 0.931 . S
H554 C528 0.934 . S
H555 C529 0.930 . S
H556 C534 0.930 . S
H557 C535 0.931 . S
H558 C537 0.934 . S
H559 C538 0.930 . S
Ho560 C563 2.811 . S
Ho560 O580 2.322 . S
Ho560 O582 2.378 . S
Ho560 O583 2.524 . S
Ho560 O584 2.381 . S
Ho560 O585 2.669 . S
Ho560 O587 2.346 . S
Ho560 O591 2.305 . S
Ho561 C572 2.811 . S
Ho561 O581 2.346 . S
Ho561 O585 2.305 . S
Ho561 O586 2.322 . S
Ho561 O588 2.378 . S
Ho561 O589 2.524 . S
Ho561 O590 2.381 . S
Ho561 O591 2.669 . S
C562 O580 1.259 . S
C562 O581 1.268 . S
C563 Ho560 2.811 . S
C563 C564 1.488 . S
C563 O582 1.215 . S
C563 O583 1.289 . S
C564 C563 1.488 . S
C564 C565 1.348 . S
C564 C569 1.413 . S
C565 C564 1.348 . S
C565 C566 1.442 . S
C565 H592 0.930 . S
C566 C565 1.442 . S
C566 C567 1.381 . S
C566 H593 0.931 . S
C567 C566 1.381 . S
C567 C568 1.321 . S
C568 C567 1.321 . S
C568 C569 1.403 . S
C568 H594 0.934 . S
C569 C564 1.413 . S
C569 C568 1.403 . S
C569 H595 0.930 . S
C570 O584 1.275 . S
C570 O585 1.256 . S
C571 O586 1.259 . S
C571 O587 1.268 . S
C572 Ho561 2.811 . S
C572 C573 1.488 . S
C572 O588 1.215 . S
C572 O589 1.289 . S
C573 C572 1.488 . S
C573 C574 1.348 . S
C573 C578 1.413 . S
C574 C573 1.348 . S
C574 C575 1.442 . S
C574 H596 0.930 . S
C575 C574 1.442 . S
C575 C576 1.381 . S
C575 H597 0.931 . S
C576 C575 1.381 . S
C576 C577 1.321 . S
C577 C576 1.321 . S
C577 C578 1.403 . S
C577 H598 0.934 . S
C578 C573 1.413 . S
C578 C577 1.403 . S
C578 H599 0.930 . S
C579 O590 1.275 . S
C579 O591 1.256 . S
O580 Ho560 2.322 . S
O580 C562 1.259 . S
O581 Ho561 2.346 . S
O581 C562 1.268 . S
O582 Ho560 2.378 . S
O582 C563 1.215 . S
O583 Ho560 2.524 . S
O583 C563 1.289 . S
O584 Ho560 2.381 . S
O584 C570 1.275 . S
O585 Ho560 2.669 . S
O585 Ho561 2.305 . S
O585 C570 1.256 . S
O586 Ho561 2.322 . S
O586 C571 1.259 . S
O587 Ho560 2.346 . S
O587 C571 1.268 . S
O588 Ho561 2.378 . S
O588 C572 1.215 . S
O589 Ho561 2.524 . S
O589 C572 1.289 . S
O590 Ho561 2.381 . S
O590 C579 1.275 . S
O591 Ho560 2.305 . S
O591 Ho561 2.669 . S
O591 C579 1.256 . S
H592 C565 0.930 . S
H593 C566 0.931 . S
H594 C568 0.934 . S
H595 C569 0.930 . S
H596 C574 0.930 . S
H597 C575 0.931 . S
H598 C577 0.934 . S
H599 C578 0.930 . S
Ho600 C603 2.811 . S
Ho600 O620 2.322 . S
Ho600 O622 2.378 . S
Ho600 O623 2.524 . S
Ho600 O624 2.381 1_455 S
Ho600 O625 2.669 1_455 S
Ho600 O627 2.346 1_454 S
Ho600 O631 2.305 1_554 S
Ho601 C612 2.811 . S
Ho601 O621 2.346 1_656 S
Ho601 O625 2.305 1_556 S
Ho601 O626 2.322 . S
Ho601 O628 2.378 . S
Ho601 O629 2.524 . S
Ho601 O630 2.381 1_655 S
Ho601 O631 2.669 1_655 S
C602 O620 1.259 . S
C602 O621 1.268 . S
C603 Ho600 2.811 . S
C603 C604 1.488 . S
C603 O622 1.215 . S
C603 O623 1.289 . S
C604 C603 1.488 . S
C604 C605 1.348 . S
C604 C609 1.413 . S
C605 C604 1.348 . S
C605 C606 1.442 . S
C605 H632 0.930 . S
C606 C605 1.442 . S
C606 C607 1.381 . S
C606 H633 0.931 . S
C607 C606 1.381 . S
C607 C608 1.321 . S
C608 C607 1.321 . S
C608 C609 1.403 . S
C608 H634 0.934 . S
C609 C604 1.413 . S
C609 C608 1.403 . S
C609 H635 0.930 . S
C610 O624 1.275 . S
C610 O625 1.256 . S
C611 O626 1.259 . S
C611 O627 1.268 . S
C612 Ho601 2.811 . S
C612 C613 1.488 . S
C612 O628 1.215 . S
C612 O629 1.289 . S
C613 C612 1.488 . S
C613 C614 1.348 . S
C613 C618 1.413 . S
C614 C613 1.348 . S
C614 C615 1.442 . S
C614 H636 0.930 . S
C615 C614 1.442 . S
C615 C616 1.381 . S
C615 H637 0.931 . S
C616 C615 1.381 . S
C616 C617 1.321 . S
C617 C616 1.321 . S
C617 C618 1.403 . S
C617 H638 0.934 . S
C618 C613 1.413 . S
C618 C617 1.403 . S
C618 H639 0.930 . S
C619 O630 1.275 . S
C619 O631 1.256 . S
O620 Ho600 2.322 . S
O620 C602 1.259 . S
O621 Ho601 2.346 1_454 S
O621 C602 1.268 . S
O622 Ho600 2.378 . S
O622 C603 1.215 . S
O623 Ho600 2.524 . S
O623 C603 1.289 . S
O624 Ho600 2.381 1_655 S
O624 C610 1.275 . S
O625 Ho600 2.669 1_655 S
O625 Ho601 2.305 1_554 S
O625 C610 1.256 . S
O626 Ho601 2.322 . S
O626 C611 1.259 . S
O627 Ho600 2.346 1_656 S
O627 C611 1.268 . S
O628 Ho601 2.378 . S
O628 C612 1.215 . S
O629 Ho601 2.524 . S
O629 C612 1.289 . S
O630 Ho601 2.381 1_455 S
O630 C619 1.275 . S
O631 Ho600 2.305 1_556 S
O631 Ho601 2.669 1_455 S
O631 C619 1.256 . S
H632 C605 0.930 . S
H633 C606 0.931 . S
H634 C608 0.934 . S
H635 C609 0.930 . S
H636 C614 0.930 . S
H637 C615 0.931 . S
H638 C617 0.934 . S
H639 C618 0.930 . S
C640 C641 1.391 . S
C640 C642 1.394 . S
C640 H656 0.931 . S
C641 C640 1.391 . S
C641 C645 1.376 . S
C642 C640 1.394 . S
C642 C643 1.369 . S
C642 C646 1.531 . S
C643 C642 1.369 . S
C643 C644 1.410 . S
C643 C651 1.503 . S
C644 C643 1.410 . S
C644 C645 1.392 . S
C644 C647 1.511 . S
C645 C641 1.376 . S
C645 C644 1.392 . S
C645 H657 0.929 . S
C646 C642 1.531 . S
C646 H658 0.960 . S
C646 H659 0.962 . S
C646 H660 0.960 . S
C647 C644 1.511 . S
C647 H661 0.961 . S
C647 H662 0.961 . S
C647 H663 0.961 . S
C648 C649 1.370 . S
C648 C650 1.363 . S
C648 H664 0.931 . S
C649 C648 1.370 . S
C649 C653 1.408 . S
C650 C648 1.363 . S
C650 C651 1.370 . S
C650 C654 1.524 . S
C651 C643 1.503 . S
C651 C650 1.370 . S
C651 C652 1.403 . S
C652 C651 1.403 . S
C652 C653 1.404 . S
C652 C655 1.539 . S
C653 C649 1.408 . S
C653 C652 1.404 . S
C653 H665 0.930 . S
C654 C650 1.524 . S
C654 H666 0.956 . S
C654 H667 0.961 . S
C654 H668 0.961 . S
C655 C652 1.539 . S
C655 H669 0.958 . S
C655 H670 0.961 . S
C655 H671 0.960 . S
H656 C640 0.931 . S
H657 C645 0.929 . S
H658 C646 0.960 . S
H659 C646 0.962 . S
H660 C646 0.960 . S
H661 C647 0.961 . S
H662 C647 0.961 . S
H663 C647 0.961 . S
H664 C648 0.931 . S
H665 C653 0.930 . S
H666 C654 0.956 . S
H667 C654 0.961 . S
H668 C654 0.961 . S
H669 C655 0.958 . S
H670 C655 0.961 . S
H671 C655 0.960 . S
C672 C673 1.391 . S
C672 C674 1.394 . S
C672 H688 0.931 . S
C673 C672 1.391 . S
C673 C677 1.376 . S
C674 C672 1.394 . S
C674 C675 1.369 . S
C674 C678 1.531 . S
C675 C674 1.369 . S
C675 C676 1.410 . S
C675 C683 1.503 . S
C676 C675 1.410 . S
C676 C677 1.392 . S
C676 C679 1.511 . S
C677 C673 1.376 . S
C677 C676 1.392 . S
C677 H689 0.929 . S
C678 C674 1.531 . S
C678 H690 0.960 . S
C678 H691 0.962 . S
C678 H692 0.960 . S
C679 C676 1.511 . S
C679 H693 0.961 . S
C679 H694 0.961 . S
C679 H695 0.961 . S
C680 C681 1.370 . S
C680 C682 1.363 . S
C680 H696 0.931 . S
C681 C680 1.370 . S
C681 C685 1.408 . S
C682 C680 1.363 . S
C682 C683 1.370 . S
C682 C686 1.524 . S
C683 C675 1.503 . S
C683 C682 1.370 . S
C683 C684 1.403 . S
C684 C683 1.403 . S
C684 C685 1.404 . S
C684 C687 1.539 . S
C685 C681 1.408 . S
C685 C684 1.404 . S
C685 H697 0.930 . S
C686 C682 1.524 . S
C686 H698 0.956 . S
C686 H699 0.961 . S
C686 H700 0.961 . S
C687 C684 1.539 . S
C687 H701 0.958 . S
C687 H702 0.961 . S
C687 H703 0.960 . S
H688 C672 0.931 . S
H689 C677 0.929 . S
H690 C678 0.960 . S
H691 C678 0.962 . S
H692 C678 0.960 . S
H693 C679 0.961 . S
H694 C679 0.961 . S
H695 C679 0.961 . S
H696 C680 0.931 . S
H697 C685 0.930 . S
H698 C686 0.956 . S
H699 C686 0.961 . S
H700 C686 0.961 . S
H701 C687 0.958 . S
H702 C687 0.961 . S
H703 C687 0.960 . S
C704 C705 1.391 . S
C704 C706 1.394 . S
C704 H720 0.931 . S
C705 C704 1.391 . S
C705 C709 1.376 . S
C706 C704 1.394 . S
C706 C707 1.369 . S
C706 C710 1.531 . S
C707 C706 1.369 . S
C707 C708 1.410 . S
C707 C715 1.503 . S
C708 C707 1.410 . S
C708 C709 1.392 . S
C708 C711 1.511 . S
C709 C705 1.376 . S
C709 C708 1.392 . S
C709 H721 0.929 . S
C710 C706 1.531 . S
C710 H722 0.960 . S
C710 H723 0.962 . S
C710 H724 0.960 . S
C711 C708 1.511 . S
C711 H725 0.961 . S
C711 H726 0.961 . S
C711 H727 0.961 . S
C712 C713 1.370 . S
C712 C714 1.363 . S
C712 H728 0.931 . S
C713 C712 1.370 . S
C713 C717 1.408 . S
C714 C712 1.363 . S
C714 C715 1.370 . S
C714 C718 1.524 . S
C715 C707 1.503 . S
C715 C714 1.370 . S
C715 C716 1.403 . S
C716 C715 1.403 . S
C716 C717 1.404 . S
C716 C719 1.539 . S
C717 C713 1.408 . S
C717 C716 1.404 . S
C717 H729 0.930 . S
C718 C714 1.524 . S
C718 H730 0.956 . S
C718 H731 0.961 . S
C718 H732 0.961 . S
C719 C716 1.539 . S
C719 H733 0.958 . S
C719 H734 0.961 . S
C719 H735 0.960 . S
H720 C704 0.931 . S
H721 C709 0.929 . S
H722 C710 0.960 . S
H723 C710 0.962 . S
H724 C710 0.960 . S
H725 C711 0.961 . S
H726 C711 0.961 . S
H727 C711 0.961 . S
H728 C712 0.931 . S
H729 C717 0.930 . S
H730 C718 0.956 . S
H731 C718 0.961 . S
H732 C718 0.961 . S
H733 C719 0.958 . S
H734 C719 0.961 . S
H735 C719 0.960 . S
C736 C737 1.391 . S
C736 C738 1.394 . S
C736 H752 0.931 . S
C737 C736 1.391 . S
C737 C741 1.376 . S
C738 C736 1.394 . S
C738 C739 1.369 . S
C738 C742 1.531 . S
C739 C738 1.369 . S
C739 C740 1.410 . S
C739 C747 1.503 . S
C740 C739 1.410 . S
C740 C741 1.392 . S
C740 C743 1.511 . S
C741 C737 1.376 . S
C741 C740 1.392 . S
C741 H753 0.929 . S
C742 C738 1.531 . S
C742 H754 0.960 . S
C742 H755 0.962 . S
C742 H756 0.960 . S
C743 C740 1.511 . S
C743 H757 0.961 . S
C743 H758 0.961 . S
C743 H759 0.961 . S
C744 C745 1.370 . S
C744 C746 1.363 . S
C744 H760 0.931 . S
C745 C744 1.370 . S
C745 C749 1.408 . S
C746 C744 1.363 . S
C746 C747 1.370 . S
C746 C750 1.524 . S
C747 C739 1.503 . S
C747 C746 1.370 . S
C747 C748 1.403 . S
C748 C747 1.403 . S
C748 C749 1.404 . S
C748 C751 1.539 . S
C749 C745 1.408 . S
C749 C748 1.404 . S
C749 H761 0.930 . S
C750 C746 1.524 . S
C750 H762 0.956 . S
C750 H763 0.961 . S
C750 H764 0.961 . S
C751 C748 1.539 . S
C751 H765 0.958 . S
C751 H766 0.961 . S
C751 H767 0.960 . S
H752 C736 0.931 . S
H753 C741 0.929 . S
H754 C742 0.960 . S
H755 C742 0.962 . S
H756 C742 0.960 . S
H757 C743 0.961 . S
H758 C743 0.961 . S
H759 C743 0.961 . S
H760 C744 0.931 . S
H761 C749 0.930 . S
H762 C750 0.956 . S
H763 C750 0.961 . S
H764 C750 0.961 . S
H765 C751 0.958 . S
H766 C751 0.961 . S
H767 C751 0.960 . S
C768 C769 1.391 . S
C768 C770 1.394 . S
C768 H784 0.931 . S
C769 C768 1.391 . S
C769 C773 1.376 . S
C770 C768 1.394 . S
C770 C771 1.369 . S
C770 C774 1.531 . S
C771 C770 1.369 . S
C771 C772 1.410 . S
C771 C779 1.503 . S
C772 C771 1.410 . S
C772 C773 1.392 . S
C772 C775 1.511 . S
C773 C769 1.376 . S
C773 C772 1.392 . S
C773 H785 0.929 . S
C774 C770 1.531 . S
C774 H786 0.960 . S
C774 H787 0.962 . S
C774 H788 0.960 . S
C775 C772 1.511 . S
C775 H789 0.961 . S
C775 H790 0.961 . S
C775 H791 0.961 . S
C776 C777 1.370 . S
C776 C778 1.363 . S
C776 H792 0.931 . S
C777 C776 1.370 . S
C777 C781 1.408 . S
C778 C776 1.363 . S
C778 C779 1.370 . S
C778 C782 1.524 . S
C779 C771 1.503 . S
C779 C778 1.370 . S
C779 C780 1.403 . S
C780 C779 1.403 . S
C780 C781 1.404 . S
C780 C783 1.539 . S
C781 C777 1.408 . S
C781 C780 1.404 . S
C781 H793 0.930 . S
C782 C778 1.524 . S
C782 H794 0.956 . S
C782 H795 0.961 . S
C782 H796 0.961 . S
C783 C780 1.539 . S
C783 H797 0.958 . S
C783 H798 0.961 . S
C783 H799 0.960 . S
H784 C768 0.931 . S
H785 C773 0.929 . S
H786 C774 0.960 . S
H787 C774 0.962 . S
H788 C774 0.960 . S
H789 C775 0.961 . S
H790 C775 0.961 . S
H791 C775 0.961 . S
H792 C776 0.931 . S
H793 C781 0.930 . S
H794 C782 0.956 . S
H795 C782 0.961 . S
H796 C782 0.961 . S
H797 C783 0.958 . S
H798 C783 0.961 . S
H799 C783 0.960 . S
C800 C801 1.391 . S
C800 C802 1.394 . S
C800 H816 0.931 . S
C801 C800 1.391 . S
C801 C805 1.376 . S
C802 C800 1.394 . S
C802 C803 1.369 . S
C802 C806 1.531 . S
C803 C802 1.369 . S
C803 C804 1.410 . S
C803 C811 1.503 . S
C804 C803 1.410 . S
C804 C805 1.392 . S
C804 C807 1.511 . S
C805 C801 1.376 . S
C805 C804 1.392 . S
C805 H817 0.929 . S
C806 C802 1.531 . S
C806 H818 0.960 . S
C806 H819 0.962 . S
C806 H820 0.960 . S
C807 C804 1.511 . S
C807 H821 0.961 . S
C807 H822 0.961 . S
C807 H823 0.961 . S
C808 C809 1.370 . S
C808 C810 1.363 . S
C808 H824 0.931 . S
C809 C808 1.370 . S
C809 C813 1.408 . S
C810 C808 1.363 . S
C810 C811 1.370 . S
C810 C814 1.524 . S
C811 C803 1.503 . S
C811 C810 1.370 . S
C811 C812 1.403 . S
C812 C811 1.403 . S
C812 C813 1.404 . S
C812 C815 1.539 . S
C813 C809 1.408 . S
C813 C812 1.404 . S
C813 H825 0.930 . S
C814 C810 1.524 . S
C814 H826 0.956 . S
C814 H827 0.961 . S
C814 H828 0.961 . S
C815 C812 1.539 . S
C815 H829 0.958 . S
C815 H830 0.961 . S
C815 H831 0.960 . S
H816 C800 0.931 . S
H817 C805 0.929 . S
H818 C806 0.960 . S
H819 C806 0.962 . S
H820 C806 0.960 . S
H821 C807 0.961 . S
H822 C807 0.961 . S
H823 C807 0.961 . S
H824 C808 0.931 . S
H825 C813 0.930 . S
H826 C814 0.956 . S
H827 C814 0.961 . S
H828 C814 0.961 . S
H829 C815 0.958 . S
H830 C815 0.961 . S
H831 C815 0.960 . S
C832 C833 1.391 . S
C832 C834 1.394 . S
C832 H848 0.931 . S
C833 C832 1.391 . S
C833 C837 1.376 . S
C834 C832 1.394 . S
C834 C835 1.369 . S
C834 C838 1.531 . S
C835 C834 1.369 . S
C835 C836 1.410 . S
C835 C843 1.503 . S
C836 C835 1.410 . S
C836 C837 1.392 . S
C836 C839 1.511 . S
C837 C833 1.376 . S
C837 C836 1.392 . S
C837 H849 0.929 . S
C838 C834 1.531 . S
C838 H850 0.960 . S
C838 H851 0.962 . S
C838 H852 0.960 . S
C839 C836 1.511 . S
C839 H853 0.961 . S
C839 H854 0.961 . S
C839 H855 0.961 . S
C840 C841 1.370 . S
C840 C842 1.363 . S
C840 H856 0.931 . S
C841 C840 1.370 . S
C841 C845 1.408 . S
C842 C840 1.363 . S
C842 C843 1.370 . S
C842 C846 1.524 . S
C843 C835 1.503 . S
C843 C842 1.370 . S
C843 C844 1.403 . S
C844 C843 1.403 . S
C844 C845 1.404 . S
C844 C847 1.539 . S
C845 C841 1.408 . S
C845 C844 1.404 . S
C845 H857 0.934 . S
C846 C842 1.524 . S
C846 H858 0.956 . S
C846 H859 0.961 . S
C846 H860 0.961 . S
C847 C844 1.539 . S
C847 H861 0.958 . S
C847 H862 0.961 . S
C847 H863 0.960 . S
H848 C832 0.931 . S
H849 C837 0.929 . S
H850 C838 0.960 . S
H851 C838 0.962 . S
H852 C838 0.960 . S
H853 C839 0.961 . S
H854 C839 0.961 . S
H855 C839 0.961 . S
H856 C840 0.931 . S
H857 C845 0.934 . S
H858 C846 0.956 . S
H859 C846 0.961 . S
H860 C846 0.961 . S
H861 C847 0.958 . S
H862 C847 0.961 . S
H863 C847 0.960 . S
C864 C865 1.391 . S
C864 C866 1.394 . S
C864 H880 0.931 . S
C865 C864 1.391 . S
C865 C869 1.376 . S
C866 C864 1.394 . S
C866 C867 1.369 . S
C866 C870 1.531 . S
C867 C866 1.369 . S
C867 C868 1.410 . S
C867 C875 1.503 . S
C868 C867 1.410 . S
C868 C869 1.392 . S
C868 C871 1.511 . S
C869 C865 1.376 . S
C869 C868 1.392 . S
C869 H881 0.929 . S
C870 C866 1.531 . S
C870 H882 0.960 . S
C870 H883 0.962 . S
C870 H884 0.960 . S
C871 C868 1.511 . S
C871 H885 0.961 . S
C871 H886 0.961 . S
C871 H887 0.961 . S
C872 C873 1.370 . S
C872 C874 1.363 . S
C872 H888 0.931 . S
C873 C872 1.370 . S
C873 C877 1.408 . S
C874 C872 1.363 . S
C874 C875 1.370 . S
C874 C878 1.524 . S
C875 C867 1.503 . S
C875 C874 1.370 . S
C875 C876 1.403 . S
C876 C875 1.403 . S
C876 C877 1.404 . S
C876 C879 1.539 . S
C877 C873 1.408 . S
C877 C876 1.404 . S
C877 H889 0.930 . S
C878 C874 1.524 . S
C878 H890 0.956 . S
C878 H891 0.961 . S
C878 H892 0.961 . S
C879 C876 1.539 . S
C879 H893 0.958 . S
C879 H894 0.961 . S
C879 H895 0.960 . S
H880 C864 0.931 . S
H881 C869 0.929 . S
H882 C870 0.960 . S
H883 C870 0.962 . S
H884 C870 0.960 . S
H885 C871 0.961 . S
H886 C871 0.961 . S
H887 C871 0.961 . S
H888 C872 0.931 . S
H889 C877 0.930 . S
H890 C878 0.956 . S
H891 C878 0.961 . S
H892 C878 0.961 . S
H893 C879 0.958 . S
H894 C879 0.961 . S
H895 C879 0.960 . S
C896 C897 1.391 . S
C896 C898 1.394 . S
C896 H912 0.931 . S
C897 C896 1.391 . S
C897 C901 1.376 . S
C898 C896 1.394 . S
C898 C899 1.369 . S
C898 C902 1.531 . S
C899 C898 1.369 . S
C899 C900 1.410 . S
C899 C907 1.503 . S
C900 C899 1.410 . S
C900 C901 1.392 . S
C900 C903 1.511 . S
C901 C897 1.376 . S
C901 C900 1.392 . S
C901 H913 0.929 . S
C902 C898 1.531 . S
C902 H914 0.960 . S
C902 H915 0.962 . S
C902 H916 0.960 . S
C903 C900 1.511 . S
C903 H917 0.961 . S
C903 H918 0.961 . S
C903 H919 0.961 . S
C904 C905 1.370 . S
C904 C906 1.363 . S
C904 H920 0.931 . S
C905 C904 1.370 . S
C905 C909 1.408 . S
C906 C904 1.363 . S
C906 C907 1.370 . S
C906 C910 1.524 . S
C907 C899 1.503 . S
C907 C906 1.370 . S
C907 C908 1.403 . S
C908 C907 1.403 . S
C908 C909 1.404 . S
C908 C911 1.539 . S
C909 C905 1.408 . S
C909 C908 1.404 . S
C909 H921 0.930 . S
C910 C906 1.524 . S
C910 H922 0.956 . S
C910 H923 0.961 . S
C910 H924 0.961 . S
C911 C908 1.539 . S
C911 H925 0.958 . S
C911 H926 0.961 . S
C911 H927 0.960 . S
H912 C896 0.931 . S
H913 C901 0.929 . S
H914 C902 0.960 . S
H915 C902 0.962 . S
H916 C902 0.960 . S
H917 C903 0.961 . S
H918 C903 0.961 . S
H919 C903 0.961 . S
H920 C904 0.931 . S
H921 C909 0.930 . S
H922 C910 0.956 . S
H923 C910 0.961 . S
H924 C910 0.961 . S
H925 C911 0.958 . S
H926 C911 0.961 . S
H927 C911 0.960 . S
C928 C929 1.391 . S
C928 C930 1.394 . S
C928 H944 0.931 . S
C929 C928 1.391 . S
C929 C933 1.376 . S
C930 C928 1.394 . S
C930 C931 1.369 . S
C930 C934 1.531 . S
C931 C930 1.369 . S
C931 C932 1.410 . S
C931 C939 1.503 . S
C932 C931 1.410 . S
C932 C933 1.392 . S
C932 C935 1.511 . S
C933 C929 1.376 . S
C933 C932 1.392 . S
C933 H945 0.929 . S
C934 C930 1.531 . S
C934 H946 0.960 . S
C934 H947 0.962 . S
C934 H948 0.960 . S
C935 C932 1.511 . S
C935 H949 0.961 . S
C935 H950 0.961 . S
C935 H951 0.961 . S
C936 C937 1.370 . S
C936 C938 1.363 . S
C936 H952 0.931 . S
C937 C936 1.370 . S
C937 C941 1.408 . S
C938 C936 1.363 . S
C938 C939 1.370 . S
C938 C942 1.524 . S
C939 C931 1.503 . S
C939 C938 1.370 . S
C939 C940 1.403 . S
C940 C939 1.403 . S
C940 C941 1.404 . S
C940 C943 1.539 . S
C941 C937 1.408 . S
C941 C940 1.404 . S
C941 H953 0.930 . S
C942 C938 1.524 . S
C942 H954 0.956 . S
C942 H955 0.961 . S
C942 H956 0.961 . S
C943 C940 1.539 . S
C943 H957 0.958 . S
C943 H958 0.961 . S
C943 H959 0.960 . S
H944 C928 0.931 . S
H945 C933 0.929 . S
H946 C934 0.960 . S
H947 C934 0.962 . S
H948 C934 0.960 . S
H949 C935 0.961 . S
H950 C935 0.961 . S
H951 C935 0.961 . S
H952 C936 0.931 . S
H953 C941 0.930 . S
H954 C942 0.956 . S
H955 C942 0.961 . S
H956 C942 0.961 . S
H957 C943 0.958 . S
H958 C943 0.961 . S
H959 C943 0.960 . S
C960 C961 1.391 . S
C960 C962 1.394 . S
C960 H976 0.931 . S
C961 C960 1.391 . S
C961 C965 1.376 . S
C962 C960 1.394 . S
C962 C963 1.369 . S
C962 C966 1.531 . S
C963 C962 1.369 . S
C963 C964 1.410 . S
C963 C971 1.503 . S
C964 C963 1.410 . S
C964 C965 1.392 . S
C964 C967 1.511 . S
C965 C961 1.376 . S
C965 C964 1.392 . S
C965 H977 0.929 . S
C966 C962 1.531 . S
C966 H978 0.960 . S
C966 H979 0.962 . S
C966 H980 0.960 . S
C967 C964 1.511 . S
C967 H981 0.961 . S
C967 H982 0.961 . S
C967 H983 0.961 . S
C968 C969 1.370 . S
C968 C970 1.363 . S
C968 H984 0.931 . S
C969 C968 1.370 . S
C969 C973 1.408 . S
C970 C968 1.363 . S
C970 C971 1.370 . S
C970 C974 1.524 . S
C971 C963 1.503 . S
C971 C970 1.370 . S
C971 C972 1.403 . S
C972 C971 1.403 . S
C972 C973 1.404 . S
C972 C975 1.539 . S
C973 C969 1.408 . S
C973 C972 1.404 . S
C973 H985 0.930 . S
C974 C970 1.524 . S
C974 H986 0.956 . S
C974 H987 0.961 . S
C974 H988 0.961 . S
C975 C972 1.539 . S
C975 H989 0.958 . S
C975 H990 0.961 . S
C975 H991 0.960 . S
H976 C960 0.931 . S
H977 C965 0.929 . S
H978 C966 0.960 . S
H979 C966 0.962 . S
H980 C966 0.960 . S
H981 C967 0.961 . S
H982 C967 0.961 . S
H983 C967 0.961 . S
H984 C968 0.931 . S
H985 C973 0.930 . S
H986 C974 0.956 . S
H987 C974 0.961 . S
H988 C974 0.961 . S
H989 C975 0.958 . S
H990 C975 0.961 . S
H991 C975 0.960 . S
C992 C993 1.391 . S
C992 C994 1.394 . S
C992 H1008 0.931 . S
C993 C992 1.391 . S
C993 C997 1.376 . S
C994 C992 1.394 . S
C994 C995 1.369 . S
C994 C998 1.531 . S
C995 C994 1.369 . S
C995 C996 1.410 . S
C995 C1003 1.503 . S
C996 C995 1.410 . S
C996 C997 1.392 . S
C996 C999 1.511 . S
C997 C993 1.376 . S
C997 C996 1.392 . S
C997 H1009 0.929 . S
C998 C994 1.531 . S
C998 H1010 0.960 . S
C998 H1011 0.962 . S
C998 H1012 0.960 . S
C999 C996 1.511 . S
C999 H1013 0.961 . S
C999 H1014 0.961 . S
C999 H1015 0.961 . S
C1000 C1001 1.370 . S
C1000 C1002 1.363 . S
C1000 H1016 0.931 . S
C1001 C1000 1.370 . S
C1001 C1005 1.408 . S
C1002 C1000 1.363 . S
C1002 C1003 1.370 . S
C1002 C1006 1.524 . S
C1003 C995 1.503 . S
C1003 C1002 1.370 . S
C1003 C1004 1.403 . S
C1004 C1003 1.403 . S
C1004 C1005 1.404 . S
C1004 C1007 1.539 . S
C1005 C1001 1.408 . S
C1005 C1004 1.404 . S
C1005 H1017 0.930 . S
C1006 C1002 1.524 . S
C1006 H1018 0.956 . S
C1006 H1019 0.961 . S
C1006 H1020 0.961 . S
C1007 C1004 1.539 . S
C1007 H1021 0.958 . S
C1007 H1022 0.961 . S
C1007 H1023 0.960 . S
H1008 C992 0.931 . S
H1009 C997 0.929 . S
H1010 C998 0.960 . S
H1011 C998 0.962 . S
H1012 C998 0.960 . S
H1013 C999 0.961 . S
H1014 C999 0.961 . S
H1015 C999 0.961 . S
H1016 C1000 0.931 . S
H1017 C1005 0.930 . S
H1018 C1006 0.956 . S
H1019 C1006 0.961 . S
H1020 C1006 0.961 . S
H1021 C1007 0.958 . S
H1022 C1007 0.961 . S
H1023 C1007 0.960 . S
C1024 C1025 1.391 . S
C1024 C1026 1.394 . S
C1024 H1040 0.931 . S
C1025 C1024 1.391 . S
C1025 C1029 1.376 . S
C1026 C1024 1.394 . S
C1026 C1027 1.369 . S
C1026 C1030 1.531 . S
C1027 C1026 1.369 . S
C1027 C1028 1.410 . S
C1027 C1035 1.503 . S
C1028 C1027 1.410 . S
C1028 C1029 1.392 . S
C1028 C1031 1.511 . S
C1029 C1025 1.376 . S
C1029 C1028 1.392 . S
C1029 H1041 0.929 . S
C1030 C1026 1.531 . S
C1030 H1042 0.960 . S
C1030 H1043 0.962 . S
C1030 H1044 0.960 . S
C1031 C1028 1.511 . S
C1031 H1045 0.961 . S
C1031 H1046 0.961 . S
C1031 H1047 0.961 . S
C1032 C1033 1.370 . S
C1032 C1034 1.363 . S
C1032 H1048 0.931 . S
C1033 C1032 1.370 . S
C1033 C1037 1.408 . S
C1034 C1032 1.363 . S
C1034 C1035 1.370 . S
C1034 C1038 1.524 . S
C1035 C1027 1.503 . S
C1035 C1034 1.370 . S
C1035 C1036 1.403 . S
C1036 C1035 1.403 . S
C1036 C1037 1.404 . S
C1036 C1039 1.539 . S
C1037 C1033 1.408 . S
C1037 C1036 1.404 . S
C1037 H1049 0.930 . S
C1038 C1034 1.524 . S
C1038 H1050 0.956 . S
C1038 H1051 0.961 . S
C1038 H1052 0.961 . S
C1039 C1036 1.539 . S
C1039 H1053 0.958 . S
C1039 H1054 0.961 . S
C1039 H1055 0.960 . S
H1040 C1024 0.931 . S
H1041 C1029 0.929 . S
H1042 C1030 0.960 . S
H1043 C1030 0.962 . S
H1044 C1030 0.960 . S
H1045 C1031 0.961 . S
H1046 C1031 0.961 . S
H1047 C1031 0.961 . S
H1048 C1032 0.931 . S
H1049 C1037 0.930 . S
H1050 C1038 0.956 . S
H1051 C1038 0.961 . S
H1052 C1038 0.961 . S
H1053 C1039 0.958 . S
H1054 C1039 0.961 . S
H1055 C1039 0.960 . S
C1056 C1057 1.391 . S
C1056 C1058 1.394 . S
C1056 H1072 0.931 . S
C1057 C1056 1.391 . S
C1057 C1061 1.376 . S
C1058 C1056 1.394 . S
C1058 C1059 1.369 . S
C1058 C1062 1.531 . S
C1059 C1058 1.369 . S
C1059 C1060 1.410 . S
C1059 C1067 1.503 . S
C1060 C1059 1.410 . S
C1060 C1061 1.392 . S
C1060 C1063 1.511 . S
C1061 C1057 1.376 . S
C1061 C1060 1.392 . S
C1061 H1073 0.929 . S
C1062 C1058 1.531 . S
C1062 H1074 0.960 . S
C1062 H1075 0.962 . S
C1062 H1076 0.960 . S
C1063 C1060 1.511 . S
C1063 H1077 0.961 . S
C1063 H1078 0.961 . S
C1063 H1079 0.961 . S
C1064 C1065 1.370 . S
C1064 C1066 1.363 . S
C1064 H1080 0.931 . S
C1065 C1064 1.370 . S
C1065 C1069 1.408 . S
C1066 C1064 1.363 . S
C1066 C1067 1.370 . S
C1066 C1070 1.524 . S
C1067 C1059 1.503 . S
C1067 C1066 1.370 . S
C1067 C1068 1.403 . S
C1068 C1067 1.403 . S
C1068 C1069 1.404 . S
C1068 C1071 1.539 . S
C1069 C1065 1.408 . S
C1069 C1068 1.404 . S
C1069 H1081 0.930 . S
C1070 C1066 1.524 . S
C1070 H1082 0.956 . S
C1070 H1083 0.961 . S
C1070 H1084 0.961 . S
C1071 C1068 1.539 . S
C1071 H1085 0.958 . S
C1071 H1086 0.961 . S
C1071 H1087 0.960 . S
H1072 C1056 0.931 . S
H1073 C1061 0.929 . S
H1074 C1062 0.960 . S
H1075 C1062 0.962 . S
H1076 C1062 0.960 . S
H1077 C1063 0.961 . S
H1078 C1063 0.961 . S
H1079 C1063 0.961 . S
H1080 C1064 0.931 . S
H1081 C1069 0.930 . S
H1082 C1070 0.956 . S
H1083 C1070 0.961 . S
H1084 C1070 0.961 . S
H1085 C1071 0.958 . S
H1086 C1071 0.961 . S
H1087 C1071 0.960 . S
C1088 C1089 1.391 . S
C1088 C1090 1.394 . S
C1088 H1104 0.931 . S
C1089 C1088 1.391 . S
C1089 C1093 1.376 . S
C1090 C1088 1.394 . S
C1090 C1091 1.369 . S
C1090 C1094 1.531 . S
C1091 C1090 1.369 . S
C1091 C1092 1.410 . S
C1091 C1099 1.503 . S
C1092 C1091 1.410 . S
C1092 C1093 1.392 . S
C1092 C1095 1.511 . S
C1093 C1089 1.376 . S
C1093 C1092 1.392 . S
C1093 H1105 0.929 . S
C1094 C1090 1.531 . S
C1094 H1106 0.960 . S
C1094 H1107 0.962 . S
C1094 H1108 0.960 . S
C1095 C1092 1.511 . S
C1095 H1109 0.961 . S
C1095 H1110 0.961 . S
C1095 H1111 0.961 . S
C1096 C1097 1.370 . S
C1096 C1098 1.363 . S
C1096 H1112 0.931 . S
C1097 C1096 1.370 . S
C1097 C1101 1.408 . S
C1098 C1096 1.363 . S
C1098 C1099 1.370 . S
C1098 C1102 1.524 . S
C1099 C1091 1.503 . S
C1099 C1098 1.370 . S
C1099 C1100 1.403 . S
C1100 C1099 1.403 . S
C1100 C1101 1.404 . S
C1100 C1103 1.539 . S
C1101 C1097 1.408 . S
C1101 C1100 1.404 . S
C1101 H1113 0.930 . S
C1102 C1098 1.524 . S
C1102 H1114 0.956 . S
C1102 H1115 0.961 . S
C1102 H1116 0.961 . S
C1103 C1100 1.539 . S
C1103 H1117 0.958 . S
C1103 H1118 0.961 . S
C1103 H1119 0.960 . S
H1104 C1088 0.931 . S
H1105 C1093 0.929 . S
H1106 C1094 0.960 . S
H1107 C1094 0.962 . S
H1108 C1094 0.960 . S
H1109 C1095 0.961 . S
H1110 C1095 0.961 . S
H1111 C1095 0.961 . S
H1112 C1096 0.931 . S
H1113 C1101 0.930 . S
H1114 C1102 0.956 . S
H1115 C1102 0.961 . S
H1116 C1102 0.961 . S
H1117 C1103 0.958 . S
H1118 C1103 0.961 . S
H1119 C1103 0.960 . S
C1120 C1121 1.391 . S
C1120 C1122 1.394 . S
C1120 H1136 0.931 . S
C1121 C1120 1.391 . S
C1121 C1125 1.376 . S
C1122 C1120 1.394 . S
C1122 C1123 1.369 . S
C1122 C1126 1.531 . S
C1123 C1122 1.369 . S
C1123 C1124 1.410 . S
C1123 C1131 1.503 . S
C1124 C1123 1.410 . S
C1124 C1125 1.392 . S
C1124 C1127 1.511 . S
C1125 C1121 1.376 . S
C1125 C1124 1.392 . S
C1125 H1137 0.929 . S
C1126 C1122 1.531 . S
C1126 H1138 0.960 . S
C1126 H1139 0.962 . S
C1126 H1140 0.960 . S
C1127 C1124 1.511 . S
C1127 H1141 0.961 . S
C1127 H1142 0.961 . S
C1127 H1143 0.961 . S
C1128 C1129 1.370 . S
C1128 C1130 1.363 . S
C1128 H1144 0.931 . S
C1129 C1128 1.370 . S
C1129 C1133 1.408 . S
C1130 C1128 1.363 . S
C1130 C1131 1.370 . S
C1130 C1134 1.524 . S
C1131 C1123 1.503 . S
C1131 C1130 1.370 . S
C1131 C1132 1.403 . S
C1132 C1131 1.403 . S
C1132 C1133 1.404 . S
C1132 C1135 1.539 . S
C1133 C1129 1.408 . S
C1133 C1132 1.404 . S
C1133 H1145 0.930 . S
C1134 C1130 1.524 . S
C1134 H1146 0.956 . S
C1134 H1147 0.961 . S
C1134 H1148 0.961 . S
C1135 C1132 1.539 . S
C1135 H1149 0.958 . S
C1135 H1150 0.961 . S
C1135 H1151 0.960 . S
H1136 C1120 0.931 . S
H1137 C1125 0.929 . S
H1138 C1126 0.960 . S
H1139 C1126 0.962 . S
H1140 C1126 0.960 . S
H1141 C1127 0.961 . S
H1142 C1127 0.961 . S
H1143 C1127 0.961 . S
H1144 C1128 0.931 . S
H1145 C1133 0.930 . S
H1146 C1134 0.956 . S
H1147 C1134 0.961 . S
H1148 C1134 0.961 . S
H1149 C1135 0.958 . S
H1150 C1135 0.961 . S
H1151 C1135 0.960 . S
C1152 C1153 1.391 . S
C1152 C1154 1.394 . S
C1152 H1168 0.931 . S
C1153 C1152 1.391 . S
C1153 C1157 1.376 . S
C1154 C1152 1.394 . S
C1154 C1155 1.369 . S
C1154 C1158 1.531 . S
C1155 C1154 1.369 . S
C1155 C1156 1.410 . S
C1155 C1163 1.503 . S
C1156 C1155 1.410 . S
C1156 C1157 1.392 . S
C1156 C1159 1.511 . S
C1157 C1153 1.376 . S
C1157 C1156 1.392 . S
C1157 H1169 0.929 . S
C1158 C1154 1.531 . S
C1158 H1170 0.960 . S
C1158 H1171 0.962 . S
C1158 H1172 0.960 . S
C1159 C1156 1.511 . S
C1159 H1173 0.961 . S
C1159 H1174 0.961 . S
C1159 H1175 0.961 . S
C1160 C1161 1.370 . S
C1160 C1162 1.363 . S
C1160 H1176 0.931 . S
C1161 C1160 1.370 . S
C1161 C1165 1.408 . S
C1162 C1160 1.363 . S
C1162 C1163 1.370 . S
C1162 C1166 1.524 . S
C1163 C1155 1.503 . S
C1163 C1162 1.370 . S
C1163 C1164 1.403 . S
C1164 C1163 1.403 . S
C1164 C1165 1.404 . S
C1164 C1167 1.539 . S
C1165 C1161 1.408 . S
C1165 C1164 1.404 . S
C1165 H1177 0.930 . S
C1166 C1162 1.524 . S
C1166 H1178 0.956 . S
C1166 H1179 0.961 . S
C1166 H1180 0.961 . S
C1167 C1164 1.539 . S
C1167 H1181 0.958 . S
C1167 H1182 0.961 . S
C1167 H1183 0.960 . S
H1168 C1152 0.931 . S
H1169 C1157 0.929 . S
H1170 C1158 0.960 . S
H1171 C1158 0.962 . S
H1172 C1158 0.960 . S
H1173 C1159 0.961 . S
H1174 C1159 0.961 . S
H1175 C1159 0.961 . S
H1176 C1160 0.931 . S
H1177 C1165 0.930 . S
H1178 C1166 0.956 . S
H1179 C1166 0.961 . S
H1180 C1166 0.961 . S
H1181 C1167 0.958 . S
H1182 C1167 0.961 . S
H1183 C1167 0.960 . S
C1184 C1185 1.391 . S
C1184 C1186 1.394 . S
C1184 H1200 0.931 . S
C1185 C1184 1.391 . S
C1185 C1189 1.376 . S
C1186 C1184 1.394 . S
C1186 C1187 1.369 . S
C1186 C1190 1.531 . S
C1187 C1186 1.369 . S
C1187 C1188 1.410 . S
C1187 C1195 1.503 . S
C1188 C1187 1.410 . S
C1188 C1189 1.392 . S
C1188 C1191 1.511 . S
C1189 C1185 1.376 . S
C1189 C1188 1.392 . S
C1189 H1201 0.929 . S
C1190 C1186 1.531 . S
C1190 H1202 0.960 . S
C1190 H1203 0.962 . S
C1190 H1204 0.960 . S
C1191 C1188 1.511 . S
C1191 H1205 0.961 . S
C1191 H1206 0.961 . S
C1191 H1207 0.961 . S
C1192 C1193 1.370 . S
C1192 C1194 1.363 . S
C1192 H1208 0.931 . S
C1193 C1192 1.370 . S
C1193 C1197 1.408 . S
C1194 C1192 1.363 . S
C1194 C1195 1.370 . S
C1194 C1198 1.524 . S
C1195 C1187 1.503 . S
C1195 C1194 1.370 . S
C1195 C1196 1.403 . S
C1196 C1195 1.403 . S
C1196 C1197 1.404 . S
C1196 C1199 1.539 . S
C1197 C1193 1.408 . S
C1197 C1196 1.404 . S
C1197 H1209 0.930 . S
C1198 C1194 1.524 . S
C1198 H1210 0.956 . S
C1198 H1211 0.961 . S
C1198 H1212 0.961 . S
C1199 C1196 1.539 . S
C1199 H1213 0.958 . S
C1199 H1214 0.961 . S
C1199 H1215 0.960 . S
H1200 C1184 0.931 . S
H1201 C1189 0.929 . S
H1202 C1190 0.960 . S
H1203 C1190 0.962 . S
H1204 C1190 0.960 . S
H1205 C1191 0.961 . S
H1206 C1191 0.961 . S
H1207 C1191 0.961 . S
H1208 C1192 0.931 . S
H1209 C1197 0.930 . S
H1210 C1198 0.956 . S
H1211 C1198 0.961 . S
H1212 C1198 0.961 . S
H1213 C1199 0.958 . S
H1214 C1199 0.961 . S
H1215 C1199 0.960 . S
C1216 C1217 1.391 . S
C1216 C1218 1.394 . S
C1216 H1232 0.931 . S
C1217 C1216 1.391 . S
C1217 C1221 1.376 . S
C1218 C1216 1.394 . S
C1218 C1219 1.369 . S
C1218 C1222 1.531 . S
C1219 C1218 1.369 . S
C1219 C1220 1.410 . S
C1219 C1227 1.503 . S
C1220 C1219 1.410 . S
C1220 C1221 1.392 . S
C1220 C1223 1.511 . S
C1221 C1217 1.376 . S
C1221 C1220 1.392 . S
C1221 H1233 0.929 . S
C1222 C1218 1.531 . S
C1222 H1234 0.960 . S
C1222 H1235 0.962 . S
C1222 H1236 0.960 . S
C1223 C1220 1.511 . S
C1223 H1237 0.961 . S
C1223 H1238 0.961 . S
C1223 H1239 0.961 . S
C1224 C1225 1.370 . S
C1224 C1226 1.363 . S
C1224 H1240 0.931 . S
C1225 C1224 1.370 . S
C1225 C1229 1.408 . S
C1226 C1224 1.363 . S
C1226 C1227 1.370 . S
C1226 C1230 1.524 . S
C1227 C1219 1.503 . S
C1227 C1226 1.370 . S
C1227 C1228 1.403 . S
C1228 C1227 1.403 . S
C1228 C1229 1.404 . S
C1228 C1231 1.539 . S
C1229 C1225 1.408 . S
C1229 C1228 1.404 . S
C1229 H1241 0.930 . S
C1230 C1226 1.524 . S
C1230 H1242 0.956 . S
C1230 H1243 0.961 . S
C1230 H1244 0.961 . S
C1231 C1228 1.539 . S
C1231 H1245 0.958 . S
C1231 H1246 0.961 . S
C1231 H1247 0.960 . S
H1232 C1216 0.931 . S
H1233 C1221 0.929 . S
H1234 C1222 0.960 . S
H1235 C1222 0.962 . S
H1236 C1222 0.960 . S
H1237 C1223 0.961 . S
H1238 C1223 0.961 . S
H1239 C1223 0.961 . S
H1240 C1224 0.931 . S
H1241 C1229 0.930 . S
H1242 C1230 0.956 . S
H1243 C1230 0.961 . S
H1244 C1230 0.961 . S
H1245 C1231 0.958 . S
H1246 C1231 0.961 . S
H1247 C1231 0.960 . S
C1248 C1249 1.391 . S
C1248 C1250 1.394 . S
C1248 H1264 0.931 . S
C1249 C1248 1.391 . S
C1249 C1253 1.376 . S
C1250 C1248 1.394 . S
C1250 C1251 1.369 . S
C1250 C1254 1.531 . S
C1251 C1250 1.369 . S
C1251 C1252 1.410 . S
C1251 C1259 1.503 . S
C1252 C1251 1.410 . S
C1252 C1253 1.392 . S
C1252 C1255 1.511 . S
C1253 C1249 1.376 . S
C1253 C1252 1.392 . S
C1253 H1265 0.929 . S
C1254 C1250 1.531 . S
C1254 H1266 0.960 . S
C1254 H1267 0.962 . S
C1254 H1268 0.960 . S
C1255 C1252 1.511 . S
C1255 H1269 0.961 . S
C1255 H1270 0.961 . S
C1255 H1271 0.961 . S
C1256 C1257 1.370 . S
C1256 C1258 1.363 . S
C1256 H1272 0.931 . S
C1257 C1256 1.370 . S
C1257 C1261 1.408 . S
C1258 C1256 1.363 . S
C1258 C1259 1.370 . S
C1258 C1262 1.524 . S
C1259 C1251 1.503 . S
C1259 C1258 1.370 . S
C1259 C1260 1.403 . S
C1260 C1259 1.403 . S
C1260 C1261 1.404 . S
C1260 C1263 1.539 . S
C1261 C1257 1.408 . S
C1261 C1260 1.404 . S
C1261 H1273 0.930 . S
C1262 C1258 1.524 . S
C1262 H1274 0.956 . S
C1262 H1275 0.961 . S
C1262 H1276 0.961 . S
C1263 C1260 1.539 . S
C1263 H1277 0.958 . S
C1263 H1278 0.961 . S
C1263 H1279 0.960 . S
H1264 C1248 0.931 . S
H1265 C1253 0.929 . S
H1266 C1254 0.960 . S
H1267 C1254 0.962 . S
H1268 C1254 0.960 . S
H1269 C1255 0.961 . S
H1270 C1255 0.961 . S
H1271 C1255 0.961 . S
H1272 C1256 0.931 . S
H1273 C1261 0.930 . S
H1274 C1262 0.956 . S
H1275 C1262 0.961 . S
H1276 C1262 0.961 . S
H1277 C1263 0.958 . S
H1278 C1263 0.961 . S
H1279 C1263 0.960 . S
C1280 C1281 1.391 . S
C1280 C1282 1.394 . S
C1280 H1296 0.931 . S
C1281 C1280 1.391 . S
C1281 C1285 1.376 . S
C1282 C1280 1.394 . S
C1282 C1283 1.369 . S
C1282 C1286 1.531 . S
C1283 C1282 1.369 . S
C1283 C1284 1.410 . S
C1283 C1291 1.503 . S
C1284 C1283 1.410 . S
C1284 C1285 1.392 . S
C1284 C1287 1.511 . S
C1285 C1281 1.376 . S
C1285 C1284 1.392 . S
C1285 H1297 0.929 . S
C1286 C1282 1.531 . S
C1286 H1298 0.960 . S
C1286 H1299 0.962 . S
C1286 H1300 0.960 . S
C1287 C1284 1.511 . S
C1287 H1301 0.961 . S
C1287 H1302 0.961 . S
C1287 H1303 0.961 . S
C1288 C1289 1.370 . S
C1288 C1290 1.363 . S
C1288 H1304 0.931 . S
C1289 C1288 1.370 . S
C1289 C1293 1.408 . S
C1290 C1288 1.363 . S
C1290 C1291 1.370 . S
C1290 C1294 1.524 . S
C1291 C1283 1.503 . S
C1291 C1290 1.370 . S
C1291 C1292 1.403 . S
C1292 C1291 1.403 . S
C1292 C1293 1.404 . S
C1292 C1295 1.539 . S
C1293 C1289 1.408 . S
C1293 C1292 1.404 . S
C1293 H1305 0.930 . S
C1294 C1290 1.524 . S
C1294 H1306 0.956 . S
C1294 H1307 0.961 . S
C1294 H1308 0.961 . S
C1295 C1292 1.539 . S
C1295 H1309 0.958 . S
C1295 H1310 0.961 . S
C1295 H1311 0.960 . S
H1296 C1280 0.931 . S
H1297 C1285 0.929 . S
H1298 C1286 0.960 . S
H1299 C1286 0.962 . S
H1300 C1286 0.960 . S
H1301 C1287 0.961 . S
H1302 C1287 0.961 . S
H1303 C1287 0.961 . S
H1304 C1288 0.931 . S
H1305 C1293 0.930 . S
H1306 C1294 0.956 . S
H1307 C1294 0.961 . S
H1308 C1294 0.961 . S
H1309 C1295 0.958 . S
H1310 C1295 0.961 . S
H1311 C1295 0.960 . S
C1312 C1313 1.391 . S
C1312 C1314 1.394 . S
C1312 H1328 0.931 . S
C1313 C1312 1.391 . S
C1313 C1317 1.376 . S
C1314 C1312 1.394 . S
C1314 C1315 1.369 . S
C1314 C1318 1.531 . S
C1315 C1314 1.369 . S
C1315 C1316 1.410 . S
C1315 C1323 1.503 . S
C1316 C1315 1.410 . S
C1316 C1317 1.392 . S
C1316 C1319 1.511 . S
C1317 C1313 1.376 . S
C1317 C1316 1.392 . S
C1317 H1329 0.929 . S
C1318 C1314 1.531 . S
C1318 H1330 0.960 . S
C1318 H1331 0.962 . S
C1318 H1332 0.960 . S
C1319 C1316 1.511 . S
C1319 H1333 0.961 . S
C1319 H1334 0.961 . S
C1319 H1335 0.961 . S
C1320 C1321 1.370 . S
C1320 C1322 1.363 . S
C1320 H1336 0.931 . S
C1321 C1320 1.370 . S
C1321 C1325 1.408 . S
C1322 C1320 1.363 . S
C1322 C1323 1.370 . S
C1322 C1326 1.524 . S
C1323 C1315 1.503 . S
C1323 C1322 1.370 . S
C1323 C1324 1.403 . S
C1324 C1323 1.403 . S
C1324 C1325 1.404 . S
C1324 C1327 1.539 . S
C1325 C1321 1.408 . S
C1325 C1324 1.404 . S
C1325 H1337 0.930 . S
C1326 C1322 1.524 . S
C1326 H1338 0.956 . S
C1326 H1339 0.961 . S
C1326 H1340 0.961 . S
C1327 C1324 1.539 . S
C1327 H1341 0.958 . S
C1327 H1342 0.961 . S
C1327 H1343 0.960 . S
H1328 C1312 0.931 . S
H1329 C1317 0.929 . S
H1330 C1318 0.960 . S
H1331 C1318 0.962 . S
H1332 C1318 0.960 . S
H1333 C1319 0.961 . S
H1334 C1319 0.961 . S
H1335 C1319 0.961 . S
H1336 C1320 0.931 . S
H1337 C1325 0.930 . S
H1338 C1326 0.956 . S
H1339 C1326 0.961 . S
H1340 C1326 0.961 . S
H1341 C1327 0.958 . S
H1342 C1327 0.961 . S
H1343 C1327 0.960 . S
C1344 C1345 1.391 . S
C1344 C1346 1.394 . S
C1344 H1360 0.931 . S
C1345 C1344 1.391 . S
C1345 C1349 1.376 . S
C1346 C1344 1.394 . S
C1346 C1347 1.369 . S
C1346 C1350 1.531 . S
C1347 C1346 1.369 . S
C1347 C1348 1.410 . S
C1347 C1355 1.503 . S
C1348 C1347 1.410 . S
C1348 C1349 1.392 . S
C1348 C1351 1.511 . S
C1349 C1345 1.376 . S
C1349 C1348 1.392 . S
C1349 H1361 0.929 . S
C1350 C1346 1.531 . S
C1350 H1362 0.960 . S
C1350 H1363 0.962 . S
C1350 H1364 0.960 . S
C1351 C1348 1.511 . S
C1351 H1365 0.961 . S
C1351 H1366 0.961 . S
C1351 H1367 0.961 . S
C1352 C1353 1.370 . S
C1352 C1354 1.363 . S
C1352 H1368 0.931 . S
C1353 C1352 1.370 . S
C1353 C1357 1.408 . S
C1354 C1352 1.363 . S
C1354 C1355 1.370 . S
C1354 C1358 1.524 . S
C1355 C1347 1.503 . S
C1355 C1354 1.370 . S
C1355 C1356 1.403 . S
C1356 C1355 1.403 . S
C1356 C1357 1.404 . S
C1356 C1359 1.539 . S
C1357 C1353 1.408 . S
C1357 C1356 1.404 . S
C1357 H1369 0.930 . S
C1358 C1354 1.524 . S
C1358 H1370 0.956 . S
C1358 H1371 0.961 . S
C1358 H1372 0.961 . S
C1359 C1356 1.539 . S
C1359 H1373 0.958 . S
C1359 H1374 0.961 . S
C1359 H1375 0.960 . S
H1360 C1344 0.931 . S
H1361 C1349 0.929 . S
H1362 C1350 0.960 . S
H1363 C1350 0.962 . S
H1364 C1350 0.960 . S
H1365 C1351 0.961 . S
H1366 C1351 0.961 . S
H1367 C1351 0.961 . S
H1368 C1352 0.931 . S
H1369 C1357 0.930 . S
H1370 C1358 0.956 . S
H1371 C1358 0.961 . S
H1372 C1358 0.961 . S
H1373 C1359 0.958 . S
H1374 C1359 0.961 . S
H1375 C1359 0.960 . S
C1376 C1377 1.391 . S
C1376 C1378 1.394 . S
C1376 H1392 0.931 . S
C1377 C1376 1.391 . S
C1377 C1381 1.376 . S
C1378 C1376 1.394 . S
C1378 C1379 1.369 . S
C1378 C1382 1.531 . S
C1379 C1378 1.369 . S
C1379 C1380 1.410 . S
C1379 C1387 1.503 . S
C1380 C1379 1.410 . S
C1380 C1381 1.392 . S
C1380 C1383 1.511 . S
C1381 C1377 1.376 . S
C1381 C1380 1.392 . S
C1381 H1393 0.929 . S
C1382 C1378 1.531 . S
C1382 H1394 0.960 . S
C1382 H1395 0.962 . S
C1382 H1396 0.960 . S
C1383 C1380 1.511 . S
C1383 H1397 0.961 . S
C1383 H1398 0.961 . S
C1383 H1399 0.961 . S
C1384 C1385 1.370 . S
C1384 C1386 1.363 . S
C1384 H1400 0.931 . S
C1385 C1384 1.370 . S
C1385 C1389 1.408 . S
C1386 C1384 1.363 . S
C1386 C1387 1.370 . S
C1386 C1390 1.524 . S
C1387 C1379 1.503 . S
C1387 C1386 1.370 . S
C1387 C1388 1.403 . S
C1388 C1387 1.403 . S
C1388 C1389 1.404 . S
C1388 C1391 1.539 . S
C1389 C1385 1.408 . S
C1389 C1388 1.404 . S
C1389 H1401 0.930 . S
C1390 C1386 1.524 . S
C1390 H1402 0.956 . S
C1390 H1403 0.961 . S
C1390 H1404 0.961 . S
C1391 C1388 1.539 . S
C1391 H1405 0.958 . S
C1391 H1406 0.961 . S
C1391 H1407 0.960 . S
H1392 C1376 0.931 . S
H1393 C1381 0.929 . S
H1394 C1382 0.960 . S
H1395 C1382 0.962 . S
H1396 C1382 0.960 . S
H1397 C1383 0.961 . S
H1398 C1383 0.961 . S
H1399 C1383 0.961 . S
H1400 C1384 0.931 . S
H1401 C1389 0.930 . S
H1402 C1390 0.956 . S
H1403 C1390 0.961 . S
H1404 C1390 0.961 . S
H1405 C1391 0.958 . S
H1406 C1391 0.961 . S
H1407 C1391 0.960 . S
C641 C1 1.197 . S
C649 C487 1.285 . S
C673 C80 0.908 . S
C681 C536 0.982 . S
C713 C562 2.468 . S
C705 C140 2.453 . S
C737 C211 2.356 . S
C745 C610 2.336 . S
C777 C522 2.505 . S
C769 C31 2.261 . S
C809 C490 0.829 . S
C801 C61 0.912 . S
C841 C611 1.898 . S
C833 C151 1.895 . S
C873 C579 1.593 . S
C865 C200 1.610 . S
C897 C20 1.671 . S
C905 C607 1.749 . S
C937 C539 2.324 . S
C929 C121 2.384 . S
C961 C181 2.287 . S
C969 C491 2.334 . S
C993 C91 0.870 . S
C1001 C576 0.858 . S
C1033 C496 1.277 . S
C1025 C260 1.252 . S
C1057 C320 0.998 . S
C1065 C527 0.957 . S
C1089 C361 2.466 . S
C1097 C571 2.472 . S
C1121 C451 2.335 . S
C1129 C619 2.341 . S
C1153 C271 2.300 . S
C1161 C531 2.505 . S
C1193 C499 0.878 . S
C1185 C301 0.785 . S
C1225 C602 1.904 . S
C1217 C380 1.873 . S
C1257 C570 1.608 . S
C1249 C440 1.588 . S
C1281 C241 1.578 . S
C1289 C616 1.751 . S
C1321 C530 2.324 . S
C1313 C391 2.379 . S
C1353 C482 2.335 . S
C1345 C421 2.303 . S
C1377 C331 0.861 . S
C1385 C567 0.844 . S
