# Generated by pormake.
# Topology anh, (6,3)-cn, num edge types: 1
# Building blocks:
#     Node 0, Type 0, BuildingBlock: BETDIP_clean_sbu_0, # of connection points: 6
#     Node 1, Type 0, BuildingBlock: BETDIP_clean_sbu_0, # of connection points: 6
#     Node 2, Type 0, BuildingBlock: BETDIP_clean_sbu_0, # of connection points: 6
#     Node 3, Type 1, BuildingBlock: MIDCAF_clean_linker_0, # of connection points: 3
#     Node 4, Type 1, BuildingBlock: MIDCAF_clean_linker_0, # of connection points: 3
#     Node 5, Type 1, BuildingBlock: MIDCAF_clean_linker_0, # of connection points: 3
#     Node 6, Type 1, BuildingBlock: MIDCAF_clean_linker_0, # of connection points: 3
#     Node 7, Type 1, BuildingBlock: MIDCAF_clean_linker_0, # of connection points: 3
#     Node 8, Type 1, BuildingBlock: MIDCAF_clean_linker_0, # of connection points: 3
#     Edge 9, Type (0, 1), BuildingBlock: OJICUG_clean_linker_0, # of connection points: 2
#     Edge 10, Type (0, 1), BuildingBlock: OJICUG_clean_linker_0, # of connection points: 2
#     Edge 11, Type (0, 1), BuildingBlock: OJICUG_clean_linker_0, # of connection points: 2
#     Edge 12, Type (0, 1), BuildingBlock: OJICUG_clean_linker_0, # of connection points: 2
#     Edge 13, Type (0, 1), BuildingBlock: OJICUG_clean_linker_0, # of connection points: 2
#     Edge 14, Type (0, 1), BuildingBlock: OJICUG_clean_linker_0, # of connection points: 2
#     Edge 15, Type (0, 1), BuildingBlock: OJICUG_clean_linker_0, # of connection points: 2
#     Edge 16, Type (0, 1), BuildingBlock: OJICUG_clean_linker_0, # of connection points: 2
#     Edge 17, Type (0, 1), BuildingBlock: OJICUG_clean_linker_0, # of connection points: 2
#     Edge 18, Type (0, 1), BuildingBlock: OJICUG_clean_linker_0, # of connection points: 2
#     Edge 19, Type (0, 1), BuildingBlock: OJICUG_clean_linker_0, # of connection points: 2
#     Edge 20, Type (0, 1), BuildingBlock: OJICUG_clean_linker_0, # of connection points: 2
#     Edge 21, Type (0, 1), BuildingBlock: OJICUG_clean_linker_0, # of connection points: 2
#     Edge 22, Type (0, 1), BuildingBlock: OJICUG_clean_linker_0, # of connection points: 2
#     Edge 23, Type (0, 1), BuildingBlock: OJICUG_clean_linker_0, # of connection points: 2
#     Edge 24, Type (0, 1), BuildingBlock: OJICUG_clean_linker_0, # of connection points: 2
#     Edge 25, Type (0, 1), BuildingBlock: OJICUG_clean_linker_0, # of connection points: 2
#     Edge 26, Type (0, 1), BuildingBlock: OJICUG_clean_linker_0, # of connection points: 2
# Relax obj value: 0.310
# Max RMSD: 0.192
# Mean RMSD: 0.164
data_MOF--net-anh--node1-BETDIP_clean_sbu_0--node2-MIDCAF_clean_linker_0--edge1-OJICUG_clean_linker_0
_symmetry_space_group_name_H-M    P1
_symmetry_Int_Tables_number       1
_symmetry_cell_setting            triclinic
loop_
_symmetry_equiv_pos_as_xyz
'x, y, z'
_cell_length_a     27.317766
_cell_length_b     27.274426
_cell_length_c     52.947031
_cell_angle_alpha  90.727664
_cell_angle_beta   89.626786
_cell_angle_gamma 120.22703
loop_
_atom_site_label
_atom_site_type_symbol
_atom_site_fract_x
_atom_site_fract_y
_atom_site_fract_z
_atom_type_partial_charge
Tb0 Tb 0.20197 0.64661 0.16545 0.0
Tb1 Tb 1.13965 0.52241 0.15328 0.0
C2 C 0.26995 0.73953 0.18541 0.0
C3 C 0.33169 0.77473 0.18278 0.0
C4 C 0.36544 0.79522 0.20445 0.0
C5 C 0.42413 0.82878 0.20226 0.0
C6 C 0.44984 0.84271 0.17832 0.0
C7 C 0.41622 0.82048 0.15663 0.0
C8 C 0.35757 0.78623 0.15883 0.0
C9 C 0.18291 0.62091 0.1173 0.0
C10 C 0.27158 0.57939 0.15539 0.0
C11 C 1.06977 0.42885 0.13374 0.0
C12 C 1.01346 0.41174 0.12326 0.0
C13 C 1.00525 0.45007 0.10887 0.0
C14 C 0.95127 0.44339 0.10671 0.0
C15 C 0.90488 0.3983 0.11882 0.0
C16 C 0.91214 0.35601 0.1302 0.0
C17 C 0.96612 0.36281 0.13245 0.0
C18 C 0.16074 0.54853 0.20155 0.0
C19 C 1.0745 0.59376 0.15673 0.0
O20 O 0.25221 0.69096 0.1967 0.0
O21 O 0.23998 0.73498 0.16535 0.0
O22 O 0.19581 0.59664 0.13365 0.0
O23 O 0.1842 0.66519 0.1273 0.0
O24 O 0.27153 0.62626 0.1629 0.0
O25 O 0.22381 0.53276 0.14894 0.0
O26 O 1.11347 0.46818 0.12154 0.0
O27 O 1.07404 0.43847 0.15814 0.0
O28 O 1.14567 0.5727 0.18582 0.0
O29 O 0.16088 0.50567 0.1907 0.0
O30 O 1.0787 0.55184 0.14591 0.0
O31 O 1.11665 0.63299 0.17043 0.0
H32 H 0.34631 0.78605 0.22306 0.0
H33 H 0.44912 0.84629 0.21927 0.0
H34 H 0.43519 0.8309 0.138 0.0
H35 H 0.3325 0.76967 0.14179 0.0
H36 H 1.04098 0.48801 0.1013 0.0
H37 H 0.94661 0.47604 0.0975 0.0
H38 H 0.87729 0.32083 0.13983 0.0
H39 H 0.97145 0.33272 0.14357 0.0
Tb40 Tb 0.68769 1.09827 0.50091 0.0
Tb41 Tb 0.62467 0.15762 0.48748 0.0
C42 C 0.71088 1.03271 0.5232 0.0
C43 C 0.68641 0.97122 0.52056 0.0
C44 C 0.67848 0.93872 0.54202 0.0
C45 C 0.65782 0.88062 0.53959 0.0
C46 C 0.64523 0.85434 0.51559 0.0
C47 C 0.65023 0.88643 0.49424 0.0
C48 C 0.67016 0.94446 0.49673 0.0
C49 C 0.68955 0.11846 0.45276 0.0
C50 C 0.5523 1.02552 0.48783 0.0
C51 C 0.60124 0.22745 0.46894 0.0
C52 C 0.64138 0.28524 0.46009 0.0
C53 C 0.68798 0.29504 0.44496 0.0
C54 C 0.73668 0.34861 0.44468 0.0
C55 C 0.73932 0.39291 0.45943 0.0
C56 C 0.69006 0.38522 0.47152 0.0
C57 C 0.6413 0.33158 0.47186 0.0
C58 C 0.62861 0.13826 0.53596 0.0
C59 C 0.76136 0.22588 0.49215 0.0
O60 O 0.67684 1.0489 0.53275 0.0
O61 O 0.73959 1.06277 0.50368 0.0
O62 O 0.64861 1.10487 0.46766 0.0
O63 O 0.72944 0.11491 0.46426 0.0
O64 O 0.59932 1.02713 0.49574 0.0
O65 O 0.55211 1.07254 0.48198 0.0
O66 O 0.59923 0.18531 0.45594 0.0
O67 O 0.60343 0.22085 0.49326 0.0
O68 O 0.66811 0.1545 0.52019 0.0
O69 O 0.58437 0.13414 0.52496 0.0
O70 O 0.71541 0.22047 0.48103 0.0
O71 O 0.75831 0.18455 0.50608 0.0
H72 H 0.68991 0.95858 0.56056 0.0
H73 H 0.65531 0.85701 0.55633 0.0
H74 H 0.64097 0.86709 0.47558 0.0
H75 H 0.67454 0.96869 0.47995 0.0
H76 H 0.68929 0.26034 0.43546 0.0
H77 H 0.77403 0.3541 0.43491 0.0
H78 H 0.69118 0.41884 0.48308 0.0
H79 H 0.6059 0.32511 0.48357 0.0
Tb80 Tb 0.66385 0.63692 0.82772 0.0
Tb81 Tb 0.78901 0.70569 0.82586 0.0
C82 C 0.56305 0.60216 0.83923 0.0
C83 C 0.52403 0.62303 0.83361 0.0
C84 C 0.50504 0.64389 0.85335 0.0
C85 C 0.46541 0.66054 0.84874 0.0
C86 C 0.44355 0.65608 0.8243 0.0
C87 C 0.46478 0.63804 0.80428 0.0
C88 C 0.50489 0.62184 0.80886 0.0
C89 C 0.70708 0.64995 0.78223 0.0
C90 C 0.72645 0.77461 0.82232 0.0
C91 C 0.88983 0.73518 0.8158 0.0
C92 C 0.91115 0.69738 0.80761 0.0
C93 C 0.88252 0.65629 0.78854 0.0
C94 C 0.88592 0.60691 0.78763 0.0
C95 C 0.91811 0.5983 0.8056 0.0
C96 C 0.953 0.64269 0.8222 0.0
C97 C 0.94962 0.69212 0.82317 0.0
C98 C 0.74451 0.69161 0.87143 0.0
C99 C 0.72328 0.56841 0.82421 0.0
O100 O 0.60547 0.63437 0.85429 0.0
O101 O 0.57812 0.5817 0.82013 0.0
O102 O 0.72362 0.68623 0.79971 0.0
O103 O 0.66121 0.60472 0.78921 0.0
O104 O 0.67948 0.72512 0.82642 0.0
O105 O 0.77628 0.77769 0.81979 0.0
O106 O 0.85662 0.74122 0.80003 0.0
O107 O 0.86957 0.72606 0.8388 0.0
O108 O 0.72916 0.65443 0.8542 0.0
O109 O 0.7876 0.73843 0.86361 0.0
O110 O 0.76682 0.61703 0.81634 0.0
O111 O 0.67937 0.56774 0.83501 0.0
H112 H 0.5194 0.64553 0.87254 0.0
H113 H 0.44901 0.67314 0.86468 0.0
H114 H 0.44844 0.63404 0.78531 0.0
H115 H 0.51941 0.60671 0.79313 0.0
H116 H 0.8528 0.65914 0.77609 0.0
H117 H 0.85935 0.57325 0.77449 0.0
H118 H 0.97799 0.6366 0.83629 0.0
H119 H 0.97214 0.72316 0.83797 0.0
C120 C 0.65495 1.04655 0.22537 0.0
C121 C 0.65027 1.04432 0.19884 0.0
C122 C 0.67255 1.09565 0.18564 0.0
C123 C 0.69159 0.14685 0.19874 0.0
H124 H 0.62157 0.27503 0.20432 0.0
H125 H 0.65416 0.32879 0.16543 0.0
H126 H 0.81133 0.44719 0.20247 0.0
H127 H 0.77749 0.39474 0.24118 0.0
H128 H 0.78313 0.22096 0.30103 0.0
H129 H 0.78138 0.19884 0.34531 0.0
H130 H 0.66318 0.25718 0.36025 0.0
H131 H 0.66446 0.27867 0.31524 0.0
H132 H 0.6742 1.09718 0.25886 0.0
H133 H 0.63818 1.00831 0.23641 0.0
H134 H 0.67144 1.09586 0.1652 0.0
H135 H 0.70469 0.18516 0.18808 0.0
N136 N 0.69186 0.23846 0.22732 0.0
N137 N 0.70789 0.28966 0.26544 0.0
N138 N 0.70937 0.20414 0.26419 0.0
C139 C 0.69623 0.28382 0.24022 0.0
C140 C 0.71404 0.24918 0.27745 0.0
C141 C 0.69857 0.1986 0.23914 0.0
C142 C 0.69819 0.32973 0.22527 0.0
C143 C 0.66142 0.31486 0.20452 0.0
C144 C 0.68043 0.34539 0.18213 0.0
C145 C 0.7368 0.38997 0.18027 0.0
C146 C 0.76814 0.41212 0.2028 0.0
C147 C 0.74868 0.38206 0.22528 0.0
C148 C 0.72365 0.25112 0.3048 0.0
C149 C 0.75796 0.23053 0.31389 0.0
C150 C 0.75709 0.21806 0.33931 0.0
C151 C 0.72164 0.22568 0.35625 0.0
C152 C 0.69032 0.2502 0.34751 0.0
C153 C 0.69157 0.26318 0.3219 0.0
C154 C 0.69014 0.14774 0.22525 0.0
C155 C 0.67505 1.09778 0.2384 0.0
C156 C 0.90868 0.53975 0.54228 0.0
C157 C 0.91785 0.56239 0.51776 0.0
C158 C 0.94393 0.62148 0.5152 0.0
C159 C 0.94872 0.65516 0.53615 0.0
H160 H 0.79256 0.64924 0.52507 0.0
H161 H 0.72259 0.66368 0.50318 0.0
H162 H 0.67566 0.70831 0.57434 0.0
H163 H 0.74354 0.69247 0.59605 0.0
H164 H 0.8648 0.75388 0.63937 0.0
H165 H 0.83606 0.75091 0.68288 0.0
H166 H 0.8388 0.59526 0.69333 0.0
H167 H 0.86651 0.59794 0.6489 0.0
H168 H 0.89788 0.55336 0.58128 0.0
H169 H 0.88932 0.4945 0.54513 0.0
H170 H 0.95332 0.64047 0.49666 0.0
H171 H 0.96024 0.69891 0.53312 0.0
N172 N 0.85647 0.65661 0.56256 0.0
N173 N 0.82636 0.67559 0.60072 0.0
N174 N 0.90069 0.65559 0.60044 0.0
C175 C 0.82064 0.66827 0.57542 0.0
C176 C 0.86616 0.6698 0.61332 0.0
C177 C 0.89682 0.65089 0.57477 0.0
C178 C 0.77477 0.6713 0.56224 0.0
C179 C 0.76659 0.66129 0.53605 0.0
C180 C 0.72625 0.66917 0.5235 0.0
C181 C 0.69364 0.6875 0.53689 0.0
C182 C 0.69915 0.69332 0.56332 0.0
C183 C 0.7391 0.68524 0.57582 0.0
C184 C 0.86763 0.67609 0.64091 0.0
C185 C 0.86118 0.72009 0.65122 0.0
C186 C 0.84479 0.71835 0.67625 0.0
C187 C 0.83437 0.67241 0.69158 0.0
C188 C 0.84562 0.63074 0.68184 0.0
C189 C 0.86232 0.63265 0.6566 0.0
C190 C 0.92777 0.62993 0.55971 0.0
C191 C 0.91399 0.57365 0.56325 0.0
C192 C 0.87554 0.41326 0.88103 0.0
C193 C 0.88573 0.40338 0.85585 0.0
C194 C 0.91435 0.37335 0.85155 0.0
C195 C 0.94456 0.36727 0.87122 0.0
H196 H 1.09274 0.5059 0.8486 0.0
H197 H 0.17103 0.56602 0.82059 0.0
H198 H 0.27824 0.64615 0.88561 0.0
H199 H 0.20061 0.58766 0.91333 0.0
H200 H 0.15884 0.50427 0.96535 0.0
H201 H 0.18407 0.53684 0.00864 0.0
H202 H 1.01306 0.50001 0.02312 0.0
H203 H 0.98759 0.46744 0.97904 0.0
H204 H 0.90522 0.42468 0.91905 0.0
H205 H 0.85236 0.43493 0.88527 0.0
H206 H 0.92091 0.36297 0.83247 0.0
H207 H 0.97459 0.35358 0.86662 0.0
N208 N 1.04545 0.46041 0.89103 0.0
N209 N 1.10312 0.50688 0.92562 0.0
N210 N 1.00922 0.4338 0.93215 0.0
C211 C 1.0957 0.50121 0.90034 0.0
C212 C 1.06064 0.47335 0.94162 0.0
C213 C 1.00233 0.42619 0.90665 0.0
C214 C 1.14093 0.54084 0.88322 0.0
C215 C 1.13289 0.53699 0.85689 0.0
C216 C 0.17752 0.5717 0.84081 0.0
C217 C 0.23098 0.61074 0.85078 0.0
C218 C 0.23753 0.61728 0.87715 0.0
C219 C 0.19309 0.58281 0.89316 0.0
C220 C 1.07131 0.48344 0.96891 0.0
C221 C 1.12629 0.50228 0.97783 0.0
C222 C 1.14071 0.52076 0.00266 0.0
C223 C 1.10056 0.52109 0.0192 0.0
C224 C 1.04485 0.50053 0.01061 0.0
C225 C 1.03015 0.48133 0.9856 0.0
C226 C 0.94639 0.39169 0.89499 0.0
C227 C 0.90566 0.40692 0.90068 0.0
C228 C 0.36235 0.77583 0.44216 0.0
C229 C 0.35439 0.8062 0.46184 0.0
C230 C 0.2994 0.78384 0.47201 0.0
C231 C 0.25366 0.73259 0.46257 0.0
H232 H 1.08203 0.55543 0.47837 0.0
H233 H 0.99601 0.47362 0.49573 0.0
H234 H 0.98051 0.37702 0.42807 0.0
H235 H 1.06466 0.45669 0.41107 0.0
H236 H 1.11705 0.50667 0.36249 0.0
H237 H 1.11732 0.49695 0.31679 0.0
H238 H 0.23475 0.67665 0.3105 0.0
H239 H 0.23488 0.68671 0.35662 0.0
H240 H 0.32463 0.70454 0.4168 0.0
H241 H 0.40379 0.79179 0.43371 0.0
H242 H 0.29179 0.80605 0.48725 0.0
H243 H 0.21179 0.71693 0.47049 0.0
N244 N 0.16952 0.61033 0.44282 0.0
N245 N 1.13185 0.56075 0.40464 0.0
N246 N 0.21527 0.64862 0.40397 0.0
C247 C 1.12849 0.56342 0.43018 0.0
C248 C 0.1744 0.60281 0.39133 0.0
C249 C 0.21355 0.65302 0.4296 0.0
C250 C 1.08016 0.51358 0.44304 0.0
C251 C 1.06049 0.51649 0.46739 0.0
C252 C 1.01108 0.46953 0.47732 0.0
C253 C 0.98024 0.41889 0.46305 0.0
C254 C 1.00187 0.41553 0.43938 0.0
C255 C 1.05066 0.46173 0.42961 0.0
C256 C 0.17599 0.59754 0.36335 0.0
C257 C 1.14309 0.5443 0.35149 0.0
C258 C 1.14344 0.53857 0.32524 0.0
C259 C 0.17616 0.58597 0.31002 0.0
C260 C 0.20888 0.63939 0.32174 0.0
C261 C 0.2092 0.64505 0.34816 0.0
C262 C 0.26168 0.70346 0.4423 0.0
C263 C 0.31674 0.72574 0.43241 0.0
C264 C 0.69339 0.33717 0.76817 0.0
C265 C 0.70805 0.35413 0.79344 0.0
C266 C 0.71746 0.31823 0.80925 0.0
C267 C 0.71354 0.26757 0.79969 0.0
H268 H 0.75872 0.11425 0.80388 0.0
H269 H 0.76785 1.03546 0.82091 0.0
H270 H 0.63657 0.91892 0.77016 0.0
H271 H 0.62798 0.99669 0.75324 0.0
H272 H 0.62352 1.04867 0.69557 0.0
H273 H 0.60883 1.04275 0.64957 0.0
H274 H 0.70894 0.22512 0.64525 0.0
H275 H 0.72233 0.23138 0.69096 0.0
H276 H 0.67805 0.27701 0.73904 0.0
H277 H 0.68436 0.36243 0.75547 0.0
H278 H 0.72893 0.32982 0.82886 0.0
H279 H 0.72172 0.24143 0.8122 0.0
N280 N 0.69819 0.15744 0.77593 0.0
N281 N 0.68238 1.10383 0.7383 0.0
N282 N 0.68848 0.19218 0.73698 0.0
C283 C 0.69115 0.10937 0.76376 0.0
C284 C 0.68167 0.14531 0.72477 0.0
C285 C 0.69602 0.19901 0.76239 0.0
C286 C 0.69249 1.06199 0.77721 0.0
C287 C 0.7312 1.07161 0.79674 0.0
C288 C 0.73681 1.02649 0.8063 0.0
C289 C 0.70297 0.9705 0.79695 0.0
C290 C 0.66302 0.96102 0.77809 0.0
C291 C 0.65821 1.00591 0.76829 0.0
C292 C 0.67402 0.14049 0.69692 0.0
C293 C 0.64244 1.08741 0.68476 0.0
C294 C 0.63378 1.08401 0.65852 0.0
C295 C 0.65783 0.13351 0.64394 0.0
C296 C 0.69013 0.18634 0.65604 0.0
C297 C 0.69759 0.18984 0.68223 0.0
C298 C 0.69992 0.25158 0.77411 0.0
C299 C 0.68952 0.28731 0.75874 0.0
C300 C 0.88276 0.6429 0.10495 0.0
C301 C 0.88085 0.61852 0.12842 0.0
C302 C 0.83107 0.599 0.14305 0.0
C303 C 0.78371 0.60126 0.13375 0.0
H304 H 0.62681 0.64671 0.14543 0.0
H305 H 0.53827 0.63759 0.16244 0.0
H306 H 0.4497 0.54524 0.09519 0.0
H307 H 0.53663 0.55418 0.07854 0.0
H308 H 0.64062 0.66942 0.03013 0.0
H309 H 0.64851 0.68376 0.98429 0.0
H310 H 0.75669 0.61113 0.97946 0.0
H311 H 0.7504 0.5983 0.02528 0.0
H312 H 0.84005 0.66382 0.07739 0.0
H313 H 0.92052 0.65996 0.09336 0.0
H314 H 0.82792 0.58022 0.16131 0.0
H315 H 0.74554 0.58408 0.14505 0.0
N316 N 0.68747 0.61338 0.11058 0.0
N317 N 0.64609 0.61822 0.07235 0.0
N318 N 0.73564 0.62718 0.07189 0.0
C319 C 0.64278 0.6116 0.09787 0.0
C320 C 0.69213 0.62595 0.05924 0.0
C321 C 0.7345 0.62138 0.09742 0.0
C322 C 0.58913 0.60115 0.11059 0.0
C323 C 0.58814 0.62367 0.13456 0.0
C324 C 0.53744 0.61891 0.14417 0.0
C325 C 0.48635 0.59053 0.13026 0.0
C326 C 0.48754 0.56674 0.10671 0.0
C327 C 0.53785 0.57218 0.09705 0.0
C328 C 0.69503 0.63287 0.03137 0.0
C329 C 0.66594 0.65634 0.01928 0.0
C330 C 0.67053 0.66471 -0.00691 0.0
C331 C 0.70302 0.64834 0.97839 0.0
C332 C 0.73107 0.62376 -0.00964 0.0
C333 C 0.72769 0.61673 0.01659 0.0
C334 C 0.78517 0.62338 0.10964 0.0
C335 C 0.83611 0.64528 0.09579 0.0
C336 C 0.32817 0.53364 0.14145 0.0
C337 C 0.32702 0.58116 0.15142 0.0
H338 H 0.37831 0.49887 0.12755 0.0
C339 C 0.37941 0.6309 0.15617 0.0
H340 H 0.28909 0.49441 0.13762 0.0
C341 C 0.43112 0.63344 0.15034 0.0
C342 C 0.43201 0.58648 0.13942 0.0
H343 H 0.38056 0.66849 0.16383 0.0
H344 H 0.47033 0.67298 0.15348 0.0
C345 C 0.37964 0.53628 0.13554 0.0
C346 C 0.82721 0.29697 0.46104 0.0
C347 C 0.81765 0.27575 0.48571 0.0
H348 H 0.88452 0.3582 0.43483 0.0
C349 C 0.86225 0.30209 0.5033 0.0
H350 H 0.79402 0.27781 0.44702 0.0
C351 C 0.91474 0.34941 0.49638 0.0
C352 C 0.9242 0.37031 0.47152 0.0
H353 H 0.85631 0.28658 0.52245 0.0
H354 H 0.94822 0.36891 0.51031 0.0
C355 C 0.8795 0.34313 0.45402 0.0
C356 C 0.66751 0.82125 0.81619 0.0
C357 C 0.72129 0.82623 0.81801 0.0
H358 H 0.61964 0.86209 0.80849 0.0
C359 C 0.76933 0.88033 0.81445 0.0
H360 H 0.62935 0.78062 0.81884 0.0
C361 C 0.76362 0.92756 0.80864 0.0
C362 C 0.70973 0.92196 0.8059 0.0
H363 H 0.81146 0.8861 0.81571 0.0
H364 H 0.80149 0.96807 0.80536 0.0
C365 C 0.66185 0.86816 0.81013 0.0
C366 C 1.00431 0.58989 0.12543 0.0
C367 C 1.02474 0.60014 0.15034 0.0
H368 H 0.94392 0.58726 0.09915 0.0
C369 C 0.99757 0.61679 0.16834 0.0
H370 H 1.02434 0.57736 0.11105 0.0
C371 C 0.95024 0.62171 0.16159 0.0
C372 C 0.93007 0.61183 0.1365 0.0
H373 H 1.01242 0.62521 0.18769 0.0
H374 H 0.93016 0.63434 0.17591 0.0
C375 C 0.9583 0.59618 0.11856 0.0
C376 C 0.50388 0.91914 0.48199 0.0
C377 C 0.50029 0.96887 0.48318 0.0
H378 H 0.46125 0.82949 0.47441 0.0
C379 C 0.44707 0.96383 0.47882 0.0
H380 H 0.5439 0.92099 0.4852 0.0
C381 C 0.39921 0.91083 0.47298 0.0
C382 C 0.40346 0.86157 0.47087 0.0
H383 H 0.44247 1.00101 0.47963 0.0
H384 H 0.3593 0.90875 0.46919 0.0
C385 C 0.45639 0.86649 0.47572 0.0
C386 C 0.74147 0.50822 0.79385 0.0
C387 C 0.7204 0.51374 0.81732 0.0
H388 H 0.75582 0.45527 0.76838 0.0
C389 C 0.69544 0.46631 0.83329 0.0
H390 H 0.75984 0.54342 0.78089 0.0
C391 C 0.69271 0.41496 0.82606 0.0
C392 C 0.71383 0.40948 0.80245 0.0
H393 H 0.67835 0.46904 0.85142 0.0
H394 H 0.67293 0.3792 0.83869 0.0
C395 C 0.73845 0.45718 0.78657 0.0
C396 C 0.67832 0.79166 0.49807 0.0
C397 C 0.63881 0.79754 0.51291 0.0
H398 H 0.72688 0.75085 0.49404 0.0
C399 C 0.60468 0.75454 0.52989 0.0
H400 H 0.70497 0.82413 0.48471 0.0
C401 C 0.61651 0.71149 0.53496 0.0
C402 C 0.66354 0.71215 0.5236 0.0
H403 H 0.57311 0.75769 0.54116 0.0
H404 H 0.59328 0.68198 0.54992 0.0
C405 C 0.69081 0.74928 0.50343 0.0
C406 C 0.85284 0.50572 0.82463 0.0
C407 C 0.9038 0.54018 0.81185 0.0
H408 H 0.80479 0.43231 0.84729 0.0
C409 C 0.94368 0.52265 0.80946 0.0
H410 H 0.82302 0.52015 0.82773 0.0
C411 C 0.93418 0.47303 0.82126 0.0
C412 C 0.88489 0.44071 0.83589 0.0
H413 H 0.98372 0.54928 0.80006 0.0
H414 H 0.96816 0.46349 0.821 0.0
C415 C 0.84288 0.45587 0.83613 0.0
C416 C 0.55094 0.88757 0.19185 0.0
C417 C 0.50965 0.88782 0.17634 0.0
H418 H 0.63133 0.93732 0.20985 0.0
C419 C 0.52289 0.93689 0.16288 0.0
H420 H 0.5419 0.84969 0.20202 0.0
C421 C 0.5731 0.98732 0.16784 0.0
C422 C 0.61115 0.98926 0.1862 0.0
H423 H 0.49172 0.93807 0.15074 0.0
H424 H 0.57834 1.02561 0.15941 0.0
C425 C 0.60188 0.93784 0.19641 0.0
C426 C 0.83103 0.42728 0.48108 0.0
C427 C 0.79479 0.44015 0.46772 0.0
H428 H 0.90077 0.45659 0.50653 0.0
C429 C 0.80684 0.49642 0.46703 0.0
H430 H 0.82076 0.38382 0.48297 0.0
C431 C 0.85202 0.53831 0.48111 0.0
C432 C 0.88542 0.52432 0.49633 0.0
H433 H 0.77891 0.50713 0.45717 0.0
H434 H 0.85692 0.58023 0.48198 0.0
C435 C 0.87636 0.46898 0.49496 0.0
C436 C 0.38409 0.69932 0.8347 0.0
C437 C 0.39113 0.65855 0.8213 0.0
H438 H 0.32552 0.71719 0.85382 0.0
C439 C 0.34342 0.61136 0.81072 0.0
H440 H 0.42042 0.7368 0.84251 0.0
C441 C 0.28927 0.59976 0.81742 0.0
C442 C 0.28235 0.63539 0.83469 0.0
H443 H 0.34755 0.57938 0.80014 0.0
H444 H 0.2537 0.55913 0.81177 0.0
C445 C 0.32981 0.68798 0.84121 0.0
C446 C 0.86126 0.45194 0.1369 0.0
C447 C 0.85399 0.4021 0.12528 0.0
H448 H 0.82765 0.48857 0.16255 0.0
C449 C 0.80035 0.35309 0.12591 0.0
H450 H 0.90234 0.48989 0.13723 0.0
C451 C 0.75771 0.35165 0.14113 0.0
C452 C 0.76821 0.39928 0.15604 0.0
H453 H 0.79335 0.3142 0.11689 0.0
H454 H 0.71954 0.31098 0.14356 0.0
C455 C 0.81845 0.45084 0.15182 0.0
C456 C 1.12728 0.61111 0.07829 0.0
C457 C 0.16206 0.59698 0.09206 0.0
H458 H 1.0792 0.5969 0.04432 0.0
C459 C 0.17488 0.55685 0.08216 0.0
H460 H 1.11672 0.64184 0.08568 0.0
C461 C 1.15307 0.5308 0.05895 0.0
C462 C 1.11841 0.54479 0.04497 0.0
H463 H 0.20185 0.54548 0.09244 0.0
H464 H 0.16367 0.49988 0.05182 0.0
C465 C 1.10525 0.58486 0.0549 0.0
C466 C 0.75172 0.17876 0.41824 0.0
C467 C 0.69712 0.14638 0.42834 0.0
H468 H 0.80272 0.23198 0.38824 0.0
C469 C 0.65075 0.14236 0.41528 0.0
H470 H 0.78827 0.18286 0.42808 0.0
C471 C 0.65893 0.1703 0.39233 0.0
C472 C 0.71366 0.20254 0.38209 0.0
H473 H 0.60815 0.11681 0.42255 0.0
H474 H 0.62222 0.16493 0.38219 0.0
C475 C 0.76001 0.20709 0.3955 0.0
C476 C 0.78541 0.70804 0.75252 0.0
C477 C 0.74024 0.65493 0.75945 0.0
H478 H 0.85282 0.75483 0.72654 0.0
C479 C 0.72826 0.60685 0.7449 0.0
H480 H 0.79507 0.74585 0.76332 0.0
C481 C 0.7607 0.61201 0.7235 0.0
C482 C 0.80565 0.66542 0.7163 0.0
H483 H 0.69368 0.56534 0.74997 0.0
H484 H 0.74912 0.5745 0.71209 0.0
C485 C 0.81824 0.71316 0.73137 0.0
C486 C 0.58793 0.10754 0.57947 0.0
C487 C 0.63527 0.13388 0.56344 0.0
H488 H 0.55802 1.08567 0.61765 0.0
C489 C 0.68974 0.15748 0.57394 0.0
H490 H 0.54549 1.08883 0.57184 0.0
C491 C 0.69687 0.15654 0.60003 0.0
C492 C 0.64967 0.13082 0.61614 0.0
H493 H 0.72703 0.17796 0.56204 0.0
H494 H 0.73938 0.17622 0.60769 0.0
C495 C 0.59507 1.10549 0.6056 0.0
C496 C 0.74125 0.72405 0.91549 0.0
C497 C 0.72907 0.67949 0.89841 0.0
H498 H 0.74141 0.74879 0.95417 0.0
C499 C 0.70547 0.62403 0.90765 0.0
H500 H 0.75944 0.76718 0.90885 0.0
C501 C 0.69642 0.61375 0.93362 0.0
C502 C 0.70937 0.65849 0.95074 0.0
H503 H 0.69586 0.5889 0.89493 0.0
H504 H 0.67965 0.5709 0.94039 0.0
C505 C 0.73086 0.71355 0.94136 0.0
C506 C 0.17658 0.52519 0.24512 0.0
C507 C 0.16747 0.56046 0.22909 0.0
H508 H 0.18676 0.50581 0.28313 0.0
C509 C 0.16357 0.60587 0.23973 0.0
H510 H 0.18 0.48999 0.23749 0.0
C511 C 0.16803 0.61531 0.26595 0.0
C512 C 0.17561 0.579 0.28204 0.0
H513 H 1.15635 0.63364 0.22783 0.0
H514 H 0.16384 0.64997 0.27369 0.0
C515 C 0.18031 0.53416 0.27127 0.0
loop_
_geom_bond_atom_site_label_1
_geom_bond_atom_site_label_2
_geom_bond_distance
_geom_bond_site_symmetry_2
_ccdc_geom_bond_type
Tb0 C2 2.809 . S
Tb0 O20 2.484 . S
Tb0 O21 2.440 . S
Tb0 O22 2.658 . S
Tb0 O23 2.409 . S
Tb0 O24 2.378 . S
Tb0 O28 2.325 . S
Tb0 O31 2.341 1_455 S
Tb1 C11 2.809 . S
Tb1 O22 2.325 1_655 S
Tb1 O25 2.341 1_655 S
Tb1 O26 2.484 . S
Tb1 O27 2.440 . S
Tb1 O28 2.658 1_655 S
Tb1 O29 2.408 . S
Tb1 O30 2.378 . S
C2 Tb0 2.809 . S
C2 C3 1.514 . S
C2 O20 1.248 . S
C2 O21 1.266 . S
C3 C2 1.514 . S
C3 C4 1.359 . S
C3 C8 1.348 . S
C4 C3 1.359 . S
C4 C5 1.380 . S
C4 H32 0.929 . S
C5 C4 1.380 . S
C5 C6 1.347 . S
C5 H33 0.931 . S
C6 C5 1.347 . S
C6 C7 1.369 . S
C7 C6 1.369 . S
C7 C8 1.408 . S
C7 H34 0.930 . S
C8 C3 1.348 . S
C8 C7 1.408 . S
C8 H35 0.930 . S
C9 O22 1.281 . S
C9 O23 1.254 . S
C10 O24 1.236 . S
C10 O25 1.266 . S
C11 Tb1 2.809 . S
C11 C12 1.514 . S
C11 O26 1.248 . S
C11 O27 1.266 . S
C12 C11 1.514 . S
C12 C13 1.359 . S
C12 C17 1.348 . S
C13 C12 1.359 . S
C13 C14 1.380 . S
C13 H36 0.929 . S
C14 C13 1.380 . S
C14 C15 1.347 . S
C14 H37 0.931 . S
C15 C14 1.347 . S
C15 C16 1.369 . S
C16 C15 1.369 . S
C16 C17 1.408 . S
C16 H38 0.930 . S
C17 C12 1.348 . S
C17 C16 1.408 . S
C17 H39 0.930 . S
C18 O28 1.281 . S
C18 O29 1.252 1_455 S
C19 O30 1.236 . S
C19 O31 1.266 . S
O20 Tb0 2.484 . S
O20 C2 1.248 . S
O21 Tb0 2.440 . S
O21 C2 1.266 . S
O22 Tb0 2.658 . S
O22 Tb1 2.325 1_455 S
O22 C9 1.281 . S
O23 Tb0 2.409 . S
O23 C9 1.254 . S
O24 Tb0 2.378 . S
O24 C10 1.236 . S
O25 Tb1 2.341 1_455 S
O25 C10 1.266 . S
O26 Tb1 2.484 . S
O26 C11 1.248 . S
O27 Tb1 2.440 . S
O27 C11 1.266 . S
O28 Tb0 2.325 . S
O28 Tb1 2.658 1_455 S
O28 C18 1.281 . S
O29 Tb1 2.408 . S
O29 C18 1.252 1_655 S
O30 Tb1 2.378 . S
O30 C19 1.236 . S
O31 Tb0 2.341 1_655 S
O31 C19 1.266 . S
H32 C4 0.929 . S
H33 C5 0.931 . S
H34 C7 0.930 . S
H35 C8 0.930 . S
H36 C13 0.929 . S
H37 C14 0.931 . S
H38 C16 0.930 . S
H39 C17 0.930 . S
Tb40 C42 2.809 . S
Tb40 O60 2.484 . S
Tb40 O61 2.440 . S
Tb40 O62 2.658 1_565 S
Tb40 O63 2.409 1_565 S
Tb40 O64 2.378 . S
Tb40 O68 2.325 1_565 S
Tb40 O71 2.341 1_565 S
Tb41 C51 2.809 . S
Tb41 O62 2.325 . S
Tb41 O65 2.341 1_545 S
Tb41 O66 2.484 . S
Tb41 O67 2.440 . S
Tb41 O68 2.658 . S
Tb41 O69 2.409 . S
Tb41 O70 2.378 . S
C42 Tb40 2.809 . S
C42 C43 1.514 . S
C42 O60 1.248 . S
C42 O61 1.266 . S
C43 C42 1.514 . S
C43 C44 1.359 . S
C43 C48 1.348 . S
C44 C43 1.359 . S
C44 C45 1.380 . S
C44 H72 0.929 . S
C45 C44 1.380 . S
C45 C46 1.347 . S
C45 H73 0.931 . S
C46 C45 1.347 . S
C46 C47 1.369 . S
C47 C46 1.369 . S
C47 C48 1.408 . S
C47 H74 0.930 . S
C48 C43 1.348 . S
C48 C47 1.408 . S
C48 H75 0.930 . S
C49 O62 1.281 . S
C49 O63 1.254 . S
C50 O64 1.236 . S
C50 O65 1.266 . S
C51 Tb41 2.809 . S
C51 C52 1.514 . S
C51 O66 1.248 . S
C51 O67 1.266 . S
C52 C51 1.514 . S
C52 C53 1.359 . S
C52 C57 1.348 . S
C53 C52 1.359 . S
C53 C54 1.380 . S
C53 H76 0.929 . S
C54 C53 1.380 . S
C54 C55 1.347 . S
C54 H77 0.931 . S
C55 C54 1.347 . S
C55 C56 1.369 . S
C56 C55 1.369 . S
C56 C57 1.408 . S
C56 H78 0.930 . S
C57 C52 1.348 . S
C57 C56 1.408 . S
C57 H79 0.930 . S
C58 O68 1.281 . S
C58 O69 1.254 . S
C59 O70 1.236 . S
C59 O71 1.266 . S
O60 Tb40 2.484 . S
O60 C42 1.248 . S
O61 Tb40 2.440 . S
O61 C42 1.266 . S
O62 Tb40 2.658 1_545 S
O62 Tb41 2.325 . S
O62 C49 1.281 . S
O63 Tb40 2.409 1_545 S
O63 C49 1.254 . S
O64 Tb40 2.378 . S
O64 C50 1.236 . S
O65 Tb41 2.341 1_565 S
O65 C50 1.266 . S
O66 Tb41 2.484 . S
O66 C51 1.248 . S
O67 Tb41 2.440 . S
O67 C51 1.266 . S
O68 Tb40 2.325 1_545 S
O68 Tb41 2.658 . S
O68 C58 1.281 . S
O69 Tb41 2.409 . S
O69 C58 1.254 . S
O70 Tb41 2.378 . S
O70 C59 1.236 . S
O71 Tb40 2.341 1_545 S
O71 C59 1.266 . S
H72 C44 0.929 . S
H73 C45 0.931 . S
H74 C47 0.930 . S
H75 C48 0.930 . S
H76 C53 0.929 . S
H77 C54 0.931 . S
H78 C56 0.930 . S
H79 C57 0.930 . S
Tb80 C82 2.809 . S
Tb80 O100 2.484 . S
Tb80 O101 2.440 . S
Tb80 O102 2.658 . S
Tb80 O103 2.409 . S
Tb80 O104 2.378 . S
Tb80 O108 2.325 . S
Tb80 O111 2.341 . S
Tb81 C91 2.809 . S
Tb81 O102 2.325 . S
Tb81 O105 2.341 . S
Tb81 O106 2.484 . S
Tb81 O107 2.440 . S
Tb81 O108 2.658 . S
Tb81 O109 2.409 . S
Tb81 O110 2.378 . S
C82 Tb80 2.809 . S
C82 C83 1.514 . S
C82 O100 1.248 . S
C82 O101 1.266 . S
C83 C82 1.514 . S
C83 C84 1.359 . S
C83 C88 1.348 . S
C84 C83 1.359 . S
C84 C85 1.380 . S
C84 H112 0.929 . S
C85 C84 1.380 . S
C85 C86 1.347 . S
C85 H113 0.931 . S
C86 C85 1.347 . S
C86 C87 1.369 . S
C87 C86 1.369 . S
C87 C88 1.408 . S
C87 H114 0.930 . S
C88 C83 1.348 . S
C88 C87 1.408 . S
C88 H115 0.930 . S
C89 O102 1.281 . S
C89 O103 1.254 . S
C90 O104 1.236 . S
C90 O105 1.266 . S
C91 Tb81 2.809 . S
C91 C92 1.514 . S
C91 O106 1.248 . S
C91 O107 1.266 . S
C92 C91 1.514 . S
C92 C93 1.359 . S
C92 C97 1.348 . S
C93 C92 1.359 . S
C93 C94 1.380 . S
C93 H116 0.929 . S
C94 C93 1.380 . S
C94 C95 1.347 . S
C94 H117 0.931 . S
C95 C94 1.347 . S
C95 C96 1.369 . S
C96 C95 1.369 . S
C96 C97 1.408 . S
C96 H118 0.930 . S
C97 C92 1.348 . S
C97 C96 1.408 . S
C97 H119 0.930 . S
C98 O108 1.281 . S
C98 O109 1.254 . S
C99 O110 1.236 . S
C99 O111 1.266 . S
O100 Tb80 2.484 . S
O100 C82 1.248 . S
O101 Tb80 2.440 . S
O101 C82 1.266 . S
O102 Tb80 2.658 . S
O102 Tb81 2.325 . S
O102 C89 1.281 . S
O103 Tb80 2.409 . S
O103 C89 1.254 . S
O104 Tb80 2.378 . S
O104 C90 1.236 . S
O105 Tb81 2.341 . S
O105 C90 1.266 . S
O106 Tb81 2.484 . S
O106 C91 1.248 . S
O107 Tb81 2.440 . S
O107 C91 1.266 . S
O108 Tb80 2.325 . S
O108 Tb81 2.658 . S
O108 C98 1.281 . S
O109 Tb81 2.409 . S
O109 C98 1.254 . S
O110 Tb81 2.378 . S
O110 C99 1.236 . S
O111 Tb80 2.341 . S
O111 C99 1.266 . S
H112 C84 0.929 . S
H113 C85 0.931 . S
H114 C87 0.930 . S
H115 C88 0.930 . S
H116 C93 0.929 . S
H117 C94 0.931 . S
H118 C96 0.930 . S
H119 C97 0.930 . S
C120 C121 1.384 . S
C120 H133 0.947 . S
C120 C155 1.382 . S
C121 C120 1.384 . S
C121 C122 1.378 . S
C122 C121 1.378 . S
C122 C123 1.378 . S
C122 H134 0.952 . S
C123 C122 1.378 . S
C123 H135 0.950 . S
C123 C154 1.383 . S
H124 C143 0.947 . S
H125 C144 0.946 . S
H126 C146 0.953 . S
H127 C147 0.945 . S
H128 C149 0.952 . S
H129 C150 0.949 . S
H130 C152 0.951 1_565 S
H131 C153 0.948 . S
H132 C155 0.951 . S
H133 C120 0.947 . S
H134 C122 0.952 . S
H135 C123 0.950 . S
N136 C139 1.382 . S
N136 C141 1.363 . S
N137 C139 1.371 . S
N137 C140 1.372 . S
N138 C140 1.361 . S
N138 C141 1.377 . S
C139 N136 1.382 . S
C139 N137 1.371 . S
C139 C142 1.480 . S
C140 N137 1.372 . S
C140 N138 1.361 . S
C140 C148 1.457 . S
C141 N136 1.363 . S
C141 N138 1.377 . S
C141 C154 1.479 1_545 S
C142 C139 1.480 . S
C142 C143 1.383 . S
C142 C147 1.385 . S
C143 H124 0.947 . S
C143 C142 1.383 . S
C143 C144 1.388 . S
C144 H125 0.946 . S
C144 C143 1.388 . S
C144 C145 1.384 . S
C145 C144 1.384 . S
C145 C146 1.377 . S
C146 H126 0.953 . S
C146 C145 1.377 . S
C146 C147 1.369 . S
C147 H127 0.945 . S
C147 C142 1.385 . S
C147 C146 1.369 . S
C148 C140 1.457 . S
C148 C149 1.372 . S
C148 C153 1.364 1_545 S
C149 H128 0.952 . S
C149 C148 1.372 . S
C149 C150 1.389 . S
C150 H129 0.949 . S
C150 C149 1.389 . S
C150 C151 1.387 . S
C151 C150 1.387 . S
C151 C152 1.371 . S
C152 H130 0.951 1_545 S
C152 C151 1.371 . S
C152 C153 1.379 1_545 S
C153 H131 0.948 . S
C153 C148 1.364 1_565 S
C153 C152 1.379 1_565 S
C154 C123 1.383 . S
C154 C141 1.479 1_565 S
C154 C155 1.398 . S
C155 C120 1.382 . S
C155 H132 0.951 . S
C155 C154 1.398 . S
C156 C157 1.384 . S
C156 H169 0.947 . S
C156 C191 1.382 . S
C157 C156 1.384 . S
C157 C158 1.378 . S
C158 C157 1.378 . S
C158 C159 1.378 . S
C158 H170 0.952 . S
C159 C158 1.378 . S
C159 H171 0.950 . S
C159 C190 1.383 . S
H160 C179 0.947 . S
H161 C180 0.946 . S
H162 C182 0.953 . S
H163 C183 0.945 . S
H164 C185 0.952 . S
H165 C186 0.949 . S
H166 C188 0.950 . S
H167 C189 0.948 . S
H168 C191 0.951 . S
H169 C156 0.947 . S
H170 C158 0.952 . S
H171 C159 0.950 . S
N172 C175 1.382 . S
N172 C177 1.363 . S
N173 C175 1.371 . S
N173 C176 1.372 . S
N174 C176 1.361 . S
N174 C177 1.377 . S
C175 N172 1.382 . S
C175 N173 1.371 . S
C175 C178 1.480 . S
C176 N173 1.372 . S
C176 N174 1.361 . S
C176 C184 1.457 . S
C177 N172 1.363 . S
C177 N174 1.377 . S
C177 C190 1.479 . S
C178 C175 1.480 . S
C178 C179 1.383 . S
C178 C183 1.385 . S
C179 H160 0.947 . S
C179 C178 1.383 . S
C179 C180 1.388 . S
C180 H161 0.946 . S
C180 C179 1.388 . S
C180 C181 1.384 . S
C181 C180 1.384 . S
C181 C182 1.377 . S
C182 H162 0.953 . S
C182 C181 1.377 . S
C182 C183 1.369 . S
C183 H163 0.945 . S
C183 C178 1.385 . S
C183 C182 1.369 . S
C184 C176 1.457 . S
C184 C185 1.372 . S
C184 C189 1.364 . S
C185 H164 0.952 . S
C185 C184 1.372 . S
C185 C186 1.389 . S
C186 H165 0.949 . S
C186 C185 1.389 . S
C186 C187 1.387 . S
C187 C186 1.387 . S
C187 C188 1.372 . S
C188 H166 0.950 . S
C188 C187 1.372 . S
C188 C189 1.379 . S
C189 H167 0.948 . S
C189 C184 1.364 . S
C189 C188 1.379 . S
C190 C159 1.383 . S
C190 C177 1.479 . S
C190 C191 1.398 . S
C191 C156 1.382 . S
C191 H168 0.951 . S
C191 C190 1.398 . S
C192 C193 1.384 . S
C192 H205 0.947 . S
C192 C227 1.382 . S
C193 C192 1.384 . S
C193 C194 1.378 . S
C194 C193 1.378 . S
C194 C195 1.378 . S
C194 H206 0.952 . S
C195 C194 1.378 . S
C195 H207 0.950 . S
C195 C226 1.383 . S
H196 C215 0.947 . S
H197 C216 0.946 . S
H198 C218 0.953 . S
H199 C219 0.945 . S
H200 C221 0.952 . S
H201 C222 0.949 . S
H202 C224 0.950 . S
H203 C225 0.948 . S
H204 C227 0.951 . S
H205 C192 0.947 . S
H206 C194 0.952 . S
H207 C195 0.950 . S
N208 C211 1.382 1_655 S
N208 C213 1.363 . S
N209 C211 1.371 . S
N209 C212 1.376 . S
N210 C212 1.356 1_655 S
N210 C213 1.377 . S
C211 N208 1.382 1_455 S
C211 N209 1.371 . S
C211 C214 1.480 . S
C212 N209 1.376 . S
C212 N210 1.356 1_455 S
C212 C220 1.457 1_455 S
C213 N208 1.363 . S
C213 N210 1.377 . S
C213 C226 1.479 . S
C214 C211 1.480 . S
C214 C215 1.383 . S
C214 C219 1.385 . S
C215 H196 0.947 . S
C215 C214 1.383 . S
C215 C216 1.388 . S
C216 H197 0.946 . S
C216 C215 1.388 . S
C216 C217 1.384 . S
C217 C216 1.384 . S
C217 C218 1.377 . S
C218 H198 0.953 . S
C218 C217 1.377 . S
C218 C219 1.369 . S
C219 H199 0.945 . S
C219 C214 1.385 . S
C219 C218 1.369 . S
C220 C212 1.457 1_655 S
C220 C221 1.369 1_655 S
C220 C225 1.367 . S
C221 H200 0.952 . S
C221 C220 1.369 1_455 S
C221 C222 1.389 1_556 S
C222 H201 0.949 . S
C222 C221 1.389 1_554 S
C222 C223 1.387 . S
C223 C222 1.387 . S
C223 C224 1.372 1_455 S
C224 H202 0.950 . S
C224 C223 1.372 1_655 S
C224 C225 1.379 1_554 S
C225 H203 0.948 . S
C225 C220 1.367 . S
C225 C224 1.379 1_556 S
C226 C195 1.383 . S
C226 C213 1.479 . S
C226 C227 1.398 . S
C227 C192 1.382 . S
C227 H204 0.951 . S
C227 C226 1.398 . S
C228 C229 1.384 . S
C228 H241 0.947 . S
C228 C263 1.382 . S
C229 C228 1.384 . S
C229 C230 1.378 . S
C230 C229 1.378 . S
C230 C231 1.378 . S
C230 H242 0.952 . S
C231 C230 1.378 . S
C231 H243 0.950 . S
C231 C262 1.383 . S
H232 C251 0.947 1_455 S
H233 C252 0.946 . S
H234 C254 0.953 . S
H235 C255 0.945 . S
H236 C257 0.952 1_655 S
H237 C258 0.949 1_655 S
H238 C260 0.950 . S
H239 C261 0.948 . S
H240 C263 0.951 . S
H241 C228 0.947 . S
H242 C230 0.952 . S
H243 C231 0.950 . S
N244 C247 1.382 . S
N244 C249 1.363 . S
N245 C247 1.371 . S
N245 C248 1.372 . S
N246 C248 1.361 . S
N246 C249 1.377 . S
C247 N244 1.382 . S
C247 N245 1.371 . S
C247 C250 1.480 1_455 S
C248 N245 1.372 . S
C248 N246 1.361 . S
C248 C256 1.457 . S
C249 N244 1.363 . S
C249 N246 1.377 . S
C249 C262 1.479 . S
C250 C247 1.480 1_655 S
C250 C251 1.383 . S
C250 C255 1.385 . S
C251 H232 0.947 1_655 S
C251 C250 1.383 . S
C251 C252 1.388 . S
C252 H233 0.946 . S
C252 C251 1.388 . S
C252 C253 1.384 . S
C253 C252 1.384 . S
C253 C254 1.377 . S
C254 H234 0.953 . S
C254 C253 1.377 . S
C254 C255 1.369 . S
C255 H235 0.945 . S
C255 C250 1.385 . S
C255 C254 1.369 . S
C256 C248 1.457 . S
C256 C257 1.372 . S
C256 C261 1.364 . S
C257 H236 0.952 1_455 S
C257 C256 1.372 . S
C257 C258 1.389 . S
C258 H237 0.949 1_455 S
C258 C257 1.389 . S
C258 C259 1.387 . S
C259 C258 1.387 . S
C259 C260 1.372 . S
C260 H238 0.950 . S
C260 C259 1.372 . S
C260 C261 1.379 . S
C261 H239 0.948 . S
C261 C256 1.364 . S
C261 C260 1.379 . S
C262 C231 1.383 . S
C262 C249 1.479 . S
C262 C263 1.398 . S
C263 C228 1.382 . S
C263 H240 0.951 . S
C263 C262 1.398 . S
C264 C265 1.384 . S
C264 H277 0.947 . S
C264 C299 1.382 . S
C265 C264 1.384 . S
C265 C266 1.378 . S
C266 C265 1.378 . S
C266 C267 1.378 . S
C266 H278 0.952 . S
C267 C266 1.378 . S
C267 H279 0.950 . S
C267 C298 1.383 . S
H268 C287 0.947 . S
H269 C288 0.946 . S
H270 C290 0.953 . S
H271 C291 0.945 . S
H272 C293 0.952 . S
H273 C294 0.949 . S
H274 C296 0.950 . S
H275 C297 0.948 . S
H276 C299 0.951 . S
H277 C264 0.947 . S
H278 C266 0.952 . S
H279 C267 0.950 . S
N280 C283 1.382 1_545 S
N280 C285 1.363 . S
N281 C283 1.371 . S
N281 C284 1.372 1_565 S
N282 C284 1.361 . S
N282 C285 1.377 . S
C283 N280 1.382 1_565 S
C283 N281 1.371 . S
C283 C286 1.480 . S
C284 N281 1.372 1_545 S
C284 N282 1.361 . S
C284 C292 1.457 . S
C285 N280 1.363 . S
C285 N282 1.377 . S
C285 C298 1.479 . S
C286 C283 1.480 . S
C286 C287 1.383 . S
C286 C291 1.385 . S
C287 H268 0.947 . S
C287 C286 1.383 . S
C287 C288 1.388 . S
C288 H269 0.946 . S
C288 C287 1.388 . S
C288 C289 1.384 . S
C289 C288 1.384 . S
C289 C290 1.377 . S
C290 H270 0.953 . S
C290 C289 1.377 . S
C290 C291 1.369 . S
C291 H271 0.945 . S
C291 C286 1.385 . S
C291 C290 1.369 . S
C292 C284 1.457 . S
C292 C293 1.372 1_545 S
C292 C297 1.364 . S
C293 H272 0.952 . S
C293 C292 1.372 1_565 S
C293 C294 1.389 . S
C294 H273 0.949 . S
C294 C293 1.389 . S
C294 C295 1.387 1_565 S
C295 C294 1.387 1_545 S
C295 C296 1.372 . S
C296 H274 0.950 . S
C296 C295 1.372 . S
C296 C297 1.379 . S
C297 H275 0.948 . S
C297 C292 1.364 . S
C297 C296 1.379 . S
C298 C267 1.383 . S
C298 C285 1.479 . S
C298 C299 1.398 . S
C299 C264 1.382 . S
C299 H276 0.951 . S
C299 C298 1.398 . S
C300 C301 1.384 . S
C300 H313 0.947 . S
C300 C335 1.382 . S
C301 C300 1.384 . S
C301 C302 1.378 . S
C302 C301 1.378 . S
C302 C303 1.378 . S
C302 H314 0.952 . S
C303 C302 1.378 . S
C303 H315 0.950 . S
C303 C334 1.383 . S
H304 C323 0.947 . S
H305 C324 0.946 . S
H306 C326 0.953 . S
H307 C327 0.945 . S
H308 C329 0.952 . S
H309 C330 0.949 . S
H310 C332 0.950 . S
H311 C333 0.948 . S
H312 C335 0.951 . S
H313 C300 0.947 . S
H314 C302 0.952 . S
H315 C303 0.950 . S
N316 C319 1.382 . S
N316 C321 1.363 . S
N317 C319 1.371 . S
N317 C320 1.372 . S
N318 C320 1.361 . S
N318 C321 1.377 . S
C319 N316 1.382 . S
C319 N317 1.371 . S
C319 C322 1.480 . S
C320 N317 1.372 . S
C320 N318 1.361 . S
C320 C328 1.457 . S
C321 N316 1.363 . S
C321 N318 1.377 . S
C321 C334 1.479 . S
C322 C319 1.480 . S
C322 C323 1.383 . S
C322 C327 1.385 . S
C323 H304 0.947 . S
C323 C322 1.383 . S
C323 C324 1.388 . S
C324 H305 0.946 . S
C324 C323 1.388 . S
C324 C325 1.384 . S
C325 C324 1.384 . S
C325 C326 1.377 . S
C326 H306 0.953 . S
C326 C325 1.377 . S
C326 C327 1.369 . S
C327 H307 0.945 . S
C327 C322 1.385 . S
C327 C326 1.369 . S
C328 C320 1.457 . S
C328 C329 1.372 . S
C328 C333 1.364 . S
C329 H308 0.952 . S
C329 C328 1.372 . S
C329 C330 1.389 . S
C330 H309 0.949 . S
C330 C329 1.389 . S
C330 C331 1.391 . S
C331 C330 1.391 . S
C331 C332 1.377 . S
C332 H310 0.950 . S
C332 C331 1.377 . S
C332 C333 1.379 . S
C333 H311 0.948 . S
C333 C328 1.364 . S
C333 C332 1.379 . S
C334 C303 1.383 . S
C334 C321 1.479 . S
C334 C335 1.398 . S
C335 C300 1.382 . S
C335 H312 0.951 . S
C335 C334 1.398 . S
C336 C337 1.387 . S
C336 H340 0.950 . S
C336 C345 1.390 . S
C337 C336 1.387 . S
C337 C339 1.387 . S
H338 C345 0.950 . S
C339 C337 1.387 . S
C339 C341 1.390 . S
C339 H343 0.950 . S
H340 C336 0.950 . S
C341 C339 1.390 . S
C341 C342 1.387 . S
C341 H344 0.950 . S
C342 C341 1.387 . S
C342 C345 1.387 . S
H343 C339 0.950 . S
H344 C341 0.950 . S
C345 C336 1.390 . S
C345 H338 0.950 . S
C345 C342 1.387 . S
C346 C347 1.387 . S
C346 H350 0.950 . S
C346 C355 1.390 . S
C347 C346 1.387 . S
C347 C349 1.387 . S
H348 C355 0.950 . S
C349 C347 1.387 . S
C349 C351 1.390 . S
C349 H353 0.950 . S
H350 C346 0.950 . S
C351 C349 1.390 . S
C351 C352 1.387 . S
C351 H354 0.950 . S
C352 C351 1.387 . S
C352 C355 1.387 . S
H353 C349 0.950 . S
H354 C351 0.950 . S
C355 C346 1.390 . S
C355 H348 0.950 . S
C355 C352 1.387 . S
C356 C357 1.387 . S
C356 H360 0.950 . S
C356 C365 1.390 . S
C357 C356 1.387 . S
C357 C359 1.387 . S
H358 C365 0.950 . S
C359 C357 1.387 . S
C359 C361 1.390 . S
C359 H363 0.950 . S
H360 C356 0.950 . S
C361 C359 1.390 . S
C361 C362 1.387 . S
C361 H364 0.950 . S
C362 C361 1.387 . S
C362 C365 1.387 . S
H363 C359 0.950 . S
H364 C361 0.950 . S
C365 C356 1.390 . S
C365 H358 0.950 . S
C365 C362 1.387 . S
C366 C367 1.387 . S
C366 H370 0.950 . S
C366 C375 1.390 . S
C367 C366 1.387 . S
C367 C369 1.387 . S
H368 C375 0.950 . S
C369 C367 1.387 . S
C369 C371 1.390 . S
C369 H373 0.950 . S
H370 C366 0.950 . S
C371 C369 1.390 . S
C371 C372 1.387 . S
C371 H374 0.950 . S
C372 C371 1.387 . S
C372 C375 1.387 . S
H373 C369 0.950 . S
H374 C371 0.950 . S
C375 C366 1.390 . S
C375 H368 0.950 . S
C375 C372 1.387 . S
C376 C377 1.387 . S
C376 H380 0.950 . S
C376 C385 1.390 . S
C377 C376 1.387 . S
C377 C379 1.387 . S
H378 C385 0.950 . S
C379 C377 1.387 . S
C379 C381 1.390 . S
C379 H383 0.950 . S
H380 C376 0.950 . S
C381 C379 1.390 . S
C381 C382 1.387 . S
C381 H384 0.950 . S
C382 C381 1.387 . S
C382 C385 1.387 . S
H383 C379 0.950 . S
H384 C381 0.950 . S
C385 C376 1.390 . S
C385 H378 0.950 . S
C385 C382 1.387 . S
C386 C387 1.387 . S
C386 H390 0.950 . S
C386 C395 1.390 . S
C387 C386 1.387 . S
C387 C389 1.387 . S
H388 C395 0.950 . S
C389 C387 1.387 . S
C389 C391 1.390 . S
C389 H393 0.950 . S
H390 C386 0.950 . S
C391 C389 1.390 . S
C391 C392 1.387 . S
C391 H394 0.950 . S
C392 C391 1.387 . S
C392 C395 1.387 . S
H393 C389 0.950 . S
H394 C391 0.950 . S
C395 C386 1.390 . S
C395 H388 0.950 . S
C395 C392 1.387 . S
C396 C397 1.387 . S
C396 H400 0.950 . S
C396 C405 1.390 . S
C397 C396 1.387 . S
C397 C399 1.387 . S
H398 C405 0.950 . S
C399 C397 1.387 . S
C399 C401 1.390 . S
C399 H403 0.950 . S
H400 C396 0.950 . S
C401 C399 1.390 . S
C401 C402 1.387 . S
C401 H404 0.950 . S
C402 C401 1.387 . S
C402 C405 1.387 . S
H403 C399 0.950 . S
H404 C401 0.950 . S
C405 C396 1.390 . S
C405 H398 0.950 . S
C405 C402 1.387 . S
C406 C407 1.387 . S
C406 H410 0.950 . S
C406 C415 1.390 . S
C407 C406 1.387 . S
C407 C409 1.387 . S
H408 C415 0.950 . S
C409 C407 1.387 . S
C409 C411 1.390 . S
C409 H413 0.950 . S
H410 C406 0.950 . S
C411 C409 1.390 . S
C411 C412 1.387 . S
C411 H414 0.950 . S
C412 C411 1.387 . S
C412 C415 1.387 . S
H413 C409 0.950 . S
H414 C411 0.950 . S
C415 C406 1.390 . S
C415 H408 0.950 . S
C415 C412 1.387 . S
C416 C417 1.387 . S
C416 H420 0.950 . S
C416 C425 1.390 . S
C417 C416 1.387 . S
C417 C419 1.387 . S
H418 C425 0.950 . S
C419 C417 1.387 . S
C419 C421 1.390 . S
C419 H423 0.950 . S
H420 C416 0.950 . S
C421 C419 1.390 . S
C421 C422 1.387 . S
C421 H424 0.950 . S
C422 C421 1.387 . S
C422 C425 1.387 . S
H423 C419 0.950 . S
H424 C421 0.950 . S
C425 C416 1.390 . S
C425 H418 0.950 . S
C425 C422 1.387 . S
C426 C427 1.387 . S
C426 H430 0.950 . S
C426 C435 1.390 . S
C427 C426 1.387 . S
C427 C429 1.387 . S
H428 C435 0.950 . S
C429 C427 1.387 . S
C429 C431 1.390 . S
C429 H433 0.950 . S
H430 C426 0.950 . S
C431 C429 1.390 . S
C431 C432 1.387 . S
C431 H434 0.950 . S
C432 C431 1.387 . S
C432 C435 1.387 . S
H433 C429 0.950 . S
H434 C431 0.950 . S
C435 C426 1.390 . S
C435 H428 0.950 . S
C435 C432 1.387 . S
C436 C437 1.387 . S
C436 H440 0.950 . S
C436 C445 1.390 . S
C437 C436 1.387 . S
C437 C439 1.387 . S
H438 C445 0.950 . S
C439 C437 1.387 . S
C439 C441 1.390 . S
C439 H443 0.950 . S
H440 C436 0.950 . S
C441 C439 1.390 . S
C441 C442 1.387 . S
C441 H444 0.950 . S
C442 C441 1.387 . S
C442 C445 1.387 . S
H443 C439 0.950 . S
H444 C441 0.950 . S
C445 C436 1.390 . S
C445 H438 0.950 . S
C445 C442 1.387 . S
C446 C447 1.387 . S
C446 H450 0.950 . S
C446 C455 1.390 . S
C447 C446 1.387 . S
C447 C449 1.387 . S
H448 C455 0.950 . S
C449 C447 1.387 . S
C449 C451 1.390 . S
C449 H453 0.950 . S
H450 C446 0.950 . S
C451 C449 1.390 . S
C451 C452 1.387 . S
C451 H454 0.950 . S
C452 C451 1.387 . S
C452 C455 1.387 . S
H453 C449 0.950 . S
H454 C451 0.950 . S
C455 C446 1.390 . S
C455 H448 0.950 . S
C455 C452 1.387 . S
C456 C457 1.387 . S
C456 H460 0.950 1_455 S
C456 C465 1.390 1_455 S
C457 C456 1.387 . S
C457 C459 1.387 . S
H458 C465 0.950 . S
C459 C457 1.387 . S
C459 C461 1.390 . S
C459 H463 0.950 . S
H460 C456 0.950 1_655 S
C461 C459 1.390 . S
C461 C462 1.387 . S
C461 H464 0.950 . S
C462 C461 1.387 . S
C462 C465 1.387 1_455 S
H463 C459 0.950 . S
H464 C461 0.950 . S
C465 C456 1.390 1_655 S
C465 H458 0.950 . S
C465 C462 1.387 1_655 S
C466 C467 1.387 . S
C466 H470 0.950 . S
C466 C475 1.390 . S
C467 C466 1.387 . S
C467 C469 1.387 1_545 S
H468 C475 0.950 . S
C469 C467 1.387 1_565 S
C469 C471 1.390 . S
C469 H473 0.950 . S
H470 C466 0.950 . S
C471 C469 1.390 . S
C471 C472 1.387 1_565 S
C471 H474 0.950 . S
C472 C471 1.387 1_545 S
C472 C475 1.387 . S
H473 C469 0.950 . S
H474 C471 0.950 . S
C475 C466 1.390 . S
C475 H468 0.950 . S
C475 C472 1.387 . S
C476 C477 1.387 . S
C476 H480 0.950 . S
C476 C485 1.390 . S
C477 C476 1.387 . S
C477 C479 1.387 . S
H478 C485 0.950 . S
C479 C477 1.387 . S
C479 C481 1.390 . S
C479 H483 0.950 . S
H480 C476 0.950 . S
C481 C479 1.390 . S
C481 C482 1.387 . S
C481 H484 0.950 . S
C482 C481 1.387 . S
C482 C485 1.387 . S
H483 C479 0.950 . S
H484 C481 0.950 . S
C485 C476 1.390 . S
C485 H478 0.950 . S
C485 C482 1.387 . S
C486 C487 1.387 1_565 S
C486 H490 0.950 . S
C486 C495 1.390 . S
C487 C486 1.387 1_545 S
C487 C489 1.387 . S
H488 C495 0.950 . S
C489 C487 1.387 . S
C489 C491 1.390 . S
C489 H493 0.950 . S
H490 C486 0.950 . S
C491 C489 1.390 . S
C491 C492 1.387 . S
C491 H494 0.950 . S
C492 C491 1.387 . S
C492 C495 1.387 1_545 S
H493 C489 0.950 . S
H494 C491 0.950 . S
C495 C486 1.390 . S
C495 H488 0.950 . S
C495 C492 1.387 1_565 S
C496 C497 1.387 . S
C496 H500 0.950 . S
C496 C505 1.390 . S
C497 C496 1.387 . S
C497 C499 1.387 . S
H498 C505 0.950 . S
C499 C497 1.387 . S
C499 C501 1.390 . S
C499 H503 0.950 . S
H500 C496 0.950 . S
C501 C499 1.390 . S
C501 C502 1.387 . S
C501 H504 0.950 . S
C502 C501 1.387 . S
C502 C505 1.387 . S
H503 C499 0.950 . S
H504 C501 0.950 . S
C505 C496 1.390 . S
C505 H498 0.950 . S
C505 C502 1.387 . S
C506 C507 1.387 . S
C506 H510 0.950 . S
C506 C515 1.390 . S
C507 C506 1.387 . S
C507 C509 1.387 . S
H508 C515 0.950 . S
C509 C507 1.387 . S
C509 C511 1.390 . S
C509 H513 0.950 . S
H510 C506 0.950 . S
C511 C509 1.390 . S
C511 C512 1.387 . S
C511 H514 0.950 . S
C512 C511 1.387 . S
C512 C515 1.387 . S
H513 C509 0.950 . S
H514 C511 0.950 . S
C515 C506 1.390 . S
C515 H508 0.950 . S
C515 C512 1.387 . S
C337 C10 3.118 . S
C342 C325 3.022 . S
C347 C59 3.173 . S
C352 C253 3.080 . S
C357 C90 3.118 . S
C362 C289 3.022 . S
C367 C19 3.171 . S
C372 C301 3.122 . S
C382 C229 3.061 . S
C377 C50 3.116 . S
C392 C265 3.122 . S
C387 C99 3.171 . S
C397 C46 0.667 . S
C402 C181 0.630 . S
C407 C95 0.620 . S
C412 C193 0.545 . S
C417 C6 0.661 . S
C422 C121 0.646 . S
C432 C157 0.545 . S
C427 C55 0.622 . S
C442 C217 0.632 . S
C437 C86 0.667 . S
C447 C15 0.623 . S
C452 C145 0.547 . S
C462 C223 1.033 . S
C457 C9 1.025 . S
C467 C49 1.023 . S
C472 C151 1.020 . S
C477 C89 1.023 . S
C482 C187 1.033 . S
C492 C295 1.808 . S
C487 C58 1.725 . S
C502 C331 1.798 1_556 S
C497 C98 1.726 . S
C507 C18 1.727 . S
C512 C259 1.813 . S
