# Generated by pormake.
# Topology zzz, (3,6)-cn, num edge types: 1
# Building blocks:
#     Node 0, Type 0, BuildingBlock: CUQRIR_clean_linker_1, # of connection points: 3
#     Node 1, Type 0, BuildingBlock: CUQRIR_clean_linker_1, # of connection points: 3
#     Node 2, Type 0, BuildingBlock: CUQRIR_clean_linker_1, # of connection points: 3
#     Node 3, Type 0, BuildingBlock: CUQRIR_clean_linker_1, # of connection points: 3
#     Node 4, Type 0, BuildingBlock: CUQRIR_clean_linker_1, # of connection points: 3
#     Node 5, Type 0, BuildingBlock: CUQRIR_clean_linker_1, # of connection points: 3
#     Node 6, Type 0, BuildingBlock: CUQRIR_clean_linker_1, # of connection points: 3
#     Node 7, Type 0, BuildingBlock: CUQRIR_clean_linker_1, # of connection points: 3
#     Node 8, Type 1, BuildingBlock: CIFDUS_clean_sbu_1, # of connection points: 6
#     Node 9, Type 1, BuildingBlock: CIFDUS_clean_sbu_1, # of connection points: 6
#     Node 10, Type 1, BuildingBlock: CIFDUS_clean_sbu_1, # of connection points: 6
#     Node 11, Type 1, BuildingBlock: CIFDUS_clean_sbu_1, # of connection points: 6
#     Edge 12, Type (0, 1), BuildingBlock: UVAHIK_clean_linker_0, # of connection points: 2
#     Edge 13, Type (0, 1), BuildingBlock: UVAHIK_clean_linker_0, # of connection points: 2
#     Edge 14, Type (0, 1), BuildingBlock: UVAHIK_clean_linker_0, # of connection points: 2
#     Edge 15, Type (0, 1), BuildingBlock: UVAHIK_clean_linker_0, # of connection points: 2
#     Edge 16, Type (0, 1), BuildingBlock: UVAHIK_clean_linker_0, # of connection points: 2
#     Edge 17, Type (0, 1), BuildingBlock: UVAHIK_clean_linker_0, # of connection points: 2
#     Edge 18, Type (0, 1), BuildingBlock: UVAHIK_clean_linker_0, # of connection points: 2
#     Edge 19, Type (0, 1), BuildingBlock: UVAHIK_clean_linker_0, # of connection points: 2
#     Edge 20, Type (0, 1), BuildingBlock: UVAHIK_clean_linker_0, # of connection points: 2
#     Edge 21, Type (0, 1), BuildingBlock: UVAHIK_clean_linker_0, # of connection points: 2
#     Edge 22, Type (0, 1), BuildingBlock: UVAHIK_clean_linker_0, # of connection points: 2
#     Edge 23, Type (0, 1), BuildingBlock: UVAHIK_clean_linker_0, # of connection points: 2
#     Edge 24, Type (0, 1), BuildingBlock: UVAHIK_clean_linker_0, # of connection points: 2
#     Edge 25, Type (0, 1), BuildingBlock: UVAHIK_clean_linker_0, # of connection points: 2
#     Edge 26, Type (0, 1), BuildingBlock: UVAHIK_clean_linker_0, # of connection points: 2
#     Edge 27, Type (0, 1), BuildingBlock: UVAHIK_clean_linker_0, # of connection points: 2
#     Edge 28, Type (0, 1), BuildingBlock: UVAHIK_clean_linker_0, # of connection points: 2
#     Edge 29, Type (0, 1), BuildingBlock: UVAHIK_clean_linker_0, # of connection points: 2
#     Edge 30, Type (0, 1), BuildingBlock: UVAHIK_clean_linker_0, # of connection points: 2
#     Edge 31, Type (0, 1), BuildingBlock: UVAHIK_clean_linker_0, # of connection points: 2
#     Edge 32, Type (0, 1), BuildingBlock: UVAHIK_clean_linker_0, # of connection points: 2
#     Edge 33, Type (0, 1), BuildingBlock: UVAHIK_clean_linker_0, # of connection points: 2
#     Edge 34, Type (0, 1), BuildingBlock: UVAHIK_clean_linker_0, # of connection points: 2
#     Edge 35, Type (0, 1), BuildingBlock: UVAHIK_clean_linker_0, # of connection points: 2
# Relax obj value: 0.153
# Max RMSD: 0.191
# Mean RMSD: 0.115
data_MOF--net-zzz--node1-CIFDUS_clean_sbu_1--node2-CUQRIR_clean_linker_1--edge1-UVAHIK_clean_linker_0
_symmetry_space_group_name_H-M    P1
_symmetry_Int_Tables_number       1
_symmetry_cell_setting            triclinic
loop_
_symmetry_equiv_pos_as_xyz
'x, y, z'
_cell_length_a     61.658238
_cell_length_b     61.637726
_cell_length_c     18.760065
_cell_angle_alpha  90.031339
_cell_angle_beta   90.107434
_cell_angle_gamma 90.021432
loop_
_atom_site_label
_atom_site_type_symbol
_atom_site_fract_x
_atom_site_fract_y
_atom_site_fract_z
_atom_type_partial_charge
C0 C 0.74982 0.54363 0.20745 0.0
N1 N 0.77187 0.54323 0.2078 0.0
N2 N 0.74209 0.54347 0.13947 0.0
C3 C 0.73587 0.54436 0.27277 0.0
C4 C 0.76018 0.54275 0.09875 0.0
N5 N 0.77816 0.54262 0.14005 0.0
C6 C 0.76026 0.54121 0.01874 0.0
H7 H 0.73263 0.52751 0.2906 0.0
H8 H 0.72011 0.55228 0.26097 0.0
H9 H 0.74426 0.55311 0.31658 0.0
H10 H 0.76305 0.55762 0.99632 0.0
H11 H 0.74458 0.535 0.99799 0.0
H12 H 0.7736 0.53051 1.00037 0.0
C13 C 0.97124 0.75162 0.20445 0.0
N14 N 0.96917 0.77357 0.20619 0.0
N15 N 0.96946 0.74412 0.13644 0.0
C16 C 0.97611 0.73772 0.26806 0.0
C17 C 0.96631 0.76232 0.0972 0.0
N18 N 0.9661 0.78009 0.13944 0.0
C19 C 0.96512 0.76282 0.01712 0.0
H20 H 0.99395 0.73599 0.27328 0.0
H21 H 0.96903 0.7213 0.26142 0.0
H22 H 0.96978 0.74531 0.31749 0.0
H23 H 0.95476 0.77635 0.99828 0.0
H24 H 0.95867 0.74729 0.99587 0.0
H25 H 0.98168 0.76531 0.99562 0.0
C26 C 0.76051 0.97689 0.19427 0.0
N27 N 0.73859 0.97469 0.19451 0.0
N28 N 0.76885 0.97103 0.12994 0.0
C29 C 0.77355 0.98608 0.25471 0.0
C30 C 0.75116 0.96538 0.0912 0.0
N31 N 0.73286 0.96757 0.13031 0.0
C32 C 0.75171 0.95896 0.01389 0.0
H33 H 0.77221 0.00402 0.25364 0.0
H34 H 0.7909 0.98154 0.24989 0.0
H35 H 0.76707 0.98032 0.30649 0.0
H36 H 0.76569 0.94813 0.00329 0.0
H37 H 0.75378 0.97376 0.98096 0.0
H38 H 0.73653 0.95064 0.99768 0.0
C39 C 0.53958 0.76367 0.20277 0.0
N40 N 0.54257 0.74183 0.20331 0.0
N41 N 0.54394 0.77199 0.13716 0.0
C42 C 0.53046 0.77644 0.26373 0.0
C43 C 0.54947 0.75437 0.09809 0.0
N44 N 0.54862 0.73612 0.13801 0.0
C45 C 0.55541 0.75508 0.02042 0.0
H46 H 0.5125 0.77564 0.26136 0.0
H47 H 0.53546 0.7937 0.26035 0.0
H48 H 0.53581 0.76941 0.31531 0.0
H49 H 0.56594 0.74117 0.00595 0.0
H50 H 0.56384 0.7705 0.00762 0.0
H51 H 0.54038 0.75429 0.98791 0.0
C52 C 0.26398 0.47417 0.19941 0.0
N53 N 0.24194 0.47336 0.19947 0.0
N54 N 0.2719 0.47223 0.26686 0.0
C55 C 0.27774 0.47631 0.13399 0.0
C56 C 0.25392 0.47045 0.30776 0.0
N57 N 0.23583 0.47115 0.26701 0.0
C58 C 0.25403 0.46914 0.38781 0.0
H59 H 0.294 0.46905 0.14281 0.0
H60 H 0.27988 0.49378 0.12177 0.0
H61 H 0.26975 0.46845 0.08763 0.0
H62 H 0.2689 0.47662 0.41043 0.0
H63 H 0.25363 0.45181 0.40378 0.0
H64 H 0.23954 0.47726 0.4105 0.0
C65 C 0.0399 0.26253 0.19985 0.0
N66 N 0.04183 0.2406 0.20069 0.0
N67 N 0.04536 0.27107 0.26427 0.0
C68 C 0.03161 0.27543 0.13783 0.0
C69 C 0.05039 0.25349 0.30431 0.0
N70 N 0.0482 0.23502 0.26583 0.0
C71 C 0.05646 0.25438 0.38194 0.0
H72 H 0.03653 0.26777 0.08682 0.0
H73 H 0.03765 0.29238 0.14019 0.0
H74 H 0.01362 0.27574 0.13987 0.0
H75 H 0.04147 0.25605 0.41411 0.0
H76 H 0.06685 0.26868 0.39304 0.0
H77 H 0.06514 0.23946 0.39866 0.0
C78 C 0.25159 0.03703 0.20487 0.0
N79 N 0.27346 0.03957 0.20458 0.0
N80 N 0.24315 0.04296 0.26894 0.0
C81 C 0.23866 0.02779 0.1443 0.0
C82 C 0.26076 0.04894 0.30759 0.0
N83 N 0.27912 0.04683 0.26867 0.0
C84 C 0.26002 0.05588 0.38442 0.0
H85 H 0.24601 0.03237 0.09248 0.0
H86 H 0.22159 0.03344 0.14658 0.0
H87 H 0.2388 0.00983 0.14841 0.0
H88 H 0.25871 0.04124 0.41853 0.0
H89 H 0.24561 0.06616 0.39463 0.0
H90 H 0.27484 0.06501 0.3996 0.0
C91 C 0.47669 0.25122 0.20117 0.0
N92 N 0.47351 0.27304 0.20035 0.0
N93 N 0.47233 0.24292 0.26682 0.0
C94 C 0.48608 0.23849 0.14054 0.0
C95 C 0.46653 0.26053 0.30556 0.0
N96 N 0.46729 0.27875 0.26546 0.0
C97 C 0.46024 0.25986 0.38294 0.0
H98 H 0.48108 0.24562 0.08874 0.0
H99 H 0.48097 0.22126 0.14328 0.0
H100 H 0.50404 0.23917 0.14409 0.0
H101 H 0.47509 0.26098 0.41623 0.0
H102 H 0.452 0.24432 0.39563 0.0
H103 H 0.44941 0.27362 0.39657 0.0
O104 O 0.00962 0.03606 0.76024 0.0
Mn105 Mn 0.0068 0.00679 0.70258 0.0
O106 O 0.98163 0.05682 0.72278 0.0
Mn107 Mn 0.97015 0.03755 0.6559 0.0
O108 O 0.00414 0.97735 0.64545 0.0
O109 O 0.03934 0.00195 0.71045 0.0
Mn110 Mn 0.04358 0.97666 0.75179 0.0
O111 O -0.00016 0.98982 0.79655 0.0
O112 O 0.03141 0.95666 0.68861 0.0
O113 O 0.01381 0.02382 0.609 0.0
O114 O 0.98309 0.03819 0.56704 0.0
O115 O 0.0708 0.98749 0.73311 0.0
O116 O 0.03103 0.97736 0.84104 0.0
C117 C 0.95324 0.01072 0.70146 0.0
C118 C -0.00166 0.05371 0.76204 0.0
C119 C 0.01505 0.95943 0.64741 0.0
C120 C 0.06025 0.00303 0.70229 0.0
C121 C 0.01073 0.98051 0.84629 0.0
C122 C 0.00322 0.03421 0.56094 0.0
O123 O 0.97422 0.01172 0.69427 0.0
O124 O 0.94287 0.02654 0.67155 0.0
O125 O 0.52311 -0.00085 0.79598 0.0
Mn126 Mn 0.5066 0.00666 0.70154 0.0
O127 O 0.53466 0.03025 0.84375 0.0
Mn128 Mn 0.53673 0.04301 0.75488 0.0
O129 O 0.4899 0.01397 0.60745 0.0
O130 O 0.50161 0.97439 0.69115 0.0
Mn131 Mn 0.47573 0.96983 0.65406 0.0
O132 O 0.47715 0.00933 0.75837 0.0
O133 O 0.47488 0.98337 0.56597 0.0
O134 O 0.53616 0.00421 0.64552 0.0
O135 O 0.55718 0.03043 0.69402 0.0
O136 O 0.48762 0.94276 0.66985 0.0
O137 O 0.45666 0.98098 0.72203 0.0
C138 C 0.51065 0.05979 0.7027 0.0
C139 C 0.53153 0.00991 0.84769 0.0
C140 C 0.47928 0.00346 0.55962 0.0
C141 C 0.50335 0.95355 0.69873 0.0
C142 C 0.45965 0.99781 0.76083 0.0
C143 C 0.55438 0.01453 0.65086 0.0
O144 O 0.51173 0.03895 0.7113 0.0
O145 O 0.52609 0.07031 0.73421 0.0
O146 O 0.51515 0.52528 0.7931 0.0
Mn147 Mn 0.50749 0.50748 0.70155 0.0
O148 O 0.48477 0.54039 0.8348 0.0
Mn149 Mn 0.47158 0.53944 0.74621 0.0
O150 O 0.49986 0.48967 0.60998 0.0
O151 O 0.53982 0.50171 0.69298 0.0
Mn152 Mn 0.54351 0.47556 0.65696 0.0
O153 O 0.50425 0.47878 0.76224 0.0
O154 O 0.53029 0.47461 0.56838 0.0
O155 O 0.51075 0.53618 0.64084 0.0
O156 O 0.48339 0.55789 0.67765 0.0
O157 O 0.57096 0.48643 0.67214 0.0
O158 O 0.53168 0.45713 0.72554 0.0
C159 C 0.45416 0.5125 0.70297 0.0
C160 C 0.50486 0.53609 0.84074 0.0
C161 C 0.5102 0.47887 0.56239 0.0
C162 C 0.56076 0.50262 0.70049 0.0
C163 C 0.51518 0.46088 0.765 0.0
C164 C 0.49987 0.5541 0.63813 0.0
O165 O 0.47513 0.51327 0.71007 0.0
O166 O 0.44408 0.52874 0.73144 0.0
O167 O 0.03568 0.50245 0.76056 0.0
Mn168 Mn 0.00659 0.5071 0.70274 0.0
O169 O 0.05648 0.53174 0.73652 0.0
Mn170 Mn 0.03802 0.5447 0.67035 0.0
O171 O 0.97747 0.51171 0.64533 0.0
O172 O 0.00143 0.47445 0.70174 0.0
Mn173 Mn 0.97547 0.46968 0.73775 0.0
O174 O 0.98953 0.51194 0.79775 0.0
O175 O 0.95635 0.48306 0.67435 0.0
O176 O 0.02386 0.50241 0.60817 0.0
O177 O 0.03978 0.53378 0.57869 0.0
O178 O 0.9862 0.44276 0.71531 0.0
O179 O 0.97525 0.48011 0.83004 0.0
C180 C 0.01018 0.5604 0.71414 0.0
C181 C 0.05319 0.51373 0.76847 0.0
C182 C 0.95968 0.50073 0.64033 0.0
C183 C 0.00238 0.45366 0.69 0.0
C184 C 0.97954 0.4999 0.84277 0.0
C185 C 0.0351 0.51409 0.56529 0.0
O186 O 0.01168 0.53965 0.70302 0.0
O187 O 0.02651 0.5715 0.69084 0.0
C188 C 0.21244 0.02082 0.31254 0.0
C189 C 0.22113 0.04113 0.29467 0.0
C190 C 0.19234 0.01927 0.34745 0.0
C191 C 0.1548 0.05226 0.46019 0.0
H192 H 0.11666 0.00284 0.43575 0.0
C193 C 0.09071 0.0275 0.67045 0.0
C194 C 0.07185 0.01645 0.64917 0.0
C195 C 0.10636 0.03378 0.62041 0.0
C196 C 0.12687 0.01698 0.44273 0.0
H197 H 0.2155 0.07566 0.29678 0.0
H198 H 0.18016 0.07317 0.35579 0.0
H199 H 0.14833 0.00674 0.35942 0.0
H200 H 0.05454 0.0035 0.55828 0.0
H201 H 0.08143 0.01514 0.47017 0.0
H202 H 0.13328 0.06258 0.54313 0.0
C203 C 0.18891 0.05834 0.34452 0.0
C204 C 0.14534 0.01904 0.39942 0.0
C205 C 0.20903 0.05983 0.30994 0.0
C206 C 0.06856 0.01264 0.57609 0.0
C207 C 0.08424 0.01892 0.52578 0.0
C208 C 0.13633 0.05022 0.50335 0.0
C209 C 0.1804 0.03805 0.36525 0.0
C210 C 0.15981 0.03656 0.40808 0.0
C211 C 0.10379 0.02889 0.54748 0.0
C212 C 0.12222 0.03237 0.49618 0.0
H213 H 0.22167 0.00622 0.30208 0.0
H214 H 0.18664 0.00336 0.36304 0.0
H215 H 0.16552 0.06589 0.46941 0.0
H216 H 0.09407 0.02992 0.72661 0.0
H217 H 0.1212 0.0411 0.63986 0.0
C218 C 0.49242 0.21852 0.34716 0.0
C219 C 0.47643 0.22145 0.29476 0.0
C220 C 0.49413 0.19888 0.38421 0.0
C221 C 0.47756 0.14064 0.38658 0.0
H222 H 0.48807 0.14707 0.58926 0.0
C223 C 0.50345 0.0699 0.5765 0.0
C224 C 0.49746 0.07122 0.64864 0.0
C225 C 0.49727 0.08618 0.52803 0.0
C226 C 0.48481 0.14484 0.53299 0.0
H227 H 0.45003 0.20602 0.23847 0.0
H228 H 0.45299 0.17135 0.30299 0.0
H229 H 0.48554 0.17906 0.51458 0.0
H230 H 0.47974 0.09015 0.72599 0.0
H231 H 0.46818 0.11801 0.64154 0.0
H232 H 0.47679 0.10623 0.40575 0.0
C233 C 0.46439 0.18421 0.31514 0.0
C234 C 0.48372 0.1633 0.48971 0.0
C235 C 0.46269 0.20399 0.27798 0.0
C236 C 0.48411 0.08841 0.67036 0.0
C237 C 0.47785 0.1046 0.62205 0.0
C238 C 0.47876 0.12205 0.43008 0.0
C239 C 0.47978 0.18159 0.37021 0.0
C240 C 0.48031 0.16155 0.41573 0.0
C241 C 0.48521 0.10431 0.55095 0.0
C242 C 0.48249 0.12389 0.50403 0.0
H243 H 0.50312 0.2318 0.36107 0.0
H244 H 0.5065 0.1974 0.425 0.0
H245 H 0.47494 0.1386 0.32989 0.0
H246 H 0.51433 0.0572 0.55879 0.0
H247 H 0.50338 0.08535 0.47403 0.0
C248 C 0.30536 0.4923 0.29721 0.0
C249 C 0.29406 0.47263 0.29188 0.0
C250 C 0.32535 0.49335 0.33317 0.0
C251 C 0.35806 0.46253 0.46838 0.0
H252 H 0.4009 0.50665 0.42639 0.0
C253 C 0.42241 0.48928 0.675 0.0
C254 C 0.44205 0.49851 0.65256 0.0
C255 C 0.40679 0.48249 0.62542 0.0
C256 C 0.38939 0.49392 0.4385 0.0
H257 H 0.29485 0.43855 0.31767 0.0
H258 H 0.33018 0.43987 0.37711 0.0
H259 H 0.36988 0.50206 0.34779 0.0
H260 H 0.46074 0.50784 0.5601 0.0
H261 H 0.4341 0.4949 0.47304 0.0
H262 H 0.37783 0.454 0.55794 0.0
C263 C 0.32355 0.45477 0.35571 0.0
C264 C 0.37124 0.49154 0.39375 0.0
C265 C 0.30344 0.45385 0.32069 0.0
C266 C 0.44611 0.50002 0.57908 0.0
C267 C 0.43053 0.49307 0.52918 0.0
C268 C 0.37631 0.46475 0.51258 0.0
C269 C 0.33463 0.47464 0.36428 0.0
C270 C 0.35502 0.47607 0.40861 0.0
C271 C 0.41025 0.48491 0.55156 0.0
C272 C 0.39209 0.48079 0.4994 0.0
H273 H 0.29816 0.50704 0.27655 0.0
H274 H 0.33298 0.50905 0.33917 0.0
H275 H 0.346 0.45057 0.48279 0.0
H276 H 0.41848 0.48869 0.73125 0.0
H277 H 0.39139 0.47674 0.64556 0.0
C278 C 0.02336 0.30217 0.30503 0.0
C279 C 0.04367 0.29319 0.28902 0.0
C280 C 0.02184 0.32241 0.33907 0.0
C281 C 0.05448 0.35994 0.45304 0.0
H282 H 0.00551 0.39831 0.42401 0.0
C283 C 0.02802 0.42403 0.66093 0.0
C284 C 0.01688 0.4427 0.63875 0.0
C285 C 0.03497 0.40851 0.61133 0.0
C286 C 0.01954 0.38805 0.43224 0.0
H287 H 0.07824 0.29838 0.29355 0.0
H288 H 0.07581 0.33403 0.351 0.0
H289 H 0.00978 0.36653 0.34835 0.0
H290 H 0.00457 0.45995 0.5469 0.0
H291 H 0.01748 0.4334 0.45961 0.0
H292 H 0.06433 0.38156 0.53656 0.0
C293 C 0.06096 0.3254 0.33892 0.0
C294 C 0.0218 0.36952 0.38934 0.0
C295 C 0.06242 0.30511 0.30525 0.0
C296 C 0.01377 0.44606 0.56541 0.0
C297 C 0.02077 0.43056 0.51554 0.0
C298 C 0.05227 0.37851 0.49576 0.0
C299 C 0.04065 0.3342 0.35778 0.0
C300 C 0.03911 0.35494 0.39978 0.0
C301 C 0.03069 0.4111 0.53799 0.0
C302 C 0.03455 0.39269 0.48695 0.0
H303 H 0.00873 0.29306 0.29382 0.0
H304 H 0.00591 0.32835 0.35332 0.0
H305 H 0.06794 0.34913 0.46359 0.0
H306 H 0.02988 0.4206 0.71726 0.0
H307 H 0.04224 0.39373 0.6313 0.0
C308 C 0.79963 0.99314 0.08673 0.0
C309 C 0.79084 0.97282 0.10391 0.0
C310 C 0.81974 0.99469 0.05188 0.0
C311 C 0.85745 0.96178 0.93905 0.0
H312 H 0.89549 0.01119 0.96506 0.0
C313 C 0.92277 0.98607 0.73188 0.0
C314 C 0.94142 0.99731 0.75403 0.0
C315 C 0.90681 0.97991 0.78108 0.0
C316 C 0.88532 0.99705 0.95763 0.0
H317 H 0.79625 0.93827 0.10041 0.0
H318 H 0.83163 0.94076 0.0417 0.0
H319 H 0.86365 0.00723 0.04033 0.0
H320 H 0.95797 0.01083 0.84552 0.0
H321 H 0.93067 -0.0007 0.9322 0.0
H322 H 0.87926 0.95146 0.85694 0.0
C323 C 0.82296 0.9556 0.05339 0.0
C324 C 0.86674 0.99496 1.00033 0.0
C325 C 0.80282 0.9541 0.08783 0.0
C326 C 0.94415 0.0015 0.82711 0.0
C327 C 0.92821 0.99529 0.87658 0.0
C328 C 0.87607 0.96383 0.89657 0.0
C329 C 0.8316 0.97591 0.03349 0.0
C330 C 0.85229 0.97745 0.99113 0.0
C331 C 0.90888 0.9851 0.85399 0.0
C332 C 0.89017 0.98167 0.90432 0.0
H333 H 0.79049 0.00776 0.09777 0.0
H334 H 0.82552 0.01063 0.03689 0.0
H335 H 0.84676 0.94816 0.92937 0.0
H336 H 0.91979 0.98342 0.6756 0.0
H337 H 0.89215 0.97243 0.76088 0.0
C338 C 0.52294 0.79674 0.06069 0.0
C339 C 0.53989 0.79348 0.10945 0.0
C340 C 0.52113 0.81627 0.02301 0.0
C341 C 0.54012 0.87378 0.0127 0.0
H342 H 0.52466 0.86669 0.81372 0.0
C343 C 0.51361 0.94457 0.82365 0.0
C344 C 0.5176 0.94229 0.75027 0.0
C345 C 0.52015 0.92839 0.87198 0.0
C346 C 0.52931 0.86908 0.86884 0.0
H347 H 0.56799 0.80815 0.15852 0.0
H348 H 0.56494 0.84258 0.09275 0.0
H349 H 0.52733 0.83507 0.88991 0.0
H350 H 0.53242 0.92185 0.67051 0.0
H351 H 0.54472 0.89419 0.75441 0.0
H352 H 0.54219 0.90798 0.99075 0.0
C353 C 0.55282 0.83013 0.0841 0.0
C354 C 0.53049 0.85085 0.91312 0.0
C355 C 0.55459 0.81048 0.12196 0.0
C356 C 0.52959 0.9243 0.72693 0.0
C357 C 0.53624 0.90823 0.77505 0.0
C358 C 0.53886 0.89215 0.96819 0.0
C359 C 0.53639 0.83307 0.03257 0.0
C360 C 0.53569 0.85286 0.9859 0.0
C361 C 0.53064 0.90945 0.84776 0.0
C362 C 0.53338 0.89006 0.89551 0.0
H363 H 0.51155 0.78377 0.04993 0.0
H364 H 0.50799 0.818 0.9851 0.0
H365 H 0.54414 0.87602 0.06842 0.0
H366 H 0.50377 0.9579 0.84289 0.0
H367 H 0.51545 0.92997 0.92731 0.0
C368 C 0.70929 0.523 0.10533 0.0
C369 C 0.71996 0.5429 0.11426 0.0
C370 C 0.68934 0.52192 0.06921 0.0
C371 C 0.64328 0.52346 0.01041 0.0
H372 H 0.63594 0.56201 0.84912 0.0
C373 C 0.5686 0.51478 0.82478 0.0
C374 C 0.57267 0.5166 0.7514 0.0
C375 C 0.58403 0.52181 0.87505 0.0
C376 C 0.63767 0.551 0.89371 0.0
H377 H 0.71825 0.57728 0.09397 0.0
H378 H 0.683 0.5758 0.03357 0.0
H379 H 0.66767 0.56565 0.92504 0.0
H380 H 0.59614 0.52706 0.67324 0.0
H381 H 0.62297 0.53921 0.75967 0.0
H382 H 0.61395 0.50797 0.97651 0.0
C383 C 0.69004 0.56083 0.05288 0.0
C384 C 0.65585 0.55331 0.93826 0.0
C385 C 0.71009 0.56182 0.08842 0.0
C386 C 0.59218 0.52622 0.72944 0.0
C387 C 0.60766 0.53311 0.7794 0.0
C388 C 0.62519 0.52103 0.96546 0.0
C389 C 0.67953 0.54079 0.0412 0.0
C390 C 0.65916 0.53937 0.99685 0.0
C391 C 0.60418 0.53037 0.85312 0.0
C392 C 0.62224 0.53454 0.9056 0.0
H393 H 0.71691 0.50818 0.12354 0.0
H394 H 0.68216 0.50611 0.06062 0.0
H395 H 0.64488 0.51261 0.05548 0.0
H396 H 0.55407 0.50668 0.84337 0.0
H397 H 0.58046 0.51971 0.9311 0.0
C398 C 0.95693 0.70624 0.1194 0.0
C399 C 0.97267 0.72242 0.10915 0.0
C400 C 0.95833 0.68634 0.08285 0.0
C401 C 0.98218 0.66358 0.91761 0.0
H402 H 0.96725 0.60745 0.99682 0.0
C403 C 0.98313 0.58922 0.73618 0.0
C404 C 0.99463 0.57125 0.76222 0.0
C405 C 0.97603 0.60559 0.78243 0.0
C406 C 0.97146 0.623 0.97383 0.0
H407 H 0.00251 0.73033 0.05522 0.0
H408 H 0.00531 0.69567 0.99228 0.0
H409 H 0.9655 0.63998 0.07211 0.0
H410 H 0.00674 0.55577 0.85769 0.0
H411 H 0.99425 0.58421 0.9389 0.0
H412 H 0.98867 0.64689 0.82021 0.0
C413 C 0.99165 0.69828 0.02748 0.0
C414 C 0.97033 0.64169 0.01694 0.0
C415 C 0.99024 0.71805 0.06399 0.0
C416 C 0.99734 0.56912 0.83629 0.0
C417 C 0.99035 0.58559 0.88279 0.0
C418 C 0.98319 0.64504 0.87468 0.0
C419 C 0.97544 0.68231 0.03487 0.0
C420 C 0.97595 0.66223 0.98957 0.0
C421 C 0.98065 0.60463 0.85596 0.0
C422 C 0.97796 0.62441 0.90198 0.0
H423 H 0.94308 0.70941 0.15321 0.0
H424 H 0.94549 0.67454 0.0897 0.0
H425 H 0.98629 0.67908 0.89405 0.0
H426 H 0.98125 0.59154 0.67924 0.0
H427 H 0.96813 0.61969 0.75981 0.0
C428 C 0.03564 0.20661 0.34812 0.0
C429 C 0.04911 0.21307 0.2919 0.0
C430 C 0.03521 0.18499 0.37006 0.0
C431 C 0.04869 0.14101 0.42994 0.0
H432 H 0.03474 0.09624 0.29168 0.0
C433 C 0.03609 0.05488 0.52494 0.0
C434 C 0.01542 0.04686 0.50732 0.0
C435 C 0.04517 0.07198 0.48653 0.0
C436 C 0.03888 0.10855 0.33063 0.0
H437 H 0.07292 0.20233 0.21515 0.0
H438 H 0.0716 0.16408 0.25176 0.0
H439 H 0.04073 0.13371 0.25166 0.0
H440 H 0.98888 0.04928 0.43191 0.0
H441 H 0.00465 0.0794 0.3651 0.0
H442 H 0.04624 0.11632 0.5092 0.0
C443 C 0.06151 0.17582 0.27904 0.0
C444 C 0.04238 0.1299 0.30779 0.0
C445 C 0.06224 0.19758 0.25808 0.0
C446 C 0.00488 0.05505 0.44651 0.0
C447 C 0.01395 0.07226 0.40813 0.0
C448 C 0.04551 0.11972 0.4526 0.0
C449 C 0.04798 0.16936 0.33526 0.0
C450 C 0.04679 0.14638 0.35759 0.0
C451 C 0.03365 0.08162 0.43023 0.0
C452 C 0.04013 0.10332 0.40346 0.0
H453 H 0.02509 0.21824 0.37389 0.0
H454 H 0.02445 0.18035 0.41305 0.0
H455 H 0.05219 0.15342 0.46927 0.0
H456 H 0.04431 0.04955 0.57277 0.0
H457 H 0.06048 0.07873 0.50434 0.0
C458 C 0.31615 0.06174 0.25762 0.0
C459 C 0.30114 0.04864 0.29378 0.0
C460 C 0.33802 0.06172 0.27754 0.0
C461 C 0.37411 0.05118 0.42742 0.0
H462 H 0.41769 0.03479 0.28844 0.0
C463 C 0.45839 0.00504 0.44519 0.0
C464 C 0.46718 0.01578 0.50476 0.0
C465 C 0.44151 0.01448 0.40614 0.0
C466 C 0.40573 0.03966 0.32753 0.0
H467 H 0.29692 0.02549 0.37909 0.0
H468 H 0.33499 0.02616 0.41643 0.0
H469 H 0.38005 0.04072 0.25007 0.0
H470 H 0.46618 0.04551 0.56642 0.0
H471 H 0.43743 0.06221 0.49703 0.0
H472 H 0.39931 0.04943 0.50534 0.0
C473 C 0.3299 0.03632 0.37237 0.0
C474 C 0.38428 0.04312 0.3056 0.0
C475 C 0.30817 0.03601 0.35145 0.0
C476 C 0.46026 0.03701 0.51989 0.0
C477 C 0.44344 0.04645 0.48086 0.0
C478 C 0.39552 0.04804 0.44911 0.0
C479 C 0.34506 0.04898 0.33509 0.0
C480 C 0.36821 0.0483 0.35583 0.0
C481 C 0.43307 0.03477 0.42625 0.0
C482 C 0.41147 0.04172 0.39979 0.0
H483 H 0.31095 0.07181 0.21358 0.0
H484 H 0.34941 0.0717 0.24831 0.0
H485 H 0.36201 0.05527 0.46701 0.0
H486 H 0.46337 0.98865 0.43226 0.0
H487 H 0.43382 0.00505 0.36442 0.0
C488 C 0.45197 0.3157 0.2573 0.0
C489 C 0.46586 0.30077 0.29065 0.0
C490 C 0.45201 0.3375 0.27808 0.0
C491 C 0.46408 0.37261 0.42879 0.0
H492 H 0.47727 0.4179 0.29189 0.0
C493 C 0.50779 0.45848 0.44722 0.0
C494 C 0.49772 0.46627 0.5093 0.0
C495 C 0.49842 0.44151 0.40829 0.0
C496 C 0.47332 0.40544 0.33046 0.0
H497 H 0.49061 0.29664 0.37124 0.0
H498 H 0.49001 0.33451 0.41014 0.0
H499 H 0.47168 0.38046 0.25071 0.0
H500 H 0.4695 0.46299 0.57713 0.0
H501 H 0.45268 0.4344 0.5075 0.0
H502 H 0.46648 0.39705 0.50888 0.0
C503 C 0.47918 0.32943 0.36774 0.0
C504 C 0.47004 0.38412 0.30694 0.0
C505 C 0.47944 0.30781 0.34598 0.0
C506 C 0.47726 0.45805 0.52811 0.0
C507 C 0.46784 0.44126 0.48902 0.0
C508 C 0.46708 0.39386 0.45213 0.0
C509 C 0.46559 0.3445 0.33366 0.0
C510 C 0.466 0.36746 0.35629 0.0
C511 C 0.47888 0.43201 0.43112 0.0
C512 C 0.47225 0.41044 0.40353 0.0
H513 H 0.4412 0.31048 0.21507 0.0
H514 H 0.44132 0.34884 0.25133 0.0
H515 H 0.46088 0.36004 0.46774 0.0
H516 H 0.52365 0.46439 0.43182 0.0
H517 H 0.50739 0.43465 0.36413 0.0
C518 C 0.20081 0.48999 0.27368 0.0
C519 C 0.21377 0.47213 0.29152 0.0
C520 C 0.1789 0.49035 0.29191 0.0
C521 C 0.14013 0.46735 0.41877 0.0
H522 H 0.09761 0.49237 0.2901 0.0
C523 C 0.05454 0.48184 0.51769 0.0
C524 C 0.04752 0.50332 0.50803 0.0
C525 C 0.07137 0.47341 0.47653 0.0
C526 C 0.10927 0.48528 0.32651 0.0
H527 H 0.21445 0.44072 0.34231 0.0
H528 H 0.17594 0.44129 0.37562 0.0
H529 H 0.13485 0.48685 0.24957 0.0
H530 H 0.05149 0.53225 0.44388 0.0
H531 H 0.08124 0.51779 0.37307 0.0
H532 H 0.11497 0.46652 0.49658 0.0
C533 C 0.1827 0.45506 0.34756 0.0
C534 C 0.1306 0.48218 0.30343 0.0
C535 C 0.20466 0.45472 0.329 0.0
C536 C 0.05648 0.51559 0.45231 0.0
C537 C 0.0735 0.50724 0.41153 0.0
C538 C 0.11885 0.47045 0.44182 0.0
C539 C 0.16955 0.47284 0.32877 0.0
C540 C 0.14638 0.4737 0.34997 0.0
C541 C 0.08186 0.48645 0.42577 0.0
C542 C 0.10328 0.47993 0.39657 0.0
H543 H 0.20769 0.50359 0.24501 0.0
H544 H 0.16936 0.50448 0.278 0.0
H545 H 0.15192 0.461 0.45618 0.0
H546 H 0.04862 0.47224 0.56173 0.0
H547 H 0.07721 0.45721 0.4881 0.0
C548 C 0.94822 0.81198 0.0861 0.0
C549 C 0.96659 0.80235 0.1167 0.0
C550 C 0.94837 0.83403 0.06855 0.0
C551 C 0.97639 0.88565 0.10739 0.0
H552 H 0.9603 0.90112 0.91431 0.0
C553 C 0.01034 0.95979 0.96088 0.0
C554 C -0.00097 0.96818 0.90193 0.0
C555 C 0.00149 0.94292 1.0012 0.0
C556 C 0.9643 0.89737 0.96914 0.0
H557 H -0.00067 0.80775 0.15376 0.0
H558 H -0.00029 0.84639 0.12365 0.0
H559 H 0.9543 0.86437 0.95599 0.0
H560 H 0.96896 0.96629 0.84241 0.0
H561 H 0.9528 0.93836 0.91591 0.0
H562 H 0.98679 0.91857 0.12021 0.0
C563 C 0.98515 0.83705 0.11342 0.0
C564 C 0.96095 0.87618 0.99282 0.0
C565 C 0.98505 0.815 0.13001 0.0
C566 C 0.97783 0.96083 0.88871 0.0
C567 C 0.9688 0.94428 0.92984 0.0
C568 C 0.97954 0.90696 0.08397 0.0
C569 C 0.96683 0.8468 0.08243 0.0
C570 C 0.96755 0.86995 0.06138 0.0
C571 C 0.98103 0.93422 0.98382 0.0
C572 C 0.97414 0.91293 0.01377 0.0
H573 H 0.93372 0.80246 0.07683 0.0
H574 H 0.93401 0.84117 0.04493 0.0
H575 H 0.98131 0.88132 0.16099 0.0
H576 H 0.02674 0.96506 0.97242 0.0
H577 H 0.01149 0.93559 0.04211 0.0
C578 C 0.69595 0.95256 0.14074 0.0
C579 C 0.71083 0.96603 0.10554 0.0
C580 C 0.6738 0.95382 0.1249 0.0
C581 C 0.63424 0.99293 0.05714 0.0
H582 H 0.59685 0.94349 0.02116 0.0
C583 C 0.54811 0.0085 0.96907 0.0
C584 C 0.54327 0.99811 0.90434 0.0
C585 C 0.56483 0.00077 0.01255 0.0
C586 C 0.60706 0.95744 0.03173 0.0
H587 H 0.71468 0.99092 0.02563 0.0
H588 H 0.67604 0.99296 0.99651 0.0
H589 H 0.63493 0.93764 0.05383 0.0
H590 H 0.55092 0.97047 0.83747 0.0
H591 H 0.57989 0.95702 0.91287 0.0
H592 H 0.60703 0.01282 0.03225 0.0
C593 C 0.68137 0.98154 0.03676 0.0
C594 C 0.6288 0.95408 0.05061 0.0
C595 C 0.70344 0.98018 0.05245 0.0
C596 C 0.55389 0.97858 0.88772 0.0
C597 C 0.57069 0.97092 0.93096 0.0
C598 C 0.6126 0.99628 0.03869 0.0
C599 C 0.66626 0.96875 0.07397 0.0
C600 C 0.64273 0.97185 0.06134 0.0
C601 C 0.5772 0.9827 0.99155 0.0
C602 C 0.59885 0.97862 0.02397 0.0
H603 H 0.70144 0.94168 0.18233 0.0
H604 H 0.66251 0.94384 0.15451 0.0
H605 H 0.64451 0.00692 0.06645 0.0
H606 H 0.54009 0.02352 0.98336 0.0
H607 H 0.56911 0.0099 0.05989 0.0
C608 C 0.56375 0.69909 0.14559 0.0
C609 C 0.54987 0.71412 0.11265 0.0
C610 C 0.56356 0.6773 0.12468 0.0
C611 C 0.54532 0.63079 0.09594 0.0
H612 H 0.54844 0.61796 0.89384 0.0
C613 C 0.50738 0.55645 0.95594 0.0
C614 C 0.51738 0.54869 0.8937 0.0
C615 C 0.51678 0.57342 0.99478 0.0
C616 C 0.54796 0.62113 0.95062 0.0
H617 H 0.52497 0.71842 0.03267 0.0
H618 H 0.52528 0.68056 0.99354 0.0
H619 H 0.55414 0.65495 0.93506 0.0
H620 H 0.5455 0.55204 0.82545 0.0
H621 H 0.56237 0.58063 0.89494 0.0
H622 H 0.53813 0.597 0.11096 0.0
C623 C 0.53623 0.68556 0.03572 0.0
C624 C 0.55101 0.64236 0.97402 0.0
C625 C 0.53612 0.70718 0.0576 0.0
C626 C 0.53779 0.55695 0.87461 0.0
C627 C 0.54725 0.57373 0.91362 0.0
C628 C 0.54198 0.60947 0.07237 0.0
C629 C 0.54982 0.67041 0.06939 0.0
C630 C 0.54927 0.64747 0.04659 0.0
C631 C 0.53627 0.58295 0.97171 0.0
C632 C 0.54291 0.60452 0.99926 0.0
H633 H 0.57464 0.70423 0.1876 0.0
H634 H 0.57425 0.66591 0.1511 0.0
H635 H 0.54382 0.63441 0.15223 0.0
H636 H 0.49154 0.55052 0.97154 0.0
H637 H 0.50785 0.58026 0.0391 0.0
C638 C 0.81034 0.55471 0.07296 0.0
C639 C 0.80014 0.53941 0.11679 0.0
C640 C 0.83229 0.55241 0.0557 0.0
C641 C 0.8755 0.51111 0.04689 0.0
H642 H 0.91389 0.56085 0.03491 0.0
C643 C 0.96209 0.49756 0.96201 0.0
C644 C 0.96781 0.51008 0.90248 0.0
C645 C 0.94496 0.50396 0.00576 0.0
C646 C 0.90336 0.54682 0.03834 0.0
H647 H 0.80431 0.50971 0.17626 0.0
H648 H 0.8427 0.50575 0.14761 0.0
H649 H 0.87619 0.56589 0.07226 0.0
H650 H 0.96156 0.54012 0.84611 0.0
H651 H 0.93173 0.55129 0.92218 0.0
H652 H 0.90224 0.49208 0.01154 0.0
C653 C 0.83389 0.51939 0.12561 0.0
C654 C 0.88176 0.54971 0.05923 0.0
C655 C 0.81199 0.52164 0.14229 0.0
C656 C 0.95778 0.53032 0.8923 0.0
C657 C 0.94052 0.53665 0.93578 0.0
C658 C 0.897 0.50823 0.02636 0.0
C659 C 0.84434 0.53475 0.08213 0.0
C660 C 0.86753 0.53188 0.06295 0.0
C661 C 0.93308 0.52284 0.99012 0.0
C662 C 0.91116 0.52604 0.02111 0.0
H663 H 0.8014 0.56861 0.05342 0.0
H664 H 0.83976 0.56435 0.02125 0.0
H665 H 0.86493 0.49708 0.04781 0.0
H666 H 0.96966 0.48195 0.97127 0.0
H667 H 0.93995 0.49327 0.04849 0.0
C668 C 0.01654 0.2137 0.15039 0.0
C669 C 0.03603 0.22528 0.1456 0.0
C670 C 0.01279 0.19557 0.10694 0.0
C671 C 0.03479 0.1645 0.94921 0.0
H672 H 0.0005 0.11814 0.03149 0.0
C673 C 0.02601 0.07758 0.82375 0.0
C674 C 0.0043 0.07151 0.81195 0.0
C675 C 0.03098 0.09598 0.86523 0.0
C676 C 0.01014 0.13094 0.00783 0.0
H677 H 0.0668 0.22736 0.09172 0.0
H678 H 0.06077 0.19544 0.01674 0.0
H679 H 0.00662 0.15126 0.0993 0.0
H680 H 0.97091 0.07949 0.83652 0.0
H681 H 0.97961 0.11085 0.91079 0.0
H682 H 0.03876 0.1435 0.85854 0.0
C683 C 0.04792 0.20052 0.05221 0.0
C684 C 0.01347 0.15014 0.04636 0.0
C685 C 0.05144 0.2189 0.09492 0.0
C686 C 0.9878 0.08375 0.8445 0.0
C687 C 0.99276 0.10169 0.8872 0.0
C688 C 0.03179 0.14506 0.91126 0.0
C689 C 0.0287 0.18821 0.05857 0.0
C690 C 0.02558 0.16744 0.01738 0.0
C691 C 0.01437 0.10826 0.89725 0.0
C692 C 0.01919 0.12817 0.93978 0.0
H693 H 0.00459 0.21823 0.18992 0.0
H694 H 0.99752 0.18709 0.11254 0.0
H695 H 0.04397 0.17736 0.92416 0.0
H696 H 0.03906 0.06858 0.7989 0.0
H697 H 0.04779 0.10062 0.87229 0.0
C698 C 0.30098 0.01466 0.15594 0.0
C699 C 0.28874 0.0337 0.14947 0.0
C700 C 0.31903 0.01104 0.1121 0.0
C701 C 0.34875 0.03261 0.95058 0.0
H702 H 0.39626 -0.00014 0.03287 0.0
C703 C 0.43539 0.02523 0.82211 0.0
C704 C 0.44189 0.00361 0.81109 0.0
C705 C 0.41704 0.02996 0.86399 0.0
C706 C 0.38314 0.00907 0.00918 0.0
H707 H 0.28547 0.06383 0.09221 0.0
H708 H 0.31722 0.05808 0.01661 0.0
H709 H 0.36338 0.00565 0.10187 0.0
H710 H 0.43469 0.97015 0.8375 0.0
H711 H 0.40346 0.97846 0.91254 0.0
H712 H 0.36921 0.03654 0.85869 0.0
C713 C 0.31273 0.04542 0.05369 0.0
C714 C 0.36405 0.01221 0.04843 0.0
C715 C 0.29442 0.04879 0.0968 0.0
C716 C 0.43011 0.98697 0.84484 0.0
C717 C 0.41223 0.99172 0.88798 0.0
C718 C 0.36807 0.02983 0.91191 0.0
C719 C 0.32568 0.02667 0.06157 0.0
C720 C 0.34633 0.02375 0.01954 0.0
C721 C 0.40523 0.01322 0.89728 0.0
C722 C 0.38539 0.01779 0.94041 0.0
H723 H 0.29702 0.00297 0.197 0.0
H724 H 0.32799 0.9961 0.11905 0.0
H725 H 0.33558 0.04134 0.92545 0.0
H726 H 0.44401 0.03837 0.79636 0.0
H727 H 0.41207 0.0467 0.87041 0.0
C728 C 0.4633 0.2949 0.09537 0.0
C729 C 0.47902 0.28837 0.145 0.0
C730 C 0.46652 0.31347 0.05324 0.0
C731 C 0.50056 0.36412 0.04861 0.0
H732 H 0.47472 0.37135 0.86157 0.0
C733 C 0.52556 0.43169 0.85081 0.0
C734 C 0.50909 0.44346 0.81616 0.0
C735 C 0.52064 0.41371 0.89334 0.0
C736 C 0.48184 0.36965 0.91411 0.0
H737 H 0.5107 0.2954 0.18795 0.0
H738 H 0.51719 0.32689 0.1117 0.0
H739 H 0.46986 0.33722 0.92581 0.0
H740 H 0.47442 0.44557 0.79932 0.0
H741 H 0.46576 0.41353 0.87266 0.0
H742 H 0.51325 0.39628 0.03517 0.0
C743 C 0.50193 0.31835 0.10641 0.0
C744 C 0.47905 0.35004 0.95124 0.0
C745 C 0.49851 0.30001 0.14917 0.0
C746 C 0.48743 0.43696 0.82594 0.0
C747 C 0.48251 0.41853 0.86735 0.0
C748 C 0.50364 0.38352 0.01097 0.0
C749 C 0.48571 0.32585 0.05925 0.0
C750 C 0.4885 0.34685 0.01904 0.0
C751 C 0.49912 0.40663 0.90124 0.0
C752 C 0.49442 0.38653 0.94312 0.0
H753 H 0.44793 0.28643 0.09264 0.0
H754 H 0.45345 0.31864 0.01861 0.0
H755 H 0.50758 0.36281 0.10134 0.0
H756 H 0.54242 0.43625 0.84423 0.0
H757 H 0.53381 0.40487 0.91824 0.0
C758 C 0.22609 0.49175 0.09373 0.0
C759 C 0.22697 0.47385 0.13978 0.0
C760 C 0.20852 0.49438 0.04655 0.0
C761 C 0.15798 0.4662 0.97645 0.0
H762 H 0.13959 0.52534 0.94303 0.0
C763 C 0.08177 0.48656 0.80303 0.0
C764 C 0.07078 0.50608 0.81624 0.0
C765 C 0.101 0.48156 0.84012 0.0
C766 C 0.14413 0.50864 0.95263 0.0
H767 H 0.21096 0.44406 0.1696 0.0
H768 H 0.18006 0.44888 0.09086 0.0
H769 H 0.17268 0.51859 0.0083 0.0
H770 H 0.07062 0.5352 0.88047 0.0
H771 H 0.1029 0.52595 0.94862 0.0
H772 H 0.12862 0.45628 0.92481 0.0
C773 C 0.19291 0.46082 0.08887 0.0
C774 C 0.16362 0.50473 0.98904 0.0
C775 C 0.21063 0.45804 0.13469 0.0
C776 C 0.07878 0.52 0.86935 0.0
C777 C 0.0976 0.5148 0.90758 0.0
C778 C 0.13822 0.47011 0.94127 0.0
C779 C 0.19119 0.47933 0.04512 0.0
C780 C 0.17091 0.48344 0.00204 0.0
C781 C 0.10949 0.49582 0.89224 0.0
C782 C 0.13083 0.49142 0.9291 0.0
H783 H 0.23837 0.50427 0.09692 0.0
H784 H 0.20832 0.50857 0.01264 0.0
H785 H 0.16299 0.44952 0.98364 0.0
H786 H 0.07617 0.47574 0.76135 0.0
H787 H 0.10958 0.46691 0.82563 0.0
C788 C 0.99077 0.79027 0.3032 0.0
C789 C 0.9711 0.78827 0.26609 0.0
C790 C 0.99444 0.80805 0.34859 0.0
C791 C 0.96726 0.85485 0.4407 0.0
H792 H 0.02441 0.88066 0.42745 0.0
C793 C 0.98883 0.9395 0.5652 0.0
C794 C 0.00893 0.9407 0.60072 0.0
C795 C 0.98334 0.92108 0.52437 0.0
C796 C 0.0084 0.87361 0.43238 0.0
H797 H 0.93955 0.8026 0.2496 0.0
H798 H 0.94576 0.83357 0.32838 0.0
H799 H 0.01652 0.84745 0.36234 0.0
H800 H 0.03908 0.92331 0.6196 0.0
H801 H 0.02957 0.89175 0.54957 0.0
H802 H 0.95918 0.88128 0.51049 0.0
C803 C 0.95838 0.82145 0.32351 0.0
C804 C 0.00388 0.85441 0.39519 0.0
C805 C 0.95475 0.80369 0.27839 0.0
C806 C 0.02341 0.92314 0.59338 0.0
C807 C 0.01802 0.90496 0.55252 0.0
C808 C 0.97177 0.87414 0.47786 0.0
C809 C 0.97852 0.82427 0.35776 0.0
C810 C 0.9833 0.8446 0.39908 0.0
C811 C 0.99792 0.90356 0.51746 0.0
C812 C 0.99248 0.88371 0.47469 0.0
H813 H 0.00376 0.77883 0.29366 0.0
H814 H 0.01002 0.80939 0.37493 0.0
H815 H 0.95125 0.84778 0.44558 0.0
H816 H 0.97724 0.95262 0.5697 0.0
H817 H 0.96775 0.92063 0.49772 0.0
C818 C 0.72077 0.96767 0.31032 0.0
C819 C 0.72332 0.98072 0.24964 0.0
C820 C 0.70296 0.97064 0.35601 0.0
C821 C 0.64681 0.99284 0.35608 0.0
H822 H 0.6517 0.98839 0.56148 0.0
C823 C 0.57123 0.99512 0.54466 0.0
C824 C 0.5734 0.00819 0.60586 0.0
C825 C 0.58937 0.99042 0.50164 0.0
C826 C 0.65001 0.98972 0.50418 0.0
H827 H 0.70974 0.00743 0.19007 0.0
H828 H 0.67879 0.0129 0.26976 0.0
H829 H 0.68395 0.98406 0.48758 0.0
H830 H 0.59672 0.02602 0.67016 0.0
H831 H 0.62785 0.01784 0.5962 0.0
H832 H 0.6129 -0.00117 0.37285 0.0
C833 C 0.69033 0.00019 0.28209 0.0
C834 C 0.66853 0.98706 0.46169 0.0
C835 C 0.7082 0.99731 0.23696 0.0
C836 C 0.59424 0.01597 0.62345 0.0
C837 C 0.61226 0.01113 0.58115 0.0
C838 C 0.62824 0.99535 0.39859 0.0
C839 C 0.68718 0.98662 0.34156 0.0
C840 C 0.66729 0.98884 0.38702 0.0
C841 C 0.61015 0.99841 0.51933 0.0
C842 C 0.6296 0.9941 0.47337 0.0
H843 H 0.73195 0.95447 0.32021 0.0
H844 H 0.70106 0.95977 0.40089 0.0
H845 H 0.6451 0.99398 0.29873 0.0
H846 H 0.5555 0.98884 0.52929 0.0
H847 H 0.58713 0.98043 0.4547 0.0
C848 C 0.55275 0.71978 0.30792 0.0
C849 C 0.53701 0.72649 0.2586 0.0
C850 C 0.54942 0.70122 0.34997 0.0
C851 C 0.5149 0.6509 0.35489 0.0
H852 H 0.54094 0.64334 0.54148 0.0
C853 C 0.48959 0.58346 0.55277 0.0
C854 C 0.50602 0.57152 0.58705 0.0
C855 C 0.49461 0.60142 0.51026 0.0
C856 C 0.53377 0.64513 0.48907 0.0
H857 H 0.5052 0.71979 0.21612 0.0
H858 H 0.49853 0.68831 0.29226 0.0
H859 H 0.54603 0.67745 0.47733 0.0
H860 H 0.5407 0.56909 0.60322 0.0
H861 H 0.54952 0.6011 0.52993 0.0
H862 H 0.50194 0.61885 0.36838 0.0
C863 C 0.51388 0.69671 0.29735 0.0
C864 C 0.53669 0.66473 0.45199 0.0
C865 C 0.5174 0.71504 0.25466 0.0
C866 C 0.52772 0.57783 0.5769 0.0
C867 C 0.53273 0.59624 0.53552 0.0
C868 C 0.51169 0.63151 0.39248 0.0
C869 C 0.5301 0.68903 0.34421 0.0
C870 C 0.52717 0.66804 0.38435 0.0
C871 C 0.51618 0.6083 0.50201 0.0
C872 C 0.52099 0.62839 0.46017 0.0
H873 H 0.56819 0.72811 0.31045 0.0
H874 H 0.56248 0.69591 0.38435 0.0
H875 H 0.50782 0.65229 0.30227 0.0
H876 H 0.47271 0.57904 0.5596 0.0
H877 H 0.48147 0.61038 0.48564 0.0
C878 C 0.78634 0.52719 0.31959 0.0
C879 C 0.78673 0.5436 0.26782 0.0
C880 C 0.80376 0.52467 0.36741 0.0
C881 C 0.85681 0.55055 0.42675 0.0
H882 H 0.8703 0.49137 0.47919 0.0
C883 C 0.93272 0.52903 0.60055 0.0
C884 C 0.94184 0.50828 0.5932 0.0
C885 C 0.91354 0.53451 0.56385 0.0
C886 C 0.86715 0.50802 0.4642 0.0
H887 H 0.80488 0.57103 0.22844 0.0
H888 H 0.8355 0.56626 0.30835 0.0
H889 H 0.83754 0.49891 0.41331 0.0
H890 H 0.93876 0.47743 0.53925 0.0
H891 H 0.90663 0.4873 0.47162 0.0
H892 H 0.88725 0.55941 0.47348 0.0
C893 C 0.82179 0.55547 0.31432 0.0
C894 C 0.84784 0.51246 0.42745 0.0
C895 C 0.80421 0.55822 0.26785 0.0
C896 C 0.93203 0.49353 0.5461 0.0
C897 C 0.91329 0.49915 0.50813 0.0
C898 C 0.8764 0.54603 0.46223 0.0
C899 C 0.82222 0.53827 0.36381 0.0
C900 C 0.8423 0.53379 0.40755 0.0
C901 C 0.90326 0.51951 0.51779 0.0
C902 C 0.88205 0.52464 0.48112 0.0
H903 H 0.77317 0.51558 0.32044 0.0
H904 H 0.80295 0.5116 0.40578 0.0
H905 H 0.85319 0.56729 0.4142 0.0
H906 H 0.93977 0.5406 0.63741 0.0
H907 H 0.90644 0.55027 0.57385 0.0
loop_
_geom_bond_atom_site_label_1
_geom_bond_atom_site_label_2
_geom_bond_distance
_geom_bond_site_symmetry_2
_ccdc_geom_bond_type
C0 N1 1.317 . S
C0 N2 1.348 . S
C0 C3 1.485 . S
N1 C0 1.317 . S
N1 N5 1.370 . S
N2 C0 1.348 . S
N2 C4 1.346 . S
C3 C0 1.485 . S
C3 H7 0.960 . S
C3 H8 0.961 . S
C3 H9 0.960 . S
C4 N2 1.346 . S
C4 N5 1.307 . S
C4 C6 1.486 1_554 S
N5 N1 1.370 . S
N5 C4 1.307 . S
C6 C4 1.486 1_556 S
C6 H10 0.960 . S
C6 H11 0.960 . S
C6 H12 0.959 . S
H7 C3 0.960 . S
H8 C3 0.961 . S
H9 C3 0.960 . S
H10 C6 0.960 . S
H11 C6 0.960 . S
H12 C6 0.959 . S
C13 N14 1.317 . S
C13 N15 1.348 . S
C13 C16 1.485 . S
N14 C13 1.317 . S
N14 N18 1.370 . S
N15 C13 1.348 . S
N15 C17 1.346 . S
C16 C13 1.485 . S
C16 H20 0.960 . S
C16 H21 0.961 . S
C16 H22 0.960 . S
C17 N15 1.346 . S
C17 N18 1.307 . S
C17 C19 1.486 1_554 S
N18 N14 1.370 . S
N18 C17 1.307 . S
C19 C17 1.486 1_556 S
C19 H23 0.960 . S
C19 H24 0.960 . S
C19 H25 0.959 . S
H20 C16 0.960 . S
H21 C16 0.961 . S
H22 C16 0.960 . S
H23 C19 0.960 . S
H24 C19 0.960 . S
H25 C19 0.959 . S
C26 N27 1.317 . S
C26 N28 1.348 . S
C26 C29 1.485 . S
N27 C26 1.317 . S
N27 N31 1.370 . S
N28 C26 1.348 . S
N28 C30 1.346 . S
C29 C26 1.485 . S
C29 H33 0.960 . S
C29 H34 0.961 . S
C29 H35 0.960 . S
C30 N28 1.346 . S
C30 N31 1.307 . S
C30 C32 1.486 1_554 S
N31 N27 1.370 . S
N31 C30 1.307 . S
C32 C30 1.486 1_556 S
C32 H36 0.960 . S
C32 H37 0.960 . S
C32 H38 0.959 . S
H33 C29 0.960 . S
H34 C29 0.961 . S
H35 C29 0.960 . S
H36 C32 0.960 . S
H37 C32 0.960 . S
H38 C32 0.959 . S
C39 N40 1.317 . S
C39 N41 1.348 . S
C39 C42 1.485 . S
N40 C39 1.317 . S
N40 N44 1.370 . S
N41 C39 1.348 . S
N41 C43 1.346 . S
C42 C39 1.485 . S
C42 H46 0.960 . S
C42 H47 0.961 . S
C42 H48 0.960 . S
C43 N41 1.346 . S
C43 N44 1.307 . S
C43 C45 1.486 1_554 S
N44 N40 1.370 . S
N44 C43 1.307 . S
C45 C43 1.486 1_556 S
C45 H49 0.960 . S
C45 H50 0.960 . S
C45 H51 0.959 . S
H46 C42 0.960 . S
H47 C42 0.961 . S
H48 C42 0.960 . S
H49 C45 0.960 . S
H50 C45 0.960 . S
H51 C45 0.959 . S
C52 N53 1.317 . S
C52 N54 1.348 . S
C52 C55 1.485 . S
N53 C52 1.317 . S
N53 N57 1.370 . S
N54 C52 1.348 . S
N54 C56 1.346 . S
C55 C52 1.485 . S
C55 H59 0.960 . S
C55 H60 0.961 . S
C55 H61 0.960 . S
C56 N54 1.346 . S
C56 N57 1.307 . S
C56 C58 1.486 . S
N57 N53 1.370 . S
N57 C56 1.307 . S
C58 C56 1.486 . S
C58 H62 0.960 . S
C58 H63 0.960 . S
C58 H64 0.959 . S
H59 C55 0.960 . S
H60 C55 0.961 . S
H61 C55 0.960 . S
H62 C58 0.960 . S
H63 C58 0.960 . S
H64 C58 0.959 . S
C65 N66 1.317 . S
C65 N67 1.348 . S
C65 C68 1.485 . S
N66 C65 1.317 . S
N66 N70 1.370 . S
N67 C65 1.348 . S
N67 C69 1.346 . S
C68 C65 1.485 . S
C68 H72 0.960 . S
C68 H73 0.961 . S
C68 H74 0.960 . S
C69 N67 1.346 . S
C69 N70 1.307 . S
C69 C71 1.486 . S
N70 N66 1.370 . S
N70 C69 1.307 . S
C71 C69 1.486 . S
C71 H75 0.960 . S
C71 H76 0.960 . S
C71 H77 0.959 . S
H72 C68 0.960 . S
H73 C68 0.961 . S
H74 C68 0.960 . S
H75 C71 0.960 . S
H76 C71 0.960 . S
H77 C71 0.959 . S
C78 N79 1.317 . S
C78 N80 1.348 . S
C78 C81 1.485 . S
N79 C78 1.317 . S
N79 N83 1.370 . S
N80 C78 1.348 . S
N80 C82 1.346 . S
C81 C78 1.485 . S
C81 H85 0.960 . S
C81 H86 0.961 . S
C81 H87 0.960 . S
C82 N80 1.346 . S
C82 N83 1.307 . S
C82 C84 1.486 . S
N83 N79 1.370 . S
N83 C82 1.307 . S
C84 C82 1.486 . S
C84 H88 0.960 . S
C84 H89 0.960 . S
C84 H90 0.959 . S
H85 C81 0.960 . S
H86 C81 0.961 . S
H87 C81 0.960 . S
H88 C84 0.960 . S
H89 C84 0.960 . S
H90 C84 0.959 . S
C91 N92 1.317 . S
C91 N93 1.348 . S
C91 C94 1.485 . S
N92 C91 1.317 . S
N92 N96 1.370 . S
N93 C91 1.348 . S
N93 C95 1.346 . S
C94 C91 1.485 . S
C94 H98 0.960 . S
C94 H99 0.961 . S
C94 H100 0.960 . S
C95 N93 1.346 . S
C95 N96 1.307 . S
C95 C97 1.486 . S
N96 N92 1.370 . S
N96 C95 1.307 . S
C97 C95 1.486 . S
C97 H101 0.960 . S
C97 H102 0.960 . S
C97 H103 0.959 . S
H98 C94 0.960 . S
H99 C94 0.961 . S
H100 C94 0.960 . S
H101 C97 0.960 . S
H102 C97 0.960 . S
H103 C97 0.959 . S
O104 Mn105 2.163 . S
O104 C118 1.244 . S
Mn105 O104 2.163 . S
Mn105 O108 2.160 1_445 S
Mn105 O109 2.221 . S
Mn105 O111 2.163 1_545 S
Mn105 O113 2.160 . S
Mn105 O123 2.221 1_455 S
O106 Mn107 2.087 . S
O106 C118 1.256 1_655 S
Mn107 O106 2.087 . S
Mn107 O114 2.089 . S
Mn107 O123 2.290 . S
Mn107 O124 2.251 . S
O108 Mn105 2.160 1_665 S
O108 C119 1.240 . S
O109 Mn105 2.221 . S
O109 Mn110 2.290 1_545 S
O109 C120 1.278 . S
Mn110 O109 2.290 1_565 S
Mn110 O112 2.089 . S
Mn110 O115 2.251 . S
Mn110 O116 2.087 . S
O111 Mn105 2.163 1_565 S
O111 C121 1.244 . S
O112 Mn110 2.089 . S
O112 C119 1.249 1_455 S
O113 Mn105 2.160 . S
O113 C122 1.239 . S
O114 Mn107 2.089 . S
O114 C122 1.256 1_655 S
O115 Mn110 2.251 . S
O115 C120 1.241 1_565 S
O116 Mn110 2.087 . S
O116 C121 1.256 . S
C117 O123 1.278 . S
C117 O124 1.241 . S
C118 O104 1.244 . S
C118 O106 1.256 1_455 S
C119 O108 1.240 . S
C119 O112 1.249 1_655 S
C120 O109 1.278 . S
C120 O115 1.241 1_545 S
C121 O111 1.244 . S
C121 O116 1.256 . S
C122 O113 1.239 . S
C122 O114 1.256 1_455 S
O123 Mn105 2.221 1_655 S
O123 Mn107 2.290 . S
O123 C117 1.278 . S
O124 Mn107 2.251 . S
O124 C117 1.241 . S
O125 Mn126 2.163 . S
O125 C139 1.244 . S
Mn126 O125 2.163 . S
Mn126 O129 2.160 . S
Mn126 O130 2.221 1_545 S
Mn126 O132 2.163 . S
Mn126 O134 2.160 1_545 S
Mn126 O144 2.221 . S
O127 Mn128 2.087 . S
O127 C139 1.256 . S
Mn128 O127 2.087 . S
Mn128 O135 2.089 . S
Mn128 O144 2.290 . S
Mn128 O145 2.251 . S
O129 Mn126 2.160 . S
O129 C140 1.239 . S
O130 Mn126 2.221 1_565 S
O130 Mn131 2.290 . S
O130 C141 1.278 . S
Mn131 O130 2.290 . S
Mn131 O133 2.089 . S
Mn131 O136 2.251 . S
Mn131 O137 2.087 . S
O132 Mn126 2.163 . S
O132 C142 1.244 . S
O133 Mn131 2.089 . S
O133 C140 1.256 1_565 S
O134 Mn126 2.160 1_565 S
O134 C143 1.239 . S
O135 Mn128 2.089 . S
O135 C143 1.254 1_545 S
O136 Mn131 2.251 . S
O136 C141 1.241 . S
O137 Mn131 2.087 . S
O137 C142 1.256 1_565 S
C138 O144 1.278 . S
C138 O145 1.241 . S
C139 O125 1.244 . S
C139 O127 1.256 . S
C140 O129 1.239 . S
C140 O133 1.256 1_545 S
C141 O130 1.278 . S
C141 O136 1.241 . S
C142 O132 1.244 . S
C142 O137 1.256 1_545 S
C143 O134 1.239 . S
C143 O135 1.254 1_565 S
O144 Mn126 2.221 . S
O144 Mn128 2.290 . S
O144 C138 1.278 . S
O145 Mn128 2.251 . S
O145 C138 1.241 . S
O146 Mn147 2.163 . S
O146 C160 1.244 . S
Mn147 O146 2.163 . S
Mn147 O150 2.160 . S
Mn147 O151 2.221 . S
Mn147 O153 2.163 . S
Mn147 O155 2.160 . S
Mn147 O165 2.221 . S
O148 Mn149 2.087 . S
O148 C160 1.256 . S
Mn149 O148 2.087 . S
Mn149 O156 2.089 . S
Mn149 O165 2.290 . S
Mn149 O166 2.251 . S
O150 Mn147 2.160 . S
O150 C161 1.239 . S
O151 Mn147 2.221 . S
O151 Mn152 2.290 . S
O151 C162 1.278 . S
Mn152 O151 2.290 . S
Mn152 O154 2.089 . S
Mn152 O157 2.251 . S
Mn152 O158 2.087 . S
O153 Mn147 2.163 . S
O153 C163 1.244 . S
O154 Mn152 2.089 . S
O154 C161 1.256 . S
O155 Mn147 2.160 . S
O155 C164 1.239 . S
O156 Mn149 2.089 . S
O156 C164 1.256 . S
O157 Mn152 2.251 . S
O157 C162 1.241 . S
O158 Mn152 2.087 . S
O158 C163 1.256 . S
C159 O165 1.278 . S
C159 O166 1.241 . S
C160 O146 1.244 . S
C160 O148 1.256 . S
C161 O150 1.239 . S
C161 O154 1.256 . S
C162 O151 1.278 . S
C162 O157 1.241 . S
C163 O153 1.244 . S
C163 O158 1.256 . S
C164 O155 1.239 . S
C164 O156 1.256 . S
O165 Mn147 2.221 . S
O165 Mn149 2.290 . S
O165 C159 1.278 . S
O166 Mn149 2.251 . S
O166 C159 1.241 . S
O167 Mn168 2.163 . S
O167 C181 1.244 . S
Mn168 O167 2.163 . S
Mn168 O171 2.160 1_455 S
Mn168 O172 2.221 . S
Mn168 O174 2.163 1_455 S
Mn168 O176 2.160 . S
Mn168 O186 2.221 . S
O169 Mn170 2.087 . S
O169 C181 1.256 . S
Mn170 O169 2.087 . S
Mn170 O177 2.089 . S
Mn170 O186 2.290 . S
Mn170 O187 2.251 . S
O171 Mn168 2.160 1_655 S
O171 C182 1.239 . S
O172 Mn168 2.221 . S
O172 Mn173 2.290 1_455 S
O172 C183 1.278 . S
Mn173 O172 2.290 1_655 S
Mn173 O175 2.089 . S
Mn173 O178 2.251 . S
Mn173 O179 2.087 . S
O174 Mn168 2.163 1_655 S
O174 C184 1.244 . S
O175 Mn173 2.089 . S
O175 C182 1.256 . S
O176 Mn168 2.160 . S
O176 C185 1.239 . S
O177 Mn170 2.089 . S
O177 C185 1.256 . S
O178 Mn173 2.251 . S
O178 C183 1.241 1_655 S
O179 Mn173 2.087 . S
O179 C184 1.256 . S
C180 O186 1.278 . S
C180 O187 1.241 . S
C181 O167 1.244 . S
C181 O169 1.256 . S
C182 O171 1.239 . S
C182 O175 1.256 . S
C183 O172 1.278 . S
C183 O178 1.241 1_455 S
C184 O174 1.244 . S
C184 O179 1.256 . S
C185 O176 1.239 . S
C185 O177 1.256 . S
O186 Mn168 2.221 . S
O186 Mn170 2.290 . S
O186 C180 1.278 . S
O187 Mn170 2.251 . S
O187 C180 1.241 . S
C188 C189 1.349 . S
C188 C190 1.327 . S
C188 H213 0.950 . S
C189 C188 1.349 . S
C189 C205 1.349 . S
C190 C188 1.327 . S
C190 C209 1.429 . S
C190 H214 0.950 . S
C191 C208 1.574 . S
C191 C210 1.368 . S
C191 H215 0.949 . S
H192 C196 0.949 1_565 S
C193 C194 1.349 . S
C193 C195 1.327 . S
C193 H216 0.950 . S
C194 C193 1.349 . S
C194 C206 1.349 1_545 S
C195 C193 1.327 . S
C195 C211 1.429 . S
C195 H217 0.950 . S
C196 H192 0.949 1_545 S
C196 C204 1.574 . S
C196 C212 1.368 . S
H197 C205 0.950 . S
H198 C203 0.950 . S
H199 C204 0.962 . S
H200 C206 0.950 . S
H201 C207 0.950 1_565 S
H202 C208 0.949 . S
C203 H198 0.950 . S
C203 C205 1.327 . S
C203 C209 1.429 . S
C204 C196 1.574 . S
C204 H199 0.962 . S
C204 C210 1.368 . S
C205 C189 1.349 . S
C205 H197 0.950 . S
C205 C203 1.327 . S
C206 C194 1.349 1_565 S
C206 H200 0.950 . S
C206 C207 1.327 1_565 S
C207 H201 0.950 1_545 S
C207 C206 1.327 1_545 S
C207 C211 1.429 . S
C208 C191 1.574 . S
C208 H202 0.949 . S
C208 C212 1.368 . S
C209 C190 1.429 . S
C209 C203 1.429 . S
C209 C210 1.523 . S
C210 C191 1.368 . S
C210 C204 1.368 . S
C210 C209 1.523 . S
C211 C195 1.429 . S
C211 C207 1.429 . S
C211 C212 1.523 . S
C212 C196 1.368 . S
C212 C208 1.368 . S
C212 C211 1.523 . S
H213 C188 0.950 . S
H214 C190 0.950 . S
H215 C191 0.949 . S
H216 C193 0.950 . S
H217 C195 0.950 . S
C218 C219 1.349 . S
C218 C220 1.327 . S
C218 H243 0.950 . S
C219 C218 1.349 . S
C219 C235 1.349 . S
C220 C218 1.327 . S
C220 C239 1.429 . S
C220 H244 0.950 . S
C221 C238 1.574 . S
C221 C240 1.368 . S
C221 H245 0.949 . S
H222 C226 0.949 . S
C223 C224 1.349 . S
C223 C225 1.327 . S
C223 H246 0.950 . S
C224 C223 1.349 . S
C224 C236 1.349 . S
C225 C223 1.327 . S
C225 C241 1.429 . S
C225 H247 0.950 . S
C226 H222 0.949 . S
C226 C234 1.574 . S
C226 C242 1.368 . S
H227 C235 0.950 . S
H228 C233 0.950 . S
H229 C234 0.949 . S
H230 C236 0.950 . S
H231 C237 0.950 . S
H232 C238 0.949 . S
C233 H228 0.950 . S
C233 C235 1.327 . S
C233 C239 1.429 . S
C234 C226 1.574 . S
C234 H229 0.949 . S
C234 C240 1.368 . S
C235 C219 1.349 . S
C235 H227 0.950 . S
C235 C233 1.327 . S
C236 C224 1.349 . S
C236 H230 0.950 . S
C236 C237 1.327 . S
C237 H231 0.950 . S
C237 C236 1.327 . S
C237 C241 1.429 . S
C238 C221 1.574 . S
C238 H232 0.949 . S
C238 C242 1.368 . S
C239 C220 1.429 . S
C239 C233 1.429 . S
C239 C240 1.523 . S
C240 C221 1.368 . S
C240 C234 1.368 . S
C240 C239 1.523 . S
C241 C225 1.429 . S
C241 C237 1.429 . S
C241 C242 1.523 . S
C242 C226 1.368 . S
C242 C238 1.368 . S
C242 C241 1.523 . S
H243 C218 0.950 . S
H244 C220 0.950 . S
H245 C221 0.949 . S
H246 C223 0.950 . S
H247 C225 0.950 . S
C248 C249 1.349 . S
C248 C250 1.327 . S
C248 H273 0.950 . S
C249 C248 1.349 . S
C249 C265 1.349 . S
C250 C248 1.327 . S
C250 C269 1.429 . S
C250 H274 0.950 . S
C251 C268 1.574 . S
C251 C270 1.368 . S
C251 H275 0.949 . S
H252 C256 0.949 . S
C253 C254 1.349 . S
C253 C255 1.327 . S
C253 H276 0.950 . S
C254 C253 1.349 . S
C254 C266 1.349 . S
C255 C253 1.327 . S
C255 C271 1.429 . S
C255 H277 0.950 . S
C256 H252 0.949 . S
C256 C264 1.574 . S
C256 C272 1.368 . S
H257 C265 0.950 . S
H258 C263 0.950 . S
H259 C264 0.949 . S
H260 C266 0.950 . S
H261 C267 0.950 . S
H262 C268 0.949 . S
C263 H258 0.950 . S
C263 C265 1.327 . S
C263 C269 1.429 . S
C264 C256 1.574 . S
C264 H259 0.949 . S
C264 C270 1.368 . S
C265 C249 1.349 . S
C265 H257 0.950 . S
C265 C263 1.327 . S
C266 C254 1.349 . S
C266 H260 0.950 . S
C266 C267 1.327 . S
C267 H261 0.950 . S
C267 C266 1.327 . S
C267 C271 1.429 . S
C268 C251 1.574 . S
C268 H262 0.949 . S
C268 C272 1.368 . S
C269 C250 1.429 . S
C269 C263 1.429 . S
C269 C270 1.523 . S
C270 C251 1.368 . S
C270 C264 1.368 . S
C270 C269 1.523 . S
C271 C255 1.429 . S
C271 C267 1.429 . S
C271 C272 1.523 . S
C272 C256 1.368 . S
C272 C268 1.368 . S
C272 C271 1.523 . S
H273 C248 0.950 . S
H274 C250 0.950 . S
H275 C251 0.949 . S
H276 C253 0.950 . S
H277 C255 0.950 . S
C278 C279 1.349 . S
C278 C280 1.327 . S
C278 H303 0.950 . S
C279 C278 1.349 . S
C279 C295 1.349 . S
C280 C278 1.327 . S
C280 C299 1.429 . S
C280 H304 0.950 . S
C281 C298 1.574 . S
C281 C300 1.368 . S
C281 H305 0.949 . S
H282 C286 0.949 . S
C283 C284 1.349 . S
C283 C285 1.327 . S
C283 H306 0.950 . S
C284 C283 1.349 . S
C284 C296 1.349 . S
C285 C283 1.327 . S
C285 C301 1.429 . S
C285 H307 0.950 . S
C286 H282 0.949 . S
C286 C294 1.574 . S
C286 C302 1.368 . S
H287 C295 0.950 . S
H288 C293 0.950 . S
H289 C294 0.949 . S
H290 C296 0.950 . S
H291 C297 0.950 . S
H292 C298 0.949 . S
C293 H288 0.950 . S
C293 C295 1.327 . S
C293 C299 1.429 . S
C294 C286 1.574 . S
C294 H289 0.949 . S
C294 C300 1.368 . S
C295 C279 1.349 . S
C295 H287 0.950 . S
C295 C293 1.327 . S
C296 C284 1.349 . S
C296 H290 0.950 . S
C296 C297 1.327 . S
C297 H291 0.950 . S
C297 C296 1.327 . S
C297 C301 1.429 . S
C298 C281 1.574 . S
C298 H292 0.949 . S
C298 C302 1.368 . S
C299 C280 1.429 . S
C299 C293 1.429 . S
C299 C300 1.523 . S
C300 C281 1.368 . S
C300 C294 1.368 . S
C300 C299 1.523 . S
C301 C285 1.429 . S
C301 C297 1.429 . S
C301 C302 1.523 . S
C302 C286 1.368 . S
C302 C298 1.368 . S
C302 C301 1.523 . S
H303 C278 0.950 . S
H304 C280 0.950 . S
H305 C281 0.949 . S
H306 C283 0.950 . S
H307 C285 0.950 . S
C308 C309 1.349 . S
C308 C310 1.327 . S
C308 H333 0.950 . S
C309 C308 1.349 . S
C309 C325 1.349 1_554 S
C310 C308 1.327 . S
C310 C329 1.429 1_554 S
C310 H334 0.950 . S
C311 C328 1.574 . S
C311 C330 1.368 . S
C311 H335 0.949 . S
H312 C316 0.949 1_545 S
C313 C314 1.349 1_565 S
C313 C315 1.327 . S
C313 H336 0.950 . S
C314 C313 1.349 1_545 S
C314 C326 1.349 . S
C315 C313 1.327 . S
C315 C331 1.429 . S
C315 H337 0.950 . S
C316 H312 0.949 1_565 S
C316 C324 1.574 . S
C316 C332 1.368 . S
H317 C325 0.950 . S
H318 C323 0.950 . S
H319 C324 0.949 1_554 S
H320 C326 0.950 . S
H321 C327 0.950 . S
H322 C328 0.949 . S
C323 H318 0.950 . S
C323 C325 1.327 . S
C323 C329 1.429 . S
C324 C316 1.574 . S
C324 H319 0.949 1_556 S
C324 C330 1.368 . S
C325 C309 1.349 1_556 S
C325 H317 0.950 . S
C325 C323 1.327 . S
C326 C314 1.349 . S
C326 H320 0.950 . S
C326 C327 1.327 . S
C327 H321 0.950 . S
C327 C326 1.327 . S
C327 C331 1.429 1_545 S
C328 C311 1.574 . S
C328 H322 0.949 . S
C328 C332 1.368 . S
C329 C310 1.429 1_556 S
C329 C323 1.429 . S
C329 C330 1.523 . S
C330 C311 1.368 . S
C330 C324 1.368 . S
C330 C329 1.523 . S
C331 C315 1.429 . S
C331 C327 1.429 1_565 S
C331 C332 1.523 . S
C332 C316 1.368 . S
C332 C328 1.368 . S
C332 C331 1.523 . S
H333 C308 0.950 . S
H334 C310 0.950 . S
H335 C311 0.949 . S
H336 C313 0.950 . S
H337 C315 0.950 . S
C338 C339 1.349 1_556 S
C338 C340 1.327 . S
C338 H363 0.950 . S
C339 C338 1.349 1_554 S
C339 C355 1.349 . S
C340 C338 1.327 . S
C340 C359 1.429 . S
C340 H364 0.950 . S
C341 C358 1.574 . S
C341 C360 1.368 . S
C341 H365 0.949 1_556 S
H342 C346 0.949 . S
C343 C344 1.349 . S
C343 C345 1.327 . S
C343 H366 0.950 . S
C344 C343 1.349 . S
C344 C356 1.349 . S
C345 C343 1.327 . S
C345 C361 1.429 . S
C345 H367 0.950 . S
C346 H342 0.949 . S
C346 C354 1.574 . S
C346 C362 1.368 . S
H347 C355 0.950 . S
H348 C353 0.950 . S
H349 C354 0.949 . S
H350 C356 0.950 . S
H351 C357 0.950 . S
H352 C358 0.949 . S
C353 H348 0.950 . S
C353 C355 1.327 . S
C353 C359 1.429 1_554 S
C354 C346 1.574 . S
C354 H349 0.949 . S
C354 C360 1.368 . S
C355 C339 1.349 . S
C355 H347 0.950 . S
C355 C353 1.327 . S
C356 C344 1.349 . S
C356 H350 0.950 . S
C356 C357 1.327 . S
C357 H351 0.950 . S
C357 C356 1.327 . S
C357 C361 1.429 . S
C358 C341 1.574 . S
C358 H352 0.949 . S
C358 C362 1.368 . S
C359 C340 1.429 . S
C359 C353 1.429 1_556 S
C359 C360 1.523 . S
C360 C341 1.368 . S
C360 C354 1.368 . S
C360 C359 1.523 . S
C361 C345 1.429 . S
C361 C357 1.429 . S
C361 C362 1.523 . S
C362 C346 1.368 . S
C362 C358 1.368 . S
C362 C361 1.523 . S
H363 C338 0.950 . S
H364 C340 0.950 . S
H365 C341 0.949 1_554 S
H366 C343 0.950 . S
H367 C345 0.950 . S
C368 C369 1.349 1_556 S
C368 C370 1.327 . S
C368 H393 0.950 . S
C369 C368 1.349 1_554 S
C369 C385 1.349 . S
C370 C368 1.327 . S
C370 C389 1.429 . S
C370 H394 0.950 . S
C371 C388 1.574 . S
C371 C390 1.368 . S
C371 H395 0.949 1_556 S
H372 C376 0.949 . S
C373 C374 1.349 . S
C373 C375 1.327 . S
C373 H396 0.950 . S
C374 C373 1.349 . S
C374 C386 1.349 . S
C375 C373 1.327 . S
C375 C391 1.429 . S
C375 H397 0.950 . S
C376 H372 0.949 . S
C376 C384 1.574 . S
C376 C392 1.368 . S
H377 C385 0.950 . S
H378 C383 0.950 . S
H379 C384 0.949 . S
H380 C386 0.950 . S
H381 C387 0.950 . S
H382 C388 0.949 . S
C383 H378 0.950 . S
C383 C385 1.327 . S
C383 C389 1.429 1_554 S
C384 C376 1.574 . S
C384 H379 0.949 . S
C384 C390 1.368 . S
C385 C369 1.349 . S
C385 H377 0.950 . S
C385 C383 1.327 . S
C386 C374 1.349 . S
C386 H380 0.950 . S
C386 C387 1.327 . S
C387 H381 0.950 . S
C387 C386 1.327 . S
C387 C391 1.429 . S
C388 C371 1.574 . S
C388 H382 0.949 . S
C388 C392 1.368 . S
C389 C370 1.429 . S
C389 C383 1.429 1_556 S
C389 C390 1.523 . S
C390 C371 1.368 . S
C390 C384 1.368 . S
C390 C389 1.523 . S
C391 C375 1.429 . S
C391 C387 1.429 . S
C391 C392 1.523 . S
C392 C376 1.368 . S
C392 C388 1.368 . S
C392 C391 1.523 . S
H393 C368 0.950 . S
H394 C370 0.950 . S
H395 C371 0.949 1_554 S
H396 C373 0.950 . S
H397 C375 0.950 . S
C398 C399 1.349 . S
C398 C400 1.327 . S
C398 H423 0.950 . S
C399 C398 1.349 . S
C399 C415 1.349 1_554 S
C400 C398 1.327 . S
C400 C419 1.429 1_554 S
C400 H424 0.950 . S
C401 C418 1.580 . S
C401 C420 1.368 . S
C401 H425 0.941 1_655 S
H402 C406 0.949 . S
C403 C404 1.369 . S
C403 C405 1.327 . S
C403 H426 0.950 . S
C404 C403 1.369 . S
C404 C416 1.322 1_455 S
C405 C403 1.327 . S
C405 C421 1.429 1_455 S
C405 H427 0.950 . S
C406 H402 0.949 . S
C406 C414 1.574 . S
C406 C422 1.368 . S
H407 C415 0.950 . S
H408 C413 0.950 . S
H409 C414 0.949 1_554 S
H410 C416 0.950 . S
H411 C417 0.950 . S
H412 C418 0.929 1_455 S
C413 H408 0.950 . S
C413 C415 1.327 . S
C413 C419 1.429 . S
C414 C406 1.574 . S
C414 H409 0.949 1_556 S
C414 C420 1.368 . S
C415 C399 1.349 1_556 S
C415 H407 0.950 . S
C415 C413 1.327 . S
C416 C404 1.322 1_655 S
C416 H410 0.950 . S
C416 C417 1.327 . S
C417 H411 0.950 . S
C417 C416 1.327 . S
C417 C421 1.429 . S
C418 C401 1.580 . S
C418 H412 0.929 1_655 S
C418 C422 1.385 . S
C419 C400 1.429 1_556 S
C419 C413 1.429 . S
C419 C420 1.523 . S
C420 C401 1.368 . S
C420 C414 1.368 . S
C420 C419 1.523 . S
C421 C405 1.429 1_655 S
C421 C417 1.429 . S
C421 C422 1.523 . S
C422 C406 1.368 . S
C422 C418 1.385 . S
C422 C421 1.523 . S
H423 C398 0.950 . S
H424 C400 0.950 . S
H425 C401 0.941 1_455 S
H426 C403 0.950 . S
H427 C405 0.950 . S
C428 C429 1.349 . S
C428 C430 1.327 . S
C428 H453 0.950 . S
C429 C428 1.349 . S
C429 C445 1.349 . S
C430 C428 1.327 . S
C430 C449 1.429 . S
C430 H454 0.950 . S
C431 C448 1.574 . S
C431 C450 1.368 . S
C431 H455 0.949 . S
H432 C436 0.949 1_655 S
C433 C434 1.349 . S
C433 C435 1.327 . S
C433 H456 0.950 . S
C434 C433 1.349 . S
C434 C446 1.349 1_455 S
C435 C433 1.327 . S
C435 C451 1.429 . S
C435 H457 0.950 . S
C436 H432 0.949 1_455 S
C436 C444 1.574 . S
C436 C452 1.368 . S
H437 C445 0.950 . S
H438 C443 0.950 . S
H439 C444 0.919 1_655 S
H440 C446 0.950 . S
H441 C447 0.950 . S
H442 C448 0.949 . S
C443 H438 0.950 . S
C443 C445 1.327 . S
C443 C449 1.429 . S
C444 C436 1.574 . S
C444 H439 0.919 1_455 S
C444 C450 1.368 . S
C445 C429 1.349 . S
C445 H437 0.950 . S
C445 C443 1.327 . S
C446 C434 1.349 1_655 S
C446 H440 0.950 . S
C446 C447 1.327 . S
C447 H441 0.950 . S
C447 C446 1.327 . S
C447 C451 1.429 1_655 S
C448 C431 1.574 . S
C448 H442 0.949 . S
C448 C452 1.368 . S
C449 C430 1.429 . S
C449 C443 1.429 . S
C449 C450 1.523 . S
C450 C431 1.368 . S
C450 C444 1.368 . S
C450 C449 1.523 . S
C451 C435 1.429 . S
C451 C447 1.429 1_455 S
C451 C452 1.523 . S
C452 C436 1.368 . S
C452 C448 1.368 . S
C452 C451 1.523 . S
H453 C428 0.950 . S
H454 C430 0.950 . S
H455 C431 0.949 . S
H456 C433 0.950 . S
H457 C435 0.950 . S
C458 C459 1.349 . S
C458 C460 1.327 . S
C458 H483 0.950 . S
C459 C458 1.349 . S
C459 C475 1.349 . S
C460 C458 1.327 . S
C460 C479 1.429 . S
C460 H484 0.950 . S
C461 C478 1.574 . S
C461 C480 1.368 . S
C461 H485 0.927 1_545 S
H462 C466 0.949 . S
C463 C464 1.349 1_565 S
C463 C465 1.327 . S
C463 H486 0.950 . S
C464 C463 1.349 1_545 S
C464 C476 1.349 . S
C465 C463 1.327 . S
C465 C481 1.429 1_565 S
C465 H487 0.950 . S
C466 H462 0.949 . S
C466 C474 1.574 . S
C466 C482 1.368 . S
H467 C475 0.950 . S
H468 C473 0.950 . S
H469 C474 0.949 . S
H470 C476 0.950 . S
H471 C477 0.950 . S
H472 C478 0.949 1_565 S
C473 H468 0.950 . S
C473 C475 1.327 . S
C473 C479 1.429 . S
C474 C466 1.574 . S
C474 H469 0.949 . S
C474 C480 1.368 . S
C475 C459 1.349 . S
C475 H467 0.950 . S
C475 C473 1.327 . S
C476 C464 1.349 . S
C476 H470 0.950 . S
C476 C477 1.327 . S
C477 H471 0.950 . S
C477 C476 1.327 . S
C477 C481 1.429 . S
C478 C461 1.574 . S
C478 H472 0.949 1_545 S
C478 C482 1.368 . S
C479 C460 1.429 . S
C479 C473 1.429 . S
C479 C480 1.523 . S
C480 C461 1.368 . S
C480 C474 1.368 . S
C480 C479 1.523 . S
C481 C465 1.429 1_545 S
C481 C477 1.429 . S
C481 C482 1.523 . S
C482 C466 1.368 . S
C482 C478 1.368 . S
C482 C481 1.523 . S
H483 C458 0.950 . S
H484 C460 0.950 . S
H485 C461 0.927 1_565 S
H486 C463 0.950 . S
H487 C465 0.950 . S
C488 C489 1.349 . S
C488 C490 1.327 . S
C488 H513 0.950 . S
C489 C488 1.349 . S
C489 C505 1.349 . S
C490 C488 1.327 . S
C490 C509 1.429 . S
C490 H514 0.950 . S
C491 C508 1.574 . S
C491 C510 1.368 . S
C491 H515 0.949 . S
H492 C496 0.949 . S
C493 C494 1.349 . S
C493 C495 1.327 . S
C493 H516 0.950 . S
C494 C493 1.349 . S
C494 C506 1.349 . S
C495 C493 1.327 . S
C495 C511 1.429 . S
C495 H517 0.950 . S
C496 H492 0.949 . S
C496 C504 1.574 . S
C496 C512 1.368 . S
H497 C505 0.950 . S
H498 C503 0.950 . S
H499 C504 0.949 . S
H500 C506 0.950 . S
H501 C507 0.950 . S
H502 C508 0.949 . S
C503 H498 0.950 . S
C503 C505 1.327 . S
C503 C509 1.429 . S
C504 C496 1.574 . S
C504 H499 0.949 . S
C504 C510 1.368 . S
C505 C489 1.349 . S
C505 H497 0.950 . S
C505 C503 1.327 . S
C506 C494 1.349 . S
C506 H500 0.950 . S
C506 C507 1.327 . S
C507 H501 0.950 . S
C507 C506 1.327 . S
C507 C511 1.429 . S
C508 C491 1.574 . S
C508 H502 0.949 . S
C508 C512 1.368 . S
C509 C490 1.429 . S
C509 C503 1.429 . S
C509 C510 1.523 . S
C510 C491 1.368 . S
C510 C504 1.368 . S
C510 C509 1.523 . S
C511 C495 1.429 . S
C511 C507 1.429 . S
C511 C512 1.523 . S
C512 C496 1.368 . S
C512 C508 1.368 . S
C512 C511 1.523 . S
H513 C488 0.950 . S
H514 C490 0.950 . S
H515 C491 0.949 . S
H516 C493 0.950 . S
H517 C495 0.950 . S
C518 C519 1.349 . S
C518 C520 1.327 . S
C518 H543 0.950 . S
C519 C518 1.349 . S
C519 C535 1.349 . S
C520 C518 1.327 . S
C520 C539 1.429 . S
C520 H544 0.950 . S
C521 C538 1.574 . S
C521 C540 1.368 . S
C521 H545 0.949 . S
H522 C526 0.949 . S
C523 C524 1.349 . S
C523 C525 1.327 . S
C523 H546 0.950 . S
C524 C523 1.349 . S
C524 C536 1.349 . S
C525 C523 1.327 . S
C525 C541 1.429 . S
C525 H547 0.950 . S
C526 H522 0.949 . S
C526 C534 1.574 . S
C526 C542 1.368 . S
H527 C535 0.950 . S
H528 C533 0.950 . S
H529 C534 0.949 . S
H530 C536 0.950 . S
H531 C537 0.950 . S
H532 C538 0.949 . S
C533 H528 0.950 . S
C533 C535 1.327 . S
C533 C539 1.429 . S
C534 C526 1.574 . S
C534 H529 0.949 . S
C534 C540 1.368 . S
C535 C519 1.349 . S
C535 H527 0.950 . S
C535 C533 1.327 . S
C536 C524 1.349 . S
C536 H530 0.950 . S
C536 C537 1.327 . S
C537 H531 0.950 . S
C537 C536 1.327 . S
C537 C541 1.429 . S
C538 C521 1.574 . S
C538 H532 0.949 . S
C538 C542 1.368 . S
C539 C520 1.429 . S
C539 C533 1.429 . S
C539 C540 1.523 . S
C540 C521 1.368 . S
C540 C534 1.368 . S
C540 C539 1.523 . S
C541 C525 1.429 . S
C541 C537 1.429 . S
C541 C542 1.523 . S
C542 C526 1.368 . S
C542 C538 1.368 . S
C542 C541 1.523 . S
H543 C518 0.950 . S
H544 C520 0.950 . S
H545 C521 0.949 . S
H546 C523 0.950 . S
H547 C525 0.950 . S
C548 C549 1.349 1_556 S
C548 C550 1.327 . S
C548 H573 0.950 . S
C549 C548 1.349 1_554 S
C549 C565 1.349 . S
C550 C548 1.327 . S
C550 C569 1.429 . S
C550 H574 0.950 . S
C551 C568 1.567 1_655 S
C551 C570 1.389 . S
C551 H575 0.938 1_656 S
H552 C556 0.949 . S
C553 C554 1.349 . S
C553 C555 1.327 . S
C553 H576 0.950 . S
C554 C553 1.349 . S
C554 C566 1.349 1_455 S
C555 C553 1.327 . S
C555 C571 1.438 . S
C555 H577 0.950 . S
C556 H552 0.949 . S
C556 C564 1.574 . S
C556 C572 1.368 . S
H557 C565 0.950 . S
H558 C563 0.950 . S
H559 C564 0.949 . S
H560 C566 0.950 . S
H561 C567 0.950 . S
H562 C568 0.949 . S
C563 H558 0.950 . S
C563 C565 1.327 . S
C563 C569 1.429 1_554 S
C564 C556 1.574 . S
C564 H559 0.949 . S
C564 C570 1.368 . S
C565 C549 1.349 . S
C565 H557 0.950 . S
C565 C563 1.327 . S
C566 C554 1.349 1_655 S
C566 H560 0.950 . S
C566 C567 1.327 . S
C567 H561 0.950 . S
C567 C566 1.327 . S
C567 C571 1.423 1_655 S
C568 C551 1.567 1_455 S
C568 H562 0.949 . S
C568 C572 1.368 1_455 S
C569 C550 1.429 . S
C569 C563 1.429 1_556 S
C569 C570 1.523 . S
C570 C551 1.389 . S
C570 C564 1.368 . S
C570 C569 1.523 . S
C571 C555 1.438 . S
C571 C567 1.423 1_455 S
C571 C572 1.519 1_455 S
C572 C556 1.368 . S
C572 C568 1.368 1_655 S
C572 C571 1.519 1_655 S
H573 C548 0.950 . S
H574 C550 0.950 . S
H575 C551 0.938 1_454 S
H576 C553 0.950 . S
H577 C555 0.950 . S
C578 C579 1.349 . S
C578 C580 1.325 1_554 S
C578 H603 0.950 . S
C579 C578 1.349 . S
C579 C595 1.349 . S
C580 C578 1.325 1_556 S
C580 C599 1.429 . S
C580 H604 0.951 . S
C581 C598 1.574 . S
C581 C600 1.368 1_545 S
C581 H605 0.949 . S
H582 C586 0.949 . S
C583 C584 1.349 . S
C583 C585 1.327 . S
C583 H606 0.950 . S
C584 C583 1.349 . S
C584 C596 1.349 1_545 S
C585 C583 1.327 . S
C585 C601 1.449 . S
C585 H607 0.950 . S
C586 H582 0.949 . S
C586 C594 1.574 . S
C586 C602 1.368 . S
H587 C595 0.950 1_545 S
H588 C593 0.950 1_545 S
H589 C594 0.949 . S
H590 C596 0.950 . S
H591 C597 0.950 . S
H592 C598 0.949 . S
C593 H588 0.950 1_565 S
C593 C595 1.327 . S
C593 C599 1.429 1_554 S
C594 C586 1.574 . S
C594 H589 0.949 . S
C594 C600 1.368 . S
C595 C579 1.349 . S
C595 H587 0.950 1_565 S
C595 C593 1.327 . S
C596 C584 1.349 1_565 S
C596 H590 0.950 . S
C596 C597 1.327 . S
C597 H591 0.950 . S
C597 C596 1.327 . S
C597 C601 1.413 1_565 S
C598 C581 1.574 . S
C598 H592 0.949 . S
C598 C602 1.368 1_545 S
C599 C580 1.429 . S
C599 C593 1.429 1_556 S
C599 C600 1.523 . S
C600 C581 1.368 1_565 S
C600 C594 1.368 . S
C600 C599 1.523 . S
C601 C585 1.449 . S
C601 C597 1.413 1_545 S
C601 C602 1.518 1_545 S
C602 C586 1.368 . S
C602 C598 1.368 1_565 S
C602 C601 1.518 1_565 S
H603 C578 0.950 . S
H604 C580 0.951 . S
H605 C581 0.949 . S
H606 C583 0.950 . S
H607 C585 0.950 . S
C608 C609 1.349 1_556 S
C608 C610 1.327 . S
C608 H633 0.950 . S
C609 C608 1.349 1_554 S
C609 C625 1.349 . S
C610 C608 1.327 . S
C610 C629 1.429 . S
C610 H634 0.950 . S
C611 C628 1.574 . S
C611 C630 1.368 . S
C611 H635 0.949 1_556 S
H612 C616 0.949 . S
C613 C614 1.349 . S
C613 C615 1.327 . S
C613 H636 0.950 . S
C614 C613 1.349 . S
C614 C626 1.349 . S
C615 C613 1.327 . S
C615 C631 1.429 . S
C615 H637 0.950 . S
C616 H612 0.949 . S
C616 C624 1.574 . S
C616 C632 1.368 . S
H617 C625 0.950 . S
H618 C623 0.950 . S
H619 C624 0.949 . S
H620 C626 0.950 . S
H621 C627 0.950 . S
H622 C628 0.949 . S
C623 H618 0.950 . S
C623 C625 1.327 . S
C623 C629 1.429 1_554 S
C624 C616 1.574 . S
C624 H619 0.949 . S
C624 C630 1.368 . S
C625 C609 1.349 . S
C625 H617 0.950 . S
C625 C623 1.327 . S
C626 C614 1.349 . S
C626 H620 0.950 . S
C626 C627 1.327 . S
C627 H621 0.950 . S
C627 C626 1.327 . S
C627 C631 1.429 . S
C628 C611 1.574 . S
C628 H622 0.949 . S
C628 C632 1.368 . S
C629 C610 1.429 . S
C629 C623 1.429 1_556 S
C629 C630 1.523 . S
C630 C611 1.368 . S
C630 C624 1.368 . S
C630 C629 1.523 . S
C631 C615 1.429 . S
C631 C627 1.429 . S
C631 C632 1.523 . S
C632 C616 1.368 . S
C632 C628 1.368 . S
C632 C631 1.523 . S
H633 C608 0.950 . S
H634 C610 0.950 . S
H635 C611 0.949 1_554 S
H636 C613 0.950 . S
H637 C615 0.950 . S
C638 C639 1.349 . S
C638 C640 1.327 . S
C638 H663 0.950 . S
C639 C638 1.349 . S
C639 C655 1.349 . S
C640 C638 1.327 . S
C640 C659 1.429 1_554 S
C640 H664 0.950 . S
C641 C658 1.574 . S
C641 C660 1.368 . S
C641 H665 0.949 . S
H642 C646 0.949 . S
C643 C644 1.349 . S
C643 C645 1.327 . S
C643 H666 0.950 . S
C644 C643 1.349 . S
C644 C656 1.349 . S
C645 C643 1.327 . S
C645 C661 1.429 . S
C645 H667 0.950 . S
C646 H642 0.949 . S
C646 C654 1.574 . S
C646 C662 1.368 . S
H647 C655 0.950 . S
H648 C653 0.950 . S
H649 C654 0.949 . S
H650 C656 0.950 . S
H651 C657 0.950 . S
H652 C658 0.949 . S
C653 H648 0.950 . S
C653 C655 1.327 1_556 S
C653 C659 1.429 . S
C654 C646 1.574 . S
C654 H649 0.949 . S
C654 C660 1.368 . S
C655 C639 1.349 . S
C655 H647 0.950 . S
C655 C653 1.327 1_554 S
C656 C644 1.349 . S
C656 H650 0.950 . S
C656 C657 1.327 . S
C657 H651 0.950 . S
C657 C656 1.327 . S
C657 C661 1.429 . S
C658 C641 1.574 . S
C658 H652 0.949 . S
C658 C662 1.368 . S
C659 C640 1.429 1_556 S
C659 C653 1.429 . S
C659 C660 1.523 . S
C660 C641 1.368 . S
C660 C654 1.368 . S
C660 C659 1.523 . S
C661 C645 1.429 . S
C661 C657 1.429 . S
C661 C662 1.523 . S
C662 C646 1.368 . S
C662 C658 1.368 . S
C662 C661 1.523 . S
H663 C638 0.950 . S
H664 C640 0.950 . S
H665 C641 0.949 . S
H666 C643 0.950 . S
H667 C645 0.950 . S
C668 C669 1.349 . S
C668 C670 1.327 . S
C668 H693 0.950 . S
C669 C668 1.349 . S
C669 C685 1.349 . S
C670 C668 1.327 . S
C670 C689 1.429 . S
C670 H694 0.950 . S
C671 C688 1.574 1_554 S
C671 C690 1.368 . S
C671 H695 0.949 1_554 S
H672 C676 0.949 . S
C673 C674 1.349 . S
C673 C675 1.327 . S
C673 H696 0.950 . S
C674 C673 1.349 . S
C674 C686 1.349 . S
C675 C673 1.327 . S
C675 C691 1.429 . S
C675 H697 0.950 . S
C676 H672 0.949 . S
C676 C684 1.574 . S
C676 C692 1.368 1_554 S
H677 C685 0.950 . S
H678 C683 0.950 . S
H679 C684 0.949 . S
H680 C686 0.950 . S
H681 C687 0.950 1_554 S
H682 C688 0.949 . S
C683 H678 0.950 . S
C683 C685 1.327 . S
C683 C689 1.429 . S
C684 C676 1.574 . S
C684 H679 0.949 . S
C684 C690 1.368 . S
C685 C669 1.349 . S
C685 H677 0.950 . S
C685 C683 1.327 . S
C686 C674 1.349 . S
C686 H680 0.950 . S
C686 C687 1.327 . S
C687 H681 0.950 1_556 S
C687 C686 1.327 . S
C687 C691 1.429 . S
C688 C671 1.574 1_556 S
C688 H682 0.949 . S
C688 C692 1.368 . S
C689 C670 1.429 . S
C689 C683 1.429 . S
C689 C690 1.523 . S
C690 C671 1.368 . S
C690 C684 1.368 . S
C690 C689 1.523 . S
C691 C675 1.429 . S
C691 C687 1.429 . S
C691 C692 1.523 . S
C692 C676 1.368 1_556 S
C692 C688 1.368 . S
C692 C691 1.523 . S
H693 C668 0.950 . S
H694 C670 0.950 . S
H695 C671 0.949 1_556 S
H696 C673 0.950 . S
H697 C675 0.950 . S
C698 C699 1.349 . S
C698 C700 1.327 . S
C698 H723 0.950 . S
C699 C698 1.349 . S
C699 C715 1.349 . S
C700 C698 1.327 . S
C700 C719 1.429 . S
C700 H724 0.950 . S
C701 C718 1.574 1_554 S
C701 C720 1.368 . S
C701 H725 0.949 1_554 S
H702 C706 0.949 . S
C703 C704 1.349 . S
C703 C705 1.327 . S
C703 H726 0.950 . S
C704 C703 1.349 . S
C704 C716 1.349 . S
C705 C703 1.327 . S
C705 C721 1.429 . S
C705 H727 0.950 . S
C706 H702 0.949 . S
C706 C714 1.574 . S
C706 C722 1.368 1_554 S
H707 C715 0.950 . S
H708 C713 0.950 . S
H709 C714 0.949 . S
H710 C716 0.950 . S
H711 C717 0.950 1_554 S
H712 C718 0.949 . S
C713 H708 0.950 . S
C713 C715 1.327 . S
C713 C719 1.429 . S
C714 C706 1.574 . S
C714 H709 0.949 . S
C714 C720 1.368 . S
C715 C699 1.349 . S
C715 H707 0.950 . S
C715 C713 1.327 . S
C716 C704 1.349 . S
C716 H710 0.950 . S
C716 C717 1.327 . S
C717 H711 0.950 1_556 S
C717 C716 1.327 . S
C717 C721 1.429 . S
C718 C701 1.574 1_556 S
C718 H712 0.949 . S
C718 C722 1.368 . S
C719 C700 1.429 . S
C719 C713 1.429 . S
C719 C720 1.523 . S
C720 C701 1.368 . S
C720 C714 1.368 . S
C720 C719 1.523 . S
C721 C705 1.429 . S
C721 C717 1.429 . S
C721 C722 1.523 . S
C722 C706 1.368 1_556 S
C722 C718 1.368 . S
C722 C721 1.523 . S
H723 C698 0.950 . S
H724 C700 0.950 . S
H725 C701 0.949 1_556 S
H726 C703 0.950 . S
H727 C705 0.950 . S
C728 C729 1.349 . S
C728 C730 1.327 . S
C728 H753 0.950 . S
C729 C728 1.349 . S
C729 C745 1.349 . S
C730 C728 1.327 . S
C730 C749 1.429 . S
C730 H754 0.950 . S
C731 C748 1.574 . S
C731 C750 1.368 . S
C731 H755 0.949 . S
H732 C736 0.949 . S
C733 C734 1.349 . S
C733 C735 1.327 . S
C733 H756 0.950 . S
C734 C733 1.349 . S
C734 C746 1.349 . S
C735 C733 1.327 . S
C735 C751 1.429 . S
C735 H757 0.950 1_556 S
C736 H732 0.949 . S
C736 C744 1.574 1_556 S
C736 C752 1.368 . S
H737 C745 0.950 . S
H738 C743 0.950 . S
H739 C744 0.949 1_556 S
H740 C746 0.950 . S
H741 C747 0.950 . S
H742 C748 0.949 . S
C743 H738 0.950 . S
C743 C745 1.327 . S
C743 C749 1.429 . S
C744 C736 1.574 1_554 S
C744 H739 0.949 1_554 S
C744 C750 1.368 . S
C745 C729 1.349 . S
C745 H737 0.950 . S
C745 C743 1.327 . S
C746 C734 1.349 . S
C746 H740 0.950 . S
C746 C747 1.327 . S
C747 H741 0.950 . S
C747 C746 1.327 . S
C747 C751 1.429 . S
C748 C731 1.574 . S
C748 H742 0.949 . S
C748 C752 1.368 1_554 S
C749 C730 1.429 . S
C749 C743 1.429 . S
C749 C750 1.523 . S
C750 C731 1.368 . S
C750 C744 1.368 . S
C750 C749 1.523 . S
C751 C735 1.429 . S
C751 C747 1.429 . S
C751 C752 1.523 . S
C752 C736 1.368 . S
C752 C748 1.368 1_556 S
C752 C751 1.523 . S
H753 C728 0.950 . S
H754 C730 0.950 . S
H755 C731 0.949 . S
H756 C733 0.950 . S
H757 C735 0.950 1_554 S
C758 C759 1.349 . S
C758 C760 1.327 . S
C758 H783 0.950 . S
C759 C758 1.349 . S
C759 C775 1.349 . S
C760 C758 1.327 . S
C760 C779 1.429 . S
C760 H784 0.950 . S
C761 C778 1.574 . S
C761 C780 1.368 . S
C761 H785 0.949 . S
H762 C766 0.949 . S
C763 C764 1.349 . S
C763 C765 1.327 . S
C763 H786 0.950 . S
C764 C763 1.349 . S
C764 C776 1.349 . S
C765 C763 1.327 . S
C765 C781 1.429 . S
C765 H787 0.950 . S
C766 H762 0.949 . S
C766 C774 1.574 . S
C766 C782 1.368 1_554 S
H767 C775 0.950 . S
H768 C773 0.950 . S
H769 C774 0.949 . S
H770 C776 0.950 . S
H771 C777 0.950 . S
H772 C778 0.949 1_556 S
C773 H768 0.950 . S
C773 C775 1.327 . S
C773 C779 1.429 . S
C774 C766 1.574 . S
C774 H769 0.949 . S
C774 C780 1.368 . S
C775 C759 1.349 . S
C775 H767 0.950 . S
C775 C773 1.327 . S
C776 C764 1.349 . S
C776 H770 0.950 . S
C776 C777 1.327 . S
C777 H771 0.950 . S
C777 C776 1.327 . S
C777 C781 1.429 . S
C778 C761 1.574 . S
C778 H772 0.949 1_554 S
C778 C782 1.368 1_554 S
C779 C760 1.429 . S
C779 C773 1.429 . S
C779 C780 1.523 . S
C780 C761 1.368 . S
C780 C774 1.368 . S
C780 C779 1.523 . S
C781 C765 1.429 . S
C781 C777 1.429 . S
C781 C782 1.523 . S
C782 C766 1.368 1_556 S
C782 C778 1.368 1_556 S
C782 C781 1.523 . S
H783 C758 0.950 . S
H784 C760 0.950 . S
H785 C761 0.949 . S
H786 C763 0.950 . S
H787 C765 0.950 . S
C788 C789 1.349 . S
C788 C790 1.327 . S
C788 H813 0.950 . S
C789 C788 1.349 . S
C789 C805 1.349 . S
C790 C788 1.327 . S
C790 C809 1.429 . S
C790 H814 0.950 1_655 S
C791 C808 1.574 . S
C791 C810 1.368 . S
C791 H815 0.949 . S
H792 C796 0.949 1_455 S
C793 C794 1.349 . S
C793 C795 1.327 . S
C793 H816 0.950 . S
C794 C793 1.349 . S
C794 C806 1.349 1_655 S
C795 C793 1.327 . S
C795 C811 1.429 . S
C795 H817 0.950 . S
C796 H792 0.949 1_655 S
C796 C804 1.574 . S
C796 C812 1.368 . S
H797 C805 0.950 . S
H798 C803 0.950 . S
H799 C804 0.949 1_455 S
H800 C806 0.950 . S
H801 C807 0.950 . S
H802 C808 0.949 . S
C803 H798 0.950 . S
C803 C805 1.327 . S
C803 C809 1.429 . S
C804 C796 1.574 . S
C804 H799 0.949 1_655 S
C804 C810 1.368 . S
C805 C789 1.349 . S
C805 H797 0.950 . S
C805 C803 1.327 . S
C806 C794 1.349 1_455 S
C806 H800 0.950 . S
C806 C807 1.327 . S
C807 H801 0.950 . S
C807 C806 1.327 . S
C807 C811 1.429 1_455 S
C808 C791 1.574 . S
C808 H802 0.949 . S
C808 C812 1.368 . S
C809 C790 1.429 . S
C809 C803 1.429 . S
C809 C810 1.523 . S
C810 C791 1.368 . S
C810 C804 1.368 . S
C810 C809 1.523 . S
C811 C795 1.429 . S
C811 C807 1.429 1_655 S
C811 C812 1.523 . S
C812 C796 1.368 . S
C812 C808 1.368 . S
C812 C811 1.523 . S
H813 C788 0.950 . S
H814 C790 0.950 1_455 S
H815 C791 0.949 . S
H816 C793 0.950 . S
H817 C795 0.950 . S
C818 C819 1.349 . S
C818 C820 1.327 . S
C818 H843 0.950 . S
C819 C818 1.349 . S
C819 C835 1.349 . S
C820 C818 1.327 . S
C820 C839 1.429 . S
C820 H844 0.950 . S
C821 C838 1.578 . S
C821 C840 1.368 . S
C821 H845 0.949 1_565 S
H822 C826 0.949 . S
C823 C824 1.349 1_545 S
C823 C825 1.327 . S
C823 H846 0.950 . S
C824 C823 1.349 1_565 S
C824 C836 1.349 . S
C825 C823 1.327 . S
C825 C841 1.429 1_545 S
C825 H847 0.950 . S
C826 H822 0.949 . S
C826 C834 1.574 . S
C826 C842 1.368 . S
H827 C835 0.950 . S
H828 C833 0.950 1_545 S
H829 C834 0.949 . S
H830 C836 0.950 . S
H831 C837 0.950 . S
H832 C838 0.919 1_545 S
C833 H828 0.950 1_565 S
C833 C835 1.327 . S
C833 C839 1.429 . S
C834 C826 1.574 . S
C834 H829 0.949 . S
C834 C840 1.368 . S
C835 C819 1.349 . S
C835 H827 0.950 . S
C835 C833 1.327 . S
C836 C824 1.349 . S
C836 H830 0.950 . S
C836 C837 1.327 . S
C837 H831 0.950 . S
C837 C836 1.327 . S
C837 C841 1.429 . S
C838 C821 1.578 . S
C838 H832 0.919 1_565 S
C838 C842 1.398 . S
C839 C820 1.429 . S
C839 C833 1.429 . S
C839 C840 1.523 . S
C840 C821 1.368 . S
C840 C834 1.368 . S
C840 C839 1.523 . S
C841 C825 1.429 1_565 S
C841 C837 1.429 . S
C841 C842 1.523 . S
C842 C826 1.368 . S
C842 C838 1.398 . S
C842 C841 1.523 . S
H843 C818 0.950 . S
H844 C820 0.950 . S
H845 C821 0.949 1_545 S
H846 C823 0.950 . S
H847 C825 0.950 . S
C848 C849 1.349 . S
C848 C850 1.327 . S
C848 H873 0.950 . S
C849 C848 1.349 . S
C849 C865 1.349 . S
C850 C848 1.327 . S
C850 C869 1.429 . S
C850 H874 0.950 . S
C851 C868 1.574 . S
C851 C870 1.368 . S
C851 H875 0.949 . S
H852 C856 0.949 . S
C853 C854 1.349 . S
C853 C855 1.327 . S
C853 H876 0.950 . S
C854 C853 1.349 . S
C854 C866 1.349 . S
C855 C853 1.327 . S
C855 C871 1.429 . S
C855 H877 0.950 . S
C856 H852 0.949 . S
C856 C864 1.574 . S
C856 C872 1.368 . S
H857 C865 0.950 . S
H858 C863 0.950 . S
H859 C864 0.949 . S
H860 C866 0.950 . S
H861 C867 0.950 . S
H862 C868 0.949 . S
C863 H858 0.950 . S
C863 C865 1.327 . S
C863 C869 1.429 . S
C864 C856 1.574 . S
C864 H859 0.949 . S
C864 C870 1.368 . S
C865 C849 1.349 . S
C865 H857 0.950 . S
C865 C863 1.327 . S
C866 C854 1.349 . S
C866 H860 0.950 . S
C866 C867 1.327 . S
C867 H861 0.950 . S
C867 C866 1.327 . S
C867 C871 1.429 . S
C868 C851 1.574 . S
C868 H862 0.949 . S
C868 C872 1.368 . S
C869 C850 1.429 . S
C869 C863 1.429 . S
C869 C870 1.523 . S
C870 C851 1.368 . S
C870 C864 1.368 . S
C870 C869 1.523 . S
C871 C855 1.429 . S
C871 C867 1.429 . S
C871 C872 1.523 . S
C872 C856 1.368 . S
C872 C868 1.368 . S
C872 C871 1.523 . S
H873 C848 0.950 . S
H874 C850 0.950 . S
H875 C851 0.949 . S
H876 C853 0.950 . S
H877 C855 0.950 . S
C878 C879 1.349 . S
C878 C880 1.327 . S
C878 H903 0.950 . S
C879 C878 1.349 . S
C879 C895 1.349 . S
C880 C878 1.327 . S
C880 C899 1.429 . S
C880 H904 0.950 . S
C881 C898 1.574 . S
C881 C900 1.368 . S
C881 H905 0.949 . S
H882 C886 0.949 . S
C883 C884 1.349 . S
C883 C885 1.327 . S
C883 H906 0.950 . S
C884 C883 1.349 . S
C884 C896 1.349 . S
C885 C883 1.327 . S
C885 C901 1.429 . S
C885 H907 0.950 . S
C886 H882 0.949 . S
C886 C894 1.574 . S
C886 C902 1.368 . S
H887 C895 0.950 . S
H888 C893 0.950 . S
H889 C894 0.949 . S
H890 C896 0.950 . S
H891 C897 0.950 . S
H892 C898 0.949 . S
C893 H888 0.950 . S
C893 C895 1.327 . S
C893 C899 1.429 . S
C894 C886 1.574 . S
C894 H889 0.949 . S
C894 C900 1.368 . S
C895 C879 1.349 . S
C895 H887 0.950 . S
C895 C893 1.327 . S
C896 C884 1.349 . S
C896 H890 0.950 . S
C896 C897 1.327 . S
C897 H891 0.950 . S
C897 C896 1.327 . S
C897 C901 1.429 . S
C898 C881 1.574 . S
C898 H892 0.949 . S
C898 C902 1.368 . S
C899 C880 1.429 . S
C899 C893 1.429 . S
C899 C900 1.523 . S
C900 C881 1.368 . S
C900 C894 1.368 . S
C900 C899 1.523 . S
C901 C885 1.429 . S
C901 C897 1.429 . S
C901 C902 1.523 . S
C902 C886 1.368 . S
C902 C898 1.368 . S
C902 C901 1.523 . S
H903 C878 0.950 . S
H904 C880 0.950 . S
H905 C881 0.949 . S
H906 C883 0.950 . S
H907 C885 0.950 . S
C189 N80 1.584 . S
C194 C120 1.405 . S
C224 C138 1.406 . S
C219 N93 1.584 . S
C254 C159 1.406 . S
C249 N54 1.584 . S
C284 C183 1.405 . S
C279 N67 1.584 . S
C314 C117 1.339 . S
C309 N28 1.515 . S
C339 N41 1.515 . S
C344 C141 1.339 . S
C369 N2 1.514 . S
C374 C162 1.338 . S
C399 N15 1.515 . S
C404 C180 1.371 . S
C434 C122 0.427 . S
C429 N70 0.345 . S
C464 C140 0.427 . S
C459 N83 0.345 . S
C494 C161 0.427 . S
C489 N96 0.345 . S
C519 N57 0.345 . S
C524 C185 0.427 . S
C549 N18 0.451 . S
C554 C121 0.479 . S
C584 C139 0.479 . S
C579 N31 0.451 . S
C614 C160 0.479 . S
C609 N44 0.451 . S
C639 N5 0.451 . S
C644 C184 0.479 . S
C669 N66 1.628 . S
C674 C118 1.548 . S
C699 N79 1.628 . S
C704 C142 1.548 . S
C734 C163 1.548 . S
C729 N92 1.628 . S
C764 C181 1.548 . S
C759 N53 1.628 . S
C789 N14 1.490 . S
C794 C119 1.406 . S
C824 C143 1.403 . S
C819 N27 1.490 . S
C854 C164 1.402 . S
C849 N40 1.489 . S
C879 N1 1.490 . S
C884 C182 1.403 . S
