# Generated by pormake.
# Topology tsx, (6,3)-cn, num edge types: 1
# Building blocks:
#     Node 0, Type 0, BuildingBlock: MIDCAF_clean_sbu_0, # of connection points: 6
#     Node 1, Type 0, BuildingBlock: MIDCAF_clean_sbu_0, # of connection points: 6
#     Node 2, Type 1, BuildingBlock: MIDCAF_clean_linker_0, # of connection points: 3
#     Node 3, Type 1, BuildingBlock: MIDCAF_clean_linker_0, # of connection points: 3
#     Node 4, Type 1, BuildingBlock: MIDCAF_clean_linker_0, # of connection points: 3
#     Node 5, Type 1, BuildingBlock: MIDCAF_clean_linker_0, # of connection points: 3
#     Edge 6, Type (0, 1), BuildingBlock: UVAHIK_clean_linker_0, # of connection points: 2
#     Edge 7, Type (0, 1), BuildingBlock: UVAHIK_clean_linker_0, # of connection points: 2
#     Edge 8, Type (0, 1), BuildingBlock: UVAHIK_clean_linker_0, # of connection points: 2
#     Edge 9, Type (0, 1), BuildingBlock: UVAHIK_clean_linker_0, # of connection points: 2
#     Edge 10, Type (0, 1), BuildingBlock: UVAHIK_clean_linker_0, # of connection points: 2
#     Edge 11, Type (0, 1), BuildingBlock: UVAHIK_clean_linker_0, # of connection points: 2
#     Edge 12, Type (0, 1), BuildingBlock: UVAHIK_clean_linker_0, # of connection points: 2
#     Edge 13, Type (0, 1), BuildingBlock: UVAHIK_clean_linker_0, # of connection points: 2
#     Edge 14, Type (0, 1), BuildingBlock: UVAHIK_clean_linker_0, # of connection points: 2
#     Edge 15, Type (0, 1), BuildingBlock: UVAHIK_clean_linker_0, # of connection points: 2
#     Edge 16, Type (0, 1), BuildingBlock: UVAHIK_clean_linker_0, # of connection points: 2
#     Edge 17, Type (0, 1), BuildingBlock: UVAHIK_clean_linker_0, # of connection points: 2
# Relax obj value: 0.119
# Max RMSD: 0.182
# Mean RMSD: 0.113
data_MOF--net-tsx--node1-MIDCAF_clean_sbu_0--node2-MIDCAF_clean_linker_0--edge1-UVAHIK_clean_linker_0
_symmetry_space_group_name_H-M    P1
_symmetry_Int_Tables_number       1
_symmetry_cell_setting            triclinic
loop_
_symmetry_equiv_pos_as_xyz
'x, y, z'
_cell_length_a     29.375126
_cell_length_b     30.683635
_cell_length_c     57.765494
_cell_angle_alpha  90.554044
_cell_angle_beta   94.771116
_cell_angle_gamma 89.608144
loop_
_atom_site_label
_atom_site_type_symbol
_atom_site_fract_x
_atom_site_fract_y
_atom_site_fract_z
_atom_type_partial_charge
Zn0 Zn 0.95608 0.00738 0.98471 0.0
Zn1 Zn 0.06293 0.95175 0.03778 0.0
Zn2 Zn 0.02083 0.98989 0.0108 0.0
C3 C 0.11548 0.0185 0.0187 0.0
C4 C 0.08731 0.91777 0.99804 0.0
O5 O 0.98223 0.93203 0.01352 0.0
O6 O 0.92045 0.955 0.99308 0.0
C7 C 0.96784 0.07658 0.01739 0.0
O8 O 0.08862 0.00578 0.00116 0.0
O9 O 0.10981 0.0024 0.03839 0.0
O10 O 0.07274 0.90104 0.01597 0.0
O11 O 0.07802 0.95816 0.99374 0.0
O12 O 0.94284 0.06448 -0.00034 0.0
O13 O 1.00091 0.0523 0.02561 0.0
O14 O 0.05719 -0.00163 0.97934 0.0
O15 O 0.993 0.0067 0.95682 0.0
C16 C 0.03616 0.00413 0.9591 0.0
O17 O 0.01923 0.02148 0.04519 0.0
O18 O 0.01538 0.95669 0.06072 0.0
C19 C 0.941 0.92623 0.0056 0.0
C20 C 0.01092 -0.00236 0.06255 0.0
Zn21 Zn 0.62921 0.50512 0.55391 0.0
Zn22 Zn 0.46587 0.4851 0.49073 0.0
Zn23 Zn 0.5407 0.50075 0.51236 0.0
C24 C 0.52572 0.50638 0.45767 0.0
C25 C 0.45 0.55557 0.51912 0.0
O26 O 0.52485 0.53533 0.54504 0.0
O27 O 0.58221 0.52806 0.57305 0.0
C28 C 0.6103 0.41976 0.53416 0.0
O29 O 0.54931 0.52104 0.47587 0.0
O30 O 0.4893 0.48576 0.45972 0.0
O31 O 0.43149 0.53594 0.50152 0.0
O32 O 0.49024 0.54409 0.52755 0.0
O33 O 0.6343 0.44148 0.5494 0.0
O34 O 0.57684 0.4376 0.52147 0.0
O35 O 0.58347 0.54028 0.4911 0.0
O36 O 0.62243 0.53302 0.52399 0.0
C37 C 0.61811 0.55111 0.50465 0.0
O38 O 0.52742 0.43001 0.51564 0.0
O39 O 0.45414 0.42801 0.50359 0.0
C40 C 0.54229 0.54083 0.56621 0.0
C41 C 0.48937 0.40931 0.51273 0.0
C42 C 0.95573 0.15432 0.42671 0.0
C43 C 0.94513 0.14422 0.44931 0.0
C44 C 0.97268 0.11372 0.46212 0.0
C45 C 0.00878 0.09248 0.45213 0.0
H46 H 0.1358 0.01956 0.46473 0.0
H47 H 0.18362 0.9648 0.48582 0.0
H48 H 0.20201 0.8977 0.42124 0.0
H49 H 0.15483 0.95216 0.40013 0.0
H50 H 0.11536 0.99474 0.35154 0.0
H51 H 0.10625 -0.0029 0.30914 0.0
H52 H 0.03835 0.12207 0.31272 0.0
H53 H 0.04654 0.11932 0.35483 0.0
H54 H 0.99796 0.14138 0.39913 0.0
H55 H 0.93598 0.17841 0.41656 0.0
H56 H 0.96538 0.10513 0.47956 0.0
H57 H 0.02842 0.0682 0.46219 0.0
N58 N 0.08142 0.04738 0.42922 0.0
N59 N 0.11105 0.02532 0.39433 0.0
N60 N 0.05393 0.07891 0.39397 0.0
C61 C 0.11089 0.02216 0.41784 0.0
C62 C 0.08284 0.05393 0.38231 0.0
C63 C 0.05274 0.07587 0.41733 0.0
C64 C 0.14123 0.99017 0.43073 0.0
C65 C 0.15018 0.99321 0.45502 0.0
C66 C 0.17775 0.96206 0.4671 0.0
C67 C 0.19621 0.92691 0.45517 0.0
C68 C 0.18781 0.92424 0.4309 0.0
C69 C 0.16092 0.95561 0.4188 0.0
C70 C 0.08141 0.05668 0.35662 0.0
C71 C 0.099 0.02295 0.34325 0.0
C72 C 0.09384 0.02435 0.31893 0.0
C73 C 0.0711 0.05957 0.30746 0.0
C74 C 0.05508 0.09396 0.32091 0.0
C75 C 0.06002 0.09247 0.34513 0.0
C76 C 0.01802 0.10131 0.42913 0.0
C77 C 0.99158 0.13316 0.41676 0.0
C78 C 0.88688 0.92696 0.58567 0.0
C79 C 0.893 0.91851 0.56217 0.0
C80 C 0.92797 0.94055 0.5519 0.0
C81 C 0.95649 0.96981 0.56494 0.0
H82 H 0.05711 0.07044 0.56052 0.0
H83 H 0.11744 0.1137 0.54522 0.0
H84 H 0.16513 0.15201 0.61522 0.0
H85 H 0.10479 0.11089 0.63022 0.0
H86 H 0.03238 0.09718 0.67128 0.0
H87 H 0.04042 0.09308 0.71342 0.0
H88 H 0.00407 0.9566 0.709 0.0
H89 H 0.99314 0.96188 0.66689 0.0
H90 H 0.90983 0.96101 0.61682 0.0
H91 H 0.86077 0.91021 0.59428 0.0
H92 H 0.93336 0.93513 0.53378 0.0
H93 H 0.98338 0.98581 0.55656 0.0
N94 N 0.01236 0.03304 0.59314 0.0
N95 N 0.0397 0.05839 0.63011 0.0
N96 N 0.98221 0.00586 0.62659 0.0
C97 C 0.04117 0.05921 0.60669 0.0
C98 C 0.01062 0.03187 0.64019 0.0
C99 C 0.98242 0.0065 0.60304 0.0
C100 C 0.07589 0.08692 0.59664 0.0
C101 C 0.08023 0.08851 0.57258 0.0
C102 C 0.11505 0.11312 0.56382 0.0
C103 C 0.14634 0.1366 0.57893 0.0
C104 C 0.14135 0.1353 0.6029 0.0
C105 C 0.10666 0.11115 0.61158 0.0
C106 C 0.01218 0.02985 0.66581 0.0
C107 C 0.02565 0.06645 0.67939 0.0
C108 C 0.03073 0.0639 0.7036 0.0
C109 C 0.02356 0.02433 0.71487 0.0
C110 C 0.00927 0.98788 0.70116 0.0
C111 C 1.00315 0.99076 0.67694 0.0
C112 C 0.95095 0.97742 0.5886 0.0
C113 C 0.91544 0.95591 0.59869 0.0
C114 C 0.49534 0.67982 0.92163 0.0
C115 C 0.48157 0.67421 0.9441 0.0
C116 C 0.4997 0.63899 0.95741 0.0
C117 C 0.52944 0.60898 0.94801 0.0
H118 H 0.62572 0.5061 0.96194 0.0
H119 H 0.67571 0.45462 0.98374 0.0
H120 H 0.72478 0.40721 0.91958 0.0
H121 H 0.67394 0.45732 0.89782 0.0
H122 H 0.60622 0.47812 0.84907 0.0
H123 H 0.59185 0.47586 0.80661 0.0
H124 H 0.53557 0.60614 0.80793 0.0
H125 H 0.55 0.60876 0.84976 0.0
H126 H 0.53333 0.65464 0.89458 0.0
H127 H 0.48172 0.70624 0.91079 0.0
H128 H 0.49005 0.6341 0.97489 0.0
H129 H 0.54166 0.58137 0.95835 0.0
N130 N 0.59315 0.54933 0.92586 0.0
N131 N 0.61145 0.51563 0.89099 0.0
N132 N 0.56349 0.5768 0.89003 0.0
C133 C 0.61579 0.51759 0.91467 0.0
C134 C 0.58523 0.54525 0.87858 0.0
C135 C 0.56708 0.57921 0.91352 0.0
C136 C 0.64562 0.48589 0.92807 0.0
C137 C 0.64702 0.48455 0.95247 0.0
C138 C 0.67594 0.45517 0.96501 0.0
C139 C 0.7043 0.42659 0.95347 0.0
C140 C 0.70282 0.42804 0.92908 0.0
C141 C 0.67375 0.45711 0.91656 0.0
C142 C 0.57922 0.54357 0.85287 0.0
C143 C 0.59114 0.50635 0.84024 0.0
C144 C 0.58266 0.50492 0.81598 0.0
C145 C 0.56274 0.54089 0.80399 0.0
C146 C 0.55151 0.57813 0.81664 0.0
C147 C 0.55956 0.57945 0.84071 0.0
C148 C 0.54111 0.61347 0.92505 0.0
C149 C 0.52466 0.64986 0.91224 0.0
C150 C 0.36122 0.414 0.08228 0.0
C151 C 0.37004 0.4021 0.05952 0.0
C152 C 0.40724 0.42078 0.04963 0.0
C153 C 0.4353 0.45062 0.06232 0.0
H154 H 0.53896 0.54017 0.05531 0.0
H155 H 0.5948 0.58489 0.03723 0.0
H156 H 0.61861 0.65885 0.10102 0.0
H157 H 0.56324 0.615 0.11896 0.0
H158 H 0.54439 0.57059 0.16437 0.0
H159 H 0.55232 0.57065 0.20641 0.0
H160 H 0.44453 0.47566 0.20689 0.0
H161 H 0.43715 0.47465 0.16445 0.0
H162 H 0.38218 0.45149 0.11268 0.0
H163 H 0.33305 0.39967 0.09043 0.0
H164 H 0.41469 0.41223 0.03209 0.0
H165 H 0.46395 0.46419 0.05424 0.0
N166 N 0.48649 0.51812 0.08799 0.0
N167 N 0.51531 0.54719 0.12378 0.0
N168 N 0.45843 0.49398 0.12257 0.0
C169 C 0.51512 0.54588 0.10032 0.0
C170 C 0.48735 0.52141 0.13511 0.0
C171 C 0.45784 0.49226 0.09897 0.0
C172 C 0.54678 0.57388 0.08862 0.0
C173 C 0.55585 0.56624 0.06538 0.0
C174 C 0.5879 0.59162 0.05505 0.0
C175 C 0.61083 0.62535 0.06772 0.0
C176 C 0.60099 0.63344 0.09074 0.0
C177 C 0.56946 0.60801 0.10107 0.0
C178 C 0.49014 0.5225 0.16089 0.0
C179 C 0.52211 0.54972 0.1733 0.0
C180 C 0.52654 0.55003 0.19752 0.0
C181 C 0.49904 0.52325 0.21006 0.0
C182 C 0.46664 0.49632 0.19773 0.0
C183 C 0.46223 0.49593 0.1734 0.0
C184 C 0.42709 0.46185 0.08529 0.0
C185 C 0.3896 0.44338 0.09509 0.0
C186 C 0.17611 0.06748 0.03644 0.0
C187 C 0.14897 0.05364 0.0166 0.0
C188 C 0.20067 0.10609 0.03622 0.0
C189 C 0.24907 0.18967 0.00142 0.0
H190 H 0.22359 0.26387 0.05362 0.0
C191 C 0.36263 0.33299 0.03616 0.0
C192 C 0.3418 0.36844 0.04678 0.0
C193 C 0.3364 0.29795 0.02717 0.0
C194 C 0.23057 0.24404 0.0387 0.0
H195 H 0.1292 0.06764 0.98038 0.0
H196 H 0.17297 0.13543 0.98001 0.0
H197 H 0.18571 0.19405 0.04826 0.0
H198 H 0.27709 0.397 0.05448 0.0
H199 H 0.23111 0.33613 0.0385 0.0
H200 H 0.29477 0.23972 0.99216 0.0
C201 C 0.1747 0.11629 0.99572 0.0
C202 C 0.20929 0.20375 0.03582 0.0
C203 C 0.14975 0.07754 0.99596 0.0
C204 C 0.29404 0.36965 0.04679 0.0
C205 C 0.26779 0.33483 0.03764 0.0
C206 C 0.27078 0.23013 0.0044 0.0
C207 C 0.19888 0.13166 0.01615 0.0
C208 C 0.21905 0.17576 0.01751 0.0
C209 C 0.28883 0.29785 0.02853 0.0
C210 C 0.26225 0.25743 0.02332 0.0
H211 H 0.17658 0.04969 0.05256 0.0
H212 H 0.21979 0.11685 0.05207 0.0
H213 H 0.25695 0.16867 0.98709 0.0
H214 H 0.39945 0.33116 0.03602 0.0
H215 H 0.35373 0.26985 0.02046 0.0
C216 C 0.1262 0.84833 0.98883 0.0
C217 C 0.12213 0.89363 0.98597 0.0
C218 C 0.16498 0.8262 0.98262 0.0
C219 C 0.26889 0.83276 0.95102 0.0
H220 H 0.31722 0.75383 -0.00077 0.0
C221 C 0.44431 0.7477 0.9476 0.0
C222 C 0.44526 0.70284 0.95244 0.0
C223 C 0.40668 0.77337 0.95239 0.0
C224 C 0.30405 0.77546 0.98552 0.0
H225 H 0.15373 0.95078 0.97259 0.0
H226 H 0.222 0.91188 0.96175 0.0
H227 H 0.24618 0.79297 0.00374 0.0
H228 H 0.40801 0.65012 0.96679 0.0
H229 H 0.34265 0.69483 0.9753 0.0
H230 H 0.32682 0.81485 0.93273 0.0
C231 C 0.19507 0.89358 0.96883 0.0
C232 C 0.26325 0.79782 0.98806 0.0
C233 C 0.15594 0.91582 0.97497 0.0
C234 C 0.4087 0.68466 0.96316 0.0
C235 C 0.37112 0.71032 0.96796 0.0
C236 C 0.3098 0.81025 0.94844 0.0
C237 C 0.20075 0.84885 0.97352 0.0
C238 C 0.24484 0.82625 0.97071 0.0
C239 C 0.36925 0.75477 0.9622 0.0
C240 C 0.32754 0.78096 0.96557 0.0
H241 H 0.1004 0.83027 0.99699 0.0
H242 H 0.16776 0.79151 0.98581 0.0
H243 H 0.25551 0.85438 0.93735 0.0
H244 H 0.47227 0.76279 0.93964 0.0
H245 H 0.40667 0.80768 0.94817 0.0
C246 C 0.9338 0.84638 0.01345 0.0
C247 C 0.91509 0.88865 0.0127 0.0
C248 C 0.90722 0.81113 0.01951 0.0
C249 C 0.81457 0.78405 0.05358 0.0
H250 H 0.77072 0.69898 0.00696 0.0
C251 C 0.64756 0.69668 0.06126 0.0
C252 C 0.64634 0.65141 0.05765 0.0
C253 C 0.68461 0.72076 0.05515 0.0
C254 C 0.7833 0.72199 0.02028 0.0
H255 H 0.85533 0.92786 0.01835 0.0
H256 H 0.80982 0.86683 0.02978 0.0
H257 H 0.83244 0.74885 -0.0011 0.0
H258 H 0.6815 0.5961 0.04355 0.0
H259 H 0.74668 0.63859 0.03266 0.0
H260 H 0.76511 0.75852 0.07478 0.0
C261 C 0.84437 0.8607 0.02524 0.0
C262 C 0.81861 0.75027 0.0157 0.0
C263 C 0.87027 0.89545 0.01863 0.0
C264 C 0.6816 0.63103 0.04646 0.0
C265 C 0.7189 0.65525 0.04032 0.0
C266 C 0.77969 0.75579 0.0582 0.0
C267 C 0.86244 0.81831 0.02558 0.0
C268 C 0.83331 0.78236 0.03206 0.0
C269 C 0.72135 0.70012 0.04532 0.0
C270 C 0.7625 0.72561 0.04128 0.0
H271 H 0.96836 0.84059 0.00887 0.0
H272 H 0.92158 0.77851 0.01968 0.0
H273 H 0.82564 0.80855 0.06644 0.0
H274 H 0.62036 0.71332 0.06943 0.0
H275 H 0.68493 0.75555 0.05855 0.0
C276 C 0.91507 0.1268 0.03539 0.0
C277 C 0.95823 0.11944 0.02734 0.0
C278 C 0.89657 0.16884 0.03554 0.0
C279 C 0.86337 0.26365 0.03336 0.0
H280 H 0.87034 0.3006 0.96972 0.0
C281 C 0.75908 0.40777 0.98799 0.0
C282 C 0.73575 0.39562 0.96663 0.0
C283 C 0.79058 0.37929 -0.00046 0.0
C284 C 0.86841 0.29097 0.98761 0.0
H285 H 0.01784 0.14999 0.01524 0.0
H286 H 0.98559 0.2238 0.01549 0.0
H287 H 0.92226 0.24437 0.98576 0.0
H288 H 0.72566 0.34289 0.94141 0.0
H289 H 0.78147 0.2941 0.96116 0.0
H290 H 0.80798 0.30952 0.03465 0.0
C291 C 0.96607 0.1972 0.02177 0.0
C292 C 0.8985 0.25915 0.99692 0.0
C293 C 0.98476 0.15511 0.02187 0.0
C294 C 0.74383 0.35391 0.95746 0.0
C295 C 0.77564 0.32583 0.96881 0.0
C296 C 0.83357 0.2961 0.0241 0.0
C297 C 0.92073 0.204 0.02723 0.0
C298 C 0.89549 0.24418 0.01967 0.0
C299 C 0.79973 0.33843 0.98977 0.0
C300 C 0.83494 0.30892 0.00089 0.0
H301 H 0.89383 0.09955 0.03932 0.0
H302 H 0.86152 0.17289 0.03974 0.0
H303 H 0.86024 0.25266 0.05092 0.0
H304 H 0.75406 0.43975 0.99549 0.0
H305 H 0.8088 0.38968 0.01571 0.0
C306 C 0.64006 0.62065 0.48504 0.0
C307 C 0.65056 0.5864 0.50058 0.0
C308 C 0.66778 0.65805 0.48579 0.0
C309 C 0.7812 0.69959 0.51123 0.0
H310 H 0.72082 0.81224 0.51057 0.0
C311 C 0.88385 0.85534 0.53407 0.0
C312 C 0.86421 0.88533 0.54893 0.0
C313 C 0.85782 0.82157 0.52339 0.0
C314 C 0.73821 0.781 0.51089 0.0
H315 H 0.69952 0.56369 0.52823 0.0
H316 H 0.74573 0.62789 0.52997 0.0
H317 H 0.67646 0.74688 0.50005 0.0
H318 H 0.80099 0.90453 0.56319 0.0
H319 H 0.756 0.84506 0.54517 0.0
H320 H 0.84215 0.73281 0.52354 0.0
C321 C 0.71727 0.62632 0.51681 0.0
C322 C 0.71285 0.74356 0.50449 0.0
C323 C 0.69029 0.58931 0.51589 0.0
C324 C 0.81743 0.88164 0.55213 0.0
C325 C 0.79142 0.84778 0.54151 0.0
C326 C 0.80633 0.73676 0.51783 0.0
C327 C 0.70626 0.66157 0.50207 0.0
C328 C 0.73386 0.70221 0.50513 0.0
C329 C 0.81147 0.81675 0.52735 0.0
C330 C 0.78511 0.77795 0.51815 0.0
H331 H 0.60948 0.61951 0.47322 0.0
H332 H 0.65855 0.68453 0.47403 0.0
H333 H 0.79881 0.66845 0.51158 0.0
H334 H 0.91982 0.85696 0.53131 0.0
H335 H 0.87433 0.79877 0.51232 0.0
C336 C 0.61648 0.35725 0.50623 0.0
C337 C 0.62722 0.37569 0.52836 0.0
C338 C 0.64301 0.32299 0.49825 0.0
C339 C 0.73824 0.24494 0.51601 0.0
H340 H 0.77366 0.26738 0.45409 0.0
C341 C 0.90613 0.17886 0.48224 0.0
C342 C 0.90453 0.16457 0.45898 0.0
C343 C 0.86807 0.19909 0.49089 0.0
C344 C 0.76375 0.26019 0.47128 0.0
H345 H 0.67092 0.36935 0.56037 0.0
H346 H 0.71711 0.31061 0.54646 0.0
H347 H 0.7116 0.30915 0.46887 0.0
H348 H 0.86089 0.15867 0.42691 0.0
H349 H 0.79491 0.19409 0.44192 0.0
H350 H 0.79177 0.19695 0.51858 0.0
C351 C 0.68842 0.32222 0.53515 0.0
C352 C 0.72789 0.28402 0.47975 0.0
C353 C 0.66189 0.35619 0.54313 0.0
C354 C 0.8637 0.17017 0.44476 0.0
C355 C 0.82578 0.19039 0.45337 0.0
C356 C 0.77435 0.22125 0.50756 0.0
C357 C 0.68072 0.30653 0.51223 0.0
C358 C 0.71498 0.27715 0.50234 0.0
C359 C 0.82758 0.20544 0.47647 0.0
C360 C 0.78785 0.22895 0.48519 0.0
H361 H 0.58995 0.37133 0.49441 0.0
H362 H 0.63539 0.31091 0.48069 0.0
H363 H 0.72892 0.23837 0.53337 0.0
H364 H 0.93715 0.17538 0.4936 0.0
H365 H 0.87075 0.21079 0.50869 0.0
C366 C 0.47156 0.33116 0.50749 0.0
C367 C 0.48275 0.36617 0.52264 0.0
C368 C 0.44423 0.29718 0.51434 0.0
C369 C 0.38155 0.25659 0.56432 0.0
H370 H 0.28925 0.22711 0.51476 0.0
C371 C 0.20087 0.19985 0.58142 0.0
C372 C 0.18524 0.16109 0.57024 0.0
C373 C 0.24044 0.22023 0.57524 0.0
C374 C 0.315 0.23468 0.52872 0.0
H375 H 0.4773 0.39176 0.55726 0.0
H376 H 0.42923 0.33346 0.56922 0.0
H377 H 0.35677 0.26717 0.50588 0.0
H378 H 0.19843 0.11476 0.54291 0.0
H379 H 0.26665 0.1516 0.53154 0.0
H380 H 0.33788 0.22609 0.58726 0.0
C381 C 0.44203 0.33104 0.55222 0.0
C382 C 0.35411 0.25736 0.52366 0.0
C383 C 0.4701 0.3645 0.54548 0.0
C384 C 0.20907 0.14465 0.55182 0.0
C385 C 0.24837 0.16554 0.54539 0.0
C386 C 0.34204 0.2346 0.56941 0.0
C387 C 0.42651 0.2982 0.53629 0.0
C388 C 0.38779 0.26921 0.54142 0.0
C389 C 0.26501 0.20296 0.55742 0.0
C390 C 0.3081 0.22392 0.55171 0.0
H391 H 0.48032 0.33215 0.48965 0.0
H392 H 0.43442 0.27178 0.50181 0.0
H393 H 0.40684 0.26423 0.57845 0.0
H394 H 0.18283 0.21433 0.5952 0.0
H395 H 0.2519 0.24961 0.58446 0.0
C396 C 0.37898 0.59645 0.52512 0.0
C397 C 0.42692 0.59498 0.52733 0.0
C398 C 0.35596 0.63634 0.5242 0.0
C399 C 0.35077 0.75209 0.53084 0.0
H400 H 0.30196 0.75122 0.46632 0.0
C401 C 0.25949 0.90171 0.48423 0.0
C402 C 0.22281 0.89198 0.46782 0.0
C403 C 0.28617 0.86811 0.49477 0.0
C404 C 0.31473 0.75198 0.48445 0.0
H405 H 0.48829 0.63369 0.53304 0.0
H406 H 0.44758 0.70407 0.53133 0.0
H407 H 0.34479 0.68866 0.48194 0.0
H408 H 0.18344 0.83974 0.45071 0.0
H409 H 0.22869 0.78144 0.46941 0.0
H410 H 0.3193 0.81521 0.53347 0.0
C411 C 0.42807 0.67418 0.53044 0.0
C412 C 0.33958 0.71623 0.49332 0.0
C413 C 0.45128 0.63397 0.53148 0.0
C414 C 0.21212 0.8482 0.46291 0.0
C415 C 0.23826 0.8148 0.47359 0.0
C416 C 0.32523 0.78804 0.52198 0.0
C417 C 0.38043 0.67549 0.52549 0.0
C418 C 0.35716 0.71558 0.51662 0.0
C419 C 0.27635 0.8242 0.48921 0.0
C420 C 0.30614 0.78795 0.49875 0.0
H421 H 0.35942 0.56685 0.52198 0.0
H422 H 0.3192 0.63663 0.52044 0.0
H423 H 0.36426 0.75223 0.54887 0.0
H424 H 0.26842 0.93527 0.4883 0.0
H425 H 0.31528 0.87656 0.50667 0.0
C426 C 0.98371 0.99041 0.10193 0.0
C427 C 0.00351 0.01636 0.08561 0.0
C428 C 0.98548 0.00296 0.12525 0.0
C429 C 0.98123 0.04221 0.17324 0.0
H430 H 0.1013 0.0787 0.19886 0.0
C431 C 0.02033 0.07537 0.2713 0.0
C432 C 0.06232 0.05989 0.28167 0.0
C433 C 0.01148 0.07544 0.24717 0.0
C434 C 0.06762 0.0684 0.19199 0.0
H435 H 0.0382 0.0772 0.08061 0.0
H436 H 0.04127 0.09941 0.12164 0.0
H437 H 0.08555 0.07137 0.15685 0.0
H438 H 0.12807 0.03258 0.27458 0.0
H439 H 0.11214 0.03159 0.23242 0.0
H440 H 0.96379 0.03739 0.20831 0.0
C441 C 0.0247 0.06909 0.11632 0.0
C442 C 0.05837 0.06484 0.16788 0.0
C443 C 0.02249 0.05666 0.09281 0.0
C444 C 0.09526 0.04444 0.26722 0.0
C445 C 0.08633 0.04441 0.24302 0.0
C446 C 0.99044 0.04579 0.1973 0.0
C447 C 0.00736 0.0417 0.13289 0.0
C448 C 0.01528 0.05101 0.15824 0.0
C449 C 0.04425 0.05979 0.2327 0.0
C450 C 0.03394 0.05833 0.20701 0.0
H451 H 0.96877 0.9592 0.09688 0.0
H452 H 0.97208 0.9809 0.1375 0.0
H453 H 0.9476 0.03175 0.16638 0.0
H454 H 0.99383 0.08689 0.28184 0.0
H455 H 0.97888 0.08789 0.23985 0.0
C456 C 0.07558 0.03925 0.92776 0.0
C457 C 0.0599 0.00131 0.93779 0.0
C458 C 0.08251 0.03976 0.90403 0.0
C459 C 0.0243 -0.00014 0.85301 0.0
H460 H 0.12789 0.02383 0.81788 0.0
C461 C 0.00578 0.99258 0.75324 0.0
C462 C 0.03173 0.02099 0.7407 0.0
C463 C 0.01387 0.98906 0.77733 0.0
C464 C 0.09838 0.01781 0.82739 0.0
H465 H 0.04184 0.93371 0.93173 0.0
H466 H 0.05352 0.93467 0.89029 0.0
H467 H 0.13846 0.02 0.86033 0.0
H468 H 0.08739 0.06755 0.74415 0.0
H469 H 0.0991 0.06376 0.78609 0.0
H470 H 0.98342 -0.00021 0.82078 0.0
C471 C 0.06108 0.96369 0.9007 0.0
C472 C 0.10468 0.01528 0.85168 0.0
C473 C 0.05473 0.96307 0.92436 0.0
C474 C 0.06591 0.04593 0.75308 0.0
C475 C 0.07333 0.04309 0.77725 0.0
C476 C 0.01776 0.0033 0.82891 0.0
C477 C 0.07308 0.0025 0.89017 0.0
C478 C 0.06771 0.00578 0.86458 0.0
C479 C 0.04744 0.01459 0.78977 0.0
C480 C 0.05474 0.01185 0.81564 0.0
H481 H 0.0787 0.06932 0.93773 0.0
H482 H 0.09137 0.07012 0.89616 0.0
H483 H 0.99513 0.9932 0.86272 0.0
H484 H 0.97874 0.97319 0.74454 0.0
H485 H 0.99374 0.966 0.78613 0.0
C486 C 0.52992 0.58962 0.59914 0.0
C487 C 0.51405 0.55522 0.58456 0.0
C488 C 0.51893 0.59145 0.62217 0.0
C489 C 0.50625 0.51256 0.66645 0.0
H490 H 0.49131 0.61357 0.70594 0.0
C491 C 0.53063 0.50433 0.76713 0.0
C492 C 0.55271 0.54008 0.77841 0.0
C493 C 0.51732 0.50578 0.74331 0.0
C494 C 0.49583 0.58505 0.69515 0.0
H495 H 0.47123 0.49807 0.58164 0.0
H496 H 0.452 0.50106 0.62206 0.0
H497 H 0.47686 0.62018 0.66389 0.0
H498 H 0.58029 0.60433 0.77346 0.0
H499 H 0.55817 0.60655 0.732 0.0
H500 H 0.52779 0.47795 0.69746 0.0
C501 C 0.47264 0.52674 0.61568 0.0
C502 C 0.48709 0.58882 0.67112 0.0
C503 C 0.483 0.52543 0.59249 0.0
C504 C 0.56261 0.5766 0.7653 0.0
C505 C 0.54959 0.57797 0.74156 0.0
C506 C 0.51543 0.50887 0.69048 0.0
C507 C 0.49259 0.55839 0.63102 0.0
C508 C 0.49319 0.55286 0.65649 0.0
C509 C 0.52607 0.54295 0.73031 0.0
C510 C 0.51149 0.54539 0.70507 0.0
H511 H 0.55472 0.61234 0.59346 0.0
H512 H 0.53502 0.61609 0.6336 0.0
H513 H 0.51203 0.48443 0.65557 0.0
H514 H 0.52226 0.47589 0.77687 0.0
H515 H 0.49917 0.47827 0.73522 0.0
C516 C 0.5476 0.55059 0.42394 0.0
C517 C 0.54067 0.51004 0.43407 0.0
C518 C 0.54933 0.55356 0.39975 0.0
C519 C 0.50375 0.49383 0.34748 0.0
H520 H 0.58118 0.56786 0.31379 0.0
C521 C 0.5037 0.48363 0.24805 0.0
C522 C 0.50501 0.52297 0.23589 0.0
C523 C 0.5106 0.48323 0.27228 0.0
C524 C 0.55903 0.54734 0.32301 0.0
H525 H 0.5338 0.44071 0.42752 0.0
H526 H 0.53834 0.44558 0.38581 0.0
H527 H 0.59176 0.56554 0.35631 0.0
H528 H 0.51394 0.59289 0.23975 0.0
H529 H 0.526 0.59213 0.28203 0.0
H530 H 0.47074 0.47576 0.31447 0.0
C531 C 0.54116 0.47524 0.39615 0.0
C532 C 0.56515 0.54601 0.34732 0.0
C533 C 0.53909 0.47238 0.42006 0.0
C534 C 0.51333 0.56192 0.24855 0.0
C535 C 0.52033 0.56151 0.27279 0.0
C536 C 0.49764 0.49517 0.32331 0.0
C537 C 0.5442 0.51597 0.38556 0.0
C538 C 0.53786 0.51883 0.3598 0.0
C539 C 0.51897 0.52217 0.28494 0.0
C540 C 0.52539 0.52164 0.31074 0.0
H541 H 0.54832 0.5801 0.43441 0.0
H542 H 0.55175 0.58542 0.39206 0.0
H543 H 0.4813 0.4734 0.35658 0.0
H544 H 0.49822 0.45295 0.23884 0.0
H545 H 0.51002 0.45226 0.28108 0.0
loop_
_geom_bond_atom_site_label_1
_geom_bond_atom_site_label_2
_geom_bond_distance
_geom_bond_site_symmetry_2
_ccdc_geom_bond_type
Zn0 O6 1.911 1_546 S
Zn0 O12 1.898 . S
Zn0 O15 1.905 1_545 S
Zn1 O9 1.905 . S
Zn1 O10 1.898 1_545 S
Zn1 O18 1.920 1_545 S
Zn2 O5 2.080 1_445 S
Zn2 O8 2.114 . S
Zn2 O11 2.120 1_545 S
Zn2 O13 2.120 1_455 S
Zn2 O14 2.114 1_554 S
Zn2 O17 2.080 . S
C3 O8 1.166 . S
C3 O9 1.182 . S
C4 O10 1.167 . S
C4 O11 1.299 . S
O5 Zn2 2.080 1_665 S
O5 C19 1.305 . S
O6 Zn0 1.911 1_564 S
O6 C19 1.241 . S
C7 O12 1.179 . S
C7 O13 1.289 1_556 S
O8 Zn2 2.114 . S
O8 C3 1.166 . S
O9 Zn1 1.905 . S
O9 C3 1.182 . S
O10 Zn1 1.898 1_565 S
O10 C4 1.167 . S
O11 Zn2 2.120 1_565 S
O11 C4 1.299 . S
O12 Zn0 1.898 . S
O12 C7 1.179 . S
O13 Zn2 2.120 1_655 S
O13 C7 1.289 1_554 S
O14 Zn2 2.114 1_556 S
O14 C16 1.166 1_545 S
O15 Zn0 1.905 1_565 S
O15 C16 1.182 1_655 S
C16 O14 1.166 1_565 S
C16 O15 1.182 1_455 S
O17 Zn2 2.080 . S
O17 C20 1.305 1_545 S
O18 Zn1 1.920 1_565 S
O18 C20 1.234 . S
C19 O5 1.305 . S
C19 O6 1.241 . S
C20 O17 1.305 1_565 S
C20 O18 1.234 . S
Zn21 O27 1.920 . S
Zn21 O33 1.898 . S
Zn21 O36 1.905 . S
Zn22 O30 1.905 . S
Zn22 O31 1.898 . S
Zn22 O39 1.920 . S
Zn23 O26 2.080 . S
Zn23 O29 2.114 . S
Zn23 O32 2.120 . S
Zn23 O34 2.120 . S
Zn23 O35 2.114 . S
Zn23 O38 2.080 . S
C24 O29 1.166 . S
C24 O30 1.182 . S
C25 O31 1.167 . S
C25 O32 1.299 . S
O26 Zn23 2.080 . S
O26 C40 1.305 . S
O27 Zn21 1.920 . S
O27 C40 1.234 . S
C28 O33 1.167 . S
C28 O34 1.299 . S
O29 Zn23 2.114 . S
O29 C24 1.166 . S
O30 Zn22 1.905 . S
O30 C24 1.182 . S
O31 Zn22 1.898 . S
O31 C25 1.167 . S
O32 Zn23 2.120 . S
O32 C25 1.299 . S
O33 Zn21 1.898 . S
O33 C28 1.167 . S
O34 Zn23 2.120 . S
O34 C28 1.299 . S
O35 Zn23 2.114 . S
O35 C37 1.166 . S
O36 Zn21 1.905 . S
O36 C37 1.182 . S
C37 O35 1.166 . S
C37 O36 1.182 . S
O38 Zn23 2.080 . S
O38 C41 1.305 . S
O39 Zn22 1.920 . S
O39 C41 1.234 . S
C40 O26 1.305 . S
C40 O27 1.234 . S
C41 O38 1.305 . S
C41 O39 1.234 . S
C42 C43 1.384 . S
C42 H55 0.947 . S
C42 C77 1.382 . S
C43 C42 1.384 . S
C43 C44 1.378 . S
C44 C43 1.378 . S
C44 C45 1.378 1_655 S
C44 H56 0.952 . S
C45 C44 1.378 1_455 S
C45 H57 0.950 . S
C45 C76 1.383 . S
H46 C65 0.947 . S
H47 C66 0.946 . S
H48 C68 0.953 . S
H49 C69 0.945 . S
H50 C71 0.952 1_565 S
H51 C72 0.949 1_565 S
H52 C74 0.950 . S
H53 C75 0.948 . S
H54 C77 0.951 . S
H55 C42 0.947 . S
H56 C44 0.952 . S
H57 C45 0.950 . S
N58 C61 1.382 . S
N58 C63 1.363 . S
N59 C61 1.371 . S
N59 C62 1.372 . S
N60 C62 1.361 . S
N60 C63 1.377 . S
C61 N58 1.382 . S
C61 N59 1.371 . S
C61 C64 1.480 1_545 S
C62 N59 1.372 . S
C62 N60 1.361 . S
C62 C70 1.457 . S
C63 N58 1.363 . S
C63 N60 1.377 . S
C63 C76 1.479 . S
C64 C61 1.480 1_565 S
C64 C65 1.383 . S
C64 C69 1.385 . S
C65 H46 0.947 . S
C65 C64 1.383 . S
C65 C66 1.388 . S
C66 H47 0.946 . S
C66 C65 1.388 . S
C66 C67 1.384 . S
C67 C66 1.384 . S
C67 C68 1.377 . S
C68 H48 0.953 . S
C68 C67 1.377 . S
C68 C69 1.369 . S
C69 H49 0.945 . S
C69 C64 1.385 . S
C69 C68 1.369 . S
C70 C62 1.457 . S
C70 C71 1.372 . S
C70 C75 1.364 . S
C71 H50 0.952 1_545 S
C71 C70 1.372 . S
C71 C72 1.389 . S
C72 H51 0.949 1_545 S
C72 C71 1.389 . S
C72 C73 1.387 . S
C73 C72 1.387 . S
C73 C74 1.372 . S
C74 H52 0.950 . S
C74 C73 1.372 . S
C74 C75 1.379 . S
C75 H53 0.948 . S
C75 C70 1.364 . S
C75 C74 1.379 . S
C76 C45 1.383 . S
C76 C63 1.479 . S
C76 C77 1.398 1_455 S
C77 C42 1.382 . S
C77 H54 0.951 . S
C77 C76 1.398 1_655 S
C78 C79 1.384 . S
C78 H91 0.947 . S
C78 C113 1.382 . S
C79 C78 1.384 . S
C79 C80 1.378 . S
C80 C79 1.378 . S
C80 C81 1.378 . S
C80 H92 0.952 . S
C81 C80 1.378 . S
C81 H93 0.950 . S
C81 C112 1.383 . S
H82 C101 0.947 . S
H83 C102 0.946 . S
H84 C104 0.953 . S
H85 C105 0.945 . S
H86 C107 0.952 . S
H87 C108 0.949 . S
H88 C110 0.950 . S
H89 C111 0.948 . S
H90 C113 0.951 . S
H91 C78 0.947 . S
H92 C80 0.952 . S
H93 C81 0.950 . S
N94 C97 1.382 . S
N94 C99 1.363 1_445 S
N95 C97 1.371 . S
N95 C98 1.372 . S
N96 C98 1.361 1_665 S
N96 C99 1.377 . S
C97 N94 1.382 . S
C97 N95 1.371 . S
C97 C100 1.480 . S
C98 N95 1.372 . S
C98 N96 1.361 1_445 S
C98 C106 1.457 . S
C99 N94 1.363 1_665 S
C99 N96 1.377 . S
C99 C112 1.479 . S
C100 C97 1.480 . S
C100 C101 1.383 . S
C100 C105 1.385 . S
C101 H82 0.947 . S
C101 C100 1.383 . S
C101 C102 1.388 . S
C102 H83 0.946 . S
C102 C101 1.388 . S
C102 C103 1.384 . S
C103 C102 1.384 . S
C103 C104 1.377 . S
C104 H84 0.953 . S
C104 C103 1.377 . S
C104 C105 1.369 . S
C105 H85 0.945 . S
C105 C100 1.385 . S
C105 C104 1.369 . S
C106 C98 1.457 . S
C106 C107 1.372 . S
C106 C111 1.364 1_445 S
C107 H86 0.952 . S
C107 C106 1.372 . S
C107 C108 1.389 . S
C108 H87 0.949 . S
C108 C107 1.389 . S
C108 C109 1.387 . S
C109 C108 1.387 . S
C109 C110 1.372 1_445 S
C110 H88 0.950 . S
C110 C109 1.372 1_665 S
C110 C111 1.379 . S
C111 H89 0.948 . S
C111 C106 1.364 1_665 S
C111 C110 1.379 . S
C112 C81 1.383 . S
C112 C99 1.479 . S
C112 C113 1.398 . S
C113 C78 1.382 . S
C113 H90 0.951 . S
C113 C112 1.398 . S
C114 C115 1.384 . S
C114 H127 0.947 . S
C114 C149 1.382 . S
C115 C114 1.384 . S
C115 C116 1.378 . S
C116 C115 1.378 . S
C116 C117 1.378 . S
C116 H128 0.952 . S
C117 C116 1.378 . S
C117 H129 0.950 . S
C117 C148 1.383 . S
H118 C137 0.947 . S
H119 C138 0.946 . S
H120 C140 0.953 . S
H121 C141 0.945 . S
H122 C143 0.952 . S
H123 C144 0.949 . S
H124 C146 0.950 . S
H125 C147 0.948 . S
H126 C149 0.951 . S
H127 C114 0.947 . S
H128 C116 0.952 . S
H129 C117 0.950 . S
N130 C133 1.382 . S
N130 C135 1.363 . S
N131 C133 1.371 . S
N131 C134 1.372 . S
N132 C134 1.361 . S
N132 C135 1.377 . S
C133 N130 1.382 . S
C133 N131 1.371 . S
C133 C136 1.480 . S
C134 N131 1.372 . S
C134 N132 1.361 . S
C134 C142 1.457 . S
C135 N130 1.363 . S
C135 N132 1.377 . S
C135 C148 1.479 . S
C136 C133 1.480 . S
C136 C137 1.383 . S
C136 C141 1.385 . S
C137 H118 0.947 . S
C137 C136 1.383 . S
C137 C138 1.388 . S
C138 H119 0.946 . S
C138 C137 1.388 . S
C138 C139 1.384 . S
C139 C138 1.384 . S
C139 C140 1.377 . S
C140 H120 0.953 . S
C140 C139 1.377 . S
C140 C141 1.369 . S
C141 H121 0.945 . S
C141 C136 1.385 . S
C141 C140 1.369 . S
C142 C134 1.457 . S
C142 C143 1.372 . S
C142 C147 1.364 . S
C143 H122 0.952 . S
C143 C142 1.372 . S
C143 C144 1.389 . S
C144 H123 0.949 . S
C144 C143 1.389 . S
C144 C145 1.387 . S
C145 C144 1.387 . S
C145 C146 1.372 . S
C146 H124 0.950 . S
C146 C145 1.372 . S
C146 C147 1.379 . S
C147 H125 0.948 . S
C147 C142 1.364 . S
C147 C146 1.379 . S
C148 C117 1.383 . S
C148 C135 1.479 . S
C148 C149 1.398 . S
C149 C114 1.382 . S
C149 H126 0.951 . S
C149 C148 1.398 . S
C150 C151 1.384 . S
C150 H163 0.947 . S
C150 C185 1.382 . S
C151 C150 1.384 . S
C151 C152 1.378 . S
C152 C151 1.378 . S
C152 C153 1.378 . S
C152 H164 0.952 . S
C153 C152 1.378 . S
C153 H165 0.950 . S
C153 C184 1.383 . S
H154 C173 0.947 . S
H155 C174 0.946 . S
H156 C176 0.953 . S
H157 C177 0.945 . S
H158 C179 0.952 . S
H159 C180 0.949 . S
H160 C182 0.950 . S
H161 C183 0.948 . S
H162 C185 0.951 . S
H163 C150 0.947 . S
H164 C152 0.952 . S
H165 C153 0.950 . S
N166 C169 1.382 . S
N166 C171 1.363 . S
N167 C169 1.371 . S
N167 C170 1.372 . S
N168 C170 1.361 . S
N168 C171 1.377 . S
C169 N166 1.382 . S
C169 N167 1.371 . S
C169 C172 1.480 . S
C170 N167 1.372 . S
C170 N168 1.361 . S
C170 C178 1.457 . S
C171 N166 1.363 . S
C171 N168 1.377 . S
C171 C184 1.479 . S
C172 C169 1.480 . S
C172 C173 1.383 . S
C172 C177 1.385 . S
C173 H154 0.947 . S
C173 C172 1.383 . S
C173 C174 1.388 . S
C174 H155 0.946 . S
C174 C173 1.388 . S
C174 C175 1.384 . S
C175 C174 1.384 . S
C175 C176 1.377 . S
C176 H156 0.953 . S
C176 C175 1.377 . S
C176 C177 1.369 . S
C177 H157 0.945 . S
C177 C172 1.385 . S
C177 C176 1.369 . S
C178 C170 1.457 . S
C178 C179 1.372 . S
C178 C183 1.364 . S
C179 H158 0.952 . S
C179 C178 1.372 . S
C179 C180 1.389 . S
C180 H159 0.949 . S
C180 C179 1.389 . S
C180 C181 1.387 . S
C181 C180 1.387 . S
C181 C182 1.372 . S
C182 H160 0.950 . S
C182 C181 1.372 . S
C182 C183 1.379 . S
C183 H161 0.948 . S
C183 C178 1.364 . S
C183 C182 1.379 . S
C184 C153 1.383 . S
C184 C171 1.479 . S
C184 C185 1.398 . S
C185 C150 1.382 . S
C185 H162 0.951 . S
C185 C184 1.398 . S
C186 C187 1.349 . S
C186 C188 1.327 . S
C186 H211 0.950 . S
C187 C186 1.349 . S
C187 C203 1.349 . S
C188 C186 1.327 . S
C188 C207 1.429 . S
C188 H212 0.950 . S
C189 C206 1.574 . S
C189 C208 1.368 . S
C189 H213 0.949 . S
H190 C194 0.949 . S
C191 C192 1.349 . S
C191 C193 1.327 . S
C191 H214 0.950 . S
C192 C191 1.349 . S
C192 C204 1.349 . S
C193 C191 1.327 . S
C193 C209 1.429 . S
C193 H215 0.950 . S
C194 H190 0.949 . S
C194 C202 1.574 . S
C194 C210 1.368 . S
H195 C203 0.950 . S
H196 C201 0.950 . S
H197 C202 0.949 . S
H198 C204 0.950 . S
H199 C205 0.950 . S
H200 C206 0.949 . S
C201 H196 0.950 . S
C201 C203 1.327 . S
C201 C207 1.429 . S
C202 C194 1.574 . S
C202 H197 0.949 . S
C202 C208 1.368 . S
C203 C187 1.349 . S
C203 H195 0.950 . S
C203 C201 1.327 . S
C204 C192 1.349 . S
C204 H198 0.950 . S
C204 C205 1.327 . S
C205 H199 0.950 . S
C205 C204 1.327 . S
C205 C209 1.429 . S
C206 C189 1.574 . S
C206 H200 0.949 . S
C206 C210 1.368 . S
C207 C188 1.429 . S
C207 C201 1.429 . S
C207 C208 1.523 . S
C208 C189 1.368 . S
C208 C202 1.368 . S
C208 C207 1.523 . S
C209 C193 1.429 . S
C209 C205 1.429 . S
C209 C210 1.523 . S
C210 C194 1.368 . S
C210 C206 1.368 . S
C210 C209 1.523 . S
H211 C186 0.950 . S
H212 C188 0.950 . S
H213 C189 0.949 . S
H214 C191 0.950 . S
H215 C193 0.950 . S
C216 C217 1.349 1_554 S
C216 C218 1.327 . S
C216 H241 0.950 . S
C217 C216 1.349 1_556 S
C217 C233 1.349 . S
C218 C216 1.327 . S
C218 C237 1.429 1_554 S
C218 H242 0.950 . S
C219 C236 1.574 . S
C219 C238 1.368 . S
C219 H243 0.949 . S
H220 C224 0.949 . S
C221 C222 1.349 . S
C221 C223 1.327 . S
C221 H244 0.950 . S
C222 C221 1.349 . S
C222 C234 1.349 . S
C223 C221 1.327 . S
C223 C239 1.429 . S
C223 H245 0.950 . S
C224 H220 0.949 . S
C224 C232 1.574 . S
C224 C240 1.368 . S
H225 C233 0.950 . S
H226 C231 0.950 . S
H227 C232 0.949 1_554 S
H228 C234 0.950 . S
H229 C235 0.950 . S
H230 C236 0.949 . S
C231 H226 0.950 . S
C231 C233 1.327 . S
C231 C237 1.429 . S
C232 C224 1.574 . S
C232 H227 0.949 1_556 S
C232 C238 1.368 . S
C233 C217 1.349 . S
C233 H225 0.950 . S
C233 C231 1.327 . S
C234 C222 1.349 . S
C234 H228 0.950 . S
C234 C235 1.327 . S
C235 H229 0.950 . S
C235 C234 1.327 . S
C235 C239 1.429 . S
C236 C219 1.574 . S
C236 H230 0.949 . S
C236 C240 1.368 . S
C237 C218 1.429 1_556 S
C237 C231 1.429 . S
C237 C238 1.523 . S
C238 C219 1.368 . S
C238 C232 1.368 . S
C238 C237 1.523 . S
C239 C223 1.429 . S
C239 C235 1.429 . S
C239 C240 1.523 . S
C240 C224 1.368 . S
C240 C236 1.368 . S
C240 C239 1.523 . S
H241 C216 0.950 . S
H242 C218 0.950 . S
H243 C219 0.949 . S
H244 C221 0.950 . S
H245 C223 0.950 . S
C246 C247 1.349 . S
C246 C248 1.327 . S
C246 H271 0.950 1_554 S
C247 C246 1.349 . S
C247 C263 1.349 . S
C248 C246 1.327 . S
C248 C267 1.429 . S
C248 H272 0.950 . S
C249 C266 1.574 . S
C249 C268 1.368 . S
C249 H273 0.949 . S
H250 C254 0.949 . S
C251 C252 1.349 . S
C251 C253 1.327 . S
C251 H274 0.950 . S
C252 C251 1.349 . S
C252 C264 1.349 . S
C253 C251 1.327 . S
C253 C269 1.429 . S
C253 H275 0.950 . S
C254 H250 0.949 . S
C254 C262 1.574 . S
C254 C270 1.368 . S
H255 C263 0.950 . S
H256 C261 0.950 . S
H257 C262 0.949 . S
H258 C264 0.950 . S
H259 C265 0.950 . S
H260 C266 0.949 . S
C261 H256 0.950 . S
C261 C263 1.327 . S
C261 C267 1.429 . S
C262 C254 1.574 . S
C262 H257 0.949 . S
C262 C268 1.368 . S
C263 C247 1.349 . S
C263 H255 0.950 . S
C263 C261 1.327 . S
C264 C252 1.349 . S
C264 H258 0.950 . S
C264 C265 1.327 . S
C265 H259 0.950 . S
C265 C264 1.327 . S
C265 C269 1.429 . S
C266 C249 1.574 . S
C266 H260 0.949 . S
C266 C270 1.368 . S
C267 C248 1.429 . S
C267 C261 1.429 . S
C267 C268 1.523 . S
C268 C249 1.368 . S
C268 C262 1.368 . S
C268 C267 1.523 . S
C269 C253 1.429 . S
C269 C265 1.429 . S
C269 C270 1.523 . S
C270 C254 1.368 . S
C270 C266 1.368 . S
C270 C269 1.523 . S
H271 C246 0.950 1_556 S
H272 C248 0.950 . S
H273 C249 0.949 . S
H274 C251 0.950 . S
H275 C253 0.950 . S
C276 C277 1.349 1_556 S
C276 C278 1.327 . S
C276 H301 0.950 . S
C277 C276 1.349 1_554 S
C277 C293 1.349 . S
C278 C276 1.327 . S
C278 C297 1.429 . S
C278 H302 0.950 . S
C279 C296 1.574 . S
C279 C298 1.368 . S
C279 H303 0.949 1_556 S
H280 C284 0.949 . S
C281 C282 1.349 . S
C281 C283 1.327 . S
C281 H304 0.950 . S
C282 C281 1.349 . S
C282 C294 1.349 . S
C283 C281 1.327 . S
C283 C299 1.429 . S
C283 H305 0.950 . S
C284 H280 0.949 . S
C284 C292 1.574 . S
C284 C300 1.368 . S
H285 C293 0.950 . S
H286 C291 0.950 . S
H287 C292 0.949 . S
H288 C294 0.950 . S
H289 C295 0.950 . S
H290 C296 0.956 . S
C291 H286 0.950 . S
C291 C293 1.327 . S
C291 C297 1.429 1_554 S
C292 C284 1.574 . S
C292 H287 0.949 . S
C292 C298 1.368 . S
C293 C277 1.349 . S
C293 H285 0.950 . S
C293 C291 1.327 . S
C294 C282 1.349 . S
C294 H288 0.950 . S
C294 C295 1.327 . S
C295 H289 0.950 . S
C295 C294 1.327 . S
C295 C299 1.429 . S
C296 C279 1.574 . S
C296 H290 0.956 . S
C296 C300 1.368 . S
C297 C278 1.429 . S
C297 C291 1.429 1_556 S
C297 C298 1.523 . S
C298 C279 1.368 . S
C298 C292 1.368 . S
C298 C297 1.523 . S
C299 C283 1.429 . S
C299 C295 1.429 . S
C299 C300 1.523 . S
C300 C284 1.368 . S
C300 C296 1.368 . S
C300 C299 1.523 . S
H301 C276 0.950 . S
H302 C278 0.950 . S
H303 C279 0.949 1_554 S
H304 C281 0.950 . S
H305 C283 0.950 . S
C306 C307 1.349 . S
C306 C308 1.327 . S
C306 H331 0.950 . S
C307 C306 1.349 . S
C307 C323 1.349 . S
C308 C306 1.327 . S
C308 C327 1.429 . S
C308 H332 0.950 . S
C309 C326 1.574 . S
C309 C328 1.368 . S
C309 H333 0.949 . S
H310 C314 0.949 . S
C311 C312 1.349 . S
C311 C313 1.327 . S
C311 H334 0.950 . S
C312 C311 1.349 . S
C312 C324 1.349 . S
C313 C311 1.327 . S
C313 C329 1.429 . S
C313 H335 0.950 . S
C314 H310 0.949 . S
C314 C322 1.574 . S
C314 C330 1.368 . S
H315 C323 0.950 . S
H316 C321 0.950 . S
H317 C322 0.949 . S
H318 C324 0.950 . S
H319 C325 0.950 . S
H320 C326 0.949 . S
C321 H316 0.950 . S
C321 C323 1.327 . S
C321 C327 1.429 . S
C322 C314 1.574 . S
C322 H317 0.949 . S
C322 C328 1.368 . S
C323 C307 1.349 . S
C323 H315 0.950 . S
C323 C321 1.327 . S
C324 C312 1.349 . S
C324 H318 0.950 . S
C324 C325 1.327 . S
C325 H319 0.950 . S
C325 C324 1.327 . S
C325 C329 1.429 . S
C326 C309 1.574 . S
C326 H320 0.949 . S
C326 C330 1.368 . S
C327 C308 1.429 . S
C327 C321 1.429 . S
C327 C328 1.523 . S
C328 C309 1.368 . S
C328 C322 1.368 . S
C328 C327 1.523 . S
C329 C313 1.429 . S
C329 C325 1.429 . S
C329 C330 1.523 . S
C330 C314 1.368 . S
C330 C326 1.368 . S
C330 C329 1.523 . S
H331 C306 0.950 . S
H332 C308 0.950 . S
H333 C309 0.949 . S
H334 C311 0.950 . S
H335 C313 0.950 . S
C336 C337 1.349 . S
C336 C338 1.327 . S
C336 H361 0.950 . S
C337 C336 1.349 . S
C337 C353 1.349 . S
C338 C336 1.327 . S
C338 C357 1.429 . S
C338 H362 0.950 . S
C339 C356 1.574 . S
C339 C358 1.368 . S
C339 H363 0.949 . S
H340 C344 0.949 . S
C341 C342 1.349 . S
C341 C343 1.327 . S
C341 H364 0.950 . S
C342 C341 1.349 . S
C342 C354 1.349 . S
C343 C341 1.327 . S
C343 C359 1.429 . S
C343 H365 0.950 . S
C344 H340 0.949 . S
C344 C352 1.574 . S
C344 C360 1.368 . S
H345 C353 0.950 . S
H346 C351 0.950 . S
H347 C352 0.949 . S
H348 C354 0.950 . S
H349 C355 0.950 . S
H350 C356 0.949 . S
C351 H346 0.950 . S
C351 C353 1.327 . S
C351 C357 1.429 . S
C352 C344 1.574 . S
C352 H347 0.949 . S
C352 C358 1.368 . S
C353 C337 1.349 . S
C353 H345 0.950 . S
C353 C351 1.327 . S
C354 C342 1.349 . S
C354 H348 0.950 . S
C354 C355 1.327 . S
C355 H349 0.950 . S
C355 C354 1.327 . S
C355 C359 1.429 . S
C356 C339 1.574 . S
C356 H350 0.949 . S
C356 C360 1.368 . S
C357 C338 1.429 . S
C357 C351 1.429 . S
C357 C358 1.523 . S
C358 C339 1.368 . S
C358 C352 1.368 . S
C358 C357 1.523 . S
C359 C343 1.429 . S
C359 C355 1.429 . S
C359 C360 1.523 . S
C360 C344 1.368 . S
C360 C356 1.368 . S
C360 C359 1.523 . S
H361 C336 0.950 . S
H362 C338 0.950 . S
H363 C339 0.949 . S
H364 C341 0.950 . S
H365 C343 0.950 . S
C366 C367 1.349 . S
C366 C368 1.327 . S
C366 H391 0.950 . S
C367 C366 1.349 . S
C367 C383 1.349 . S
C368 C366 1.327 . S
C368 C387 1.429 . S
C368 H392 0.950 . S
C369 C386 1.574 . S
C369 C388 1.368 . S
C369 H393 0.949 . S
H370 C374 0.949 . S
C371 C372 1.349 . S
C371 C373 1.327 . S
C371 H394 0.950 . S
C372 C371 1.349 . S
C372 C384 1.349 . S
C373 C371 1.327 . S
C373 C389 1.429 . S
C373 H395 0.950 . S
C374 H370 0.949 . S
C374 C382 1.574 . S
C374 C390 1.368 . S
H375 C383 0.950 . S
H376 C381 0.950 . S
H377 C382 0.949 . S
H378 C384 0.950 . S
H379 C385 0.950 . S
H380 C386 0.949 . S
C381 H376 0.950 . S
C381 C383 1.327 . S
C381 C387 1.429 . S
C382 C374 1.574 . S
C382 H377 0.949 . S
C382 C388 1.368 . S
C383 C367 1.349 . S
C383 H375 0.950 . S
C383 C381 1.327 . S
C384 C372 1.349 . S
C384 H378 0.950 . S
C384 C385 1.327 . S
C385 H379 0.950 . S
C385 C384 1.327 . S
C385 C389 1.429 . S
C386 C369 1.574 . S
C386 H380 0.949 . S
C386 C390 1.368 . S
C387 C368 1.429 . S
C387 C381 1.429 . S
C387 C388 1.523 . S
C388 C369 1.368 . S
C388 C382 1.368 . S
C388 C387 1.523 . S
C389 C373 1.429 . S
C389 C385 1.429 . S
C389 C390 1.523 . S
C390 C374 1.368 . S
C390 C386 1.368 . S
C390 C389 1.523 . S
H391 C366 0.950 . S
H392 C368 0.950 . S
H393 C369 0.949 . S
H394 C371 0.950 . S
H395 C373 0.950 . S
C396 C397 1.349 . S
C396 C398 1.327 . S
C396 H421 0.950 . S
C397 C396 1.349 . S
C397 C413 1.349 . S
C398 C396 1.327 . S
C398 C417 1.429 . S
C398 H422 0.950 . S
C399 C416 1.574 . S
C399 C418 1.368 . S
C399 H423 0.949 . S
H400 C404 0.949 . S
C401 C402 1.349 . S
C401 C403 1.327 . S
C401 H424 0.950 . S
C402 C401 1.349 . S
C402 C414 1.349 . S
C403 C401 1.327 . S
C403 C419 1.429 . S
C403 H425 0.950 . S
C404 H400 0.949 . S
C404 C412 1.574 . S
C404 C420 1.368 . S
H405 C413 0.950 . S
H406 C411 0.950 . S
H407 C412 0.949 . S
H408 C414 0.950 . S
H409 C415 0.950 . S
H410 C416 0.949 . S
C411 H406 0.950 . S
C411 C413 1.327 . S
C411 C417 1.429 . S
C412 C404 1.574 . S
C412 H407 0.949 . S
C412 C418 1.368 . S
C413 C397 1.349 . S
C413 H405 0.950 . S
C413 C411 1.327 . S
C414 C402 1.349 . S
C414 H408 0.950 . S
C414 C415 1.327 . S
C415 H409 0.950 . S
C415 C414 1.327 . S
C415 C419 1.429 . S
C416 C399 1.574 . S
C416 H410 0.949 . S
C416 C420 1.368 . S
C417 C398 1.429 . S
C417 C411 1.429 . S
C417 C418 1.523 . S
C418 C399 1.368 . S
C418 C412 1.368 . S
C418 C417 1.523 . S
C419 C403 1.429 . S
C419 C415 1.429 . S
C419 C420 1.523 . S
C420 C404 1.368 . S
C420 C416 1.368 . S
C420 C419 1.523 . S
H421 C396 0.950 . S
H422 C398 0.950 . S
H423 C399 0.949 . S
H424 C401 0.950 . S
H425 C403 0.950 . S
C426 C427 1.349 . S
C426 C428 1.327 . S
C426 H451 0.950 . S
C427 C426 1.349 . S
C427 C443 1.349 1_565 S
C428 C426 1.327 . S
C428 C447 1.429 1_565 S
C428 H452 0.950 . S
C429 C446 1.574 . S
C429 C448 1.368 . S
C429 H453 0.949 . S
H430 C434 0.949 . S
C431 C432 1.349 . S
C431 C433 1.327 . S
C431 H454 0.950 . S
C432 C431 1.349 . S
C432 C444 1.349 . S
C433 C431 1.327 . S
C433 C449 1.429 . S
C433 H455 0.950 . S
C434 H430 0.949 . S
C434 C442 1.574 . S
C434 C450 1.368 1_565 S
H435 C443 0.950 . S
H436 C441 0.950 . S
H437 C442 0.949 . S
H438 C444 0.950 1_565 S
H439 C445 0.950 . S
H440 C446 0.949 . S
C441 H436 0.950 . S
C441 C443 1.327 . S
C441 C447 1.429 . S
C442 C434 1.574 . S
C442 H437 0.949 . S
C442 C448 1.368 1_565 S
C443 C427 1.349 1_545 S
C443 H435 0.950 . S
C443 C441 1.327 . S
C444 C432 1.349 . S
C444 H438 0.950 1_545 S
C444 C445 1.327 1_545 S
C445 H439 0.950 . S
C445 C444 1.327 1_565 S
C445 C449 1.429 1_565 S
C446 C429 1.574 . S
C446 H440 0.949 . S
C446 C450 1.368 . S
C447 C428 1.429 1_545 S
C447 C441 1.429 . S
C447 C448 1.523 . S
C448 C429 1.368 . S
C448 C442 1.368 1_545 S
C448 C447 1.523 . S
C449 C433 1.429 . S
C449 C445 1.429 1_545 S
C449 C450 1.523 . S
C450 C434 1.368 1_545 S
C450 C446 1.368 . S
C450 C449 1.523 . S
H451 C426 0.950 . S
H452 C428 0.950 . S
H453 C429 0.949 . S
H454 C431 0.950 . S
H455 C433 0.950 . S
C456 C457 1.349 1_545 S
C456 C458 1.327 . S
C456 H481 0.950 . S
C457 C456 1.349 1_565 S
C457 C473 1.349 . S
C458 C456 1.327 . S
C458 C477 1.433 . S
C458 H482 0.950 . S
C459 C476 1.574 . S
C459 C478 1.368 1_665 S
C459 H483 0.949 . S
H460 C464 0.949 . S
C461 C462 1.349 1_665 S
C461 C463 1.327 . S
C461 H484 0.950 . S
C462 C461 1.349 1_445 S
C462 C474 1.349 . S
C463 C461 1.327 . S
C463 C479 1.429 1_665 S
C463 H485 0.950 . S
C464 H460 0.949 . S
C464 C472 1.574 . S
C464 C480 1.368 . S
H465 C473 0.950 1_655 S
H466 C471 0.955 . S
H467 C472 0.949 . S
H468 C474 0.950 . S
H469 C475 0.950 . S
H470 C476 0.949 . S
C471 H466 0.955 . S
C471 C473 1.327 1_655 S
C471 C477 1.418 1_665 S
C472 C464 1.574 . S
C472 H467 0.949 . S
C472 C478 1.368 . S
C473 C457 1.349 . S
C473 H465 0.950 1_455 S
C473 C471 1.327 1_455 S
C474 C462 1.349 . S
C474 H468 0.950 . S
C474 C475 1.327 . S
C475 H469 0.950 . S
C475 C474 1.327 . S
C475 C479 1.429 . S
C476 C459 1.574 . S
C476 H470 0.949 . S
C476 C480 1.368 1_665 S
C477 C458 1.433 . S
C477 C471 1.418 1_445 S
C477 C478 1.524 . S
C478 C459 1.368 1_445 S
C478 C472 1.368 . S
C478 C477 1.524 . S
C479 C463 1.429 1_445 S
C479 C475 1.429 . S
C479 C480 1.523 . S
C480 C464 1.368 . S
C480 C476 1.368 1_445 S
C480 C479 1.523 . S
H481 C456 0.950 . S
H482 C458 0.950 . S
H483 C459 0.949 . S
H484 C461 0.950 . S
H485 C463 0.950 . S
C486 C487 1.349 . S
C486 C488 1.327 . S
C486 H511 0.950 . S
C487 C486 1.349 . S
C487 C503 1.349 . S
C488 C486 1.327 . S
C488 C507 1.429 . S
C488 H512 0.950 . S
C489 C506 1.574 . S
C489 C508 1.368 . S
C489 H513 0.949 . S
H490 C494 0.949 . S
C491 C492 1.349 . S
C491 C493 1.327 . S
C491 H514 0.950 . S
C492 C491 1.349 . S
C492 C504 1.349 . S
C493 C491 1.327 . S
C493 C509 1.429 . S
C493 H515 0.950 . S
C494 H490 0.949 . S
C494 C502 1.574 . S
C494 C510 1.368 . S
H495 C503 0.950 . S
H496 C501 0.950 . S
H497 C502 0.949 . S
H498 C504 0.950 . S
H499 C505 0.950 . S
H500 C506 0.949 . S
C501 H496 0.950 . S
C501 C503 1.327 . S
C501 C507 1.429 . S
C502 C494 1.574 . S
C502 H497 0.949 . S
C502 C508 1.368 . S
C503 C487 1.349 . S
C503 H495 0.950 . S
C503 C501 1.327 . S
C504 C492 1.349 . S
C504 H498 0.950 . S
C504 C505 1.327 . S
C505 H499 0.950 . S
C505 C504 1.327 . S
C505 C509 1.429 . S
C506 C489 1.574 . S
C506 H500 0.949 . S
C506 C510 1.368 . S
C507 C488 1.429 . S
C507 C501 1.429 . S
C507 C508 1.523 . S
C508 C489 1.368 . S
C508 C502 1.368 . S
C508 C507 1.523 . S
C509 C493 1.429 . S
C509 C505 1.429 . S
C509 C510 1.523 . S
C510 C494 1.368 . S
C510 C506 1.368 . S
C510 C509 1.523 . S
H511 C486 0.950 . S
H512 C488 0.950 . S
H513 C489 0.949 . S
H514 C491 0.950 . S
H515 C493 0.950 . S
C516 C517 1.349 . S
C516 C518 1.327 . S
C516 H541 0.950 . S
C517 C516 1.349 . S
C517 C533 1.349 . S
C518 C516 1.327 . S
C518 C537 1.429 . S
C518 H542 0.950 . S
C519 C536 1.574 . S
C519 C538 1.368 . S
C519 H543 0.949 . S
H520 C524 0.949 . S
C521 C522 1.349 . S
C521 C523 1.327 . S
C521 H544 0.950 . S
C522 C521 1.349 . S
C522 C534 1.349 . S
C523 C521 1.327 . S
C523 C539 1.429 . S
C523 H545 0.950 . S
C524 H520 0.949 . S
C524 C532 1.574 . S
C524 C540 1.368 . S
H525 C533 0.950 . S
H526 C531 0.950 . S
H527 C532 0.949 . S
H528 C534 0.950 . S
H529 C535 0.950 . S
H530 C536 0.949 . S
C531 H526 0.950 . S
C531 C533 1.327 . S
C531 C537 1.429 . S
C532 C524 1.574 . S
C532 H527 0.949 . S
C532 C538 1.368 . S
C533 C517 1.349 . S
C533 H525 0.950 . S
C533 C531 1.327 . S
C534 C522 1.349 . S
C534 H528 0.950 . S
C534 C535 1.327 . S
C535 H529 0.950 . S
C535 C534 1.327 . S
C535 C539 1.429 . S
C536 C519 1.574 . S
C536 H530 0.949 . S
C536 C540 1.368 . S
C537 C518 1.429 . S
C537 C531 1.429 . S
C537 C538 1.523 . S
C538 C519 1.368 . S
C538 C532 1.368 . S
C538 C537 1.523 . S
C539 C523 1.429 . S
C539 C535 1.429 . S
C539 C540 1.523 . S
C540 C524 1.368 . S
C540 C536 1.368 . S
C540 C539 1.523 . S
H541 C516 0.950 . S
H542 C518 0.950 . S
H543 C519 0.949 . S
H544 C521 0.950 . S
H545 C523 0.950 . S
C192 C151 1.139 . S
C187 C3 1.037 . S
C217 C4 1.505 1_556 S
C222 C115 1.615 . S
C247 C19 1.536 . S
C252 C175 1.615 . S
C277 C7 1.037 1_554 S
C282 C139 1.138 . S
C307 C37 1.038 . S
C312 C79 1.139 . S
C337 C28 1.505 . S
C342 C43 1.615 . S
C372 C103 1.615 . S
C367 C41 1.536 . S
C402 C67 1.138 . S
C397 C25 1.039 . S
C427 C20 1.270 . S
C432 C73 1.427 . S
C457 C16 1.326 . S
C462 C109 1.469 . S
C492 C145 1.427 . S
C487 C40 1.271 . S
C517 C24 1.326 . S
C522 C181 1.468 . S
