# Generated by pormake.
# Topology eea, (3,6)-cn, num edge types: 1
# Building blocks:
#     Node 0, Type 0, BuildingBlock: ESEHIV_clean_linker_0, # of connection points: 3
#     Node 1, Type 0, BuildingBlock: ESEHIV_clean_linker_0, # of connection points: 3
#     Node 2, Type 0, BuildingBlock: ESEHIV_clean_linker_0, # of connection points: 3
#     Node 3, Type 0, BuildingBlock: ESEHIV_clean_linker_0, # of connection points: 3
#     Node 4, Type 0, BuildingBlock: ESEHIV_clean_linker_0, # of connection points: 3
#     Node 5, Type 0, BuildingBlock: ESEHIV_clean_linker_0, # of connection points: 3
#     Node 6, Type 0, BuildingBlock: ESEHIV_clean_linker_0, # of connection points: 3
#     Node 7, Type 0, BuildingBlock: ESEHIV_clean_linker_0, # of connection points: 3
#     Node 8, Type 0, BuildingBlock: ESEHIV_clean_linker_0, # of connection points: 3
#     Node 9, Type 0, BuildingBlock: ESEHIV_clean_linker_0, # of connection points: 3
#     Node 10, Type 0, BuildingBlock: ESEHIV_clean_linker_0, # of connection points: 3
#     Node 11, Type 0, BuildingBlock: ESEHIV_clean_linker_0, # of connection points: 3
#     Node 12, Type 0, BuildingBlock: ESEHIV_clean_linker_0, # of connection points: 3
#     Node 13, Type 0, BuildingBlock: ESEHIV_clean_linker_0, # of connection points: 3
#     Node 14, Type 0, BuildingBlock: ESEHIV_clean_linker_0, # of connection points: 3
#     Node 15, Type 0, BuildingBlock: ESEHIV_clean_linker_0, # of connection points: 3
#     Node 16, Type 0, BuildingBlock: ESEHIV_clean_linker_0, # of connection points: 3
#     Node 17, Type 0, BuildingBlock: ESEHIV_clean_linker_0, # of connection points: 3
#     Node 18, Type 1, BuildingBlock: HISSIN_clean_sbu_0, # of connection points: 6
#     Node 19, Type 1, BuildingBlock: HISSIN_clean_sbu_0, # of connection points: 6
#     Node 20, Type 1, BuildingBlock: HISSIN_clean_sbu_0, # of connection points: 6
#     Node 21, Type 1, BuildingBlock: HISSIN_clean_sbu_0, # of connection points: 6
#     Node 22, Type 1, BuildingBlock: HISSIN_clean_sbu_0, # of connection points: 6
#     Node 23, Type 1, BuildingBlock: HISSIN_clean_sbu_0, # of connection points: 6
#     Node 24, Type 1, BuildingBlock: HISSIN_clean_sbu_0, # of connection points: 6
#     Node 25, Type 1, BuildingBlock: HISSIN_clean_sbu_0, # of connection points: 6
#     Node 26, Type 1, BuildingBlock: HISSIN_clean_sbu_0, # of connection points: 6
#     Edge 27, Type (0, 1), BuildingBlock: UVAHIK_clean_linker_0, # of connection points: 2
#     Edge 28, Type (0, 1), BuildingBlock: UVAHIK_clean_linker_0, # of connection points: 2
#     Edge 29, Type (0, 1), BuildingBlock: UVAHIK_clean_linker_0, # of connection points: 2
#     Edge 30, Type (0, 1), BuildingBlock: UVAHIK_clean_linker_0, # of connection points: 2
#     Edge 31, Type (0, 1), BuildingBlock: UVAHIK_clean_linker_0, # of connection points: 2
#     Edge 32, Type (0, 1), BuildingBlock: UVAHIK_clean_linker_0, # of connection points: 2
#     Edge 33, Type (0, 1), BuildingBlock: UVAHIK_clean_linker_0, # of connection points: 2
#     Edge 34, Type (0, 1), BuildingBlock: UVAHIK_clean_linker_0, # of connection points: 2
#     Edge 35, Type (0, 1), BuildingBlock: UVAHIK_clean_linker_0, # of connection points: 2
#     Edge 36, Type (0, 1), BuildingBlock: UVAHIK_clean_linker_0, # of connection points: 2
#     Edge 37, Type (0, 1), BuildingBlock: UVAHIK_clean_linker_0, # of connection points: 2
#     Edge 38, Type (0, 1), BuildingBlock: UVAHIK_clean_linker_0, # of connection points: 2
#     Edge 39, Type (0, 1), BuildingBlock: UVAHIK_clean_linker_0, # of connection points: 2
#     Edge 40, Type (0, 1), BuildingBlock: UVAHIK_clean_linker_0, # of connection points: 2
#     Edge 41, Type (0, 1), BuildingBlock: UVAHIK_clean_linker_0, # of connection points: 2
#     Edge 42, Type (0, 1), BuildingBlock: UVAHIK_clean_linker_0, # of connection points: 2
#     Edge 43, Type (0, 1), BuildingBlock: UVAHIK_clean_linker_0, # of connection points: 2
#     Edge 44, Type (0, 1), BuildingBlock: UVAHIK_clean_linker_0, # of connection points: 2
#     Edge 45, Type (0, 1), BuildingBlock: UVAHIK_clean_linker_0, # of connection points: 2
#     Edge 46, Type (0, 1), BuildingBlock: UVAHIK_clean_linker_0, # of connection points: 2
#     Edge 47, Type (0, 1), BuildingBlock: UVAHIK_clean_linker_0, # of connection points: 2
#     Edge 48, Type (0, 1), BuildingBlock: UVAHIK_clean_linker_0, # of connection points: 2
#     Edge 49, Type (0, 1), BuildingBlock: UVAHIK_clean_linker_0, # of connection points: 2
#     Edge 50, Type (0, 1), BuildingBlock: UVAHIK_clean_linker_0, # of connection points: 2
#     Edge 51, Type (0, 1), BuildingBlock: UVAHIK_clean_linker_0, # of connection points: 2
#     Edge 52, Type (0, 1), BuildingBlock: UVAHIK_clean_linker_0, # of connection points: 2
#     Edge 53, Type (0, 1), BuildingBlock: UVAHIK_clean_linker_0, # of connection points: 2
#     Edge 54, Type (0, 1), BuildingBlock: UVAHIK_clean_linker_0, # of connection points: 2
#     Edge 55, Type (0, 1), BuildingBlock: UVAHIK_clean_linker_0, # of connection points: 2
#     Edge 56, Type (0, 1), BuildingBlock: UVAHIK_clean_linker_0, # of connection points: 2
#     Edge 57, Type (0, 1), BuildingBlock: UVAHIK_clean_linker_0, # of connection points: 2
#     Edge 58, Type (0, 1), BuildingBlock: UVAHIK_clean_linker_0, # of connection points: 2
#     Edge 59, Type (0, 1), BuildingBlock: UVAHIK_clean_linker_0, # of connection points: 2
#     Edge 60, Type (0, 1), BuildingBlock: UVAHIK_clean_linker_0, # of connection points: 2
#     Edge 61, Type (0, 1), BuildingBlock: UVAHIK_clean_linker_0, # of connection points: 2
#     Edge 62, Type (0, 1), BuildingBlock: UVAHIK_clean_linker_0, # of connection points: 2
#     Edge 63, Type (0, 1), BuildingBlock: UVAHIK_clean_linker_0, # of connection points: 2
#     Edge 64, Type (0, 1), BuildingBlock: UVAHIK_clean_linker_0, # of connection points: 2
#     Edge 65, Type (0, 1), BuildingBlock: UVAHIK_clean_linker_0, # of connection points: 2
#     Edge 66, Type (0, 1), BuildingBlock: UVAHIK_clean_linker_0, # of connection points: 2
#     Edge 67, Type (0, 1), BuildingBlock: UVAHIK_clean_linker_0, # of connection points: 2
#     Edge 68, Type (0, 1), BuildingBlock: UVAHIK_clean_linker_0, # of connection points: 2
#     Edge 69, Type (0, 1), BuildingBlock: UVAHIK_clean_linker_0, # of connection points: 2
#     Edge 70, Type (0, 1), BuildingBlock: UVAHIK_clean_linker_0, # of connection points: 2
#     Edge 71, Type (0, 1), BuildingBlock: UVAHIK_clean_linker_0, # of connection points: 2
#     Edge 72, Type (0, 1), BuildingBlock: UVAHIK_clean_linker_0, # of connection points: 2
#     Edge 73, Type (0, 1), BuildingBlock: UVAHIK_clean_linker_0, # of connection points: 2
#     Edge 74, Type (0, 1), BuildingBlock: UVAHIK_clean_linker_0, # of connection points: 2
#     Edge 75, Type (0, 1), BuildingBlock: UVAHIK_clean_linker_0, # of connection points: 2
#     Edge 76, Type (0, 1), BuildingBlock: UVAHIK_clean_linker_0, # of connection points: 2
#     Edge 77, Type (0, 1), BuildingBlock: UVAHIK_clean_linker_0, # of connection points: 2
#     Edge 78, Type (0, 1), BuildingBlock: UVAHIK_clean_linker_0, # of connection points: 2
#     Edge 79, Type (0, 1), BuildingBlock: UVAHIK_clean_linker_0, # of connection points: 2
#     Edge 80, Type (0, 1), BuildingBlock: UVAHIK_clean_linker_0, # of connection points: 2
# Relax obj value: 0.035
# Max RMSD: 0.133
# Mean RMSD: 0.075
data_MOF--net-eea--node1-HISSIN_clean_sbu_0--node2-ESEHIV_clean_linker_0--edge1-UVAHIK_clean_linker_0
_symmetry_space_group_name_H-M    P1
_symmetry_Int_Tables_number       1
_symmetry_cell_setting            triclinic
loop_
_symmetry_equiv_pos_as_xyz
'x, y, z'
_cell_length_a     63.220474
_cell_length_b     63.088845
_cell_length_c     91.279545
_cell_angle_alpha  93.548409
_cell_angle_beta   93.510309
_cell_angle_gamma 119.89643
loop_
_atom_site_label
_atom_site_type_symbol
_atom_site_fract_x
_atom_site_fract_y
_atom_site_fract_z
_atom_type_partial_charge
H0 H 0.30388 0.19545 0.42582 0.0
H1 H 0.3013 0.12622 0.4268 0.0
H2 H 0.28172 0.14614 0.38606 0.0
C3 C 0.30137 0.17865 0.42007 0.0
C4 C 0.29351 0.17319 0.40493 0.0
C5 C 0.30441 0.16189 0.42802 0.0
C6 C 0.30001 0.13972 0.42059 0.0
C7 C 0.29182 0.13386 0.40543 0.0
C8 C 0.28928 0.15103 0.39756 0.0
H9 H 0.83766 0.12346 0.42886 0.0
H10 H 0.90109 0.19553 0.43111 0.0
H11 H 0.87558 0.14765 0.39036 0.0
C12 C 0.85197 0.13767 0.42337 0.0
C13 C 0.8541 0.1331 0.40844 0.0
C14 C 0.86877 0.16017 0.43151 0.0
C15 C 0.88793 0.17834 0.42468 0.0
C16 C 0.89077 0.17389 0.40982 0.0
C17 C 0.87348 0.15137 0.40176 0.0
H18 H 0.83897 0.73076 0.43526 0.0
H19 H 0.90911 0.73465 0.43581 0.0
H20 H 0.88243 0.75778 0.39924 0.0
C21 C 0.8553 0.73473 0.43002 0.0
C22 C 0.85866 0.74465 0.41645 0.0
C23 C 0.87347 0.73112 0.43718 0.0
C24 C 0.89465 0.73663 0.43023 0.0
C25 C 0.89808 0.74642 0.41658 0.0
C26 C 0.87993 0.75022 0.40977 0.0
H27 H 0.08777 0.2656 0.57579 0.0
H28 H 0.15638 0.267 0.57608 0.0
H29 H 0.11498 0.24568 0.61369 0.0
C30 C 0.10186 0.26318 0.58149 0.0
C31 C 0.09934 0.25588 0.59581 0.0
C32 C 0.12243 0.26726 0.57443 0.0
C33 C 0.14062 0.26393 0.58169 0.0
C34 C 0.13824 0.25618 0.59596 0.0
C35 C 0.1176 0.25249 0.60295 0.0
H36 H 0.70203 0.87382 0.58896 0.0
H37 H 0.69625 0.80295 0.58627 0.0
H38 H 0.71797 0.84736 0.62807 0.0
C39 C 0.70279 0.85939 0.5944 0.0
C40 C 0.70993 0.863 0.60967 0.0
C41 C 0.69769 0.83773 0.58593 0.0
C42 C 0.69957 0.81943 0.59285 0.0
C43 C 0.7072 0.82288 0.60802 0.0
C44 C 0.71183 0.84448 0.6164 0.0
H45 H 0.09626 0.80529 0.58118 0.0
H46 H 0.16426 0.87373 0.58291 0.0
H47 H 0.12444 0.85519 0.62104 0.0
C48 C 0.11046 0.82229 0.58732 0.0
C49 C 0.1083 0.82792 0.60211 0.0
C50 C 0.13077 0.83862 0.58037 0.0
C51 C 0.14892 0.86075 0.58835 0.0
C52 C 0.14677 0.86693 0.60301 0.0
C53 C 0.12668 0.85016 0.60991 0.0
H54 H 0.96294 0.52493 0.75858 0.0
H55 H 0.96807 0.45949 0.7585 0.0
H56 H 0.94639 0.47818 0.71814 0.0
C57 C 0.96247 0.50929 0.7526 0.0
C58 C 0.95534 0.50422 0.7373 0.0
C59 C 0.9668 0.49309 0.76042 0.0
C60 C 0.96459 0.47204 0.75264 0.0
C61 C 0.95654 0.46616 0.73751 0.0
C62 C 0.95275 0.48273 0.72982 0.0
H63 H 0.50348 0.45747 0.76256 0.0
H64 H 0.57163 0.5257 0.76494 0.0
H65 H 0.54018 0.47999 0.72353 0.0
C66 C 0.51834 0.47097 0.75703 0.0
C67 C 0.51969 0.46607 0.74202 0.0
C68 C 0.53669 0.49276 0.76519 0.0
C69 C 0.55685 0.50962 0.75835 0.0
C70 C 0.55868 0.50478 0.74335 0.0
C71 C 0.53945 0.48347 0.7352 0.0
H72 H 0.5086 0.0683 0.76981 0.0
H73 H 0.57472 0.06444 0.76974 0.0
H74 H 0.54904 0.08569 0.7319 0.0
C75 C 0.52388 0.06991 0.76422 0.0
C76 C 0.52671 0.0776 0.74996 0.0
C77 C 0.54104 0.06494 0.77146 0.0
C78 C 0.56107 0.0676 0.76417 0.0
C79 C 0.56406 0.07507 0.74989 0.0
C80 C 0.54663 0.07968 0.74284 0.0
H81 H 0.75236 0.59486 0.90947 0.0
H82 H 0.82376 0.60205 0.91037 0.0
H83 H 0.7804 0.57402 0.94654 0.0
C84 C 0.76694 0.59309 0.91508 0.0
C85 C 0.76406 0.58406 0.92892 0.0
C86 C 0.78841 0.59955 0.90833 0.0
C87 C 0.80721 0.59709 0.9156 0.0
C88 C 0.80449 0.58778 0.92942 0.0
C89 C 0.78284 0.58141 0.93597 0.0
H90 H 0.36572 0.20702 0.92214 0.0
H91 H 0.36085 0.13645 0.92041 0.0
H92 H 0.38256 0.18222 0.96159 0.0
C93 C 0.36689 0.19288 0.92766 0.0
C94 C 0.37448 0.19713 0.94289 0.0
C95 C 0.36201 0.17107 0.91936 0.0
C96 C 0.36404 0.1531 0.92668 0.0
C97 C 0.37152 0.15697 0.94189 0.0
C98 C 0.37628 0.17885 0.94992 0.0
H99 H 0.76379 0.1394 0.9142 0.0
H100 H 0.83099 0.20911 0.91792 0.0
H101 H 0.78894 0.18691 0.95497 0.0
C102 C 0.77739 0.15626 0.92075 0.0
C103 C 0.77406 0.16086 0.93546 0.0
C104 C 0.79808 0.17343 0.91439 0.0
C105 C 0.8156 0.1953 0.92294 0.0
C106 C 0.81228 0.20035 0.93755 0.0
C107 C 0.79173 0.18285 0.94377 0.0
H108 H 0.63423 0.85883 0.09309 0.0
H109 H 0.63908 0.79318 0.09277 0.0
H110 H 0.6169 0.81222 0.05267 0.0
C111 C 0.63383 0.84325 0.08708 0.0
C112 C 0.62643 0.83812 0.07187 0.0
C113 C 0.6381 0.82695 0.09478 0.0
C114 C 0.63576 0.80586 0.08694 0.0
C115 C 0.62755 0.80007 0.07182 0.0
C116 C 0.62376 0.81674 0.06427 0.0
H117 H 0.16817 0.79021 0.09511 0.0
H118 H 0.23472 0.86032 0.09782 0.0
H119 H 0.20932 0.81088 0.05773 0.0
C120 C 0.18353 0.80379 0.08995 0.0
C121 C 0.18646 0.7984 0.07536 0.0
C122 C 0.20103 0.82596 0.09818 0.0
C123 C 0.22109 0.84328 0.09144 0.0
C124 C 0.22421 0.83811 0.07676 0.0
C125 C 0.20673 0.81558 0.06884 0.0
H126 H 0.17532 0.40135 0.10431 0.0
H127 H 0.23986 0.39521 0.10215 0.0
H128 H 0.21528 0.42187 0.06634 0.0
C129 C 0.19023 0.40291 0.0983 0.0
C130 C 0.19296 0.41155 0.08435 0.0
C131 C 0.20722 0.39714 0.10477 0.0
C132 C 0.22675 0.39959 0.09707 0.0
C133 C 0.22989 0.40853 0.08313 0.0
C134 C 0.21283 0.41441 0.07689 0.0
H135 H 0.4192 0.9295 0.24239 0.0
H136 H 0.48998 0.93519 0.24289 0.0
H137 H 0.44684 0.90788 0.27925 0.0
C138 C 0.43369 0.92748 0.24791 0.0
C139 C 0.43081 0.91841 0.26174 0.0
C140 C 0.45496 0.93349 0.24104 0.0
C141 C 0.4736 0.93065 0.24822 0.0
C142 C 0.47087 0.92141 0.26206 0.0
C143 C 0.44939 0.91539 0.2687 0.0
H144 H 0.02954 0.53978 0.25513 0.0
H145 H 0.032 0.47275 0.25389 0.0
H146 H 0.04239 0.51423 0.29538 0.0
C147 C 0.03094 0.52589 0.26081 0.0
C148 C 0.03679 0.52978 0.27621 0.0
C149 C 0.02843 0.50494 0.2526 0.0
C150 C 0.03178 0.48783 0.2601 0.0
C151 C 0.03725 0.49136 0.27548 0.0
C152 C 0.0384 0.51165 0.28347 0.0
H153 H 0.42919 0.47211 0.24872 0.0
H154 H 0.49739 0.54028 0.24917 0.0
H155 H 0.45824 0.52433 0.28755 0.0
C156 C 0.44372 0.48927 0.25454 0.0
C157 C 0.4417 0.49615 0.2691 0.0
C158 C 0.46393 0.50505 0.24729 0.0
C159 C 0.48217 0.52761 0.25482 0.0
C160 C 0.48028 0.53459 0.26935 0.0
C161 C 0.46015 0.51868 0.27648 0.0
Eu162 Eu 0.48816 0.98321 0.98773 0.0
Eu163 Eu 0.50909 0.01106 0.0237 0.0
C164 C 0.4873 0.03263 0.99969 0.0
C165 C 0.48267 0.97618 0.94572 0.0
C166 C 0.49526 0.00167 0.94481 0.0
C167 C 0.48735 0.96949 0.9199 0.0
C168 C 0.50373 0.01099 0.9315 0.0
C169 C 0.47879 0.96021 0.93318 0.0
C170 C 0.49997 0.995 0.91888 0.0
C171 C 0.47459 0.96609 0.95981 0.0
O172 O 0.47026 0.98167 0.02441 0.0
O173 O 0.45499 0.96427 1.00026 0.0
C174 C 0.45239 0.96637 0.01439 0.0
O175 O 0.50125 0.95978 0.99801 0.0
O176 O 0.51056 0.0339 0.04326 0.0
O177 O 0.53058 0.01444 0.04428 0.0
O178 O 0.51305 0.97819 0.0221 0.0
C179 C 0.51055 0.96185 0.01161 0.0
O180 O 0.5278 0.01114 0.98742 0.0
O181 O 0.5417 0.03195 0.011 0.0
O182 O 0.49129 0.03049 0.01364 0.0
O183 O 0.49035 0.96319 0.96803 0.0
O184 O 0.46385 0.97535 0.96755 0.0
O185 O 0.48965 0.0196 0.98879 0.0
C186 C 0.51267 0.01791 0.06584 0.0
C187 C 0.50563 0.99397 0.06933 0.0
C188 C 0.5016 0.02648 0.08962 0.0
C189 C 0.49695 0.98653 0.08298 0.0
C190 C 0.5103 0.0339 0.07606 0.0
C191 C 0.49519 0.00287 0.09338 0.0
C192 C 0.52267 0.02683 0.05177 0.0
C193 C 0.54496 0.02817 0.99717 0.0
H194 H 0.49873 0.01436 0.95443 0.0
H195 H 0.48383 0.95665 0.91037 0.0
H196 H 0.51357 0.03072 0.93114 0.0
H197 H 0.46924 0.9405 0.93368 0.0
H198 H 0.5071 0.98111 0.06163 0.0
H199 H 0.50007 0.03939 0.09723 0.0
H200 H 0.49234 0.96828 0.08556 0.0
H201 H 0.51541 0.05232 0.07359 0.0
Eu202 Eu 0.01069 0.50268 0.98949 0.0
Eu203 Eu 0.99051 0.49874 0.02217 0.0
C204 C 0.96707 0.45241 0.99762 0.0
C205 C 0.01809 0.50798 0.94826 0.0
C206 C 0.99448 0.49003 0.9419 0.0
C207 C 0.02605 0.52645 0.92519 0.0
C208 C 0.98688 0.49011 0.92718 0.0
C209 C 0.03365 0.52631 0.93985 0.0
C210 C 0.00268 0.50821 0.91862 0.0
C211 C 0.027 0.50817 0.96359 0.0
O212 O 0.02675 0.49973 0.02535 0.0
O213 O 0.02642 0.48327 0.00216 0.0
C214 C 0.0341 0.48833 0.01629 0.0
O215 O 0.03774 0.53612 0.00488 0.0
O216 O 0.96732 0.47937 0.03928 0.0
O217 O 0.99494 0.51797 0.0437 0.0
O218 O 0.00817 0.53773 0.01678 0.0
C219 C 0.03016 0.5488 0.01254 0.0
O220 O 0.98259 0.51463 0.98728 0.0
O221 O 0.96149 0.50073 0.00765 0.0
O222 O 0.97538 0.4599 0.01162 0.0
O223 O 0.03033 0.52642 0.97283 0.0
O224 O 0.01717 0.4873 0.96935 0.0
O225 O 0.97415 0.4679 0.98758 0.0
C226 C 0.98615 0.4944 0.0641 0.0
C227 C 0.00809 0.51237 0.07243 0.0
C228 C 0.97509 0.47099 0.08532 0.0
C229 C 0.01326 0.50984 0.08711 0.0
C230 C 0.96993 0.4735 0.07063 0.0
C231 C 0.99654 0.48939 0.09381 0.0
C232 C 0.97898 0.49837 0.04922 0.0
C233 C 0.96396 0.50992 0.99488 0.0
H234 H 0.982 0.47587 0.94825 0.0
H235 H 0.03882 0.54046 0.91888 0.0
H236 H 0.96866 0.47597 0.9225 0.0
H237 H 0.05187 0.54039 0.94458 0.0
H238 H 0.02097 0.52882 0.06779 0.0
H239 H 0.96202 0.45488 0.09016 0.0
H240 H 0.0298 0.52444 0.09341 0.0
H241 H 0.95287 0.45943 0.06452 0.0
Eu242 Eu 0.50765 0.49667 0.0229 0.0
Eu243 Eu 0.48727 0.50073 0.98925 0.0
C244 C 0.51474 0.54729 0.0135 0.0
C245 C 0.51399 0.49345 0.0646 0.0
C246 C 0.50857 0.5115 0.06972 0.0
C247 C 0.50493 0.47608 0.08799 0.0
C248 C 0.50156 0.51192 0.08395 0.0
C249 C 0.512 0.47573 0.07382 0.0
C250 C 0.49967 0.4942 0.09327 0.0
C251 C 0.52121 0.49229 0.04964 0.0
O252 O 0.52185 0.49944 0.98683 0.0
O253 O 0.54096 0.5137 0.01054 0.0
C254 C 0.54152 0.50933 0.99638 0.0
O255 O 0.49923 0.46263 0.00833 0.0
O256 O 0.484 0.52125 0.97155 0.0
O257 O 0.46744 0.48175 0.96788 0.0
O258 O 0.46779 0.46142 0.99411 0.0
C259 C 0.47895 0.45032 0.99936 0.0
O260 O 0.46784 0.48458 0.02363 0.0
O261 O 0.45899 0.50022 0.00339 0.0
O262 O 0.51349 0.53926 0.99969 0.0
O263 O 0.50516 0.47373 0.0404 0.0
O264 O 0.53189 0.51275 0.04348 0.0
O265 O 0.50727 0.53217 0.02375 0.0
C266 C 0.48292 0.50394 0.94726 0.0
C267 C 0.48201 0.48353 0.93942 0.0
C268 C 0.49983 0.52756 0.92657 0.0
C269 C 0.48971 0.48506 0.9253 0.0
C270 C 0.492 0.52599 0.94069 0.0
C271 C 0.49856 0.50703 0.91862 0.0
C272 C 0.47328 0.50189 0.96185 0.0
C273 C 0.4536 0.49048 0.01596 0.0
H274 H 0.50968 0.52522 0.06274 0.0
H275 H 0.50402 0.46237 0.09491 0.0
H276 H 0.49738 0.52596 0.0876 0.0
H277 H 0.516 0.4616 0.07005 0.0
H278 H 0.47492 0.46615 0.94404 0.0
H279 H 0.50684 0.54489 0.92188 0.0
H280 H 0.48802 0.46873 0.91947 0.0
H281 H 0.49281 0.54198 0.94641 0.0
Eu282 Eu 0.15622 0.31941 0.32173 0.0
Eu283 Eu 0.17679 0.34463 0.35747 0.0
C284 C 0.15478 0.36741 0.33417 0.0
C285 C 0.15123 0.31133 0.27973 0.0
C286 C 0.15144 0.33221 0.27495 0.0
C287 C 0.16881 0.30751 0.2574 0.0
C288 C 0.16004 0.34049 0.26147 0.0
C289 C 0.16006 0.29915 0.27082 0.0
C290 C 0.16875 0.32818 0.25246 0.0
C291 C 0.1421 0.30211 0.29393 0.0
O292 O 0.13719 0.31801 0.35842 0.0
O293 O 0.12318 0.29916 0.33447 0.0
C294 C 0.11975 0.30214 0.34838 0.0
O295 O 0.17792 0.3034 0.33134 0.0
O296 O 0.1792 0.36771 0.37715 0.0
O297 O 0.19883 0.34778 0.37774 0.0
O298 O 0.17043 0.30621 0.35532 0.0
C299 C 0.17794 0.2974 0.34479 0.0
O300 O 0.19451 0.34966 0.32043 0.0
O301 O 0.2103 0.36248 0.34496 0.0
O302 O 0.15944 0.36521 0.34802 0.0
O303 O 0.15581 0.29682 0.30242 0.0
O304 O 0.13285 0.31321 0.30145 0.0
O305 O 0.1575 0.35532 0.323 0.0
C306 C 0.1814 0.35137 0.39955 0.0
C307 C 0.17712 0.32848 0.40357 0.0
C308 C 0.16695 0.35795 0.42259 0.0
C309 C 0.16812 0.32057 0.41704 0.0
C310 C 0.17607 0.36591 0.40917 0.0
C311 C 0.16309 0.33529 0.42679 0.0
C312 C 0.19129 0.36036 0.38546 0.0
C313 C 0.21287 0.36244 0.33074 0.0
H314 H 0.14481 0.34211 0.28154 0.0
H315 H 0.17573 0.29778 0.25092 0.0
H316 H 0.15935 0.35625 0.25798 0.0
H317 H 0.16022 0.28309 0.27426 0.0
H318 H 0.1809 0.31673 0.39638 0.0
H319 H 0.1629 0.3696 0.42967 0.0
H320 H 0.16567 0.30316 0.41994 0.0
H321 H 0.17903 0.38353 0.40631 0.0
Eu322 Eu 0.67578 0.83625 0.32356 0.0
Eu323 Eu 0.65549 0.83172 0.35623 0.0
C324 C 0.6325 0.78581 0.33153 0.0
C325 C 0.68355 0.84147 0.28238 0.0
C326 C 0.65963 0.82415 0.27617 0.0
C327 C 0.69205 0.8594 0.25918 0.0
C328 C 0.6521 0.82427 0.26146 0.0
C329 C 0.69955 0.85921 0.27384 0.0
C330 C 0.66833 0.8418 0.25276 0.0
C331 C 0.69229 0.84167 0.29772 0.0
O332 O 0.69218 0.83371 0.3594 0.0
O333 O 0.69144 0.81686 0.33628 0.0
C334 C 0.69943 0.82221 0.35035 0.0
O335 O 0.70278 0.87006 0.33872 0.0
O336 O 0.63306 0.81118 0.3733 0.0
O337 O 0.65808 0.85041 0.37764 0.0
O338 O 0.67356 0.87102 0.35141 0.0
C339 C 0.69539 0.88238 0.34691 0.0
O340 O 0.64745 0.84783 0.32136 0.0
O341 O 0.6263 0.8334 0.34166 0.0
O342 O 0.64116 0.79315 0.34548 0.0
O343 O 0.69547 0.85993 0.30691 0.0
O344 O 0.68237 0.82081 0.30348 0.0
O345 O 0.63919 0.80145 0.32157 0.0
C346 C 0.65116 0.82758 0.39821 0.0
C347 C 0.66461 0.84857 0.40842 0.0
C348 C 0.65045 0.80225 0.41747 0.0
C349 C 0.67073 0.84646 0.42298 0.0
C350 C 0.64428 0.80437 0.40284 0.0
C351 C 0.66349 0.82327 0.42777 0.0
C352 C 0.64323 0.83031 0.38318 0.0
C353 C 0.62871 0.8427 0.32893 0.0
H354 H 0.64683 0.81047 0.28265 0.0
H355 H 0.70512 0.87292 0.25276 0.0
H356 H 0.63363 0.81064 0.25687 0.0
H357 H 0.71803 0.87279 0.27847 0.0
H358 H 0.66992 0.86669 0.40525 0.0
H359 H 0.64479 0.78412 0.42074 0.0
H360 H 0.68037 0.86303 0.43062 0.0
H361 H 0.63381 0.78781 0.39527 0.0
Eu362 Eu 0.17423 0.82952 0.35569 0.0
Eu363 Eu 0.15508 0.83514 0.32241 0.0
C364 C 0.18068 0.88007 0.34738 0.0
C365 C 0.18008 0.82626 0.39746 0.0
C366 C 0.17369 0.84366 0.40239 0.0
C367 C 0.172 0.80944 0.42105 0.0
C368 C 0.16671 0.84406 0.41664 0.0
C369 C 0.17904 0.80911 0.40686 0.0
C370 C 0.16583 0.82696 0.42615 0.0
C371 C 0.18759 0.82536 0.38256 0.0
O372 O 0.18893 0.83252 0.31987 0.0
O373 O 0.20777 0.84764 0.34351 0.0
C374 C 0.20859 0.84279 0.32944 0.0
O375 O 0.16707 0.79603 0.34097 0.0
O376 O 0.15473 0.85761 0.30517 0.0
O377 O 0.13339 0.818 0.30116 0.0
O378 O 0.13662 0.79518 0.32575 0.0
C379 C 0.14747 0.784 0.33139 0.0
O380 O 0.13346 0.81326 0.35484 0.0
O381 O 0.12688 0.83402 0.33691 0.0
O382 O 0.18129 0.873 0.33369 0.0
O383 O 0.172 0.80669 0.37324 0.0
O384 O 0.19791 0.84587 0.37644 0.0
O385 O 0.17181 0.86401 0.35704 0.0
C386 C 0.15048 0.83961 0.28059 0.0
C387 C 0.14246 0.81782 0.27127 0.0
C388 C 0.17353 0.86307 0.2612 0.0
C389 C 0.14978 0.81864 0.25708 0.0
C390 C 0.16612 0.86225 0.27539 0.0
C391 C 0.16527 0.84128 0.25181 0.0
C392 C 0.1417 0.8387 0.29536 0.0
C393 C 0.11967 0.82046 0.34795 0.0
H394 H 0.17408 0.85694 0.39527 0.0
H395 H 0.17188 0.79623 0.42813 0.0
H396 H 0.16181 0.85762 0.42014 0.0
H397 H 0.18382 0.79549 0.40325 0.0
H398 H 0.13018 0.80006 0.27484 0.0
H399 H 0.18572 0.88082 0.25761 0.0
H400 H 0.1427 0.8015 0.2501 0.0
H401 H 0.17252 0.87939 0.28224 0.0
Eu402 Eu 0.82215 0.6517 0.65403 0.0
Eu403 Eu 0.84577 0.67881 0.6917 0.0
C404 C 0.82381 0.70018 0.6695 0.0
C405 C 0.81534 0.65096 0.61199 0.0
C406 C 0.82897 0.67635 0.61084 0.0
C407 C 0.821 0.64292 0.58658 0.0
C408 C 0.8384 0.68493 0.59756 0.0
C409 C 0.81146 0.63439 0.59977 0.0
C410 C 0.83459 0.66828 0.5853 0.0
C411 C 0.80609 0.64119 0.62595 0.0
O412 O 0.80513 0.65629 0.69171 0.0
O413 O 0.79039 0.63476 0.66809 0.0
C414 C 0.78741 0.64014 0.68179 0.0
O415 O 0.82994 0.62173 0.65963 0.0
O416 O 0.86054 0.70142 0.713 0.0
O417 O 0.85566 0.66463 0.71036 0.0
O418 O 0.84252 0.64645 0.67992 0.0
C419 C 0.84063 0.62719 0.67294 0.0
O420 O 0.86355 0.67565 0.65533 0.0
O421 O 0.87785 0.69882 0.67859 0.0
O422 O 0.82657 0.69792 0.68358 0.0
O423 O 0.81743 0.6315 0.63268 0.0
O424 O 0.80097 0.65435 0.63509 0.0
O425 O 0.83262 0.69151 0.65954 0.0
C426 C 0.84897 0.67765 0.73368 0.0
C427 C 0.8403 0.65422 0.73853 0.0
C428 C 0.83787 0.69054 0.75622 0.0
C429 C 0.83061 0.64907 0.75208 0.0
C430 C 0.8475 0.69569 0.74265 0.0
C431 C 0.82957 0.66726 0.76117 0.0
C432 C 0.86037 0.68347 0.71964 0.0
C433 C 0.88098 0.69314 0.665 0.0
H434 H 0.83251 0.68952 0.62019 0.0
H435 H 0.81742 0.62961 0.5773 0.0
H436 H 0.84896 0.70458 0.59695 0.0
H437 H 0.80112 0.61474 0.60047 0.0
H438 H 0.84137 0.63992 0.73201 0.0
H439 H 0.83715 0.70489 0.76294 0.0
H440 H 0.82476 0.63109 0.75567 0.0
H441 H 0.85412 0.71392 0.73927 0.0
Eu442 Eu 0.34376 0.1704 0.65703 0.0
Eu443 Eu 0.32136 0.16399 0.68938 0.0
C444 C 0.30074 0.11843 0.6645 0.0
C445 C 0.35203 0.17619 0.61592 0.0
C446 C 0.32797 0.15885 0.60994 0.0
C447 C 0.36045 0.19265 0.5923 0.0
C448 C 0.32031 0.15826 0.59513 0.0
C449 C 0.36808 0.19317 0.60704 0.0
C450 C 0.33654 0.17509 0.58612 0.0
C451 C 0.36084 0.17715 0.63136 0.0
O452 O 0.35615 0.16262 0.69347 0.0
O453 O 0.36263 0.154 0.6698 0.0
C454 C 0.36681 0.15523 0.68418 0.0
O455 O 0.37007 0.20352 0.67279 0.0
O456 O 0.29715 0.14393 0.70594 0.0
O457 O 0.32447 0.18254 0.71088 0.0
O458 O 0.33998 0.20356 0.68496 0.0
C459 C 0.36212 0.21532 0.68093 0.0
O460 O 0.31512 0.18171 0.65483 0.0
O461 O 0.29246 0.16517 0.67427 0.0
O462 O 0.30772 0.12569 0.67863 0.0
O463 O 0.36238 0.19479 0.64042 0.0
O464 O 0.35213 0.15634 0.63713 0.0
O465 O 0.30835 0.13411 0.65454 0.0
C466 C 0.31538 0.15826 0.73092 0.0
C467 C 0.33724 0.1761 0.73939 0.0
C468 C 0.30432 0.13411 0.75183 0.0
C469 C 0.34234 0.17315 0.75398 0.0
C470 C 0.29922 0.13704 0.73721 0.0
C471 C 0.32566 0.1524 0.76046 0.0
C472 C 0.30841 0.16263 0.7161 0.0
C473 C 0.29563 0.17553 0.66189 0.0
H474 H 0.31518 0.14575 0.61668 0.0
H475 H 0.37354 0.20563 0.58564 0.0
H476 H 0.3017 0.14469 0.59075 0.0
H477 H 0.38666 0.20674 0.6115 0.0
H478 H 0.3501 0.19277 0.73494 0.0
H479 H 0.29127 0.11779 0.7565 0.0
H480 H 0.3588 0.18767 0.7604 0.0
H481 H 0.28226 0.12303 0.73097 0.0
Eu482 Eu 0.84132 0.16268 0.68965 0.0
Eu483 Eu 0.82093 0.16597 0.65601 0.0
C484 C 0.84804 0.21294 0.67997 0.0
C485 C 0.84833 0.16031 0.73142 0.0
C486 C 0.84173 0.17762 0.73622 0.0
C487 C 0.84087 0.14413 0.75522 0.0
C488 C 0.83494 0.17828 0.7505 0.0
C489 C 0.84772 0.14355 0.741 0.0
C490 C 0.83445 0.16154 0.76018 0.0
C491 C 0.85534 0.15891 0.71643 0.0
O492 O 0.85488 0.16337 0.65384 0.0
O493 O 0.87456 0.17973 0.67713 0.0
C494 C 0.87501 0.17439 0.66306 0.0
O495 O 0.83173 0.12783 0.67547 0.0
O496 O 0.81722 0.18623 0.63829 0.0
O497 O 0.80195 0.14689 0.6345 0.0
O498 O 0.80044 0.12687 0.66125 0.0
C499 C 0.81116 0.11551 0.66674 0.0
O500 O 0.80175 0.15139 0.69076 0.0
O501 O 0.79237 0.16537 0.66988 0.0
O502 O 0.84717 0.20475 0.66625 0.0
O503 O 0.83924 0.14017 0.70733 0.0
O504 O 0.86579 0.17922 0.71012 0.0
O505 O 0.84045 0.19791 0.69026 0.0
C506 C 0.81705 0.16953 0.614 0.0
C507 C 0.81631 0.14937 0.60595 0.0
C508 C 0.83397 0.19377 0.59355 0.0
C509 C 0.82408 0.15132 0.59185 0.0
C510 C 0.82607 0.19178 0.60766 0.0
C511 C 0.83282 0.17348 0.58539 0.0
C512 C 0.80718 0.16694 0.62853 0.0
C513 C 0.78726 0.15653 0.6827 0.0
H514 H 0.84176 0.19056 0.72894 0.0
H515 H 0.84104 0.13119 0.76242 0.0
H516 H 0.82984 0.19173 0.75389 0.0
H517 H 0.85263 0.12999 0.73749 0.0
H518 H 0.80925 0.13184 0.6104 0.0
H519 H 0.84087 0.21121 0.58901 0.0
H520 H 0.8225 0.13516 0.58584 0.0
H521 H 0.82674 0.20759 0.61354 0.0
C522 C 0.26983 0.86614 0.07832 0.0
C523 C 0.24672 0.85487 0.07003 0.0
C524 C 0.29122 0.87957 0.07158 0.0
C525 C 0.31537 0.88343 0.03601 0.0
H526 H 0.36911 0.9459 0.05437 0.0
C527 C 0.40641 0.93987 0.00972 0.0
C528 C 0.42796 0.95166 0.01958 0.0
C529 C 0.38338 0.92822 0.01508 0.0
C530 C 0.35437 0.92833 0.04916 0.0
H531 H 0.22796 0.84992 0.04827 0.0
H532 H 0.26543 0.87302 0.03646 0.0
H533 H 0.33064 0.92619 0.06547 0.0
H534 H 0.44221 0.95936 0.04275 0.0
H535 H 0.40249 0.93878 0.05194 0.0
H536 H 0.33935 0.88519 0.01993 0.0
C537 C 0.2669 0.87123 0.04816 0.0
C538 C 0.33233 0.91714 0.05551 0.0
C539 C 0.24549 0.85803 0.05493 0.0
C540 C 0.42603 0.95076 0.03481 0.0
C541 C 0.40318 0.9391 0.04013 0.0
C542 C 0.33754 0.89454 0.02971 0.0
C543 C 0.28996 0.88184 0.05638 0.0
C544 C 0.31272 0.89446 0.04909 0.0
C545 C 0.38157 0.92812 0.03038 0.0
C546 C 0.35741 0.91695 0.03636 0.0
H547 H 0.27151 0.86374 0.0899 0.0
H548 H 0.3088 0.88737 0.07815 0.0
H549 H 0.30058 0.8658 0.03092 0.0
H550 H 0.40728 0.94031 0.99792 0.0
H551 H 0.36704 0.91994 0.00728 0.0
C552 C 0.1853 0.4429 0.07369 0.0
C553 C 0.176 0.419 0.07777 0.0
C554 C 0.1696 0.44994 0.06703 0.0
C555 C 0.11138 0.42637 0.04442 0.0
H556 H 0.11505 0.48694 0.05972 0.0
C557 C 0.04274 0.45512 0.02186 0.0
C558 C 0.05071 0.48025 0.02226 0.0
C559 C 0.05793 0.44728 0.02835 0.0
C560 C 0.11403 0.47021 0.05506 0.0
H561 H 0.14318 0.38363 0.07805 0.0
H562 H 0.11558 0.39582 0.06603 0.0
H563 H 0.14149 0.47392 0.07165 0.0
H564 H 0.08084 0.51701 0.02907 0.0
H565 H 0.10812 0.50361 0.03957 0.0
H566 H 0.08462 0.42297 0.02751 0.0
C567 C 0.13501 0.40911 0.06812 0.0
C568 C 0.12909 0.46267 0.06202 0.0
C569 C 0.1507 0.4022 0.07506 0.0
C570 C 0.07431 0.49751 0.0288 0.0
C571 C 0.08979 0.48973 0.03493 0.0
C572 C 0.09659 0.43413 0.03727 0.0
C573 C 0.14434 0.43309 0.06408 0.0
C574 C 0.12791 0.44068 0.05679 0.0
C575 C 0.08168 0.46447 0.03507 0.0
C576 C 0.09767 0.45619 0.0425 0.0
H577 H 0.20475 0.45617 0.0757 0.0
H578 H 0.17729 0.46848 0.06395 0.0
H579 H 0.11031 0.40945 0.04007 0.0
H580 H 0.02445 0.44153 0.01693 0.0
H581 H 0.05074 0.42772 0.0284 0.0
C582 C 0.60478 0.75453 0.07219 0.0
C583 C 0.61872 0.77495 0.06456 0.0
C584 C 0.5937 0.73077 0.06508 0.0
C585 C 0.59472 0.69276 0.03345 0.0
H586 H 0.52817 0.64833 0.04188 0.0
C587 C 0.53733 0.59104 0.0076 0.0
C588 C 0.52544 0.57394 0.01771 0.0
C589 C 0.54819 0.61627 0.01182 0.0
C590 C 0.54677 0.66048 0.03946 0.0
H591 H 0.63243 0.78632 0.04353 0.0
H592 H 0.61274 0.74445 0.031 0.0
H593 H 0.54881 0.69135 0.05194 0.0
H594 H 0.51542 0.56993 0.04011 0.0
H595 H 0.53428 0.61382 0.04742 0.0
H596 H 0.59268 0.66162 0.02112 0.0
C597 C 0.61062 0.74703 0.04255 0.0
C598 C 0.5586 0.6851 0.04522 0.0
C599 C 0.62178 0.77095 0.0497 0.0
C600 C 0.52439 0.58258 0.03205 0.0
C601 C 0.53508 0.60774 0.03621 0.0
C602 C 0.58282 0.66804 0.02764 0.0
C603 C 0.59608 0.72675 0.05013 0.0
C604 C 0.58291 0.70135 0.04261 0.0
C605 C 0.54715 0.62486 0.02617 0.0
C606 C 0.55894 0.65155 0.03091 0.0
H607 H 0.60157 0.75686 0.08354 0.0
H608 H 0.58296 0.71549 0.07129 0.0
H609 H 0.61347 0.70488 0.03128 0.0
H610 H 0.53852 0.58497 0.99648 0.0
H611 H 0.55726 0.62906 0.00383 0.0
C612 C 0.85426 0.2366 0.94594 0.0
C613 C 0.82862 0.22497 0.94576 0.0
C614 C 0.86927 0.26044 0.95302 0.0
C615 C 0.86714 0.31632 0.9632 0.0
H616 H 0.92795 0.33749 0.98774 0.0
C617 C 0.93917 0.41827 0.97823 0.0
C618 C 0.95026 0.42595 0.99285 0.0
C619 C 0.92406 0.39334 0.97342 0.0
C620 C 0.91091 0.33177 0.98101 0.0
H621 H 0.79864 0.22913 0.95286 0.0
H622 H 0.82475 0.27047 0.96522 0.0
H623 H 0.90227 0.29418 0.97784 0.0
H624 H 0.95411 0.4134 0.01393 0.0
H625 H 0.92757 0.36964 0.00546 0.0
H626 H 0.87565 0.35372 0.96626 0.0
C627 C 0.83328 0.26125 0.95992 0.0
C628 C 0.89636 0.30707 0.97523 0.0
C629 C 0.81835 0.23747 0.95296 0.0
C630 C 0.94577 0.40808 0.0026 0.0
C631 C 0.93074 0.38304 0.99774 0.0
C632 C 0.88171 0.34094 0.96886 0.0
C633 C 0.85886 0.27313 0.95986 0.0
C634 C 0.87435 0.29914 0.96625 0.0
C635 C 0.91974 0.37544 0.98309 0.0
C636 C 0.90382 0.34898 0.97774 0.0
H637 H 0.86265 0.22734 0.94052 0.0
H638 H 0.88895 0.26922 0.95273 0.0
H639 H 0.8504 0.31081 0.95619 0.0
H640 H 0.94225 0.43151 0.97041 0.0
H641 H 0.91608 0.38804 0.96202 0.0
C642 C 0.73132 0.59247 0.93666 0.0
C643 C 0.74127 0.57692 0.93597 0.0
C644 C 0.71022 0.58597 0.9437 0.0
C645 C 0.67279 0.5453 0.97075 0.0
H646 H 0.62253 0.5572 0.95359 0.0
C647 C 0.57564 0.50281 0.98991 0.0
C648 C 0.56529 0.5179 0.99075 0.0
C649 C 0.59791 0.51088 0.9839 0.0
C650 C 0.63653 0.55402 0.95862 0.0
H651 H 0.73658 0.54211 0.94169 0.0
H652 H 0.6996 0.53059 0.9538 0.0
H653 H 0.65971 0.56961 0.94155 0.0
H654 H 0.56966 0.55311 0.98645 0.0
H655 H 0.60876 0.56747 0.97606 0.0
H656 H 0.6494 0.52943 0.98773 0.0
C657 C 0.7084 0.54808 0.94925 0.0
C658 C 0.65785 0.56115 0.95173 0.0
C659 C 0.72953 0.55463 0.94228 0.0
C660 C 0.57746 0.54123 0.98579 0.0
C661 C 0.59968 0.54933 0.97979 0.0
C662 C 0.65142 0.5381 0.97762 0.0
C663 C 0.69857 0.56373 0.95013 0.0
C664 C 0.67618 0.55676 0.95767 0.0
C665 C 0.61004 0.53415 0.97864 0.0
C666 C 0.63303 0.5423 0.9716 0.0
H667 H 0.74015 0.60988 0.93201 0.0
H668 H 0.70329 0.59858 0.94434 0.0
H669 H 0.68675 0.54204 0.97577 0.0
H670 H 0.56634 0.48469 0.99368 0.0
H671 H 0.6053 0.49868 0.98302 0.0
C672 C 0.3734 0.13541 0.96386 0.0
C673 C 0.37737 0.13971 0.94905 0.0
C674 C 0.382 0.12182 0.97107 0.0
C675 C 0.40229 0.07722 0.9647 0.0
H676 H 0.44928 0.11163 0.99927 0.0
C677 C 0.47405 0.052 0.98104 0.0
C678 C 0.4774 0.04863 0.99588 0.0
C679 C 0.46065 0.06311 0.97694 0.0
C680 C 0.43591 0.10164 0.98978 0.0
H681 H 0.39306 0.13245 0.93017 0.0
H682 H 0.40696 0.10801 0.94252 0.0
H683 H 0.42482 0.12866 0.98911 0.0
H684 H 0.47094 0.05604 0.01823 0.0
H685 H 0.44746 0.07561 0.01096 0.0
H686 H 0.41358 0.0505 0.96509 0.0
C687 C 0.39723 0.1152 0.94854 0.0
C688 C 0.42189 0.11131 0.98402 0.0
C689 C 0.38908 0.1291 0.94144 0.0
C690 C 0.46856 0.05823 0.00668 0.0
C691 C 0.4551 0.06941 0.00254 0.0
C692 C 0.41614 0.06753 0.97047 0.0
C693 C 0.39424 0.11188 0.96348 0.0
C694 C 0.40555 0.09953 0.97116 0.0
C695 C 0.45029 0.07109 0.98756 0.0
C696 C 0.43369 0.08008 0.98274 0.0
H697 H 0.36411 0.14299 0.96999 0.0
H698 H 0.37937 0.11932 0.98258 0.0
H699 H 0.38956 0.06768 0.95489 0.0
H700 H 0.48093 0.04519 0.97245 0.0
H701 H 0.45785 0.06486 0.96535 0.0
C702 C 0.72825 0.13427 0.93357 0.0
C703 C 0.75121 0.14399 0.94185 0.0
C704 C 0.70661 0.12062 0.94006 0.0
C705 C 0.68234 0.11204 0.97611 0.0
H706 H 0.62655 0.05415 0.95474 0.0
C707 C 0.591 0.05305 0.00156 0.0
C708 C 0.56929 0.04334 0.99198 0.0
C709 C 0.61389 0.06511 0.99605 0.0
C710 C 0.64185 0.07045 0.96081 0.0
H711 H 0.76944 0.14607 0.96326 0.0
H712 H 0.73157 0.12223 0.97459 0.0
H713 H 0.66507 0.07467 0.9438 0.0
H714 H 0.55447 0.0396 0.96928 0.0
H715 H 0.59409 0.06123 0.95982 0.0
H716 H 0.65894 0.10811 0.99301 0.0
C717 C 0.73036 0.12551 0.96315 0.0
C718 C 0.66395 0.08215 0.95454 0.0
C719 C 0.75202 0.1391 0.95665 0.0
C720 C 0.57089 0.04666 0.97693 0.0
C721 C 0.59363 0.05889 0.97147 0.0
C722 C 0.66013 0.1004 0.98236 0.0
C723 C 0.70742 0.11641 0.95497 0.0
C724 C 0.68438 0.10321 0.96204 0.0
C725 C 0.61544 0.06785 0.98088 0.0
C726 C 0.63951 0.07963 0.9747 0.0
H727 H 0.72697 0.13805 0.92224 0.0
H728 H 0.68922 0.11411 0.93352 0.0
H729 H 0.6977 0.1284 0.9821 0.0
H730 H 0.59029 0.05052 0.01319 0.0
H731 H 0.63032 0.07163 0.00358 0.0
C732 C 0.82921 0.58794 0.95216 0.0
C733 C 0.82347 0.58341 0.93673 0.0
C734 C 0.84527 0.58161 0.95917 0.0
C735 C 0.89398 0.5673 0.95269 0.0
H736 H 0.87299 0.5298 0.98631 0.0
C737 C 0.94223 0.51693 0.9737 0.0
C738 C 0.94597 0.51654 0.98897 0.0
C739 C 0.92712 0.52535 0.96799 0.0
C740 C 0.87934 0.54055 0.97708 0.0
H741 H 0.83062 0.56911 0.91657 0.0
H742 H 0.85895 0.55851 0.92877 0.0
H743 H 0.84822 0.54563 0.97524 0.0
H744 H 0.93647 0.52425 0.01027 0.0
H745 H 0.91051 0.5397 1.00034 0.0
H746 H 0.92517 0.56257 0.95452 0.0
C747 C 0.85106 0.56704 0.93544 0.0
C748 C 0.86511 0.54961 0.97073 0.0
C749 C 0.83487 0.5732 0.92844 0.0
C750 C 0.93375 0.52417 0.99843 0.0
C751 C 0.91887 0.533 0.99272 0.0
C752 C 0.9083 0.55847 0.9591 0.0
C753 C 0.85614 0.57082 0.9509 0.0
C754 C 0.8721 0.56275 0.95832 0.0
C755 C 0.91569 0.53407 0.97742 0.0
C756 C 0.90096 0.54458 0.97121 0.0
H757 H 0.82111 0.5962 0.95886 0.0
H758 H 0.84914 0.5851 0.97108 0.0
H759 H 0.90007 0.57774 0.9433 0.0
H760 H 0.95116 0.51085 0.96612 0.0
H761 H 0.92455 0.52516 0.95614 0.0
C762 C 0.40409 0.23253 0.96136 0.0
C763 C 0.38298 0.22161 0.95109 0.0
C764 C 0.41357 0.25645 0.96804 0.0
C765 C 0.41754 0.31381 0.96025 0.0
H766 H 0.43937 0.33493 0.00193 0.0
C767 C 0.44751 0.41146 0.98448 0.0
C768 C 0.46824 0.42372 0.99496 0.0
C769 C 0.43729 0.38652 0.97996 0.0
C770 C 0.43365 0.32933 0.99024 0.0
H771 H 0.35465 0.22698 0.9404 0.0
H772 H 0.37172 0.2691 0.95175 0.0
H773 H 0.42 0.29123 0.9929 0.0
H774 H 0.49433 0.41926 0.00907 0.0
H775 H 0.47645 0.3754 1.00101 0.0
H776 H 0.4315 0.35167 0.95742 0.0
C777 C 0.38086 0.25902 0.95456 0.0
C778 C 0.42247 0.30436 0.98511 0.0
C779 C 0.37117 0.23496 0.94803 0.0
C780 C 0.47839 0.41034 1.00094 0.0
C781 C 0.46808 0.38522 0.9964 0.0
C782 C 0.42885 0.33869 0.96534 0.0
C783 C 0.40238 0.27011 0.96442 0.0
C784 C 0.41408 0.29639 0.97008 0.0
C785 C 0.44753 0.37313 0.98575 0.0
C786 C 0.43677 0.34673 0.98041 0.0
H787 H 0.41398 0.22304 0.96381 0.0
H788 H 0.43031 0.26467 0.9755 0.0
H789 H 0.41178 0.30822 0.94856 0.0
H790 H 0.43913 0.42113 0.97965 0.0
H791 H 0.4212 0.37768 0.97195 0.0
C792 C 0.1797 0.75979 0.06171 0.0
C793 C 0.16987 0.77374 0.0675 0.0
C794 C 0.16426 0.73591 0.05503 0.0
C795 C 0.1028 0.69386 0.03663 0.0
H796 H 0.11587 0.6432 0.04866 0.0
C797 C 0.03609 0.58991 0.02086 0.0
C798 C 0.04633 0.57533 0.01696 0.0
C799 C 0.05116 0.61468 0.02609 0.0
C800 C 0.1122 0.65719 0.04503 0.0
H801 H 0.13638 0.77411 0.07066 0.0
H802 H 0.10913 0.73217 0.05868 0.0
H803 H 0.14182 0.68551 0.05982 0.0
H804 H 0.08028 0.57519 0.01518 0.0
H805 H 0.10676 0.6186 0.02447 0.0
H806 H 0.07316 0.66548 0.02182 0.0
C807 C 0.12881 0.73976 0.05938 0.0
C808 C 0.12699 0.68137 0.05145 0.0
C809 C 0.14431 0.76361 0.06627 0.0
C810 C 0.07194 0.58607 0.01807 0.0
C811 C 0.08704 0.61081 0.02349 0.0
C812 C 0.08802 0.66964 0.03016 0.0
C813 C 0.13868 0.72561 0.05388 0.0
C814 C 0.1225 0.69994 0.04727 0.0
C815 C 0.07677 0.62529 0.02769 0.0
C816 C 0.09264 0.65109 0.03427 0.0
H817 H 0.19936 0.76715 0.06267 0.0
H818 H 0.17233 0.72547 0.05077 0.0
H819 H 0.0991 0.7079 0.03313 0.0
H820 H 0.01638 0.58211 0.02001 0.0
H821 H 0.04272 0.62531 0.02932 0.0
C822 C 0.24992 0.40919 0.06004 0.0
C823 C 0.25182 0.41355 0.07551 0.0
C824 C 0.2709 0.41629 0.05275 0.0
C825 C 0.3356 0.43256 0.05842 0.0
H826 H 0.34393 0.47024 0.02504 0.0
C827 C 0.42919 0.4854 0.03707 0.0
C828 C 0.4303 0.48482 0.02176 0.0
C829 C 0.40682 0.47698 0.04286 0.0
C830 C 0.34176 0.45947 0.03421 0.0
H831 H 0.27734 0.42843 0.09542 0.0
H832 H 0.31381 0.44032 0.08274 0.0
H833 H 0.30558 0.4532 0.0365 0.0
H834 H 0.40911 0.47592 1.00045 0.0
H835 H 0.36959 0.46054 0.01058 0.0
H836 H 0.37152 0.43855 0.05617 0.0
C837 C 0.29605 0.43133 0.07626 0.0
C838 C 0.3198 0.44972 0.04078 0.0
C839 C 0.27512 0.4244 0.08354 0.0
C840 C 0.40871 0.47666 0.01232 0.0
C841 C 0.38613 0.46786 0.01813 0.0
C842 C 0.3574 0.44212 0.05182 0.0
C843 C 0.29421 0.4277 0.06078 0.0
C844 C 0.31668 0.43649 0.0531 0.0
C845 C 0.38489 0.46736 0.03347 0.0
C846 C 0.36097 0.4561 0.03982 0.0
H847 H 0.23222 0.40049 0.05353 0.0
H848 H 0.2689 0.41292 0.04083 0.0
H849 H 0.33354 0.42207 0.06773 0.0
H850 H 0.44563 0.49196 0.04462 0.0
H851 H 0.40669 0.47764 0.05474 0.0
C852 C 0.59465 0.84033 0.05577 0.0
C853 C 0.61739 0.85264 0.06445 0.0
C854 C 0.58504 0.85346 0.04931 0.0
C855 C 0.58505 0.91068 0.05345 0.0
H856 H 0.55437 0.89015 0.013 0.0
C857 C 0.54661 0.96243 0.02323 0.0
C858 C 0.52323 0.94862 0.01536 0.0
C859 C 0.55861 0.95093 0.02883 0.0
C860 C 0.5626 0.89581 0.02435 0.0
H861 H 0.64785 0.88835 0.07337 0.0
H862 H 0.63077 0.91162 0.06195 0.0
H863 H 0.57701 0.87157 0.02331 0.0
H864 H 0.49417 0.91218 0.00661 0.0
H865 H 0.51557 0.89155 0.01648 0.0
H866 H 0.57049 0.93484 0.0545 0.0
C867 C 0.62059 0.89171 0.06017 0.0
C868 C 0.57569 0.88539 0.0302 0.0
C869 C 0.63033 0.87847 0.06665 0.0
C870 C 0.51227 0.92306 0.01259 0.0
C871 C 0.52442 0.9114 0.01827 0.0
C872 C 0.57196 0.92114 0.04758 0.0
C873 C 0.59787 0.8792 0.05143 0.0
C874 C 0.58671 0.89248 0.04484 0.0
C875 C 0.54752 0.92534 0.02664 0.0
C876 C 0.56051 0.91363 0.03301 0.0
H877 H 0.58388 0.82043 0.05429 0.0
H878 H 0.56719 0.8434 0.04295 0.0
H879 H 0.59314 0.91621 0.06483 0.0
H880 H 0.55552 0.98228 0.02529 0.0
H881 H 0.5766 0.96212 0.03491 0.0
C882 C 0.93621 0.20286 0.41125 0.0
C883 C 0.91299 0.19138 0.40306 0.0
C884 C 0.95746 0.21668 0.40446 0.0
C885 C 0.98134 0.22102 0.36877 0.0
H886 H 0.03558 0.28281 0.38754 0.0
C887 C 0.07367 0.27657 0.34325 0.0
C888 C 0.09499 0.28768 0.35329 0.0
C889 C 0.05041 0.26529 0.34838 0.0
C890 C 0.02069 0.26545 0.3822 0.0
H891 H 0.89392 0.18669 0.38144 0.0
H892 H 0.93118 0.21045 0.36954 0.0
H893 H 0.9969 0.26343 0.39846 0.0
H894 H 0.10856 0.29453 0.37655 0.0
H895 H 0.06843 0.2746 0.38533 0.0
H896 H 0.00539 0.22264 0.35275 0.0
C897 C 0.93282 0.2085 0.3812 0.0
C898 C -0.00148 0.25444 0.38844 0.0
C899 C 0.91153 0.19489 0.38803 0.0
C900 C 0.09256 0.28646 0.36848 0.0
C901 C 0.06949 0.27517 0.37355 0.0
C902 C 0.00364 0.23196 0.36257 0.0
C903 C 0.95601 0.21919 0.3893 0.0
C904 C 0.97874 0.23194 0.38192 0.0
C905 C 0.04811 0.26489 0.36362 0.0
C906 C 0.02372 0.25409 0.36938 0.0
H907 H 0.93813 0.20024 0.42276 0.0
H908 H 0.97511 0.22453 0.41095 0.0
H909 H 0.96644 0.20353 0.36358 0.0
H910 H 0.07493 0.27732 0.33149 0.0
H911 H 0.03429 0.25756 0.34043 0.0
C912 C 0.84986 0.77551 0.40628 0.0
C913 C 0.84119 0.75135 0.40976 0.0
C914 C 0.83377 0.78223 0.39989 0.0
C915 C 0.77709 0.75969 0.3766 0.0
H916 H 0.77617 0.81614 0.39514 0.0
C917 C 0.70895 0.78903 0.3541 0.0
C918 C 0.71588 0.81393 0.35631 0.0
C919 C 0.72381 0.78075 0.3605 0.0
C920 C 0.77645 0.80065 0.38959 0.0
H921 H 0.80904 0.71521 0.40925 0.0
H922 H 0.78071 0.72692 0.39762 0.0
H923 H 0.80264 0.80271 0.40651 0.0
H924 H 0.74394 0.84997 0.36624 0.0
H925 H 0.77087 0.83607 0.37653 0.0
H926 H 0.75191 0.75817 0.35928 0.0
C927 C 0.79999 0.7406 0.39999 0.0
C928 C 0.79148 0.79282 0.39624 0.0
C929 C 0.81609 0.73396 0.40668 0.0
C930 C 0.73819 0.83061 0.36457 0.0
C931 C 0.75344 0.8225 0.37058 0.0
C932 C 0.76243 0.76784 0.36974 0.0
C933 C 0.80873 0.76485 0.39663 0.0
C934 C 0.79195 0.77231 0.38981 0.0
C935 C 0.74628 0.79735 0.3689 0.0
C936 C 0.76191 0.78851 0.37612 0.0
H937 H 0.86913 0.78927 0.40863 0.0
H938 H 0.84094 0.801 0.39733 0.0
H939 H 0.77735 0.74395 0.37137 0.0
H940 H 0.69163 0.77584 0.34783 0.0
H941 H 0.71729 0.76123 0.35912 0.0
C942 C 0.26513 0.08871 0.40575 0.0
C943 C 0.28191 0.10839 0.39857 0.0
C944 C 0.25486 0.06459 0.39935 0.0
C945 C 0.24188 0.0265 0.36411 0.0
H946 H 0.23428 0.97734 0.3901 0.0
C947 C 0.20683 0.92435 0.34337 0.0
C948 C 0.19127 0.90652 0.35214 0.0
C949 C 0.21806 0.94938 0.34828 0.0
C950 C 0.23598 0.99077 0.38271 0.0
H951 H 0.30075 0.11841 0.37891 0.0
H952 H 0.28306 0.07583 0.36773 0.0
H953 H 0.25444 0.02031 0.39995 0.0
H954 H 0.17444 0.90092 0.37261 0.0
H955 H 0.19354 0.94455 0.38102 0.0
H956 H 0.22328 0.99673 0.34685 0.0
C957 C 0.27775 0.0792 0.37829 0.0
C958 C 0.2476 0.01543 0.38835 0.0
C959 C 0.28797 0.10349 0.3847 0.0
C960 C 0.18657 0.91421 0.36569 0.0
C961 C 0.19762 0.93921 0.37054 0.0
C962 C 0.23021 0.00171 0.35843 0.0
C963 C 0.26119 0.05948 0.38562 0.0
C964 C 0.25037 0.03356 0.37919 0.0
C965 C 0.21382 0.95708 0.36201 0.0
C966 C 0.22683 0.98354 0.36774 0.0
H967 H 0.25955 0.09199 0.41624 0.0
H968 H 0.24165 0.04991 0.4051 0.0
H969 H 0.24358 0.04002 0.35678 0.0
H970 H 0.2109 0.91898 0.33289 0.0
H971 H 0.23059 0.96264 0.34151 0.0
C972 C 0.50119 0.57999 0.26926 0.0
C973 C 0.49774 0.55965 0.27642 0.0
C974 C 0.5167 0.6038 0.27603 0.0
C975 C 0.5465 0.63953 0.31229 0.0
H976 H 0.58485 0.69047 0.2877 0.0
C977 C 0.61576 0.74136 0.33516 0.0
C978 C 0.61614 0.75937 0.32667 0.0
C979 C 0.60177 0.71641 0.32984 0.0
C980 C 0.57409 0.67651 0.29471 0.0
H981 H 0.50772 0.54798 0.29619 0.0
H982 H 0.53571 0.58987 0.30795 0.0
H983 H 0.56065 0.64802 0.27685 0.0
H984 H 0.6013 0.76538 0.30633 0.0
H985 H 0.57652 0.722 0.29724 0.0
H986 H 0.56012 0.66829 0.33017 0.0
C987 C 0.52602 0.5874 0.29721 0.0
C988 C 0.5602 0.65214 0.28849 0.0
C989 C 0.51017 0.56348 0.29048 0.0
C990 C 0.60164 0.75195 0.31303 0.0
C991 C 0.58755 0.72709 0.30779 0.0
C992 C 0.56053 0.66401 0.31855 0.0
C993 C 0.52942 0.60785 0.29005 0.0
C994 C 0.54583 0.6334 0.29711 0.0
C995 C 0.58782 0.70905 0.31597 0.0
C996 C 0.57409 0.68282 0.30974 0.0
H997 H 0.49139 0.57745 0.25854 0.0
H998 H 0.51835 0.61904 0.27035 0.0
H999 H 0.53553 0.62558 0.31924 0.0
H1000 H 0.62689 0.74657 0.34569 0.0
H1001 H 0.60248 0.70297 0.33637 0.0
C1002 C 0.39505 0.88784 0.27363 0.0
C1003 C 0.40808 0.91123 0.26878 0.0
C1004 C 0.37391 0.88109 0.28063 0.0
C1005 C 0.32684 0.89876 0.28681 0.0
H1006 H 0.31266 0.8556 0.31782 0.0
C1007 C 0.24913 0.87624 0.32423 0.0
C1008 C 0.23245 0.85101 0.32397 0.0
C1009 C 0.27124 0.88431 0.31809 0.0
C1010 C 0.31643 0.86762 0.30915 0.0
H1011 H 0.40946 0.94602 0.26741 0.0
H1012 H 0.37295 0.93466 0.28012 0.0
H1013 H 0.35025 0.86897 0.30601 0.0
H1014 H 0.22554 0.81434 0.3176 0.0
H1015 H 0.26491 0.82849 0.30732 0.0
H1016 H 0.29319 0.89782 0.29039 0.0
C1017 C 0.3786 0.9212 0.2782 0.0
C1018 C 0.33785 0.87517 0.3023 0.0
C1019 C 0.39957 0.92779 0.27098 0.0
C1020 C 0.2383 0.83389 0.31788 0.0
C1021 C 0.26071 0.84196 0.31207 0.0
C1022 C 0.30564 0.89154 0.29387 0.0
C1023 C 0.36552 0.89776 0.28316 0.0
C1024 C 0.3432 0.89059 0.29089 0.0
C1025 C 0.27718 0.86723 0.31194 0.0
C1026 C 0.30016 0.87571 0.30498 0.0
H1027 H 0.40112 0.87465 0.27189 0.0
H1028 H 0.36404 0.86269 0.28392 0.0
H1029 H 0.33006 0.91029 0.27794 0.0
H1030 H 0.24473 0.88966 0.32883 0.0
H1031 H 0.28372 0.90388 0.31813 0.0
C1032 C 0.0678 0.48909 0.29279 0.0
C1033 C 0.04628 0.47677 0.28293 0.0
C1034 C 0.07799 0.47626 0.29902 0.0
C1035 C 0.06561 0.4158 0.3078 0.0
H1036 H 0.13623 0.44555 0.30808 0.0
C1037 C 0.11893 0.36656 0.32166 0.0
C1038 C 0.14133 0.37999 0.3306 0.0
C1039 C 0.10616 0.37794 0.31696 0.0
C1040 C 0.11658 0.43726 0.30828 0.0
H1041 H 0.01834 0.44123 0.27201 0.0
H1042 H 0.03648 0.41855 0.28297 0.0
H1043 H 0.11547 0.46518 0.29675 0.0
H1044 H 0.16791 0.41547 0.34208 0.0
H1045 H 0.14559 0.43594 0.33353 0.0
H1046 H 0.06679 0.38767 0.3192 0.0
C1047 C 0.04521 0.43821 0.28589 0.0
C1048 C 0.10468 0.44838 0.30174 0.0
C1049 C 0.03493 0.45115 0.27959 0.0
C1050 C 0.15061 0.4049 0.33518 0.0
C1051 C 0.13795 0.4165 0.33025 0.0
C1052 C 0.07754 0.40461 0.31432 0.0
C1053 C 0.06707 0.45081 0.29547 0.0
C1054 C 0.07914 0.43792 0.30159 0.0
C1055 C 0.11573 0.40309 0.32097 0.0
C1056 C 0.10315 0.41537 0.3147 0.0
H1057 H 0.07731 0.50888 0.29537 0.0
H1058 H 0.09465 0.48637 0.30653 0.0
H1059 H 0.04594 0.40747 0.30791 0.0
H1060 H 0.11145 0.3472 0.31812 0.0
H1061 H 0.08923 0.36725 0.30974 0.0
C1062 C 0.40481 0.49142 0.28011 0.0
C1063 C 0.41921 0.48125 0.27617 0.0
C1064 C 0.3838 0.47794 0.28713 0.0
C1065 C 0.33913 0.41443 0.29451 0.0
H1066 H 0.32038 0.44921 0.32257 0.0
C1067 C 0.2414 0.37154 0.31125 0.0
C1068 C 0.23776 0.37623 0.32587 0.0
C1069 C 0.26474 0.38356 0.30651 0.0
C1070 C 0.3255 0.43912 0.31494 0.0
H1071 H 0.42325 0.4492 0.27638 0.0
H1072 H 0.38685 0.42567 0.28919 0.0
H1073 H 0.35917 0.47147 0.31213 0.0
H1074 H 0.256 0.39722 0.34703 0.0
H1075 H 0.29699 0.41841 0.3387 0.0
H1076 H 0.30568 0.38197 0.29761 0.0
C1077 C 0.39139 0.44387 0.28656 0.0
C1078 C 0.3476 0.45197 0.30875 0.0
C1079 C 0.41226 0.45729 0.27929 0.0
C1080 C 0.25815 0.39327 0.33568 0.0
C1081 C 0.2816 0.40545 0.33089 0.0
C1082 C 0.31714 0.40155 0.30081 0.0
C1083 C 0.37691 0.45407 0.29062 0.0
C1084 C 0.35446 0.43991 0.29819 0.0
C1085 C 0.28515 0.40065 0.31625 0.0
C1086 C 0.30978 0.41384 0.31084 0.0
H1087 H 0.40975 0.50981 0.27763 0.0
H1088 H 0.37282 0.4862 0.28966 0.0
H1089 H 0.34366 0.40448 0.2864 0.0
H1090 H 0.22623 0.35837 0.30338 0.0
H1091 H 0.26667 0.37969 0.2951 0.0
C1092 C 0.49978 0.90505 0.26104 0.0
C1093 C 0.48954 0.91656 0.26929 0.0
C1094 C 0.51548 0.89828 0.26804 0.0
C1095 C 0.53049 0.88278 0.30395 0.0
H1096 H 0.58794 0.89059 0.28643 0.0
C1097 C 0.59914 0.85779 0.33218 0.0
C1098 C 0.61029 0.84862 0.32288 0.0
C1099 C 0.58409 0.86623 0.32618 0.0
C1100 C 0.57176 0.88791 0.29139 0.0
H1101 H 0.48868 0.93101 0.2913 0.0
H1102 H 0.51611 0.91916 0.30352 0.0
H1103 H 0.56343 0.90616 0.27494 0.0
H1104 H 0.61333 0.83959 0.30012 0.0
H1105 H 0.58631 0.85311 0.28966 0.0
H1106 H 0.53857 0.86412 0.32027 0.0
C1107 C 0.51163 0.915 0.29166 0.0
C1108 C 0.55778 0.89696 0.28481 0.0
C1109 C 0.49597 0.92182 0.28465 0.0
C1110 C 0.60522 0.8469 0.30754 0.0
C1111 C 0.58989 0.85488 0.30156 0.0
C1112 C 0.54441 0.87353 0.31049 0.0
C1113 C 0.52131 0.90285 0.28346 0.0
C1114 C 0.53686 0.89432 0.29093 0.0
C1115 C 0.57965 0.8653 0.31076 0.0
C1116 C 0.56509 0.87573 0.3042 0.0
H1117 H 0.49493 0.9004 0.24923 0.0
H1118 H 0.52241 0.8887 0.26142 0.0
H1119 H 0.51433 0.88025 0.30886 0.0
H1120 H 0.60293 0.85948 0.34406 0.0
H1121 H 0.57667 0.87427 0.33362 0.0
C1122 C 0.0658 0.56458 0.29507 0.0
C1123 C 0.04518 0.55421 0.28442 0.0
C1124 C 0.07578 0.58859 0.30165 0.0
C1125 C 0.08247 0.64678 0.29313 0.0
H1126 H 0.10536 0.66838 0.33468 0.0
C1127 C 0.11561 0.74524 0.31671 0.0
C1128 C 0.13656 0.75736 0.32703 0.0
C1129 C 0.10482 0.72021 0.31239 0.0
C1130 C 0.09935 0.66262 0.32303 0.0
H1131 H 0.01829 0.56077 0.2729 0.0
H1132 H 0.03616 0.60309 0.28423 0.0
H1133 H 0.08403 0.62441 0.32599 0.0
H1134 H 0.16246 0.75253 0.34107 0.0
H1135 H 0.14357 0.70838 0.3333 0.0
H1136 H 0.09803 0.68473 0.29 0.0
C1137 C 0.04452 0.59244 0.28739 0.0
C1138 C 0.08702 0.6375 0.31808 0.0
C1139 C 0.03433 0.56826 0.2809 0.0
C1140 C 0.14639 0.74372 0.33305 0.0
C1141 C 0.1355 0.71846 0.32867 0.0
C1142 C 0.09488 0.67178 0.29802 0.0
C1143 C 0.06563 0.60295 0.2976 0.0
C1144 C 0.07823 0.62938 0.3031 0.0
C1145 C 0.11471 0.70653 0.31819 0.0
C1146 C 0.10316 0.67999 0.31305 0.0
H1147 H 0.07507 0.55461 0.29784 0.0
H1148 H 0.09222 0.59632 0.30934 0.0
H1149 H 0.0765 0.64109 0.28146 0.0
H1150 H 0.10739 0.75505 0.3119 0.0
H1151 H 0.08853 0.7115 0.30453 0.0
C1152 C 0.84602 0.09718 0.39067 0.0
C1153 C 0.83709 0.10864 0.40015 0.0
C1154 C 0.83034 0.07355 0.3836 0.0
C1155 C 0.77377 0.01728 0.38836 0.0
H1156 H 0.775 0.99779 0.34741 0.0
C1157 C 0.70317 0.92154 0.36049 0.0
C1158 C 0.71157 0.90898 0.3515 0.0
C1159 C 0.71843 0.94635 0.36547 0.0
C1160 C 0.77466 0.00292 0.3589 0.0
H1161 H 0.80444 0.10459 0.40914 0.0
H1162 H 0.77717 0.06313 0.39698 0.0
H1163 H 0.80146 0.04075 0.35768 0.0
H1164 H 0.74245 0.91284 0.34037 0.0
H1165 H 0.76936 0.95639 0.34924 0.0
H1166 H 0.74738 0.97961 0.38974 0.0
C1167 C 0.79637 0.07242 0.39513 0.0
C1168 C 0.78973 0.02749 0.36475 0.0
C1169 C 0.81199 0.09613 0.40212 0.0
C1170 C 0.73548 0.92199 0.34732 0.0
C1171 C 0.75082 0.94694 0.35233 0.0
C1172 C 0.75885 0.99279 0.38255 0.0
C1173 C 0.80546 0.06077 0.38596 0.0
C1174 C 0.78932 0.03491 0.37953 0.0
C1175 C 0.74253 0.95928 0.36163 0.0
C1176 C 0.75898 0.98533 0.36773 0.0
H1177 H 0.8653 0.10609 0.38908 0.0
H1178 H 0.83791 0.06491 0.37672 0.0
H1179 H 0.77346 0.02235 0.39987 0.0
H1180 H 0.6848 0.91218 0.36384 0.0
H1181 H 0.71131 0.95541 0.37237 0.0
C1182 C 0.93128 0.73878 0.40863 0.0
C1183 C 0.92116 0.75414 0.40972 0.0
C1184 C 0.95244 0.74583 0.40152 0.0
C1185 C 0.98872 0.78694 0.37445 0.0
H1186 H 0.04015 0.7763 0.39102 0.0
C1187 C 0.08422 0.82667 0.35236 0.0
C1188 C 0.09517 0.81206 0.35279 0.0
C1189 C 0.06217 0.81935 0.35858 0.0
C1190 C 0.02582 0.77911 0.38611 0.0
H1191 H 0.92582 0.78934 0.40484 0.0
H1192 H 0.96271 0.80166 0.39253 0.0
H1193 H 0.00359 0.76387 0.40363 0.0
H1194 H 0.09099 0.77765 0.35897 0.0
H1195 H 0.05239 0.76454 0.36928 0.0
H1196 H 0.01096 0.80211 0.35688 0.0
C1197 C 0.95401 0.78393 0.39682 0.0
C1198 C 0.00487 0.77199 0.39337 0.0
C1199 C 0.93291 0.77689 0.40389 0.0
C1200 C 0.08317 0.78951 0.35877 0.0
C1201 C 0.06111 0.78206 0.36476 0.0
C1202 C 0.00967 0.79398 0.36714 0.0
C1203 C 0.9639 0.76841 0.39543 0.0
C1204 C 0.98608 0.77581 0.38763 0.0
C1205 C 0.05067 0.79718 0.36513 0.0
C1206 C 0.02842 0.79005 0.37286 0.0
H1207 H 0.92251 0.72109 0.41296 0.0
H1208 H 0.95953 0.73339 0.40053 0.0
H1209 H 0.97441 0.78988 0.36966 0.0
H1210 H 0.09318 0.84417 0.34781 0.0
H1211 H 0.05465 0.83146 0.35873 0.0
C1212 C 0.29364 0.19834 0.38463 0.0
C1213 C 0.28474 0.18799 0.39767 0.0
C1214 C 0.28352 0.21071 0.37742 0.0
C1215 C 0.22584 0.21049 0.3727 0.0
H1216 H 0.26311 0.27644 0.36118 0.0
C1217 C 0.18322 0.26998 0.36124 0.0
C1218 C 0.18893 0.28243 0.34857 0.0
C1219 C 0.19528 0.25762 0.36557 0.0
C1220 C 0.25256 0.25787 0.36415 0.0
H1221 H 0.25866 0.18231 0.41347 0.0
H1222 H 0.24084 0.20354 0.40083 0.0
H1223 H 0.28477 0.257 0.3721 0.0
H1224 H 0.2117 0.29186 0.33047 0.0
H1225 H 0.23307 0.27039 0.33823 0.0
H1226 H 0.19367 0.21144 0.36514 0.0
C1227 C 0.25564 0.20232 0.39622 0.0
C1228 C 0.26491 0.24681 0.37036 0.0
C1229 C 0.26594 0.19039 0.40349 0.0
C1230 C 0.20674 0.28213 0.3402 0.0
C1231 C 0.21913 0.27009 0.34469 0.0
C1232 C 0.21355 0.2215 0.36653 0.0
C1233 C 0.26405 0.21226 0.38301 0.0
C1234 C 0.25157 0.22324 0.37498 0.0
C1235 C 0.21351 0.25781 0.35743 0.0
C1236 C 0.22677 0.24544 0.36249 0.0
H1237 H 0.30815 0.19662 0.38 0.0
H1238 H 0.29029 0.21831 0.36725 0.0
H1239 H 0.21518 0.19211 0.37594 0.0
H1240 H 0.16962 0.27002 0.3679 0.0
H1241 H 0.1908 0.24843 0.37552 0.0
C1242 C 0.59497 0.54612 0.73987 0.0
C1243 C 0.58142 0.52043 0.73639 0.0
C1244 C 0.61657 0.56035 0.73339 0.0
C1245 C 0.64862 0.56034 0.70122 0.0
H1246 H 0.70808 0.60534 0.72652 0.0
C1247 C 0.74477 0.60379 0.68037 0.0
C1248 C 0.76253 0.62756 0.68658 0.0
C1249 C 0.72188 0.59155 0.68583 0.0
C1250 C 0.6916 0.59323 0.71922 0.0
H1251 H 0.58065 0.48964 0.72373 0.0
H1252 H 0.61754 0.51451 0.71215 0.0
H1253 H 0.66946 0.58334 0.73723 0.0
H1254 H 0.76982 0.65776 0.70273 0.0
H1255 H 0.72986 0.63692 0.71183 0.0
H1256 H 0.67056 0.57032 0.68316 0.0
C1257 C 0.61131 0.52362 0.71973 0.0
C1258 C 0.66949 0.58059 0.7254 0.0
C1259 C 0.59005 0.50941 0.72633 0.0
C1260 C 0.75666 0.63923 0.69791 0.0
C1261 C 0.73375 0.62721 0.70319 0.0
C1262 C 0.67068 0.57322 0.69499 0.0
C1263 C 0.62481 0.54919 0.7232 0.0
C1264 C 0.64785 0.56388 0.71649 0.0
C1265 C 0.71622 0.60302 0.69746 0.0
C1266 C 0.6925 0.58971 0.70393 0.0
H1267 H 0.58883 0.55524 0.74749 0.0
H1268 H 0.6267 0.5801 0.73622 0.0
H1269 H 0.6321 0.54762 0.6941 0.0
H1270 H 0.74884 0.59436 0.67165 0.0
H1271 H 0.70894 0.57285 0.68123 0.0
C1272 C 0.4844 0.07142 0.74372 0.0
C1273 C 0.50982 0.08485 0.74274 0.0
C1274 C 0.46878 0.07852 0.73689 0.0
C1275 C 0.46979 0.1322 0.72119 0.0
H1276 H 0.40419 0.08334 0.70395 0.0
C1277 C 0.40607 0.1545 0.68487 0.0
C1278 C 0.38325 0.14689 0.69018 0.0
C1279 C 0.42161 0.14659 0.69078 0.0
C1280 C 0.42248 0.09714 0.70875 0.0
H1281 H 0.53869 0.11662 0.734 0.0
H1282 H 0.51157 0.12823 0.72164 0.0
H1283 H 0.43117 0.0701 0.71521 0.0
H1284 H 0.35825 0.12446 0.70531 0.0
H1285 H 0.38501 0.10981 0.71522 0.0
H1286 H 0.46114 0.15915 0.71434 0.0
C1287 C 0.5036 0.11247 0.72787 0.0
C1288 C 0.4379 0.0896 0.7153 0.0
C1289 C 0.51918 0.10553 0.73479 0.0
C1290 C 0.37591 0.13077 0.70118 0.0
C1291 C 0.39109 0.12228 0.70676 0.0
C1292 C 0.45452 0.13967 0.71442 0.0
C1293 C 0.47819 0.09917 0.72887 0.0
C1294 C 0.46174 0.10705 0.7217 0.0
C1295 C 0.41418 0.13032 0.70173 0.0
C1296 C 0.43069 0.12224 0.70824 0.0
H1297 H 0.47654 0.0553 0.74966 0.0
H1298 H 0.44937 0.06797 0.73808 0.0
H1299 H 0.48779 0.14622 0.72625 0.0
H1300 H 0.41206 0.16692 0.67638 0.0
H1301 H 0.43933 0.153 0.68673 0.0
C1302 C 0.93422 0.42068 0.73792 0.0
C1303 C 0.94849 0.44113 0.73041 0.0
C1304 C 0.92528 0.39691 0.73131 0.0
C1305 C 0.9093 0.35981 0.69554 0.0
H1306 H 0.90903 0.31171 0.72013 0.0
C1307 C 0.87252 0.25688 0.67451 0.0
C1308 C 0.85894 0.23964 0.68418 0.0
C1309 C 0.88438 0.28213 0.67906 0.0
C1310 C 0.90878 0.32486 0.71313 0.0
H1311 H 0.96437 0.45261 0.70993 0.0
H1312 H 0.94875 0.41063 0.69829 0.0
H1313 H 0.92935 0.35471 0.72998 0.0
H1314 H 0.84613 0.23542 0.70591 0.0
H1315 H 0.86641 0.27926 0.71371 0.0
H1316 H 0.88843 0.32964 0.67872 0.0
C1317 C 0.94449 0.41322 0.70934 0.0
C1318 C 0.92048 0.34953 0.71877 0.0
C1319 C 0.95348 0.43719 0.716 0.0
C1320 C 0.85673 0.24817 0.69826 0.0
C1321 C 0.86846 0.27332 0.70276 0.0
C1322 C 0.89757 0.335 0.68986 0.0
C1323 C 0.93035 0.39283 0.71697 0.0
C1324 C 0.92039 0.36722 0.71019 0.0
C1325 C 0.88284 0.29059 0.69334 0.0
C1326 C 0.89671 0.31719 0.69874 0.0
H1327 H 0.92936 0.42301 0.74884 0.0
H1328 H 0.91391 0.38164 0.73735 0.0
H1329 H 0.90883 0.37301 0.68868 0.0
H1330 H 0.87459 0.25088 0.66359 0.0
H1331 H 0.89538 0.29498 0.67157 0.0
C1332 C 0.16988 0.91256 0.60279 0.0
C1333 C 0.16381 0.89199 0.61048 0.0
C1334 C 0.18432 0.93629 0.60991 0.0
C1335 C 0.22897 0.97305 0.64188 0.0
H1336 H 0.20864 0.02011 0.6333 0.0
C1337 C 0.27946 0.07408 0.66937 0.0
C1338 C 0.28406 0.09197 0.65962 0.0
C1339 C 0.26412 0.04906 0.66457 0.0
C1340 C 0.21463 0.00723 0.63574 0.0
H1341 H 0.1686 0.88019 0.63161 0.0
H1342 H 0.194 0.92197 0.64415 0.0
H1343 H 0.18346 0.97742 0.62277 0.0
H1344 H 0.27599 0.09761 0.63722 0.0
H1345 H 0.24924 0.05413 0.62891 0.0
H1346 H 0.26036 0.0031 0.65475 0.0
C1347 C 0.18755 0.91959 0.63257 0.0
C1348 C 0.20023 0.98278 0.62971 0.0
C1349 C 0.17293 0.89572 0.62543 0.0
C1350 C 0.27285 0.08433 0.64502 0.0
C1351 C 0.25738 0.05941 0.64028 0.0
C1352 C 0.24342 0.99759 0.64795 0.0
C1353 C 0.19306 0.94011 0.62491 0.0
C1354 C 0.20748 0.96553 0.63244 0.0
C1355 C 0.25287 0.04149 0.64998 0.0
C1356 C 0.23663 0.01503 0.64469 0.0
H1357 H 0.16288 0.91034 0.59133 0.0
H1358 H 0.18855 0.95172 0.60364 0.0
H1359 H 0.23507 0.96018 0.64413 0.0
H1360 H 0.28789 0.07935 0.68068 0.0
H1361 H 0.26087 0.03567 0.6723 0.0
C1362 C 0.07868 0.25861 0.6179 0.0
C1363 C 0.07695 0.25024 0.603 0.0
C1364 C 0.05748 0.25207 0.62487 0.0
C1365 C 0.99031 0.22674 0.61714 0.0
H1366 H 0.98844 0.20796 0.65691 0.0
C1367 C 0.89949 0.17451 0.6425 0.0
C1368 C 0.89884 0.18215 0.65718 0.0
C1369 C 0.92178 0.18341 0.63648 0.0
C1370 C 0.98876 0.21339 0.64586 0.0
H1371 H 0.05175 0.22847 0.58374 0.0
H1372 H 0.01482 0.21674 0.5959 0.0
H1373 H 0.02637 0.22341 0.6452 0.0
H1374 H 0.92123 0.20472 0.67716 0.0
H1375 H 0.96021 0.22041 0.66657 0.0
H1376 H 0.95264 0.21642 0.61772 0.0
C1377 C 0.03247 0.22882 0.60215 0.0
C1378 C 0.01051 0.22231 0.63915 0.0
C1379 C 0.05364 0.2355 0.59517 0.0
C1380 C 0.92108 0.19838 0.66583 0.0
C1381 C 0.94343 0.20735 0.65978 0.0
C1382 C 0.96858 0.21776 0.62381 0.0
C1383 C 0.03411 0.23688 0.61712 0.0
C1384 C 0.01147 0.22883 0.62463 0.0
C1385 C 0.94398 0.20025 0.64496 0.0
C1386 C 0.96746 0.21069 0.63818 0.0
H1387 H 0.09644 0.27022 0.62416 0.0
H1388 H 0.05942 0.25894 0.63633 0.0
H1389 H 0.99051 0.23208 0.60607 0.0
H1390 H 0.88273 0.16186 0.63556 0.0
H1391 H 0.92162 0.17717 0.62513 0.0
C1392 C 0.7266 0.79674 0.60713 0.0
C1393 C 0.71331 0.80548 0.61471 0.0
C1394 C 0.73471 0.78245 0.61382 0.0
C1395 C 0.75233 0.77163 0.65019 0.0
H1396 H 0.75475 0.71882 0.6277 0.0
C1397 C 0.79743 0.71852 0.67417 0.0
C1398 C 0.8115 0.71356 0.6647 0.0
C1399 C 0.78326 0.72836 0.66896 0.0
C1400 C 0.75433 0.73362 0.6341 0.0
H1401 H 0.69734 0.8053 0.63509 0.0
H1402 H 0.71168 0.78023 0.64687 0.0
H1403 H 0.73202 0.73681 0.61681 0.0
H1404 H 0.82248 0.7158 0.64251 0.0
H1405 H 0.79828 0.73341 0.63356 0.0
H1406 H 0.77516 0.76877 0.66736 0.0
C1407 C 0.71594 0.7847 0.63576 0.0
C1408 C 0.74125 0.74386 0.62788 0.0
C1409 C 0.70774 0.79901 0.62903 0.0
C1410 C 0.81177 0.71933 0.65008 0.0
C1411 C 0.79771 0.7292 0.6449 0.0
C1412 C 0.76545 0.76136 0.65642 0.0
C1413 C 0.72981 0.77657 0.62828 0.0
C1414 C 0.74064 0.76339 0.6357 0.0
C1415 C 0.78293 0.73338 0.65418 0.0
C1416 C 0.76712 0.74271 0.64828 0.0
H1417 H 0.7317 0.80183 0.59623 0.0
H1418 H 0.74576 0.77689 0.60786 0.0
H1419 H 0.75235 0.78679 0.65645 0.0
H1420 H 0.79665 0.714 0.68546 0.0
H1421 H 0.77198 0.7313 0.67635 0.0
C1422 C 0.08724 0.80664 0.62368 0.0
C1423 C 0.08578 0.81193 0.60904 0.0
C1424 C 0.06592 0.79359 0.63062 0.0
C1425 C 0.00203 0.78014 0.6285 0.0
H1426 H 0.9914 0.72838 0.65307 0.0
C1427 C 0.90723 0.71258 0.64506 0.0
C1428 C 0.90541 0.70773 0.65987 0.0
C1429 C 0.93013 0.72617 0.63996 0.0
C1430 C 0.99431 0.74303 0.64639 0.0
H1431 H 0.06087 0.80733 0.59011 0.0
H1432 H 0.02373 0.78436 0.60212 0.0
H1433 H 0.02981 0.74965 0.6417 0.0
H1434 H 0.92603 0.71296 0.68096 0.0
H1435 H 0.96641 0.73643 0.67186 0.0
H1436 H 0.96645 0.77329 0.63296 0.0
C1437 C 0.04133 0.79046 0.6083 0.0
C1438 C 0.01624 0.75517 0.63988 0.0
C1439 C 0.06258 0.80334 0.60135 0.0
C1440 C 0.92698 0.71662 0.6695 0.0
C1441 C 0.95 0.72987 0.6643 0.0
C1442 C 0.98015 0.76798 0.63495 0.0
C1443 C 0.04276 0.7858 0.62309 0.0
C1444 C 0.02014 0.77358 0.63066 0.0
C1445 C 0.95175 0.73489 0.64948 0.0
C1446 C 0.9759 0.74906 0.64377 0.0
H1447 H 0.1049 0.81292 0.62983 0.0
H1448 H 0.06763 0.79032 0.64203 0.0
H1449 H 0.00473 0.79467 0.62178 0.0
H1450 H 0.8909 0.70606 0.63742 0.0
H1451 H 0.93093 0.72958 0.62846 0.0
C1452 C 0.16585 0.23813 0.59483 0.0
C1453 C 0.15609 0.25007 0.60318 0.0
C1454 C 0.18075 0.23032 0.60171 0.0
C1455 C 0.21736 0.23701 0.63717 0.0
H1456 H 0.20987 0.1752 0.62068 0.0
C1457 C 0.26374 0.18762 0.66515 0.0
C1458 C 0.27727 0.18158 0.65581 0.0
C1459 C 0.24799 0.19541 0.65936 0.0
C1460 C 0.21218 0.1925 0.62539 0.0
H1461 H 0.15546 0.2641 0.62537 0.0
H1462 H 0.18064 0.24968 0.6374 0.0
H1463 H 0.18501 0.19065 0.60942 0.0
H1464 H 0.28434 0.17817 0.6331 0.0
H1465 H 0.25635 0.19101 0.62299 0.0
H1466 H 0.24429 0.2384 0.65333 0.0
C1467 C 0.17702 0.24658 0.62549 0.0
C1468 C 0.19807 0.20151 0.61888 0.0
C1469 C 0.16229 0.25461 0.61858 0.0
C1470 C 0.27419 0.18276 0.64057 0.0
C1471 C 0.25811 0.19002 0.63477 0.0
C1472 C 0.23125 0.22779 0.64381 0.0
C1473 C 0.18615 0.23396 0.61717 0.0
C1474 C 0.20071 0.22408 0.62452 0.0
C1475 C 0.24509 0.19674 0.64411 0.0
C1476 C 0.22903 0.20562 0.63785 0.0
H1477 H 0.16135 0.23406 0.58298 0.0
H1478 H 0.18787 0.22119 0.59487 0.0
H1479 H 0.22013 0.25455 0.64177 0.0
H1480 H 0.26589 0.18705 0.67696 0.0
H1481 H 0.23808 0.20039 0.6668 0.0
C1482 C 0.70498 0.8997 0.61535 0.0
C1483 C 0.71759 0.88703 0.6182 0.0
C1484 C 0.71383 0.92347 0.62212 0.0
C1485 C 0.75558 0.96934 0.65273 0.0
H1486 H 0.76018 0.01616 0.62569 0.0
C1487 C 0.81057 0.07548 0.66818 0.0
C1488 C 0.79985 0.08869 0.66271 0.0
C1489 C 0.79998 0.05027 0.66378 0.0
C1490 C 0.75875 0.00331 0.63345 0.0
H1491 H 0.74899 0.88925 0.63086 0.0
H1492 H 0.76409 0.93054 0.64285 0.0
H1493 H 0.74158 0.97294 0.61662 0.0
H1494 H 0.76922 0.08561 0.64868 0.0
H1495 H 0.75082 0.04198 0.64122 0.0
H1496 H 0.7728 -0.00012 0.66958 0.0
C1497 C 0.74733 0.922 0.6354 0.0
C1498 C 0.74806 0.97852 0.62824 0.0
C1499 C 0.7386 0.89828 0.62854 0.0
C1500 C 0.77811 0.0761 0.65304 0.0
C1501 C 0.7676 0.05105 0.64867 0.0
C1502 C 0.7662 0.99422 0.65798 0.0
C1503 C 0.73538 0.93506 0.63197 0.0
C1504 C 0.74626 0.96125 0.63781 0.0
C1505 C 0.77854 0.03786 0.65382 0.0
C1506 C 0.76779 0.01146 0.6484 0.0
H1507 H 0.68849 0.8914 0.60767 0.0
H1508 H 0.70401 0.93297 0.61946 0.0
H1509 H 0.75436 0.95638 0.66035 0.0
H1510 H 0.82727 0.08463 0.67568 0.0
H1511 H 0.80893 0.04065 0.66789 0.0
C1512 C 0.51047 0.42966 0.72452 0.0
C1513 C 0.50197 0.44183 0.73378 0.0
C1514 C 0.49435 0.40619 0.71747 0.0
C1515 C 0.43585 0.3512 0.72149 0.0
H1516 H 0.44118 0.33061 0.68161 0.0
C1517 C 0.36798 0.25449 0.69334 0.0
C1518 C 0.37768 0.24198 0.68551 0.0
C1519 C 0.38255 0.27945 0.69819 0.0
C1520 C 0.43964 0.33606 0.6928 0.0
H1521 H 0.46971 0.43916 0.74253 0.0
H1522 H 0.44143 0.39794 0.7302 0.0
H1523 H 0.4671 0.37363 0.69173 0.0
H1524 H 0.41018 0.24602 0.67635 0.0
H1525 H 0.43586 0.28977 0.68503 0.0
H1526 H 0.40871 0.3137 0.72269 0.0
C1527 C 0.46069 0.40658 0.72854 0.0
C1528 C 0.45441 0.36068 0.69858 0.0
C1529 C 0.47685 0.43014 0.7356 0.0
C1530 C 0.4022 0.25514 0.68238 0.0
C1531 C 0.41685 0.28021 0.68727 0.0
C1532 C 0.42113 0.32664 0.71573 0.0
C1533 C 0.46934 0.39424 0.71955 0.0
C1534 C 0.45273 0.36848 0.71301 0.0
C1535 C 0.40722 0.29254 0.69539 0.0
C1536 C 0.42287 0.31877 0.70134 0.0
H1537 H 0.52979 0.43791 0.72311 0.0
H1538 H 0.50167 0.39704 0.71082 0.0
H1539 H 0.43447 0.35652 0.73275 0.0
H1540 H 0.3491 0.24501 0.69583 0.0
H1541 H 0.37445 0.2885 0.70416 0.0
C1542 C 0.58481 0.07369 0.72752 0.0
C1543 C 0.58639 0.08025 0.74273 0.0
C1544 C 0.60605 0.08145 0.72042 0.0
C1545 C 0.67102 0.13055 0.72473 0.0
H1546 H 0.67783 0.0904 0.69357 0.0
C1547 C 0.76323 0.15425 0.70365 0.0
C1548 C 0.76399 0.1512 0.68837 0.0
C1549 C 0.74096 0.14677 0.70942 0.0
C1550 C 0.676 0.10191 0.70211 0.0
H1551 H 0.61155 0.09926 0.7625 0.0
H1552 H 0.64855 0.11219 0.75021 0.0
H1553 H 0.64024 0.07324 0.70583 0.0
H1554 H 0.74228 0.13833 0.66706 0.0
H1555 H 0.70293 0.12469 0.67725 0.0
H1556 H 0.70696 0.159 0.72123 0.0
C1557 C 0.63089 0.10147 0.74371 0.0
C1558 C 0.65453 0.09209 0.70916 0.0
C1559 C 0.60967 0.09375 0.7508 0.0
C1560 C 0.74213 0.14105 0.67888 0.0
C1561 C 0.71969 0.13308 0.6847 0.0
C1562 C 0.69248 0.14028 0.71776 0.0
C1563 C 0.62934 0.09594 0.72837 0.0
C1564 C 0.65191 0.10624 0.72066 0.0
C1565 C 0.71892 0.13568 0.70005 0.0
C1566 C 0.69528 0.126 0.70648 0.0
H1567 H 0.56712 0.06304 0.72104 0.0
H1568 H 0.60419 0.07688 0.7086 0.0
H1569 H 0.66937 0.14217 0.73329 0.0
H1570 H 0.77987 0.16207 0.71118 0.0
H1571 H 0.7409 0.14885 0.72129 0.0
C1572 C 0.96021 0.54532 0.73269 0.0
C1573 C 0.94745 0.51956 0.72957 0.0
C1574 C 0.95148 0.55934 0.72613 0.0
C1575 C 0.91063 0.55706 0.69479 0.0
H1576 H 0.90174 0.60291 0.72025 0.0
C1577 C 0.84604 0.59104 0.67542 0.0
C1578 C 0.85342 0.61562 0.67948 0.0
C1579 C 0.85912 0.58083 0.68172 0.0
C1580 C 0.90441 0.59046 0.71294 0.0
H1581 H 0.91534 0.4884 0.71725 0.0
H1582 H 0.90057 0.5128 0.70565 0.0
H1583 H 0.92355 0.58336 0.73039 0.0
H1584 H 0.87998 0.64905 0.69322 0.0
H1585 H 0.90311 0.6315 0.70384 0.0
H1586 H 0.89154 0.56398 0.67736 0.0
C1587 C 0.91748 0.52219 0.71298 0.0
C1588 C 0.91694 0.57932 0.71875 0.0
C1589 C 0.92604 0.50822 0.7196 0.0
C1590 C 0.87377 0.62985 0.69002 0.0
C1591 C 0.88702 0.61981 0.69614 0.0
C1592 C 0.8983 0.56829 0.68897 0.0
C1593 C 0.92996 0.54784 0.71626 0.0
C1594 C 0.91965 0.56209 0.70979 0.0
C1595 C 0.87999 0.59522 0.69196 0.0
C1596 C 0.89453 0.58465 0.69805 0.0
H1597 H 0.97684 0.5546 0.74027 0.0
H1598 H 0.96149 0.57913 0.72878 0.0
H1599 H 0.91281 0.54412 0.6876 0.0
H1600 H 0.83017 0.57975 0.66749 0.0
H1601 H 0.85287 0.56164 0.67856 0.0
C1602 C 0.43912 0.92728 0.2144 0.0
C1603 C 0.45724 0.94175 0.22609 0.0
C1604 C 0.44167 0.93451 0.20013 0.0
C1605 C 0.48935 0.97601 0.17726 0.0
H1606 H 0.43316 0.95983 0.14949 0.0
C1607 C 0.50116 0.01335 0.12083 0.0
C1608 C 0.48818 0.99612 0.10844 0.0
C1609 C 0.4956 0.00716 0.13507 0.0
C1610 C 0.44899 0.96434 0.15713 0.0
H1611 H 0.49171 0.9755 0.23225 0.0
H1612 H 0.49579 0.98882 0.20752 0.0
H1613 H 0.42703 0.94909 0.1748 0.0
H1614 H 0.45854 0.95898 0.10138 0.0
H1615 H 0.44886 0.94811 0.12645 0.0
H1616 H 0.51129 0.99164 0.1597 0.0
C1617 C 0.48 0.9714 0.20915 0.0
C1618 C 0.44552 0.95813 0.17163 0.0
C1619 C 0.47765 0.9639 0.22335 0.0
C1620 C 0.46905 0.97261 0.11068 0.0
C1621 C 0.46334 0.96646 0.12501 0.0
C1622 C 0.49281 0.98248 0.16289 0.0
C1623 C 0.46225 0.95662 0.19726 0.0
C1624 C 0.46569 0.9638 0.1819 0.0
C1625 C 0.47688 0.98358 0.13736 0.0
C1626 C 0.47271 0.97668 0.15264 0.0
H1627 H 0.42328 0.91001 0.21624 0.0
H1628 H 0.4278 0.9224 0.1913 0.0
H1629 H 0.50533 0.98018 0.18463 0.0
H1630 H 0.51615 0.03152 0.11956 0.0
H1631 H 0.50619 0.02082 0.14435 0.0
C1632 C 0.01112 0.47867 0.22821 0.0
C1633 C 0.02495 0.50211 0.23615 0.0
C1634 C 0.00904 0.47588 0.2128 0.0
C1635 C 0.03698 0.50971 0.18056 0.0
H1636 H 0.97602 0.45831 0.15921 0.0
C1637 C 0.02369 0.49454 0.1167 0.0
C1638 C 0.00048 0.48824 0.10987 0.0
C1639 C 0.02738 0.49456 0.13198 0.0
C1640 C 0.99311 0.47294 0.16496 0.0
H1641 H 0.0476 0.54106 0.23389 0.0
H1642 H 0.04251 0.53637 0.20717 0.0
H1643 H 0.98059 0.46247 0.18593 0.0
H1644 H 0.96312 0.47748 0.11371 0.0
H1645 H 0.96958 0.47808 0.14022 0.0
H1646 H 0.04886 0.52115 0.15955 0.0
C1647 C 0.03388 0.51998 0.21282 0.0
C1648 C 0.99591 0.47508 0.18036 0.0
C1649 C 0.03634 0.52272 0.22823 0.0
C1650 C 0.98108 0.48191 0.1186 0.0
C1651 C 0.98481 0.4822 0.13385 0.0
C1652 C 0.03401 0.50784 0.16514 0.0
C1653 C 0.02036 0.4965 0.20487 0.0
C1654 C 0.0178 0.49363 0.1884 0.0
C1655 C 0.00801 0.48856 0.14078 0.0
C1656 C 0.01192 0.48959 0.15713 0.0
H1657 H 0.0019 0.46237 0.2339 0.0
H1658 H -0.00123 0.45746 0.20714 0.0
H1659 H 0.05433 0.52391 0.1863 0.0
H1660 H 0.03896 0.49937 0.11022 0.0
H1661 H 0.04541 0.49921 0.13687 0.0
C1662 C 0.48718 0.50291 0.22655 0.0
C1663 C 0.46516 0.49946 0.23145 0.0
C1664 C 0.48939 0.50075 0.21147 0.0
C1665 C 0.4536 0.47868 0.17428 0.0
H1666 H 0.5161 0.52566 0.16166 0.0
C1667 C 0.47759 0.47284 0.11457 0.0
C1668 C 0.49285 0.49481 0.10856 0.0
C1669 C 0.47273 0.47322 0.12929 0.0
C1670 C 0.4984 0.51261 0.16493 0.0
H1671 H 0.42802 0.49051 0.22446 0.0
H1672 H 0.43194 0.48719 0.19812 0.0
H1673 H 0.51042 0.52595 0.1877 0.0
H1674 H 0.51434 0.53449 0.11326 0.0
H1675 H 0.50524 0.53524 0.13877 0.0
H1676 H 0.44133 0.46596 0.1514 0.0
C1677 C 0.4474 0.49107 0.20588 0.0
C1678 C 0.49527 0.51247 0.17995 0.0
C1679 C 0.44512 0.49296 0.22099 0.0
C1680 C 0.50241 0.51723 0.11749 0.0
C1681 C 0.49745 0.51762 0.1322 0.0
C1682 C 0.45667 0.47895 0.15922 0.0
C1683 C 0.46974 0.49542 0.20091 0.0
C1684 C 0.4729 0.49539 0.18485 0.0
C1685 C 0.4829 0.49559 0.13838 0.0
C1686 C 0.47916 0.49585 0.15435 0.0
H1687 H 0.50285 0.50771 0.2344 0.0
H1688 H 0.50667 0.50359 0.2081 0.0
H1689 H 0.43617 0.46515 0.17762 0.0
H1690 H 0.46957 0.45526 0.10794 0.0
H1691 H 0.46159 0.45586 0.13364 0.0
C1692 C 0.98492 0.5199 0.78473 0.0
C1693 C 0.97075 0.49641 0.77684 0.0
C1694 C 0.98802 0.52257 0.8002 0.0
C1695 C 0.98743 0.48866 0.83133 0.0
H1696 H 0.97514 0.53403 0.85477 0.0
C1697 C 0.98363 0.48491 0.89364 0.0
C1698 C 0.9956 0.50741 0.90267 0.0
C1699 C 0.97943 0.48434 0.87838 0.0
C1700 C 0.97891 0.52146 0.84838 0.0
H1701 H 0.94779 0.4575 0.77917 0.0
H1702 H 0.95399 0.46218 0.80591 0.0
H1703 H 0.97168 0.53264 0.82781 0.0
H1704 H 0.01117 0.54682 0.90281 0.0
H1705 H 0.00445 0.54588 0.87614 0.0
H1706 H 0.99505 0.47765 0.85168 0.0
C1707 C 0.9629 0.47845 0.80014 0.0
C1708 C 0.97694 0.52071 0.83297 0.0
C1709 C 0.95954 0.4758 0.78479 0.0
C1710 C 0.00228 0.52922 0.89614 0.0
C1711 C -0.00182 0.52865 0.88085 0.0
C1712 C 0.98961 0.48955 0.84667 0.0
C1713 C 0.97723 0.5018 0.80801 0.0
C1714 C 0.9809 0.50407 0.82432 0.0
C1715 C 0.98723 0.50624 0.87176 0.0
C1716 C 0.98508 0.50572 0.8554 0.0
H1717 H 0.99385 0.53615 0.77898 0.0
H1718 H -0.00078 0.54079 0.80605 0.0
H1719 H 0.99093 0.47591 0.8249 0.0
H1720 H 0.97834 0.46778 0.89827 0.0
H1721 H 0.97046 0.46669 0.87174 0.0
C1722 C 0.53142 0.51501 0.78703 0.0
C1723 C 0.53574 0.49661 0.78119 0.0
C1724 C 0.52887 0.51737 0.80208 0.0
C1725 C 0.51619 0.48203 0.83493 0.0
H1726 H 0.53712 0.5455 0.85633 0.0
C1727 C 0.51693 0.4952 0.89815 0.0
C1728 C 0.5055 0.50812 0.90324 0.0
C1729 C 0.52193 0.49487 0.88345 0.0
C1730 C 0.53111 0.52766 0.85045 0.0
H1731 H 0.54166 0.46684 0.78627 0.0
H1732 H 0.53845 0.47157 0.81262 0.0
H1733 H 0.54386 0.54309 0.83038 0.0
H1734 H 0.49072 0.53109 0.89673 0.0
H1735 H 0.50008 0.53099 0.87121 0.0
H1736 H 0.50394 0.46675 0.85515 0.0
C1737 C 0.53607 0.48366 0.80566 0.0
C1738 C 0.53484 0.52621 0.83555 0.0
C1739 C 0.53816 0.48105 0.7906 0.0
C1740 C 0.49988 0.52127 0.89332 0.0
C1741 C 0.50515 0.52116 0.87866 0.0
C1742 C 0.5128 0.48354 0.84986 0.0
C1743 C 0.53098 0.50159 0.8116 0.0
C1744 C 0.52737 0.50335 0.82756 0.0
C1745 C 0.51592 0.50769 0.87353 0.0
C1746 C 0.52014 0.50634 0.85777 0.0
H1747 H 0.52934 0.52708 0.77988 0.0
H1748 H 0.52462 0.53116 0.80615 0.0
H1749 H 0.50961 0.46402 0.82913 0.0
H1750 H 0.52199 0.48527 0.90551 0.0
H1751 H 0.53056 0.4846 0.87984 0.0
C1752 C 0.53168 0.06997 0.79743 0.0
C1753 C 0.53881 0.0582 0.7869 0.0
C1754 C 0.53019 0.06415 0.81201 0.0
C1755 C 0.52417 0.01555 0.83502 0.0
H1756 H 0.54354 0.0668 0.86725 0.0
C1757 C 0.51937 0.99427 0.89572 0.0
C1758 C 0.50882 0.0047 0.90464 0.0
C1759 C 0.52612 0.00218 0.88188 0.0
C1760 C 0.53793 0.05225 0.85837 0.0
H1761 H 0.54978 0.03085 0.7835 0.0
H1762 H 0.54768 0.02108 0.80899 0.0
H1763 H 0.54914 0.07758 0.842 0.0
H1764 H 0.49774 0.03215 0.90612 0.0
H1765 H 0.50939 0.04587 0.88197 0.0
H1766 H 0.51275 0.9902 0.85135 0.0
C1767 C 0.54297 0.03465 0.80594 0.0
C1768 C 0.54109 0.05842 0.84388 0.0
C1769 C 0.54441 0.04043 0.79134 0.0
C1770 C 0.50598 0.02384 0.89959 0.0
C1771 C 0.51271 0.03173 0.88574 0.0
C1772 C 0.52107 0.0094 0.8495 0.0
C1773 C 0.53587 0.04646 0.81647 0.0
C1774 C 0.53392 0.0401 0.83199 0.0
C1775 C 0.52248 0.02071 0.8766 0.0
C1776 C 0.52758 0.02762 0.86135 0.0
H1777 H 0.52757 0.084 0.79448 0.0
H1778 H 0.52431 0.07338 0.81974 0.0
H1779 H 0.51818 0.00091 0.82615 0.0
H1780 H 0.52232 0.97986 0.89941 0.0
H1781 H 0.53406 0.99363 0.87527 0.0
C1782 C 0.13804 0.29819 0.55615 0.0
C1783 C 0.12413 0.27366 0.55909 0.0
C1784 C 0.13942 0.30413 0.54158 0.0
C1785 C 0.13245 0.27711 0.5033 0.0
H1786 H 0.13178 0.33548 0.49295 0.0
C1787 C 0.13858 0.30268 0.44329 0.0
C1788 C 0.15482 0.32752 0.44152 0.0
C1789 C 0.13202 0.29536 0.45728 0.0
C1790 C 0.13216 0.31919 0.49568 0.0
H1791 H 0.10056 0.23611 0.54943 0.0
H1792 H 0.103 0.24635 0.5239 0.0
H1793 H 0.12598 0.32423 0.51812 0.0
H1794 H 0.17663 0.36408 0.45323 0.0
H1795 H 0.16514 0.35138 0.47748 0.0
H1796 H 0.13903 0.27226 0.48096 0.0
C1797 C 0.11299 0.26103 0.53276 0.0
C1798 C 0.12885 0.31277 0.51011 0.0
C1799 C 0.1115 0.25514 0.54733 0.0
C1800 C 0.1638 0.34487 0.45408 0.0
C1801 C 0.1572 0.33757 0.46803 0.0
C1802 C 0.13579 0.28355 0.48888 0.0
C1803 C 0.12702 0.2856 0.52969 0.0
C1804 C 0.12925 0.2918 0.51415 0.0
C1805 C 0.14148 0.31269 0.46986 0.0
C1806 C 0.136 0.30485 0.48492 0.0
H1807 H 0.14782 0.31271 0.56513 0.0
H1808 H 0.15059 0.32319 0.53962 0.0
H1809 H 0.13316 0.26101 0.50606 0.0
H1810 H 0.13092 0.28885 0.43385 0.0
H1811 H 0.11955 0.2761 0.45824 0.0
C1812 C 0.67379 0.81316 0.56198 0.0
C1813 C 0.69284 0.83516 0.56963 0.0
C1814 C 0.67033 0.81032 0.54655 0.0
C1815 C 0.70343 0.83239 0.51427 0.0
H1816 H 0.63929 0.8088 0.49324 0.0
C1817 C 0.69017 0.83907 0.452 0.0
C1818 C 0.66829 0.82119 0.44364 0.0
C1819 C 0.69345 0.83883 0.46725 0.0
C1820 C 0.65726 0.81494 0.49889 0.0
H1821 H 0.72324 0.87136 0.56717 0.0
H1822 H 0.71721 0.86636 0.54021 0.0
H1823 H 0.64393 0.81226 0.52013 0.0
H1824 H 0.63312 0.78835 0.44477 0.0
H1825 H 0.63929 0.78727 0.47121 0.0
H1826 H 0.71682 0.83477 0.49313 0.0
C1827 C 0.70496 0.85136 0.54616 0.0
C1828 C 0.6599 0.81705 0.51431 0.0
C1829 C 0.70823 0.85431 0.56156 0.0
C1830 C 0.65028 0.80234 0.45081 0.0
C1831 C 0.65366 0.80195 0.46605 0.0
C1832 C 0.70076 0.82999 0.49884 0.0
C1833 C 0.68608 0.82929 0.5385 0.0
C1834 C 0.68306 0.82608 0.52214 0.0
C1835 C 0.67505 0.82052 0.47453 0.0
C1836 C 0.67768 0.82151 0.49094 0.0
H1837 H 0.66167 0.79813 0.56794 0.0
H1838 H 0.65569 0.79309 0.5409 0.0
H1839 H 0.72145 0.83906 0.52005 0.0
H1840 H 0.70463 0.85362 0.44682 0.0
H1841 H 0.7101 0.85355 0.47337 0.0
C1842 C 0.15443 0.83775 0.55952 0.0
C1843 C 0.13227 0.83379 0.56446 0.0
C1844 C 0.15664 0.83569 0.54443 0.0
C1845 C 0.12064 0.81231 0.50739 0.0
H1846 H 0.18243 0.86007 0.49436 0.0
C1847 C 0.14472 0.80575 0.44776 0.0
C1848 C 0.15917 0.82767 0.44148 0.0
C1849 C 0.13997 0.80633 0.46249 0.0
C1850 C 0.16492 0.84678 0.49775 0.0
H1851 H 0.09489 0.82414 0.5575 0.0
H1852 H 0.09878 0.82094 0.53114 0.0
H1853 H 0.17695 0.86084 0.52044 0.0
H1854 H 0.17937 0.86746 0.44573 0.0
H1855 H 0.17049 0.8685 0.47127 0.0
H1856 H 0.10838 0.79877 0.48459 0.0
C1857 C 0.11438 0.82518 0.53889 0.0
C1858 C 0.16192 0.84694 0.51278 0.0
C1859 C 0.11212 0.82702 0.55401 0.0
C1860 C 0.16806 0.85022 0.45016 0.0
C1861 C 0.16323 0.8508 0.46489 0.0
C1862 C 0.1236 0.81225 0.49231 0.0
C1863 C 0.1368 0.82989 0.5339 0.0
C1864 C 0.13981 0.82961 0.51783 0.0
C1865 C 0.14946 0.82886 0.47132 0.0
C1866 C 0.14583 0.82941 0.4873 0.0
H1867 H 0.17018 0.84272 0.56735 0.0
H1868 H 0.174 0.83885 0.54103 0.0
H1869 H 0.10342 0.79857 0.51085 0.0
H1870 H 0.13724 0.78807 0.44132 0.0
H1871 H 0.12945 0.78905 0.46706 0.0
C1872 C 0.62951 0.8093 0.11895 0.0
C1873 C 0.64151 0.83 0.11117 0.0
C1874 C 0.63187 0.81182 0.1343 0.0
C1875 C 0.64489 0.85421 0.16694 0.0
H1876 H 0.6608 0.81023 0.18641 0.0
C1877 C 0.66876 0.86284 0.2302 0.0
C1878 C 0.66128 0.84099 0.23684 0.0
C1879 C 0.66483 0.86218 0.21491 0.0
C1880 C 0.65595 0.82238 0.18117 0.0
H1881 H 0.66496 0.86971 0.11351 0.0
H1882 H 0.66871 0.87409 0.14056 0.0
H1883 H 0.65787 0.80847 0.15964 0.0
H1884 H 0.64272 0.80124 0.23266 0.0
H1885 H 0.63518 0.80003 0.20608 0.0
H1886 H 0.64263 0.86789 0.18851 0.0
C1887 C 0.65764 0.85594 0.13461 0.0
C1888 C 0.65444 0.82146 0.16584 0.0
C1889 C 0.65551 0.8534 0.11917 0.0
C1890 C 0.64863 0.8184 0.22793 0.0
C1891 C 0.64461 0.81774 0.21266 0.0
C1892 C 0.64622 0.85501 0.18234 0.0
C1893 C 0.64601 0.8351 0.14228 0.0
C1894 C 0.64874 0.83722 0.15858 0.0
C1895 C 0.65328 0.83964 0.20594 0.0
C1896 C 0.65159 0.83895 0.18961 0.0
H1897 H 0.61784 0.7911 0.1132 0.0
H1898 H 0.62234 0.79551 0.13996 0.0
H1899 H 0.64027 0.86641 0.16155 0.0
H1900 H 0.67818 0.88053 0.2368 0.0
H1901 H 0.67176 0.87939 0.21009 0.0
C1902 C 0.20236 0.85206 0.12059 0.0
C1903 C 0.19946 0.82983 0.11416 0.0
C1904 C 0.20055 0.85523 0.13568 0.0
C1905 C 0.20617 0.8327 0.171 0.0
H1906 H 0.16207 0.85459 0.18354 0.0
C1907 C 0.17641 0.82409 0.22987 0.0
C1908 C 0.17203 0.84213 0.23641 0.0
C1909 C 0.18144 0.82417 0.21516 0.0
C1910 C 0.17483 0.84889 0.18031 0.0
H1911 H 0.19325 0.79387 0.11851 0.0
H1912 H 0.19019 0.79945 0.14481 0.0
H1913 H 0.16841 0.85263 0.15753 0.0
H1914 H 0.16984 0.87461 0.23252 0.0
H1915 H 0.17968 0.8754 0.20718 0.0
H1916 H 0.21291 0.82919 0.1937 0.0
C1917 C 0.19372 0.81435 0.1382 0.0
C1918 C 0.17838 0.84771 0.16538 0.0
C1919 C 0.19522 0.81107 0.12314 0.0
C1920 C 0.17338 0.86058 0.22794 0.0
C1921 C 0.17865 0.8608 0.21329 0.0
C1922 C 0.20289 0.83417 0.18595 0.0
C1923 C 0.19624 0.83639 0.14462 0.0
C1924 C 0.19384 0.83932 0.16056 0.0
C1925 C 0.18248 0.84244 0.20663 0.0
C1926 C 0.18694 0.842 0.19079 0.0
H1927 H 0.20567 0.8668 0.1139 0.0
H1928 H 0.20269 0.87246 0.1404 0.0
H1929 H 0.21841 0.82641 0.16758 0.0
H1930 H 0.17587 0.80979 0.23609 0.0
H1931 H 0.18398 0.80954 0.21041 0.0
C1932 C 0.20985 0.4082 0.13174 0.0
C1933 C 0.2058 0.39062 0.1201 0.0
C1934 C 0.20877 0.40243 0.14631 0.0
C1935 C 0.20719 0.35551 0.17018 0.0
H1936 H 0.18031 0.38425 0.19663 0.0
C1937 C 0.17142 0.31899 0.22559 0.0
C1938 C 0.17691 0.33636 0.23779 0.0
C1939 C 0.17782 0.32648 0.21164 0.0
C1940 C 0.18815 0.3763 0.18945 0.0
H1941 H 0.19767 0.35337 0.11435 0.0
H1942 H 0.19446 0.34266 0.13976 0.0
H1943 H 0.18517 0.3951 0.17151 0.0
H1944 H 0.19454 0.37544 0.24485 0.0
H1945 H 0.20515 0.38843 0.2204 0.0
H1946 H 0.2091 0.33593 0.18815 0.0
C1947 C 0.19922 0.36119 0.13779 0.0
C1948 C 0.19103 0.38258 0.175 0.0
C1949 C 0.2008 0.36717 0.12321 0.0
C1950 C 0.18952 0.36149 0.23569 0.0
C1951 C 0.19571 0.36897 0.22169 0.0
C1952 C 0.20396 0.34897 0.18461 0.0
C1953 C 0.20308 0.37873 0.14957 0.0
C1954 C 0.20055 0.37226 0.16511 0.0
C1955 C 0.18966 0.35152 0.20948 0.0
C1956 C 0.19434 0.35926 0.19439 0.0
H1957 H 0.21413 0.42653 0.12956 0.0
H1958 H 0.21253 0.41668 0.15502 0.0
H1959 H 0.21499 0.34749 0.16304 0.0
H1960 H 0.16143 0.29948 0.22669 0.0
H1961 H 0.17265 0.31259 0.20241 0.0
C1962 C 0.77243 0.59436 0.88179 0.0
C1963 C 0.79084 0.60817 0.89347 0.0
C1964 C 0.77507 0.60199 0.86763 0.0
C1965 C 0.82301 0.64284 0.84479 0.0
H1966 H 0.76699 0.6299 0.81788 0.0
C1967 C 0.8353 0.68004 0.78833 0.0
C1968 C 0.82163 0.66248 0.77621 0.0
C1969 C 0.82973 0.67466 0.80268 0.0
C1970 C 0.78276 0.63356 0.82529 0.0
H1971 H 0.82597 0.64116 0.8997 0.0
H1972 H 0.83028 0.65511 0.87515 0.0
H1973 H 0.76103 0.6186 0.84307 0.0
H1974 H 0.79047 0.62599 0.76961 0.0
H1975 H 0.78074 0.61658 0.79481 0.0
H1976 H 0.84473 0.65807 0.82708 0.0
C1977 C 0.81414 0.63791 0.87672 0.0
C1978 C 0.77938 0.627 0.8397 0.0
C1979 C 0.81168 0.63004 0.89082 0.0
C1980 C 0.80151 0.6398 0.77874 0.0
C1981 C 0.79581 0.63449 0.79313 0.0
C1982 C 0.8264 0.64967 0.8305 0.0
C1983 C 0.79604 0.62382 0.86487 0.0
C1984 C 0.79948 0.63145 0.84964 0.0
C1985 C 0.81027 0.65166 0.80526 0.0
C1986 C 0.80634 0.64504 0.82057 0.0
H1987 H 0.75626 0.5773 0.88355 0.0
H1988 H 0.76092 0.59041 0.85879 0.0
H1989 H 0.83887 0.64603 0.85192 0.0
H1990 H 0.85101 0.6976 0.78678 0.0
H1991 H 0.84101 0.68833 0.81183 0.0
C1992 C 0.34171 0.1445 0.89521 0.0
C1993 C 0.35706 0.16792 0.90294 0.0
C1994 C 0.33878 0.14134 0.87979 0.0
C1995 C 0.36675 0.17373 0.84705 0.0
H1996 H 0.30502 0.12262 0.82633 0.0
C1997 C 0.35269 0.15725 0.78332 0.0
C1998 C 0.32949 0.15093 0.77648 0.0
C1999 C 0.3564 0.15742 0.79861 0.0
C2000 C 0.32232 0.13721 0.83189 0.0
H2001 H 0.38116 0.20647 0.90021 0.0
H2002 H 0.37443 0.20128 0.87357 0.0
H2003 H 0.31004 0.12775 0.85303 0.0
H2004 H 0.2921 0.14009 0.78028 0.0
H2005 H 0.29861 0.14106 0.80682 0.0
H2006 H 0.37837 0.18428 0.82589 0.0
C2007 C 0.3654 0.1851 0.87936 0.0
C2008 C 0.32538 0.13988 0.84731 0.0
C2009 C 0.3688 0.18818 0.89477 0.0
C2010 C 0.31007 0.14458 0.7852 0.0
C2011 C 0.31384 0.14508 0.80046 0.0
C2012 C 0.36349 0.1714 0.83163 0.0
C2013 C 0.35063 0.16159 0.87162 0.0
C2014 C 0.34759 0.15829 0.85514 0.0
C2015 C 0.33708 0.15163 0.80743 0.0
C2016 C 0.34115 0.15322 0.82383 0.0
H2017 H 0.33202 0.12847 0.90105 0.0
H2018 H 0.3275 0.12287 0.87432 0.0
H2019 H 0.38435 0.18777 0.85258 0.0
H2020 H 0.36796 0.16209 0.77685 0.0
H2021 H 0.37445 0.16214 0.8035 0.0
C2022 C 0.78037 0.16244 0.88785 0.0
C2023 C 0.80042 0.16963 0.89848 0.0
C2024 C 0.78301 0.16079 0.8728 0.0
C2025 C 0.83083 0.18292 0.8468 0.0
H2026 H 0.77766 0.13367 0.81884 0.0
C2027 C 0.83658 0.18507 0.78406 0.0
C2028 C 0.82787 0.16243 0.77551 0.0
C2029 C 0.83188 0.18583 0.79881 0.0
C2030 C 0.79278 0.14745 0.82649 0.0
H2031 H 0.83868 0.17984 0.9017 0.0
H2032 H 0.84318 0.1763 0.87545 0.0
H2033 H 0.77274 0.13388 0.84508 0.0
H2034 H 0.80636 0.12285 0.77562 0.0
H2035 H 0.7988 0.12416 0.80138 0.0
H2036 H 0.85122 0.19591 0.82831 0.0
C2037 C 0.82557 0.17261 0.87869 0.0
C2038 C 0.78985 0.14776 0.84156 0.0
C2039 C 0.82298 0.1745 0.89375 0.0
C2040 C 0.81371 0.14061 0.78195 0.0
C2041 C 0.8091 0.14137 0.7967 0.0
C2042 C 0.83383 0.1825 0.83177 0.0
C2043 C 0.80571 0.1661 0.86799 0.0
C2044 C 0.80885 0.16549 0.85193 0.0
C2045 C 0.81842 0.16399 0.8054 0.0
C2046 C 0.81486 0.16476 0.82139 0.0
H2047 H 0.76284 0.15892 0.89117 0.0
H2048 H 0.7674 0.15608 0.86493 0.0
H2049 H 0.84574 0.19712 0.85439 0.0
H2050 H 0.84765 0.20224 0.7795 0.0
H2051 H 0.83898 0.2036 0.80507 0.0
C2052 C 0.29405 0.17232 0.45238 0.0
C2053 C 0.30858 0.16581 0.44433 0.0
C2054 C 0.29627 0.17395 0.46776 0.0
C2055 C 0.31851 0.15261 0.49881 0.0
H2056 H 0.31083 0.20125 0.52226 0.0
C2057 C 0.31566 0.15105 0.56152 0.0
C2058 C 0.32916 0.17385 0.57018 0.0
C2059 C 0.31104 0.14997 0.54625 0.0
C2060 C 0.31319 0.18765 0.51589 0.0
H2061 H 0.33726 0.15656 0.44599 0.0
H2062 H 0.34178 0.16013 0.47295 0.0
H2063 H 0.30928 0.20105 0.49554 0.0
H2064 H 0.34704 0.21336 0.56969 0.0
H2065 H 0.33976 0.21153 0.54305 0.0
H2066 H 0.3235 0.13989 0.51915 0.0
C2067 C 0.3282 0.16338 0.46737 0.0
C2068 C 0.31201 0.18735 0.50054 0.0
C2069 C 0.32578 0.1615 0.45196 0.0
C2070 C 0.33698 0.1955 0.5633 0.0
C2071 C 0.33251 0.19443 0.54803 0.0
C2072 C 0.31992 0.15307 0.51415 0.0
C2073 C 0.31322 0.16928 0.47546 0.0
C2074 C 0.31472 0.16985 0.49181 0.0
C2075 C 0.31993 0.17166 0.53927 0.0
C2076 C 0.31731 0.1706 0.5229 0.0
H2077 H 0.2803 0.17529 0.44675 0.0
H2078 H 0.28414 0.17812 0.47357 0.0
H2079 H 0.32024 0.1386 0.49244 0.0
H2080 H 0.30946 0.13401 0.56645 0.0
H2081 H 0.30085 0.1321 0.53988 0.0
C2082 C 0.86252 0.1817 0.45337 0.0
C2083 C 0.86734 0.16367 0.44749 0.0
C2084 C 0.86003 0.18397 0.46844 0.0
C2085 C 0.8489 0.14905 0.50142 0.0
H2086 H 0.86941 0.21247 0.52275 0.0
C2087 C 0.85127 0.16232 0.56469 0.0
C2088 C 0.83967 0.17493 0.56999 0.0
C2089 C 0.85598 0.16213 0.54994 0.0
C2090 C 0.86352 0.19464 0.5169 0.0
H2091 H 0.87424 0.13449 0.45257 0.0
H2092 H 0.87111 0.13907 0.47892 0.0
H2093 H 0.87533 0.20996 0.49666 0.0
H2094 H 0.82437 0.19761 0.56382 0.0
H2095 H 0.83318 0.19774 0.53817 0.0
H2096 H 0.83759 0.13388 0.52178 0.0
C2097 C 0.86825 0.15091 0.47197 0.0
C2098 C 0.86678 0.19314 0.50192 0.0
C2099 C 0.87027 0.14837 0.4569 0.0
C2100 C 0.83365 0.18801 0.56023 0.0
C2101 C 0.83861 0.18803 0.54551 0.0
C2102 C 0.84599 0.15062 0.51642 0.0
C2103 C 0.86274 0.16849 0.47795 0.0
C2104 C 0.85947 0.1703 0.49395 0.0
C2105 C 0.84948 0.17478 0.54016 0.0
C2106 C 0.8532 0.1734 0.52431 0.0
H2107 H 0.86008 0.19359 0.44624 0.0
H2108 H 0.85544 0.19748 0.47254 0.0
H2109 H 0.84247 0.13105 0.49565 0.0
H2110 H 0.85663 0.15246 0.57194 0.0
H2111 H 0.86471 0.15206 0.54616 0.0
C2112 C 0.87866 0.70734 0.45696 0.0
C2113 C 0.87147 0.72398 0.45249 0.0
C2114 C 0.87779 0.70175 0.47161 0.0
C2115 C 0.87667 0.72634 0.50926 0.0
H2116 H 0.84861 0.65885 0.5182 0.0
C2117 C 0.84166 0.69599 0.5653 0.0
C2118 C 0.84407 0.67707 0.57106 0.0
C2119 C 0.84855 0.70276 0.55131 0.0
C2120 C 0.8569 0.67785 0.51593 0.0
H2121 H 0.858 0.74794 0.46 0.0
H2122 H 0.85599 0.73784 0.48531 0.0
H2123 H 0.8536 0.6681 0.49265 0.0
H2124 H 0.85691 0.65136 0.56696 0.0
H2125 H 0.86908 0.66328 0.54255 0.0
H2126 H 0.87966 0.73611 0.53247 0.0
C2127 C 0.86252 0.72926 0.47757 0.0
C2128 C 0.85972 0.68313 0.50127 0.0
C2129 C 0.86331 0.73477 0.46298 0.0
C2130 C 0.8544 0.6657 0.56272 0.0
C2131 C 0.86135 0.67251 0.54873 0.0
C2132 C 0.8739 0.72108 0.52389 0.0
C2133 C 0.86991 0.71285 0.48211 0.0
C2134 C 0.86912 0.70738 0.49774 0.0
C2135 C 0.85813 0.69084 0.54275 0.0
C2136 C 0.86349 0.69672 0.52739 0.0
H2137 H 0.88494 0.69864 0.44913 0.0
H2138 H 0.88367 0.68907 0.47478 0.0
H2139 H 0.8845 0.74529 0.50694 0.0
H2140 H 0.83353 0.70492 0.57137 0.0
H2141 H 0.84549 0.71672 0.54698 0.0
loop_
_geom_bond_atom_site_label_1
_geom_bond_atom_site_label_2
_geom_bond_distance
_geom_bond_site_symmetry_2
_ccdc_geom_bond_type
H0 C3 0.931 . S
H1 C6 0.928 . S
H2 C8 0.930 . S
C3 H0 0.931 . S
C3 C4 1.413 . S
C3 C5 1.360 . S
C4 C3 1.413 . S
C4 C8 1.429 . S
C5 C3 1.360 . S
C5 C6 1.372 . S
C6 H1 0.928 . S
C6 C5 1.372 . S
C6 C7 1.404 . S
C7 C6 1.404 . S
C7 C8 1.391 . S
C8 H2 0.930 . S
C8 C4 1.429 . S
C8 C7 1.391 . S
H9 C12 0.931 . S
H10 C15 0.928 . S
H11 C17 0.930 . S
C12 H9 0.931 . S
C12 C13 1.413 . S
C12 C14 1.360 . S
C13 C12 1.413 . S
C13 C17 1.429 . S
C14 C12 1.360 . S
C14 C15 1.372 . S
C15 H10 0.928 . S
C15 C14 1.372 . S
C15 C16 1.404 . S
C16 C15 1.404 . S
C16 C17 1.391 . S
C17 H11 0.930 . S
C17 C13 1.429 . S
C17 C16 1.391 . S
H18 C21 0.931 . S
H19 C24 0.928 . S
H20 C26 0.930 . S
C21 H18 0.931 . S
C21 C22 1.413 . S
C21 C23 1.360 . S
C22 C21 1.413 . S
C22 C26 1.429 . S
C23 C21 1.360 . S
C23 C24 1.372 . S
C24 H19 0.928 . S
C24 C23 1.372 . S
C24 C25 1.404 . S
C25 C24 1.404 . S
C25 C26 1.391 . S
C26 H20 0.930 . S
C26 C22 1.429 . S
C26 C25 1.391 . S
H27 C30 0.931 . S
H28 C33 0.928 . S
H29 C35 0.930 . S
C30 H27 0.931 . S
C30 C31 1.413 . S
C30 C32 1.360 . S
C31 C30 1.413 . S
C31 C35 1.429 . S
C32 C30 1.360 . S
C32 C33 1.372 . S
C33 H28 0.928 . S
C33 C32 1.372 . S
C33 C34 1.404 . S
C34 C33 1.404 . S
C34 C35 1.391 . S
C35 H29 0.930 . S
C35 C31 1.429 . S
C35 C34 1.391 . S
H36 C39 0.931 . S
H37 C42 0.928 . S
H38 C44 0.930 . S
C39 H36 0.931 . S
C39 C40 1.413 . S
C39 C41 1.360 . S
C40 C39 1.413 . S
C40 C44 1.429 . S
C41 C39 1.360 . S
C41 C42 1.372 . S
C42 H37 0.928 . S
C42 C41 1.372 . S
C42 C43 1.404 . S
C43 C42 1.404 . S
C43 C44 1.391 . S
C44 H38 0.930 . S
C44 C40 1.429 . S
C44 C43 1.391 . S
H45 C48 0.931 . S
H46 C51 0.928 . S
H47 C53 0.930 . S
C48 H45 0.931 . S
C48 C49 1.413 . S
C48 C50 1.360 . S
C49 C48 1.413 . S
C49 C53 1.429 . S
C50 C48 1.360 . S
C50 C51 1.372 . S
C51 H46 0.928 . S
C51 C50 1.372 . S
C51 C52 1.404 . S
C52 C51 1.404 . S
C52 C53 1.391 . S
C53 H47 0.930 . S
C53 C49 1.429 . S
C53 C52 1.391 . S
H54 C57 0.931 . S
H55 C60 0.928 . S
H56 C62 0.930 . S
C57 H54 0.931 . S
C57 C58 1.413 . S
C57 C59 1.360 . S
C58 C57 1.413 . S
C58 C62 1.429 . S
C59 C57 1.360 . S
C59 C60 1.372 . S
C60 H55 0.928 . S
C60 C59 1.372 . S
C60 C61 1.404 . S
C61 C60 1.404 . S
C61 C62 1.391 . S
C62 H56 0.930 . S
C62 C58 1.429 . S
C62 C61 1.391 . S
H63 C66 0.931 . S
H64 C69 0.928 . S
H65 C71 0.930 . S
C66 H63 0.931 . S
C66 C67 1.413 . S
C66 C68 1.360 . S
C67 C66 1.413 . S
C67 C71 1.429 . S
C68 C66 1.360 . S
C68 C69 1.372 . S
C69 H64 0.928 . S
C69 C68 1.372 . S
C69 C70 1.404 . S
C70 C69 1.404 . S
C70 C71 1.391 . S
C71 H65 0.930 . S
C71 C67 1.429 . S
C71 C70 1.391 . S
H72 C75 0.931 . S
H73 C78 0.928 . S
H74 C80 0.930 . S
C75 H72 0.931 . S
C75 C76 1.413 . S
C75 C77 1.360 . S
C76 C75 1.413 . S
C76 C80 1.429 . S
C77 C75 1.360 . S
C77 C78 1.372 . S
C78 H73 0.928 . S
C78 C77 1.372 . S
C78 C79 1.404 . S
C79 C78 1.404 . S
C79 C80 1.391 . S
C80 H74 0.930 . S
C80 C76 1.429 . S
C80 C79 1.391 . S
H81 C84 0.931 . S
H82 C87 0.928 . S
H83 C89 0.930 . S
C84 H81 0.931 . S
C84 C85 1.413 . S
C84 C86 1.360 . S
C85 C84 1.413 . S
C85 C89 1.429 . S
C86 C84 1.360 . S
C86 C87 1.372 . S
C87 H82 0.928 . S
C87 C86 1.372 . S
C87 C88 1.404 . S
C88 C87 1.404 . S
C88 C89 1.391 . S
C89 H83 0.930 . S
C89 C85 1.429 . S
C89 C88 1.391 . S
H90 C93 0.931 . S
H91 C96 0.928 . S
H92 C98 0.930 . S
C93 H90 0.931 . S
C93 C94 1.413 . S
C93 C95 1.360 . S
C94 C93 1.413 . S
C94 C98 1.429 . S
C95 C93 1.360 . S
C95 C96 1.372 . S
C96 H91 0.928 . S
C96 C95 1.372 . S
C96 C97 1.404 . S
C97 C96 1.404 . S
C97 C98 1.391 . S
C98 H92 0.930 . S
C98 C94 1.429 . S
C98 C97 1.391 . S
H99 C102 0.931 . S
H100 C105 0.928 . S
H101 C107 0.930 . S
C102 H99 0.931 . S
C102 C103 1.413 . S
C102 C104 1.360 . S
C103 C102 1.413 . S
C103 C107 1.429 . S
C104 C102 1.360 . S
C104 C105 1.372 . S
C105 H100 0.928 . S
C105 C104 1.372 . S
C105 C106 1.404 . S
C106 C105 1.404 . S
C106 C107 1.391 . S
C107 H101 0.930 . S
C107 C103 1.429 . S
C107 C106 1.391 . S
H108 C111 0.931 . S
H109 C114 0.928 . S
H110 C116 0.930 . S
C111 H108 0.931 . S
C111 C112 1.413 . S
C111 C113 1.360 . S
C112 C111 1.413 . S
C112 C116 1.429 . S
C113 C111 1.360 . S
C113 C114 1.372 . S
C114 H109 0.928 . S
C114 C113 1.372 . S
C114 C115 1.404 . S
C115 C114 1.404 . S
C115 C116 1.391 . S
C116 H110 0.930 . S
C116 C112 1.429 . S
C116 C115 1.391 . S
H117 C120 0.931 . S
H118 C123 0.928 . S
H119 C125 0.930 . S
C120 H117 0.931 . S
C120 C121 1.413 . S
C120 C122 1.360 . S
C121 C120 1.413 . S
C121 C125 1.429 . S
C122 C120 1.360 . S
C122 C123 1.372 . S
C123 H118 0.928 . S
C123 C122 1.372 . S
C123 C124 1.404 . S
C124 C123 1.404 . S
C124 C125 1.391 . S
C125 H119 0.930 . S
C125 C121 1.429 . S
C125 C124 1.391 . S
H126 C129 0.931 . S
H127 C132 0.928 . S
H128 C134 0.930 . S
C129 H126 0.931 . S
C129 C130 1.413 . S
C129 C131 1.360 . S
C130 C129 1.413 . S
C130 C134 1.429 . S
C131 C129 1.360 . S
C131 C132 1.372 . S
C132 H127 0.928 . S
C132 C131 1.372 . S
C132 C133 1.404 . S
C133 C132 1.404 . S
C133 C134 1.391 . S
C134 H128 0.930 . S
C134 C130 1.429 . S
C134 C133 1.391 . S
H135 C138 0.931 . S
H136 C141 0.928 . S
H137 C143 0.930 . S
C138 H135 0.931 . S
C138 C139 1.413 . S
C138 C140 1.360 . S
C139 C138 1.413 . S
C139 C143 1.429 . S
C140 C138 1.360 . S
C140 C141 1.372 . S
C141 H136 0.928 . S
C141 C140 1.372 . S
C141 C142 1.404 . S
C142 C141 1.404 . S
C142 C143 1.391 . S
C143 H137 0.930 . S
C143 C139 1.429 . S
C143 C142 1.391 . S
H144 C147 0.931 . S
H145 C150 0.928 . S
H146 C152 0.930 . S
C147 H144 0.931 . S
C147 C148 1.413 . S
C147 C149 1.360 . S
C148 C147 1.413 . S
C148 C152 1.429 . S
C149 C147 1.360 . S
C149 C150 1.372 . S
C150 H145 0.928 . S
C150 C149 1.372 . S
C150 C151 1.404 . S
C151 C150 1.404 . S
C151 C152 1.391 . S
C152 H146 0.930 . S
C152 C148 1.429 . S
C152 C151 1.391 . S
H153 C156 0.931 . S
H154 C159 0.928 . S
H155 C161 0.930 . S
C156 H153 0.931 . S
C156 C157 1.413 . S
C156 C158 1.360 . S
C157 C156 1.413 . S
C157 C161 1.429 . S
C158 C156 1.360 . S
C158 C159 1.372 . S
C159 H154 0.928 . S
C159 C158 1.372 . S
C159 C160 1.404 . S
C160 C159 1.404 . S
C160 C161 1.391 . S
C161 H155 0.930 . S
C161 C157 1.429 . S
C161 C160 1.391 . S
Eu162 C171 2.828 . S
Eu162 O173 2.392 1_556 S
Eu162 O175 2.418 . S
Eu162 O180 2.373 1_565 S
Eu162 O183 2.488 . S
Eu162 O184 2.471 1_565 S
Eu162 O185 2.349 1_565 S
Eu163 O172 2.373 1_545 S
Eu163 O176 2.488 . S
Eu163 O177 2.461 1_545 S
Eu163 O178 2.349 1_545 S
Eu163 O181 2.392 . S
Eu163 O182 2.418 . S
Eu163 C192 2.828 . S
C164 O182 1.244 . S
C164 O185 1.265 1_554 S
C165 C166 1.379 1_565 S
C165 C169 1.373 . S
C165 C171 1.505 . S
C166 C165 1.379 1_545 S
C166 C168 1.369 . S
C166 H194 0.930 . S
C167 C169 1.383 . S
C167 C170 1.382 1_565 S
C167 H195 0.930 . S
C168 C166 1.369 . S
C168 C170 1.392 . S
C168 H196 0.930 . S
C169 C165 1.373 . S
C169 C167 1.383 . S
C169 H197 0.931 . S
C170 C167 1.382 1_545 S
C170 C168 1.392 . S
C171 Eu162 2.828 . S
C171 C165 1.505 . S
C171 O183 1.249 . S
C171 O184 1.244 1_565 S
O172 Eu163 2.373 1_565 S
O172 C174 1.258 . S
O173 Eu162 2.392 1_554 S
O173 C174 1.242 . S
C174 O172 1.258 . S
C174 O173 1.242 . S
O175 Eu162 2.418 . S
O175 C179 1.244 1_556 S
O176 Eu163 2.488 . S
O176 C192 1.249 . S
O177 Eu163 2.461 1_565 S
O177 C192 1.228 1_565 S
O178 Eu163 2.349 1_565 S
O178 C179 1.265 . S
C179 O175 1.244 1_554 S
C179 O178 1.265 . S
O180 Eu162 2.373 1_545 S
O180 C193 1.258 . S
O181 Eu163 2.392 . S
O181 C193 1.242 1_554 S
O182 Eu163 2.418 . S
O182 C164 1.244 . S
O183 Eu162 2.488 . S
O183 C171 1.249 . S
O184 Eu162 2.471 1_545 S
O184 C171 1.244 1_545 S
O185 Eu162 2.349 1_545 S
O185 C164 1.265 1_556 S
C186 C187 1.379 1_545 S
C186 C190 1.373 . S
C186 C192 1.505 . S
C187 C186 1.379 1_565 S
C187 C189 1.369 . S
C187 H198 0.930 . S
C188 C190 1.383 . S
C188 C191 1.382 1_545 S
C188 H199 0.930 . S
C189 C187 1.369 . S
C189 C191 1.392 . S
C189 H200 0.930 . S
C190 C186 1.373 . S
C190 C188 1.383 . S
C190 H201 0.931 . S
C191 C188 1.382 1_565 S
C191 C189 1.392 . S
C192 Eu163 2.828 . S
C192 O176 1.249 . S
C192 O177 1.228 1_545 S
C192 C186 1.505 . S
C193 O180 1.258 . S
C193 O181 1.242 1_556 S
H194 C166 0.930 . S
H195 C167 0.930 . S
H196 C168 0.930 . S
H197 C169 0.931 . S
H198 C187 0.930 . S
H199 C188 0.930 . S
H200 C189 0.930 . S
H201 C190 0.931 . S
Eu202 C211 2.828 . S
Eu202 O213 2.392 1_556 S
Eu202 O215 2.418 . S
Eu202 O220 2.373 1_455 S
Eu202 O223 2.488 . S
Eu202 O224 2.471 1_455 S
Eu202 O225 2.349 1_455 S
Eu203 O212 2.373 1_655 S
Eu203 O216 2.488 . S
Eu203 O217 2.471 1_655 S
Eu203 O218 2.349 1_655 S
Eu203 O221 2.392 . S
Eu203 O222 2.418 . S
Eu203 C232 2.828 . S
C204 O222 1.222 1_556 S
C204 O225 1.275 . S
C205 C206 1.379 1_455 S
C205 C209 1.373 . S
C205 C211 1.505 . S
C206 C205 1.379 1_655 S
C206 C208 1.369 . S
C206 H234 0.930 . S
C207 C209 1.383 . S
C207 C210 1.382 1_455 S
C207 H235 0.930 . S
C208 C206 1.369 . S
C208 C210 1.392 . S
C208 H236 0.930 . S
C209 C205 1.373 . S
C209 C207 1.383 . S
C209 H237 0.931 . S
C210 C207 1.382 1_655 S
C210 C208 1.392 . S
C211 Eu202 2.828 . S
C211 C205 1.505 . S
C211 O223 1.249 . S
C211 O224 1.244 1_455 S
O212 Eu203 2.373 1_455 S
O212 C214 1.258 . S
O213 Eu202 2.392 1_554 S
O213 C214 1.242 . S
C214 O212 1.258 . S
C214 O213 1.242 . S
O215 Eu202 2.418 . S
O215 C219 1.244 1_556 S
O216 Eu203 2.488 . S
O216 C232 1.249 . S
O217 Eu203 2.471 1_455 S
O217 C232 1.244 1_455 S
O218 Eu203 2.349 1_455 S
O218 C219 1.265 . S
C219 O215 1.244 1_554 S
C219 O218 1.265 . S
O220 Eu202 2.373 1_655 S
O220 C233 1.258 . S
O221 Eu203 2.392 . S
O221 C233 1.242 1_554 S
O222 Eu203 2.418 . S
O222 C204 1.222 1_554 S
O223 Eu202 2.488 . S
O223 C211 1.249 . S
O224 Eu202 2.471 1_655 S
O224 C211 1.244 1_655 S
O225 Eu202 2.349 1_655 S
O225 C204 1.275 . S
C226 C227 1.349 1_655 S
C226 C230 1.391 . S
C226 C232 1.518 . S
C227 C226 1.349 1_455 S
C227 C229 1.369 . S
C227 H238 0.930 . S
C228 C230 1.383 . S
C228 C231 1.382 1_655 S
C228 H239 0.930 . S
C229 C227 1.369 . S
C229 C231 1.392 . S
C229 H240 0.930 . S
C230 C226 1.391 . S
C230 C228 1.383 . S
C230 H241 0.931 . S
C231 C228 1.382 1_455 S
C231 C229 1.392 . S
C232 Eu203 2.828 . S
C232 O216 1.249 . S
C232 O217 1.244 1_655 S
C232 C226 1.518 . S
C233 O220 1.258 . S
C233 O221 1.242 1_556 S
H234 C206 0.930 . S
H235 C207 0.930 . S
H236 C208 0.930 . S
H237 C209 0.931 . S
H238 C227 0.930 . S
H239 C228 0.930 . S
H240 C229 0.930 . S
H241 C230 0.931 . S
Eu242 C251 2.828 . S
Eu242 O253 2.392 . S
Eu242 O255 2.418 . S
Eu242 O260 2.373 . S
Eu242 O263 2.488 . S
Eu242 O264 2.471 . S
Eu242 O265 2.349 . S
Eu243 O252 2.373 . S
Eu243 O256 2.488 . S
Eu243 O257 2.471 . S
Eu243 O258 2.349 . S
Eu243 O261 2.392 1_556 S
Eu243 O262 2.418 . S
Eu243 C272 2.828 . S
C244 O262 1.244 1_554 S
C244 O265 1.265 . S
C245 C246 1.379 . S
C245 C249 1.373 . S
C245 C251 1.505 . S
C246 C245 1.379 . S
C246 C248 1.369 . S
C246 H274 0.930 . S
C247 C249 1.383 . S
C247 C250 1.382 . S
C247 H275 0.930 . S
C248 C246 1.369 . S
C248 C250 1.392 . S
C248 H276 0.930 . S
C249 C245 1.373 . S
C249 C247 1.383 . S
C249 H277 0.931 . S
C250 C247 1.382 . S
C250 C248 1.392 . S
C251 Eu242 2.828 . S
C251 C245 1.505 . S
C251 O263 1.249 . S
C251 O264 1.244 . S
O252 Eu243 2.373 . S
O252 C254 1.258 . S
O253 Eu242 2.392 . S
O253 C254 1.242 1_554 S
C254 O252 1.258 . S
C254 O253 1.242 1_556 S
O255 Eu242 2.418 . S
O255 C259 1.258 . S
O256 Eu243 2.488 . S
O256 C272 1.249 . S
O257 Eu243 2.471 . S
O257 C272 1.244 . S
O258 Eu243 2.349 . S
O258 C259 1.259 1_556 S
C259 O255 1.258 . S
C259 O258 1.259 1_554 S
O260 Eu242 2.373 . S
O260 C273 1.258 . S
O261 Eu243 2.392 1_554 S
O261 C273 1.242 . S
O262 Eu243 2.418 . S
O262 C244 1.244 1_556 S
O263 Eu242 2.488 . S
O263 C251 1.249 . S
O264 Eu242 2.471 . S
O264 C251 1.244 . S
O265 Eu242 2.349 . S
O265 C244 1.265 . S
C266 C267 1.379 . S
C266 C270 1.373 . S
C266 C272 1.505 . S
C267 C266 1.379 . S
C267 C269 1.369 . S
C267 H278 0.930 . S
C268 C270 1.383 . S
C268 C271 1.382 . S
C268 H279 0.930 . S
C269 C267 1.369 . S
C269 C271 1.392 . S
C269 H280 0.930 . S
C270 C266 1.373 . S
C270 C268 1.383 . S
C270 H281 0.931 . S
C271 C268 1.382 . S
C271 C269 1.392 . S
C272 Eu243 2.828 . S
C272 O256 1.249 . S
C272 O257 1.244 . S
C272 C266 1.505 . S
C273 O260 1.258 . S
C273 O261 1.242 . S
H274 C246 0.930 . S
H275 C247 0.930 . S
H276 C248 0.930 . S
H277 C249 0.931 . S
H278 C267 0.930 . S
H279 C268 0.930 . S
H280 C269 0.930 . S
H281 C270 0.931 . S
Eu282 C291 2.828 . S
Eu282 O293 2.392 . S
Eu282 O295 2.418 . S
Eu282 O300 2.373 . S
Eu282 O303 2.488 . S
Eu282 O304 2.471 . S
Eu282 O305 2.349 . S
Eu283 O292 2.373 . S
Eu283 O296 2.488 . S
Eu283 O297 2.471 . S
Eu283 O298 2.349 . S
Eu283 O301 2.392 . S
Eu283 O302 2.418 . S
Eu283 C312 2.828 . S
C284 O302 1.244 . S
C284 O305 1.265 . S
C285 C286 1.379 . S
C285 C289 1.373 . S
C285 C291 1.505 . S
C286 C285 1.379 . S
C286 C288 1.369 . S
C286 H314 0.930 . S
C287 C289 1.383 . S
C287 C290 1.382 . S
C287 H315 0.930 . S
C288 C286 1.369 . S
C288 C290 1.392 . S
C288 H316 0.930 . S
C289 C285 1.373 . S
C289 C287 1.383 . S
C289 H317 0.931 . S
C290 C287 1.382 . S
C290 C288 1.392 . S
C291 Eu282 2.828 . S
C291 C285 1.505 . S
C291 O303 1.249 . S
C291 O304 1.244 . S
O292 Eu283 2.373 . S
O292 C294 1.258 . S
O293 Eu282 2.392 . S
O293 C294 1.242 . S
C294 O292 1.258 . S
C294 O293 1.242 . S
O295 Eu282 2.418 . S
O295 C299 1.244 . S
O296 Eu283 2.488 . S
O296 C312 1.249 . S
O297 Eu283 2.471 . S
O297 C312 1.244 . S
O298 Eu283 2.349 . S
O298 C299 1.265 . S
C299 O295 1.244 . S
C299 O298 1.265 . S
O300 Eu282 2.373 . S
O300 C313 1.258 . S
O301 Eu283 2.392 . S
O301 C313 1.242 . S
O302 Eu283 2.418 . S
O302 C284 1.244 . S
O303 Eu282 2.488 . S
O303 C291 1.249 . S
O304 Eu282 2.471 . S
O304 C291 1.244 . S
O305 Eu282 2.349 . S
O305 C284 1.265 . S
C306 C307 1.379 . S
C306 C310 1.373 . S
C306 C312 1.505 . S
C307 C306 1.379 . S
C307 C309 1.369 . S
C307 H318 0.930 . S
C308 C310 1.383 . S
C308 C311 1.382 . S
C308 H319 0.930 . S
C309 C307 1.369 . S
C309 C311 1.392 . S
C309 H320 0.930 . S
C310 C306 1.373 . S
C310 C308 1.383 . S
C310 H321 0.931 . S
C311 C308 1.382 . S
C311 C309 1.392 . S
C312 Eu283 2.828 . S
C312 O296 1.249 . S
C312 O297 1.244 . S
C312 C306 1.505 . S
C313 O300 1.258 . S
C313 O301 1.242 . S
H314 C286 0.930 . S
H315 C287 0.930 . S
H316 C288 0.930 . S
H317 C289 0.931 . S
H318 C307 0.930 . S
H319 C308 0.930 . S
H320 C309 0.930 . S
H321 C310 0.931 . S
Eu322 C331 2.828 . S
Eu322 O333 2.392 . S
Eu322 O335 2.418 . S
Eu322 O340 2.373 . S
Eu322 O343 2.488 . S
Eu322 O344 2.471 . S
Eu322 O345 2.349 . S
Eu323 O332 2.373 . S
Eu323 O336 2.488 . S
Eu323 O337 2.471 . S
Eu323 O338 2.349 . S
Eu323 O341 2.392 . S
Eu323 O342 2.418 . S
Eu323 C352 2.828 . S
C324 O342 1.244 . S
C324 O345 1.265 . S
C325 C326 1.379 . S
C325 C329 1.373 . S
C325 C331 1.505 . S
C326 C325 1.379 . S
C326 C328 1.369 . S
C326 H354 0.930 . S
C327 C329 1.383 . S
C327 C330 1.382 . S
C327 H355 0.930 . S
C328 C326 1.369 . S
C328 C330 1.392 . S
C328 H356 0.930 . S
C329 C325 1.373 . S
C329 C327 1.383 . S
C329 H357 0.931 . S
C330 C327 1.382 . S
C330 C328 1.392 . S
C331 Eu322 2.828 . S
C331 C325 1.505 . S
C331 O343 1.249 . S
C331 O344 1.244 . S
O332 Eu323 2.373 . S
O332 C334 1.258 . S
O333 Eu322 2.392 . S
O333 C334 1.242 . S
C334 O332 1.258 . S
C334 O333 1.242 . S
O335 Eu322 2.418 . S
O335 C339 1.244 . S
O336 Eu323 2.488 . S
O336 C352 1.249 . S
O337 Eu323 2.471 . S
O337 C352 1.244 . S
O338 Eu323 2.349 . S
O338 C339 1.265 . S
C339 O335 1.244 . S
C339 O338 1.265 . S
O340 Eu322 2.373 . S
O340 C353 1.258 . S
O341 Eu323 2.392 . S
O341 C353 1.242 . S
O342 Eu323 2.418 . S
O342 C324 1.244 . S
O343 Eu322 2.488 . S
O343 C331 1.249 . S
O344 Eu322 2.471 . S
O344 C331 1.244 . S
O345 Eu322 2.349 . S
O345 C324 1.265 . S
C346 C347 1.379 . S
C346 C350 1.373 . S
C346 C352 1.505 . S
C347 C346 1.379 . S
C347 C349 1.369 . S
C347 H358 0.930 . S
C348 C350 1.383 . S
C348 C351 1.382 . S
C348 H359 0.930 . S
C349 C347 1.369 . S
C349 C351 1.392 . S
C349 H360 0.930 . S
C350 C346 1.373 . S
C350 C348 1.383 . S
C350 H361 0.931 . S
C351 C348 1.382 . S
C351 C349 1.392 . S
C352 Eu323 2.828 . S
C352 O336 1.249 . S
C352 O337 1.244 . S
C352 C346 1.505 . S
C353 O340 1.258 . S
C353 O341 1.242 . S
H354 C326 0.930 . S
H355 C327 0.930 . S
H356 C328 0.930 . S
H357 C329 0.931 . S
H358 C347 0.930 . S
H359 C348 0.930 . S
H360 C349 0.930 . S
H361 C350 0.931 . S
Eu362 C371 2.828 . S
Eu362 O373 2.392 . S
Eu362 O375 2.418 . S
Eu362 O380 2.373 . S
Eu362 O383 2.488 . S
Eu362 O384 2.471 . S
Eu362 O385 2.349 . S
Eu363 O372 2.373 . S
Eu363 O376 2.488 . S
Eu363 O377 2.471 . S
Eu363 O378 2.349 . S
Eu363 O381 2.392 . S
Eu363 O382 2.418 . S
Eu363 C392 2.828 . S
C364 O382 1.244 . S
C364 O385 1.265 . S
C365 C366 1.379 . S
C365 C369 1.373 . S
C365 C371 1.505 . S
C366 C365 1.379 . S
C366 C368 1.369 . S
C366 H394 0.930 . S
C367 C369 1.383 . S
C367 C370 1.382 . S
C367 H395 0.930 . S
C368 C366 1.369 . S
C368 C370 1.392 . S
C368 H396 0.930 . S
C369 C365 1.373 . S
C369 C367 1.383 . S
C369 H397 0.931 . S
C370 C367 1.382 . S
C370 C368 1.392 . S
C371 Eu362 2.828 . S
C371 C365 1.505 . S
C371 O383 1.249 . S
C371 O384 1.244 . S
O372 Eu363 2.373 . S
O372 C374 1.258 . S
O373 Eu362 2.392 . S
O373 C374 1.242 . S
C374 O372 1.258 . S
C374 O373 1.242 . S
O375 Eu362 2.418 . S
O375 C379 1.244 . S
O376 Eu363 2.488 . S
O376 C392 1.249 . S
O377 Eu363 2.471 . S
O377 C392 1.244 . S
O378 Eu363 2.349 . S
O378 C379 1.265 . S
C379 O375 1.244 . S
C379 O378 1.265 . S
O380 Eu362 2.373 . S
O380 C393 1.258 . S
O381 Eu363 2.392 . S
O381 C393 1.242 . S
O382 Eu363 2.418 . S
O382 C364 1.244 . S
O383 Eu362 2.488 . S
O383 C371 1.249 . S
O384 Eu362 2.471 . S
O384 C371 1.244 . S
O385 Eu362 2.349 . S
O385 C364 1.265 . S
C386 C387 1.379 . S
C386 C390 1.373 . S
C386 C392 1.505 . S
C387 C386 1.379 . S
C387 C389 1.369 . S
C387 H398 0.930 . S
C388 C390 1.383 . S
C388 C391 1.382 . S
C388 H399 0.930 . S
C389 C387 1.369 . S
C389 C391 1.392 . S
C389 H400 0.930 . S
C390 C386 1.373 . S
C390 C388 1.383 . S
C390 H401 0.931 . S
C391 C388 1.382 . S
C391 C389 1.392 . S
C392 Eu363 2.828 . S
C392 O376 1.249 . S
C392 O377 1.244 . S
C392 C386 1.505 . S
C393 O380 1.258 . S
C393 O381 1.242 . S
H394 C366 0.930 . S
H395 C367 0.930 . S
H396 C368 0.930 . S
H397 C369 0.931 . S
H398 C387 0.930 . S
H399 C388 0.930 . S
H400 C389 0.930 . S
H401 C390 0.931 . S
Eu402 C411 2.828 . S
Eu402 O413 2.392 . S
Eu402 O415 2.418 . S
Eu402 O420 2.373 . S
Eu402 O423 2.488 . S
Eu402 O424 2.471 . S
Eu402 O425 2.349 . S
Eu403 O412 2.373 . S
Eu403 O416 2.488 . S
Eu403 O417 2.471 . S
Eu403 O418 2.349 . S
Eu403 O421 2.392 . S
Eu403 O422 2.418 . S
Eu403 C432 2.828 . S
C404 O422 1.244 . S
C404 O425 1.265 . S
C405 C406 1.379 . S
C405 C409 1.373 . S
C405 C411 1.505 . S
C406 C405 1.379 . S
C406 C408 1.369 . S
C406 H434 0.930 . S
C407 C409 1.383 . S
C407 C410 1.382 . S
C407 H435 0.930 . S
C408 C406 1.369 . S
C408 C410 1.392 . S
C408 H436 0.930 . S
C409 C405 1.373 . S
C409 C407 1.383 . S
C409 H437 0.931 . S
C410 C407 1.382 . S
C410 C408 1.392 . S
C411 Eu402 2.828 . S
C411 C405 1.505 . S
C411 O423 1.249 . S
C411 O424 1.244 . S
O412 Eu403 2.373 . S
O412 C414 1.258 . S
O413 Eu402 2.392 . S
O413 C414 1.242 . S
C414 O412 1.258 . S
C414 O413 1.242 . S
O415 Eu402 2.418 . S
O415 C419 1.244 . S
O416 Eu403 2.488 . S
O416 C432 1.249 . S
O417 Eu403 2.471 . S
O417 C432 1.244 . S
O418 Eu403 2.349 . S
O418 C419 1.265 . S
C419 O415 1.244 . S
C419 O418 1.265 . S
O420 Eu402 2.373 . S
O420 C433 1.258 . S
O421 Eu403 2.392 . S
O421 C433 1.242 . S
O422 Eu403 2.418 . S
O422 C404 1.244 . S
O423 Eu402 2.488 . S
O423 C411 1.249 . S
O424 Eu402 2.471 . S
O424 C411 1.244 . S
O425 Eu402 2.349 . S
O425 C404 1.265 . S
C426 C427 1.379 . S
C426 C430 1.373 . S
C426 C432 1.505 . S
C427 C426 1.379 . S
C427 C429 1.369 . S
C427 H438 0.930 . S
C428 C430 1.383 . S
C428 C431 1.382 . S
C428 H439 0.930 . S
C429 C427 1.369 . S
C429 C431 1.392 . S
C429 H440 0.930 . S
C430 C426 1.373 . S
C430 C428 1.383 . S
C430 H441 0.931 . S
C431 C428 1.382 . S
C431 C429 1.392 . S
C432 Eu403 2.828 . S
C432 O416 1.249 . S
C432 O417 1.244 . S
C432 C426 1.505 . S
C433 O420 1.258 . S
C433 O421 1.242 . S
H434 C406 0.930 . S
H435 C407 0.930 . S
H436 C408 0.930 . S
H437 C409 0.931 . S
H438 C427 0.930 . S
H439 C428 0.930 . S
H440 C429 0.930 . S
H441 C430 0.931 . S
Eu442 C451 2.828 . S
Eu442 O453 2.392 . S
Eu442 O455 2.418 . S
Eu442 O460 2.373 . S
Eu442 O463 2.488 . S
Eu442 O464 2.471 . S
Eu442 O465 2.349 . S
Eu443 O452 2.373 . S
Eu443 O456 2.488 . S
Eu443 O457 2.471 . S
Eu443 O458 2.349 . S
Eu443 O461 2.392 . S
Eu443 O462 2.418 . S
Eu443 C472 2.828 . S
C444 O462 1.244 . S
C444 O465 1.265 . S
C445 C446 1.379 . S
C445 C449 1.373 . S
C445 C451 1.505 . S
C446 C445 1.379 . S
C446 C448 1.369 . S
C446 H474 0.930 . S
C447 C449 1.383 . S
C447 C450 1.382 . S
C447 H475 0.930 . S
C448 C446 1.369 . S
C448 C450 1.392 . S
C448 H476 0.930 . S
C449 C445 1.373 . S
C449 C447 1.383 . S
C449 H477 0.931 . S
C450 C447 1.382 . S
C450 C448 1.392 . S
C451 Eu442 2.828 . S
C451 C445 1.505 . S
C451 O463 1.249 . S
C451 O464 1.244 . S
O452 Eu443 2.373 . S
O452 C454 1.258 . S
O453 Eu442 2.392 . S
O453 C454 1.242 . S
C454 O452 1.258 . S
C454 O453 1.242 . S
O455 Eu442 2.418 . S
O455 C459 1.244 . S
O456 Eu443 2.488 . S
O456 C472 1.249 . S
O457 Eu443 2.471 . S
O457 C472 1.244 . S
O458 Eu443 2.349 . S
O458 C459 1.265 . S
C459 O455 1.244 . S
C459 O458 1.265 . S
O460 Eu442 2.373 . S
O460 C473 1.258 . S
O461 Eu443 2.392 . S
O461 C473 1.242 . S
O462 Eu443 2.418 . S
O462 C444 1.244 . S
O463 Eu442 2.488 . S
O463 C451 1.249 . S
O464 Eu442 2.471 . S
O464 C451 1.244 . S
O465 Eu442 2.349 . S
O465 C444 1.265 . S
C466 C467 1.379 . S
C466 C470 1.373 . S
C466 C472 1.505 . S
C467 C466 1.379 . S
C467 C469 1.369 . S
C467 H478 0.930 . S
C468 C470 1.383 . S
C468 C471 1.382 . S
C468 H479 0.930 . S
C469 C467 1.369 . S
C469 C471 1.392 . S
C469 H480 0.930 . S
C470 C466 1.373 . S
C470 C468 1.383 . S
C470 H481 0.931 . S
C471 C468 1.382 . S
C471 C469 1.392 . S
C472 Eu443 2.828 . S
C472 O456 1.249 . S
C472 O457 1.244 . S
C472 C466 1.505 . S
C473 O460 1.258 . S
C473 O461 1.242 . S
H474 C446 0.930 . S
H475 C447 0.930 . S
H476 C448 0.930 . S
H477 C449 0.931 . S
H478 C467 0.930 . S
H479 C468 0.930 . S
H480 C469 0.930 . S
H481 C470 0.931 . S
Eu482 C491 2.828 . S
Eu482 O493 2.392 . S
Eu482 O495 2.418 . S
Eu482 O500 2.373 . S
Eu482 O503 2.488 . S
Eu482 O504 2.471 . S
Eu482 O505 2.349 . S
Eu483 O492 2.373 . S
Eu483 O496 2.488 . S
Eu483 O497 2.471 . S
Eu483 O498 2.349 . S
Eu483 O501 2.392 . S
Eu483 O502 2.418 . S
Eu483 C512 2.828 . S
C484 O502 1.244 . S
C484 O505 1.265 . S
C485 C486 1.379 . S
C485 C489 1.373 . S
C485 C491 1.505 . S
C486 C485 1.379 . S
C486 C488 1.369 . S
C486 H514 0.930 . S
C487 C489 1.383 . S
C487 C490 1.382 . S
C487 H515 0.930 . S
C488 C486 1.369 . S
C488 C490 1.392 . S
C488 H516 0.930 . S
C489 C485 1.373 . S
C489 C487 1.383 . S
C489 H517 0.931 . S
C490 C487 1.382 . S
C490 C488 1.392 . S
C491 Eu482 2.828 . S
C491 C485 1.505 . S
C491 O503 1.249 . S
C491 O504 1.244 . S
O492 Eu483 2.373 . S
O492 C494 1.258 . S
O493 Eu482 2.392 . S
O493 C494 1.242 . S
C494 O492 1.258 . S
C494 O493 1.242 . S
O495 Eu482 2.418 . S
O495 C499 1.244 . S
O496 Eu483 2.488 . S
O496 C512 1.249 . S
O497 Eu483 2.471 . S
O497 C512 1.244 . S
O498 Eu483 2.349 . S
O498 C499 1.265 . S
C499 O495 1.244 . S
C499 O498 1.265 . S
O500 Eu482 2.373 . S
O500 C513 1.258 . S
O501 Eu483 2.392 . S
O501 C513 1.242 . S
O502 Eu483 2.418 . S
O502 C484 1.244 . S
O503 Eu482 2.488 . S
O503 C491 1.249 . S
O504 Eu482 2.471 . S
O504 C491 1.244 . S
O505 Eu482 2.349 . S
O505 C484 1.265 . S
C506 C507 1.379 . S
C506 C510 1.373 . S
C506 C512 1.505 . S
C507 C506 1.379 . S
C507 C509 1.369 . S
C507 H518 0.930 . S
C508 C510 1.383 . S
C508 C511 1.382 . S
C508 H519 0.930 . S
C509 C507 1.369 . S
C509 C511 1.392 . S
C509 H520 0.930 . S
C510 C506 1.373 . S
C510 C508 1.383 . S
C510 H521 0.931 . S
C511 C508 1.382 . S
C511 C509 1.392 . S
C512 Eu483 2.828 . S
C512 O496 1.249 . S
C512 O497 1.244 . S
C512 C506 1.505 . S
C513 O500 1.258 . S
C513 O501 1.242 . S
H514 C486 0.930 . S
H515 C487 0.930 . S
H516 C488 0.930 . S
H517 C489 0.931 . S
H518 C507 0.930 . S
H519 C508 0.930 . S
H520 C509 0.930 . S
H521 C510 0.931 . S
C522 C523 1.349 . S
C522 C524 1.327 . S
C522 H547 0.950 . S
C523 C522 1.349 . S
C523 C539 1.349 . S
C524 C522 1.327 . S
C524 C543 1.429 . S
C524 H548 0.950 . S
C525 C542 1.574 . S
C525 C544 1.368 . S
C525 H549 0.949 . S
H526 C530 0.949 . S
C527 C528 1.349 . S
C527 C529 1.327 . S
C527 H550 0.950 . S
C528 C527 1.349 . S
C528 C540 1.349 . S
C529 C527 1.327 . S
C529 C545 1.429 . S
C529 H551 0.950 . S
C530 H526 0.949 . S
C530 C538 1.574 . S
C530 C546 1.368 . S
H531 C539 0.950 . S
H532 C537 0.950 . S
H533 C538 0.949 . S
H534 C540 0.950 . S
H535 C541 0.950 . S
H536 C542 0.949 . S
C537 H532 0.950 . S
C537 C539 1.327 . S
C537 C543 1.429 . S
C538 C530 1.574 . S
C538 H533 0.949 . S
C538 C544 1.368 . S
C539 C523 1.349 . S
C539 H531 0.950 . S
C539 C537 1.327 . S
C540 C528 1.349 . S
C540 H534 0.950 . S
C540 C541 1.327 . S
C541 H535 0.950 . S
C541 C540 1.327 . S
C541 C545 1.429 . S
C542 C525 1.574 . S
C542 H536 0.949 . S
C542 C546 1.368 . S
C543 C524 1.429 . S
C543 C537 1.429 . S
C543 C544 1.523 . S
C544 C525 1.368 . S
C544 C538 1.368 . S
C544 C543 1.523 . S
C545 C529 1.429 . S
C545 C541 1.429 . S
C545 C546 1.523 . S
C546 C530 1.368 . S
C546 C542 1.368 . S
C546 C545 1.523 . S
H547 C522 0.950 . S
H548 C524 0.950 . S
H549 C525 0.949 . S
H550 C527 0.950 . S
H551 C529 0.950 . S
C552 C553 1.349 . S
C552 C554 1.327 . S
C552 H577 0.950 . S
C553 C552 1.349 . S
C553 C569 1.349 . S
C554 C552 1.327 . S
C554 C573 1.429 . S
C554 H578 0.950 . S
C555 C572 1.574 . S
C555 C574 1.368 . S
C555 H579 0.949 . S
H556 C560 0.949 . S
C557 C558 1.349 . S
C557 C559 1.327 . S
C557 H580 0.950 . S
C558 C557 1.349 . S
C558 C570 1.349 . S
C559 C557 1.327 . S
C559 C575 1.429 . S
C559 H581 0.950 . S
C560 H556 0.949 . S
C560 C568 1.574 . S
C560 C576 1.368 . S
H561 C569 0.950 . S
H562 C567 0.950 . S
H563 C568 0.949 . S
H564 C570 0.950 . S
H565 C571 0.950 . S
H566 C572 0.949 . S
C567 H562 0.950 . S
C567 C569 1.327 . S
C567 C573 1.429 . S
C568 C560 1.574 . S
C568 H563 0.949 . S
C568 C574 1.368 . S
C569 C553 1.349 . S
C569 H561 0.950 . S
C569 C567 1.327 . S
C570 C558 1.349 . S
C570 H564 0.950 . S
C570 C571 1.327 . S
C571 H565 0.950 . S
C571 C570 1.327 . S
C571 C575 1.429 . S
C572 C555 1.574 . S
C572 H566 0.949 . S
C572 C576 1.368 . S
C573 C554 1.429 . S
C573 C567 1.429 . S
C573 C574 1.523 . S
C574 C555 1.368 . S
C574 C568 1.368 . S
C574 C573 1.523 . S
C575 C559 1.429 . S
C575 C571 1.429 . S
C575 C576 1.523 . S
C576 C560 1.368 . S
C576 C572 1.368 . S
C576 C575 1.523 . S
H577 C552 0.950 . S
H578 C554 0.950 . S
H579 C555 0.949 . S
H580 C557 0.950 . S
H581 C559 0.950 . S
C582 C583 1.349 . S
C582 C584 1.327 . S
C582 H607 0.950 . S
C583 C582 1.349 . S
C583 C599 1.349 . S
C584 C582 1.327 . S
C584 C603 1.429 . S
C584 H608 0.950 . S
C585 C602 1.574 . S
C585 C604 1.368 . S
C585 H609 0.949 . S
H586 C590 0.949 . S
C587 C588 1.349 . S
C587 C589 1.327 . S
C587 H610 0.975 . S
C588 C587 1.349 . S
C588 C600 1.349 . S
C589 C587 1.327 . S
C589 C605 1.429 . S
C589 H611 0.950 . S
C590 H586 0.949 . S
C590 C598 1.574 . S
C590 C606 1.368 . S
H591 C599 0.950 . S
H592 C597 0.950 . S
H593 C598 0.949 . S
H594 C600 0.950 . S
H595 C601 0.950 . S
H596 C602 0.949 . S
C597 H592 0.950 . S
C597 C599 1.327 . S
C597 C603 1.429 . S
C598 C590 1.574 . S
C598 H593 0.949 . S
C598 C604 1.368 . S
C599 C583 1.349 . S
C599 H591 0.950 . S
C599 C597 1.327 . S
C600 C588 1.349 . S
C600 H594 0.950 . S
C600 C601 1.327 . S
C601 H595 0.950 . S
C601 C600 1.327 . S
C601 C605 1.429 . S
C602 C585 1.574 . S
C602 H596 0.949 . S
C602 C606 1.368 . S
C603 C584 1.429 . S
C603 C597 1.429 . S
C603 C604 1.523 . S
C604 C585 1.368 . S
C604 C598 1.368 . S
C604 C603 1.523 . S
C605 C589 1.429 . S
C605 C601 1.429 . S
C605 C606 1.523 . S
C606 C590 1.368 . S
C606 C602 1.368 . S
C606 C605 1.523 . S
H607 C582 0.950 . S
H608 C584 0.950 . S
H609 C585 0.949 . S
H610 C587 0.975 . S
H611 C589 0.950 . S
C612 C613 1.349 . S
C612 C614 1.327 . S
C612 H637 0.950 . S
C613 C612 1.349 . S
C613 C629 1.349 . S
C614 C612 1.327 . S
C614 C633 1.429 . S
C614 H638 0.950 . S
C615 C632 1.574 . S
C615 C634 1.368 . S
C615 H639 0.949 . S
H616 C620 0.949 . S
C617 C618 1.349 . S
C617 C619 1.327 . S
C617 H640 0.950 . S
C618 C617 1.349 . S
C618 C630 1.349 . S
C619 C617 1.327 . S
C619 C635 1.429 . S
C619 H641 0.950 . S
C620 H616 0.949 . S
C620 C628 1.574 . S
C620 C636 1.368 . S
H621 C629 0.950 . S
H622 C627 0.950 . S
H623 C628 0.949 . S
H624 C630 0.950 1_554 S
H625 C631 0.950 . S
H626 C632 0.949 . S
C627 H622 0.950 . S
C627 C629 1.327 . S
C627 C633 1.429 . S
C628 C620 1.574 . S
C628 H623 0.949 . S
C628 C634 1.368 . S
C629 C613 1.349 . S
C629 H621 0.950 . S
C629 C627 1.327 . S
C630 C618 1.349 . S
C630 H624 0.950 1_556 S
C630 C631 1.327 . S
C631 H625 0.950 . S
C631 C630 1.327 . S
C631 C635 1.429 . S
C632 C615 1.574 . S
C632 H626 0.949 . S
C632 C636 1.368 . S
C633 C614 1.429 . S
C633 C627 1.429 . S
C633 C634 1.523 . S
C634 C615 1.368 . S
C634 C628 1.368 . S
C634 C633 1.523 . S
C635 C619 1.429 . S
C635 C631 1.429 . S
C635 C636 1.523 . S
C636 C620 1.368 . S
C636 C632 1.368 . S
C636 C635 1.523 . S
H637 C612 0.950 . S
H638 C614 0.950 . S
H639 C615 0.949 . S
H640 C617 0.950 . S
H641 C619 0.950 . S
C642 C643 1.349 . S
C642 C644 1.327 . S
C642 H667 0.950 . S
C643 C642 1.349 . S
C643 C659 1.349 . S
C644 C642 1.327 . S
C644 C663 1.429 . S
C644 H668 0.950 . S
C645 C662 1.574 . S
C645 C664 1.368 . S
C645 H669 0.949 . S
H646 C650 0.949 . S
C647 C648 1.349 . S
C647 C649 1.327 . S
C647 H670 0.950 . S
C648 C647 1.349 . S
C648 C660 1.349 . S
C649 C647 1.327 . S
C649 C665 1.429 . S
C649 H671 0.950 . S
C650 H646 0.949 . S
C650 C658 1.574 . S
C650 C666 1.368 . S
H651 C659 0.950 . S
H652 C657 0.950 . S
H653 C658 0.949 . S
H654 C660 0.950 . S
H655 C661 0.950 . S
H656 C662 0.949 . S
C657 H652 0.950 . S
C657 C659 1.327 . S
C657 C663 1.429 . S
C658 C650 1.574 . S
C658 H653 0.949 . S
C658 C664 1.368 . S
C659 C643 1.349 . S
C659 H651 0.950 . S
C659 C657 1.327 . S
C660 C648 1.349 . S
C660 H654 0.950 . S
C660 C661 1.327 . S
C661 H655 0.950 . S
C661 C660 1.327 . S
C661 C665 1.429 . S
C662 C645 1.574 . S
C662 H656 0.949 . S
C662 C666 1.368 . S
C663 C644 1.429 . S
C663 C657 1.429 . S
C663 C664 1.523 . S
C664 C645 1.368 . S
C664 C658 1.368 . S
C664 C663 1.523 . S
C665 C649 1.429 . S
C665 C661 1.429 . S
C665 C666 1.523 . S
C666 C650 1.368 . S
C666 C662 1.368 . S
C666 C665 1.523 . S
H667 C642 0.950 . S
H668 C644 0.950 . S
H669 C645 0.949 . S
H670 C647 0.950 . S
H671 C649 0.950 . S
C672 C673 1.349 . S
C672 C674 1.327 . S
C672 H697 0.950 . S
C673 C672 1.349 . S
C673 C689 1.349 . S
C674 C672 1.327 . S
C674 C693 1.429 . S
C674 H698 0.950 . S
C675 C692 1.574 . S
C675 C694 1.368 . S
C675 H699 0.949 . S
H676 C680 0.921 1_554 S
C677 C678 1.349 . S
C677 C679 1.327 . S
C677 H700 0.950 . S
C678 C677 1.349 . S
C678 C690 1.349 1_556 S
C679 C677 1.327 . S
C679 C695 1.429 . S
C679 H701 0.950 . S
C680 H676 0.921 1_556 S
C680 C688 1.574 . S
C680 C696 1.368 . S
H681 C689 0.950 . S
H682 C687 0.950 . S
H683 C688 0.949 . S
H684 C690 0.950 . S
H685 C691 0.962 . S
H686 C692 0.949 . S
C687 H682 0.950 . S
C687 C689 1.327 . S
C687 C693 1.429 . S
C688 C680 1.574 . S
C688 H683 0.949 . S
C688 C694 1.368 . S
C689 C673 1.349 . S
C689 H681 0.950 . S
C689 C687 1.327 . S
C690 C678 1.349 1_554 S
C690 H684 0.950 . S
C690 C691 1.333 . S
C691 H685 0.962 . S
C691 C690 1.333 . S
C691 C695 1.411 1_554 S
C692 C675 1.574 . S
C692 H686 0.949 . S
C692 C696 1.368 . S
C693 C674 1.429 . S
C693 C687 1.429 . S
C693 C694 1.523 . S
C694 C675 1.368 . S
C694 C688 1.368 . S
C694 C693 1.523 . S
C695 C679 1.429 . S
C695 C691 1.411 1_556 S
C695 C696 1.523 . S
C696 C680 1.368 . S
C696 C692 1.368 . S
C696 C695 1.523 . S
H697 C672 0.950 . S
H698 C674 0.950 . S
H699 C675 0.949 . S
H700 C677 0.950 . S
H701 C679 0.950 . S
C702 C703 1.349 . S
C702 C704 1.327 . S
C702 H727 0.950 . S
C703 C702 1.349 . S
C703 C719 1.349 . S
C704 C702 1.327 . S
C704 C723 1.429 . S
C704 H728 0.950 . S
C705 C722 1.574 . S
C705 C724 1.368 . S
C705 H729 0.949 . S
H706 C710 0.949 . S
C707 C708 1.349 . S
C707 C709 1.327 . S
C707 H730 0.950 1_556 S
C708 C707 1.349 . S
C708 C720 1.349 . S
C709 C707 1.327 . S
C709 C725 1.429 . S
C709 H731 0.941 1_556 S
C710 H706 0.949 . S
C710 C718 1.574 . S
C710 C726 1.368 . S
H711 C719 0.950 . S
H712 C717 0.950 . S
H713 C718 0.949 . S
H714 C720 0.950 . S
H715 C721 0.950 . S
H716 C722 0.949 . S
C717 H712 0.950 . S
C717 C719 1.327 . S
C717 C723 1.429 . S
C718 C710 1.574 . S
C718 H713 0.949 . S
C718 C724 1.368 . S
C719 C703 1.349 . S
C719 H711 0.950 . S
C719 C717 1.327 . S
C720 C708 1.349 . S
C720 H714 0.950 . S
C720 C721 1.327 . S
C721 H715 0.950 . S
C721 C720 1.327 . S
C721 C725 1.429 . S
C722 C705 1.574 . S
C722 H716 0.949 . S
C722 C726 1.368 . S
C723 C704 1.429 . S
C723 C717 1.429 . S
C723 C724 1.523 . S
C724 C705 1.368 . S
C724 C718 1.368 . S
C724 C723 1.523 . S
C725 C709 1.429 . S
C725 C721 1.429 . S
C725 C726 1.523 . S
C726 C710 1.368 . S
C726 C722 1.368 . S
C726 C725 1.523 . S
H727 C702 0.950 . S
H728 C704 0.950 . S
H729 C705 0.949 . S
H730 C707 0.950 1_554 S
H731 C709 0.941 1_554 S
C732 C733 1.349 . S
C732 C734 1.327 . S
C732 H757 0.950 . S
C733 C732 1.349 . S
C733 C749 1.349 . S
C734 C732 1.327 . S
C734 C753 1.429 . S
C734 H758 0.950 . S
C735 C752 1.574 . S
C735 C754 1.368 . S
C735 H759 0.949 . S
H736 C740 0.949 . S
C737 C738 1.349 . S
C737 C739 1.327 . S
C737 H760 0.950 . S
C738 C737 1.349 . S
C738 C750 1.349 . S
C739 C737 1.327 . S
C739 C755 1.429 . S
C739 H761 0.950 . S
C740 H736 0.949 . S
C740 C748 1.574 . S
C740 C756 1.368 . S
H741 C749 0.950 . S
H742 C747 0.950 . S
H743 C748 0.949 . S
H744 C750 0.950 1_554 S
H745 C751 0.950 . S
H746 C752 0.949 . S
C747 H742 0.950 . S
C747 C749 1.327 . S
C747 C753 1.429 . S
C748 C740 1.574 . S
C748 H743 0.949 . S
C748 C754 1.368 . S
C749 C733 1.349 . S
C749 H741 0.950 . S
C749 C747 1.327 . S
C750 C738 1.349 . S
C750 H744 0.950 1_556 S
C750 C751 1.327 . S
C751 H745 0.950 . S
C751 C750 1.327 . S
C751 C755 1.429 . S
C752 C735 1.574 . S
C752 H746 0.949 . S
C752 C756 1.368 . S
C753 C734 1.429 . S
C753 C747 1.429 . S
C753 C754 1.523 . S
C754 C735 1.368 . S
C754 C748 1.368 . S
C754 C753 1.523 . S
C755 C739 1.429 . S
C755 C751 1.429 . S
C755 C756 1.523 . S
C756 C740 1.368 . S
C756 C752 1.368 . S
C756 C755 1.523 . S
H757 C732 0.950 . S
H758 C734 0.950 . S
H759 C735 0.949 . S
H760 C737 0.950 . S
H761 C739 0.950 . S
C762 C763 1.349 . S
C762 C764 1.327 . S
C762 H787 0.950 . S
C763 C762 1.349 . S
C763 C779 1.349 . S
C764 C762 1.327 . S
C764 C783 1.429 . S
C764 H788 0.950 . S
C765 C782 1.574 . S
C765 C784 1.368 . S
C765 H789 0.949 . S
H766 C770 0.949 . S
C767 C768 1.349 . S
C767 C769 1.327 . S
C767 H790 0.950 . S
C768 C767 1.349 . S
C768 C780 1.349 1_556 S
C769 C767 1.327 . S
C769 C785 1.429 . S
C769 H791 0.950 . S
C770 H766 0.949 . S
C770 C778 1.574 . S
C770 C786 1.368 . S
H771 C779 0.950 . S
H772 C777 0.950 . S
H773 C778 0.949 . S
H774 C780 0.950 . S
H775 C781 0.950 1_554 S
H776 C782 0.949 . S
C777 H772 0.950 . S
C777 C779 1.327 . S
C777 C783 1.429 . S
C778 C770 1.574 . S
C778 H773 0.949 . S
C778 C784 1.368 . S
C779 C763 1.349 . S
C779 H771 0.950 . S
C779 C777 1.327 . S
C780 C768 1.349 1_554 S
C780 H774 0.950 . S
C780 C781 1.327 1_554 S
C781 H775 0.950 1_556 S
C781 C780 1.327 1_556 S
C781 C785 1.429 . S
C782 C765 1.574 . S
C782 H776 0.949 . S
C782 C786 1.368 . S
C783 C764 1.429 . S
C783 C777 1.429 . S
C783 C784 1.523 . S
C784 C765 1.368 . S
C784 C778 1.368 . S
C784 C783 1.523 . S
C785 C769 1.429 . S
C785 C781 1.429 . S
C785 C786 1.523 . S
C786 C770 1.368 . S
C786 C782 1.368 . S
C786 C785 1.523 . S
H787 C762 0.950 . S
H788 C764 0.950 . S
H789 C765 0.949 . S
H790 C767 0.950 . S
H791 C769 0.950 . S
C792 C793 1.349 . S
C792 C794 1.327 . S
C792 H817 0.950 . S
C793 C792 1.349 . S
C793 C809 1.349 . S
C794 C792 1.327 . S
C794 C813 1.429 . S
C794 H818 0.950 . S
C795 C812 1.574 . S
C795 C814 1.368 . S
C795 H819 0.949 . S
H796 C800 0.949 . S
C797 C798 1.349 . S
C797 C799 1.327 . S
C797 H820 0.950 . S
C798 C797 1.349 . S
C798 C810 1.349 . S
C799 C797 1.327 . S
C799 C815 1.429 . S
C799 H821 0.950 . S
C800 H796 0.949 . S
C800 C808 1.574 . S
C800 C816 1.368 . S
H801 C809 0.950 . S
H802 C807 0.950 . S
H803 C808 0.949 . S
H804 C810 0.950 . S
H805 C811 0.950 . S
H806 C812 0.949 . S
C807 H802 0.950 . S
C807 C809 1.327 . S
C807 C813 1.429 . S
C808 C800 1.574 . S
C808 H803 0.949 . S
C808 C814 1.368 . S
C809 C793 1.349 . S
C809 H801 0.950 . S
C809 C807 1.327 . S
C810 C798 1.349 . S
C810 H804 0.950 . S
C810 C811 1.327 . S
C811 H805 0.950 . S
C811 C810 1.327 . S
C811 C815 1.429 . S
C812 C795 1.574 . S
C812 H806 0.949 . S
C812 C816 1.368 . S
C813 C794 1.429 . S
C813 C807 1.429 . S
C813 C814 1.523 . S
C814 C795 1.368 . S
C814 C808 1.368 . S
C814 C813 1.523 . S
C815 C799 1.429 . S
C815 C811 1.429 . S
C815 C816 1.523 . S
C816 C800 1.368 . S
C816 C812 1.368 . S
C816 C815 1.523 . S
H817 C792 0.950 . S
H818 C794 0.950 . S
H819 C795 0.949 . S
H820 C797 0.950 . S
H821 C799 0.950 . S
C822 C823 1.349 . S
C822 C824 1.327 . S
C822 H847 0.950 . S
C823 C822 1.349 . S
C823 C839 1.349 . S
C824 C822 1.327 . S
C824 C843 1.429 . S
C824 H848 0.950 . S
C825 C842 1.574 . S
C825 C844 1.368 . S
C825 H849 0.949 . S
H826 C830 0.949 . S
C827 C828 1.349 . S
C827 C829 1.327 . S
C827 H850 0.950 . S
C828 C827 1.349 . S
C828 C840 1.349 . S
C829 C827 1.327 . S
C829 C845 1.429 . S
C829 H851 0.950 . S
C830 H826 0.949 . S
C830 C838 1.574 . S
C830 C846 1.368 . S
H831 C839 0.950 . S
H832 C837 0.950 . S
H833 C838 0.949 . S
H834 C840 0.950 . S
H835 C841 0.950 . S
H836 C842 0.949 . S
C837 H832 0.950 . S
C837 C839 1.327 . S
C837 C843 1.429 . S
C838 C830 1.574 . S
C838 H833 0.949 . S
C838 C844 1.368 . S
C839 C823 1.349 . S
C839 H831 0.950 . S
C839 C837 1.327 . S
C840 C828 1.349 . S
C840 H834 0.950 . S
C840 C841 1.327 . S
C841 H835 0.950 . S
C841 C840 1.327 . S
C841 C845 1.429 . S
C842 C825 1.574 . S
C842 H836 0.949 . S
C842 C846 1.368 . S
C843 C824 1.429 . S
C843 C837 1.429 . S
C843 C844 1.523 . S
C844 C825 1.368 . S
C844 C838 1.368 . S
C844 C843 1.523 . S
C845 C829 1.429 . S
C845 C841 1.429 . S
C845 C846 1.523 . S
C846 C830 1.368 . S
C846 C842 1.368 . S
C846 C845 1.523 . S
H847 C822 0.950 . S
H848 C824 0.950 . S
H849 C825 0.949 . S
H850 C827 0.950 . S
H851 C829 0.950 . S
C852 C853 1.349 . S
C852 C854 1.327 . S
C852 H877 0.950 . S
C853 C852 1.349 . S
C853 C869 1.349 . S
C854 C852 1.327 . S
C854 C873 1.429 . S
C854 H878 0.950 . S
C855 C872 1.574 . S
C855 C874 1.368 . S
C855 H879 0.949 . S
H856 C860 0.949 . S
C857 C858 1.349 . S
C857 C859 1.327 . S
C857 H880 0.950 . S
C858 C857 1.349 . S
C858 C870 1.349 . S
C859 C857 1.327 . S
C859 C875 1.429 . S
C859 H881 0.950 . S
C860 H856 0.949 . S
C860 C868 1.574 . S
C860 C876 1.368 . S
H861 C869 0.950 . S
H862 C867 0.950 . S
H863 C868 0.949 . S
H864 C870 0.950 . S
H865 C871 0.950 . S
H866 C872 0.949 . S
C867 H862 0.950 . S
C867 C869 1.327 . S
C867 C873 1.429 . S
C868 C860 1.574 . S
C868 H863 0.949 . S
C868 C874 1.368 . S
C869 C853 1.349 . S
C869 H861 0.950 . S
C869 C867 1.327 . S
C870 C858 1.349 . S
C870 H864 0.950 . S
C870 C871 1.327 . S
C871 H865 0.950 . S
C871 C870 1.327 . S
C871 C875 1.429 . S
C872 C855 1.574 . S
C872 H866 0.949 . S
C872 C876 1.368 . S
C873 C854 1.429 . S
C873 C867 1.429 . S
C873 C874 1.523 . S
C874 C855 1.368 . S
C874 C868 1.368 . S
C874 C873 1.523 . S
C875 C859 1.429 . S
C875 C871 1.429 . S
C875 C876 1.523 . S
C876 C860 1.368 . S
C876 C872 1.368 . S
C876 C875 1.523 . S
H877 C852 0.950 . S
H878 C854 0.950 . S
H879 C855 0.949 . S
H880 C857 0.950 . S
H881 C859 0.950 . S
C882 C883 1.349 . S
C882 C884 1.327 . S
C882 H907 0.950 . S
C883 C882 1.349 . S
C883 C899 1.349 . S
C884 C882 1.327 . S
C884 C903 1.429 . S
C884 H908 0.950 . S
C885 C902 1.574 1_655 S
C885 C904 1.368 . S
C885 H909 0.949 . S
H886 C890 0.949 . S
C887 C888 1.349 . S
C887 C889 1.327 . S
C887 H910 0.950 . S
C888 C887 1.349 . S
C888 C900 1.349 . S
C889 C887 1.327 . S
C889 C905 1.429 . S
C889 H911 0.950 . S
C890 H886 0.949 . S
C890 C898 1.574 . S
C890 C906 1.368 . S
H891 C899 0.950 . S
H892 C897 0.950 . S
H893 C898 0.949 1_655 S
H894 C900 0.950 . S
H895 C901 0.950 . S
H896 C902 0.949 . S
C897 H892 0.950 . S
C897 C899 1.327 . S
C897 C903 1.429 . S
C898 C890 1.574 . S
C898 H893 0.949 1_455 S
C898 C904 1.368 1_455 S
C899 C883 1.349 . S
C899 H891 0.950 . S
C899 C897 1.327 . S
C900 C888 1.349 . S
C900 H894 0.950 . S
C900 C901 1.327 . S
C901 H895 0.950 . S
C901 C900 1.327 . S
C901 C905 1.429 . S
C902 C885 1.574 1_455 S
C902 H896 0.949 . S
C902 C906 1.368 . S
C903 C884 1.429 . S
C903 C897 1.429 . S
C903 C904 1.523 . S
C904 C885 1.368 . S
C904 C898 1.368 1_655 S
C904 C903 1.523 . S
C905 C889 1.429 . S
C905 C901 1.429 . S
C905 C906 1.523 . S
C906 C890 1.368 . S
C906 C902 1.368 . S
C906 C905 1.523 . S
H907 C882 0.950 . S
H908 C884 0.950 . S
H909 C885 0.949 . S
H910 C887 0.950 . S
H911 C889 0.950 . S
C912 C913 1.349 . S
C912 C914 1.327 . S
C912 H937 0.950 . S
C913 C912 1.349 . S
C913 C929 1.349 . S
C914 C912 1.327 . S
C914 C933 1.429 . S
C914 H938 0.950 . S
C915 C932 1.574 . S
C915 C934 1.368 . S
C915 H939 0.949 . S
H916 C920 0.949 . S
C917 C918 1.349 . S
C917 C919 1.327 . S
C917 H940 0.950 . S
C918 C917 1.349 . S
C918 C930 1.349 . S
C919 C917 1.327 . S
C919 C935 1.429 . S
C919 H941 0.950 . S
C920 H916 0.949 . S
C920 C928 1.574 . S
C920 C936 1.368 . S
H921 C929 0.950 . S
H922 C927 0.950 . S
H923 C928 0.949 . S
H924 C930 0.950 . S
H925 C931 0.950 . S
H926 C932 0.949 . S
C927 H922 0.950 . S
C927 C929 1.327 . S
C927 C933 1.429 . S
C928 C920 1.574 . S
C928 H923 0.949 . S
C928 C934 1.368 . S
C929 C913 1.349 . S
C929 H921 0.950 . S
C929 C927 1.327 . S
C930 C918 1.349 . S
C930 H924 0.950 . S
C930 C931 1.327 . S
C931 H925 0.950 . S
C931 C930 1.327 . S
C931 C935 1.429 . S
C932 C915 1.574 . S
C932 H926 0.949 . S
C932 C936 1.368 . S
C933 C914 1.429 . S
C933 C927 1.429 . S
C933 C934 1.523 . S
C934 C915 1.368 . S
C934 C928 1.368 . S
C934 C933 1.523 . S
C935 C919 1.429 . S
C935 C931 1.429 . S
C935 C936 1.523 . S
C936 C920 1.368 . S
C936 C932 1.368 . S
C936 C935 1.523 . S
H937 C912 0.950 . S
H938 C914 0.950 . S
H939 C915 0.949 . S
H940 C917 0.950 . S
H941 C919 0.950 . S
C942 C943 1.349 . S
C942 C944 1.327 . S
C942 H967 0.950 . S
C943 C942 1.349 . S
C943 C959 1.349 . S
C944 C942 1.327 . S
C944 C963 1.429 . S
C944 H968 0.950 . S
C945 C962 1.551 1_545 S
C945 C964 1.368 . S
C945 H969 0.949 . S
H946 C950 0.949 . S
C947 C948 1.349 . S
C947 C949 1.327 . S
C947 H970 0.950 . S
C948 C947 1.349 . S
C948 C960 1.349 . S
C949 C947 1.327 . S
C949 C965 1.429 . S
C949 H971 0.950 . S
C950 H946 0.949 . S
C950 C958 1.574 1_565 S
C950 C966 1.368 . S
H951 C959 0.950 . S
H952 C957 0.950 . S
H953 C958 0.949 . S
H954 C960 0.950 . S
H955 C961 0.950 . S
H956 C962 0.962 . S
C957 H952 0.950 . S
C957 C959 1.327 . S
C957 C963 1.429 . S
C958 C950 1.574 1_545 S
C958 H953 0.949 . S
C958 C964 1.368 . S
C959 C943 1.349 . S
C959 H951 0.950 . S
C959 C957 1.327 . S
C960 C948 1.349 . S
C960 H954 0.950 . S
C960 C961 1.327 . S
C961 H955 0.950 . S
C961 C960 1.327 . S
C961 C965 1.429 . S
C962 C945 1.551 1_565 S
C962 H956 0.962 . S
C962 C966 1.378 . S
C963 C944 1.429 . S
C963 C957 1.429 . S
C963 C964 1.523 . S
C964 C945 1.368 . S
C964 C958 1.368 . S
C964 C963 1.523 . S
C965 C949 1.429 . S
C965 C961 1.429 . S
C965 C966 1.523 . S
C966 C950 1.368 . S
C966 C962 1.378 . S
C966 C965 1.523 . S
H967 C942 0.950 . S
H968 C944 0.950 . S
H969 C945 0.949 . S
H970 C947 0.950 . S
H971 C949 0.950 . S
C972 C973 1.349 . S
C972 C974 1.327 . S
C972 H997 0.950 . S
C973 C972 1.349 . S
C973 C989 1.349 . S
C974 C972 1.327 . S
C974 C993 1.429 . S
C974 H998 0.950 . S
C975 C992 1.574 . S
C975 C994 1.368 . S
C975 H999 0.949 . S
H976 C980 0.949 . S
C977 C978 1.349 . S
C977 C979 1.327 . S
C977 H1000 0.950 . S
C978 C977 1.349 . S
C978 C990 1.349 . S
C979 C977 1.327 . S
C979 C995 1.429 . S
C979 H1001 0.950 . S
C980 H976 0.949 . S
C980 C988 1.574 . S
C980 C996 1.368 . S
H981 C989 0.950 . S
H982 C987 0.950 . S
H983 C988 0.949 . S
H984 C990 0.950 . S
H985 C991 0.950 . S
H986 C992 0.949 . S
C987 H982 0.950 . S
C987 C989 1.327 . S
C987 C993 1.429 . S
C988 C980 1.574 . S
C988 H983 0.949 . S
C988 C994 1.368 . S
C989 C973 1.349 . S
C989 H981 0.950 . S
C989 C987 1.327 . S
C990 C978 1.349 . S
C990 H984 0.950 . S
C990 C991 1.327 . S
C991 H985 0.950 . S
C991 C990 1.327 . S
C991 C995 1.429 . S
C992 C975 1.574 . S
C992 H986 0.949 . S
C992 C996 1.368 . S
C993 C974 1.429 . S
C993 C987 1.429 . S
C993 C994 1.523 . S
C994 C975 1.368 . S
C994 C988 1.368 . S
C994 C993 1.523 . S
C995 C979 1.429 . S
C995 C991 1.429 . S
C995 C996 1.523 . S
C996 C980 1.368 . S
C996 C992 1.368 . S
C996 C995 1.523 . S
H997 C972 0.950 . S
H998 C974 0.950 . S
H999 C975 0.949 . S
H1000 C977 0.950 . S
H1001 C979 0.950 . S
C1002 C1003 1.349 . S
C1002 C1004 1.327 . S
C1002 H1027 0.950 . S
C1003 C1002 1.349 . S
C1003 C1019 1.349 . S
C1004 C1002 1.327 . S
C1004 C1023 1.429 . S
C1004 H1028 0.950 . S
C1005 C1022 1.574 . S
C1005 C1024 1.368 . S
C1005 H1029 0.949 . S
H1006 C1010 0.949 . S
C1007 C1008 1.349 . S
C1007 C1009 1.327 . S
C1007 H1030 0.950 . S
C1008 C1007 1.349 . S
C1008 C1020 1.349 . S
C1009 C1007 1.327 . S
C1009 C1025 1.429 . S
C1009 H1031 0.950 . S
C1010 H1006 0.949 . S
C1010 C1018 1.574 . S
C1010 C1026 1.368 . S
H1011 C1019 0.950 . S
H1012 C1017 0.950 . S
H1013 C1018 0.949 . S
H1014 C1020 0.950 . S
H1015 C1021 0.950 . S
H1016 C1022 0.949 . S
C1017 H1012 0.950 . S
C1017 C1019 1.327 . S
C1017 C1023 1.429 . S
C1018 C1010 1.574 . S
C1018 H1013 0.949 . S
C1018 C1024 1.368 . S
C1019 C1003 1.349 . S
C1019 H1011 0.950 . S
C1019 C1017 1.327 . S
C1020 C1008 1.349 . S
C1020 H1014 0.950 . S
C1020 C1021 1.327 . S
C1021 H1015 0.950 . S
C1021 C1020 1.327 . S
C1021 C1025 1.429 . S
C1022 C1005 1.574 . S
C1022 H1016 0.949 . S
C1022 C1026 1.368 . S
C1023 C1004 1.429 . S
C1023 C1017 1.429 . S
C1023 C1024 1.523 . S
C1024 C1005 1.368 . S
C1024 C1018 1.368 . S
C1024 C1023 1.523 . S
C1025 C1009 1.429 . S
C1025 C1021 1.429 . S
C1025 C1026 1.523 . S
C1026 C1010 1.368 . S
C1026 C1022 1.368 . S
C1026 C1025 1.523 . S
H1027 C1002 0.950 . S
H1028 C1004 0.950 . S
H1029 C1005 0.949 . S
H1030 C1007 0.950 . S
H1031 C1009 0.950 . S
C1032 C1033 1.349 . S
C1032 C1034 1.327 . S
C1032 H1057 0.950 . S
C1033 C1032 1.349 . S
C1033 C1049 1.349 . S
C1034 C1032 1.327 . S
C1034 C1053 1.429 . S
C1034 H1058 0.950 . S
C1035 C1052 1.574 . S
C1035 C1054 1.368 . S
C1035 H1059 0.949 . S
H1036 C1040 0.949 . S
C1037 C1038 1.349 . S
C1037 C1039 1.327 . S
C1037 H1060 0.950 . S
C1038 C1037 1.349 . S
C1038 C1050 1.349 . S
C1039 C1037 1.327 . S
C1039 C1055 1.429 . S
C1039 H1061 0.950 . S
C1040 H1036 0.949 . S
C1040 C1048 1.574 . S
C1040 C1056 1.368 . S
H1041 C1049 0.950 . S
H1042 C1047 0.950 . S
H1043 C1048 0.949 . S
H1044 C1050 0.950 . S
H1045 C1051 0.950 . S
H1046 C1052 0.949 . S
C1047 H1042 0.950 . S
C1047 C1049 1.327 . S
C1047 C1053 1.429 . S
C1048 C1040 1.574 . S
C1048 H1043 0.949 . S
C1048 C1054 1.368 . S
C1049 C1033 1.349 . S
C1049 H1041 0.950 . S
C1049 C1047 1.327 . S
C1050 C1038 1.349 . S
C1050 H1044 0.950 . S
C1050 C1051 1.327 . S
C1051 H1045 0.950 . S
C1051 C1050 1.327 . S
C1051 C1055 1.429 . S
C1052 C1035 1.574 . S
C1052 H1046 0.949 . S
C1052 C1056 1.368 . S
C1053 C1034 1.429 . S
C1053 C1047 1.429 . S
C1053 C1054 1.523 . S
C1054 C1035 1.368 . S
C1054 C1048 1.368 . S
C1054 C1053 1.523 . S
C1055 C1039 1.429 . S
C1055 C1051 1.429 . S
C1055 C1056 1.523 . S
C1056 C1040 1.368 . S
C1056 C1052 1.368 . S
C1056 C1055 1.523 . S
H1057 C1032 0.950 . S
H1058 C1034 0.950 . S
H1059 C1035 0.949 . S
H1060 C1037 0.950 . S
H1061 C1039 0.950 . S
C1062 C1063 1.349 . S
C1062 C1064 1.327 . S
C1062 H1087 0.950 . S
C1063 C1062 1.349 . S
C1063 C1079 1.349 . S
C1064 C1062 1.327 . S
C1064 C1083 1.429 . S
C1064 H1088 0.950 . S
C1065 C1082 1.574 . S
C1065 C1084 1.368 . S
C1065 H1089 0.949 . S
H1066 C1070 0.949 . S
C1067 C1068 1.349 . S
C1067 C1069 1.327 . S
C1067 H1090 0.950 . S
C1068 C1067 1.349 . S
C1068 C1080 1.349 . S
C1069 C1067 1.327 . S
C1069 C1085 1.429 . S
C1069 H1091 0.950 . S
C1070 H1066 0.949 . S
C1070 C1078 1.574 . S
C1070 C1086 1.368 . S
H1071 C1079 0.950 . S
H1072 C1077 0.950 . S
H1073 C1078 0.949 . S
H1074 C1080 0.950 . S
H1075 C1081 0.950 . S
H1076 C1082 0.949 . S
C1077 H1072 0.950 . S
C1077 C1079 1.327 . S
C1077 C1083 1.429 . S
C1078 C1070 1.574 . S
C1078 H1073 0.949 . S
C1078 C1084 1.368 . S
C1079 C1063 1.349 . S
C1079 H1071 0.950 . S
C1079 C1077 1.327 . S
C1080 C1068 1.349 . S
C1080 H1074 0.950 . S
C1080 C1081 1.327 . S
C1081 H1075 0.950 . S
C1081 C1080 1.327 . S
C1081 C1085 1.429 . S
C1082 C1065 1.574 . S
C1082 H1076 0.949 . S
C1082 C1086 1.368 . S
C1083 C1064 1.429 . S
C1083 C1077 1.429 . S
C1083 C1084 1.523 . S
C1084 C1065 1.368 . S
C1084 C1078 1.368 . S
C1084 C1083 1.523 . S
C1085 C1069 1.429 . S
C1085 C1081 1.429 . S
C1085 C1086 1.523 . S
C1086 C1070 1.368 . S
C1086 C1082 1.368 . S
C1086 C1085 1.523 . S
H1087 C1062 0.950 . S
H1088 C1064 0.950 . S
H1089 C1065 0.949 . S
H1090 C1067 0.950 . S
H1091 C1069 0.950 . S
C1092 C1093 1.349 . S
C1092 C1094 1.327 . S
C1092 H1117 0.950 . S
C1093 C1092 1.349 . S
C1093 C1109 1.349 . S
C1094 C1092 1.327 . S
C1094 C1113 1.429 . S
C1094 H1118 0.950 . S
C1095 C1112 1.574 . S
C1095 C1114 1.368 . S
C1095 H1119 0.949 . S
H1096 C1100 0.949 . S
C1097 C1098 1.349 . S
C1097 C1099 1.327 . S
C1097 H1120 0.950 . S
C1098 C1097 1.349 . S
C1098 C1110 1.349 . S
C1099 C1097 1.327 . S
C1099 C1115 1.429 . S
C1099 H1121 0.950 . S
C1100 H1096 0.949 . S
C1100 C1108 1.574 . S
C1100 C1116 1.368 . S
H1101 C1109 0.950 . S
H1102 C1107 0.950 . S
H1103 C1108 0.949 . S
H1104 C1110 0.950 . S
H1105 C1111 0.950 . S
H1106 C1112 0.949 . S
C1107 H1102 0.950 . S
C1107 C1109 1.327 . S
C1107 C1113 1.429 . S
C1108 C1100 1.574 . S
C1108 H1103 0.949 . S
C1108 C1114 1.368 . S
C1109 C1093 1.349 . S
C1109 H1101 0.950 . S
C1109 C1107 1.327 . S
C1110 C1098 1.349 . S
C1110 H1104 0.950 . S
C1110 C1111 1.327 . S
C1111 H1105 0.950 . S
C1111 C1110 1.327 . S
C1111 C1115 1.429 . S
C1112 C1095 1.574 . S
C1112 H1106 0.949 . S
C1112 C1116 1.368 . S
C1113 C1094 1.429 . S
C1113 C1107 1.429 . S
C1113 C1114 1.523 . S
C1114 C1095 1.368 . S
C1114 C1108 1.368 . S
C1114 C1113 1.523 . S
C1115 C1099 1.429 . S
C1115 C1111 1.429 . S
C1115 C1116 1.523 . S
C1116 C1100 1.368 . S
C1116 C1112 1.368 . S
C1116 C1115 1.523 . S
H1117 C1092 0.950 . S
H1118 C1094 0.950 . S
H1119 C1095 0.949 . S
H1120 C1097 0.950 . S
H1121 C1099 0.950 . S
C1122 C1123 1.349 . S
C1122 C1124 1.327 . S
C1122 H1147 0.950 . S
C1123 C1122 1.349 . S
C1123 C1139 1.349 . S
C1124 C1122 1.327 . S
C1124 C1143 1.429 . S
C1124 H1148 0.950 . S
C1125 C1142 1.574 . S
C1125 C1144 1.368 . S
C1125 H1149 0.949 . S
H1126 C1130 0.949 . S
C1127 C1128 1.349 . S
C1127 C1129 1.327 . S
C1127 H1150 0.950 . S
C1128 C1127 1.349 . S
C1128 C1140 1.349 . S
C1129 C1127 1.327 . S
C1129 C1145 1.429 . S
C1129 H1151 0.950 . S
C1130 H1126 0.949 . S
C1130 C1138 1.574 . S
C1130 C1146 1.368 . S
H1131 C1139 0.950 . S
H1132 C1137 0.950 . S
H1133 C1138 0.949 . S
H1134 C1140 0.950 . S
H1135 C1141 0.950 . S
H1136 C1142 0.949 . S
C1137 H1132 0.950 . S
C1137 C1139 1.327 . S
C1137 C1143 1.429 . S
C1138 C1130 1.574 . S
C1138 H1133 0.949 . S
C1138 C1144 1.368 . S
C1139 C1123 1.349 . S
C1139 H1131 0.950 . S
C1139 C1137 1.327 . S
C1140 C1128 1.349 . S
C1140 H1134 0.950 . S
C1140 C1141 1.327 . S
C1141 H1135 0.950 . S
C1141 C1140 1.327 . S
C1141 C1145 1.429 . S
C1142 C1125 1.574 . S
C1142 H1136 0.949 . S
C1142 C1146 1.368 . S
C1143 C1124 1.429 . S
C1143 C1137 1.429 . S
C1143 C1144 1.523 . S
C1144 C1125 1.368 . S
C1144 C1138 1.368 . S
C1144 C1143 1.523 . S
C1145 C1129 1.429 . S
C1145 C1141 1.429 . S
C1145 C1146 1.523 . S
C1146 C1130 1.368 . S
C1146 C1142 1.368 . S
C1146 C1145 1.523 . S
H1147 C1122 0.950 . S
H1148 C1124 0.950 . S
H1149 C1125 0.949 . S
H1150 C1127 0.950 . S
H1151 C1129 0.950 . S
C1152 C1153 1.349 . S
C1152 C1154 1.327 . S
C1152 H1177 0.950 . S
C1153 C1152 1.349 . S
C1153 C1169 1.349 . S
C1154 C1152 1.327 . S
C1154 C1173 1.429 . S
C1154 H1178 0.950 . S
C1155 C1172 1.574 1_545 S
C1155 C1174 1.368 . S
C1155 H1179 0.949 . S
H1156 C1160 0.949 . S
C1157 C1158 1.349 . S
C1157 C1159 1.327 . S
C1157 H1180 0.950 . S
C1158 C1157 1.349 . S
C1158 C1170 1.349 . S
C1159 C1157 1.327 . S
C1159 C1175 1.429 . S
C1159 H1181 0.950 . S
C1160 H1156 0.949 . S
C1160 C1168 1.574 1_565 S
C1160 C1176 1.368 . S
H1161 C1169 0.950 . S
H1162 C1167 0.950 . S
H1163 C1168 0.949 . S
H1164 C1170 0.950 . S
H1165 C1171 0.950 . S
H1166 C1172 0.949 . S
C1167 H1162 0.950 . S
C1167 C1169 1.327 . S
C1167 C1173 1.429 . S
C1168 C1160 1.574 1_545 S
C1168 H1163 0.949 . S
C1168 C1174 1.368 . S
C1169 C1153 1.349 . S
C1169 H1161 0.950 . S
C1169 C1167 1.327 . S
C1170 C1158 1.349 . S
C1170 H1164 0.950 . S
C1170 C1171 1.327 . S
C1171 H1165 0.950 . S
C1171 C1170 1.327 . S
C1171 C1175 1.429 . S
C1172 C1155 1.574 1_565 S
C1172 H1166 0.949 . S
C1172 C1176 1.368 . S
C1173 C1154 1.429 . S
C1173 C1167 1.429 . S
C1173 C1174 1.523 . S
C1174 C1155 1.368 . S
C1174 C1168 1.368 . S
C1174 C1173 1.523 . S
C1175 C1159 1.429 . S
C1175 C1171 1.429 . S
C1175 C1176 1.523 . S
C1176 C1160 1.368 . S
C1176 C1172 1.368 . S
C1176 C1175 1.523 . S
H1177 C1152 0.950 . S
H1178 C1154 0.950 . S
H1179 C1155 0.949 . S
H1180 C1157 0.950 . S
H1181 C1159 0.950 . S
C1182 C1183 1.349 . S
C1182 C1184 1.327 . S
C1182 H1207 0.950 . S
C1183 C1182 1.349 . S
C1183 C1199 1.349 . S
C1184 C1182 1.327 . S
C1184 C1203 1.429 . S
C1184 H1208 0.950 . S
C1185 C1202 1.595 . S
C1185 C1204 1.372 1_455 S
C1185 H1209 0.926 1_455 S
H1186 C1190 0.949 . S
C1187 C1188 1.349 . S
C1187 C1189 1.327 . S
C1187 H1210 0.950 . S
C1188 C1187 1.349 . S
C1188 C1200 1.349 . S
C1189 C1187 1.327 . S
C1189 C1205 1.429 . S
C1189 H1211 0.950 . S
C1190 H1186 0.949 . S
C1190 C1198 1.574 . S
C1190 C1206 1.368 . S
H1191 C1199 0.950 . S
H1192 C1197 0.950 . S
H1193 C1198 0.949 1_655 S
H1194 C1200 0.950 . S
H1195 C1201 0.950 . S
H1196 C1202 0.949 . S
C1197 H1192 0.950 . S
C1197 C1199 1.327 . S
C1197 C1203 1.429 . S
C1198 C1190 1.574 . S
C1198 H1193 0.949 1_455 S
C1198 C1204 1.368 1_455 S
C1199 C1183 1.349 . S
C1199 H1191 0.950 . S
C1199 C1197 1.327 . S
C1200 C1188 1.349 . S
C1200 H1194 0.950 . S
C1200 C1201 1.327 . S
C1201 H1195 0.950 . S
C1201 C1200 1.327 . S
C1201 C1205 1.429 . S
C1202 C1185 1.595 . S
C1202 H1196 0.949 . S
C1202 C1206 1.368 . S
C1203 C1184 1.429 . S
C1203 C1197 1.429 . S
C1203 C1204 1.523 . S
C1204 C1185 1.372 1_655 S
C1204 C1198 1.368 1_655 S
C1204 C1203 1.523 . S
C1205 C1189 1.429 . S
C1205 C1201 1.429 . S
C1205 C1206 1.523 . S
C1206 C1190 1.368 . S
C1206 C1202 1.368 . S
C1206 C1205 1.523 . S
H1207 C1182 0.950 . S
H1208 C1184 0.950 . S
H1209 C1185 0.926 1_655 S
H1210 C1187 0.950 . S
H1211 C1189 0.950 . S
C1212 C1213 1.349 . S
C1212 C1214 1.327 . S
C1212 H1237 0.950 . S
C1213 C1212 1.349 . S
C1213 C1229 1.349 . S
C1214 C1212 1.327 . S
C1214 C1233 1.429 . S
C1214 H1238 0.950 . S
C1215 C1232 1.574 . S
C1215 C1234 1.368 . S
C1215 H1239 0.949 . S
H1216 C1220 0.949 . S
C1217 C1218 1.349 . S
C1217 C1219 1.327 . S
C1217 H1240 0.950 . S
C1218 C1217 1.349 . S
C1218 C1230 1.349 . S
C1219 C1217 1.327 . S
C1219 C1235 1.429 . S
C1219 H1241 0.950 . S
C1220 H1216 0.949 . S
C1220 C1228 1.574 . S
C1220 C1236 1.368 . S
H1221 C1229 0.950 . S
H1222 C1227 0.950 . S
H1223 C1228 0.949 . S
H1224 C1230 0.950 . S
H1225 C1231 0.950 . S
H1226 C1232 0.949 . S
C1227 H1222 0.950 . S
C1227 C1229 1.327 . S
C1227 C1233 1.429 . S
C1228 C1220 1.574 . S
C1228 H1223 0.949 . S
C1228 C1234 1.368 . S
C1229 C1213 1.349 . S
C1229 H1221 0.950 . S
C1229 C1227 1.327 . S
C1230 C1218 1.349 . S
C1230 H1224 0.950 . S
C1230 C1231 1.327 . S
C1231 H1225 0.950 . S
C1231 C1230 1.327 . S
C1231 C1235 1.429 . S
C1232 C1215 1.574 . S
C1232 H1226 0.949 . S
C1232 C1236 1.368 . S
C1233 C1214 1.429 . S
C1233 C1227 1.429 . S
C1233 C1234 1.523 . S
C1234 C1215 1.368 . S
C1234 C1228 1.368 . S
C1234 C1233 1.523 . S
C1235 C1219 1.429 . S
C1235 C1231 1.429 . S
C1235 C1236 1.523 . S
C1236 C1220 1.368 . S
C1236 C1232 1.368 . S
C1236 C1235 1.523 . S
H1237 C1212 0.950 . S
H1238 C1214 0.950 . S
H1239 C1215 0.949 . S
H1240 C1217 0.950 . S
H1241 C1219 0.950 . S
C1242 C1243 1.349 . S
C1242 C1244 1.327 . S
C1242 H1267 0.950 . S
C1243 C1242 1.349 . S
C1243 C1259 1.349 . S
C1244 C1242 1.327 . S
C1244 C1263 1.429 . S
C1244 H1268 0.950 . S
C1245 C1262 1.574 . S
C1245 C1264 1.368 . S
C1245 H1269 0.949 . S
H1246 C1250 0.949 . S
C1247 C1248 1.349 . S
C1247 C1249 1.327 . S
C1247 H1270 0.950 . S
C1248 C1247 1.349 . S
C1248 C1260 1.349 . S
C1249 C1247 1.327 . S
C1249 C1265 1.429 . S
C1249 H1271 0.950 . S
C1250 H1246 0.949 . S
C1250 C1258 1.574 . S
C1250 C1266 1.368 . S
H1251 C1259 0.950 . S
H1252 C1257 0.950 . S
H1253 C1258 0.949 . S
H1254 C1260 0.950 . S
H1255 C1261 0.950 . S
H1256 C1262 0.949 . S
C1257 H1252 0.950 . S
C1257 C1259 1.327 . S
C1257 C1263 1.429 . S
C1258 C1250 1.574 . S
C1258 H1253 0.949 . S
C1258 C1264 1.368 . S
C1259 C1243 1.349 . S
C1259 H1251 0.950 . S
C1259 C1257 1.327 . S
C1260 C1248 1.349 . S
C1260 H1254 0.950 . S
C1260 C1261 1.327 . S
C1261 H1255 0.950 . S
C1261 C1260 1.327 . S
C1261 C1265 1.429 . S
C1262 C1245 1.574 . S
C1262 H1256 0.949 . S
C1262 C1266 1.368 . S
C1263 C1244 1.429 . S
C1263 C1257 1.429 . S
C1263 C1264 1.523 . S
C1264 C1245 1.368 . S
C1264 C1258 1.368 . S
C1264 C1263 1.523 . S
C1265 C1249 1.429 . S
C1265 C1261 1.429 . S
C1265 C1266 1.523 . S
C1266 C1250 1.368 . S
C1266 C1262 1.368 . S
C1266 C1265 1.523 . S
H1267 C1242 0.950 . S
H1268 C1244 0.950 . S
H1269 C1245 0.949 . S
H1270 C1247 0.950 . S
H1271 C1249 0.950 . S
C1272 C1273 1.349 . S
C1272 C1274 1.327 . S
C1272 H1297 0.950 . S
C1273 C1272 1.349 . S
C1273 C1289 1.349 . S
C1274 C1272 1.327 . S
C1274 C1293 1.429 . S
C1274 H1298 0.950 . S
C1275 C1292 1.574 . S
C1275 C1294 1.368 . S
C1275 H1299 0.949 . S
H1276 C1280 0.949 . S
C1277 C1278 1.349 . S
C1277 C1279 1.327 . S
C1277 H1300 0.950 . S
C1278 C1277 1.349 . S
C1278 C1290 1.349 . S
C1279 C1277 1.327 . S
C1279 C1295 1.429 . S
C1279 H1301 0.950 . S
C1280 H1276 0.949 . S
C1280 C1288 1.574 . S
C1280 C1296 1.368 . S
H1281 C1289 0.950 . S
H1282 C1287 0.950 . S
H1283 C1288 0.949 . S
H1284 C1290 0.950 . S
H1285 C1291 0.950 . S
H1286 C1292 0.949 . S
C1287 H1282 0.950 . S
C1287 C1289 1.327 . S
C1287 C1293 1.429 . S
C1288 C1280 1.574 . S
C1288 H1283 0.949 . S
C1288 C1294 1.368 . S
C1289 C1273 1.349 . S
C1289 H1281 0.950 . S
C1289 C1287 1.327 . S
C1290 C1278 1.349 . S
C1290 H1284 0.950 . S
C1290 C1291 1.327 . S
C1291 H1285 0.950 . S
C1291 C1290 1.327 . S
C1291 C1295 1.429 . S
C1292 C1275 1.574 . S
C1292 H1286 0.949 . S
C1292 C1296 1.368 . S
C1293 C1274 1.429 . S
C1293 C1287 1.429 . S
C1293 C1294 1.523 . S
C1294 C1275 1.368 . S
C1294 C1288 1.368 . S
C1294 C1293 1.523 . S
C1295 C1279 1.429 . S
C1295 C1291 1.429 . S
C1295 C1296 1.523 . S
C1296 C1280 1.368 . S
C1296 C1292 1.368 . S
C1296 C1295 1.523 . S
H1297 C1272 0.950 . S
H1298 C1274 0.950 . S
H1299 C1275 0.949 . S
H1300 C1277 0.950 . S
H1301 C1279 0.950 . S
C1302 C1303 1.349 . S
C1302 C1304 1.327 . S
C1302 H1327 0.950 . S
C1303 C1302 1.349 . S
C1303 C1319 1.349 . S
C1304 C1302 1.327 . S
C1304 C1323 1.429 . S
C1304 H1328 0.950 . S
C1305 C1322 1.574 . S
C1305 C1324 1.368 . S
C1305 H1329 0.949 . S
H1306 C1310 0.949 . S
C1307 C1308 1.349 . S
C1307 C1309 1.327 . S
C1307 H1330 0.950 . S
C1308 C1307 1.349 . S
C1308 C1320 1.349 . S
C1309 C1307 1.327 . S
C1309 C1325 1.429 . S
C1309 H1331 0.950 . S
C1310 H1306 0.949 . S
C1310 C1318 1.574 . S
C1310 C1326 1.368 . S
H1311 C1319 0.950 . S
H1312 C1317 0.950 . S
H1313 C1318 0.949 . S
H1314 C1320 0.950 . S
H1315 C1321 0.950 . S
H1316 C1322 0.949 . S
C1317 H1312 0.950 . S
C1317 C1319 1.327 . S
C1317 C1323 1.429 . S
C1318 C1310 1.574 . S
C1318 H1313 0.949 . S
C1318 C1324 1.368 . S
C1319 C1303 1.349 . S
C1319 H1311 0.950 . S
C1319 C1317 1.327 . S
C1320 C1308 1.349 . S
C1320 H1314 0.950 . S
C1320 C1321 1.327 . S
C1321 H1315 0.950 . S
C1321 C1320 1.327 . S
C1321 C1325 1.429 . S
C1322 C1305 1.574 . S
C1322 H1316 0.949 . S
C1322 C1326 1.368 . S
C1323 C1304 1.429 . S
C1323 C1317 1.429 . S
C1323 C1324 1.523 . S
C1324 C1305 1.368 . S
C1324 C1318 1.368 . S
C1324 C1323 1.523 . S
C1325 C1309 1.429 . S
C1325 C1321 1.429 . S
C1325 C1326 1.523 . S
C1326 C1310 1.368 . S
C1326 C1322 1.368 . S
C1326 C1325 1.523 . S
H1327 C1302 0.950 . S
H1328 C1304 0.950 . S
H1329 C1305 0.949 . S
H1330 C1307 0.950 . S
H1331 C1309 0.950 . S
C1332 C1333 1.349 . S
C1332 C1334 1.327 . S
C1332 H1357 0.950 . S
C1333 C1332 1.349 . S
C1333 C1349 1.349 . S
C1334 C1332 1.327 . S
C1334 C1353 1.429 . S
C1334 H1358 0.950 . S
C1335 C1352 1.574 1_565 S
C1335 C1354 1.368 . S
C1335 H1359 0.949 . S
H1336 C1340 0.949 . S
C1337 C1338 1.349 . S
C1337 C1339 1.327 . S
C1337 H1360 0.950 . S
C1338 C1337 1.349 . S
C1338 C1350 1.349 . S
C1339 C1337 1.327 . S
C1339 C1355 1.429 . S
C1339 H1361 0.950 . S
C1340 H1336 0.949 . S
C1340 C1348 1.574 1_545 S
C1340 C1356 1.368 . S
H1341 C1349 0.950 . S
H1342 C1347 0.950 . S
H1343 C1348 0.949 . S
H1344 C1350 0.950 . S
H1345 C1351 0.950 . S
H1346 C1352 0.949 . S
C1347 H1342 0.950 . S
C1347 C1349 1.327 . S
C1347 C1353 1.429 . S
C1348 C1340 1.574 1_565 S
C1348 H1343 0.949 . S
C1348 C1354 1.368 . S
C1349 C1333 1.349 . S
C1349 H1341 0.950 . S
C1349 C1347 1.327 . S
C1350 C1338 1.349 . S
C1350 H1344 0.950 . S
C1350 C1351 1.327 . S
C1351 H1345 0.950 . S
C1351 C1350 1.327 . S
C1351 C1355 1.429 . S
C1352 C1335 1.574 1_545 S
C1352 H1346 0.949 . S
C1352 C1356 1.368 . S
C1353 C1334 1.429 . S
C1353 C1347 1.429 . S
C1353 C1354 1.523 . S
C1354 C1335 1.368 . S
C1354 C1348 1.368 . S
C1354 C1353 1.523 . S
C1355 C1339 1.429 . S
C1355 C1351 1.429 . S
C1355 C1356 1.523 . S
C1356 C1340 1.368 . S
C1356 C1352 1.368 . S
C1356 C1355 1.523 . S
H1357 C1332 0.950 . S
H1358 C1334 0.950 . S
H1359 C1335 0.949 . S
H1360 C1337 0.950 . S
H1361 C1339 0.950 . S
C1362 C1363 1.349 . S
C1362 C1364 1.327 . S
C1362 H1387 0.950 . S
C1363 C1362 1.349 . S
C1363 C1379 1.349 . S
C1364 C1362 1.327 . S
C1364 C1383 1.429 . S
C1364 H1388 0.950 . S
C1365 C1382 1.574 . S
C1365 C1384 1.368 1_655 S
C1365 H1389 0.949 . S
H1366 C1370 0.949 . S
C1367 C1368 1.349 . S
C1367 C1369 1.327 . S
C1367 H1390 0.950 . S
C1368 C1367 1.349 . S
C1368 C1380 1.349 . S
C1369 C1367 1.327 . S
C1369 C1385 1.429 . S
C1369 H1391 0.950 . S
C1370 H1366 0.949 . S
C1370 C1378 1.574 1_655 S
C1370 C1386 1.368 . S
H1371 C1379 0.950 . S
H1372 C1377 0.950 . S
H1373 C1378 0.949 . S
H1374 C1380 0.950 . S
H1375 C1381 0.950 . S
H1376 C1382 0.949 . S
C1377 H1372 0.950 . S
C1377 C1379 1.327 . S
C1377 C1383 1.429 . S
C1378 C1370 1.574 1_455 S
C1378 H1373 0.949 . S
C1378 C1384 1.368 . S
C1379 C1363 1.349 . S
C1379 H1371 0.950 . S
C1379 C1377 1.327 . S
C1380 C1368 1.349 . S
C1380 H1374 0.950 . S
C1380 C1381 1.327 . S
C1381 H1375 0.950 . S
C1381 C1380 1.327 . S
C1381 C1385 1.429 . S
C1382 C1365 1.574 . S
C1382 H1376 0.949 . S
C1382 C1386 1.368 . S
C1383 C1364 1.429 . S
C1383 C1377 1.429 . S
C1383 C1384 1.523 . S
C1384 C1365 1.368 1_455 S
C1384 C1378 1.368 . S
C1384 C1383 1.523 . S
C1385 C1369 1.429 . S
C1385 C1381 1.429 . S
C1385 C1386 1.523 . S
C1386 C1370 1.368 . S
C1386 C1382 1.368 . S
C1386 C1385 1.523 . S
H1387 C1362 0.950 . S
H1388 C1364 0.950 . S
H1389 C1365 0.949 . S
H1390 C1367 0.950 . S
H1391 C1369 0.950 . S
C1392 C1393 1.349 . S
C1392 C1394 1.327 . S
C1392 H1417 0.950 . S
C1393 C1392 1.349 . S
C1393 C1409 1.349 . S
C1394 C1392 1.327 . S
C1394 C1413 1.429 . S
C1394 H1418 0.950 . S
C1395 C1412 1.574 . S
C1395 C1414 1.368 . S
C1395 H1419 0.949 . S
H1396 C1400 0.949 . S
C1397 C1398 1.349 . S
C1397 C1399 1.327 . S
C1397 H1420 0.950 . S
C1398 C1397 1.349 . S
C1398 C1410 1.349 . S
C1399 C1397 1.327 . S
C1399 C1415 1.429 . S
C1399 H1421 0.950 . S
C1400 H1396 0.949 . S
C1400 C1408 1.574 . S
C1400 C1416 1.368 . S
H1401 C1409 0.950 . S
H1402 C1407 0.950 . S
H1403 C1408 0.949 . S
H1404 C1410 0.950 . S
H1405 C1411 0.950 . S
H1406 C1412 0.949 . S
C1407 H1402 0.950 . S
C1407 C1409 1.327 . S
C1407 C1413 1.429 . S
C1408 C1400 1.574 . S
C1408 H1403 0.949 . S
C1408 C1414 1.368 . S
C1409 C1393 1.349 . S
C1409 H1401 0.950 . S
C1409 C1407 1.327 . S
C1410 C1398 1.349 . S
C1410 H1404 0.950 . S
C1410 C1411 1.327 . S
C1411 H1405 0.950 . S
C1411 C1410 1.327 . S
C1411 C1415 1.429 . S
C1412 C1395 1.574 . S
C1412 H1406 0.949 . S
C1412 C1416 1.368 . S
C1413 C1394 1.429 . S
C1413 C1407 1.429 . S
C1413 C1414 1.523 . S
C1414 C1395 1.368 . S
C1414 C1408 1.368 . S
C1414 C1413 1.523 . S
C1415 C1399 1.429 . S
C1415 C1411 1.429 . S
C1415 C1416 1.523 . S
C1416 C1400 1.368 . S
C1416 C1412 1.368 . S
C1416 C1415 1.523 . S
H1417 C1392 0.950 . S
H1418 C1394 0.950 . S
H1419 C1395 0.949 . S
H1420 C1397 0.950 . S
H1421 C1399 0.950 . S
C1422 C1423 1.349 . S
C1422 C1424 1.327 . S
C1422 H1447 0.950 . S
C1423 C1422 1.349 . S
C1423 C1439 1.349 . S
C1424 C1422 1.327 . S
C1424 C1443 1.429 . S
C1424 H1448 0.950 . S
C1425 C1442 1.574 1_455 S
C1425 C1444 1.368 . S
C1425 H1449 0.949 . S
H1426 C1430 0.949 . S
C1427 C1428 1.349 . S
C1427 C1429 1.327 . S
C1427 H1450 0.950 . S
C1428 C1427 1.349 . S
C1428 C1440 1.349 . S
C1429 C1427 1.327 . S
C1429 C1445 1.429 . S
C1429 H1451 0.950 . S
C1430 H1426 0.949 . S
C1430 C1438 1.574 1_655 S
C1430 C1446 1.368 . S
H1431 C1439 0.950 . S
H1432 C1437 0.950 . S
H1433 C1438 0.949 . S
H1434 C1440 0.950 . S
H1435 C1441 0.950 . S
H1436 C1442 0.949 . S
C1437 H1432 0.950 . S
C1437 C1439 1.327 . S
C1437 C1443 1.429 . S
C1438 C1430 1.574 1_455 S
C1438 H1433 0.949 . S
C1438 C1444 1.368 . S
C1439 C1423 1.349 . S
C1439 H1431 0.950 . S
C1439 C1437 1.327 . S
C1440 C1428 1.349 . S
C1440 H1434 0.950 . S
C1440 C1441 1.327 . S
C1441 H1435 0.950 . S
C1441 C1440 1.327 . S
C1441 C1445 1.429 . S
C1442 C1425 1.574 1_655 S
C1442 H1436 0.949 . S
C1442 C1446 1.368 . S
C1443 C1424 1.429 . S
C1443 C1437 1.429 . S
C1443 C1444 1.523 . S
C1444 C1425 1.368 . S
C1444 C1438 1.368 . S
C1444 C1443 1.523 . S
C1445 C1429 1.429 . S
C1445 C1441 1.429 . S
C1445 C1446 1.523 . S
C1446 C1430 1.368 . S
C1446 C1442 1.368 . S
C1446 C1445 1.523 . S
H1447 C1422 0.950 . S
H1448 C1424 0.950 . S
H1449 C1425 0.949 . S
H1450 C1427 0.950 . S
H1451 C1429 0.950 . S
C1452 C1453 1.349 . S
C1452 C1454 1.327 . S
C1452 H1477 0.950 . S
C1453 C1452 1.349 . S
C1453 C1469 1.349 . S
C1454 C1452 1.327 . S
C1454 C1473 1.429 . S
C1454 H1478 0.950 . S
C1455 C1472 1.574 . S
C1455 C1474 1.368 . S
C1455 H1479 0.949 . S
H1456 C1460 0.949 . S
C1457 C1458 1.349 . S
C1457 C1459 1.327 . S
C1457 H1480 0.950 . S
C1458 C1457 1.349 . S
C1458 C1470 1.349 . S
C1459 C1457 1.327 . S
C1459 C1475 1.429 . S
C1459 H1481 0.950 . S
C1460 H1456 0.949 . S
C1460 C1468 1.574 . S
C1460 C1476 1.368 . S
H1461 C1469 0.950 . S
H1462 C1467 0.950 . S
H1463 C1468 0.949 . S
H1464 C1470 0.950 . S
H1465 C1471 0.950 . S
H1466 C1472 0.949 . S
C1467 H1462 0.950 . S
C1467 C1469 1.327 . S
C1467 C1473 1.429 . S
C1468 C1460 1.574 . S
C1468 H1463 0.949 . S
C1468 C1474 1.368 . S
C1469 C1453 1.349 . S
C1469 H1461 0.950 . S
C1469 C1467 1.327 . S
C1470 C1458 1.349 . S
C1470 H1464 0.950 . S
C1470 C1471 1.327 . S
C1471 H1465 0.950 . S
C1471 C1470 1.327 . S
C1471 C1475 1.429 . S
C1472 C1455 1.574 . S
C1472 H1466 0.949 . S
C1472 C1476 1.368 . S
C1473 C1454 1.429 . S
C1473 C1467 1.429 . S
C1473 C1474 1.523 . S
C1474 C1455 1.368 . S
C1474 C1468 1.368 . S
C1474 C1473 1.523 . S
C1475 C1459 1.429 . S
C1475 C1471 1.429 . S
C1475 C1476 1.523 . S
C1476 C1460 1.368 . S
C1476 C1472 1.368 . S
C1476 C1475 1.523 . S
H1477 C1452 0.950 . S
H1478 C1454 0.950 . S
H1479 C1455 0.949 . S
H1480 C1457 0.950 . S
H1481 C1459 0.950 . S
C1482 C1483 1.349 . S
C1482 C1484 1.327 . S
C1482 H1507 0.950 . S
C1483 C1482 1.349 . S
C1483 C1499 1.349 . S
C1484 C1482 1.327 . S
C1484 C1503 1.429 . S
C1484 H1508 0.950 . S
C1485 C1502 1.574 1_565 S
C1485 C1504 1.368 . S
C1485 H1509 0.949 . S
H1486 C1490 0.949 . S
C1487 C1488 1.349 . S
C1487 C1489 1.327 . S
C1487 H1510 0.950 . S
C1488 C1487 1.349 . S
C1488 C1500 1.349 . S
C1489 C1487 1.327 . S
C1489 C1505 1.429 . S
C1489 H1511 0.950 . S
C1490 H1486 0.949 . S
C1490 C1498 1.574 1_545 S
C1490 C1506 1.368 . S
H1491 C1499 0.950 . S
H1492 C1497 0.950 . S
H1493 C1498 0.949 . S
H1494 C1500 0.950 . S
H1495 C1501 0.950 . S
H1496 C1502 0.949 . S
C1497 H1492 0.950 . S
C1497 C1499 1.327 . S
C1497 C1503 1.429 . S
C1498 C1490 1.574 1_565 S
C1498 H1493 0.949 . S
C1498 C1504 1.368 . S
C1499 C1483 1.349 . S
C1499 H1491 0.950 . S
C1499 C1497 1.327 . S
C1500 C1488 1.349 . S
C1500 H1494 0.950 . S
C1500 C1501 1.327 . S
C1501 H1495 0.950 . S
C1501 C1500 1.327 . S
C1501 C1505 1.429 . S
C1502 C1485 1.574 1_545 S
C1502 H1496 0.949 . S
C1502 C1506 1.368 . S
C1503 C1484 1.429 . S
C1503 C1497 1.429 . S
C1503 C1504 1.523 . S
C1504 C1485 1.368 . S
C1504 C1498 1.368 . S
C1504 C1503 1.523 . S
C1505 C1489 1.429 . S
C1505 C1501 1.429 . S
C1505 C1506 1.523 . S
C1506 C1490 1.368 . S
C1506 C1502 1.368 . S
C1506 C1505 1.523 . S
H1507 C1482 0.950 . S
H1508 C1484 0.950 . S
H1509 C1485 0.949 . S
H1510 C1487 0.950 . S
H1511 C1489 0.950 . S
C1512 C1513 1.349 . S
C1512 C1514 1.327 . S
C1512 H1537 0.950 . S
C1513 C1512 1.349 . S
C1513 C1529 1.349 . S
C1514 C1512 1.327 . S
C1514 C1533 1.429 . S
C1514 H1538 0.950 . S
C1515 C1532 1.574 . S
C1515 C1534 1.368 . S
C1515 H1539 0.949 . S
H1516 C1520 0.949 . S
C1517 C1518 1.349 . S
C1517 C1519 1.327 . S
C1517 H1540 0.950 . S
C1518 C1517 1.349 . S
C1518 C1530 1.349 . S
C1519 C1517 1.327 . S
C1519 C1535 1.429 . S
C1519 H1541 0.950 . S
C1520 H1516 0.949 . S
C1520 C1528 1.574 . S
C1520 C1536 1.368 . S
H1521 C1529 0.950 . S
H1522 C1527 0.950 . S
H1523 C1528 0.949 . S
H1524 C1530 0.950 . S
H1525 C1531 0.950 . S
H1526 C1532 0.949 . S
C1527 H1522 0.950 . S
C1527 C1529 1.327 . S
C1527 C1533 1.429 . S
C1528 C1520 1.574 . S
C1528 H1523 0.949 . S
C1528 C1534 1.368 . S
C1529 C1513 1.349 . S
C1529 H1521 0.950 . S
C1529 C1527 1.327 . S
C1530 C1518 1.349 . S
C1530 H1524 0.950 . S
C1530 C1531 1.327 . S
C1531 H1525 0.950 . S
C1531 C1530 1.327 . S
C1531 C1535 1.429 . S
C1532 C1515 1.574 . S
C1532 H1526 0.949 . S
C1532 C1536 1.368 . S
C1533 C1514 1.429 . S
C1533 C1527 1.429 . S
C1533 C1534 1.523 . S
C1534 C1515 1.368 . S
C1534 C1528 1.368 . S
C1534 C1533 1.523 . S
C1535 C1519 1.429 . S
C1535 C1531 1.429 . S
C1535 C1536 1.523 . S
C1536 C1520 1.368 . S
C1536 C1532 1.368 . S
C1536 C1535 1.523 . S
H1537 C1512 0.950 . S
H1538 C1514 0.950 . S
H1539 C1515 0.949 . S
H1540 C1517 0.950 . S
H1541 C1519 0.950 . S
C1542 C1543 1.349 . S
C1542 C1544 1.327 . S
C1542 H1567 0.950 . S
C1543 C1542 1.349 . S
C1543 C1559 1.349 . S
C1544 C1542 1.327 . S
C1544 C1563 1.429 . S
C1544 H1568 0.950 . S
C1545 C1562 1.574 . S
C1545 C1564 1.368 . S
C1545 H1569 0.949 . S
H1546 C1550 0.949 . S
C1547 C1548 1.349 . S
C1547 C1549 1.327 . S
C1547 H1570 0.950 . S
C1548 C1547 1.349 . S
C1548 C1560 1.349 . S
C1549 C1547 1.327 . S
C1549 C1565 1.429 . S
C1549 H1571 0.950 . S
C1550 H1546 0.949 . S
C1550 C1558 1.574 . S
C1550 C1566 1.368 . S
H1551 C1559 0.950 . S
H1552 C1557 0.950 . S
H1553 C1558 0.949 . S
H1554 C1560 0.950 . S
H1555 C1561 0.950 . S
H1556 C1562 0.949 . S
C1557 H1552 0.950 . S
C1557 C1559 1.327 . S
C1557 C1563 1.429 . S
C1558 C1550 1.574 . S
C1558 H1553 0.949 . S
C1558 C1564 1.368 . S
C1559 C1543 1.349 . S
C1559 H1551 0.950 . S
C1559 C1557 1.327 . S
C1560 C1548 1.349 . S
C1560 H1554 0.950 . S
C1560 C1561 1.327 . S
C1561 H1555 0.950 . S
C1561 C1560 1.327 . S
C1561 C1565 1.429 . S
C1562 C1545 1.574 . S
C1562 H1556 0.949 . S
C1562 C1566 1.368 . S
C1563 C1544 1.429 . S
C1563 C1557 1.429 . S
C1563 C1564 1.523 . S
C1564 C1545 1.368 . S
C1564 C1558 1.368 . S
C1564 C1563 1.523 . S
C1565 C1549 1.429 . S
C1565 C1561 1.429 . S
C1565 C1566 1.523 . S
C1566 C1550 1.368 . S
C1566 C1562 1.368 . S
C1566 C1565 1.523 . S
H1567 C1542 0.950 . S
H1568 C1544 0.950 . S
H1569 C1545 0.949 . S
H1570 C1547 0.950 . S
H1571 C1549 0.950 . S
C1572 C1573 1.349 . S
C1572 C1574 1.327 . S
C1572 H1597 0.950 . S
C1573 C1572 1.349 . S
C1573 C1589 1.349 . S
C1574 C1572 1.327 . S
C1574 C1593 1.429 . S
C1574 H1598 0.950 . S
C1575 C1592 1.574 . S
C1575 C1594 1.368 . S
C1575 H1599 0.949 . S
H1576 C1580 0.949 . S
C1577 C1578 1.349 . S
C1577 C1579 1.327 . S
C1577 H1600 0.950 . S
C1578 C1577 1.349 . S
C1578 C1590 1.349 . S
C1579 C1577 1.327 . S
C1579 C1595 1.429 . S
C1579 H1601 0.950 . S
C1580 H1576 0.949 . S
C1580 C1588 1.574 . S
C1580 C1596 1.368 . S
H1581 C1589 0.950 . S
H1582 C1587 0.950 . S
H1583 C1588 0.949 . S
H1584 C1590 0.950 . S
H1585 C1591 0.950 . S
H1586 C1592 0.949 . S
C1587 H1582 0.950 . S
C1587 C1589 1.327 . S
C1587 C1593 1.429 . S
C1588 C1580 1.574 . S
C1588 H1583 0.949 . S
C1588 C1594 1.368 . S
C1589 C1573 1.349 . S
C1589 H1581 0.950 . S
C1589 C1587 1.327 . S
C1590 C1578 1.349 . S
C1590 H1584 0.950 . S
C1590 C1591 1.327 . S
C1591 H1585 0.950 . S
C1591 C1590 1.327 . S
C1591 C1595 1.429 . S
C1592 C1575 1.574 . S
C1592 H1586 0.949 . S
C1592 C1596 1.368 . S
C1593 C1574 1.429 . S
C1593 C1587 1.429 . S
C1593 C1594 1.523 . S
C1594 C1575 1.368 . S
C1594 C1588 1.368 . S
C1594 C1593 1.523 . S
C1595 C1579 1.429 . S
C1595 C1591 1.429 . S
C1595 C1596 1.523 . S
C1596 C1580 1.368 . S
C1596 C1592 1.368 . S
C1596 C1595 1.523 . S
H1597 C1572 0.950 . S
H1598 C1574 0.950 . S
H1599 C1575 0.949 . S
H1600 C1577 0.950 . S
H1601 C1579 0.950 . S
C1602 C1603 1.349 . S
C1602 C1604 1.327 . S
C1602 H1627 0.950 . S
C1603 C1602 1.349 . S
C1603 C1619 1.349 . S
C1604 C1602 1.327 . S
C1604 C1623 1.429 . S
C1604 H1628 0.950 . S
C1605 C1622 1.574 . S
C1605 C1624 1.368 . S
C1605 H1629 0.949 . S
H1606 C1610 0.949 . S
C1607 C1608 1.349 1_545 S
C1607 C1609 1.327 . S
C1607 H1630 0.950 . S
C1608 C1607 1.349 1_565 S
C1608 C1620 1.349 . S
C1609 C1607 1.327 . S
C1609 C1625 1.429 1_545 S
C1609 H1631 0.949 . S
C1610 H1606 0.949 . S
C1610 C1618 1.574 . S
C1610 C1626 1.368 . S
H1611 C1619 0.950 . S
H1612 C1617 0.950 . S
H1613 C1618 0.949 . S
H1614 C1620 0.950 . S
H1615 C1621 0.950 . S
H1616 C1622 0.949 1_545 S
C1617 H1612 0.950 . S
C1617 C1619 1.327 . S
C1617 C1623 1.429 . S
C1618 C1610 1.574 . S
C1618 H1613 0.949 . S
C1618 C1624 1.368 . S
C1619 C1603 1.349 . S
C1619 H1611 0.950 . S
C1619 C1617 1.327 . S
C1620 C1608 1.349 . S
C1620 H1614 0.950 . S
C1620 C1621 1.327 . S
C1621 H1615 0.950 . S
C1621 C1620 1.327 . S
C1621 C1625 1.429 . S
C1622 C1605 1.574 . S
C1622 H1616 0.949 1_565 S
C1622 C1626 1.368 . S
C1623 C1604 1.429 . S
C1623 C1617 1.429 . S
C1623 C1624 1.523 . S
C1624 C1605 1.368 . S
C1624 C1618 1.368 . S
C1624 C1623 1.523 . S
C1625 C1609 1.429 1_565 S
C1625 C1621 1.429 . S
C1625 C1626 1.523 . S
C1626 C1610 1.368 . S
C1626 C1622 1.368 . S
C1626 C1625 1.523 . S
H1627 C1602 0.950 . S
H1628 C1604 0.950 . S
H1629 C1605 0.949 . S
H1630 C1607 0.950 . S
H1631 C1609 0.949 . S
C1632 C1633 1.349 . S
C1632 C1634 1.327 . S
C1632 H1657 0.950 1_455 S
C1633 C1632 1.349 . S
C1633 C1649 1.349 . S
C1634 C1632 1.327 . S
C1634 C1653 1.429 . S
C1634 H1658 0.950 1_455 S
C1635 C1652 1.574 . S
C1635 C1654 1.368 . S
C1635 H1659 0.949 . S
H1636 C1640 0.951 . S
C1637 C1638 1.349 . S
C1637 C1639 1.327 . S
C1637 H1660 0.950 . S
C1638 C1637 1.349 . S
C1638 C1650 1.349 1_455 S
C1639 C1637 1.327 . S
C1639 C1655 1.429 . S
C1639 H1661 0.950 . S
C1640 H1636 0.951 . S
C1640 C1648 1.574 1_655 S
C1640 C1656 1.366 1_655 S
H1641 C1649 0.950 . S
H1642 C1647 0.950 . S
H1643 C1648 0.949 1_655 S
H1644 C1650 0.950 . S
H1645 C1651 0.950 . S
H1646 C1652 0.949 . S
C1647 H1642 0.950 . S
C1647 C1649 1.327 . S
C1647 C1653 1.429 . S
C1648 C1640 1.574 1_455 S
C1648 H1643 0.949 1_455 S
C1648 C1654 1.368 . S
C1649 C1633 1.349 . S
C1649 H1641 0.950 . S
C1649 C1647 1.327 . S
C1650 C1638 1.349 1_655 S
C1650 H1644 0.950 . S
C1650 C1651 1.327 . S
C1651 H1645 0.950 . S
C1651 C1650 1.327 . S
C1651 C1655 1.429 1_655 S
C1652 C1635 1.574 . S
C1652 H1646 0.949 . S
C1652 C1656 1.368 . S
C1653 C1634 1.429 . S
C1653 C1647 1.429 . S
C1653 C1654 1.523 . S
C1654 C1635 1.368 . S
C1654 C1648 1.368 . S
C1654 C1653 1.523 . S
C1655 C1639 1.429 . S
C1655 C1651 1.429 1_455 S
C1655 C1656 1.523 . S
C1656 C1640 1.366 1_455 S
C1656 C1652 1.368 . S
C1656 C1655 1.523 . S
H1657 C1632 0.950 1_655 S
H1658 C1634 0.950 1_655 S
H1659 C1635 0.949 . S
H1660 C1637 0.950 . S
H1661 C1639 0.950 . S
C1662 C1663 1.349 . S
C1662 C1664 1.327 . S
C1662 H1687 0.950 . S
C1663 C1662 1.349 . S
C1663 C1679 1.349 . S
C1664 C1662 1.327 . S
C1664 C1683 1.429 . S
C1664 H1688 0.950 . S
C1665 C1682 1.574 . S
C1665 C1684 1.368 . S
C1665 H1689 0.949 . S
H1666 C1670 0.949 . S
C1667 C1668 1.349 . S
C1667 C1669 1.327 . S
C1667 H1690 0.950 . S
C1668 C1667 1.349 . S
C1668 C1680 1.349 . S
C1669 C1667 1.327 . S
C1669 C1685 1.429 . S
C1669 H1691 0.950 . S
C1670 H1666 0.949 . S
C1670 C1678 1.574 . S
C1670 C1686 1.368 . S
H1671 C1679 0.950 . S
H1672 C1677 0.950 . S
H1673 C1678 0.949 . S
H1674 C1680 0.950 . S
H1675 C1681 0.950 . S
H1676 C1682 0.949 . S
C1677 H1672 0.950 . S
C1677 C1679 1.327 . S
C1677 C1683 1.429 . S
C1678 C1670 1.574 . S
C1678 H1673 0.949 . S
C1678 C1684 1.368 . S
C1679 C1663 1.349 . S
C1679 H1671 0.950 . S
C1679 C1677 1.327 . S
C1680 C1668 1.349 . S
C1680 H1674 0.950 . S
C1680 C1681 1.327 . S
C1681 H1675 0.950 . S
C1681 C1680 1.327 . S
C1681 C1685 1.429 . S
C1682 C1665 1.574 . S
C1682 H1676 0.949 . S
C1682 C1686 1.368 . S
C1683 C1664 1.429 . S
C1683 C1677 1.429 . S
C1683 C1684 1.523 . S
C1684 C1665 1.368 . S
C1684 C1678 1.368 . S
C1684 C1683 1.523 . S
C1685 C1669 1.429 . S
C1685 C1681 1.429 . S
C1685 C1686 1.523 . S
C1686 C1670 1.368 . S
C1686 C1682 1.368 . S
C1686 C1685 1.523 . S
H1687 C1662 0.950 . S
H1688 C1664 0.950 . S
H1689 C1665 0.949 . S
H1690 C1667 0.950 . S
H1691 C1669 0.950 . S
C1692 C1693 1.349 . S
C1692 C1694 1.327 . S
C1692 H1717 0.950 . S
C1693 C1692 1.349 . S
C1693 C1709 1.349 . S
C1694 C1692 1.327 . S
C1694 C1713 1.429 . S
C1694 H1718 0.950 . S
C1695 C1712 1.574 . S
C1695 C1714 1.368 . S
C1695 H1719 0.949 . S
H1696 C1700 0.949 . S
C1697 C1698 1.349 . S
C1697 C1699 1.327 . S
C1697 H1720 0.950 . S
C1698 C1697 1.349 . S
C1698 C1710 1.349 . S
C1699 C1697 1.327 . S
C1699 C1715 1.429 . S
C1699 H1721 0.950 . S
C1700 H1696 0.949 . S
C1700 C1708 1.574 . S
C1700 C1716 1.368 . S
H1701 C1709 0.950 . S
H1702 C1707 0.950 . S
H1703 C1708 0.949 . S
H1704 C1710 0.950 . S
H1705 C1711 0.950 . S
H1706 C1712 0.949 . S
C1707 H1702 0.950 . S
C1707 C1709 1.327 . S
C1707 C1713 1.429 . S
C1708 C1700 1.574 . S
C1708 H1703 0.949 . S
C1708 C1714 1.368 . S
C1709 C1693 1.349 . S
C1709 H1701 0.950 . S
C1709 C1707 1.327 . S
C1710 C1698 1.349 . S
C1710 H1704 0.950 . S
C1710 C1711 1.327 . S
C1711 H1705 0.950 . S
C1711 C1710 1.327 . S
C1711 C1715 1.429 . S
C1712 C1695 1.574 . S
C1712 H1706 0.949 . S
C1712 C1716 1.368 . S
C1713 C1694 1.429 . S
C1713 C1707 1.429 . S
C1713 C1714 1.523 . S
C1714 C1695 1.368 . S
C1714 C1708 1.368 . S
C1714 C1713 1.523 . S
C1715 C1699 1.429 . S
C1715 C1711 1.429 . S
C1715 C1716 1.523 . S
C1716 C1700 1.368 . S
C1716 C1712 1.368 . S
C1716 C1715 1.523 . S
H1717 C1692 0.950 . S
H1718 C1694 0.950 . S
H1719 C1695 0.949 . S
H1720 C1697 0.950 . S
H1721 C1699 0.950 . S
C1722 C1723 1.349 . S
C1722 C1724 1.327 . S
C1722 H1747 0.950 . S
C1723 C1722 1.349 . S
C1723 C1739 1.349 . S
C1724 C1722 1.327 . S
C1724 C1743 1.429 . S
C1724 H1748 0.950 . S
C1725 C1742 1.574 . S
C1725 C1744 1.368 . S
C1725 H1749 0.949 . S
H1726 C1730 0.949 . S
C1727 C1728 1.349 . S
C1727 C1729 1.327 . S
C1727 H1750 0.950 . S
C1728 C1727 1.349 . S
C1728 C1740 1.349 . S
C1729 C1727 1.327 . S
C1729 C1745 1.429 . S
C1729 H1751 0.950 . S
C1730 H1726 0.949 . S
C1730 C1738 1.574 . S
C1730 C1746 1.368 . S
H1731 C1739 0.950 . S
H1732 C1737 0.950 . S
H1733 C1738 0.949 . S
H1734 C1740 0.950 . S
H1735 C1741 0.950 . S
H1736 C1742 0.949 . S
C1737 H1732 0.950 . S
C1737 C1739 1.327 . S
C1737 C1743 1.429 . S
C1738 C1730 1.574 . S
C1738 H1733 0.949 . S
C1738 C1744 1.368 . S
C1739 C1723 1.349 . S
C1739 H1731 0.950 . S
C1739 C1737 1.327 . S
C1740 C1728 1.349 . S
C1740 H1734 0.950 . S
C1740 C1741 1.327 . S
C1741 H1735 0.950 . S
C1741 C1740 1.327 . S
C1741 C1745 1.429 . S
C1742 C1725 1.574 . S
C1742 H1736 0.949 . S
C1742 C1746 1.368 . S
C1743 C1724 1.429 . S
C1743 C1737 1.429 . S
C1743 C1744 1.523 . S
C1744 C1725 1.368 . S
C1744 C1738 1.368 . S
C1744 C1743 1.523 . S
C1745 C1729 1.429 . S
C1745 C1741 1.429 . S
C1745 C1746 1.523 . S
C1746 C1730 1.368 . S
C1746 C1742 1.368 . S
C1746 C1745 1.523 . S
H1747 C1722 0.950 . S
H1748 C1724 0.950 . S
H1749 C1725 0.949 . S
H1750 C1727 0.950 . S
H1751 C1729 0.950 . S
C1752 C1753 1.349 . S
C1752 C1754 1.327 . S
C1752 H1777 0.950 . S
C1753 C1752 1.349 . S
C1753 C1769 1.349 . S
C1754 C1752 1.327 . S
C1754 C1773 1.429 . S
C1754 H1778 0.950 . S
C1755 C1772 1.574 . S
C1755 C1774 1.368 . S
C1755 H1779 0.949 . S
H1756 C1760 0.949 . S
C1757 C1758 1.349 1_565 S
C1757 C1759 1.327 1_565 S
C1757 H1780 0.950 . S
C1758 C1757 1.349 1_545 S
C1758 C1770 1.349 . S
C1759 C1757 1.327 1_545 S
C1759 C1775 1.429 . S
C1759 H1781 0.950 1_545 S
C1760 H1756 0.949 . S
C1760 C1768 1.574 . S
C1760 C1776 1.368 . S
H1761 C1769 0.950 . S
H1762 C1767 0.950 . S
H1763 C1768 0.949 . S
H1764 C1770 0.950 . S
H1765 C1771 0.950 . S
H1766 C1772 0.949 1_565 S
C1767 H1762 0.950 . S
C1767 C1769 1.327 . S
C1767 C1773 1.429 . S
C1768 C1760 1.574 . S
C1768 H1763 0.949 . S
C1768 C1774 1.368 . S
C1769 C1753 1.349 . S
C1769 H1761 0.950 . S
C1769 C1767 1.327 . S
C1770 C1758 1.349 . S
C1770 H1764 0.950 . S
C1770 C1771 1.327 . S
C1771 H1765 0.950 . S
C1771 C1770 1.327 . S
C1771 C1775 1.429 . S
C1772 C1755 1.574 . S
C1772 H1766 0.949 1_545 S
C1772 C1776 1.368 . S
C1773 C1754 1.429 . S
C1773 C1767 1.429 . S
C1773 C1774 1.523 . S
C1774 C1755 1.368 . S
C1774 C1768 1.368 . S
C1774 C1773 1.523 . S
C1775 C1759 1.429 . S
C1775 C1771 1.429 . S
C1775 C1776 1.523 . S
C1776 C1760 1.368 . S
C1776 C1772 1.368 . S
C1776 C1775 1.523 . S
H1777 C1752 0.950 . S
H1778 C1754 0.950 . S
H1779 C1755 0.949 . S
H1780 C1757 0.950 . S
H1781 C1759 0.950 1_565 S
C1782 C1783 1.349 . S
C1782 C1784 1.327 . S
C1782 H1807 0.950 . S
C1783 C1782 1.349 . S
C1783 C1799 1.349 . S
C1784 C1782 1.327 . S
C1784 C1803 1.429 . S
C1784 H1808 0.950 . S
C1785 C1802 1.574 . S
C1785 C1804 1.368 . S
C1785 H1809 0.949 . S
H1786 C1790 0.949 . S
C1787 C1788 1.349 . S
C1787 C1789 1.327 . S
C1787 H1810 0.950 . S
C1788 C1787 1.349 . S
C1788 C1800 1.349 . S
C1789 C1787 1.327 . S
C1789 C1805 1.429 . S
C1789 H1811 0.950 . S
C1790 H1786 0.949 . S
C1790 C1798 1.574 . S
C1790 C1806 1.368 . S
H1791 C1799 0.950 . S
H1792 C1797 0.950 . S
H1793 C1798 0.949 . S
H1794 C1800 0.950 . S
H1795 C1801 0.950 . S
H1796 C1802 0.949 . S
C1797 H1792 0.950 . S
C1797 C1799 1.327 . S
C1797 C1803 1.429 . S
C1798 C1790 1.574 . S
C1798 H1793 0.949 . S
C1798 C1804 1.368 . S
C1799 C1783 1.349 . S
C1799 H1791 0.950 . S
C1799 C1797 1.327 . S
C1800 C1788 1.349 . S
C1800 H1794 0.950 . S
C1800 C1801 1.327 . S
C1801 H1795 0.950 . S
C1801 C1800 1.327 . S
C1801 C1805 1.429 . S
C1802 C1785 1.574 . S
C1802 H1796 0.949 . S
C1802 C1806 1.368 . S
C1803 C1784 1.429 . S
C1803 C1797 1.429 . S
C1803 C1804 1.523 . S
C1804 C1785 1.368 . S
C1804 C1798 1.368 . S
C1804 C1803 1.523 . S
C1805 C1789 1.429 . S
C1805 C1801 1.429 . S
C1805 C1806 1.523 . S
C1806 C1790 1.368 . S
C1806 C1802 1.368 . S
C1806 C1805 1.523 . S
H1807 C1782 0.950 . S
H1808 C1784 0.950 . S
H1809 C1785 0.949 . S
H1810 C1787 0.950 . S
H1811 C1789 0.950 . S
C1812 C1813 1.349 . S
C1812 C1814 1.327 . S
C1812 H1837 0.950 . S
C1813 C1812 1.349 . S
C1813 C1829 1.349 . S
C1814 C1812 1.327 . S
C1814 C1833 1.429 . S
C1814 H1838 0.950 . S
C1815 C1832 1.574 . S
C1815 C1834 1.368 . S
C1815 H1839 0.949 . S
H1816 C1820 0.949 . S
C1817 C1818 1.349 . S
C1817 C1819 1.327 . S
C1817 H1840 0.950 . S
C1818 C1817 1.349 . S
C1818 C1830 1.349 . S
C1819 C1817 1.327 . S
C1819 C1835 1.429 . S
C1819 H1841 0.950 . S
C1820 H1816 0.949 . S
C1820 C1828 1.574 . S
C1820 C1836 1.368 . S
H1821 C1829 0.950 . S
H1822 C1827 0.950 . S
H1823 C1828 0.949 . S
H1824 C1830 0.950 . S
H1825 C1831 0.950 . S
H1826 C1832 0.949 . S
C1827 H1822 0.950 . S
C1827 C1829 1.327 . S
C1827 C1833 1.429 . S
C1828 C1820 1.574 . S
C1828 H1823 0.949 . S
C1828 C1834 1.368 . S
C1829 C1813 1.349 . S
C1829 H1821 0.950 . S
C1829 C1827 1.327 . S
C1830 C1818 1.349 . S
C1830 H1824 0.950 . S
C1830 C1831 1.327 . S
C1831 H1825 0.950 . S
C1831 C1830 1.327 . S
C1831 C1835 1.429 . S
C1832 C1815 1.574 . S
C1832 H1826 0.949 . S
C1832 C1836 1.368 . S
C1833 C1814 1.429 . S
C1833 C1827 1.429 . S
C1833 C1834 1.523 . S
C1834 C1815 1.368 . S
C1834 C1828 1.368 . S
C1834 C1833 1.523 . S
C1835 C1819 1.429 . S
C1835 C1831 1.429 . S
C1835 C1836 1.523 . S
C1836 C1820 1.368 . S
C1836 C1832 1.368 . S
C1836 C1835 1.523 . S
H1837 C1812 0.950 . S
H1838 C1814 0.950 . S
H1839 C1815 0.949 . S
H1840 C1817 0.950 . S
H1841 C1819 0.950 . S
C1842 C1843 1.349 . S
C1842 C1844 1.327 . S
C1842 H1867 0.950 . S
C1843 C1842 1.349 . S
C1843 C1859 1.349 . S
C1844 C1842 1.327 . S
C1844 C1863 1.429 . S
C1844 H1868 0.950 . S
C1845 C1862 1.574 . S
C1845 C1864 1.368 . S
C1845 H1869 0.949 . S
H1846 C1850 0.949 . S
C1847 C1848 1.349 . S
C1847 C1849 1.327 . S
C1847 H1870 0.950 . S
C1848 C1847 1.349 . S
C1848 C1860 1.349 . S
C1849 C1847 1.327 . S
C1849 C1865 1.429 . S
C1849 H1871 0.950 . S
C1850 H1846 0.949 . S
C1850 C1858 1.574 . S
C1850 C1866 1.368 . S
H1851 C1859 0.950 . S
H1852 C1857 0.950 . S
H1853 C1858 0.949 . S
H1854 C1860 0.950 . S
H1855 C1861 0.950 . S
H1856 C1862 0.949 . S
C1857 H1852 0.950 . S
C1857 C1859 1.327 . S
C1857 C1863 1.429 . S
C1858 C1850 1.574 . S
C1858 H1853 0.949 . S
C1858 C1864 1.368 . S
C1859 C1843 1.349 . S
C1859 H1851 0.950 . S
C1859 C1857 1.327 . S
C1860 C1848 1.349 . S
C1860 H1854 0.950 . S
C1860 C1861 1.327 . S
C1861 H1855 0.950 . S
C1861 C1860 1.327 . S
C1861 C1865 1.429 . S
C1862 C1845 1.574 . S
C1862 H1856 0.949 . S
C1862 C1866 1.368 . S
C1863 C1844 1.429 . S
C1863 C1857 1.429 . S
C1863 C1864 1.523 . S
C1864 C1845 1.368 . S
C1864 C1858 1.368 . S
C1864 C1863 1.523 . S
C1865 C1849 1.429 . S
C1865 C1861 1.429 . S
C1865 C1866 1.523 . S
C1866 C1850 1.368 . S
C1866 C1862 1.368 . S
C1866 C1865 1.523 . S
H1867 C1842 0.950 . S
H1868 C1844 0.950 . S
H1869 C1845 0.949 . S
H1870 C1847 0.950 . S
H1871 C1849 0.950 . S
C1872 C1873 1.349 . S
C1872 C1874 1.327 . S
C1872 H1897 0.950 . S
C1873 C1872 1.349 . S
C1873 C1889 1.349 . S
C1874 C1872 1.327 . S
C1874 C1893 1.429 . S
C1874 H1898 0.950 . S
C1875 C1892 1.574 . S
C1875 C1894 1.368 . S
C1875 H1899 0.949 . S
H1876 C1880 0.949 . S
C1877 C1878 1.349 . S
C1877 C1879 1.327 . S
C1877 H1900 0.950 . S
C1878 C1877 1.349 . S
C1878 C1890 1.349 . S
C1879 C1877 1.327 . S
C1879 C1895 1.429 . S
C1879 H1901 0.950 . S
C1880 H1876 0.949 . S
C1880 C1888 1.574 . S
C1880 C1896 1.368 . S
H1881 C1889 0.950 . S
H1882 C1887 0.950 . S
H1883 C1888 0.949 . S
H1884 C1890 0.950 . S
H1885 C1891 0.950 . S
H1886 C1892 0.949 . S
C1887 H1882 0.950 . S
C1887 C1889 1.327 . S
C1887 C1893 1.429 . S
C1888 C1880 1.574 . S
C1888 H1883 0.949 . S
C1888 C1894 1.368 . S
C1889 C1873 1.349 . S
C1889 H1881 0.950 . S
C1889 C1887 1.327 . S
C1890 C1878 1.349 . S
C1890 H1884 0.950 . S
C1890 C1891 1.327 . S
C1891 H1885 0.950 . S
C1891 C1890 1.327 . S
C1891 C1895 1.429 . S
C1892 C1875 1.574 . S
C1892 H1886 0.949 . S
C1892 C1896 1.368 . S
C1893 C1874 1.429 . S
C1893 C1887 1.429 . S
C1893 C1894 1.523 . S
C1894 C1875 1.368 . S
C1894 C1888 1.368 . S
C1894 C1893 1.523 . S
C1895 C1879 1.429 . S
C1895 C1891 1.429 . S
C1895 C1896 1.523 . S
C1896 C1880 1.368 . S
C1896 C1892 1.368 . S
C1896 C1895 1.523 . S
H1897 C1872 0.950 . S
H1898 C1874 0.950 . S
H1899 C1875 0.949 . S
H1900 C1877 0.950 . S
H1901 C1879 0.950 . S
C1902 C1903 1.349 . S
C1902 C1904 1.327 . S
C1902 H1927 0.950 . S
C1903 C1902 1.349 . S
C1903 C1919 1.349 . S
C1904 C1902 1.327 . S
C1904 C1923 1.429 . S
C1904 H1928 0.950 . S
C1905 C1922 1.574 . S
C1905 C1924 1.368 . S
C1905 H1929 0.949 . S
H1906 C1910 0.949 . S
C1907 C1908 1.349 . S
C1907 C1909 1.327 . S
C1907 H1930 0.950 . S
C1908 C1907 1.349 . S
C1908 C1920 1.349 . S
C1909 C1907 1.327 . S
C1909 C1925 1.429 . S
C1909 H1931 0.950 . S
C1910 H1906 0.949 . S
C1910 C1918 1.574 . S
C1910 C1926 1.368 . S
H1911 C1919 0.950 . S
H1912 C1917 0.950 . S
H1913 C1918 0.949 . S
H1914 C1920 0.950 . S
H1915 C1921 0.950 . S
H1916 C1922 0.949 . S
C1917 H1912 0.950 . S
C1917 C1919 1.327 . S
C1917 C1923 1.429 . S
C1918 C1910 1.574 . S
C1918 H1913 0.949 . S
C1918 C1924 1.368 . S
C1919 C1903 1.349 . S
C1919 H1911 0.950 . S
C1919 C1917 1.327 . S
C1920 C1908 1.349 . S
C1920 H1914 0.950 . S
C1920 C1921 1.327 . S
C1921 H1915 0.950 . S
C1921 C1920 1.327 . S
C1921 C1925 1.429 . S
C1922 C1905 1.574 . S
C1922 H1916 0.949 . S
C1922 C1926 1.368 . S
C1923 C1904 1.429 . S
C1923 C1917 1.429 . S
C1923 C1924 1.523 . S
C1924 C1905 1.368 . S
C1924 C1918 1.368 . S
C1924 C1923 1.523 . S
C1925 C1909 1.429 . S
C1925 C1921 1.429 . S
C1925 C1926 1.523 . S
C1926 C1910 1.368 . S
C1926 C1922 1.368 . S
C1926 C1925 1.523 . S
H1927 C1902 0.950 . S
H1928 C1904 0.950 . S
H1929 C1905 0.949 . S
H1930 C1907 0.950 . S
H1931 C1909 0.950 . S
C1932 C1933 1.349 . S
C1932 C1934 1.327 . S
C1932 H1957 0.950 . S
C1933 C1932 1.349 . S
C1933 C1949 1.349 . S
C1934 C1932 1.327 . S
C1934 C1953 1.429 . S
C1934 H1958 0.950 . S
C1935 C1952 1.574 . S
C1935 C1954 1.368 . S
C1935 H1959 0.949 . S
H1936 C1940 0.949 . S
C1937 C1938 1.349 . S
C1937 C1939 1.327 . S
C1937 H1960 0.950 . S
C1938 C1937 1.349 . S
C1938 C1950 1.349 . S
C1939 C1937 1.327 . S
C1939 C1955 1.429 . S
C1939 H1961 0.950 . S
C1940 H1936 0.949 . S
C1940 C1948 1.574 . S
C1940 C1956 1.368 . S
H1941 C1949 0.950 . S
H1942 C1947 0.950 . S
H1943 C1948 0.949 . S
H1944 C1950 0.950 . S
H1945 C1951 0.950 . S
H1946 C1952 0.949 . S
C1947 H1942 0.950 . S
C1947 C1949 1.327 . S
C1947 C1953 1.429 . S
C1948 C1940 1.574 . S
C1948 H1943 0.949 . S
C1948 C1954 1.368 . S
C1949 C1933 1.349 . S
C1949 H1941 0.950 . S
C1949 C1947 1.327 . S
C1950 C1938 1.349 . S
C1950 H1944 0.950 . S
C1950 C1951 1.327 . S
C1951 H1945 0.950 . S
C1951 C1950 1.327 . S
C1951 C1955 1.429 . S
C1952 C1935 1.574 . S
C1952 H1946 0.949 . S
C1952 C1956 1.368 . S
C1953 C1934 1.429 . S
C1953 C1947 1.429 . S
C1953 C1954 1.523 . S
C1954 C1935 1.368 . S
C1954 C1948 1.368 . S
C1954 C1953 1.523 . S
C1955 C1939 1.429 . S
C1955 C1951 1.429 . S
C1955 C1956 1.523 . S
C1956 C1940 1.368 . S
C1956 C1952 1.368 . S
C1956 C1955 1.523 . S
H1957 C1932 0.950 . S
H1958 C1934 0.950 . S
H1959 C1935 0.949 . S
H1960 C1937 0.950 . S
H1961 C1939 0.950 . S
C1962 C1963 1.349 . S
C1962 C1964 1.327 . S
C1962 H1987 0.950 . S
C1963 C1962 1.349 . S
C1963 C1979 1.349 . S
C1964 C1962 1.327 . S
C1964 C1983 1.429 . S
C1964 H1988 0.950 . S
C1965 C1982 1.574 . S
C1965 C1984 1.368 . S
C1965 H1989 0.949 . S
H1966 C1970 0.949 . S
C1967 C1968 1.349 . S
C1967 C1969 1.327 . S
C1967 H1990 0.950 . S
C1968 C1967 1.349 . S
C1968 C1980 1.349 . S
C1969 C1967 1.327 . S
C1969 C1985 1.429 . S
C1969 H1991 0.950 . S
C1970 H1966 0.949 . S
C1970 C1978 1.574 . S
C1970 C1986 1.368 . S
H1971 C1979 0.950 . S
H1972 C1977 0.950 . S
H1973 C1978 0.949 . S
H1974 C1980 0.950 . S
H1975 C1981 0.950 . S
H1976 C1982 0.949 . S
C1977 H1972 0.950 . S
C1977 C1979 1.327 . S
C1977 C1983 1.429 . S
C1978 C1970 1.574 . S
C1978 H1973 0.949 . S
C1978 C1984 1.368 . S
C1979 C1963 1.349 . S
C1979 H1971 0.950 . S
C1979 C1977 1.327 . S
C1980 C1968 1.349 . S
C1980 H1974 0.950 . S
C1980 C1981 1.327 . S
C1981 H1975 0.950 . S
C1981 C1980 1.327 . S
C1981 C1985 1.429 . S
C1982 C1965 1.574 . S
C1982 H1976 0.949 . S
C1982 C1986 1.368 . S
C1983 C1964 1.429 . S
C1983 C1977 1.429 . S
C1983 C1984 1.523 . S
C1984 C1965 1.368 . S
C1984 C1978 1.368 . S
C1984 C1983 1.523 . S
C1985 C1969 1.429 . S
C1985 C1981 1.429 . S
C1985 C1986 1.523 . S
C1986 C1970 1.368 . S
C1986 C1982 1.368 . S
C1986 C1985 1.523 . S
H1987 C1962 0.950 . S
H1988 C1964 0.950 . S
H1989 C1965 0.949 . S
H1990 C1967 0.950 . S
H1991 C1969 0.950 . S
C1992 C1993 1.349 . S
C1992 C1994 1.327 . S
C1992 H2017 0.950 . S
C1993 C1992 1.349 . S
C1993 C2009 1.349 . S
C1994 C1992 1.327 . S
C1994 C2013 1.429 . S
C1994 H2018 0.950 . S
C1995 C2012 1.574 . S
C1995 C2014 1.368 . S
C1995 H2019 0.949 . S
H1996 C2000 0.949 . S
C1997 C1998 1.349 . S
C1997 C1999 1.327 . S
C1997 H2020 0.950 . S
C1998 C1997 1.349 . S
C1998 C2010 1.349 . S
C1999 C1997 1.327 . S
C1999 C2015 1.429 . S
C1999 H2021 0.950 . S
C2000 H1996 0.949 . S
C2000 C2008 1.574 . S
C2000 C2016 1.368 . S
H2001 C2009 0.950 . S
H2002 C2007 0.950 . S
H2003 C2008 0.949 . S
H2004 C2010 0.950 . S
H2005 C2011 0.950 . S
H2006 C2012 0.949 . S
C2007 H2002 0.950 . S
C2007 C2009 1.327 . S
C2007 C2013 1.429 . S
C2008 C2000 1.574 . S
C2008 H2003 0.949 . S
C2008 C2014 1.368 . S
C2009 C1993 1.349 . S
C2009 H2001 0.950 . S
C2009 C2007 1.327 . S
C2010 C1998 1.349 . S
C2010 H2004 0.950 . S
C2010 C2011 1.327 . S
C2011 H2005 0.950 . S
C2011 C2010 1.327 . S
C2011 C2015 1.429 . S
C2012 C1995 1.574 . S
C2012 H2006 0.949 . S
C2012 C2016 1.368 . S
C2013 C1994 1.429 . S
C2013 C2007 1.429 . S
C2013 C2014 1.523 . S
C2014 C1995 1.368 . S
C2014 C2008 1.368 . S
C2014 C2013 1.523 . S
C2015 C1999 1.429 . S
C2015 C2011 1.429 . S
C2015 C2016 1.523 . S
C2016 C2000 1.368 . S
C2016 C2012 1.368 . S
C2016 C2015 1.523 . S
H2017 C1992 0.950 . S
H2018 C1994 0.950 . S
H2019 C1995 0.949 . S
H2020 C1997 0.950 . S
H2021 C1999 0.950 . S
C2022 C2023 1.349 . S
C2022 C2024 1.327 . S
C2022 H2047 0.950 . S
C2023 C2022 1.349 . S
C2023 C2039 1.349 . S
C2024 C2022 1.327 . S
C2024 C2043 1.429 . S
C2024 H2048 0.950 . S
C2025 C2042 1.574 . S
C2025 C2044 1.368 . S
C2025 H2049 0.949 . S
H2026 C2030 0.949 . S
C2027 C2028 1.349 . S
C2027 C2029 1.327 . S
C2027 H2050 0.950 . S
C2028 C2027 1.349 . S
C2028 C2040 1.349 . S
C2029 C2027 1.327 . S
C2029 C2045 1.429 . S
C2029 H2051 0.950 . S
C2030 H2026 0.949 . S
C2030 C2038 1.574 . S
C2030 C2046 1.368 . S
H2031 C2039 0.950 . S
H2032 C2037 0.950 . S
H2033 C2038 0.949 . S
H2034 C2040 0.950 . S
H2035 C2041 0.950 . S
H2036 C2042 0.949 . S
C2037 H2032 0.950 . S
C2037 C2039 1.327 . S
C2037 C2043 1.429 . S
C2038 C2030 1.574 . S
C2038 H2033 0.949 . S
C2038 C2044 1.368 . S
C2039 C2023 1.349 . S
C2039 H2031 0.950 . S
C2039 C2037 1.327 . S
C2040 C2028 1.349 . S
C2040 H2034 0.950 . S
C2040 C2041 1.327 . S
C2041 H2035 0.950 . S
C2041 C2040 1.327 . S
C2041 C2045 1.429 . S
C2042 C2025 1.574 . S
C2042 H2036 0.949 . S
C2042 C2046 1.368 . S
C2043 C2024 1.429 . S
C2043 C2037 1.429 . S
C2043 C2044 1.523 . S
C2044 C2025 1.368 . S
C2044 C2038 1.368 . S
C2044 C2043 1.523 . S
C2045 C2029 1.429 . S
C2045 C2041 1.429 . S
C2045 C2046 1.523 . S
C2046 C2030 1.368 . S
C2046 C2042 1.368 . S
C2046 C2045 1.523 . S
H2047 C2022 0.950 . S
H2048 C2024 0.950 . S
H2049 C2025 0.949 . S
H2050 C2027 0.950 . S
H2051 C2029 0.950 . S
C2052 C2053 1.349 . S
C2052 C2054 1.327 . S
C2052 H2077 0.950 . S
C2053 C2052 1.349 . S
C2053 C2069 1.349 . S
C2054 C2052 1.327 . S
C2054 C2073 1.429 . S
C2054 H2078 0.950 . S
C2055 C2072 1.574 . S
C2055 C2074 1.368 . S
C2055 H2079 0.949 . S
H2056 C2060 0.949 . S
C2057 C2058 1.349 . S
C2057 C2059 1.327 . S
C2057 H2080 0.950 . S
C2058 C2057 1.349 . S
C2058 C2070 1.349 . S
C2059 C2057 1.327 . S
C2059 C2075 1.429 . S
C2059 H2081 0.950 . S
C2060 H2056 0.949 . S
C2060 C2068 1.574 . S
C2060 C2076 1.368 . S
H2061 C2069 0.950 . S
H2062 C2067 0.950 . S
H2063 C2068 0.949 . S
H2064 C2070 0.950 . S
H2065 C2071 0.950 . S
H2066 C2072 0.949 . S
C2067 H2062 0.950 . S
C2067 C2069 1.327 . S
C2067 C2073 1.429 . S
C2068 C2060 1.574 . S
C2068 H2063 0.949 . S
C2068 C2074 1.368 . S
C2069 C2053 1.349 . S
C2069 H2061 0.950 . S
C2069 C2067 1.327 . S
C2070 C2058 1.349 . S
C2070 H2064 0.950 . S
C2070 C2071 1.327 . S
C2071 H2065 0.950 . S
C2071 C2070 1.327 . S
C2071 C2075 1.429 . S
C2072 C2055 1.574 . S
C2072 H2066 0.949 . S
C2072 C2076 1.368 . S
C2073 C2054 1.429 . S
C2073 C2067 1.429 . S
C2073 C2074 1.523 . S
C2074 C2055 1.368 . S
C2074 C2068 1.368 . S
C2074 C2073 1.523 . S
C2075 C2059 1.429 . S
C2075 C2071 1.429 . S
C2075 C2076 1.523 . S
C2076 C2060 1.368 . S
C2076 C2072 1.368 . S
C2076 C2075 1.523 . S
H2077 C2052 0.950 . S
H2078 C2054 0.950 . S
H2079 C2055 0.949 . S
H2080 C2057 0.950 . S
H2081 C2059 0.950 . S
C2082 C2083 1.349 . S
C2082 C2084 1.327 . S
C2082 H2107 0.950 . S
C2083 C2082 1.349 . S
C2083 C2099 1.349 . S
C2084 C2082 1.327 . S
C2084 C2103 1.429 . S
C2084 H2108 0.950 . S
C2085 C2102 1.574 . S
C2085 C2104 1.368 . S
C2085 H2109 0.949 . S
H2086 C2090 0.949 . S
C2087 C2088 1.349 . S
C2087 C2089 1.327 . S
C2087 H2110 0.950 . S
C2088 C2087 1.349 . S
C2088 C2100 1.349 . S
C2089 C2087 1.327 . S
C2089 C2105 1.429 . S
C2089 H2111 0.950 . S
C2090 H2086 0.949 . S
C2090 C2098 1.574 . S
C2090 C2106 1.368 . S
H2091 C2099 0.950 . S
H2092 C2097 0.950 . S
H2093 C2098 0.949 . S
H2094 C2100 0.950 . S
H2095 C2101 0.950 . S
H2096 C2102 0.949 . S
C2097 H2092 0.950 . S
C2097 C2099 1.327 . S
C2097 C2103 1.429 . S
C2098 C2090 1.574 . S
C2098 H2093 0.949 . S
C2098 C2104 1.368 . S
C2099 C2083 1.349 . S
C2099 H2091 0.950 . S
C2099 C2097 1.327 . S
C2100 C2088 1.349 . S
C2100 H2094 0.950 . S
C2100 C2101 1.327 . S
C2101 H2095 0.950 . S
C2101 C2100 1.327 . S
C2101 C2105 1.429 . S
C2102 C2085 1.574 . S
C2102 H2096 0.949 . S
C2102 C2106 1.368 . S
C2103 C2084 1.429 . S
C2103 C2097 1.429 . S
C2103 C2104 1.523 . S
C2104 C2085 1.368 . S
C2104 C2098 1.368 . S
C2104 C2103 1.523 . S
C2105 C2089 1.429 . S
C2105 C2101 1.429 . S
C2105 C2106 1.523 . S
C2106 C2090 1.368 . S
C2106 C2102 1.368 . S
C2106 C2105 1.523 . S
H2107 C2082 0.950 . S
H2108 C2084 0.950 . S
H2109 C2085 0.949 . S
H2110 C2087 0.950 . S
H2111 C2089 0.950 . S
C2112 C2113 1.349 . S
C2112 C2114 1.327 . S
C2112 H2137 0.950 . S
C2113 C2112 1.349 . S
C2113 C2129 1.349 . S
C2114 C2112 1.327 . S
C2114 C2133 1.429 . S
C2114 H2138 0.950 . S
C2115 C2132 1.574 . S
C2115 C2134 1.368 . S
C2115 H2139 0.949 . S
H2116 C2120 0.949 . S
C2117 C2118 1.349 . S
C2117 C2119 1.327 . S
C2117 H2140 0.950 . S
C2118 C2117 1.349 . S
C2118 C2130 1.349 . S
C2119 C2117 1.327 . S
C2119 C2135 1.429 . S
C2119 H2141 0.950 . S
C2120 H2116 0.949 . S
C2120 C2128 1.574 . S
C2120 C2136 1.368 . S
H2121 C2129 0.950 . S
H2122 C2127 0.950 . S
H2123 C2128 0.949 . S
H2124 C2130 0.950 . S
H2125 C2131 0.950 . S
H2126 C2132 0.949 . S
C2127 H2122 0.950 . S
C2127 C2129 1.327 . S
C2127 C2133 1.429 . S
C2128 C2120 1.574 . S
C2128 H2123 0.949 . S
C2128 C2134 1.368 . S
C2129 C2113 1.349 . S
C2129 H2121 0.950 . S
C2129 C2127 1.327 . S
C2130 C2118 1.349 . S
C2130 H2124 0.950 . S
C2130 C2131 1.327 . S
C2131 H2125 0.950 . S
C2131 C2130 1.327 . S
C2131 C2135 1.429 . S
C2132 C2115 1.574 . S
C2132 H2126 0.949 . S
C2132 C2136 1.368 . S
C2133 C2114 1.429 . S
C2133 C2127 1.429 . S
C2133 C2134 1.523 . S
C2134 C2115 1.368 . S
C2134 C2128 1.368 . S
C2134 C2133 1.523 . S
C2135 C2119 1.429 . S
C2135 C2131 1.429 . S
C2135 C2136 1.523 . S
C2136 C2120 1.368 . S
C2136 C2132 1.368 . S
C2136 C2135 1.523 . S
H2137 C2112 0.950 . S
H2138 C2114 0.950 . S
H2139 C2115 0.949 . S
H2140 C2117 0.950 . S
H2141 C2119 0.950 . S
C523 C124 1.552 . S
C528 C174 1.561 . S
C553 C130 1.762 . S
C558 C214 1.766 . S
C583 C115 1.570 . S
C588 C244 1.569 . S
C613 C106 1.460 . S
C618 C204 1.460 . S
C648 C254 1.433 . S
C643 C85 1.426 . S
C673 C97 1.245 . S
C678 C164 1.251 1_556 S
C708 C193 1.589 . S
C703 C103 1.578 . S
C738 C233 1.740 . S
C733 C88 1.735 . S
C763 C94 1.571 . S
C768 C259 1.562 1_556 S
C793 C121 1.459 . S
C798 C219 1.448 . S
C823 C133 1.399 . S
C828 C273 1.405 . S
C858 C179 1.277 . S
C853 C112 1.271 . S
C888 C294 1.562 . S
C883 C16 1.552 . S
C913 C22 1.762 . S
C918 C334 1.766 . S
C943 C7 1.570 . S
C948 C364 1.569 . S
C973 C160 1.459 . S
C978 C324 1.450 . S
C1003 C139 1.426 . S
C1008 C374 1.433 . S
C1033 C151 1.245 . S
C1038 C284 1.250 . S
C1063 C157 1.578 . S
C1068 C313 1.589 . S
C1093 C142 1.735 . S
C1098 C353 1.740 . S
C1128 C379 1.567 . S
C1123 C148 1.570 . S
C1153 C13 1.459 . S
C1158 C339 1.448 . S
C1188 C393 1.405 . S
C1183 C25 1.399 . S
C1213 C4 1.271 . S
C1218 C299 1.277 . S
C1248 C414 1.561 . S
C1243 C70 1.552 . S
C1273 C76 1.762 . S
C1278 C454 1.766 . S
C1308 C484 1.569 . S
C1303 C61 1.570 . S
C1338 C444 1.450 . S
C1333 C52 1.459 . S
C1368 C494 1.434 . S
C1363 C31 1.427 . S
C1393 C43 1.245 . S
C1398 C404 1.251 . S
C1423 C49 1.578 . S
C1428 C433 1.589 . S
C1453 C34 1.735 . S
C1458 C473 1.740 . S
C1488 C499 1.567 . S
C1483 C40 1.570 . S
C1513 C67 1.459 . S
C1518 C459 1.448 . S
C1543 C79 1.399 . S
C1548 C513 1.405 . S
C1573 C58 1.271 . S
C1578 C419 1.277 . S
C1603 C140 1.321 . S
C1608 C191 1.312 . S
C1638 C231 1.769 . S
C1633 C149 1.779 . S
C1663 C158 1.548 . S
C1668 C250 1.547 . S
C1693 C59 1.803 . S
C1698 C210 1.792 . S
C1723 C68 1.524 . S
C1728 C271 1.522 . S
C1758 C170 1.311 . S
C1753 C77 1.320 . S
C1783 C32 1.321 . S
C1788 C311 1.312 . S
C1813 C41 1.779 . S
C1818 C351 1.769 . S
C1843 C50 1.548 . S
C1848 C370 1.547 . S
C1873 C113 1.803 . S
C1878 C330 1.792 . S
C1908 C391 1.523 . S
C1903 C122 1.524 . S
C1933 C131 1.320 . S
C1938 C290 1.311 . S
C1963 C86 1.321 . S
C1968 C431 1.312 . S
C1993 C95 1.779 . S
C1998 C471 1.769 . S
C2028 C490 1.547 . S
C2023 C104 1.548 . S
C2053 C5 1.803 . S
C2058 C450 1.792 . S
C2083 C14 1.524 . S
C2088 C511 1.523 . S
C2113 C23 1.320 . S
C2118 C410 1.311 . S
