# Generated by pormake.
# Topology apo, (3,6)-cn, num edge types: 1
# Building blocks:
#     Node 0, Type 0, BuildingBlock: BETDIP_clean_linker_0, # of connection points: 3
#     Node 1, Type 0, BuildingBlock: BETDIP_clean_linker_0, # of connection points: 3
#     Node 2, Type 0, BuildingBlock: BETDIP_clean_linker_0, # of connection points: 3
#     Node 3, Type 0, BuildingBlock: BETDIP_clean_linker_0, # of connection points: 3
#     Node 4, Type 0, BuildingBlock: BETDIP_clean_linker_0, # of connection points: 3
#     Node 5, Type 0, BuildingBlock: BETDIP_clean_linker_0, # of connection points: 3
#     Node 6, Type 0, BuildingBlock: BETDIP_clean_linker_0, # of connection points: 3
#     Node 7, Type 0, BuildingBlock: BETDIP_clean_linker_0, # of connection points: 3
#     Node 8, Type 1, BuildingBlock: KUMBOL_clean_sbu_1, # of connection points: 6
#     Node 9, Type 1, BuildingBlock: KUMBOL_clean_sbu_1, # of connection points: 6
#     Node 10, Type 1, BuildingBlock: KUMBOL_clean_sbu_1, # of connection points: 6
#     Node 11, Type 1, BuildingBlock: KUMBOL_clean_sbu_1, # of connection points: 6
#     Edge 12, Type (0, 1), BuildingBlock: XIVTED_clean_linker_0, # of connection points: 2
#     Edge 13, Type (0, 1), BuildingBlock: XIVTED_clean_linker_0, # of connection points: 2
#     Edge 14, Type (0, 1), BuildingBlock: XIVTED_clean_linker_0, # of connection points: 2
#     Edge 15, Type (0, 1), BuildingBlock: XIVTED_clean_linker_0, # of connection points: 2
#     Edge 16, Type (0, 1), BuildingBlock: XIVTED_clean_linker_0, # of connection points: 2
#     Edge 17, Type (0, 1), BuildingBlock: XIVTED_clean_linker_0, # of connection points: 2
#     Edge 18, Type (0, 1), BuildingBlock: XIVTED_clean_linker_0, # of connection points: 2
#     Edge 19, Type (0, 1), BuildingBlock: XIVTED_clean_linker_0, # of connection points: 2
#     Edge 20, Type (0, 1), BuildingBlock: XIVTED_clean_linker_0, # of connection points: 2
#     Edge 21, Type (0, 1), BuildingBlock: XIVTED_clean_linker_0, # of connection points: 2
#     Edge 22, Type (0, 1), BuildingBlock: XIVTED_clean_linker_0, # of connection points: 2
#     Edge 23, Type (0, 1), BuildingBlock: XIVTED_clean_linker_0, # of connection points: 2
#     Edge 24, Type (0, 1), BuildingBlock: XIVTED_clean_linker_0, # of connection points: 2
#     Edge 25, Type (0, 1), BuildingBlock: XIVTED_clean_linker_0, # of connection points: 2
#     Edge 26, Type (0, 1), BuildingBlock: XIVTED_clean_linker_0, # of connection points: 2
#     Edge 27, Type (0, 1), BuildingBlock: XIVTED_clean_linker_0, # of connection points: 2
#     Edge 28, Type (0, 1), BuildingBlock: XIVTED_clean_linker_0, # of connection points: 2
#     Edge 29, Type (0, 1), BuildingBlock: XIVTED_clean_linker_0, # of connection points: 2
#     Edge 30, Type (0, 1), BuildingBlock: XIVTED_clean_linker_0, # of connection points: 2
#     Edge 31, Type (0, 1), BuildingBlock: XIVTED_clean_linker_0, # of connection points: 2
#     Edge 32, Type (0, 1), BuildingBlock: XIVTED_clean_linker_0, # of connection points: 2
#     Edge 33, Type (0, 1), BuildingBlock: XIVTED_clean_linker_0, # of connection points: 2
#     Edge 34, Type (0, 1), BuildingBlock: XIVTED_clean_linker_0, # of connection points: 2
#     Edge 35, Type (0, 1), BuildingBlock: XIVTED_clean_linker_0, # of connection points: 2
# Relax obj value: 0.037
# Max RMSD: 0.199
# Mean RMSD: 0.156
data_MOF--net-apo--node1-KUMBOL_clean_sbu_1--node2-BETDIP_clean_linker_0--edge1-XIVTED_clean_linker_0
_symmetry_space_group_name_H-M    P1
_symmetry_Int_Tables_number       1
_symmetry_cell_setting            triclinic
loop_
_symmetry_equiv_pos_as_xyz
'x, y, z'
_cell_length_a     27.703155
_cell_length_b     42.303261
_cell_length_c     52.201139
_cell_angle_alpha  90.002902
_cell_angle_beta   90.031234
_cell_angle_gamma 90.672166
loop_
_atom_site_label
_atom_site_type_symbol
_atom_site_fract_x
_atom_site_fract_y
_atom_site_fract_z
_atom_type_partial_charge
H0 H 0.26715 0.34546 0.44814 0.0
H1 H 0.28763 0.37978 0.37139 0.0
H2 H 0.35379 0.429 0.43446 0.0
H3 H 0.20641 0.36025 0.37041 0.0
C4 C 0.21451 0.33686 0.37779 0.0
C5 C 0.28345 0.36244 0.43513 0.0
C6 C 0.31083 0.38808 0.44479 0.0
C7 C 0.27448 0.35954 0.40873 0.0
C8 C 0.29443 0.38198 0.39174 0.0
C9 C 0.32273 0.40735 0.40087 0.0
C10 C 0.33105 0.40993 0.42736 0.0
N11 N 0.24506 0.33408 0.3996 0.0
H12 H 0.24466 0.15776 0.9414 0.0
H13 H 0.22541 0.12636 0.86361 0.0
H14 H 0.14509 0.08157 0.92378 0.0
H15 H 0.30651 0.14443 0.86267 0.0
C16 C 0.30054 0.16741 0.87134 0.0
C17 C 0.22694 0.14219 0.92778 0.0
C18 C 0.19413 0.11867 0.93631 0.0
C19 C 0.23875 0.14503 0.90166 0.0
C20 C 0.21723 0.12421 0.88382 0.0
C21 C 0.18345 0.10134 0.89184 0.0
C22 C 0.17165 0.0991 0.9179 0.0
N23 N 0.27122 0.16949 0.89366 0.0
H24 H 0.76874 0.17239 0.57324 0.0
H25 H 0.78051 0.12952 0.64749 0.0
H26 H 0.85923 0.09153 0.58382 0.0
H27 H 0.70494 0.14791 0.65195 0.0
C28 C 0.70774 0.17112 0.64313 0.0
C29 C 0.78312 0.15402 0.58543 0.0
C30 C 0.81642 0.13238 0.57556 0.0
C31 C 0.7688 0.15254 0.61114 0.0
C32 C 0.78897 0.12953 0.62728 0.0
C33 C 0.82168 0.10727 0.61771 0.0
C34 C 0.8349 0.10885 0.59172 0.0
N35 N 0.73576 0.17533 0.62053 0.0
H36 H 0.73657 0.32807 0.07435 0.0
H37 H 0.72524 0.375 0.1469 0.0
H38 H 0.65404 0.41321 0.08073 0.0
H39 H 0.79847 0.35482 0.15312 0.0
C40 C 0.79584 0.33147 0.14454 0.0
C41 C 0.72302 0.34743 0.08578 0.0
C42 C 0.69316 0.37019 0.07455 0.0
C43 C 0.73661 0.34982 0.11152 0.0
C44 C 0.71798 0.37442 0.12656 0.0
C45 C 0.6882 0.39758 0.11575 0.0
C46 C 0.67661 0.3955 0.08951 0.0
N47 N 0.76799 0.32673 0.12195 0.0
H48 H 0.74439 0.65615 0.56372 0.0
H49 H 0.71452 0.62653 0.64084 0.0
H50 H 0.65801 0.57257 0.5776 0.0
H51 H 0.70935 0.68476 0.64336 0.0
C52 C 0.74499 0.68835 0.63506 0.0
C53 C 0.72687 0.63976 0.57678 0.0
C54 C 0.70086 0.6135 0.5672 0.0
C55 C 0.73061 0.64507 0.60327 0.0
C56 C 0.70955 0.62327 0.62043 0.0
C57 C 0.68426 0.59652 0.61133 0.0
C58 C 0.67929 0.59233 0.58472 0.0
N59 N 0.75739 0.67174 0.61234 0.0
H60 H 0.77985 0.83799 0.07166 0.0
H61 H 0.80018 0.8707 0.14902 0.0
H62 H 0.87538 0.91685 0.08752 0.0
H63 H 0.71871 0.85322 0.14997 0.0
C64 C 0.72425 0.82996 0.1417 0.0
C65 C 0.79742 0.85395 0.08505 0.0
C66 C 0.82853 0.87811 0.07605 0.0
C67 C 0.78647 0.85133 0.11127 0.0
C68 C 0.80775 0.87271 0.12873 0.0
C69 C 0.84005 0.89623 0.12021 0.0
C70 C 0.85063 0.8985 0.09399 0.0
N71 N 0.75422 0.82698 0.1197 0.0
H72 H 0.23718 0.83323 0.43954 0.0
H73 H 0.22739 0.87266 0.36388 0.0
H74 H 0.15133 0.9158 0.42614 0.0
H75 H 0.30318 0.8535 0.36185 0.0
C76 C 0.29828 0.8302 0.37027 0.0
C77 C 0.22257 0.85075 0.42663 0.0
C78 C 0.19287 0.87483 0.43613 0.0
C79 C 0.2359 0.85013 0.40074 0.0
C80 C 0.21776 0.87317 0.38395 0.0
C81 C 0.18772 0.89724 0.39297 0.0
C82 C 0.17522 0.89768 0.41906 0.0
N83 N 0.26791 0.82633 0.39204 0.0
H84 H 0.26396 0.67154 0.93967 0.0
H85 H 0.27352 0.62925 0.86514 0.0
H86 H 0.35476 0.59107 0.92797 0.0
H87 H 0.19712 0.64742 0.86189 0.0
C88 C 0.2004 0.67064 0.87065 0.0
C89 C 0.27817 0.65333 0.92726 0.0
C90 C 0.3117 0.63163 0.93681 0.0
C91 C 0.26315 0.65207 0.90168 0.0
C92 C 0.28278 0.62917 0.88526 0.0
C93 C 0.31593 0.60691 0.89443 0.0
C94 C 0.33005 0.60837 0.92035 0.0
N95 N 0.22978 0.67489 0.89274 0.0
C96 C 0.85602 0.08462 0.26341 0.0
C97 C 0.85677 0.02757 0.26863 0.0
C98 C 0.87991 0.05733 0.27082 0.0
C99 C 0.80965 0.0256 0.25877 0.0
C100 C 0.80868 0.0827 0.25354 0.0
C101 C 0.78569 0.05307 0.25125 0.0
N102 N 0.87949 0.11294 0.2653 0.0
C103 C 0.85732 0.14029 0.25846 0.0
C104 C 0.78599 0.11063 0.24605 0.0
C105 C 0.81037 0.13955 0.24863 0.0
Gd106 Gd 0.07192 0.11672 0.23365 0.0
Gd107 Gd 0.95808 0.11151 0.28168 0.0
N108 N 0.92617 0.05984 0.27953 0.0
C109 C 0.88174 1.00064 0.27636 0.0
C110 C 0.94964 0.03385 0.28832 0.0
C111 C 0.92817 0.00385 0.2865 0.0
H112 H 0.98438 0.03602 0.29727 0.0
H113 H 0.94726 0.98326 0.2932 0.0
H114 H 0.04143 0.19042 0.2142 0.0
H115 H 0.87548 0.16277 0.26104 0.0
H116 H 0.0717 0.24482 0.21923 0.0
H117 H 0.86524 0.97735 0.27496 0.0
H118 H 0.79142 0.00292 0.25686 0.0
H119 H 0.1574 0.06987 0.25754 0.0
H120 H 0.74964 0.11014 0.23838 0.0
H121 H 0.79293 0.1613 0.24315 0.0
H122 H 0.2236 0.23318 0.26206 0.0
H123 H 0.74938 0.05113 0.24364 0.0
H124 H 0.27501 0.12852 0.28291 0.0
H125 H 0.23778 0.07546 0.27765 0.0
N126 N 0.14901 0.11927 0.25196 0.0
C127 C 0.16919 0.14862 0.25415 0.0
C128 C 0.17311 0.09315 0.26003 0.0
C129 C 0.23974 0.12621 0.27408 0.0
C130 C 0.21878 0.09622 0.27123 0.0
C131 C 0.21497 0.15289 0.26553 0.0
H132 H 0.2693 0.18728 0.2771 0.0
N133 N 0.09826 0.16981 0.23557 0.0
C134 C 0.14305 0.1746 0.24581 0.0
C135 C 0.13593 0.23091 0.23933 0.0
C136 C 0.16262 0.20537 0.24839 0.0
C137 C 0.07384 0.19441 0.22503 0.0
C138 C 0.09171 0.22534 0.22723 0.0
O139 O 0.95067 0.08875 0.24229 0.0
O140 O 0.02681 0.07211 0.23122 0.0
O141 O 0.07244 0.12563 0.19252 0.0
O142 O 0.12822 0.09741 0.20965 0.0
O143 O 0.02807 0.08843 0.29347 0.0
O144 O 0.06671 0.07153 0.25659 0.0
O145 O 0.07938 0.13593 0.27418 0.0
O146 O 0.00467 0.15568 0.28273 0.0
O147 O 0.96048 0.10178 0.32255 0.0
O148 O 0.90591 0.13262 0.30737 0.0
O149 O 1.0006 0.13837 0.22117 0.0
O150 O 0.96591 0.15593 0.25863 0.0
C151 C 0.97954 0.0695 0.22998 0.0
C152 C 0.05841 0.0698 0.28143 0.0
C153 C 0.10613 0.08529 0.16706 0.0
C154 C 0.11335 0.07375 0.12118 0.0
C155 C 0.0938 0.03176 0.15168 0.0
C156 C 0.09539 0.05337 0.17181 0.0
C157 C 0.10311 0.0417 0.12665 0.0
C158 C 0.11462 0.09547 0.14175 0.0
C159 C 0.10982 0.10797 0.18843 0.0
C160 C 0.20816 0.20969 0.2598 0.0
C161 C 0.23425 0.18354 0.26832 0.0
H162 H 0.14969 0.25491 0.24097 0.0
C163 C 0.05168 0.1564 0.2857 0.0
C164 C 0.97053 0.15681 0.2336 0.0
C165 C 0.93528 0.14371 0.34878 0.0
C166 C 0.92941 0.15824 0.39393 0.0
C167 C 0.97272 0.19233 0.36404 0.0
C168 C 0.96186 0.17152 0.34408 0.0
C169 C 0.95683 0.18572 0.38885 0.0
C170 C 0.9187 0.13725 0.37369 0.0
C171 C 0.92562 0.12111 0.32792 0.0
H172 H 0.08597 0.00709 0.15554 0.0
H173 H 0.08898 0.04509 0.19113 0.0
H174 H 0.10312 0.02397 0.11171 0.0
H175 H 0.12205 0.12029 0.13823 0.0
H176 H 0.99343 0.21368 0.36025 0.0
H177 H 0.97409 0.17717 0.32499 0.0
H178 H 0.96531 0.20236 0.40402 0.0
H179 H 0.89819 0.11575 0.37738 0.0
C180 C 0.65553 0.41753 0.75269 0.0
C181 C 0.66563 0.47399 0.75942 0.0
C182 C 0.63954 0.44557 0.76319 0.0
C183 C 0.70676 0.47407 0.74371 0.0
C184 C 0.69838 0.41718 0.73811 0.0
C185 C 0.72306 0.44572 0.73303 0.0
N186 N 0.63128 0.39031 0.75838 0.0
C187 C 0.65115 0.36177 0.75266 0.0
C188 C 0.71622 0.38803 0.73 0.0
C189 C 0.69304 0.36017 0.73779 0.0
Gd190 Gd 0.44377 0.38993 0.73301 0.0
Gd191 Gd 0.5586 0.39611 0.78135 0.0
N192 N 0.59931 0.44481 0.77799 0.0
C193 C 0.65017 0.50128 0.77206 0.0
C194 C 0.5856 0.4708 0.79154 0.0
C195 C 0.61043 0.49954 0.78853 0.0
H196 H 0.55476 0.46938 0.80414 0.0
H197 H 0.59882 0.52033 0.79879 0.0
H198 H 0.47698 0.33343 0.69067 0.0
H199 H 0.63511 0.34008 0.75971 0.0
H200 H 0.46202 0.27659 0.68363 0.0
H201 H 0.66926 0.52358 0.76968 0.0
H202 H 0.72693 0.49574 0.74026 0.0
H203 H 0.35236 0.41593 0.76799 0.0
H204 H 0.749 0.38673 0.71876 0.0
H205 H 0.70781 0.33745 0.73269 0.0
H206 H 0.33198 0.25123 0.74104 0.0
H207 H 0.75571 0.44595 0.72161 0.0
H208 H 0.26056 0.33706 0.78701 0.0
H209 H 0.27986 0.39426 0.78992 0.0
N210 N 0.3737 0.37137 0.75345 0.0
C211 C 0.36239 0.3403 0.75045 0.0
C212 C 0.3439 0.39099 0.76665 0.0
C213 C 0.29217 0.34648 0.77732 0.0
C214 C 0.30295 0.37879 0.77902 0.0
C215 C 0.32176 0.32684 0.76269 0.0
H216 H 0.2811 0.2835 0.76922 0.0
N217 N 0.42829 0.33662 0.72208 0.0
C218 C 0.39118 0.32222 0.73467 0.0
C219 C 0.40703 0.27318 0.7127 0.0
C220 C 0.37988 0.29002 0.73058 0.0
C221 C 0.45161 0.32109 0.70287 0.0
C222 C 0.44238 0.28898 0.69839 0.0
O223 O 0.53969 0.43623 0.75429 0.0
O224 O 0.51447 0.40984 0.7186 0.0
O225 O 0.4053 0.38664 0.69634 0.0
O226 O 0.40728 0.43105 0.71785 0.0
O227 O 0.49042 0.4192 0.79508 0.0
O228 O 0.44353 0.4327 0.75963 0.0
O229 O 0.43904 0.37275 0.77428 0.0
O230 O 0.51313 0.35146 0.78161 0.0
O231 O 0.54882 0.39875 0.82263 0.0
O232 O 0.61672 0.38346 0.80717 0.0
O233 O 0.51575 0.37031 0.7197 0.0
O234 O 0.55031 0.35208 0.75697 0.0
C235 C 0.53711 0.43377 0.7293 0.0
C236 C 0.45743 0.4366 0.78374 0.0
C237 C 0.36258 0.43149 0.67777 0.0
C238 C 0.33588 0.43749 0.63327 0.0
C239 C 0.30536 0.47225 0.6666 0.0
C240 C 0.33342 0.45694 0.68483 0.0
C241 C 0.30655 0.46269 0.64106 0.0
C242 C 0.36335 0.42153 0.65194 0.0
C243 C 0.39238 0.41604 0.69751 0.0
C244 C 0.34083 0.27603 0.7437 0.0
C245 C 0.31176 0.29442 0.75969 0.0
H246 H 0.39956 0.2484 0.709 0.0
C247 C 0.46603 0.35069 0.78432 0.0
C248 C 0.54355 0.35036 0.73206 0.0
C249 C 0.59102 0.36032 0.84584 0.0
C250 C 0.60189 0.34052 0.88949 0.0
C251 C 0.58237 0.30428 0.85453 0.0
C252 C 0.58148 0.32945 0.8373 0.0
C253 C 0.59277 0.30965 0.88036 0.0
C254 C 0.60074 0.36583 0.87189 0.0
C255 C 0.59081 0.38689 0.8277 0.0
H256 H 0.28271 0.49171 0.67227 0.0
H257 H 0.33207 0.46492 0.70454 0.0
H258 H 0.28426 0.47505 0.62735 0.0
H259 H 0.38638 0.40221 0.64629 0.0
H260 H 0.57534 0.28046 0.8478 0.0
H261 H 0.5737 0.3248 0.81731 0.0
H262 H 0.59436 0.28946 0.89306 0.0
H263 H 0.60694 0.38987 0.87835 0.0
C264 C 0.84266 0.84805 0.76222 0.0
C265 C 0.85419 0.7948 0.77803 0.0
C266 C 0.87066 0.82633 0.77531 0.0
C267 C 0.81092 0.78513 0.76618 0.0
C268 C 0.79832 0.83872 0.7511 0.0
C269 C 0.78303 0.80704 0.75279 0.0
N270 N 0.85894 0.87837 0.76026 0.0
C271 C 0.83197 0.90086 0.74838 0.0
C272 C 0.77076 0.86154 0.73852 0.0
C273 C 0.78754 0.89278 0.7373 0.0
Gd274 Gd 0.04891 0.88685 0.73146 0.0
Gd275 Gd 0.93342 0.88998 0.77956 0.0
N276 N 0.91233 0.83643 0.78669 0.0
C277 C 0.88061 0.77425 0.79347 0.0
C278 C 0.93456 0.81749 0.80419 0.0
C279 C 0.9203 0.78589 0.80712 0.0
H280 H 0.96243 0.82673 0.81658 0.0
H281 H 0.93916 0.77077 0.82042 0.0
H282 H 0.0416 0.96485 0.71939 0.0
H283 H 0.84501 0.92498 0.74738 0.0
H284 H 0.0926 0.01259 0.72373 0.0
H285 H 0.86918 0.74988 0.79607 0.0
H286 H 0.79807 0.76092 0.76785 0.0
H287 H 0.11697 0.82622 0.75019 0.0
H288 H 0.7365 0.8553 0.72975 0.0
H289 H 0.7664 0.91061 0.72773 0.0
H290 H 0.24105 0.97439 0.75892 0.0
H291 H 0.74936 0.79934 0.7441 0.0
H292 H 0.25357 0.86324 0.7752 0.0
H293 H 0.19808 0.8177 0.76849 0.0
N294 N 0.12546 0.87608 0.74821 0.0
C295 C 0.15571 0.90137 0.75121 0.0
C296 C 0.14035 0.84629 0.75387 0.0
C297 C 0.21775 0.86714 0.76757 0.0
C298 C 0.18649 0.84138 0.76387 0.0
C299 C 0.2027 0.89757 0.76101 0.0
H300 H 0.2694 0.92167 0.77134 0.0
N301 N 0.09382 0.9341 0.73519 0.0
C302 C 0.13973 0.93119 0.74414 0.0
C303 C 0.15289 0.98745 0.73952 0.0
C304 C 0.17034 0.95785 0.74677 0.0
C305 C 0.07714 0.96274 0.72741 0.0
C306 C 0.10619 0.98986 0.72968 0.0
O307 O 0.92332 0.87334 0.73845 0.0
O308 O 0.9934 0.84725 0.73004 0.0
O309 O 0.04771 0.89692 0.69054 0.0
O310 O 0.09409 0.86048 0.70526 0.0
O311 O 0.00367 0.86725 0.79252 0.0
O312 O 0.02969 0.8445 0.75521 0.0
O313 O 0.05894 0.91205 0.76978 0.0
O314 O 0.98455 0.93155 0.78129 0.0
O315 O 0.92291 0.88975 0.82152 0.0
O316 O 0.87822 0.9187 0.79663 0.0
O317 O 0.98657 0.91734 0.71895 0.0
O318 O 0.94077 0.93309 0.75418 0.0
C319 C 0.94695 0.8511 0.72641 0.0
C320 C 0.02841 0.84552 0.78029 0.0
C321 C 0.12145 0.88867 0.66888 0.0
C322 C 0.15567 0.8979 0.62634 0.0
C323 C 0.19999 0.91418 0.6644 0.0
C324 C 0.16289 0.90245 0.67982 0.0
C325 C 0.19644 0.91206 0.63784 0.0
C326 C 0.11814 0.88616 0.64204 0.0
C327 C 0.08175 0.87691 0.68528 0.0
C328 C 0.21707 0.95416 0.75668 0.0
C329 C 0.23319 0.92413 0.7638 0.0
H330 H 0.17525 0.00852 0.74129 0.0
C331 C 0.03185 0.93232 0.78219 0.0
C332 C 0.95529 0.93615 0.73017 0.0
C333 C 0.86 0.92208 0.84187 0.0
C334 C 0.84248 0.92515 0.8878 0.0
C335 C 0.79865 0.95785 0.85759 0.0
C336 C 0.8247 0.94506 0.83738 0.0
C337 C 0.80747 0.94809 0.88259 0.0
C338 C 0.86851 0.91188 0.86725 0.0
C339 C 0.88762 0.90969 0.81982 0.0
H340 H 0.23176 0.92479 0.67309 0.0
H341 H 0.16689 0.90396 0.70026 0.0
H342 H 0.22605 0.92098 0.62626 0.0
H343 H 0.08632 0.87542 0.63343 0.0
H344 H 0.77157 0.97551 0.85386 0.0
H345 H 0.81721 0.95335 0.81817 0.0
H346 H 0.78653 0.95838 0.89793 0.0
H347 H 0.89572 0.8943 0.87105 0.0
C348 C 0.64809 0.6609 0.26393 0.0
C349 C 0.63157 0.71114 0.2841 0.0
C350 C 0.61939 0.67916 0.27962 0.0
C351 C 0.67139 0.72479 0.27141 0.0
C352 C 0.68951 0.67397 0.25218 0.0
C353 C 0.70037 0.70622 0.25551 0.0
N354 N 0.63598 0.63001 0.26063 0.0
C355 C 0.66575 0.6101 0.24768 0.0
C356 C 0.71905 0.65408 0.23774 0.0
C357 C 0.70746 0.62191 0.23579 0.0
Gd358 Gd 0.45057 0.60864 0.23064 0.0
Gd359 Gd 0.5645 0.61218 0.2801 0.0
N360 N 0.58152 0.66507 0.2918 0.0
C361 C 0.60448 0.72808 0.30195 0.0
C362 C 0.55818 0.68063 0.31099 0.0
C363 C 0.56829 0.71255 0.31585 0.0
H364 H 0.53199 0.66849 0.32284 0.0
H365 H 0.54864 0.725 0.33057 0.0
H366 H 0.4508 0.5351 0.20839 0.0
H367 H 0.65657 0.58529 0.24612 0.0
H368 H 0.40368 0.48528 0.21362 0.0
H369 H 0.61261 0.75271 0.30594 0.0
H370 H 0.68093 0.74944 0.27436 0.0
H371 H 0.37697 0.66658 0.25141 0.0
H372 H 0.75125 0.6632 0.22841 0.0
H373 H 0.73051 0.60624 0.22506 0.0
H374 H 0.27551 0.51349 0.27103 0.0
H375 H 0.73165 0.71686 0.24634 0.0
H376 H 0.25924 0.62326 0.29171 0.0
H377 H 0.30375 0.67135 0.27785 0.0
N378 N 0.37762 0.61631 0.253 0.0
C379 C 0.35166 0.58979 0.2587 0.0
C380 C 0.35937 0.6454 0.25844 0.0
C381 C 0.2922 0.62102 0.28073 0.0
C382 C 0.31724 0.64821 0.27297 0.0
C383 C 0.3085 0.59135 0.27294 0.0
H384 H 0.24911 0.56417 0.28915 0.0
N385 N 0.40693 0.56098 0.23405 0.0
C386 C 0.36632 0.56129 0.24853 0.0
C387 C 0.35277 0.50579 0.23987 0.0
C388 C 0.33855 0.53355 0.25226 0.0
C389 C 0.41951 0.53454 0.22072 0.0
C390 C 0.39298 0.50643 0.22369 0.0
O391 O 0.57207 0.6292 0.23896 0.0
O392 O 0.49926 0.6519 0.23074 0.0
O393 O 0.45866 0.60201 0.18966 0.0
O394 O 0.39624 0.62597 0.20414 0.0
O395 O 0.49303 0.63329 0.29264 0.0
O396 O 0.46132 0.65249 0.25499 0.0
O397 O 0.46632 0.56817 0.25802 0.0
O398 O 0.4923 0.59405 0.29383 0.0
O399 O 0.60264 0.61392 0.31699 0.0
O400 O 0.59783 0.56989 0.29509 0.0
O401 O 0.51843 0.58491 0.21732 0.0
O402 O 0.56305 0.56976 0.25312 0.0
C403 C 0.54642 0.65154 0.22837 0.0
C404 C 0.46686 0.65391 0.28 0.0
C405 C 0.42692 0.64215 0.164 0.0
C406 C 0.42001 0.65844 0.11929 0.0
C407 C 0.46066 0.69254 0.15025 0.0
C408 C 0.45155 0.67049 0.16959 0.0
C409 C 0.44525 0.68654 0.12521 0.0
C410 C 0.41082 0.63632 0.1389 0.0
C411 C 0.42029 0.61784 0.18385 0.0
C412 C 0.29701 0.53463 0.26762 0.0
C413 C 0.28205 0.56349 0.27799 0.0
H414 H 0.33236 0.48398 0.24222 0.0
C415 C 0.46896 0.57049 0.28303 0.0
C416 C 0.54978 0.56648 0.22886 0.0
C417 C 0.6422 0.56751 0.33518 0.0
C418 C 0.66992 0.56075 0.37944 0.0
C419 C 0.6959 0.52459 0.34599 0.0
C420 C 0.66867 0.54087 0.32797 0.0
C421 C 0.69658 0.53438 0.37148 0.0
C422 C 0.64323 0.57762 0.36097 0.0
C423 C 0.61363 0.58419 0.31557 0.0
H424 H 0.47989 0.71429 0.15466 0.0
H425 H 0.46402 0.67545 0.18881 0.0
H426 H 0.45258 0.70403 0.11053 0.0
H427 H 0.39221 0.61427 0.13453 0.0
H428 H 0.71652 0.50423 0.34018 0.0
H429 H 0.66867 0.53274 0.30828 0.0
H430 H 0.71834 0.5213 0.38497 0.0
H431 H 0.62228 0.59789 0.36673 0.0
H432 H 0.15794 0.89203 0.34268 0.0
H433 H 0.07748 0.07168 0.33246 0.0
H434 H 0.17974 0.96056 0.40304 0.0
H435 H 0.09417 0.01259 0.26574 0.0
H436 H 0.11148 0.03003 0.35888 0.0
H437 H 0.13119 0.93455 0.31439 0.0
C438 C 0.15739 0.91598 0.34998 0.0
C439 C 0.17091 0.92261 0.37541 0.0
C440 C 0.10809 0.02617 0.33844 0.0
C441 C 0.13972 0.97126 0.34318 0.0
C442 C 0.08857 0.04993 0.32334 0.0
C443 C 0.08291 0.04552 0.29688 0.0
C444 C 0.12151 0.9975 0.32713 0.0
C445 C 0.09817 0.01696 0.28607 0.0
C446 C 0.14201 0.94021 0.33381 0.0
C447 C 0.16875 0.9541 0.38382 0.0
N448 N 0.11638 0.99382 0.3013 0.0
N449 N 0.15327 0.97715 0.36781 0.0
H450 H 0.27053 0.57554 0.85455 0.0
H451 H 0.48425 0.45579 0.83169 0.0
H452 H 0.40738 0.58212 0.89407 0.0
H453 H 0.38058 0.47531 0.77203 0.0
H454 H 0.45005 0.49768 0.8574 0.0
H455 H 0.30446 0.53525 0.82639 0.0
C456 C 0.30775 0.5688 0.85727 0.0
C457 C 0.33598 0.58238 0.87693 0.0
C458 C 0.43483 0.49291 0.83865 0.0
C459 C 0.37444 0.5356 0.84504 0.0
C460 C 0.45427 0.46885 0.82387 0.0
C461 C 0.43555 0.46197 0.79944 0.0
C462 C 0.39566 0.51009 0.82931 0.0
C463 C 0.39633 0.47979 0.79068 0.0
C464 C 0.32694 0.54566 0.84121 0.0
C465 C 0.38372 0.57201 0.87967 0.0
N466 N 0.37745 0.50297 0.80568 0.0
N467 N 0.40124 0.54917 0.86405 0.0
H468 H 0.68287 0.532 0.60589 0.0
H469 H 0.55387 0.49627 0.74026 0.0
H470 H 0.6404 0.60563 0.65824 0.0
H471 H 0.57168 0.42674 0.68075 0.0
H472 H 0.59205 0.53608 0.7125 0.0
H473 H 0.64829 0.4927 0.63488 0.0
C474 C 0.66596 0.54 0.62339 0.0
C475 C 0.66416 0.57236 0.6294 0.0
C476 C 0.58763 0.51212 0.70552 0.0
C477 C 0.6251 0.5271 0.66309 0.0
C478 C 0.56617 0.48936 0.72143 0.0
C479 C 0.55992 0.45816 0.71284 0.0
C480 C 0.60295 0.50356 0.68084 0.0
C481 C 0.57562 0.45057 0.68808 0.0
C482 C 0.64645 0.51745 0.64004 0.0
C483 C 0.64294 0.58102 0.65281 0.0
N484 N 0.59649 0.47307 0.673 0.0
N485 N 0.62418 0.55855 0.66876 0.0
H486 H 0.93515 0.91277 0.12591 0.0
H487 H 0.88566 0.06203 0.21384 0.0
H488 H 0.79341 0.93288 0.15533 0.0
H489 H 0.02437 0.01675 0.21157 0.0
H490 H 0.85116 0.01794 0.18936 0.0
H491 H 0.96912 0.95399 0.15387 0.0
C492 C 0.91128 0.9258 0.13838 0.0
C493 C 0.86147 0.91945 0.13838 0.0
C494 C 0.88914 0.01767 0.19429 0.0
C495 C 0.89984 0.96684 0.17006 0.0
C496 C 0.90886 0.04278 0.20836 0.0
C497 C 0.95807 0.04317 0.21486 0.0
C498 C 0.91903 0.99309 0.1861 0.0
C499 C 0.98648 0.0178 0.20667 0.0
C500 C 0.93064 0.94921 0.15435 0.0
C501 C 0.83206 0.93692 0.15493 0.0
N502 N 0.96667 0.99394 0.19257 0.0
N503 N 0.85161 0.96008 0.16992 0.0
H504 H 0.91306 0.08223 0.61693 0.0
H505 H 0.88325 0.97781 0.74277 0.0
H506 H 0.77786 0.07601 0.65802 0.0
H507 H 0.98202 0.95434 0.6818 0.0
H508 H 0.85052 0.01993 0.71587 0.0
H509 H 0.94531 0.04105 0.64454 0.0
C510 C 0.88992 0.07216 0.63158 0.0
C511 C 0.84235 0.08264 0.63488 0.0
C512 C 0.87933 0.00545 0.70848 0.0
C513 C 0.87992 0.036 0.66713 0.0
C514 C 0.89808 0.98141 0.7238 0.0
C515 C 0.93532 0.96224 0.71455 0.0
C516 C 0.89861 0.01078 0.68398 0.0
C517 C 0.95327 0.96833 0.68982 0.0
C518 C 0.90858 0.04877 0.64746 0.0
C519 C 0.81488 0.06914 0.65486 0.0
N520 N 0.93495 0.99214 0.67549 0.0
N521 N 0.8341 0.04661 0.67026 0.0
H522 H 0.59851 0.42469 0.11322 0.0
H523 H 0.62621 0.52758 0.24057 0.0
H524 H 0.73188 0.42888 0.15612 0.0
H525 H 0.52317 0.54778 0.18077 0.0
H526 H 0.66104 0.48659 0.21308 0.0
H527 H 0.5659 0.46561 0.14092 0.0
C528 C 0.62122 0.43435 0.12825 0.0
C529 C 0.66822 0.42321 0.13216 0.0
C530 C 0.63082 0.50012 0.20609 0.0
C531 C 0.63032 0.46965 0.1645 0.0
C532 C 0.61085 0.52345 0.22177 0.0
C533 C 0.57167 0.54128 0.21304 0.0
C534 C 0.61093 0.4943 0.18173 0.0
C535 C 0.5533 0.53477 0.18845 0.0
C536 C 0.60236 0.45759 0.14421 0.0
C537 C 0.69523 0.43626 0.15253 0.0
N538 N 0.57288 0.51178 0.17379 0.0
N539 N 0.67584 0.45866 0.16799 0.0
H540 H 0.32869 0.47156 0.40793 0.0
H541 H 0.44926 0.50847 0.27151 0.0
H542 H 0.36163 0.39895 0.35273 0.0
H543 H 0.4368 0.57716 0.33208 0.0
H544 H 0.4111 0.46873 0.29931 0.0
H545 H 0.3628 0.5111 0.37896 0.0
C546 C 0.34339 0.46384 0.38979 0.0
C547 C 0.34261 0.43171 0.38294 0.0
C548 C 0.41664 0.49251 0.3065 0.0
C549 C 0.38114 0.47721 0.34933 0.0
C550 C 0.43806 0.51524 0.29057 0.0
C551 C 0.44584 0.54618 0.29944 0.0
C552 C 0.40296 0.5008 0.33152 0.0
C553 C 0.43164 0.55353 0.32451 0.0
C554 C 0.36262 0.48652 0.37316 0.0
C555 C 0.36108 0.4234 0.35881 0.0
N556 N 0.41084 0.53105 0.33963 0.0
N557 N 0.37966 0.44597 0.34291 0.0
H558 H 0.08748 0.08848 0.88517 0.0
H559 H 0.12685 0.93743 0.79743 0.0
H560 H 0.22802 0.06322 0.8569 0.0
H561 H 0.99046 0.98539 0.8021 0.0
H562 H 0.16473 0.98074 0.82145 0.0
H563 H 0.05093 0.04831 0.85723 0.0
C564 C 0.11055 0.07456 0.87292 0.0
C565 C 0.16078 0.0791 0.8733 0.0
C566 C 0.12659 0.98184 0.81703 0.0
C567 C 0.11939 0.03283 0.84158 0.0
C568 C 0.10496 0.95721 0.80315 0.0
C569 C 0.05551 0.95794 0.79725 0.0
C570 C 0.09834 0.00704 0.82567 0.0
C571 C 0.02869 0.98372 0.80611 0.0
C572 C 0.08973 0.05171 0.85696 0.0
C573 C 0.18911 0.06054 0.85702 0.0
N574 N 0.05037 0.0071 0.81996 0.0
N575 N 0.16808 0.03794 0.842 0.0
H576 H 0.17514 0.0625 0.96102 0.0
H577 H 0.17489 0.12137 0.1037 0.0
H578 H 0.19098 0.1626 0.97596 0.0
H579 H 0.07491 0.04968 0.07645 0.0
H580 H 0.19406 0.1347 0.05909 0.0
H581 H 0.1532 0.05427 1.00557 0.0
C582 C 0.17356 0.08293 0.97346 0.0
C583 C 0.18385 0.11352 0.96421 0.0
C584 C 0.16782 0.11617 0.06307 0.0
C585 C 0.1606 0.10369 0.01598 0.0
C586 C 0.15653 0.10858 0.08854 0.0
C587 C 0.12354 0.08393 0.09418 0.0
C588 C 0.14681 0.09858 0.04312 0.0
C589 C 0.1017 0.06809 0.07339 0.0
C590 C 0.16135 0.07804 0.99904 0.0
C591 C 0.18344 0.13859 0.982 0.0
N592 N 0.1142 0.07538 0.04893 0.0
N593 N 0.1721 0.13312 0.00707 0.0
H594 H 0.32465 0.3442 0.48355 0.0
H595 H 0.34259 0.47755 0.59248 0.0
H596 H 0.3091 0.44436 0.47059 0.0
H597 H 0.33441 0.37819 0.61079 0.0
H598 H 0.33848 0.46454 0.54716 0.0
H599 H 0.33424 0.35483 0.5296 0.0
C600 C 0.32317 0.36837 0.4903 0.0
C601 C 0.31653 0.39342 0.47296 0.0
C602 C 0.33759 0.44546 0.56099 0.0
C603 C 0.32803 0.40572 0.52559 0.0
C604 C 0.33984 0.45291 0.58695 0.0
C605 C 0.33804 0.42897 0.60556 0.0
C606 C 0.33354 0.41374 0.55326 0.0
C607 C 0.33583 0.39741 0.59712 0.0
C608 C 0.3289 0.37441 0.51658 0.0
C609 C 0.31527 0.42426 0.48294 0.0
N610 N 0.33329 0.39069 0.57156 0.0
N611 N 0.32104 0.42946 0.50842 0.0
H612 H 0.69883 0.41501 0.03672 0.0
H613 H 0.5652 0.30904 0.93153 0.0
H614 H 0.65436 0.31851 0.05058 0.0
H615 H 0.66378 0.38481 0.91101 0.0
H616 H 0.58679 0.3167 0.97641 0.0
H617 H 0.67513 0.40893 0.99158 0.0
C618 C 0.68388 0.39262 0.03024 0.0
C619 C 0.67867 0.36717 0.04729 0.0
C620 C 0.60362 0.33163 0.96203 0.0
C621 C 0.65116 0.36018 0.996 0.0
C622 C 0.59156 0.32719 0.93632 0.0
C623 C 0.61298 0.34606 0.91716 0.0
C624 C 0.6368 0.35546 0.96888 0.0
C625 C 0.64579 0.36986 0.92493 0.0
C626 C 0.67061 0.38913 1.00454 0.0
C627 C 0.65935 0.3386 0.03796 0.0
N628 N 0.65663 0.3739 0.95017 0.0
N629 N 0.64604 0.33592 0.01298 0.0
H630 H 0.90895 0.12994 0.55779 0.0
H631 H 0.83836 0.14087 0.40946 0.0
H632 H 0.76198 0.14015 0.53204 0.0
H633 H 0.98125 0.16113 0.4384 0.0
H634 H 0.81006 0.13316 0.45363 0.0
H635 H 0.93641 0.13412 0.5134 0.0
C636 C 0.88244 0.13288 0.54274 0.0
C637 C 0.83312 0.13471 0.54859 0.0
C638 C 0.8476 0.13923 0.45026 0.0
C639 C 0.86429 0.13953 0.49772 0.0
C640 C 0.86381 0.14341 0.42511 0.0
C641 C 0.91215 0.15177 0.42033 0.0
C642 C 0.88016 0.143 0.47071 0.0
C643 C 0.94358 0.15502 0.44128 0.0
C644 C 0.89814 0.13544 0.51744 0.0
C645 C 0.80036 0.13889 0.52836 0.0
N646 N 0.92708 0.15057 0.46553 0.0
N647 N 0.81651 0.14104 0.50379 0.0
H648 H 0.83488 0.93499 0.05131 0.0
H649 H 0.84542 0.86542 0.90896 0.0
H650 H 0.83718 0.83459 0.03653 0.0
H651 H 0.85791 0.96421 0.9284 0.0
H652 H 0.84671 0.85233 0.95497 0.0
H653 H 0.84635 0.94495 1.00603 0.0
C654 C 0.83845 0.91491 0.03862 0.0
C655 C 0.83562 0.88384 0.04803 0.0
C656 C 0.8497 0.87682 0.9491 0.0
C657 C 0.84766 0.89525 0.99537 0.0
C658 C 0.84932 0.88426 0.92288 0.0
C659 C 0.85104 0.91596 0.91491 0.0
C660 C 0.8519 0.90132 0.96733 0.0
C661 C 0.85576 0.93949 0.93371 0.0
C662 C 0.84471 0.92067 0.01257 0.0
C663 C 0.83889 0.85894 0.03022 0.0
N664 N 0.85565 0.93172 0.95892 0.0
N665 N 0.84462 0.86518 1.00474 0.0
H666 H 0.68773 0.65649 0.5279 0.0
H667 H 0.66374 0.52145 0.42085 0.0
H668 H 0.70438 0.55667 0.54209 0.0
H669 H 0.67564 0.62034 0.40128 0.0
H670 H 0.67093 0.53516 0.46593 0.0
H671 H 0.67783 0.64498 0.48205 0.0
C672 C 0.68959 0.63221 0.52143 0.0
C673 C 0.69652 0.60751 0.53907 0.0
C674 C 0.67202 0.55396 0.45186 0.0
C675 C 0.68446 0.5942 0.48666 0.0
C676 C 0.66802 0.54613 0.42602 0.0
C677 C 0.66988 0.56971 0.4071 0.0
C678 C 0.67776 0.58573 0.45916 0.0
C679 C 0.67403 0.60136 0.41517 0.0
C680 C 0.68363 0.62567 0.49527 0.0
C681 C 0.69809 0.57649 0.52947 0.0
N682 N 0.67811 0.60845 0.4406 0.0
N683 N 0.69196 0.57079 0.50407 0.0
H684 H 0.40427 0.62999 0.95494 0.0
H685 H 0.33078 0.63841 0.10292 0.0
H686 H 0.25663 0.63782 0.98012 0.0
H687 H 0.47229 0.66445 0.07509 0.0
H688 H 0.30411 0.63018 0.05854 0.0
H689 H 0.43102 0.6347 0.99955 0.0
C690 C 0.37749 0.63248 0.9699 0.0
C691 C 0.32818 0.6336 0.96385 0.0
C692 C 0.341 0.63766 0.06218 0.0
C693 C 0.35847 0.63893 0.01486 0.0
C694 C 0.35628 0.64217 0.08746 0.0
C695 C 0.40373 0.65225 0.09263 0.0
C696 C 0.37362 0.6428 0.04197 0.0
C697 C 0.43525 0.65699 0.0719 0.0
C698 C 0.39277 0.63535 0.9953 0.0
C699 C 0.29502 0.63714 0.98395 0.0
N700 N 0.4197 0.65213 0.0475 0.0
N701 N 0.31074 0.63957 0.00858 0.0
H702 H 0.16922 0.82752 0.47041 0.0
H703 H 0.17448 0.94404 0.59118 0.0
H704 H 0.19355 0.92829 0.4655 0.0
H705 H 0.13256 0.84583 0.59713 0.0
H706 H 0.17945 0.93842 0.54476 0.0
H707 H 0.1546 0.83312 0.51656 0.0
C708 C 0.17145 0.85079 0.47901 0.0
C709 C 0.18252 0.87748 0.46402 0.0
C710 C 0.16882 0.91808 0.55611 0.0
C711 C 0.16569 0.88406 0.51671 0.0
C712 C 0.16606 0.9213 0.58263 0.0
C713 C 0.15341 0.89531 0.59801 0.0
C714 C 0.15934 0.88854 0.54475 0.0
C715 C 0.14228 0.86648 0.58592 0.0
C716 C 0.16281 0.85399 0.50531 0.0
C717 C 0.18448 0.9071 0.47616 0.0
N718 N 0.14598 0.86375 0.55999 0.0
N719 N 0.17638 0.90953 0.50172 0.0
H720 H 0.2335 0.27335 0.38431 0.0
H721 H 0.01798 0.21621 0.29249 0.0
H722 H 0.14104 0.33753 0.34366 0.0
H723 H 0.13766 0.15632 0.31156 0.0
H724 H 0.0571 0.25968 0.31582 0.0
H725 H 0.19349 0.22877 0.36236 0.0
C726 C 0.20459 0.27803 0.37091 0.0
C727 C 0.19038 0.30913 0.36579 0.0
C728 C 0.07481 0.23703 0.31494 0.0
C729 C 0.1445 0.25843 0.3408 0.0
C730 C 0.05235 0.21217 0.30177 0.0
C731 C 0.07452 0.18262 0.30023 0.0
C732 C 0.11959 0.23225 0.3269 0.0
C733 C 0.11939 0.17879 0.3123 0.0
C734 C 0.18195 0.25263 0.35832 0.0
C735 C 0.15299 0.31388 0.34814 0.0
N736 N 0.1404 0.20328 0.32523 0.0
N737 N 0.13122 0.28885 0.33637 0.0
H738 H 0.28602 0.23073 0.88144 0.0
H739 H 0.49708 0.28992 0.78754 0.0
H740 H 0.37163 0.16764 0.83575 0.0
H741 H 0.38345 0.35105 0.81313 0.0
H742 H 0.45762 0.24558 0.80966 0.0
H743 H 0.32703 0.27594 0.86098 0.0
C744 C 0.31367 0.2264 0.86725 0.0
C745 C 0.32562 0.19541 0.86029 0.0
C746 C 0.44125 0.26868 0.81043 0.0
C747 C 0.37267 0.24689 0.83695 0.0
C748 C 0.46389 0.294 0.79793 0.0
C749 C 0.4432 0.32407 0.79834 0.0
C750 C 0.39797 0.27355 0.82383 0.0
C751 C 0.40017 0.32809 0.81208 0.0
C752 C 0.33688 0.25218 0.8555 0.0
C753 C 0.36143 0.19117 0.84166 0.0
N754 N 0.37897 0.30313 0.82433 0.0
N755 N 0.38381 0.21656 0.83072 0.0
H756 H 0.65924 0.16989 0.68797 0.0
H757 H 0.57348 0.34987 0.682 0.0
H758 H 0.69806 0.23254 0.62595 0.0
H759 H 0.56643 0.29207 0.74997 0.0
H760 H 0.61274 0.30625 0.65931 0.0
H761 H 0.61818 0.21348 0.70917 0.0
C762 C 0.65896 0.19287 0.6788 0.0
C763 C 0.68211 0.19767 0.65526 0.0
C764 C 0.6026 0.30317 0.67919 0.0
C765 C 0.63518 0.24772 0.67934 0.0
C766 C 0.58009 0.32795 0.69208 0.0
C767 C 0.56682 0.32449 0.71786 0.0
C768 C 0.61137 0.27469 0.69216 0.0
C769 C 0.57636 0.29575 0.73013 0.0
C770 C 0.63566 0.21776 0.69093 0.0
C771 C 0.68073 0.22787 0.64415 0.0
N772 N 0.5979 0.27196 0.71716 0.0
N773 N 0.65756 0.25181 0.6563 0.0
H774 H 0.84172 0.33322 0.19011 0.0
H775 H 0.9462 0.15814 0.1826 0.0
H776 H 0.80993 0.27067 0.1269 0.0
H777 H 0.93699 0.21239 0.2524 0.0
H778 H 0.90364 0.20047 0.15994 0.0
H779 H 0.88473 0.2905 0.21137 0.0
C780 C 0.84392 0.31043 0.18072 0.0
C781 C 0.82219 0.30538 0.15683 0.0
C782 C 0.91086 0.20296 0.18023 0.0
C783 C 0.87147 0.2564 0.18092 0.0
C784 C 0.93522 0.17892 0.19312 0.0
C785 C 0.9448 0.18171 0.21942 0.0
C786 C 0.89679 0.23008 0.19372 0.0
C787 C 0.92989 0.2091 0.23217 0.0
C788 C 0.86832 0.28605 0.19286 0.0
C789 C 0.82606 0.27547 0.1454 0.0
N790 N 0.90682 0.23222 0.21919 0.0
N791 N 0.85041 0.25205 0.15755 0.0
H792 H 0.84361 0.69554 0.62993 0.0
H793 H 0.85787 0.85878 0.70504 0.0
H794 H 0.71922 0.73678 0.66589 0.0
H795 H 0.97431 0.79228 0.70957 0.0
H796 H 0.80931 0.81938 0.68204 0.0
H797 H 0.89517 0.73595 0.65065 0.0
C798 C 0.82716 0.71326 0.64197 0.0
C799 C 0.77712 0.71298 0.6462 0.0
C800 C 0.84553 0.81345 0.68804 0.0
C801 C 0.83549 0.75918 0.66951 0.0
C802 C 0.87314 0.83582 0.70135 0.0
C803 C 0.91958 0.82848 0.71005 0.0
C804 C 0.86507 0.78379 0.68255 0.0
C805 C 0.93841 0.79883 0.70353 0.0
C806 C 0.85655 0.73612 0.65386 0.0
C807 C 0.75765 0.73624 0.66215 0.0
N808 N 0.91106 0.77751 0.69015 0.0
N809 N 0.78678 0.75855 0.67307 0.0
H810 H 0.73587 0.76622 0.13222 0.0
H811 H 0.51912 0.71306 0.22479 0.0
H812 H 0.65221 0.83174 0.17666 0.0
H813 H 0.62942 0.64886 0.20008 0.0
H814 H 0.56161 0.75622 0.20271 0.0
H815 H 0.69176 0.72218 0.15257 0.0
C816 C 0.70802 0.77133 0.14612 0.0
C817 C 0.69751 0.80265 0.15277 0.0
C818 C 0.57658 0.7327 0.20212 0.0
C819 C 0.64694 0.75254 0.17596 0.0
C820 C 0.55221 0.70806 0.21459 0.0
C821 C 0.57106 0.67746 0.21439 0.0
C822 C 0.61979 0.72663 0.189 0.0
C823 C 0.61408 0.67225 0.20094 0.0
C824 C 0.68304 0.74621 0.1578 0.0
C825 C 0.66135 0.80792 0.17101 0.0
N826 N 0.63701 0.69657 0.18873 0.0
N827 N 0.63726 0.78317 0.18189 0.0
H828 H 0.30368 0.76823 0.38687 0.0
H829 H 0.44795 0.71288 0.26235 0.0
H830 H 0.35116 0.83147 0.32692 0.0
H831 H 0.4329 0.65395 0.32934 0.0
H832 H 0.40766 0.75556 0.28502 0.0
H833 H 0.34618 0.72491 0.36555 0.0
C834 C 0.3231 0.77299 0.36926 0.0
C835 C 0.32398 0.80342 0.35855 0.0
C836 C 0.41325 0.73337 0.29486 0.0
C837 C 0.37222 0.75416 0.33411 0.0
C838 C 0.4361 0.70898 0.28188 0.0
C839 C 0.44365 0.67993 0.29402 0.0
C840 C 0.39737 0.72863 0.32013 0.0
C841 C 0.42789 0.67613 0.31939 0.0
C842 C 0.3474 0.74831 0.35715 0.0
C843 C 0.34966 0.80832 0.33576 0.0
N844 N 0.4052 0.70019 0.33161 0.0
N845 N 0.37255 0.78396 0.32425 0.0
H846 H 0.19372 0.73246 0.88741 0.0
H847 H 0.04352 0.78549 0.76413 0.0
H848 H 0.1462 0.66886 0.82768 0.0
H849 H 0.06595 0.84698 0.82906 0.0
H850 H 0.08396 0.74322 0.787 0.0
H851 H 0.14995 0.77543 0.86638 0.0
C852 C 0.17397 0.72753 0.86993 0.0
C853 C 0.17353 0.6971 0.85917 0.0
C854 C 0.08005 0.76588 0.79637 0.0
C855 C 0.12377 0.746 0.83507 0.0
C856 C 0.05711 0.79008 0.78326 0.0
C857 C 0.05177 0.81981 0.79468 0.0
C858 C 0.09812 0.77136 0.82112 0.0
C859 C 0.06945 0.82434 0.81962 0.0
C860 C 0.14896 0.75203 0.85797 0.0
C861 C 0.14741 0.692 0.83655 0.0
N862 N 0.09218 0.80038 0.832 0.0
N863 N 0.12377 0.71618 0.82522 0.0
loop_
_geom_bond_atom_site_label_1
_geom_bond_atom_site_label_2
_geom_bond_distance
_geom_bond_site_symmetry_2
_ccdc_geom_bond_type
H0 C5 0.930 . S
H1 C8 0.930 . S
H2 C10 0.930 . S
H3 C4 1.016 . S
C4 H3 1.016 . S
C4 N11 1.286 . S
C5 H0 0.930 . S
C5 C6 1.397 . S
C5 C7 1.361 . S
C6 C5 1.397 . S
C6 C10 1.390 . S
C7 C5 1.361 . S
C7 C8 1.393 . S
C7 N11 1.413 . S
C8 H1 0.930 . S
C8 C7 1.393 . S
C8 C9 1.399 . S
C9 C8 1.399 . S
C9 C10 1.381 . S
C10 H2 0.930 . S
C10 C6 1.390 . S
C10 C9 1.381 . S
N11 C4 1.286 . S
N11 C7 1.413 . S
H12 C17 0.930 . S
H13 C20 0.930 . S
H14 C22 0.930 . S
H15 C16 1.016 . S
C16 H15 1.016 . S
C16 N23 1.286 . S
C17 H12 0.930 . S
C17 C18 1.397 . S
C17 C19 1.361 . S
C18 C17 1.397 . S
C18 C22 1.390 . S
C19 C17 1.361 . S
C19 C20 1.393 . S
C19 N23 1.413 . S
C20 H13 0.930 . S
C20 C19 1.393 . S
C20 C21 1.399 . S
C21 C20 1.399 . S
C21 C22 1.381 . S
C22 H14 0.930 . S
C22 C18 1.390 . S
C22 C21 1.381 . S
N23 C16 1.286 . S
N23 C19 1.413 . S
H24 C29 0.930 . S
H25 C32 0.930 . S
H26 C34 0.930 . S
H27 C28 1.016 . S
C28 H27 1.016 . S
C28 N35 1.286 . S
C29 H24 0.930 . S
C29 C30 1.397 . S
C29 C31 1.361 . S
C30 C29 1.397 . S
C30 C34 1.390 . S
C31 C29 1.361 . S
C31 C32 1.393 . S
C31 N35 1.413 . S
C32 H25 0.930 . S
C32 C31 1.393 . S
C32 C33 1.399 . S
C33 C32 1.399 . S
C33 C34 1.381 . S
C34 H26 0.930 . S
C34 C30 1.390 . S
C34 C33 1.381 . S
N35 C28 1.286 . S
N35 C31 1.413 . S
H36 C41 0.930 . S
H37 C44 0.930 . S
H38 C46 0.930 . S
H39 C40 1.016 . S
C40 H39 1.016 . S
C40 N47 1.286 . S
C41 H36 0.930 . S
C41 C42 1.397 . S
C41 C43 1.361 . S
C42 C41 1.397 . S
C42 C46 1.390 . S
C43 C41 1.361 . S
C43 C44 1.393 . S
C43 N47 1.413 . S
C44 H37 0.930 . S
C44 C43 1.393 . S
C44 C45 1.399 . S
C45 C44 1.399 . S
C45 C46 1.381 . S
C46 H38 0.930 . S
C46 C42 1.390 . S
C46 C45 1.381 . S
N47 C40 1.286 . S
N47 C43 1.413 . S
H48 C53 0.930 . S
H49 C56 0.930 . S
H50 C58 0.930 . S
H51 C52 1.016 . S
C52 H51 1.016 . S
C52 N59 1.286 . S
C53 H48 0.930 . S
C53 C54 1.397 . S
C53 C55 1.361 . S
C54 C53 1.397 . S
C54 C58 1.390 . S
C55 C53 1.361 . S
C55 C56 1.393 . S
C55 N59 1.413 . S
C56 H49 0.930 . S
C56 C55 1.393 . S
C56 C57 1.399 . S
C57 C56 1.399 . S
C57 C58 1.381 . S
C58 H50 0.930 . S
C58 C54 1.390 . S
C58 C57 1.381 . S
N59 C52 1.286 . S
N59 C55 1.413 . S
H60 C65 0.930 . S
H61 C68 0.930 . S
H62 C70 0.930 . S
H63 C64 1.016 . S
C64 H63 1.016 . S
C64 N71 1.286 . S
C65 H60 0.930 . S
C65 C66 1.397 . S
C65 C67 1.361 . S
C66 C65 1.397 . S
C66 C70 1.390 . S
C67 C65 1.361 . S
C67 C68 1.393 . S
C67 N71 1.413 . S
C68 H61 0.930 . S
C68 C67 1.393 . S
C68 C69 1.399 . S
C69 C68 1.399 . S
C69 C70 1.381 . S
C70 H62 0.930 . S
C70 C66 1.390 . S
C70 C69 1.381 . S
N71 C64 1.286 . S
N71 C67 1.413 . S
H72 C77 0.930 . S
H73 C80 0.930 . S
H74 C82 0.930 . S
H75 C76 1.016 . S
C76 H75 1.016 . S
C76 N83 1.286 . S
C77 H72 0.930 . S
C77 C78 1.397 . S
C77 C79 1.361 . S
C78 C77 1.397 . S
C78 C82 1.390 . S
C79 C77 1.361 . S
C79 C80 1.393 . S
C79 N83 1.413 . S
C80 H73 0.930 . S
C80 C79 1.393 . S
C80 C81 1.399 . S
C81 C80 1.399 . S
C81 C82 1.381 . S
C82 H74 0.930 . S
C82 C78 1.390 . S
C82 C81 1.381 . S
N83 C76 1.286 . S
N83 C79 1.413 . S
H84 C89 0.930 . S
H85 C92 0.930 . S
H86 C94 0.930 . S
H87 C88 1.016 . S
C88 H87 1.016 . S
C88 N95 1.286 . S
C89 H84 0.930 . S
C89 C90 1.397 . S
C89 C91 1.361 . S
C90 C89 1.397 . S
C90 C94 1.390 . S
C91 C89 1.361 . S
C91 C92 1.393 . S
C91 N95 1.413 . S
C92 H85 0.930 . S
C92 C91 1.393 . S
C92 C93 1.399 . S
C93 C92 1.399 . S
C93 C94 1.381 . S
C94 H86 0.930 . S
C94 C90 1.390 . S
C94 C93 1.381 . S
N95 C88 1.286 . S
N95 C91 1.413 . S
C96 C98 1.422 . S
C96 C100 1.415 . S
C96 N102 1.369 . S
C97 C98 1.421 . S
C97 C99 1.417 . S
C97 C109 1.422 1_545 S
C98 C96 1.422 . S
C98 C97 1.421 . S
C98 N108 1.359 . S
C99 C97 1.417 . S
C99 C101 1.329 . S
C99 H118 0.931 1_545 S
C100 C96 1.415 . S
C100 C101 1.437 . S
C100 C104 1.413 . S
C101 C99 1.329 . S
C101 C100 1.437 . S
C101 H123 0.929 . S
N102 C96 1.369 . S
N102 C103 1.338 . S
N102 Gd107 2.622 . S
C103 N102 1.338 . S
C103 C105 1.378 . S
C103 H115 0.929 . S
C104 C100 1.413 . S
C104 C105 1.348 . S
C104 H120 0.931 . S
C105 C103 1.378 . S
C105 C104 1.348 . S
C105 H121 0.930 . S
Gd106 N126 2.622 . S
Gd106 N133 2.570 . S
Gd106 O140 2.354 1_455 S
Gd106 O141 2.468 . S
Gd106 O142 2.427 . S
Gd106 O144 2.388 . S
Gd106 O145 2.386 . S
Gd106 O149 2.290 1_455 S
Gd106 C159 2.805 . S
Gd107 N102 2.622 . S
Gd107 N108 2.570 . S
Gd107 O139 2.386 . S
Gd107 O143 2.307 1_655 S
Gd107 O146 2.353 1_655 S
Gd107 O147 2.468 . S
Gd107 O148 2.427 . S
Gd107 O150 2.388 . S
Gd107 C171 2.805 . S
N108 C98 1.359 . S
N108 Gd107 2.570 . S
N108 C110 1.343 . S
C109 C97 1.422 1_565 S
C109 C111 1.321 . S
C109 H117 0.931 . S
C110 N108 1.343 . S
C110 C111 1.390 1_545 S
C110 H112 0.931 . S
C111 C109 1.321 . S
C111 C110 1.390 1_565 S
C111 H113 0.930 . S
H112 C110 0.931 . S
H113 C111 0.930 . S
H114 C137 0.931 . S
H115 C103 0.929 . S
H116 C138 0.930 . S
H117 C109 0.931 . S
H118 C99 0.931 1_565 S
H119 C128 0.929 . S
H120 C104 0.931 . S
H121 C105 0.930 . S
H122 C160 0.930 . S
H123 C101 0.929 . S
H124 C129 0.931 . S
H125 C130 0.930 . S
N126 Gd106 2.622 . S
N126 C127 1.369 . S
N126 C128 1.338 . S
C127 N126 1.369 . S
C127 C131 1.415 . S
C127 C134 1.422 . S
C128 H119 0.929 . S
C128 N126 1.338 . S
C128 C130 1.378 . S
C129 H124 0.931 . S
C129 C130 1.348 . S
C129 C131 1.413 . S
C130 H125 0.930 . S
C130 C128 1.378 . S
C130 C129 1.348 . S
C131 C127 1.415 . S
C131 C129 1.413 . S
C131 C161 1.437 . S
H132 C161 0.929 . S
N133 Gd106 2.570 . S
N133 C134 1.359 . S
N133 C137 1.343 . S
C134 C127 1.422 . S
C134 N133 1.359 . S
C134 C136 1.421 . S
C135 C136 1.422 . S
C135 C138 1.321 . S
C135 H162 0.931 . S
C136 C134 1.421 . S
C136 C135 1.422 . S
C136 C160 1.417 . S
C137 H114 0.931 . S
C137 N133 1.343 . S
C137 C138 1.390 . S
C138 H116 0.930 . S
C138 C135 1.321 . S
C138 C137 1.390 . S
O139 Gd107 2.386 . S
O139 C151 1.265 . S
O140 Gd106 2.354 1_655 S
O140 C151 1.241 . S
O141 Gd106 2.468 . S
O141 C159 1.263 . S
O142 Gd106 2.427 . S
O142 C159 1.252 . S
O143 Gd107 2.307 1_455 S
O143 C152 1.261 . S
O144 Gd106 2.388 . S
O144 C152 1.252 . S
O145 Gd106 2.386 . S
O145 C163 1.265 . S
O146 Gd107 2.353 1_455 S
O146 C163 1.242 . S
O147 Gd107 2.468 . S
O147 C171 1.263 . S
O148 Gd107 2.427 . S
O148 C171 1.252 . S
O149 Gd106 2.290 1_655 S
O149 C164 1.280 . S
O150 Gd107 2.388 . S
O150 C164 1.252 . S
C151 O139 1.265 . S
C151 O140 1.241 . S
C152 O143 1.261 . S
C152 O144 1.252 . S
C153 C156 1.394 . S
C153 C158 1.370 . S
C153 C159 1.500 . S
C154 C157 1.383 . S
C154 C158 1.395 . S
C155 C156 1.396 . S
C155 C157 1.365 . S
C155 H172 0.929 . S
C156 C153 1.394 . S
C156 C155 1.396 . S
C156 H173 0.930 . S
C157 C154 1.383 . S
C157 C155 1.365 . S
C157 H174 0.931 . S
C158 C153 1.370 . S
C158 C154 1.395 . S
C158 H175 0.930 . S
C159 Gd106 2.805 . S
C159 O141 1.263 . S
C159 O142 1.252 . S
C159 C153 1.500 . S
C160 H122 0.930 . S
C160 C136 1.417 . S
C160 C161 1.329 . S
C161 C131 1.437 . S
C161 H132 0.929 . S
C161 C160 1.329 . S
H162 C135 0.931 . S
C163 O145 1.265 . S
C163 O146 1.242 . S
C164 O149 1.280 . S
C164 O150 1.252 . S
C165 C168 1.394 . S
C165 C170 1.370 . S
C165 C171 1.500 . S
C166 C169 1.383 . S
C166 C170 1.395 . S
C167 C168 1.396 . S
C167 C169 1.365 . S
C167 H176 0.929 . S
C168 C165 1.394 . S
C168 C167 1.396 . S
C168 H177 0.930 . S
C169 C166 1.383 . S
C169 C167 1.365 . S
C169 H178 0.931 . S
C170 C165 1.370 . S
C170 C166 1.395 . S
C170 H179 0.930 . S
C171 Gd107 2.805 . S
C171 O147 1.263 . S
C171 O148 1.252 . S
C171 C165 1.500 . S
H172 C155 0.929 . S
H173 C156 0.930 . S
H174 C157 0.931 . S
H175 C158 0.930 . S
H176 C167 0.929 . S
H177 C168 0.930 . S
H178 C169 0.931 . S
H179 C170 0.930 . S
C180 C182 1.422 . S
C180 C184 1.415 . S
C180 N186 1.369 . S
C181 C182 1.421 . S
C181 C183 1.417 . S
C181 C193 1.422 . S
C182 C180 1.422 . S
C182 C181 1.421 . S
C182 N192 1.359 . S
C183 C181 1.417 . S
C183 C185 1.329 . S
C183 H202 0.930 . S
C184 C180 1.415 . S
C184 C185 1.437 . S
C184 C188 1.413 . S
C185 C183 1.329 . S
C185 C184 1.437 . S
C185 H207 0.929 . S
N186 C180 1.369 . S
N186 C187 1.338 . S
N186 Gd191 2.622 . S
C187 N186 1.338 . S
C187 C189 1.378 . S
C187 H199 0.929 . S
C188 C184 1.413 . S
C188 C189 1.348 . S
C188 H204 0.931 . S
C189 C187 1.378 . S
C189 C188 1.348 . S
C189 H205 0.930 . S
Gd190 N210 2.622 . S
Gd190 N217 2.570 . S
Gd190 O224 2.353 . S
Gd190 O225 2.468 . S
Gd190 O226 2.427 . S
Gd190 O228 2.388 . S
Gd190 O229 2.386 . S
Gd190 O233 2.307 . S
Gd190 C243 2.805 . S
Gd191 N186 2.622 . S
Gd191 N192 2.570 . S
Gd191 O223 2.386 . S
Gd191 O227 2.307 . S
Gd191 O230 2.353 . S
Gd191 O231 2.468 . S
Gd191 O232 2.427 . S
Gd191 O234 2.388 . S
Gd191 C255 2.805 . S
N192 C182 1.359 . S
N192 Gd191 2.570 . S
N192 C194 1.343 . S
C193 C181 1.422 . S
C193 C195 1.321 . S
C193 H201 0.931 . S
C194 N192 1.343 . S
C194 C195 1.390 . S
C194 H196 0.931 . S
C195 C193 1.321 . S
C195 C194 1.390 . S
C195 H197 0.930 . S
H196 C194 0.931 . S
H197 C195 0.930 . S
H198 C221 0.931 . S
H199 C187 0.929 . S
H200 C222 0.930 . S
H201 C193 0.931 . S
H202 C183 0.930 . S
H203 C212 0.929 . S
H204 C188 0.931 . S
H205 C189 0.930 . S
H206 C244 0.930 . S
H207 C185 0.929 . S
H208 C213 0.931 . S
H209 C214 0.930 . S
N210 Gd190 2.622 . S
N210 C211 1.369 . S
N210 C212 1.338 . S
C211 N210 1.369 . S
C211 C215 1.415 . S
C211 C218 1.422 . S
C212 H203 0.929 . S
C212 N210 1.338 . S
C212 C214 1.378 . S
C213 H208 0.931 . S
C213 C214 1.348 . S
C213 C215 1.413 . S
C214 H209 0.930 . S
C214 C212 1.378 . S
C214 C213 1.348 . S
C215 C211 1.415 . S
C215 C213 1.413 . S
C215 C245 1.437 . S
H216 C245 0.929 . S
N217 Gd190 2.570 . S
N217 C218 1.359 . S
N217 C221 1.343 . S
C218 C211 1.422 . S
C218 N217 1.359 . S
C218 C220 1.421 . S
C219 C220 1.422 . S
C219 C222 1.321 . S
C219 H246 0.931 . S
C220 C218 1.421 . S
C220 C219 1.422 . S
C220 C244 1.417 . S
C221 H198 0.931 . S
C221 N217 1.343 . S
C221 C222 1.390 . S
C222 H200 0.930 . S
C222 C219 1.321 . S
C222 C221 1.390 . S
O223 Gd191 2.386 . S
O223 C235 1.265 . S
O224 Gd190 2.353 . S
O224 C235 1.242 . S
O225 Gd190 2.468 . S
O225 C243 1.263 . S
O226 Gd190 2.427 . S
O226 C243 1.252 . S
O227 Gd191 2.307 . S
O227 C236 1.261 . S
O228 Gd190 2.388 . S
O228 C236 1.252 . S
O229 Gd190 2.386 . S
O229 C247 1.265 . S
O230 Gd191 2.353 . S
O230 C247 1.242 . S
O231 Gd191 2.468 . S
O231 C255 1.263 . S
O232 Gd191 2.427 . S
O232 C255 1.252 . S
O233 Gd190 2.307 . S
O233 C248 1.261 . S
O234 Gd191 2.388 . S
O234 C248 1.252 . S
C235 O223 1.265 . S
C235 O224 1.242 . S
C236 O227 1.261 . S
C236 O228 1.252 . S
C237 C240 1.394 . S
C237 C242 1.370 . S
C237 C243 1.500 . S
C238 C241 1.383 . S
C238 C242 1.395 . S
C239 C240 1.396 . S
C239 C241 1.365 . S
C239 H256 0.929 . S
C240 C237 1.394 . S
C240 C239 1.396 . S
C240 H257 0.930 . S
C241 C238 1.383 . S
C241 C239 1.365 . S
C241 H258 0.931 . S
C242 C237 1.370 . S
C242 C238 1.395 . S
C242 H259 0.930 . S
C243 Gd190 2.805 . S
C243 O225 1.263 . S
C243 O226 1.252 . S
C243 C237 1.500 . S
C244 H206 0.930 . S
C244 C220 1.417 . S
C244 C245 1.329 . S
C245 C215 1.437 . S
C245 H216 0.929 . S
C245 C244 1.329 . S
H246 C219 0.931 . S
C247 O229 1.265 . S
C247 O230 1.242 . S
C248 O233 1.261 . S
C248 O234 1.252 . S
C249 C252 1.394 . S
C249 C254 1.370 . S
C249 C255 1.500 . S
C250 C253 1.383 . S
C250 C254 1.395 . S
C251 C252 1.396 . S
C251 C253 1.365 . S
C251 H260 0.929 . S
C252 C249 1.394 . S
C252 C251 1.396 . S
C252 H261 0.930 . S
C253 C250 1.383 . S
C253 C251 1.365 . S
C253 H262 0.931 . S
C254 C249 1.370 . S
C254 C250 1.395 . S
C254 H263 0.930 . S
C255 Gd191 2.805 . S
C255 O231 1.263 . S
C255 O232 1.252 . S
C255 C249 1.500 . S
H256 C239 0.929 . S
H257 C240 0.930 . S
H258 C241 0.931 . S
H259 C242 0.930 . S
H260 C251 0.929 . S
H261 C252 0.930 . S
H262 C253 0.931 . S
H263 C254 0.930 . S
C264 C266 1.422 . S
C264 C268 1.415 . S
C264 N270 1.369 . S
C265 C266 1.421 . S
C265 C267 1.417 . S
C265 C277 1.422 . S
C266 C264 1.422 . S
C266 C265 1.421 . S
C266 N276 1.359 . S
C267 C265 1.417 . S
C267 C269 1.329 . S
C267 H286 0.930 . S
C268 C264 1.415 . S
C268 C269 1.437 . S
C268 C272 1.413 . S
C269 C267 1.329 . S
C269 C268 1.437 . S
C269 H291 0.929 . S
N270 C264 1.369 . S
N270 C271 1.338 . S
N270 Gd275 2.622 . S
C271 N270 1.338 . S
C271 C273 1.378 . S
C271 H283 0.929 . S
C272 C268 1.413 . S
C272 C273 1.348 . S
C272 H288 0.931 . S
C273 C271 1.378 . S
C273 C272 1.348 . S
C273 H289 0.930 . S
Gd274 N294 2.622 . S
Gd274 N301 2.570 . S
Gd274 O308 2.353 . S
Gd274 O309 2.468 . S
Gd274 O310 2.427 . S
Gd274 O312 2.388 . S
Gd274 O313 2.386 . S
Gd274 O317 2.307 . S
Gd274 C327 2.805 . S
Gd275 N270 2.622 . S
Gd275 N276 2.570 . S
Gd275 O307 2.386 . S
Gd275 O311 2.307 1_655 S
Gd275 O314 2.353 1_655 S
Gd275 O315 2.468 . S
Gd275 O316 2.427 . S
Gd275 O318 2.388 . S
Gd275 C339 2.805 . S
N276 C266 1.359 . S
N276 Gd275 2.570 . S
N276 C278 1.343 . S
C277 C265 1.422 . S
C277 C279 1.321 . S
C277 H285 0.931 . S
C278 N276 1.343 . S
C278 C279 1.390 . S
C278 H280 0.931 . S
C279 C277 1.321 . S
C279 C278 1.390 . S
C279 H281 0.930 . S
H280 C278 0.931 . S
H281 C279 0.930 . S
H282 C305 0.931 . S
H283 C271 0.929 . S
H284 C306 0.930 . S
H285 C277 0.931 . S
H286 C267 0.930 . S
H287 C296 0.929 . S
H288 C272 0.931 . S
H289 C273 0.930 . S
H290 C328 0.932 1_545 S
H291 C269 0.929 . S
H292 C297 0.931 . S
H293 C298 0.930 . S
N294 Gd274 2.622 . S
N294 C295 1.369 . S
N294 C296 1.338 . S
C295 N294 1.369 . S
C295 C299 1.415 . S
C295 C302 1.422 . S
C296 H287 0.929 . S
C296 N294 1.338 . S
C296 C298 1.378 . S
C297 H292 0.931 . S
C297 C298 1.348 . S
C297 C299 1.413 . S
C298 H293 0.930 . S
C298 C296 1.378 . S
C298 C297 1.348 . S
C299 C295 1.415 . S
C299 C297 1.413 . S
C299 C329 1.437 . S
H300 C329 0.929 . S
N301 Gd274 2.570 . S
N301 C302 1.359 . S
N301 C305 1.343 . S
C302 C295 1.422 . S
C302 N301 1.359 . S
C302 C304 1.421 . S
C303 C304 1.422 1_545 S
C303 C306 1.321 . S
C303 H330 0.931 . S
C304 C302 1.421 . S
C304 C303 1.422 1_565 S
C304 C328 1.417 . S
C305 H282 0.931 . S
C305 N301 1.343 . S
C305 C306 1.390 1_565 S
C306 H284 0.930 . S
C306 C303 1.321 . S
C306 C305 1.390 1_545 S
O307 Gd275 2.386 . S
O307 C319 1.265 . S
O308 Gd274 2.353 . S
O308 C319 1.242 1_455 S
O309 Gd274 2.468 . S
O309 C327 1.263 . S
O310 Gd274 2.427 . S
O310 C327 1.252 . S
O311 Gd275 2.307 1_455 S
O311 C320 1.261 . S
O312 Gd274 2.388 . S
O312 C320 1.252 . S
O313 Gd274 2.386 . S
O313 C331 1.265 . S
O314 Gd275 2.353 1_455 S
O314 C331 1.242 . S
O315 Gd275 2.468 . S
O315 C339 1.263 . S
O316 Gd275 2.427 . S
O316 C339 1.252 . S
O317 Gd274 2.307 . S
O317 C332 1.261 1_455 S
O318 Gd275 2.388 . S
O318 C332 1.252 . S
C319 O307 1.265 . S
C319 O308 1.242 1_655 S
C320 O311 1.261 . S
C320 O312 1.252 . S
C321 C324 1.394 . S
C321 C326 1.370 . S
C321 C327 1.500 . S
C322 C325 1.383 . S
C322 C326 1.395 . S
C323 C324 1.396 . S
C323 C325 1.365 . S
C323 H340 0.929 . S
C324 C321 1.394 . S
C324 C323 1.396 . S
C324 H341 0.930 . S
C325 C322 1.383 . S
C325 C323 1.365 . S
C325 H342 0.931 . S
C326 C321 1.370 . S
C326 C322 1.395 . S
C326 H343 0.930 . S
C327 Gd274 2.805 . S
C327 O309 1.263 . S
C327 O310 1.252 . S
C327 C321 1.500 . S
C328 H290 0.932 1_565 S
C328 C304 1.417 . S
C328 C329 1.329 . S
C329 C299 1.437 . S
C329 H300 0.929 . S
C329 C328 1.329 . S
H330 C303 0.931 . S
C331 O313 1.265 . S
C331 O314 1.242 . S
C332 O317 1.261 1_655 S
C332 O318 1.252 . S
C333 C336 1.394 . S
C333 C338 1.370 . S
C333 C339 1.500 . S
C334 C337 1.383 . S
C334 C338 1.395 . S
C335 C336 1.396 . S
C335 C337 1.365 . S
C335 H344 0.929 . S
C336 C333 1.394 . S
C336 C335 1.396 . S
C336 H345 0.930 . S
C337 C334 1.383 . S
C337 C335 1.365 . S
C337 H346 0.931 . S
C338 C333 1.370 . S
C338 C334 1.395 . S
C338 H347 0.930 . S
C339 Gd275 2.805 . S
C339 O315 1.263 . S
C339 O316 1.252 . S
C339 C333 1.500 . S
H340 C323 0.929 . S
H341 C324 0.930 . S
H342 C325 0.931 . S
H343 C326 0.930 . S
H344 C335 0.929 . S
H345 C336 0.930 . S
H346 C337 0.931 . S
H347 C338 0.930 . S
C348 C350 1.422 . S
C348 C352 1.415 . S
C348 N354 1.369 . S
C349 C350 1.421 . S
C349 C351 1.417 . S
C349 C361 1.422 . S
C350 C348 1.422 . S
C350 C349 1.421 . S
C350 N360 1.359 . S
C351 C349 1.417 . S
C351 C353 1.329 . S
C351 H370 0.930 . S
C352 C348 1.415 . S
C352 C353 1.437 . S
C352 C356 1.413 . S
C353 C351 1.329 . S
C353 C352 1.437 . S
C353 H375 0.929 . S
N354 C348 1.369 . S
N354 C355 1.338 . S
N354 Gd359 2.622 . S
C355 N354 1.338 . S
C355 C357 1.378 . S
C355 H367 0.929 . S
C356 C352 1.413 . S
C356 C357 1.348 . S
C356 H372 0.931 . S
C357 C355 1.378 . S
C357 C356 1.348 . S
C357 H373 0.930 . S
Gd358 N378 2.622 . S
Gd358 N385 2.570 . S
Gd358 O392 2.353 . S
Gd358 O393 2.468 . S
Gd358 O394 2.427 . S
Gd358 O396 2.388 . S
Gd358 O397 2.386 . S
Gd358 O401 2.307 . S
Gd358 C411 2.805 . S
Gd359 N354 2.622 . S
Gd359 N360 2.570 . S
Gd359 O391 2.386 . S
Gd359 O395 2.307 . S
Gd359 O398 2.353 . S
Gd359 O399 2.468 . S
Gd359 O400 2.427 . S
Gd359 O402 2.388 . S
Gd359 C423 2.805 . S
N360 C350 1.359 . S
N360 Gd359 2.570 . S
N360 C362 1.343 . S
C361 C349 1.422 . S
C361 C363 1.321 . S
C361 H369 0.931 . S
C362 N360 1.343 . S
C362 C363 1.390 . S
C362 H364 0.931 . S
C363 C361 1.321 . S
C363 C362 1.390 . S
C363 H365 0.930 . S
H364 C362 0.931 . S
H365 C363 0.930 . S
H366 C389 0.931 . S
H367 C355 0.929 . S
H368 C390 0.930 . S
H369 C361 0.931 . S
H370 C351 0.930 . S
H371 C380 0.929 . S
H372 C356 0.931 . S
H373 C357 0.930 . S
H374 C412 0.930 . S
H375 C353 0.929 . S
H376 C381 0.931 . S
H377 C382 0.930 . S
N378 Gd358 2.622 . S
N378 C379 1.369 . S
N378 C380 1.338 . S
C379 N378 1.369 . S
C379 C383 1.415 . S
C379 C386 1.422 . S
C380 H371 0.929 . S
C380 N378 1.338 . S
C380 C382 1.378 . S
C381 H376 0.931 . S
C381 C382 1.348 . S
C381 C383 1.413 . S
C382 H377 0.930 . S
C382 C380 1.378 . S
C382 C381 1.348 . S
C383 C379 1.415 . S
C383 C381 1.413 . S
C383 C413 1.437 . S
H384 C413 0.929 . S
N385 Gd358 2.570 . S
N385 C386 1.359 . S
N385 C389 1.343 . S
C386 C379 1.422 . S
C386 N385 1.359 . S
C386 C388 1.421 . S
C387 C388 1.422 . S
C387 C390 1.321 . S
C387 H414 0.931 . S
C388 C386 1.421 . S
C388 C387 1.422 . S
C388 C412 1.417 . S
C389 H366 0.931 . S
C389 N385 1.343 . S
C389 C390 1.390 . S
C390 H368 0.930 . S
C390 C387 1.321 . S
C390 C389 1.390 . S
O391 Gd359 2.386 . S
O391 C403 1.265 . S
O392 Gd358 2.353 . S
O392 C403 1.242 . S
O393 Gd358 2.468 . S
O393 C411 1.263 . S
O394 Gd358 2.427 . S
O394 C411 1.252 . S
O395 Gd359 2.307 . S
O395 C404 1.261 . S
O396 Gd358 2.388 . S
O396 C404 1.252 . S
O397 Gd358 2.386 . S
O397 C415 1.265 . S
O398 Gd359 2.353 . S
O398 C415 1.242 . S
O399 Gd359 2.468 . S
O399 C423 1.263 . S
O400 Gd359 2.427 . S
O400 C423 1.252 . S
O401 Gd358 2.307 . S
O401 C416 1.261 . S
O402 Gd359 2.388 . S
O402 C416 1.252 . S
C403 O391 1.265 . S
C403 O392 1.242 . S
C404 O395 1.261 . S
C404 O396 1.252 . S
C405 C408 1.394 . S
C405 C410 1.370 . S
C405 C411 1.500 . S
C406 C409 1.383 . S
C406 C410 1.395 . S
C407 C408 1.396 . S
C407 C409 1.365 . S
C407 H424 0.929 . S
C408 C405 1.394 . S
C408 C407 1.396 . S
C408 H425 0.930 . S
C409 C406 1.383 . S
C409 C407 1.365 . S
C409 H426 0.931 . S
C410 C405 1.370 . S
C410 C406 1.395 . S
C410 H427 0.930 . S
C411 Gd358 2.805 . S
C411 O393 1.263 . S
C411 O394 1.252 . S
C411 C405 1.500 . S
C412 H374 0.930 . S
C412 C388 1.417 . S
C412 C413 1.329 . S
C413 C383 1.437 . S
C413 H384 0.929 . S
C413 C412 1.329 . S
H414 C387 0.931 . S
C415 O397 1.265 . S
C415 O398 1.242 . S
C416 O401 1.261 . S
C416 O402 1.252 . S
C417 C420 1.394 . S
C417 C422 1.370 . S
C417 C423 1.500 . S
C418 C421 1.383 . S
C418 C422 1.395 . S
C419 C420 1.396 . S
C419 C421 1.365 . S
C419 H428 0.929 . S
C420 C417 1.394 . S
C420 C419 1.396 . S
C420 H429 0.930 . S
C421 C418 1.383 . S
C421 C419 1.365 . S
C421 H430 0.931 . S
C422 C417 1.370 . S
C422 C418 1.395 . S
C422 H431 0.930 . S
C423 Gd359 2.805 . S
C423 O399 1.263 . S
C423 O400 1.252 . S
C423 C417 1.500 . S
H424 C407 0.929 . S
H425 C408 0.930 . S
H426 C409 0.931 . S
H427 C410 0.930 . S
H428 C419 0.929 . S
H429 C420 0.930 . S
H430 C421 0.931 . S
H431 C422 0.930 . S
H432 C438 0.930 . S
H433 C442 0.930 . S
H434 C447 0.929 . S
H435 C445 0.929 . S
H436 C440 0.929 . S
H437 C446 0.929 . S
C438 H432 0.930 . S
C438 C439 1.367 . S
C438 C446 1.378 . S
C439 C438 1.367 . S
C439 C447 1.433 . S
C440 H436 0.929 . S
C440 C442 1.378 . S
C440 C444 1.350 1_545 S
C441 C444 1.463 . S
C441 C446 1.350 . S
C441 N449 1.427 . S
C442 H433 0.930 . S
C442 C440 1.378 . S
C442 C443 1.367 . S
C443 C442 1.367 . S
C443 C445 1.433 . S
C444 C440 1.350 1_565 S
C444 C441 1.463 . S
C444 N448 1.427 . S
C445 H435 0.929 . S
C445 C443 1.433 . S
C445 N448 1.384 1_545 S
C446 H437 0.929 . S
C446 C438 1.378 . S
C446 C441 1.350 . S
C447 H434 0.929 . S
C447 C439 1.433 . S
C447 N449 1.384 . S
N448 C444 1.427 . S
N448 C445 1.384 1_565 S
N449 C441 1.427 . S
N449 C447 1.384 . S
H450 C456 0.930 . S
H451 C460 0.930 . S
H452 C465 0.929 . S
H453 C463 0.929 . S
H454 C458 0.929 . S
H455 C464 0.929 . S
C456 H450 0.930 . S
C456 C457 1.367 . S
C456 C464 1.378 . S
C457 C456 1.367 . S
C457 C465 1.433 . S
C458 H454 0.929 . S
C458 C460 1.378 . S
C458 C462 1.350 . S
C459 C462 1.463 . S
C459 C464 1.350 . S
C459 N467 1.427 . S
C460 H451 0.930 . S
C460 C458 1.378 . S
C460 C461 1.367 . S
C461 C460 1.367 . S
C461 C463 1.433 . S
C462 C458 1.350 . S
C462 C459 1.463 . S
C462 N466 1.427 . S
C463 H453 0.929 . S
C463 C461 1.433 . S
C463 N466 1.384 . S
C464 H455 0.929 . S
C464 C456 1.378 . S
C464 C459 1.350 . S
C465 H452 0.929 . S
C465 C457 1.433 . S
C465 N467 1.384 . S
N466 C462 1.427 . S
N466 C463 1.384 . S
N467 C459 1.427 . S
N467 C465 1.384 . S
H468 C474 0.930 . S
H469 C478 0.930 . S
H470 C483 0.929 . S
H471 C481 0.929 . S
H472 C476 0.929 . S
H473 C482 0.929 . S
C474 H468 0.930 . S
C474 C475 1.367 . S
C474 C482 1.378 . S
C475 C474 1.367 . S
C475 C483 1.433 . S
C476 H472 0.929 . S
C476 C478 1.378 . S
C476 C480 1.350 . S
C477 C480 1.463 . S
C477 C482 1.350 . S
C477 N485 1.427 . S
C478 H469 0.930 . S
C478 C476 1.378 . S
C478 C479 1.367 . S
C479 C478 1.367 . S
C479 C481 1.433 . S
C480 C476 1.350 . S
C480 C477 1.463 . S
C480 N484 1.427 . S
C481 H471 0.929 . S
C481 C479 1.433 . S
C481 N484 1.384 . S
C482 H473 0.929 . S
C482 C474 1.378 . S
C482 C477 1.350 . S
C483 H470 0.929 . S
C483 C475 1.433 . S
C483 N485 1.384 . S
N484 C480 1.427 . S
N484 C481 1.384 . S
N485 C477 1.427 . S
N485 C483 1.384 . S
H486 C492 0.930 . S
H487 C496 0.930 . S
H488 C501 0.929 . S
H489 C499 0.929 . S
H490 C494 0.929 . S
H491 C500 0.929 . S
C492 H486 0.930 . S
C492 C493 1.367 . S
C492 C500 1.378 . S
C493 C492 1.367 . S
C493 C501 1.433 . S
C494 H490 0.929 . S
C494 C496 1.378 1_565 S
C494 C498 1.350 . S
C495 C498 1.463 . S
C495 C500 1.350 . S
C495 N503 1.427 . S
C496 H487 0.930 . S
C496 C494 1.378 1_545 S
C496 C497 1.367 . S
C497 C496 1.367 . S
C497 C499 1.433 . S
C498 C494 1.350 . S
C498 C495 1.463 . S
C498 N502 1.427 . S
C499 H489 0.929 . S
C499 C497 1.433 . S
C499 N502 1.384 1_545 S
C500 H491 0.929 . S
C500 C492 1.378 . S
C500 C495 1.350 . S
C501 H488 0.929 . S
C501 C493 1.433 . S
C501 N503 1.384 . S
N502 C498 1.427 . S
N502 C499 1.384 1_565 S
N503 C495 1.427 . S
N503 C501 1.384 . S
H504 C510 0.930 . S
H505 C514 0.930 . S
H506 C519 0.929 . S
H507 C517 0.929 . S
H508 C512 0.929 . S
H509 C518 0.929 . S
C510 H504 0.930 . S
C510 C511 1.367 . S
C510 C518 1.378 . S
C511 C510 1.367 . S
C511 C519 1.433 . S
C512 H508 0.929 . S
C512 C514 1.378 1_545 S
C512 C516 1.350 . S
C513 C516 1.463 . S
C513 C518 1.350 . S
C513 N521 1.427 . S
C514 H505 0.930 . S
C514 C512 1.378 1_565 S
C514 C515 1.367 . S
C515 C514 1.367 . S
C515 C517 1.433 . S
C516 C512 1.350 . S
C516 C513 1.463 . S
C516 N520 1.425 1_545 S
C517 H507 0.929 . S
C517 C515 1.433 . S
C517 N520 1.387 . S
C518 H509 0.929 . S
C518 C510 1.378 . S
C518 C513 1.350 . S
C519 H506 0.929 . S
C519 C511 1.433 . S
C519 N521 1.384 . S
N520 C516 1.425 1_565 S
N520 C517 1.387 . S
N521 C513 1.427 . S
N521 C519 1.384 . S
H522 C528 0.930 . S
H523 C532 0.930 . S
H524 C537 0.929 . S
H525 C535 0.929 . S
H526 C530 0.929 . S
H527 C536 0.929 . S
C528 H522 0.930 . S
C528 C529 1.367 . S
C528 C536 1.378 . S
C529 C528 1.367 . S
C529 C537 1.433 . S
C530 H526 0.929 . S
C530 C532 1.378 . S
C530 C534 1.350 . S
C531 C534 1.463 . S
C531 C536 1.350 . S
C531 N539 1.427 . S
C532 H523 0.930 . S
C532 C530 1.378 . S
C532 C533 1.367 . S
C533 C532 1.367 . S
C533 C535 1.433 . S
C534 C530 1.350 . S
C534 C531 1.463 . S
C534 N538 1.427 . S
C535 H525 0.929 . S
C535 C533 1.433 . S
C535 N538 1.384 . S
C536 H527 0.929 . S
C536 C528 1.378 . S
C536 C531 1.350 . S
C537 H524 0.929 . S
C537 C529 1.433 . S
C537 N539 1.384 . S
N538 C534 1.427 . S
N538 C535 1.384 . S
N539 C531 1.427 . S
N539 C537 1.384 . S
H540 C546 0.930 . S
H541 C550 0.930 . S
H542 C555 0.929 . S
H543 C553 0.929 . S
H544 C548 0.929 . S
H545 C554 0.929 . S
C546 H540 0.930 . S
C546 C547 1.367 . S
C546 C554 1.378 . S
C547 C546 1.367 . S
C547 C555 1.433 . S
C548 H544 0.929 . S
C548 C550 1.378 . S
C548 C552 1.350 . S
C549 C552 1.463 . S
C549 C554 1.350 . S
C549 N557 1.427 . S
C550 H541 0.930 . S
C550 C548 1.378 . S
C550 C551 1.367 . S
C551 C550 1.367 . S
C551 C553 1.433 . S
C552 C548 1.350 . S
C552 C549 1.463 . S
C552 N556 1.427 . S
C553 H543 0.929 . S
C553 C551 1.433 . S
C553 N556 1.384 . S
C554 H545 0.929 . S
C554 C546 1.378 . S
C554 C549 1.350 . S
C555 H542 0.929 . S
C555 C547 1.433 . S
C555 N557 1.384 . S
N556 C552 1.427 . S
N556 C553 1.384 . S
N557 C549 1.427 . S
N557 C555 1.384 . S
H558 C564 0.930 . S
H559 C568 0.930 . S
H560 C573 0.929 . S
H561 C571 0.929 . S
H562 C566 0.929 . S
H563 C572 0.929 . S
C564 H558 0.930 . S
C564 C565 1.367 . S
C564 C572 1.378 . S
C565 C564 1.367 . S
C565 C573 1.433 . S
C566 H562 0.929 . S
C566 C568 1.378 1_545 S
C566 C570 1.350 . S
C567 C570 1.463 . S
C567 C572 1.350 . S
C567 N575 1.427 . S
C568 H559 0.930 . S
C568 C566 1.378 1_565 S
C568 C569 1.367 . S
C569 C568 1.367 . S
C569 C571 1.433 . S
C570 C566 1.350 . S
C570 C567 1.463 . S
C570 N574 1.427 . S
C571 H561 0.929 . S
C571 C569 1.433 . S
C571 N574 1.384 1_565 S
C572 H563 0.929 . S
C572 C564 1.378 . S
C572 C567 1.350 . S
C573 H560 0.929 . S
C573 C565 1.433 . S
C573 N575 1.384 . S
N574 C570 1.427 . S
N574 C571 1.384 1_545 S
N575 C567 1.427 . S
N575 C573 1.384 . S
H576 C582 0.930 . S
H577 C586 0.930 . S
H578 C591 0.929 . S
H579 C589 0.929 . S
H580 C584 0.929 . S
H581 C590 0.921 1_554 S
C582 H576 0.930 . S
C582 C583 1.367 . S
C582 C590 1.390 . S
C583 C582 1.367 . S
C583 C591 1.433 . S
C584 H580 0.929 . S
C584 C586 1.378 . S
C584 C588 1.350 . S
C585 C588 1.463 . S
C585 C590 1.345 1_554 S
C585 N593 1.427 1_554 S
C586 H577 0.930 . S
C586 C584 1.378 . S
C586 C587 1.367 . S
C587 C586 1.367 . S
C587 C589 1.433 . S
C588 C584 1.350 . S
C588 C585 1.463 . S
C588 N592 1.427 . S
C589 H579 0.929 . S
C589 C587 1.433 . S
C589 N592 1.384 . S
C590 H581 0.921 1_556 S
C590 C582 1.390 . S
C590 C585 1.345 1_556 S
C591 H578 0.929 . S
C591 C583 1.433 . S
C591 N593 1.384 . S
N592 C588 1.427 . S
N592 C589 1.384 . S
N593 C585 1.427 1_556 S
N593 C591 1.384 . S
H594 C600 0.930 . S
H595 C604 0.930 . S
H596 C609 0.929 . S
H597 C607 0.929 . S
H598 C602 0.929 . S
H599 C608 0.929 . S
C600 H594 0.930 . S
C600 C601 1.367 . S
C600 C608 1.378 . S
C601 C600 1.367 . S
C601 C609 1.433 . S
C602 H598 0.929 . S
C602 C604 1.378 . S
C602 C606 1.350 . S
C603 C606 1.463 . S
C603 C608 1.350 . S
C603 N611 1.427 . S
C604 H595 0.930 . S
C604 C602 1.378 . S
C604 C605 1.367 . S
C605 C604 1.367 . S
C605 C607 1.433 . S
C606 C602 1.350 . S
C606 C603 1.463 . S
C606 N610 1.427 . S
C607 H597 0.929 . S
C607 C605 1.433 . S
C607 N610 1.384 . S
C608 H599 0.929 . S
C608 C600 1.378 . S
C608 C603 1.350 . S
C609 H596 0.929 . S
C609 C601 1.433 . S
C609 N611 1.384 . S
N610 C606 1.427 . S
N610 C607 1.384 . S
N611 C603 1.427 . S
N611 C609 1.384 . S
H612 C618 0.930 . S
H613 C622 0.930 . S
H614 C627 0.929 . S
H615 C625 0.929 . S
H616 C620 0.929 . S
H617 C626 0.929 1_556 S
C618 H612 0.930 . S
C618 C619 1.367 . S
C618 C626 1.378 . S
C619 C618 1.367 . S
C619 C627 1.433 . S
C620 H616 0.929 . S
C620 C622 1.378 . S
C620 C624 1.350 . S
C621 C624 1.463 . S
C621 C626 1.350 1_556 S
C621 N629 1.427 1_556 S
C622 H613 0.930 . S
C622 C620 1.378 . S
C622 C623 1.367 . S
C623 C622 1.367 . S
C623 C625 1.433 . S
C624 C620 1.350 . S
C624 C621 1.463 . S
C624 N628 1.427 . S
C625 H615 0.929 . S
C625 C623 1.433 . S
C625 N628 1.384 . S
C626 H617 0.929 1_554 S
C626 C618 1.378 . S
C626 C621 1.350 1_554 S
C627 H614 0.929 . S
C627 C619 1.433 . S
C627 N629 1.384 . S
N628 C624 1.427 . S
N628 C625 1.384 . S
N629 C621 1.427 1_554 S
N629 C627 1.384 . S
H630 C636 0.930 . S
H631 C640 0.930 . S
H632 C645 0.929 . S
H633 C643 0.929 . S
H634 C638 0.929 . S
H635 C644 0.929 . S
C636 H630 0.930 . S
C636 C637 1.367 . S
C636 C644 1.378 . S
C637 C636 1.367 . S
C637 C645 1.433 . S
C638 H634 0.929 . S
C638 C640 1.378 . S
C638 C642 1.350 . S
C639 C642 1.463 . S
C639 C644 1.350 . S
C639 N647 1.427 . S
C640 H631 0.930 . S
C640 C638 1.378 . S
C640 C641 1.367 . S
C641 C640 1.367 . S
C641 C643 1.433 . S
C642 C638 1.350 . S
C642 C639 1.463 . S
C642 N646 1.427 . S
C643 H633 0.929 . S
C643 C641 1.433 . S
C643 N646 1.384 . S
C644 H635 0.929 . S
C644 C636 1.378 . S
C644 C639 1.350 . S
C645 H632 0.929 . S
C645 C637 1.433 . S
C645 N647 1.384 . S
N646 C642 1.427 . S
N646 C643 1.384 . S
N647 C639 1.427 . S
N647 C645 1.384 . S
H648 C654 0.930 . S
H649 C658 0.930 . S
H650 C663 0.929 . S
H651 C661 0.929 . S
H652 C656 0.929 . S
H653 C662 0.929 . S
C654 H648 0.930 . S
C654 C655 1.367 . S
C654 C662 1.378 . S
C655 C654 1.367 . S
C655 C663 1.433 . S
C656 H652 0.929 . S
C656 C658 1.378 . S
C656 C660 1.350 . S
C657 C660 1.463 . S
C657 C662 1.350 1_556 S
C657 N665 1.427 . S
C658 H649 0.930 . S
C658 C656 1.378 . S
C658 C659 1.367 . S
C659 C658 1.367 . S
C659 C661 1.433 . S
C660 C656 1.350 . S
C660 C657 1.463 . S
C660 N664 1.427 . S
C661 H651 0.929 . S
C661 C659 1.433 . S
C661 N664 1.384 . S
C662 H653 0.929 . S
C662 C654 1.378 . S
C662 C657 1.350 1_554 S
C663 H650 0.929 . S
C663 C655 1.433 . S
C663 N665 1.384 1_554 S
N664 C660 1.427 . S
N664 C661 1.384 . S
N665 C657 1.427 . S
N665 C663 1.384 1_556 S
H666 C672 0.930 . S
H667 C676 0.930 . S
H668 C681 0.929 . S
H669 C679 0.929 . S
H670 C674 0.929 . S
H671 C680 0.929 . S
C672 H666 0.930 . S
C672 C673 1.367 . S
C672 C680 1.378 . S
C673 C672 1.367 . S
C673 C681 1.433 . S
C674 H670 0.929 . S
C674 C676 1.378 . S
C674 C678 1.350 . S
C675 C678 1.463 . S
C675 C680 1.350 . S
C675 N683 1.427 . S
C676 H667 0.930 . S
C676 C674 1.378 . S
C676 C677 1.367 . S
C677 C676 1.367 . S
C677 C679 1.433 . S
C678 C674 1.350 . S
C678 C675 1.463 . S
C678 N682 1.427 . S
C679 H669 0.929 . S
C679 C677 1.433 . S
C679 N682 1.384 . S
C680 H671 0.929 . S
C680 C672 1.378 . S
C680 C675 1.350 . S
C681 H668 0.929 . S
C681 C673 1.433 . S
C681 N683 1.384 . S
N682 C678 1.427 . S
N682 C679 1.384 . S
N683 C675 1.427 . S
N683 C681 1.384 . S
H684 C690 0.930 . S
H685 C694 0.930 . S
H686 C699 0.929 . S
H687 C697 0.929 . S
H688 C692 0.929 . S
H689 C698 0.929 . S
C690 H684 0.930 . S
C690 C691 1.367 . S
C690 C698 1.378 . S
C691 C690 1.367 . S
C691 C699 1.433 . S
C692 H688 0.929 . S
C692 C694 1.378 . S
C692 C696 1.350 . S
C693 C696 1.463 . S
C693 C698 1.350 1_554 S
C693 N701 1.427 . S
C694 H685 0.930 . S
C694 C692 1.378 . S
C694 C695 1.367 . S
C695 C694 1.367 . S
C695 C697 1.433 . S
C696 C692 1.350 . S
C696 C693 1.463 . S
C696 N700 1.427 . S
C697 H687 0.929 . S
C697 C695 1.433 . S
C697 N700 1.384 . S
C698 H689 0.929 . S
C698 C690 1.378 . S
C698 C693 1.350 1_556 S
C699 H686 0.929 . S
C699 C691 1.433 . S
C699 N701 1.384 1_556 S
N700 C696 1.427 . S
N700 C697 1.384 . S
N701 C693 1.427 . S
N701 C699 1.384 1_554 S
H702 C708 0.930 . S
H703 C712 0.930 . S
H704 C717 0.929 . S
H705 C715 0.929 . S
H706 C710 0.929 . S
H707 C716 0.929 . S
C708 H702 0.930 . S
C708 C709 1.367 . S
C708 C716 1.378 . S
C709 C708 1.367 . S
C709 C717 1.433 . S
C710 H706 0.929 . S
C710 C712 1.378 . S
C710 C714 1.350 . S
C711 C714 1.463 . S
C711 C716 1.350 . S
C711 N719 1.427 . S
C712 H703 0.930 . S
C712 C710 1.378 . S
C712 C713 1.367 . S
C713 C712 1.367 . S
C713 C715 1.433 . S
C714 C710 1.350 . S
C714 C711 1.463 . S
C714 N718 1.427 . S
C715 H705 0.929 . S
C715 C713 1.433 . S
C715 N718 1.384 . S
C716 H707 0.929 . S
C716 C708 1.378 . S
C716 C711 1.350 . S
C717 H704 0.929 . S
C717 C709 1.433 . S
C717 N719 1.384 . S
N718 C714 1.427 . S
N718 C715 1.384 . S
N719 C711 1.427 . S
N719 C717 1.384 . S
H720 C726 0.930 . S
H721 C730 0.930 . S
H722 C735 0.929 . S
H723 C733 0.929 . S
H724 C728 0.929 . S
H725 C734 0.929 . S
C726 H720 0.930 . S
C726 C727 1.367 . S
C726 C734 1.378 . S
C727 C726 1.367 . S
C727 C735 1.433 . S
C728 H724 0.929 . S
C728 C730 1.378 . S
C728 C732 1.350 . S
C729 C732 1.463 . S
C729 C734 1.350 . S
C729 N737 1.427 . S
C730 H721 0.930 . S
C730 C728 1.378 . S
C730 C731 1.367 . S
C731 C730 1.367 . S
C731 C733 1.433 . S
C732 C728 1.350 . S
C732 C729 1.463 . S
C732 N736 1.427 . S
C733 H723 0.929 . S
C733 C731 1.433 . S
C733 N736 1.384 . S
C734 H725 0.929 . S
C734 C726 1.378 . S
C734 C729 1.350 . S
C735 H722 0.929 . S
C735 C727 1.433 . S
C735 N737 1.384 . S
N736 C732 1.427 . S
N736 C733 1.384 . S
N737 C729 1.427 . S
N737 C735 1.384 . S
H738 C744 0.930 . S
H739 C748 0.930 . S
H740 C753 0.929 . S
H741 C751 0.929 . S
H742 C746 0.929 . S
H743 C752 0.929 . S
C744 H738 0.930 . S
C744 C745 1.367 . S
C744 C752 1.378 . S
C745 C744 1.367 . S
C745 C753 1.433 . S
C746 H742 0.929 . S
C746 C748 1.378 . S
C746 C750 1.350 . S
C747 C750 1.463 . S
C747 C752 1.350 . S
C747 N755 1.427 . S
C748 H739 0.930 . S
C748 C746 1.378 . S
C748 C749 1.367 . S
C749 C748 1.367 . S
C749 C751 1.433 . S
C750 C746 1.350 . S
C750 C747 1.463 . S
C750 N754 1.427 . S
C751 H741 0.929 . S
C751 C749 1.433 . S
C751 N754 1.384 . S
C752 H743 0.929 . S
C752 C744 1.378 . S
C752 C747 1.350 . S
C753 H740 0.929 . S
C753 C745 1.433 . S
C753 N755 1.384 . S
N754 C750 1.427 . S
N754 C751 1.384 . S
N755 C747 1.427 . S
N755 C753 1.384 . S
H756 C762 0.930 . S
H757 C766 0.930 . S
H758 C771 0.929 . S
H759 C769 0.929 . S
H760 C764 0.929 . S
H761 C770 0.929 . S
C762 H756 0.930 . S
C762 C763 1.367 . S
C762 C770 1.378 . S
C763 C762 1.367 . S
C763 C771 1.433 . S
C764 H760 0.929 . S
C764 C766 1.378 . S
C764 C768 1.350 . S
C765 C768 1.463 . S
C765 C770 1.350 . S
C765 N773 1.427 . S
C766 H757 0.930 . S
C766 C764 1.378 . S
C766 C767 1.367 . S
C767 C766 1.367 . S
C767 C769 1.433 . S
C768 C764 1.350 . S
C768 C765 1.463 . S
C768 N772 1.427 . S
C769 H759 0.929 . S
C769 C767 1.433 . S
C769 N772 1.384 . S
C770 H761 0.929 . S
C770 C762 1.378 . S
C770 C765 1.350 . S
C771 H758 0.929 . S
C771 C763 1.433 . S
C771 N773 1.384 . S
N772 C768 1.427 . S
N772 C769 1.384 . S
N773 C765 1.427 . S
N773 C771 1.384 . S
H774 C780 0.930 . S
H775 C784 0.930 . S
H776 C789 0.929 . S
H777 C787 0.929 . S
H778 C782 0.929 . S
H779 C788 0.929 . S
C780 H774 0.930 . S
C780 C781 1.367 . S
C780 C788 1.378 . S
C781 C780 1.367 . S
C781 C789 1.433 . S
C782 H778 0.929 . S
C782 C784 1.378 . S
C782 C786 1.350 . S
C783 C786 1.463 . S
C783 C788 1.350 . S
C783 N791 1.427 . S
C784 H775 0.930 . S
C784 C782 1.378 . S
C784 C785 1.367 . S
C785 C784 1.367 . S
C785 C787 1.433 . S
C786 C782 1.350 . S
C786 C783 1.463 . S
C786 N790 1.427 . S
C787 H777 0.929 . S
C787 C785 1.433 . S
C787 N790 1.384 . S
C788 H779 0.929 . S
C788 C780 1.378 . S
C788 C783 1.350 . S
C789 H776 0.929 . S
C789 C781 1.433 . S
C789 N791 1.384 . S
N790 C786 1.427 . S
N790 C787 1.384 . S
N791 C783 1.427 . S
N791 C789 1.384 . S
H792 C798 0.930 . S
H793 C802 0.930 . S
H794 C807 0.929 . S
H795 C805 0.929 . S
H796 C800 0.929 . S
H797 C806 0.929 . S
C798 H792 0.930 . S
C798 C799 1.367 . S
C798 C806 1.378 . S
C799 C798 1.367 . S
C799 C807 1.433 . S
C800 H796 0.929 . S
C800 C802 1.378 . S
C800 C804 1.350 . S
C801 C804 1.463 . S
C801 C806 1.350 . S
C801 N809 1.427 . S
C802 H793 0.930 . S
C802 C800 1.378 . S
C802 C803 1.367 . S
C803 C802 1.367 . S
C803 C805 1.433 . S
C804 C800 1.350 . S
C804 C801 1.463 . S
C804 N808 1.427 . S
C805 H795 0.929 . S
C805 C803 1.433 . S
C805 N808 1.384 . S
C806 H797 0.929 . S
C806 C798 1.378 . S
C806 C801 1.350 . S
C807 H794 0.929 . S
C807 C799 1.433 . S
C807 N809 1.384 . S
N808 C804 1.427 . S
N808 C805 1.384 . S
N809 C801 1.427 . S
N809 C807 1.384 . S
H810 C816 0.930 . S
H811 C820 0.930 . S
H812 C825 0.929 . S
H813 C823 0.929 . S
H814 C818 0.929 . S
H815 C824 0.929 . S
C816 H810 0.930 . S
C816 C817 1.367 . S
C816 C824 1.378 . S
C817 C816 1.367 . S
C817 C825 1.433 . S
C818 H814 0.929 . S
C818 C820 1.378 . S
C818 C822 1.350 . S
C819 C822 1.463 . S
C819 C824 1.350 . S
C819 N827 1.427 . S
C820 H811 0.930 . S
C820 C818 1.378 . S
C820 C821 1.367 . S
C821 C820 1.367 . S
C821 C823 1.433 . S
C822 C818 1.350 . S
C822 C819 1.463 . S
C822 N826 1.427 . S
C823 H813 0.929 . S
C823 C821 1.433 . S
C823 N826 1.384 . S
C824 H815 0.929 . S
C824 C816 1.378 . S
C824 C819 1.350 . S
C825 H812 0.929 . S
C825 C817 1.433 . S
C825 N827 1.384 . S
N826 C822 1.427 . S
N826 C823 1.384 . S
N827 C819 1.427 . S
N827 C825 1.384 . S
H828 C834 0.930 . S
H829 C838 0.930 . S
H830 C843 0.929 . S
H831 C841 0.929 . S
H832 C836 0.929 . S
H833 C842 0.929 . S
C834 H828 0.930 . S
C834 C835 1.367 . S
C834 C842 1.378 . S
C835 C834 1.367 . S
C835 C843 1.433 . S
C836 H832 0.929 . S
C836 C838 1.378 . S
C836 C840 1.350 . S
C837 C840 1.463 . S
C837 C842 1.350 . S
C837 N845 1.427 . S
C838 H829 0.930 . S
C838 C836 1.378 . S
C838 C839 1.367 . S
C839 C838 1.367 . S
C839 C841 1.433 . S
C840 C836 1.350 . S
C840 C837 1.463 . S
C840 N844 1.427 . S
C841 H831 0.929 . S
C841 C839 1.433 . S
C841 N844 1.384 . S
C842 H833 0.929 . S
C842 C834 1.378 . S
C842 C837 1.350 . S
C843 H830 0.929 . S
C843 C835 1.433 . S
C843 N845 1.384 . S
N844 C840 1.427 . S
N844 C841 1.384 . S
N845 C837 1.427 . S
N845 C843 1.384 . S
H846 C852 0.930 . S
H847 C856 0.930 . S
H848 C861 0.929 . S
H849 C859 0.929 . S
H850 C854 0.929 . S
H851 C860 0.929 . S
C852 H846 0.930 . S
C852 C853 1.367 . S
C852 C860 1.378 . S
C853 C852 1.367 . S
C853 C861 1.433 . S
C854 H850 0.929 . S
C854 C856 1.378 . S
C854 C858 1.350 . S
C855 C858 1.463 . S
C855 C860 1.350 . S
C855 N863 1.427 . S
C856 H847 0.930 . S
C856 C854 1.378 . S
C856 C857 1.367 . S
C857 C856 1.367 . S
C857 C859 1.433 . S
C858 C854 1.350 . S
C858 C855 1.463 . S
C858 N862 1.427 . S
C859 H849 0.929 . S
C859 C857 1.433 . S
C859 N862 1.384 . S
C860 H851 0.929 . S
C860 C852 1.378 . S
C860 C855 1.350 . S
C861 H848 0.929 . S
C861 C853 1.433 . S
C861 N863 1.384 . S
N862 C858 1.427 . S
N862 C859 1.384 . S
N863 C855 1.427 . S
N863 C861 1.384 . S
C439 C81 1.686 . S
C443 C152 1.671 . S
C461 C236 1.671 . S
C457 C93 1.686 . S
C479 C235 1.677 . S
C475 C57 1.678 . S
C493 C69 1.676 . S
C497 C151 1.674 . S
C515 C332 1.663 . S
C511 C33 1.678 . S
C533 C416 1.663 . S
C529 C45 1.678 . S
C547 C9 1.672 . S
C551 C415 1.676 . S
C565 C21 1.671 . S
C569 C331 1.674 . S
C587 C154 1.463 . S
C583 C18 1.612 . S
C605 C238 1.445 . S
C601 C6 1.610 . S
C623 C250 1.401 . S
C619 C42 1.619 . S
C641 C166 1.395 . S
C637 C30 1.614 . S
C659 C334 1.452 . S
C655 C66 1.616 . S
C673 C54 1.619 . S
C677 C418 1.448 . S
C695 C406 1.389 . S
C691 C90 1.622 . S
C709 C78 1.625 . S
C713 C322 1.412 . S
C731 C163 1.540 . S
C727 C4 1.520 . S
C749 C247 1.539 . S
C745 C16 1.527 . S
C763 C28 1.514 . S
C767 C248 1.513 . S
C785 C164 1.513 . S
C781 C40 1.514 . S
C803 C319 1.538 . S
C799 C52 1.519 . S
C817 C64 1.521 . S
C821 C403 1.540 . S
C835 C76 1.514 . S
C839 C404 1.505 . S
C853 C88 1.515 . S
C857 C320 1.504 . S
