# Generated by pormake.
# Topology zzz, (3,6)-cn, num edge types: 1
# Building blocks:
#     Node 0, Type 0, BuildingBlock: BETDIP_clean_linker_0, # of connection points: 3
#     Node 1, Type 0, BuildingBlock: BETDIP_clean_linker_0, # of connection points: 3
#     Node 2, Type 0, BuildingBlock: BETDIP_clean_linker_0, # of connection points: 3
#     Node 3, Type 0, BuildingBlock: BETDIP_clean_linker_0, # of connection points: 3
#     Node 4, Type 0, BuildingBlock: BETDIP_clean_linker_0, # of connection points: 3
#     Node 5, Type 0, BuildingBlock: BETDIP_clean_linker_0, # of connection points: 3
#     Node 6, Type 0, BuildingBlock: BETDIP_clean_linker_0, # of connection points: 3
#     Node 7, Type 0, BuildingBlock: BETDIP_clean_linker_0, # of connection points: 3
#     Node 8, Type 1, BuildingBlock: FUNLAD_clean_sbu_0, # of connection points: 6
#     Node 9, Type 1, BuildingBlock: FUNLAD_clean_sbu_0, # of connection points: 6
#     Node 10, Type 1, BuildingBlock: FUNLAD_clean_sbu_0, # of connection points: 6
#     Node 11, Type 1, BuildingBlock: FUNLAD_clean_sbu_0, # of connection points: 6
#     Edge 12, Type (0, 1), BuildingBlock: KIFKEQ_clean_linker_1, # of connection points: 2
#     Edge 13, Type (0, 1), BuildingBlock: KIFKEQ_clean_linker_1, # of connection points: 2
#     Edge 14, Type (0, 1), BuildingBlock: KIFKEQ_clean_linker_1, # of connection points: 2
#     Edge 15, Type (0, 1), BuildingBlock: KIFKEQ_clean_linker_1, # of connection points: 2
#     Edge 16, Type (0, 1), BuildingBlock: KIFKEQ_clean_linker_1, # of connection points: 2
#     Edge 17, Type (0, 1), BuildingBlock: KIFKEQ_clean_linker_1, # of connection points: 2
#     Edge 18, Type (0, 1), BuildingBlock: KIFKEQ_clean_linker_1, # of connection points: 2
#     Edge 19, Type (0, 1), BuildingBlock: KIFKEQ_clean_linker_1, # of connection points: 2
#     Edge 20, Type (0, 1), BuildingBlock: KIFKEQ_clean_linker_1, # of connection points: 2
#     Edge 21, Type (0, 1), BuildingBlock: KIFKEQ_clean_linker_1, # of connection points: 2
#     Edge 22, Type (0, 1), BuildingBlock: KIFKEQ_clean_linker_1, # of connection points: 2
#     Edge 23, Type (0, 1), BuildingBlock: KIFKEQ_clean_linker_1, # of connection points: 2
#     Edge 24, Type (0, 1), BuildingBlock: KIFKEQ_clean_linker_1, # of connection points: 2
#     Edge 25, Type (0, 1), BuildingBlock: KIFKEQ_clean_linker_1, # of connection points: 2
#     Edge 26, Type (0, 1), BuildingBlock: KIFKEQ_clean_linker_1, # of connection points: 2
#     Edge 27, Type (0, 1), BuildingBlock: KIFKEQ_clean_linker_1, # of connection points: 2
#     Edge 28, Type (0, 1), BuildingBlock: KIFKEQ_clean_linker_1, # of connection points: 2
#     Edge 29, Type (0, 1), BuildingBlock: KIFKEQ_clean_linker_1, # of connection points: 2
#     Edge 30, Type (0, 1), BuildingBlock: KIFKEQ_clean_linker_1, # of connection points: 2
#     Edge 31, Type (0, 1), BuildingBlock: KIFKEQ_clean_linker_1, # of connection points: 2
#     Edge 32, Type (0, 1), BuildingBlock: KIFKEQ_clean_linker_1, # of connection points: 2
#     Edge 33, Type (0, 1), BuildingBlock: KIFKEQ_clean_linker_1, # of connection points: 2
#     Edge 34, Type (0, 1), BuildingBlock: KIFKEQ_clean_linker_1, # of connection points: 2
#     Edge 35, Type (0, 1), BuildingBlock: KIFKEQ_clean_linker_1, # of connection points: 2
# Relax obj value: 0.118
# Max RMSD: 0.175
# Mean RMSD: 0.091
data_MOF--net-zzz--node1-FUNLAD_clean_sbu_0--node2-BETDIP_clean_linker_0--edge1-KIFKEQ_clean_linker_1
_symmetry_space_group_name_H-M    P1
_symmetry_Int_Tables_number       1
_symmetry_cell_setting            triclinic
loop_
_symmetry_equiv_pos_as_xyz
'x, y, z'
_cell_length_a     52.338855
_cell_length_b     58.128775
_cell_length_c     17.617441
_cell_angle_alpha  85.135589
_cell_angle_beta   84.596355
_cell_angle_gamma 89.935225
loop_
_atom_site_label
_atom_site_type_symbol
_atom_site_fract_x
_atom_site_fract_y
_atom_site_fract_z
_atom_type_partial_charge
H0 H 0.7922 0.50174 0.37593 0.0
H1 H 0.80862 0.4816 0.1468 0.0
H2 H 0.866 0.47396 0.30601 0.0
H3 H 0.78446 0.52526 0.14994 0.0
C4 C 0.76928 0.51325 0.17366 0.0
C5 C 0.80504 0.49412 0.33323 0.0
C6 C 0.82986 0.48751 0.3497 0.0
C7 C 0.79735 0.49192 0.25988 0.0
C8 C 0.81449 0.48297 0.20364 0.0
C9 C 0.83917 0.47607 0.22019 0.0
C10 C 0.84651 0.47811 0.29369 0.0
N11 N 0.77261 0.49917 0.24189 0.0
H12 H 0.95543 0.76779 0.24237 0.0
H13 H 0.99785 0.78659 0.02351 0.0
H14 H 0.99011 0.83503 0.19458 0.0
H15 H 0.96515 0.76249 0.98752 0.0
C16 C 0.96838 0.74814 0.02917 0.0
C17 C 0.96658 0.78025 0.20355 0.0
C18 C 0.9717 0.80218 0.22634 0.0
C19 C 0.97547 0.77464 0.12955 0.0
C20 C 0.99027 0.7909 0.07983 0.0
C21 C 0.996 0.81258 0.1036 0.0
C22 C 0.98641 0.81805 0.17648 0.0
N23 N 0.97008 0.75241 0.10682 0.0
H24 H 0.7562 0.99585 0.27118 0.0
H25 H 0.74851 0.00556 0.02826 0.0
H26 H 0.68335 0.01398 0.18956 0.0
H27 H 0.77918 0.97342 0.04037 0.0
C28 C 0.79223 0.98394 0.06759 0.0
C29 C 0.74459 1.0 0.22417 0.0
C30 C 0.71834 0.00509 0.23918 0.0
C31 C 0.75572 1.00005 0.14779 0.0
C32 C 0.74029 0.00527 0.08711 0.0
C33 C 0.71434 0.01079 0.10229 0.0
C34 C 0.70368 0.01057 0.17798 0.0
N35 N 0.78243 0.99547 0.13236 0.0
H36 H 0.53911 0.70701 0.25913 0.0
H37 H 0.51299 0.69738 0.03845 0.0
H38 H 0.50764 0.64172 0.21493 0.0
H39 H 0.54513 0.72405 0.0015 0.0
C40 C 0.54019 0.7365 0.04309 0.0
C41 C 0.53056 0.69626 0.22088 0.0
C42 C 0.5233 0.67338 0.24607 0.0
C43 C 0.52698 0.70516 0.14573 0.0
C44 C 0.5161 0.69087 0.09623 0.0
C45 C 0.50891 0.66805 0.12119 0.0
C46 C 0.51234 0.65961 0.19618 0.0
N47 N 0.53398 0.72851 0.12136 0.0
H48 H 0.25049 0.51024 0.05895 0.0
H49 H 0.23281 0.541 0.272 0.0
H50 H 0.17245 0.52593 0.13497 0.0
H51 H 0.27445 0.55865 0.22417 0.0
C52 C 0.2827 0.54151 0.22203 0.0
C53 C 0.2367 0.5174 0.10018 0.0
C54 C 0.21047 0.5175 0.08905 0.0
C55 C 0.24501 0.52644 0.16538 0.0
C56 C 0.22679 0.53504 0.2198 0.0
C57 C 0.20063 0.53503 0.20891 0.0
C58 C 0.19275 0.52653 0.14297 0.0
N59 N 0.27138 0.52537 0.17868 0.0
H60 H 0.08165 0.23384 0.17865 0.0
H61 H 0.04992 0.21029 0.40714 0.0
H62 H 0.07321 0.16133 0.24597 0.0
H63 H 0.02487 0.24371 0.37687 0.0
C64 C 0.04136 0.25516 0.36277 0.0
C65 C 0.07653 0.21992 0.22228 0.0
C66 C 0.07968 0.19686 0.20514 0.0
C67 C 0.06567 0.22491 0.29519 0.0
C68 C 0.05808 0.20666 0.35066 0.0
C69 C 0.0611 0.18365 0.33353 0.0
C70 C 0.0721 0.17904 0.26107 0.0
N71 N 0.06212 0.24828 0.31179 0.0
H72 H 0.28447 0.99961 0.16968 0.0
H73 H 0.29937 0.99197 0.40822 0.0
H74 H 0.36181 0.99933 0.23299 0.0
H75 H 0.26229 0.97147 0.41891 0.0
C76 C 0.25042 0.98284 0.38503 0.0
C77 C 0.29773 0.99817 0.21344 0.0
C78 C 0.3244 0.99992 0.19249 0.0
C79 C 0.2883 0.9946 0.29163 0.0
C80 C 0.30597 0.9934 0.34791 0.0
C81 C 0.33238 0.99535 0.3266 0.0
C82 C 0.34128 0.99813 0.24931 0.0
N83 N 0.26123 0.99341 0.31301 0.0
H84 H 0.51107 0.2939 0.16116 0.0
H85 H 0.52664 0.31013 0.38773 0.0
H86 H 0.5096 0.36417 0.22055 0.0
H87 H 0.54822 0.2774 0.38654 0.0
C88 C 0.53588 0.26598 0.36042 0.0
C89 C 0.51287 0.30631 0.20293 0.0
C90 C 0.50918 0.32996 0.1829 0.0
C91 C 0.51942 0.29878 0.27688 0.0
C92 C 0.52221 0.31529 0.33004 0.0
C93 C 0.51861 0.33877 0.30969 0.0
C94 C 0.51185 0.34588 0.23672 0.0
N95 N 0.52259 0.2747 0.29713 0.0
C96 C 0.0358 0.96104 0.81142 0.0
N97 N 1.00382 0.96584 0.60426 0.0
C98 C 0.02084 0.9486 0.59116 0.0
C99 C 0.0138 0.92941 0.55586 0.0
C100 C 0.98899 0.92779 0.53253 0.0
C101 C 0.97196 0.94618 0.54433 0.0
C102 C 0.9798 0.96515 0.58075 0.0
Zn103 Zn 0.01486 0.9894 0.67502 0.0
C104 C 0.97286 0.99695 0.79913 0.0
N105 N 0.04007 0.03234 0.8377 0.0
C106 C 0.06433 0.03355 0.85906 0.0
C107 C 0.02289 0.04945 0.85099 0.0
C108 C 0.03004 0.06909 0.88387 0.0
C109 C 0.05514 0.07132 0.90441 0.0
C110 C 0.0723 0.05299 0.89294 0.0
Zn111 Zn 0.02901 0.00853 0.7674 0.0
O112 O 0.02602 0.96134 0.74812 0.0
C113 C 0.07094 1.00067 0.64274 0.0
O114 O 0.03985 0.97996 0.83978 0.0
H115 H 1.0039 0.04856 0.83203 0.0
H116 H 0.03965 0.94912 0.61155 0.0
H117 H 0.07782 0.01992 0.84707 0.0
O118 O 0.05237 0.9911 0.61567 0.0
O119 O 0.06684 0.00957 0.70637 0.0
H120 H 0.96645 0.9789 0.59255 0.0
O121 O 0.01794 0.03666 0.69388 0.0
O122 O 1.0043 0.01778 0.60258 0.0
O123 O 0.99119 0.00666 0.82705 0.0
O124 O 0.97729 0.98825 0.73532 0.0
C125 C 0.00849 0.03678 0.63009 0.0
H126 H 0.02747 0.91554 0.54985 0.0
H127 H 0.95272 0.9458 0.52661 0.0
H128 H 0.01623 0.08286 0.88979 0.0
H129 H 0.09176 0.0538 0.90868 0.0
C130 C 0.48664 0.99497 0.62411 0.0
N131 N 0.52105 0.05654 0.67089 0.0
C132 C 0.52012 0.06141 0.59417 0.0
C133 C 0.51983 0.08422 0.56245 0.0
C134 C 0.52112 0.10233 0.60962 0.0
C135 C 0.52231 0.09695 0.68851 0.0
C136 C 0.52202 0.07379 0.71825 0.0
Zn137 Zn 0.52194 0.02215 0.71081 0.0
C138 C 0.48012 0.00783 0.82917 0.0
N139 N 0.52409 0.94939 0.77481 0.0
C140 C 0.52797 0.93268 0.7254 0.0
C141 C 0.5217 0.94395 0.85187 0.0
C142 C 0.52319 0.92104 0.882 0.0
C143 C 0.52738 0.90341 0.83258 0.0
C144 C 0.52976 0.90948 0.75319 0.0
Zn145 Zn 0.52271 0.98378 0.73626 0.0
O146 O 0.49566 0.01464 0.63393 0.0
C147 C 0.56451 0.9984 0.61794 0.0
O148 O 0.49553 0.97699 0.65833 0.0
H149 H 0.51889 0.95747 0.89032 0.0
H150 H 0.51991 0.04757 0.55698 0.0
H151 H 0.52983 0.93735 0.66437 0.0
O152 O 0.55405 0.01765 0.63044 0.0
O153 O 0.55454 0.9799 0.65193 0.0
H154 H 0.52279 0.06961 0.77898 0.0
O155 O 0.54977 0.99126 0.81339 0.0
O156 O 0.54823 0.0289 0.78919 0.0
O157 O 0.4909 0.98852 0.81918 0.0
O158 O 0.48974 0.02608 0.79235 0.0
C159 C 0.55785 0.01131 0.82344 0.0
H160 H 0.51929 0.08766 0.50122 0.0
H161 H 0.52331 0.1105 0.72672 0.0
H162 H 0.52161 0.91723 0.94352 0.0
H163 H 0.53278 0.89643 0.71297 0.0
C164 C 0.53781 0.47487 0.6064 0.0
N165 N 0.46602 0.5051 0.65081 0.0
C166 C 0.46885 0.50943 0.57332 0.0
C167 C 0.44758 0.51055 0.53146 0.0
C168 C 0.42289 0.50728 0.56923 0.0
C169 C 0.42034 0.50306 0.64945 0.0
C170 C 0.44233 0.50194 0.68939 0.0
Zn171 Zn 0.49956 0.50352 0.70278 0.0
C172 C 0.50519 0.46241 0.80624 0.0
N173 N 0.57378 0.50047 0.78376 0.0
C174 C 0.59729 0.5017 0.7434 0.0
C175 C 0.57144 0.49863 0.86159 0.0
C176 C 0.59306 0.49859 0.90192 0.0
C177 C 0.61768 0.49984 0.86234 0.0
C178 C 0.6196 0.50126 0.78172 0.0
Zn179 Zn 0.5401 0.50171 0.73267 0.0
O180 O 0.51525 0.48287 0.6164 0.0
C181 C 0.53449 0.54283 0.62942 0.0
O182 O 0.55466 0.48012 0.64943 0.0
H183 H 0.55265 0.49743 0.89292 0.0
H184 H 0.48776 0.51208 0.54347 0.0
H185 H 0.59875 0.50306 0.68153 0.0
O186 O 0.51192 0.53441 0.63751 0.0
O187 O 0.55238 0.53207 0.66112 0.0
H188 H 0.4405 0.49851 0.75099 0.0
O189 O 0.52467 0.52357 0.81571 0.0
O190 O 0.48458 0.5242 0.78885 0.0
O191 O 0.52751 0.47133 0.80143 0.0
O192 O 0.48768 0.47261 0.77105 0.0
C193 C 0.5019 0.5309 0.82807 0.0
H194 H 0.45047 0.51435 0.46998 0.0
H195 H 0.40162 0.50041 0.68079 0.0
H196 H 0.5903 0.49803 0.9637 0.0
H197 H 0.63808 0.50191 0.74841 0.0
C198 C 0.0504 0.51723 0.5899 0.0
N199 N 0.02944 0.44919 0.66573 0.0
C200 C 0.0249 0.44757 0.59155 0.0
C201 C 0.02711 0.42649 0.55949 0.0
C202 C 0.03427 0.40677 0.60375 0.0
C203 C 0.03945 0.40892 0.67971 0.0
C204 C 0.03677 0.43043 0.70992 0.0
Zn205 Zn 0.02435 0.4811 0.70615 0.0
C206 C 0.06651 0.49596 0.78958 0.0
N207 N 0.01303 0.54972 0.77105 0.0
C208 C 1.00568 0.5676 0.72319 0.0
C209 C 0.01605 0.55249 0.84563 0.0
C210 C 0.01129 0.57379 0.87503 0.0
C211 C 1.0034 0.59251 0.82724 0.0
C212 C 1.0008 0.58926 0.75018 0.0
Zn213 Zn 0.01849 0.51765 0.73279 0.0
O214 O 0.04638 0.4958 0.60756 0.0
C215 C 0.97636 0.50279 0.64924 0.0
O216 O 0.03994 0.53179 0.63262 0.0
H217 H 0.02196 0.53807 0.88271 0.0
H218 H 0.01938 0.46268 0.55696 0.0
H219 H 1.00329 0.56499 0.66421 0.0
O220 O 0.99011 0.48477 0.65143 0.0
O221 O 0.98376 0.52052 0.67885 0.0
H222 H 0.04032 0.4321 0.7687 0.0
O223 O 0.99731 0.50305 0.83238 0.0
O224 O 1.0021 0.46699 0.80564 0.0
O225 O 0.05316 0.51426 0.78581 0.0
O226 O 0.05862 0.478 0.76211 0.0
C227 C 0.99257 0.48171 0.84949 0.0
H228 H 0.02333 0.42566 0.50037 0.0
H229 H 0.04493 0.39405 0.71577 0.0
H230 H 0.01388 0.57561 0.9345 0.0
H231 H 0.99452 0.60316 0.71152 0.0
H232 H 0.21037 0.0052 0.31718 0.0
H233 H 0.23057 0.97032 0.52903 0.0
H234 H 0.16682 0.01148 0.37718 0.0
H235 H 0.18752 0.9767 0.58878 0.0
H236 H 0.1167 0.01182 0.69519 0.0
H237 H 0.15983 0.00941 0.62985 0.0
H238 H 0.12774 0.98714 0.4312 0.0
H239 H 0.0846 0.98944 0.49649 0.0
C240 C 0.20555 0.99896 0.37646 0.0
C241 C 0.22388 0.98726 0.41847 0.0
C242 C 0.18062 0.00248 0.41079 0.0
C243 C 0.17372 0.99472 0.48802 0.0
C244 C 0.19223 0.9832 0.52967 0.0
C245 C 0.21687 0.97941 0.49523 0.0
C246 C 0.11879 0.00658 0.63739 0.0
C247 C 0.09713 1.00069 0.6014 0.0
C248 C 0.14354 0.0051 0.60002 0.0
C249 C 0.14727 0.99799 0.52533 0.0
C250 C 0.12557 0.99284 0.48841 0.0
C251 C 0.10083 0.99403 0.52613 0.0
H252 H 0.51653 0.22797 0.30042 0.0
H253 H 0.54761 0.25009 0.50062 0.0
H254 H 0.51281 0.1885 0.36069 0.0
H255 H 0.5425 0.21127 0.56307 0.0
H256 H 0.55587 0.13572 0.62851 0.0
H257 H 0.55933 0.17476 0.56635 0.0
H258 H 0.49113 0.16298 0.45358 0.0
H259 H 0.48877 0.12346 0.51294 0.0
C260 C 0.52228 0.2244 0.35768 0.0
C261 C 0.53249 0.24201 0.39579 0.0
C262 C 0.51999 0.2018 0.39268 0.0
C263 C 0.52745 0.19643 0.46707 0.0
C264 C 0.53716 0.21437 0.50523 0.0
C265 C 0.5399 0.23675 0.46971 0.0
C266 C 0.54156 0.14161 0.5908 0.0
C267 C 0.52204 0.12662 0.5757 0.0
C268 C 0.54342 0.16407 0.5552 0.0
C269 C 0.52545 0.17232 0.5047 0.0
C270 C 0.50565 0.15728 0.49071 0.0
C271 C 0.50411 0.13466 0.52525 0.0
H272 H 0.30603 0.49925 0.24506 0.0
H273 H 0.30472 0.56878 0.31404 0.0
H274 H 0.33802 0.48878 0.33447 0.0
H275 H 0.33695 0.55855 0.40215 0.0
H276 H 0.37741 0.5293 0.60279 0.0
H277 H 0.34233 0.5357 0.52141 0.0
H278 H 0.38271 0.49639 0.35092 0.0
H279 H 0.41723 0.48932 0.43332 0.0
C280 C 0.31272 0.51232 0.27892 0.0
C281 C 0.30299 0.53487 0.27255 0.0
C282 C 0.33105 0.50635 0.3301 0.0
C283 C 0.33993 0.52279 0.37593 0.0
C284 C 0.3302 0.54534 0.36891 0.0
C285 C 0.31195 0.55128 0.31785 0.0
C286 C 0.37852 0.52164 0.54865 0.0
C287 C 0.40021 0.509 0.52421 0.0
C288 C 0.35858 0.52552 0.50157 0.0
C289 C 0.35986 0.5168 0.42915 0.0
C290 C 0.38103 0.50328 0.40636 0.0
C291 C 0.40094 0.49943 0.45332 0.0
H292 H 0.08056 0.28709 0.3576 0.0
H293 H 1.00175 0.27349 0.44553 0.0
H294 H 0.07931 0.32362 0.41794 0.0
H295 H 1.00047 0.30985 0.50561 0.0
H296 H 0.9994 0.38818 0.5209 0.0
H297 H 1.002 0.35177 0.46151 0.0
H298 H 0.0748 0.33761 0.55196 0.0
H299 H 0.07231 0.37438 0.61104 0.0
C300 C 0.06298 0.29196 0.38952 0.0
C301 C 0.04116 0.27759 0.39658 0.0
C302 C 0.06232 0.31275 0.42451 0.0
C303 C 0.03977 0.31959 0.46635 0.0
C304 C 0.01802 0.30516 0.47307 0.0
C305 C 0.01876 0.28435 0.43885 0.0
C306 C 0.01601 0.37734 0.52794 0.0
C307 C 0.03569 0.38414 0.57047 0.0
C308 C 0.01741 0.35642 0.49436 0.0
C309 C 0.0386 0.34185 0.50205 0.0
C310 C 0.05833 0.3486 0.54459 0.0
C311 C 0.0568 0.36949 0.57898 0.0
H312 H 0.81582 0.95708 0.96535 0.0
H313 H 0.83008 0.01455 0.09536 0.0
H314 H 0.85944 0.95993 0.90418 0.0
H315 H 0.87368 0.01828 0.03145 0.0
H316 H 0.95822 0.00631 0.94721 0.0
H317 H 0.91545 0.00286 0.01574 0.0
H318 H 0.88521 0.9822 0.81161 0.0
H319 H 0.92802 0.98466 0.74475 0.0
C320 C 0.82838 0.97038 0.98075 0.0
C321 C 0.81953 0.98553 0.0352 0.0
C322 C 0.85339 0.97222 0.945 0.0
C323 C 0.87027 0.98957 0.96162 0.0
C324 C 0.86148 0.00455 0.0174 0.0
C325 C 0.83641 0.00249 0.05402 0.0
C326 C 0.94241 1.001 0.91707 0.0
C327 C 0.94665 0.99561 0.84052 0.0
C328 C 0.91777 0.99915 0.95631 0.0
C329 C 0.89663 0.99207 0.91984 0.0
C330 C 0.90094 0.98714 0.84269 0.0
C331 C 0.92557 0.98872 0.80387 0.0
H332 H 0.53022 0.77422 0.1263 0.0
H333 H 0.54812 0.75454 0.89668 0.0
H334 H 0.528 0.81468 0.07638 0.0
H335 H 0.54518 0.7947 0.84636 0.0
H336 H 0.56191 0.871 0.78469 0.0
H337 H 0.56608 0.83122 0.8379 0.0
H338 H 0.50176 0.84062 0.00477 0.0
H339 H 0.49792 0.8805 0.95218 0.0
C340 C 0.53366 0.77855 0.06518 0.0
C341 C 0.53939 0.76126 0.01528 0.0
C342 C 0.53222 0.80172 0.03641 0.0
C343 C 0.53638 0.80805 0.95716 0.0
C344 C 0.54226 0.79062 0.9077 0.0
C345 C 0.5438 0.76756 0.93646 0.0
C346 C 0.54855 0.86451 0.83236 0.0
C347 C 0.52956 0.87894 0.86404 0.0
C348 C 0.55092 0.84167 0.86298 0.0
C349 C 0.53426 0.8326 0.92579 0.0
C350 C 0.51524 0.84707 0.95735 0.0
C351 C 0.51297 0.86994 0.92698 0.0
H352 H 0.73645 0.47635 0.17986 0.0
H353 H 0.75149 0.54479 0.07025 0.0
H354 H 0.70131 0.47177 0.10113 0.0
H355 H 0.71521 0.54111 0.99501 0.0
H356 H 0.66366 0.52264 0.82024 0.0
H357 H 0.70045 0.52449 0.89354 0.0
H358 H 0.66017 0.4816 0.07944 0.0
H359 H 0.62469 0.47773 0.0031 0.0
C360 C 0.73182 0.49062 0.13996 0.0
C361 C 0.7465 0.511 0.13131 0.0
C362 C 0.71157 0.48807 0.09479 0.0
C363 C 0.70519 0.50605 0.04113 0.0
C364 C 0.71976 0.52662 0.03404 0.0
C365 C 0.74037 0.52892 0.07789 0.0
C366 C 0.66284 0.51312 0.87595 0.0
C367 C 0.64089 0.50019 0.90557 0.0
C368 C 0.68386 0.51456 0.91893 0.0
C369 C 0.68337 0.50349 0.99339 0.0
C370 C 0.6616 0.49023 0.02229 0.0
C371 C 0.64087 0.48836 0.97872 0.0
H372 H 0.98044 0.70789 0.11171 0.0
H373 H 0.96442 0.73588 0.8864 0.0
H374 H 0.98863 0.67019 0.06321 0.0
H375 H 0.97194 0.69811 0.83809 0.0
H376 H 0.97734 0.60081 0.96419 0.0
H377 H 0.96788 0.63803 0.01438 0.0
H378 H 0.00732 0.6727 0.80994 0.0
H379 H 0.01658 0.6355 0.75961 0.0
C380 C 0.97839 0.70591 0.05201 0.0
C381 C 0.97183 0.72479 0.00263 0.0
C382 C 0.98298 0.68429 0.02423 0.0
C383 C 0.98107 0.68113 0.94661 0.0
C384 C 0.97403 0.7 0.89782 0.0
C385 C 0.96952 0.72159 0.92555 0.0
C386 C 0.98415 0.61639 0.93023 0.0
C387 C 0.99771 0.6152 0.85787 0.0
C388 C 0.97873 0.63772 0.95902 0.0
C389 C 0.98679 0.65838 0.91618 0.0
C390 C 1.00042 0.65716 0.84389 0.0
C391 C 1.00576 0.63583 0.81503 0.0
H392 H 0.0843 0.14249 0.36513 0.0
H393 H 0.01499 0.18036 0.42221 0.0
H394 H 0.06485 0.10768 0.43309 0.0
H395 H 0.9959 0.1454 0.49334 0.0
H396 H 0.99971 0.07861 0.68481 0.0
H397 H 0.00883 0.11621 0.61438 0.0
H398 H 0.02352 0.08297 0.40488 0.0
H399 H 0.01404 0.04532 0.47496 0.0
C400 C 0.06499 0.14342 0.39282 0.0
C401 C 0.05103 0.16407 0.38738 0.0
C402 C 0.05385 0.12349 0.43124 0.0
C403 C 0.0287 0.12385 0.46635 0.0
C404 C 0.01523 0.14475 0.46562 0.0
C405 C 0.02626 0.16473 0.42585 0.0
C406 C 1.00398 0.07944 0.62324 0.0
C407 C 1.00642 0.05911 0.58522 0.0
C408 C 0.00917 0.10092 0.58315 0.0
C409 C 0.01722 0.10229 0.5048 0.0
C410 C 0.01752 0.08219 0.46561 0.0
C411 C 0.01191 0.06072 0.50549 0.0
H412 H 0.34078 0.96295 0.44426 0.0
H413 H 0.36742 0.02871 0.33319 0.0
H414 H 0.37744 0.96184 0.52232 0.0
H415 H 0.40413 0.0273 0.40721 0.0
H416 H 0.45562 0.03064 0.58925 0.0
H417 H 0.41582 0.03015 0.53101 0.0
H418 H 0.42437 0.95709 0.50681 0.0
H419 H 0.46425 0.95732 0.5701 0.0
C420 C 0.35423 0.97729 0.43772 0.0
C421 C 0.3514 0.99593 0.38314 0.0
C422 C 0.37536 0.97652 0.48128 0.0
C423 C 0.39379 0.99443 0.47082 0.0
C424 C 0.3902 0.01336 0.41785 0.0
C425 C 0.36921 0.01417 0.3751 0.0
C426 C 0.44927 0.0144 0.57112 0.0
C427 C 0.46342 0.99406 0.58292 0.0
C428 C 0.42632 0.01415 0.53767 0.0
C429 C 0.41703 0.99367 0.51319 0.0
C430 C 0.43094 0.97314 0.5256 0.0
C431 C 0.4539 0.9733 0.56077 0.0
H432 H 0.56254 0.3476 0.37395 0.0
H433 H 0.48446 0.3702 0.36059 0.0
H434 H 0.57167 0.38161 0.44062 0.0
H435 H 0.49303 0.40355 0.42928 0.0
H436 H 0.51833 0.47282 0.47048 0.0
H437 H 0.51615 0.43891 0.39926 0.0
H438 H 0.56308 0.40133 0.55625 0.0
H439 H 0.56615 0.43582 0.62547 0.0
C440 C 0.54721 0.35958 0.38724 0.0
C441 C 0.52285 0.35649 0.36233 0.0
C442 C 0.55242 0.37905 0.42498 0.0
C443 C 0.53325 0.39559 0.43858 0.0
C444 C 0.50848 0.39159 0.41743 0.0
C445 C 0.50341 0.37235 0.37914 0.0
C446 C 0.52883 0.45751 0.48817 0.0
C447 C 0.54236 0.45684 0.55326 0.0
C448 C 0.52728 0.43798 0.44822 0.0
C449 C 0.53876 0.41719 0.47358 0.0
C450 C 0.55397 0.41705 0.53534 0.0
C451 C 0.55587 0.43681 0.57471 0.0
H452 H 0.19794 0.51939 0.35895 0.0
H453 H 0.15839 0.56237 0.19594 0.0
H454 H 0.16021 0.5198 0.45146 0.0
H455 H 0.12052 0.56272 0.28929 0.0
H456 H 0.06883 0.56104 0.54421 0.0
H457 H 0.10663 0.57121 0.45382 0.0
H458 H 0.1143 0.49991 0.40547 0.0
H459 H 0.07668 0.48969 0.49339 0.0
C460 C 0.18159 0.52968 0.34402 0.0
C461 C 0.18094 0.54068 0.27019 0.0
C462 C 0.16001 0.5298 0.39672 0.0
C463 C 0.13763 0.54113 0.37668 0.0
C464 C 0.1377 0.55395 0.30566 0.0
C465 C 0.15925 0.55366 0.25249 0.0
C466 C 0.07828 0.54765 0.51299 0.0
C467 C 0.06993 0.52452 0.52649 0.0
C468 C 0.09988 0.55348 0.46181 0.0
C469 C 0.11341 0.53619 0.42455 0.0
C470 C 0.10428 0.5134 0.43487 0.0
C471 C 0.08267 0.50763 0.48489 0.0
H472 H 0.03548 0.83936 0.13726 0.0
H473 H 0.98899 0.8264 0.95538 0.0
H474 H 0.05303 0.87415 0.06322 0.0
H475 H 1.00629 0.86117 0.88156 0.0
H476 H 0.04462 0.92056 0.74848 0.0
H477 H 0.0427 0.88199 0.81418 0.0
H478 H 0.0338 0.91162 0.03193 0.0
H479 H 0.03639 0.95036 0.96577 0.0
C480 C 0.0294 0.84376 0.08075 0.0
C481 C 0.01066 0.83039 0.05227 0.0
C482 C 0.03936 0.86369 0.0386 0.0
C483 C 0.03082 0.87059 0.96704 0.0
C484 C 0.01349 0.85624 0.93622 0.0
C485 C 1.00355 0.83629 0.9784 0.0
C486 C 0.04285 0.91883 0.81049 0.0
C487 C 0.04025 0.93841 0.8522 0.0
C488 C 0.04163 0.89673 0.84803 0.0
C489 C 0.0376 0.89372 0.92812 0.0
C490 C 0.03706 0.91334 0.97008 0.0
C491 C 0.03849 0.93555 0.93235 0.0
H492 H 0.70572 0.98349 0.98899 0.0
H493 H 0.6832 0.04768 0.08124 0.0
H494 H 0.66867 0.98554 0.9137 0.0
H495 H 0.64591 0.04955 0.0079 0.0
H496 H 0.58633 0.0503 0.83281 0.0
H497 H 0.62781 0.05261 0.88482 0.0
H498 H 0.62312 0.97975 0.95765 0.0
H499 H 0.58204 0.97732 0.9049 0.0
C500 C 0.69331 0.9984 0.99108 0.0
C501 C 0.6971 0.01533 0.04108 0.0
C502 C 0.67191 0.99942 0.94906 0.0
C503 C 0.65405 0.01743 0.95638 0.0
C504 C 0.65925 0.03545 0.00102 0.0
C505 C 0.68059 0.0344 0.04299 0.0
C506 C 0.59401 0.03485 0.86084 0.0
C507 C 0.58086 0.01363 0.86485 0.0
C508 C 0.61784 0.03616 0.89017 0.0
C509 C 0.62897 0.01628 0.92398 0.0
C510 C 0.61541 0.99525 0.93001 0.0
C511 C 0.59166 0.99394 0.9008 0.0
H512 H 0.5323 0.66041 0.98158 0.0
H513 H 0.46783 0.63836 0.14238 0.0
H514 H 0.52588 0.62709 0.90959 0.0
H515 H 0.46137 0.60498 0.06965 0.0
H516 H 0.45853 0.55738 0.85067 0.0
H517 H 0.45517 0.59317 0.91617 0.0
H518 H 0.53202 0.58317 0.98159 0.0
H519 H 0.53534 0.54755 0.91885 0.0
C520 C 0.51618 0.64894 -0.00018 0.0
C521 C 0.50069 0.65181 0.06775 0.0
C522 C 0.51262 0.62984 0.95901 0.0
C523 C 0.49331 0.6135 0.98488 0.0
C524 C 0.47632 0.61743 0.04875 0.0
C525 C 0.48008 0.63642 0.09024 0.0
C526 C 0.47443 0.56257 0.88063 0.0
C527 C 0.49728 0.54973 0.87897 0.0
C528 C 0.47255 0.58306 0.91747 0.0
C529 C 0.49359 0.59101 0.95196 0.0
C530 C 0.51576 0.57755 0.95388 0.0
C531 C 0.51754 0.55707 0.91834 0.0
H532 H 0.87405 0.44084 0.22495 0.0
H533 H 0.84923 0.49845 0.07892 0.0
H534 H 0.9127 0.43736 0.13627 0.0
H535 H 0.88759 0.49481 0.99105 0.0
H536 H 0.96567 0.44082 0.87984 0.0
H537 H 0.92665 0.43428 0.96846 0.0
H538 H 0.93608 0.50148 0.0491 0.0
H539 H 0.97488 0.50799 0.96267 0.0
C540 C 0.8765 0.45229 0.17294 0.0
C541 C 0.85878 0.47004 0.15904 0.0
C542 C 0.89849 0.45022 0.12238 0.0
C543 C 0.903 0.46597 0.05782 0.0
C544 C 0.88438 0.48253 0.04088 0.0
C545 C 0.86238 0.48449 0.09085 0.0
C546 C 0.9598 0.45387 0.91818 0.0
C547 C 0.97311 0.47505 0.91365 0.0
C548 C 0.93748 0.45015 0.96832 0.0
C549 C 0.92833 0.46763 0.01381 0.0
C550 C 0.94268 0.48797 0.01337 0.0
C551 C 0.96491 0.49161 0.96411 0.0
H552 H 0.05187 0.20413 0.08387 0.0
H553 H 0.121 0.17205 0.1549 0.0
H554 H 0.0495 0.17607 0.98919 0.0
H555 H 0.11866 0.1439 0.06053 0.0
H556 H 0.10177 0.09417 0.87742 0.0
H557 H 0.1136 0.13089 0.92437 0.0
H558 H 0.03817 0.1346 0.04459 0.0
H559 H 0.02671 0.09788 0.00119 0.0
C560 C 0.06748 0.19206 0.07573 0.0
C561 C 0.08646 0.19006 0.12697 0.0
C562 C 0.06592 0.17575 0.02241 0.0
C563 C 0.08346 0.15742 0.01934 0.0
C564 C 0.10481 0.15776 0.06189 0.0
C565 C 0.1063 0.17402 0.11547 0.0
C566 C 0.08781 0.10272 0.91451 0.0
C567 C 0.06317 0.09307 0.93497 0.0
C568 C 0.09451 0.12387 0.94045 0.0
C569 C 0.07656 0.1359 0.98622 0.0
C570 C 0.05212 0.12614 0.00713 0.0
C571 C 0.04559 0.10498 0.9824 0.0
H572 H 0.33493 0.96818 0.08934 0.0
H573 H 0.34403 0.04009 0.12302 0.0
H574 H 0.37098 0.97106 0.9901 0.0
H575 H 0.38063 0.04301 0.0267 0.0
H576 H 0.44525 0.04315 0.83525 0.0
H577 H 0.40241 0.04241 0.90366 0.0
H578 H 0.41557 0.9729 -0.00093 0.0
H579 H 0.45781 0.97342 0.92874 0.0
C580 C 0.34384 0.98489 0.07268 0.0
C581 C 0.33643 0.00399 0.11298 0.0
C582 C 0.36498 0.98646 0.01726 0.0
C583 C 0.37938 0.00711 0.00172 0.0
C584 C 0.37017 0.02681 0.03654 0.0
C585 C 0.34892 0.02526 0.09135 0.0
C586 C 0.43903 0.02778 0.8713 0.0
C587 C 0.45509 0.00839 0.87675 0.0
C588 C 0.41437 0.0273 0.91043 0.0
C589 C 0.40516 0.00748 0.95648 0.0
C590 C 0.4215 0.98827 0.96266 0.0
C591 C 0.44601 0.98868 0.92313 0.0
H592 H 0.46392 0.3428 0.1282 0.0
H593 H 0.54546 0.34122 0.06736 0.0
H594 H 0.45923 0.37161 0.02107 0.0
H595 H 0.54147 0.37079 0.96372 0.0
H596 H 0.53266 0.42444 0.77813 0.0
H597 H 0.52979 0.38666 0.84948 0.0
H598 H 0.46687 0.41095 -0.00121 0.0
H599 H 0.46877 0.4482 0.92268 0.0
C600 C 0.48067 0.34796 0.08968 0.0
C601 C 0.50498 0.33953 0.10481 0.0
C602 C 0.47815 0.36489 0.02933 0.0
C603 C 0.49999 0.37412 0.98409 0.0
C604 C 0.52404 0.36413 0.99595 0.0
C605 C 0.52644 0.34698 0.05535 0.0
C606 C 0.51794 0.42143 0.82551 0.0
C607 C 0.50108 0.43915 0.84566 0.0
C608 C 0.51638 0.39983 0.86693 0.0
C609 C 0.49843 0.39561 0.93136 0.0
C610 C 0.48078 0.41322 0.94923 0.0
C611 C 0.48192 0.43471 0.90615 0.0
H612 H 0.21002 0.53803 0.94525 0.0
H613 H 0.18555 0.47683 0.08873 0.0
H614 H 0.17863 0.52992 0.85629 0.0
H615 H 0.15392 0.46876 0.00101 0.0
H616 H 0.09884 0.45961 0.81971 0.0
H617 H 0.1403 0.46099 0.87362 0.0
H618 H 0.13206 0.53457 0.88557 0.0
H619 H 0.09115 0.53327 0.83208 0.0
C620 C 0.1988 0.52223 0.95556 0.0
C621 C 0.20021 0.50795 0.02317 0.0
C622 C 0.18057 0.51774 0.90543 0.0
C623 C 0.16341 0.49897 0.92256 0.0
C624 C 0.16686 0.4833 0.98596 0.0
C625 C 0.18506 0.48782 0.03604 0.0
C626 C 0.106 0.47606 0.83362 0.0
C627 C 0.09158 0.49629 0.82216 0.0
C628 C 0.12974 0.47685 0.86422 0.0
C629 C 0.13964 0.49793 0.88292 0.0
C630 C 0.12533 0.51813 0.87019 0.0
C631 C 0.10163 0.51732 0.84044 0.0
H632 H 0.99531 0.79536 0.35586 0.0
H633 H 0.93011 0.82822 0.26165 0.0
H634 H 0.99481 0.82388 0.45009 0.0
H635 H 0.92951 0.85681 0.35591 0.0
H636 H 0.94212 0.90521 0.55266 0.0
H637 H 0.93096 0.86889 0.50149 0.0
H638 H 0.00737 0.86592 0.38734 0.0
H639 H 0.01817 0.90232 0.4344 0.0
C640 C 0.97981 0.80772 0.35878 0.0
C641 C 0.96274 0.80967 0.30191 0.0
C642 C 0.97971 0.82423 0.41194 0.0
C643 C 0.96247 0.84277 0.40888 0.0
C644 C 0.94296 0.84266 0.35946 0.0
C645 C 0.94315 0.82619 0.30597 0.0
C646 C 0.95642 0.89694 0.51587 0.0
C647 C 0.98119 0.90661 0.49845 0.0
C648 C 0.95009 0.87604 0.48755 0.0
C649 C 0.96857 0.86432 0.44266 0.0
C650 C 0.99304 0.8742 0.42413 0.0
C651 C 0.99919 0.89513 0.45103 0.0
H652 H 0.69611 0.04075 0.30765 0.0
H653 H 0.70717 0.96729 0.34027 0.0
H654 H 0.66055 0.0382 0.40618 0.0
H655 H 0.67213 0.96453 0.4433 0.0
H656 H 0.58588 0.96413 0.53359 0.0
H657 H 0.62729 0.96526 0.45606 0.0
H658 H 0.64239 0.03281 0.52849 0.0
H659 H 0.6006 0.0322 0.60044 0.0
C660 C 0.6917 0.02417 0.33911 0.0
C661 C 0.70457 0.00428 0.31689 0.0
C662 C 0.67111 0.0226 0.39578 0.0
C663 C 0.66292 1.00106 0.43286 0.0
C664 C 0.67735 0.98136 0.41506 0.0
C665 C 0.69788 0.98295 0.35733 0.0
C666 C 0.59808 0.97923 0.53219 0.0
C667 C 0.5897 0.99828 0.57153 0.0
C668 C 0.62203 0.97981 0.48855 0.0
C669 C 0.63842 0.99926 0.48485 0.0
C670 C 0.63025 0.01781 0.52737 0.0
C671 C 0.60617 0.01746 0.56904 0.0
H672 H 0.56932 0.66343 0.30213 0.0
H673 H 0.48756 0.65698 0.35762 0.0
H674 H 0.57627 0.63512 0.40961 0.0
H675 H 0.49408 0.6285 0.46259 0.0
H676 H 0.50685 0.5806 0.65764 0.0
H677 H 0.50795 0.61772 0.5823 0.0
H678 H 0.57096 0.59399 0.43251 0.0
H679 H 0.57065 0.55717 0.51172 0.0
C680 C 0.55291 0.65659 0.33925 0.0
C681 C 0.52792 0.66248 0.32243 0.0
C682 C 0.55683 0.6401 0.39992 0.0
C683 C 0.53578 0.62925 0.44464 0.0
C684 C 0.51086 0.63659 0.43065 0.0
C685 C 0.50701 0.65298 0.37039 0.0
C686 C 0.52129 0.58358 0.60947 0.0
C687 C 0.53847 0.56606 0.58967 0.0
C688 C 0.52184 0.60479 0.56596 0.0
C689 C 0.53913 0.60879 0.50004 0.0
C690 C 0.55746 0.59167 0.48306 0.0
C691 C 0.55725 0.57051 0.528 0.0
H692 H 0.83836 0.45761 0.47109 0.0
H693 H 0.848 0.5287 0.38181 0.0
H694 H 0.87051 0.46284 0.56022 0.0
H695 H 0.8809 0.53391 0.46847 0.0
H696 H 0.93928 0.5364 0.64508 0.0
H697 H 0.89759 0.5343 0.59319 0.0
H698 H 0.91594 0.46594 0.52619 0.0
H699 H 0.95689 0.46784 0.57867 0.0
C700 C 0.8466 0.47462 0.47311 0.0
C701 C 0.84067 0.49281 0.42047 0.0
C702 C 0.86531 0.47756 0.52305 0.0
C703 C 0.8788 0.49862 0.51995 0.0
C704 C 0.8709 0.51749 0.47257 0.0
C705 C 0.85195 0.51458 0.42319 0.0
C706 C 0.93431 0.52095 0.6193 0.0
C707 C 0.95144 0.50232 0.61587 0.0
C708 C 0.91042 0.51972 0.58979 0.0
C709 C 0.9032 0.49981 0.5566 0.0
C710 C 0.92046 0.48129 0.55324 0.0
C711 C 0.94418 0.48251 0.58253 0.0
loop_
_geom_bond_atom_site_label_1
_geom_bond_atom_site_label_2
_geom_bond_distance
_geom_bond_site_symmetry_2
_ccdc_geom_bond_type
H0 C5 0.930 . S
H1 C8 0.930 . S
H2 C10 0.930 . S
H3 C4 1.016 . S
C4 H3 1.016 . S
C4 N11 1.286 . S
C5 H0 0.930 . S
C5 C6 1.397 . S
C5 C7 1.361 . S
C6 C5 1.397 . S
C6 C10 1.390 . S
C7 C5 1.361 . S
C7 C8 1.393 . S
C7 N11 1.413 . S
C8 H1 0.930 . S
C8 C7 1.393 . S
C8 C9 1.399 . S
C9 C8 1.399 . S
C9 C10 1.381 . S
C10 H2 0.930 . S
C10 C6 1.390 . S
C10 C9 1.381 . S
N11 C4 1.286 . S
N11 C7 1.413 . S
H12 C17 0.930 . S
H13 C20 0.930 . S
H14 C22 0.930 . S
H15 C16 1.016 . S
C16 H15 1.016 . S
C16 N23 1.286 1_556 S
C17 H12 0.930 . S
C17 C18 1.397 . S
C17 C19 1.361 . S
C18 C17 1.397 . S
C18 C22 1.390 . S
C19 C17 1.361 . S
C19 C20 1.393 1_554 S
C19 N23 1.413 . S
C20 H13 0.930 . S
C20 C19 1.393 1_556 S
C20 C21 1.399 . S
C21 C20 1.399 . S
C21 C22 1.381 1_556 S
C22 H14 0.930 . S
C22 C18 1.390 . S
C22 C21 1.381 1_554 S
N23 C16 1.286 1_554 S
N23 C19 1.413 . S
H24 C29 0.930 . S
H25 C32 0.930 1_556 S
H26 C34 0.930 . S
H27 C28 1.032 1_556 S
C28 H27 1.032 1_554 S
C28 N35 1.266 1_565 S
C29 H24 0.930 . S
C29 C30 1.406 . S
C29 C31 1.361 . S
C30 C29 1.406 . S
C30 C34 1.382 1_545 S
C31 C29 1.361 . S
C31 C32 1.393 . S
C31 N35 1.413 . S
C32 H25 0.930 1_554 S
C32 C31 1.393 . S
C32 C33 1.402 . S
C33 C32 1.402 . S
C33 C34 1.381 1_545 S
C34 H26 0.930 . S
C34 C30 1.382 1_565 S
C34 C33 1.381 1_565 S
N35 C28 1.266 1_545 S
N35 C31 1.413 . S
H36 C41 0.930 . S
H37 C44 0.930 1_556 S
H38 C46 0.930 . S
H39 C40 1.016 1_556 S
C40 H39 1.016 1_554 S
C40 N47 1.286 . S
C41 H36 0.930 . S
C41 C42 1.397 . S
C41 C43 1.361 . S
C42 C41 1.397 . S
C42 C46 1.390 . S
C43 C41 1.361 . S
C43 C44 1.393 . S
C43 N47 1.413 . S
C44 H37 0.930 1_554 S
C44 C43 1.393 . S
C44 C45 1.399 . S
C45 C44 1.399 . S
C45 C46 1.381 . S
C46 H38 0.930 . S
C46 C42 1.390 . S
C46 C45 1.381 . S
N47 C40 1.286 . S
N47 C43 1.413 . S
H48 C53 0.930 . S
H49 C56 0.930 . S
H50 C58 0.930 . S
H51 C52 1.016 . S
C52 H51 1.016 . S
C52 N59 1.286 . S
C53 H48 0.930 . S
C53 C54 1.397 . S
C53 C55 1.361 . S
C54 C53 1.397 . S
C54 C58 1.390 . S
C55 C53 1.361 . S
C55 C56 1.393 . S
C55 N59 1.413 . S
C56 H49 0.930 . S
C56 C55 1.393 . S
C56 C57 1.399 . S
C57 C56 1.399 . S
C57 C58 1.381 . S
C58 H50 0.930 . S
C58 C54 1.390 . S
C58 C57 1.381 . S
N59 C52 1.286 . S
N59 C55 1.413 . S
H60 C65 0.930 . S
H61 C68 0.930 . S
H62 C70 0.930 . S
H63 C64 1.016 . S
C64 H63 1.016 . S
C64 N71 1.286 . S
C65 H60 0.930 . S
C65 C66 1.397 . S
C65 C67 1.361 . S
C66 C65 1.397 . S
C66 C70 1.390 . S
C67 C65 1.361 . S
C67 C68 1.393 . S
C67 N71 1.413 . S
C68 H61 0.930 . S
C68 C67 1.393 . S
C68 C69 1.399 . S
C69 C68 1.399 . S
C69 C70 1.381 . S
C70 H62 0.930 . S
C70 C66 1.390 . S
C70 C69 1.381 . S
N71 C64 1.286 . S
N71 C67 1.413 . S
H72 C77 0.930 . S
H73 C80 0.930 . S
H74 C82 0.930 . S
H75 C76 1.023 . S
C76 H75 1.023 . S
C76 N83 1.275 1_565 S
C77 H72 0.930 . S
C77 C78 1.397 . S
C77 C79 1.361 . S
C78 C77 1.397 . S
C78 C82 1.390 1_545 S
C79 C77 1.361 . S
C79 C80 1.393 . S
C79 N83 1.413 . S
C80 H73 0.930 . S
C80 C79 1.393 . S
C80 C81 1.405 . S
C81 C80 1.405 . S
C81 C82 1.376 1_545 S
C82 H74 0.930 . S
C82 C78 1.390 1_565 S
C82 C81 1.376 1_565 S
N83 C76 1.275 1_545 S
N83 C79 1.413 . S
H84 C89 0.930 . S
H85 C92 0.930 . S
H86 C94 0.930 . S
H87 C88 1.016 . S
C88 H87 1.016 . S
C88 N95 1.286 . S
C89 H84 0.930 . S
C89 C90 1.397 . S
C89 C91 1.361 . S
C90 C89 1.397 . S
C90 C94 1.390 . S
C91 C89 1.361 . S
C91 C92 1.393 . S
C91 N95 1.413 . S
C92 H85 0.930 . S
C92 C91 1.393 . S
C92 C93 1.399 . S
C93 C92 1.399 . S
C93 C94 1.381 . S
C94 H86 0.930 . S
C94 C90 1.390 . S
C94 C93 1.381 . S
N95 C88 1.286 . S
N95 C91 1.413 . S
C96 O112 1.251 . S
C96 O114 1.254 . S
N97 C98 1.333 . S
N97 C102 1.307 1_455 S
N97 Zn103 2.020 . S
C98 N97 1.333 . S
C98 C99 1.379 . S
C98 H116 0.952 . S
C99 C98 1.379 . S
C99 C100 1.390 1_455 S
C99 H126 0.949 . S
C100 C99 1.390 1_655 S
C100 C101 1.357 . S
C101 C100 1.357 . S
C101 C102 1.370 . S
C101 H127 0.950 . S
C102 N97 1.307 1_655 S
C102 C101 1.370 . S
C102 H120 0.948 . S
Zn103 N97 2.020 . S
Zn103 O112 2.039 . S
Zn103 O118 2.034 . S
Zn103 O122 2.025 1_565 S
Zn103 O124 2.024 1_455 S
C104 O123 1.246 . S
C104 O124 1.249 1_545 S
N105 C106 1.307 . S
N105 C107 1.333 . S
N105 Zn111 2.020 . S
C106 N105 1.307 . S
C106 C110 1.364 1_556 S
C106 H117 0.948 . S
C107 N105 1.333 . S
C107 C108 1.379 . S
C107 H115 0.952 . S
C108 C107 1.379 . S
C108 C109 1.390 1_556 S
C108 H128 0.949 . S
C109 C108 1.390 1_554 S
C109 C110 1.358 . S
C110 C106 1.364 1_554 S
C110 C109 1.358 . S
C110 H129 0.955 . S
Zn111 N105 2.020 . S
Zn111 O114 2.025 1_545 S
Zn111 O119 2.024 . S
Zn111 O121 2.039 . S
Zn111 O123 2.034 1_455 S
O112 C96 1.251 . S
O112 Zn103 2.039 . S
C113 O118 1.246 . S
C113 O119 1.249 1_565 S
O114 C96 1.254 . S
O114 Zn111 2.025 1_565 S
H115 C107 0.952 . S
H116 C98 0.952 . S
H117 C106 0.948 . S
O118 Zn103 2.034 . S
O118 C113 1.246 . S
O119 Zn111 2.024 . S
O119 C113 1.249 1_545 S
H120 C102 0.948 . S
O121 Zn111 2.039 . S
O121 C125 1.251 . S
O122 Zn103 2.025 1_545 S
O122 C125 1.254 . S
O123 C104 1.246 . S
O123 Zn111 2.034 1_655 S
O124 Zn103 2.024 1_655 S
O124 C104 1.249 1_565 S
C125 O121 1.251 . S
C125 O122 1.254 . S
H126 C99 0.949 . S
H127 C101 0.950 . S
H128 C108 0.949 . S
H129 C110 0.955 . S
C130 O146 1.251 1_565 S
C130 O148 1.254 . S
N131 C132 1.333 . S
N131 C136 1.307 . S
N131 Zn137 2.020 . S
C132 N131 1.333 . S
C132 C133 1.379 . S
C132 H150 0.952 . S
C133 C132 1.379 . S
C133 C134 1.390 . S
C133 H160 0.949 . S
C134 C133 1.390 . S
C134 C135 1.357 . S
C135 C134 1.357 . S
C135 C136 1.370 . S
C135 H161 0.950 . S
C136 N131 1.307 . S
C136 C135 1.370 . S
C136 H154 0.948 . S
Zn137 N131 2.020 . S
Zn137 O146 2.039 . S
Zn137 O152 2.034 . S
Zn137 O156 2.025 . S
Zn137 O158 2.024 . S
C138 O157 1.246 1_545 S
C138 O158 1.249 . S
N139 C140 1.307 . S
N139 C141 1.333 . S
N139 Zn145 2.020 . S
C140 N139 1.307 . S
C140 C144 1.370 . S
C140 H151 0.948 . S
C141 N139 1.333 . S
C141 C142 1.379 . S
C141 H149 0.952 . S
C142 C141 1.379 . S
C142 C143 1.390 . S
C142 H162 0.949 . S
C143 C142 1.390 . S
C143 C144 1.357 . S
C144 C140 1.370 . S
C144 C143 1.357 . S
C144 H163 0.950 . S
Zn145 N139 2.020 . S
Zn145 O148 2.025 . S
Zn145 O153 2.024 . S
Zn145 O155 2.039 . S
Zn145 O157 2.034 . S
O146 C130 1.251 1_545 S
O146 Zn137 2.039 . S
C147 O152 1.246 1_565 S
C147 O153 1.249 . S
O148 C130 1.254 . S
O148 Zn145 2.025 . S
H149 C141 0.952 . S
H150 C132 0.952 . S
H151 C140 0.948 . S
O152 Zn137 2.034 . S
O152 C147 1.246 1_545 S
O153 Zn145 2.024 . S
O153 C147 1.249 . S
H154 C136 0.948 . S
O155 Zn145 2.039 . S
O155 C159 1.251 1_565 S
O156 Zn137 2.025 . S
O156 C159 1.254 . S
O157 C138 1.246 1_565 S
O157 Zn145 2.034 . S
O158 Zn137 2.024 . S
O158 C138 1.249 . S
C159 O155 1.251 1_545 S
C159 O156 1.254 . S
H160 C133 0.949 . S
H161 C135 0.950 . S
H162 C142 0.949 . S
H163 C144 0.950 . S
C164 O180 1.251 . S
C164 O182 1.254 . S
N165 C166 1.333 . S
N165 C170 1.307 . S
N165 Zn171 2.020 . S
C166 N165 1.333 . S
C166 C167 1.379 . S
C166 H184 0.952 . S
C167 C166 1.379 . S
C167 C168 1.390 . S
C167 H194 0.949 . S
C168 C167 1.390 . S
C168 C169 1.357 . S
C169 C168 1.357 . S
C169 C170 1.370 . S
C169 H195 0.950 . S
C170 N165 1.307 . S
C170 C169 1.370 . S
C170 H188 0.948 . S
Zn171 N165 2.020 . S
Zn171 O180 2.039 . S
Zn171 O186 2.034 . S
Zn171 O190 2.025 . S
Zn171 O192 2.024 . S
C172 O191 1.246 . S
C172 O192 1.249 . S
N173 C174 1.307 . S
N173 C175 1.333 . S
N173 Zn179 2.020 . S
C174 N173 1.307 . S
C174 C178 1.370 . S
C174 H185 0.948 . S
C175 N173 1.333 . S
C175 C176 1.379 . S
C175 H183 0.952 . S
C176 C175 1.379 . S
C176 C177 1.390 . S
C176 H196 0.949 . S
C177 C176 1.390 . S
C177 C178 1.357 . S
C178 C174 1.370 . S
C178 C177 1.357 . S
C178 H197 0.950 . S
Zn179 N173 2.020 . S
Zn179 O182 2.025 . S
Zn179 O187 2.024 . S
Zn179 O189 2.039 . S
Zn179 O191 2.034 . S
O180 C164 1.251 . S
O180 Zn171 2.039 . S
C181 O186 1.246 . S
C181 O187 1.249 . S
O182 C164 1.254 . S
O182 Zn179 2.025 . S
H183 C175 0.952 . S
H184 C166 0.952 . S
H185 C174 0.948 . S
O186 Zn171 2.034 . S
O186 C181 1.246 . S
O187 Zn179 2.024 . S
O187 C181 1.249 . S
H188 C170 0.948 . S
O189 Zn179 2.039 . S
O189 C193 1.251 . S
O190 Zn171 2.025 . S
O190 C193 1.254 . S
O191 C172 1.246 . S
O191 Zn179 2.034 . S
O192 Zn171 2.024 . S
O192 C172 1.249 . S
C193 O189 1.251 . S
C193 O190 1.254 . S
H194 C167 0.949 . S
H195 C169 0.950 . S
H196 C176 0.949 . S
H197 C178 0.950 . S
C198 O214 1.251 . S
C198 O216 1.254 . S
N199 C200 1.333 . S
N199 C204 1.307 . S
N199 Zn205 2.020 . S
C200 N199 1.333 . S
C200 C201 1.379 . S
C200 H218 0.952 . S
C201 C200 1.379 . S
C201 C202 1.390 . S
C201 H228 0.949 . S
C202 C201 1.390 . S
C202 C203 1.357 . S
C203 C202 1.357 . S
C203 C204 1.370 . S
C203 H229 0.950 . S
C204 N199 1.307 . S
C204 C203 1.370 . S
C204 H222 0.948 . S
Zn205 N199 2.020 . S
Zn205 O214 2.039 . S
Zn205 O220 2.034 1_455 S
Zn205 O224 2.025 1_455 S
Zn205 O226 2.024 . S
C206 O225 1.246 . S
C206 O226 1.249 . S
N207 C208 1.307 . S
N207 C209 1.333 1_455 S
N207 Zn213 2.020 . S
C208 N207 1.307 . S
C208 C212 1.370 . S
C208 H219 0.948 . S
C209 N207 1.333 1_655 S
C209 C210 1.379 . S
C209 H217 0.952 . S
C210 C209 1.379 . S
C210 C211 1.390 1_655 S
C210 H230 0.949 . S
C211 C210 1.390 1_455 S
C211 C212 1.357 . S
C212 C208 1.370 . S
C212 C211 1.357 . S
C212 H231 0.950 . S
Zn213 N207 2.020 . S
Zn213 O216 2.025 . S
Zn213 O221 2.024 1_455 S
Zn213 O223 2.039 1_455 S
Zn213 O225 2.034 . S
O214 C198 1.251 . S
O214 Zn205 2.039 . S
C215 O220 1.246 . S
C215 O221 1.249 . S
O216 C198 1.254 . S
O216 Zn213 2.025 . S
H217 C209 0.952 . S
H218 C200 0.952 . S
H219 C208 0.948 . S
O220 Zn205 2.034 1_655 S
O220 C215 1.246 . S
O221 Zn213 2.024 1_655 S
O221 C215 1.249 . S
H222 C204 0.948 . S
O223 Zn213 2.039 1_655 S
O223 C227 1.251 . S
O224 Zn205 2.025 1_655 S
O224 C227 1.254 . S
O225 C206 1.246 . S
O225 Zn213 2.034 . S
O226 Zn205 2.024 . S
O226 C206 1.249 . S
C227 O223 1.251 . S
C227 O224 1.254 . S
H228 C201 0.949 . S
H229 C203 0.950 . S
H230 C210 0.949 . S
H231 C212 0.950 . S
H232 C240 0.950 . S
H233 C245 0.950 . S
H234 C242 0.950 . S
H235 C244 0.950 . S
H236 C246 0.950 . S
H237 C248 0.950 . S
H238 C250 0.950 . S
H239 C251 0.950 . S
C240 H232 0.950 . S
C240 C241 1.414 . S
C240 C242 1.391 . S
C241 C240 1.414 . S
C241 C245 1.365 1_565 S
C242 H234 0.950 . S
C242 C240 1.391 . S
C242 C243 1.400 . S
C243 C242 1.400 . S
C243 C244 1.398 1_565 S
C243 C249 1.491 . S
C244 H235 0.950 . S
C244 C243 1.398 1_545 S
C244 C245 1.391 . S
C245 H233 0.950 . S
C245 C241 1.365 1_545 S
C245 C244 1.391 . S
C246 H236 0.950 . S
C246 C247 1.386 1_545 S
C246 C248 1.391 . S
C247 C246 1.386 1_565 S
C247 C251 1.393 . S
C248 H237 0.950 . S
C248 C246 1.391 . S
C248 C249 1.400 1_545 S
C249 C243 1.491 . S
C249 C248 1.400 1_565 S
C249 C250 1.398 . S
C250 H238 0.950 . S
C250 C249 1.398 . S
C250 C251 1.391 . S
C251 H239 0.950 . S
C251 C247 1.393 . S
C251 C250 1.391 . S
H252 C260 0.950 . S
H253 C265 0.950 . S
H254 C262 0.950 . S
H255 C264 0.950 . S
H256 C266 0.950 . S
H257 C268 0.950 . S
H258 C270 0.950 . S
H259 C271 0.950 . S
C260 H252 0.950 . S
C260 C261 1.386 . S
C260 C262 1.391 . S
C261 C260 1.386 . S
C261 C265 1.393 . S
C262 H254 0.950 . S
C262 C260 1.391 . S
C262 C263 1.400 . S
C263 C262 1.400 . S
C263 C264 1.398 . S
C263 C269 1.491 . S
C264 H255 0.950 . S
C264 C263 1.398 . S
C264 C265 1.391 . S
C265 H253 0.950 . S
C265 C261 1.393 . S
C265 C264 1.391 . S
C266 H256 0.950 . S
C266 C267 1.386 . S
C266 C268 1.391 . S
C267 C266 1.386 . S
C267 C271 1.393 . S
C268 H257 0.950 . S
C268 C266 1.391 . S
C268 C269 1.400 . S
C269 C263 1.491 . S
C269 C268 1.400 . S
C269 C270 1.398 . S
C270 H258 0.950 . S
C270 C269 1.398 . S
C270 C271 1.391 . S
C271 H259 0.950 . S
C271 C267 1.393 . S
C271 C270 1.391 . S
H272 C280 0.950 . S
H273 C285 0.950 . S
H274 C282 0.950 . S
H275 C284 0.950 . S
H276 C286 0.950 . S
H277 C288 0.950 . S
H278 C290 0.950 . S
H279 C291 0.950 . S
C280 H272 0.950 . S
C280 C281 1.386 . S
C280 C282 1.391 . S
C281 C280 1.386 . S
C281 C285 1.393 . S
C282 H274 0.950 . S
C282 C280 1.391 . S
C282 C283 1.400 . S
C283 C282 1.400 . S
C283 C284 1.398 . S
C283 C289 1.491 . S
C284 H275 0.950 . S
C284 C283 1.398 . S
C284 C285 1.391 . S
C285 H273 0.950 . S
C285 C281 1.393 . S
C285 C284 1.391 . S
C286 H276 0.950 . S
C286 C287 1.386 . S
C286 C288 1.391 . S
C287 C286 1.386 . S
C287 C291 1.393 . S
C288 H277 0.950 . S
C288 C286 1.391 . S
C288 C289 1.400 . S
C289 C283 1.491 . S
C289 C288 1.400 . S
C289 C290 1.398 . S
C290 H278 0.950 . S
C290 C289 1.398 . S
C290 C291 1.391 . S
C291 H279 0.950 . S
C291 C287 1.393 . S
C291 C290 1.391 . S
H292 C300 0.950 . S
H293 C305 0.950 . S
H294 C302 0.950 . S
H295 C304 0.950 . S
H296 C306 0.950 1_655 S
H297 C308 0.950 . S
H298 C310 0.950 . S
H299 C311 0.950 . S
C300 H292 0.950 . S
C300 C301 1.386 . S
C300 C302 1.391 . S
C301 C300 1.386 . S
C301 C305 1.393 . S
C302 H294 0.950 . S
C302 C300 1.391 . S
C302 C303 1.400 . S
C303 C302 1.400 . S
C303 C304 1.398 . S
C303 C309 1.491 . S
C304 H295 0.950 . S
C304 C303 1.398 . S
C304 C305 1.391 . S
C305 H293 0.950 . S
C305 C301 1.393 . S
C305 C304 1.391 . S
C306 H296 0.950 1_455 S
C306 C307 1.386 . S
C306 C308 1.391 . S
C307 C306 1.386 . S
C307 C311 1.393 . S
C308 H297 0.950 . S
C308 C306 1.391 . S
C308 C309 1.400 . S
C309 C303 1.491 . S
C309 C308 1.400 . S
C309 C310 1.398 . S
C310 H298 0.950 . S
C310 C309 1.398 . S
C310 C311 1.391 . S
C311 H299 0.950 . S
C311 C307 1.393 . S
C311 C310 1.391 . S
H312 C320 0.948 1_554 S
H313 C325 0.950 . S
H314 C322 0.950 . S
H315 C324 0.950 . S
H316 C326 0.950 . S
H317 C328 0.950 . S
H318 C330 0.950 . S
H319 C331 0.950 . S
C320 H312 0.948 1_556 S
C320 C321 1.376 1_565 S
C320 C322 1.392 . S
C321 C320 1.376 1_545 S
C321 C325 1.402 . S
C322 H314 0.950 . S
C322 C320 1.392 . S
C322 C323 1.400 1_565 S
C323 C322 1.400 1_545 S
C323 C324 1.398 . S
C323 C329 1.491 . S
C324 H315 0.950 . S
C324 C323 1.398 . S
C324 C325 1.391 . S
C325 H313 0.950 . S
C325 C321 1.402 . S
C325 C324 1.391 . S
C326 H316 0.950 . S
C326 C327 1.386 . S
C326 C328 1.391 . S
C327 C326 1.386 . S
C327 C331 1.393 1_545 S
C328 H317 0.950 . S
C328 C326 1.391 . S
C328 C329 1.400 . S
C329 C323 1.491 . S
C329 C328 1.400 . S
C329 C330 1.398 1_545 S
C330 H318 0.950 . S
C330 C329 1.398 1_565 S
C330 C331 1.391 . S
C331 H319 0.950 . S
C331 C327 1.393 1_565 S
C331 C330 1.391 . S
H332 C340 0.950 . S
H333 C345 0.950 . S
H334 C342 0.950 . S
H335 C344 0.950 . S
H336 C346 0.950 . S
H337 C348 0.950 . S
H338 C350 0.950 1_554 S
H339 C351 0.950 . S
C340 H332 0.950 . S
C340 C341 1.386 . S
C340 C342 1.391 . S
C341 C340 1.386 . S
C341 C345 1.393 1_554 S
C342 H334 0.950 . S
C342 C340 1.391 . S
C342 C343 1.400 1_554 S
C343 C342 1.400 1_556 S
C343 C344 1.398 . S
C343 C349 1.491 . S
C344 H335 0.950 . S
C344 C343 1.398 . S
C344 C345 1.391 . S
C345 H333 0.950 . S
C345 C341 1.393 1_556 S
C345 C344 1.391 . S
C346 H336 0.950 . S
C346 C347 1.386 . S
C346 C348 1.391 . S
C347 C346 1.386 . S
C347 C351 1.393 . S
C348 H337 0.950 . S
C348 C346 1.391 . S
C348 C349 1.400 . S
C349 C343 1.491 . S
C349 C348 1.400 . S
C349 C350 1.398 . S
C350 H338 0.950 1_556 S
C350 C349 1.398 . S
C350 C351 1.391 . S
C351 H339 0.950 . S
C351 C347 1.393 . S
C351 C350 1.391 . S
H352 C360 0.950 . S
H353 C365 0.950 . S
H354 C362 0.950 . S
H355 C364 0.950 . S
H356 C366 0.950 . S
H357 C368 0.950 . S
H358 C370 0.950 . S
H359 C371 0.950 . S
C360 H352 0.950 . S
C360 C361 1.386 . S
C360 C362 1.391 . S
C361 C360 1.386 . S
C361 C365 1.393 . S
C362 H354 0.950 . S
C362 C360 1.391 . S
C362 C363 1.400 1_554 S
C363 C362 1.400 1_556 S
C363 C364 1.398 . S
C363 C369 1.491 . S
C364 H355 0.950 . S
C364 C363 1.398 . S
C364 C365 1.391 1_556 S
C365 H353 0.950 . S
C365 C361 1.393 . S
C365 C364 1.391 1_554 S
C366 H356 0.950 . S
C366 C367 1.386 . S
C366 C368 1.391 . S
C367 C366 1.386 . S
C367 C371 1.393 . S
C368 H357 0.950 . S
C368 C366 1.391 . S
C368 C369 1.400 . S
C369 C363 1.491 . S
C369 C368 1.400 . S
C369 C370 1.398 . S
C370 H358 0.950 . S
C370 C369 1.398 . S
C370 C371 1.391 . S
C371 H359 0.950 . S
C371 C367 1.393 . S
C371 C370 1.391 . S
H372 C380 0.950 1_455 S
H373 C385 0.950 . S
H374 C382 0.950 . S
H375 C384 0.950 . S
H376 C386 0.950 . S
H377 C388 0.950 . S
H378 C390 0.950 . S
H379 C391 0.950 . S
C380 H372 0.950 1_655 S
C380 C381 1.386 . S
C380 C382 1.391 1_655 S
C381 C380 1.386 . S
C381 C385 1.393 . S
C382 H374 0.950 . S
C382 C380 1.391 1_455 S
C382 C383 1.400 1_455 S
C383 C382 1.400 1_655 S
C383 C384 1.398 . S
C383 C389 1.491 . S
C384 H375 0.950 . S
C384 C383 1.398 . S
C384 C385 1.391 . S
C385 H373 0.950 . S
C385 C381 1.393 . S
C385 C384 1.391 . S
C386 H376 0.950 . S
C386 C387 1.386 . S
C386 C388 1.391 . S
C387 C386 1.386 . S
C387 C391 1.393 1_655 S
C388 H377 0.950 . S
C388 C386 1.391 . S
C388 C389 1.400 . S
C389 C383 1.491 . S
C389 C388 1.400 . S
C389 C390 1.398 1_655 S
C390 H378 0.950 . S
C390 C389 1.398 1_455 S
C390 C391 1.391 . S
C391 H379 0.950 . S
C391 C387 1.393 1_455 S
C391 C390 1.391 . S
H392 C400 0.950 . S
H393 C405 0.950 . S
H394 C402 0.950 . S
H395 C404 0.950 . S
H396 C406 0.949 . S
H397 C408 0.950 1_655 S
H398 C410 0.950 . S
H399 C411 0.950 . S
C400 H392 0.950 . S
C400 C401 1.386 . S
C400 C402 1.391 . S
C401 C400 1.386 . S
C401 C405 1.393 . S
C402 H394 0.950 . S
C402 C400 1.391 . S
C402 C403 1.400 . S
C403 C402 1.400 . S
C403 C404 1.398 . S
C403 C409 1.491 . S
C404 H395 0.950 . S
C404 C403 1.398 . S
C404 C405 1.391 . S
C405 H393 0.950 . S
C405 C401 1.393 . S
C405 C404 1.391 . S
C406 H396 0.949 . S
C406 C407 1.386 1_655 S
C406 C408 1.392 1_655 S
C407 C406 1.386 1_455 S
C407 C411 1.393 . S
C408 H397 0.950 1_455 S
C408 C406 1.392 1_455 S
C408 C409 1.400 . S
C409 C403 1.491 . S
C409 C408 1.400 . S
C409 C410 1.398 . S
C410 H398 0.950 . S
C410 C409 1.398 . S
C410 C411 1.391 . S
C411 H399 0.950 . S
C411 C407 1.393 . S
C411 C410 1.391 . S
H412 C420 0.950 . S
H413 C425 0.950 . S
H414 C422 0.950 . S
H415 C424 0.950 . S
H416 C426 0.950 . S
H417 C428 0.950 . S
H418 C430 0.950 . S
H419 C431 0.950 . S
C420 H412 0.950 . S
C420 C421 1.371 1_565 S
C420 C422 1.391 . S
C421 C420 1.371 1_545 S
C421 C425 1.409 . S
C422 H414 0.950 . S
C422 C420 1.391 . S
C422 C423 1.400 . S
C423 C422 1.400 . S
C423 C424 1.398 1_565 S
C423 C429 1.491 . S
C424 H415 0.950 . S
C424 C423 1.398 1_545 S
C424 C425 1.391 . S
C425 H413 0.950 . S
C425 C421 1.409 . S
C425 C424 1.391 . S
C426 H416 0.950 . S
C426 C427 1.386 1_545 S
C426 C428 1.391 . S
C427 C426 1.386 1_565 S
C427 C431 1.393 . S
C428 H417 0.950 . S
C428 C426 1.391 . S
C428 C429 1.400 1_545 S
C429 C423 1.491 . S
C429 C428 1.400 1_565 S
C429 C430 1.398 . S
C430 H418 0.950 . S
C430 C429 1.398 . S
C430 C431 1.391 . S
C431 H419 0.950 . S
C431 C427 1.393 . S
C431 C430 1.391 . S
H432 C440 0.950 . S
H433 C445 0.950 . S
H434 C442 0.950 . S
H435 C444 0.950 . S
H436 C446 0.950 . S
H437 C448 0.950 . S
H438 C450 0.950 . S
H439 C451 0.950 . S
C440 H432 0.950 . S
C440 C441 1.386 . S
C440 C442 1.391 . S
C441 C440 1.386 . S
C441 C445 1.393 . S
C442 H434 0.950 . S
C442 C440 1.391 . S
C442 C443 1.400 . S
C443 C442 1.400 . S
C443 C444 1.398 . S
C443 C449 1.491 . S
C444 H435 0.950 . S
C444 C443 1.398 . S
C444 C445 1.391 . S
C445 H433 0.950 . S
C445 C441 1.393 . S
C445 C444 1.391 . S
C446 H436 0.950 . S
C446 C447 1.386 . S
C446 C448 1.391 . S
C447 C446 1.386 . S
C447 C451 1.393 . S
C448 H437 0.950 . S
C448 C446 1.391 . S
C448 C449 1.400 . S
C449 C443 1.491 . S
C449 C448 1.400 . S
C449 C450 1.398 . S
C450 H438 0.950 . S
C450 C449 1.398 . S
C450 C451 1.391 . S
C451 H439 0.950 . S
C451 C447 1.393 . S
C451 C450 1.391 . S
H452 C460 0.950 . S
H453 C465 0.950 . S
H454 C462 0.950 . S
H455 C464 0.950 . S
H456 C466 0.950 . S
H457 C468 0.950 . S
H458 C470 0.950 . S
H459 C471 0.950 . S
C460 H452 0.950 . S
C460 C461 1.386 . S
C460 C462 1.391 . S
C461 C460 1.386 . S
C461 C465 1.393 . S
C462 H454 0.950 . S
C462 C460 1.391 . S
C462 C463 1.400 . S
C463 C462 1.400 . S
C463 C464 1.398 . S
C463 C469 1.491 . S
C464 H455 0.950 . S
C464 C463 1.398 . S
C464 C465 1.391 . S
C465 H453 0.950 . S
C465 C461 1.393 . S
C465 C464 1.391 . S
C466 H456 0.950 . S
C466 C467 1.386 . S
C466 C468 1.391 . S
C467 C466 1.386 . S
C467 C471 1.393 . S
C468 H457 0.950 . S
C468 C466 1.391 . S
C468 C469 1.400 . S
C469 C463 1.491 . S
C469 C468 1.400 . S
C469 C470 1.398 . S
C470 H458 0.950 . S
C470 C469 1.398 . S
C470 C471 1.391 . S
C471 H459 0.950 . S
C471 C467 1.393 . S
C471 C470 1.391 . S
H472 C480 0.950 1_554 S
H473 C485 0.950 . S
H474 C482 0.950 . S
H475 C484 0.950 . S
H476 C486 0.950 . S
H477 C488 0.950 . S
H478 C490 0.950 . S
H479 C491 0.950 . S
C480 H472 0.950 1_556 S
C480 C481 1.386 . S
C480 C482 1.391 . S
C481 C480 1.386 . S
C481 C485 1.393 . S
C482 H474 0.950 . S
C482 C480 1.391 . S
C482 C483 1.400 . S
C483 C482 1.400 . S
C483 C484 1.398 . S
C483 C489 1.491 . S
C484 H475 0.950 . S
C484 C483 1.398 . S
C484 C485 1.391 . S
C485 H473 0.950 . S
C485 C481 1.393 . S
C485 C484 1.391 . S
C486 H476 0.950 . S
C486 C487 1.386 . S
C486 C488 1.391 1_455 S
C487 C486 1.386 . S
C487 C491 1.393 . S
C488 H477 0.950 . S
C488 C486 1.391 1_655 S
C488 C489 1.400 . S
C489 C483 1.491 . S
C489 C488 1.400 . S
C489 C490 1.398 1_655 S
C490 H478 0.950 . S
C490 C489 1.398 1_455 S
C490 C491 1.391 . S
C491 H479 0.950 . S
C491 C487 1.393 . S
C491 C490 1.391 . S
H492 C500 0.950 . S
H493 C505 0.950 . S
H494 C502 0.950 . S
H495 C504 0.950 . S
H496 C506 0.950 . S
H497 C508 0.950 . S
H498 C510 0.950 . S
H499 C511 0.950 . S
C500 H492 0.950 . S
C500 C501 1.362 1_565 S
C500 C502 1.391 1_554 S
C501 C500 1.362 1_545 S
C501 C505 1.417 1_554 S
C502 H494 0.950 . S
C502 C500 1.391 1_556 S
C502 C503 1.400 1_565 S
C503 C502 1.400 1_545 S
C503 C504 1.398 . S
C503 C509 1.491 . S
C504 H495 0.950 . S
C504 C503 1.398 . S
C504 C505 1.391 . S
C505 H493 0.950 . S
C505 C501 1.417 1_556 S
C505 C504 1.391 . S
C506 H496 0.950 . S
C506 C507 1.386 . S
C506 C508 1.391 . S
C507 C506 1.386 . S
C507 C511 1.393 1_545 S
C508 H497 0.950 . S
C508 C506 1.391 . S
C508 C509 1.400 . S
C509 C503 1.491 . S
C509 C508 1.400 . S
C509 C510 1.398 1_545 S
C510 H498 0.950 . S
C510 C509 1.398 1_565 S
C510 C511 1.391 . S
C511 H499 0.950 . S
C511 C507 1.393 1_565 S
C511 C510 1.391 . S
H512 C520 0.950 . S
H513 C525 0.950 . S
H514 C522 0.950 . S
H515 C524 0.950 . S
H516 C526 0.950 . S
H517 C528 0.950 . S
H518 C530 0.950 . S
H519 C531 0.950 . S
C520 H512 0.950 . S
C520 C521 1.386 . S
C520 C522 1.391 1_554 S
C521 C520 1.386 . S
C521 C525 1.393 1_554 S
C522 H514 0.950 . S
C522 C520 1.391 1_556 S
C522 C523 1.400 . S
C523 C522 1.400 . S
C523 C524 1.398 . S
C523 C529 1.491 . S
C524 H515 0.950 . S
C524 C523 1.398 . S
C524 C525 1.391 . S
C525 H513 0.950 . S
C525 C521 1.393 1_556 S
C525 C524 1.391 . S
C526 H516 0.950 . S
C526 C527 1.386 . S
C526 C528 1.391 . S
C527 C526 1.386 . S
C527 C531 1.393 . S
C528 H517 0.950 . S
C528 C526 1.391 . S
C528 C529 1.400 . S
C529 C523 1.491 . S
C529 C528 1.400 . S
C529 C530 1.398 . S
C530 H518 0.950 . S
C530 C529 1.398 . S
C530 C531 1.391 . S
C531 H519 0.950 . S
C531 C527 1.393 . S
C531 C530 1.391 . S
H532 C540 0.950 . S
H533 C545 0.949 1_556 S
H534 C542 0.950 . S
H535 C544 0.950 . S
H536 C546 0.950 . S
H537 C548 0.950 . S
H538 C550 0.950 . S
H539 C551 0.950 . S
C540 H532 0.950 . S
C540 C541 1.386 . S
C540 C542 1.391 . S
C541 C540 1.386 . S
C541 C545 1.393 . S
C542 H534 0.950 . S
C542 C540 1.391 . S
C542 C543 1.400 1_554 S
C543 C542 1.400 1_556 S
C543 C544 1.398 . S
C543 C549 1.491 . S
C544 H535 0.950 . S
C544 C543 1.398 . S
C544 C545 1.391 1_556 S
C545 H533 0.949 1_554 S
C545 C541 1.393 . S
C545 C544 1.391 1_554 S
C546 H536 0.950 . S
C546 C547 1.386 . S
C546 C548 1.391 . S
C547 C546 1.386 . S
C547 C551 1.393 . S
C548 H537 0.950 . S
C548 C546 1.391 . S
C548 C549 1.400 . S
C549 C543 1.491 . S
C549 C548 1.400 . S
C549 C550 1.398 . S
C550 H538 0.950 . S
C550 C549 1.398 . S
C550 C551 1.391 . S
C551 H539 0.950 . S
C551 C547 1.393 . S
C551 C550 1.391 . S
H552 C560 0.950 . S
H553 C565 0.950 . S
H554 C562 0.950 . S
H555 C564 0.950 . S
H556 C566 0.950 . S
H557 C568 0.950 . S
H558 C570 0.950 . S
H559 C571 0.950 . S
C560 H552 0.950 . S
C560 C561 1.386 . S
C560 C562 1.391 . S
C561 C560 1.386 . S
C561 C565 1.393 . S
C562 H554 0.950 . S
C562 C560 1.391 . S
C562 C563 1.400 . S
C563 C562 1.400 . S
C563 C564 1.398 . S
C563 C569 1.491 . S
C564 H555 0.950 . S
C564 C563 1.398 . S
C564 C565 1.391 . S
C565 H553 0.950 . S
C565 C561 1.393 . S
C565 C564 1.391 . S
C566 H556 0.950 . S
C566 C567 1.386 . S
C566 C568 1.391 . S
C567 C566 1.386 . S
C567 C571 1.393 . S
C568 H557 0.950 . S
C568 C566 1.391 . S
C568 C569 1.400 . S
C569 C563 1.491 . S
C569 C568 1.400 . S
C569 C570 1.398 . S
C570 H558 0.950 . S
C570 C569 1.398 . S
C570 C571 1.391 . S
C571 H559 0.950 . S
C571 C567 1.393 . S
C571 C570 1.391 . S
H572 C580 0.950 . S
H573 C585 0.950 . S
H574 C582 0.950 . S
H575 C584 0.950 . S
H576 C586 0.950 . S
H577 C588 0.950 . S
H578 C590 0.950 . S
H579 C591 0.950 . S
C580 H572 0.950 . S
C580 C581 1.367 1_565 S
C580 C582 1.391 . S
C581 C580 1.367 1_545 S
C581 C585 1.411 . S
C582 H574 0.950 . S
C582 C580 1.391 . S
C582 C583 1.400 1_565 S
C583 C582 1.400 1_545 S
C583 C584 1.398 . S
C583 C589 1.491 . S
C584 H575 0.950 . S
C584 C583 1.398 . S
C584 C585 1.391 . S
C585 H573 0.950 . S
C585 C581 1.411 . S
C585 C584 1.391 . S
C586 H576 0.950 . S
C586 C587 1.386 . S
C586 C588 1.391 . S
C587 C586 1.386 . S
C587 C591 1.393 1_545 S
C588 H577 0.950 . S
C588 C586 1.391 . S
C588 C589 1.400 1_556 S
C589 C583 1.491 . S
C589 C588 1.400 1_554 S
C589 C590 1.398 1_545 S
C590 H578 0.950 . S
C590 C589 1.398 1_565 S
C590 C591 1.391 1_554 S
C591 H579 0.950 . S
C591 C587 1.393 1_565 S
C591 C590 1.391 1_556 S
H592 C600 0.950 . S
H593 C605 0.950 . S
H594 C602 0.950 . S
H595 C604 0.936 1_556 S
H596 C606 0.950 . S
H597 C608 0.950 . S
H598 C610 0.950 . S
H599 C611 0.950 . S
C600 H592 0.950 . S
C600 C601 1.386 . S
C600 C602 1.391 . S
C601 C600 1.386 . S
C601 C605 1.393 . S
C602 H594 0.950 . S
C602 C600 1.391 . S
C602 C603 1.400 . S
C603 C602 1.400 . S
C603 C604 1.398 . S
C603 C609 1.491 . S
C604 H595 0.936 1_554 S
C604 C603 1.398 . S
C604 C605 1.391 . S
C605 H593 0.950 . S
C605 C601 1.393 . S
C605 C604 1.391 . S
C606 H596 0.950 . S
C606 C607 1.386 . S
C606 C608 1.391 . S
C607 C606 1.386 . S
C607 C611 1.393 . S
C608 H597 0.950 . S
C608 C606 1.391 . S
C608 C609 1.400 1_556 S
C609 C603 1.491 . S
C609 C608 1.400 1_554 S
C609 C610 1.398 . S
C610 H598 0.950 . S
C610 C609 1.398 . S
C610 C611 1.391 1_554 S
C611 H599 0.950 . S
C611 C607 1.393 . S
C611 C610 1.391 1_556 S
H612 C620 0.950 . S
H613 C625 0.950 . S
H614 C622 0.950 . S
H615 C624 0.950 1_556 S
H616 C626 0.950 . S
H617 C628 0.950 . S
H618 C630 0.950 1_554 S
H619 C631 0.950 . S
C620 H612 0.950 . S
C620 C621 1.386 . S
C620 C622 1.391 . S
C621 C620 1.386 . S
C621 C625 1.393 . S
C622 H614 0.950 . S
C622 C620 1.391 . S
C622 C623 1.400 . S
C623 C622 1.400 . S
C623 C624 1.398 . S
C623 C629 1.491 1_554 S
C624 H615 0.950 1_554 S
C624 C623 1.398 . S
C624 C625 1.391 . S
C625 H613 0.950 . S
C625 C621 1.393 . S
C625 C624 1.391 . S
C626 H616 0.950 . S
C626 C627 1.386 . S
C626 C628 1.391 . S
C627 C626 1.386 . S
C627 C631 1.393 . S
C628 H617 0.950 . S
C628 C626 1.391 . S
C628 C629 1.400 . S
C629 C623 1.491 1_556 S
C629 C628 1.400 . S
C629 C630 1.398 . S
C630 H618 0.950 1_556 S
C630 C629 1.398 . S
C630 C631 1.391 . S
C631 H619 0.950 . S
C631 C627 1.393 . S
C631 C630 1.391 . S
H632 C640 0.950 1_455 S
H633 C645 0.950 . S
H634 C642 0.950 1_455 S
H635 C644 0.950 . S
H636 C646 0.950 . S
H637 C648 0.950 . S
H638 C650 0.950 1_455 S
H639 C651 0.950 . S
C640 H632 0.950 1_655 S
C640 C641 1.386 . S
C640 C642 1.391 . S
C641 C640 1.386 . S
C641 C645 1.393 . S
C642 H634 0.950 1_655 S
C642 C640 1.391 . S
C642 C643 1.400 . S
C643 C642 1.400 . S
C643 C644 1.398 . S
C643 C649 1.491 . S
C644 H635 0.950 . S
C644 C643 1.398 . S
C644 C645 1.391 . S
C645 H633 0.950 . S
C645 C641 1.393 . S
C645 C644 1.391 . S
C646 H636 0.950 . S
C646 C647 1.386 . S
C646 C648 1.391 . S
C647 C646 1.386 . S
C647 C651 1.393 1_655 S
C648 H637 0.950 . S
C648 C646 1.391 . S
C648 C649 1.400 . S
C649 C643 1.491 . S
C649 C648 1.400 . S
C649 C650 1.398 . S
C650 H638 0.950 1_655 S
C650 C649 1.398 . S
C650 C651 1.391 1_655 S
C651 H639 0.950 . S
C651 C647 1.393 1_455 S
C651 C650 1.391 1_455 S
H652 C660 0.950 . S
H653 C665 0.950 . S
H654 C662 0.950 . S
H655 C664 0.950 . S
H656 C666 0.950 . S
H657 C668 0.950 . S
H658 C670 0.950 . S
H659 C671 0.950 . S
C660 H652 0.950 . S
C660 C661 1.385 . S
C660 C662 1.391 . S
C661 C660 1.385 . S
C661 C665 1.394 1_545 S
C662 H654 0.950 . S
C662 C660 1.391 . S
C662 C663 1.400 1_545 S
C663 C662 1.400 1_565 S
C663 C664 1.398 . S
C663 C669 1.491 . S
C664 H655 0.950 . S
C664 C663 1.398 . S
C664 C665 1.391 . S
C665 H653 0.950 . S
C665 C661 1.394 1_565 S
C665 C664 1.391 . S
C666 H656 0.950 . S
C666 C667 1.386 . S
C666 C668 1.391 . S
C667 C666 1.386 . S
C667 C671 1.393 1_565 S
C668 H657 0.950 . S
C668 C666 1.391 . S
C668 C669 1.400 . S
C669 C663 1.491 . S
C669 C668 1.400 . S
C669 C670 1.398 1_565 S
C670 H658 0.950 . S
C670 C669 1.398 1_545 S
C670 C671 1.391 . S
C671 H659 0.950 . S
C671 C667 1.393 1_545 S
C671 C670 1.391 . S
H672 C680 0.950 . S
H673 C685 0.950 . S
H674 C682 0.950 . S
H675 C684 0.950 . S
H676 C686 0.950 . S
H677 C688 0.950 . S
H678 C690 0.950 . S
H679 C691 0.950 . S
C680 H672 0.950 . S
C680 C681 1.386 . S
C680 C682 1.391 . S
C681 C680 1.386 . S
C681 C685 1.393 . S
C682 H674 0.950 . S
C682 C680 1.391 . S
C682 C683 1.400 . S
C683 C682 1.400 . S
C683 C684 1.398 . S
C683 C689 1.491 . S
C684 H675 0.950 . S
C684 C683 1.398 . S
C684 C685 1.391 . S
C685 H673 0.950 . S
C685 C681 1.393 . S
C685 C684 1.391 . S
C686 H676 0.950 . S
C686 C687 1.386 . S
C686 C688 1.391 . S
C687 C686 1.386 . S
C687 C691 1.393 . S
C688 H677 0.950 . S
C688 C686 1.391 . S
C688 C689 1.400 . S
C689 C683 1.491 . S
C689 C688 1.400 . S
C689 C690 1.398 . S
C690 H678 0.950 . S
C690 C689 1.398 . S
C690 C691 1.391 . S
C691 H679 0.950 . S
C691 C687 1.393 . S
C691 C690 1.391 . S
H692 C700 0.950 . S
H693 C705 0.950 . S
H694 C702 0.950 . S
H695 C704 0.950 . S
H696 C706 0.950 . S
H697 C708 0.950 . S
H698 C710 0.950 . S
H699 C711 0.950 . S
C700 H692 0.950 . S
C700 C701 1.386 . S
C700 C702 1.391 . S
C701 C700 1.386 . S
C701 C705 1.393 . S
C702 H694 0.950 . S
C702 C700 1.391 . S
C702 C703 1.400 . S
C703 C702 1.400 . S
C703 C704 1.398 . S
C703 C709 1.491 . S
C704 H695 0.950 . S
C704 C703 1.398 . S
C704 C705 1.391 . S
C705 H693 0.950 . S
C705 C701 1.393 . S
C705 C704 1.391 . S
C706 H696 0.950 . S
C706 C707 1.386 . S
C706 C708 1.391 . S
C707 C706 1.386 . S
C707 C711 1.393 . S
C708 H697 0.950 . S
C708 C706 1.391 . S
C708 C709 1.400 . S
C709 C703 1.491 . S
C709 C708 1.400 . S
C709 C710 1.398 . S
C710 H698 0.950 . S
C710 C709 1.398 . S
C710 C711 1.391 . S
C711 H699 0.950 . S
C711 C707 1.393 . S
C711 C710 1.391 . S
C241 C76 1.838 . S
C247 C113 1.878 . S
C267 C134 1.548 . S
C261 C88 1.513 . S
C287 C168 1.388 . S
C281 C52 1.351 . S
C307 C202 1.547 . S
C301 C64 1.522 . S
C327 C104 1.878 . S
C321 C28 1.838 1_546 S
C341 C40 1.521 . S
C347 C143 1.550 . S
C361 C4 1.348 . S
C367 C177 1.386 . S
C381 C16 1.532 . S
C387 C211 1.548 1_655 S
C407 C125 0.508 . S
C401 C69 0.604 . S
C427 C130 0.970 . S
C421 C81 0.948 . S
C447 C164 0.885 . S
C441 C93 0.865 . S
C461 C57 0.419 . S
C467 C198 0.386 . S
C481 C21 0.579 . S
C487 C96 0.489 . S
C507 C159 0.962 . S
C501 C33 0.937 . S
C527 C193 0.880 . S
C521 C45 0.862 . S
C541 C9 0.418 . S
C547 C227 0.371 . S
C561 C66 1.309 . S
C567 C109 1.329 . S
C581 C78 1.726 . S
C587 C138 1.762 . S
C607 C172 1.555 . S
C601 C90 1.521 . S
C627 C206 1.617 . S
C621 C54 1.577 . S
C641 C18 1.274 . S
C647 C100 1.327 . S
C667 C147 1.760 . S
C661 C30 1.710 . S
C687 C181 1.551 . S
C681 C42 1.524 . S
C701 C6 1.567 . S
C707 C215 1.615 . S
