# Generated by pormake.
# Topology ptr, (4,4)-cn, num edge types: 1
# Building blocks:
#     Node 0, Type 0, BuildingBlock: QUQFOY_clean_sbu_3, # of connection points: 4
#     Node 1, Type 0, BuildingBlock: QUQFOY_clean_sbu_3, # of connection points: 4
#     Node 2, Type 0, BuildingBlock: QUQFOY_clean_sbu_3, # of connection points: 4
#     Node 3, Type 0, BuildingBlock: QUQFOY_clean_sbu_3, # of connection points: 4
#     Node 4, Type 0, BuildingBlock: QUQFOY_clean_sbu_3, # of connection points: 4
#     Node 5, Type 0, BuildingBlock: QUQFOY_clean_sbu_3, # of connection points: 4
#     Node 6, Type 0, BuildingBlock: QUQFOY_clean_sbu_3, # of connection points: 4
#     Node 7, Type 0, BuildingBlock: QUQFOY_clean_sbu_3, # of connection points: 4
#     Node 8, Type 0, BuildingBlock: QUQFOY_clean_sbu_3, # of connection points: 4
#     Node 9, Type 0, BuildingBlock: QUQFOY_clean_sbu_3, # of connection points: 4
#     Node 10, Type 0, BuildingBlock: QUQFOY_clean_sbu_3, # of connection points: 4
#     Node 11, Type 0, BuildingBlock: QUQFOY_clean_sbu_3, # of connection points: 4
#     Node 12, Type 0, BuildingBlock: QUQFOY_clean_sbu_3, # of connection points: 4
#     Node 13, Type 0, BuildingBlock: QUQFOY_clean_sbu_3, # of connection points: 4
#     Node 14, Type 0, BuildingBlock: QUQFOY_clean_sbu_3, # of connection points: 4
#     Node 15, Type 0, BuildingBlock: QUQFOY_clean_sbu_3, # of connection points: 4
#     Node 16, Type 0, BuildingBlock: QUQFOY_clean_sbu_3, # of connection points: 4
#     Node 17, Type 0, BuildingBlock: QUQFOY_clean_sbu_3, # of connection points: 4
#     Node 18, Type 1, BuildingBlock: NAHDIM_clean_linker_0, # of connection points: 4
#     Node 19, Type 1, BuildingBlock: NAHDIM_clean_linker_0, # of connection points: 4
#     Node 20, Type 1, BuildingBlock: NAHDIM_clean_linker_0, # of connection points: 4
#     Node 21, Type 1, BuildingBlock: NAHDIM_clean_linker_0, # of connection points: 4
#     Node 22, Type 1, BuildingBlock: NAHDIM_clean_linker_0, # of connection points: 4
#     Node 23, Type 1, BuildingBlock: NAHDIM_clean_linker_0, # of connection points: 4
#     Node 24, Type 1, BuildingBlock: NAHDIM_clean_linker_0, # of connection points: 4
#     Node 25, Type 1, BuildingBlock: NAHDIM_clean_linker_0, # of connection points: 4
#     Node 26, Type 1, BuildingBlock: NAHDIM_clean_linker_0, # of connection points: 4
#     Node 27, Type 1, BuildingBlock: NAHDIM_clean_linker_0, # of connection points: 4
#     Node 28, Type 1, BuildingBlock: NAHDIM_clean_linker_0, # of connection points: 4
#     Node 29, Type 1, BuildingBlock: NAHDIM_clean_linker_0, # of connection points: 4
#     Node 30, Type 1, BuildingBlock: NAHDIM_clean_linker_0, # of connection points: 4
#     Node 31, Type 1, BuildingBlock: NAHDIM_clean_linker_0, # of connection points: 4
#     Node 32, Type 1, BuildingBlock: NAHDIM_clean_linker_0, # of connection points: 4
#     Node 33, Type 1, BuildingBlock: NAHDIM_clean_linker_0, # of connection points: 4
#     Node 34, Type 1, BuildingBlock: NAHDIM_clean_linker_0, # of connection points: 4
#     Node 35, Type 1, BuildingBlock: NAHDIM_clean_linker_0, # of connection points: 4
#     Edge 36, Type (0, 1), BuildingBlock: CIFDUS_clean_linker_0, # of connection points: 2
#     Edge 37, Type (0, 1), BuildingBlock: CIFDUS_clean_linker_0, # of connection points: 2
#     Edge 38, Type (0, 1), BuildingBlock: CIFDUS_clean_linker_0, # of connection points: 2
#     Edge 39, Type (0, 1), BuildingBlock: CIFDUS_clean_linker_0, # of connection points: 2
#     Edge 40, Type (0, 1), BuildingBlock: CIFDUS_clean_linker_0, # of connection points: 2
#     Edge 41, Type (0, 1), BuildingBlock: CIFDUS_clean_linker_0, # of connection points: 2
#     Edge 42, Type (0, 1), BuildingBlock: CIFDUS_clean_linker_0, # of connection points: 2
#     Edge 43, Type (0, 1), BuildingBlock: CIFDUS_clean_linker_0, # of connection points: 2
#     Edge 44, Type (0, 1), BuildingBlock: CIFDUS_clean_linker_0, # of connection points: 2
#     Edge 45, Type (0, 1), BuildingBlock: CIFDUS_clean_linker_0, # of connection points: 2
#     Edge 46, Type (0, 1), BuildingBlock: CIFDUS_clean_linker_0, # of connection points: 2
#     Edge 47, Type (0, 1), BuildingBlock: CIFDUS_clean_linker_0, # of connection points: 2
#     Edge 48, Type (0, 1), BuildingBlock: CIFDUS_clean_linker_0, # of connection points: 2
#     Edge 49, Type (0, 1), BuildingBlock: CIFDUS_clean_linker_0, # of connection points: 2
#     Edge 50, Type (0, 1), BuildingBlock: CIFDUS_clean_linker_0, # of connection points: 2
#     Edge 51, Type (0, 1), BuildingBlock: CIFDUS_clean_linker_0, # of connection points: 2
#     Edge 52, Type (0, 1), BuildingBlock: CIFDUS_clean_linker_0, # of connection points: 2
#     Edge 53, Type (0, 1), BuildingBlock: CIFDUS_clean_linker_0, # of connection points: 2
#     Edge 54, Type (0, 1), BuildingBlock: CIFDUS_clean_linker_0, # of connection points: 2
#     Edge 55, Type (0, 1), BuildingBlock: CIFDUS_clean_linker_0, # of connection points: 2
#     Edge 56, Type (0, 1), BuildingBlock: CIFDUS_clean_linker_0, # of connection points: 2
#     Edge 57, Type (0, 1), BuildingBlock: CIFDUS_clean_linker_0, # of connection points: 2
#     Edge 58, Type (0, 1), BuildingBlock: CIFDUS_clean_linker_0, # of connection points: 2
#     Edge 59, Type (0, 1), BuildingBlock: CIFDUS_clean_linker_0, # of connection points: 2
#     Edge 60, Type (0, 1), BuildingBlock: CIFDUS_clean_linker_0, # of connection points: 2
#     Edge 61, Type (0, 1), BuildingBlock: CIFDUS_clean_linker_0, # of connection points: 2
#     Edge 62, Type (0, 1), BuildingBlock: CIFDUS_clean_linker_0, # of connection points: 2
#     Edge 63, Type (0, 1), BuildingBlock: CIFDUS_clean_linker_0, # of connection points: 2
#     Edge 64, Type (0, 1), BuildingBlock: CIFDUS_clean_linker_0, # of connection points: 2
#     Edge 65, Type (0, 1), BuildingBlock: CIFDUS_clean_linker_0, # of connection points: 2
#     Edge 66, Type (0, 1), BuildingBlock: CIFDUS_clean_linker_0, # of connection points: 2
#     Edge 67, Type (0, 1), BuildingBlock: CIFDUS_clean_linker_0, # of connection points: 2
#     Edge 68, Type (0, 1), BuildingBlock: CIFDUS_clean_linker_0, # of connection points: 2
#     Edge 69, Type (0, 1), BuildingBlock: CIFDUS_clean_linker_0, # of connection points: 2
#     Edge 70, Type (0, 1), BuildingBlock: CIFDUS_clean_linker_0, # of connection points: 2
#     Edge 71, Type (0, 1), BuildingBlock: CIFDUS_clean_linker_0, # of connection points: 2
#     Edge 72, Type (0, 1), BuildingBlock: CIFDUS_clean_linker_0, # of connection points: 2
#     Edge 73, Type (0, 1), BuildingBlock: CIFDUS_clean_linker_0, # of connection points: 2
#     Edge 74, Type (0, 1), BuildingBlock: CIFDUS_clean_linker_0, # of connection points: 2
#     Edge 75, Type (0, 1), BuildingBlock: CIFDUS_clean_linker_0, # of connection points: 2
#     Edge 76, Type (0, 1), BuildingBlock: CIFDUS_clean_linker_0, # of connection points: 2
#     Edge 77, Type (0, 1), BuildingBlock: CIFDUS_clean_linker_0, # of connection points: 2
#     Edge 78, Type (0, 1), BuildingBlock: CIFDUS_clean_linker_0, # of connection points: 2
#     Edge 79, Type (0, 1), BuildingBlock: CIFDUS_clean_linker_0, # of connection points: 2
#     Edge 80, Type (0, 1), BuildingBlock: CIFDUS_clean_linker_0, # of connection points: 2
#     Edge 81, Type (0, 1), BuildingBlock: CIFDUS_clean_linker_0, # of connection points: 2
#     Edge 82, Type (0, 1), BuildingBlock: CIFDUS_clean_linker_0, # of connection points: 2
#     Edge 83, Type (0, 1), BuildingBlock: CIFDUS_clean_linker_0, # of connection points: 2
#     Edge 84, Type (0, 1), BuildingBlock: CIFDUS_clean_linker_0, # of connection points: 2
#     Edge 85, Type (0, 1), BuildingBlock: CIFDUS_clean_linker_0, # of connection points: 2
#     Edge 86, Type (0, 1), BuildingBlock: CIFDUS_clean_linker_0, # of connection points: 2
#     Edge 87, Type (0, 1), BuildingBlock: CIFDUS_clean_linker_0, # of connection points: 2
#     Edge 88, Type (0, 1), BuildingBlock: CIFDUS_clean_linker_0, # of connection points: 2
#     Edge 89, Type (0, 1), BuildingBlock: CIFDUS_clean_linker_0, # of connection points: 2
#     Edge 90, Type (0, 1), BuildingBlock: CIFDUS_clean_linker_0, # of connection points: 2
#     Edge 91, Type (0, 1), BuildingBlock: CIFDUS_clean_linker_0, # of connection points: 2
#     Edge 92, Type (0, 1), BuildingBlock: CIFDUS_clean_linker_0, # of connection points: 2
#     Edge 93, Type (0, 1), BuildingBlock: CIFDUS_clean_linker_0, # of connection points: 2
#     Edge 94, Type (0, 1), BuildingBlock: CIFDUS_clean_linker_0, # of connection points: 2
#     Edge 95, Type (0, 1), BuildingBlock: CIFDUS_clean_linker_0, # of connection points: 2
#     Edge 96, Type (0, 1), BuildingBlock: CIFDUS_clean_linker_0, # of connection points: 2
#     Edge 97, Type (0, 1), BuildingBlock: CIFDUS_clean_linker_0, # of connection points: 2
#     Edge 98, Type (0, 1), BuildingBlock: CIFDUS_clean_linker_0, # of connection points: 2
#     Edge 99, Type (0, 1), BuildingBlock: CIFDUS_clean_linker_0, # of connection points: 2
#     Edge 100, Type (0, 1), BuildingBlock: CIFDUS_clean_linker_0, # of connection points: 2
#     Edge 101, Type (0, 1), BuildingBlock: CIFDUS_clean_linker_0, # of connection points: 2
#     Edge 102, Type (0, 1), BuildingBlock: CIFDUS_clean_linker_0, # of connection points: 2
#     Edge 103, Type (0, 1), BuildingBlock: CIFDUS_clean_linker_0, # of connection points: 2
#     Edge 104, Type (0, 1), BuildingBlock: CIFDUS_clean_linker_0, # of connection points: 2
#     Edge 105, Type (0, 1), BuildingBlock: CIFDUS_clean_linker_0, # of connection points: 2
#     Edge 106, Type (0, 1), BuildingBlock: CIFDUS_clean_linker_0, # of connection points: 2
#     Edge 107, Type (0, 1), BuildingBlock: CIFDUS_clean_linker_0, # of connection points: 2
# Relax obj value: 0.030
# Max RMSD: 0.172
# Mean RMSD: 0.059
data_MOF--net-ptr--node1-QUQFOY_clean_sbu_3--node2-NAHDIM_clean_linker_0--edge1-CIFDUS_clean_linker_0
_symmetry_space_group_name_H-M    P1
_symmetry_Int_Tables_number       1
_symmetry_cell_setting            triclinic
loop_
_symmetry_equiv_pos_as_xyz
'x, y, z'
_cell_length_a     86.778803
_cell_length_b     86.937339
_cell_length_c     74.285858
_cell_angle_alpha  91.174143
_cell_angle_beta   89.876868
_cell_angle_gamma 120.71604
loop_
_atom_site_label
_atom_site_type_symbol
_atom_site_fract_x
_atom_site_fract_y
_atom_site_fract_z
_atom_type_partial_charge
C0 C 0.9716 0.30577 0.00035 0.0
O1 O 0.96248 0.31224 0.00675 0.0
Cd2 Cd 0.97727 0.3435 0.0159 0.0
O3 O 0.98861 0.31527 0.0001 0.0
Cd4 Cd 0.01393 0.34483 0.00913 0.0
C5 C 0.00073 0.36216 0.97686 0.0
O6 O 0.00248 0.35283 0.03575 0.0
O7 O 0.02595 0.37414 0.02295 0.0
O8 O 0.02582 0.32959 0.02561 0.0
C9 C 0.01486 0.36922 0.03578 0.0
O10 O 0.98816 0.35906 0.98777 0.0
C11 C 0.04029 0.33551 0.01691 0.0
O12 O 0.01215 0.35754 0.98049 0.0
O13 O 0.04281 0.34619 0.00425 0.0
C14 C 0.65032 0.68043 0.03758 0.0
O15 O 0.63336 0.67188 0.03591 0.0
Cd16 Cd 0.61756 0.64619 0.01631 0.0
O17 O 0.6597 0.67535 0.02896 0.0
Cd18 Cd 0.65708 0.65244 0.00696 0.0
C19 C 0.63062 0.61805 0.03398 0.0
O20 O 0.63513 0.65533 0.98983 0.0
O21 O 0.64021 0.63498 0.97981 0.0
O22 O 0.68502 0.67872 -0.00099 0.0
C23 C 0.63202 0.64346 0.97796 0.0
O24 O 0.61848 0.62159 0.03021 0.0
C25 C 0.69289 0.67063 0.99349 0.0
O26 O 0.64668 0.62794 0.0286 0.0
O27 O 0.68425 0.65367 0.99466 0.0
C28 C 0.30524 0.96425 0.01128 0.0
O29 O 0.31189 0.95535 0.0047 0.0
Cd30 Cd 0.34273 0.97113 0.99502 0.0
O31 O 0.31405 0.98125 0.01082 0.0
Cd32 Cd 0.34198 0.00649 -0.00079 0.0
C33 C 0.36305 -0.00144 0.03235 0.0
O34 O 0.34877 0.99336 0.97292 0.0
O35 O 0.37012 0.01872 0.98369 0.0
O36 O 0.32227 0.01372 0.98369 0.0
C37 C 0.36469 0.00657 0.97152 0.0
O38 O 0.35997 0.98511 0.02249 0.0
C39 C 0.32926 0.02972 0.98958 0.0
O40 O 0.35734 0.00885 0.02773 0.0
O41 O 0.34252 0.03528 0.00038 0.0
C42 C 0.96669 0.66822 0.98641 0.0
O43 O 0.95426 0.65218 0.98874 0.0
Cd44 Cd 0.96109 0.63146 0.00251 0.0
O45 O 0.98232 0.67381 0.99277 0.0
Cd46 Cd -0.00062 0.66457 0.01173 0.0
C47 C -0.00248 0.63683 0.97833 0.0
O48 O 0.97521 0.64401 0.03124 0.0
O49 O 2e-05 0.64386 0.03286 0.0
O50 O 0.00772 0.69153 0.02903 0.0
C51 C 0.9843 0.63815 0.03869 0.0
O52 O 0.9809 0.62744 0.98192 0.0
C53 C 0.02446 0.69912 0.02642 0.0
O54 O 0.00762 0.65155 0.98677 0.0
O55 O 0.02993 0.69029 0.01735 0.0
C56 C 0.30813 0.34284 0.02474 0.0
O57 O 0.31214 0.35908 0.02497 0.0
Cd58 Cd 0.3399 0.38152 0.01208 0.0
O59 O 0.31797 0.33811 0.0165 0.0
Cd60 Cd 0.34454 0.34954 -0.00302 0.0
C61 C 0.37091 0.3737 0.03248 0.0
O62 O 0.33947 0.37106 0.9817 0.0
O63 O 0.36409 0.37177 0.97511 0.0
O64 O 0.325 0.32284 0.97932 0.0
C65 C 0.35361 0.37766 0.97237 0.0
O66 O 0.3637 0.38325 0.03133 0.0
C67 C 0.33493 0.31608 0.97981 0.0
O68 O 0.36627 0.36038 0.02179 0.0
O69 O 0.35004 0.32534 0.98772 0.0
C70 C 0.69826 0.03596 0.98889 0.0
O71 O 0.69585 0.04814 0.99546 0.0
Cd72 Cd 0.66583 0.03805 0.00601 0.0
O73 O 0.68667 0.01963 0.99137 0.0
Cd74 Cd 0.6597 0.00072 0.00892 0.0
C75 C 0.6393 0.0061 0.97378 0.0
O76 O 0.65772 0.02002 0.03255 0.0
O77 O 0.6337 0.99465 0.02589 0.0
O78 O 0.68002 0.99587 0.02624 0.0
C79 C 0.64144 0.00855 0.03599 0.0
O80 O 0.64617 0.02191 0.9804 0.0
C81 C 0.67222 0.97905 0.0238 0.0
O82 O 0.64196 0.99455 0.9812 0.0
O83 O 0.65787 0.97172 0.01433 0.0
C84 C 0.64018 0.64925 0.31246 0.0
O85 O 0.63093 0.65678 0.31365 0.0
Cd86 Cd 0.63972 0.68341 0.33134 0.0
O87 O 0.65506 0.65573 0.32091 0.0
Cd88 Cd 0.67431 0.68068 0.34223 0.0
C89 C 0.68074 0.7135 0.31353 0.0
O90 O 0.64907 0.67752 0.35926 0.0
O91 O 0.67468 0.69941 0.36809 0.0
O92 O 0.68005 0.65901 0.35616 0.0
C93 C 0.65783 0.69046 0.37022 0.0
O94 O 0.66439 0.70867 0.31619 0.0
C95 C 0.69702 0.66836 0.35546 0.0
O96 O 0.6875 0.70497 0.3205 0.0
O97 O 0.70361 0.68382 0.34886 0.0
C98 C 0.32729 0.01768 0.37356 0.0
O99 O 0.31057 0.01147 0.37529 0.0
Cd100 Cd 0.28741 0.98554 0.35946 0.0
O101 O 0.33295 0.00956 0.36354 0.0
Cd102 Cd 0.31896 0.98142 0.34513 0.0
C103 C 0.29252 0.95316 0.3778 0.0
O104 O 0.29809 0.98787 0.32914 0.0
O105 O 0.29684 0.96313 0.32196 0.0
O106 O 0.34782 0.99511 0.32938 0.0
C107 C 0.29155 0.97399 0.31907 0.0
O108 O 0.28188 0.95896 0.37542 0.0
C109 C 0.34829 0.98073 0.32853 0.0
O110 O 0.30738 0.96013 0.36957 0.0
O111 O 0.33528 0.967 0.33541 0.0
C112 C 0.98389 0.30496 0.35355 0.0
O113 O 0.99024 0.29466 0.35406 0.0
Cd114 Cd 0.01846 0.30114 0.34243 0.0
O115 O 0.99261 0.32016 0.34614 0.0
Cd116 Cd 0.02162 0.33729 0.32983 0.0
C117 C 0.04684 0.3399 0.36591 0.0
O118 O 0.01918 0.31186 0.31285 0.0
O119 O 0.04483 0.33616 0.31166 0.0
O120 O 0.0081 0.34817 0.30848 0.0
C121 C 0.03469 0.32014 0.30615 0.0
O122 O 0.04127 0.32338 0.36303 0.0
C123 C 0.01939 0.36464 0.31139 0.0
O124 O 0.04116 0.34801 0.35637 0.0
O125 O 0.03153 0.36836 0.32307 0.0
C126 C 0.63219 0.96698 0.31173 0.0
O127 O 0.62497 0.95013 0.31296 0.0
Cd128 Cd 0.63582 0.93683 0.33355 0.0
O129 O 0.64525 0.97758 0.32199 0.0
Cd130 Cd 0.66419 0.9773 0.34674 0.0
C131 C 0.67895 0.95698 0.31762 0.0
O132 O 0.6405 0.95186 0.36226 0.0
O133 O 0.66744 0.96173 0.37222 0.0
O134 O 0.66194 0.00072 0.36268 0.0
C135 C 0.65072 0.95103 0.3739 0.0
O136 O 0.66338 0.94315 0.31866 0.0
C137 C 0.67846 0.01251 0.36195 0.0
O138 O 0.683 0.97135 0.32635 0.0
O139 O 0.68865 0.008 0.35414 0.0
C140 C 0.98513 0.68426 0.35739 0.0
O141 O 0.99116 0.70097 0.35874 0.0
Cd142 Cd 0.02025 0.72211 0.34714 0.0
O143 O 0.99402 0.67842 0.34904 0.0
Cd144 Cd 0.02206 0.68979 0.33157 0.0
C145 C 0.04805 0.71126 0.36837 0.0
O146 O 0.0203 0.71348 0.31581 0.0
O147 O 0.04389 0.71168 0.31106 0.0
O148 O 0.00454 0.66283 0.31277 0.0
C149 C 0.03477 0.71883 0.30723 0.0
O150 O 0.04259 0.72231 0.36758 0.0
C151 C 0.01544 0.65726 0.3143 0.0
O152 O 0.04234 0.69821 0.35717 0.0
O153 O 0.02968 0.66714 0.32335 0.0
C154 C 0.35379 0.36371 0.3156 0.0
O155 O 0.3485 0.3749 0.31603 0.0
Cd156 Cd 0.32131 0.3685 0.33116 0.0
O157 O 0.34532 0.34911 0.32403 0.0
Cd158 Cd 0.31959 0.33274 0.34439 0.0
C159 C 0.29069 0.3282 0.31099 0.0
O160 O 0.32404 0.35934 0.36065 0.0
O161 O 0.30067 0.33445 0.36812 0.0
O162 O 0.33997 0.32606 0.3601 0.0
C163 C 0.3105 0.35122 0.37071 0.0
O164 O 0.29662 0.34488 0.31321 0.0
C165 C 0.32957 0.30921 0.35992 0.0
O166 O 0.29715 0.32051 0.32009 0.0
O167 O 0.31415 0.30317 0.35283 0.0
C168 C 0.30424 0.97872 0.64662 0.0
O169 O 0.29279 0.98367 0.64765 0.0
Cd170 Cd 0.29819 0.01043 0.663 0.0
O171 O 0.31945 0.98786 0.65447 0.0
Cd172 Cd 0.33651 0.01505 0.67405 0.0
C173 C 0.33645 0.04096 0.64059 0.0
O174 O 0.31053 0.01005 0.69151 0.0
O175 O 0.33516 0.03492 0.69695 0.0
O176 O 0.34487 0.99556 0.68826 0.0
C177 C 0.31881 0.0245 0.70069 0.0
O178 O 0.31987 0.03411 0.64407 0.0
C179 C 0.36116 0.00729 0.69126 0.0
O180 O 0.34602 0.03611 0.649 0.0
O181 O 0.36643 0.02298 0.68582 0.0
C182 C 0.97576 0.33801 0.68911 0.0
O183 O 0.95937 0.326 0.68699 0.0
Cd184 Cd 0.94895 0.29984 0.66854 0.0
O185 O 0.98811 0.33635 0.68162 0.0
Cd186 Cd 0.99149 0.31475 0.66167 0.0
C187 C 0.96951 0.28059 0.6908 0.0
O188 O 0.96769 0.31217 0.64317 0.0
O189 O 0.97732 0.29497 0.63437 0.0
O190 O 0.01837 0.34263 0.65347 0.0
C191 C 0.96695 0.30096 0.63164 0.0
O192 O 0.9553 0.28026 0.68586 0.0
C193 C 0.0277 0.33566 0.64934 0.0
O194 O 0.98479 0.29241 0.68496 0.0
O195 O 0.02039 0.3189 0.65142 0.0
C196 C 0.651 0.63353 0.69182 0.0
O197 O 0.65969 0.62551 0.68969 0.0
Cd198 Cd 0.68767 0.63883 0.67385 0.0
O199 O 0.65665 0.64881 0.68499 0.0
Cd200 Cd 0.68096 0.67093 0.66584 0.0
C201 C 0.71279 0.67905 0.6971 0.0
O202 O 0.68272 0.64911 0.646 0.0
O203 O 0.70294 0.6768 0.64231 0.0
O204 O 0.65656 0.67217 0.65154 0.0
C205 C 0.69609 0.66058 0.63722 0.0
O206 O 0.70993 0.66357 0.69266 0.0
C207 C 0.66391 0.68907 0.65202 0.0
O208 O 0.7034 0.68494 0.69022 0.0
O209 O 0.67949 0.69787 0.65906 0.0
C210 C 0.29811 0.3183 0.6528 0.0
O211 O 0.28971 0.30131 0.65194 0.0
Cd212 Cd 0.30158 0.28476 0.66634 0.0
O213 O 0.31261 0.3269 0.66187 0.0
Cd214 Cd 0.3328 0.32256 0.68163 0.0
C215 C 0.34349 0.30252 0.64793 0.0
O216 O 0.3088 0.29657 0.69671 0.0
O217 O 0.33585 0.30495 0.70517 0.0
O218 O 0.33405 0.34746 0.69842 0.0
C219 C 0.31914 0.29438 0.707 0.0
O220 O 0.32761 0.28921 0.64921 0.0
C221 C 0.35098 0.35747 0.69816 0.0
O222 O 0.34861 0.31662 0.65758 0.0
O223 O 0.35968 0.35102 0.69062 0.0
C224 C 0.65703 0.02951 0.68638 0.0
O225 O 0.66718 0.04643 0.6863 0.0
Cd226 Cd 0.69524 0.06231 0.67132 0.0
O227 O 0.66124 0.01929 0.67782 0.0
Cd228 Cd 0.6854 0.02142 0.65759 0.0
C229 C 0.71771 0.04355 0.69045 0.0
O230 O 0.68646 0.04622 0.64326 0.0
O231 O 0.70346 0.03796 0.63073 0.0
O232 O 0.66158 0.99359 0.64338 0.0
C233 C 0.69755 0.04863 0.63105 0.0
O234 O 0.71541 0.05684 0.6894 0.0
C235 C 0.67024 0.98544 0.64395 0.0
O236 O 0.70867 0.02957 0.6806 0.0
O237 O 0.68601 0.99414 0.65054 0.0
C238 C 0.02153 0.70245 0.6507 0.0
O239 O 0.01411 0.71167 0.64858 0.0
Cd240 Cd 0.98535 0.70368 0.66075 0.0
O241 O 0.01368 0.68793 0.65938 0.0
Cd242 Cd 0.98481 0.67022 0.67529 0.0
C243 C 0.959 0.66469 0.63845 0.0
O244 O 0.9882 0.69645 0.69124 0.0
O245 O 0.96336 0.67212 0.69623 0.0
O246 O 0.00019 0.65872 0.69351 0.0
C247 C 0.97396 0.68849 0.70026 0.0
O248 O 0.96163 0.68032 0.64133 0.0
C249 C 0.98771 0.64246 0.69196 0.0
O250 O 0.96691 0.65877 0.64795 0.0
O251 O 0.97396 0.6393 0.68295 0.0
C252 C 0.20265 0.25628 0.03736 0.0
C253 C 0.2071 0.27175 0.0506 0.0
C254 C 0.19799 0.27018 0.08142 0.0
C255 C 0.20419 0.28806 0.08627 0.0
C256 C 0.19494 0.29247 0.09889 0.0
C257 C 0.17897 0.27866 0.10649 0.0
C258 C 0.17303 0.26054 0.10202 0.0
C259 C 0.18287 0.25653 0.08973 0.0
C260 C 0.20193 0.3119 0.10365 0.0
C261 C 0.15591 0.24546 0.10957 0.0
C262 C 0.08886 0.32073 0.05765 0.0
C263 C 0.10338 0.31739 0.06301 0.0
C264 C 0.11468 0.31011 0.08906 0.0
C265 C 0.10915 0.29194 0.08961 0.0
C266 C 0.11933 0.28622 0.09891 0.0
C267 C 0.13542 0.29905 0.1077 0.0
C268 C 0.14123 0.31749 0.10677 0.0
C269 C 0.13059 0.32277 0.09766 0.0
C270 C 0.1127 0.26647 0.09963 0.0
C271 C 0.15853 0.33158 0.11561 0.0
C272 C 0.10936 0.30304 0.22408 0.0
C273 C 0.10291 0.28521 0.21844 0.0
C274 C 0.11395 0.28052 0.20893 0.0
C275 C 0.13174 0.2939 0.20496 0.0
C276 C 0.13829 0.31181 0.21071 0.0
C277 C 0.12696 0.31613 0.22018 0.0
C278 C 0.10658 0.26131 0.20291 0.0
C279 C 0.1572 0.32638 0.20668 0.0
C280 C 0.226 0.24907 0.22318 0.0
C281 C 0.22588 0.26554 0.2308 0.0
C282 C 0.19838 0.26589 0.2244 0.0
C283 C 0.18011 0.25363 0.22196 0.0
C284 C 0.16922 0.25793 0.21184 0.0
C285 C 0.17676 0.27518 0.2045 0.0
C286 C 0.1951 0.28793 0.20759 0.0
C287 C 0.20576 0.28308 0.21731 0.0
C288 C 0.1497 0.24402 0.20897 0.0
C289 C 0.20344 0.30674 0.20073 0.0
C290 C 0.16766 0.28327 0.11769 0.0
C291 C 0.15718 0.28874 0.10872 0.0
C292 C 0.14598 0.29314 0.11815 0.0
C293 C 0.145 0.29192 0.13711 0.0
C294 C 0.13352 0.29581 0.14699 0.0
C295 C 0.13291 0.29492 0.16566 0.0
C296 C 0.14367 0.29001 0.17518 0.0
C297 C 0.14328 0.28929 0.19417 0.0
C298 C 0.15413 0.28437 0.20325 0.0
C299 C 0.1654 0.27999 0.19386 0.0
C300 C 0.16595 0.28057 0.17482 0.0
C301 C 0.17705 0.27619 0.16488 0.0
C302 C 0.17777 0.2772 0.14618 0.0
C303 C 0.16716 0.28231 0.13668 0.0
C304 C 0.15574 0.28663 0.14641 0.0
C305 C 0.15511 0.28572 0.16548 0.0
C306 C 0.07631 0.30567 0.25338 0.0
C307 C 0.08202 0.29688 0.23976 0.0
O308 O 0.20588 0.26593 0.06805 0.0
O309 O 0.20829 0.26084 0.23408 0.0
O310 O 0.09912 0.30814 0.23333 0.0
O311 O 0.10407 0.31539 0.08139 0.0
H312 H 0.19673 0.27547 0.04823 0.0
H313 H 0.1886 0.24531 0.03935 0.0
H314 H 0.2116 0.25083 0.03949 0.0
H315 H 0.20398 0.26082 0.02327 0.0
H316 H 0.21614 0.29856 0.08003 0.0
H317 H 0.17829 0.24276 0.08586 0.0
H318 H 0.19323 0.3162 0.09725 0.0
H319 H 0.21587 0.3207 0.09896 0.0
H320 H 0.20153 0.31377 0.11844 0.0
H321 H 0.15248 0.23222 0.1037 0.0
H322 H 0.14462 0.24771 0.10693 0.0
H323 H 0.15727 0.24512 0.12438 0.0
H324 H 0.11681 0.32643 0.0571 0.0
H325 H 0.07127 0.29779 0.04191 0.0
H326 H 0.09606 0.33462 0.05207 0.0
H327 H 0.08448 0.3248 0.07027 0.0
H328 H 0.09669 0.28221 0.08308 0.0
H329 H 0.13461 0.33678 0.09724 0.0
H330 H 0.12232 0.26362 0.09264 0.0
H331 H 0.09929 0.25816 0.0932 0.0
H332 H 0.11194 0.26244 0.11385 0.0
H333 H 0.16229 0.34531 0.11165 0.0
H334 H 0.1696 0.32923 0.112 0.0
H335 H 0.15708 0.33075 0.13046 0.0
H336 H 0.07202 0.28907 0.22889 0.0
H337 H 0.08927 0.27494 0.2213 0.0
H338 H 0.13181 0.32982 0.22461 0.0
H339 H 0.10682 0.26046 0.18798 0.0
H340 H 0.09261 0.25238 0.20747 0.0
H341 H 0.11517 0.25636 0.20823 0.0
H342 H 0.16038 0.33959 0.21244 0.0
H343 H 0.15912 0.32753 0.19189 0.0
H344 H 0.16685 0.32287 0.21223 0.0
H345 H 0.23193 0.2757 0.22014 0.0
H346 H 0.23996 0.25216 0.22102 0.0
H347 H 0.21886 0.24503 0.20999 0.0
H348 H 0.21898 0.23759 0.23233 0.0
H349 H 0.17446 0.24049 0.22771 0.0
H350 H 0.21975 0.29291 0.21958 0.0
H351 H 0.14611 0.24279 0.19445 0.0
H352 H 0.14129 0.24826 0.21633 0.0
H353 H 0.14639 0.23067 0.21381 0.0
H354 H 0.21709 0.31571 0.20641 0.0
H355 H 0.1949 0.31248 0.20413 0.0
H356 H 0.20444 0.30646 0.18585 0.0
H357 H 0.15774 0.28958 0.09416 0.0
H358 H 0.12491 0.29965 0.14041 0.0
H359 H 0.12389 0.29818 0.17253 0.0
H360 H 0.15384 0.28401 0.21785 0.0
H361 H 0.18541 0.27203 0.17145 0.0
H362 H 0.18671 0.27388 0.13925 0.0
H363 H 0.07407 0.29191 0.27731 0.0
H364 H 0.06455 0.30566 0.24698 0.0
H365 H 0.08562 0.32055 0.25216 0.0
C366 C 0.71848 0.9141 0.04017 0.0
C367 C 0.70593 0.91322 0.05512 0.0
C368 C 0.71689 0.91143 0.08455 0.0
C369 C 0.70141 0.8978 0.09252 0.0
C370 C 0.70257 0.88712 0.10572 0.0
C371 C 0.7196 0.89007 0.11088 0.0
C372 C 0.73529 0.9045 0.10356 0.0
C373 C 0.73372 0.9152 0.09063 0.0
C374 C 0.68554 0.87213 0.11351 0.0
C375 C 0.75363 0.90804 0.10875 0.0
C376 C 0.71933 0.79188 0.05383 0.0
C377 C 0.71434 0.78149 0.07141 0.0
C378 C 0.70744 0.80036 0.09116 0.0
C379 C 0.72513 0.81456 0.09383 0.0
C380 C 0.72865 0.82994 0.10378 0.0
C381 C 0.71422 0.83105 0.1112 0.0
C382 C 0.69643 0.81675 0.10858 0.0
C383 C 0.69331 0.80156 0.09863 0.0
C384 C 0.74777 0.84499 0.10644 0.0
C385 C 0.68072 0.81752 0.11627 0.0
C386 C 0.70757 0.80243 0.22712 0.0
C387 C 0.72569 0.81542 0.22454 0.0
C388 C 0.73043 0.83114 0.21524 0.0
C389 C 0.71681 0.83386 0.20842 0.0
C390 C 0.69859 0.8208 0.21108 0.0
C391 C 0.69424 0.80522 0.22033 0.0
C392 C 0.74996 0.84474 0.21245 0.0
C393 C 0.68367 0.82321 0.20401 0.0
C394 C 0.74669 0.97299 0.22829 0.0
C395 C 0.73262 0.95336 0.23144 0.0
C396 C 0.73722 0.92811 0.22692 0.0
C397 C 0.75114 0.92476 0.22383 0.0
C398 C 0.74801 0.90917 0.21456 0.0
C399 C 0.73043 0.89648 0.20864 0.0
C400 C 0.71611 0.89931 0.21265 0.0
C401 C 0.71968 0.91515 0.22166 0.0
C402 C 0.76354 0.90643 0.21077 0.0
C403 C 0.69708 0.8857 0.20719 0.0
C404 C 0.72072 0.87654 0.12178 0.0
C405 C 0.71842 0.86131 0.1126 0.0
C406 C 0.71768 0.84714 0.12181 0.0
C407 C 0.71926 0.84801 0.14076 0.0
C408 C 0.71803 0.8337 0.15043 0.0
C409 C 0.71884 0.83436 0.16913 0.0
C410 C 0.72121 0.84947 0.17885 0.0
C411 C 0.72143 0.84998 0.19788 0.0
C412 C 0.72461 0.86549 0.20717 0.0
C413 C 0.7271 0.88045 0.19792 0.0
C414 C 0.726 0.87985 0.17888 0.0
C415 C 0.72749 0.89427 0.16913 0.0
C416 C 0.72565 0.89322 0.15043 0.0
C417 C 0.72284 0.87793 0.14074 0.0
C418 C 0.72189 0.86349 0.15026 0.0
C419 C 0.72316 0.86432 0.16934 0.0
C420 C 0.70276 0.76818 0.2587 0.0
C421 C 0.71306 0.78246 0.24551 0.0
O422 O 0.71587 0.92089 0.0708 0.0
O423 O 0.7412 0.94394 0.2349 0.0
O424 O 0.70228 0.78707 0.23608 0.0
O425 O 0.70319 0.78528 0.0815 0.0
H426 H 0.6958 0.89883 0.05706 0.0
H427 H 0.72515 0.90665 0.04415 0.0
H428 H 0.72897 0.92821 0.03766 0.0
H429 H 0.7108 0.90791 0.0275 0.0
H430 H 0.68841 0.89534 0.08819 0.0
H431 H 0.74561 0.92599 0.08454 0.0
H432 H 0.68293 0.85919 0.10757 0.0
H433 H 0.67379 0.87357 0.1106 0.0
H434 H 0.68693 0.87166 0.12831 0.0
H435 H 0.76454 0.92028 0.10249 0.0
H436 H 0.75494 0.89644 0.10449 0.0
H437 H 0.75536 0.90953 0.12361 0.0
H438 H 0.72667 0.78513 0.07928 0.0
H439 H 0.72826 0.78889 0.04566 0.0
H440 H 0.72654 0.80651 0.05668 0.0
H441 H 0.70708 0.78822 0.0458 0.0
H442 H 0.73623 0.81378 0.08822 0.0
H443 H 0.67973 0.79051 0.0965 0.0
H444 H 0.74944 0.85741 0.10061 0.0
H445 H 0.75755 0.84197 0.10005 0.0
H446 H 0.75091 0.84765 0.12105 0.0
H447 H 0.66767 0.80539 0.11269 0.0
H448 H 0.68072 0.82944 0.1112 0.0
H449 H 0.68198 0.81892 0.13116 0.0
H450 H 0.72237 0.78049 0.23673 0.0
H451 H 0.73612 0.8133 0.22963 0.0
H452 H 0.68033 0.79511 0.22238 0.0
H453 H 0.75268 0.84687 0.19782 0.0
H454 H 0.75898 0.84056 0.21833 0.0
H455 H 0.75317 0.85777 0.21871 0.0
H456 H 0.67026 0.8125 0.20845 0.0
H457 H 0.68385 0.82308 0.18907 0.0
H458 H 0.68573 0.83637 0.20862 0.0
H459 H 0.72484 0.94846 0.21857 0.0
H460 H 0.7401 0.98097 0.22641 0.0
H461 H 0.75434 0.97398 0.21592 0.0
H462 H 0.75636 0.97884 0.23971 0.0
H463 H 0.76459 0.9347 0.22821 0.0
H464 H 0.70873 0.91732 0.22459 0.0
H465 H 0.76453 0.90467 0.19604 0.0
H466 H 0.76119 0.89403 0.21726 0.0
H467 H 0.7765 0.91782 0.21579 0.0
H468 H 0.68726 0.88905 0.21285 0.0
H469 H 0.69358 0.87222 0.21175 0.0
H470 H 0.69582 0.88501 0.19229 0.0
H471 H 0.71673 0.86027 0.09806 0.0
H472 H 0.71619 0.82172 0.14367 0.0
H473 H 0.7176 0.82285 0.17586 0.0
H474 H 0.72482 0.86582 0.22178 0.0
H475 H 0.72978 0.90643 0.17587 0.0
H476 H 0.72656 0.90455 0.14364 0.0
H477 H 0.70392 0.75648 0.25376 0.0
H478 H 0.68815 0.76175 0.25486 0.0
H479 H 0.713 0.78105 0.284 0.0
C480 C 0.19752 0.92377 0.04598 0.0
C481 C 0.21158 0.9309 0.0612 0.0
C482 C 0.19576 0.90808 0.08416 0.0
C483 C 0.18347 0.91342 0.08909 0.0
C484 C 0.16927 0.9031 0.10074 0.0
C485 C 0.16727 0.88714 0.10761 0.0
C486 C 0.17994 0.88206 0.1032 0.0
C487 C 0.19408 0.89268 0.0916 0.0
C488 C 0.15608 0.90899 0.10534 0.0
C489 C 0.17823 0.86513 0.11032 0.0
C490 C 0.06368 0.80942 0.03309 0.0
C491 C 0.06985 0.80328 0.04928 0.0
C492 C 0.07839 0.81842 0.0787 0.0
C493 C 0.0909 0.81354 0.08359 0.0
C494 C 0.1039 0.82331 0.09693 0.0
C495 C 0.10445 0.83833 0.10539 0.0
C496 C 0.09126 0.84269 0.10111 0.0
C497 C 0.07819 0.83243 0.08798 0.0
C498 C 0.11745 0.81799 0.1015 0.0
C499 C 0.0915 0.85867 0.10975 0.0
C500 C 0.07105 0.81311 0.22176 0.0
C501 C 0.08389 0.80871 0.21638 0.0
C502 C 0.09936 0.82104 0.20721 0.0
C503 C 0.10211 0.83817 0.2035 0.0
C504 C 0.08958 0.84289 0.20958 0.0
C505 C 0.07426 0.83031 0.21877 0.0
C506 C 0.11274 0.81577 0.20142 0.0
C507 C 0.09229 0.86116 0.20617 0.0
C508 C 0.22818 0.95238 0.22166 0.0
C509 C 0.22017 0.94039 0.23799 0.0
C510 C 0.19691 0.9116 0.22428 0.0
C511 C 0.19303 0.89435 0.21961 0.0
C512 C 0.1773 0.88237 0.21018 0.0
C513 C 0.1651 0.88784 0.20535 0.0
C514 C 0.16868 0.90515 0.2104 0.0
C515 C 0.18459 0.91691 0.21982 0.0
C516 C 0.17387 0.86398 0.20505 0.0
C517 C 0.15583 0.91129 0.20553 0.0
C518 C 0.15108 0.87498 0.11805 0.0
C519 C 0.13578 0.86274 0.10832 0.0
C520 C 0.11999 0.85064 0.11699 0.0
C521 C 0.11935 0.85062 0.13601 0.0
C522 C 0.10379 0.83844 0.1452 0.0
C523 C 0.10329 0.83864 0.16394 0.0
C524 C 0.11839 0.85094 0.1742 0.0
C525 C 0.11811 0.85112 0.19326 0.0
C526 C 0.13339 0.8635 0.203 0.0
C527 C 0.14908 0.87571 0.19423 0.0
C528 C 0.14963 0.87576 0.17521 0.0
C529 C 0.16525 0.88786 0.16599 0.0
C530 C 0.16575 0.88767 0.14727 0.0
C531 C 0.15067 0.87537 0.13706 0.0
C532 C 0.13474 0.86312 0.14607 0.0
C533 C 0.13423 0.86331 0.16517 0.0
C534 C 0.02808 0.77888 0.21663 0.0
C535 C 0.04546 0.78303 0.22623 0.0
O536 O 0.20913 0.91708 0.07211 0.0
O537 O 0.21276 0.92256 0.23286 0.0
O538 O 0.05563 0.80125 0.23007 0.0
O539 O 0.06659 0.81015 0.06489 0.0
H540 H 0.21034 0.94106 0.06939 0.0
H541 H 0.18383 0.91799 0.05152 0.0
H542 H 0.1981 0.91318 0.0379 0.0
H543 H 0.19988 0.93481 0.03698 0.0
H544 H 0.18464 0.92544 0.08374 0.0
H545 H 0.20367 0.88872 0.08788 0.0
H546 H 0.14276 0.89925 0.09943 0.0
H547 H 0.16031 0.92248 0.10021 0.0
H548 H 0.15449 0.90916 0.12017 0.0
H549 H 0.18946 0.86328 0.10603 0.0
H550 H 0.16542 0.8534 0.10547 0.0
H551 H 0.17785 0.86539 0.12526 0.0
H552 H 0.08452 0.8088 0.04764 0.0
H553 H 0.06633 0.80428 0.02035 0.0
H554 H 0.07115 0.82427 0.03281 0.0
H555 H 0.04912 0.80457 0.0339 0.0
H556 H 0.09065 0.80224 0.07685 0.0
H557 H 0.06827 0.83588 0.08427 0.0
H558 H 0.11923 0.81822 0.11632 0.0
H559 H 0.13061 0.82778 0.09572 0.0
H560 H 0.11347 0.80445 0.09605 0.0
H561 H 0.08061 0.86056 0.10451 0.0
H562 H 0.10458 0.87098 0.1073 0.0
H563 H 0.08998 0.857 0.12453 0.0
H564 H 0.05233 0.7787 0.21649 0.0
H565 H 0.08199 0.79575 0.21948 0.0
H566 H 0.06446 0.83371 0.22331 0.0
H567 H 0.1136 0.81585 0.18651 0.0
H568 H 0.10909 0.80227 0.20607 0.0
H569 H 0.12625 0.82568 0.20681 0.0
H570 H 0.08107 0.86261 0.21136 0.0
H571 H 0.09359 0.86366 0.19148 0.0
H572 H 0.10495 0.87158 0.21273 0.0
H573 H 0.2097 0.94255 0.24414 0.0
H574 H 0.23431 0.96668 0.22583 0.0
H575 H 0.21761 0.94929 0.21145 0.0
H576 H 0.23861 0.9503 0.21531 0.0
H577 H 0.20259 0.89037 0.22319 0.0
H578 H 0.18732 0.93019 0.22344 0.0
H579 H 0.17305 0.86226 0.19016 0.0
H580 H 0.1608 0.85362 0.21053 0.0
H581 H 0.18453 0.86167 0.21013 0.0
H582 H 0.16013 0.92486 0.21111 0.0
H583 H 0.14226 0.90171 0.21063 0.0
H584 H 0.15478 0.91147 0.19065 0.0
H585 H 0.13618 0.86262 0.09371 0.0
H586 H 0.09181 0.82863 0.13799 0.0
H587 H 0.09092 0.829 0.1703 0.0
H588 H 0.13316 0.86345 0.21761 0.0
H589 H 0.17729 0.89762 0.17313 0.0
H590 H 0.17812 0.89727 0.14088 0.0
H591 H 0.02102 0.78454 0.22423 0.0
H592 H 0.01903 0.76419 0.21481 0.0
H593 H 0.03128 0.78496 0.20312 0.0
C594 C 0.27147 0.08272 0.96563 0.0
C595 C 0.27764 0.0762 0.94933 0.0
C596 C 0.28714 0.10043 0.92763 0.0
C597 C 0.2698 0.0965 0.92276 0.0
C598 C 0.26731 0.1073 0.91073 0.0
C599 C 0.2824 0.12245 0.90354 0.0
C600 C 0.29984 0.12634 0.9082 0.0
C601 C 0.30196 0.11519 0.9201 0.0
C602 C 0.2485 0.10272 0.90596 0.0
C603 C 0.31623 0.1425 0.90091 0.0
C604 C 0.26479 0.20487 0.97304 0.0
C605 C 0.27664 0.21181 0.95641 0.0
C606 C 0.26833 0.19527 0.92779 0.0
C607 C 0.28547 0.19961 0.92203 0.0
C608 C 0.28761 0.18866 0.90938 0.0
C609 C 0.27229 0.17307 0.90243 0.0
C610 C 0.25497 0.16926 0.90747 0.0
C611 C 0.25323 0.18061 0.91993 0.0
C612 C 0.30625 0.19336 0.90393 0.0
C613 C 0.23836 0.15275 0.90035 0.0
C614 C 0.26106 0.19044 0.7843 0.0
C615 C 0.27849 0.19641 0.79068 0.0
C616 C 0.28224 0.18511 0.80061 0.0
C617 C 0.26823 0.16754 0.80432 0.0
C618 C 0.25081 0.16131 0.79734 0.0
C619 C 0.24751 0.17282 0.78722 0.0
C620 C 0.30113 0.19196 0.8072 0.0
C621 C 0.23562 0.14258 0.80076 0.0
C622 C 0.28117 0.05503 0.79525 0.0
C623 C 0.28416 0.0651 0.77768 0.0
C624 C 0.28978 0.09459 0.78859 0.0
C625 C 0.30332 0.11226 0.79207 0.0
C626 C 0.29964 0.12451 0.80065 0.0
C627 C 0.28186 0.11891 0.80576 0.0
C628 C 0.26794 0.10118 0.80181 0.0
C629 C 0.27204 0.08914 0.79331 0.0
C630 C 0.31479 0.14333 0.80462 0.0
C631 C 0.24881 0.09491 0.8069 0.0
C632 C 0.27987 0.13492 0.89228 0.0
C633 C 0.27751 0.14785 0.90118 0.0
C634 C 0.27449 0.15977 0.89168 0.0
C635 C 0.2737 0.15883 0.87266 0.0
C636 C 0.27047 0.17048 0.86268 0.0
C637 C 0.26962 0.16933 0.84394 0.0
C638 C 0.27231 0.15672 0.83447 0.0
C639 C 0.2718 0.15564 0.81541 0.0
C640 C 0.27473 0.14306 0.80648 0.0
C641 C 0.27807 0.13138 0.81605 0.0
C642 C 0.27839 0.13207 0.83509 0.0
C643 C 0.28151 0.12034 0.84512 0.0
C644 C 0.28186 0.12114 0.86384 0.0
C645 C 0.27936 0.13387 0.87326 0.0
C646 C 0.27622 0.14586 0.86342 0.0
C647 C 0.27562 0.14487 0.84431 0.0
C648 C 0.24768 0.22133 0.78537 0.0
C649 C 0.26332 0.21915 0.77923 0.0
O650 O 0.29025 0.09062 0.93961 0.0
O651 O 0.29462 0.08339 0.78087 0.0
O652 O 0.25695 0.20125 0.77514 0.0
O653 O 0.26595 0.20474 0.94111 0.0
H654 H 0.26577 0.06749 0.94066 0.0
H655 H 0.26466 0.08987 0.96113 0.0
H656 H 0.28306 0.09206 0.97432 0.0
H657 H 0.26182 0.07117 0.97372 0.0
H658 H 0.25808 0.08522 0.92838 0.0
H659 H 0.31528 0.11814 0.92386 0.0
H660 H 0.24607 0.1132 0.91163 0.0
H661 H 0.23818 0.08957 0.91125 0.0
H662 H 0.24689 0.10245 0.89111 0.0
H663 H 0.32889 0.14371 0.90587 0.0
H664 H 0.31612 0.15483 0.9049 0.0
H665 H 0.316 0.14167 0.88598 0.0
H666 H 0.28638 0.2071 0.95732 0.0
H667 H 0.27305 0.21028 0.98552 0.0
H668 H 0.25789 0.19003 0.97315 0.0
H669 H 0.25446 0.20882 0.97299 0.0
H670 H 0.29717 0.21139 0.9276 0.0
H671 H 0.24006 0.17759 0.92428 0.0
H672 H 0.30701 0.1924 0.88906 0.0
H673 H 0.30943 0.18366 0.90982 0.0
H674 H 0.31657 0.20706 0.9086 0.0
H675 H 0.22586 0.15179 0.90546 0.0
H676 H 0.23857 0.14061 0.90432 0.0
H677 H 0.23811 0.15282 0.88541 0.0
H678 H 0.27294 0.22388 0.79078 0.0
H679 H 0.28919 0.20983 0.78775 0.0
H680 H 0.23419 0.16825 0.78194 0.0
H681 H 0.30157 0.19314 0.82212 0.0
H682 H 0.3108 0.20527 0.80172 0.0
H683 H 0.30547 0.18235 0.80334 0.0
H684 H 0.22259 0.14019 0.79547 0.0
H685 H 0.23437 0.14007 0.81544 0.0
H686 H 0.23855 0.13276 0.79423 0.0
H687 H 0.27101 0.0618 0.77181 0.0
H688 H 0.27299 0.04036 0.79264 0.0
H689 H 0.27391 0.05876 0.80508 0.0
H690 H 0.29421 0.0583 0.80137 0.0
H691 H 0.31694 0.11635 0.78828 0.0
H692 H 0.26135 0.07555 0.7906 0.0
H693 H 0.31588 0.14609 0.81937 0.0
H694 H 0.31194 0.15305 0.7982 0.0
H695 H 0.32787 0.14561 0.79968 0.0
H696 H 0.23934 0.08109 0.80185 0.0
H697 H 0.2447 0.10408 0.80142 0.0
H698 H 0.24778 0.09526 0.82178 0.0
H699 H 0.27795 0.14858 0.9158 0.0
H700 H 0.26848 0.18055 0.86926 0.0
H701 H 0.26695 0.17855 0.83696 0.0
H702 H 0.27453 0.14243 0.79187 0.0
H703 H 0.28366 0.11035 0.83861 0.0
H704 H 0.28423 0.11174 0.87086 0.0
H705 H 0.23703 0.2163 0.77483 0.0
H706 H 0.25242 0.23564 0.78846 0.0
H707 H 0.24176 0.21359 0.79776 0.0
C708 C 0.80166 0.05622 0.96404 0.0
C709 C 0.79686 0.06792 0.9531 0.0
C710 C 0.80472 0.07562 0.92219 0.0
C711 C 0.80035 0.08872 0.9188 0.0
C712 C 0.8104 0.10237 0.90664 0.0
C713 C 0.82541 0.10313 0.89815 0.0
C714 C 0.8295 0.08956 0.90126 0.0
C715 C 0.8188 0.07572 0.913 0.0
C716 C 0.80532 0.11629 0.90334 0.0
C717 C 0.84565 0.09012 0.89291 0.0
C718 C 0.90226 0.19501 0.96678 0.0
C719 C 0.91209 0.20919 0.95246 0.0
C720 C 0.89245 0.1943 0.9261 0.0
C721 C 0.89784 0.18176 0.92271 0.0
C722 C 0.88867 0.16773 0.91004 0.0
C723 C 0.87376 0.16615 0.90062 0.0
C724 C 0.86866 0.17906 0.90355 0.0
C725 C 0.8782 0.19306 0.91615 0.0
C726 C 0.89459 0.15431 0.90705 0.0
C727 C 0.85276 0.17771 0.8938 0.0
C728 C 0.91285 0.1931 0.78632 0.0
C729 C 0.91469 0.17868 0.79159 0.0
C730 C 0.90064 0.16398 0.80026 0.0
C731 C 0.88441 0.16364 0.8036 0.0
C732 C 0.88245 0.17804 0.79813 0.0
C733 C 0.89679 0.19267 0.78972 0.0
C734 C 0.90321 0.14891 0.8061 0.0
C735 C 0.86527 0.17803 0.80132 0.0
C736 C 0.76698 0.02738 0.78098 0.0
C737 C 0.7737 0.04713 0.77761 0.0
C738 C 0.80451 0.07168 0.78193 0.0
C739 C 0.82161 0.07443 0.78512 0.0
C740 C 0.83468 0.08981 0.79448 0.0
C741 C 0.83059 0.1029 0.80037 0.0
C742 C 0.81368 0.1007 0.79615 0.0
C743 C 0.80078 0.08507 0.78705 0.0
C744 C 0.85266 0.09183 0.79854 0.0
C745 C 0.80908 0.11469 0.80162 0.0
C746 C 0.83795 0.11911 0.88776 0.0
C747 C 0.84949 0.13472 0.89757 0.0
C748 C 0.86249 0.15008 0.88906 0.0
C749 C 0.86443 0.14983 0.87018 0.0
C750 C 0.87799 0.16473 0.86127 0.0
C751 C 0.87985 0.16428 0.84268 0.0
C752 C 0.86803 0.14902 0.83226 0.0
C753 C 0.86972 0.14848 0.81334 0.0
C754 C 0.85742 0.1333 0.80334 0.0
C755 C 0.84357 0.11839 0.81178 0.0
C756 C 0.84201 0.11846 0.83075 0.0
C757 C 0.82858 0.10349 0.83974 0.0
C758 C 0.82714 0.10369 0.85839 0.0
C759 C 0.83908 0.11886 0.86878 0.0
C760 C 0.85255 0.13421 0.85999 0.0
C761 C 0.85419 0.13391 0.84098 0.0
C762 C 0.95684 0.21697 0.78316 0.0
C763 C 0.94115 0.20945 0.76964 0.0
O764 O 0.79605 0.06336 0.93501 0.0
O765 O 0.79192 0.05594 0.77409 0.0
O766 O 0.92623 0.20782 0.77832 0.0
O767 O 0.90028 0.20753 0.93895 0.0
H768 H 0.80782 0.08206 0.95558 0.0
H769 H 0.81495 0.05851 0.95983 0.0
H770 H 0.79156 0.0418 0.96187 0.0
H771 H 0.80238 0.05965 0.97863 0.0
H772 H 0.78925 0.08835 0.92589 0.0
H773 H 0.82197 0.06545 0.9158 0.0
H774 H 0.81486 0.12888 0.91068 0.0
H775 H 0.79156 0.11194 0.90807 0.0
H776 H 0.80617 0.11926 0.88878 0.0
H777 H 0.84802 0.07964 0.89823 0.0
H778 H 0.85784 0.10341 0.89548 0.0
H779 H 0.8437 0.08807 0.87812 0.0
H780 H 0.92293 0.20749 0.94655 0.0
H781 H 0.89106 0.19617 0.97256 0.0
H782 H 0.91167 0.19667 0.97779 0.0
H783 H 0.89665 0.18135 0.96083 0.0
H784 H 0.909 0.18258 0.93004 0.0
H785 H 0.87419 0.20284 0.91872 0.0
H786 H 0.88425 0.14116 0.91231 0.0
H787 H 0.90756 0.15845 0.91388 0.0
H788 H 0.89594 0.15244 0.89242 0.0
H789 H 0.85062 0.18894 0.89745 0.0
H790 H 0.84047 0.1649 0.89707 0.0
H791 H 0.85472 0.17765 0.87904 0.0
H792 H 0.93846 0.19617 0.76454 0.0
H793 H 0.92714 0.17894 0.78932 0.0
H794 H 0.89551 0.20387 0.78565 0.0
H795 H 0.90131 0.14725 0.82087 0.0
H796 H 0.91672 0.15126 0.80273 0.0
H797 H 0.89295 0.13618 0.79949 0.0
H798 H 0.86551 0.18976 0.79536 0.0
H799 H 0.86298 0.17816 0.81602 0.0
H800 H 0.85376 0.1656 0.79547 0.0
H801 H 0.77117 0.05239 0.79039 0.0
H802 H 0.75225 0.01991 0.78306 0.0
H803 H 0.77354 0.02622 0.79329 0.0
H804 H 0.77021 0.0211 0.76956 0.0
H805 H 0.82446 0.06415 0.78085 0.0
H806 H 0.78781 0.08335 0.78401 0.0
H807 H 0.85523 0.09346 0.81329 0.0
H808 H 0.8634 0.10406 0.79214 0.0
H809 H 0.85352 0.08015 0.79358 0.0
H810 H 0.79631 0.11208 0.79537 0.0
H811 H 0.81999 0.12817 0.79774 0.0
H812 H 0.80775 0.11484 0.81647 0.0
H813 H 0.84842 0.13488 0.91213 0.0
H814 H 0.88739 0.17684 0.86861 0.0
H815 H 0.89062 0.1761 0.83657 0.0
H816 H 0.85864 0.13309 0.78881 0.0
H817 H 0.81906 0.09138 0.83246 0.0
H818 H 0.81654 0.09181 0.86459 0.0
H819 H 0.96103 0.23095 0.78726 0.0
H820 H 0.96837 0.21651 0.77728 0.0
H821 H 0.95279 0.20879 0.79545 0.0
C822 C 0.7633 0.69278 0.96046 0.0
C823 C 0.78128 0.70393 0.95234 0.0
C824 C 0.80293 0.70011 0.93466 0.0
C825 C 0.81345 0.71819 0.92995 0.0
C826 C 0.82792 0.72379 0.91815 0.0
C827 C 0.83184 0.71105 0.9108 0.0
C828 C 0.82122 0.69285 0.91542 0.0
C829 C 0.80696 0.68766 0.9274 0.0
C830 C 0.8391 0.74331 0.91358 0.0
C831 C 0.82497 0.67889 0.90775 0.0
C832 C 0.94664 0.75173 0.96984 0.0
C833 C 0.93448 0.73547 0.95778 0.0
C834 C 0.92471 0.73634 0.92775 0.0
C835 C 0.91116 0.71862 0.92427 0.0
C836 C 0.89658 0.71472 0.91304 0.0
C837 C 0.89536 0.72893 0.90556 0.0
C838 C 0.90938 0.74684 0.90864 0.0
C839 C 0.9241 0.75028 0.91946 0.0
C840 C 0.88218 0.69543 0.9098 0.0
C841 C 0.90845 0.76238 0.9012 0.0
C842 C 0.91576 0.72971 0.78725 0.0
C843 C 0.90339 0.71311 0.79446 0.0
C844 C 0.88897 0.71113 0.80478 0.0
C845 C 0.88694 0.7261 0.80801 0.0
C846 C 0.89893 0.74265 0.80009 0.0
C847 C 0.91312 0.74418 0.78962 0.0
C848 C 0.87604 0.69309 0.81245 0.0
C849 C 0.89697 0.75878 0.80305 0.0
C850 C 0.76143 0.69968 0.75911 0.0
C851 C 0.77388 0.70946 0.77445 0.0
C852 C 0.7932 0.70378 0.79406 0.0
C853 C 0.79628 0.69046 0.80006 0.0
C854 C 0.81192 0.69478 0.80967 0.0
C855 C 0.82473 0.71295 0.81351 0.0
C856 C 0.82152 0.72653 0.80786 0.0
C857 C 0.80575 0.72181 0.7982 0.0
C858 C 0.81489 0.67995 0.81546 0.0
C859 C 0.83487 0.746 0.8119 0.0
C860 C 0.84741 0.71677 0.89873 0.0
C861 C 0.86372 0.72086 0.90656 0.0
C862 C 0.87869 0.72511 0.89603 0.0
C863 C 0.87739 0.72525 0.87706 0.0
C864 C 0.89194 0.72878 0.86599 0.0
C865 C 0.89047 0.72875 0.84734 0.0
C866 C 0.87434 0.72507 0.83903 0.0
C867 C 0.87253 0.72444 0.82007 0.0
C868 C 0.8564 0.72096 0.81226 0.0
C869 C 0.84175 0.71769 0.82287 0.0
C870 C 0.84316 0.7179 0.84185 0.0
C871 C 0.82855 0.7142 0.85292 0.0
C872 C 0.82989 0.71382 0.87156 0.0
C873 C 0.84598 0.71741 0.87985 0.0
C874 C 0.86101 0.72155 0.86897 0.0
C875 C 0.85954 0.72163 0.84994 0.0
C876 C 0.95825 0.7411 0.79203 0.0
C877 C 0.94137 0.72577 0.78292 0.0
O878 O 0.7888 0.69413 0.94602 0.0
O879 O 0.77818 0.6986 0.78405 0.0
O880 O 0.93026 0.73211 0.77789 0.0
O881 O 0.93789 0.74023 0.93989 0.0
H882 H 0.79085 0.7161 0.96037 0.0
H883 H 0.76184 0.67942 0.96334 0.0
H884 H 0.74594 0.69566 0.94276 0.0
H885 H 0.76513 0.69726 0.97503 0.0
H886 H 0.81053 0.72801 0.93553 0.0
H887 H 0.79877 0.67376 0.93108 0.0
H888 H 0.8533 0.74851 0.91745 0.0
H889 H 0.83439 0.75159 0.92049 0.0
H890 H 0.83867 0.74482 0.89881 0.0
H891 H 0.81487 0.66516 0.91192 0.0
H892 H 0.83841 0.6819 0.91231 0.0
H893 H 0.82512 0.67928 0.89281 0.0
H894 H 0.92047 0.73175 0.96118 0.0
H895 H 0.9444 0.74805 0.98424 0.0
H896 H 0.94351 0.76246 0.9677 0.0
H897 H 0.961 0.75714 0.96665 0.0
H898 H 0.91189 0.70788 0.93057 0.0
H899 H 0.93474 0.76393 0.92227 0.0
H900 H 0.87735 0.69307 0.89561 0.0
H901 H 0.87065 0.69222 0.91865 0.0
H902 H 0.88702 0.68614 0.9129 0.0
H903 H 0.91969 0.7755 0.90615 0.0
H904 H 0.89559 0.76138 0.905 0.0
H905 H 0.90893 0.76199 0.88629 0.0
H906 H 0.93501 0.71532 0.79329 0.0
H907 H 0.9049 0.70164 0.79199 0.0
H908 H 0.92257 0.75685 0.7837 0.0
H909 H 0.87758 0.69379 0.82732 0.0
H910 H 0.87832 0.68239 0.80709 0.0
H911 H 0.86202 0.68935 0.80935 0.0
H912 H 0.90772 0.77084 0.79639 0.0
H913 H 0.89728 0.76175 0.8177 0.0
H914 H 0.88379 0.75587 0.79769 0.0
H915 H 0.77031 0.71769 0.78324 0.0
H916 H 0.74879 0.69972 0.76254 0.0
H917 H 0.75538 0.68494 0.76153 0.0
H918 H 0.77679 0.71223 0.73605 0.0
H919 H 0.78647 0.6766 0.79686 0.0
H920 H 0.80334 0.73222 0.79386 0.0
H921 H 0.81634 0.68039 0.83034 0.0
H922 H 0.82753 0.68188 0.8096 0.0
H923 H 0.8037 0.6665 0.81124 0.0
H924 H 0.83003 0.75492 0.80738 0.0
H925 H 0.8477 0.74986 0.80506 0.0
H926 H 0.83769 0.74814 0.8266 0.0
H927 H 0.8647 0.72046 0.92109 0.0
H928 H 0.90462 0.73152 0.87163 0.0
H929 H 0.90213 0.73158 0.83951 0.0
H930 H 0.85507 0.7203 0.7977 0.0
H931 H 0.81585 0.71138 0.84729 0.0
H932 H 0.81816 0.71071 0.87941 0.0
H933 H 0.96477 0.75295 0.78328 0.0
H934 H 0.96789 0.73673 0.79534 0.0
H935 H 0.95451 0.74523 0.80477 0.0
C936 C 0.87525 0.60838 0.37082 0.0
C937 C 0.882 0.62386 0.38463 0.0
C938 C 0.86902 0.61905 0.41418 0.0
C939 C 0.87215 0.63602 0.41922 0.0
C940 C 0.86041 0.63788 0.43085 0.0
C941 C 0.84506 0.62239 0.43726 0.0
C942 C 0.84215 0.60522 0.43251 0.0
C943 C 0.85443 0.60381 0.42127 0.0
C944 C 0.86417 0.65639 0.4359 0.0
C945 C 0.82576 0.58839 0.43874 0.0
C946 C 0.72687 0.63345 0.39825 0.0
C947 C 0.73766 0.62645 0.40633 0.0
C948 C 0.76754 0.63663 0.41854 0.0
C949 C 0.76448 0.61931 0.42126 0.0
C950 C 0.77731 0.61679 0.42999 0.0
C951 C 0.79358 0.63185 0.43603 0.0
C952 C 0.79704 0.64929 0.43265 0.0
C953 C 0.78393 0.65144 0.42396 0.0
C954 C 0.7733 0.59801 0.43322 0.0
C955 C 0.81438 0.66561 0.4387 0.0
C956 C 0.75879 0.62679 0.55082 0.0
C957 C 0.7552 0.61051 0.54271 0.0
C958 C 0.76875 0.60913 0.5338 0.0
C959 C 0.78616 0.62436 0.53281 0.0
C960 C 0.78986 0.64071 0.54106 0.0
C961 C 0.77611 0.64167 0.55002 0.0
C962 C 0.76441 0.59143 0.52528 0.0
C963 C 0.80826 0.65721 0.54019 0.0
C964 C 0.88409 0.58592 0.56333 0.0
C965 C 0.8839 0.60348 0.56449 0.0
C966 C 0.85686 0.60378 0.55636 0.0
C967 C 0.83905 0.59112 0.55226 0.0
C968 C 0.82872 0.59533 0.54119 0.0
C969 C 0.83626 0.61294 0.53473 0.0
C970 C 0.85415 0.62603 0.53943 0.0
C971 C 0.86438 0.6212 0.54994 0.0
C972 C 0.80973 0.58095 0.53652 0.0
C973 C 0.86238 0.64516 0.5336 0.0
C974 C 0.83142 0.62417 0.44775 0.0
C975 C 0.81951 0.62737 0.43817 0.0
C976 C 0.80635 0.6293 0.447 0.0
C977 C 0.805 0.62813 0.46595 0.0
C978 C 0.79199 0.63017 0.47524 0.0
C979 C 0.79058 0.62876 0.49384 0.0
C980 C 0.80202 0.62512 0.50388 0.0
C981 C 0.80038 0.62327 0.52275 0.0
C982 C 0.81201 0.61975 0.53236 0.0
C983 C 0.82515 0.61769 0.52361 0.0
C984 C 0.82696 0.61942 0.50469 0.0
C985 C 0.83992 0.61731 0.49537 0.0
C986 C 0.84165 0.61918 0.47678 0.0
C987 C 0.83013 0.6227 0.46671 0.0
C988 C 0.81686 0.62472 0.47582 0.0
C989 C 0.81534 0.62317 0.49482 0.0
C990 C 0.71807 0.61527 0.54341 0.0
C991 C 0.72797 0.6165 0.56093 0.0
O992 O 0.87949 0.61715 0.40184 0.0
O993 O 0.86626 0.59894 0.56704 0.0
O994 O 0.7461 0.6289 0.5594 0.0
O995 O 0.75502 0.63958 0.41104 0.0
H996 H 0.87358 0.62999 0.3824 0.0
H997 H 0.86054 0.5994 0.37222 0.0
H998 H 0.88168 0.60031 0.37293 0.0
H999 H 0.87798 0.61357 0.35692 0.0
H1000 H 0.88367 0.64778 0.41386 0.0
H1001 H 0.85222 0.59077 0.41727 0.0
H1002 H 0.85432 0.65885 0.42899 0.0
H1003 H 0.87787 0.66696 0.432 0.0
H1004 H 0.86263 0.65751 0.45063 0.0
H1005 H 0.82476 0.57611 0.43268 0.0
H1006 H 0.81346 0.58863 0.4352 0.0
H1007 H 0.8262 0.58765 0.45361 0.0
H1008 H 0.73069 0.61648 0.41707 0.0
H1009 H 0.72221 0.62312 0.37154 0.0
H1010 H 0.73409 0.64824 0.4016 0.0
H1011 H 0.71568 0.62998 0.40803 0.0
H1012 H 0.75203 0.60769 0.41681 0.0
H1013 H 0.78628 0.66473 0.42164 0.0
H1014 H 0.78418 0.59624 0.42762 0.0
H1015 H 0.76034 0.58769 0.42704 0.0
H1016 H 0.7728 0.59577 0.44793 0.0
H1017 H 0.81549 0.67823 0.43413 0.0
H1018 H 0.82592 0.66479 0.43341 0.0
H1019 H 0.81532 0.66608 0.45362 0.0
H1020 H 0.72602 0.60314 0.56393 0.0
H1021 H 0.74191 0.59882 0.54314 0.0
H1022 H 0.77878 0.65416 0.55632 0.0
H1023 H 0.76572 0.59274 0.51044 0.0
H1024 H 0.75061 0.58052 0.52837 0.0
H1025 H 0.77408 0.5876 0.53003 0.0
H1026 H 0.80885 0.66904 0.54692 0.0
H1027 H 0.81225 0.66038 0.52591 0.0
H1028 H 0.8182 0.65464 0.54674 0.0
H1029 H 0.889 0.61029 0.55144 0.0
H1030 H 0.89696 0.5881 0.55791 0.0
H1031 H 0.87333 0.5763 0.55397 0.0
H1032 H 0.88171 0.57976 0.57678 0.0
H1033 H 0.83336 0.57776 0.5575 0.0
H1034 H 0.87808 0.63113 0.55352 0.0
H1035 H 0.80702 0.58099 0.52192 0.0
H1036 H 0.80027 0.58366 0.54406 0.0
H1037 H 0.80695 0.56741 0.54004 0.0
H1038 H 0.87525 0.65421 0.54073 0.0
H1039 H 0.85301 0.65011 0.53611 0.0
H1040 H 0.86501 0.64588 0.51893 0.0
H1041 H 0.8204 0.62826 0.42362 0.0
H1042 H 0.78273 0.63287 0.46825 0.0
H1043 H 0.78032 0.63048 0.50024 0.0
H1044 H 0.81059 0.61827 0.54684 0.0
H1045 H 0.84894 0.61426 0.50235 0.0
H1046 H 0.852 0.61764 0.47036 0.0
H1047 H 0.70351 0.60546 0.54469 0.0
H1048 H 0.72324 0.61075 0.53205 0.0
H1049 H 0.71994 0.62854 0.54014 0.0
C1050 C 0.3925 0.26061 0.37437 0.0
C1051 C 0.38054 0.25891 0.39027 0.0
C1052 C 0.38939 0.25184 0.41845 0.0
C1053 C 0.37277 0.23857 0.42494 0.0
C1054 C 0.37165 0.22573 0.43685 0.0
C1055 C 0.38751 0.22615 0.44225 0.0
C1056 C 0.40436 0.24003 0.43633 0.0
C1057 C 0.40508 0.2529 0.42468 0.0
C1058 C 0.35348 0.21141 0.44322 0.0
C1059 C 0.42152 0.24089 0.44179 0.0
C1060 C 0.35518 0.08939 0.40163 0.0
C1061 C 0.36662 0.10875 0.40626 0.0
C1062 C 0.36299 0.13191 0.42172 0.0
C1063 C 0.38137 0.14432 0.4241 0.0
C1064 C 0.38719 0.16036 0.43394 0.0
C1065 C 0.37437 0.16393 0.44162 0.0
C1066 C 0.35587 0.15147 0.43915 0.0
C1067 C 0.35045 0.13566 0.42914 0.0
C1068 C 0.407 0.17346 0.43625 0.0
C1069 C 0.34183 0.15481 0.44719 0.0
C1070 C 0.3825 0.13869 0.55701 0.0
C1071 C 0.39942 0.15161 0.55061 0.0
C1072 C 0.40163 0.16654 0.54138 0.0
C1073 C 0.38665 0.16855 0.53844 0.0
C1074 C 0.36967 0.15567 0.54502 0.0
C1075 C 0.36786 0.14094 0.55427 0.0
C1076 C 0.41994 0.18011 0.53457 0.0
C1077 C 0.3534 0.15736 0.54208 0.0
C1078 C 0.40973 0.30162 0.56157 0.0
C1079 C 0.39427 0.28348 0.56757 0.0
C1080 C 0.39884 0.25839 0.56108 0.0
C1081 C 0.41324 0.25555 0.55933 0.0
C1082 C 0.41177 0.24134 0.54864 0.0
C1083 C 0.39524 0.22929 0.54004 0.0
C1084 C 0.38036 0.23163 0.54245 0.0
C1085 C 0.38241 0.24632 0.55268 0.0
C1086 C 0.42792 0.23927 0.54648 0.0
C1087 C 0.3622 0.21856 0.53436 0.0
C1088 C 0.3863 0.21126 0.45282 0.0
C1089 C 0.38217 0.1955 0.4434 0.0
C1090 C 0.38019 0.18063 0.45233 0.0
C1091 C 0.3827 0.18149 0.4712 0.0
C1092 C 0.381 0.16681 0.48056 0.0
C1093 C 0.38312 0.16764 0.49917 0.0
C1094 C 0.38688 0.18311 0.50916 0.0
C1095 C 0.38862 0.1839 0.52812 0.0
C1096 C 0.39168 0.19922 0.5377 0.0
C1097 C 0.39333 0.21402 0.52885 0.0
C1098 C 0.3922 0.2137 0.50981 0.0
C1099 C 0.39428 0.22852 0.50038 0.0
C1100 C 0.3924 0.22779 0.48171 0.0
C1101 C 0.38857 0.21229 0.47175 0.0
C1102 C 0.38678 0.19734 0.48095 0.0
C1103 C 0.38872 0.19809 0.49998 0.0
C1104 C 0.39385 0.10944 0.55172 0.0
C1105 C 0.39131 0.11787 0.56895 0.0
O1106 O 0.39061 0.26364 0.40605 0.0
O1107 O 0.4011 0.27253 0.57136 0.0
O1108 O 0.3795 0.12384 0.56576 0.0
O1109 O 0.35671 0.11616 0.41249 0.0
H1110 H 0.36948 0.24467 0.39043 0.0
H1111 H 0.39777 0.25146 0.37609 0.0
H1112 H 0.40405 0.27452 0.37351 0.0
H1113 H 0.38471 0.25689 0.36155 0.0
H1114 H 0.36067 0.23818 0.42057 0.0
H1115 H 0.41786 0.2634 0.41976 0.0
H1116 H 0.34979 0.19854 0.43627 0.0
H1117 H 0.34291 0.21465 0.44031 0.0
H1118 H 0.35382 0.20951 0.45792 0.0
H1119 H 0.43351 0.25233 0.43571 0.0
H1120 H 0.42098 0.22828 0.43762 0.0
H1121 H 0.42306 0.2422 0.45666 0.0
H1122 H 0.37674 0.117 0.396 0.0
H1123 H 0.36293 0.07672 0.4206 0.0
H1124 H 0.35688 0.08843 0.38668 0.0
H1125 H 0.34098 0.08648 0.40036 0.0
H1126 H 0.3912 0.14159 0.41828 0.0
H1127 H 0.33631 0.12599 0.4272 0.0
H1128 H 0.41034 0.18664 0.4309 0.0
H1129 H 0.4153 0.16884 0.42926 0.0
H1130 H 0.41057 0.17548 0.4508 0.0
H1131 H 0.32798 0.14367 0.4442 0.0
H1132 H 0.34337 0.16734 0.44183 0.0
H1133 H 0.34371 0.15662 0.46202 0.0
H1134 H 0.40446 0.12926 0.57365 0.0
H1135 H 0.41093 0.15013 0.55267 0.0
H1136 H 0.35487 0.13094 0.55928 0.0
H1137 H 0.41953 0.18046 0.51966 0.0
H1138 H 0.4304 0.17706 0.53857 0.0
H1139 H 0.42378 0.19366 0.53986 0.0
H1140 H 0.34108 0.14608 0.54789 0.0
H1141 H 0.35117 0.1578 0.52743 0.0
H1142 H 0.3557 0.17009 0.5483 0.0
H1143 H 0.3848 0.27811 0.55592 0.0
H1144 H 0.40483 0.31091 0.55876 0.0
H1145 H 0.41558 0.29974 0.54899 0.0
H1146 H 0.42052 0.30765 0.57198 0.0
H1147 H 0.4258 0.26479 0.56606 0.0
H1148 H 0.37102 0.24805 0.55433 0.0
H1149 H 0.43001 0.23739 0.53203 0.0
H1150 H 0.42559 0.22717 0.5536 0.0
H1151 H 0.44033 0.25101 0.55205 0.0
H1152 H 0.35141 0.22031 0.54029 0.0
H1153 H 0.35883 0.20456 0.53638 0.0
H1154 H 0.36243 0.22064 0.51966 0.0
H1155 H 0.38013 0.19468 0.42892 0.0
H1156 H 0.37798 0.1545 0.47361 0.0
H1157 H 0.38162 0.15591 0.50564 0.0
H1158 H 0.39249 0.1995 0.55229 0.0
H1159 H 0.39727 0.24081 0.50734 0.0
H1160 H 0.39392 0.2395 0.47519 0.0
H1161 H 0.40317 0.10448 0.5543 0.0
H1162 H 0.39966 0.11944 0.54094 0.0
H1163 H 0.3808 0.09807 0.54683 0.0
C1164 C 0.87133 0.24846 0.37663 0.0
C1165 C 0.88419 0.25484 0.39288 0.0
C1166 C 0.86513 0.23197 0.41487 0.0
C1167 C 0.85291 0.23778 0.41794 0.0
C1168 C 0.83753 0.22761 0.4283 0.0
C1169 C 0.83448 0.21149 0.43586 0.0
C1170 C 0.84705 0.20592 0.43321 0.0
C1171 C 0.86224 0.21629 0.42277 0.0
C1172 C 0.82443 0.23398 0.43109 0.0
C1173 C 0.84433 0.18892 0.44127 0.0
C1174 C 0.70741 0.11978 0.39081 0.0
C1175 C 0.72294 0.11609 0.39078 0.0
C1176 C 0.74361 0.13142 0.41616 0.0
C1177 C 0.75343 0.12816 0.42877 0.0
C1178 C 0.7682 0.14227 0.43784 0.0
C1179 C 0.77244 0.16012 0.43512 0.0
C1180 C 0.76248 0.16352 0.42236 0.0
C1181 C 0.74843 0.14914 0.41271 0.0
C1182 C 0.77908 0.13791 0.45034 0.0
C1183 C 0.76644 0.18227 0.41908 0.0
C1184 C 0.7365 0.13842 0.54476 0.0
C1185 C 0.75056 0.13547 0.54043 0.0
C1186 C 0.76682 0.14935 0.5339 0.0
C1187 C 0.76904 0.1665 0.53167 0.0
C1188 C 0.7554 0.16982 0.53725 0.0
C1189 C 0.7393 0.1557 0.54388 0.0
C1190 C 0.78136 0.14551 0.52864 0.0
C1191 C 0.75749 0.18803 0.53535 0.0
C1192 C 0.89495 0.28301 0.54367 0.0
C1193 C 0.88669 0.27348 0.5613 0.0
C1194 C 0.86325 0.24337 0.55087 0.0
C1195 C 0.85917 0.22572 0.5484 0.0
C1196 C 0.84341 0.21294 0.53946 0.0
C1197 C 0.83133 0.21798 0.53302 0.0
C1198 C 0.83503 0.23567 0.53599 0.0
C1199 C 0.85101 0.24824 0.54477 0.0
C1200 C 0.83988 0.19418 0.53652 0.0
C1201 C 0.82226 0.24137 0.52952 0.0
C1202 C 0.81796 0.2002 0.44619 0.0
C1203 C 0.80308 0.18669 0.4368 0.0
C1204 C 0.7872 0.17513 0.44569 0.0
C1205 C 0.78603 0.17724 0.4645 0.0
C1206 C 0.77007 0.16636 0.47382 0.0
C1207 C 0.7695 0.16747 0.49248 0.0
C1208 C 0.78479 0.17972 0.50252 0.0
C1209 C 0.78466 0.18018 0.52156 0.0
C1210 C 0.79987 0.19291 0.53115 0.0
C1211 C 0.81544 0.20508 0.52215 0.0
C1212 C 0.81601 0.20446 0.50312 0.0
C1213 C 0.83164 0.21614 0.49368 0.0
C1214 C 0.83223 0.21499 0.47501 0.0
C1215 C 0.81726 0.20204 0.46507 0.0
C1216 C 0.80126 0.19041 0.47426 0.0
C1217 C 0.80064 0.19165 0.49331 0.0
C1218 C 0.69287 0.09981 0.53874 0.0
C1219 C 0.7124 0.10707 0.54428 0.0
O1220 O 0.8798 0.24082 0.40434 0.0
O1221 O 0.87916 0.25516 0.55896 0.0
O1222 O 0.72003 0.12493 0.54947 0.0
O1223 O 0.72928 0.11711 0.40811 0.0
H1224 H 0.88359 0.26576 0.40032 0.0
H1225 H 0.8574 0.24377 0.38095 0.0
H1226 H 0.87149 0.23725 0.36933 0.0
H1227 H 0.87529 0.25962 0.36722 0.0
H1228 H 0.85519 0.25012 0.41224 0.0
H1229 H 0.87185 0.21203 0.42046 0.0
H1230 H 0.81109 0.22378 0.42556 0.0
H1231 H 0.82881 0.24692 0.42451 0.0
H1232 H 0.82282 0.23557 0.44572 0.0
H1233 H 0.85556 0.18663 0.43823 0.0
H1234 H 0.83168 0.17731 0.43597 0.0
H1235 H 0.84304 0.18948 0.45611 0.0
H1236 H 0.7338 0.12626 0.38223 0.0
H1237 H 0.70118 0.11711 0.37718 0.0
H1238 H 0.71225 0.13396 0.39448 0.0
H1239 H 0.697 0.11134 0.40066 0.0
H1240 H 0.74968 0.11444 0.43125 0.0
H1241 H 0.74102 0.15184 0.40288 0.0
H1242 H 0.77422 0.13709 0.46431 0.0
H1243 H 0.79352 0.14835 0.45011 0.0
H1244 H 0.77768 0.12479 0.4467 0.0
H1245 H 0.75561 0.18234 0.4112 0.0
H1246 H 0.77911 0.18965 0.41147 0.0
H1247 H 0.76824 0.18961 0.43205 0.0
H1248 H 0.71917 0.10568 0.53212 0.0
H1249 H 0.74877 0.12228 0.54187 0.0
H1250 H 0.72849 0.15791 0.54762 0.0
H1251 H 0.78249 0.14559 0.51375 0.0
H1252 H 0.77856 0.13229 0.5334 0.0
H1253 H 0.79449 0.15608 0.53424 0.0
H1254 H 0.746 0.18867 0.54112 0.0
H1255 H 0.75863 0.19138 0.52088 0.0
H1256 H 0.77002 0.19834 0.5422 0.0
H1257 H 0.87625 0.27652 0.56566 0.0
H1258 H 0.90126 0.29773 0.54567 0.0
H1259 H 0.88446 0.27862 0.53306 0.0
H1260 H 0.90526 0.27996 0.53889 0.0
H1261 H 0.86862 0.22205 0.55322 0.0
H1262 H 0.85382 0.26181 0.54656 0.0
H1263 H 0.83842 0.1908 0.52189 0.0
H1264 H 0.82708 0.18451 0.54301 0.0
H1265 H 0.85077 0.19248 0.54209 0.0
H1266 H 0.82618 0.25508 0.53436 0.0
H1267 H 0.80847 0.23187 0.53416 0.0
H1268 H 0.82194 0.24107 0.51457 0.0
H1269 H 0.80402 0.18492 0.42242 0.0
H1270 H 0.7579 0.15665 0.46682 0.0
H1271 H 0.75693 0.15847 0.49892 0.0
H1272 H 0.79969 0.19313 0.54575 0.0
H1273 H 0.84367 0.22621 0.50062 0.0
H1274 H 0.84466 0.22423 0.46848 0.0
H1275 H 0.68644 0.0855 0.53449 0.0
H1276 H 0.69231 0.10747 0.52723 0.0
H1277 H 0.68518 0.1011 0.55006 0.0
C1278 C 0.04455 0.45287 0.24505 0.0
C1279 C 0.03329 0.45163 0.26152 0.0
C1280 C 0.01133 0.45828 0.24828 0.0
C1281 C 0.99354 0.45061 0.24251 0.0
C1282 C 0.98755 0.46073 0.23369 0.0
C1283 C -0.00023 0.47901 0.23048 0.0
C1284 C 0.01772 0.48701 0.23659 0.0
C1285 C 0.02331 0.4766 0.24553 0.0
C1286 C 0.96825 0.45184 0.22757 0.0
C1287 C 0.03104 0.50651 0.23348 0.0
C1288 C 0.95862 0.54461 0.30244 0.0
C1289 C 0.97123 0.55403 0.28679 0.0
C1290 C 0.96717 0.53887 0.25781 0.0
C1291 C 0.98518 0.54626 0.25294 0.0
C1292 C 0.99027 0.53735 0.24048 0.0
C1293 C 0.97706 0.52068 0.23289 0.0
C1294 C 0.9588 0.51359 0.23726 0.0
C1295 C 0.95407 0.52297 0.24948 0.0
C1296 C 0.00979 0.54555 0.23574 0.0
C1297 C 0.94438 0.49582 0.22948 0.0
C1298 C 0.9618 0.54074 0.11896 0.0
C1299 C 0.97963 0.5486 0.12502 0.0
C1300 C 0.98586 0.53823 0.1329 0.0
C1301 C 0.97391 0.51969 0.13508 0.0
C1302 C 0.95613 0.51162 0.12841 0.0
C1303 C 0.9504 0.52225 0.12016 0.0
C1304 C 0.00513 0.54716 0.13916 0.0
C1305 C 0.94307 0.49187 0.13038 0.0
C1306 C 0.02586 0.43325 0.12944 0.0
C1307 C 0.0097 0.42835 0.11728 0.0
C1308 C 0.00613 0.45431 0.11652 0.0
C1309 C 0.01798 0.47279 0.11747 0.0
C1310 C 0.013 0.48419 0.1259 0.0
C1311 C 0.9956 0.47686 0.13313 0.0
C1312 C 0.98315 0.4583 0.13106 0.0
C1313 C 0.98858 0.4472 0.1228 0.0
C1314 C 0.02651 0.50394 0.12767 0.0
C1315 C 0.96429 0.45013 0.13804 0.0
C1316 C 0.99386 0.48966 0.22035 0.0
C1317 C 0.98842 0.49992 0.23013 0.0
C1318 C 0.98252 0.51011 0.22143 0.0
C1319 C 0.98186 0.51001 0.2024 0.0
C1320 C 0.9759 0.52001 0.19321 0.0
C1321 C 0.97507 0.5196 0.17449 0.0
C1322 C 0.98043 0.50938 0.16421 0.0
C1323 C 0.97979 0.50898 0.14515 0.0
C1324 C 0.9849 0.4984 0.13538 0.0
C1325 C 0.99086 0.48828 0.14414 0.0
C1326 C 0.99196 0.48882 0.16316 0.0
C1327 C -0.00168 0.47915 0.17238 0.0
C1328 C -0.00095 0.47948 0.19108 0.0
C1329 C 0.99345 0.48949 0.20132 0.0
C1330 C 0.98731 0.49961 0.19233 0.0
C1331 C 0.98659 0.49929 0.17322 0.0
C1332 C 0.94256 0.56527 0.12737 0.0
C1333 C 0.95904 0.5673 0.11755 0.0
O1334 O 0.01624 0.44745 0.2562 0.0
O1335 O 0.01194 0.44369 0.10941 0.0
O1336 O 0.95527 0.55048 0.11163 0.0
O1337 O 0.9621 0.54662 0.2707 0.0
H1338 H 0.03996 0.46463 0.26912 0.0
H1339 H 0.04633 0.46373 0.23614 0.0
H1340 H 0.03794 0.44008 0.23713 0.0
H1341 H 0.05807 0.45585 0.24941 0.0
H1342 H 0.98436 0.43652 0.24479 0.0
H1343 H 0.03707 0.48287 0.25013 0.0
H1344 H 0.96217 0.45966 0.23257 0.0
H1345 H 0.96012 0.4379 0.23234 0.0
H1346 H 0.96762 0.45155 0.21263 0.0
H1347 H 0.04473 0.51055 0.23831 0.0
H1348 H 0.02659 0.5149 0.24059 0.0
H1349 H 0.03162 0.50931 0.21889 0.0
H1350 H 0.98263 0.55165 0.28827 0.0
H1351 H 0.96566 0.55031 0.31551 0.0
H1352 H 0.9541 0.53012 0.30187 0.0
H1353 H 0.94662 0.54603 0.30175 0.0
H1354 H 0.99525 0.55891 0.25896 0.0
H1355 H 0.94018 0.51754 0.2532 0.0
H1356 H 0.01506 0.53746 0.24157 0.0
H1357 H 0.01803 0.55954 0.24096 0.0
H1358 H 0.01133 0.5454 0.2209 0.0
H1359 H 0.93089 0.49187 0.23474 0.0
H1360 H 0.94744 0.48523 0.23268 0.0
H1361 H 0.94405 0.49653 0.2146 0.0
H1362 H 0.97008 0.57318 0.12772 0.0
H1363 H 0.98878 0.56278 0.12354 0.0
H1364 H 0.93676 0.51626 0.11515 0.0
H1365 H 0.00567 0.54777 0.15409 0.0
H1366 H 0.0133 0.56101 0.13415 0.0
H1367 H 0.01124 0.53926 0.13453 0.0
H1368 H 0.92947 0.4878 0.12525 0.0
H1369 H 0.9421 0.48827 0.14477 0.0
H1370 H 0.94803 0.4841 0.12286 0.0
H1371 H -0.00242 0.42215 0.1259 0.0
H1372 H 0.03849 0.43985 0.12164 0.0
H1373 H 0.02438 0.42108 0.1357 0.0
H1374 H 0.02681 0.44263 0.14036 0.0
H1375 H 0.03138 0.47816 0.11222 0.0
H1376 H 0.97911 0.43298 0.12127 0.0
H1377 H 0.02892 0.50803 0.14213 0.0
H1378 H 0.02112 0.51167 0.12125 0.0
H1379 H 0.03951 0.50754 0.12134 0.0
H1380 H 0.9556 0.43603 0.13331 0.0
H1381 H 0.95821 0.45803 0.1337 0.0
H1382 H 0.96461 0.45045 0.15298 0.0
H1383 H 0.98876 0.49995 0.24473 0.0
H1384 H 0.97169 0.52819 0.20041 0.0
H1385 H 0.97017 0.52742 0.16818 0.0
H1386 H 0.98422 0.49803 0.12078 0.0
H1387 H 0.00281 0.47118 0.16525 0.0
H1388 H 0.00404 0.47173 0.19741 0.0
H1389 H 0.9306 0.55898 0.11833 0.0
H1390 H 0.9451 0.57848 0.13246 0.0
H1391 H 0.93962 0.55651 0.13912 0.0
C1392 C 0.46068 0.39375 0.29429 0.0
C1393 C 0.45407 0.40268 0.28135 0.0
C1394 C 0.46425 0.40922 0.25076 0.0
C1395 C 0.46097 0.42296 0.24672 0.0
C1396 C 0.47194 0.43631 0.23466 0.0
C1397 C 0.48674 0.43609 0.22685 0.0
C1398 C 0.4896 0.42178 0.2304 0.0
C1399 C 0.47802 0.40828 0.24208 0.0
C1400 C 0.46814 0.45106 0.23093 0.0
C1401 C 0.5054 0.4212 0.22266 0.0
C1402 C 0.57963 0.53779 0.28945 0.0
C1403 C 0.58333 0.54915 0.27269 0.0
C1404 C 0.55805 0.52894 0.25256 0.0
C1405 C 0.56379 0.51678 0.2485 0.0
C1406 C 0.55324 0.50152 0.23759 0.0
C1407 C 0.53678 0.49849 0.23048 0.0
C1408 C 0.53108 0.51078 0.23442 0.0
C1409 C 0.54181 0.52583 0.24543 0.0
C1410 C 0.55966 0.48863 0.23362 0.0
C1411 C 0.51363 0.50799 0.22702 0.0
C1412 C 0.57932 0.52864 0.12085 0.0
C1413 C 0.58067 0.51386 0.12587 0.0
C1414 C 0.56576 0.49844 0.13258 0.0
C1415 C 0.54916 0.49773 0.1342 0.0
C1416 C 0.54761 0.51234 0.1286 0.0
C1417 C 0.56276 0.52763 0.12208 0.0
C1418 C 0.56787 0.48312 0.13853 0.0
C1419 C 0.5301 0.512 0.13008 0.0
C1420 C 0.43614 0.36064 0.11226 0.0
C1421 C 0.44096 0.3793 0.10619 0.0
C1422 C 0.47104 0.40509 0.11045 0.0
C1423 C 0.4882 0.40846 0.11455 0.0
C1424 C 0.50053 0.42405 0.12412 0.0
C1425 C 0.49564 0.43674 0.12929 0.0
C1426 C 0.47868 0.43393 0.12412 0.0
C1427 C 0.46651 0.41808 0.1148 0.0
C1428 C 0.51858 0.42672 0.12919 0.0
C1429 C 0.47326 0.44746 0.12884 0.0
C1430 C 0.50035 0.45186 0.21686 0.0
C1431 C 0.51211 0.46714 0.22704 0.0
C1432 C 0.52548 0.48251 0.21887 0.0
C1433 C 0.52759 0.48264 0.20001 0.0
C1434 C 0.54125 0.49774 0.19144 0.0
C1435 C 0.54339 0.49769 0.17291 0.0
C1436 C 0.53176 0.48263 0.16216 0.0
C1437 C 0.53394 0.48245 0.1433 0.0
C1438 C 0.52191 0.46744 0.13293 0.0
C1439 C 0.50782 0.45237 0.14097 0.0
C1440 C 0.50568 0.45217 0.1599 0.0
C1441 C 0.4919 0.43712 0.16851 0.0
C1442 C 0.49 0.43703 0.18713 0.0
C1443 C 0.50189 0.4519 0.19789 0.0
C1444 C 0.51572 0.4673 0.18947 0.0
C1445 C 0.51769 0.46738 0.17049 0.0
C1446 C 0.62172 0.55316 0.12911 0.0
C1447 C 0.6108 0.54792 0.11146 0.0
O1448 O 0.45495 0.39743 0.26382 0.0
O1449 O 0.45912 0.38914 0.1025 0.0
O1450 O 0.59358 0.54426 0.11524 0.0
O1451 O 0.56752 0.54372 0.2633 0.0
H1452 H 0.46344 0.41738 0.28331 0.0
H1453 H 0.47501 0.39847 0.29164 0.0
H1454 H 0.45294 0.37896 0.29249 0.0
H1455 H 0.4595 0.39732 0.30846 0.0
H1456 H 0.45006 0.42341 0.25332 0.0
H1457 H 0.48032 0.39751 0.2453 0.0
H1458 H 0.47747 0.46314 0.23907 0.0
H1459 H 0.45421 0.4472 0.23455 0.0
H1460 H 0.47029 0.45464 0.21651 0.0
H1461 H 0.50663 0.41004 0.22807 0.0
H1462 H 0.51802 0.434 0.22568 0.0
H1463 H 0.50395 0.41949 0.20781 0.0
H1464 H 0.59297 0.54783 0.26384 0.0
H1465 H 0.59229 0.54223 0.29704 0.0
H1466 H 0.57386 0.52348 0.28561 0.0
H1467 H 0.57001 0.53899 0.29841 0.0
H1468 H 0.57639 0.51903 0.2538 0.0
H1469 H 0.53752 0.53529 0.24862 0.0
H1470 H 0.54941 0.47501 0.2379 0.0
H1471 H 0.57254 0.49262 0.24054 0.0
H1472 H 0.56145 0.48789 0.21889 0.0
H1473 H 0.51134 0.51906 0.23095 0.0
H1474 H 0.50232 0.49525 0.23201 0.0
H1475 H 0.51352 0.50687 0.21209 0.0
H1476 H 0.61037 0.53592 0.10538 0.0
H1477 H 0.59337 0.51437 0.12504 0.0
H1478 H 0.56181 0.53906 0.11813 0.0
H1479 H 0.56548 0.4813 0.15323 0.0
H1480 H 0.58142 0.48535 0.13565 0.0
H1481 H 0.55771 0.47052 0.13162 0.0
H1482 H 0.53075 0.52387 0.12397 0.0
H1483 H 0.52651 0.51162 0.14449 0.0
H1484 H 0.51921 0.4997 0.12335 0.0
H1485 H 0.43763 0.38537 0.1178 0.0
H1486 H 0.4215 0.35231 0.11469 0.0
H1487 H 0.44334 0.36182 0.12503 0.0
H1488 H 0.44005 0.3538 0.10204 0.0
H1489 H 0.49165 0.39848 0.11083 0.0
H1490 H 0.45347 0.41582 0.11098 0.0
H1491 H 0.52057 0.42857 0.14401 0.0
H1492 H 0.52933 0.43904 0.12292 0.0
H1493 H 0.52005 0.41525 0.12479 0.0
H1494 H 0.46059 0.44437 0.122 0.0
H1495 H 0.48402 0.46107 0.12507 0.0
H1496 H 0.47138 0.44767 0.14361 0.0
H1497 H 0.51077 0.46712 0.24158 0.0
H1498 H 0.55057 0.50973 0.199 0.0
H1499 H 0.55426 0.50966 0.16712 0.0
H1500 H 0.52363 0.46741 0.11846 0.0
H1501 H 0.48244 0.4252 0.16096 0.0
H1502 H 0.47912 0.42512 0.19302 0.0
H1503 H 0.62403 0.5662 0.1345 0.0
H1504 H 0.63476 0.55393 0.12694 0.0
H1505 H 0.61445 0.54295 0.13947 0.0
C1506 C 0.44375 0.97954 0.30817 0.0
C1507 C 0.44038 0.99057 0.29462 0.0
C1508 C 0.45026 0.98755 0.26477 0.0
C1509 C 0.46208 0.00559 0.26089 0.0
C1510 C 0.476 0.01042 0.24855 0.0
C1511 C 0.47795 0.99691 0.23984 0.0
C1512 C 0.46537 0.97868 0.24292 0.0
C1513 C 0.45153 0.97423 0.25526 0.0
C1514 C 0.48889 0.02996 0.24517 0.0
C1515 C 0.46693 0.96394 0.23361 0.0
C1516 C 0.60191 0.0017 0.26891 0.0
C1517 C 0.59581 0.00779 0.25339 0.0
C1518 C 0.57272 0.01579 0.25276 0.0
C1519 C 0.55825 -0.00142 0.2486 0.0
C1520 C 0.54233 0.99624 0.24121 0.0
C1521 C 0.54074 0.01139 0.23827 0.0
C1522 C 0.55473 0.0286 0.24378 0.0
C1523 C 0.57059 0.03056 0.251 0.0
C1524 C 0.52742 0.97764 0.23597 0.0
C1525 C 0.5532 0.04495 0.24136 0.0
C1526 C 0.57601 0.03192 0.12664 0.0
C1527 C 0.56325 0.01374 0.12886 0.0
C1528 C 0.54652 0.00853 0.1365 0.0
C1529 C 0.54246 0.02175 0.1419 0.0
C1530 C 0.55484 0.03998 0.13859 0.0
C1531 C 0.57143 0.04481 0.13083 0.0
C1532 C 0.53339 0.98892 0.13935 0.0
C1533 C 0.5508 0.0544 0.14387 0.0
C1534 C 0.41157 -0.00138 0.13463 0.0
C1535 C 0.42273 0.00471 0.11746 0.0
C1536 C 0.44775 -7e-05 0.12448 0.0
C1537 C 0.45196 0.98645 0.12524 0.0
C1538 C 0.46729 0.98919 0.13444 0.0
C1539 C 0.47896 0.00606 0.14268 0.0
C1540 C 0.47513 0.01998 0.14148 0.0
C1541 C 0.45944 0.01673 0.1326 0.0
C1542 C 0.47089 0.97399 0.13562 0.0
C1543 C 0.48759 0.03829 0.14968 0.0
C1544 C 0.49397 0.00188 0.22872 0.0
C1545 C 0.50943 0.00474 0.23763 0.0
C1546 C 0.52505 0.00933 0.22817 0.0
C1547 C 0.52544 0.01129 0.2093 0.0
C1548 C 0.541 0.01595 0.1994 0.0
C1549 C 0.54128 0.01785 0.18086 0.0
C1550 C 0.52595 0.01496 0.17143 0.0
C1551 C 0.52609 0.0167 0.15253 0.0
C1552 C 0.51063 0.01371 0.14356 0.0
C1553 C 0.4949 0.00898 0.153 0.0
C1554 C 0.4945 0.00717 0.17191 0.0
C1555 C 0.47889 0.0024 0.18183 0.0
C1556 C 0.47869 0.00075 0.20045 0.0
C1557 C 0.49403 0.00365 0.20984 0.0
C1558 C 0.50986 0.00841 0.20011 0.0
C1559 C 0.5101 0.01019 0.18114 0.0
C1560 C 0.61566 0.04172 0.14107 0.0
C1561 C 0.60345 0.03063 0.12523 0.0
O1562 O 0.43756 0.98261 0.27764 0.0
O1563 O 0.43246 0.99614 0.11561 0.0
O1564 O 0.59274 0.03749 0.12039 0.0
O1565 O 0.58897 0.01866 0.25805 0.0
H1566 H 0.45257 0.00416 0.29498 0.0
H1567 H 0.45622 0.9796 0.30461 0.0
H1568 H 0.43251 0.96543 0.30809 0.0
H1569 H 0.44542 0.9854 0.32197 0.0
H1570 H 0.46053 0.01591 0.26754 0.0
H1571 H 0.44206 0.96033 0.25809 0.0
H1572 H 0.50241 0.03374 0.25029 0.0
H1573 H 0.48469 0.03877 0.25184 0.0
H1574 H 0.49001 0.03238 0.23047 0.0
H1575 H 0.45576 0.95042 0.23707 0.0
H1576 H 0.47981 0.96503 0.23749 0.0
H1577 H 0.46702 0.96541 0.2188 0.0
H1578 H 0.58814 -0.00232 0.2425 0.0
H1579 H 0.59279 0.98673 0.26875 0.0
H1580 H 0.59577 0.00402 0.28131 0.0
H1581 H 0.6299 0.01429 0.26523 0.0
H1582 H 0.55943 0.98696 0.25086 0.0
H1583 H 0.58168 0.04375 0.25464 0.0
H1584 H 0.52462 0.97691 0.22129 0.0
H1585 H 0.51496 0.97462 0.24312 0.0
H1586 H 0.53072 0.96722 0.23918 0.0
H1587 H 0.56438 0.05705 0.24807 0.0
H1588 H 0.54029 0.04263 0.24687 0.0
H1589 H 0.55329 0.04753 0.22677 0.0
H1590 H 0.59531 0.01678 0.13023 0.0
H1591 H 0.56628 0.00358 0.12467 0.0
H1592 H 0.58121 0.05877 0.12865 0.0
H1593 H 0.53197 0.98629 0.154 0.0
H1594 H 0.53773 0.98019 0.13277 0.0
H1595 H 0.51997 0.98525 0.13398 0.0
H1596 H 0.56159 0.0679 0.13987 0.0
H1597 H 0.54909 0.05448 0.15869 0.0
H1598 H 0.53801 0.05151 0.13749 0.0
H1599 H 0.43186 0.01944 0.11819 0.0
H1600 H 0.4036 0.00529 0.13618 0.0
H1601 H 0.42053 0.00223 0.14658 0.0
H1602 H 0.40232 0.98388 0.13422 0.0
H1603 H 0.44293 0.97357 0.11887 0.0
H1604 H 0.45667 0.02748 0.13195 0.0
H1605 H 0.47198 0.97127 0.14996 0.0
H1606 H 0.48388 0.97782 0.12916 0.0
H1607 H 0.46019 0.96149 0.12899 0.0
H1608 H 0.4835 0.04811 0.14635 0.0
H1609 H 0.50146 0.04339 0.14484 0.0
H1610 H 0.48782 0.03735 0.16454 0.0
H1611 H 0.50924 0.00323 0.2521 0.0
H1612 H 0.55319 0.01825 0.20586 0.0
H1613 H 0.55369 0.02156 0.17403 0.0
H1614 H 0.51084 0.01508 0.12906 0.0
H1615 H 0.46665 -0.0001 0.17532 0.0
H1616 H 0.46634 0.99711 0.20739 0.0
H1617 H 0.62277 0.05625 0.13829 0.0
H1618 H 0.62559 0.0376 0.14397 0.0
H1619 H 0.60743 0.03948 0.1533 0.0
C1620 C 0.54575 0.95446 0.717 0.0
C1621 C 0.55814 0.97257 0.72636 0.0
C1622 C 0.54938 0.97743 0.75569 0.0
C1623 C 0.55642 0.99593 0.75707 0.0
C1624 C 0.54786 0.00296 0.76753 0.0
C1625 C 0.53176 0.99115 0.77646 0.0
C1626 C 0.52474 0.97242 0.77513 0.0
C1627 C 0.5339 0.96584 0.76503 0.0
C1628 C 0.55588 0.02297 0.76887 0.0
C1629 C 0.50733 0.95929 0.78396 0.0
C1630 C 0.42271 0.00778 0.72675 0.0
C1631 C 0.43325 0.00162 0.73691 0.0
C1632 C 0.46227 0.01267 0.75156 0.0
C1633 C 0.45717 0.99643 0.76002 0.0
C1634 C 0.46922 0.99462 0.77103 0.0
C1635 C 0.48672 0.00942 0.77391 0.0
C1636 C 0.49191 0.02584 0.76557 0.0
C1637 C 0.4796 0.02723 0.75446 0.0
C1638 C 0.46324 0.9768 0.77949 0.0
C1639 C 0.51044 0.04187 0.76842 0.0
C1640 C 0.44911 0.00491 0.8858 0.0
C1641 C 0.44599 0.98955 0.87601 0.0
C1642 C 0.46022 0.98853 0.86831 0.0
C1643 C 0.47795 0.00324 0.87024 0.0
C1644 C 0.48121 0.01852 0.88048 0.0
C1645 C 0.46673 0.01905 0.88831 0.0
C1646 C 0.45626 0.97174 0.85796 0.0
C1647 C 0.49992 0.03439 0.88284 0.0
C1648 C 0.56939 0.95373 0.87945 0.0
C1649 C 0.56982 0.96887 0.89075 0.0
C1650 C 0.54349 0.97194 0.88895 0.0
C1651 C 0.52552 0.961 0.88395 0.0
C1652 C 0.51604 0.96818 0.87585 0.0
C1653 C 0.52471 0.98685 0.87316 0.0
C1654 C 0.54252 -0.00186 0.87943 0.0
C1655 C 0.55177 0.99055 0.88722 0.0
C1656 C 0.49697 0.95574 0.86962 0.0
C1657 C 0.55193 0.01815 0.87735 0.0
C1658 C 0.52181 -0.00178 0.78658 0.0
C1659 C 0.51107 0.00278 0.77671 0.0
C1660 C 0.49961 0.0074 0.78531 0.0
C1661 C 0.49895 0.00773 0.80433 0.0
C1662 C 0.48746 0.01216 0.81342 0.0
C1663 C 0.4858 0.01098 0.83205 0.0
C1664 C 0.49559 0.00538 0.8423 0.0
C1665 C 0.49287 0.00268 0.86103 0.0
C1666 C 0.50305 0.99738 0.87087 0.0
C1667 C 0.51565 0.99425 0.86241 0.0
C1668 C 0.51824 0.9965 0.84361 0.0
C1669 C 0.53042 0.99298 0.83456 0.0
C1670 C 0.53206 0.99412 0.81594 0.0
C1671 C 0.5214 -0.00142 0.8056 0.0
C1672 C 0.50968 0.00302 0.81449 0.0
C1673 C 0.50805 0.00191 0.83352 0.0
C1674 C 0.41783 0.01084 0.87193 0.0
C1675 C 0.41826 -0.00085 0.88681 0.0
O1676 O 0.55699 0.97051 0.74483 0.0
O1677 O 0.55246 0.96413 0.89531 0.0
O1678 O 0.43566 0.00647 0.89335 0.0
O1679 O 0.4509 0.01474 0.74061 0.0
H1680 H 0.55304 0.98146 0.72221 0.0
H1681 H 0.53157 0.95009 0.72006 0.0
H1682 H 0.5484 0.94401 0.72181 0.0
H1683 H 0.54748 0.95556 0.70217 0.0
H1684 H 0.56857 0.0048 0.7499 0.0
H1685 H 0.52863 0.95156 0.76379 0.0
H1686 H 0.54707 0.02666 0.76169 0.0
H1687 H 0.56947 0.03036 0.76292 0.0
H1688 H 0.55673 0.0273 0.78319 0.0
H1689 H 0.50241 0.94528 0.77939 0.0
H1690 H 0.49683 0.9626 0.78102 0.0
H1691 H 0.50928 0.96011 0.79878 0.0
H1692 H 0.43188 0.98885 0.73168 0.0
H1693 H 0.41924 0.00012 0.71353 0.0
H1694 H 0.43274 0.02098 0.72077 0.0
H1695 H 0.40304 0.00508 0.74531 0.0
H1696 H 0.44381 0.98501 0.75806 0.0
H1697 H 0.48345 0.03972 0.74796 0.0
H1698 H 0.4629 0.97819 0.79435 0.0
H1699 H 0.47293 0.97238 0.77639 0.0
H1700 H 0.44972 0.96621 0.77473 0.0
H1701 H 0.51209 0.05398 0.76187 0.0
H1702 H 0.52052 0.03885 0.76285 0.0
H1703 H 0.51329 0.04477 0.78306 0.0
H1704 H 0.41322 0.98551 0.88107 0.0
H1705 H 0.43259 0.97814 0.87453 0.0
H1706 H 0.46905 0.03073 0.8961 0.0
H1707 H 0.4584 0.97462 0.84339 0.0
H1708 H 0.44225 0.96065 0.85981 0.0
H1709 H 0.46552 0.96721 0.86227 0.0
H1710 H 0.50015 0.04554 0.89066 0.0
H1711 H 0.50594 0.03934 0.86944 0.0
H1712 H 0.50844 0.03025 0.8899 0.0
H1713 H 0.57599 0.98077 0.88199 0.0
H1714 H 0.58325 0.957 0.87624 0.0
H1715 H 0.56211 0.95199 0.86659 0.0
H1716 H 0.56241 0.94085 0.88661 0.0
H1717 H 0.51916 0.94669 0.88571 0.0
H1718 H 0.56547 -0.00087 0.89185 0.0
H1719 H 0.49571 0.95732 0.855 0.0
H1720 H 0.48793 0.95927 0.87681 0.0
H1721 H 0.49239 0.94148 0.87211 0.0
H1722 H 0.56489 0.02524 0.88484 0.0
H1723 H 0.54323 0.02327 0.88221 0.0
H1724 H 0.55458 0.02136 0.86288 0.0
H1725 H 0.51099 0.00189 0.76211 0.0
H1726 H 0.47938 0.01626 0.80619 0.0
H1727 H 0.47651 0.01425 0.8383 0.0
H1728 H 0.50063 0.99496 0.88516 0.0
H1729 H 0.53866 0.98904 0.84172 0.0
H1730 H 0.54152 0.9911 0.8097 0.0
H1731 H 0.42294 0.02473 0.87707 0.0
H1732 H 0.40392 0.00524 0.86676 0.0
H1733 H 0.42637 0.01128 0.86056 0.0
C1734 C 0.02677 0.57283 0.71928 0.0
C1735 C 0.01343 0.57366 0.73218 0.0
C1736 C 0.01464 0.5624 0.76134 0.0
C1737 C 0.99648 0.55064 0.76494 0.0
C1738 C 0.9912 0.53598 0.77612 0.0
C1739 C 0.0044 0.53303 0.78369 0.0
C1740 C 0.02279 0.54528 0.78055 0.0
C1741 C 0.02767 0.56004 0.76963 0.0
C1742 C 0.97152 0.52342 0.77949 0.0
C1743 C 0.03725 0.54246 0.78817 0.0
C1744 C 0.97408 0.43288 0.71381 0.0
C1745 C 0.9806 0.42616 0.72926 0.0
C1746 C 0.97635 0.43982 0.7564 0.0
C1747 C 0.99427 0.45192 0.76127 0.0
C1748 C -0.0013 0.46659 0.77281 0.0
C1749 C 0.98492 0.46909 0.77972 0.0
C1750 C 0.96681 0.45661 0.7753 0.0
C1751 C 0.96276 0.442 0.7638 0.0
C1752 C 0.01812 0.47942 0.77767 0.0
C1753 C 0.95181 0.45881 0.78264 0.0
C1754 C 0.98341 0.43248 0.88667 0.0
C1755 C 0.00129 0.44635 0.88462 0.0
C1756 C 0.00524 0.46341 0.87937 0.0
C1757 C 0.9911 0.46672 0.87644 0.0
C1758 C 0.97324 0.45321 0.87988 0.0
C1759 C 0.96966 0.43625 0.88492 0.0
C1760 C 0.02448 0.47772 0.87624 0.0
C1761 C 0.95785 0.45639 0.8773 0.0
C1762 C 0.03812 0.60935 0.88565 0.0
C1763 C 0.02255 0.59357 0.89515 0.0
C1764 C 0.02172 0.56525 0.89626 0.0
C1765 C 0.03374 0.55936 0.89296 0.0
C1766 C 0.02786 0.54239 0.88516 0.0
C1767 C 0.00944 0.53099 0.88099 0.0
C1768 C -0.00298 0.53629 0.88582 0.0
C1769 C 0.00332 0.55343 0.89337 0.0
C1770 C 0.04142 0.53701 0.88049 0.0
C1771 C 0.97723 0.5242 0.88217 0.0
C1772 C -0.00104 0.51639 0.79358 0.0
C1773 C 0.99374 0.5008 0.78335 0.0
C1774 C 0.98953 0.48482 0.79153 0.0
C1775 C 0.99055 0.48425 0.81044 0.0
C1776 C 0.98684 0.46848 0.81901 0.0
C1777 C 0.98819 0.46812 0.83761 0.0
C1778 C 0.99318 0.4835 0.8484 0.0
C1779 C 0.99468 0.48325 0.86734 0.0
C1780 C -0.00021 0.49878 0.87769 0.0
C1781 C 0.00356 0.51469 0.86954 0.0
C1782 C 0.00212 0.51518 0.85059 0.0
C1783 C 0.00589 0.53098 0.84193 0.0
C1784 C 0.00464 0.53137 0.82329 0.0
C1785 C -0.00026 0.51603 0.81257 0.0
C1786 C 0.99564 0.49991 0.82101 0.0
C1787 C 0.9969 0.49951 0.84003 0.0
C1788 C 0.97985 0.39212 0.87443 0.0
C1789 C 0.98848 0.40691 0.88893 0.0
O1790 O 0.01987 0.57594 0.74969 0.0
O1791 O 0.02828 0.5825 0.90174 0.0
O1792 O 0.97859 0.41536 0.8904 0.0
O1793 O 0.97168 0.42575 0.74491 0.0
H1794 H 0.00051 0.56074 0.73055 0.0
H1795 H 0.02827 0.56124 0.72252 0.0
H1796 H 0.04014 0.58523 0.72048 0.0
H1797 H 0.02187 0.57112 0.70515 0.0
H1798 H 0.98645 0.55288 0.7589 0.0
H1799 H 0.04167 0.56937 0.76687 0.0
H1800 H 0.96706 0.51048 0.77229 0.0
H1801 H 0.96317 0.52889 0.77475 0.0
H1802 H 0.96917 0.52066 0.79408 0.0
H1803 H 0.05079 0.55244 0.7833 0.0
H1804 H 0.0345 0.52884 0.78446 0.0
H1805 H 0.0373 0.54347 0.80309 0.0
H1806 H 0.99526 0.43543 0.73081 0.0
H1807 H 0.9809 0.43298 0.7011 0.0
H1808 H 0.97724 0.44675 0.71691 0.0
H1809 H 0.95935 0.42423 0.71184 0.0
H1810 H 0.00483 0.44984 0.75641 0.0
H1811 H 0.94895 0.43239 0.7602 0.0
H1812 H 0.02213 0.49301 0.77301 0.0
H1813 H 0.02722 0.47532 0.77158 0.0
H1814 H 0.01989 0.48029 0.79253 0.0
H1815 H 0.93843 0.44807 0.7777 0.0
H1816 H 0.95381 0.47197 0.77871 0.0
H1817 H 0.95201 0.45867 0.79757 0.0
H1818 H 0.00244 0.41617 0.88471 0.0
H1819 H 0.01226 0.4441 0.88693 0.0
H1820 H 0.95594 0.42561 0.88695 0.0
H1821 H 0.02627 0.48152 0.86188 0.0
H1822 H 0.03403 0.47328 0.87971 0.0
H1823 H 0.02785 0.48987 0.88445 0.0
H1824 H 0.94518 0.44552 0.88301 0.0
H1825 H 0.95572 0.45714 0.86269 0.0
H1826 H 0.96103 0.46934 0.88372 0.0
H1827 H 0.01203 0.5865 0.88454 0.0
H1828 H 0.03411 0.61897 0.88129 0.0
H1829 H 0.04186 0.60435 0.87351 0.0
H1830 H 0.05013 0.6164 0.89454 0.0
H1831 H 0.04788 0.56848 0.89562 0.0
H1832 H 0.99391 0.55773 0.89666 0.0
H1833 H 0.04151 0.53502 0.86569 0.0
H1834 H 0.03759 0.52409 0.8868 0.0
H1835 H 0.05518 0.5472 0.88505 0.0
H1836 H 0.96913 0.52914 0.88902 0.0
H1837 H 0.9727 0.51044 0.88669 0.0
H1838 H 0.97464 0.52341 0.86746 0.0
H1839 H 0.99328 0.50119 0.76878 0.0
H1840 H 0.98294 0.45624 0.81144 0.0
H1841 H 0.98529 0.45559 0.84337 0.0
H1842 H 0.00097 0.49851 0.8922 0.0
H1843 H 0.00992 0.54329 0.84943 0.0
H1844 H 0.00766 0.54388 0.81738 0.0
H1845 H 0.98754 0.38515 0.87287 0.0
H1846 H 0.97981 0.39801 0.86132 0.0
H1847 H 0.96579 0.38217 0.87797 0.0
C1848 C 0.54107 0.59125 0.71526 0.0
C1849 C 0.55307 0.59786 0.73216 0.0
C1850 C 0.53473 0.57342 0.75287 0.0
C1851 C 0.52157 0.57799 0.75614 0.0
C1852 C 0.50625 0.56679 0.76617 0.0
C1853 C 0.50405 0.55075 0.77303 0.0
C1854 C 0.51738 0.54624 0.76996 0.0
C1855 C 0.5326 0.55772 0.76001 0.0
C1856 C 0.49237 0.57206 0.7694 0.0
C1857 C 0.51546 0.52922 0.77709 0.0
C1858 C 0.40173 0.46926 0.69993 0.0
C1859 C 0.40881 0.46319 0.71541 0.0
C1860 C 0.41591 0.47755 0.74503 0.0
C1861 C 0.42949 0.4743 0.75022 0.0
C1862 C 0.44241 0.48538 0.76312 0.0
C1863 C 0.44185 0.50016 0.77073 0.0
C1864 C 0.42772 0.50301 0.76602 0.0
C1865 C 0.41469 0.4914 0.75343 0.0
C1866 C 0.457 0.48164 0.76817 0.0
C1867 C 0.42679 0.51872 0.77368 0.0
C1868 C 0.40877 0.47465 0.88657 0.0
C1869 C 0.4215 0.47062 0.87996 0.0
C1870 C 0.43685 0.48354 0.8711 0.0
C1871 C 0.43948 0.50083 0.86875 0.0
C1872 C 0.42707 0.50517 0.87609 0.0
C1873 C 0.41194 0.49203 0.88509 0.0
C1874 C 0.45019 0.47866 0.86412 0.0
C1875 C 0.42968 0.52359 0.87417 0.0
C1876 C 0.5669 0.61532 0.88038 0.0
C1877 C 0.55942 0.60522 0.89791 0.0
C1878 C 0.53489 0.57569 0.88732 0.0
C1879 C 0.5303 0.55799 0.8839 0.0
C1880 C 0.51407 0.54575 0.87538 0.0
C1881 C 0.50205 0.55138 0.87034 0.0
C1882 C 0.50623 0.56907 0.8744 0.0
C1883 C 0.52269 0.58112 0.88275 0.0
C1884 C 0.51001 0.52696 0.87126 0.0
C1885 C 0.49355 0.57538 0.8694 0.0
C1886 C 0.48771 0.53854 0.78324 0.0
C1887 C 0.47262 0.5259 0.7735 0.0
C1888 C 0.45697 0.5135 0.78221 0.0
C1889 C 0.45623 0.51373 0.80123 0.0
C1890 C 0.44078 0.50138 0.81047 0.0
C1891 C 0.44027 0.50171 0.82921 0.0
C1892 C 0.4553 0.51419 0.83944 0.0
C1893 C 0.45515 0.51428 0.8585 0.0
C1894 C 0.47039 0.5268 0.86821 0.0
C1895 C 0.48592 0.53923 0.85938 0.0
C1896 C 0.48633 0.53939 0.84036 0.0
C1897 C 0.50181 0.55171 0.83111 0.0
C1898 C 0.50222 0.55159 0.81241 0.0
C1899 C 0.48724 0.53904 0.80224 0.0
C1900 C 0.47145 0.52657 0.81126 0.0
C1901 C 0.47098 0.52678 0.83037 0.0
C1902 C 0.36559 0.44119 0.88076 0.0
C1903 C 0.38309 0.44437 0.88927 0.0
O1904 O 0.54956 0.58355 0.74285 0.0
O1905 O 0.55129 0.58694 0.89474 0.0
O1906 O 0.39346 0.46221 0.89461 0.0
O1907 O 0.40414 0.46785 0.73161 0.0
H1908 H 0.5506 0.60745 0.73996 0.0
H1909 H 0.52671 0.58462 0.71894 0.0
H1910 H 0.54324 0.5815 0.70743 0.0
H1911 H 0.54408 0.60269 0.70657 0.0
H1912 H 0.52306 0.59018 0.75092 0.0
H1913 H 0.54284 0.55434 0.75751 0.0
H1914 H 0.47944 0.56188 0.76309 0.0
H1915 H 0.49638 0.58535 0.76383 0.0
H1916 H 0.49007 0.57242 0.78408 0.0
H1917 H 0.52673 0.52734 0.77301 0.0
H1918 H 0.5027 0.51752 0.77212 0.0
H1919 H 0.51491 0.52945 0.79202 0.0
H1920 H 0.42368 0.47042 0.71402 0.0
H1921 H 0.40539 0.46575 0.68676 0.0
H1922 H 0.40775 0.48401 0.70078 0.0
H1923 H 0.38691 0.46287 0.70057 0.0
H1924 H 0.43008 0.46322 0.74403 0.0
H1925 H 0.404 0.49363 0.74942 0.0
H1926 H 0.45903 0.48271 0.783 0.0
H1927 H 0.46979 0.49176 0.762 0.0
H1928 H 0.4539 0.46814 0.76343 0.0
H1929 H 0.41537 0.51949 0.76804 0.0
H1930 H 0.43943 0.53138 0.77085 0.0
H1931 H 0.42537 0.51767 0.78853 0.0
H1932 H 0.38968 0.44086 0.87839 0.0
H1933 H 0.4196 0.45746 0.88181 0.0
H1934 H 0.40222 0.49512 0.89058 0.0
H1935 H 0.44996 0.4784 0.84918 0.0
H1936 H 0.44722 0.46535 0.86873 0.0
H1937 H 0.46396 0.48889 0.86859 0.0
H1938 H 0.41836 0.52459 0.87987 0.0
H1939 H 0.4311 0.52711 0.85974 0.0
H1940 H 0.44224 0.53361 0.88119 0.0
H1941 H 0.54954 0.60847 0.90363 0.0
H1942 H 0.57371 0.62999 0.88304 0.0
H1943 H 0.55589 0.6116 0.87052 0.0
H1944 H 0.57663 0.61207 0.8743 0.0
H1945 H 0.53975 0.55391 0.88758 0.0
H1946 H 0.52592 0.59473 0.88537 0.0
H1947 H 0.50839 0.52432 0.8565 0.0
H1948 H 0.49717 0.51719 0.87761 0.0
H1949 H 0.52073 0.52467 0.87618 0.0
H1950 H 0.49785 0.5889 0.87513 0.0
H1951 H 0.47984 0.56581 0.87419 0.0
H1952 H 0.49283 0.57583 0.85451 0.0
H1953 H 0.47314 0.52557 0.75891 0.0
H1954 H 0.4289 0.49134 0.8033 0.0
H1955 H 0.42798 0.49194 0.83559 0.0
H1956 H 0.4703 0.52662 0.88281 0.0
H1957 H 0.51383 0.5616 0.83819 0.0
H1958 H 0.5145 0.5614 0.80604 0.0
H1959 H 0.35899 0.44656 0.88958 0.0
H1960 H 0.35624 0.42669 0.87803 0.0
H1961 H 0.36855 0.44825 0.86778 0.0
C1962 C 0.61905 0.7559 0.63273 0.0
C1963 C 0.62522 0.7494 0.61641 0.0
C1964 C 0.63065 0.77206 0.5939 0.0
C1965 C 0.61253 0.76623 0.59032 0.0
C1966 C 0.60779 0.77578 0.57879 0.0
C1967 C 0.62139 0.79148 0.57072 0.0
C1968 C 0.63961 0.79721 0.57404 0.0
C1969 C 0.64397 0.78734 0.58552 0.0
C1970 C 0.58823 0.76923 0.57536 0.0
C1971 C 0.65446 0.81389 0.56565 0.0
C1972 C 0.5953 0.87341 0.6334 0.0
C1973 C 0.60926 0.88124 0.6185 0.0
C1974 C 0.60306 0.86404 0.5906 0.0
C1975 C 0.62024 0.86758 0.58606 0.0
C1976 C 0.62249 0.85556 0.57508 0.0
C1977 C 0.60722 0.83956 0.56872 0.0
C1978 C 0.58985 0.83619 0.57296 0.0
C1979 C 0.58802 0.8487 0.58359 0.0
C1980 C 0.6412 0.8598 0.57054 0.0
C1981 C 0.57326 0.81918 0.56667 0.0
C1982 C 0.5906 0.85349 0.45476 0.0
C1983 C 0.60864 0.85908 0.4582 0.0
C1984 C 0.61332 0.84764 0.46645 0.0
C1985 C 0.59968 0.83028 0.47129 0.0
C1986 C 0.58161 0.82426 0.4668 0.0
C1987 C 0.57732 0.83594 0.45843 0.0
C1988 C 0.63278 0.85426 0.47053 0.0
C1989 C 0.56678 0.80572 0.47147 0.0
C1990 C 0.61938 0.72194 0.46328 0.0
C1991 C 0.62177 0.73154 0.4455 0.0
C1992 C 0.62597 0.76058 0.45602 0.0
C1993 C 0.63887 0.77852 0.45933 0.0
C1994 C 0.63442 0.79025 0.46788 0.0
C1995 C 0.61651 0.78383 0.47314 0.0
C1996 C 0.60322 0.7658 0.46938 0.0
C1997 C 0.60807 0.75432 0.4609 0.0
C1998 C 0.64892 0.80942 0.4716 0.0
C1999 C 0.58396 0.75864 0.47465 0.0
C2000 C 0.61657 0.80232 0.55941 0.0
C2001 C 0.61365 0.81499 0.56812 0.0
C2002 C 0.60949 0.82603 0.55842 0.0
C2003 C 0.60803 0.82432 0.53943 0.0
C2004 C 0.60395 0.83523 0.52922 0.0
C2005 C 0.60246 0.83338 0.51056 0.0
C2006 C 0.60532 0.82077 0.50133 0.0
C2007 C 0.60415 0.81902 0.48233 0.0
C2008 C 0.60749 0.80665 0.47355 0.0
C2009 C 0.61194 0.79583 0.48329 0.0
C2010 C 0.61282 0.79713 0.50233 0.0
C2011 C 0.617 0.78627 0.51255 0.0
C2012 C 0.61806 0.78781 0.53125 0.0
C2013 C 0.61517 0.8004 0.54044 0.0
C2014 C 0.61087 0.81143 0.53043 0.0
C2015 C 0.6096 0.80973 0.51135 0.0
C2016 C 0.58025 0.88762 0.45858 0.0
C2017 C 0.59399 0.88297 0.45151 0.0
O2018 O 0.63595 0.76359 0.6054 0.0
O2019 O 0.63152 0.74993 0.44832 0.0
O2020 O 0.5855 0.86468 0.44812 0.0
O2021 O 0.6007 0.87508 0.60193 0.0
H2022 H 0.61327 0.73914 0.60867 0.0
H2023 H 0.6108 0.76157 0.62835 0.0
H2024 H 0.63078 0.76642 0.64049 0.0
H2025 H 0.61074 0.74456 0.6417 0.0
H2026 H 0.60197 0.75437 0.59652 0.0
H2027 H 0.6579 0.79171 0.58827 0.0
H2028 H 0.58499 0.77924 0.58076 0.0
H2029 H 0.57924 0.75619 0.58173 0.0
H2030 H 0.58545 0.76777 0.56065 0.0
H2031 H 0.66796 0.81671 0.56981 0.0
H2032 H 0.65313 0.82556 0.56955 0.0
H2033 H 0.65333 0.81244 0.55076 0.0
H2034 H 0.61876 0.8764 0.62082 0.0
H2035 H 0.60186 0.87818 0.64683 0.0
H2036 H 0.58847 0.85857 0.63284 0.0
H2037 H 0.58502 0.8773 0.63179 0.0
H2038 H 0.63186 0.87974 0.59117 0.0
H2039 H 0.57481 0.84621 0.58709 0.0
H2040 H 0.64223 0.85774 0.55588 0.0
H2041 H 0.6442 0.85058 0.57778 0.0
H2042 H 0.65149 0.87377 0.57441 0.0
H2043 H 0.56082 0.8179 0.57238 0.0
H2044 H 0.57413 0.80738 0.57055 0.0
H2045 H 0.57226 0.81893 0.55177 0.0
H2046 H 0.60421 0.88713 0.46245 0.0
H2047 H 0.61906 0.8724 0.4546 0.0
H2048 H 0.56348 0.83165 0.45537 0.0
H2049 H 0.63497 0.85546 0.48534 0.0
H2050 H 0.64189 0.86749 0.46457 0.0
H2051 H 0.6364 0.84447 0.46529 0.0
H2052 H 0.55348 0.80283 0.46649 0.0
H2053 H 0.56619 0.80428 0.48632 0.0
H2054 H 0.56963 0.79559 0.4656 0.0
H2055 H 0.60839 0.72752 0.43969 0.0
H2056 H 0.61179 0.7072 0.46093 0.0
H2057 H 0.61177 0.7253 0.473 0.0
H2058 H 0.63263 0.72596 0.46939 0.0
H2059 H 0.6526 0.78326 0.45544 0.0
H2060 H 0.59784 0.74051 0.4583 0.0
H2061 H 0.65005 0.81232 0.48632 0.0
H2062 H 0.64531 0.81857 0.46514 0.0
H2063 H 0.66219 0.81235 0.46654 0.0
H2064 H 0.57502 0.74456 0.46996 0.0
H2065 H 0.57905 0.76707 0.46892 0.0
H2066 H 0.58308 0.75931 0.48953 0.0
H2067 H 0.61482 0.81642 0.58268 0.0
H2068 H 0.60181 0.84531 0.53555 0.0
H2069 H 0.59916 0.84209 0.50346 0.0
H2070 H 0.60685 0.80559 0.45896 0.0
H2071 H 0.61949 0.77643 0.50621 0.0
H2072 H 0.62129 0.77908 0.53841 0.0
H2073 H 0.569 0.88325 0.44883 0.0
H2074 H 0.58671 0.90228 0.46111 0.0
H2075 H 0.57466 0.88074 0.47146 0.0
C2076 C 0.12823 0.7175 0.64234 0.0
C2077 C 0.12145 0.72602 0.62905 0.0
C2078 C 0.13516 0.73707 0.60015 0.0
C2079 C 0.13087 0.75038 0.59762 0.0
C2080 C 0.14159 0.76512 0.58686 0.0
C2081 C 0.15708 0.76667 0.57872 0.0
C2082 C 0.16102 0.75286 0.58071 0.0
C2083 C 0.14977 0.73803 0.59118 0.0
C2084 C 0.13663 0.77928 0.5847 0.0
C2085 C 0.17746 0.75408 0.57234 0.0
C2086 C 0.26083 0.90534 0.62207 0.0
C2087 C 0.2539 0.88626 0.6171 0.0
C2088 C 0.2256 0.86121 0.60538 0.0
C2089 C 0.2326 0.85059 0.59943 0.0
C2090 C 0.22212 0.83505 0.58886 0.0
C2091 C 0.20443 0.83026 0.584 0.0
C2092 C 0.19731 0.84083 0.59021 0.0
C2093 C 0.20796 0.85608 0.601 0.0
C2094 C 0.22998 0.82389 0.58266 0.0
C2095 C 0.17855 0.83619 0.58521 0.0
C2096 C 0.2312 0.86858 0.46911 0.0
C2097 C 0.23604 0.85557 0.47138 0.0
C2098 C 0.22458 0.83959 0.48019 0.0
C2099 C 0.20798 0.83657 0.48682 0.0
C2100 C 0.20318 0.84973 0.48471 0.0
C2101 C 0.21495 0.86563 0.47598 0.0
C2102 C 0.23017 0.82591 0.48245 0.0
C2103 C 0.18559 0.84695 0.49161 0.0
C2104 C 0.09497 0.69822 0.46194 0.0
C2105 C 0.10176 0.71794 0.45838 0.0
C2106 C 0.13257 0.74253 0.46287 0.0
C2107 C 0.1499 0.74566 0.46536 0.0
C2108 C 0.16297 0.76104 0.47468 0.0
C2109 C 0.15857 0.77364 0.48142 0.0
C2110 C 0.14141 0.77114 0.47787 0.0
C2111 C 0.12858 0.75561 0.46859 0.0
C2112 C 0.18127 0.76352 0.47793 0.0
C2113 C 0.13649 0.78462 0.48438 0.0
C2114 C 0.16976 0.78328 0.56925 0.0
C2115 C 0.18141 0.7983 0.57981 0.0
C2116 C 0.19349 0.81453 0.57195 0.0
C2117 C 0.19435 0.81585 0.55301 0.0
C2118 C 0.20655 0.83193 0.54468 0.0
C2119 C 0.20716 0.83316 0.52603 0.0
C2120 C 0.19542 0.81844 0.51499 0.0
C2121 C 0.19565 0.81968 0.49603 0.0
C2122 C 0.18368 0.80485 0.48544 0.0
C2123 C 0.17136 0.7887 0.4933 0.0
C2124 C 0.17096 0.78716 0.51224 0.0
C2125 C 0.15867 0.77111 0.52059 0.0
C2126 C 0.15823 0.7698 0.53925 0.0
C2127 C 0.17011 0.78444 0.55027 0.0
C2128 C 0.18256 0.80077 0.54214 0.0
C2129 C 0.18302 0.8021 0.52311 0.0
C2130 C 0.2602 0.90164 0.43601 0.0
C2131 C 0.25626 0.88773 0.44953 0.0
O2132 O 0.12577 0.72354 0.61168 0.0
O2133 O 0.12002 0.7267 0.45518 0.0
O2134 O 0.24161 0.88395 0.46014 0.0
O2135 O 0.23541 0.87662 0.61512 0.0
H2136 H 0.12871 0.74055 0.63284 0.0
H2137 H 0.14311 0.7246 0.64197 0.0
H2138 H 0.12301 0.70319 0.63881 0.0
H2139 H 0.12415 0.71861 0.65627 0.0
H2140 H 0.11925 0.74934 0.60419 0.0
H2141 H 0.15282 0.72755 0.59312 0.0
H2142 H 0.14555 0.79103 0.59342 0.0
H2143 H 0.12254 0.77441 0.58864 0.0
H2144 H 0.13847 0.78377 0.57056 0.0
H2145 H 0.17924 0.74278 0.57614 0.0
H2146 H 0.1896 0.76685 0.57657 0.0
H2147 H 0.17641 0.75405 0.55746 0.0
H2148 H 0.2592 0.87931 0.62523 0.0
H2149 H 0.2669 0.90711 0.6359 0.0
H2150 H 0.24907 0.90633 0.62705 0.0
H2151 H 0.27611 0.91945 0.59952 0.0
H2152 H 0.2462 0.85436 0.60299 0.0
H2153 H 0.20271 0.86437 0.60573 0.0
H2154 H 0.22096 0.80973 0.58636 0.0
H2155 H 0.24348 0.82872 0.58859 0.0
H2156 H 0.23108 0.82424 0.56777 0.0
H2157 H 0.17532 0.84627 0.59045 0.0
H2158 H 0.16876 0.82297 0.59071 0.0
H2159 H 0.17688 0.83514 0.57033 0.0
H2160 H 0.26798 0.8895 0.45743 0.0
H2161 H 0.24872 0.85783 0.46633 0.0
H2162 H 0.21138 0.87577 0.4742 0.0
H2163 H 0.22988 0.82281 0.49691 0.0
H2164 H 0.24383 0.83056 0.4772 0.0
H2165 H 0.22051 0.81329 0.47522 0.0
H2166 H 0.18346 0.8581 0.48809 0.0
H2167 H 0.18522 0.84583 0.50648 0.0
H2168 H 0.17433 0.83424 0.48594 0.0
H2169 H 0.09895 0.72328 0.47094 0.0
H2170 H 0.08024 0.69082 0.46404 0.0
H2171 H 0.10152 0.69713 0.47429 0.0
H2172 H 0.09812 0.69182 0.45056 0.0
H2173 H 0.15295 0.73566 0.46057 0.0
H2174 H 0.11543 0.75366 0.46599 0.0
H2175 H 0.18352 0.76335 0.49262 0.0
H2176 H 0.19177 0.77676 0.47301 0.0
H2177 H 0.18285 0.75291 0.47114 0.0
H2178 H 0.12306 0.78136 0.47945 0.0
H2179 H 0.14662 0.79818 0.47983 0.0
H2180 H 0.13653 0.78506 0.49933 0.0
H2181 H 0.18087 0.79743 0.59437 0.0
H2182 H 0.2158 0.84376 0.55248 0.0
H2183 H 0.21689 0.84586 0.52038 0.0
H2184 H 0.18382 0.80594 0.4709 0.0
H2185 H 0.14921 0.75937 0.51281 0.0
H2186 H 0.14842 0.75716 0.54492 0.0
H2187 H 0.27385 0.91316 0.43996 0.0
H2188 H 0.25291 0.9087 0.44041 0.0
H2189 H 0.25506 0.88767 0.411 0.0
C2190 C 0.1004 0.36041 0.62139 0.0
C2191 C 0.11884 0.3718 0.61431 0.0
C2192 C 0.14177 0.36792 0.59911 0.0
C2193 C 0.1528 0.38593 0.59441 0.0
C2194 C 0.16807 0.39127 0.58378 0.0
C2195 C 0.17222 0.37832 0.57754 0.0
C2196 C 0.16099 0.36017 0.58208 0.0
C2197 C 0.14602 0.35527 0.59296 0.0
C2198 C 0.17984 0.41074 0.57927 0.0
C2199 C 0.16486 0.34595 0.57557 0.0
C2200 C 0.27483 0.40235 0.64578 0.0
C2201 C 0.26924 0.3892 0.62972 0.0
C2202 C 0.26187 0.39656 0.60101 0.0
C2203 C 0.24857 0.3795 0.59489 0.0
C2204 C 0.23517 0.37741 0.58287 0.0
C2205 C 0.23496 0.39272 0.57707 0.0
C2206 C 0.2489 0.40999 0.58254 0.0
C2207 C 0.26238 0.41169 0.59428 0.0
C2208 C 0.22089 0.3588 0.5769 0.0
C2209 C 0.24917 0.42659 0.57651 0.0
C2210 C 0.2651 0.39717 0.4624 0.0
C2211 C 0.251 0.38015 0.46699 0.0
C2212 C 0.23566 0.37813 0.47554 0.0
C2213 C 0.23433 0.39341 0.47942 0.0
C2214 C 0.24804 0.41044 0.47385 0.0
C2215 C 0.26323 0.41207 0.46527 0.0
C2216 C 0.22102 0.35969 0.48079 0.0
C2217 C 0.24687 0.42694 0.47749 0.0
C2218 C 0.10998 0.3834 0.46377 0.0
C2219 C 0.11788 0.37863 0.44762 0.0
C2220 C 0.1404 0.37306 0.46151 0.0
C2221 C 0.14378 0.35956 0.46613 0.0
C2222 C 0.1595 0.3635 0.47534 0.0
C2223 C 0.1722 0.38148 0.48003 0.0
C2224 C 0.16906 0.39531 0.47518 0.0
C2225 C 0.15316 0.39097 0.46597 0.0
C2226 C 0.16242 0.34842 0.48029 0.0
C2227 C 0.1824 0.41461 0.47996 0.0
C2228 C 0.18856 0.38372 0.56671 0.0
C2229 C 0.20401 0.38683 0.57577 0.0
C2230 C 0.21949 0.39054 0.56641 0.0
C2231 C 0.21968 0.39128 0.54742 0.0
C2232 C 0.23487 0.39455 0.53755 0.0
C2233 C 0.23478 0.39486 0.51883 0.0
C2234 C 0.21949 0.39188 0.50925 0.0
C2235 C 0.21909 0.39164 0.49019 0.0
C2236 C 0.20371 0.38871 0.48109 0.0
C2237 C 0.18847 0.38568 0.49052 0.0
C2238 C 0.18853 0.38564 0.50957 0.0
C2239 C 0.17329 0.38226 0.51945 0.0
C2240 C 0.17328 0.38168 0.53816 0.0
C2241 C 0.18856 0.38466 0.54772 0.0
C2242 C 0.20416 0.38838 0.53805 0.0
C2243 C 0.20411 0.38877 0.51895 0.0
C2244 C 0.30765 0.40304 0.46733 0.0
C2245 C 0.28888 0.39013 0.45967 0.0
O2246 O 0.12699 0.36216 0.60951 0.0
O2247 O 0.12464 0.36802 0.45297 0.0
O2248 O 0.28066 0.3997 0.45533 0.0
O2249 O 0.27389 0.39866 0.61389 0.0
H2250 H 0.12771 0.3842 0.6224 0.0
H2251 H 0.0991 0.3473 0.62514 0.0
H2252 H 0.08385 0.36225 0.60178 0.0
H2253 H 0.10118 0.36517 0.63576 0.0
H2254 H 0.14968 0.39587 0.59914 0.0
H2255 H 0.13742 0.34143 0.59664 0.0
H2256 H 0.19377 0.41568 0.58397 0.0
H2257 H 0.17505 0.41925 0.5855 0.0
H2258 H 0.18022 0.41223 0.56445 0.0
H2259 H 0.15385 0.33225 0.5787 0.0
H2260 H 0.17735 0.34821 0.58211 0.0
H2261 H 0.16703 0.34681 0.5608 0.0
H2262 H 0.25439 0.38047 0.63068 0.0
H2263 H 0.27175 0.39507 0.65863 0.0
H2264 H 0.26729 0.40952 0.64537 0.0
H2265 H 0.28937 0.41247 0.64544 0.0
H2266 H 0.24855 0.36782 0.59976 0.0
H2267 H 0.27287 0.42481 0.59895 0.0
H2268 H 0.21816 0.35829 0.56224 0.0
H2269 H 0.2083 0.35509 0.58412 0.0
H2270 H 0.22473 0.34871 0.57987 0.0
H2271 H 0.26088 0.43904 0.58208 0.0
H2272 H 0.23669 0.42615 0.58083 0.0
H2273 H 0.24958 0.42709 0.56159 0.0
H2274 H 0.28164 0.38063 0.47068 0.0
H2275 H 0.25199 0.36845 0.46399 0.0
H2276 H 0.27402 0.4251 0.46135 0.0
H2277 H 0.2198 0.35911 0.49567 0.0
H2278 H 0.22364 0.34906 0.47599 0.0
H2279 H 0.20798 0.35689 0.47515 0.0
H2280 H 0.25837 0.43913 0.47179 0.0
H2281 H 0.24653 0.42905 0.49225 0.0
H2282 H 0.23423 0.42506 0.47165 0.0
H2283 H 0.12874 0.3911 0.44159 0.0
H2284 H 0.10447 0.39182 0.45947 0.0
H2285 H 0.12049 0.39107 0.47415 0.0
H2286 H 0.09911 0.37108 0.46996 0.0
H2287 H 0.13389 0.34581 0.4626 0.0
H2288 H 0.1508 0.40162 0.46248 0.0
H2289 H 0.16369 0.3482 0.49513 0.0
H2290 H 0.17513 0.35065 0.47435 0.0
H2291 H 0.15129 0.33516 0.47552 0.0
H2292 H 0.17824 0.42388 0.47485 0.0
H2293 H 0.1957 0.41839 0.4743 0.0
H2294 H 0.18401 0.41634 0.49482 0.0
H2295 H 0.20387 0.38595 0.59033 0.0
H2296 H 0.24696 0.3968 0.5442 0.0
H2297 H 0.24685 0.39739 0.51197 0.0
H2298 H 0.20343 0.38834 0.46648 0.0
H2299 H 0.16113 0.37985 0.51283 0.0
H2300 H 0.16112 0.37885 0.54503 0.0
H2301 H 0.31572 0.41394 0.45784 0.0
H2302 H 0.31476 0.39575 0.47021 0.0
H2303 H 0.30653 0.40924 0.48012 0.0
H2304 H 0.99401 0.36283 0.06543 0.0
H2305 H 0.03819 0.40519 0.03681 0.0
H2306 H 0.04018 0.42713 0.05907 0.0
H2307 H 0.02967 0.43436 0.0869 0.0
H2308 H 0.98587 0.39217 0.11588 0.0
H2309 H 0.98345 0.37013 0.09332 0.0
C2310 C 0.00406 0.37686 0.06407 0.0
C2311 C 0.01593 0.38233 0.04949 0.0
C2312 C 0.00518 0.38947 0.07698 0.0
C2313 C 0.0289 0.40058 0.04793 0.0
C2314 C 0.03005 0.41317 0.06065 0.0
C2315 C 0.0195 0.42036 0.08815 0.0
C2316 C 0.00777 0.41493 0.10284 0.0
C2317 C 0.01829 0.40777 0.07523 0.0
C2318 C 0.99487 0.3967 0.10452 0.0
C2319 C 0.99352 0.38409 0.09167 0.0
H2320 H 0.65106 0.61453 0.05956 0.0
H2321 H 0.59892 0.58684 0.03398 0.0
H2322 H 0.58891 0.56231 0.05488 0.0
H2323 H 0.59418 0.54976 0.08161 0.0
H2324 H 0.64585 0.57811 0.1084 0.0
H2325 H 0.65675 0.60106 0.08585 0.0
C2326 C 0.63762 0.60298 0.05844 0.0
C2327 C 0.62572 0.60248 0.04531 0.0
C2328 C 0.63174 0.58912 0.07088 0.0
C2329 C 0.60827 0.58755 0.04407 0.0
C2330 C 0.60253 0.57354 0.05602 0.0
C2331 C 0.60781 0.56102 0.08264 0.0
C2332 C 0.61874 0.56236 0.09726 0.0
C2333 C 0.61401 0.57439 0.06973 0.0
C2334 C 0.63667 0.57674 0.09783 0.0
C2335 C 0.64305 0.58997 0.0848 0.0
H2336 H 0.37258 0.97676 0.04813 0.0
H2337 H 0.37711 0.0284 0.05454 0.0
H2338 H 0.39567 0.03462 0.08153 0.0
H2339 H 0.41139 0.0257 0.10274 0.0
H2340 H 0.40597 0.9737 0.09651 0.0
H2341 H 0.38694 0.96731 0.06997 0.0
C2342 C 0.3776 0.9894 0.0554 0.0
C2343 C 0.37358 0.00216 0.0492 0.0
C2344 C 0.3882 0.99286 0.07086 0.0
C2345 C 0.38003 0.01835 0.05896 0.0
C2346 C 0.39068 0.02193 0.07437 0.0
C2347 C 0.40609 0.01302 0.09548 0.0
C2348 C 0.41058 0.00046 0.10122 0.0
C2349 C 0.39499 0.00935 0.08033 0.0
C2350 C 0.40316 0.98382 0.09208 0.0
C2351 C 0.39221 0.98012 0.07695 0.0
H2352 H 0.35761 0.98229 0.94426 0.0
H2353 H 0.39868 0.03376 0.96542 0.0
H2354 H 0.41873 0.03606 0.94125 0.0
H2355 H 0.42474 0.02349 0.91408 0.0
H2356 H 0.3839 0.97204 0.89288 0.0
H2357 H 0.36361 0.96976 0.91696 0.0
C2358 C 0.37094 0.994 0.94357 0.0
C2359 C 0.37662 0.0078 0.95665 0.0
C2360 C 0.38248 0.99524 0.92964 0.0
C2361 C 0.39395 0.02291 0.95555 0.0
C2362 C 0.40545 0.02426 0.94173 0.0
C2363 C 0.41145 0.01172 0.91486 0.0
C2364 C 0.40596 -0.00223 0.90198 0.0
C2365 C 0.39989 0.01049 0.92873 0.0
C2366 C 0.38854 0.9828 0.90285 0.0
C2367 C 0.37693 0.98151 0.91658 0.0
H2368 H 0.97659 0.37029 0.96438 0.0
H2369 H 0.02671 0.37386 0.9508 0.0
H2370 H 0.02757 0.38849 0.92265 0.0
H2371 H 0.01376 0.40003 0.90181 0.0
H2372 H 0.96295 0.39483 0.91553 0.0
H2373 H 0.96279 0.38116 0.94381 0.0
C2374 C 0.98778 0.37428 0.95534 0.0
C2375 C 0.00159 0.37101 0.95975 0.0
C2376 C 0.98811 0.3825 0.93924 0.0
C2377 C 0.01589 0.37621 0.94775 0.0
C2378 C 0.0164 0.38459 0.93167 0.0
C2379 C 0.00277 0.39604 0.91112 0.0
C2380 C 0.98868 0.39894 0.90679 0.0
C2381 C 0.00255 0.38779 0.92728 0.0
C2382 C 0.97422 0.39322 0.9187 0.0
C2383 C 0.97405 0.38529 0.93485 0.0
H2384 H 0.62394 0.62018 0.94965 0.0
H2385 H 0.60929 0.65613 0.97462 0.0
H2386 H 0.58585 0.6477 0.95199 0.0
H2387 H 0.56903 0.62965 0.92547 0.0
H2388 H 0.58391 0.59411 0.90009 0.0
H2389 H 0.6078 0.60291 0.92243 0.0
C2390 C 0.61562 0.62617 0.95011 0.0
C2391 C 0.61829 0.63868 0.96383 0.0
C2392 C 0.60217 0.6213 0.93702 0.0
C2393 C 0.60751 0.64645 0.96419 0.0
C2394 C 0.59407 0.64163 0.95127 0.0
C2395 C 0.57748 0.6238 0.92491 0.0
C2396 C 0.57443 0.61092 0.91148 0.0
C2397 C 0.59121 0.62899 0.93771 0.0
C2398 C 0.58576 0.60376 0.91058 0.0
C2399 C 0.59943 0.60882 0.9233 0.0
H2400 H 0.9794 0.61233 0.95166 0.0
H2401 H 0.03266 0.64694 0.9733 0.0
H2402 H 0.04501 0.63597 0.95016 0.0
H2403 H 0.04062 0.61662 0.92371 0.0
H2404 H 0.98757 0.58361 0.90099 0.0
H2405 H 0.97512 0.59355 0.92492 0.0
C2406 C 0.99371 0.61746 0.95135 0.0
C2407 C 0.00509 0.63041 0.9642 0.0
C2408 C 0.00074 0.61133 0.93786 0.0
C2409 C 0.02362 0.63702 0.96351 0.0
C2410 C 0.03068 0.63072 0.95032 0.0
C2411 C 0.02638 0.61177 0.92386 0.0
C2412 C 0.01509 0.59968 0.91033 0.0
C2413 C 0.01937 0.61792 0.93738 0.0
C2414 C 0.99657 0.59311 0.91108 0.0
C2415 C 0.98945 0.5988 0.92475 0.0
H2416 H 0.38177 0.39281 0.94937 0.0
H2417 H 0.33352 0.39256 0.96417 0.0
H2418 H 0.33873 0.4138 0.94062 0.0
H2419 H 0.35655 0.43186 0.91546 0.0
H2420 H 0.40396 0.43097 0.89952 0.0
H2421 H 0.39981 0.41122 0.92427 0.0
C2422 C 0.37243 0.39745 0.94748 0.0
C2423 C 0.35726 0.39106 0.95849 0.0
C2424 C 0.37538 0.40952 0.93375 0.0
C2425 C 0.3453 0.39724 0.95589 0.0
C2426 C 0.34827 0.4094 0.94241 0.0
C2427 C 0.36589 0.42723 0.91715 0.0
C2428 C 0.38025 0.43248 0.90515 0.0
C2429 C 0.36318 0.41551 0.93116 0.0
C2430 C 0.39256 0.42682 0.90825 0.0
C2431 C 0.39019 0.41551 0.9224 0.0
H2432 H 0.6107 0.97373 0.96359 0.0
H2433 H 0.64314 0.02844 0.94701 0.0
H2434 H 0.62468 0.02174 0.91998 0.0
H2435 H 0.59919 0.0005 0.90115 0.0
H2436 H 0.5653 0.94629 0.91848 0.0
H2437 H 0.58433 0.9526 0.94512 0.0
C2438 C 0.61376 0.9841 0.95396 0.0
C2439 C 0.6283 0.0015 0.95721 0.0
C2440 C 0.60279 0.98027 0.93862 0.0
C2441 C 0.63198 0.01493 0.9448 0.0
C2442 C 0.62145 0.01113 0.92935 0.0
C2443 C 0.596 0.99006 0.91075 0.0
C2444 C 0.5811 0.97286 0.90765 0.0
C2445 C 0.60678 0.99388 0.92616 0.0
C2446 C 0.57691 0.95956 0.92039 0.0
C2447 C 0.58776 0.96317 0.93563 0.0
H2448 H 0.65364 0.03693 0.05966 0.0
H2449 H 0.6079 0.98466 0.04747 0.0
H2450 H 0.5924 0.98713 0.07374 0.0
H2451 H 0.59196 0.00375 0.10057 0.0
H2452 H 0.63708 0.05652 0.11221 0.0
H2453 H 0.65258 0.05419 0.08589 0.0
C2454 C 0.64028 0.0261 0.06275 0.0
C2455 C 0.63203 0.0106 0.05167 0.0
C2456 C 0.63134 0.02761 0.07789 0.0
C2457 C 0.61463 0.99673 0.05579 0.0
C2458 C 0.60573 -0.00189 0.07084 0.0
C2459 C 0.60525 0.01469 0.0974 0.0
C2460 C 0.61354 0.02992 0.10882 0.0
C2461 C 0.61401 0.01341 0.08205 0.0
C2462 C 0.63051 0.04431 0.10414 0.0
C2463 C 0.6394 0.04306 0.08896 0.0
H2464 H -0.00142 0.61969 0.05311 0.0
H2465 H 0.95314 0.62709 0.05691 0.0
H2466 H 0.94091 0.60565 0.0812 0.0
H2467 H 0.94332 0.58524 0.10142 0.0
H2468 H 0.98882 0.57777 0.09766 0.0
H2469 H 0.00066 0.5987 0.07305 0.0
C2470 C 0.986 0.61662 0.05926 0.0
C2471 C 0.97681 0.62502 0.05325 0.0
C2472 C 0.97902 0.60424 0.07316 0.0
C2473 C 0.96047 0.6208 0.06127 0.0
C2474 C 0.95347 0.60854 0.07517 0.0
C2475 C 0.95584 0.58806 0.0954 0.0
C2476 C 0.96525 0.57992 0.10173 0.0
C2477 C 0.96266 0.60022 0.08126 0.0
C2478 C 0.98135 0.58389 0.09327 0.0
C2479 C 0.98816 0.59588 0.07916 0.0
H2480 H 0.39585 0.36355 0.03396 0.0
H2481 H 0.37575 0.39277 0.06364 0.0
H2482 H 0.39603 0.3976 0.08865 0.0
H2483 H 0.41834 0.3922 0.10276 0.0
H2484 H 0.43969 0.36444 0.07265 0.0
H2485 H 0.42012 0.36042 0.04712 0.0
C2486 C 0.39596 0.37103 0.04588 0.0
C2487 C 0.38417 0.37763 0.047 0.0
C2488 C 0.40781 0.37394 0.06017 0.0
C2489 C 0.38467 0.38752 0.06242 0.0
C2490 C 0.39623 0.39026 0.07677 0.0
C2491 C 0.41877 0.38535 0.09057 0.0
C2492 C 0.43009 0.37822 0.08977 0.0
C2493 C 0.40768 0.38333 0.07588 0.0
C2494 C 0.43078 0.3697 0.07374 0.0
C2495 C 0.41963 0.36743 0.05914 0.0
H2496 H 0.67298 0.71696 0.39595 0.0
H2497 H 0.62186 0.67584 0.37431 0.0
H2498 H 0.60635 0.68499 0.39546 0.0
H2499 H 0.60722 0.70485 0.41994 0.0
H2500 H 0.65818 0.74548 0.44215 0.0
H2501 H 0.67381 0.73635 0.421 0.0
C2502 C 0.65845 0.70999 0.39589 0.0
C2503 C 0.64861 0.69578 0.38354 0.0
C2504 C 0.64957 0.7153 0.40813 0.0
C2505 C 0.62978 0.68683 0.38369 0.0
C2506 C 0.62087 0.69207 0.39575 0.0
C2507 C 0.62175 0.71178 0.42002 0.0
C2508 C 0.63153 0.72614 0.43222 0.0
C2509 C 0.63063 0.70633 0.40797 0.0
C2510 C 0.65036 0.73468 0.43256 0.0
C2511 C 0.65929 0.72941 0.42054 0.0
H2512 H 0.25961 0.93133 0.39149 0.0
H2513 H 0.31396 0.94134 0.38944 0.0
H2514 H 0.3077 0.91578 0.40719 0.0
H2515 H 0.28481 0.88512 0.42842 0.0
H2516 H 0.21956 0.87135 0.42939 0.0
H2517 H 0.23067 0.90229 0.40728 0.0
C2518 C 0.26932 0.92766 0.39534 0.0
C2519 C 0.28729 0.93768 0.38959 0.0
C2520 C 0.2635 0.91257 0.40548 0.0
C2521 C 0.30036 0.9331 0.39415 0.0
C2522 C 0.297 0.91835 0.40439 0.0
C2523 C 0.27454 0.88767 0.42375 0.0
C2524 C 0.25181 0.87686 0.43394 0.0
C2525 C 0.28004 0.90701 0.41079 0.0
C2526 C 0.23312 0.87901 0.42446 0.0
C2527 C 0.24034 0.89873 0.41149 0.0
H2528 H 0.0553 0.32602 0.39399 0.0
H2529 H 0.06866 0.37614 0.37008 0.0
H2530 H 0.09176 0.39245 0.39314 0.0
H2531 H 0.10858 0.39242 0.41984 0.0
H2532 H 0.09403 0.34228 0.4444 0.0
H2533 H 0.07099 0.32607 0.42137 0.0
C2534 C 0.06326 0.34052 0.39381 0.0
C2535 C 0.06033 0.34983 0.38027 0.0
C2536 C 0.07639 0.34981 0.40718 0.0
C2537 C 0.07062 0.36863 0.38037 0.0
C2538 C 0.08387 0.37798 0.39352 0.0
C2539 C 0.10041 0.37794 0.42004 0.0
C2540 C 0.10343 0.36855 0.43343 0.0
C2541 C 0.08695 0.36869 0.40692 0.0
C2542 C 0.09236 0.34981 0.43392 0.0
C2543 C 0.07912 0.34053 0.42081 0.0
H2544 H 0.0693 0.33036 0.30018 0.0
H2545 H 0.01439 0.28967 0.28733 0.0
H2546 H 0.02233 0.27149 0.26883 0.0
H2547 H 0.04757 0.26418 0.2513 0.0
H2548 H 0.11305 0.31085 0.26806 0.0
H2549 H 0.0997 0.32941 0.29001 0.0
C2550 C 0.05998 0.31803 0.29311 0.0
C2551 C 0.0413 0.31076 0.29451 0.0
C2552 C 0.06678 0.30922 0.28326 0.0
C2553 C 0.02854 0.29444 0.28576 0.0
C2554 C 0.03287 0.28376 0.27504 0.0
C2555 C 0.05723 0.27571 0.25919 0.0
C2556 C 0.08174 0.28721 0.25476 0.0
C2557 C 0.05054 0.28876 0.2725 0.0
C2558 C 0.09882 0.30544 0.26975 0.0
C2559 C 0.09043 0.31731 0.28262 0.0
H2560 H 0.67199 0.73757 0.30274 0.0
H2561 H 0.71403 0.72453 0.30111 0.0
H2562 H 0.73458 0.75062 0.28419 0.0
H2563 H 0.7441 0.78261 0.26458 0.0
H2564 H 0.69518 0.7995 0.26813 0.0
H2565 H 0.67409 0.76799 0.28933 0.0
C2566 C 0.68518 0.74074 0.29838 0.0
C2567 C 0.69207 0.72962 0.3027 0.0
C2568 C 0.69521 0.75619 0.28888 0.0
C2569 C 0.70949 0.73358 0.29745 0.0
C2570 C 0.72157 0.74862 0.28766 0.0
C2571 C 0.73159 0.78051 0.26996 0.0
C2572 C 0.72059 0.79263 0.26137 0.0
C2573 C 0.71695 0.7609 0.28249 0.0
C2574 C 0.70045 0.79116 0.27211 0.0
C2575 C 0.68712 0.77112 0.28451 0.0
H2576 H 0.2823 0.95087 0.29075 0.0
H2577 H 0.27078 0.98908 0.3157 0.0
H2578 H 0.24771 0.98211 0.29282 0.0
H2579 H 0.23038 0.96457 0.266 0.0
H2580 H 0.24333 0.92762 0.24042 0.0
H2581 H 0.26631 0.93473 0.26321 0.0
C2582 C 0.27473 0.95766 0.29118 0.0
C2583 C 0.2781 0.97034 0.30494 0.0
C2584 C 0.2617 0.95375 0.27791 0.0
C2585 C 0.26839 0.97925 0.30521 0.0
C2586 C 0.25519 0.97524 0.29217 0.0
C2587 C 0.23821 0.95804 0.26552 0.0
C2588 C 0.23472 0.94514 0.25193 0.0
C2589 C 0.25165 0.96242 0.27852 0.0
C2590 C 0.24535 0.93719 0.25106 0.0
C2591 C 0.25856 0.94131 0.26404 0.0
H2592 H 0.67054 0.93996 0.28541 0.0
H2593 H 0.71559 0.97419 0.31997 0.0
H2594 H 0.73625 0.9749 0.29691 0.0
H2595 H 0.7413 0.9665 0.26644 0.0
H2596 H 0.69598 0.93561 0.23083 0.0
H2597 H 0.67556 0.93249 0.25493 0.0
C2598 C 0.68488 0.94741 0.28797 0.0
C2599 C 0.69158 0.95684 0.30439 0.0
C2600 C 0.69658 0.94833 0.27445 0.0
C2601 C 0.71018 0.96678 0.30742 0.0
C2602 C 0.72195 0.96718 0.29425 0.0
C2603 C 0.72697 0.95922 0.26391 0.0
C2604 C 0.7202 0.9514 0.24677 0.0
C2605 C 0.71529 0.95817 0.27761 0.0
C2606 C 0.70156 0.94174 0.24386 0.0
C2607 C 0.68986 0.94 0.25762 0.0
H2608 H 0.01996 0.73876 0.29825 0.0
H2609 H 0.06135 0.72764 0.28281 0.0
H2610 H 0.06862 0.74694 0.25692 0.0
H2611 H 0.06217 0.7657 0.23775 0.0
H2612 H 0.02191 0.77811 0.25399 0.0
H2613 H 0.01528 0.75963 0.28042 0.0
C2614 C 0.03062 0.74061 0.28926 0.0
C2615 C 0.03994 0.73159 0.29234 0.0
C2616 C 0.03481 0.75182 0.27442 0.0
C2617 C 0.05388 0.73434 0.2807 0.0
C2618 C 0.05803 0.74535 0.26586 0.0
C2619 C 0.05193 0.76433 0.24706 0.0
C2620 C 0.04202 0.77264 0.24341 0.0
C2621 C 0.0484 0.75393 0.26243 0.0
C2622 C 0.02927 0.77131 0.25601 0.0
C2623 C 0.02553 0.76081 0.27123 0.0
H2624 H 0.27741 0.29353 0.29971 0.0
H2625 H 0.27266 0.33987 0.29064 0.0
H2626 H 0.25169 0.32411 0.26589 0.0
H2627 H 0.23616 0.29796 0.24569 0.0
H2628 H 0.24058 0.25145 0.25491 0.0
H2629 H 0.26012 0.26652 0.28063 0.0
C2630 C 0.2717 0.30016 0.29243 0.0
C2631 C 0.2768 0.31796 0.29696 0.0
C2632 C 0.25969 0.29106 0.27807 0.0
C2633 C 0.26915 0.32626 0.28738 0.0
C2634 C 0.25714 0.31725 0.27319 0.0
C2635 C 0.24133 0.29107 0.25331 0.0
C2636 C 0.23715 0.27376 0.24783 0.0
C2637 C 0.25257 0.29978 0.26822 0.0
C2638 C 0.24372 0.2649 0.25827 0.0
C2639 C 0.25494 0.27352 0.27314 0.0
H2640 H 0.28894 0.33706 0.39973 0.0
H2641 H 0.32398 0.38711 0.37404 0.0
H2642 H 0.31926 0.40343 0.39849 0.0
H2643 H 0.30623 0.4036 0.42782 0.0
H2644 H 0.27292 0.3538 0.45458 0.0
H2645 H 0.27558 0.33724 0.42894 0.0
C2646 C 0.29543 0.35153 0.39943 0.0
C2647 C 0.30682 0.36087 0.38513 0.0
C2648 C 0.29297 0.36087 0.41375 0.0
C2649 C 0.31523 0.37962 0.38496 0.0
C2650 C 0.31252 0.38896 0.39893 0.0
C2651 C 0.29962 0.38913 0.42805 0.0
C2652 C 0.28967 0.37996 0.44322 0.0
C2653 C 0.30162 0.37975 0.4135 0.0
C2654 C 0.28083 0.36117 0.44315 0.0
C2655 C 0.28237 0.3517 0.42852 0.0
H2656 H 0.61709 0.9225 0.377 0.0
H2657 H 0.66786 0.95207 0.40508 0.0
H2658 H 0.655 0.93316 0.43125 0.0
H2659 H 0.62886 0.90924 0.44673 0.0
H2660 H 0.57839 0.87914 0.41831 0.0
H2661 H 0.59161 0.89719 0.39164 0.0
C2662 C 0.62536 0.92475 0.38882 0.0
C2663 C 0.64334 0.93876 0.38918 0.0
C2664 C 0.61792 0.91377 0.40376 0.0
C2665 C 0.65396 0.94138 0.40449 0.0
C2666 C 0.64661 0.93061 0.41948 0.0
C2667 C 0.62082 0.90656 0.43464 0.0
C2668 C 0.60264 0.89304 0.43453 0.0
C2669 C 0.62854 0.91692 0.41935 0.0
C2670 C 0.59239 0.88959 0.41873 0.0
C2671 C 0.59993 0.89991 0.40351 0.0
H2672 H 0.05263 0.72697 0.40151 0.0
H2673 H 0.07155 0.69933 0.3675 0.0
H2674 H 0.09093 0.70029 0.39183 0.0
H2675 H 0.10129 0.70754 0.42326 0.0
H2676 H 0.08055 0.73292 0.45805 0.0
H2677 H 0.06333 0.73457 0.43291 0.0
C2678 C 0.06115 0.72134 0.39938 0.0
C2679 C 0.06066 0.71309 0.38275 0.0
C2680 C 0.07188 0.72148 0.4136 0.0
C2681 C 0.07162 0.70567 0.38023 0.0
C2682 C 0.08271 0.70622 0.39412 0.0
C2683 C 0.09298 0.71341 0.42531 0.0
C2684 C 0.09201 0.7199 0.44251 0.0
C2685 C 0.08273 0.71383 0.41095 0.0
C2686 C 0.0814 0.72771 0.44495 0.0
C2687 C 0.07155 0.72864 0.4306 0.0
H2688 H 0.33418 0.05069 0.72637 0.0
H2689 H 0.28279 0.00931 0.70564 0.0
H2690 H 0.26758 0.01819 0.72759 0.0
H2691 H 0.26894 0.03816 0.75237 0.0
H2692 H 0.32042 0.07857 0.77383 0.0
H2693 H 0.33553 0.0696 0.75195 0.0
C2694 C 0.31965 0.04363 0.72665 0.0
C2695 C 0.30963 0.02947 0.71434 0.0
C2696 C 0.31102 0.04869 0.73939 0.0
C2697 C 0.29081 0.02027 0.71499 0.0
C2698 C 0.2821 0.02536 0.72751 0.0
C2699 C 0.28346 0.04504 0.75214 0.0
C2700 C 0.29354 0.05939 0.76427 0.0
C2701 C 0.29208 0.03963 0.7397 0.0
C2702 C 0.31236 0.06783 0.76427 0.0
C2703 C 0.32101 0.06266 0.75183 0.0
H2704 H 0.93939 0.25046 0.70087 0.0
H2705 H 0.99631 0.28186 0.71154 0.0
H2706 H 0.99298 0.26236 0.73638 0.0
H2707 H 0.97365 0.23768 0.75607 0.0
H2708 H 0.91668 0.20622 0.74501 0.0
H2709 H 0.92045 0.22455 0.71914 0.0
C2710 C 0.95112 0.25302 0.70855 0.0
C2711 C 0.96804 0.26773 0.70446 0.0
C2712 C 0.9491 0.24187 0.72284 0.0
C2713 C 0.98311 0.27065 0.71439 0.0
C2714 C 0.9812 0.25955 0.72866 0.0
C2715 C 0.96194 0.23475 0.7482 0.0
C2716 C 0.94468 0.22089 0.75312 0.0
C2717 C 0.96419 0.24532 0.73323 0.0
C2718 C 0.93001 0.21713 0.74199 0.0
C2719 C 0.93214 0.22756 0.72713 0.0
H2720 H 0.73709 0.67152 0.71038 0.0
H2721 H 0.72058 0.71097 0.71192 0.0
H2722 H 0.74412 0.73113 0.73276 0.0
H2723 H 0.77409 0.74077 0.7567 0.0
H2724 H 0.79511 0.69499 0.75349 0.0
H2725 H 0.76661 0.67439 0.72762 0.0
C2726 C 0.73895 0.68409 0.71557 0.0
C2727 C 0.72749 0.6903 0.71015 0.0
C2728 C 0.75305 0.69397 0.72734 0.0
C2729 C 0.72979 0.70691 0.71652 0.0
C2730 C 0.74334 0.71875 0.72857 0.0
C2731 C 0.7734 0.72902 0.75061 0.0
C2732 C 0.78558 0.7185 0.76028 0.0
C2733 C 0.75569 0.71469 0.7351 0.0
C2734 C 0.78664 0.69984 0.74868 0.0
C2735 C 0.76839 0.68675 0.7333 0.0
H2736 H 0.68725 0.62688 0.62683 0.0
H2737 H 0.72213 0.6824 0.61392 0.0
H2738 H 0.73493 0.67373 0.58921 0.0
H2739 H 0.73621 0.65038 0.57125 0.0
H2740 H 0.70184 0.59493 0.5845 0.0
H2741 H 0.68872 0.60355 0.60902 0.0
C2742 C 0.69763 0.63708 0.61859 0.0
C2743 C 0.70371 0.65525 0.6222 0.0
C2744 C 0.70505 0.63201 0.6045 0.0
C2745 C 0.71723 0.66832 0.61145 0.0
C2746 C 0.72455 0.66337 0.59731 0.0
C2747 C 0.726 0.64021 0.57964 0.0
C2748 C 0.7203 0.62207 0.57636 0.0
C2749 C 0.7186 0.64527 0.59375 0.0
C2750 C 0.70668 0.609 0.58701 0.0
C2751 C 0.69915 0.61391 0.60098 0.0
H2752 H 0.37194 0.06368 0.63308 0.0
H2753 H 0.31839 0.04834 0.61568 0.0
H2754 H 0.33052 0.07024 0.59203 0.0
H2755 H 0.3561 0.09374 0.57622 0.0
H2756 H 0.40983 0.11041 0.59379 0.0
H2757 H 0.39787 0.08782 0.61722 0.0
C2758 C 0.36295 0.06512 0.62409 0.0
C2759 C 0.34427 0.05436 0.62622 0.0
C2760 C 0.37002 0.07798 0.61053 0.0
C2761 C 0.33281 0.05647 0.61447 0.0
C2762 C 0.33973 0.06898 0.60087 0.0
C2763 C 0.36522 0.09262 0.58532 0.0
C2764 C 0.38383 0.10408 0.58359 0.0
C2765 C 0.35828 0.07985 0.59883 0.0
C2766 C 0.39544 0.102 0.59513 0.0
C2767 C 0.38861 0.08907 0.60847 0.0
H2768 H 0.94197 0.31003 0.62586 0.0
H2769 H 0.9613 0.27639 0.60481 0.0
H2770 H 0.93819 0.26491 0.58114 0.0
H2771 H 0.91239 0.26447 0.56659 0.0
H2772 H 0.89335 0.29818 0.5881 0.0
H2773 H 0.91658 0.3097 0.61148 0.0
C2774 C 0.94118 0.3002 0.61609 0.0
C2775 C 0.95331 0.29405 0.61709 0.0
C2776 C 0.92789 0.29365 0.60267 0.0
C2777 C 0.95209 0.28131 0.60433 0.0
C2778 C 0.93889 0.27475 0.59082 0.0
C2779 C 0.91328 0.27423 0.57651 0.0
C2780 C 0.90097 0.28022 0.57587 0.0
C2781 C 0.92668 0.2808 0.58991 0.0
C2782 C 0.90249 0.29317 0.58852 0.0
C2783 C 0.91578 0.29978 0.60184 0.0
H2784 H 0.33788 0.27385 0.62734 0.0
H2785 H 0.37708 0.32935 0.63875 0.0
H2786 H 0.39678 0.32831 0.61585 0.0
H2787 H 0.40228 0.3121 0.59188 0.0
H2788 H 0.36271 0.25672 0.58011 0.0
H2789 H 0.34395 0.25729 0.60417 0.0
C2790 C 0.35075 0.28574 0.62488 0.0
C2791 C 0.35589 0.30169 0.6347 0.0
C2792 C 0.36199 0.2851 0.61163 0.0
C2793 C 0.37272 0.31689 0.63139 0.0
C2794 C 0.38401 0.31632 0.61827 0.0
C2795 C 0.38959 0.30008 0.59438 0.0
C2796 C 0.38383 0.28441 0.58368 0.0
C2797 C 0.37868 0.30055 0.60815 0.0
C2798 C 0.36742 0.26903 0.5878 0.0
C2799 C 0.35664 0.26934 0.60159 0.0
H2800 H 0.71183 0.05082 0.59776 0.0
H2801 H 0.69358 0.0775 0.63403 0.0
H2802 H 0.69803 0.09885 0.61091 0.0
H2803 H 0.70469 0.10845 0.57968 0.0
H2804 H 0.72164 0.08123 0.54274 0.0
H2805 H 0.72019 0.06164 0.56674 0.0
C2806 C 0.70908 0.06147 0.60063 0.0
C2807 C 0.70228 0.06252 0.61751 0.0
C2808 C 0.71131 0.07352 0.58711 0.0
C2809 C 0.69868 0.07632 0.62107 0.0
C2810 C 0.70121 0.08853 0.60786 0.0
C2811 C 0.70832 0.0984 0.577 0.0
C2812 C 0.71337 0.09634 0.55955 0.0
C2813 C 0.70714 0.08703 0.59073 0.0
C2814 C 0.71783 0.08312 0.55613 0.0
C2815 C 0.71695 0.0719 0.56982 0.0
H2816 H 0.92664 0.65985 0.62832 0.0
H2817 H 0.96505 0.64391 0.61552 0.0
H2818 H 0.94568 0.6243 0.59118 0.0
H2819 H 0.91799 0.61165 0.57379 0.0
H2820 H 0.87789 0.62501 0.58831 0.0
H2821 H 0.89789 0.64587 0.61143 0.0
C2822 C 0.93073 0.65212 0.6201 0.0
C2823 C 0.94723 0.65334 0.62357 0.0
C2824 C 0.91923 0.64037 0.6065 0.0
C2825 C 0.95236 0.64312 0.61306 0.0
C2826 C 0.94131 0.63193 0.59915 0.0
C2827 C 0.91331 0.61872 0.5822 0.0
C2828 C 0.89604 0.61606 0.57953 0.0
C2829 C 0.92466 0.63034 0.59585 0.0
C2830 C 0.89084 0.62624 0.59018 0.0
C2831 C 0.90232 0.63829 0.60345 0.0
H2832 H 0.94296 0.67676 0.71906 0.0
H2833 H 0.99683 0.72169 0.71416 0.0
H2834 H 0.99156 0.73752 0.73857 0.0
H2835 H 0.97206 0.73853 0.76148 0.0
H2836 H 0.91825 0.69364 0.76718 0.0
H2837 H 0.92301 0.67812 0.74194 0.0
C2838 C 0.95351 0.69003 0.72333 0.0
C2839 C 0.97025 0.698 0.7148 0.0
C2840 C 0.95042 0.69912 0.73745 0.0
C2841 C 0.98378 0.71524 0.72043 0.0
C2842 C 0.9808 0.72433 0.73442 0.0
C2843 C 0.96132 0.72532 0.75745 0.0
C2844 C 0.94489 0.71709 0.76668 0.0
C2845 C 0.96421 0.71637 0.74309 0.0
C2846 C 0.93113 0.70014 0.76058 0.0
C2847 C 0.93384 0.69125 0.74615 0.0
H2848 H 0.2873 0.26314 0.7072 0.0
H2849 H 0.33495 0.29604 0.73915 0.0
H2850 H 0.3222 0.27531 0.76404 0.0
H2851 H 0.29686 0.24865 0.77724 0.0
H2852 H 0.24977 0.21495 0.74487 0.0
H2853 H 0.263 0.23503 0.71951 0.0
C2854 C 0.29489 0.26568 0.71959 0.0
C2855 C 0.31194 0.28114 0.72144 0.0
C2856 C 0.28759 0.25357 0.73373 0.0
C2857 C 0.3218 0.2842 0.73743 0.0
C2858 C 0.3145 0.27239 0.75167 0.0
C2859 C 0.28959 0.24562 0.76457 0.0
C2860 C 0.27229 0.23046 0.76298 0.0
C2861 C 0.29733 0.25715 0.75005 0.0
C2862 C 0.26305 0.22663 0.74644 0.0
C2863 C 0.27059 0.23811 0.73197 0.0
H2864 H 0.72568 0.06032 0.72306 0.0
H2865 H 0.73743 0.02719 0.68856 0.0
H2866 H 0.75699 0.02656 0.7119 0.0
H2867 H 0.76981 0.03457 0.74258 0.0
H2868 H 0.75513 0.06483 0.77806 0.0
H2869 H 0.73797 0.06779 0.75379 0.0
C2870 C 0.73268 0.05312 0.7206 0.0
C2871 C 0.73024 0.04391 0.70411 0.0
C2872 C 0.74335 0.0523 0.73428 0.0
C2873 C 0.73912 0.03437 0.70118 0.0
C2874 C 0.75028 0.03402 0.71451 0.0
C2875 C 0.76276 0.04171 0.74502 0.0
C2876 C 0.76361 0.04932 0.76218 0.0
C2877 C 0.75232 0.04275 0.7312 0.0
C2878 C 0.75466 0.0588 0.76501 0.0
C2879 C 0.7448 0.06046 0.75116 0.0
H2880 H 0.03919 0.31695 0.0459 0.0
H2881 H 0.06918 0.34148 -0.00241 0.0
H2882 H 0.09074 0.33194 0.00216 0.0
H2883 H 0.10635 0.3152 0.02251 0.0
H2884 H 0.06978 0.28445 0.07909 0.0
H2885 H 0.04555 0.29661 0.06948 0.0
C2886 C 0.05033 0.31991 0.03714 0.0
C2887 C 0.05325 0.32979 0.02134 0.0
C2888 C 0.06135 0.31349 0.04176 0.0
C2889 C 0.06768 0.33386 0.00949 0.0
C2890 C 0.08021 0.32839 0.0119 0.0
C2891 C 0.09458 0.31088 0.03071 0.0
C2892 C 0.09255 0.30131 0.05345 0.0
C2893 C 0.07911 0.31842 0.02659 0.0
C2894 C 0.07144 0.29147 0.06672 0.0
C2895 C 0.05698 0.29982 0.06111 0.0
H2896 H 0.68611 0.70192 0.04416 0.0
H2897 H 0.63506 0.69803 0.05338 0.0
H2898 H 0.65034 0.72863 0.06538 0.0
H2899 H 0.67795 0.7572 0.0704 0.0
H2900 H 0.72916 0.76135 0.0619 0.0
H2901 H 0.71393 0.72984 0.05212 0.0
C2902 C 0.67829 0.70765 0.04903 0.0
C2903 C 0.65946 0.69773 0.04765 0.0
C2904 C 0.68716 0.72534 0.05578 0.0
C2905 C 0.64957 0.70535 0.05418 0.0
C2906 C 0.65829 0.7229 0.06096 0.0
C2907 C 0.68587 0.7512 0.06679 0.0
C2908 C 0.70473 0.7616 0.06706 0.0
C2909 C 0.67706 0.73314 0.06139 0.0
C2910 C 0.71464 0.75356 0.06195 0.0
C2911 C 0.70595 0.73559 0.05635 0.0
H2912 H 0.28835 0.97972 0.02757 0.0
H2913 H 0.28197 0.92814 0.01449 0.0
H2914 H 0.25276 0.91332 0.02917 0.0
H2915 H 0.22888 0.91506 0.04555 0.0
H2916 H 0.23551 0.96675 0.05824 0.0
H2917 H 0.26484 0.98148 0.04392 0.0
C2918 C 0.2806 0.96522 0.02788 0.0
C2919 C 0.28737 0.95508 0.01988 0.0
C2920 C 0.26389 0.95681 0.03637 0.0
C2921 C 0.2771 0.9363 0.02049 0.0
C2922 C 0.2604 0.92781 0.02891 0.0
C2923 C 0.23687 0.92955 0.04531 0.0
C2924 C 0.23018 0.93982 0.0532 0.0
C2925 C 0.25367 0.93793 0.0369 0.0
C2926 C 0.24048 0.95857 0.05251 0.0
C2927 C 0.25721 0.96699 0.04426 0.0
H2928 H 0.29916 0.01931 0.97007 0.0
H2929 H 0.34338 0.06572 -0.00398 0.0
H2930 H 0.33163 0.08433 0.9855 0.0
H2931 H 0.30869 0.08729 0.9687 0.0
H2932 H 0.26423 0.04033 0.94374 0.0
H2933 H 0.27629 0.02207 0.95396 0.0
C2934 C 0.30627 0.0335 0.97345 0.0
C2935 C 0.32215 0.04112 0.98378 0.0
C2936 C 0.29942 0.04402 0.96745 0.0
C2937 C 0.33111 0.05952 0.98811 0.0
C2938 C 0.32442 0.07016 0.98206 0.0
C2939 C 0.30169 0.07306 0.96553 0.0
C2940 C 0.28562 0.06519 0.95541 0.0
C2941 C 0.30859 0.06255 0.97168 0.0
C2942 C 0.27665 0.04673 0.95141 0.0
C2943 C 0.28351 0.03627 0.95729 0.0
H2944 H 0.93632 0.28432 0.99083 0.0
H2945 H 0.98696 0.28608 0.99166 0.0
H2946 H 0.97309 0.25669 0.97688 0.0
H2947 H 0.94678 0.23062 0.96331 0.0
H2948 H 0.89613 0.22862 0.96203 0.0
H2949 H 0.90978 0.25795 0.97734 0.0
C2950 C 0.94428 0.27821 0.9879 0.0
C2951 C 0.96266 0.28742 0.99239 0.0
C2952 C 0.93626 0.26133 0.97916 0.0
C2953 C 0.9728 0.27934 0.98835 0.0
C2954 C 0.9649 0.26252 0.97987 0.0
C2955 C 0.93879 0.2367 0.96624 0.0
C2956 C 0.92059 0.22767 0.96119 0.0
C2957 C 0.94669 0.25347 0.97508 0.0
C2958 C 0.91027 0.2355 0.96546 0.0
C2959 C 0.91804 0.2522 0.97429 0.0
H2960 H 0.70735 0.65725 0.97017 0.0
H2961 H 0.71655 0.70554 -0.00192 0.0
H2962 H 0.74412 0.72522 0.98262 0.0
H2963 H 0.77174 0.73268 0.95696 0.0
H2964 H 0.76027 0.67633 0.92115 0.0
H2965 H 0.72811 0.65579 0.94217 0.0
C2966 C 0.71583 0.67153 0.97257 0.0
C2967 C 0.71067 0.68063 0.98491 0.0
C2968 C 0.73111 0.68085 0.96234 0.0
C2969 C 0.72116 0.69942 0.98828 0.0
C2970 C 0.73711 0.71101 0.97945 0.0
C2971 C 0.76326 0.7186 0.95359 0.0
C2972 C 0.77117 0.70628 0.93918 0.0
C2973 C 0.7436 0.70445 0.96636 0.0
C2974 C 0.75601 0.68278 0.93091 0.0
C2975 C 0.7366 0.67003 0.94465 0.0
H2976 H 0.93461 0.66645 0.98342 0.0
H2977 H 0.99051 0.69902 0.96992 0.0
H2978 H 0.98515 0.72195 0.95824 0.0
H2979 H 0.96504 0.73375 0.95393 0.0
H2980 H 0.90973 0.70223 0.9697 0.0
H2981 H 0.91429 0.6778 0.97811 0.0
C2982 C 0.94555 0.67845 0.97767 0.0
C2983 C 0.96292 0.68105 0.97757 0.0
C2984 C 0.9425 0.69184 0.97149 0.0
C2985 C 0.97702 0.69675 0.97024 0.0
C2986 C 0.97398 0.70988 0.96357 0.0
C2987 C 0.95401 0.72152 0.95919 0.0
C2988 C 0.93716 0.7199 0.96147 0.0
C2989 C 0.95686 0.70774 0.96449 0.0
C2990 C 0.92288 0.70386 0.96801 0.0
C2991 C 0.92548 0.6899 0.97283 0.0
H2992 H 0.30376 0.29442 0.96194 0.0
H2993 H 0.35089 0.29601 0.98298 0.0
H2994 H 0.33754 0.26405 0.97606 0.0
H2995 H 0.3112 0.23512 0.96685 0.0
H2996 H 0.26385 0.23362 0.94681 0.0
H2997 H 0.27857 0.26612 0.95048 0.0
C2998 C 0.31124 0.28785 0.96479 0.0
C2999 C 0.32823 0.29756 0.97312 0.0
C3000 C 0.30337 0.26946 0.96107 0.0
C3001 C 0.33777 0.28885 0.97661 0.0
C3002 C 0.33011 0.27055 0.97274 0.0
C3003 C 0.30427 0.24199 0.96299 0.0
C3004 C 0.28654 0.23204 0.95644 0.0
C3005 C 0.31273 0.26064 0.9654 0.0
C3006 C 0.27757 0.24103 0.9517 0.0
C3007 C 0.28595 0.25959 0.95388 0.0
H3008 H 0.73055 0.06721 0.99012 0.0
H3009 H 0.70309 0.01426 0.96571 0.0
H3010 H 0.73075 0.01993 0.95141 0.0
H3011 H 0.76321 0.03913 0.94743 0.0
H3012 H 0.79114 0.0915 0.97287 0.0
H3013 H 0.76293 0.08695 0.98507 0.0
C3014 C 0.7306 0.05702 0.98149 0.0
C3015 C 0.71481 0.04032 0.97907 0.0
C3016 C 0.74669 0.06023 0.97356 0.0
C3017 C 0.7151 0.02719 0.96794 0.0
C3018 C 0.73092 0.0304 0.95974 0.0
C3019 C 0.76303 0.04959 0.95548 0.0
C3020 C 0.77917 0.06563 0.9592 0.0
C3021 C 0.74685 0.04674 0.96271 0.0
C3022 C 0.77885 0.07906 0.96977 0.0
C3023 C 0.76274 0.07645 0.97678 0.0
H3024 H 0.65861 0.94282 0.0226 0.0
H3025 H 0.70373 0.9927 0.04208 0.0
H3026 H 0.71777 0.97688 0.05387 0.0
H3027 H 0.71791 0.94909 0.05788 0.0
H3028 H 0.67301 0.89902 0.03886 0.0
H3029 H 0.65829 0.91465 0.02764 0.0
C3030 C 0.67147 0.95019 0.02949 0.0
C3031 C 0.68008 0.96892 0.03139 0.0
C3032 C 0.67955 0.94098 0.03635 0.0
C3033 C 0.69675 0.97828 0.0404 0.0
C3034 C 0.70485 0.96925 0.04716 0.0
C3035 C 0.70477 0.94158 0.05155 0.0
C3036 C 0.69638 0.92289 0.04955 0.0
C3037 C 0.69643 0.95064 0.04514 0.0
C3038 C 0.67957 0.91339 0.04086 0.0
C3039 C 0.6712 0.92232 0.03438 0.0
H3040 H 0.01576 0.7198 0.04658 0.0
H3041 H 0.06019 0.72083 0.01921 0.0
H3042 H 0.0787 0.75305 0.02538 0.0
H3043 H 0.08119 0.78133 0.03599 0.0
H3044 H 0.0362 0.7801 0.06217 0.0
H3045 H 0.01895 0.74751 0.05908 0.0
C3046 C 0.02957 0.72701 0.04215 0.0
C3047 C 0.03654 0.71795 0.03231 0.0
C3048 C 0.03998 0.74551 0.04545 0.0
C3049 C 0.05448 0.72748 0.02677 0.0
C3050 C 0.06504 0.74592 0.03022 0.0
C3051 C 0.06773 0.77385 0.04129 0.0
C3052 C 0.06005 0.78306 0.04948 0.0
C3053 C 0.05778 0.75513 0.03917 0.0
C3054 C 0.04247 0.77329 0.05605 0.0
C3055 C 0.03259 0.75467 0.0542 0.0
H3056 H 0.27749 0.34359 0.02933 0.0
H3057 H 0.30075 0.31068 0.03753 0.0
H3058 H 0.27191 0.28628 0.04772 0.0
H3059 H 0.23961 0.27362 0.05242 0.0
H3060 H 0.21589 0.30566 0.04162 0.0
H3061 H 0.24535 0.33114 0.03461 0.0
C3062 C 0.27629 0.33117 0.03361 0.0
C3063 C 0.2912 0.32893 0.03271 0.0
C3064 C 0.25953 0.31699 0.03886 0.0
C3065 C 0.28942 0.31268 0.03806 0.0
C3066 C 0.27294 0.29872 0.04386 0.0
C3067 C 0.24092 0.28618 0.04849 0.0
C3068 C 0.22558 0.28768 0.04725 0.0
C3069 C 0.25782 0.3006 0.04397 0.0
C3070 C 0.22749 0.30412 0.04245 0.0
C3071 C 0.24432 0.31869 0.03846 0.0
H3072 H 0.68552 0.63661 0.3711 0.0
H3073 H 0.73293 0.68437 0.3526 0.0
H3074 H 0.75334 0.67404 0.35989 0.0
H3075 H 0.76184 0.64861 0.37435 0.0
H3076 H 0.70555 0.59109 0.39513 0.0
H3077 H 0.68435 0.60639 0.3841 0.0
C3078 C 0.69989 0.64408 0.36918 0.0
C3079 C 0.70839 0.66118 0.36144 0.0
C3080 C 0.70957 0.63622 0.37408 0.0
C3081 C 0.72721 0.67133 0.35857 0.0
C3082 C 0.7392 0.66554 0.36263 0.0
C3083 C 0.74742 0.64044 0.37542 0.0
C3084 C 0.73635 0.61958 0.38882 0.0
C3085 C 0.73303 0.64898 0.37 0.0
C3086 C 0.71166 0.60383 0.38851 0.0
C3087 C 0.69874 0.61386 0.38254 0.0
H3088 H 0.32013 0.03359 0.40124 0.0
H3089 H 0.36234 0.03879 0.36595 0.0
H3090 H 0.38475 0.06798 0.37784 0.0
H3091 H 0.39585 0.10012 0.39918 0.0
H3092 H 0.34642 0.094 0.44221 0.0
H3093 H 0.32354 0.0581 0.42775 0.0
C3094 C 0.33386 0.04134 0.39676 0.0
C3095 C 0.34021 0.03487 0.38273 0.0
C3096 C 0.34489 0.05781 0.40495 0.0
C3097 C 0.35826 0.04449 0.37673 0.0
C3098 C 0.3714 0.0614 0.38342 0.0
C3099 C 0.38288 0.09202 0.40531 0.0
C3100 C 0.37256 0.10201 0.4199 0.0
C3101 C 0.36724 0.06988 0.3968 0.0
C3102 C 0.3514 0.08818 0.4325 0.0
C3103 C 0.33706 0.06622 0.42287 0.0
H3104 H 0.95953 0.2714 0.36348 0.0
H3105 H 0.96781 0.32465 0.36062 0.0
H3106 H 0.93793 0.31398 0.37301 0.0
H3107 H 0.90922 0.28923 0.38434 0.0
H3108 H 0.90105 0.23595 0.38545 0.0
H3109 H 0.93116 0.24697 0.37409 0.0
C3110 C 0.95489 0.28075 0.36563 0.0
C3111 C 0.96594 0.29882 0.3612 0.0
C3112 C 0.93771 0.27451 0.37251 0.0
C3113 C 0.95958 0.31066 0.36391 0.0
C3114 C 0.9425 0.30457 0.371 0.0
C3115 C 0.91416 0.28013 0.38224 0.0
C3116 C 0.90311 0.26192 0.38627 0.0
C3117 C 0.93143 0.28649 0.37533 0.0
C3118 C 0.90944 0.25011 0.38296 0.0
C3119 C 0.92662 0.25637 0.37636 0.0
H3120 H 0.04038 0.40065 0.31643 0.0
H3121 H -0.00285 0.36036 0.28337 0.0
H3122 H -0.00274 0.38364 0.26544 0.0
H3123 H 0.01044 0.41538 0.25839 0.0
H3124 H 0.05358 0.45569 0.29141 0.0
H3125 H 0.05276 0.43244 0.31011 0.0
C3126 C 0.03092 0.39696 0.30536 0.0
C3127 C 0.01882 0.37879 0.30121 0.0
C3128 C 0.03106 0.41041 0.29509 0.0
C3129 C 0.00661 0.37424 0.28686 0.0
C3130 C 0.00668 0.38754 0.27657 0.0
C3131 C 0.01947 0.41907 0.26985 0.0
C3132 C 0.03183 0.43724 0.27373 0.0
C3133 C 0.01894 0.40565 0.28048 0.0
C3134 C 0.04376 0.4418 0.28835 0.0
C3135 C 0.04333 0.42853 0.29898 0.0
H3136 H 0.60563 0.62672 0.30232 0.0
H3137 H 0.65807 0.63252 0.30109 0.0
H3138 H 0.64521 0.60249 0.28766 0.0
H3139 H 0.61872 0.57386 0.27795 0.0
H3140 H 0.56622 0.5677 0.2814 0.0
H3141 H 0.57944 0.59856 0.29226 0.0
C3142 C 0.61431 0.62154 0.29889 0.0
C3143 C 0.63278 0.63187 0.30267 0.0
C3144 C 0.60678 0.60413 0.29164 0.0
C3145 C 0.64379 0.62483 0.29834 0.0
C3146 C 0.63644 0.60765 0.29069 0.0
C3147 C 0.61025 0.57941 0.28086 0.0
C3148 C 0.59158 0.56864 0.27841 0.0
C3149 C 0.61791 0.59707 0.28754 0.0
C3150 C 0.58066 0.5758 0.28272 0.0
C3151 C 0.5882 0.59343 0.28903 0.0
H3152 H 0.38193 0.00842 0.3224 0.0
H3153 H 0.34834 0.95109 0.31635 0.0
H3154 H 0.3735 0.9492 0.3042 0.0
H3155 H 0.40538 0.96367 0.29656 0.0
H3156 H 0.43948 0.02072 0.30438 0.0
H3157 H 0.41382 0.02295 0.31438 0.0
C3158 C 0.38012 0.99555 0.31828 0.0
C3159 C 0.36335 0.97992 0.3203 0.0
C3160 C 0.39475 0.99451 0.31169 0.0
C3161 C 0.36118 0.9633 0.31503 0.0
C3162 C 0.37554 0.96221 0.30807 0.0
C3163 C 0.40715 0.97657 0.30047 0.0
C3164 C 0.4243 0.99198 0.2999 0.0
C3165 C 0.39244 0.97769 0.30657 0.0
C3166 C 0.42641 0.00866 0.3048 0.0
C3167 C 0.41176 0.00994 0.31053 0.0
H3168 H 0.63064 0.99715 0.3134 0.0
H3169 H 0.6225 0.95303 0.27851 0.0
H3170 H 0.61722 0.96499 0.25152 0.0
H3171 H 0.61312 0.99096 0.23231 0.0
H3172 H 0.62289 0.04412 0.27283 0.0
H3173 H 0.62951 0.02721 0.3027 0.0
C3174 C 0.62742 0.99083 0.30013 0.0
C3175 C 0.62682 0.97446 0.29701 0.0
C3176 C 0.62441 -0.00067 0.28624 0.0
C3177 C 0.62273 0.96558 0.2799 0.0
C3178 C 0.61984 0.97237 0.26416 0.0
C3179 C 0.61716 -0.00176 0.24506 0.0
C3180 C 0.61418 0.01767 0.24999 0.0
C3181 C 0.62051 0.98855 0.26468 0.0
C3182 C 0.62313 0.03188 0.27088 0.0
C3183 C 0.62632 0.02082 0.2895 0.0
H3184 H 0.9852 0.63267 0.29634 0.0
H3185 H 0.03584 0.64172 0.31658 0.0
H3186 H 0.02717 0.61099 0.30841 0.0
H3187 H 0.00415 0.58081 0.29808 0.0
H3188 H 0.95331 0.5715 0.27843 0.0
H3189 H 0.96312 0.60309 0.28373 0.0
C3190 C 0.99444 0.62799 0.29875 0.0
C3191 C 0.01108 0.63943 0.30721 0.0
C3192 C 0.98928 0.61022 0.29423 0.0
C3193 C 0.02291 0.63317 0.31018 0.0
C3194 C 0.01795 0.61558 0.30556 0.0
C3195 C 0.99536 0.58579 0.29469 0.0
C3196 C 0.97808 0.5739 0.28782 0.0
C3197 C 0.00101 0.60388 0.29797 0.0
C3198 C 0.96672 0.58046 0.28362 0.0
C3199 C 0.9723 0.59848 0.28672 0.0
H3200 H 0.38177 0.39665 0.30792 0.0
H3201 H 0.36354 0.34036 0.30271 0.0
H3202 H 0.39234 0.34739 0.28996 0.0
H3203 H 0.42342 0.36958 0.28225 0.0
H3204 H 0.44237 0.42581 0.28985 0.0
H3205 H 0.41254 0.4188 0.29934 0.0
C3206 C 0.38403 0.38593 0.30377 0.0
C3207 C 0.37057 0.36803 0.30629 0.0
C3208 C 0.4008 0.39007 0.29695 0.0
C3209 C 0.37374 0.35427 0.301 0.0
C3210 C 0.3902 0.35827 0.29372 0.0
C3211 C 0.42099 0.38027 0.286 0.0
C3212 C 0.43516 0.39816 0.28569 0.0
C3213 C 0.40395 0.37613 0.29198 0.0
C3214 C 0.43173 0.41191 0.29021 0.0
C3215 C 0.41469 0.40792 0.29565 0.0
H3216 H 0.36141 0.31888 0.37603 0.0
H3217 H 0.31132 0.27262 0.35895 0.0
H3218 H 0.32233 0.253 0.36785 0.0
H3219 H 0.34686 0.24912 0.37874 0.0
H3220 H 0.39705 0.2954 0.39533 0.0
H3221 H 0.38531 0.31491 0.3884 0.0
C3222 C 0.35283 0.3045 0.37439 0.0
C3223 C 0.3356 0.29724 0.36674 0.0
C3224 C 0.35928 0.29331 0.3794 0.0
C3225 C 0.32464 0.27857 0.36477 0.0
C3226 C 0.33094 0.26733 0.36982 0.0
C3227 C 0.35511 0.26346 0.38108 0.0
C3228 C 0.37271 0.2708 0.38773 0.0
C3229 C 0.34833 0.27458 0.3769 0.0
C3230 C 0.38338 0.28943 0.39044 0.0
C3231 C 0.3767 0.30058 0.38641 0.0
H3232 H 0.70745 0.04376 0.35144 0.0
H3233 H 0.66443 0.02177 0.38983 0.0
H3234 H 0.67471 0.05165 0.40245 0.0
H3235 H 0.69563 0.08397 0.40239 0.0
H3236 H 0.7373 0.10657 0.36262 0.0
H3237 H 0.72801 0.07653 0.35083 0.0
C3238 C 0.70043 0.04556 0.36263 0.0
C3239 C 0.68527 0.03062 0.36976 0.0
C3240 C 0.70611 0.06287 0.3695 0.0
C3241 C 0.67612 0.03309 0.3841 0.0
C3242 C 0.68199 0.05016 0.39133 0.0
C3243 C 0.7025 0.08236 0.39095 0.0
C3244 C 0.71688 0.09753 0.38313 0.0
C3245 C 0.69686 0.06514 0.38404 0.0
C3246 C 0.726 0.09514 0.36869 0.0
C3247 C 0.72073 0.07797 0.36198 0.0
H3248 H 0.95808 0.69023 0.36582 0.0
H3249 H 0.97214 0.64925 0.36528 0.0
H3250 H 0.94207 0.62734 0.37535 0.0
H3251 H 0.91126 0.61942 0.38263 0.0
H3252 H 0.89662 0.65991 0.38079 0.0
H3253 H 0.9275 0.68247 0.3738 0.0
C3254 C 0.95462 0.67655 0.36808 0.0
C3255 C 0.96732 0.67138 0.36474 0.0
C3256 C 0.93716 0.6639 0.37341 0.0
C3257 C 0.96258 0.65356 0.36762 0.0
C3258 C 0.94539 0.64101 0.3734 0.0
C3259 C 0.9148 0.63316 0.38061 0.0
C3260 C 0.90153 0.63787 0.38177 0.0
C3261 C 0.93247 0.64596 0.37603 0.0
C3262 C 0.9065 0.65586 0.37966 0.0
C3263 C 0.92415 0.66877 0.37565 0.0
H3264 H 0.39132 0.03048 0.70999 0.0
H3265 H 0.35614 0.97459 0.69506 0.0
H3266 H 0.37088 0.96373 0.7142 0.0
H3267 H 0.39721 0.96815 0.74016 0.0
H3268 H 0.43795 0.03385 0.76102 0.0
H3269 H 0.41852 0.04347 0.73624 0.0
C3270 C 0.3879 0.01668 0.71106 0.0
C3271 C 0.37289 0.00286 0.70164 0.0
C3272 C 0.39768 0.01273 0.72286 0.0
C3273 C 0.36762 0.98451 0.70284 0.0
C3274 C 0.37595 0.97796 0.71383 0.0
C3275 C 0.40069 0.982 0.74008 0.0
C3276 C 0.42164 0.00021 0.75075 0.0
C3277 C 0.39025 0.98955 0.72462 0.0
C3278 C 0.4266 0.02375 0.75327 0.0
C3279 C 0.41508 0.02968 0.73717 0.0
H3280 H 0.95288 0.34564 0.70661 0.0
H3281 H 0.00873 0.36841 0.69318 0.0
H3282 H 0.01527 0.39742 0.7055 0.0
H3283 H 0.00464 0.41685 0.71768 0.0
H3284 H 0.9487 0.39416 0.73023 0.0
H3285 H 0.94266 0.36452 0.72057 0.0
C3286 C 0.96654 0.35688 0.70653 0.0
C3287 C 0.98025 0.35486 0.69881 0.0
C3288 C 0.97015 0.37356 0.71334 0.0
C3289 C -0.00211 0.36957 0.69898 0.0
C3290 C 0.00163 0.38619 0.70595 0.0
C3291 C 0.99119 0.40536 0.71851 0.0
C3292 C 0.97716 0.40764 0.72477 0.0
C3293 C 0.9878 0.38842 0.71277 0.0
C3294 C 0.95972 0.39268 0.7256 0.0
C3295 C 0.95627 0.37577 0.72004 0.0
H3296 H 0.63125 0.64829 0.7023 0.0
H3297 H 0.63153 0.59877 0.70246 0.0
H3298 H 0.60166 0.58354 0.71559 0.0
H3299 H 0.57474 0.58387 0.72527 0.0
H3300 H 0.5746 0.63342 0.72547 0.0
H3301 H 0.60514 0.64905 0.71379 0.0
C3302 C 0.62485 0.63419 0.70531 0.0
C3303 C 0.6336 0.62468 0.70126 0.0
C3304 C 0.60767 0.62551 0.71285 0.0
C3305 C 0.62513 0.60644 0.70541 0.0
C3306 C 0.608 0.59769 0.71286 0.0
C3307 C 0.58151 0.59816 0.72309 0.0
C3308 C 0.57254 0.60757 0.72656 0.0
C3309 C 0.59906 0.60704 0.71641 0.0
C3310 C 0.58135 0.62598 0.72319 0.0
C3311 C 0.59876 0.63489 0.71646 0.0
H3312 H 0.67699 0.72485 0.64839 0.0
H3313 H 0.62972 0.67293 0.63913 0.0
H3314 H 0.6139 0.68694 0.62705 0.0
H3315 H 0.61322 0.71387 0.61943 0.0
H3316 H 0.66022 0.76588 0.62853 0.0
H3317 H 0.67641 0.75194 0.64032 0.0
C3318 C 0.66323 0.71662 0.64372 0.0
C3319 C 0.65457 0.69787 0.6447 0.0
C3320 C 0.65417 0.72477 0.63669 0.0
C3321 C 0.63674 0.68739 0.63854 0.0
C3322 C 0.62765 0.69538 0.63162 0.0
C3323 C 0.62707 0.72213 0.62382 0.0
C3324 C 0.63561 0.74084 0.6228 0.0
C3325 C 0.63622 0.71404 0.63064 0.0
C3326 C 0.65346 0.75141 0.62889 0.0
C3327 C 0.66268 0.74346 0.6357 0.0
H3328 H 0.27574 0.95962 0.62444 0.0
H3329 H 0.32276 0.96151 0.64705 0.0
H3330 H 0.31649 0.93338 0.63325 0.0
H3331 H 0.29369 0.90013 0.61403 0.0
H3332 H 0.23821 0.89782 0.58605 0.0
H3333 H 0.25072 0.93313 0.60148 0.0
C3334 C 0.28389 0.95357 0.62593 0.0
C3335 C 0.29961 0.96188 0.6367 0.0
C3336 C 0.27835 0.9374 0.61721 0.0
C3337 C 0.31083 0.95448 0.63867 0.0
C3338 C 0.30742 0.93822 0.63081 0.0
C3339 C 0.28628 0.90662 0.61072 0.0
C3340 C 0.26309 0.89394 0.60113 0.0
C3341 C 0.29231 0.92815 0.6203 0.0
C3342 C 0.25093 0.90509 0.59312 0.0
C3343 C 0.25841 0.92666 0.60343 0.0
H3344 H 0.04441 0.32334 0.62796 0.0
H3345 H 0.04954 0.37113 0.6532 0.0
H3346 H 0.07788 0.39148 0.63917 0.0
H3347 H 0.1077 0.3997 0.61604 0.0
H3348 H 0.1006 0.34365 0.58305 0.0
H3349 H 0.06727 0.32252 0.6021 0.0
C3350 C 0.05218 0.33771 0.63014 0.0
C3351 C 0.04571 0.34644 0.64137 0.0
C3352 C 0.06798 0.34739 0.62077 0.0
C3353 C 0.05522 0.3653 0.64432 0.0
C3354 C 0.07159 0.37727 0.63632 0.0
C3355 C 0.09985 0.38554 0.61279 0.0
C3356 C 0.10935 0.37362 0.60007 0.0
C3357 C 0.07947 0.37102 0.62445 0.0
C3358 C 0.09536 0.34991 0.59188 0.0
C3359 C 0.07518 0.33683 0.60445 0.0
H3360 H 0.31561 0.35334 0.64405 0.0
H3361 H 0.26308 0.30577 0.64376 0.0
H3362 H 0.24965 0.32339 0.6352 0.0
H3363 H 0.25259 0.35278 0.63095 0.0
H3364 H 0.30519 0.40015 0.63019 0.0
H3365 H 0.31887 0.38212 0.63594 0.0
C3366 C 0.30124 0.34679 0.6419 0.0
C3367 C 0.29033 0.32832 0.6448 0.0
C3368 C 0.29362 0.357 0.63701 0.0
C3369 C 0.27177 0.31997 0.64167 0.0
C3370 C 0.26407 0.33006 0.63687 0.0
C3371 C 0.26706 0.35912 0.63187 0.0
C3372 C 0.27784 0.37783 0.63073 0.0
C3373 C 0.27482 0.34865 0.63501 0.0
C3374 C 0.29659 0.38582 0.6315 0.0
C3375 C 0.30441 0.37552 0.63474 0.0
H3376 H 0.63799 0.96434 0.62713 0.0
H3377 H 0.68416 0.96379 0.64781 0.0
H3378 H 0.66985 0.93187 0.64066 0.0
H3379 H 0.64346 0.9037 0.63041 0.0
H3380 H 0.59728 0.90399 0.60964 0.0
H3381 H 0.61237 0.93643 0.61482 0.0
C3382 C 0.64497 0.95726 0.62994 0.0
C3383 C 0.66207 0.96643 0.63814 0.0
C3384 C 0.63665 0.93885 0.62581 0.0
C3385 C 0.67098 0.95708 0.64157 0.0
C3386 C 0.66279 0.93879 0.63751 0.0
C3387 C 0.63682 0.91092 0.62678 0.0
C3388 C 0.61931 0.9015 0.61962 0.0
C3389 C 0.64553 0.92949 0.6299 0.0
C3390 C 0.61079 0.91099 0.61509 0.0
C3391 C 0.61939 0.9295 0.61812 0.0
H3392 H 0.03734 0.68335 0.64133 0.0
H3393 H 0.04727 0.73722 0.64613 0.0
H3394 H 0.07885 0.74918 0.63921 0.0
H3395 H 0.104 0.74437 0.63405 0.0
H3396 H 0.09392 0.69063 0.6268 0.0
H3397 H 0.06203 0.67856 0.63242 0.0
C3398 C 0.04642 0.69769 0.6407 0.0
C3399 C 0.04005 0.70939 0.64443 0.0
C3400 C 0.06453 0.70449 0.63648 0.0
C3401 C 0.05185 0.72794 0.6433 0.0
C3402 C 0.06993 0.73479 0.63944 0.0
C3403 C 0.0948 0.73001 0.63356 0.0
C3404 C 0.10143 0.71841 0.63064 0.0
C3405 C 0.07647 0.7232 0.63635 0.0
C3406 C 0.08926 0.69985 0.62959 0.0
C3407 C 0.07102 0.69294 0.63272 0.0
H3408 H 0.01518 0.64513 0.71218 0.0
H3409 H 0.96375 0.60668 0.68887 0.0
H3410 H 0.96688 0.58218 0.6999 0.0
H3411 H 0.98474 0.57159 0.71498 0.0
H3412 H 0.03617 0.60978 0.73822 0.0
H3413 H 0.03252 0.63447 0.72844 0.0
C3414 C 0.00461 0.63139 0.70961 0.0
C3415 C 0.9893 0.62776 0.69965 0.0
C3416 C 0.0065 0.61732 0.71595 0.0
C3417 C 0.9757 0.60987 0.69648 0.0
C3418 C 0.97747 0.59583 0.70276 0.0
C3419 C 0.99504 0.58533 0.71807 0.0
C3420 C 0.01062 0.58888 0.72743 0.0
C3421 C 0.99289 0.59939 0.71234 0.0
C3422 C 0.02399 0.60674 0.73117 0.0
C3423 C 0.02193 0.62083 0.72554 0.0
H3424 H 0.38629 0.38309 0.69603 0.0
H3425 H 0.33548 0.37391 0.7157 0.0
H3426 H 0.3492 0.4055 0.72417 0.0
H3427 H 0.37505 0.43621 0.7237 0.0
H3428 H 0.42558 0.44559 0.70322 0.0
H3429 H 0.41262 0.4135 0.69745 0.0
C3430 C 0.37827 0.38796 0.70238 0.0
C3431 C 0.35987 0.37617 0.70512 0.0
C3432 C 0.38619 0.40622 0.70699 0.0
C3433 C 0.34967 0.3827 0.71336 0.0
C3434 C 0.35749 0.40079 0.71818 0.0
C3435 C 0.38326 0.43115 0.71827 0.0
C3436 C 0.40126 0.4432 0.714 0.0
C3437 C 0.37564 0.41273 0.71473 0.0
C3438 C 0.41172 0.43654 0.70672 0.0
C3439 C 0.4043 0.41822 0.70336 0.0
H3440 H 0.63622 0.99561 0.69865 0.0
H3441 H 0.63838 0.0461 0.69412 0.0
H3442 H 0.60835 0.03305 0.70652 0.0
H3443 H 0.58088 0.00698 0.71713 0.0
H3444 H 0.57918 0.95695 0.72371 0.0
H3445 H 0.6096 0.97015 0.71213 0.0
C3446 C 0.63013 0.00375 0.70048 0.0
C3447 C 0.63946 0.02174 0.69532 0.0
C3448 C 0.61289 0.99622 0.70783 0.0
C3449 C 0.63151 0.03222 0.69799 0.0
C3450 C 0.6143 0.02476 0.70502 0.0
C3451 C 0.58717 -0.00104 0.71603 0.0
C3452 C 0.57746 0.98081 0.72051 0.0
C3453 C 0.60478 0.00673 0.70974 0.0
C3454 C 0.58605 0.97077 0.71966 0.0
C3455 C 0.60351 0.97833 0.71314 0.0
loop_
_geom_bond_atom_site_label_1
_geom_bond_atom_site_label_2
_geom_bond_distance
_geom_bond_site_symmetry_2
_ccdc_geom_bond_type
C0 O1 1.306 . S
C0 O3 1.160 . S
O1 C0 1.306 . S
O1 Cd2 2.228 1_556 S
Cd2 O1 2.228 1_554 S
Cd2 O6 2.273 . S
Cd2 O10 2.277 1_554 S
O3 C0 1.160 . S
O3 Cd4 2.203 1_656 S
Cd4 O3 2.203 1_454 S
Cd4 O6 2.411 1_455 S
Cd4 O7 2.333 . S
Cd4 O8 2.352 . S
Cd4 O12 2.277 1_554 S
Cd4 O13 2.356 . S
C5 O10 1.209 1_455 S
C5 O12 1.226 . S
O6 Cd2 2.273 . S
O6 Cd4 2.411 1_655 S
O6 C9 1.320 1_655 S
O7 Cd4 2.333 . S
O7 C9 1.214 . S
O8 Cd4 2.352 . S
O8 C11 1.258 . S
C9 O6 1.320 1_455 S
C9 O7 1.214 . S
O10 Cd2 2.277 1_556 S
O10 C5 1.209 1_655 S
C11 O8 1.258 . S
C11 O13 1.282 . S
O12 Cd4 2.277 1_556 S
O12 C5 1.226 . S
O13 Cd4 2.356 . S
O13 C11 1.282 . S
C14 O15 1.306 . S
C14 O17 1.160 . S
O15 C14 1.306 . S
O15 Cd16 2.228 . S
Cd16 O15 2.228 . S
Cd16 O20 2.281 . S
Cd16 O24 2.277 . S
O17 C14 1.160 . S
O17 Cd18 2.203 . S
Cd18 O17 2.203 . S
Cd18 O20 2.415 . S
Cd18 O21 2.333 1_554 S
Cd18 O22 2.352 1_554 S
Cd18 O26 2.277 . S
Cd18 O27 2.356 . S
C19 O24 1.209 . S
C19 O26 1.226 . S
O20 Cd16 2.281 . S
O20 Cd18 2.415 . S
O20 C23 1.315 1_554 S
O21 Cd18 2.333 1_556 S
O21 C23 1.214 . S
O22 Cd18 2.352 1_556 S
O22 C25 1.258 . S
C23 O20 1.315 1_556 S
C23 O21 1.214 . S
O24 Cd16 2.277 . S
O24 C19 1.209 . S
C25 O22 1.258 . S
C25 O27 1.282 1_556 S
O26 Cd18 2.277 . S
O26 C19 1.226 . S
O27 Cd18 2.356 . S
O27 C25 1.282 1_554 S
C28 O29 1.306 . S
C28 O31 1.160 . S
O29 C28 1.306 . S
O29 Cd30 2.228 . S
Cd30 O29 2.228 . S
Cd30 O34 2.273 1_554 S
Cd30 O38 2.277 . S
O31 C28 1.160 . S
O31 Cd32 2.203 1_565 S
Cd32 O31 2.203 1_545 S
Cd32 O34 2.411 1_544 S
Cd32 O35 2.333 1_554 S
Cd32 O36 2.352 1_554 S
Cd32 O40 2.277 . S
Cd32 O41 2.369 . S
C33 O38 1.209 1_545 S
C33 O40 1.226 . S
O34 Cd30 2.273 1_556 S
O34 Cd32 2.411 1_566 S
O34 C37 1.308 1_565 S
O35 Cd32 2.333 1_556 S
O35 C37 1.249 . S
O36 Cd32 2.352 1_556 S
O36 C39 1.258 . S
C37 O34 1.308 1_545 S
C37 O35 1.249 . S
O38 Cd30 2.277 . S
O38 C33 1.209 1_565 S
C39 O36 1.258 . S
C39 O41 1.253 1_556 S
O40 Cd32 2.277 . S
O40 C33 1.226 . S
O41 Cd32 2.369 . S
O41 C39 1.253 1_554 S
C42 O43 1.320 . S
C42 O45 1.160 . S
O43 C42 1.320 . S
O43 Cd44 2.219 1_556 S
Cd44 O43 2.219 1_554 S
Cd44 O48 2.273 . S
Cd44 O52 2.277 1_554 S
O45 C42 1.160 . S
O45 Cd46 2.203 1_656 S
Cd46 O45 2.203 1_454 S
Cd46 O48 2.411 1_455 S
Cd46 O49 2.333 . S
Cd46 O50 2.352 . S
Cd46 O54 2.277 1_554 S
Cd46 O55 2.356 . S
C47 O52 1.209 1_455 S
C47 O54 1.226 . S
O48 Cd44 2.273 . S
O48 Cd46 2.411 1_655 S
O48 C51 1.320 . S
O49 Cd46 2.333 . S
O49 C51 1.214 1_455 S
O50 Cd46 2.352 . S
O50 C53 1.258 . S
C51 O48 1.320 . S
C51 O49 1.214 1_655 S
O52 Cd44 2.277 1_556 S
O52 C47 1.209 1_655 S
C53 O50 1.258 . S
C53 O55 1.282 . S
O54 Cd46 2.277 1_556 S
O54 C47 1.226 . S
O55 Cd46 2.356 . S
O55 C53 1.282 . S
C56 O57 1.306 . S
C56 O59 1.160 . S
O57 C56 1.306 . S
O57 Cd58 2.228 . S
Cd58 O57 2.228 . S
Cd58 O62 2.273 1_554 S
Cd58 O66 2.277 . S
O59 C56 1.160 . S
O59 Cd60 2.203 . S
Cd60 O59 2.203 . S
Cd60 O62 2.411 1_554 S
Cd60 O63 2.333 1_554 S
Cd60 O64 2.352 1_554 S
Cd60 O68 2.277 . S
Cd60 O69 2.356 1_554 S
C61 O66 1.209 . S
C61 O68 1.226 . S
O62 Cd58 2.273 1_556 S
O62 Cd60 2.411 1_556 S
O62 C65 1.320 . S
O63 Cd60 2.333 1_556 S
O63 C65 1.214 . S
O64 Cd60 2.352 1_556 S
O64 C67 1.258 . S
C65 O62 1.320 . S
C65 O63 1.214 . S
O66 Cd58 2.277 . S
O66 C61 1.209 . S
C67 O64 1.258 . S
C67 O69 1.282 . S
O68 Cd60 2.277 . S
O68 C61 1.226 . S
O69 Cd60 2.356 1_556 S
O69 C67 1.282 . S
C70 O71 1.296 1_556 S
C70 O73 1.160 . S
O71 C70 1.296 1_554 S
O71 Cd72 2.235 . S
Cd72 O71 2.235 . S
Cd72 O76 2.273 . S
Cd72 O80 2.277 1_554 S
O73 C70 1.160 . S
O73 Cd74 2.203 1_546 S
Cd74 O73 2.203 1_564 S
Cd74 O76 2.411 1_565 S
Cd74 O77 2.333 . S
Cd74 O78 2.352 . S
Cd74 O82 2.277 1_554 S
Cd74 O83 2.356 . S
C75 O80 1.209 1_565 S
C75 O82 1.226 . S
O76 Cd72 2.273 . S
O76 Cd74 2.411 1_545 S
O76 C79 1.320 . S
O77 Cd74 2.333 . S
O77 C79 1.214 1_565 S
O78 Cd74 2.352 . S
O78 C81 1.258 . S
C79 O76 1.320 . S
C79 O77 1.214 1_545 S
O80 Cd72 2.277 1_556 S
O80 C75 1.209 1_545 S
C81 O78 1.258 . S
C81 O83 1.282 . S
O82 Cd74 2.277 1_556 S
O82 C75 1.226 . S
O83 Cd74 2.356 . S
O83 C81 1.282 . S
C84 O85 1.306 . S
C84 O87 1.160 . S
O85 C84 1.306 . S
O85 Cd86 2.228 . S
Cd86 O85 2.228 . S
Cd86 O90 2.273 . S
Cd86 O94 2.277 . S
O87 C84 1.160 . S
O87 Cd88 2.203 . S
Cd88 O87 2.203 . S
Cd88 O90 2.411 . S
Cd88 O91 2.333 . S
Cd88 O92 2.352 . S
Cd88 O96 2.277 . S
Cd88 O97 2.356 . S
C89 O94 1.209 . S
C89 O96 1.226 . S
O90 Cd86 2.273 . S
O90 Cd88 2.411 . S
O90 C93 1.320 . S
O91 Cd88 2.333 . S
O91 C93 1.214 . S
O92 Cd88 2.352 . S
O92 C95 1.258 . S
C93 O90 1.320 . S
C93 O91 1.214 . S
O94 Cd86 2.277 . S
O94 C89 1.209 . S
C95 O92 1.258 . S
C95 O97 1.282 . S
O96 Cd88 2.277 . S
O96 C89 1.226 . S
O97 Cd88 2.356 . S
O97 C95 1.282 . S
C98 O99 1.306 . S
C98 O101 1.160 . S
O99 C98 1.306 . S
O99 Cd100 2.228 1_545 S
Cd100 O99 2.228 1_565 S
Cd100 O104 2.273 . S
Cd100 O108 2.277 . S
O101 C98 1.160 . S
O101 Cd102 2.203 1_545 S
Cd102 O101 2.203 1_565 S
Cd102 O104 2.411 . S
Cd102 O105 2.333 . S
Cd102 O106 2.352 . S
Cd102 O110 2.277 . S
Cd102 O111 2.356 . S
C103 O108 1.209 . S
C103 O110 1.226 . S
O104 Cd100 2.273 . S
O104 Cd102 2.411 . S
O104 C107 1.320 . S
O105 Cd102 2.333 . S
O105 C107 1.214 . S
O106 Cd102 2.352 . S
O106 C109 1.258 . S
C107 O104 1.320 . S
C107 O105 1.214 . S
O108 Cd100 2.277 . S
O108 C103 1.209 . S
C109 O106 1.258 . S
C109 O111 1.282 . S
O110 Cd102 2.277 . S
O110 C103 1.226 . S
O111 Cd102 2.356 . S
O111 C109 1.282 . S
C112 O113 1.306 1_655 S
C112 O115 1.160 1_655 S
O113 C112 1.306 1_455 S
O113 Cd114 2.228 . S
Cd114 O113 2.228 . S
Cd114 O118 2.273 . S
Cd114 O122 2.277 . S
O115 C112 1.160 1_455 S
O115 Cd116 2.203 . S
Cd116 O115 2.203 . S
Cd116 O118 2.411 . S
Cd116 O119 2.333 . S
Cd116 O120 2.352 . S
Cd116 O124 2.277 . S
Cd116 O125 2.356 . S
C117 O122 1.209 . S
C117 O124 1.226 . S
O118 Cd114 2.273 . S
O118 Cd116 2.411 . S
O118 C121 1.320 . S
O119 Cd116 2.333 . S
O119 C121 1.214 . S
O120 Cd116 2.352 . S
O120 C123 1.258 . S
C121 O118 1.320 . S
C121 O119 1.214 . S
O122 Cd114 2.277 . S
O122 C117 1.209 . S
C123 O120 1.258 . S
C123 O125 1.282 . S
O124 Cd116 2.277 . S
O124 C117 1.226 . S
O125 Cd116 2.356 . S
O125 C123 1.282 . S
C126 O127 1.306 . S
C126 O129 1.160 . S
O127 C126 1.306 . S
O127 Cd128 2.228 . S
Cd128 O127 2.228 . S
Cd128 O132 2.273 . S
Cd128 O136 2.277 . S
O129 C126 1.160 . S
O129 Cd130 2.203 . S
Cd130 O129 2.203 . S
Cd130 O132 2.411 . S
Cd130 O133 2.333 . S
Cd130 O134 2.352 1_565 S
Cd130 O138 2.277 . S
Cd130 O139 2.356 1_565 S
C131 O136 1.209 . S
C131 O138 1.226 . S
O132 Cd128 2.273 . S
O132 Cd130 2.411 . S
O132 C135 1.320 . S
O133 Cd130 2.333 . S
O133 C135 1.214 . S
O134 Cd130 2.352 1_545 S
O134 C137 1.258 . S
C135 O132 1.320 . S
C135 O133 1.214 . S
O136 Cd128 2.277 . S
O136 C131 1.209 . S
C137 O134 1.258 . S
C137 O139 1.282 . S
O138 Cd130 2.277 . S
O138 C131 1.226 . S
O139 Cd130 2.356 1_545 S
O139 C137 1.282 . S
C140 O141 1.306 . S
C140 O143 1.190 . S
O141 C140 1.306 . S
O141 Cd142 2.228 1_655 S
Cd142 O141 2.228 1_455 S
Cd142 O146 2.273 . S
Cd142 O150 2.277 . S
O143 C140 1.190 . S
O143 Cd144 2.180 1_655 S
Cd144 O143 2.180 1_455 S
Cd144 O146 2.411 . S
Cd144 O147 2.333 . S
Cd144 O148 2.352 . S
Cd144 O152 2.277 . S
Cd144 O153 2.356 . S
C145 O150 1.209 . S
C145 O152 1.226 . S
O146 Cd142 2.273 . S
O146 Cd144 2.411 . S
O146 C149 1.320 . S
O147 Cd144 2.333 . S
O147 C149 1.214 . S
O148 Cd144 2.352 . S
O148 C151 1.258 . S
C149 O146 1.320 . S
C149 O147 1.214 . S
O150 Cd142 2.277 . S
O150 C145 1.209 . S
C151 O148 1.258 . S
C151 O153 1.282 . S
O152 Cd144 2.277 . S
O152 C145 1.226 . S
O153 Cd144 2.356 . S
O153 C151 1.282 . S
C154 O155 1.306 . S
C154 O157 1.160 . S
O155 C154 1.306 . S
O155 Cd156 2.228 . S
Cd156 O155 2.228 . S
Cd156 O160 2.273 . S
Cd156 O164 2.277 . S
O157 C154 1.160 . S
O157 Cd158 2.203 . S
Cd158 O157 2.203 . S
Cd158 O160 2.411 . S
Cd158 O161 2.333 . S
Cd158 O162 2.352 . S
Cd158 O166 2.277 . S
Cd158 O167 2.356 . S
C159 O164 1.209 . S
C159 O166 1.226 . S
O160 Cd156 2.273 . S
O160 Cd158 2.411 . S
O160 C163 1.320 . S
O161 Cd158 2.333 . S
O161 C163 1.214 . S
O162 Cd158 2.352 . S
O162 C165 1.258 . S
C163 O160 1.320 . S
C163 O161 1.214 . S
O164 Cd156 2.277 . S
O164 C159 1.209 . S
C165 O162 1.258 . S
C165 O167 1.282 . S
O166 Cd158 2.277 . S
O166 C159 1.226 . S
O167 Cd158 2.356 . S
O167 C165 1.282 . S
C168 O169 1.306 . S
C168 O171 1.160 . S
O169 C168 1.306 . S
O169 Cd170 2.228 1_565 S
Cd170 O169 2.228 1_545 S
Cd170 O174 2.273 . S
Cd170 O178 2.277 . S
O171 C168 1.160 . S
O171 Cd172 2.203 1_565 S
Cd172 O171 2.203 1_545 S
Cd172 O174 2.411 . S
Cd172 O175 2.333 . S
Cd172 O176 2.352 . S
Cd172 O180 2.277 . S
Cd172 O181 2.356 . S
C173 O178 1.209 . S
C173 O180 1.226 . S
O174 Cd170 2.273 . S
O174 Cd172 2.411 . S
O174 C177 1.320 . S
O175 Cd172 2.333 . S
O175 C177 1.214 . S
O176 Cd172 2.352 . S
O176 C179 1.258 . S
C177 O174 1.320 . S
C177 O175 1.214 . S
O178 Cd170 2.277 . S
O178 C173 1.209 . S
C179 O176 1.258 . S
C179 O181 1.282 . S
O180 Cd172 2.277 . S
O180 C173 1.226 . S
O181 Cd172 2.356 . S
O181 C179 1.282 . S
C182 O183 1.306 . S
C182 O185 1.158 1_655 S
O183 C182 1.306 . S
O183 Cd184 2.228 . S
Cd184 O183 2.228 . S
Cd184 O188 2.273 . S
Cd184 O192 2.277 . S
O185 C182 1.158 1_455 S
O185 Cd186 2.203 1_455 S
Cd186 O185 2.203 1_655 S
Cd186 O188 2.411 . S
Cd186 O189 2.333 . S
Cd186 O190 2.352 1_655 S
Cd186 O194 2.277 . S
Cd186 O195 2.356 1_655 S
C187 O192 1.209 . S
C187 O194 1.226 . S
O188 Cd184 2.273 . S
O188 Cd186 2.411 . S
O188 C191 1.320 . S
O189 Cd186 2.333 . S
O189 C191 1.214 . S
O190 Cd186 2.352 1_455 S
O190 C193 1.258 . S
C191 O188 1.320 . S
C191 O189 1.214 . S
O192 Cd184 2.277 . S
O192 C187 1.209 . S
C193 O190 1.258 . S
C193 O195 1.282 . S
O194 Cd186 2.277 . S
O194 C187 1.226 . S
O195 Cd186 2.356 1_455 S
O195 C193 1.282 . S
C196 O197 1.306 . S
C196 O199 1.160 . S
O197 C196 1.306 . S
O197 Cd198 2.228 . S
Cd198 O197 2.228 . S
Cd198 O202 2.273 . S
Cd198 O206 2.277 . S
O199 C196 1.160 . S
O199 Cd200 2.203 . S
Cd200 O199 2.203 . S
Cd200 O202 2.411 . S
Cd200 O203 2.333 . S
Cd200 O204 2.352 . S
Cd200 O208 2.277 . S
Cd200 O209 2.356 . S
C201 O206 1.209 . S
C201 O208 1.226 . S
O202 Cd198 2.273 . S
O202 Cd200 2.411 . S
O202 C205 1.320 . S
O203 Cd200 2.333 . S
O203 C205 1.214 . S
O204 Cd200 2.352 . S
O204 C207 1.258 . S
C205 O202 1.320 . S
C205 O203 1.214 . S
O206 Cd198 2.277 . S
O206 C201 1.209 . S
C207 O204 1.258 . S
C207 O209 1.282 . S
O208 Cd200 2.277 . S
O208 C201 1.226 . S
O209 Cd200 2.356 . S
O209 C207 1.282 . S
C210 O211 1.306 . S
C210 O213 1.160 . S
O211 C210 1.306 . S
O211 Cd212 2.228 . S
Cd212 O211 2.228 . S
Cd212 O216 2.273 . S
Cd212 O220 2.277 . S
O213 C210 1.160 . S
O213 Cd214 2.203 . S
Cd214 O213 2.203 . S
Cd214 O216 2.411 . S
Cd214 O217 2.333 . S
Cd214 O218 2.352 . S
Cd214 O222 2.277 . S
Cd214 O223 2.356 . S
C215 O220 1.209 . S
C215 O222 1.226 . S
O216 Cd212 2.273 . S
O216 Cd214 2.411 . S
O216 C219 1.320 . S
O217 Cd214 2.333 . S
O217 C219 1.214 . S
O218 Cd214 2.352 . S
O218 C221 1.258 . S
C219 O216 1.320 . S
C219 O217 1.214 . S
O220 Cd212 2.277 . S
O220 C215 1.209 . S
C221 O218 1.258 . S
C221 O223 1.282 . S
O222 Cd214 2.277 . S
O222 C215 1.226 . S
O223 Cd214 2.356 . S
O223 C221 1.282 . S
C224 O225 1.306 . S
C224 O227 1.160 . S
O225 C224 1.306 . S
O225 Cd226 2.228 . S
Cd226 O225 2.228 . S
Cd226 O230 2.273 . S
Cd226 O234 2.277 . S
O227 C224 1.160 . S
O227 Cd228 2.203 . S
Cd228 O227 2.203 . S
Cd228 O230 2.411 . S
Cd228 O231 2.333 . S
Cd228 O232 2.352 1_545 S
Cd228 O236 2.277 . S
Cd228 O237 2.356 1_545 S
C229 O234 1.209 . S
C229 O236 1.226 . S
O230 Cd226 2.273 . S
O230 Cd228 2.411 . S
O230 C233 1.320 . S
O231 Cd228 2.333 . S
O231 C233 1.214 . S
O232 Cd228 2.352 1_565 S
O232 C235 1.258 . S
C233 O230 1.320 . S
C233 O231 1.214 . S
O234 Cd226 2.277 . S
O234 C229 1.209 . S
C235 O232 1.258 . S
C235 O237 1.282 . S
O236 Cd228 2.277 . S
O236 C229 1.226 . S
O237 Cd228 2.356 1_565 S
O237 C235 1.282 . S
C238 O239 1.306 . S
C238 O241 1.160 . S
O239 C238 1.306 . S
O239 Cd240 2.228 1_455 S
Cd240 O239 2.228 1_655 S
Cd240 O244 2.273 . S
Cd240 O248 2.277 . S
O241 C238 1.160 . S
O241 Cd242 2.203 1_455 S
Cd242 O241 2.203 1_655 S
Cd242 O244 2.411 . S
Cd242 O245 2.333 . S
Cd242 O246 2.352 . S
Cd242 O250 2.277 . S
Cd242 O251 2.356 . S
C243 O248 1.209 . S
C243 O250 1.226 . S
O244 Cd240 2.273 . S
O244 Cd242 2.411 . S
O244 C247 1.320 . S
O245 Cd242 2.333 . S
O245 C247 1.214 . S
O246 Cd242 2.352 . S
O246 C249 1.258 . S
C247 O244 1.320 . S
C247 O245 1.214 . S
O248 Cd240 2.277 . S
O248 C243 1.209 . S
C249 O246 1.258 . S
C249 O251 1.282 . S
O250 Cd242 2.277 . S
O250 C243 1.226 . S
O251 Cd242 2.356 . S
O251 C249 1.282 . S
C252 C253 1.560 . S
C252 H313 0.959 . S
C252 H314 0.959 . S
C252 H315 0.960 . S
C253 C252 1.560 . S
C253 O308 1.426 . S
C253 H312 0.980 . S
C254 C255 1.407 . S
C254 C259 1.418 . S
C254 O308 1.334 . S
C255 C254 1.407 . S
C255 C256 1.360 . S
C255 H316 0.929 . S
C256 C255 1.360 . S
C256 C257 1.401 . S
C256 C260 1.527 . S
C257 C256 1.401 . S
C257 C258 1.405 . S
C257 C290 1.587 . S
C258 C257 1.405 . S
C258 C259 1.332 . S
C258 C261 1.496 . S
C259 C254 1.418 . S
C259 C258 1.332 . S
C259 H317 0.929 . S
C260 C256 1.527 . S
C260 H318 0.959 . S
C260 H319 0.961 . S
C260 H320 0.961 . S
C261 C258 1.496 . S
C261 H321 0.960 . S
C261 H322 0.960 . S
C261 H323 0.961 . S
C262 C263 1.517 . S
C262 H325 0.961 . S
C262 H326 0.960 . S
C262 H327 0.959 . S
C263 C262 1.517 . S
C263 O311 1.468 . S
C263 H324 0.980 . S
C264 C265 1.349 . S
C264 C269 1.367 . S
C264 O311 1.408 . S
C265 C264 1.349 . S
C265 C266 1.407 . S
C265 H328 0.930 . S
C266 C265 1.407 . S
C266 C267 1.449 . S
C266 C270 1.535 . S
C267 C266 1.449 . S
C267 C268 1.384 . S
C267 C292 1.553 . S
C268 C267 1.384 . S
C268 C269 1.364 . S
C268 C271 1.450 . S
C269 C264 1.367 . S
C269 C268 1.364 . S
C269 H329 0.931 . S
C270 C266 1.535 . S
C270 H330 0.959 . S
C270 H331 0.961 . S
C270 H332 0.959 . S
C271 C268 1.450 . S
C271 H333 0.960 . S
C271 H334 0.960 . S
C271 H335 0.960 . S
C272 C273 1.309 . S
C272 C277 1.304 . S
C272 O310 1.435 . S
C273 C272 1.309 . S
C273 C274 1.476 . S
C273 H337 0.930 . S
C274 C273 1.476 . S
C274 C275 1.400 . S
C274 C278 1.567 . S
C275 C274 1.400 . S
C275 C276 1.373 . S
C275 C297 1.432 . S
C276 C275 1.373 . S
C276 C277 1.339 . S
C276 C279 1.530 . S
C277 C272 1.304 . S
C277 C276 1.339 . S
C277 H338 0.930 . S
C278 C274 1.567 . S
C278 H339 0.961 . S
C278 H340 0.960 . S
C278 H341 0.958 . S
C279 C276 1.530 . S
C279 H342 0.961 . S
C279 H343 0.960 . S
C279 H344 0.960 . S
C280 C281 1.530 . S
C280 H346 0.961 . S
C280 H347 0.961 . S
C280 H348 0.959 . S
C281 C280 1.530 . S
C281 O309 1.412 . S
C281 H345 0.980 . S
C282 C283 1.288 . S
C282 C287 1.377 . S
C282 O309 1.393 . S
C283 C282 1.288 . S
C283 C284 1.369 . S
C283 H349 0.932 . S
C284 C283 1.369 . S
C284 C285 1.398 . S
C284 C288 1.527 . S
C285 C284 1.398 . S
C285 C286 1.380 . S
C285 C299 1.497 . S
C286 C285 1.380 . S
C286 C287 1.383 . S
C286 C289 1.603 . S
C287 C282 1.377 . S
C287 C286 1.383 . S
C287 H350 0.929 . S
C288 C284 1.527 . S
C288 H351 0.961 . S
C288 H352 0.959 . S
C288 H353 0.959 . S
C289 C286 1.603 . S
C289 H354 0.960 . S
C289 H355 0.962 . S
C289 H356 0.961 . S
C290 C257 1.587 . S
C290 C291 1.360 . S
C290 C303 1.412 . S
C291 C290 1.360 . S
C291 C292 1.365 . S
C291 H357 0.929 . S
C292 C267 1.553 . S
C292 C291 1.365 . S
C292 C293 1.404 . S
C293 C292 1.404 . S
C293 C294 1.395 . S
C293 C304 1.451 . S
C294 C293 1.395 . S
C294 C295 1.322 . S
C294 H358 0.930 . S
C295 C294 1.322 . S
C295 C296 1.459 . S
C295 H359 0.929 . S
C296 C295 1.459 . S
C296 C297 1.445 . S
C296 C305 1.395 . S
C297 C275 1.432 . S
C297 C296 1.445 . S
C297 C298 1.370 . S
C298 C297 1.370 . S
C298 C299 1.438 . S
C298 H360 0.930 . S
C299 C285 1.497 . S
C299 C298 1.438 . S
C299 C300 1.360 . S
C300 C299 1.360 . S
C300 C301 1.401 . S
C300 C305 1.446 . S
C301 C300 1.401 . S
C301 C302 1.347 . S
C301 H361 0.929 . S
C302 C301 1.347 . S
C302 C303 1.455 . S
C302 H362 0.930 . S
C303 C290 1.412 . S
C303 C302 1.455 . S
C303 C304 1.331 . S
C304 C293 1.451 . S
C304 C303 1.331 . S
C304 C305 1.497 . S
C305 C296 1.395 . S
C305 C300 1.446 . S
C305 C304 1.497 . S
C306 C307 1.582 . S
C306 H363 0.962 . S
C306 H364 0.959 . S
C306 H365 0.958 . S
C307 C306 1.582 . S
C307 O310 1.458 . S
C307 H336 0.980 . S
O308 C253 1.426 . S
O308 C254 1.334 . S
O309 C281 1.412 . S
O309 C282 1.393 . S
O310 C272 1.435 . S
O310 C307 1.458 . S
O311 C263 1.468 . S
O311 C264 1.408 . S
H312 C253 0.980 . S
H313 C252 0.959 . S
H314 C252 0.959 . S
H315 C252 0.960 . S
H316 C255 0.929 . S
H317 C259 0.929 . S
H318 C260 0.959 . S
H319 C260 0.961 . S
H320 C260 0.961 . S
H321 C261 0.960 . S
H322 C261 0.960 . S
H323 C261 0.961 . S
H324 C263 0.980 . S
H325 C262 0.961 . S
H326 C262 0.960 . S
H327 C262 0.959 . S
H328 C265 0.930 . S
H329 C269 0.931 . S
H330 C270 0.959 . S
H331 C270 0.961 . S
H332 C270 0.959 . S
H333 C271 0.960 . S
H334 C271 0.960 . S
H335 C271 0.960 . S
H336 C307 0.980 . S
H337 C273 0.930 . S
H338 C277 0.930 . S
H339 C278 0.961 . S
H340 C278 0.960 . S
H341 C278 0.958 . S
H342 C279 0.961 . S
H343 C279 0.960 . S
H344 C279 0.960 . S
H345 C281 0.980 . S
H346 C280 0.961 . S
H347 C280 0.961 . S
H348 C280 0.959 . S
H349 C283 0.932 . S
H350 C287 0.929 . S
H351 C288 0.961 . S
H352 C288 0.959 . S
H353 C288 0.959 . S
H354 C289 0.960 . S
H355 C289 0.962 . S
H356 C289 0.961 . S
H357 C291 0.929 . S
H358 C294 0.930 . S
H359 C295 0.929 . S
H360 C298 0.930 . S
H361 C301 0.929 . S
H362 C302 0.930 . S
H363 C306 0.962 . S
H364 C306 0.959 . S
H365 C306 0.958 . S
C366 C367 1.560 . S
C366 H427 0.959 . S
C366 H428 0.959 . S
C366 H429 0.960 . S
C367 C366 1.560 . S
C367 O422 1.426 . S
C367 H426 0.980 . S
C368 C369 1.407 . S
C368 C373 1.418 . S
C368 O422 1.334 . S
C369 C368 1.407 . S
C369 C370 1.360 . S
C369 H430 0.929 . S
C370 C369 1.360 . S
C370 C371 1.401 . S
C370 C374 1.527 . S
C371 C370 1.401 . S
C371 C372 1.405 . S
C371 C404 1.587 . S
C372 C371 1.405 . S
C372 C373 1.332 . S
C372 C375 1.496 . S
C373 C368 1.418 . S
C373 C372 1.332 . S
C373 H431 0.929 . S
C374 C370 1.527 . S
C374 H432 0.959 . S
C374 H433 0.961 . S
C374 H434 0.961 . S
C375 C372 1.496 . S
C375 H435 0.960 . S
C375 H436 0.960 . S
C375 H437 0.961 . S
C376 C377 1.517 . S
C376 H439 0.961 . S
C376 H440 0.960 . S
C376 H441 0.959 . S
C377 C376 1.517 . S
C377 O425 1.468 . S
C377 H438 0.980 . S
C378 C379 1.349 . S
C378 C383 1.367 . S
C378 O425 1.408 . S
C379 C378 1.349 . S
C379 C380 1.407 . S
C379 H442 0.930 . S
C380 C379 1.407 . S
C380 C381 1.449 . S
C380 C384 1.535 . S
C381 C380 1.449 . S
C381 C382 1.384 . S
C381 C406 1.553 . S
C382 C381 1.384 . S
C382 C383 1.364 . S
C382 C385 1.450 . S
C383 C378 1.367 . S
C383 C382 1.364 . S
C383 H443 0.931 . S
C384 C380 1.535 . S
C384 H444 0.959 . S
C384 H445 0.961 . S
C384 H446 0.959 . S
C385 C382 1.450 . S
C385 H447 0.960 . S
C385 H448 0.960 . S
C385 H449 0.960 . S
C386 C387 1.309 . S
C386 C391 1.304 . S
C386 O424 1.435 . S
C387 C386 1.309 . S
C387 C388 1.476 . S
C387 H451 0.930 . S
C388 C387 1.476 . S
C388 C389 1.400 . S
C388 C392 1.567 . S
C389 C388 1.400 . S
C389 C390 1.373 . S
C389 C411 1.432 . S
C390 C389 1.373 . S
C390 C391 1.339 . S
C390 C393 1.530 . S
C391 C386 1.304 . S
C391 C390 1.339 . S
C391 H452 0.930 . S
C392 C388 1.567 . S
C392 H453 0.961 . S
C392 H454 0.960 . S
C392 H455 0.958 . S
C393 C390 1.530 . S
C393 H456 0.961 . S
C393 H457 0.960 . S
C393 H458 0.960 . S
C394 C395 1.530 . S
C394 H460 0.961 . S
C394 H461 0.961 . S
C394 H462 0.959 . S
C395 C394 1.530 . S
C395 O423 1.412 . S
C395 H459 0.980 . S
C396 C397 1.288 . S
C396 C401 1.377 . S
C396 O423 1.393 . S
C397 C396 1.288 . S
C397 C398 1.369 . S
C397 H463 0.932 . S
C398 C397 1.369 . S
C398 C399 1.398 . S
C398 C402 1.527 . S
C399 C398 1.398 . S
C399 C400 1.380 . S
C399 C413 1.497 . S
C400 C399 1.380 . S
C400 C401 1.383 . S
C400 C403 1.603 . S
C401 C396 1.377 . S
C401 C400 1.383 . S
C401 H464 0.929 . S
C402 C398 1.527 . S
C402 H465 0.961 . S
C402 H466 0.959 . S
C402 H467 0.959 . S
C403 C400 1.603 . S
C403 H468 0.960 . S
C403 H469 0.962 . S
C403 H470 0.961 . S
C404 C371 1.587 . S
C404 C405 1.360 . S
C404 C417 1.412 . S
C405 C404 1.360 . S
C405 C406 1.365 . S
C405 H471 0.929 . S
C406 C381 1.553 . S
C406 C405 1.365 . S
C406 C407 1.404 . S
C407 C406 1.404 . S
C407 C408 1.395 . S
C407 C418 1.451 . S
C408 C407 1.395 . S
C408 C409 1.322 . S
C408 H472 0.930 . S
C409 C408 1.322 . S
C409 C410 1.459 . S
C409 H473 0.929 . S
C410 C409 1.459 . S
C410 C411 1.445 . S
C410 C419 1.395 . S
C411 C389 1.432 . S
C411 C410 1.445 . S
C411 C412 1.370 . S
C412 C411 1.370 . S
C412 C413 1.438 . S
C412 H474 0.930 . S
C413 C399 1.497 . S
C413 C412 1.438 . S
C413 C414 1.360 . S
C414 C413 1.360 . S
C414 C415 1.401 . S
C414 C419 1.446 . S
C415 C414 1.401 . S
C415 C416 1.347 . S
C415 H475 0.929 . S
C416 C415 1.347 . S
C416 C417 1.455 . S
C416 H476 0.930 . S
C417 C404 1.412 . S
C417 C416 1.455 . S
C417 C418 1.331 . S
C418 C407 1.451 . S
C418 C417 1.331 . S
C418 C419 1.497 . S
C419 C410 1.395 . S
C419 C414 1.446 . S
C419 C418 1.497 . S
C420 C421 1.582 . S
C420 H477 0.962 . S
C420 H478 0.959 . S
C420 H479 0.958 . S
C421 C420 1.582 . S
C421 O424 1.458 . S
C421 H450 0.980 . S
O422 C367 1.426 . S
O422 C368 1.334 . S
O423 C395 1.412 . S
O423 C396 1.393 . S
O424 C386 1.435 . S
O424 C421 1.458 . S
O425 C377 1.468 . S
O425 C378 1.408 . S
H426 C367 0.980 . S
H427 C366 0.959 . S
H428 C366 0.959 . S
H429 C366 0.960 . S
H430 C369 0.929 . S
H431 C373 0.929 . S
H432 C374 0.959 . S
H433 C374 0.961 . S
H434 C374 0.961 . S
H435 C375 0.960 . S
H436 C375 0.960 . S
H437 C375 0.961 . S
H438 C377 0.980 . S
H439 C376 0.961 . S
H440 C376 0.960 . S
H441 C376 0.959 . S
H442 C379 0.930 . S
H443 C383 0.931 . S
H444 C384 0.959 . S
H445 C384 0.961 . S
H446 C384 0.959 . S
H447 C385 0.960 . S
H448 C385 0.960 . S
H449 C385 0.960 . S
H450 C421 0.980 . S
H451 C387 0.930 . S
H452 C391 0.930 . S
H453 C392 0.961 . S
H454 C392 0.960 . S
H455 C392 0.958 . S
H456 C393 0.961 . S
H457 C393 0.960 . S
H458 C393 0.960 . S
H459 C395 0.980 . S
H460 C394 0.961 . S
H461 C394 0.961 . S
H462 C394 0.959 . S
H463 C397 0.932 . S
H464 C401 0.929 . S
H465 C402 0.961 . S
H466 C402 0.959 . S
H467 C402 0.959 . S
H468 C403 0.960 . S
H469 C403 0.962 . S
H470 C403 0.961 . S
H471 C405 0.929 . S
H472 C408 0.930 . S
H473 C409 0.929 . S
H474 C412 0.930 . S
H475 C415 0.929 . S
H476 C416 0.930 . S
H477 C420 0.962 . S
H478 C420 0.959 . S
H479 C420 0.958 . S
C480 C481 1.560 . S
C480 H541 0.959 . S
C480 H542 0.959 . S
C480 H543 0.960 . S
C481 C480 1.560 . S
C481 O536 1.426 . S
C481 H540 0.980 . S
C482 C483 1.407 . S
C482 C487 1.418 . S
C482 O536 1.334 . S
C483 C482 1.407 . S
C483 C484 1.360 . S
C483 H544 0.929 . S
C484 C483 1.360 . S
C484 C485 1.401 . S
C484 C488 1.527 . S
C485 C484 1.401 . S
C485 C486 1.405 . S
C485 C518 1.587 . S
C486 C485 1.405 . S
C486 C487 1.332 . S
C486 C489 1.496 . S
C487 C482 1.418 . S
C487 C486 1.332 . S
C487 H545 0.929 . S
C488 C484 1.527 . S
C488 H546 0.959 . S
C488 H547 0.961 . S
C488 H548 0.961 . S
C489 C486 1.496 . S
C489 H549 0.960 . S
C489 H550 0.960 . S
C489 H551 0.961 . S
C490 C491 1.517 . S
C490 H553 0.961 . S
C490 H554 0.960 . S
C490 H555 0.959 . S
C491 C490 1.517 . S
C491 O539 1.468 . S
C491 H552 0.980 . S
C492 C493 1.349 . S
C492 C497 1.367 . S
C492 O539 1.408 . S
C493 C492 1.349 . S
C493 C494 1.407 . S
C493 H556 0.930 . S
C494 C493 1.407 . S
C494 C495 1.449 . S
C494 C498 1.535 . S
C495 C494 1.449 . S
C495 C496 1.384 . S
C495 C520 1.553 . S
C496 C495 1.384 . S
C496 C497 1.364 . S
C496 C499 1.450 . S
C497 C492 1.367 . S
C497 C496 1.364 . S
C497 H557 0.931 . S
C498 C494 1.535 . S
C498 H558 0.959 . S
C498 H559 0.961 . S
C498 H560 0.959 . S
C499 C496 1.450 . S
C499 H561 0.960 . S
C499 H562 0.960 . S
C499 H563 0.960 . S
C500 C501 1.309 . S
C500 C505 1.304 . S
C500 O538 1.435 . S
C501 C500 1.309 . S
C501 C502 1.476 . S
C501 H565 0.930 . S
C502 C501 1.476 . S
C502 C503 1.400 . S
C502 C506 1.567 . S
C503 C502 1.400 . S
C503 C504 1.373 . S
C503 C525 1.432 . S
C504 C503 1.373 . S
C504 C505 1.339 . S
C504 C507 1.530 . S
C505 C500 1.304 . S
C505 C504 1.339 . S
C505 H566 0.930 . S
C506 C502 1.567 . S
C506 H567 0.961 . S
C506 H568 0.960 . S
C506 H569 0.958 . S
C507 C504 1.530 . S
C507 H570 0.961 . S
C507 H571 0.960 . S
C507 H572 0.960 . S
C508 C509 1.530 . S
C508 H574 0.961 . S
C508 H575 0.961 . S
C508 H576 0.959 . S
C509 C508 1.530 . S
C509 O537 1.412 . S
C509 H573 0.980 . S
C510 C511 1.288 . S
C510 C515 1.377 . S
C510 O537 1.393 . S
C511 C510 1.288 . S
C511 C512 1.369 . S
C511 H577 0.932 . S
C512 C511 1.369 . S
C512 C513 1.398 . S
C512 C516 1.527 . S
C513 C512 1.398 . S
C513 C514 1.380 . S
C513 C527 1.497 . S
C514 C513 1.380 . S
C514 C515 1.383 . S
C514 C517 1.603 . S
C515 C510 1.377 . S
C515 C514 1.383 . S
C515 H578 0.929 . S
C516 C512 1.527 . S
C516 H579 0.961 . S
C516 H580 0.959 . S
C516 H581 0.959 . S
C517 C514 1.603 . S
C517 H582 0.960 . S
C517 H583 0.962 . S
C517 H584 0.961 . S
C518 C485 1.587 . S
C518 C519 1.360 . S
C518 C531 1.412 . S
C519 C518 1.360 . S
C519 C520 1.365 . S
C519 H585 0.929 . S
C520 C495 1.553 . S
C520 C519 1.365 . S
C520 C521 1.404 . S
C521 C520 1.404 . S
C521 C522 1.395 . S
C521 C532 1.451 . S
C522 C521 1.395 . S
C522 C523 1.322 . S
C522 H586 0.930 . S
C523 C522 1.322 . S
C523 C524 1.459 . S
C523 H587 0.929 . S
C524 C523 1.459 . S
C524 C525 1.445 . S
C524 C533 1.395 . S
C525 C503 1.432 . S
C525 C524 1.445 . S
C525 C526 1.370 . S
C526 C525 1.370 . S
C526 C527 1.438 . S
C526 H588 0.930 . S
C527 C513 1.497 . S
C527 C526 1.438 . S
C527 C528 1.360 . S
C528 C527 1.360 . S
C528 C529 1.401 . S
C528 C533 1.446 . S
C529 C528 1.401 . S
C529 C530 1.347 . S
C529 H589 0.929 . S
C530 C529 1.347 . S
C530 C531 1.455 . S
C530 H590 0.930 . S
C531 C518 1.412 . S
C531 C530 1.455 . S
C531 C532 1.331 . S
C532 C521 1.451 . S
C532 C531 1.331 . S
C532 C533 1.497 . S
C533 C524 1.395 . S
C533 C528 1.446 . S
C533 C532 1.497 . S
C534 C535 1.582 . S
C534 H591 0.962 . S
C534 H592 0.959 . S
C534 H593 0.958 . S
C535 C534 1.582 . S
C535 O538 1.458 . S
C535 H564 0.980 . S
O536 C481 1.426 . S
O536 C482 1.334 . S
O537 C509 1.412 . S
O537 C510 1.393 . S
O538 C500 1.435 . S
O538 C535 1.458 . S
O539 C491 1.468 . S
O539 C492 1.408 . S
H540 C481 0.980 . S
H541 C480 0.959 . S
H542 C480 0.959 . S
H543 C480 0.960 . S
H544 C483 0.929 . S
H545 C487 0.929 . S
H546 C488 0.959 . S
H547 C488 0.961 . S
H548 C488 0.961 . S
H549 C489 0.960 . S
H550 C489 0.960 . S
H551 C489 0.961 . S
H552 C491 0.980 . S
H553 C490 0.961 . S
H554 C490 0.960 . S
H555 C490 0.959 . S
H556 C493 0.930 . S
H557 C497 0.931 . S
H558 C498 0.959 . S
H559 C498 0.961 . S
H560 C498 0.959 . S
H561 C499 0.960 . S
H562 C499 0.960 . S
H563 C499 0.960 . S
H564 C535 0.980 . S
H565 C501 0.930 . S
H566 C505 0.930 . S
H567 C506 0.961 . S
H568 C506 0.960 . S
H569 C506 0.958 . S
H570 C507 0.961 . S
H571 C507 0.960 . S
H572 C507 0.960 . S
H573 C509 0.980 . S
H574 C508 0.961 . S
H575 C508 0.961 . S
H576 C508 0.959 . S
H577 C511 0.932 . S
H578 C515 0.929 . S
H579 C516 0.961 . S
H580 C516 0.959 . S
H581 C516 0.959 . S
H582 C517 0.960 . S
H583 C517 0.962 . S
H584 C517 0.961 . S
H585 C519 0.929 . S
H586 C522 0.930 . S
H587 C523 0.929 . S
H588 C526 0.930 . S
H589 C529 0.929 . S
H590 C530 0.930 . S
H591 C534 0.962 . S
H592 C534 0.959 . S
H593 C534 0.958 . S
C594 C595 1.560 . S
C594 H655 0.959 . S
C594 H656 0.959 . S
C594 H657 0.960 . S
C595 C594 1.560 . S
C595 O650 1.426 . S
C595 H654 0.980 . S
C596 C597 1.407 . S
C596 C601 1.418 . S
C596 O650 1.334 . S
C597 C596 1.407 . S
C597 C598 1.360 . S
C597 H658 0.929 . S
C598 C597 1.360 . S
C598 C599 1.401 . S
C598 C602 1.527 . S
C599 C598 1.401 . S
C599 C600 1.405 . S
C599 C632 1.587 . S
C600 C599 1.405 . S
C600 C601 1.332 . S
C600 C603 1.496 . S
C601 C596 1.418 . S
C601 C600 1.332 . S
C601 H659 0.929 . S
C602 C598 1.527 . S
C602 H660 0.959 . S
C602 H661 0.961 . S
C602 H662 0.961 . S
C603 C600 1.496 . S
C603 H663 0.960 . S
C603 H664 0.960 . S
C603 H665 0.961 . S
C604 C605 1.517 . S
C604 H667 0.961 . S
C604 H668 0.960 . S
C604 H669 0.959 . S
C605 C604 1.517 . S
C605 O653 1.468 . S
C605 H666 0.980 . S
C606 C607 1.349 . S
C606 C611 1.367 . S
C606 O653 1.408 . S
C607 C606 1.349 . S
C607 C608 1.407 . S
C607 H670 0.930 . S
C608 C607 1.407 . S
C608 C609 1.449 . S
C608 C612 1.535 . S
C609 C608 1.449 . S
C609 C610 1.384 . S
C609 C634 1.553 . S
C610 C609 1.384 . S
C610 C611 1.364 . S
C610 C613 1.450 . S
C611 C606 1.367 . S
C611 C610 1.364 . S
C611 H671 0.931 . S
C612 C608 1.535 . S
C612 H672 0.959 . S
C612 H673 0.961 . S
C612 H674 0.959 . S
C613 C610 1.450 . S
C613 H675 0.960 . S
C613 H676 0.960 . S
C613 H677 0.960 . S
C614 C615 1.309 . S
C614 C619 1.304 . S
C614 O652 1.435 . S
C615 C614 1.309 . S
C615 C616 1.476 . S
C615 H679 0.930 . S
C616 C615 1.476 . S
C616 C617 1.400 . S
C616 C620 1.567 . S
C617 C616 1.400 . S
C617 C618 1.373 . S
C617 C639 1.432 . S
C618 C617 1.373 . S
C618 C619 1.339 . S
C618 C621 1.530 . S
C619 C614 1.304 . S
C619 C618 1.339 . S
C619 H680 0.930 . S
C620 C616 1.567 . S
C620 H681 0.961 . S
C620 H682 0.960 . S
C620 H683 0.958 . S
C621 C618 1.530 . S
C621 H684 0.961 . S
C621 H685 0.960 . S
C621 H686 0.960 . S
C622 C623 1.530 . S
C622 H688 0.961 . S
C622 H689 0.961 . S
C622 H690 0.959 . S
C623 C622 1.530 . S
C623 O651 1.412 . S
C623 H687 0.980 . S
C624 C625 1.288 . S
C624 C629 1.377 . S
C624 O651 1.393 . S
C625 C624 1.288 . S
C625 C626 1.369 . S
C625 H691 0.932 . S
C626 C625 1.369 . S
C626 C627 1.398 . S
C626 C630 1.527 . S
C627 C626 1.398 . S
C627 C628 1.380 . S
C627 C641 1.497 . S
C628 C627 1.380 . S
C628 C629 1.383 . S
C628 C631 1.603 . S
C629 C624 1.377 . S
C629 C628 1.383 . S
C629 H692 0.929 . S
C630 C626 1.527 . S
C630 H693 0.961 . S
C630 H694 0.959 . S
C630 H695 0.959 . S
C631 C628 1.603 . S
C631 H696 0.960 . S
C631 H697 0.962 . S
C631 H698 0.961 . S
C632 C599 1.587 . S
C632 C633 1.360 . S
C632 C645 1.412 . S
C633 C632 1.360 . S
C633 C634 1.365 . S
C633 H699 0.929 . S
C634 C609 1.553 . S
C634 C633 1.365 . S
C634 C635 1.404 . S
C635 C634 1.404 . S
C635 C636 1.395 . S
C635 C646 1.451 . S
C636 C635 1.395 . S
C636 C637 1.322 . S
C636 H700 0.930 . S
C637 C636 1.322 . S
C637 C638 1.459 . S
C637 H701 0.929 . S
C638 C637 1.459 . S
C638 C639 1.445 . S
C638 C647 1.395 . S
C639 C617 1.432 . S
C639 C638 1.445 . S
C639 C640 1.370 . S
C640 C639 1.370 . S
C640 C641 1.438 . S
C640 H702 0.930 . S
C641 C627 1.497 . S
C641 C640 1.438 . S
C641 C642 1.360 . S
C642 C641 1.360 . S
C642 C643 1.401 . S
C642 C647 1.446 . S
C643 C642 1.401 . S
C643 C644 1.347 . S
C643 H703 0.929 . S
C644 C643 1.347 . S
C644 C645 1.455 . S
C644 H704 0.930 . S
C645 C632 1.412 . S
C645 C644 1.455 . S
C645 C646 1.331 . S
C646 C635 1.451 . S
C646 C645 1.331 . S
C646 C647 1.497 . S
C647 C638 1.395 . S
C647 C642 1.446 . S
C647 C646 1.497 . S
C648 C649 1.582 . S
C648 H705 0.962 . S
C648 H706 0.959 . S
C648 H707 0.958 . S
C649 C648 1.582 . S
C649 O652 1.458 . S
C649 H678 0.980 . S
O650 C595 1.426 . S
O650 C596 1.334 . S
O651 C623 1.412 . S
O651 C624 1.393 . S
O652 C614 1.435 . S
O652 C649 1.458 . S
O653 C605 1.468 . S
O653 C606 1.408 . S
H654 C595 0.980 . S
H655 C594 0.959 . S
H656 C594 0.959 . S
H657 C594 0.960 . S
H658 C597 0.929 . S
H659 C601 0.929 . S
H660 C602 0.959 . S
H661 C602 0.961 . S
H662 C602 0.961 . S
H663 C603 0.960 . S
H664 C603 0.960 . S
H665 C603 0.961 . S
H666 C605 0.980 . S
H667 C604 0.961 . S
H668 C604 0.960 . S
H669 C604 0.959 . S
H670 C607 0.930 . S
H671 C611 0.931 . S
H672 C612 0.959 . S
H673 C612 0.961 . S
H674 C612 0.959 . S
H675 C613 0.960 . S
H676 C613 0.960 . S
H677 C613 0.960 . S
H678 C649 0.980 . S
H679 C615 0.930 . S
H680 C619 0.930 . S
H681 C620 0.961 . S
H682 C620 0.960 . S
H683 C620 0.958 . S
H684 C621 0.961 . S
H685 C621 0.960 . S
H686 C621 0.960 . S
H687 C623 0.980 . S
H688 C622 0.961 . S
H689 C622 0.961 . S
H690 C622 0.959 . S
H691 C625 0.932 . S
H692 C629 0.929 . S
H693 C630 0.961 . S
H694 C630 0.959 . S
H695 C630 0.959 . S
H696 C631 0.960 . S
H697 C631 0.962 . S
H698 C631 0.961 . S
H699 C633 0.929 . S
H700 C636 0.930 . S
H701 C637 0.929 . S
H702 C640 0.930 . S
H703 C643 0.929 . S
H704 C644 0.930 . S
H705 C648 0.962 . S
H706 C648 0.959 . S
H707 C648 0.958 . S
C708 C709 1.560 . S
C708 H769 0.959 . S
C708 H770 0.959 . S
C708 H771 0.960 . S
C709 C708 1.560 . S
C709 O764 1.426 . S
C709 H768 0.980 . S
C710 C711 1.407 . S
C710 C715 1.418 . S
C710 O764 1.334 . S
C711 C710 1.407 . S
C711 C712 1.360 . S
C711 H772 0.929 . S
C712 C711 1.360 . S
C712 C713 1.401 . S
C712 C716 1.527 . S
C713 C712 1.401 . S
C713 C714 1.405 . S
C713 C746 1.587 . S
C714 C713 1.405 . S
C714 C715 1.332 . S
C714 C717 1.496 . S
C715 C710 1.418 . S
C715 C714 1.332 . S
C715 H773 0.929 . S
C716 C712 1.527 . S
C716 H774 0.959 . S
C716 H775 0.961 . S
C716 H776 0.961 . S
C717 C714 1.496 . S
C717 H777 0.960 . S
C717 H778 0.960 . S
C717 H779 0.961 . S
C718 C719 1.517 . S
C718 H781 0.961 . S
C718 H782 0.960 . S
C718 H783 0.959 . S
C719 C718 1.517 . S
C719 O767 1.468 . S
C719 H780 0.980 . S
C720 C721 1.349 . S
C720 C725 1.367 . S
C720 O767 1.408 . S
C721 C720 1.349 . S
C721 C722 1.407 . S
C721 H784 0.930 . S
C722 C721 1.407 . S
C722 C723 1.449 . S
C722 C726 1.535 . S
C723 C722 1.449 . S
C723 C724 1.384 . S
C723 C748 1.553 . S
C724 C723 1.384 . S
C724 C725 1.364 . S
C724 C727 1.450 . S
C725 C720 1.367 . S
C725 C724 1.364 . S
C725 H785 0.931 . S
C726 C722 1.535 . S
C726 H786 0.959 . S
C726 H787 0.961 . S
C726 H788 0.959 . S
C727 C724 1.450 . S
C727 H789 0.960 . S
C727 H790 0.960 . S
C727 H791 0.960 . S
C728 C729 1.309 . S
C728 C733 1.304 . S
C728 O766 1.435 . S
C729 C728 1.309 . S
C729 C730 1.476 . S
C729 H793 0.930 . S
C730 C729 1.476 . S
C730 C731 1.400 . S
C730 C734 1.567 . S
C731 C730 1.400 . S
C731 C732 1.373 . S
C731 C753 1.432 . S
C732 C731 1.373 . S
C732 C733 1.339 . S
C732 C735 1.530 . S
C733 C728 1.304 . S
C733 C732 1.339 . S
C733 H794 0.930 . S
C734 C730 1.567 . S
C734 H795 0.961 . S
C734 H796 0.960 . S
C734 H797 0.958 . S
C735 C732 1.530 . S
C735 H798 0.961 . S
C735 H799 0.960 . S
C735 H800 0.960 . S
C736 C737 1.530 . S
C736 H802 0.961 . S
C736 H803 0.961 . S
C736 H804 0.959 . S
C737 C736 1.530 . S
C737 O765 1.412 . S
C737 H801 0.980 . S
C738 C739 1.288 . S
C738 C743 1.377 . S
C738 O765 1.393 . S
C739 C738 1.288 . S
C739 C740 1.369 . S
C739 H805 0.932 . S
C740 C739 1.369 . S
C740 C741 1.398 . S
C740 C744 1.527 . S
C741 C740 1.398 . S
C741 C742 1.380 . S
C741 C755 1.497 . S
C742 C741 1.380 . S
C742 C743 1.383 . S
C742 C745 1.603 . S
C743 C738 1.377 . S
C743 C742 1.383 . S
C743 H806 0.929 . S
C744 C740 1.527 . S
C744 H807 0.961 . S
C744 H808 0.959 . S
C744 H809 0.959 . S
C745 C742 1.603 . S
C745 H810 0.960 . S
C745 H811 0.962 . S
C745 H812 0.961 . S
C746 C713 1.587 . S
C746 C747 1.360 . S
C746 C759 1.412 . S
C747 C746 1.360 . S
C747 C748 1.365 . S
C747 H813 0.929 . S
C748 C723 1.553 . S
C748 C747 1.365 . S
C748 C749 1.404 . S
C749 C748 1.404 . S
C749 C750 1.395 . S
C749 C760 1.451 . S
C750 C749 1.395 . S
C750 C751 1.322 . S
C750 H814 0.930 . S
C751 C750 1.322 . S
C751 C752 1.459 . S
C751 H815 0.929 . S
C752 C751 1.459 . S
C752 C753 1.445 . S
C752 C761 1.395 . S
C753 C731 1.432 . S
C753 C752 1.445 . S
C753 C754 1.370 . S
C754 C753 1.370 . S
C754 C755 1.438 . S
C754 H816 0.930 . S
C755 C741 1.497 . S
C755 C754 1.438 . S
C755 C756 1.360 . S
C756 C755 1.360 . S
C756 C757 1.401 . S
C756 C761 1.446 . S
C757 C756 1.401 . S
C757 C758 1.347 . S
C757 H817 0.929 . S
C758 C757 1.347 . S
C758 C759 1.455 . S
C758 H818 0.930 . S
C759 C746 1.412 . S
C759 C758 1.455 . S
C759 C760 1.331 . S
C760 C749 1.451 . S
C760 C759 1.331 . S
C760 C761 1.497 . S
C761 C752 1.395 . S
C761 C756 1.446 . S
C761 C760 1.497 . S
C762 C763 1.582 . S
C762 H819 0.962 . S
C762 H820 0.959 . S
C762 H821 0.958 . S
C763 C762 1.582 . S
C763 O766 1.458 . S
C763 H792 0.980 . S
O764 C709 1.426 . S
O764 C710 1.334 . S
O765 C737 1.412 . S
O765 C738 1.393 . S
O766 C728 1.435 . S
O766 C763 1.458 . S
O767 C719 1.468 . S
O767 C720 1.408 . S
H768 C709 0.980 . S
H769 C708 0.959 . S
H770 C708 0.959 . S
H771 C708 0.960 . S
H772 C711 0.929 . S
H773 C715 0.929 . S
H774 C716 0.959 . S
H775 C716 0.961 . S
H776 C716 0.961 . S
H777 C717 0.960 . S
H778 C717 0.960 . S
H779 C717 0.961 . S
H780 C719 0.980 . S
H781 C718 0.961 . S
H782 C718 0.960 . S
H783 C718 0.959 . S
H784 C721 0.930 . S
H785 C725 0.931 . S
H786 C726 0.959 . S
H787 C726 0.961 . S
H788 C726 0.959 . S
H789 C727 0.960 . S
H790 C727 0.960 . S
H791 C727 0.960 . S
H792 C763 0.980 . S
H793 C729 0.930 . S
H794 C733 0.930 . S
H795 C734 0.961 . S
H796 C734 0.960 . S
H797 C734 0.958 . S
H798 C735 0.961 . S
H799 C735 0.960 . S
H800 C735 0.960 . S
H801 C737 0.980 . S
H802 C736 0.961 . S
H803 C736 0.961 . S
H804 C736 0.959 . S
H805 C739 0.932 . S
H806 C743 0.929 . S
H807 C744 0.961 . S
H808 C744 0.959 . S
H809 C744 0.959 . S
H810 C745 0.960 . S
H811 C745 0.962 . S
H812 C745 0.961 . S
H813 C747 0.929 . S
H814 C750 0.930 . S
H815 C751 0.929 . S
H816 C754 0.930 . S
H817 C757 0.929 . S
H818 C758 0.930 . S
H819 C762 0.962 . S
H820 C762 0.959 . S
H821 C762 0.958 . S
C822 C823 1.560 . S
C822 H883 0.959 . S
C822 H884 0.959 . S
C822 H885 0.960 . S
C823 C822 1.560 . S
C823 O878 1.426 . S
C823 H882 0.980 . S
C824 C825 1.407 . S
C824 C829 1.418 . S
C824 O878 1.334 . S
C825 C824 1.407 . S
C825 C826 1.360 . S
C825 H886 0.929 . S
C826 C825 1.360 . S
C826 C827 1.401 . S
C826 C830 1.527 . S
C827 C826 1.401 . S
C827 C828 1.405 . S
C827 C860 1.587 . S
C828 C827 1.405 . S
C828 C829 1.332 . S
C828 C831 1.496 . S
C829 C824 1.418 . S
C829 C828 1.332 . S
C829 H887 0.929 . S
C830 C826 1.527 . S
C830 H888 0.959 . S
C830 H889 0.961 . S
C830 H890 0.961 . S
C831 C828 1.496 . S
C831 H891 0.960 . S
C831 H892 0.960 . S
C831 H893 0.961 . S
C832 C833 1.517 . S
C832 H895 0.961 . S
C832 H896 0.960 . S
C832 H897 0.959 . S
C833 C832 1.517 . S
C833 O881 1.468 . S
C833 H894 0.980 . S
C834 C835 1.349 . S
C834 C839 1.367 . S
C834 O881 1.408 . S
C835 C834 1.349 . S
C835 C836 1.407 . S
C835 H898 0.930 . S
C836 C835 1.407 . S
C836 C837 1.449 . S
C836 C840 1.535 . S
C837 C836 1.449 . S
C837 C838 1.384 . S
C837 C862 1.553 . S
C838 C837 1.384 . S
C838 C839 1.364 . S
C838 C841 1.450 . S
C839 C834 1.367 . S
C839 C838 1.364 . S
C839 H899 0.931 . S
C840 C836 1.535 . S
C840 H900 0.959 . S
C840 H901 0.961 . S
C840 H902 0.959 . S
C841 C838 1.450 . S
C841 H903 0.960 . S
C841 H904 0.960 . S
C841 H905 0.960 . S
C842 C843 1.309 . S
C842 C847 1.304 . S
C842 O880 1.435 . S
C843 C842 1.309 . S
C843 C844 1.476 . S
C843 H907 0.930 . S
C844 C843 1.476 . S
C844 C845 1.400 . S
C844 C848 1.567 . S
C845 C844 1.400 . S
C845 C846 1.373 . S
C845 C867 1.432 . S
C846 C845 1.373 . S
C846 C847 1.339 . S
C846 C849 1.530 . S
C847 C842 1.304 . S
C847 C846 1.339 . S
C847 H908 0.930 . S
C848 C844 1.567 . S
C848 H909 0.961 . S
C848 H910 0.960 . S
C848 H911 0.958 . S
C849 C846 1.530 . S
C849 H912 0.961 . S
C849 H913 0.960 . S
C849 H914 0.960 . S
C850 C851 1.530 . S
C850 H916 0.961 . S
C850 H917 0.961 . S
C850 H918 0.959 . S
C851 C850 1.530 . S
C851 O879 1.412 . S
C851 H915 0.980 . S
C852 C853 1.288 . S
C852 C857 1.377 . S
C852 O879 1.393 . S
C853 C852 1.288 . S
C853 C854 1.369 . S
C853 H919 0.932 . S
C854 C853 1.369 . S
C854 C855 1.398 . S
C854 C858 1.527 . S
C855 C854 1.398 . S
C855 C856 1.380 . S
C855 C869 1.497 . S
C856 C855 1.380 . S
C856 C857 1.383 . S
C856 C859 1.603 . S
C857 C852 1.377 . S
C857 C856 1.383 . S
C857 H920 0.929 . S
C858 C854 1.527 . S
C858 H921 0.961 . S
C858 H922 0.959 . S
C858 H923 0.959 . S
C859 C856 1.603 . S
C859 H924 0.960 . S
C859 H925 0.962 . S
C859 H926 0.961 . S
C860 C827 1.587 . S
C860 C861 1.360 . S
C860 C873 1.412 . S
C861 C860 1.360 . S
C861 C862 1.365 . S
C861 H927 0.929 . S
C862 C837 1.553 . S
C862 C861 1.365 . S
C862 C863 1.404 . S
C863 C862 1.404 . S
C863 C864 1.395 . S
C863 C874 1.451 . S
C864 C863 1.395 . S
C864 C865 1.322 . S
C864 H928 0.930 . S
C865 C864 1.322 . S
C865 C866 1.459 . S
C865 H929 0.929 . S
C866 C865 1.459 . S
C866 C867 1.445 . S
C866 C875 1.395 . S
C867 C845 1.432 . S
C867 C866 1.445 . S
C867 C868 1.370 . S
C868 C867 1.370 . S
C868 C869 1.438 . S
C868 H930 0.930 . S
C869 C855 1.497 . S
C869 C868 1.438 . S
C869 C870 1.360 . S
C870 C869 1.360 . S
C870 C871 1.401 . S
C870 C875 1.446 . S
C871 C870 1.401 . S
C871 C872 1.347 . S
C871 H931 0.929 . S
C872 C871 1.347 . S
C872 C873 1.455 . S
C872 H932 0.930 . S
C873 C860 1.412 . S
C873 C872 1.455 . S
C873 C874 1.331 . S
C874 C863 1.451 . S
C874 C873 1.331 . S
C874 C875 1.497 . S
C875 C866 1.395 . S
C875 C870 1.446 . S
C875 C874 1.497 . S
C876 C877 1.582 . S
C876 H933 0.962 . S
C876 H934 0.959 . S
C876 H935 0.958 . S
C877 C876 1.582 . S
C877 O880 1.458 . S
C877 H906 0.980 . S
O878 C823 1.426 . S
O878 C824 1.334 . S
O879 C851 1.412 . S
O879 C852 1.393 . S
O880 C842 1.435 . S
O880 C877 1.458 . S
O881 C833 1.468 . S
O881 C834 1.408 . S
H882 C823 0.980 . S
H883 C822 0.959 . S
H884 C822 0.959 . S
H885 C822 0.960 . S
H886 C825 0.929 . S
H887 C829 0.929 . S
H888 C830 0.959 . S
H889 C830 0.961 . S
H890 C830 0.961 . S
H891 C831 0.960 . S
H892 C831 0.960 . S
H893 C831 0.961 . S
H894 C833 0.980 . S
H895 C832 0.961 . S
H896 C832 0.960 . S
H897 C832 0.959 . S
H898 C835 0.930 . S
H899 C839 0.931 . S
H900 C840 0.959 . S
H901 C840 0.961 . S
H902 C840 0.959 . S
H903 C841 0.960 . S
H904 C841 0.960 . S
H905 C841 0.960 . S
H906 C877 0.980 . S
H907 C843 0.930 . S
H908 C847 0.930 . S
H909 C848 0.961 . S
H910 C848 0.960 . S
H911 C848 0.958 . S
H912 C849 0.961 . S
H913 C849 0.960 . S
H914 C849 0.960 . S
H915 C851 0.980 . S
H916 C850 0.961 . S
H917 C850 0.961 . S
H918 C850 0.959 . S
H919 C853 0.932 . S
H920 C857 0.929 . S
H921 C858 0.961 . S
H922 C858 0.959 . S
H923 C858 0.959 . S
H924 C859 0.960 . S
H925 C859 0.962 . S
H926 C859 0.961 . S
H927 C861 0.929 . S
H928 C864 0.930 . S
H929 C865 0.929 . S
H930 C868 0.930 . S
H931 C871 0.929 . S
H932 C872 0.930 . S
H933 C876 0.962 . S
H934 C876 0.959 . S
H935 C876 0.958 . S
C936 C937 1.560 . S
C936 H997 0.959 . S
C936 H998 0.959 . S
C936 H999 0.960 . S
C937 C936 1.560 . S
C937 O992 1.426 . S
C937 H996 0.980 . S
C938 C939 1.407 . S
C938 C943 1.418 . S
C938 O992 1.334 . S
C939 C938 1.407 . S
C939 C940 1.360 . S
C939 H1000 0.929 . S
C940 C939 1.360 . S
C940 C941 1.401 . S
C940 C944 1.527 . S
C941 C940 1.401 . S
C941 C942 1.405 . S
C941 C974 1.587 . S
C942 C941 1.405 . S
C942 C943 1.332 . S
C942 C945 1.496 . S
C943 C938 1.418 . S
C943 C942 1.332 . S
C943 H1001 0.929 . S
C944 C940 1.527 . S
C944 H1002 0.959 . S
C944 H1003 0.961 . S
C944 H1004 0.961 . S
C945 C942 1.496 . S
C945 H1005 0.960 . S
C945 H1006 0.960 . S
C945 H1007 0.961 . S
C946 C947 1.517 . S
C946 H1009 0.961 . S
C946 H1010 0.960 . S
C946 H1011 0.959 . S
C947 C946 1.517 . S
C947 O995 1.468 . S
C947 H1008 0.980 . S
C948 C949 1.349 . S
C948 C953 1.367 . S
C948 O995 1.408 . S
C949 C948 1.349 . S
C949 C950 1.407 . S
C949 H1012 0.930 . S
C950 C949 1.407 . S
C950 C951 1.449 . S
C950 C954 1.535 . S
C951 C950 1.449 . S
C951 C952 1.384 . S
C951 C976 1.553 . S
C952 C951 1.384 . S
C952 C953 1.364 . S
C952 C955 1.450 . S
C953 C948 1.367 . S
C953 C952 1.364 . S
C953 H1013 0.931 . S
C954 C950 1.535 . S
C954 H1014 0.959 . S
C954 H1015 0.961 . S
C954 H1016 0.959 . S
C955 C952 1.450 . S
C955 H1017 0.960 . S
C955 H1018 0.960 . S
C955 H1019 0.960 . S
C956 C957 1.309 . S
C956 C961 1.304 . S
C956 O994 1.435 . S
C957 C956 1.309 . S
C957 C958 1.476 . S
C957 H1021 0.930 . S
C958 C957 1.476 . S
C958 C959 1.400 . S
C958 C962 1.567 . S
C959 C958 1.400 . S
C959 C960 1.373 . S
C959 C981 1.432 . S
C960 C959 1.373 . S
C960 C961 1.339 . S
C960 C963 1.530 . S
C961 C956 1.304 . S
C961 C960 1.339 . S
C961 H1022 0.930 . S
C962 C958 1.567 . S
C962 H1023 0.961 . S
C962 H1024 0.960 . S
C962 H1025 0.958 . S
C963 C960 1.530 . S
C963 H1026 0.961 . S
C963 H1027 0.960 . S
C963 H1028 0.960 . S
C964 C965 1.530 . S
C964 H1030 0.961 . S
C964 H1031 0.961 . S
C964 H1032 0.959 . S
C965 C964 1.530 . S
C965 O993 1.412 . S
C965 H1029 0.980 . S
C966 C967 1.288 . S
C966 C971 1.377 . S
C966 O993 1.393 . S
C967 C966 1.288 . S
C967 C968 1.369 . S
C967 H1033 0.932 . S
C968 C967 1.369 . S
C968 C969 1.398 . S
C968 C972 1.527 . S
C969 C968 1.398 . S
C969 C970 1.380 . S
C969 C983 1.497 . S
C970 C969 1.380 . S
C970 C971 1.383 . S
C970 C973 1.603 . S
C971 C966 1.377 . S
C971 C970 1.383 . S
C971 H1034 0.929 . S
C972 C968 1.527 . S
C972 H1035 0.961 . S
C972 H1036 0.959 . S
C972 H1037 0.959 . S
C973 C970 1.603 . S
C973 H1038 0.960 . S
C973 H1039 0.962 . S
C973 H1040 0.961 . S
C974 C941 1.587 . S
C974 C975 1.360 . S
C974 C987 1.412 . S
C975 C974 1.360 . S
C975 C976 1.365 . S
C975 H1041 0.929 . S
C976 C951 1.553 . S
C976 C975 1.365 . S
C976 C977 1.404 . S
C977 C976 1.404 . S
C977 C978 1.395 . S
C977 C988 1.451 . S
C978 C977 1.395 . S
C978 C979 1.322 . S
C978 H1042 0.930 . S
C979 C978 1.322 . S
C979 C980 1.459 . S
C979 H1043 0.929 . S
C980 C979 1.459 . S
C980 C981 1.445 . S
C980 C989 1.395 . S
C981 C959 1.432 . S
C981 C980 1.445 . S
C981 C982 1.370 . S
C982 C981 1.370 . S
C982 C983 1.438 . S
C982 H1044 0.930 . S
C983 C969 1.497 . S
C983 C982 1.438 . S
C983 C984 1.360 . S
C984 C983 1.360 . S
C984 C985 1.401 . S
C984 C989 1.446 . S
C985 C984 1.401 . S
C985 C986 1.347 . S
C985 H1045 0.929 . S
C986 C985 1.347 . S
C986 C987 1.455 . S
C986 H1046 0.930 . S
C987 C974 1.412 . S
C987 C986 1.455 . S
C987 C988 1.331 . S
C988 C977 1.451 . S
C988 C987 1.331 . S
C988 C989 1.497 . S
C989 C980 1.395 . S
C989 C984 1.446 . S
C989 C988 1.497 . S
C990 C991 1.582 . S
C990 H1047 0.962 . S
C990 H1048 0.959 . S
C990 H1049 0.958 . S
C991 C990 1.582 . S
C991 O994 1.458 . S
C991 H1020 0.980 . S
O992 C937 1.426 . S
O992 C938 1.334 . S
O993 C965 1.412 . S
O993 C966 1.393 . S
O994 C956 1.435 . S
O994 C991 1.458 . S
O995 C947 1.468 . S
O995 C948 1.408 . S
H996 C937 0.980 . S
H997 C936 0.959 . S
H998 C936 0.959 . S
H999 C936 0.960 . S
H1000 C939 0.929 . S
H1001 C943 0.929 . S
H1002 C944 0.959 . S
H1003 C944 0.961 . S
H1004 C944 0.961 . S
H1005 C945 0.960 . S
H1006 C945 0.960 . S
H1007 C945 0.961 . S
H1008 C947 0.980 . S
H1009 C946 0.961 . S
H1010 C946 0.960 . S
H1011 C946 0.959 . S
H1012 C949 0.930 . S
H1013 C953 0.931 . S
H1014 C954 0.959 . S
H1015 C954 0.961 . S
H1016 C954 0.959 . S
H1017 C955 0.960 . S
H1018 C955 0.960 . S
H1019 C955 0.960 . S
H1020 C991 0.980 . S
H1021 C957 0.930 . S
H1022 C961 0.930 . S
H1023 C962 0.961 . S
H1024 C962 0.960 . S
H1025 C962 0.958 . S
H1026 C963 0.961 . S
H1027 C963 0.960 . S
H1028 C963 0.960 . S
H1029 C965 0.980 . S
H1030 C964 0.961 . S
H1031 C964 0.961 . S
H1032 C964 0.959 . S
H1033 C967 0.932 . S
H1034 C971 0.929 . S
H1035 C972 0.961 . S
H1036 C972 0.959 . S
H1037 C972 0.959 . S
H1038 C973 0.960 . S
H1039 C973 0.962 . S
H1040 C973 0.961 . S
H1041 C975 0.929 . S
H1042 C978 0.930 . S
H1043 C979 0.929 . S
H1044 C982 0.930 . S
H1045 C985 0.929 . S
H1046 C986 0.930 . S
H1047 C990 0.962 . S
H1048 C990 0.959 . S
H1049 C990 0.958 . S
C1050 C1051 1.560 . S
C1050 H1111 0.959 . S
C1050 H1112 0.959 . S
C1050 H1113 0.960 . S
C1051 C1050 1.560 . S
C1051 O1106 1.426 . S
C1051 H1110 0.980 . S
C1052 C1053 1.407 . S
C1052 C1057 1.418 . S
C1052 O1106 1.334 . S
C1053 C1052 1.407 . S
C1053 C1054 1.360 . S
C1053 H1114 0.929 . S
C1054 C1053 1.360 . S
C1054 C1055 1.401 . S
C1054 C1058 1.527 . S
C1055 C1054 1.401 . S
C1055 C1056 1.405 . S
C1055 C1088 1.587 . S
C1056 C1055 1.405 . S
C1056 C1057 1.332 . S
C1056 C1059 1.496 . S
C1057 C1052 1.418 . S
C1057 C1056 1.332 . S
C1057 H1115 0.929 . S
C1058 C1054 1.527 . S
C1058 H1116 0.959 . S
C1058 H1117 0.961 . S
C1058 H1118 0.961 . S
C1059 C1056 1.496 . S
C1059 H1119 0.960 . S
C1059 H1120 0.960 . S
C1059 H1121 0.961 . S
C1060 C1061 1.517 . S
C1060 H1123 0.961 . S
C1060 H1124 0.960 . S
C1060 H1125 0.959 . S
C1061 C1060 1.517 . S
C1061 O1109 1.468 . S
C1061 H1122 0.980 . S
C1062 C1063 1.349 . S
C1062 C1067 1.367 . S
C1062 O1109 1.408 . S
C1063 C1062 1.349 . S
C1063 C1064 1.407 . S
C1063 H1126 0.930 . S
C1064 C1063 1.407 . S
C1064 C1065 1.449 . S
C1064 C1068 1.535 . S
C1065 C1064 1.449 . S
C1065 C1066 1.384 . S
C1065 C1090 1.553 . S
C1066 C1065 1.384 . S
C1066 C1067 1.364 . S
C1066 C1069 1.450 . S
C1067 C1062 1.367 . S
C1067 C1066 1.364 . S
C1067 H1127 0.931 . S
C1068 C1064 1.535 . S
C1068 H1128 0.959 . S
C1068 H1129 0.961 . S
C1068 H1130 0.959 . S
C1069 C1066 1.450 . S
C1069 H1131 0.960 . S
C1069 H1132 0.960 . S
C1069 H1133 0.960 . S
C1070 C1071 1.309 . S
C1070 C1075 1.304 . S
C1070 O1108 1.435 . S
C1071 C1070 1.309 . S
C1071 C1072 1.476 . S
C1071 H1135 0.930 . S
C1072 C1071 1.476 . S
C1072 C1073 1.400 . S
C1072 C1076 1.567 . S
C1073 C1072 1.400 . S
C1073 C1074 1.373 . S
C1073 C1095 1.432 . S
C1074 C1073 1.373 . S
C1074 C1075 1.339 . S
C1074 C1077 1.530 . S
C1075 C1070 1.304 . S
C1075 C1074 1.339 . S
C1075 H1136 0.930 . S
C1076 C1072 1.567 . S
C1076 H1137 0.961 . S
C1076 H1138 0.960 . S
C1076 H1139 0.958 . S
C1077 C1074 1.530 . S
C1077 H1140 0.961 . S
C1077 H1141 0.960 . S
C1077 H1142 0.960 . S
C1078 C1079 1.530 . S
C1078 H1144 0.961 . S
C1078 H1145 0.961 . S
C1078 H1146 0.959 . S
C1079 C1078 1.530 . S
C1079 O1107 1.412 . S
C1079 H1143 0.980 . S
C1080 C1081 1.288 . S
C1080 C1085 1.377 . S
C1080 O1107 1.393 . S
C1081 C1080 1.288 . S
C1081 C1082 1.369 . S
C1081 H1147 0.932 . S
C1082 C1081 1.369 . S
C1082 C1083 1.398 . S
C1082 C1086 1.527 . S
C1083 C1082 1.398 . S
C1083 C1084 1.380 . S
C1083 C1097 1.497 . S
C1084 C1083 1.380 . S
C1084 C1085 1.383 . S
C1084 C1087 1.603 . S
C1085 C1080 1.377 . S
C1085 C1084 1.383 . S
C1085 H1148 0.929 . S
C1086 C1082 1.527 . S
C1086 H1149 0.961 . S
C1086 H1150 0.959 . S
C1086 H1151 0.959 . S
C1087 C1084 1.603 . S
C1087 H1152 0.960 . S
C1087 H1153 0.962 . S
C1087 H1154 0.961 . S
C1088 C1055 1.587 . S
C1088 C1089 1.360 . S
C1088 C1101 1.412 . S
C1089 C1088 1.360 . S
C1089 C1090 1.365 . S
C1089 H1155 0.929 . S
C1090 C1065 1.553 . S
C1090 C1089 1.365 . S
C1090 C1091 1.404 . S
C1091 C1090 1.404 . S
C1091 C1092 1.395 . S
C1091 C1102 1.451 . S
C1092 C1091 1.395 . S
C1092 C1093 1.322 . S
C1092 H1156 0.930 . S
C1093 C1092 1.322 . S
C1093 C1094 1.459 . S
C1093 H1157 0.929 . S
C1094 C1093 1.459 . S
C1094 C1095 1.445 . S
C1094 C1103 1.395 . S
C1095 C1073 1.432 . S
C1095 C1094 1.445 . S
C1095 C1096 1.370 . S
C1096 C1095 1.370 . S
C1096 C1097 1.438 . S
C1096 H1158 0.930 . S
C1097 C1083 1.497 . S
C1097 C1096 1.438 . S
C1097 C1098 1.360 . S
C1098 C1097 1.360 . S
C1098 C1099 1.401 . S
C1098 C1103 1.446 . S
C1099 C1098 1.401 . S
C1099 C1100 1.347 . S
C1099 H1159 0.929 . S
C1100 C1099 1.347 . S
C1100 C1101 1.455 . S
C1100 H1160 0.930 . S
C1101 C1088 1.412 . S
C1101 C1100 1.455 . S
C1101 C1102 1.331 . S
C1102 C1091 1.451 . S
C1102 C1101 1.331 . S
C1102 C1103 1.497 . S
C1103 C1094 1.395 . S
C1103 C1098 1.446 . S
C1103 C1102 1.497 . S
C1104 C1105 1.582 . S
C1104 H1161 0.962 . S
C1104 H1162 0.959 . S
C1104 H1163 0.958 . S
C1105 C1104 1.582 . S
C1105 O1108 1.458 . S
C1105 H1134 0.980 . S
O1106 C1051 1.426 . S
O1106 C1052 1.334 . S
O1107 C1079 1.412 . S
O1107 C1080 1.393 . S
O1108 C1070 1.435 . S
O1108 C1105 1.458 . S
O1109 C1061 1.468 . S
O1109 C1062 1.408 . S
H1110 C1051 0.980 . S
H1111 C1050 0.959 . S
H1112 C1050 0.959 . S
H1113 C1050 0.960 . S
H1114 C1053 0.929 . S
H1115 C1057 0.929 . S
H1116 C1058 0.959 . S
H1117 C1058 0.961 . S
H1118 C1058 0.961 . S
H1119 C1059 0.960 . S
H1120 C1059 0.960 . S
H1121 C1059 0.961 . S
H1122 C1061 0.980 . S
H1123 C1060 0.961 . S
H1124 C1060 0.960 . S
H1125 C1060 0.959 . S
H1126 C1063 0.930 . S
H1127 C1067 0.931 . S
H1128 C1068 0.959 . S
H1129 C1068 0.961 . S
H1130 C1068 0.959 . S
H1131 C1069 0.960 . S
H1132 C1069 0.960 . S
H1133 C1069 0.960 . S
H1134 C1105 0.980 . S
H1135 C1071 0.930 . S
H1136 C1075 0.930 . S
H1137 C1076 0.961 . S
H1138 C1076 0.960 . S
H1139 C1076 0.958 . S
H1140 C1077 0.961 . S
H1141 C1077 0.960 . S
H1142 C1077 0.960 . S
H1143 C1079 0.980 . S
H1144 C1078 0.961 . S
H1145 C1078 0.961 . S
H1146 C1078 0.959 . S
H1147 C1081 0.932 . S
H1148 C1085 0.929 . S
H1149 C1086 0.961 . S
H1150 C1086 0.959 . S
H1151 C1086 0.959 . S
H1152 C1087 0.960 . S
H1153 C1087 0.962 . S
H1154 C1087 0.961 . S
H1155 C1089 0.929 . S
H1156 C1092 0.930 . S
H1157 C1093 0.929 . S
H1158 C1096 0.930 . S
H1159 C1099 0.929 . S
H1160 C1100 0.930 . S
H1161 C1104 0.962 . S
H1162 C1104 0.959 . S
H1163 C1104 0.958 . S
C1164 C1165 1.560 . S
C1164 H1225 0.959 . S
C1164 H1226 0.959 . S
C1164 H1227 0.960 . S
C1165 C1164 1.560 . S
C1165 O1220 1.426 . S
C1165 H1224 0.980 . S
C1166 C1167 1.407 . S
C1166 C1171 1.418 . S
C1166 O1220 1.334 . S
C1167 C1166 1.407 . S
C1167 C1168 1.360 . S
C1167 H1228 0.929 . S
C1168 C1167 1.360 . S
C1168 C1169 1.401 . S
C1168 C1172 1.527 . S
C1169 C1168 1.401 . S
C1169 C1170 1.405 . S
C1169 C1202 1.587 . S
C1170 C1169 1.405 . S
C1170 C1171 1.332 . S
C1170 C1173 1.496 . S
C1171 C1166 1.418 . S
C1171 C1170 1.332 . S
C1171 H1229 0.929 . S
C1172 C1168 1.527 . S
C1172 H1230 0.959 . S
C1172 H1231 0.961 . S
C1172 H1232 0.961 . S
C1173 C1170 1.496 . S
C1173 H1233 0.960 . S
C1173 H1234 0.960 . S
C1173 H1235 0.961 . S
C1174 C1175 1.517 . S
C1174 H1237 0.961 . S
C1174 H1238 0.960 . S
C1174 H1239 0.959 . S
C1175 C1174 1.517 . S
C1175 O1223 1.468 . S
C1175 H1236 0.980 . S
C1176 C1177 1.349 . S
C1176 C1181 1.367 . S
C1176 O1223 1.408 . S
C1177 C1176 1.349 . S
C1177 C1178 1.407 . S
C1177 H1240 0.930 . S
C1178 C1177 1.407 . S
C1178 C1179 1.449 . S
C1178 C1182 1.535 . S
C1179 C1178 1.449 . S
C1179 C1180 1.384 . S
C1179 C1204 1.553 . S
C1180 C1179 1.384 . S
C1180 C1181 1.364 . S
C1180 C1183 1.450 . S
C1181 C1176 1.367 . S
C1181 C1180 1.364 . S
C1181 H1241 0.931 . S
C1182 C1178 1.535 . S
C1182 H1242 0.959 . S
C1182 H1243 0.961 . S
C1182 H1244 0.959 . S
C1183 C1180 1.450 . S
C1183 H1245 0.960 . S
C1183 H1246 0.960 . S
C1183 H1247 0.960 . S
C1184 C1185 1.309 . S
C1184 C1189 1.304 . S
C1184 O1222 1.435 . S
C1185 C1184 1.309 . S
C1185 C1186 1.476 . S
C1185 H1249 0.930 . S
C1186 C1185 1.476 . S
C1186 C1187 1.400 . S
C1186 C1190 1.567 . S
C1187 C1186 1.400 . S
C1187 C1188 1.373 . S
C1187 C1209 1.432 . S
C1188 C1187 1.373 . S
C1188 C1189 1.339 . S
C1188 C1191 1.530 . S
C1189 C1184 1.304 . S
C1189 C1188 1.339 . S
C1189 H1250 0.930 . S
C1190 C1186 1.567 . S
C1190 H1251 0.961 . S
C1190 H1252 0.960 . S
C1190 H1253 0.958 . S
C1191 C1188 1.530 . S
C1191 H1254 0.961 . S
C1191 H1255 0.960 . S
C1191 H1256 0.960 . S
C1192 C1193 1.530 . S
C1192 H1258 0.961 . S
C1192 H1259 0.961 . S
C1192 H1260 0.959 . S
C1193 C1192 1.530 . S
C1193 O1221 1.412 . S
C1193 H1257 0.980 . S
C1194 C1195 1.288 . S
C1194 C1199 1.377 . S
C1194 O1221 1.393 . S
C1195 C1194 1.288 . S
C1195 C1196 1.369 . S
C1195 H1261 0.932 . S
C1196 C1195 1.369 . S
C1196 C1197 1.398 . S
C1196 C1200 1.527 . S
C1197 C1196 1.398 . S
C1197 C1198 1.380 . S
C1197 C1211 1.497 . S
C1198 C1197 1.380 . S
C1198 C1199 1.383 . S
C1198 C1201 1.603 . S
C1199 C1194 1.377 . S
C1199 C1198 1.383 . S
C1199 H1262 0.929 . S
C1200 C1196 1.527 . S
C1200 H1263 0.961 . S
C1200 H1264 0.959 . S
C1200 H1265 0.959 . S
C1201 C1198 1.603 . S
C1201 H1266 0.960 . S
C1201 H1267 0.962 . S
C1201 H1268 0.961 . S
C1202 C1169 1.587 . S
C1202 C1203 1.360 . S
C1202 C1215 1.412 . S
C1203 C1202 1.360 . S
C1203 C1204 1.365 . S
C1203 H1269 0.929 . S
C1204 C1179 1.553 . S
C1204 C1203 1.365 . S
C1204 C1205 1.404 . S
C1205 C1204 1.404 . S
C1205 C1206 1.395 . S
C1205 C1216 1.451 . S
C1206 C1205 1.395 . S
C1206 C1207 1.322 . S
C1206 H1270 0.930 . S
C1207 C1206 1.322 . S
C1207 C1208 1.459 . S
C1207 H1271 0.929 . S
C1208 C1207 1.459 . S
C1208 C1209 1.445 . S
C1208 C1217 1.395 . S
C1209 C1187 1.432 . S
C1209 C1208 1.445 . S
C1209 C1210 1.370 . S
C1210 C1209 1.370 . S
C1210 C1211 1.438 . S
C1210 H1272 0.930 . S
C1211 C1197 1.497 . S
C1211 C1210 1.438 . S
C1211 C1212 1.360 . S
C1212 C1211 1.360 . S
C1212 C1213 1.401 . S
C1212 C1217 1.446 . S
C1213 C1212 1.401 . S
C1213 C1214 1.347 . S
C1213 H1273 0.929 . S
C1214 C1213 1.347 . S
C1214 C1215 1.455 . S
C1214 H1274 0.930 . S
C1215 C1202 1.412 . S
C1215 C1214 1.455 . S
C1215 C1216 1.331 . S
C1216 C1205 1.451 . S
C1216 C1215 1.331 . S
C1216 C1217 1.497 . S
C1217 C1208 1.395 . S
C1217 C1212 1.446 . S
C1217 C1216 1.497 . S
C1218 C1219 1.582 . S
C1218 H1275 0.962 . S
C1218 H1276 0.959 . S
C1218 H1277 0.958 . S
C1219 C1218 1.582 . S
C1219 O1222 1.458 . S
C1219 H1248 0.980 . S
O1220 C1165 1.426 . S
O1220 C1166 1.334 . S
O1221 C1193 1.412 . S
O1221 C1194 1.393 . S
O1222 C1184 1.435 . S
O1222 C1219 1.458 . S
O1223 C1175 1.468 . S
O1223 C1176 1.408 . S
H1224 C1165 0.980 . S
H1225 C1164 0.959 . S
H1226 C1164 0.959 . S
H1227 C1164 0.960 . S
H1228 C1167 0.929 . S
H1229 C1171 0.929 . S
H1230 C1172 0.959 . S
H1231 C1172 0.961 . S
H1232 C1172 0.961 . S
H1233 C1173 0.960 . S
H1234 C1173 0.960 . S
H1235 C1173 0.961 . S
H1236 C1175 0.980 . S
H1237 C1174 0.961 . S
H1238 C1174 0.960 . S
H1239 C1174 0.959 . S
H1240 C1177 0.930 . S
H1241 C1181 0.931 . S
H1242 C1182 0.959 . S
H1243 C1182 0.961 . S
H1244 C1182 0.959 . S
H1245 C1183 0.960 . S
H1246 C1183 0.960 . S
H1247 C1183 0.960 . S
H1248 C1219 0.980 . S
H1249 C1185 0.930 . S
H1250 C1189 0.930 . S
H1251 C1190 0.961 . S
H1252 C1190 0.960 . S
H1253 C1190 0.958 . S
H1254 C1191 0.961 . S
H1255 C1191 0.960 . S
H1256 C1191 0.960 . S
H1257 C1193 0.980 . S
H1258 C1192 0.961 . S
H1259 C1192 0.961 . S
H1260 C1192 0.959 . S
H1261 C1195 0.932 . S
H1262 C1199 0.929 . S
H1263 C1200 0.961 . S
H1264 C1200 0.959 . S
H1265 C1200 0.959 . S
H1266 C1201 0.960 . S
H1267 C1201 0.962 . S
H1268 C1201 0.961 . S
H1269 C1203 0.929 . S
H1270 C1206 0.930 . S
H1271 C1207 0.929 . S
H1272 C1210 0.930 . S
H1273 C1213 0.929 . S
H1274 C1214 0.930 . S
H1275 C1218 0.962 . S
H1276 C1218 0.959 . S
H1277 C1218 0.958 . S
C1278 C1279 1.560 . S
C1278 H1339 0.959 . S
C1278 H1340 0.959 . S
C1278 H1341 0.960 . S
C1279 C1278 1.560 . S
C1279 O1334 1.426 . S
C1279 H1338 0.980 . S
C1280 C1281 1.407 1_455 S
C1280 C1285 1.418 . S
C1280 O1334 1.334 . S
C1281 C1280 1.407 1_655 S
C1281 C1282 1.360 . S
C1281 H1342 0.929 . S
C1282 C1281 1.360 . S
C1282 C1283 1.401 1_655 S
C1282 C1286 1.527 . S
C1283 C1282 1.401 1_455 S
C1283 C1284 1.405 . S
C1283 C1316 1.587 1_455 S
C1284 C1283 1.405 . S
C1284 C1285 1.332 . S
C1284 C1287 1.496 . S
C1285 C1280 1.418 . S
C1285 C1284 1.332 . S
C1285 H1343 0.929 . S
C1286 C1282 1.527 . S
C1286 H1344 0.959 . S
C1286 H1345 0.961 . S
C1286 H1346 0.961 . S
C1287 C1284 1.496 . S
C1287 H1347 0.960 . S
C1287 H1348 0.960 . S
C1287 H1349 0.961 . S
C1288 C1289 1.517 . S
C1288 H1351 0.976 . S
C1288 H1352 0.960 . S
C1288 H1353 0.959 . S
C1289 C1288 1.517 . S
C1289 O1337 1.468 . S
C1289 H1350 0.980 1_655 S
C1290 C1291 1.349 . S
C1290 C1295 1.367 . S
C1290 O1337 1.408 . S
C1291 C1290 1.349 . S
C1291 C1292 1.407 1_655 S
C1291 H1354 0.930 1_655 S
C1292 C1291 1.407 1_455 S
C1292 C1293 1.449 1_455 S
C1292 C1296 1.535 . S
C1293 C1292 1.449 1_655 S
C1293 C1294 1.384 . S
C1293 C1318 1.553 . S
C1294 C1293 1.384 . S
C1294 C1295 1.364 . S
C1294 C1297 1.450 . S
C1295 C1290 1.367 . S
C1295 C1294 1.364 . S
C1295 H1355 0.931 . S
C1296 C1292 1.535 . S
C1296 H1356 0.959 . S
C1296 H1357 0.961 . S
C1296 H1358 0.959 . S
C1297 C1294 1.450 . S
C1297 H1359 0.960 . S
C1297 H1360 0.960 . S
C1297 H1361 0.960 . S
C1298 C1299 1.309 . S
C1298 C1303 1.304 . S
C1298 O1336 1.435 . S
C1299 C1298 1.309 . S
C1299 C1300 1.479 . S
C1299 H1363 0.930 1_655 S
C1300 C1299 1.479 . S
C1300 C1301 1.402 . S
C1300 C1304 1.562 1_655 S
C1301 C1300 1.402 . S
C1301 C1302 1.373 . S
C1301 C1323 1.432 . S
C1302 C1301 1.373 . S
C1302 C1303 1.339 . S
C1302 C1305 1.530 . S
C1303 C1298 1.304 . S
C1303 C1302 1.339 . S
C1303 H1364 0.930 . S
C1304 C1300 1.562 1_455 S
C1304 H1365 0.961 . S
C1304 H1366 0.960 . S
C1304 H1367 0.958 . S
C1305 C1302 1.530 . S
C1305 H1368 0.961 . S
C1305 H1369 0.960 . S
C1305 H1370 0.960 . S
C1306 C1307 1.515 1_455 S
C1306 H1372 0.961 . S
C1306 H1373 0.961 . S
C1306 H1374 0.959 . S
C1307 C1306 1.515 1_655 S
C1307 O1335 1.409 1_655 S
C1307 H1371 0.984 . S
C1308 C1309 1.288 . S
C1308 C1313 1.377 1_455 S
C1308 O1335 1.393 . S
C1309 C1308 1.288 . S
C1309 C1310 1.369 . S
C1309 H1375 0.932 . S
C1310 C1309 1.369 . S
C1310 C1311 1.398 1_455 S
C1310 C1314 1.527 . S
C1311 C1310 1.398 1_655 S
C1311 C1312 1.380 . S
C1311 C1325 1.497 . S
C1312 C1311 1.380 . S
C1312 C1313 1.383 . S
C1312 C1315 1.603 . S
C1313 C1308 1.377 1_655 S
C1313 C1312 1.383 . S
C1313 H1376 0.929 . S
C1314 C1310 1.527 . S
C1314 H1377 0.961 . S
C1314 H1378 0.959 . S
C1314 H1379 0.959 . S
C1315 C1312 1.603 . S
C1315 H1380 0.960 . S
C1315 H1381 0.962 . S
C1315 H1382 0.961 . S
C1316 C1283 1.587 1_655 S
C1316 C1317 1.360 . S
C1316 C1329 1.412 . S
C1317 C1316 1.360 . S
C1317 C1318 1.365 . S
C1317 H1383 0.929 . S
C1318 C1293 1.553 . S
C1318 C1317 1.365 . S
C1318 C1319 1.404 . S
C1319 C1318 1.404 . S
C1319 C1320 1.395 . S
C1319 C1330 1.451 . S
C1320 C1319 1.395 . S
C1320 C1321 1.322 . S
C1320 H1384 0.930 . S
C1321 C1320 1.322 . S
C1321 C1322 1.459 . S
C1321 H1385 0.929 . S
C1322 C1321 1.459 . S
C1322 C1323 1.445 . S
C1322 C1331 1.395 . S
C1323 C1301 1.432 . S
C1323 C1322 1.445 . S
C1323 C1324 1.370 . S
C1324 C1323 1.370 . S
C1324 C1325 1.438 . S
C1324 H1386 0.930 . S
C1325 C1311 1.497 . S
C1325 C1324 1.438 . S
C1325 C1326 1.360 . S
C1326 C1325 1.360 . S
C1326 C1327 1.401 . S
C1326 C1331 1.446 . S
C1327 C1326 1.401 . S
C1327 C1328 1.347 . S
C1327 H1387 0.929 . S
C1328 C1327 1.347 . S
C1328 C1329 1.455 . S
C1328 H1388 0.930 . S
C1329 C1316 1.412 . S
C1329 C1328 1.455 . S
C1329 C1330 1.331 . S
C1330 C1319 1.451 . S
C1330 C1329 1.331 . S
C1330 C1331 1.497 . S
C1331 C1322 1.395 . S
C1331 C1326 1.446 . S
C1331 C1330 1.497 . S
C1332 C1333 1.582 . S
C1332 H1389 0.962 . S
C1332 H1390 0.959 . S
C1332 H1391 0.958 . S
C1333 C1332 1.582 . S
C1333 O1336 1.458 . S
C1333 H1362 0.980 . S
O1334 C1279 1.426 . S
O1334 C1280 1.334 . S
O1335 C1307 1.409 1_455 S
O1335 C1308 1.393 . S
O1336 C1298 1.435 . S
O1336 C1333 1.458 . S
O1337 C1289 1.468 . S
O1337 C1290 1.408 . S
H1338 C1279 0.980 . S
H1339 C1278 0.959 . S
H1340 C1278 0.959 . S
H1341 C1278 0.960 . S
H1342 C1281 0.929 . S
H1343 C1285 0.929 . S
H1344 C1286 0.959 . S
H1345 C1286 0.961 . S
H1346 C1286 0.961 . S
H1347 C1287 0.960 . S
H1348 C1287 0.960 . S
H1349 C1287 0.961 . S
H1350 C1289 0.980 1_455 S
H1351 C1288 0.976 . S
H1352 C1288 0.960 . S
H1353 C1288 0.959 . S
H1354 C1291 0.930 1_455 S
H1355 C1295 0.931 . S
H1356 C1296 0.959 . S
H1357 C1296 0.961 . S
H1358 C1296 0.959 . S
H1359 C1297 0.960 . S
H1360 C1297 0.960 . S
H1361 C1297 0.960 . S
H1362 C1333 0.980 . S
H1363 C1299 0.930 1_455 S
H1364 C1303 0.930 . S
H1365 C1304 0.961 . S
H1366 C1304 0.960 . S
H1367 C1304 0.958 . S
H1368 C1305 0.961 . S
H1369 C1305 0.960 . S
H1370 C1305 0.960 . S
H1371 C1307 0.984 . S
H1372 C1306 0.961 . S
H1373 C1306 0.961 . S
H1374 C1306 0.959 . S
H1375 C1309 0.932 . S
H1376 C1313 0.929 . S
H1377 C1314 0.961 . S
H1378 C1314 0.959 . S
H1379 C1314 0.959 . S
H1380 C1315 0.960 . S
H1381 C1315 0.962 . S
H1382 C1315 0.961 . S
H1383 C1317 0.929 . S
H1384 C1320 0.930 . S
H1385 C1321 0.929 . S
H1386 C1324 0.930 . S
H1387 C1327 0.929 . S
H1388 C1328 0.930 . S
H1389 C1332 0.962 . S
H1390 C1332 0.959 . S
H1391 C1332 0.958 . S
C1392 C1393 1.560 . S
C1392 H1453 0.959 . S
C1392 H1454 0.959 . S
C1392 H1455 0.960 . S
C1393 C1392 1.560 . S
C1393 O1448 1.426 . S
C1393 H1452 0.980 . S
C1394 C1395 1.407 . S
C1394 C1399 1.418 . S
C1394 O1448 1.334 . S
C1395 C1394 1.407 . S
C1395 C1396 1.360 . S
C1395 H1456 0.929 . S
C1396 C1395 1.360 . S
C1396 C1397 1.401 . S
C1396 C1400 1.527 . S
C1397 C1396 1.401 . S
C1397 C1398 1.405 . S
C1397 C1430 1.587 . S
C1398 C1397 1.405 . S
C1398 C1399 1.332 . S
C1398 C1401 1.496 . S
C1399 C1394 1.418 . S
C1399 C1398 1.332 . S
C1399 H1457 0.929 . S
C1400 C1396 1.527 . S
C1400 H1458 0.959 . S
C1400 H1459 0.961 . S
C1400 H1460 0.961 . S
C1401 C1398 1.496 . S
C1401 H1461 0.960 . S
C1401 H1462 0.960 . S
C1401 H1463 0.961 . S
C1402 C1403 1.517 . S
C1402 H1465 0.961 . S
C1402 H1466 0.960 . S
C1402 H1467 0.959 . S
C1403 C1402 1.517 . S
C1403 O1451 1.468 . S
C1403 H1464 0.980 . S
C1404 C1405 1.349 . S
C1404 C1409 1.367 . S
C1404 O1451 1.408 . S
C1405 C1404 1.349 . S
C1405 C1406 1.407 . S
C1405 H1468 0.930 . S
C1406 C1405 1.407 . S
C1406 C1407 1.449 . S
C1406 C1410 1.535 . S
C1407 C1406 1.449 . S
C1407 C1408 1.384 . S
C1407 C1432 1.553 . S
C1408 C1407 1.384 . S
C1408 C1409 1.364 . S
C1408 C1411 1.450 . S
C1409 C1404 1.367 . S
C1409 C1408 1.364 . S
C1409 H1469 0.931 . S
C1410 C1406 1.535 . S
C1410 H1470 0.959 . S
C1410 H1471 0.961 . S
C1410 H1472 0.959 . S
C1411 C1408 1.450 . S
C1411 H1473 0.960 . S
C1411 H1474 0.960 . S
C1411 H1475 0.960 . S
C1412 C1413 1.309 . S
C1412 C1417 1.304 . S
C1412 O1450 1.435 . S
C1413 C1412 1.309 . S
C1413 C1414 1.476 . S
C1413 H1477 0.930 . S
C1414 C1413 1.476 . S
C1414 C1415 1.400 . S
C1414 C1418 1.567 . S
C1415 C1414 1.400 . S
C1415 C1416 1.373 . S
C1415 C1437 1.432 . S
C1416 C1415 1.373 . S
C1416 C1417 1.339 . S
C1416 C1419 1.530 . S
C1417 C1412 1.304 . S
C1417 C1416 1.339 . S
C1417 H1478 0.930 . S
C1418 C1414 1.567 . S
C1418 H1479 0.961 . S
C1418 H1480 0.960 . S
C1418 H1481 0.958 . S
C1419 C1416 1.530 . S
C1419 H1482 0.961 . S
C1419 H1483 0.960 . S
C1419 H1484 0.960 . S
C1420 C1421 1.530 . S
C1420 H1486 0.961 . S
C1420 H1487 0.961 . S
C1420 H1488 0.959 . S
C1421 C1420 1.530 . S
C1421 O1449 1.412 . S
C1421 H1485 0.980 . S
C1422 C1423 1.288 . S
C1422 C1427 1.377 . S
C1422 O1449 1.393 . S
C1423 C1422 1.288 . S
C1423 C1424 1.369 . S
C1423 H1489 0.932 . S
C1424 C1423 1.369 . S
C1424 C1425 1.398 . S
C1424 C1428 1.527 . S
C1425 C1424 1.398 . S
C1425 C1426 1.380 . S
C1425 C1439 1.497 . S
C1426 C1425 1.380 . S
C1426 C1427 1.383 . S
C1426 C1429 1.603 . S
C1427 C1422 1.377 . S
C1427 C1426 1.383 . S
C1427 H1490 0.929 . S
C1428 C1424 1.527 . S
C1428 H1491 0.961 . S
C1428 H1492 0.959 . S
C1428 H1493 0.959 . S
C1429 C1426 1.603 . S
C1429 H1494 0.960 . S
C1429 H1495 0.962 . S
C1429 H1496 0.961 . S
C1430 C1397 1.587 . S
C1430 C1431 1.360 . S
C1430 C1443 1.412 . S
C1431 C1430 1.360 . S
C1431 C1432 1.365 . S
C1431 H1497 0.929 . S
C1432 C1407 1.553 . S
C1432 C1431 1.365 . S
C1432 C1433 1.404 . S
C1433 C1432 1.404 . S
C1433 C1434 1.395 . S
C1433 C1444 1.451 . S
C1434 C1433 1.395 . S
C1434 C1435 1.322 . S
C1434 H1498 0.930 . S
C1435 C1434 1.322 . S
C1435 C1436 1.459 . S
C1435 H1499 0.929 . S
C1436 C1435 1.459 . S
C1436 C1437 1.445 . S
C1436 C1445 1.395 . S
C1437 C1415 1.432 . S
C1437 C1436 1.445 . S
C1437 C1438 1.370 . S
C1438 C1437 1.370 . S
C1438 C1439 1.438 . S
C1438 H1500 0.930 . S
C1439 C1425 1.497 . S
C1439 C1438 1.438 . S
C1439 C1440 1.360 . S
C1440 C1439 1.360 . S
C1440 C1441 1.401 . S
C1440 C1445 1.446 . S
C1441 C1440 1.401 . S
C1441 C1442 1.347 . S
C1441 H1501 0.929 . S
C1442 C1441 1.347 . S
C1442 C1443 1.455 . S
C1442 H1502 0.930 . S
C1443 C1430 1.412 . S
C1443 C1442 1.455 . S
C1443 C1444 1.331 . S
C1444 C1433 1.451 . S
C1444 C1443 1.331 . S
C1444 C1445 1.497 . S
C1445 C1436 1.395 . S
C1445 C1440 1.446 . S
C1445 C1444 1.497 . S
C1446 C1447 1.582 . S
C1446 H1503 0.962 . S
C1446 H1504 0.959 . S
C1446 H1505 0.958 . S
C1447 C1446 1.582 . S
C1447 O1450 1.458 . S
C1447 H1476 0.980 . S
O1448 C1393 1.426 . S
O1448 C1394 1.334 . S
O1449 C1421 1.412 . S
O1449 C1422 1.393 . S
O1450 C1412 1.435 . S
O1450 C1447 1.458 . S
O1451 C1403 1.468 . S
O1451 C1404 1.408 . S
H1452 C1393 0.980 . S
H1453 C1392 0.959 . S
H1454 C1392 0.959 . S
H1455 C1392 0.960 . S
H1456 C1395 0.929 . S
H1457 C1399 0.929 . S
H1458 C1400 0.959 . S
H1459 C1400 0.961 . S
H1460 C1400 0.961 . S
H1461 C1401 0.960 . S
H1462 C1401 0.960 . S
H1463 C1401 0.961 . S
H1464 C1403 0.980 . S
H1465 C1402 0.961 . S
H1466 C1402 0.960 . S
H1467 C1402 0.959 . S
H1468 C1405 0.930 . S
H1469 C1409 0.931 . S
H1470 C1410 0.959 . S
H1471 C1410 0.961 . S
H1472 C1410 0.959 . S
H1473 C1411 0.960 . S
H1474 C1411 0.960 . S
H1475 C1411 0.960 . S
H1476 C1447 0.980 . S
H1477 C1413 0.930 . S
H1478 C1417 0.930 . S
H1479 C1418 0.961 . S
H1480 C1418 0.960 . S
H1481 C1418 0.958 . S
H1482 C1419 0.961 . S
H1483 C1419 0.960 . S
H1484 C1419 0.960 . S
H1485 C1421 0.980 . S
H1486 C1420 0.961 . S
H1487 C1420 0.961 . S
H1488 C1420 0.959 . S
H1489 C1423 0.932 . S
H1490 C1427 0.929 . S
H1491 C1428 0.961 . S
H1492 C1428 0.959 . S
H1493 C1428 0.959 . S
H1494 C1429 0.960 . S
H1495 C1429 0.962 . S
H1496 C1429 0.961 . S
H1497 C1431 0.929 . S
H1498 C1434 0.930 . S
H1499 C1435 0.929 . S
H1500 C1438 0.930 . S
H1501 C1441 0.929 . S
H1502 C1442 0.930 . S
H1503 C1446 0.962 . S
H1504 C1446 0.959 . S
H1505 C1446 0.958 . S
C1506 C1507 1.560 . S
C1506 H1567 0.959 . S
C1506 H1568 0.959 . S
C1506 H1569 0.960 . S
C1507 C1506 1.560 . S
C1507 O1562 1.426 . S
C1507 H1566 0.980 . S
C1508 C1509 1.407 1_565 S
C1508 C1513 1.418 . S
C1508 O1562 1.334 . S
C1509 C1508 1.407 1_545 S
C1509 C1510 1.360 . S
C1509 H1570 0.929 . S
C1510 C1509 1.360 . S
C1510 C1511 1.401 1_545 S
C1510 C1514 1.527 . S
C1511 C1510 1.401 1_565 S
C1511 C1512 1.405 . S
C1511 C1544 1.587 1_565 S
C1512 C1511 1.405 . S
C1512 C1513 1.332 . S
C1512 C1515 1.496 . S
C1513 C1508 1.418 . S
C1513 C1512 1.332 . S
C1513 H1571 0.929 . S
C1514 C1510 1.527 . S
C1514 H1572 0.959 . S
C1514 H1573 0.961 . S
C1514 H1574 0.961 . S
C1515 C1512 1.496 . S
C1515 H1575 0.960 . S
C1515 H1576 0.960 . S
C1515 H1577 0.961 . S
C1516 C1517 1.517 . S
C1516 H1579 0.961 1_545 S
C1516 H1580 0.960 . S
C1516 H1581 0.959 . S
C1517 C1516 1.517 . S
C1517 O1565 1.468 . S
C1517 H1578 0.980 1_545 S
C1518 C1519 1.377 . S
C1518 C1523 1.367 . S
C1518 O1565 1.408 . S
C1519 C1518 1.377 . S
C1519 C1520 1.424 1_545 S
C1519 H1582 0.886 1_545 S
C1520 C1519 1.424 1_565 S
C1520 C1521 1.449 1_565 S
C1520 C1524 1.535 . S
C1521 C1520 1.449 1_545 S
C1521 C1522 1.384 . S
C1521 C1546 1.553 . S
C1522 C1521 1.384 . S
C1522 C1523 1.364 . S
C1522 C1525 1.450 . S
C1523 C1518 1.367 . S
C1523 C1522 1.364 . S
C1523 H1583 0.931 . S
C1524 C1520 1.535 . S
C1524 H1584 0.959 . S
C1524 H1585 0.961 . S
C1524 H1586 0.959 . S
C1525 C1522 1.450 . S
C1525 H1587 0.960 . S
C1525 H1588 0.960 . S
C1525 H1589 0.960 . S
C1526 C1527 1.309 . S
C1526 C1531 1.304 . S
C1526 O1564 1.435 . S
C1527 C1526 1.309 . S
C1527 C1528 1.496 1_545 S
C1527 H1591 0.930 1_545 S
C1528 C1527 1.496 1_565 S
C1528 C1529 1.337 1_565 S
C1528 C1532 1.610 . S
C1529 C1528 1.337 1_545 S
C1529 C1530 1.373 . S
C1529 C1551 1.432 . S
C1530 C1529 1.373 . S
C1530 C1531 1.339 . S
C1530 C1533 1.530 . S
C1531 C1526 1.304 . S
C1531 C1530 1.339 . S
C1531 H1592 0.930 . S
C1532 C1528 1.610 . S
C1532 H1593 0.961 . S
C1532 H1594 0.960 . S
C1532 H1595 0.958 . S
C1533 C1530 1.530 . S
C1533 H1596 0.961 . S
C1533 H1597 0.960 . S
C1533 H1598 0.960 . S
C1534 C1535 1.530 1_565 S
C1534 H1600 0.961 . S
C1534 H1601 0.961 . S
C1534 H1602 0.959 . S
C1535 C1534 1.530 1_545 S
C1535 O1563 1.412 1_545 S
C1535 H1599 0.980 . S
C1536 C1537 1.288 . S
C1536 C1541 1.377 1_565 S
C1536 O1563 1.393 . S
C1537 C1536 1.288 . S
C1537 C1538 1.369 . S
C1537 H1603 0.932 . S
C1538 C1537 1.369 . S
C1538 C1539 1.398 1_565 S
C1538 C1542 1.527 . S
C1539 C1538 1.398 1_545 S
C1539 C1540 1.380 . S
C1539 C1553 1.497 . S
C1540 C1539 1.380 . S
C1540 C1541 1.383 . S
C1540 C1543 1.603 . S
C1541 C1536 1.377 1_545 S
C1541 C1540 1.383 . S
C1541 H1604 0.929 . S
C1542 C1538 1.527 . S
C1542 H1605 0.961 . S
C1542 H1606 0.959 . S
C1542 H1607 0.959 . S
C1543 C1540 1.603 . S
C1543 H1608 0.960 . S
C1543 H1609 0.962 . S
C1543 H1610 0.961 . S
C1544 C1511 1.587 1_545 S
C1544 C1545 1.360 . S
C1544 C1557 1.412 . S
C1545 C1544 1.360 . S
C1545 C1546 1.365 . S
C1545 H1611 0.929 . S
C1546 C1521 1.553 . S
C1546 C1545 1.365 . S
C1546 C1547 1.404 . S
C1547 C1546 1.404 . S
C1547 C1548 1.395 . S
C1547 C1558 1.451 . S
C1548 C1547 1.395 . S
C1548 C1549 1.322 . S
C1548 H1612 0.930 . S
C1549 C1548 1.322 . S
C1549 C1550 1.459 . S
C1549 H1613 0.929 . S
C1550 C1549 1.459 . S
C1550 C1551 1.445 . S
C1550 C1559 1.395 . S
C1551 C1529 1.432 . S
C1551 C1550 1.445 . S
C1551 C1552 1.370 . S
C1552 C1551 1.370 . S
C1552 C1553 1.438 . S
C1552 H1614 0.930 . S
C1553 C1539 1.497 . S
C1553 C1552 1.438 . S
C1553 C1554 1.360 . S
C1554 C1553 1.360 . S
C1554 C1555 1.401 . S
C1554 C1559 1.446 . S
C1555 C1554 1.401 . S
C1555 C1556 1.347 . S
C1555 H1615 0.929 . S
C1556 C1555 1.347 . S
C1556 C1557 1.455 . S
C1556 H1616 0.930 . S
C1557 C1544 1.412 . S
C1557 C1556 1.455 . S
C1557 C1558 1.331 . S
C1558 C1547 1.451 . S
C1558 C1557 1.331 . S
C1558 C1559 1.497 . S
C1559 C1550 1.395 . S
C1559 C1554 1.446 . S
C1559 C1558 1.497 . S
C1560 C1561 1.582 . S
C1560 H1617 0.962 . S
C1560 H1618 0.959 . S
C1560 H1619 0.958 . S
C1561 C1560 1.582 . S
C1561 O1564 1.458 . S
C1561 H1590 0.980 . S
O1562 C1507 1.426 . S
O1562 C1508 1.334 . S
O1563 C1535 1.412 1_565 S
O1563 C1536 1.393 . S
O1564 C1526 1.435 . S
O1564 C1561 1.458 . S
O1565 C1517 1.468 . S
O1565 C1518 1.408 . S
H1566 C1507 0.980 . S
H1567 C1506 0.959 . S
H1568 C1506 0.959 . S
H1569 C1506 0.960 . S
H1570 C1509 0.929 . S
H1571 C1513 0.929 . S
H1572 C1514 0.959 . S
H1573 C1514 0.961 . S
H1574 C1514 0.961 . S
H1575 C1515 0.960 . S
H1576 C1515 0.960 . S
H1577 C1515 0.961 . S
H1578 C1517 0.980 1_565 S
H1579 C1516 0.961 1_565 S
H1580 C1516 0.960 . S
H1581 C1516 0.959 . S
H1582 C1519 0.886 1_565 S
H1583 C1523 0.931 . S
H1584 C1524 0.959 . S
H1585 C1524 0.961 . S
H1586 C1524 0.959 . S
H1587 C1525 0.960 . S
H1588 C1525 0.960 . S
H1589 C1525 0.960 . S
H1590 C1561 0.980 . S
H1591 C1527 0.930 1_565 S
H1592 C1531 0.930 . S
H1593 C1532 0.961 . S
H1594 C1532 0.960 . S
H1595 C1532 0.958 . S
H1596 C1533 0.961 . S
H1597 C1533 0.960 . S
H1598 C1533 0.960 . S
H1599 C1535 0.980 . S
H1600 C1534 0.961 . S
H1601 C1534 0.961 . S
H1602 C1534 0.959 . S
H1603 C1537 0.932 . S
H1604 C1541 0.929 . S
H1605 C1542 0.961 . S
H1606 C1542 0.959 . S
H1607 C1542 0.959 . S
H1608 C1543 0.960 . S
H1609 C1543 0.962 . S
H1610 C1543 0.961 . S
H1611 C1545 0.929 . S
H1612 C1548 0.930 . S
H1613 C1549 0.929 . S
H1614 C1552 0.930 . S
H1615 C1555 0.929 . S
H1616 C1556 0.930 . S
H1617 C1560 0.962 . S
H1618 C1560 0.959 . S
H1619 C1560 0.958 . S
C1620 C1621 1.560 . S
C1620 H1681 0.959 . S
C1620 H1682 0.959 . S
C1620 H1683 0.960 . S
C1621 C1620 1.560 . S
C1621 O1676 1.426 . S
C1621 H1680 0.980 1_565 S
C1622 C1623 1.407 1_565 S
C1622 C1627 1.418 . S
C1622 O1676 1.334 . S
C1623 C1622 1.407 1_545 S
C1623 C1624 1.360 . S
C1623 H1684 0.929 . S
C1624 C1623 1.360 . S
C1624 C1625 1.401 . S
C1624 C1628 1.527 . S
C1625 C1624 1.401 . S
C1625 C1626 1.405 1_545 S
C1625 C1658 1.587 . S
C1626 C1625 1.405 1_565 S
C1626 C1627 1.332 . S
C1626 C1629 1.496 . S
C1627 C1622 1.418 . S
C1627 C1626 1.332 . S
C1627 H1685 0.929 . S
C1628 C1624 1.527 . S
C1628 H1686 0.959 . S
C1628 H1687 0.961 . S
C1628 H1688 0.961 . S
C1629 C1626 1.496 . S
C1629 H1689 0.960 . S
C1629 H1690 0.960 . S
C1629 H1691 0.961 . S
C1630 C1631 1.517 . S
C1630 H1693 0.961 . S
C1630 H1694 0.960 . S
C1630 H1695 0.959 . S
C1631 C1630 1.517 . S
C1631 O1679 1.468 . S
C1631 H1692 0.980 . S
C1632 C1633 1.349 . S
C1632 C1637 1.367 . S
C1632 O1679 1.408 . S
C1633 C1632 1.349 . S
C1633 C1634 1.407 . S
C1633 H1696 0.933 1_545 S
C1634 C1633 1.407 . S
C1634 C1635 1.449 . S
C1634 C1638 1.535 1_545 S
C1635 C1634 1.449 . S
C1635 C1636 1.384 . S
C1635 C1660 1.553 . S
C1636 C1635 1.384 . S
C1636 C1637 1.364 . S
C1636 C1639 1.450 . S
C1637 C1632 1.367 . S
C1637 C1636 1.364 . S
C1637 H1697 0.931 . S
C1638 C1634 1.535 1_565 S
C1638 H1698 0.959 . S
C1638 H1699 0.961 . S
C1638 H1700 0.959 . S
C1639 C1636 1.450 . S
C1639 H1701 0.960 . S
C1639 H1702 0.960 . S
C1639 H1703 0.960 . S
C1640 C1641 1.309 1_545 S
C1640 C1645 1.304 . S
C1640 O1678 1.435 . S
C1641 C1640 1.309 1_565 S
C1641 C1642 1.476 . S
C1641 H1705 0.930 . S
C1642 C1641 1.476 . S
C1642 C1643 1.400 1_565 S
C1642 C1646 1.567 . S
C1643 C1642 1.400 1_545 S
C1643 C1644 1.373 . S
C1643 C1665 1.432 . S
C1644 C1643 1.373 . S
C1644 C1645 1.339 . S
C1644 C1647 1.530 . S
C1645 C1640 1.304 . S
C1645 C1644 1.339 . S
C1645 H1706 0.930 . S
C1646 C1642 1.567 . S
C1646 H1707 0.961 . S
C1646 H1708 0.960 . S
C1646 H1709 0.958 . S
C1647 C1644 1.530 . S
C1647 H1710 0.961 . S
C1647 H1711 0.960 . S
C1647 H1712 0.960 . S
C1648 C1649 1.530 . S
C1648 H1714 0.961 . S
C1648 H1715 0.961 . S
C1648 H1716 0.959 . S
C1649 C1648 1.530 . S
C1649 O1677 1.412 . S
C1649 H1713 1.007 . S
C1650 C1651 1.288 . S
C1650 C1655 1.377 1_565 S
C1650 O1677 1.393 . S
C1651 C1650 1.288 . S
C1651 C1652 1.369 . S
C1651 H1717 0.932 . S
C1652 C1651 1.369 . S
C1652 C1653 1.398 . S
C1652 C1656 1.527 . S
C1653 C1652 1.398 . S
C1653 C1654 1.380 1_565 S
C1653 C1667 1.497 1_565 S
C1654 C1653 1.380 1_545 S
C1654 C1655 1.383 . S
C1654 C1657 1.603 . S
C1655 C1650 1.377 1_545 S
C1655 C1654 1.383 . S
C1655 H1718 0.929 . S
C1656 C1652 1.527 . S
C1656 H1719 0.961 . S
C1656 H1720 0.959 . S
C1656 H1721 0.959 . S
C1657 C1654 1.603 . S
C1657 H1722 0.960 . S
C1657 H1723 0.962 . S
C1657 H1724 0.961 . S
C1658 C1625 1.587 . S
C1658 C1659 1.360 . S
C1658 C1671 1.412 . S
C1659 C1658 1.360 . S
C1659 C1660 1.365 . S
C1659 H1725 0.929 . S
C1660 C1635 1.553 . S
C1660 C1659 1.365 . S
C1660 C1661 1.404 . S
C1661 C1660 1.404 . S
C1661 C1662 1.395 . S
C1661 C1672 1.451 . S
C1662 C1661 1.395 . S
C1662 C1663 1.322 . S
C1662 H1726 0.930 . S
C1663 C1662 1.322 . S
C1663 C1664 1.459 . S
C1663 H1727 0.929 . S
C1664 C1663 1.459 . S
C1664 C1665 1.445 . S
C1664 C1673 1.395 . S
C1665 C1643 1.432 . S
C1665 C1664 1.445 . S
C1665 C1666 1.370 . S
C1666 C1665 1.370 . S
C1666 C1667 1.438 . S
C1666 H1728 0.930 . S
C1667 C1653 1.497 1_545 S
C1667 C1666 1.438 . S
C1667 C1668 1.360 . S
C1668 C1667 1.360 . S
C1668 C1669 1.401 . S
C1668 C1673 1.446 . S
C1669 C1668 1.401 . S
C1669 C1670 1.347 . S
C1669 H1729 0.958 . S
C1670 C1669 1.347 . S
C1670 C1671 1.455 . S
C1670 H1730 0.930 . S
C1671 C1658 1.412 . S
C1671 C1670 1.455 . S
C1671 C1672 1.331 . S
C1672 C1661 1.451 . S
C1672 C1671 1.331 . S
C1672 C1673 1.497 . S
C1673 C1664 1.395 . S
C1673 C1668 1.446 . S
C1673 C1672 1.497 . S
C1674 C1675 1.582 . S
C1674 H1731 0.962 . S
C1674 H1732 0.959 . S
C1674 H1733 0.958 . S
C1675 C1674 1.582 . S
C1675 O1678 1.458 . S
C1675 H1704 0.980 1_545 S
O1676 C1621 1.426 . S
O1676 C1622 1.334 . S
O1677 C1649 1.412 . S
O1677 C1650 1.393 . S
O1678 C1640 1.435 . S
O1678 C1675 1.458 . S
O1679 C1631 1.468 . S
O1679 C1632 1.408 . S
H1680 C1621 0.980 1_545 S
H1681 C1620 0.959 . S
H1682 C1620 0.959 . S
H1683 C1620 0.960 . S
H1684 C1623 0.929 . S
H1685 C1627 0.929 . S
H1686 C1628 0.959 . S
H1687 C1628 0.961 . S
H1688 C1628 0.961 . S
H1689 C1629 0.960 . S
H1690 C1629 0.960 . S
H1691 C1629 0.961 . S
H1692 C1631 0.980 . S
H1693 C1630 0.961 . S
H1694 C1630 0.960 . S
H1695 C1630 0.959 . S
H1696 C1633 0.933 1_565 S
H1697 C1637 0.931 . S
H1698 C1638 0.959 . S
H1699 C1638 0.961 . S
H1700 C1638 0.959 . S
H1701 C1639 0.960 . S
H1702 C1639 0.960 . S
H1703 C1639 0.960 . S
H1704 C1675 0.980 1_565 S
H1705 C1641 0.930 . S
H1706 C1645 0.930 . S
H1707 C1646 0.961 . S
H1708 C1646 0.960 . S
H1709 C1646 0.958 . S
H1710 C1647 0.961 . S
H1711 C1647 0.960 . S
H1712 C1647 0.960 . S
H1713 C1649 1.007 . S
H1714 C1648 0.961 . S
H1715 C1648 0.961 . S
H1716 C1648 0.959 . S
H1717 C1651 0.932 . S
H1718 C1655 0.929 . S
H1719 C1656 0.961 . S
H1720 C1656 0.959 . S
H1721 C1656 0.959 . S
H1722 C1657 0.960 . S
H1723 C1657 0.962 . S
H1724 C1657 0.961 . S
H1725 C1659 0.929 . S
H1726 C1662 0.930 . S
H1727 C1663 0.929 . S
H1728 C1666 0.930 . S
H1729 C1669 0.958 . S
H1730 C1670 0.930 . S
H1731 C1674 0.962 . S
H1732 C1674 0.959 . S
H1733 C1674 0.958 . S
C1734 C1735 1.560 . S
C1734 H1795 0.959 . S
C1734 H1796 0.959 . S
C1734 H1797 0.960 . S
C1735 C1734 1.560 . S
C1735 O1790 1.426 . S
C1735 H1794 0.980 1_455 S
C1736 C1737 1.407 1_455 S
C1736 C1741 1.418 . S
C1736 O1790 1.334 . S
C1737 C1736 1.407 1_655 S
C1737 C1738 1.360 . S
C1737 H1798 0.929 . S
C1738 C1737 1.360 . S
C1738 C1739 1.401 . S
C1738 C1742 1.527 . S
C1739 C1738 1.401 . S
C1739 C1740 1.405 1_655 S
C1739 C1772 1.587 . S
C1740 C1739 1.405 1_455 S
C1740 C1741 1.332 . S
C1740 C1743 1.496 . S
C1741 C1736 1.418 . S
C1741 C1740 1.332 . S
C1741 H1799 0.929 . S
C1742 C1738 1.527 . S
C1742 H1800 0.959 . S
C1742 H1801 0.961 . S
C1742 H1802 0.961 . S
C1743 C1740 1.496 . S
C1743 H1803 0.960 . S
C1743 H1804 0.960 . S
C1743 H1805 0.961 . S
C1744 C1745 1.517 . S
C1744 H1807 0.961 . S
C1744 H1808 0.960 . S
C1744 H1809 0.959 . S
C1745 C1744 1.517 . S
C1745 O1793 1.468 . S
C1745 H1806 0.980 . S
C1746 C1747 1.349 . S
C1746 C1751 1.367 . S
C1746 O1793 1.408 . S
C1747 C1746 1.349 . S
C1747 C1748 1.407 . S
C1747 H1810 0.885 1_655 S
C1748 C1747 1.407 . S
C1748 C1749 1.449 . S
C1748 C1752 1.535 1_655 S
C1749 C1748 1.449 . S
C1749 C1750 1.384 . S
C1749 C1774 1.553 . S
C1750 C1749 1.384 . S
C1750 C1751 1.364 . S
C1750 C1753 1.450 . S
C1751 C1746 1.367 . S
C1751 C1750 1.364 . S
C1751 H1811 0.931 . S
C1752 C1748 1.535 1_455 S
C1752 H1812 0.959 . S
C1752 H1813 0.961 . S
C1752 H1814 0.959 . S
C1753 C1750 1.450 . S
C1753 H1815 0.960 . S
C1753 H1816 0.960 . S
C1753 H1817 0.960 . S
C1754 C1755 1.309 1_655 S
C1754 C1759 1.304 . S
C1754 O1792 1.435 . S
C1755 C1754 1.309 1_455 S
C1755 C1756 1.476 . S
C1755 H1819 0.930 . S
C1756 C1755 1.476 . S
C1756 C1757 1.400 1_455 S
C1756 C1760 1.567 . S
C1757 C1756 1.400 1_655 S
C1757 C1758 1.373 . S
C1757 C1779 1.432 . S
C1758 C1757 1.373 . S
C1758 C1759 1.339 . S
C1758 C1761 1.530 . S
C1759 C1754 1.304 . S
C1759 C1758 1.339 . S
C1759 H1820 0.930 . S
C1760 C1756 1.567 . S
C1760 H1821 0.961 . S
C1760 H1822 0.960 . S
C1760 H1823 0.958 . S
C1761 C1758 1.530 . S
C1761 H1824 0.961 . S
C1761 H1825 0.960 . S
C1761 H1826 0.960 . S
C1762 C1763 1.530 . S
C1762 H1828 0.961 . S
C1762 H1829 0.961 . S
C1762 H1830 0.959 . S
C1763 C1762 1.530 . S
C1763 O1791 1.412 . S
C1763 H1827 0.967 1_455 S
C1764 C1765 1.288 . S
C1764 C1769 1.377 1_455 S
C1764 O1791 1.393 . S
C1765 C1764 1.288 . S
C1765 C1766 1.369 . S
C1765 H1831 0.932 . S
C1766 C1765 1.369 . S
C1766 C1767 1.398 . S
C1766 C1770 1.527 . S
C1767 C1766 1.398 . S
C1767 C1768 1.380 1_455 S
C1767 C1781 1.497 1_455 S
C1768 C1767 1.380 1_655 S
C1768 C1769 1.383 . S
C1768 C1771 1.603 . S
C1769 C1764 1.377 1_655 S
C1769 C1768 1.383 . S
C1769 H1832 0.929 . S
C1770 C1766 1.527 . S
C1770 H1833 0.961 . S
C1770 H1834 0.959 . S
C1770 H1835 0.959 . S
C1771 C1768 1.603 . S
C1771 H1836 0.960 . S
C1771 H1837 0.962 . S
C1771 H1838 0.961 . S
C1772 C1739 1.587 . S
C1772 C1773 1.360 . S
C1772 C1785 1.412 . S
C1773 C1772 1.360 . S
C1773 C1774 1.365 . S
C1773 H1839 0.929 . S
C1774 C1749 1.553 . S
C1774 C1773 1.365 . S
C1774 C1775 1.404 . S
C1775 C1774 1.404 . S
C1775 C1776 1.395 . S
C1775 C1786 1.451 . S
C1776 C1775 1.395 . S
C1776 C1777 1.322 . S
C1776 H1840 0.930 . S
C1777 C1776 1.322 . S
C1777 C1778 1.459 . S
C1777 H1841 0.929 . S
C1778 C1777 1.459 . S
C1778 C1779 1.445 . S
C1778 C1787 1.395 . S
C1779 C1757 1.432 . S
C1779 C1778 1.445 . S
C1779 C1780 1.370 . S
C1780 C1779 1.370 . S
C1780 C1781 1.438 . S
C1780 H1842 0.930 . S
C1781 C1767 1.497 1_655 S
C1781 C1780 1.438 . S
C1781 C1782 1.360 . S
C1782 C1781 1.360 . S
C1782 C1783 1.401 . S
C1782 C1787 1.446 . S
C1783 C1782 1.401 . S
C1783 C1784 1.347 . S
C1783 H1843 0.929 . S
C1784 C1783 1.347 . S
C1784 C1785 1.455 . S
C1784 H1844 0.930 . S
C1785 C1772 1.412 . S
C1785 C1784 1.455 . S
C1785 C1786 1.331 . S
C1786 C1775 1.451 . S
C1786 C1785 1.331 . S
C1786 C1787 1.497 . S
C1787 C1778 1.395 . S
C1787 C1782 1.446 . S
C1787 C1786 1.497 . S
C1788 C1789 1.582 1_655 S
C1788 H1845 0.966 1_655 S
C1788 H1846 0.959 . S
C1788 H1847 0.958 . S
C1789 C1788 1.582 1_455 S
C1789 O1792 1.390 1_455 S
C1789 H1818 1.009 . S
O1790 C1735 1.426 . S
O1790 C1736 1.334 . S
O1791 C1763 1.412 . S
O1791 C1764 1.393 . S
O1792 C1754 1.435 . S
O1792 C1789 1.390 1_655 S
O1793 C1745 1.468 . S
O1793 C1746 1.408 . S
H1794 C1735 0.980 1_655 S
H1795 C1734 0.959 . S
H1796 C1734 0.959 . S
H1797 C1734 0.960 . S
H1798 C1737 0.929 . S
H1799 C1741 0.929 . S
H1800 C1742 0.959 . S
H1801 C1742 0.961 . S
H1802 C1742 0.961 . S
H1803 C1743 0.960 . S
H1804 C1743 0.960 . S
H1805 C1743 0.961 . S
H1806 C1745 0.980 . S
H1807 C1744 0.961 . S
H1808 C1744 0.960 . S
H1809 C1744 0.959 . S
H1810 C1747 0.885 1_455 S
H1811 C1751 0.931 . S
H1812 C1752 0.959 . S
H1813 C1752 0.961 . S
H1814 C1752 0.959 . S
H1815 C1753 0.960 . S
H1816 C1753 0.960 . S
H1817 C1753 0.960 . S
H1818 C1789 1.009 . S
H1819 C1755 0.930 . S
H1820 C1759 0.930 . S
H1821 C1760 0.961 . S
H1822 C1760 0.960 . S
H1823 C1760 0.958 . S
H1824 C1761 0.961 . S
H1825 C1761 0.960 . S
H1826 C1761 0.960 . S
H1827 C1763 0.967 1_655 S
H1828 C1762 0.961 . S
H1829 C1762 0.961 . S
H1830 C1762 0.959 . S
H1831 C1765 0.932 . S
H1832 C1769 0.929 . S
H1833 C1770 0.961 . S
H1834 C1770 0.959 . S
H1835 C1770 0.959 . S
H1836 C1771 0.960 . S
H1837 C1771 0.962 . S
H1838 C1771 0.961 . S
H1839 C1773 0.929 . S
H1840 C1776 0.930 . S
H1841 C1777 0.929 . S
H1842 C1780 0.930 . S
H1843 C1783 0.929 . S
H1844 C1784 0.930 . S
H1845 C1788 0.966 1_455 S
H1846 C1788 0.959 . S
H1847 C1788 0.958 . S
C1848 C1849 1.560 . S
C1848 H1909 0.959 . S
C1848 H1910 0.959 . S
C1848 H1911 0.960 . S
C1849 C1848 1.560 . S
C1849 O1904 1.426 . S
C1849 H1908 0.980 . S
C1850 C1851 1.407 . S
C1850 C1855 1.418 . S
C1850 O1904 1.334 . S
C1851 C1850 1.407 . S
C1851 C1852 1.360 . S
C1851 H1912 0.929 . S
C1852 C1851 1.360 . S
C1852 C1853 1.401 . S
C1852 C1856 1.527 . S
C1853 C1852 1.401 . S
C1853 C1854 1.405 . S
C1853 C1886 1.587 . S
C1854 C1853 1.405 . S
C1854 C1855 1.332 . S
C1854 C1857 1.496 . S
C1855 C1850 1.418 . S
C1855 C1854 1.332 . S
C1855 H1913 0.929 . S
C1856 C1852 1.527 . S
C1856 H1914 0.959 . S
C1856 H1915 0.961 . S
C1856 H1916 0.961 . S
C1857 C1854 1.496 . S
C1857 H1917 0.960 . S
C1857 H1918 0.960 . S
C1857 H1919 0.961 . S
C1858 C1859 1.517 . S
C1858 H1921 0.961 . S
C1858 H1922 0.960 . S
C1858 H1923 0.959 . S
C1859 C1858 1.517 . S
C1859 O1907 1.468 . S
C1859 H1920 0.980 . S
C1860 C1861 1.349 . S
C1860 C1865 1.367 . S
C1860 O1907 1.408 . S
C1861 C1860 1.349 . S
C1861 C1862 1.407 . S
C1861 H1924 0.930 . S
C1862 C1861 1.407 . S
C1862 C1863 1.449 . S
C1862 C1866 1.535 . S
C1863 C1862 1.449 . S
C1863 C1864 1.384 . S
C1863 C1888 1.553 . S
C1864 C1863 1.384 . S
C1864 C1865 1.364 . S
C1864 C1867 1.450 . S
C1865 C1860 1.367 . S
C1865 C1864 1.364 . S
C1865 H1925 0.931 . S
C1866 C1862 1.535 . S
C1866 H1926 0.959 . S
C1866 H1927 0.961 . S
C1866 H1928 0.959 . S
C1867 C1864 1.450 . S
C1867 H1929 0.960 . S
C1867 H1930 0.960 . S
C1867 H1931 0.960 . S
C1868 C1869 1.309 . S
C1868 C1873 1.304 . S
C1868 O1906 1.435 . S
C1869 C1868 1.309 . S
C1869 C1870 1.476 . S
C1869 H1933 0.930 . S
C1870 C1869 1.476 . S
C1870 C1871 1.400 . S
C1870 C1874 1.567 . S
C1871 C1870 1.400 . S
C1871 C1872 1.373 . S
C1871 C1893 1.432 . S
C1872 C1871 1.373 . S
C1872 C1873 1.339 . S
C1872 C1875 1.530 . S
C1873 C1868 1.304 . S
C1873 C1872 1.339 . S
C1873 H1934 0.930 . S
C1874 C1870 1.567 . S
C1874 H1935 0.961 . S
C1874 H1936 0.960 . S
C1874 H1937 0.958 . S
C1875 C1872 1.530 . S
C1875 H1938 0.961 . S
C1875 H1939 0.960 . S
C1875 H1940 0.960 . S
C1876 C1877 1.530 . S
C1876 H1942 0.961 . S
C1876 H1943 0.961 . S
C1876 H1944 0.959 . S
C1877 C1876 1.530 . S
C1877 O1905 1.412 . S
C1877 H1941 0.980 . S
C1878 C1879 1.288 . S
C1878 C1883 1.377 . S
C1878 O1905 1.393 . S
C1879 C1878 1.288 . S
C1879 C1880 1.369 . S
C1879 H1945 0.932 . S
C1880 C1879 1.369 . S
C1880 C1881 1.398 . S
C1880 C1884 1.527 . S
C1881 C1880 1.398 . S
C1881 C1882 1.380 . S
C1881 C1895 1.497 . S
C1882 C1881 1.380 . S
C1882 C1883 1.383 . S
C1882 C1885 1.603 . S
C1883 C1878 1.377 . S
C1883 C1882 1.383 . S
C1883 H1946 0.929 . S
C1884 C1880 1.527 . S
C1884 H1947 0.961 . S
C1884 H1948 0.959 . S
C1884 H1949 0.959 . S
C1885 C1882 1.603 . S
C1885 H1950 0.960 . S
C1885 H1951 0.962 . S
C1885 H1952 0.961 . S
C1886 C1853 1.587 . S
C1886 C1887 1.360 . S
C1886 C1899 1.412 . S
C1887 C1886 1.360 . S
C1887 C1888 1.365 . S
C1887 H1953 0.929 . S
C1888 C1863 1.553 . S
C1888 C1887 1.365 . S
C1888 C1889 1.404 . S
C1889 C1888 1.404 . S
C1889 C1890 1.395 . S
C1889 C1900 1.451 . S
C1890 C1889 1.395 . S
C1890 C1891 1.322 . S
C1890 H1954 0.930 . S
C1891 C1890 1.322 . S
C1891 C1892 1.459 . S
C1891 H1955 0.929 . S
C1892 C1891 1.459 . S
C1892 C1893 1.445 . S
C1892 C1901 1.395 . S
C1893 C1871 1.432 . S
C1893 C1892 1.445 . S
C1893 C1894 1.370 . S
C1894 C1893 1.370 . S
C1894 C1895 1.438 . S
C1894 H1956 0.930 . S
C1895 C1881 1.497 . S
C1895 C1894 1.438 . S
C1895 C1896 1.360 . S
C1896 C1895 1.360 . S
C1896 C1897 1.401 . S
C1896 C1901 1.446 . S
C1897 C1896 1.401 . S
C1897 C1898 1.347 . S
C1897 H1957 0.929 . S
C1898 C1897 1.347 . S
C1898 C1899 1.455 . S
C1898 H1958 0.930 . S
C1899 C1886 1.412 . S
C1899 C1898 1.455 . S
C1899 C1900 1.331 . S
C1900 C1889 1.451 . S
C1900 C1899 1.331 . S
C1900 C1901 1.497 . S
C1901 C1892 1.395 . S
C1901 C1896 1.446 . S
C1901 C1900 1.497 . S
C1902 C1903 1.582 . S
C1902 H1959 0.962 . S
C1902 H1960 0.959 . S
C1902 H1961 0.958 . S
C1903 C1902 1.582 . S
C1903 O1906 1.458 . S
C1903 H1932 0.980 . S
O1904 C1849 1.426 . S
O1904 C1850 1.334 . S
O1905 C1877 1.412 . S
O1905 C1878 1.393 . S
O1906 C1868 1.435 . S
O1906 C1903 1.458 . S
O1907 C1859 1.468 . S
O1907 C1860 1.408 . S
H1908 C1849 0.980 . S
H1909 C1848 0.959 . S
H1910 C1848 0.959 . S
H1911 C1848 0.960 . S
H1912 C1851 0.929 . S
H1913 C1855 0.929 . S
H1914 C1856 0.959 . S
H1915 C1856 0.961 . S
H1916 C1856 0.961 . S
H1917 C1857 0.960 . S
H1918 C1857 0.960 . S
H1919 C1857 0.961 . S
H1920 C1859 0.980 . S
H1921 C1858 0.961 . S
H1922 C1858 0.960 . S
H1923 C1858 0.959 . S
H1924 C1861 0.930 . S
H1925 C1865 0.931 . S
H1926 C1866 0.959 . S
H1927 C1866 0.961 . S
H1928 C1866 0.959 . S
H1929 C1867 0.960 . S
H1930 C1867 0.960 . S
H1931 C1867 0.960 . S
H1932 C1903 0.980 . S
H1933 C1869 0.930 . S
H1934 C1873 0.930 . S
H1935 C1874 0.961 . S
H1936 C1874 0.960 . S
H1937 C1874 0.958 . S
H1938 C1875 0.961 . S
H1939 C1875 0.960 . S
H1940 C1875 0.960 . S
H1941 C1877 0.980 . S
H1942 C1876 0.961 . S
H1943 C1876 0.961 . S
H1944 C1876 0.959 . S
H1945 C1879 0.932 . S
H1946 C1883 0.929 . S
H1947 C1884 0.961 . S
H1948 C1884 0.959 . S
H1949 C1884 0.959 . S
H1950 C1885 0.960 . S
H1951 C1885 0.962 . S
H1952 C1885 0.961 . S
H1953 C1887 0.929 . S
H1954 C1890 0.930 . S
H1955 C1891 0.929 . S
H1956 C1894 0.930 . S
H1957 C1897 0.929 . S
H1958 C1898 0.930 . S
H1959 C1902 0.962 . S
H1960 C1902 0.959 . S
H1961 C1902 0.958 . S
C1962 C1963 1.560 . S
C1962 H2023 0.959 . S
C1962 H2024 0.959 . S
C1962 H2025 0.960 . S
C1963 C1962 1.560 . S
C1963 O2018 1.426 . S
C1963 H2022 0.980 . S
C1964 C1965 1.407 . S
C1964 C1969 1.418 . S
C1964 O2018 1.334 . S
C1965 C1964 1.407 . S
C1965 C1966 1.360 . S
C1965 H2026 0.929 . S
C1966 C1965 1.360 . S
C1966 C1967 1.401 . S
C1966 C1970 1.527 . S
C1967 C1966 1.401 . S
C1967 C1968 1.405 . S
C1967 C2000 1.587 . S
C1968 C1967 1.405 . S
C1968 C1969 1.332 . S
C1968 C1971 1.496 . S
C1969 C1964 1.418 . S
C1969 C1968 1.332 . S
C1969 H2027 0.929 . S
C1970 C1966 1.527 . S
C1970 H2028 0.959 . S
C1970 H2029 0.961 . S
C1970 H2030 0.961 . S
C1971 C1968 1.496 . S
C1971 H2031 0.960 . S
C1971 H2032 0.960 . S
C1971 H2033 0.961 . S
C1972 C1973 1.517 . S
C1972 H2035 0.961 . S
C1972 H2036 0.960 . S
C1972 H2037 0.959 . S
C1973 C1972 1.517 . S
C1973 O2021 1.468 . S
C1973 H2034 0.980 . S
C1974 C1975 1.349 . S
C1974 C1979 1.367 . S
C1974 O2021 1.408 . S
C1975 C1974 1.349 . S
C1975 C1976 1.407 . S
C1975 H2038 0.930 . S
C1976 C1975 1.407 . S
C1976 C1977 1.449 . S
C1976 C1980 1.535 . S
C1977 C1976 1.449 . S
C1977 C1978 1.384 . S
C1977 C2002 1.553 . S
C1978 C1977 1.384 . S
C1978 C1979 1.364 . S
C1978 C1981 1.450 . S
C1979 C1974 1.367 . S
C1979 C1978 1.364 . S
C1979 H2039 0.931 . S
C1980 C1976 1.535 . S
C1980 H2040 0.959 . S
C1980 H2041 0.961 . S
C1980 H2042 0.959 . S
C1981 C1978 1.450 . S
C1981 H2043 0.960 . S
C1981 H2044 0.960 . S
C1981 H2045 0.960 . S
C1982 C1983 1.309 . S
C1982 C1987 1.304 . S
C1982 O2020 1.435 . S
C1983 C1982 1.309 . S
C1983 C1984 1.476 . S
C1983 H2047 0.930 . S
C1984 C1983 1.476 . S
C1984 C1985 1.400 . S
C1984 C1988 1.567 . S
C1985 C1984 1.400 . S
C1985 C1986 1.373 . S
C1985 C2007 1.432 . S
C1986 C1985 1.373 . S
C1986 C1987 1.339 . S
C1986 C1989 1.530 . S
C1987 C1982 1.304 . S
C1987 C1986 1.339 . S
C1987 H2048 0.930 . S
C1988 C1984 1.567 . S
C1988 H2049 0.961 . S
C1988 H2050 0.960 . S
C1988 H2051 0.958 . S
C1989 C1986 1.530 . S
C1989 H2052 0.961 . S
C1989 H2053 0.960 . S
C1989 H2054 0.960 . S
C1990 C1991 1.530 . S
C1990 H2056 0.961 . S
C1990 H2057 0.961 . S
C1990 H2058 0.959 . S
C1991 C1990 1.530 . S
C1991 O2019 1.412 . S
C1991 H2055 0.980 . S
C1992 C1993 1.288 . S
C1992 C1997 1.377 . S
C1992 O2019 1.393 . S
C1993 C1992 1.288 . S
C1993 C1994 1.369 . S
C1993 H2059 0.932 . S
C1994 C1993 1.369 . S
C1994 C1995 1.398 . S
C1994 C1998 1.527 . S
C1995 C1994 1.398 . S
C1995 C1996 1.380 . S
C1995 C2009 1.497 . S
C1996 C1995 1.380 . S
C1996 C1997 1.383 . S
C1996 C1999 1.603 . S
C1997 C1992 1.377 . S
C1997 C1996 1.383 . S
C1997 H2060 0.929 . S
C1998 C1994 1.527 . S
C1998 H2061 0.961 . S
C1998 H2062 0.959 . S
C1998 H2063 0.959 . S
C1999 C1996 1.603 . S
C1999 H2064 0.960 . S
C1999 H2065 0.962 . S
C1999 H2066 0.961 . S
C2000 C1967 1.587 . S
C2000 C2001 1.360 . S
C2000 C2013 1.412 . S
C2001 C2000 1.360 . S
C2001 C2002 1.365 . S
C2001 H2067 0.929 . S
C2002 C1977 1.553 . S
C2002 C2001 1.365 . S
C2002 C2003 1.404 . S
C2003 C2002 1.404 . S
C2003 C2004 1.395 . S
C2003 C2014 1.451 . S
C2004 C2003 1.395 . S
C2004 C2005 1.322 . S
C2004 H2068 0.930 . S
C2005 C2004 1.322 . S
C2005 C2006 1.459 . S
C2005 H2069 0.929 . S
C2006 C2005 1.459 . S
C2006 C2007 1.445 . S
C2006 C2015 1.395 . S
C2007 C1985 1.432 . S
C2007 C2006 1.445 . S
C2007 C2008 1.370 . S
C2008 C2007 1.370 . S
C2008 C2009 1.438 . S
C2008 H2070 0.930 . S
C2009 C1995 1.497 . S
C2009 C2008 1.438 . S
C2009 C2010 1.360 . S
C2010 C2009 1.360 . S
C2010 C2011 1.401 . S
C2010 C2015 1.446 . S
C2011 C2010 1.401 . S
C2011 C2012 1.347 . S
C2011 H2071 0.929 . S
C2012 C2011 1.347 . S
C2012 C2013 1.455 . S
C2012 H2072 0.930 . S
C2013 C2000 1.412 . S
C2013 C2012 1.455 . S
C2013 C2014 1.331 . S
C2014 C2003 1.451 . S
C2014 C2013 1.331 . S
C2014 C2015 1.497 . S
C2015 C2006 1.395 . S
C2015 C2010 1.446 . S
C2015 C2014 1.497 . S
C2016 C2017 1.582 . S
C2016 H2073 0.962 . S
C2016 H2074 0.959 . S
C2016 H2075 0.958 . S
C2017 C2016 1.582 . S
C2017 O2020 1.458 . S
C2017 H2046 0.980 . S
O2018 C1963 1.426 . S
O2018 C1964 1.334 . S
O2019 C1991 1.412 . S
O2019 C1992 1.393 . S
O2020 C1982 1.435 . S
O2020 C2017 1.458 . S
O2021 C1973 1.468 . S
O2021 C1974 1.408 . S
H2022 C1963 0.980 . S
H2023 C1962 0.959 . S
H2024 C1962 0.959 . S
H2025 C1962 0.960 . S
H2026 C1965 0.929 . S
H2027 C1969 0.929 . S
H2028 C1970 0.959 . S
H2029 C1970 0.961 . S
H2030 C1970 0.961 . S
H2031 C1971 0.960 . S
H2032 C1971 0.960 . S
H2033 C1971 0.961 . S
H2034 C1973 0.980 . S
H2035 C1972 0.961 . S
H2036 C1972 0.960 . S
H2037 C1972 0.959 . S
H2038 C1975 0.930 . S
H2039 C1979 0.931 . S
H2040 C1980 0.959 . S
H2041 C1980 0.961 . S
H2042 C1980 0.959 . S
H2043 C1981 0.960 . S
H2044 C1981 0.960 . S
H2045 C1981 0.960 . S
H2046 C2017 0.980 . S
H2047 C1983 0.930 . S
H2048 C1987 0.930 . S
H2049 C1988 0.961 . S
H2050 C1988 0.960 . S
H2051 C1988 0.958 . S
H2052 C1989 0.961 . S
H2053 C1989 0.960 . S
H2054 C1989 0.960 . S
H2055 C1991 0.980 . S
H2056 C1990 0.961 . S
H2057 C1990 0.961 . S
H2058 C1990 0.959 . S
H2059 C1993 0.932 . S
H2060 C1997 0.929 . S
H2061 C1998 0.961 . S
H2062 C1998 0.959 . S
H2063 C1998 0.959 . S
H2064 C1999 0.960 . S
H2065 C1999 0.962 . S
H2066 C1999 0.961 . S
H2067 C2001 0.929 . S
H2068 C2004 0.930 . S
H2069 C2005 0.929 . S
H2070 C2008 0.930 . S
H2071 C2011 0.929 . S
H2072 C2012 0.930 . S
H2073 C2016 0.962 . S
H2074 C2016 0.959 . S
H2075 C2016 0.958 . S
C2076 C2077 1.560 . S
C2076 H2137 0.959 . S
C2076 H2138 0.959 . S
C2076 H2139 0.960 . S
C2077 C2076 1.560 . S
C2077 O2132 1.426 . S
C2077 H2136 0.980 . S
C2078 C2079 1.407 . S
C2078 C2083 1.418 . S
C2078 O2132 1.334 . S
C2079 C2078 1.407 . S
C2079 C2080 1.360 . S
C2079 H2140 0.929 . S
C2080 C2079 1.360 . S
C2080 C2081 1.401 . S
C2080 C2084 1.527 . S
C2081 C2080 1.401 . S
C2081 C2082 1.405 . S
C2081 C2114 1.587 . S
C2082 C2081 1.405 . S
C2082 C2083 1.332 . S
C2082 C2085 1.496 . S
C2083 C2078 1.418 . S
C2083 C2082 1.332 . S
C2083 H2141 0.929 . S
C2084 C2080 1.527 . S
C2084 H2142 0.959 . S
C2084 H2143 0.961 . S
C2084 H2144 0.961 . S
C2085 C2082 1.496 . S
C2085 H2145 0.960 . S
C2085 H2146 0.960 . S
C2085 H2147 0.961 . S
C2086 C2087 1.517 . S
C2086 H2149 0.961 . S
C2086 H2150 0.960 . S
C2086 H2151 0.959 . S
C2087 C2086 1.517 . S
C2087 O2135 1.468 . S
C2087 H2148 0.980 . S
C2088 C2089 1.349 . S
C2088 C2093 1.367 . S
C2088 O2135 1.408 . S
C2089 C2088 1.349 . S
C2089 C2090 1.407 . S
C2089 H2152 0.930 . S
C2090 C2089 1.407 . S
C2090 C2091 1.449 . S
C2090 C2094 1.535 . S
C2091 C2090 1.449 . S
C2091 C2092 1.384 . S
C2091 C2116 1.553 . S
C2092 C2091 1.384 . S
C2092 C2093 1.364 . S
C2092 C2095 1.450 . S
C2093 C2088 1.367 . S
C2093 C2092 1.364 . S
C2093 H2153 0.931 . S
C2094 C2090 1.535 . S
C2094 H2154 0.959 . S
C2094 H2155 0.961 . S
C2094 H2156 0.959 . S
C2095 C2092 1.450 . S
C2095 H2157 0.960 . S
C2095 H2158 0.960 . S
C2095 H2159 0.960 . S
C2096 C2097 1.309 . S
C2096 C2101 1.304 . S
C2096 O2134 1.435 . S
C2097 C2096 1.309 . S
C2097 C2098 1.476 . S
C2097 H2161 0.930 . S
C2098 C2097 1.476 . S
C2098 C2099 1.400 . S
C2098 C2102 1.567 . S
C2099 C2098 1.400 . S
C2099 C2100 1.373 . S
C2099 C2121 1.432 . S
C2100 C2099 1.373 . S
C2100 C2101 1.339 . S
C2100 C2103 1.530 . S
C2101 C2096 1.304 . S
C2101 C2100 1.339 . S
C2101 H2162 0.930 . S
C2102 C2098 1.567 . S
C2102 H2163 0.961 . S
C2102 H2164 0.960 . S
C2102 H2165 0.958 . S
C2103 C2100 1.530 . S
C2103 H2166 0.961 . S
C2103 H2167 0.960 . S
C2103 H2168 0.960 . S
C2104 C2105 1.530 . S
C2104 H2170 0.961 . S
C2104 H2171 0.961 . S
C2104 H2172 0.959 . S
C2105 C2104 1.530 . S
C2105 O2133 1.412 . S
C2105 H2169 0.980 . S
C2106 C2107 1.288 . S
C2106 C2111 1.377 . S
C2106 O2133 1.393 . S
C2107 C2106 1.288 . S
C2107 C2108 1.369 . S
C2107 H2173 0.932 . S
C2108 C2107 1.369 . S
C2108 C2109 1.398 . S
C2108 C2112 1.527 . S
C2109 C2108 1.398 . S
C2109 C2110 1.380 . S
C2109 C2123 1.497 . S
C2110 C2109 1.380 . S
C2110 C2111 1.383 . S
C2110 C2113 1.603 . S
C2111 C2106 1.377 . S
C2111 C2110 1.383 . S
C2111 H2174 0.929 . S
C2112 C2108 1.527 . S
C2112 H2175 0.961 . S
C2112 H2176 0.959 . S
C2112 H2177 0.959 . S
C2113 C2110 1.603 . S
C2113 H2178 0.960 . S
C2113 H2179 0.962 . S
C2113 H2180 0.961 . S
C2114 C2081 1.587 . S
C2114 C2115 1.360 . S
C2114 C2127 1.412 . S
C2115 C2114 1.360 . S
C2115 C2116 1.365 . S
C2115 H2181 0.929 . S
C2116 C2091 1.553 . S
C2116 C2115 1.365 . S
C2116 C2117 1.404 . S
C2117 C2116 1.404 . S
C2117 C2118 1.395 . S
C2117 C2128 1.451 . S
C2118 C2117 1.395 . S
C2118 C2119 1.322 . S
C2118 H2182 0.930 . S
C2119 C2118 1.322 . S
C2119 C2120 1.459 . S
C2119 H2183 0.929 . S
C2120 C2119 1.459 . S
C2120 C2121 1.445 . S
C2120 C2129 1.395 . S
C2121 C2099 1.432 . S
C2121 C2120 1.445 . S
C2121 C2122 1.370 . S
C2122 C2121 1.370 . S
C2122 C2123 1.438 . S
C2122 H2184 0.930 . S
C2123 C2109 1.497 . S
C2123 C2122 1.438 . S
C2123 C2124 1.360 . S
C2124 C2123 1.360 . S
C2124 C2125 1.401 . S
C2124 C2129 1.446 . S
C2125 C2124 1.401 . S
C2125 C2126 1.347 . S
C2125 H2185 0.929 . S
C2126 C2125 1.347 . S
C2126 C2127 1.455 . S
C2126 H2186 0.930 . S
C2127 C2114 1.412 . S
C2127 C2126 1.455 . S
C2127 C2128 1.331 . S
C2128 C2117 1.451 . S
C2128 C2127 1.331 . S
C2128 C2129 1.497 . S
C2129 C2120 1.395 . S
C2129 C2124 1.446 . S
C2129 C2128 1.497 . S
C2130 C2131 1.582 . S
C2130 H2187 0.962 . S
C2130 H2188 0.959 . S
C2130 H2189 0.958 . S
C2131 C2130 1.582 . S
C2131 O2134 1.458 . S
C2131 H2160 0.980 . S
O2132 C2077 1.426 . S
O2132 C2078 1.334 . S
O2133 C2105 1.412 . S
O2133 C2106 1.393 . S
O2134 C2096 1.435 . S
O2134 C2131 1.458 . S
O2135 C2087 1.468 . S
O2135 C2088 1.408 . S
H2136 C2077 0.980 . S
H2137 C2076 0.959 . S
H2138 C2076 0.959 . S
H2139 C2076 0.960 . S
H2140 C2079 0.929 . S
H2141 C2083 0.929 . S
H2142 C2084 0.959 . S
H2143 C2084 0.961 . S
H2144 C2084 0.961 . S
H2145 C2085 0.960 . S
H2146 C2085 0.960 . S
H2147 C2085 0.961 . S
H2148 C2087 0.980 . S
H2149 C2086 0.961 . S
H2150 C2086 0.960 . S
H2151 C2086 0.959 . S
H2152 C2089 0.930 . S
H2153 C2093 0.931 . S
H2154 C2094 0.959 . S
H2155 C2094 0.961 . S
H2156 C2094 0.959 . S
H2157 C2095 0.960 . S
H2158 C2095 0.960 . S
H2159 C2095 0.960 . S
H2160 C2131 0.980 . S
H2161 C2097 0.930 . S
H2162 C2101 0.930 . S
H2163 C2102 0.961 . S
H2164 C2102 0.960 . S
H2165 C2102 0.958 . S
H2166 C2103 0.961 . S
H2167 C2103 0.960 . S
H2168 C2103 0.960 . S
H2169 C2105 0.980 . S
H2170 C2104 0.961 . S
H2171 C2104 0.961 . S
H2172 C2104 0.959 . S
H2173 C2107 0.932 . S
H2174 C2111 0.929 . S
H2175 C2112 0.961 . S
H2176 C2112 0.959 . S
H2177 C2112 0.959 . S
H2178 C2113 0.960 . S
H2179 C2113 0.962 . S
H2180 C2113 0.961 . S
H2181 C2115 0.929 . S
H2182 C2118 0.930 . S
H2183 C2119 0.929 . S
H2184 C2122 0.930 . S
H2185 C2125 0.929 . S
H2186 C2126 0.930 . S
H2187 C2130 0.962 . S
H2188 C2130 0.959 . S
H2189 C2130 0.958 . S
C2190 C2191 1.560 . S
C2190 H2251 0.959 . S
C2190 H2252 0.959 . S
C2190 H2253 0.960 . S
C2191 C2190 1.560 . S
C2191 O2246 1.426 . S
C2191 H2250 0.980 . S
C2192 C2193 1.407 . S
C2192 C2197 1.418 . S
C2192 O2246 1.334 . S
C2193 C2192 1.407 . S
C2193 C2194 1.360 . S
C2193 H2254 0.929 . S
C2194 C2193 1.360 . S
C2194 C2195 1.401 . S
C2194 C2198 1.527 . S
C2195 C2194 1.401 . S
C2195 C2196 1.405 . S
C2195 C2228 1.587 . S
C2196 C2195 1.405 . S
C2196 C2197 1.332 . S
C2196 C2199 1.496 . S
C2197 C2192 1.418 . S
C2197 C2196 1.332 . S
C2197 H2255 0.929 . S
C2198 C2194 1.527 . S
C2198 H2256 0.959 . S
C2198 H2257 0.961 . S
C2198 H2258 0.961 . S
C2199 C2196 1.496 . S
C2199 H2259 0.960 . S
C2199 H2260 0.960 . S
C2199 H2261 0.961 . S
C2200 C2201 1.517 . S
C2200 H2263 0.961 . S
C2200 H2264 0.960 . S
C2200 H2265 0.959 . S
C2201 C2200 1.517 . S
C2201 O2249 1.468 . S
C2201 H2262 0.980 . S
C2202 C2203 1.349 . S
C2202 C2207 1.367 . S
C2202 O2249 1.408 . S
C2203 C2202 1.349 . S
C2203 C2204 1.407 . S
C2203 H2266 0.930 . S
C2204 C2203 1.407 . S
C2204 C2205 1.449 . S
C2204 C2208 1.535 . S
C2205 C2204 1.449 . S
C2205 C2206 1.384 . S
C2205 C2230 1.553 . S
C2206 C2205 1.384 . S
C2206 C2207 1.364 . S
C2206 C2209 1.450 . S
C2207 C2202 1.367 . S
C2207 C2206 1.364 . S
C2207 H2267 0.931 . S
C2208 C2204 1.535 . S
C2208 H2268 0.959 . S
C2208 H2269 0.961 . S
C2208 H2270 0.959 . S
C2209 C2206 1.450 . S
C2209 H2271 0.960 . S
C2209 H2272 0.960 . S
C2209 H2273 0.960 . S
C2210 C2211 1.309 . S
C2210 C2215 1.304 . S
C2210 O2248 1.435 . S
C2211 C2210 1.309 . S
C2211 C2212 1.476 . S
C2211 H2275 0.930 . S
C2212 C2211 1.476 . S
C2212 C2213 1.400 . S
C2212 C2216 1.567 . S
C2213 C2212 1.400 . S
C2213 C2214 1.373 . S
C2213 C2235 1.432 . S
C2214 C2213 1.373 . S
C2214 C2215 1.339 . S
C2214 C2217 1.530 . S
C2215 C2210 1.304 . S
C2215 C2214 1.339 . S
C2215 H2276 0.930 . S
C2216 C2212 1.567 . S
C2216 H2277 0.961 . S
C2216 H2278 0.960 . S
C2216 H2279 0.958 . S
C2217 C2214 1.530 . S
C2217 H2280 0.961 . S
C2217 H2281 0.960 . S
C2217 H2282 0.960 . S
C2218 C2219 1.530 . S
C2218 H2284 0.961 . S
C2218 H2285 0.961 . S
C2218 H2286 0.959 . S
C2219 C2218 1.530 . S
C2219 O2247 1.412 . S
C2219 H2283 0.980 . S
C2220 C2221 1.288 . S
C2220 C2225 1.377 . S
C2220 O2247 1.393 . S
C2221 C2220 1.288 . S
C2221 C2222 1.369 . S
C2221 H2287 0.932 . S
C2222 C2221 1.369 . S
C2222 C2223 1.398 . S
C2222 C2226 1.527 . S
C2223 C2222 1.398 . S
C2223 C2224 1.380 . S
C2223 C2237 1.497 . S
C2224 C2223 1.380 . S
C2224 C2225 1.383 . S
C2224 C2227 1.603 . S
C2225 C2220 1.377 . S
C2225 C2224 1.383 . S
C2225 H2288 0.929 . S
C2226 C2222 1.527 . S
C2226 H2289 0.961 . S
C2226 H2290 0.959 . S
C2226 H2291 0.959 . S
C2227 C2224 1.603 . S
C2227 H2292 0.960 . S
C2227 H2293 0.962 . S
C2227 H2294 0.961 . S
C2228 C2195 1.587 . S
C2228 C2229 1.360 . S
C2228 C2241 1.412 . S
C2229 C2228 1.360 . S
C2229 C2230 1.365 . S
C2229 H2295 0.929 . S
C2230 C2205 1.553 . S
C2230 C2229 1.365 . S
C2230 C2231 1.404 . S
C2231 C2230 1.404 . S
C2231 C2232 1.395 . S
C2231 C2242 1.451 . S
C2232 C2231 1.395 . S
C2232 C2233 1.322 . S
C2232 H2296 0.930 . S
C2233 C2232 1.322 . S
C2233 C2234 1.459 . S
C2233 H2297 0.929 . S
C2234 C2233 1.459 . S
C2234 C2235 1.445 . S
C2234 C2243 1.395 . S
C2235 C2213 1.432 . S
C2235 C2234 1.445 . S
C2235 C2236 1.370 . S
C2236 C2235 1.370 . S
C2236 C2237 1.438 . S
C2236 H2298 0.930 . S
C2237 C2223 1.497 . S
C2237 C2236 1.438 . S
C2237 C2238 1.360 . S
C2238 C2237 1.360 . S
C2238 C2239 1.401 . S
C2238 C2243 1.446 . S
C2239 C2238 1.401 . S
C2239 C2240 1.347 . S
C2239 H2299 0.929 . S
C2240 C2239 1.347 . S
C2240 C2241 1.455 . S
C2240 H2300 0.930 . S
C2241 C2228 1.412 . S
C2241 C2240 1.455 . S
C2241 C2242 1.331 . S
C2242 C2231 1.451 . S
C2242 C2241 1.331 . S
C2242 C2243 1.497 . S
C2243 C2234 1.395 . S
C2243 C2238 1.446 . S
C2243 C2242 1.497 . S
C2244 C2245 1.582 . S
C2244 H2301 0.962 . S
C2244 H2302 0.959 . S
C2244 H2303 0.958 . S
C2245 C2244 1.582 . S
C2245 O2248 1.458 . S
C2245 H2274 0.980 . S
O2246 C2191 1.426 . S
O2246 C2192 1.334 . S
O2247 C2219 1.412 . S
O2247 C2220 1.393 . S
O2248 C2210 1.435 . S
O2248 C2245 1.458 . S
O2249 C2201 1.468 . S
O2249 C2202 1.408 . S
H2250 C2191 0.980 . S
H2251 C2190 0.959 . S
H2252 C2190 0.959 . S
H2253 C2190 0.960 . S
H2254 C2193 0.929 . S
H2255 C2197 0.929 . S
H2256 C2198 0.959 . S
H2257 C2198 0.961 . S
H2258 C2198 0.961 . S
H2259 C2199 0.960 . S
H2260 C2199 0.960 . S
H2261 C2199 0.961 . S
H2262 C2201 0.980 . S
H2263 C2200 0.961 . S
H2264 C2200 0.960 . S
H2265 C2200 0.959 . S
H2266 C2203 0.930 . S
H2267 C2207 0.931 . S
H2268 C2208 0.959 . S
H2269 C2208 0.961 . S
H2270 C2208 0.959 . S
H2271 C2209 0.960 . S
H2272 C2209 0.960 . S
H2273 C2209 0.960 . S
H2274 C2245 0.980 . S
H2275 C2211 0.930 . S
H2276 C2215 0.930 . S
H2277 C2216 0.961 . S
H2278 C2216 0.960 . S
H2279 C2216 0.958 . S
H2280 C2217 0.961 . S
H2281 C2217 0.960 . S
H2282 C2217 0.960 . S
H2283 C2219 0.980 . S
H2284 C2218 0.961 . S
H2285 C2218 0.961 . S
H2286 C2218 0.959 . S
H2287 C2221 0.932 . S
H2288 C2225 0.929 . S
H2289 C2226 0.961 . S
H2290 C2226 0.959 . S
H2291 C2226 0.959 . S
H2292 C2227 0.960 . S
H2293 C2227 0.962 . S
H2294 C2227 0.961 . S
H2295 C2229 0.929 . S
H2296 C2232 0.930 . S
H2297 C2233 0.929 . S
H2298 C2236 0.930 . S
H2299 C2239 0.929 . S
H2300 C2240 0.930 . S
H2301 C2244 0.962 . S
H2302 C2244 0.959 . S
H2303 C2244 0.958 . S
H2304 C2310 0.930 . S
H2305 C2313 0.930 . S
H2306 C2314 0.930 . S
H2307 C2315 0.930 . S
H2308 C2318 0.930 . S
H2309 C2319 0.930 . S
C2310 H2304 0.930 . S
C2310 C2311 1.355 1_455 S
C2310 C2312 1.450 . S
C2311 C2310 1.355 1_655 S
C2311 C2313 1.419 . S
C2312 C2310 1.450 . S
C2312 C2317 1.372 1_455 S
C2312 C2319 1.427 . S
C2313 H2305 0.930 . S
C2313 C2311 1.419 . S
C2313 C2314 1.362 . S
C2314 H2306 0.930 . S
C2314 C2313 1.362 . S
C2314 C2317 1.409 . S
C2315 H2307 0.930 . S
C2315 C2316 1.355 . S
C2315 C2317 1.415 . S
C2316 C2315 1.355 . S
C2316 C2318 1.419 1_655 S
C2317 C2312 1.372 1_655 S
C2317 C2314 1.409 . S
C2317 C2315 1.415 . S
C2318 H2308 0.930 . S
C2318 C2316 1.419 1_455 S
C2318 C2319 1.362 . S
C2319 H2309 0.930 . S
C2319 C2312 1.427 . S
C2319 C2318 1.362 . S
H2320 C2326 0.930 . S
H2321 C2329 0.930 . S
H2322 C2330 0.930 . S
H2323 C2331 0.930 . S
H2324 C2334 0.930 . S
H2325 C2335 0.930 . S
C2326 H2320 0.930 . S
C2326 C2327 1.355 . S
C2326 C2328 1.415 . S
C2327 C2326 1.355 . S
C2327 C2329 1.419 . S
C2328 C2326 1.415 . S
C2328 C2333 1.425 . S
C2328 C2335 1.409 . S
C2329 H2321 0.930 . S
C2329 C2327 1.419 . S
C2329 C2330 1.362 . S
C2330 H2322 0.930 . S
C2330 C2329 1.362 . S
C2330 C2333 1.409 . S
C2331 H2323 0.930 . S
C2331 C2332 1.355 . S
C2331 C2333 1.415 . S
C2332 C2331 1.355 . S
C2332 C2334 1.419 . S
C2333 C2328 1.425 . S
C2333 C2330 1.409 . S
C2333 C2331 1.415 . S
C2334 H2324 0.930 . S
C2334 C2332 1.419 . S
C2334 C2335 1.362 . S
C2335 H2325 0.930 . S
C2335 C2328 1.409 . S
C2335 C2334 1.362 . S
H2336 C2342 0.930 . S
H2337 C2345 0.930 . S
H2338 C2346 0.930 . S
H2339 C2347 0.930 . S
H2340 C2350 0.930 . S
H2341 C2351 0.930 . S
C2342 H2336 0.930 . S
C2342 C2343 1.355 . S
C2342 C2344 1.415 . S
C2343 C2342 1.355 . S
C2343 C2345 1.419 . S
C2344 C2342 1.415 . S
C2344 C2349 1.425 . S
C2344 C2351 1.409 . S
C2345 H2337 0.930 . S
C2345 C2343 1.419 . S
C2345 C2346 1.362 . S
C2346 H2338 0.930 . S
C2346 C2345 1.362 . S
C2346 C2349 1.409 . S
C2347 H2339 0.930 . S
C2347 C2348 1.355 . S
C2347 C2349 1.415 . S
C2348 C2347 1.355 . S
C2348 C2350 1.419 . S
C2349 C2344 1.425 . S
C2349 C2346 1.409 . S
C2349 C2347 1.415 . S
C2350 H2340 0.930 . S
C2350 C2348 1.419 . S
C2350 C2351 1.362 . S
C2351 H2341 0.930 . S
C2351 C2344 1.409 . S
C2351 C2350 1.362 . S
H2352 C2358 0.930 . S
H2353 C2361 0.930 . S
H2354 C2362 0.930 . S
H2355 C2363 0.930 . S
H2356 C2366 0.930 . S
H2357 C2367 0.930 . S
C2358 H2352 0.930 . S
C2358 C2359 1.355 . S
C2358 C2360 1.415 . S
C2359 C2358 1.355 . S
C2359 C2361 1.419 . S
C2360 C2358 1.415 . S
C2360 C2365 1.425 . S
C2360 C2367 1.409 . S
C2361 H2353 0.930 . S
C2361 C2359 1.419 . S
C2361 C2362 1.362 . S
C2362 H2354 0.930 . S
C2362 C2361 1.362 . S
C2362 C2365 1.409 . S
C2363 H2355 0.930 . S
C2363 C2364 1.355 . S
C2363 C2365 1.415 . S
C2364 C2363 1.355 . S
C2364 C2366 1.419 . S
C2365 C2360 1.425 . S
C2365 C2362 1.409 . S
C2365 C2363 1.415 . S
C2366 H2356 0.930 . S
C2366 C2364 1.419 . S
C2366 C2367 1.362 . S
C2367 H2357 0.930 . S
C2367 C2360 1.409 . S
C2367 C2366 1.362 . S
H2368 C2374 0.930 1_655 S
H2369 C2377 0.930 . S
H2370 C2378 0.930 . S
H2371 C2379 0.930 . S
H2372 C2382 0.930 . S
H2373 C2383 0.930 . S
C2374 H2368 0.930 1_455 S
C2374 C2375 1.355 . S
C2374 C2376 1.415 . S
C2375 C2374 1.355 . S
C2375 C2377 1.419 . S
C2376 C2374 1.415 . S
C2376 C2381 1.425 . S
C2376 C2383 1.409 1_455 S
C2377 H2369 0.930 . S
C2377 C2375 1.419 . S
C2377 C2378 1.362 . S
C2378 H2370 0.930 . S
C2378 C2377 1.362 . S
C2378 C2381 1.409 . S
C2379 H2371 0.930 . S
C2379 C2380 1.355 . S
C2379 C2381 1.415 . S
C2380 C2379 1.355 . S
C2380 C2382 1.419 1_455 S
C2381 C2376 1.425 . S
C2381 C2378 1.409 . S
C2381 C2379 1.415 . S
C2382 H2372 0.930 . S
C2382 C2380 1.419 1_655 S
C2382 C2383 1.362 . S
C2383 H2373 0.930 . S
C2383 C2376 1.409 1_655 S
C2383 C2382 1.362 . S
H2384 C2390 0.930 . S
H2385 C2393 0.930 . S
H2386 C2394 0.930 . S
H2387 C2395 0.930 . S
H2388 C2398 0.930 . S
H2389 C2399 0.930 . S
C2390 H2384 0.930 . S
C2390 C2391 1.355 . S
C2390 C2392 1.415 . S
C2391 C2390 1.355 . S
C2391 C2393 1.419 . S
C2392 C2390 1.415 . S
C2392 C2397 1.425 . S
C2392 C2399 1.409 . S
C2393 H2385 0.930 . S
C2393 C2391 1.419 . S
C2393 C2394 1.362 . S
C2394 H2386 0.930 . S
C2394 C2393 1.362 . S
C2394 C2397 1.409 . S
C2395 H2387 0.930 . S
C2395 C2396 1.355 . S
C2395 C2397 1.415 . S
C2396 C2395 1.355 . S
C2396 C2398 1.419 . S
C2397 C2392 1.425 . S
C2397 C2394 1.409 . S
C2397 C2395 1.415 . S
C2398 H2388 0.930 . S
C2398 C2396 1.419 . S
C2398 C2399 1.362 . S
C2399 H2389 0.930 . S
C2399 C2392 1.409 . S
C2399 C2398 1.362 . S
H2400 C2406 0.930 . S
H2401 C2409 0.930 . S
H2402 C2410 0.930 . S
H2403 C2411 0.930 . S
H2404 C2414 0.930 . S
H2405 C2415 0.930 . S
C2406 H2400 0.930 . S
C2406 C2407 1.355 . S
C2406 C2408 1.415 . S
C2407 C2406 1.355 . S
C2407 C2409 1.419 . S
C2408 C2406 1.415 . S
C2408 C2413 1.425 . S
C2408 C2415 1.409 . S
C2409 H2401 0.930 . S
C2409 C2407 1.419 . S
C2409 C2410 1.362 . S
C2410 H2402 0.930 . S
C2410 C2409 1.362 . S
C2410 C2413 1.409 . S
C2411 H2403 0.930 . S
C2411 C2412 1.355 . S
C2411 C2413 1.415 . S
C2412 C2411 1.355 . S
C2412 C2414 1.419 . S
C2413 C2408 1.425 . S
C2413 C2410 1.409 . S
C2413 C2411 1.415 . S
C2414 H2404 0.930 . S
C2414 C2412 1.419 . S
C2414 C2415 1.362 . S
C2415 H2405 0.930 . S
C2415 C2408 1.409 . S
C2415 C2414 1.362 . S
H2416 C2422 0.930 . S
H2417 C2425 0.930 . S
H2418 C2426 0.930 . S
H2419 C2427 0.930 . S
H2420 C2430 0.930 . S
H2421 C2431 0.930 . S
C2422 H2416 0.930 . S
C2422 C2423 1.355 . S
C2422 C2424 1.415 . S
C2423 C2422 1.355 . S
C2423 C2425 1.419 . S
C2424 C2422 1.415 . S
C2424 C2429 1.425 . S
C2424 C2431 1.409 . S
C2425 H2417 0.930 . S
C2425 C2423 1.419 . S
C2425 C2426 1.362 . S
C2426 H2418 0.930 . S
C2426 C2425 1.362 . S
C2426 C2429 1.409 . S
C2427 H2419 0.930 . S
C2427 C2428 1.355 . S
C2427 C2429 1.415 . S
C2428 C2427 1.355 . S
C2428 C2430 1.419 . S
C2429 C2424 1.425 . S
C2429 C2426 1.409 . S
C2429 C2427 1.415 . S
C2430 H2420 0.930 . S
C2430 C2428 1.419 . S
C2430 C2431 1.362 . S
C2431 H2421 0.930 . S
C2431 C2424 1.409 . S
C2431 C2430 1.362 . S
H2432 C2438 0.930 . S
H2433 C2441 0.930 . S
H2434 C2442 0.930 . S
H2435 C2443 0.930 . S
H2436 C2446 0.930 . S
H2437 C2447 0.930 . S
C2438 H2432 0.930 . S
C2438 C2439 1.355 . S
C2438 C2440 1.415 . S
C2439 C2438 1.355 . S
C2439 C2441 1.419 1_565 S
C2440 C2438 1.415 . S
C2440 C2445 1.425 1_565 S
C2440 C2447 1.409 . S
C2441 H2433 0.930 . S
C2441 C2439 1.419 1_545 S
C2441 C2442 1.362 . S
C2442 H2434 0.930 . S
C2442 C2441 1.362 . S
C2442 C2445 1.409 . S
C2443 H2435 0.930 . S
C2443 C2444 1.355 1_545 S
C2443 C2445 1.415 . S
C2444 C2443 1.355 1_565 S
C2444 C2446 1.419 . S
C2445 C2440 1.425 1_545 S
C2445 C2442 1.409 . S
C2445 C2443 1.415 . S
C2446 H2436 0.930 . S
C2446 C2444 1.419 . S
C2446 C2447 1.362 . S
C2447 H2437 0.930 . S
C2447 C2440 1.409 . S
C2447 C2446 1.362 . S
H2448 C2454 0.930 . S
H2449 C2457 0.930 . S
H2450 C2458 0.932 1_565 S
H2451 C2459 0.947 1_565 S
H2452 C2462 0.930 . S
H2453 C2463 0.930 . S
C2454 H2448 0.930 . S
C2454 C2455 1.355 . S
C2454 C2456 1.415 . S
C2455 C2454 1.355 . S
C2455 C2457 1.419 . S
C2456 C2454 1.415 . S
C2456 C2461 1.425 . S
C2456 C2463 1.409 . S
C2457 H2449 0.930 . S
C2457 C2455 1.419 . S
C2457 C2458 1.360 . S
C2458 H2450 0.932 1_545 S
C2458 C2457 1.360 . S
C2458 C2461 1.410 . S
C2459 H2451 0.947 1_545 S
C2459 C2460 1.357 . S
C2459 C2461 1.399 . S
C2460 C2459 1.357 . S
C2460 C2462 1.419 . S
C2461 C2456 1.425 . S
C2461 C2458 1.410 . S
C2461 C2459 1.399 . S
C2462 H2452 0.930 . S
C2462 C2460 1.419 . S
C2462 C2463 1.362 . S
C2463 H2453 0.930 . S
C2463 C2456 1.409 . S
C2463 C2462 1.362 . S
H2464 C2470 0.930 . S
H2465 C2473 0.930 . S
H2466 C2474 0.933 1_455 S
H2467 C2475 0.933 1_455 S
H2468 C2478 0.930 . S
H2469 C2479 0.930 . S
C2470 H2464 0.930 . S
C2470 C2471 1.355 . S
C2470 C2472 1.415 . S
C2471 C2470 1.355 . S
C2471 C2473 1.419 . S
C2472 C2470 1.415 . S
C2472 C2477 1.425 . S
C2472 C2479 1.409 . S
C2473 H2465 0.930 . S
C2473 C2471 1.419 . S
C2473 C2474 1.362 . S
C2474 H2466 0.933 1_655 S
C2474 C2473 1.362 . S
C2474 C2477 1.409 . S
C2475 H2467 0.933 1_655 S
C2475 C2476 1.329 . S
C2475 C2477 1.442 . S
C2476 C2475 1.329 . S
C2476 C2478 1.419 . S
C2477 C2472 1.425 . S
C2477 C2474 1.409 . S
C2477 C2475 1.442 . S
C2478 H2468 0.930 . S
C2478 C2476 1.419 . S
C2478 C2479 1.362 . S
C2479 H2469 0.930 . S
C2479 C2472 1.409 . S
C2479 C2478 1.362 . S
H2480 C2486 0.930 . S
H2481 C2489 0.930 . S
H2482 C2490 0.930 . S
H2483 C2491 0.930 . S
H2484 C2494 0.930 . S
H2485 C2495 0.930 . S
C2486 H2480 0.930 . S
C2486 C2487 1.355 . S
C2486 C2488 1.415 . S
C2487 C2486 1.355 . S
C2487 C2489 1.419 . S
C2488 C2486 1.415 . S
C2488 C2493 1.425 . S
C2488 C2495 1.409 . S
C2489 H2481 0.930 . S
C2489 C2487 1.419 . S
C2489 C2490 1.362 . S
C2490 H2482 0.930 . S
C2490 C2489 1.362 . S
C2490 C2493 1.409 . S
C2491 H2483 0.930 . S
C2491 C2492 1.355 . S
C2491 C2493 1.415 . S
C2492 C2491 1.355 . S
C2492 C2494 1.419 . S
C2493 C2488 1.425 . S
C2493 C2490 1.409 . S
C2493 C2491 1.415 . S
C2494 H2484 0.930 . S
C2494 C2492 1.419 . S
C2494 C2495 1.362 . S
C2495 H2485 0.930 . S
C2495 C2488 1.409 . S
C2495 C2494 1.362 . S
H2496 C2502 0.930 . S
H2497 C2505 0.930 . S
H2498 C2506 0.930 . S
H2499 C2507 0.930 . S
H2500 C2510 0.930 . S
H2501 C2511 0.930 . S
C2502 H2496 0.930 . S
C2502 C2503 1.355 . S
C2502 C2504 1.415 . S
C2503 C2502 1.355 . S
C2503 C2505 1.419 . S
C2504 C2502 1.415 . S
C2504 C2509 1.425 . S
C2504 C2511 1.409 . S
C2505 H2497 0.930 . S
C2505 C2503 1.419 . S
C2505 C2506 1.362 . S
C2506 H2498 0.930 . S
C2506 C2505 1.362 . S
C2506 C2509 1.409 . S
C2507 H2499 0.930 . S
C2507 C2508 1.355 . S
C2507 C2509 1.415 . S
C2508 C2507 1.355 . S
C2508 C2510 1.419 . S
C2509 C2504 1.425 . S
C2509 C2506 1.409 . S
C2509 C2507 1.415 . S
C2510 H2500 0.930 . S
C2510 C2508 1.419 . S
C2510 C2511 1.362 . S
C2511 H2501 0.930 . S
C2511 C2504 1.409 . S
C2511 C2510 1.362 . S
H2512 C2518 0.930 . S
H2513 C2521 0.930 . S
H2514 C2522 0.930 . S
H2515 C2523 0.930 . S
H2516 C2526 0.930 . S
H2517 C2527 0.930 . S
C2518 H2512 0.930 . S
C2518 C2519 1.355 . S
C2518 C2520 1.415 . S
C2519 C2518 1.355 . S
C2519 C2521 1.419 . S
C2520 C2518 1.415 . S
C2520 C2525 1.425 . S
C2520 C2527 1.409 . S
C2521 H2513 0.930 . S
C2521 C2519 1.419 . S
C2521 C2522 1.362 . S
C2522 H2514 0.930 . S
C2522 C2521 1.362 . S
C2522 C2525 1.409 . S
C2523 H2515 0.930 . S
C2523 C2524 1.355 . S
C2523 C2525 1.415 . S
C2524 C2523 1.355 . S
C2524 C2526 1.419 . S
C2525 C2520 1.425 . S
C2525 C2522 1.409 . S
C2525 C2523 1.415 . S
C2526 H2516 0.930 . S
C2526 C2524 1.419 . S
C2526 C2527 1.362 . S
C2527 H2517 0.930 . S
C2527 C2520 1.409 . S
C2527 C2526 1.362 . S
H2528 C2534 0.930 . S
H2529 C2537 0.930 . S
H2530 C2538 0.930 . S
H2531 C2539 0.930 . S
H2532 C2542 0.930 . S
H2533 C2543 0.930 . S
C2534 H2528 0.930 . S
C2534 C2535 1.355 . S
C2534 C2536 1.415 . S
C2535 C2534 1.355 . S
C2535 C2537 1.419 . S
C2536 C2534 1.415 . S
C2536 C2541 1.425 . S
C2536 C2543 1.409 . S
C2537 H2529 0.930 . S
C2537 C2535 1.419 . S
C2537 C2538 1.362 . S
C2538 H2530 0.930 . S
C2538 C2537 1.362 . S
C2538 C2541 1.409 . S
C2539 H2531 0.930 . S
C2539 C2540 1.355 . S
C2539 C2541 1.415 . S
C2540 C2539 1.355 . S
C2540 C2542 1.419 . S
C2541 C2536 1.425 . S
C2541 C2538 1.409 . S
C2541 C2539 1.415 . S
C2542 H2532 0.930 . S
C2542 C2540 1.419 . S
C2542 C2543 1.362 . S
C2543 H2533 0.930 . S
C2543 C2536 1.409 . S
C2543 C2542 1.362 . S
H2544 C2550 0.930 . S
H2545 C2553 0.930 . S
H2546 C2554 0.930 . S
H2547 C2555 0.930 . S
H2548 C2558 0.930 . S
H2549 C2559 0.930 . S
C2550 H2544 0.930 . S
C2550 C2551 1.355 . S
C2550 C2552 1.415 . S
C2551 C2550 1.355 . S
C2551 C2553 1.419 . S
C2552 C2550 1.415 . S
C2552 C2557 1.425 . S
C2552 C2559 1.409 . S
C2553 H2545 0.930 . S
C2553 C2551 1.419 . S
C2553 C2554 1.362 . S
C2554 H2546 0.930 . S
C2554 C2553 1.362 . S
C2554 C2557 1.409 . S
C2555 H2547 0.930 . S
C2555 C2556 1.355 . S
C2555 C2557 1.415 . S
C2556 C2555 1.355 . S
C2556 C2558 1.419 . S
C2557 C2552 1.425 . S
C2557 C2554 1.409 . S
C2557 C2555 1.415 . S
C2558 H2548 0.930 . S
C2558 C2556 1.419 . S
C2558 C2559 1.362 . S
C2559 H2549 0.930 . S
C2559 C2552 1.409 . S
C2559 C2558 1.362 . S
H2560 C2566 0.930 . S
H2561 C2569 0.930 . S
H2562 C2570 0.930 . S
H2563 C2571 0.930 . S
H2564 C2574 0.930 . S
H2565 C2575 0.930 . S
C2566 H2560 0.930 . S
C2566 C2567 1.355 . S
C2566 C2568 1.415 . S
C2567 C2566 1.355 . S
C2567 C2569 1.419 . S
C2568 C2566 1.415 . S
C2568 C2573 1.425 . S
C2568 C2575 1.409 . S
C2569 H2561 0.930 . S
C2569 C2567 1.419 . S
C2569 C2570 1.362 . S
C2570 H2562 0.930 . S
C2570 C2569 1.362 . S
C2570 C2573 1.409 . S
C2571 H2563 0.930 . S
C2571 C2572 1.355 . S
C2571 C2573 1.415 . S
C2572 C2571 1.355 . S
C2572 C2574 1.419 . S
C2573 C2568 1.425 . S
C2573 C2570 1.409 . S
C2573 C2571 1.415 . S
C2574 H2564 0.930 . S
C2574 C2572 1.419 . S
C2574 C2575 1.362 . S
C2575 H2565 0.930 . S
C2575 C2568 1.409 . S
C2575 C2574 1.362 . S
H2576 C2582 0.930 . S
H2577 C2585 0.930 . S
H2578 C2586 0.930 . S
H2579 C2587 0.930 . S
H2580 C2590 0.930 . S
H2581 C2591 0.930 . S
C2582 H2576 0.930 . S
C2582 C2583 1.355 . S
C2582 C2584 1.415 . S
C2583 C2582 1.355 . S
C2583 C2585 1.419 . S
C2584 C2582 1.415 . S
C2584 C2589 1.425 . S
C2584 C2591 1.409 . S
C2585 H2577 0.930 . S
C2585 C2583 1.419 . S
C2585 C2586 1.362 . S
C2586 H2578 0.930 . S
C2586 C2585 1.362 . S
C2586 C2589 1.409 . S
C2587 H2579 0.930 . S
C2587 C2588 1.355 . S
C2587 C2589 1.415 . S
C2588 C2587 1.355 . S
C2588 C2590 1.419 . S
C2589 C2584 1.425 . S
C2589 C2586 1.409 . S
C2589 C2587 1.415 . S
C2590 H2580 0.930 . S
C2590 C2588 1.419 . S
C2590 C2591 1.362 . S
C2591 H2581 0.930 . S
C2591 C2584 1.409 . S
C2591 C2590 1.362 . S
H2592 C2598 0.930 . S
H2593 C2601 0.930 . S
H2594 C2602 0.930 . S
H2595 C2603 0.930 . S
H2596 C2606 0.930 . S
H2597 C2607 0.930 . S
C2598 H2592 0.930 . S
C2598 C2599 1.355 . S
C2598 C2600 1.415 . S
C2599 C2598 1.355 . S
C2599 C2601 1.419 . S
C2600 C2598 1.415 . S
C2600 C2605 1.425 . S
C2600 C2607 1.409 . S
C2601 H2593 0.930 . S
C2601 C2599 1.419 . S
C2601 C2602 1.362 . S
C2602 H2594 0.930 . S
C2602 C2601 1.362 . S
C2602 C2605 1.409 . S
C2603 H2595 0.930 . S
C2603 C2604 1.355 . S
C2603 C2605 1.415 . S
C2604 C2603 1.355 . S
C2604 C2606 1.419 . S
C2605 C2600 1.425 . S
C2605 C2602 1.409 . S
C2605 C2603 1.415 . S
C2606 H2596 0.930 . S
C2606 C2604 1.419 . S
C2606 C2607 1.362 . S
C2607 H2597 0.930 . S
C2607 C2600 1.409 . S
C2607 C2606 1.362 . S
H2608 C2614 0.930 . S
H2609 C2617 0.930 . S
H2610 C2618 0.930 . S
H2611 C2619 0.930 . S
H2612 C2622 0.930 . S
H2613 C2623 0.930 . S
C2614 H2608 0.930 . S
C2614 C2615 1.355 . S
C2614 C2616 1.415 . S
C2615 C2614 1.355 . S
C2615 C2617 1.419 . S
C2616 C2614 1.415 . S
C2616 C2621 1.425 . S
C2616 C2623 1.409 . S
C2617 H2609 0.930 . S
C2617 C2615 1.419 . S
C2617 C2618 1.362 . S
C2618 H2610 0.930 . S
C2618 C2617 1.362 . S
C2618 C2621 1.409 . S
C2619 H2611 0.930 . S
C2619 C2620 1.355 . S
C2619 C2621 1.415 . S
C2620 C2619 1.355 . S
C2620 C2622 1.419 . S
C2621 C2616 1.425 . S
C2621 C2618 1.409 . S
C2621 C2619 1.415 . S
C2622 H2612 0.930 . S
C2622 C2620 1.419 . S
C2622 C2623 1.362 . S
C2623 H2613 0.930 . S
C2623 C2616 1.409 . S
C2623 C2622 1.362 . S
H2624 C2630 0.930 . S
H2625 C2633 0.930 . S
H2626 C2634 0.930 . S
H2627 C2635 0.930 . S
H2628 C2638 0.930 . S
H2629 C2639 0.930 . S
C2630 H2624 0.930 . S
C2630 C2631 1.355 . S
C2630 C2632 1.415 . S
C2631 C2630 1.355 . S
C2631 C2633 1.419 . S
C2632 C2630 1.415 . S
C2632 C2637 1.425 . S
C2632 C2639 1.409 . S
C2633 H2625 0.930 . S
C2633 C2631 1.419 . S
C2633 C2634 1.362 . S
C2634 H2626 0.930 . S
C2634 C2633 1.362 . S
C2634 C2637 1.409 . S
C2635 H2627 0.930 . S
C2635 C2636 1.355 . S
C2635 C2637 1.415 . S
C2636 C2635 1.355 . S
C2636 C2638 1.419 . S
C2637 C2632 1.425 . S
C2637 C2634 1.409 . S
C2637 C2635 1.415 . S
C2638 H2628 0.930 . S
C2638 C2636 1.419 . S
C2638 C2639 1.362 . S
C2639 H2629 0.930 . S
C2639 C2632 1.409 . S
C2639 C2638 1.362 . S
H2640 C2646 0.930 . S
H2641 C2649 0.930 . S
H2642 C2650 0.930 . S
H2643 C2651 0.930 . S
H2644 C2654 0.930 . S
H2645 C2655 0.930 . S
C2646 H2640 0.930 . S
C2646 C2647 1.355 . S
C2646 C2648 1.415 . S
C2647 C2646 1.355 . S
C2647 C2649 1.419 . S
C2648 C2646 1.415 . S
C2648 C2653 1.425 . S
C2648 C2655 1.409 . S
C2649 H2641 0.930 . S
C2649 C2647 1.419 . S
C2649 C2650 1.362 . S
C2650 H2642 0.930 . S
C2650 C2649 1.362 . S
C2650 C2653 1.409 . S
C2651 H2643 0.930 . S
C2651 C2652 1.355 . S
C2651 C2653 1.415 . S
C2652 C2651 1.355 . S
C2652 C2654 1.419 . S
C2653 C2648 1.425 . S
C2653 C2650 1.409 . S
C2653 C2651 1.415 . S
C2654 H2644 0.930 . S
C2654 C2652 1.419 . S
C2654 C2655 1.362 . S
C2655 H2645 0.930 . S
C2655 C2648 1.409 . S
C2655 C2654 1.362 . S
H2656 C2662 0.930 . S
H2657 C2665 0.930 . S
H2658 C2666 0.930 . S
H2659 C2667 0.930 . S
H2660 C2670 0.930 . S
H2661 C2671 0.930 . S
C2662 H2656 0.930 . S
C2662 C2663 1.355 . S
C2662 C2664 1.415 . S
C2663 C2662 1.355 . S
C2663 C2665 1.419 . S
C2664 C2662 1.415 . S
C2664 C2669 1.425 . S
C2664 C2671 1.409 . S
C2665 H2657 0.930 . S
C2665 C2663 1.419 . S
C2665 C2666 1.362 . S
C2666 H2658 0.930 . S
C2666 C2665 1.362 . S
C2666 C2669 1.409 . S
C2667 H2659 0.930 . S
C2667 C2668 1.355 . S
C2667 C2669 1.415 . S
C2668 C2667 1.355 . S
C2668 C2670 1.419 . S
C2669 C2664 1.425 . S
C2669 C2666 1.409 . S
C2669 C2667 1.415 . S
C2670 H2660 0.930 . S
C2670 C2668 1.419 . S
C2670 C2671 1.362 . S
C2671 H2661 0.930 . S
C2671 C2664 1.409 . S
C2671 C2670 1.362 . S
H2672 C2678 0.930 . S
H2673 C2681 0.930 . S
H2674 C2682 0.930 . S
H2675 C2683 0.930 . S
H2676 C2686 0.930 . S
H2677 C2687 0.930 . S
C2678 H2672 0.930 . S
C2678 C2679 1.355 . S
C2678 C2680 1.415 . S
C2679 C2678 1.355 . S
C2679 C2681 1.419 . S
C2680 C2678 1.415 . S
C2680 C2685 1.425 . S
C2680 C2687 1.409 . S
C2681 H2673 0.930 . S
C2681 C2679 1.419 . S
C2681 C2682 1.362 . S
C2682 H2674 0.930 . S
C2682 C2681 1.362 . S
C2682 C2685 1.409 . S
C2683 H2675 0.930 . S
C2683 C2684 1.355 . S
C2683 C2685 1.415 . S
C2684 C2683 1.355 . S
C2684 C2686 1.419 . S
C2685 C2680 1.425 . S
C2685 C2682 1.409 . S
C2685 C2683 1.415 . S
C2686 H2676 0.930 . S
C2686 C2684 1.419 . S
C2686 C2687 1.362 . S
C2687 H2677 0.930 . S
C2687 C2680 1.409 . S
C2687 C2686 1.362 . S
H2688 C2694 0.930 . S
H2689 C2697 0.930 . S
H2690 C2698 0.930 . S
H2691 C2699 0.930 . S
H2692 C2702 0.930 . S
H2693 C2703 0.930 . S
C2694 H2688 0.930 . S
C2694 C2695 1.355 . S
C2694 C2696 1.415 . S
C2695 C2694 1.355 . S
C2695 C2697 1.419 . S
C2696 C2694 1.415 . S
C2696 C2701 1.425 . S
C2696 C2703 1.409 . S
C2697 H2689 0.930 . S
C2697 C2695 1.419 . S
C2697 C2698 1.362 . S
C2698 H2690 0.930 . S
C2698 C2697 1.362 . S
C2698 C2701 1.409 . S
C2699 H2691 0.930 . S
C2699 C2700 1.355 . S
C2699 C2701 1.415 . S
C2700 C2699 1.355 . S
C2700 C2702 1.419 . S
C2701 C2696 1.425 . S
C2701 C2698 1.409 . S
C2701 C2699 1.415 . S
C2702 H2692 0.930 . S
C2702 C2700 1.419 . S
C2702 C2703 1.362 . S
C2703 H2693 0.930 . S
C2703 C2696 1.409 . S
C2703 C2702 1.362 . S
H2704 C2710 0.930 . S
H2705 C2713 0.930 . S
H2706 C2714 0.930 . S
H2707 C2715 0.930 . S
H2708 C2718 0.930 . S
H2709 C2719 0.930 . S
C2710 H2704 0.930 . S
C2710 C2711 1.355 . S
C2710 C2712 1.415 . S
C2711 C2710 1.355 . S
C2711 C2713 1.419 . S
C2712 C2710 1.415 . S
C2712 C2717 1.425 . S
C2712 C2719 1.409 . S
C2713 H2705 0.930 . S
C2713 C2711 1.419 . S
C2713 C2714 1.362 . S
C2714 H2706 0.930 . S
C2714 C2713 1.362 . S
C2714 C2717 1.409 . S
C2715 H2707 0.930 . S
C2715 C2716 1.355 . S
C2715 C2717 1.415 . S
C2716 C2715 1.355 . S
C2716 C2718 1.419 . S
C2717 C2712 1.425 . S
C2717 C2714 1.409 . S
C2717 C2715 1.415 . S
C2718 H2708 0.930 . S
C2718 C2716 1.419 . S
C2718 C2719 1.362 . S
C2719 H2709 0.930 . S
C2719 C2712 1.409 . S
C2719 C2718 1.362 . S
H2720 C2726 0.930 . S
H2721 C2729 0.930 . S
H2722 C2730 0.930 . S
H2723 C2731 0.930 . S
H2724 C2734 0.930 . S
H2725 C2735 0.930 . S
C2726 H2720 0.930 . S
C2726 C2727 1.355 . S
C2726 C2728 1.415 . S
C2727 C2726 1.355 . S
C2727 C2729 1.419 . S
C2728 C2726 1.415 . S
C2728 C2733 1.425 . S
C2728 C2735 1.409 . S
C2729 H2721 0.930 . S
C2729 C2727 1.419 . S
C2729 C2730 1.362 . S
C2730 H2722 0.930 . S
C2730 C2729 1.362 . S
C2730 C2733 1.409 . S
C2731 H2723 0.930 . S
C2731 C2732 1.355 . S
C2731 C2733 1.415 . S
C2732 C2731 1.355 . S
C2732 C2734 1.419 . S
C2733 C2728 1.425 . S
C2733 C2730 1.409 . S
C2733 C2731 1.415 . S
C2734 H2724 0.930 . S
C2734 C2732 1.419 . S
C2734 C2735 1.362 . S
C2735 H2725 0.930 . S
C2735 C2728 1.409 . S
C2735 C2734 1.362 . S
H2736 C2742 0.930 . S
H2737 C2745 0.930 . S
H2738 C2746 0.930 . S
H2739 C2747 0.930 . S
H2740 C2750 0.930 . S
H2741 C2751 0.930 . S
C2742 H2736 0.930 . S
C2742 C2743 1.355 . S
C2742 C2744 1.415 . S
C2743 C2742 1.355 . S
C2743 C2745 1.419 . S
C2744 C2742 1.415 . S
C2744 C2749 1.425 . S
C2744 C2751 1.409 . S
C2745 H2737 0.930 . S
C2745 C2743 1.419 . S
C2745 C2746 1.362 . S
C2746 H2738 0.930 . S
C2746 C2745 1.362 . S
C2746 C2749 1.409 . S
C2747 H2739 0.930 . S
C2747 C2748 1.355 . S
C2747 C2749 1.415 . S
C2748 C2747 1.355 . S
C2748 C2750 1.419 . S
C2749 C2744 1.425 . S
C2749 C2746 1.409 . S
C2749 C2747 1.415 . S
C2750 H2740 0.930 . S
C2750 C2748 1.419 . S
C2750 C2751 1.362 . S
C2751 H2741 0.930 . S
C2751 C2744 1.409 . S
C2751 C2750 1.362 . S
H2752 C2758 0.930 . S
H2753 C2761 0.930 . S
H2754 C2762 0.930 . S
H2755 C2763 0.930 . S
H2756 C2766 0.930 . S
H2757 C2767 0.930 . S
C2758 H2752 0.930 . S
C2758 C2759 1.355 . S
C2758 C2760 1.415 . S
C2759 C2758 1.355 . S
C2759 C2761 1.419 . S
C2760 C2758 1.415 . S
C2760 C2765 1.425 . S
C2760 C2767 1.409 . S
C2761 H2753 0.930 . S
C2761 C2759 1.419 . S
C2761 C2762 1.362 . S
C2762 H2754 0.930 . S
C2762 C2761 1.362 . S
C2762 C2765 1.409 . S
C2763 H2755 0.930 . S
C2763 C2764 1.355 . S
C2763 C2765 1.415 . S
C2764 C2763 1.355 . S
C2764 C2766 1.419 . S
C2765 C2760 1.425 . S
C2765 C2762 1.409 . S
C2765 C2763 1.415 . S
C2766 H2756 0.930 . S
C2766 C2764 1.419 . S
C2766 C2767 1.362 . S
C2767 H2757 0.930 . S
C2767 C2760 1.409 . S
C2767 C2766 1.362 . S
H2768 C2774 0.930 . S
H2769 C2777 0.930 . S
H2770 C2778 0.930 . S
H2771 C2779 0.930 . S
H2772 C2782 0.930 . S
H2773 C2783 0.930 . S
C2774 H2768 0.930 . S
C2774 C2775 1.355 . S
C2774 C2776 1.415 . S
C2775 C2774 1.355 . S
C2775 C2777 1.419 . S
C2776 C2774 1.415 . S
C2776 C2781 1.425 . S
C2776 C2783 1.409 . S
C2777 H2769 0.930 . S
C2777 C2775 1.419 . S
C2777 C2778 1.362 . S
C2778 H2770 0.930 . S
C2778 C2777 1.362 . S
C2778 C2781 1.409 . S
C2779 H2771 0.930 . S
C2779 C2780 1.355 . S
C2779 C2781 1.415 . S
C2780 C2779 1.355 . S
C2780 C2782 1.419 . S
C2781 C2776 1.425 . S
C2781 C2778 1.409 . S
C2781 C2779 1.415 . S
C2782 H2772 0.930 . S
C2782 C2780 1.419 . S
C2782 C2783 1.362 . S
C2783 H2773 0.930 . S
C2783 C2776 1.409 . S
C2783 C2782 1.362 . S
H2784 C2790 0.930 . S
H2785 C2793 0.930 . S
H2786 C2794 0.930 . S
H2787 C2795 0.930 . S
H2788 C2798 0.930 . S
H2789 C2799 0.930 . S
C2790 H2784 0.930 . S
C2790 C2791 1.355 . S
C2790 C2792 1.415 . S
C2791 C2790 1.355 . S
C2791 C2793 1.419 . S
C2792 C2790 1.415 . S
C2792 C2797 1.425 . S
C2792 C2799 1.409 . S
C2793 H2785 0.930 . S
C2793 C2791 1.419 . S
C2793 C2794 1.362 . S
C2794 H2786 0.930 . S
C2794 C2793 1.362 . S
C2794 C2797 1.409 . S
C2795 H2787 0.930 . S
C2795 C2796 1.355 . S
C2795 C2797 1.415 . S
C2796 C2795 1.355 . S
C2796 C2798 1.419 . S
C2797 C2792 1.425 . S
C2797 C2794 1.409 . S
C2797 C2795 1.415 . S
C2798 H2788 0.930 . S
C2798 C2796 1.419 . S
C2798 C2799 1.362 . S
C2799 H2789 0.930 . S
C2799 C2792 1.409 . S
C2799 C2798 1.362 . S
H2800 C2806 0.930 . S
H2801 C2809 0.930 . S
H2802 C2810 0.930 . S
H2803 C2811 0.930 . S
H2804 C2814 0.930 . S
H2805 C2815 0.930 . S
C2806 H2800 0.930 . S
C2806 C2807 1.355 . S
C2806 C2808 1.415 . S
C2807 C2806 1.355 . S
C2807 C2809 1.419 . S
C2808 C2806 1.415 . S
C2808 C2813 1.425 . S
C2808 C2815 1.409 . S
C2809 H2801 0.930 . S
C2809 C2807 1.419 . S
C2809 C2810 1.362 . S
C2810 H2802 0.930 . S
C2810 C2809 1.362 . S
C2810 C2813 1.409 . S
C2811 H2803 0.930 . S
C2811 C2812 1.355 . S
C2811 C2813 1.415 . S
C2812 C2811 1.355 . S
C2812 C2814 1.419 . S
C2813 C2808 1.425 . S
C2813 C2810 1.409 . S
C2813 C2811 1.415 . S
C2814 H2804 0.930 . S
C2814 C2812 1.419 . S
C2814 C2815 1.362 . S
C2815 H2805 0.930 . S
C2815 C2808 1.409 . S
C2815 C2814 1.362 . S
H2816 C2822 0.930 . S
H2817 C2825 0.930 . S
H2818 C2826 0.930 . S
H2819 C2827 0.930 . S
H2820 C2830 0.930 . S
H2821 C2831 0.930 . S
C2822 H2816 0.930 . S
C2822 C2823 1.355 . S
C2822 C2824 1.415 . S
C2823 C2822 1.355 . S
C2823 C2825 1.419 . S
C2824 C2822 1.415 . S
C2824 C2829 1.425 . S
C2824 C2831 1.409 . S
C2825 H2817 0.930 . S
C2825 C2823 1.419 . S
C2825 C2826 1.362 . S
C2826 H2818 0.930 . S
C2826 C2825 1.362 . S
C2826 C2829 1.409 . S
C2827 H2819 0.930 . S
C2827 C2828 1.355 . S
C2827 C2829 1.415 . S
C2828 C2827 1.355 . S
C2828 C2830 1.419 . S
C2829 C2824 1.425 . S
C2829 C2826 1.409 . S
C2829 C2827 1.415 . S
C2830 H2820 0.930 . S
C2830 C2828 1.419 . S
C2830 C2831 1.362 . S
C2831 H2821 0.930 . S
C2831 C2824 1.409 . S
C2831 C2830 1.362 . S
H2832 C2838 0.930 . S
H2833 C2841 0.930 . S
H2834 C2842 0.930 . S
H2835 C2843 0.930 . S
H2836 C2846 0.930 . S
H2837 C2847 0.930 . S
C2838 H2832 0.930 . S
C2838 C2839 1.355 . S
C2838 C2840 1.415 . S
C2839 C2838 1.355 . S
C2839 C2841 1.419 . S
C2840 C2838 1.415 . S
C2840 C2845 1.425 . S
C2840 C2847 1.409 . S
C2841 H2833 0.930 . S
C2841 C2839 1.419 . S
C2841 C2842 1.362 . S
C2842 H2834 0.930 . S
C2842 C2841 1.362 . S
C2842 C2845 1.409 . S
C2843 H2835 0.930 . S
C2843 C2844 1.355 . S
C2843 C2845 1.415 . S
C2844 C2843 1.355 . S
C2844 C2846 1.419 . S
C2845 C2840 1.425 . S
C2845 C2842 1.409 . S
C2845 C2843 1.415 . S
C2846 H2836 0.930 . S
C2846 C2844 1.419 . S
C2846 C2847 1.362 . S
C2847 H2837 0.930 . S
C2847 C2840 1.409 . S
C2847 C2846 1.362 . S
H2848 C2854 0.930 . S
H2849 C2857 0.930 . S
H2850 C2858 0.930 . S
H2851 C2859 0.930 . S
H2852 C2862 0.930 . S
H2853 C2863 0.930 . S
C2854 H2848 0.930 . S
C2854 C2855 1.355 . S
C2854 C2856 1.415 . S
C2855 C2854 1.355 . S
C2855 C2857 1.419 . S
C2856 C2854 1.415 . S
C2856 C2861 1.425 . S
C2856 C2863 1.409 . S
C2857 H2849 0.930 . S
C2857 C2855 1.419 . S
C2857 C2858 1.362 . S
C2858 H2850 0.930 . S
C2858 C2857 1.362 . S
C2858 C2861 1.409 . S
C2859 H2851 0.930 . S
C2859 C2860 1.355 . S
C2859 C2861 1.415 . S
C2860 C2859 1.355 . S
C2860 C2862 1.419 . S
C2861 C2856 1.425 . S
C2861 C2858 1.409 . S
C2861 C2859 1.415 . S
C2862 H2852 0.930 . S
C2862 C2860 1.419 . S
C2862 C2863 1.362 . S
C2863 H2853 0.930 . S
C2863 C2856 1.409 . S
C2863 C2862 1.362 . S
H2864 C2870 0.930 . S
H2865 C2873 0.930 . S
H2866 C2874 0.930 . S
H2867 C2875 0.930 . S
H2868 C2878 0.930 . S
H2869 C2879 0.930 . S
C2870 H2864 0.930 . S
C2870 C2871 1.355 . S
C2870 C2872 1.415 . S
C2871 C2870 1.355 . S
C2871 C2873 1.419 . S
C2872 C2870 1.415 . S
C2872 C2877 1.425 . S
C2872 C2879 1.409 . S
C2873 H2865 0.930 . S
C2873 C2871 1.419 . S
C2873 C2874 1.362 . S
C2874 H2866 0.930 . S
C2874 C2873 1.362 . S
C2874 C2877 1.409 . S
C2875 H2867 0.930 . S
C2875 C2876 1.355 . S
C2875 C2877 1.415 . S
C2876 C2875 1.355 . S
C2876 C2878 1.419 . S
C2877 C2872 1.425 . S
C2877 C2874 1.409 . S
C2877 C2875 1.415 . S
C2878 H2868 0.930 . S
C2878 C2876 1.419 . S
C2878 C2879 1.362 . S
C2879 H2869 0.930 . S
C2879 C2872 1.409 . S
C2879 C2878 1.362 . S
H2880 C2886 0.930 . S
H2881 C2889 0.930 . S
H2882 C2890 0.930 . S
H2883 C2891 0.930 . S
H2884 C2894 0.930 . S
H2885 C2895 0.930 . S
C2886 H2880 0.930 . S
C2886 C2887 1.355 . S
C2886 C2888 1.415 . S
C2887 C2886 1.355 . S
C2887 C2889 1.419 . S
C2888 C2886 1.415 . S
C2888 C2893 1.425 . S
C2888 C2895 1.409 . S
C2889 H2881 0.930 . S
C2889 C2887 1.419 . S
C2889 C2890 1.362 . S
C2890 H2882 0.930 . S
C2890 C2889 1.362 . S
C2890 C2893 1.409 . S
C2891 H2883 0.930 . S
C2891 C2892 1.355 . S
C2891 C2893 1.415 . S
C2892 C2891 1.355 . S
C2892 C2894 1.419 . S
C2893 C2888 1.425 . S
C2893 C2890 1.409 . S
C2893 C2891 1.415 . S
C2894 H2884 0.930 . S
C2894 C2892 1.419 . S
C2894 C2895 1.362 . S
C2895 H2885 0.930 . S
C2895 C2888 1.409 . S
C2895 C2894 1.362 . S
H2896 C2902 0.930 . S
H2897 C2905 0.930 . S
H2898 C2906 0.930 . S
H2899 C2907 0.930 . S
H2900 C2910 0.930 . S
H2901 C2911 0.930 . S
C2902 H2896 0.930 . S
C2902 C2903 1.355 . S
C2902 C2904 1.415 . S
C2903 C2902 1.355 . S
C2903 C2905 1.419 . S
C2904 C2902 1.415 . S
C2904 C2909 1.425 . S
C2904 C2911 1.409 . S
C2905 H2897 0.930 . S
C2905 C2903 1.419 . S
C2905 C2906 1.362 . S
C2906 H2898 0.930 . S
C2906 C2905 1.362 . S
C2906 C2909 1.409 . S
C2907 H2899 0.930 . S
C2907 C2908 1.355 . S
C2907 C2909 1.415 . S
C2908 C2907 1.355 . S
C2908 C2910 1.419 . S
C2909 C2904 1.425 . S
C2909 C2906 1.409 . S
C2909 C2907 1.415 . S
C2910 H2900 0.930 . S
C2910 C2908 1.419 . S
C2910 C2911 1.362 . S
C2911 H2901 0.930 . S
C2911 C2904 1.409 . S
C2911 C2910 1.362 . S
H2912 C2918 0.930 . S
H2913 C2921 0.930 . S
H2914 C2922 0.930 . S
H2915 C2923 0.930 . S
H2916 C2926 0.930 . S
H2917 C2927 0.930 . S
C2918 H2912 0.930 . S
C2918 C2919 1.355 . S
C2918 C2920 1.415 . S
C2919 C2918 1.355 . S
C2919 C2921 1.419 . S
C2920 C2918 1.415 . S
C2920 C2925 1.425 . S
C2920 C2927 1.409 . S
C2921 H2913 0.930 . S
C2921 C2919 1.419 . S
C2921 C2922 1.362 . S
C2922 H2914 0.930 . S
C2922 C2921 1.362 . S
C2922 C2925 1.409 . S
C2923 H2915 0.930 . S
C2923 C2924 1.355 . S
C2923 C2925 1.415 . S
C2924 C2923 1.355 . S
C2924 C2926 1.419 . S
C2925 C2920 1.425 . S
C2925 C2922 1.409 . S
C2925 C2923 1.415 . S
C2926 H2916 0.930 . S
C2926 C2924 1.419 . S
C2926 C2927 1.362 . S
C2927 H2917 0.930 . S
C2927 C2920 1.409 . S
C2927 C2926 1.362 . S
H2928 C2934 0.930 . S
H2929 C2937 0.930 . S
H2930 C2938 0.930 . S
H2931 C2939 0.930 . S
H2932 C2942 0.930 . S
H2933 C2943 0.930 . S
C2934 H2928 0.930 . S
C2934 C2935 1.355 . S
C2934 C2936 1.415 . S
C2935 C2934 1.355 . S
C2935 C2937 1.419 . S
C2936 C2934 1.415 . S
C2936 C2941 1.425 . S
C2936 C2943 1.409 . S
C2937 H2929 0.930 . S
C2937 C2935 1.419 . S
C2937 C2938 1.362 . S
C2938 H2930 0.930 . S
C2938 C2937 1.362 . S
C2938 C2941 1.409 . S
C2939 H2931 0.930 . S
C2939 C2940 1.355 . S
C2939 C2941 1.415 . S
C2940 C2939 1.355 . S
C2940 C2942 1.419 . S
C2941 C2936 1.425 . S
C2941 C2938 1.409 . S
C2941 C2939 1.415 . S
C2942 H2932 0.930 . S
C2942 C2940 1.419 . S
C2942 C2943 1.362 . S
C2943 H2933 0.930 . S
C2943 C2936 1.409 . S
C2943 C2942 1.362 . S
H2944 C2950 0.930 . S
H2945 C2953 0.930 1_554 S
H2946 C2954 0.930 . S
H2947 C2955 0.930 . S
H2948 C2958 0.930 . S
H2949 C2959 0.930 . S
C2950 H2944 0.930 . S
C2950 C2951 1.355 . S
C2950 C2952 1.415 . S
C2951 C2950 1.355 . S
C2951 C2953 1.419 . S
C2952 C2950 1.415 . S
C2952 C2957 1.425 . S
C2952 C2959 1.409 . S
C2953 H2945 0.930 1_556 S
C2953 C2951 1.419 . S
C2953 C2954 1.362 . S
C2954 H2946 0.930 . S
C2954 C2953 1.362 . S
C2954 C2957 1.409 . S
C2955 H2947 0.930 . S
C2955 C2956 1.355 . S
C2955 C2957 1.415 . S
C2956 C2955 1.355 . S
C2956 C2958 1.419 . S
C2957 C2952 1.425 . S
C2957 C2954 1.409 . S
C2957 C2955 1.415 . S
C2958 H2948 0.930 . S
C2958 C2956 1.419 . S
C2958 C2959 1.362 . S
C2959 H2949 0.930 . S
C2959 C2952 1.409 . S
C2959 C2958 1.362 . S
H2960 C2966 0.930 . S
H2961 C2969 0.930 . S
H2962 C2970 0.930 . S
H2963 C2971 0.930 . S
H2964 C2974 0.930 . S
H2965 C2975 0.930 . S
C2966 H2960 0.930 . S
C2966 C2967 1.355 . S
C2966 C2968 1.415 . S
C2967 C2966 1.355 . S
C2967 C2969 1.419 . S
C2968 C2966 1.415 . S
C2968 C2973 1.425 . S
C2968 C2975 1.409 . S
C2969 H2961 0.930 . S
C2969 C2967 1.419 . S
C2969 C2970 1.362 . S
C2970 H2962 0.930 . S
C2970 C2969 1.362 . S
C2970 C2973 1.409 . S
C2971 H2963 0.930 . S
C2971 C2972 1.355 . S
C2971 C2973 1.415 . S
C2972 C2971 1.355 . S
C2972 C2974 1.419 . S
C2973 C2968 1.425 . S
C2973 C2970 1.409 . S
C2973 C2971 1.415 . S
C2974 H2964 0.930 . S
C2974 C2972 1.419 . S
C2974 C2975 1.362 . S
C2975 H2965 0.930 . S
C2975 C2968 1.409 . S
C2975 C2974 1.362 . S
H2976 C2982 0.930 . S
H2977 C2985 0.930 . S
H2978 C2986 0.930 . S
H2979 C2987 0.930 . S
H2980 C2990 0.930 . S
H2981 C2991 0.930 . S
C2982 H2976 0.930 . S
C2982 C2983 1.355 . S
C2982 C2984 1.415 . S
C2983 C2982 1.355 . S
C2983 C2985 1.419 . S
C2984 C2982 1.415 . S
C2984 C2989 1.425 . S
C2984 C2991 1.409 . S
C2985 H2977 0.930 . S
C2985 C2983 1.419 . S
C2985 C2986 1.362 . S
C2986 H2978 0.930 . S
C2986 C2985 1.362 . S
C2986 C2989 1.409 . S
C2987 H2979 0.930 . S
C2987 C2988 1.355 . S
C2987 C2989 1.415 . S
C2988 C2987 1.355 . S
C2988 C2990 1.419 . S
C2989 C2984 1.425 . S
C2989 C2986 1.409 . S
C2989 C2987 1.415 . S
C2990 H2980 0.930 . S
C2990 C2988 1.419 . S
C2990 C2991 1.362 . S
C2991 H2981 0.930 . S
C2991 C2984 1.409 . S
C2991 C2990 1.362 . S
H2992 C2998 0.930 . S
H2993 C3001 0.930 . S
H2994 C3002 0.930 . S
H2995 C3003 0.930 . S
H2996 C3006 0.930 . S
H2997 C3007 0.930 . S
C2998 H2992 0.930 . S
C2998 C2999 1.355 . S
C2998 C3000 1.415 . S
C2999 C2998 1.355 . S
C2999 C3001 1.419 . S
C3000 C2998 1.415 . S
C3000 C3005 1.425 . S
C3000 C3007 1.409 . S
C3001 H2993 0.930 . S
C3001 C2999 1.419 . S
C3001 C3002 1.362 . S
C3002 H2994 0.930 . S
C3002 C3001 1.362 . S
C3002 C3005 1.409 . S
C3003 H2995 0.930 . S
C3003 C3004 1.355 . S
C3003 C3005 1.415 . S
C3004 C3003 1.355 . S
C3004 C3006 1.419 . S
C3005 C3000 1.425 . S
C3005 C3002 1.409 . S
C3005 C3003 1.415 . S
C3006 H2996 0.930 . S
C3006 C3004 1.419 . S
C3006 C3007 1.362 . S
C3007 H2997 0.930 . S
C3007 C3000 1.409 . S
C3007 C3006 1.362 . S
H3008 C3014 0.930 . S
H3009 C3017 0.930 . S
H3010 C3018 0.930 . S
H3011 C3019 0.930 . S
H3012 C3022 0.930 . S
H3013 C3023 0.930 . S
C3014 H3008 0.930 . S
C3014 C3015 1.355 . S
C3014 C3016 1.415 . S
C3015 C3014 1.355 . S
C3015 C3017 1.419 . S
C3016 C3014 1.415 . S
C3016 C3021 1.425 . S
C3016 C3023 1.409 . S
C3017 H3009 0.930 . S
C3017 C3015 1.419 . S
C3017 C3018 1.362 . S
C3018 H3010 0.930 . S
C3018 C3017 1.362 . S
C3018 C3021 1.409 . S
C3019 H3011 0.930 . S
C3019 C3020 1.355 . S
C3019 C3021 1.415 . S
C3020 C3019 1.355 . S
C3020 C3022 1.419 . S
C3021 C3016 1.425 . S
C3021 C3018 1.409 . S
C3021 C3019 1.415 . S
C3022 H3012 0.930 . S
C3022 C3020 1.419 . S
C3022 C3023 1.362 . S
C3023 H3013 0.930 . S
C3023 C3016 1.409 . S
C3023 C3022 1.362 . S
H3024 C3030 0.930 . S
H3025 C3033 0.930 . S
H3026 C3034 0.930 . S
H3027 C3035 0.930 . S
H3028 C3038 0.930 . S
H3029 C3039 0.930 . S
C3030 H3024 0.930 . S
C3030 C3031 1.355 . S
C3030 C3032 1.415 . S
C3031 C3030 1.355 . S
C3031 C3033 1.419 . S
C3032 C3030 1.415 . S
C3032 C3037 1.425 . S
C3032 C3039 1.409 . S
C3033 H3025 0.930 . S
C3033 C3031 1.419 . S
C3033 C3034 1.362 . S
C3034 H3026 0.930 . S
C3034 C3033 1.362 . S
C3034 C3037 1.409 . S
C3035 H3027 0.930 . S
C3035 C3036 1.355 . S
C3035 C3037 1.415 . S
C3036 C3035 1.355 . S
C3036 C3038 1.419 . S
C3037 C3032 1.425 . S
C3037 C3034 1.409 . S
C3037 C3035 1.415 . S
C3038 H3028 0.930 . S
C3038 C3036 1.419 . S
C3038 C3039 1.362 . S
C3039 H3029 0.930 . S
C3039 C3032 1.409 . S
C3039 C3038 1.362 . S
H3040 C3046 0.930 . S
H3041 C3049 0.930 . S
H3042 C3050 0.930 . S
H3043 C3051 0.930 . S
H3044 C3054 0.930 . S
H3045 C3055 0.930 . S
C3046 H3040 0.930 . S
C3046 C3047 1.355 . S
C3046 C3048 1.415 . S
C3047 C3046 1.355 . S
C3047 C3049 1.419 . S
C3048 C3046 1.415 . S
C3048 C3053 1.425 . S
C3048 C3055 1.409 . S
C3049 H3041 0.930 . S
C3049 C3047 1.419 . S
C3049 C3050 1.362 . S
C3050 H3042 0.930 . S
C3050 C3049 1.362 . S
C3050 C3053 1.409 . S
C3051 H3043 0.930 . S
C3051 C3052 1.355 . S
C3051 C3053 1.415 . S
C3052 C3051 1.355 . S
C3052 C3054 1.419 . S
C3053 C3048 1.425 . S
C3053 C3050 1.409 . S
C3053 C3051 1.415 . S
C3054 H3044 0.930 . S
C3054 C3052 1.419 . S
C3054 C3055 1.362 . S
C3055 H3045 0.930 . S
C3055 C3048 1.409 . S
C3055 C3054 1.362 . S
H3056 C3062 0.930 . S
H3057 C3065 0.930 . S
H3058 C3066 0.930 . S
H3059 C3067 0.930 . S
H3060 C3070 0.930 . S
H3061 C3071 0.930 . S
C3062 H3056 0.930 . S
C3062 C3063 1.355 . S
C3062 C3064 1.415 . S
C3063 C3062 1.355 . S
C3063 C3065 1.419 . S
C3064 C3062 1.415 . S
C3064 C3069 1.425 . S
C3064 C3071 1.409 . S
C3065 H3057 0.930 . S
C3065 C3063 1.419 . S
C3065 C3066 1.362 . S
C3066 H3058 0.930 . S
C3066 C3065 1.362 . S
C3066 C3069 1.409 . S
C3067 H3059 0.930 . S
C3067 C3068 1.355 . S
C3067 C3069 1.415 . S
C3068 C3067 1.355 . S
C3068 C3070 1.419 . S
C3069 C3064 1.425 . S
C3069 C3066 1.409 . S
C3069 C3067 1.415 . S
C3070 H3060 0.930 . S
C3070 C3068 1.419 . S
C3070 C3071 1.362 . S
C3071 H3061 0.930 . S
C3071 C3064 1.409 . S
C3071 C3070 1.362 . S
H3072 C3078 0.930 . S
H3073 C3081 0.930 . S
H3074 C3082 0.930 . S
H3075 C3083 0.930 . S
H3076 C3086 0.930 . S
H3077 C3087 0.930 . S
C3078 H3072 0.930 . S
C3078 C3079 1.355 . S
C3078 C3080 1.415 . S
C3079 C3078 1.355 . S
C3079 C3081 1.419 . S
C3080 C3078 1.415 . S
C3080 C3085 1.425 . S
C3080 C3087 1.409 . S
C3081 H3073 0.930 . S
C3081 C3079 1.419 . S
C3081 C3082 1.362 . S
C3082 H3074 0.930 . S
C3082 C3081 1.362 . S
C3082 C3085 1.409 . S
C3083 H3075 0.930 . S
C3083 C3084 1.355 . S
C3083 C3085 1.415 . S
C3084 C3083 1.355 . S
C3084 C3086 1.419 . S
C3085 C3080 1.425 . S
C3085 C3082 1.409 . S
C3085 C3083 1.415 . S
C3086 H3076 0.930 . S
C3086 C3084 1.419 . S
C3086 C3087 1.362 . S
C3087 H3077 0.930 . S
C3087 C3080 1.409 . S
C3087 C3086 1.362 . S
H3088 C3094 0.930 . S
H3089 C3097 0.930 . S
H3090 C3098 0.930 . S
H3091 C3099 0.930 . S
H3092 C3102 0.930 . S
H3093 C3103 0.930 . S
C3094 H3088 0.930 . S
C3094 C3095 1.355 . S
C3094 C3096 1.415 . S
C3095 C3094 1.355 . S
C3095 C3097 1.419 . S
C3096 C3094 1.415 . S
C3096 C3101 1.425 . S
C3096 C3103 1.409 . S
C3097 H3089 0.930 . S
C3097 C3095 1.419 . S
C3097 C3098 1.362 . S
C3098 H3090 0.930 . S
C3098 C3097 1.362 . S
C3098 C3101 1.409 . S
C3099 H3091 0.930 . S
C3099 C3100 1.355 . S
C3099 C3101 1.415 . S
C3100 C3099 1.355 . S
C3100 C3102 1.419 . S
C3101 C3096 1.425 . S
C3101 C3098 1.409 . S
C3101 C3099 1.415 . S
C3102 H3092 0.930 . S
C3102 C3100 1.419 . S
C3102 C3103 1.362 . S
C3103 H3093 0.930 . S
C3103 C3096 1.409 . S
C3103 C3102 1.362 . S
H3104 C3110 0.930 . S
H3105 C3113 0.930 . S
H3106 C3114 0.930 . S
H3107 C3115 0.930 . S
H3108 C3118 0.930 . S
H3109 C3119 0.930 . S
C3110 H3104 0.930 . S
C3110 C3111 1.355 . S
C3110 C3112 1.415 . S
C3111 C3110 1.355 . S
C3111 C3113 1.419 . S
C3112 C3110 1.415 . S
C3112 C3117 1.425 . S
C3112 C3119 1.409 . S
C3113 H3105 0.930 . S
C3113 C3111 1.419 . S
C3113 C3114 1.362 . S
C3114 H3106 0.930 . S
C3114 C3113 1.362 . S
C3114 C3117 1.409 . S
C3115 H3107 0.930 . S
C3115 C3116 1.355 . S
C3115 C3117 1.415 . S
C3116 C3115 1.355 . S
C3116 C3118 1.419 . S
C3117 C3112 1.425 . S
C3117 C3114 1.409 . S
C3117 C3115 1.415 . S
C3118 H3108 0.930 . S
C3118 C3116 1.419 . S
C3118 C3119 1.362 . S
C3119 H3109 0.930 . S
C3119 C3112 1.409 . S
C3119 C3118 1.362 . S
H3120 C3126 0.930 . S
H3121 C3129 0.930 . S
H3122 C3130 0.930 . S
H3123 C3131 0.930 . S
H3124 C3134 0.930 . S
H3125 C3135 0.930 . S
C3126 H3120 0.930 . S
C3126 C3127 1.355 . S
C3126 C3128 1.415 . S
C3127 C3126 1.355 . S
C3127 C3129 1.419 . S
C3128 C3126 1.415 . S
C3128 C3133 1.425 . S
C3128 C3135 1.409 . S
C3129 H3121 0.930 . S
C3129 C3127 1.419 . S
C3129 C3130 1.362 . S
C3130 H3122 0.930 . S
C3130 C3129 1.362 . S
C3130 C3133 1.409 . S
C3131 H3123 0.930 . S
C3131 C3132 1.355 . S
C3131 C3133 1.415 . S
C3132 C3131 1.355 . S
C3132 C3134 1.419 . S
C3133 C3128 1.425 . S
C3133 C3130 1.409 . S
C3133 C3131 1.415 . S
C3134 H3124 0.930 . S
C3134 C3132 1.419 . S
C3134 C3135 1.362 . S
C3135 H3125 0.930 . S
C3135 C3128 1.409 . S
C3135 C3134 1.362 . S
H3136 C3142 0.930 . S
H3137 C3145 0.930 . S
H3138 C3146 0.930 . S
H3139 C3147 0.930 . S
H3140 C3150 0.930 . S
H3141 C3151 0.930 . S
C3142 H3136 0.930 . S
C3142 C3143 1.355 . S
C3142 C3144 1.415 . S
C3143 C3142 1.355 . S
C3143 C3145 1.419 . S
C3144 C3142 1.415 . S
C3144 C3149 1.425 . S
C3144 C3151 1.409 . S
C3145 H3137 0.930 . S
C3145 C3143 1.419 . S
C3145 C3146 1.362 . S
C3146 H3138 0.930 . S
C3146 C3145 1.362 . S
C3146 C3149 1.409 . S
C3147 H3139 0.930 . S
C3147 C3148 1.355 . S
C3147 C3149 1.415 . S
C3148 C3147 1.355 . S
C3148 C3150 1.419 . S
C3149 C3144 1.425 . S
C3149 C3146 1.409 . S
C3149 C3147 1.415 . S
C3150 H3140 0.930 . S
C3150 C3148 1.419 . S
C3150 C3151 1.362 . S
C3151 H3141 0.930 . S
C3151 C3144 1.409 . S
C3151 C3150 1.362 . S
H3152 C3158 0.948 . S
H3153 C3161 0.930 . S
H3154 C3162 0.930 . S
H3155 C3163 0.930 . S
H3156 C3166 0.930 . S
H3157 C3167 0.930 . S
C3158 H3152 0.948 . S
C3158 C3159 1.356 1_545 S
C3158 C3160 1.397 1_545 S
C3159 C3158 1.356 1_565 S
C3159 C3161 1.419 . S
C3160 C3158 1.397 1_565 S
C3160 C3165 1.425 . S
C3160 C3167 1.409 1_565 S
C3161 H3153 0.930 . S
C3161 C3159 1.419 . S
C3161 C3162 1.362 . S
C3162 H3154 0.930 . S
C3162 C3161 1.362 . S
C3162 C3165 1.409 . S
C3163 H3155 0.930 . S
C3163 C3164 1.355 . S
C3163 C3165 1.415 . S
C3164 C3163 1.355 . S
C3164 C3166 1.419 1_565 S
C3165 C3160 1.425 . S
C3165 C3162 1.409 . S
C3165 C3163 1.415 . S
C3166 H3156 0.930 . S
C3166 C3164 1.419 1_545 S
C3166 C3167 1.362 . S
C3167 H3157 0.930 . S
C3167 C3160 1.409 1_545 S
C3167 C3166 1.362 . S
H3168 C3174 0.930 . S
H3169 C3177 0.930 . S
H3170 C3178 0.930 . S
H3171 C3179 0.930 . S
H3172 C3182 0.930 . S
H3173 C3183 0.930 . S
C3174 H3168 0.930 . S
C3174 C3175 1.355 1_545 S
C3174 C3176 1.415 . S
C3175 C3174 1.355 1_565 S
C3175 C3177 1.419 . S
C3176 C3174 1.415 . S
C3176 C3181 1.425 1_545 S
C3176 C3183 1.409 . S
C3177 H3169 0.930 . S
C3177 C3175 1.419 . S
C3177 C3178 1.362 . S
C3178 H3170 0.930 . S
C3178 C3177 1.362 . S
C3178 C3181 1.409 . S
C3179 H3171 0.930 . S
C3179 C3180 1.355 . S
C3179 C3181 1.415 . S
C3180 C3179 1.355 . S
C3180 C3182 1.419 1_565 S
C3181 C3176 1.425 1_565 S
C3181 C3178 1.409 . S
C3181 C3179 1.415 . S
C3182 H3172 0.930 . S
C3182 C3180 1.419 1_545 S
C3182 C3183 1.362 . S
C3183 H3173 0.930 . S
C3183 C3176 1.409 . S
C3183 C3182 1.362 . S
H3184 C3190 0.930 . S
H3185 C3193 0.930 . S
H3186 C3194 0.930 . S
H3187 C3195 0.930 . S
H3188 C3198 0.930 . S
H3189 C3199 0.930 . S
C3190 H3184 0.930 . S
C3190 C3191 1.355 1_655 S
C3190 C3192 1.444 . S
C3191 C3190 1.355 1_455 S
C3191 C3193 1.419 . S
C3192 C3190 1.444 . S
C3192 C3197 1.366 1_655 S
C3192 C3199 1.439 . S
C3193 H3185 0.930 . S
C3193 C3191 1.419 . S
C3193 C3194 1.362 . S
C3194 H3186 0.930 . S
C3194 C3193 1.362 . S
C3194 C3197 1.409 . S
C3195 H3187 0.930 . S
C3195 C3196 1.365 . S
C3195 C3197 1.415 . S
C3196 C3195 1.365 . S
C3196 C3198 1.399 1_455 S
C3197 C3192 1.366 1_455 S
C3197 C3194 1.409 . S
C3197 C3195 1.415 . S
C3198 H3188 0.930 . S
C3198 C3196 1.399 1_655 S
C3198 C3199 1.362 . S
C3199 H3189 0.930 . S
C3199 C3192 1.439 . S
C3199 C3198 1.362 . S
H3200 C3206 0.930 . S
H3201 C3209 0.930 . S
H3202 C3210 0.930 . S
H3203 C3211 0.930 . S
H3204 C3214 0.930 . S
H3205 C3215 0.930 . S
C3206 H3200 0.930 . S
C3206 C3207 1.355 . S
C3206 C3208 1.415 . S
C3207 C3206 1.355 . S
C3207 C3209 1.419 . S
C3208 C3206 1.415 . S
C3208 C3213 1.425 . S
C3208 C3215 1.409 . S
C3209 H3201 0.930 . S
C3209 C3207 1.419 . S
C3209 C3210 1.362 . S
C3210 H3202 0.930 . S
C3210 C3209 1.362 . S
C3210 C3213 1.409 . S
C3211 H3203 0.930 . S
C3211 C3212 1.355 . S
C3211 C3213 1.415 . S
C3212 C3211 1.355 . S
C3212 C3214 1.419 . S
C3213 C3208 1.425 . S
C3213 C3210 1.409 . S
C3213 C3211 1.415 . S
C3214 H3204 0.930 . S
C3214 C3212 1.419 . S
C3214 C3215 1.362 . S
C3215 H3205 0.930 . S
C3215 C3208 1.409 . S
C3215 C3214 1.362 . S
H3216 C3222 0.930 . S
H3217 C3225 0.930 . S
H3218 C3226 0.930 . S
H3219 C3227 0.930 . S
H3220 C3230 0.930 . S
H3221 C3231 0.930 . S
C3222 H3216 0.930 . S
C3222 C3223 1.355 . S
C3222 C3224 1.415 . S
C3223 C3222 1.355 . S
C3223 C3225 1.419 . S
C3224 C3222 1.415 . S
C3224 C3229 1.425 . S
C3224 C3231 1.409 . S
C3225 H3217 0.930 . S
C3225 C3223 1.419 . S
C3225 C3226 1.362 . S
C3226 H3218 0.930 . S
C3226 C3225 1.362 . S
C3226 C3229 1.409 . S
C3227 H3219 0.930 . S
C3227 C3228 1.355 . S
C3227 C3229 1.415 . S
C3228 C3227 1.355 . S
C3228 C3230 1.419 . S
C3229 C3224 1.425 . S
C3229 C3226 1.409 . S
C3229 C3227 1.415 . S
C3230 H3220 0.930 . S
C3230 C3228 1.419 . S
C3230 C3231 1.362 . S
C3231 H3221 0.930 . S
C3231 C3224 1.409 . S
C3231 C3230 1.362 . S
H3232 C3238 0.930 . S
H3233 C3241 0.930 . S
H3234 C3242 0.930 . S
H3235 C3243 0.930 . S
H3236 C3246 0.930 . S
H3237 C3247 0.930 . S
C3238 H3232 0.930 . S
C3238 C3239 1.355 . S
C3238 C3240 1.415 . S
C3239 C3238 1.355 . S
C3239 C3241 1.419 . S
C3240 C3238 1.415 . S
C3240 C3245 1.425 . S
C3240 C3247 1.409 . S
C3241 H3233 0.930 . S
C3241 C3239 1.419 . S
C3241 C3242 1.362 . S
C3242 H3234 0.930 . S
C3242 C3241 1.362 . S
C3242 C3245 1.409 . S
C3243 H3235 0.930 . S
C3243 C3244 1.355 . S
C3243 C3245 1.415 . S
C3244 C3243 1.355 . S
C3244 C3246 1.419 . S
C3245 C3240 1.425 . S
C3245 C3242 1.409 . S
C3245 C3243 1.415 . S
C3246 H3236 0.930 . S
C3246 C3244 1.419 . S
C3246 C3247 1.362 . S
C3247 H3237 0.930 . S
C3247 C3240 1.409 . S
C3247 C3246 1.362 . S
H3248 C3254 0.930 . S
H3249 C3257 0.930 . S
H3250 C3258 0.930 . S
H3251 C3259 0.930 . S
H3252 C3262 0.930 . S
H3253 C3263 0.930 . S
C3254 H3248 0.930 . S
C3254 C3255 1.355 . S
C3254 C3256 1.415 . S
C3255 C3254 1.355 . S
C3255 C3257 1.419 . S
C3256 C3254 1.415 . S
C3256 C3261 1.425 . S
C3256 C3263 1.409 . S
C3257 H3249 0.930 . S
C3257 C3255 1.419 . S
C3257 C3258 1.362 . S
C3258 H3250 0.930 . S
C3258 C3257 1.362 . S
C3258 C3261 1.409 . S
C3259 H3251 0.930 . S
C3259 C3260 1.355 . S
C3259 C3261 1.415 . S
C3260 C3259 1.355 . S
C3260 C3262 1.419 . S
C3261 C3256 1.425 . S
C3261 C3258 1.409 . S
C3261 C3259 1.415 . S
C3262 H3252 0.930 . S
C3262 C3260 1.419 . S
C3262 C3263 1.362 . S
C3263 H3253 0.930 . S
C3263 C3256 1.409 . S
C3263 C3262 1.362 . S
H3264 C3270 0.930 . S
H3265 C3273 0.930 . S
H3266 C3274 0.930 . S
H3267 C3275 0.930 . S
H3268 C3278 0.930 . S
H3269 C3279 0.930 . S
C3270 H3264 0.930 . S
C3270 C3271 1.355 . S
C3270 C3272 1.415 . S
C3271 C3270 1.355 . S
C3271 C3273 1.419 1_545 S
C3272 C3270 1.415 . S
C3272 C3277 1.464 . S
C3272 C3279 1.409 . S
C3273 H3265 0.930 . S
C3273 C3271 1.419 1_565 S
C3273 C3274 1.362 . S
C3274 H3266 0.930 . S
C3274 C3273 1.362 . S
C3274 C3277 1.398 1_565 S
C3275 H3267 0.930 . S
C3275 C3276 1.355 1_565 S
C3275 C3277 1.389 1_565 S
C3276 C3275 1.355 1_545 S
C3276 C3278 1.419 . S
C3277 C3272 1.464 . S
C3277 C3274 1.398 1_545 S
C3277 C3275 1.389 1_545 S
C3278 H3268 0.930 . S
C3278 C3276 1.419 . S
C3278 C3279 1.362 . S
C3279 H3269 0.930 . S
C3279 C3272 1.409 . S
C3279 C3278 1.362 . S
H3280 C3286 0.930 . S
H3281 C3289 0.925 1_455 S
H3282 C3290 0.925 . S
H3283 C3291 0.930 1_455 S
H3284 C3294 0.930 . S
H3285 C3295 0.930 . S
C3286 H3280 0.930 . S
C3286 C3287 1.355 . S
C3286 C3288 1.415 . S
C3287 C3286 1.355 . S
C3287 C3289 1.416 . S
C3288 C3286 1.415 . S
C3288 C3293 1.425 . S
C3288 C3295 1.409 . S
C3289 H3281 0.925 1_655 S
C3289 C3287 1.416 . S
C3289 C3290 1.384 1_655 S
C3290 H3282 0.925 . S
C3290 C3289 1.384 1_455 S
C3290 C3293 1.402 1_455 S
C3291 H3283 0.930 1_655 S
C3291 C3292 1.355 . S
C3291 C3293 1.415 . S
C3292 C3291 1.355 . S
C3292 C3294 1.419 . S
C3293 C3288 1.425 . S
C3293 C3290 1.402 1_655 S
C3293 C3291 1.415 . S
C3294 H3284 0.930 . S
C3294 C3292 1.419 . S
C3294 C3295 1.362 . S
C3295 H3285 0.930 . S
C3295 C3288 1.409 . S
C3295 C3294 1.362 . S
H3296 C3302 0.930 . S
H3297 C3305 0.930 . S
H3298 C3306 0.930 . S
H3299 C3307 0.930 . S
H3300 C3310 0.930 . S
H3301 C3311 0.930 . S
C3302 H3296 0.930 . S
C3302 C3303 1.355 . S
C3302 C3304 1.415 . S
C3303 C3302 1.355 . S
C3303 C3305 1.419 . S
C3304 C3302 1.415 . S
C3304 C3309 1.425 . S
C3304 C3311 1.409 . S
C3305 H3297 0.930 . S
C3305 C3303 1.419 . S
C3305 C3306 1.362 . S
C3306 H3298 0.930 . S
C3306 C3305 1.362 . S
C3306 C3309 1.409 . S
C3307 H3299 0.930 . S
C3307 C3308 1.355 . S
C3307 C3309 1.415 . S
C3308 C3307 1.355 . S
C3308 C3310 1.419 . S
C3309 C3304 1.425 . S
C3309 C3306 1.409 . S
C3309 C3307 1.415 . S
C3310 H3300 0.930 . S
C3310 C3308 1.419 . S
C3310 C3311 1.362 . S
C3311 H3301 0.930 . S
C3311 C3304 1.409 . S
C3311 C3310 1.362 . S
H3312 C3318 0.930 . S
H3313 C3321 0.930 . S
H3314 C3322 0.930 . S
H3315 C3323 0.930 . S
H3316 C3326 0.930 . S
H3317 C3327 0.930 . S
C3318 H3312 0.930 . S
C3318 C3319 1.355 . S
C3318 C3320 1.415 . S
C3319 C3318 1.355 . S
C3319 C3321 1.419 . S
C3320 C3318 1.415 . S
C3320 C3325 1.425 . S
C3320 C3327 1.409 . S
C3321 H3313 0.930 . S
C3321 C3319 1.419 . S
C3321 C3322 1.362 . S
C3322 H3314 0.930 . S
C3322 C3321 1.362 . S
C3322 C3325 1.409 . S
C3323 H3315 0.930 . S
C3323 C3324 1.355 . S
C3323 C3325 1.415 . S
C3324 C3323 1.355 . S
C3324 C3326 1.419 . S
C3325 C3320 1.425 . S
C3325 C3322 1.409 . S
C3325 C3323 1.415 . S
C3326 H3316 0.930 . S
C3326 C3324 1.419 . S
C3326 C3327 1.362 . S
C3327 H3317 0.930 . S
C3327 C3320 1.409 . S
C3327 C3326 1.362 . S
H3328 C3334 0.930 . S
H3329 C3337 0.930 . S
H3330 C3338 0.930 . S
H3331 C3339 0.930 . S
H3332 C3342 0.930 . S
H3333 C3343 0.930 . S
C3334 H3328 0.930 . S
C3334 C3335 1.355 . S
C3334 C3336 1.415 . S
C3335 C3334 1.355 . S
C3335 C3337 1.419 . S
C3336 C3334 1.415 . S
C3336 C3341 1.425 . S
C3336 C3343 1.409 . S
C3337 H3329 0.930 . S
C3337 C3335 1.419 . S
C3337 C3338 1.362 . S
C3338 H3330 0.930 . S
C3338 C3337 1.362 . S
C3338 C3341 1.409 . S
C3339 H3331 0.930 . S
C3339 C3340 1.355 . S
C3339 C3341 1.415 . S
C3340 C3339 1.355 . S
C3340 C3342 1.419 . S
C3341 C3336 1.425 . S
C3341 C3338 1.409 . S
C3341 C3339 1.415 . S
C3342 H3332 0.930 . S
C3342 C3340 1.419 . S
C3342 C3343 1.362 . S
C3343 H3333 0.930 . S
C3343 C3336 1.409 . S
C3343 C3342 1.362 . S
H3344 C3350 0.930 . S
H3345 C3353 0.930 . S
H3346 C3354 0.930 . S
H3347 C3355 0.930 . S
H3348 C3358 0.930 . S
H3349 C3359 0.930 . S
C3350 H3344 0.930 . S
C3350 C3351 1.355 . S
C3350 C3352 1.415 . S
C3351 C3350 1.355 . S
C3351 C3353 1.419 . S
C3352 C3350 1.415 . S
C3352 C3357 1.425 . S
C3352 C3359 1.409 . S
C3353 H3345 0.930 . S
C3353 C3351 1.419 . S
C3353 C3354 1.362 . S
C3354 H3346 0.930 . S
C3354 C3353 1.362 . S
C3354 C3357 1.409 . S
C3355 H3347 0.930 . S
C3355 C3356 1.355 . S
C3355 C3357 1.415 . S
C3356 C3355 1.355 . S
C3356 C3358 1.419 . S
C3357 C3352 1.425 . S
C3357 C3354 1.409 . S
C3357 C3355 1.415 . S
C3358 H3348 0.930 . S
C3358 C3356 1.419 . S
C3358 C3359 1.362 . S
C3359 H3349 0.930 . S
C3359 C3352 1.409 . S
C3359 C3358 1.362 . S
H3360 C3366 0.930 . S
H3361 C3369 0.930 . S
H3362 C3370 0.930 . S
H3363 C3371 0.930 . S
H3364 C3374 0.930 . S
H3365 C3375 0.930 . S
C3366 H3360 0.930 . S
C3366 C3367 1.355 . S
C3366 C3368 1.415 . S
C3367 C3366 1.355 . S
C3367 C3369 1.419 . S
C3368 C3366 1.415 . S
C3368 C3373 1.425 . S
C3368 C3375 1.409 . S
C3369 H3361 0.930 . S
C3369 C3367 1.419 . S
C3369 C3370 1.362 . S
C3370 H3362 0.930 . S
C3370 C3369 1.362 . S
C3370 C3373 1.409 . S
C3371 H3363 0.930 . S
C3371 C3372 1.355 . S
C3371 C3373 1.415 . S
C3372 C3371 1.355 . S
C3372 C3374 1.419 . S
C3373 C3368 1.425 . S
C3373 C3370 1.409 . S
C3373 C3371 1.415 . S
C3374 H3364 0.930 . S
C3374 C3372 1.419 . S
C3374 C3375 1.362 . S
C3375 H3365 0.930 . S
C3375 C3368 1.409 . S
C3375 C3374 1.362 . S
H3376 C3382 0.930 . S
H3377 C3385 0.930 . S
H3378 C3386 0.930 . S
H3379 C3387 0.930 . S
H3380 C3390 0.930 . S
H3381 C3391 0.930 . S
C3382 H3376 0.930 . S
C3382 C3383 1.355 . S
C3382 C3384 1.415 . S
C3383 C3382 1.355 . S
C3383 C3385 1.419 . S
C3384 C3382 1.415 . S
C3384 C3389 1.425 . S
C3384 C3391 1.409 . S
C3385 H3377 0.930 . S
C3385 C3383 1.419 . S
C3385 C3386 1.362 . S
C3386 H3378 0.930 . S
C3386 C3385 1.362 . S
C3386 C3389 1.409 . S
C3387 H3379 0.930 . S
C3387 C3388 1.355 . S
C3387 C3389 1.415 . S
C3388 C3387 1.355 . S
C3388 C3390 1.419 . S
C3389 C3384 1.425 . S
C3389 C3386 1.409 . S
C3389 C3387 1.415 . S
C3390 H3380 0.930 . S
C3390 C3388 1.419 . S
C3390 C3391 1.362 . S
C3391 H3381 0.930 . S
C3391 C3384 1.409 . S
C3391 C3390 1.362 . S
H3392 C3398 0.930 . S
H3393 C3401 0.930 . S
H3394 C3402 0.930 . S
H3395 C3403 0.930 . S
H3396 C3406 0.930 . S
H3397 C3407 0.930 . S
C3398 H3392 0.930 . S
C3398 C3399 1.355 . S
C3398 C3400 1.415 . S
C3399 C3398 1.355 . S
C3399 C3401 1.419 . S
C3400 C3398 1.415 . S
C3400 C3405 1.425 . S
C3400 C3407 1.409 . S
C3401 H3393 0.930 . S
C3401 C3399 1.419 . S
C3401 C3402 1.362 . S
C3402 H3394 0.930 . S
C3402 C3401 1.362 . S
C3402 C3405 1.409 . S
C3403 H3395 0.930 . S
C3403 C3404 1.355 . S
C3403 C3405 1.415 . S
C3404 C3403 1.355 . S
C3404 C3406 1.419 . S
C3405 C3400 1.425 . S
C3405 C3402 1.409 . S
C3405 C3403 1.415 . S
C3406 H3396 0.930 . S
C3406 C3404 1.419 . S
C3406 C3407 1.362 . S
C3407 H3397 0.930 . S
C3407 C3400 1.409 . S
C3407 C3406 1.362 . S
H3408 C3414 0.930 . S
H3409 C3417 0.933 . S
H3410 C3418 0.930 . S
H3411 C3419 0.925 1_455 S
H3412 C3422 0.930 . S
H3413 C3423 0.930 . S
C3414 H3408 0.930 . S
C3414 C3415 1.355 . S
C3414 C3416 1.415 . S
C3415 C3414 1.355 . S
C3415 C3417 1.404 1_655 S
C3416 C3414 1.415 . S
C3416 C3421 1.425 . S
C3416 C3423 1.409 . S
C3417 H3409 0.933 . S
C3417 C3415 1.404 1_455 S
C3417 C3418 1.376 . S
C3418 H3410 0.930 . S
C3418 C3417 1.376 . S
C3418 C3421 1.409 1_455 S
C3419 H3411 0.925 1_655 S
C3419 C3420 1.355 . S
C3419 C3421 1.418 . S
C3420 C3419 1.355 . S
C3420 C3422 1.419 . S
C3421 C3416 1.425 . S
C3421 C3418 1.409 1_655 S
C3421 C3419 1.418 . S
C3422 H3412 0.930 . S
C3422 C3420 1.419 . S
C3422 C3423 1.362 . S
C3423 H3413 0.930 . S
C3423 C3416 1.409 . S
C3423 C3422 1.362 . S
H3424 C3430 0.930 . S
H3425 C3433 0.930 . S
H3426 C3434 0.930 . S
H3427 C3435 0.930 . S
H3428 C3438 0.930 . S
H3429 C3439 0.930 . S
C3430 H3424 0.930 . S
C3430 C3431 1.355 . S
C3430 C3432 1.415 . S
C3431 C3430 1.355 . S
C3431 C3433 1.419 . S
C3432 C3430 1.415 . S
C3432 C3437 1.425 . S
C3432 C3439 1.409 . S
C3433 H3425 0.930 . S
C3433 C3431 1.419 . S
C3433 C3434 1.362 . S
C3434 H3426 0.930 . S
C3434 C3433 1.362 . S
C3434 C3437 1.409 . S
C3435 H3427 0.930 . S
C3435 C3436 1.355 . S
C3435 C3437 1.415 . S
C3436 C3435 1.355 . S
C3436 C3438 1.419 . S
C3437 C3432 1.425 . S
C3437 C3434 1.409 . S
C3437 C3435 1.415 . S
C3438 H3428 0.930 . S
C3438 C3436 1.419 . S
C3438 C3439 1.362 . S
C3439 H3429 0.930 . S
C3439 C3432 1.409 . S
C3439 C3438 1.362 . S
H3440 C3446 0.930 . S
H3441 C3449 0.930 . S
H3442 C3450 0.930 . S
H3443 C3451 0.930 . S
H3444 C3454 0.925 1_565 S
H3445 C3455 0.930 . S
C3446 H3440 0.930 . S
C3446 C3447 1.355 . S
C3446 C3448 1.415 . S
C3447 C3446 1.355 . S
C3447 C3449 1.419 . S
C3448 C3446 1.415 . S
C3448 C3453 1.425 . S
C3448 C3455 1.409 . S
C3449 H3441 0.930 . S
C3449 C3447 1.419 . S
C3449 C3450 1.362 . S
C3450 H3442 0.930 . S
C3450 C3449 1.362 . S
C3450 C3453 1.409 . S
C3451 H3443 0.930 . S
C3451 C3452 1.355 . S
C3451 C3453 1.415 . S
C3452 C3451 1.355 . S
C3452 C3454 1.437 . S
C3453 C3448 1.425 . S
C3453 C3450 1.409 . S
C3453 C3451 1.415 . S
C3454 H3444 0.925 1_545 S
C3454 C3452 1.437 . S
C3454 C3455 1.350 . S
C3455 H3445 0.930 . S
C3455 C3448 1.409 . S
C3455 C3454 1.350 . S
C2311 C9 1.355 1_655 S
C2316 C1307 0.982 . S
C2327 C19 1.745 . S
C2332 C1447 1.044 . S
C2348 C1535 1.245 . S
C2343 C33 1.419 . S
C2359 C37 1.433 1_565 S
C2364 C1675 1.003 1_565 S
C2375 C5 1.399 . S
C2380 C1789 1.094 . S
C2391 C23 1.812 . S
C2396 C1877 1.283 . S
C2407 C47 1.327 . S
C2412 C1763 1.002 . S
C2428 C1903 1.520 . S
C2423 C65 1.700 . S
C2444 C1649 1.156 . S
C2439 C75 1.373 . S
C2455 C79 1.350 . S
C2460 C1561 0.935 . S
C2476 C1333 1.142 . S
C2471 C51 1.417 . S
C2487 C61 1.673 . S
C2492 C1421 1.528 . S
C2503 C93 1.915 . S
C2508 C1991 1.390 . S
C2519 C103 1.827 . S
C2524 C2131 1.099 . S
C2540 C2219 1.275 . S
C2535 C117 1.804 . S
C2551 C121 1.872 . S
C2556 C307 1.265 . S
C2567 C89 1.860 . S
C2572 C421 1.102 . S
C2583 C107 1.892 . S
C2588 C509 1.337 . S
C2599 C131 1.606 . S
C2604 C395 1.427 . S
C2615 C149 1.778 . S
C2620 C535 1.504 . S
C2636 C281 1.489 . S
C2631 C159 1.695 . S
C2652 C2245 1.687 . S
C2647 C163 1.862 . S
C2668 C2017 1.630 . S
C2663 C135 1.792 . S
C2684 C2105 1.596 . S
C2679 C145 1.747 . S
C2695 C177 1.777 . S
C2700 C623 1.223 . S
C2711 C187 1.817 . S
C2716 C763 1.199 . S
C2727 C201 1.839 . S
C2732 C851 1.279 . S
C2743 C205 2.016 . S
C2748 C991 1.341 . S
C2764 C1105 1.155 . S
C2759 C173 1.861 . S
C2780 C1193 1.468 . S
C2775 C191 1.930 . S
C2796 C1079 1.650 . S
C2791 C215 1.758 . S
C2812 C1219 1.554 . S
C2807 C233 1.800 . S
C2823 C243 1.640 . S
C2828 C965 1.553 . S
C2844 C877 1.569 . S
C2839 C247 1.709 . S
C2855 C219 1.819 . S
C2860 C649 1.643 . S
C2876 C737 1.616 . S
C2871 C229 1.731 . S
C2892 C263 1.062 . S
C2887 C11 1.830 . S
C2903 C14 1.666 . S
C2908 C377 0.835 . S
C2924 C481 1.320 . S
C2919 C28 1.858 . S
C2940 C595 1.292 . S
C2935 C39 1.780 . S
C2956 C719 1.075 . S
C2951 C0 1.820 . S
C2972 C823 1.110 . S
C2967 C25 1.635 . S
C2983 C42 2.012 . S
C2988 C833 1.526 . S
C2999 C67 1.817 . S
C3004 C605 1.427 . S
C3015 C70 1.846 . S
C3020 C709 1.589 . S
C3031 C81 1.781 . S
C3036 C367 1.622 . S
C3052 C491 1.607 . S
C3047 C53 1.977 . S
C3063 C56 1.854 . S
C3068 C253 1.634 . S
C3084 C947 1.058 . S
C3079 C95 1.731 . S
C3095 C98 1.814 . S
C3100 C1061 1.128 . S
C3111 C112 1.873 . S
C3116 C1165 1.376 . S
C3132 C1279 0.965 . S
C3127 C123 1.298 . S
C3143 C84 1.716 . S
C3148 C1403 1.004 . S
C3159 C109 1.305 . S
C3164 C1507 1.041 . S
C3175 C126 1.482 . S
C3180 C1517 0.900 1_565 S
C3191 C151 1.354 . S
C3196 C1289 0.966 1_455 S
C3212 C1393 1.537 . S
C3207 C154 1.768 . S
C3223 C165 1.726 . S
C3228 C1051 1.588 . S
C3239 C137 1.953 . S
C3244 C1175 1.476 . S
C3260 C937 1.739 . S
C3255 C140 1.990 . S
C3276 C1631 0.858 . S
C3271 C179 1.449 . S
C3287 C182 1.333 . S
C3292 C1745 0.991 . S
C3303 C196 1.772 . S
C3308 C1849 1.331 . S
C3324 C1963 1.231 . S
C3319 C207 1.682 . S
C3340 C2087 1.020 . S
C3335 C168 1.815 . S
C3351 C193 1.785 . S
C3356 C2191 1.265 . S
C3367 C210 1.953 . S
C3372 C2201 1.472 . S
C3383 C235 1.942 . S
C3388 C1973 1.590 . S
C3404 C2077 1.714 . S
C3399 C238 1.860 . S
C3420 C1735 1.127 1_655 S
C3415 C249 1.233 . S
C3436 C1859 1.449 . S
C3431 C221 1.849 . S
C3447 C224 1.413 . S
C3452 C1621 1.241 1_545 S
