# Generated by pormake.
# Topology nom, (4,4)-cn, num edge types: 1
# Building blocks:
#     Node 0, Type 0, BuildingBlock: KUFVIS_clean_linker_0, # of connection points: 4
#     Node 1, Type 0, BuildingBlock: KUFVIS_clean_linker_0, # of connection points: 4
#     Node 2, Type 0, BuildingBlock: KUFVIS_clean_linker_0, # of connection points: 4
#     Node 3, Type 0, BuildingBlock: KUFVIS_clean_linker_0, # of connection points: 4
#     Node 4, Type 0, BuildingBlock: KUFVIS_clean_linker_0, # of connection points: 4
#     Node 5, Type 0, BuildingBlock: KUFVIS_clean_linker_0, # of connection points: 4
#     Node 6, Type 1, BuildingBlock: NAHDIM_clean_sbu_0, # of connection points: 4
#     Node 7, Type 1, BuildingBlock: NAHDIM_clean_sbu_0, # of connection points: 4
#     Node 8, Type 1, BuildingBlock: NAHDIM_clean_sbu_0, # of connection points: 4
#     Node 9, Type 1, BuildingBlock: NAHDIM_clean_sbu_0, # of connection points: 4
#     Node 10, Type 1, BuildingBlock: NAHDIM_clean_sbu_0, # of connection points: 4
#     Node 11, Type 1, BuildingBlock: NAHDIM_clean_sbu_0, # of connection points: 4
#     Edge 12, Type (0, 1), BuildingBlock: EYOCIG_clean_linker_4, # of connection points: 2
#     Edge 13, Type (0, 1), BuildingBlock: EYOCIG_clean_linker_4, # of connection points: 2
#     Edge 14, Type (0, 1), BuildingBlock: EYOCIG_clean_linker_4, # of connection points: 2
#     Edge 15, Type (0, 1), BuildingBlock: EYOCIG_clean_linker_4, # of connection points: 2
#     Edge 16, Type (0, 1), BuildingBlock: EYOCIG_clean_linker_4, # of connection points: 2
#     Edge 17, Type (0, 1), BuildingBlock: EYOCIG_clean_linker_4, # of connection points: 2
#     Edge 18, Type (0, 1), BuildingBlock: EYOCIG_clean_linker_4, # of connection points: 2
#     Edge 19, Type (0, 1), BuildingBlock: EYOCIG_clean_linker_4, # of connection points: 2
#     Edge 20, Type (0, 1), BuildingBlock: EYOCIG_clean_linker_4, # of connection points: 2
#     Edge 21, Type (0, 1), BuildingBlock: EYOCIG_clean_linker_4, # of connection points: 2
#     Edge 22, Type (0, 1), BuildingBlock: EYOCIG_clean_linker_4, # of connection points: 2
#     Edge 23, Type (0, 1), BuildingBlock: EYOCIG_clean_linker_4, # of connection points: 2
#     Edge 24, Type (0, 1), BuildingBlock: EYOCIG_clean_linker_4, # of connection points: 2
#     Edge 25, Type (0, 1), BuildingBlock: EYOCIG_clean_linker_4, # of connection points: 2
#     Edge 26, Type (0, 1), BuildingBlock: EYOCIG_clean_linker_4, # of connection points: 2
#     Edge 27, Type (0, 1), BuildingBlock: EYOCIG_clean_linker_4, # of connection points: 2
#     Edge 28, Type (0, 1), BuildingBlock: EYOCIG_clean_linker_4, # of connection points: 2
#     Edge 29, Type (0, 1), BuildingBlock: EYOCIG_clean_linker_4, # of connection points: 2
#     Edge 30, Type (0, 1), BuildingBlock: EYOCIG_clean_linker_4, # of connection points: 2
#     Edge 31, Type (0, 1), BuildingBlock: EYOCIG_clean_linker_4, # of connection points: 2
#     Edge 32, Type (0, 1), BuildingBlock: EYOCIG_clean_linker_4, # of connection points: 2
#     Edge 33, Type (0, 1), BuildingBlock: EYOCIG_clean_linker_4, # of connection points: 2
#     Edge 34, Type (0, 1), BuildingBlock: EYOCIG_clean_linker_4, # of connection points: 2
#     Edge 35, Type (0, 1), BuildingBlock: EYOCIG_clean_linker_4, # of connection points: 2
# Relax obj value: 0.022
# Max RMSD: 0.124
# Mean RMSD: 0.082
data_MOF--net-nom--node1-NAHDIM_clean_sbu_0--node2-KUFVIS_clean_linker_0--edge1-EYOCIG_clean_linker_4
_symmetry_space_group_name_H-M    P1
_symmetry_Int_Tables_number       1
_symmetry_cell_setting            triclinic
loop_
_symmetry_equiv_pos_as_xyz
'x, y, z'
_cell_length_a     35.998892
_cell_length_b     37.576818
_cell_length_c     37.277516
_cell_angle_alpha  89.975897
_cell_angle_beta   91.043722
_cell_angle_gamma 121.40996
loop_
_atom_site_label
_atom_site_type_symbol
_atom_site_fract_x
_atom_site_fract_y
_atom_site_fract_z
_atom_type_partial_charge
H0 H 0.16141 0.60061 0.3421 0.0
H1 H 0.06241 0.56628 0.261 0.0
H2 H 0.02803 0.51748 0.36878 0.0
H3 H 0.967 0.51705 0.35475 0.0
H4 H 0.86808 0.45468 0.27323 0.0
H5 H 1.00151 0.50598 0.2461 0.0
C6 C 0.12722 0.58312 0.33405 0.0
C7 C 0.09587 0.55948 0.35925 0.0
C8 C 0.11512 0.5849 0.29872 0.0
C9 C 0.071 0.56306 0.28828 0.0
C10 C 0.03842 0.53822 0.3132 0.0
C11 C 0.05166 0.53658 0.34894 0.0
C12 C 0.99107 0.51469 0.30208 0.0
C13 C 0.95845 0.5061 0.32725 0.0
C14 C 0.91434 0.48406 0.3168 0.0
C15 C 0.90228 0.47126 0.28125 0.0
C16 C 0.93364 0.47972 0.25585 0.0
C17 C 0.97786 0.50087 0.26612 0.0
H18 H 0.57606 0.15576 0.51223 0.0
H19 H 0.51767 0.06015 0.43156 0.0
H20 H 0.53313 0.02998 0.54113 0.0
H21 H 0.47379 0.96962 0.52632 0.0
H22 H 0.43989 0.87608 0.44573 0.0
H23 H 0.52106 1.00456 0.41795 0.0
C24 C 0.5614 0.12316 0.50463 0.0
C25 C 0.55494 0.09394 0.53059 0.0
C26 C 0.54874 0.11083 0.46906 0.0
C27 C 0.52889 0.06888 0.45909 0.0
C28 C 0.52281 0.03864 0.48466 0.0
C29 C 0.53655 0.05189 0.5207 0.0
C30 C 0.50101 0.9936 0.47384 0.0
C31 C 0.47703 0.96201 0.49901 0.0
C32 C 0.45604 0.92002 0.48888 0.0
C33 C 0.45716 0.90882 0.4535 0.0
C34 C 0.47982 0.93928 0.42794 0.0
C35 C 0.50257 0.98154 0.43806 0.0
H36 H 0.57739 0.43506 0.60229 0.0
H37 H 0.5173 0.47048 0.68084 0.0
H38 H 0.53211 0.51634 0.57189 0.0
H39 H 0.47268 0.51861 0.58569 0.0
H40 H 0.43972 0.57698 0.66736 0.0
H41 H 0.52186 0.52981 0.69497 0.0
C42 C 0.56211 0.45247 0.60934 0.0
C43 C 0.55531 0.47504 0.58314 0.0
C44 C 0.54907 0.45161 0.64442 0.0
C45 C 0.52865 0.47328 0.65371 0.0
C46 C 0.52227 0.49749 0.62804 0.0
C47 C 0.53601 0.49807 0.59239 0.0
C48 C 0.50076 0.52112 0.63863 0.0
C49 C 0.47636 0.52922 0.61323 0.0
C50 C 0.45508 0.54988 0.62367 0.0
C51 C 0.45713 0.5619 0.65933 0.0
C52 C 0.48047 0.55401 0.68494 0.0
C53 C 0.50299 0.53452 0.67468 0.0
H54 H 0.15918 0.55595 0.77259 0.0
H55 H 0.06574 0.49325 0.85444 0.0
H56 H 0.02386 0.50112 0.74627 0.0
H57 H 0.96428 0.44231 0.76117 0.0
H58 H 0.87052 0.40965 0.84311 0.0
H59 H 1.00557 0.4914 0.86954 0.0
C60 C 0.12545 0.53877 0.78078 0.0
C61 C 0.09231 0.52872 0.75561 0.0
C62 C 0.11569 0.52672 0.81633 0.0
C63 C 0.07233 0.50371 0.82696 0.0
C64 C 0.03808 0.49396 0.8021 0.0
C65 C 0.04881 0.50713 0.76614 0.0
C66 C 0.99165 0.47037 0.81364 0.0
C67 C 0.95755 0.44573 0.78872 0.0
C68 C 0.91417 0.42479 0.79934 0.0
C69 C 0.90426 0.42657 0.83495 0.0
C70 C 0.93727 0.44984 0.86016 0.0
C71 C 0.98076 0.47231 0.84964 0.0
H72 H 0.45196 0.8726 0.01355 0.0
H73 H 0.51133 0.96744 0.93444 0.0
H74 H 0.49805 0.99934 0.04351 0.0
H75 H 0.55654 0.0609 0.02937 0.0
H76 H 0.59015 0.15175 0.94716 0.0
H77 H 0.50801 0.02249 0.91999 0.0
C78 C 0.46725 0.90524 0.00635 0.0
C79 C 0.47454 0.9348 0.03249 0.0
C80 C 0.47982 0.91714 0.97114 0.0
C81 C 0.50029 0.95915 0.96166 0.0
C82 C 0.50714 0.98996 0.98724 0.0
C83 C 0.49383 0.97705 0.02303 0.0
C84 C 0.52876 0.03505 0.97643 0.0
C85 C 0.55302 0.06766 0.00173 0.0
C86 C 0.57438 0.10952 0.9911 0.0
C87 C 0.57264 0.11932 0.95533 0.0
C88 C 0.54948 0.08801 0.9298 0.0
C89 C 0.52679 0.04608 0.94024 0.0
H90 H 0.45236 0.59374 0.10335 0.0
H91 H 0.51068 0.55664 0.18427 0.0
H92 H 0.49639 0.51168 0.07459 0.0
H93 H 0.55506 0.5098 0.08969 0.0
H94 H 0.58889 0.45048 0.17075 0.0
H95 H 0.50795 0.49825 0.19806 0.0
C96 C 0.46718 0.57593 0.111 0.0
C97 C 0.47411 0.5535 0.08505 0.0
C98 C 0.47958 0.57611 0.14664 0.0
C99 C 0.49965 0.5542 0.15668 0.0
C100 C 0.50614 0.53029 0.13115 0.0
C101 C 0.49268 0.52997 0.09503 0.0
C102 C 0.52794 0.50702 0.14214 0.0
C103 C 0.55182 0.49913 0.11706 0.0
C104 C 0.57272 0.47805 0.12737 0.0
C105 C 0.57167 0.46599 0.16283 0.0
C106 C 0.54912 0.47407 0.18829 0.0
C107 C 0.5264 0.49359 0.178 0.0
C108 C 0.61715 0.29538 0.40734 0.0
O109 O 0.6542 0.32019 0.4243 0.0
O110 O 0.69216 0.39407 0.37389 0.0
Zn111 Zn 0.62909 0.37275 0.38568 0.0
O112 O 0.62147 0.3953 0.43302 0.0
C113 C 0.61898 0.41824 0.32709 0.0
O114 O 0.66124 0.44324 0.33105 0.0
O115 O 0.59895 0.31057 0.38882 0.0
C116 C 0.62086 0.42885 0.43353 0.0
O117 O 0.6286 0.45056 0.40415 0.0
C118 C 0.72437 0.42747 0.38669 0.0
O119 O 0.71799 0.45131 0.40815 0.0
O120 O 0.59889 0.38614 0.34648 0.0
C121 C 0.34299 0.73113 0.54491 0.0
O122 O 0.35523 0.71009 0.52542 0.0
O123 O 0.31955 0.63112 0.57219 0.0
Zn124 Zn 0.27647 0.64979 0.56282 0.0
O125 O 0.24471 0.63046 0.51465 0.0
C126 C 0.2187 0.59683 0.61809 0.0
O127 O 0.23613 0.57431 0.61203 0.0
O128 O 0.30937 0.71199 0.56381 0.0
C129 C 0.20875 0.59589 0.51207 0.0
O130 O 0.19409 0.57113 0.53975 0.0
C131 C 0.31719 0.59959 0.55731 0.0
O132 O 0.28494 0.57619 0.53494 0.0
O133 O 0.23149 0.63038 0.60114 0.0
C134 C 0.61563 0.33314 0.70946 0.0
O135 O 0.65126 0.34299 0.69239 0.0
O136 O 0.6891 0.30475 0.74382 0.0
Zn137 Zn 0.62489 0.26586 0.73256 0.0
O138 O 0.61453 0.23462 0.68534 0.0
C139 C 0.61596 0.21016 0.79055 0.0
O140 O 0.6577 0.22583 0.78594 0.0
O141 O 0.59749 0.30079 0.72876 0.0
C142 C 0.61423 0.20064 0.68463 0.0
O143 O 0.6229 0.18691 0.71399 0.0
C144 C 0.71862 0.30102 0.72947 0.0
O145 O 0.70826 0.27035 0.70691 0.0
O146 O 0.59563 0.22317 0.77185 0.0
C147 C 0.41335 0.7323 0.90558 0.0
O148 O 0.37715 0.70628 0.92184 0.0
O149 O 0.34102 0.63086 0.87124 0.0
Zn150 Zn 0.40522 0.65617 0.88272 0.0
O151 O 0.41541 0.63491 0.92987 0.0
C152 C 0.41474 0.61024 0.82439 0.0
O153 O 0.37296 0.58414 0.82875 0.0
O154 O 0.43229 0.7184 0.88691 0.0
C155 C 0.41562 0.60118 0.93054 0.0
O156 O 0.407 0.5789 0.90114 0.0
C157 C 0.31147 0.59762 0.88554 0.0
O158 O 0.3218 0.57725 0.90809 0.0
O159 O 0.43491 0.6433 0.84339 0.0
C160 C 0.68603 0.40216 0.07093 0.0
O161 O 0.67476 0.36935 0.09079 0.0
O162 O 0.70968 0.32598 0.04293 0.0
Zn163 Zn 0.75247 0.38771 0.05238 0.0
O164 O 0.78405 0.40044 0.10064 0.0
C165 C 0.81064 0.3926 -0.00243 0.0
O166 O 0.7933 0.35273 0.00392 0.0
O167 O 0.71911 0.41657 0.05138 0.0
C168 C 0.82022 0.40223 0.10343 0.0
O169 O 0.83512 0.39206 0.07596 0.0
C170 C 0.71183 0.29683 0.05809 0.0
O171 O 0.74371 0.30566 0.08091 0.0
O172 O 0.79763 0.4134 0.01417 0.0
C173 C 0.41081 0.69202 0.20876 0.0
O174 O 0.37375 0.68005 0.1919 0.0
O175 O 0.33671 0.7175 0.24158 0.0
Zn176 Zn 0.40012 0.75849 0.23012 0.0
O177 O 0.40866 0.78922 0.18291 0.0
C178 C 0.4105 0.81392 0.28887 0.0
O179 O 0.36833 0.79713 0.28463 0.0
O180 O 0.42944 0.72557 0.22704 0.0
C181 C 0.40944 0.82346 0.18241 0.0
O182 O 0.4013 0.83724 0.2117 0.0
C183 C 0.30483 0.71923 0.22866 0.0
O184 O 0.31173 0.74955 0.2071 0.0
O185 O 0.4305 0.8017 0.26958 0.0
C186 C 0.18258 0.63352 0.25906 0.0
C187 C 0.14914 0.61052 0.27418 0.0
C188 C 0.22455 0.66245 0.24653 0.0
C189 C 0.26115 0.68841 0.23832 0.0
C190 C 0.56626 0.17377 0.42764 0.0
C191 C 0.55637 0.14223 0.44339 0.0
C192 C 0.58143 0.21465 0.41621 0.0
C193 C 0.59638 0.25122 0.41127 0.0
C194 C 0.40552 0.56763 0.5844 0.0
C195 C 0.42897 0.55778 0.599 0.0
C196 C 0.37586 0.57946 0.57296 0.0
C197 C 0.34912 0.58871 0.56586 0.0
C198 C 0.84435 0.37976 0.75892 0.0
C199 C 0.87874 0.40106 0.77437 0.0
C200 C 0.80118 0.35337 0.74652 0.0
C201 C 0.76343 0.32955 0.73882 0.0
C202 C 0.46121 0.85344 0.92935 0.0
C203 C 0.47151 0.88518 0.9454 0.0
C204 C 0.44655 0.81268 0.91697 0.0
C205 C 0.43273 0.77634 0.91092 0.0
C206 C 0.61687 0.45658 0.08724 0.0
C207 C 0.5959 0.46837 0.10222 0.0
C208 C 0.64168 0.43941 0.07706 0.0
C209 C 0.66286 0.42342 0.07339 0.0
C210 C 0.41163 0.85469 0.52921 0.0
C211 C 0.43271 0.88736 0.51415 0.0
C212 C 0.3868 0.81272 0.53932 0.0
C213 C 0.36579 0.77554 0.54277 0.0
C214 C 0.56713 0.40608 0.6862 0.0
C215 C 0.55699 0.42771 0.67022 0.0
C216 C 0.58189 0.37997 0.69843 0.0
C217 C 0.59595 0.3576 0.70438 0.0
C218 C 0.18574 0.55141 0.85642 0.0
C219 C 0.15125 0.53833 0.84114 0.0
C220 C 0.22895 0.56796 0.86866 0.0
C221 C 0.26667 0.58159 0.87631 0.0
C222 C 0.62361 0.17687 0.03034 0.0
C223 C 0.60029 0.1436 0.01571 0.0
C224 C 0.65326 0.21822 0.042 0.0
C225 C 0.68003 0.25407 0.04939 0.0
C226 C 0.46124 0.62087 0.18819 0.0
C227 C 0.47145 0.59953 0.17233 0.0
C228 C 0.44602 0.64652 0.19977 0.0
C229 C 0.43128 0.66834 0.20473 0.0
C230 C 0.84669 0.46374 0.35671 0.0
C231 C 0.88027 0.4748 0.34157 0.0
C232 C 0.80455 0.45032 0.36903 0.0
C233 C 0.76788 0.43972 0.37699 0.0
C234 C 0.13032 0.56569 0.42362 0.0
C235 C 0.11063 0.56023 0.39562 0.0
C236 C 0.15781 0.57587 0.45431 0.0
C237 C 0.18165 0.58569 0.48037 0.0
C238 C 0.57802 0.12724 0.59546 0.0
C239 C 0.56641 0.10835 0.56728 0.0
C240 C 0.59131 0.15321 0.62633 0.0
C241 C 0.60165 0.17554 0.65251 0.0
C242 C 0.47071 0.57637 0.74926 0.0
C243 C 0.47851 0.56473 0.72177 0.0
C244 C 0.45496 0.58984 0.77745 0.0
C245 C 0.43786 0.60031 0.79914 0.0
C246 C 0.90519 0.44273 0.92409 0.0
C247 C 0.92489 0.44928 0.89672 0.0
C248 C 0.87473 0.42861 0.95182 0.0
C249 C 0.84554 0.41303 0.97285 0.0
C250 C 0.44981 0.90015 0.09609 0.0
C251 C 0.46239 0.92007 0.06877 0.0
C252 C 0.43499 0.87279 0.12578 0.0
C253 C 0.42345 0.84948 0.15109 0.0
C254 C 0.56037 0.45178 0.25239 0.0
C255 C 0.55192 0.46339 0.22497 0.0
C256 C 0.57719 0.43859 0.28045 0.0
C257 C 0.59521 0.42835 0.30199 0.0
C258 C 0.46881 0.90552 0.36397 0.0
C259 C 0.47713 0.92562 0.39134 0.0
C260 C 0.45219 0.87563 0.33585 0.0
C261 C 0.43429 0.84756 0.31415 0.0
C262 C 0.58086 0.46548 0.51983 0.0
C263 C 0.56795 0.47269 0.54701 0.0
C264 C 0.59577 0.45291 0.49023 0.0
C265 C 0.60709 0.44098 0.4649 0.0
C266 C 0.12426 0.55344 0.69163 0.0
C267 C 0.10454 0.54036 0.71901 0.0
C268 C 0.15473 0.56942 0.66391 0.0
C269 C 0.18387 0.58266 0.64285 0.0
C270 C 0.55987 0.11994 0.86535 0.0
C271 C 0.55177 0.10053 0.89288 0.0
C272 C 0.57586 0.14924 0.83723 0.0
C273 C 0.59301 0.17697 0.81568 0.0
C274 C 0.45139 0.56384 0.02001 0.0
C275 C 0.46287 0.55657 0.04829 0.0
C276 C 0.43823 0.57647 0.98898 0.0
C277 C 0.42802 0.58848 0.9627 0.0
C278 C 0.89903 0.45217 0.19144 0.0
C279 C 0.91884 0.46618 0.21942 0.0
C280 C 0.87135 0.43448 0.16091 0.0
C281 C 0.84737 0.41987 0.135 0.0
loop_
_geom_bond_atom_site_label_1
_geom_bond_atom_site_label_2
_geom_bond_distance
_geom_bond_site_symmetry_2
_ccdc_geom_bond_type
H0 C6 0.930 . S
H1 C9 0.931 . S
H2 C11 0.931 . S
H3 C13 0.930 . S
H4 C15 0.930 . S
H5 C17 0.931 . S
C6 H0 0.930 . S
C6 C7 1.380 . S
C6 C8 1.394 . S
C7 C6 1.380 . S
C7 C11 1.382 . S
C8 C6 1.394 . S
C8 C9 1.400 . S
C9 H1 0.931 . S
C9 C8 1.400 . S
C9 C10 1.375 . S
C10 C9 1.375 . S
C10 C11 1.415 . S
C10 C12 1.501 1_455 S
C11 H2 0.931 . S
C11 C7 1.382 . S
C11 C10 1.415 . S
C12 C10 1.501 1_655 S
C12 C13 1.384 . S
C12 C17 1.408 . S
C13 H3 0.930 . S
C13 C12 1.384 . S
C13 C14 1.389 . S
C14 C13 1.389 . S
C14 C15 1.405 . S
C15 H4 0.930 . S
C15 C14 1.405 . S
C15 C16 1.364 . S
C16 C15 1.364 . S
C16 C17 1.400 . S
C17 H5 0.931 . S
C17 C12 1.408 . S
C17 C16 1.400 . S
H18 C24 0.930 . S
H19 C27 0.931 . S
H20 C29 0.931 . S
H21 C31 0.930 . S
H22 C33 0.930 . S
H23 C35 0.931 . S
C24 H18 0.930 . S
C24 C25 1.380 . S
C24 C26 1.394 . S
C25 C24 1.380 . S
C25 C29 1.382 . S
C26 C24 1.394 . S
C26 C27 1.400 . S
C27 H19 0.931 . S
C27 C26 1.400 . S
C27 C28 1.375 . S
C28 C27 1.375 . S
C28 C29 1.415 . S
C28 C30 1.501 1_545 S
C29 H20 0.931 . S
C29 C25 1.382 . S
C29 C28 1.415 . S
C30 C28 1.501 1_565 S
C30 C31 1.384 . S
C30 C35 1.408 . S
C31 H21 0.930 . S
C31 C30 1.384 . S
C31 C32 1.389 . S
C32 C31 1.389 . S
C32 C33 1.405 . S
C33 H22 0.930 . S
C33 C32 1.405 . S
C33 C34 1.364 . S
C34 C33 1.364 . S
C34 C35 1.400 . S
C35 H23 0.931 . S
C35 C30 1.408 . S
C35 C34 1.400 . S
H36 C42 0.930 . S
H37 C45 0.931 . S
H38 C47 0.931 . S
H39 C49 0.930 . S
H40 C51 0.930 . S
H41 C53 0.931 . S
C42 H36 0.930 . S
C42 C43 1.380 . S
C42 C44 1.394 . S
C43 C42 1.380 . S
C43 C47 1.382 . S
C44 C42 1.394 . S
C44 C45 1.400 . S
C45 H37 0.931 . S
C45 C44 1.400 . S
C45 C46 1.375 . S
C46 C45 1.375 . S
C46 C47 1.415 . S
C46 C48 1.501 . S
C47 H38 0.931 . S
C47 C43 1.382 . S
C47 C46 1.415 . S
C48 C46 1.501 . S
C48 C49 1.384 . S
C48 C53 1.408 . S
C49 H39 0.930 . S
C49 C48 1.384 . S
C49 C50 1.389 . S
C50 C49 1.389 . S
C50 C51 1.405 . S
C51 H40 0.930 . S
C51 C50 1.405 . S
C51 C52 1.364 . S
C52 C51 1.364 . S
C52 C53 1.400 . S
C53 H41 0.931 . S
C53 C48 1.408 . S
C53 C52 1.400 . S
H54 C60 0.930 . S
H55 C63 0.931 . S
H56 C65 0.931 . S
H57 C67 0.930 . S
H58 C69 0.930 . S
H59 C71 0.931 . S
C60 H54 0.930 . S
C60 C61 1.380 . S
C60 C62 1.394 . S
C61 C60 1.380 . S
C61 C65 1.382 . S
C62 C60 1.394 . S
C62 C63 1.400 . S
C63 H55 0.931 . S
C63 C62 1.400 . S
C63 C64 1.375 . S
C64 C63 1.375 . S
C64 C65 1.415 . S
C64 C66 1.501 1_455 S
C65 H56 0.931 . S
C65 C61 1.382 . S
C65 C64 1.415 . S
C66 C64 1.501 1_655 S
C66 C67 1.384 . S
C66 C71 1.408 . S
C67 H57 0.930 . S
C67 C66 1.384 . S
C67 C68 1.389 . S
C68 C67 1.389 . S
C68 C69 1.405 . S
C69 H58 0.930 . S
C69 C68 1.405 . S
C69 C70 1.364 . S
C70 C69 1.364 . S
C70 C71 1.400 . S
C71 H59 0.931 . S
C71 C66 1.408 . S
C71 C70 1.400 . S
H72 C78 0.930 . S
H73 C81 0.931 . S
H74 C83 0.931 . S
H75 C85 0.930 . S
H76 C87 0.930 . S
H77 C89 0.931 . S
C78 H72 0.930 . S
C78 C79 1.380 . S
C78 C80 1.394 1_554 S
C79 C78 1.380 . S
C79 C83 1.382 . S
C80 C78 1.394 1_556 S
C80 C81 1.400 . S
C81 H73 0.931 . S
C81 C80 1.400 . S
C81 C82 1.375 . S
C82 C81 1.375 . S
C82 C83 1.415 1_556 S
C82 C84 1.501 1_565 S
C83 H74 0.931 . S
C83 C79 1.382 . S
C83 C82 1.415 1_554 S
C84 C82 1.501 1_545 S
C84 C85 1.384 1_556 S
C84 C89 1.408 . S
C85 H75 0.930 . S
C85 C84 1.384 1_554 S
C85 C86 1.380 1_554 S
C86 C85 1.380 1_556 S
C86 C87 1.437 . S
C87 H76 0.930 . S
C87 C86 1.437 . S
C87 C88 1.364 . S
C88 C87 1.364 . S
C88 C89 1.400 . S
C89 H77 0.931 . S
C89 C84 1.408 . S
C89 C88 1.400 . S
H90 C96 0.930 . S
H91 C99 0.931 . S
H92 C101 0.931 . S
H93 C103 0.930 . S
H94 C105 0.930 . S
H95 C107 0.931 . S
C96 H90 0.930 . S
C96 C97 1.380 . S
C96 C98 1.394 . S
C97 C96 1.380 . S
C97 C101 1.382 . S
C98 C96 1.394 . S
C98 C99 1.400 . S
C99 H91 0.931 . S
C99 C98 1.400 . S
C99 C100 1.375 . S
C100 C99 1.375 . S
C100 C101 1.415 . S
C100 C102 1.501 . S
C101 H92 0.931 . S
C101 C97 1.382 . S
C101 C100 1.415 . S
C102 C100 1.501 . S
C102 C103 1.384 . S
C102 C107 1.408 . S
C103 H93 0.930 . S
C103 C102 1.384 . S
C103 C104 1.389 . S
C104 C103 1.389 . S
C104 C105 1.405 . S
C105 H94 0.930 . S
C105 C104 1.405 . S
C105 C106 1.364 . S
C106 C105 1.364 . S
C106 C107 1.400 . S
C107 H95 0.931 . S
C107 C102 1.408 . S
C107 C106 1.400 . S
C108 O109 1.160 . S
C108 O115 1.185 . S
O109 C108 1.160 . S
O110 Zn111 1.899 . S
O110 C118 1.284 . S
Zn111 O110 1.899 . S
Zn111 O112 2.032 . S
Zn111 O115 2.086 . S
Zn111 O120 1.977 . S
O112 Zn111 2.032 . S
O112 C116 1.278 . S
C113 O114 1.203 . S
C113 O120 1.267 . S
O114 C113 1.203 . S
O115 C108 1.185 . S
O115 Zn111 2.086 . S
C116 O112 1.278 . S
C116 O117 1.211 . S
O117 C116 1.211 . S
C118 O110 1.284 . S
C118 O119 1.273 . S
O119 C118 1.273 . S
O120 Zn111 1.977 . S
O120 C113 1.267 . S
C121 O122 1.160 . S
C121 O128 1.185 . S
O122 C121 1.160 . S
O123 Zn124 1.899 . S
O123 C131 1.284 . S
Zn124 O123 1.899 . S
Zn124 O125 2.032 . S
Zn124 O128 2.086 . S
Zn124 O133 1.977 . S
O125 Zn124 2.032 . S
O125 C129 1.278 . S
C126 O127 1.203 . S
C126 O133 1.267 . S
O127 C126 1.203 . S
O128 C121 1.185 . S
O128 Zn124 2.086 . S
C129 O125 1.278 . S
C129 O130 1.211 . S
O130 C129 1.211 . S
C131 O123 1.284 . S
C131 O132 1.273 . S
O132 C131 1.273 . S
O133 Zn124 1.977 . S
O133 C126 1.267 . S
C134 O135 1.160 . S
C134 O141 1.185 . S
O135 C134 1.160 . S
O136 Zn137 1.899 . S
O136 C144 1.284 . S
Zn137 O136 1.899 . S
Zn137 O138 2.032 . S
Zn137 O141 2.086 . S
Zn137 O146 1.977 . S
O138 Zn137 2.032 . S
O138 C142 1.278 . S
C139 O140 1.203 . S
C139 O146 1.267 . S
O140 C139 1.203 . S
O141 C134 1.185 . S
O141 Zn137 2.086 . S
C142 O138 1.278 . S
C142 O143 1.211 . S
O143 C142 1.211 . S
C144 O136 1.284 . S
C144 O145 1.273 . S
O145 C144 1.273 . S
O146 Zn137 1.977 . S
O146 C139 1.267 . S
C147 O148 1.160 . S
C147 O154 1.185 . S
O148 C147 1.160 . S
O149 Zn150 1.899 . S
O149 C157 1.284 . S
Zn150 O149 1.899 . S
Zn150 O151 2.032 . S
Zn150 O154 2.086 . S
Zn150 O159 1.977 . S
O151 Zn150 2.032 . S
O151 C155 1.278 . S
C152 O153 1.203 . S
C152 O159 1.267 . S
O153 C152 1.203 . S
O154 C147 1.185 . S
O154 Zn150 2.086 . S
C155 O151 1.278 . S
C155 O156 1.211 . S
O156 C155 1.211 . S
C157 O149 1.284 . S
C157 O158 1.273 . S
O158 C157 1.273 . S
O159 Zn150 1.977 . S
O159 C152 1.267 . S
C160 O161 1.160 . S
C160 O167 1.185 . S
O161 C160 1.160 . S
O162 Zn163 1.899 . S
O162 C170 1.284 . S
Zn163 O162 1.899 . S
Zn163 O164 2.032 . S
Zn163 O167 2.086 . S
Zn163 O172 1.977 . S
O164 Zn163 2.032 . S
O164 C168 1.278 . S
C165 O166 1.203 . S
C165 O172 1.267 . S
O166 C165 1.203 . S
O167 C160 1.185 . S
O167 Zn163 2.086 . S
C168 O164 1.278 . S
C168 O169 1.211 . S
O169 C168 1.211 . S
C170 O162 1.284 . S
C170 O171 1.273 . S
O171 C170 1.273 . S
O172 Zn163 1.977 . S
O172 C165 1.267 . S
C173 O174 1.160 . S
C173 O180 1.185 . S
O174 C173 1.160 . S
O175 Zn176 1.899 . S
O175 C183 1.284 . S
Zn176 O175 1.899 . S
Zn176 O177 2.032 . S
Zn176 O180 2.086 . S
Zn176 O185 1.977 . S
O177 Zn176 2.032 . S
O177 C181 1.278 . S
C178 O179 1.203 . S
C178 O185 1.267 . S
O179 C178 1.203 . S
O180 C173 1.185 . S
O180 Zn176 2.086 . S
C181 O177 1.278 . S
C181 O182 1.211 . S
O182 C181 1.211 . S
C183 O175 1.284 . S
C183 O184 1.273 . S
O184 C183 1.273 . S
O185 Zn176 1.977 . S
O185 C178 1.267 . S
C186 C187 1.170 . S
C186 C188 1.380 . S
C187 C186 1.170 . S
C188 C186 1.380 . S
C188 C189 1.170 . S
C189 C188 1.170 . S
C190 C191 1.170 . S
C190 C192 1.380 . S
C191 C190 1.170 . S
C192 C190 1.380 . S
C192 C193 1.170 . S
C193 C192 1.170 . S
C194 C195 1.170 . S
C194 C196 1.380 . S
C195 C194 1.170 . S
C196 C194 1.380 . S
C196 C197 1.170 . S
C197 C196 1.170 . S
C198 C199 1.170 . S
C198 C200 1.380 . S
C199 C198 1.170 . S
C200 C198 1.380 . S
C200 C201 1.170 . S
C201 C200 1.170 . S
C202 C203 1.170 . S
C202 C204 1.380 . S
C203 C202 1.170 . S
C204 C202 1.380 . S
C204 C205 1.170 . S
C205 C204 1.170 . S
C206 C207 1.170 . S
C206 C208 1.380 . S
C207 C206 1.170 . S
C208 C206 1.380 . S
C208 C209 1.170 . S
C209 C208 1.170 . S
C210 C211 1.170 . S
C210 C212 1.380 . S
C211 C210 1.170 . S
C212 C210 1.380 . S
C212 C213 1.170 . S
C213 C212 1.170 . S
C214 C215 1.170 . S
C214 C216 1.380 . S
C215 C214 1.170 . S
C216 C214 1.380 . S
C216 C217 1.170 . S
C217 C216 1.170 . S
C218 C219 1.170 . S
C218 C220 1.380 . S
C219 C218 1.170 . S
C220 C218 1.380 . S
C220 C221 1.170 . S
C221 C220 1.170 . S
C222 C223 1.170 . S
C222 C224 1.380 . S
C223 C222 1.170 . S
C224 C222 1.380 . S
C224 C225 1.170 . S
C225 C224 1.170 . S
C226 C227 1.170 . S
C226 C228 1.380 . S
C227 C226 1.170 . S
C228 C226 1.380 . S
C228 C229 1.170 . S
C229 C228 1.170 . S
C230 C231 1.170 . S
C230 C232 1.380 . S
C231 C230 1.170 . S
C232 C230 1.380 . S
C232 C233 1.170 . S
C233 C232 1.170 . S
C234 C235 1.170 . S
C234 C236 1.380 . S
C235 C234 1.170 . S
C236 C234 1.380 . S
C236 C237 1.170 . S
C237 C236 1.170 . S
C238 C239 1.170 . S
C238 C240 1.380 . S
C239 C238 1.170 . S
C240 C238 1.380 . S
C240 C241 1.170 . S
C241 C240 1.170 . S
C242 C243 1.170 . S
C242 C244 1.380 . S
C243 C242 1.170 . S
C244 C242 1.380 . S
C244 C245 1.170 . S
C245 C244 1.170 . S
C246 C247 1.170 . S
C246 C248 1.380 . S
C247 C246 1.170 . S
C248 C246 1.380 . S
C248 C249 1.170 . S
C249 C248 1.170 . S
C250 C251 1.170 . S
C250 C252 1.380 . S
C251 C250 1.170 . S
C252 C250 1.380 . S
C252 C253 1.170 . S
C253 C252 1.170 . S
C254 C255 1.170 . S
C254 C256 1.380 . S
C255 C254 1.170 . S
C256 C254 1.380 . S
C256 C257 1.170 . S
C257 C256 1.170 . S
C258 C259 1.170 . S
C258 C260 1.380 . S
C259 C258 1.170 . S
C260 C258 1.380 . S
C260 C261 1.170 . S
C261 C260 1.170 . S
C262 C263 1.170 . S
C262 C264 1.380 . S
C263 C262 1.170 . S
C264 C262 1.380 . S
C264 C265 1.170 . S
C265 C264 1.170 . S
C266 C267 1.170 . S
C266 C268 1.380 . S
C267 C266 1.170 . S
C268 C266 1.380 . S
C268 C269 1.170 . S
C269 C268 1.170 . S
C270 C271 1.170 . S
C270 C272 1.380 . S
C271 C270 1.170 . S
C272 C270 1.380 . S
C272 C273 1.170 . S
C273 C272 1.170 . S
C274 C275 1.170 . S
C274 C276 1.380 . S
C275 C274 1.170 . S
C276 C274 1.380 . S
C276 C277 1.170 1_554 S
C277 C276 1.170 1_556 S
C278 C279 1.170 . S
C278 C280 1.380 . S
C279 C278 1.170 . S
C280 C278 1.380 . S
C280 C281 1.170 . S
C281 C280 1.170 . S
C189 C183 1.565 . S
C187 C8 1.508 . S
C191 C26 1.479 . S
C193 C108 1.493 . S
C195 C50 1.523 . S
C197 C131 1.582 . S
C199 C68 1.458 . S
C201 C144 1.480 . S
C205 C147 1.479 . S
C203 C80 1.535 . S
C207 C104 1.428 . S
C209 C160 1.441 . S
C211 C32 1.451 . S
C213 C121 1.454 . S
C215 C44 1.510 . S
C217 C134 1.499 . S
C219 C62 1.451 . S
C221 C157 1.480 . S
C225 C170 1.577 . S
C223 C86 1.501 1_554 S
C229 C173 1.461 . S
C227 C98 1.511 . S
C233 C118 1.567 . S
C231 C14 1.524 . S
C235 C7 1.484 . S
C237 C129 1.449 . S
C239 C25 1.450 . S
C241 C142 1.443 . S
C245 C152 1.486 . S
C243 C52 1.448 . S
C247 C70 1.453 . S
C249 C165 1.457 1_556 S
C253 C181 1.453 . S
C251 C79 1.487 . S
C257 C113 1.463 . S
C255 C106 1.419 . S
C261 C178 1.462 . S
C259 C34 1.415 . S
C263 C43 1.445 . S
C265 C116 1.493 . S
C269 C126 1.469 . S
C267 C61 1.429 . S
C271 C88 1.478 . S
C273 C139 1.460 . S
C275 C97 1.458 . S
C277 C155 1.429 . S
C279 C16 1.477 . S
C281 C168 1.466 . S
