# Generated by pormake.
# Topology pyr, (3,6)-cn, num edge types: 1
# Building blocks:
#     Node 0, Type 0, BuildingBlock: MIDCAF_clean_linker_0, # of connection points: 3
#     Node 1, Type 0, BuildingBlock: MIDCAF_clean_linker_0, # of connection points: 3
#     Node 2, Type 0, BuildingBlock: MIDCAF_clean_linker_0, # of connection points: 3
#     Node 3, Type 0, BuildingBlock: MIDCAF_clean_linker_0, # of connection points: 3
#     Node 4, Type 0, BuildingBlock: MIDCAF_clean_linker_0, # of connection points: 3
#     Node 5, Type 0, BuildingBlock: MIDCAF_clean_linker_0, # of connection points: 3
#     Node 6, Type 0, BuildingBlock: MIDCAF_clean_linker_0, # of connection points: 3
#     Node 7, Type 0, BuildingBlock: MIDCAF_clean_linker_0, # of connection points: 3
#     Node 8, Type 1, BuildingBlock: GEDQOX_clean_sbu_0, # of connection points: 6
#     Node 9, Type 1, BuildingBlock: GEDQOX_clean_sbu_0, # of connection points: 6
#     Node 10, Type 1, BuildingBlock: GEDQOX_clean_sbu_0, # of connection points: 6
#     Node 11, Type 1, BuildingBlock: GEDQOX_clean_sbu_0, # of connection points: 6
#     Edge 12, Type (0, 1), BuildingBlock: EZIPEK_clean_linker_0, # of connection points: 2
#     Edge 13, Type (0, 1), BuildingBlock: EZIPEK_clean_linker_0, # of connection points: 2
#     Edge 14, Type (0, 1), BuildingBlock: EZIPEK_clean_linker_0, # of connection points: 2
#     Edge 15, Type (0, 1), BuildingBlock: EZIPEK_clean_linker_0, # of connection points: 2
#     Edge 16, Type (0, 1), BuildingBlock: EZIPEK_clean_linker_0, # of connection points: 2
#     Edge 17, Type (0, 1), BuildingBlock: EZIPEK_clean_linker_0, # of connection points: 2
#     Edge 18, Type (0, 1), BuildingBlock: EZIPEK_clean_linker_0, # of connection points: 2
#     Edge 19, Type (0, 1), BuildingBlock: EZIPEK_clean_linker_0, # of connection points: 2
#     Edge 20, Type (0, 1), BuildingBlock: EZIPEK_clean_linker_0, # of connection points: 2
#     Edge 21, Type (0, 1), BuildingBlock: EZIPEK_clean_linker_0, # of connection points: 2
#     Edge 22, Type (0, 1), BuildingBlock: EZIPEK_clean_linker_0, # of connection points: 2
#     Edge 23, Type (0, 1), BuildingBlock: EZIPEK_clean_linker_0, # of connection points: 2
#     Edge 24, Type (0, 1), BuildingBlock: EZIPEK_clean_linker_0, # of connection points: 2
#     Edge 25, Type (0, 1), BuildingBlock: EZIPEK_clean_linker_0, # of connection points: 2
#     Edge 26, Type (0, 1), BuildingBlock: EZIPEK_clean_linker_0, # of connection points: 2
#     Edge 27, Type (0, 1), BuildingBlock: EZIPEK_clean_linker_0, # of connection points: 2
#     Edge 28, Type (0, 1), BuildingBlock: EZIPEK_clean_linker_0, # of connection points: 2
#     Edge 29, Type (0, 1), BuildingBlock: EZIPEK_clean_linker_0, # of connection points: 2
#     Edge 30, Type (0, 1), BuildingBlock: EZIPEK_clean_linker_0, # of connection points: 2
#     Edge 31, Type (0, 1), BuildingBlock: EZIPEK_clean_linker_0, # of connection points: 2
#     Edge 32, Type (0, 1), BuildingBlock: EZIPEK_clean_linker_0, # of connection points: 2
#     Edge 33, Type (0, 1), BuildingBlock: EZIPEK_clean_linker_0, # of connection points: 2
#     Edge 34, Type (0, 1), BuildingBlock: EZIPEK_clean_linker_0, # of connection points: 2
#     Edge 35, Type (0, 1), BuildingBlock: EZIPEK_clean_linker_0, # of connection points: 2
# Relax obj value: 0.137
# Max RMSD: 0.167
# Mean RMSD: 0.067
data_MOF--net-pyr--node1-GEDQOX_clean_sbu_0--node2-MIDCAF_clean_linker_0--edge1-EZIPEK_clean_linker_0
_symmetry_space_group_name_H-M    P1
_symmetry_Int_Tables_number       1
_symmetry_cell_setting            triclinic
loop_
_symmetry_equiv_pos_as_xyz
'x, y, z'
_cell_length_a     37.763533
_cell_length_b     38.390011
_cell_length_c     33.165947
_cell_angle_alpha  86.565323
_cell_angle_beta   89.653854
_cell_angle_gamma 83.281481
loop_
_atom_site_label
_atom_site_type_symbol
_atom_site_fract_x
_atom_site_fract_y
_atom_site_fract_z
_atom_type_partial_charge
C0 C 0.12669 0.14131 0.29523 0.0
C1 C 0.14077 0.10764 0.31053 0.0
C2 C 0.17082 0.09077 0.29139 0.0
C3 C 0.18659 0.10735 0.25792 0.0
H4 H 0.27194 0.09499 0.17673 0.0
H5 H 0.32921 0.06893 0.15062 0.0
H6 H 0.33824 0.16337 0.07647 0.0
H7 H 0.28071 0.18975 0.10206 0.0
H8 H 0.2083 0.24856 0.09222 0.0
H9 H 0.17956 0.30599 0.06578 0.0
H10 H 0.10238 0.306 0.16185 0.0
H11 H 0.1306 0.24865 0.18841 0.0
H12 H 0.13063 0.18385 0.25112 0.0
H13 H 0.10367 0.155 0.3095 0.0
H14 H 0.18235 0.06489 0.30267 0.0
H15 H 0.20983 0.09355 0.24423 0.0
N16 N 0.22074 0.14468 0.19069 0.0
N17 N 0.22072 0.19311 0.14364 0.0
N18 N 0.17453 0.19126 0.19132 0.0
C19 C 0.23659 0.16123 0.15897 0.0
C20 C 0.18958 0.20838 0.15953 0.0
C21 C 0.18972 0.15943 0.20718 0.0
C22 C 0.27128 0.14474 0.14178 0.0
C23 C 0.28582 0.11033 0.15467 0.0
C24 C 0.31866 0.0952 0.1396 0.0
C25 C 0.33816 0.11398 0.11131 0.0
C26 C 0.32372 0.14816 0.09802 0.0
C27 C 0.2907 0.16327 0.11285 0.0
C28 C 0.17203 0.24354 0.1427 0.0
C29 C 0.18517 0.2606 0.1078 0.0
C30 C 0.16864 0.29354 0.09247 0.0
C31 C 0.1386 0.31054 0.11163 0.0
C32 C 0.12536 0.29357 0.14632 0.0
C33 C 0.14171 0.26061 0.16154 0.0
C34 C 0.17268 0.14126 0.24255 0.0
C35 C 0.1423 0.15783 0.26172 0.0
C36 C 0.27621 0.82106 0.74977 0.0
C37 C 0.26574 0.79796 0.72215 0.0
C38 C 0.28569 0.7652 0.71869 0.0
C39 C 0.31735 0.75665 0.74039 0.0
H40 H 0.4072 0.68768 0.74195 0.0
H41 H 0.44321 0.64989 0.69733 0.0
H42 H 0.53361 0.7057 0.71687 0.0
H43 H 0.49736 0.74452 0.76171 0.0
H44 H 0.48343 0.80064 0.83836 0.0
H45 H 0.5043 0.84564 0.87877 0.0
H46 H 0.39621 0.89383 0.89129 0.0
H47 H 0.37491 0.84924 0.85126 0.0
H48 H 0.3165 0.83179 0.7908 0.0
H49 H 0.26101 0.84654 0.75256 0.0
H50 H 0.27788 0.74716 0.69741 0.0
H51 H 0.33311 0.73183 0.73552 0.0
N52 N 0.38983 0.74935 0.76638 0.0
N53 N 0.43742 0.76922 0.79989 0.0
N54 N 0.37923 0.79797 0.80561 0.0
C55 C 0.42504 0.74603 0.77549 0.0
C56 C 0.41441 0.79506 0.81556 0.0
C57 C 0.36673 0.77512 0.7811 0.0
C58 C 0.44927 0.71949 0.755 0.0
C59 C 0.43486 0.69182 0.73733 0.0
C60 C 0.45537 0.6701 0.71182 0.0
C61 C 0.49076 0.67538 0.70355 0.0
C62 C 0.50618 0.70145 0.72295 0.0
C63 C 0.48551 0.72343 0.74862 0.0
C64 C 0.42746 0.82124 0.84135 0.0
C65 C 0.46402 0.82065 0.84984 0.0
C66 C 0.47603 0.84633 0.87289 0.0
C67 C 0.45173 0.87295 0.88785 0.0
C68 C 0.4153 0.87343 0.87996 0.0
C69 C 0.40325 0.84785 0.857 0.0
C70 C 0.32967 0.78092 0.76564 0.0
C71 C 0.30796 0.81258 0.77149 0.0
C72 C 0.71717 0.30766 0.92241 0.0
C73 C 0.68722 0.29902 0.90201 0.0
C74 C 0.67601 0.31781 0.86605 0.0
C75 C 0.69452 0.34476 0.8503 0.0
H76 H 0.67987 0.43126 0.77497 0.0
H77 H 0.65503 0.45463 0.71006 0.0
H78 H 0.75758 0.48379 0.67275 0.0
H79 H 0.78313 0.46031 0.73848 0.0
H80 H 0.83821 0.46129 0.81941 0.0
H81 H 0.89062 0.47921 0.85169 0.0
H82 H 0.87378 0.41169 0.95685 0.0
H83 H 0.82131 0.39325 0.92489 0.0
H84 H 0.75913 0.34088 0.92257 0.0
H85 H 0.72602 0.29335 0.95037 0.0
H86 H 0.65288 0.31146 0.85004 0.0
H87 H 0.68499 0.35851 0.82228 0.0
N88 N 0.73166 0.39982 0.81774 0.0
N89 N 0.77943 0.43353 0.81591 0.0
N90 N 0.7748 0.39042 0.8687 0.0
C91 C 0.74876 0.42549 0.79945 0.0
C92 C 0.79252 0.41621 0.85079 0.0
C93 C 0.74433 0.38202 0.85208 0.0
C94 C 0.73362 0.44361 0.76172 0.0
C95 C 0.69726 0.44288 0.75324 0.0
C96 C 0.68291 0.45632 0.71622 0.0
C97 C 0.70453 0.47069 0.68679 0.0
C98 C 0.74058 0.47277 0.69535 0.0
C99 C 0.75504 0.45946 0.73281 0.0
C100 C 0.82534 0.42588 0.86956 0.0
C101 C 0.84563 0.45 0.84931 0.0
C102 C 0.87568 0.46024 0.86761 0.0
C103 C 0.88598 0.44668 0.90652 0.0
C104 C 0.86624 0.42226 0.9267 0.0
C105 C 0.83625 0.41183 0.90833 0.0
C106 C 0.72484 0.35357 0.87014 0.0
C107 C 0.73597 0.33476 0.9065 0.0
C108 C 0.7229 0.83693 0.40908 0.0
C109 C 0.70795 0.8084 0.39432 0.0
C110 C 0.71168 0.80164 0.35344 0.0
C111 C 0.73265 0.82105 0.32828 0.0
H112 H 0.78311 0.81464 0.21926 0.0
H113 H 0.8064 0.76391 0.18229 0.0
H114 H 0.91377 0.78573 0.204 0.0
H115 H 0.89075 0.83656 0.2419 0.0
H116 H 0.89681 0.90797 0.29209 0.0
H117 H 0.93683 0.9405 0.32921 0.0
H118 H 0.85474 0.96378 0.41759 0.0
H119 H 0.81445 0.93169 0.381 0.0
H120 H 0.75783 0.87646 0.39672 0.0
H121 H 0.71977 0.84274 0.44055 0.0
H122 H 0.69977 0.78008 0.34143 0.0
H123 H 0.73627 0.81386 0.29731 0.0
N124 N 0.79104 0.84515 0.2857 0.0
N125 N 0.841 0.87596 0.28157 0.0
N126 N 0.79953 0.88497 0.33424 0.0
C127 C 0.8213 0.85227 0.26641 0.0
C128 C 0.82982 0.89299 0.31512 0.0
C129 C 0.77991 0.86111 0.31958 0.0
C130 C 0.83513 0.82921 0.23425 0.0
C131 C 0.81169 0.80935 0.21527 0.0
C132 C 0.82488 0.78039 0.194 0.0
C133 C 0.86168 0.77099 0.19097 0.0
C134 C 0.88522 0.79276 0.20615 0.0
C135 C 0.87201 0.82181 0.22768 0.0
C136 C 0.85249 0.91674 0.3338 0.0
C137 C 0.88695 0.92056 0.31897 0.0
C138 C 0.90985 0.93921 0.34 0.0
C139 C 0.8986 0.95435 0.37603 0.0
C140 C 0.86373 0.95227 0.38974 0.0
C141 C 0.84084 0.93373 0.3688 0.0
C142 C 0.75084 0.84735 0.34369 0.0
C143 C 0.74451 0.85618 0.38395 0.0
C144 C 0.75536 0.94662 0.91161 0.0
C145 C 0.73781 0.93 0.94356 0.0
C146 C 0.75373 0.89721 0.95983 0.0
C147 C 0.78617 0.88134 0.94433 0.0
H148 H 0.86127 0.78819 0.95471 0.0
H149 H 0.89117 0.73127 0.98163 0.0
H150 H 0.98112 0.7441 0.90402 0.0
H151 H 0.95157 0.80049 0.8767 0.0
H152 H 0.94371 0.85583 0.80271 0.0
H153 H 0.97161 0.88383 0.74441 0.0
H154 H 0.89333 0.97451 0.74894 0.0
H155 H 0.86489 0.9467 0.80727 0.0
H156 H 0.80009 0.94454 0.8713 0.0
H157 H 0.74378 0.97184 0.89838 0.0
H158 H 0.74086 0.88372 0.98442 0.0
H159 H 0.79735 0.85602 0.95762 0.0
N160 N 0.85433 0.84926 0.91106 0.0
N161 N 0.90033 0.8503 0.86307 0.0
N162 N 0.85378 0.89655 0.8623 0.0
C163 C 0.88555 0.83384 0.89548 0.0
C164 C 0.88482 0.88154 0.84612 0.0
C165 C 0.83819 0.88073 0.89475 0.0
C166 C 0.90371 0.79929 0.91322 0.0
C167 C 0.88744 0.77903 0.94336 0.0
C168 C 0.90456 0.74637 0.95887 0.0
C169 C 0.93854 0.73315 0.94495 0.0
C170 C 0.95499 0.75351 0.91534 0.0
C171 C 0.93786 0.78592 0.89965 0.0
C172 C 0.90183 0.89884 0.81016 0.0
C173 C 0.93222 0.88173 0.79149 0.0
C174 C 0.94831 0.8977 0.75795 0.0
C175 C 0.93465 0.93131 0.74213 0.0
C176 C 0.90439 0.94856 0.76052 0.0
C177 C 0.88813 0.93253 0.79398 0.0
C178 C 0.80372 0.89777 0.91198 0.0
C179 C 0.78771 0.93079 0.89605 0.0
C180 C 0.67438 0.17676 0.16861 0.0
C181 C 0.6394 0.1686 0.17436 0.0
C182 C 0.61805 0.18524 0.20408 0.0
C183 C 0.63155 0.2096 0.2278 0.0
H184 H 0.60264 0.30631 0.29163 0.0
H185 H 0.5679 0.35001 0.33218 0.0
H186 H 0.66385 0.36813 0.39324 0.0
H187 H 0.69849 0.32534 0.35365 0.0
H188 H 0.76825 0.29197 0.33542 0.0
H189 H 0.82677 0.27311 0.36433 0.0
H190 H 0.84379 0.19132 0.28038 0.0
H191 H 0.78439 0.20939 0.25148 0.0
H192 H 0.71532 0.20608 0.18788 0.0
H193 H 0.69111 0.1645 0.14554 0.0
H194 H 0.5909 0.1794 0.20879 0.0
H195 H 0.6146 0.2218 0.25072 0.0
N196 N 0.66086 0.26547 0.26971 0.0
N197 N 0.71132 0.28221 0.30059 0.0
N198 N 0.71811 0.23766 0.25534 0.0
C199 C 0.67551 0.2863 0.2953 0.0
C200 C 0.73285 0.25814 0.28096 0.0
C201 C 0.68221 0.24122 0.24937 0.0
C202 C 0.65343 0.3123 0.31911 0.0
C203 C 0.61628 0.3196 0.3137 0.0
C204 C 0.59642 0.34447 0.33677 0.0
C205 C 0.6135 0.36215 0.36554 0.0
C206 C 0.65031 0.35472 0.37115 0.0
C207 C 0.67004 0.33019 0.34825 0.0
C208 C 0.77113 0.25156 0.29178 0.0
C209 C 0.78449 0.27035 0.32238 0.0
C210 C 0.81809 0.25977 0.33891 0.0
C211 C 0.83916 0.23056 0.32487 0.0
C212 C 0.82761 0.21384 0.29167 0.0
C213 C 0.79364 0.22414 0.27536 0.0
C214 C 0.66684 0.21729 0.22265 0.0
C215 C 0.68808 0.20061 0.19276 0.0
C216 C 0.20018 0.59531 0.20166 0.0
C217 C 0.1957 0.60292 0.15997 0.0
C218 C 0.21917 0.62328 0.13909 0.0
C219 C 0.24646 0.63633 0.15977 0.0
H220 H 0.30621 0.72463 0.15697 0.0
H221 H 0.33882 0.77225 0.12846 0.0
H222 H 0.41623 0.75104 0.22437 0.0
H223 H 0.38427 0.70414 0.25311 0.0
H224 H 0.35199 0.67294 0.33706 0.0
H225 H 0.38806 0.64411 0.39263 0.0
H226 H 0.3498 0.54552 0.37052 0.0
H227 H 0.31358 0.57427 0.31374 0.0
H228 H 0.23044 0.60171 0.25447 0.0
H229 H 0.18231 0.57956 0.21821 0.0
H230 H 0.21618 0.62922 0.10686 0.0
H231 H 0.26408 0.6521 0.14286 0.0
N232 N 0.29655 0.66949 0.20621 0.0
N233 N 0.33274 0.66829 0.26329 0.0
N234 N 0.29035 0.62862 0.26097 0.0
C235 C 0.32309 0.68235 0.22604 0.0
C236 C 0.31669 0.64162 0.28107 0.0
C237 C 0.27994 0.6427 0.22356 0.0
C238 C 0.34246 0.71065 0.20746 0.0
C239 C 0.33024 0.73005 0.17186 0.0
C240 C 0.34878 0.75716 0.15552 0.0
C241 C 0.37988 0.76487 0.17438 0.0
C242 C 0.39229 0.74532 0.20945 0.0
C243 C 0.37381 0.71857 0.22586 0.0
C244 C 0.3306 0.62567 0.32038 0.0
C245 C 0.35051 0.64526 0.34442 0.0
C246 C 0.371 0.62892 0.3764 0.0
C247 C 0.37188 0.59273 0.38518 0.0
C248 C 0.34934 0.57356 0.36401 0.0
C249 C 0.32875 0.58999 0.33164 0.0
C250 C 0.25109 0.62877 0.20161 0.0
C251 C 0.22774 0.60794 0.22227 0.0
C252 C 0.18901 0.10008 0.71232 0.0
C253 C 0.17097 0.11257 0.67643 0.0
C254 C 0.17101 0.1479 0.66285 0.0
C255 C 0.19053 0.16988 0.68347 0.0
H256 H 0.1843 0.2309 0.82165 0.0
H257 H 0.17135 0.27732 0.86882 0.0
H258 H 0.28345 0.27341 0.89506 0.0
H259 H 0.2967 0.22766 0.84702 0.0
H260 H 0.32925 0.25609 0.75274 0.0
H261 H 0.3648 0.2919 0.70943 0.0
H262 H 0.32516 0.24873 0.60395 0.0
H263 H 0.28891 0.21262 0.64706 0.0
H264 H 0.22237 0.1122 0.76063 0.0
H265 H 0.18948 0.07282 0.72306 0.0
H266 H 0.1573 0.15797 0.63521 0.0
H267 H 0.19157 0.19663 0.67149 0.0
N268 N 0.22841 0.18838 0.77583 0.0
N269 N 0.2759 0.22255 0.7684 0.0
N270 N 0.25874 0.19259 0.71382 0.0
C271 C 0.25006 0.20999 0.79172 0.0
C272 C 0.28049 0.21406 0.72948 0.0
C273 C 0.2332 0.17922 0.73701 0.0
C274 C 0.24154 0.22617 0.83031 0.0
C275 C 0.20602 0.2387 0.83891 0.0
C276 C 0.19859 0.26533 0.86573 0.0
C277 C 0.22655 0.27915 0.88466 0.0
C278 C 0.26161 0.26315 0.88047 0.0
C279 C 0.26911 0.23705 0.85306 0.0
C280 C 0.30584 0.2317 0.70341 0.0
C281 C 0.32826 0.25373 0.7204 0.0
C282 C 0.34867 0.27422 0.69574 0.0
C283 C 0.34723 0.27303 0.6537 0.0
C284 C 0.32641 0.24989 0.63645 0.0
C285 C 0.30581 0.22932 0.66117 0.0
C286 C 0.20934 0.15716 0.71865 0.0
C287 C 0.20771 0.12245 0.73366 0.0
Nd288 Nd 0.06368 0.98593 0.52626 0.0
Nd289 Nd 1.02255 0.05464 0.53571 0.0
C290 C 0.08863 0.91877 0.52401 0.0
C291 C 0.10971 0.89625 0.55438 0.0
C292 C 0.1208 0.86085 0.54813 0.0
C293 C 0.1436 0.84077 0.57603 0.0
C294 C 0.15562 0.85621 0.60998 0.0
C295 C 0.14341 0.89121 0.61684 0.0
C296 C 0.12047 0.91108 0.58931 0.0
C297 C 0.10025 0.02828 0.5705 0.0
C298 C 1.00659 0.99572 0.60356 0.0
C299 C 1.00106 0.1223 0.53835 0.0
C300 C 0.9875 0.14816 0.50598 0.0
C301 C 1.00166 0.14624 0.46671 0.0
C302 C 0.98267 0.16338 0.43385 0.0
C303 C 0.94943 0.18259 0.43999 0.0
C304 C 0.93678 0.18709 0.47943 0.0
C305 C 0.95576 0.16996 0.51229 0.0
C306 C 0.98703 1.01165 0.49067 0.0
C307 C 0.07613 0.04638 0.45647 0.0
O308 O 0.05607 0.92947 0.53468 0.0
O309 O 0.10487 0.94418 0.50741 0.0
O310 O 0.11508 1.00585 0.54631 0.0
O311 O 0.06729 0.0258 0.57362 0.0
O312 O 1.02397 0.97394 0.57863 0.0
O313 O 1.00561 0.02994 0.59633 0.0
O314 O 1.03477 0.10977 0.53662 0.0
O315 O 0.9803 0.09791 0.54685 0.0
O316 O 0.97161 0.03335 0.51549 0.0
O317 O 1.01978 1.01481 0.48782 0.0
O318 O 0.05779 0.06772 0.48075 0.0
O319 O 0.07866 1.01197 0.46449 0.0
H320 H 0.11263 0.84912 0.52131 0.0
H321 H 0.15301 0.81375 0.57039 0.0
H322 H 0.15253 0.90343 0.64288 0.0
H323 H 0.11197 0.93838 0.59459 0.0
H324 H 1.02605 0.12956 0.46094 0.0
H325 H 0.99258 0.1595 0.40353 0.0
H326 H 0.91098 0.20171 0.48449 0.0
H327 H 0.94426 0.17153 0.54223 0.0
Nd328 Nd 0.54307 1.00016 0.06247 0.0
Nd329 Nd 0.53788 0.04905 0.99512 0.0
C330 C 0.54944 0.94225 0.11033 0.0
C331 C 0.52338 0.91744 0.11943 0.0
C332 C 0.53447 0.88291 0.13401 0.0
C333 C 0.50939 0.85912 0.1408 0.0
C334 C 0.47311 0.86967 0.13282 0.0
C335 C 0.4621 0.90416 0.11801 0.0
C336 C 0.48707 0.92793 0.1115 0.0
C337 C 0.48086 0.04646 0.0682 0.0
C338 C 0.50439 0.97992 0.97991 0.0
C339 C 0.531 0.10673 0.9468 0.0
C340 C 0.55166 0.13705 0.94289 0.0
C341 C 0.56306 0.15224 0.97739 0.0
C342 C 0.58543 0.1787 0.97377 0.0
C343 C 0.59654 0.19058 0.93554 0.0
C344 C 0.58473 0.17599 0.90093 0.0
C345 C 0.56245 0.14933 0.90461 0.0
C346 C 0.59855 1.00104 0.9905 0.0
C347 C 0.57774 0.06986 0.07676 0.0
O348 O 0.56099 0.94321 0.07316 0.0
O349 O 0.54129 0.97354 0.12345 0.0
O350 O 0.50124 0.03383 0.09798 0.0
O351 O 0.49281 0.03332 0.03577 0.0
O352 O 0.52289 0.96811 1.01239 0.0
O353 O 0.50058 1.01358 0.96902 0.0
O354 O 0.51267 0.10327 0.98008 0.0
O355 O 0.54765 0.07693 0.93618 0.0
O356 O 0.57695 1.01107 0.9608 0.0
O357 O 0.58788 1.0161 1.02223 0.0
O358 O 0.56234 0.08069 0.04215 0.0
O359 O 0.57841 0.03683 0.09009 0.0
H360 H 0.56242 0.87437 0.13991 0.0
H361 H 0.51821 0.83251 0.15225 0.0
H362 H 0.43421 0.91265 0.11169 0.0
H363 H 0.4781 0.9545 0.10006 0.0
H364 H 0.5552 0.14335 1.00723 0.0
H365 H 0.59434 0.18969 1.00075 0.0
H366 H 0.59317 0.18494 0.87119 0.0
H367 H 0.55418 0.13784 0.87765 0.0
Nd368 Nd 0.53146 0.50269 0.55099 0.0
Nd369 Nd 0.56719 0.55164 0.49801 0.0
C370 C 0.48889 0.46879 0.59871 0.0
C371 C 0.4676 0.43932 0.5983 0.0
C372 C 0.45824 0.42573 0.56194 0.0
C373 C 0.43821 0.39723 0.56268 0.0
C374 C 0.42772 0.38211 0.59979 0.0
C375 C 0.43725 0.39571 0.63594 0.0
C376 C 0.45707 0.42415 0.63519 0.0
C377 C 0.60429 0.49825 0.56306 0.0
C378 C 0.53705 0.58266 0.5799 0.0
C379 C 0.60947 0.58681 0.45128 0.0
C380 C 0.62281 0.62113 0.45126 0.0
C381 C 0.63609 0.63563 0.41535 0.0
C382 C 0.64787 0.66877 0.41434 0.0
C383 C 0.64649 0.68778 0.44925 0.0
C384 C 0.63317 0.67336 0.48531 0.0
C385 C 0.62123 0.64016 0.48627 0.0
C386 C 0.49459 0.5572 0.48618 0.0
C387 C 0.56226 0.47115 0.47067 0.0
O388 O 0.52342 0.46071 0.5977 0.0
O389 O 0.4778 0.49688 0.57594 0.0
O390 O 0.58645 0.47142 0.56229 0.0
O391 O 0.58322 0.52612 0.5586 0.0
O392 O 0.51997 0.55454 0.58331 0.0
O393 O 0.56066 0.58671 0.55123 0.0
O394 O 0.57533 0.58764 0.44493 0.0
O395 O 0.62127 0.56361 0.47998 0.0
O396 O 0.51263 0.58375 0.48827 0.0
O397 O 0.51503 0.52874 0.49036 0.0
O398 O 0.58137 0.49795 0.46948 0.0
O399 O 0.53562 0.4696 0.49616 0.0
H400 H 0.46642 0.43713 0.53319 0.0
H401 H 0.43092 0.38697 0.53457 0.0
H402 H 0.42921 0.38431 0.66476 0.0
H403 H 0.46423 0.43429 0.66345 0.0
H404 H 0.63723 0.62136 0.38806 0.0
H405 H 0.65827 0.67958 0.38638 0.0
H406 H 0.63212 0.68774 0.51249 0.0
H407 H 0.61077 0.62937 0.51419 0.0
Nd408 Nd 1.01518 0.52212 0.06389 0.0
Nd409 Nd 0.06847 0.5265 0.99791 0.0
C410 C 0.95588 0.53088 0.10569 0.0
C411 C 0.93988 0.56415 0.12149 0.0
C412 C 0.90299 0.57425 0.11892 0.0
C413 C 0.8887 0.60785 0.12937 0.0
C414 C 0.91125 0.63157 0.14236 0.0
C415 C 0.94798 0.62137 0.1453 0.0
C416 C 0.96223 0.58805 0.13472 0.0
C417 C 0.07601 0.54725 0.08845 0.0
C418 C 1.01201 0.59551 1.00292 0.0
C419 C 0.12932 0.51926 0.95887 0.0
C420 C 0.1512 0.48645 0.94844 0.0
C421 C 0.17699 0.46929 0.97568 0.0
C422 C 0.19324 0.43547 0.9691 0.0
C423 C 0.18391 0.41836 0.93524 0.0
C424 C 0.15955 0.43598 0.90709 0.0
C425 C 0.14344 0.46975 0.9135 0.0
C426 C 1.00684 0.50288 0.97386 0.0
C427 C 0.07138 0.45198 0.05655 0.0
O428 O 0.95602 0.53033 0.0663 0.0
O429 O 0.98632 0.51743 0.12195 0.0
O430 O 0.05717 0.52827 0.11163 0.0
O431 O 0.06078 0.55502 0.05482 0.0
O432 O 0.99533 0.57539 1.02875 0.0
O433 O 0.04405 0.58434 0.98927 0.0
O434 O 0.12725 0.52497 0.99742 0.0
O435 O 0.09852 0.5265 0.94038 0.0
O436 O 1.02479 0.52319 0.95111 0.0
O437 O 1.02265 0.4936 1.0069 0.0
O438 O 0.08639 0.47115 1.02833 0.0
O439 O 0.04078 0.46435 0.07312 0.0
H440 H 0.88543 0.55648 0.10804 0.0
H441 H 0.86021 0.61546 0.12712 0.0
H442 H 0.96566 0.63943 0.15527 0.0
H443 H 0.99089 0.58132 0.13596 0.0
H444 H 0.18373 0.48149 1.00279 0.0
H445 H 0.21246 0.42236 0.99076 0.0
H446 H 0.15253 0.42327 0.88044 0.0
H447 H 0.12395 0.4822 0.89176 0.0
C448 C 0.0992 0.06689 0.34416 0.0
C449 C 0.12484 0.09088 0.34769 0.0
C450 C 0.1163 0.08816 0.4216 0.0
C451 C 0.09274 0.06183 0.41876 0.0
N452 N 0.06174 0.02602 0.37672 0.0
N453 N 0.16213 0.11998 0.39001 0.0
C454 C 0.08445 0.05098 0.37981 0.0
C455 C 0.13452 0.10025 0.38649 0.0
N456 N 0.08791 0.0604 0.30652 0.0
N457 N 0.12088 0.10253 0.45766 0.0
H458 H 0.17569 0.12989 0.36518 0.0
H459 H 0.17374 0.124 0.4175 0.0
H460 H 0.10975 0.09411 0.48469 0.0
H461 H 0.1336 0.12491 0.46042 0.0
H462 H 0.06659 0.04644 0.30117 0.0
H463 H 0.09862 0.07093 0.28006 0.0
H464 H 0.05815 1.01339 0.35041 0.0
H465 H 0.04693 1.01694 0.40092 0.0
C466 C 0.48128 0.92805 0.89072 0.0
C467 C 0.46441 0.90098 0.91114 0.0
C468 C 0.4679 0.9297 0.97476 0.0
C469 C 0.4887 0.95435 0.95538 0.0
N470 N 0.52048 0.973 0.8958 0.0
N471 N 0.44616 0.87284 0.97353 0.0
C472 C 0.49668 0.95263 0.91352 0.0
C473 C 0.45895 0.9009 0.95346 0.0
N474 N 0.48189 0.93079 0.84943 0.0
N475 N 0.45543 0.93457 1.01302 0.0
H476 H 0.43924 0.85126 0.95894 0.0
H477 H 0.44529 0.86953 1.0049 0.0
H478 H 0.46044 0.95594 0.02913 0.0
H479 H 0.43718 0.91954 1.02715 0.0
H480 H 0.4902 0.95228 0.83287 0.0
H481 H 0.47112 0.91316 0.83162 0.0
H482 H 0.53046 0.96969 0.86676 0.0
H483 H 0.53287 0.99111 0.9111 0.0
C484 C 0.68508 0.4547 0.61912 0.0
C485 C 0.689 0.48119 0.64634 0.0
C486 C 0.65061 0.52375 0.60351 0.0
C487 C 0.64011 0.49553 0.58256 0.0
N488 N 0.6585 0.43913 0.55693 0.0
N489 N 0.6776 0.54145 0.664 0.0
C490 C 0.66106 0.46242 0.58606 0.0
C491 C 0.67299 0.51612 0.63792 0.0
N492 N 0.70283 0.42182 0.62643 0.0
N493 N 0.64073 0.55757 0.58935 0.0
H494 H 0.6949 0.53698 0.68866 0.0
H495 H 0.66295 0.56623 0.66237 0.0
H496 H 0.62841 0.56346 0.56138 0.0
H497 H 0.64922 0.57932 0.60205 0.0
H498 H 0.69837 0.4001 0.61071 0.0
H499 H 0.72177 0.41599 0.64937 0.0
H500 H 0.67416 0.41504 0.55597 0.0
H501 H 0.64281 0.4457 0.53115 0.0
C502 C 0.88081 0.70724 0.20761 0.0
C503 C 0.87501 0.73555 0.17788 0.0
C504 C 0.89244 0.69554 0.12435 0.0
C505 C 0.89672 0.6671 0.15399 0.0
N506 N 0.89016 0.64418 0.22249 0.0
N507 N 0.8713 0.75709 0.10817 0.0
C508 C 0.88955 0.67249 0.19528 0.0
C509 C 0.87966 0.72982 0.13622 0.0
N510 N 0.87851 0.7137 0.24775 0.0
N511 N 0.90136 0.68977 0.08506 0.0
H512 H 0.86323 0.78271 0.11605 0.0
H513 H 0.87045 0.75427 0.0772 0.0
H514 H 0.90972 0.66484 0.07518 0.0
H515 H 0.90221 0.70964 0.06248 0.0
H516 H 0.8867 0.69507 0.27091 0.0
H517 H 0.87055 0.73846 0.25823 0.0
H518 H 0.88129 0.64579 0.25216 0.0
H519 H 0.89698 0.61834 0.21466 0.0
C520 C 0.37869 0.07757 0.06384 0.0
C521 C 0.37468 0.09857 0.09778 0.0
C522 C 0.44003 0.09055 0.1065 0.0
C523 C 0.44404 0.06594 0.07552 0.0
N524 N 0.41445 0.03178 0.02966 0.0
N525 N 0.40133 0.1216 0.15466 0.0
C526 C 0.41268 0.05856 0.05517 0.0
C527 C 0.40533 0.10408 0.1199 0.0
N528 N 0.34991 0.07586 0.03959 0.0
N529 N 0.46946 0.10217 0.12252 0.0
H530 H 0.37674 0.13312 0.16473 0.0
H531 H 0.42195 0.12241 0.17518 0.0
H532 H 0.49542 0.09311 0.11463 0.0
H533 H 0.46821 0.12327 0.14102 0.0
H534 H 0.35175 0.06454 1.01177 0.0
H535 H 0.3246 0.08847 0.04564 0.0
H536 H 0.392 1.02256 1.01797 0.0
H537 H 0.43783 1.01622 1.02303 0.0
C538 C 0.20136 0.80552 0.70122 0.0
C539 C 0.23731 0.81027 0.69238 0.0
C540 C 0.21985 0.83871 0.62622 0.0
C541 C 0.18358 0.83721 0.63675 0.0
N542 N 0.13881 0.82114 0.68411 0.0
N543 N 0.28132 0.83346 0.64853 0.0
C544 C 0.17403 0.82094 0.67416 0.0
C545 C 0.24675 0.82721 0.65529 0.0
N546 N 0.19359 0.78586 0.73517 0.0
N547 N 0.22853 0.85101 0.58829 0.0
H548 H 0.30215 0.82448 0.66839 0.0
H549 H 0.28923 0.84951 0.62457 0.0
H550 H 0.20957 0.86102 0.56659 0.0
H551 H 0.25443 0.84899 0.57706 0.0
H552 H 0.16846 0.77836 0.74155 0.0
H553 H 0.21302 0.77492 0.75594 0.0
H554 H 0.12984 0.81342 0.71262 0.0
H555 H 0.11821 0.83078 0.66418 0.0
C556 C 0.94978 0.43841 0.9306 0.0
C557 C 0.91646 0.45969 0.92675 0.0
C558 C 0.9427 0.5092 0.95291 0.0
C559 C 0.97551 0.48743 0.95914 0.0
N560 N 1.00977 0.43029 0.95821 0.0
N561 N 0.879 0.51246 0.94211 0.0
C562 C 0.97879 0.45159 0.94963 0.0
C563 C 0.91229 0.49426 0.94026 0.0
N564 N 0.95412 0.4063 0.91429 0.0
N565 N 0.94072 0.54441 0.95816 0.0
H566 H 0.85599 0.50228 0.93332 0.0
H567 H 0.87371 0.53622 0.95581 0.0
H568 H 0.96206 0.5563 0.96839 0.0
H569 H 0.91886 0.56231 0.94941 0.0
H570 H 0.97865 0.39111 0.91191 0.0
H571 H 0.93345 0.39574 0.90036 0.0
H572 H 1.01238 0.40311 0.95665 0.0
H573 H 1.03252 0.43943 0.96932 0.0
C574 C 0.71246 0.75485 0.44146 0.0
C575 C 0.69068 0.78313 0.42124 0.0
C576 C 0.63778 0.75282 0.43425 0.0
C577 C 0.66048 0.72231 0.4475 0.0
N578 N 0.71853 0.69377 0.46691 0.0
N579 N 0.63282 0.81154 0.40132 0.0
C580 C 0.69751 0.72344 0.45295 0.0
C581 C 0.6532 0.78312 0.41928 0.0
N582 N 0.74754 0.75786 0.44876 0.0
N583 N 0.60165 0.7524 0.43562 0.0
H584 H 0.64342 0.83466 0.39213 0.0
H585 H 0.60589 0.81215 0.39455 0.0
H586 H 0.58991 0.73033 0.44625 0.0
H587 H 0.58324 0.77433 0.42915 0.0
H588 H 0.7642 0.73964 0.46646 0.0
H589 H 0.7596 0.78009 0.43966 0.0
H590 H 0.74626 0.69112 0.46699 0.0
H591 H 0.70811 0.67086 0.47723 0.0
C592 C 0.14041 0.3762 0.09847 0.0
C593 C 0.1216 0.34649 0.09615 0.0
C594 C 0.06954 0.38563 0.06828 0.0
C595 C 0.08912 0.41527 0.06865 0.0
N596 N 0.14743 0.43558 0.07457 0.0
N597 N 0.07073 0.32193 0.07146 0.0
C598 C 0.12582 0.40957 0.08061 0.0
C599 C 0.08676 0.35099 0.07913 0.0
N600 N 0.17171 0.37309 0.11963 0.0
N601 N 1.03454 0.39028 0.05672 0.0
H602 H 0.08261 0.29638 0.07843 0.0
H603 H 0.0472 0.32282 0.05508 0.0
H604 H 1.02197 0.4139 0.04388 0.0
H605 H 1.01745 0.371 0.06118 0.0
H606 H 0.18444 0.39459 0.12675 0.0
H607 H 0.18319 0.34945 0.13364 0.0
H608 H 0.17506 0.43109 0.07755 0.0
H609 H 0.13883 0.46094 0.06337 0.0
C610 C 0.67937 0.23495 0.91062 0.0
C611 C 0.66682 0.27037 0.91757 0.0
C612 C 0.60845 0.25343 0.93776 0.0
C613 C 0.62124 0.21789 0.93171 0.0
N614 N 0.67075 0.17353 0.92194 0.0
N615 N 0.62307 0.31238 0.94652 0.0
C616 C 0.65737 0.20823 0.92116 0.0
C617 C 0.63248 0.27925 0.9341 0.0
N618 N 0.71155 0.22705 0.8922 0.0
N619 N 0.57304 0.26275 0.94509 0.0
H620 H 0.64027 0.33181 0.94429 0.0
H621 H 0.59976 0.31964 0.96238 0.0
H622 H 0.55455 0.24459 0.94796 0.0
H623 H 0.56141 0.2887 0.94525 0.0
H624 H 0.72018 0.2024 0.88187 0.0
H625 H 0.72878 0.24578 0.88474 0.0
H626 H 0.69773 0.1649 0.91858 0.0
H627 H 0.65535 0.15326 0.92957 0.0
C628 C 0.92794 1.00527 0.39925 0.0
C629 C 0.9243 0.96881 0.40221 0.0
C630 C 0.96336 0.96044 0.46152 0.0
C631 C 0.96696 0.99678 0.45895 0.0
N632 N 0.95877 0.05293 0.42153 0.0
N633 N 0.94077 0.91103 0.43549 0.0
C634 C 0.95099 1.01903 0.42664 0.0
C635 C 0.94282 0.94631 0.4326 0.0
N636 N 0.90839 0.02681 0.37117 0.0
N637 N 0.9793 0.93896 0.49208 0.0
H638 H 0.9264 0.89785 0.41571 0.0
H639 H 0.9264 0.89785 0.41571 0.0
H640 H 0.99418 0.94825 0.5145 0.0
H641 H 0.97721 0.91205 0.49513 0.0
H642 H 0.90643 0.05411 0.37026 0.0
H643 H 0.89232 1.01734 0.34983 0.0
H644 H 0.95103 0.06959 0.39644 0.0
H645 H 0.97544 0.0638 0.44106 0.0
C646 C 0.50626 0.66709 0.63115 0.0
C647 C 0.51014 0.65468 0.67222 0.0
C648 C 0.54029 0.59854 0.65165 0.0
C649 C 0.53108 0.60888 0.6109 0.0
N650 N 0.50455 0.65241 0.56114 0.0
N651 N 0.53035 0.60897 0.7225 0.0
C652 C 0.51443 0.64325 0.6003 0.0
C653 C 0.52743 0.62061 0.68276 0.0
N654 N 0.49452 0.70167 0.62179 0.0
N655 N 0.56204 0.56799 0.66037 0.0
H656 H 0.52273 0.62511 0.74603 0.0
H657 H 0.53861 0.583 0.73214 0.0
H658 H 0.57224 0.55145 0.63818 0.0
H659 H 0.57262 0.56057 0.68893 0.0
H660 H 0.49445 0.71331 0.59262 0.0
H661 H 0.48765 0.71964 0.64372 0.0
H662 H 0.48848 0.67543 0.55218 0.0
H663 H 0.51051 0.63591 0.53761 0.0
C664 C 0.94223 0.9428 0.66646 0.0
C665 C 0.95229 0.94857 0.70653 0.0
C666 C 0.99358 0.98958 0.67944 0.0
C667 C 0.98638 0.98118 0.63918 0.0
N668 N 0.95164 0.95177 0.5941 0.0
N669 N 0.99051 0.97402 0.75143 0.0
C670 C 0.96016 0.95815 0.63274 0.0
C671 C 0.97871 0.97109 0.71301 0.0
N672 N 0.91465 0.92347 0.66075 0.0
N673 N 1.01379 1.01598 0.68593 0.0
H674 H 0.97967 0.96184 0.77681 0.0
H675 H 1.01284 0.98618 0.75804 0.0
H676 H 1.02537 0.03022 0.66285 0.0
H677 H 1.01652 0.02613 0.71401 0.0
H678 H 0.90323 0.92067 0.63285 0.0
H679 H 0.90154 0.91141 0.68457 0.0
H680 H 0.93689 0.93187 0.58651 0.0
H681 H 0.95964 0.9666 0.56909 0.0
C682 C 0.63918 0.10763 0.14966 0.0
C683 C 0.62465 0.14347 0.14833 0.0
C684 C 0.57782 0.13081 0.10269 0.0
C685 C 0.59442 0.09555 0.10056 0.0
N686 N 0.64759 0.05466 0.11324 0.0
N687 N 0.58635 0.19079 0.11444 0.0
C688 C 0.62704 0.08509 0.12158 0.0
C689 C 0.5959 0.15556 0.12202 0.0
N690 N 0.66389 0.09476 0.17834 0.0
N691 N 0.54408 0.14073 0.08832 0.0
H692 H 0.59941 0.20989 0.12733 0.0
H693 H 0.56808 0.20091 0.09205 0.0
H694 H 0.52872 0.12418 0.07445 0.0
H695 H 0.52982 0.16493 0.0937 0.0
H696 H 0.67262 0.06806 0.18304 0.0
H697 H 0.67303 0.11025 0.19995 0.0
H698 H 0.67305 0.04764 0.12523 0.0
H699 H 0.64133 0.03867 0.09065 0.0
C700 C 0.39721 0.57544 0.45443 0.0
C701 C 0.40081 0.57514 0.41186 0.0
C702 C 0.4654 0.56089 0.41839 0.0
C703 C 0.46201 0.56067 0.46104 0.0
N704 N 0.42507 0.56248 0.52044 0.0
N705 N 0.4365 0.55933 0.35373 0.0
C706 C 0.42791 0.56607 0.47934 0.0
C707 C 0.43431 0.56482 0.39408 0.0
N708 N 0.36468 0.58601 0.47072 0.0
N709 N 0.49834 0.55977 0.40086 0.0
H710 H 0.41447 0.563 0.33453 0.0
H711 H 0.45955 0.54802 0.33997 0.0
H712 H 0.52191 0.55739 0.41742 0.0
H713 H 0.50234 0.5642 0.36997 0.0
H714 H 0.36066 0.59078 0.50105 0.0
H715 H 0.3416 0.59136 0.4532 0.0
H716 H 0.4009 0.56277 0.53572 0.0
H717 H 0.44724 0.55701 0.53935 0.0
C718 C 0.23057 0.34394 0.8793 0.0
C719 C 0.21981 0.3142 0.90168 0.0
C720 C 0.18801 0.35277 0.94968 0.0
C721 C 0.19997 0.3822 0.92791 0.0
N722 N 0.24038 0.40511 0.8795 0.0
N723 N 0.19469 0.2893 0.96215 0.0
C724 C 0.22393 0.37746 0.89524 0.0
C725 C 0.2006 0.31831 0.9383 0.0
N726 N 0.24501 0.34067 0.84159 0.0
N727 N 0.16346 0.35779 0.97988 0.0
H728 H 0.20359 0.2638 0.95438 0.0
H729 H 0.18371 0.29049 0.99097 0.0
H730 H 0.15397 0.38258 0.98936 0.0
H731 H 0.15077 0.33765 0.99389 0.0
H732 H 0.24949 0.36213 0.8223 0.0
H733 H 0.24941 0.31689 0.82774 0.0
H734 H 0.26081 0.40242 0.85826 0.0
H735 H 0.23613 0.43008 0.89072 0.0
C736 C 0.67019 0.93337 0.94887 0.0
C737 C 0.70237 0.94665 0.95904 0.0
C738 C 0.6669 0.99559 0.99167 0.0
C739 C 0.6348 0.98104 0.98369 0.0
N740 N 0.60697 0.93203 0.96177 0.0
N741 N 0.73158 0.98645 0.99719 0.0
C742 C 0.63687 0.9487 0.96439 0.0
C743 C 0.70072 0.97653 0.98269 0.0
N744 N 0.67119 0.90693 0.92289 0.0
N745 N 0.66527 0.0286 1.0054 0.0
H746 H 0.75665 0.97337 0.99104 0.0
H747 H 0.73215 1.00551 1.01816 0.0
H748 H 0.64141 0.04388 1.01141 0.0
H749 H 0.68744 0.04217 1.00744 0.0
H750 H 0.64847 0.89888 0.91043 0.0
H751 H 0.69485 0.89489 0.91104 0.0
H752 H 0.60726 0.90672 0.95199 0.0
H753 H 0.58231 0.94206 0.97312 0.0
C754 C 0.86871 0.18391 0.37357 0.0
C755 C 0.87073 0.21514 0.34886 0.0
C756 C 0.92667 0.22405 0.38175 0.0
C757 C 0.92486 0.19244 0.40558 0.0
N758 N 0.9002 0.13742 0.41652 0.0
N759 N 0.90469 0.26087 0.32296 0.0
C760 C 0.89789 0.17072 0.39881 0.0
C761 C 0.90083 0.2339 0.35084 0.0
N762 N 0.83804 0.1681 0.37517 0.0
N763 N 0.95222 0.24515 0.38964 0.0
H764 H 0.8862 0.26838 0.29988 0.0
H765 H 0.92749 0.27369 0.32048 0.0
H766 H 0.97201 0.23814 0.41143 0.0
H767 H 0.95263 0.27037 0.3764 0.0
H768 H 0.8338 0.14781 0.39627 0.0
H769 H 0.81545 0.17707 0.35799 0.0
H770 H 0.88337 0.1191 0.40913 0.0
H771 H 0.92104 0.12689 0.4357 0.0
C772 C 0.13703 0.6125 0.12291 0.0
C773 C 0.16639 0.5892 0.13831 0.0
C774 C 0.13639 0.53884 0.12139 0.0
C775 C 0.10806 0.56203 0.10299 0.0
N776 N 0.08477 0.62151 0.08026 0.0
N777 N 0.19801 0.53087 0.14327 0.0
C778 C 0.10959 0.59901 0.10147 0.0
C779 C 0.16725 0.55256 0.13484 0.0
N780 N 0.13425 0.64729 0.13075 0.0
N781 N 0.13376 0.50367 0.12686 0.0
H782 H 0.22136 0.54006 0.15268 0.0
H783 H 0.20146 0.50441 0.13705 0.0
H784 H 0.11267 0.49173 0.11603 0.0
H785 H 0.1515 0.4865 0.14465 0.0
H786 H 0.11143 0.66477 0.12464 0.0
H787 H 0.15346 0.6582 0.14678 0.0
H788 H 0.08733 0.64802 0.0741 0.0
H789 H 0.0629 0.61361 0.06611 0.0
C790 C 0.34853 0.33214 0.61828 0.0
C791 C 0.36611 0.29805 0.62842 0.0
C792 C 0.4232 0.31745 0.60654 0.0
C793 C 0.40605 0.35236 0.60184 0.0
N794 N 0.35196 0.39266 0.59734 0.0
N795 N 0.41906 0.25659 0.62959 0.0
C796 C 0.3686 0.35941 0.6053 0.0
C797 C 0.40313 0.29004 0.62099 0.0
N798 N 0.31259 0.33985 0.62235 0.0
N799 N 0.45863 0.31091 0.59744 0.0
H800 H 0.40458 0.23592 0.63859 0.0
H801 H 0.4464 0.24912 0.62866 0.0
H802 H 0.4737 0.33069 0.58693 0.0
H803 H 0.47279 0.28599 0.5978 0.0
H804 H 0.29546 0.32153 0.63172 0.0
H805 H 0.29546 0.32153 0.63172 0.0
H806 H 0.32445 0.39894 0.60027 0.0
H807 H 0.36559 0.41362 0.58716 0.0
C808 C 0.96926 0.69212 1.00085 0.0
C809 C 0.95674 0.69768 0.96036 0.0
C810 C 0.98348 0.63761 0.94684 0.0
C811 C 0.99342 0.63098 0.98822 0.0
N812 N 0.98992 0.65061 0.05616 0.0
N813 N 0.9457 0.67303 0.89718 0.0
C814 C 0.98437 0.6578 1.0157 0.0
C815 C 0.96225 0.66967 0.934 0.0
N816 N 0.96817 0.72001 1.02476 0.0
N817 N 0.99416 0.61328 0.91949 0.0
H818 H 0.92944 0.69565 0.88699 0.0
H819 H 0.94517 0.65234 0.87836 0.0
H820 H 1.00774 0.58872 0.92753 0.0
H821 H 0.9917 0.61835 0.88837 0.0
H822 H 0.98041 0.71866 0.05295 0.0
H823 H 0.95761 0.74543 1.01504 0.0
H824 H 0.98035 0.6677 0.07801 0.0
H825 H 1.0017 0.62644 0.06838 0.0
C826 C 0.39752 0.8248 0.18128 0.0
C827 C 0.39937 0.79426 0.15902 0.0
C828 C 0.44449 0.81699 0.11459 0.0
C829 C 0.44644 0.84469 0.14066 0.0
N830 N 0.42758 0.87335 0.20132 0.0
N831 N 0.4262 0.75938 0.1063 0.0
C832 C 0.42347 0.84839 0.17453 0.0
C833 C 0.42304 0.78994 0.12585 0.0
N834 N 0.37067 0.83131 0.20861 0.0
N835 N 0.46263 0.81694 0.07879 0.0
H836 H 0.41047 0.73925 0.11321 0.0
H837 H 0.44597 0.75298 0.08508 0.0
H838 H 0.47864 0.83636 0.06969 0.0
H839 H 0.45938 0.79951 0.0566 0.0
H840 H 0.36577 0.8548 0.22294 0.0
H841 H 0.3511 0.81453 0.21407 0.0
H842 H 0.41433 0.8747 0.22891 0.0
H843 H 0.44643 0.89108 0.19764 0.0
C844 C 0.16894 0.08259 0.61155 0.0
C845 C 0.15489 0.08817 0.65073 0.0
C846 C 0.1126 0.04604 0.64032 0.0
C847 C 0.12108 0.04672 0.59862 0.0
N848 N 0.15798 0.06658 0.54387 0.0
N849 N 0.11018 0.07784 0.70108 0.0
C850 C 0.14964 0.06504 0.58402 0.0
C851 C 0.12588 0.07055 0.66488 0.0
N852 N 0.20143 0.09284 0.60114 0.0
N853 N 0.09417 1.02035 0.65721 0.0
H854 H 0.1186 0.09621 0.71973 0.0
H855 H 0.08679 0.0679 0.71066 0.0
H856 H 0.08634 1.0002 0.64077 0.0
H857 H 0.09063 1.01668 0.68831 0.0
H858 H 0.21465 0.08624 0.57451 0.0
H859 H 0.21702 0.10464 0.621 0.0
H860 H 0.17529 0.0834 0.53112 0.0
H861 H 0.14597 0.05296 0.5226 0.0
C862 C 0.58616 0.37991 0.43105 0.0
C863 C 0.59372 0.389 0.39016 0.0
C864 C 0.57317 0.4507 0.40053 0.0
C865 C 0.571 0.44244 0.44276 0.0
N866 N 0.57958 0.3992 0.49905 0.0
N867 N 0.59709 0.43313 0.33591 0.0
C868 C 0.57812 0.40696 0.45828 0.0
C869 C 0.58768 0.42441 0.37475 0.0
N870 N 0.58675 0.34532 0.44378 0.0
N871 N 0.56024 0.48338 0.38488 0.0
H872 H 0.60663 0.41447 0.31566 0.0
H873 H 0.59756 0.45895 0.32451 0.0
H874 H 0.54873 0.50296 0.4028 0.0
H875 H 0.55767 0.48998 0.35403 0.0
H876 H 0.57798 0.33698 0.47219 0.0
H877 H 0.59279 0.32496 0.42448 0.0
H878 H 0.58868 0.37441 0.51199 0.0
H879 H 0.57481 0.41807 0.52029 0.0
loop_
_geom_bond_atom_site_label_1
_geom_bond_atom_site_label_2
_geom_bond_distance
_geom_bond_site_symmetry_2
_ccdc_geom_bond_type
C0 C1 1.384 . S
C0 H13 0.947 . S
C0 C35 1.382 . S
C1 C0 1.384 . S
C1 C2 1.378 . S
C2 C1 1.378 . S
C2 C3 1.378 . S
C2 H14 0.952 . S
C3 C2 1.378 . S
C3 H15 0.950 . S
C3 C34 1.383 . S
H4 C23 0.947 . S
H5 C24 0.946 . S
H6 C26 0.953 . S
H7 C27 0.945 . S
H8 C29 0.952 . S
H9 C30 0.949 . S
H10 C32 0.950 . S
H11 C33 0.948 . S
H12 C35 0.951 . S
H13 C0 0.947 . S
H14 C2 0.952 . S
H15 C3 0.950 . S
N16 C19 1.382 . S
N16 C21 1.363 . S
N17 C19 1.371 . S
N17 C20 1.372 . S
N18 C20 1.361 . S
N18 C21 1.377 . S
C19 N16 1.382 . S
C19 N17 1.371 . S
C19 C22 1.480 . S
C20 N17 1.372 . S
C20 N18 1.361 . S
C20 C28 1.457 . S
C21 N16 1.363 . S
C21 N18 1.377 . S
C21 C34 1.479 . S
C22 C19 1.480 . S
C22 C23 1.383 . S
C22 C27 1.385 . S
C23 H4 0.947 . S
C23 C22 1.383 . S
C23 C24 1.388 . S
C24 H5 0.946 . S
C24 C23 1.388 . S
C24 C25 1.384 . S
C25 C24 1.384 . S
C25 C26 1.377 . S
C26 H6 0.953 . S
C26 C25 1.377 . S
C26 C27 1.369 . S
C27 H7 0.945 . S
C27 C22 1.385 . S
C27 C26 1.369 . S
C28 C20 1.457 . S
C28 C29 1.372 . S
C28 C33 1.364 . S
C29 H8 0.952 . S
C29 C28 1.372 . S
C29 C30 1.389 . S
C30 H9 0.949 . S
C30 C29 1.389 . S
C30 C31 1.387 . S
C31 C30 1.387 . S
C31 C32 1.372 . S
C32 H10 0.950 . S
C32 C31 1.372 . S
C32 C33 1.379 . S
C33 H11 0.948 . S
C33 C28 1.364 . S
C33 C32 1.379 . S
C34 C3 1.383 . S
C34 C21 1.479 . S
C34 C35 1.398 . S
C35 C0 1.382 . S
C35 H12 0.951 . S
C35 C34 1.398 . S
C36 C37 1.384 . S
C36 H49 0.947 . S
C36 C71 1.382 . S
C37 C36 1.384 . S
C37 C38 1.378 . S
C38 C37 1.378 . S
C38 C39 1.378 . S
C38 H50 0.952 . S
C39 C38 1.378 . S
C39 H51 0.950 . S
C39 C70 1.383 . S
H40 C59 0.947 . S
H41 C60 0.946 . S
H42 C62 0.953 . S
H43 C63 0.945 . S
H44 C65 0.952 . S
H45 C66 0.949 . S
H46 C68 0.950 . S
H47 C69 0.948 . S
H48 C71 0.951 . S
H49 C36 0.947 . S
H50 C38 0.952 . S
H51 C39 0.950 . S
N52 C55 1.382 . S
N52 C57 1.363 . S
N53 C55 1.371 . S
N53 C56 1.372 . S
N54 C56 1.361 . S
N54 C57 1.377 . S
C55 N52 1.382 . S
C55 N53 1.371 . S
C55 C58 1.480 . S
C56 N53 1.372 . S
C56 N54 1.361 . S
C56 C64 1.457 . S
C57 N52 1.363 . S
C57 N54 1.377 . S
C57 C70 1.479 . S
C58 C55 1.480 . S
C58 C59 1.383 . S
C58 C63 1.385 . S
C59 H40 0.947 . S
C59 C58 1.383 . S
C59 C60 1.388 . S
C60 H41 0.946 . S
C60 C59 1.388 . S
C60 C61 1.384 . S
C61 C60 1.384 . S
C61 C62 1.377 . S
C62 H42 0.953 . S
C62 C61 1.377 . S
C62 C63 1.369 . S
C63 H43 0.945 . S
C63 C58 1.385 . S
C63 C62 1.369 . S
C64 C56 1.457 . S
C64 C65 1.372 . S
C64 C69 1.364 . S
C65 H44 0.952 . S
C65 C64 1.372 . S
C65 C66 1.389 . S
C66 H45 0.949 . S
C66 C65 1.389 . S
C66 C67 1.387 . S
C67 C66 1.387 . S
C67 C68 1.372 . S
C68 H46 0.950 . S
C68 C67 1.372 . S
C68 C69 1.379 . S
C69 H47 0.948 . S
C69 C64 1.364 . S
C69 C68 1.379 . S
C70 C39 1.383 . S
C70 C57 1.479 . S
C70 C71 1.398 . S
C71 C36 1.382 . S
C71 H48 0.951 . S
C71 C70 1.398 . S
C72 C73 1.384 . S
C72 H85 0.947 . S
C72 C107 1.382 . S
C73 C72 1.384 . S
C73 C74 1.378 . S
C74 C73 1.378 . S
C74 C75 1.378 . S
C74 H86 0.952 . S
C75 C74 1.378 . S
C75 H87 0.950 . S
C75 C106 1.383 . S
H76 C95 0.947 . S
H77 C96 0.946 . S
H78 C98 0.953 . S
H79 C99 0.945 . S
H80 C101 0.952 . S
H81 C102 0.949 . S
H82 C104 0.950 . S
H83 C105 0.948 . S
H84 C107 0.951 . S
H85 C72 0.947 . S
H86 C74 0.952 . S
H87 C75 0.950 . S
N88 C91 1.382 . S
N88 C93 1.363 . S
N89 C91 1.371 . S
N89 C92 1.372 . S
N90 C92 1.361 . S
N90 C93 1.377 . S
C91 N88 1.382 . S
C91 N89 1.371 . S
C91 C94 1.480 . S
C92 N89 1.372 . S
C92 N90 1.361 . S
C92 C100 1.457 . S
C93 N88 1.363 . S
C93 N90 1.377 . S
C93 C106 1.479 . S
C94 C91 1.480 . S
C94 C95 1.383 . S
C94 C99 1.385 . S
C95 H76 0.947 . S
C95 C94 1.383 . S
C95 C96 1.388 . S
C96 H77 0.946 . S
C96 C95 1.388 . S
C96 C97 1.384 . S
C97 C96 1.384 . S
C97 C98 1.377 . S
C98 H78 0.953 . S
C98 C97 1.377 . S
C98 C99 1.369 . S
C99 H79 0.945 . S
C99 C94 1.385 . S
C99 C98 1.369 . S
C100 C92 1.457 . S
C100 C101 1.372 . S
C100 C105 1.364 . S
C101 H80 0.952 . S
C101 C100 1.372 . S
C101 C102 1.389 . S
C102 H81 0.949 . S
C102 C101 1.389 . S
C102 C103 1.387 . S
C103 C102 1.387 . S
C103 C104 1.372 . S
C104 H82 0.950 . S
C104 C103 1.372 . S
C104 C105 1.379 . S
C105 H83 0.948 . S
C105 C100 1.364 . S
C105 C104 1.379 . S
C106 C75 1.383 . S
C106 C93 1.479 . S
C106 C107 1.398 . S
C107 C72 1.382 . S
C107 H84 0.951 . S
C107 C106 1.398 . S
C108 C109 1.384 . S
C108 H121 0.947 . S
C108 C143 1.382 . S
C109 C108 1.384 . S
C109 C110 1.378 . S
C110 C109 1.378 . S
C110 C111 1.378 . S
C110 H122 0.952 . S
C111 C110 1.378 . S
C111 H123 0.950 . S
C111 C142 1.383 . S
H112 C131 0.947 . S
H113 C132 0.946 . S
H114 C134 0.953 . S
H115 C135 0.945 . S
H116 C137 0.952 . S
H117 C138 0.949 . S
H118 C140 0.950 . S
H119 C141 0.948 . S
H120 C143 0.951 . S
H121 C108 0.947 . S
H122 C110 0.952 . S
H123 C111 0.950 . S
N124 C127 1.382 . S
N124 C129 1.363 . S
N125 C127 1.371 . S
N125 C128 1.372 . S
N126 C128 1.361 . S
N126 C129 1.377 . S
C127 N124 1.382 . S
C127 N125 1.371 . S
C127 C130 1.480 . S
C128 N125 1.372 . S
C128 N126 1.361 . S
C128 C136 1.457 . S
C129 N124 1.363 . S
C129 N126 1.377 . S
C129 C142 1.479 . S
C130 C127 1.480 . S
C130 C131 1.383 . S
C130 C135 1.385 . S
C131 H112 0.947 . S
C131 C130 1.383 . S
C131 C132 1.388 . S
C132 H113 0.946 . S
C132 C131 1.388 . S
C132 C133 1.384 . S
C133 C132 1.384 . S
C133 C134 1.377 . S
C134 H114 0.953 . S
C134 C133 1.377 . S
C134 C135 1.369 . S
C135 H115 0.945 . S
C135 C130 1.385 . S
C135 C134 1.369 . S
C136 C128 1.457 . S
C136 C137 1.372 . S
C136 C141 1.364 . S
C137 H116 0.952 . S
C137 C136 1.372 . S
C137 C138 1.389 . S
C138 H117 0.949 . S
C138 C137 1.389 . S
C138 C139 1.387 . S
C139 C138 1.387 . S
C139 C140 1.372 . S
C140 H118 0.950 . S
C140 C139 1.372 . S
C140 C141 1.379 . S
C141 H119 0.948 . S
C141 C136 1.364 . S
C141 C140 1.379 . S
C142 C111 1.383 . S
C142 C129 1.479 . S
C142 C143 1.398 . S
C143 C108 1.382 . S
C143 H120 0.951 . S
C143 C142 1.398 . S
C144 C145 1.384 . S
C144 H157 0.947 . S
C144 C179 1.382 . S
C145 C144 1.384 . S
C145 C146 1.378 . S
C146 C145 1.378 . S
C146 C147 1.378 . S
C146 H158 0.952 . S
C147 C146 1.378 . S
C147 H159 0.950 . S
C147 C178 1.383 . S
H148 C167 0.947 . S
H149 C168 0.946 . S
H150 C170 0.953 . S
H151 C171 0.945 . S
H152 C173 0.952 . S
H153 C174 0.949 . S
H154 C176 0.950 . S
H155 C177 0.948 . S
H156 C179 0.951 . S
H157 C144 0.947 . S
H158 C146 0.952 . S
H159 C147 0.950 . S
N160 C163 1.382 . S
N160 C165 1.363 . S
N161 C163 1.371 . S
N161 C164 1.372 . S
N162 C164 1.361 . S
N162 C165 1.377 . S
C163 N160 1.382 . S
C163 N161 1.371 . S
C163 C166 1.480 . S
C164 N161 1.372 . S
C164 N162 1.361 . S
C164 C172 1.457 . S
C165 N160 1.363 . S
C165 N162 1.377 . S
C165 C178 1.479 . S
C166 C163 1.480 . S
C166 C167 1.383 . S
C166 C171 1.385 . S
C167 H148 0.947 . S
C167 C166 1.383 . S
C167 C168 1.388 . S
C168 H149 0.946 . S
C168 C167 1.388 . S
C168 C169 1.384 . S
C169 C168 1.384 . S
C169 C170 1.377 . S
C170 H150 0.953 . S
C170 C169 1.377 . S
C170 C171 1.369 . S
C171 H151 0.945 . S
C171 C166 1.385 . S
C171 C170 1.369 . S
C172 C164 1.457 . S
C172 C173 1.372 . S
C172 C177 1.364 . S
C173 H152 0.952 . S
C173 C172 1.372 . S
C173 C174 1.389 . S
C174 H153 0.949 . S
C174 C173 1.389 . S
C174 C175 1.387 . S
C175 C174 1.387 . S
C175 C176 1.372 . S
C176 H154 0.950 . S
C176 C175 1.372 . S
C176 C177 1.379 . S
C177 H155 0.948 . S
C177 C172 1.364 . S
C177 C176 1.379 . S
C178 C147 1.383 . S
C178 C165 1.479 . S
C178 C179 1.398 . S
C179 C144 1.382 . S
C179 H156 0.951 . S
C179 C178 1.398 . S
C180 C181 1.384 . S
C180 H193 0.947 . S
C180 C215 1.382 . S
C181 C180 1.384 . S
C181 C182 1.378 . S
C182 C181 1.378 . S
C182 C183 1.378 . S
C182 H194 0.952 . S
C183 C182 1.378 . S
C183 H195 0.950 . S
C183 C214 1.383 . S
H184 C203 0.947 . S
H185 C204 0.946 . S
H186 C206 0.953 . S
H187 C207 0.945 . S
H188 C209 0.952 . S
H189 C210 0.949 . S
H190 C212 0.950 . S
H191 C213 0.948 . S
H192 C215 0.951 . S
H193 C180 0.947 . S
H194 C182 0.952 . S
H195 C183 0.950 . S
N196 C199 1.382 . S
N196 C201 1.363 . S
N197 C199 1.371 . S
N197 C200 1.372 . S
N198 C200 1.361 . S
N198 C201 1.377 . S
C199 N196 1.382 . S
C199 N197 1.371 . S
C199 C202 1.480 . S
C200 N197 1.372 . S
C200 N198 1.361 . S
C200 C208 1.457 . S
C201 N196 1.363 . S
C201 N198 1.377 . S
C201 C214 1.479 . S
C202 C199 1.480 . S
C202 C203 1.383 . S
C202 C207 1.385 . S
C203 H184 0.947 . S
C203 C202 1.383 . S
C203 C204 1.388 . S
C204 H185 0.946 . S
C204 C203 1.388 . S
C204 C205 1.384 . S
C205 C204 1.384 . S
C205 C206 1.377 . S
C206 H186 0.953 . S
C206 C205 1.377 . S
C206 C207 1.369 . S
C207 H187 0.945 . S
C207 C202 1.385 . S
C207 C206 1.369 . S
C208 C200 1.457 . S
C208 C209 1.372 . S
C208 C213 1.364 . S
C209 H188 0.952 . S
C209 C208 1.372 . S
C209 C210 1.389 . S
C210 H189 0.949 . S
C210 C209 1.389 . S
C210 C211 1.387 . S
C211 C210 1.387 . S
C211 C212 1.372 . S
C212 H190 0.950 . S
C212 C211 1.372 . S
C212 C213 1.379 . S
C213 H191 0.948 . S
C213 C208 1.364 . S
C213 C212 1.379 . S
C214 C183 1.383 . S
C214 C201 1.479 . S
C214 C215 1.398 . S
C215 C180 1.382 . S
C215 H192 0.951 . S
C215 C214 1.398 . S
C216 C217 1.384 . S
C216 H229 0.947 . S
C216 C251 1.382 . S
C217 C216 1.384 . S
C217 C218 1.378 . S
C218 C217 1.378 . S
C218 C219 1.378 . S
C218 H230 0.952 . S
C219 C218 1.378 . S
C219 H231 0.950 . S
C219 C250 1.383 . S
H220 C239 0.947 . S
H221 C240 0.946 . S
H222 C242 0.953 . S
H223 C243 0.945 . S
H224 C245 0.952 . S
H225 C246 0.949 . S
H226 C248 0.950 . S
H227 C249 0.948 . S
H228 C251 0.951 . S
H229 C216 0.947 . S
H230 C218 0.952 . S
H231 C219 0.950 . S
N232 C235 1.382 . S
N232 C237 1.363 . S
N233 C235 1.371 . S
N233 C236 1.372 . S
N234 C236 1.361 . S
N234 C237 1.377 . S
C235 N232 1.382 . S
C235 N233 1.371 . S
C235 C238 1.480 . S
C236 N233 1.372 . S
C236 N234 1.361 . S
C236 C244 1.457 . S
C237 N232 1.363 . S
C237 N234 1.377 . S
C237 C250 1.479 . S
C238 C235 1.480 . S
C238 C239 1.383 . S
C238 C243 1.385 . S
C239 H220 0.947 . S
C239 C238 1.383 . S
C239 C240 1.388 . S
C240 H221 0.946 . S
C240 C239 1.388 . S
C240 C241 1.384 . S
C241 C240 1.384 . S
C241 C242 1.377 . S
C242 H222 0.953 . S
C242 C241 1.377 . S
C242 C243 1.369 . S
C243 H223 0.945 . S
C243 C238 1.385 . S
C243 C242 1.369 . S
C244 C236 1.457 . S
C244 C245 1.372 . S
C244 C249 1.364 . S
C245 H224 0.952 . S
C245 C244 1.372 . S
C245 C246 1.389 . S
C246 H225 0.949 . S
C246 C245 1.389 . S
C246 C247 1.387 . S
C247 C246 1.387 . S
C247 C248 1.372 . S
C248 H226 0.950 . S
C248 C247 1.372 . S
C248 C249 1.379 . S
C249 H227 0.948 . S
C249 C244 1.364 . S
C249 C248 1.379 . S
C250 C219 1.383 . S
C250 C237 1.479 . S
C250 C251 1.398 . S
C251 C216 1.382 . S
C251 H228 0.951 . S
C251 C250 1.398 . S
C252 C253 1.384 . S
C252 H265 0.947 . S
C252 C287 1.382 . S
C253 C252 1.384 . S
C253 C254 1.378 . S
C254 C253 1.378 . S
C254 C255 1.378 . S
C254 H266 0.952 . S
C255 C254 1.378 . S
C255 H267 0.950 . S
C255 C286 1.383 . S
H256 C275 0.947 . S
H257 C276 0.946 . S
H258 C278 0.953 . S
H259 C279 0.945 . S
H260 C281 0.952 . S
H261 C282 0.949 . S
H262 C284 0.950 . S
H263 C285 0.948 . S
H264 C287 0.951 . S
H265 C252 0.947 . S
H266 C254 0.952 . S
H267 C255 0.950 . S
N268 C271 1.382 . S
N268 C273 1.363 . S
N269 C271 1.371 . S
N269 C272 1.372 . S
N270 C272 1.361 . S
N270 C273 1.377 . S
C271 N268 1.382 . S
C271 N269 1.371 . S
C271 C274 1.480 . S
C272 N269 1.372 . S
C272 N270 1.361 . S
C272 C280 1.457 . S
C273 N268 1.363 . S
C273 N270 1.377 . S
C273 C286 1.479 . S
C274 C271 1.480 . S
C274 C275 1.383 . S
C274 C279 1.385 . S
C275 H256 0.947 . S
C275 C274 1.383 . S
C275 C276 1.388 . S
C276 H257 0.946 . S
C276 C275 1.388 . S
C276 C277 1.384 . S
C277 C276 1.384 . S
C277 C278 1.377 . S
C278 H258 0.953 . S
C278 C277 1.377 . S
C278 C279 1.369 . S
C279 H259 0.945 . S
C279 C274 1.385 . S
C279 C278 1.369 . S
C280 C272 1.457 . S
C280 C281 1.372 . S
C280 C285 1.364 . S
C281 H260 0.952 . S
C281 C280 1.372 . S
C281 C282 1.389 . S
C282 H261 0.949 . S
C282 C281 1.389 . S
C282 C283 1.387 . S
C283 C282 1.387 . S
C283 C284 1.372 . S
C284 H262 0.950 . S
C284 C283 1.372 . S
C284 C285 1.379 . S
C285 H263 0.948 . S
C285 C280 1.364 . S
C285 C284 1.379 . S
C286 C255 1.383 . S
C286 C273 1.479 . S
C286 C287 1.398 . S
C287 C252 1.382 . S
C287 H264 0.951 . S
C287 C286 1.398 . S
Nd288 C290 2.836 . S
Nd288 O308 2.500 . S
Nd288 O309 2.492 . S
Nd288 O310 2.487 1_565 S
Nd288 O311 2.682 1_565 S
Nd288 O312 2.410 . S
Nd288 O317 2.414 1_455 S
Nd288 O319 2.424 1_565 S
Nd289 C299 2.836 . S
Nd289 O311 2.414 1_655 S
Nd289 O313 2.424 1_545 S
Nd289 O314 2.500 . S
Nd289 O315 2.492 . S
Nd289 O316 2.487 1_545 S
Nd289 O317 2.682 1_545 S
Nd289 O318 2.410 . S
C290 Nd288 2.836 . S
C290 C291 1.498 . S
C290 O308 1.258 . S
C290 O309 1.239 . S
C291 C290 1.498 . S
C291 C292 1.366 . S
C291 C296 1.407 . S
C292 C291 1.366 . S
C292 C293 1.392 . S
C292 H320 0.930 . S
C293 C292 1.392 . S
C293 C294 1.398 . S
C293 H321 0.929 . S
C294 C293 1.398 . S
C294 C295 1.352 . S
C295 C294 1.352 . S
C295 C296 1.384 . S
C295 H322 0.930 . S
C296 C291 1.407 . S
C296 C295 1.384 . S
C296 H323 0.929 . S
C297 O310 1.241 . S
C297 O311 1.273 . S
C298 O312 1.251 1_655 S
C298 O313 1.268 . S
C299 Nd289 2.836 . S
C299 C300 1.498 . S
C299 O314 1.258 . S
C299 O315 1.239 . S
C300 C299 1.498 . S
C300 C301 1.366 . S
C300 C305 1.407 . S
C301 C300 1.366 . S
C301 C302 1.392 . S
C301 H324 0.930 . S
C302 C301 1.392 . S
C302 C303 1.398 . S
C302 H325 0.929 . S
C303 C302 1.398 . S
C303 C304 1.352 . S
C304 C303 1.352 . S
C304 C305 1.384 . S
C304 H326 0.930 . S
C305 C300 1.407 . S
C305 C304 1.384 . S
C305 H327 0.929 . S
C306 O316 1.241 . S
C306 O317 1.273 . S
C307 O318 1.251 1_455 S
C307 O319 1.268 . S
O308 Nd288 2.500 . S
O308 C290 1.258 . S
O309 Nd288 2.492 . S
O309 C290 1.239 . S
O310 Nd288 2.487 1_545 S
O310 C297 1.241 . S
O311 Nd288 2.682 1_545 S
O311 Nd289 2.414 1_455 S
O311 C297 1.273 . S
O312 Nd288 2.410 . S
O312 C298 1.251 1_455 S
O313 Nd289 2.424 1_565 S
O313 C298 1.268 . S
O314 Nd289 2.500 . S
O314 C299 1.258 . S
O315 Nd289 2.492 . S
O315 C299 1.239 . S
O316 Nd289 2.487 1_565 S
O316 C306 1.241 . S
O317 Nd288 2.414 1_655 S
O317 Nd289 2.682 1_565 S
O317 C306 1.273 . S
O318 Nd289 2.410 . S
O318 C307 1.251 1_655 S
O319 Nd288 2.424 1_545 S
O319 C307 1.268 . S
H320 C292 0.930 . S
H321 C293 0.929 . S
H322 C295 0.930 . S
H323 C296 0.929 . S
H324 C301 0.930 . S
H325 C302 0.929 . S
H326 C304 0.930 . S
H327 C305 0.929 . S
Nd328 C330 2.836 . S
Nd328 O348 2.500 . S
Nd328 O349 2.492 . S
Nd328 O350 2.487 1_565 S
Nd328 O351 2.682 1_565 S
Nd328 O352 2.410 1_554 S
Nd328 O357 2.414 1_554 S
Nd328 O359 2.424 1_565 S
Nd329 C339 2.836 . S
Nd329 O351 2.414 1_556 S
Nd329 O353 2.424 1_545 S
Nd329 O354 2.500 . S
Nd329 O355 2.492 . S
Nd329 O356 2.487 1_545 S
Nd329 O357 2.682 1_545 S
Nd329 O358 2.410 1_556 S
C330 Nd328 2.836 . S
C330 C331 1.498 . S
C330 O348 1.258 . S
C330 O349 1.239 . S
C331 C330 1.498 . S
C331 C332 1.366 . S
C331 C336 1.407 . S
C332 C331 1.366 . S
C332 C333 1.392 . S
C332 H360 0.930 . S
C333 C332 1.392 . S
C333 C334 1.398 . S
C333 H361 0.929 . S
C334 C333 1.398 . S
C334 C335 1.352 . S
C335 C334 1.352 . S
C335 C336 1.384 . S
C335 H362 0.930 . S
C336 C331 1.407 . S
C336 C335 1.384 . S
C336 H363 0.929 . S
C337 O350 1.241 . S
C337 O351 1.273 . S
C338 O352 1.251 . S
C338 O353 1.268 . S
C339 Nd329 2.836 . S
C339 C340 1.498 . S
C339 O354 1.258 . S
C339 O355 1.239 . S
C340 C339 1.498 . S
C340 C341 1.366 . S
C340 C345 1.407 . S
C341 C340 1.366 . S
C341 C342 1.392 . S
C341 H364 0.930 . S
C342 C341 1.392 . S
C342 C343 1.398 . S
C342 H365 0.929 . S
C343 C342 1.398 . S
C343 C344 1.352 . S
C344 C343 1.352 . S
C344 C345 1.384 . S
C344 H366 0.930 . S
C345 C340 1.407 . S
C345 C344 1.384 . S
C345 H367 0.929 . S
C346 O356 1.241 . S
C346 O357 1.273 . S
C347 O358 1.251 . S
C347 O359 1.268 . S
O348 Nd328 2.500 . S
O348 C330 1.258 . S
O349 Nd328 2.492 . S
O349 C330 1.239 . S
O350 Nd328 2.487 1_545 S
O350 C337 1.241 . S
O351 Nd328 2.682 1_545 S
O351 Nd329 2.414 1_554 S
O351 C337 1.273 . S
O352 Nd328 2.410 1_556 S
O352 C338 1.251 . S
O353 Nd329 2.424 1_565 S
O353 C338 1.268 . S
O354 Nd329 2.500 . S
O354 C339 1.258 . S
O355 Nd329 2.492 . S
O355 C339 1.239 . S
O356 Nd329 2.487 1_565 S
O356 C346 1.241 . S
O357 Nd328 2.414 1_556 S
O357 Nd329 2.682 1_565 S
O357 C346 1.273 . S
O358 Nd329 2.410 1_554 S
O358 C347 1.251 . S
O359 Nd328 2.424 1_545 S
O359 C347 1.268 . S
H360 C332 0.930 . S
H361 C333 0.929 . S
H362 C335 0.930 . S
H363 C336 0.929 . S
H364 C341 0.930 . S
H365 C342 0.929 . S
H366 C344 0.930 . S
H367 C345 0.929 . S
Nd368 C370 2.836 . S
Nd368 O388 2.500 . S
Nd368 O389 2.492 . S
Nd368 O390 2.487 . S
Nd368 O391 2.682 . S
Nd368 O392 2.410 . S
Nd368 O397 2.414 . S
Nd368 O399 2.424 . S
Nd369 C379 2.836 . S
Nd369 O391 2.414 . S
Nd369 O393 2.424 . S
Nd369 O394 2.500 . S
Nd369 O395 2.492 . S
Nd369 O396 2.487 . S
Nd369 O397 2.682 . S
Nd369 O398 2.410 . S
C370 Nd368 2.836 . S
C370 C371 1.498 . S
C370 O388 1.258 . S
C370 O389 1.239 . S
C371 C370 1.498 . S
C371 C372 1.366 . S
C371 C376 1.407 . S
C372 C371 1.366 . S
C372 C373 1.392 . S
C372 H400 0.930 . S
C373 C372 1.392 . S
C373 C374 1.398 . S
C373 H401 0.929 . S
C374 C373 1.398 . S
C374 C375 1.352 . S
C375 C374 1.352 . S
C375 C376 1.384 . S
C375 H402 0.930 . S
C376 C371 1.407 . S
C376 C375 1.384 . S
C376 H403 0.929 . S
C377 O390 1.241 . S
C377 O391 1.273 . S
C378 O392 1.251 . S
C378 O393 1.268 . S
C379 Nd369 2.836 . S
C379 C380 1.498 . S
C379 O394 1.258 . S
C379 O395 1.239 . S
C380 C379 1.498 . S
C380 C381 1.366 . S
C380 C385 1.407 . S
C381 C380 1.366 . S
C381 C382 1.392 . S
C381 H404 0.930 . S
C382 C381 1.392 . S
C382 C383 1.398 . S
C382 H405 0.929 . S
C383 C382 1.398 . S
C383 C384 1.352 . S
C384 C383 1.352 . S
C384 C385 1.384 . S
C384 H406 0.930 . S
C385 C380 1.407 . S
C385 C384 1.384 . S
C385 H407 0.929 . S
C386 O396 1.241 . S
C386 O397 1.273 . S
C387 O398 1.251 . S
C387 O399 1.268 . S
O388 Nd368 2.500 . S
O388 C370 1.258 . S
O389 Nd368 2.492 . S
O389 C370 1.239 . S
O390 Nd368 2.487 . S
O390 C377 1.241 . S
O391 Nd368 2.682 . S
O391 Nd369 2.414 . S
O391 C377 1.273 . S
O392 Nd368 2.410 . S
O392 C378 1.251 . S
O393 Nd369 2.424 . S
O393 C378 1.268 . S
O394 Nd369 2.500 . S
O394 C379 1.258 . S
O395 Nd369 2.492 . S
O395 C379 1.239 . S
O396 Nd369 2.487 . S
O396 C386 1.241 . S
O397 Nd368 2.414 . S
O397 Nd369 2.682 . S
O397 C386 1.273 . S
O398 Nd369 2.410 . S
O398 C387 1.251 . S
O399 Nd368 2.424 . S
O399 C387 1.268 . S
H400 C372 0.930 . S
H401 C373 0.929 . S
H402 C375 0.930 . S
H403 C376 0.929 . S
H404 C381 0.930 . S
H405 C382 0.929 . S
H406 C384 0.930 . S
H407 C385 0.929 . S
Nd408 C410 2.836 . S
Nd408 O428 2.500 . S
Nd408 O429 2.492 . S
Nd408 O430 2.487 1_655 S
Nd408 O431 2.682 1_655 S
Nd408 O432 2.410 . S
Nd408 O437 2.414 1_554 S
Nd408 O439 2.424 1_655 S
Nd409 C419 2.836 . S
Nd409 O431 2.414 1_556 S
Nd409 O433 2.424 1_455 S
Nd409 O434 2.500 . S
Nd409 O435 2.492 . S
Nd409 O436 2.487 1_455 S
Nd409 O437 2.682 1_455 S
Nd409 O438 2.410 . S
C410 Nd408 2.836 . S
C410 C411 1.498 . S
C410 O428 1.258 . S
C410 O429 1.239 . S
C411 C410 1.498 . S
C411 C412 1.366 . S
C411 C416 1.407 . S
C412 C411 1.366 . S
C412 C413 1.392 . S
C412 H440 0.930 . S
C413 C412 1.392 . S
C413 C414 1.398 . S
C413 H441 0.929 . S
C414 C413 1.398 . S
C414 C415 1.352 . S
C415 C414 1.352 . S
C415 C416 1.384 . S
C415 H442 0.930 . S
C416 C411 1.407 . S
C416 C415 1.384 . S
C416 H443 0.929 . S
C417 O430 1.241 . S
C417 O431 1.273 . S
C418 O432 1.251 1_556 S
C418 O433 1.268 . S
C419 Nd409 2.836 . S
C419 C420 1.498 . S
C419 O434 1.258 . S
C419 O435 1.239 . S
C420 C419 1.498 . S
C420 C421 1.366 . S
C420 C425 1.407 . S
C421 C420 1.366 . S
C421 C422 1.392 . S
C421 H444 0.930 . S
C422 C421 1.392 . S
C422 C423 1.398 . S
C422 H445 0.929 . S
C423 C422 1.398 . S
C423 C424 1.352 . S
C424 C423 1.352 . S
C424 C425 1.384 . S
C424 H446 0.930 . S
C425 C420 1.407 . S
C425 C424 1.384 . S
C425 H447 0.929 . S
C426 O436 1.241 . S
C426 O437 1.273 . S
C427 O438 1.251 1_554 S
C427 O439 1.268 . S
O428 Nd408 2.500 . S
O428 C410 1.258 . S
O429 Nd408 2.492 . S
O429 C410 1.239 . S
O430 Nd408 2.487 1_455 S
O430 C417 1.241 . S
O431 Nd408 2.682 1_455 S
O431 Nd409 2.414 1_554 S
O431 C417 1.273 . S
O432 Nd408 2.410 . S
O432 C418 1.251 1_554 S
O433 Nd409 2.424 1_655 S
O433 C418 1.268 . S
O434 Nd409 2.500 . S
O434 C419 1.258 . S
O435 Nd409 2.492 . S
O435 C419 1.239 . S
O436 Nd409 2.487 1_655 S
O436 C426 1.241 . S
O437 Nd408 2.414 1_556 S
O437 Nd409 2.682 1_655 S
O437 C426 1.273 . S
O438 Nd409 2.410 . S
O438 C427 1.251 1_556 S
O439 Nd408 2.424 1_455 S
O439 C427 1.268 . S
H440 C412 0.930 . S
H441 C413 0.929 . S
H442 C415 0.930 . S
H443 C416 0.929 . S
H444 C421 0.930 . S
H445 C422 0.929 . S
H446 C424 0.930 . S
H447 C425 0.929 . S
C448 C449 1.363 . S
C448 C454 1.379 . S
C448 N456 1.356 . S
C449 C448 1.363 . S
C449 C455 1.363 . S
C450 C451 1.363 . S
C450 C455 1.379 . S
C450 N457 1.356 . S
C451 C450 1.363 . S
C451 C454 1.363 . S
N452 C454 1.356 . S
N452 H464 0.984 1_455 S
N452 H465 0.985 . S
N453 C455 1.356 . S
N453 H458 0.984 . S
N453 H459 0.985 . S
C454 C448 1.379 . S
C454 C451 1.363 . S
C454 N452 1.356 . S
C455 C449 1.363 . S
C455 C450 1.379 . S
C455 N453 1.356 . S
N456 C448 1.356 . S
N456 H462 0.984 . S
N456 H463 0.984 . S
N457 C450 1.356 . S
N457 H460 0.984 . S
N457 H461 0.985 . S
H458 N453 0.984 . S
H459 N453 0.985 . S
H460 N457 0.984 . S
H461 N457 0.985 . S
H462 N456 0.984 . S
H463 N456 0.984 . S
H464 N452 0.984 1_655 S
H465 N452 0.985 . S
C466 C467 1.363 . S
C466 C472 1.379 . S
C466 N474 1.356 . S
C467 C466 1.363 . S
C467 C473 1.363 . S
C468 C469 1.363 . S
C468 C473 1.379 . S
C468 N475 1.356 . S
C469 C468 1.363 . S
C469 C472 1.363 . S
N470 C472 1.356 . S
N470 H482 0.984 . S
N470 H483 0.985 . S
N471 C473 1.356 . S
N471 H476 0.984 . S
N471 H477 0.985 . S
C472 C466 1.379 . S
C472 C469 1.363 . S
C472 N470 1.356 . S
C473 C467 1.363 . S
C473 C468 1.379 . S
C473 N471 1.356 . S
N474 C466 1.356 . S
N474 H480 0.984 . S
N474 H481 0.984 . S
N475 C468 1.356 . S
N475 H478 0.984 . S
N475 H479 0.985 1_556 S
H476 N471 0.984 . S
H477 N471 0.985 . S
H478 N475 0.984 . S
H479 N475 0.985 1_554 S
H480 N474 0.984 . S
H481 N474 0.984 . S
H482 N470 0.984 . S
H483 N470 0.985 . S
C484 C485 1.363 . S
C484 C490 1.379 . S
C484 N492 1.356 . S
C485 C484 1.363 . S
C485 C491 1.363 . S
C486 C487 1.363 . S
C486 C491 1.379 . S
C486 N493 1.356 . S
C487 C486 1.363 . S
C487 C490 1.363 . S
N488 C490 1.356 . S
N488 H500 0.984 . S
N488 H501 0.985 . S
N489 C491 1.356 . S
N489 H494 0.984 . S
N489 H495 0.985 . S
C490 C484 1.379 . S
C490 C487 1.363 . S
C490 N488 1.356 . S
C491 C485 1.363 . S
C491 C486 1.379 . S
C491 N489 1.356 . S
N492 C484 1.356 . S
N492 H498 0.984 . S
N492 H499 0.984 . S
N493 C486 1.356 . S
N493 H496 0.984 . S
N493 H497 0.985 . S
H494 N489 0.984 . S
H495 N489 0.985 . S
H496 N493 0.984 . S
H497 N493 0.985 . S
H498 N492 0.984 . S
H499 N492 0.984 . S
H500 N488 0.984 . S
H501 N488 0.985 . S
C502 C503 1.363 . S
C502 C508 1.379 . S
C502 N510 1.356 . S
C503 C502 1.363 . S
C503 C509 1.363 . S
C504 C505 1.363 . S
C504 C509 1.379 . S
C504 N511 1.356 . S
C505 C504 1.363 . S
C505 C508 1.363 . S
N506 C508 1.356 . S
N506 H518 0.984 . S
N506 H519 0.985 . S
N507 C509 1.356 . S
N507 H512 0.984 . S
N507 H513 0.985 . S
C508 C502 1.379 . S
C508 C505 1.363 . S
C508 N506 1.356 . S
C509 C503 1.363 . S
C509 C504 1.379 . S
C509 N507 1.356 . S
N510 C502 1.356 . S
N510 H516 0.984 . S
N510 H517 0.984 . S
N511 C504 1.356 . S
N511 H514 0.984 . S
N511 H515 0.985 . S
H512 N507 0.984 . S
H513 N507 0.985 . S
H514 N511 0.984 . S
H515 N511 0.985 . S
H516 N510 0.984 . S
H517 N510 0.984 . S
H518 N506 0.984 . S
H519 N506 0.985 . S
C520 C521 1.363 . S
C520 C526 1.379 . S
C520 N528 1.356 1_554 S
C521 C520 1.363 . S
C521 C527 1.363 . S
C522 C523 1.363 . S
C522 C527 1.379 . S
C522 N529 1.356 . S
C523 C522 1.363 . S
C523 C526 1.363 . S
N524 C526 1.356 1_556 S
N524 H536 0.984 . S
N524 H537 0.985 . S
N525 C527 1.356 . S
N525 H530 0.984 . S
N525 H531 0.985 . S
C526 C520 1.379 . S
C526 C523 1.363 . S
C526 N524 1.356 1_554 S
C527 C521 1.363 . S
C527 C522 1.379 . S
C527 N525 1.356 . S
N528 C520 1.356 1_556 S
N528 H534 0.984 . S
N528 H535 0.984 1_556 S
N529 C522 1.356 . S
N529 H532 0.984 . S
N529 H533 0.985 . S
H530 N525 0.984 . S
H531 N525 0.985 . S
H532 N529 0.984 . S
H533 N529 0.985 . S
H534 N528 0.984 . S
H535 N528 0.984 1_554 S
H536 N524 0.984 . S
H537 N524 0.985 . S
C538 C539 1.363 . S
C538 C544 1.379 . S
C538 N546 1.356 . S
C539 C538 1.363 . S
C539 C545 1.363 . S
C540 C541 1.363 . S
C540 C545 1.379 . S
C540 N547 1.356 . S
C541 C540 1.363 . S
C541 C544 1.363 . S
N542 C544 1.356 . S
N542 H554 0.984 . S
N542 H555 0.985 . S
N543 C545 1.356 . S
N543 H548 0.984 . S
N543 H549 0.985 . S
C544 C538 1.379 . S
C544 C541 1.363 . S
C544 N542 1.356 . S
C545 C539 1.363 . S
C545 C540 1.379 . S
C545 N543 1.356 . S
N546 C538 1.356 . S
N546 H552 0.984 . S
N546 H553 0.984 . S
N547 C540 1.356 . S
N547 H550 0.984 . S
N547 H551 0.985 . S
H548 N543 0.984 . S
H549 N543 0.985 . S
H550 N547 0.984 . S
H551 N547 0.985 . S
H552 N546 0.984 . S
H553 N546 0.984 . S
H554 N542 0.984 . S
H555 N542 0.985 . S
C556 C557 1.363 . S
C556 C562 1.379 . S
C556 N564 1.356 . S
C557 C556 1.363 . S
C557 C563 1.363 . S
C558 C559 1.363 . S
C558 C563 1.379 . S
C558 N565 1.356 . S
C559 C558 1.363 . S
C559 C562 1.363 . S
N560 C562 1.356 . S
N560 H572 0.984 . S
N560 H573 0.985 . S
N561 C563 1.356 . S
N561 H566 0.984 . S
N561 H567 0.985 . S
C562 C556 1.379 . S
C562 C559 1.363 . S
C562 N560 1.356 . S
C563 C557 1.363 . S
C563 C558 1.379 . S
C563 N561 1.356 . S
N564 C556 1.356 . S
N564 H570 0.984 . S
N564 H571 0.984 . S
N565 C558 1.356 . S
N565 H568 0.984 . S
N565 H569 0.985 . S
H566 N561 0.984 . S
H567 N561 0.985 . S
H568 N565 0.984 . S
H569 N565 0.985 . S
H570 N564 0.984 . S
H571 N564 0.984 . S
H572 N560 0.984 . S
H573 N560 0.985 . S
C574 C575 1.363 . S
C574 C580 1.379 . S
C574 N582 1.356 . S
C575 C574 1.363 . S
C575 C581 1.363 . S
C576 C577 1.363 . S
C576 C581 1.379 . S
C576 N583 1.356 . S
C577 C576 1.363 . S
C577 C580 1.363 . S
N578 C580 1.356 . S
N578 H590 0.984 . S
N578 H591 0.985 . S
N579 C581 1.356 . S
N579 H584 0.984 . S
N579 H585 0.985 . S
C580 C574 1.379 . S
C580 C577 1.363 . S
C580 N578 1.356 . S
C581 C575 1.363 . S
C581 C576 1.379 . S
C581 N579 1.356 . S
N582 C574 1.356 . S
N582 H588 0.984 . S
N582 H589 0.984 . S
N583 C576 1.356 . S
N583 H586 0.984 . S
N583 H587 0.985 . S
H584 N579 0.984 . S
H585 N579 0.985 . S
H586 N583 0.984 . S
H587 N583 0.985 . S
H588 N582 0.984 . S
H589 N582 0.984 . S
H590 N578 0.984 . S
H591 N578 0.985 . S
C592 C593 1.363 . S
C592 C598 1.379 . S
C592 N600 1.356 . S
C593 C592 1.363 . S
C593 C599 1.363 . S
C594 C595 1.363 . S
C594 C599 1.379 . S
C594 N601 1.356 . S
C595 C594 1.363 . S
C595 C598 1.363 . S
N596 C598 1.356 1_556 S
N596 H608 0.984 . S
N596 H609 0.985 . S
N597 C599 1.356 . S
N597 H602 0.984 . S
N597 H603 0.985 . S
C598 C592 1.379 . S
C598 C595 1.363 . S
C598 N596 1.356 1_554 S
C599 C593 1.363 . S
C599 C594 1.379 . S
C599 N597 1.356 . S
N600 C592 1.356 . S
N600 H606 0.984 1_554 S
N600 H607 0.984 . S
N601 C594 1.356 . S
N601 H604 0.984 . S
N601 H605 0.991 . S
H602 N597 0.984 . S
H603 N597 0.985 . S
H604 N601 0.984 . S
H605 N601 0.991 . S
H606 N600 0.984 1_556 S
H607 N600 0.984 . S
H608 N596 0.984 . S
H609 N596 0.985 . S
C610 C611 1.363 . S
C610 C616 1.379 . S
C610 N618 1.356 . S
C611 C610 1.363 . S
C611 C617 1.363 . S
C612 C613 1.363 . S
C612 C617 1.379 . S
C612 N619 1.356 . S
C613 C612 1.363 . S
C613 C616 1.363 . S
N614 C616 1.356 . S
N614 H626 0.984 . S
N614 H627 0.985 . S
N615 C617 1.356 . S
N615 H620 0.984 . S
N615 H621 0.985 . S
C616 C610 1.379 . S
C616 C613 1.363 . S
C616 N614 1.356 . S
C617 C611 1.363 . S
C617 C612 1.379 . S
C617 N615 1.356 . S
N618 C610 1.356 . S
N618 H624 0.984 . S
N618 H625 0.984 . S
N619 C612 1.356 . S
N619 H622 0.984 . S
N619 H623 0.985 . S
H620 N615 0.984 . S
H621 N615 0.985 . S
H622 N619 0.984 . S
H623 N619 0.985 . S
H624 N618 0.984 . S
H625 N618 0.984 . S
H626 N614 0.984 . S
H627 N614 0.985 . S
C628 C629 1.363 . S
C628 C634 1.379 . S
C628 N636 1.356 . S
C629 C628 1.363 . S
C629 C635 1.363 . S
C630 C631 1.363 . S
C630 C635 1.379 . S
C630 N637 1.356 . S
C631 C630 1.363 . S
C631 C634 1.363 . S
N632 C634 1.356 . S
N632 H644 0.984 . S
N632 H645 0.985 1_655 S
N633 C635 1.356 . S
N633 H638 0.984 . S
N633 H639 0.985 . S
C634 C628 1.379 . S
C634 C631 1.363 . S
C634 N632 1.356 . S
C635 C629 1.363 . S
C635 C630 1.379 . S
C635 N633 1.356 . S
N636 C628 1.356 . S
N636 H642 0.984 . S
N636 H643 0.984 . S
N637 C630 1.356 . S
N637 H640 0.984 . S
N637 H641 0.985 . S
H638 N633 0.984 . S
H639 N633 0.985 . S
H640 N637 0.984 . S
H641 N637 0.985 . S
H642 N636 0.984 . S
H643 N636 0.984 . S
H644 N632 0.984 . S
H645 N632 0.985 1_455 S
C646 C647 1.363 . S
C646 C652 1.379 . S
C646 N654 1.356 . S
C647 C646 1.363 . S
C647 C653 1.363 . S
C648 C649 1.363 . S
C648 C653 1.379 . S
C648 N655 1.356 . S
C649 C648 1.363 . S
C649 C652 1.363 . S
N650 C652 1.356 . S
N650 H662 0.984 . S
N650 H663 0.985 . S
N651 C653 1.356 . S
N651 H656 0.984 . S
N651 H657 0.985 . S
C652 C646 1.379 . S
C652 C649 1.363 . S
C652 N650 1.356 . S
C653 C647 1.363 . S
C653 C648 1.379 . S
C653 N651 1.356 . S
N654 C646 1.356 . S
N654 H660 0.984 . S
N654 H661 0.984 . S
N655 C648 1.356 . S
N655 H658 0.984 . S
N655 H659 0.985 . S
H656 N651 0.984 . S
H657 N651 0.985 . S
H658 N655 0.984 . S
H659 N655 0.985 . S
H660 N654 0.984 . S
H661 N654 0.984 . S
H662 N650 0.984 . S
H663 N650 0.985 . S
C664 C665 1.363 . S
C664 C670 1.379 . S
C664 N672 1.356 . S
C665 C664 1.363 . S
C665 C671 1.363 . S
C666 C667 1.363 . S
C666 C671 1.379 . S
C666 N673 1.356 . S
C667 C666 1.363 . S
C667 C670 1.363 . S
N668 C670 1.356 . S
N668 H680 0.984 . S
N668 H681 0.985 . S
N669 C671 1.356 . S
N669 H674 0.984 . S
N669 H675 0.985 . S
C670 C664 1.379 . S
C670 C667 1.363 . S
C670 N668 1.356 . S
C671 C665 1.363 . S
C671 C666 1.379 . S
C671 N669 1.356 . S
N672 C664 1.356 . S
N672 H678 0.984 . S
N672 H679 0.984 . S
N673 C666 1.356 . S
N673 H676 0.984 . S
N673 H677 0.985 1_565 S
H674 N669 0.984 . S
H675 N669 0.985 . S
H676 N673 0.984 . S
H677 N673 0.985 1_545 S
H678 N672 0.984 . S
H679 N672 0.984 . S
H680 N668 0.984 . S
H681 N668 0.985 . S
C682 C683 1.363 . S
C682 C688 1.379 . S
C682 N690 1.356 . S
C683 C682 1.363 . S
C683 C689 1.363 . S
C684 C685 1.363 . S
C684 C689 1.379 . S
C684 N691 1.356 . S
C685 C684 1.363 . S
C685 C688 1.363 . S
N686 C688 1.356 . S
N686 H698 0.984 . S
N686 H699 0.985 . S
N687 C689 1.356 . S
N687 H692 0.984 . S
N687 H693 0.985 1_554 S
C688 C682 1.379 . S
C688 C685 1.363 . S
C688 N686 1.356 . S
C689 C683 1.363 . S
C689 C684 1.379 . S
C689 N687 1.356 . S
N690 C682 1.356 . S
N690 H696 0.984 . S
N690 H697 0.984 . S
N691 C684 1.356 . S
N691 H694 0.984 . S
N691 H695 0.985 1_554 S
H692 N687 0.984 . S
H693 N687 0.985 1_556 S
H694 N691 0.984 . S
H695 N691 0.985 1_556 S
H696 N690 0.984 . S
H697 N690 0.984 . S
H698 N686 0.984 . S
H699 N686 0.985 . S
C700 C701 1.363 . S
C700 C706 1.379 . S
C700 N708 1.356 . S
C701 C700 1.363 . S
C701 C707 1.363 . S
C702 C703 1.363 . S
C702 C707 1.379 . S
C702 N709 1.356 . S
C703 C702 1.363 . S
C703 C706 1.363 . S
N704 C706 1.356 . S
N704 H716 0.984 . S
N704 H717 0.985 . S
N705 C707 1.356 . S
N705 H710 0.984 . S
N705 H711 0.985 . S
C706 C700 1.379 . S
C706 C703 1.363 . S
C706 N704 1.356 . S
C707 C701 1.363 . S
C707 C702 1.379 . S
C707 N705 1.356 . S
N708 C700 1.356 . S
N708 H714 0.984 . S
N708 H715 0.984 . S
N709 C702 1.356 . S
N709 H712 0.984 . S
N709 H713 0.985 . S
H710 N705 0.984 . S
H711 N705 0.985 . S
H712 N709 0.984 . S
H713 N709 0.985 . S
H714 N708 0.984 . S
H715 N708 0.984 . S
H716 N704 0.984 . S
H717 N704 0.985 . S
C718 C719 1.363 . S
C718 C724 1.379 . S
C718 N726 1.356 . S
C719 C718 1.363 . S
C719 C725 1.363 . S
C720 C721 1.363 . S
C720 C725 1.379 . S
C720 N727 1.356 . S
C721 C720 1.363 . S
C721 C724 1.363 . S
N722 C724 1.356 . S
N722 H734 0.984 . S
N722 H735 0.985 . S
N723 C725 1.356 . S
N723 H728 0.984 . S
N723 H729 0.985 . S
C724 C718 1.379 . S
C724 C721 1.363 . S
C724 N722 1.356 . S
C725 C719 1.363 . S
C725 C720 1.379 . S
C725 N723 1.356 . S
N726 C718 1.356 . S
N726 H732 0.984 . S
N726 H733 0.984 . S
N727 C720 1.356 . S
N727 H730 0.984 . S
N727 H731 0.985 . S
H728 N723 0.984 . S
H729 N723 0.985 . S
H730 N727 0.984 . S
H731 N727 0.985 . S
H732 N726 0.984 . S
H733 N726 0.984 . S
H734 N722 0.984 . S
H735 N722 0.985 . S
C736 C737 1.363 . S
C736 C742 1.379 . S
C736 N744 1.356 . S
C737 C736 1.363 . S
C737 C743 1.363 . S
C738 C739 1.363 . S
C738 C743 1.379 . S
C738 N745 1.356 . S
C739 C738 1.363 . S
C739 C742 1.363 . S
N740 C742 1.356 1_554 S
N740 H752 0.984 . S
N740 H753 0.985 . S
N741 C743 1.356 . S
N741 H746 0.984 . S
N741 H747 0.985 . S
C742 C736 1.379 . S
C742 C739 1.363 . S
C742 N740 1.356 1_556 S
C743 C737 1.363 . S
C743 C738 1.379 . S
C743 N741 1.356 . S
N744 C736 1.356 . S
N744 H750 0.984 1_556 S
N744 H751 0.984 . S
N745 C738 1.356 . S
N745 H748 0.984 . S
N745 H749 0.983 1_565 S
H746 N741 0.984 . S
H747 N741 0.985 . S
H748 N745 0.984 . S
H749 N745 0.983 1_545 S
H750 N744 0.984 1_554 S
H751 N744 0.984 . S
H752 N740 0.984 . S
H753 N740 0.985 . S
C754 C755 1.363 . S
C754 C760 1.379 . S
C754 N762 1.356 . S
C755 C754 1.363 . S
C755 C761 1.363 . S
C756 C757 1.363 . S
C756 C761 1.379 . S
C756 N763 1.356 . S
C757 C756 1.363 . S
C757 C760 1.363 . S
N758 C760 1.356 . S
N758 H770 0.984 . S
N758 H771 0.985 . S
N759 C761 1.356 . S
N759 H764 0.984 . S
N759 H765 0.985 . S
C760 C754 1.379 . S
C760 C757 1.363 . S
C760 N758 1.356 . S
C761 C755 1.363 . S
C761 C756 1.379 . S
C761 N759 1.356 . S
N762 C754 1.356 . S
N762 H768 0.984 . S
N762 H769 0.984 . S
N763 C756 1.356 . S
N763 H766 0.984 . S
N763 H767 0.985 . S
H764 N759 0.984 . S
H765 N759 0.985 . S
H766 N763 0.984 . S
H767 N763 0.985 . S
H768 N762 0.984 . S
H769 N762 0.984 . S
H770 N758 0.984 . S
H771 N758 0.985 . S
C772 C773 1.363 . S
C772 C778 1.379 . S
C772 N780 1.356 . S
C773 C772 1.363 . S
C773 C779 1.363 . S
C774 C775 1.363 . S
C774 C779 1.379 . S
C774 N781 1.356 . S
C775 C774 1.363 . S
C775 C778 1.363 . S
N776 C778 1.356 . S
N776 H788 0.984 . S
N776 H789 0.985 . S
N777 C779 1.356 . S
N777 H782 0.984 . S
N777 H783 0.985 . S
C778 C772 1.379 . S
C778 C775 1.363 . S
C778 N776 1.356 . S
C779 C773 1.363 . S
C779 C774 1.379 . S
C779 N777 1.356 . S
N780 C772 1.356 . S
N780 H786 0.984 . S
N780 H787 0.984 . S
N781 C774 1.356 . S
N781 H784 0.984 . S
N781 H785 0.985 . S
H782 N777 0.984 . S
H783 N777 0.985 . S
H784 N781 0.984 . S
H785 N781 0.985 . S
H786 N780 0.984 . S
H787 N780 0.984 . S
H788 N776 0.984 . S
H789 N776 0.985 . S
C790 C791 1.363 . S
C790 C796 1.379 . S
C790 N798 1.356 . S
C791 C790 1.363 . S
C791 C797 1.363 . S
C792 C793 1.363 . S
C792 C797 1.379 . S
C792 N799 1.356 . S
C793 C792 1.363 . S
C793 C796 1.363 . S
N794 C796 1.356 . S
N794 H806 0.984 . S
N794 H807 0.985 . S
N795 C797 1.356 . S
N795 H800 0.984 . S
N795 H801 0.985 . S
C796 C790 1.379 . S
C796 C793 1.363 . S
C796 N794 1.356 . S
C797 C791 1.363 . S
C797 C792 1.379 . S
C797 N795 1.356 . S
N798 C790 1.356 . S
N798 H804 0.984 . S
N798 H805 0.984 . S
N799 C792 1.356 . S
N799 H802 0.984 . S
N799 H803 0.985 . S
H800 N795 0.984 . S
H801 N795 0.985 . S
H802 N799 0.984 . S
H803 N799 0.985 . S
H804 N798 0.984 . S
H805 N798 0.984 . S
H806 N794 0.984 . S
H807 N794 0.985 . S
C808 C809 1.363 . S
C808 C814 1.379 . S
C808 N816 1.356 1_556 S
C809 C808 1.363 . S
C809 C815 1.363 . S
C810 C811 1.363 . S
C810 C815 1.379 . S
C810 N817 1.356 . S
C811 C810 1.363 . S
C811 C814 1.363 . S
N812 C814 1.356 1_554 S
N812 H824 0.984 . S
N812 H825 0.985 . S
N813 C815 1.356 . S
N813 H818 0.984 . S
N813 H819 0.985 . S
C814 C808 1.379 . S
C814 C811 1.363 . S
C814 N812 1.356 1_556 S
C815 C809 1.363 . S
C815 C810 1.379 . S
C815 N813 1.356 . S
N816 C808 1.356 1_554 S
N816 H822 0.984 . S
N816 H823 0.984 1_554 S
N817 C810 1.356 . S
N817 H820 0.984 . S
N817 H821 0.985 . S
H818 N813 0.984 . S
H819 N813 0.985 . S
H820 N817 0.984 . S
H821 N817 0.985 . S
H822 N816 0.984 . S
H823 N816 0.984 1_556 S
H824 N812 0.984 . S
H825 N812 0.985 . S
C826 C827 1.363 . S
C826 C832 1.379 . S
C826 N834 1.356 . S
C827 C826 1.363 . S
C827 C833 1.363 . S
C828 C829 1.363 . S
C828 C833 1.379 . S
C828 N835 1.356 . S
C829 C828 1.363 . S
C829 C832 1.363 . S
N830 C832 1.356 . S
N830 H842 0.984 . S
N830 H843 0.985 . S
N831 C833 1.356 . S
N831 H836 0.984 . S
N831 H837 0.985 . S
C832 C826 1.379 . S
C832 C829 1.363 . S
C832 N830 1.356 . S
C833 C827 1.363 . S
C833 C828 1.379 . S
C833 N831 1.356 . S
N834 C826 1.356 . S
N834 H840 0.984 . S
N834 H841 0.984 . S
N835 C828 1.356 . S
N835 H838 0.984 . S
N835 H839 0.985 . S
H836 N831 0.984 . S
H837 N831 0.985 . S
H838 N835 0.984 . S
H839 N835 0.985 . S
H840 N834 0.984 . S
H841 N834 0.984 . S
H842 N830 0.984 . S
H843 N830 0.985 . S
C844 C845 1.363 . S
C844 C850 1.379 . S
C844 N852 1.356 . S
C845 C844 1.363 . S
C845 C851 1.363 . S
C846 C847 1.363 . S
C846 C851 1.379 . S
C846 N853 1.356 . S
C847 C846 1.363 . S
C847 C850 1.363 . S
N848 C850 1.356 . S
N848 H860 0.984 . S
N848 H861 0.985 . S
N849 C851 1.356 . S
N849 H854 0.984 . S
N849 H855 0.985 . S
C850 C844 1.379 . S
C850 C847 1.363 . S
C850 N848 1.356 . S
C851 C845 1.363 . S
C851 C846 1.379 . S
C851 N849 1.356 . S
N852 C844 1.356 . S
N852 H858 0.984 . S
N852 H859 0.984 . S
N853 C846 1.356 . S
N853 H856 0.984 1_455 S
N853 H857 0.985 . S
H854 N849 0.984 . S
H855 N849 0.985 . S
H856 N853 0.984 1_655 S
H857 N853 0.985 . S
H858 N852 0.984 . S
H859 N852 0.984 . S
H860 N848 0.984 . S
H861 N848 0.985 . S
C862 C863 1.363 . S
C862 C868 1.379 . S
C862 N870 1.356 . S
C863 C862 1.363 . S
C863 C869 1.363 . S
C864 C865 1.363 . S
C864 C869 1.379 . S
C864 N871 1.356 . S
C865 C864 1.363 . S
C865 C868 1.363 . S
N866 C868 1.356 . S
N866 H878 0.984 . S
N866 H879 0.985 . S
N867 C869 1.356 . S
N867 H872 0.984 . S
N867 H873 0.985 . S
C868 C862 1.379 . S
C868 C865 1.363 . S
C868 N866 1.356 . S
C869 C863 1.363 . S
C869 C864 1.379 . S
C869 N867 1.356 . S
N870 C862 1.356 . S
N870 H876 0.984 . S
N870 H877 0.984 . S
N871 C864 1.356 . S
N871 H874 0.984 . S
N871 H875 0.985 . S
H872 N867 0.984 . S
H873 N867 0.985 . S
H874 N871 0.984 . S
H875 N871 0.985 . S
H876 N870 0.984 . S
H877 N870 0.984 . S
H878 N866 0.984 . S
H879 N866 0.985 . S
C449 C1 2.861 . S
C451 C307 2.839 . S
C467 C67 2.517 . S
C469 C338 2.636 . S
C487 C377 1.501 . S
C485 C97 1.478 . S
C503 C133 0.716 . S
C505 C414 0.717 . S
C523 C337 2.787 . S
C521 C25 2.855 . S
C541 C294 1.452 . S
C539 C37 1.437 . S
C559 C426 1.548 . S
C557 C103 1.569 . S
C577 C383 1.319 . S
C575 C109 1.304 . S
C593 C31 2.301 . S
C595 C427 2.324 . S
C613 C343 1.328 . S
C611 C73 1.319 . S
C629 C139 0.641 . S
C631 C306 0.679 . S
C647 C61 2.531 . S
C649 C378 2.540 . S
C667 C298 2.848 . S
C665 C175 2.881 . S
C683 C181 2.517 . S
C685 C347 2.624 . S
C701 C247 1.529 . S
C703 C386 1.512 . S
C719 C277 0.706 . S
C721 C423 0.704 . S
C737 C145 2.873 . S
C739 C346 2.778 . S
C757 C303 1.461 . S
C755 C211 1.438 . S
C775 C417 1.537 . S
C773 C217 1.578 . S
C793 C374 1.334 . S
C791 C283 1.347 . S
C809 C169 2.304 . S
C811 C418 2.318 . S
C829 C334 1.321 . S
C827 C241 1.317 . S
C847 C297 0.683 . S
C845 C253 0.648 . S
C863 C205 2.522 . S
C865 C387 2.546 . S
