# Generated by pormake.
# Topology pth, (4,4)-cn, num edge types: 1
# Building blocks:
#     Node 0, Type 0, BuildingBlock: TATPOV_clean_sbu_0, # of connection points: 4
#     Node 1, Type 0, BuildingBlock: TATPOV_clean_sbu_0, # of connection points: 4
#     Node 2, Type 0, BuildingBlock: TATPOV_clean_sbu_0, # of connection points: 4
#     Node 3, Type 1, BuildingBlock: AZAVOO_clean_linker_0, # of connection points: 4
#     Node 4, Type 1, BuildingBlock: AZAVOO_clean_linker_0, # of connection points: 4
#     Node 5, Type 1, BuildingBlock: AZAVOO_clean_linker_0, # of connection points: 4
#     Edge 6, Type (0, 1), BuildingBlock: KIFKEQ_clean_linker_1, # of connection points: 2
#     Edge 7, Type (0, 1), BuildingBlock: KIFKEQ_clean_linker_1, # of connection points: 2
#     Edge 8, Type (0, 1), BuildingBlock: KIFKEQ_clean_linker_1, # of connection points: 2
#     Edge 9, Type (0, 1), BuildingBlock: KIFKEQ_clean_linker_1, # of connection points: 2
#     Edge 10, Type (0, 1), BuildingBlock: KIFKEQ_clean_linker_1, # of connection points: 2
#     Edge 11, Type (0, 1), BuildingBlock: KIFKEQ_clean_linker_1, # of connection points: 2
#     Edge 12, Type (0, 1), BuildingBlock: KIFKEQ_clean_linker_1, # of connection points: 2
#     Edge 13, Type (0, 1), BuildingBlock: KIFKEQ_clean_linker_1, # of connection points: 2
#     Edge 14, Type (0, 1), BuildingBlock: KIFKEQ_clean_linker_1, # of connection points: 2
#     Edge 15, Type (0, 1), BuildingBlock: KIFKEQ_clean_linker_1, # of connection points: 2
#     Edge 16, Type (0, 1), BuildingBlock: KIFKEQ_clean_linker_1, # of connection points: 2
#     Edge 17, Type (0, 1), BuildingBlock: KIFKEQ_clean_linker_1, # of connection points: 2
# Relax obj value: 0.150
# Max RMSD: 0.230
# Mean RMSD: 0.204
data_MOF--net-pth--node1-TATPOV_clean_sbu_0--node2-AZAVOO_clean_linker_0--edge1-KIFKEQ_clean_linker_1
_symmetry_space_group_name_H-M    P1
_symmetry_Int_Tables_number       1
_symmetry_cell_setting            triclinic
loop_
_symmetry_equiv_pos_as_xyz
'x, y, z'
_cell_length_a     27.0011
_cell_length_b     27.017495
_cell_length_c     71.14003
_cell_angle_alpha  93.604605
_cell_angle_beta   91.878687
_cell_angle_gamma 121.15778
loop_
_atom_site_label
_atom_site_type_symbol
_atom_site_fract_x
_atom_site_fract_y
_atom_site_fract_z
_atom_type_partial_charge
Zn0 Zn 0.16387 0.98128 -0.0045 0.0
Zn1 Zn 0.09356 0.0825 0.02627 0.0
O2 O 0.1017 0.03056 0.04389 0.0
O3 O 0.13496 0.00681 0.01979 0.0
O4 O 0.06441 0.12546 0.04117 0.0
O5 O 0.167 0.05847 0.00689 0.0
O6 O 0.17142 0.13884 0.01642 0.0
C7 C 0.12037 -0.00039 0.03682 0.0
C8 C 0.0538 0.00159 -0.00542 0.0
O9 O 0.03722 0.03144 0.00392 0.0
O10 O 0.10231 0.00764 0.00031 0.0
C11 C 0.02779 0.09854 0.05308 0.0
O12 O 0.00614 0.04251 0.05357 0.0
C13 C 0.194 0.11405 0.00753 0.0
Zn14 Zn 0.11476 0.069 0.3253 0.0
Zn15 Zn 0.03167 0.04838 0.34737 0.0
O16 O 0.10478 0.07527 0.36515 0.0
O17 O 0.17614 0.10156 0.34657 0.0
O18 O 0.97438 0.04046 0.3662 0.0
O19 O 0.09889 0.11962 0.31031 0.0
O20 O 0.0326 0.10759 0.32975 0.0
C21 C 0.15834 0.09514 0.36297 0.0
C22 C 0.02647 0.94773 0.32434 0.0
O23 O 0.00057 0.96534 0.33498 0.0
O24 O 0.07492 0.98363 0.31846 0.0
C25 C 0.9449 -0.00514 0.37459 0.0
O26 O 0.94897 0.94919 0.37021 0.0
C27 C 0.06101 0.1306 0.31556 0.0
Zn28 Zn 0.11237 0.94831 0.70348 0.0
Zn29 Zn 0.05718 -0.00902 0.68665 0.0
O30 O 0.10048 0.9739 0.66598 0.0
O31 O 0.13813 0.9289 0.67981 0.0
O32 O 0.0055 0.01131 0.67197 0.0
O33 O 0.04416 0.88694 0.71479 0.0
O34 O -0.0027 0.92454 0.70191 0.0
C35 C 0.12968 0.9489 0.66528 0.0
C36 C 0.1571 0.07115 0.71454 0.0
O37 O 0.1164 0.06487 0.70316 0.0
O38 O 0.16274 0.02824 0.71709 0.0
C39 C 0.01982 0.03772 0.65708 0.0
O40 O 0.07161 0.05543 0.65126 0.0
C41 C -0.00201 0.88737 0.71198 0.0
H42 H 0.06119 0.47954 0.06399 0.0
H43 H 0.11659 0.92965 0.21351 0.0
H44 H 0.96345 0.43215 0.16284 0.0
H45 H 0.95484 0.34371 0.14828 0.0
H46 H 0.12724 0.39995 0.17219 0.0
H47 H 0.13554 0.48924 0.18663 0.0
H48 H -0.004 0.53432 0.1364 0.0
H49 H 0.00788 0.5089 0.10393 0.0
H50 H 0.17363 0.53225 0.12219 0.0
H51 H 0.16147 0.55832 0.15457 0.0
H52 H -0.00217 0.64346 0.15669 0.0
H53 H 0.01303 0.70401 0.1309 0.0
H54 H 0.18711 0.73663 0.128 0.0
H55 H 0.17229 0.67818 0.15458 0.0
H56 H 0.96848 0.64057 0.1974 0.0
H57 H 0.96983 0.73058 0.20557 0.0
H58 H 0.156 0.82869 0.20238 0.0
H59 H 0.15413 0.7382 0.19453 0.0
H60 H 0.93753 0.53059 0.21487 0.0
H61 H 0.90197 0.5517 0.24381 0.0
H62 H 0.07774 0.68452 0.26341 0.0
H63 H 0.11275 0.66398 0.23433 0.0
H64 H 0.9589 0.42649 0.2037 0.0
H65 H 0.95562 0.36164 0.22683 0.0
H66 H 0.12105 0.49966 0.25317 0.0
H67 H 0.12513 0.56291 0.22944 0.0
O68 O 0.05744 0.48977 0.07686 0.0
O69 O 0.14217 0.5019 0.08698 0.0
O70 O 0.01934 0.84071 0.21238 0.0
O71 O 0.11487 0.8933 0.21045 0.0
C72 C 0.05805 0.52403 0.18123 0.0
C73 C 0.07025 0.56353 0.16749 0.0
C74 C 0.07275 0.6163 0.17228 0.0
C75 C 0.06039 0.62819 0.1906 0.0
C76 C 0.04719 0.5878 0.20416 0.0
C77 C 0.04833 0.53693 0.19972 0.0
C78 C 0.05023 0.46687 0.17557 0.0
C79 C -0.00129 0.42456 0.16532 0.0
C80 C -0.00626 0.37392 0.15716 0.0
C81 C 0.04047 0.36504 0.15908 0.0
C82 C 0.09076 0.40598 0.17042 0.0
C83 C 0.09556 0.45671 0.17868 0.0
C84 C 0.0779 0.54825 0.14779 0.0
C85 C 0.03493 0.53415 0.13332 0.0
C86 C 0.04181 0.51953 0.11481 0.0
C87 C 0.09173 0.51854 0.11046 0.0
C88 C 0.13468 0.53259 0.12505 0.0
C89 C 0.12779 0.54737 0.14355 0.0
C90 C 0.08405 0.65677 0.15758 0.0
C91 C 0.03959 0.66458 0.15072 0.0
C92 C 0.04811 0.69842 0.13576 0.0
C93 C 0.10105 0.72449 0.12717 0.0
C94 C 0.14597 0.71745 0.13434 0.0
C95 C 0.13756 0.68397 0.14947 0.0
C96 C 0.06125 0.68286 0.19554 0.0
C97 C 0.00955 0.68149 0.19865 0.0
C98 C 0.01045 0.733 0.20323 0.0
C99 C 0.06308 0.78687 0.20465 0.0
C100 C 0.11476 0.788 0.20142 0.0
C101 C 0.11382 0.7364 0.19693 0.0
C102 C 0.02753 0.59627 0.22255 0.0
C103 C 0.96833 0.56353 0.22561 0.0
C104 C 0.94814 0.57538 0.24207 0.0
C105 C 0.9872 0.61927 0.25581 0.0
C106 C 0.04692 0.64975 0.25314 0.0
C107 C 0.06693 0.63856 0.23654 0.0
C108 C 0.04271 0.49899 0.21472 0.0
C109 C -0.00567 0.44255 0.21449 0.0
C110 C -0.00775 0.40586 0.22785 0.0
C111 C 0.03834 0.42531 0.24177 0.0
C112 C 0.08537 0.48292 0.24244 0.0
C113 C 0.08762 0.51927 0.22899 0.0
C114 C 0.09887 0.50294 0.09077 0.0
C115 C 0.06421 0.84176 0.2094 0.0
H116 H 0.56973 0.98848 0.39442 0.0
H117 H 0.26941 0.10214 0.5505 0.0
H118 H 0.58733 0.93372 0.50056 0.0
H119 H 0.65278 0.91939 0.48125 0.0
H120 H 0.7749 0.10497 0.48726 0.0
H121 H 0.71032 0.11805 0.50744 0.0
H122 H 0.50453 0.95079 0.47219 0.0
H123 H 0.51951 0.94929 0.43844 0.0
H124 H 0.65731 0.1299 0.44679 0.0
H125 H 0.64145 0.13079 0.48047 0.0
H126 H 0.40983 0.96542 0.48859 0.0
H127 H 0.34879 0.97923 0.46588 0.0
H128 H 0.47962 0.1623 0.4686 0.0
H129 H 0.54089 0.14718 0.49058 0.0
H130 H 0.40468 0.95711 0.53429 0.0
H131 H 0.319 0.9582 0.54388 0.0
H132 H 0.40514 0.14127 0.5361 0.0
H133 H 0.49092 0.13974 0.52686 0.0
H134 H 0.49655 0.95247 0.55875 0.0
H135 H 0.43674 0.94245 0.58499 0.0
H136 H 0.49709 0.12531 0.58703 0.0
H137 H 0.55746 0.13512 0.56095 0.0
H138 H 0.60831 0.95027 0.53779 0.0
H139 H 0.68041 0.95183 0.56003 0.0
H140 H 0.73532 0.12757 0.58104 0.0
H141 H 0.66402 0.12618 0.55844 0.0
O142 O 0.56477 0.98989 0.40781 0.0
O143 O 0.63635 0.08227 0.41296 0.0
O144 O 0.26102 0.0068 0.5511 0.0
O145 O 0.30263 0.10051 0.54675 0.0
C146 C 0.59869 0.03623 0.51251 0.0
C147 C 0.56239 0.04166 0.49909 0.0
C148 C 0.51637 0.04751 0.50497 0.0
C149 C 0.50586 0.04728 0.52418 0.0
C150 C 0.54363 0.04449 0.53779 0.0
C151 C 0.59035 0.03903 0.53201 0.0
C152 C 0.64445 0.02682 0.50552 0.0
C153 C 0.62937 0.97089 0.49834 0.0
C154 C 0.66641 0.96299 0.48702 0.0
C155 C 0.71869 0.01112 0.48233 0.0
C156 C 0.73535 0.06679 0.49067 0.0
C157 C 0.69859 0.07448 0.50226 0.0
C158 C 0.57215 0.04077 0.47871 0.0
C159 C 0.53794 0.98989 0.46667 0.0
C160 C 0.54662 0.98921 0.44742 0.0
C161 C 0.58967 0.03948 0.43991 0.0
C162 C 0.62386 0.09042 0.4521 0.0
C163 C 0.615 0.09105 0.47133 0.0
C164 C 0.47971 0.05526 0.49102 0.0
C165 C 0.42517 0.0083 0.48411 0.0
C166 C 0.39024 0.01648 0.47131 0.0
C167 C 0.40927 0.07193 0.46538 0.0
C168 C 0.46399 0.11885 0.47256 0.0
C169 C 0.499 0.11046 0.48517 0.0
C170 C 0.45394 0.04835 0.52993 0.0
C171 C 0.40497 -0.00258 0.53473 0.0
C172 C 0.35605 -0.00188 0.54014 0.0
C173 C 0.35513 0.0498 0.54068 0.0
C174 C 0.40433 0.10072 0.53578 0.0
C175 C 0.45335 0.1 0.53048 0.0
C176 C 0.53067 0.04432 0.55784 0.0
C177 C 0.49953 -0.009 0.56559 0.0
C178 C 0.46501 0.98529 0.58049 0.0
C179 C 0.46133 0.03288 0.58766 0.0
C180 C 0.49859 0.08784 0.58152 0.0
C181 C 0.53358 0.09363 0.56681 0.0
C182 C 0.6314 0.03838 0.54628 0.0
C183 C 0.63616 0.98924 0.54709 0.0
C184 C 0.67726 0.99016 0.55982 0.0
C185 C 0.71372 0.03996 0.5722 0.0
C186 C 0.70759 0.08848 0.57176 0.0
C187 C 0.66699 0.08778 0.55885 0.0
C188 C 0.59855 0.03873 0.41944 0.0
C189 C 0.30332 0.05081 0.54649 0.0
H190 H 0.68114 0.60287 0.98095 0.0
H191 H 0.29956 0.12268 0.82886 0.0
H192 H 0.64439 0.63024 0.87496 0.0
H193 H 0.71961 0.7204 0.89264 0.0
H194 H 0.84209 0.66385 0.88672 0.0
H195 H 0.76652 0.57409 0.8686 0.0
H196 H 0.57725 0.53957 0.90327 0.0
H197 H 0.60864 0.57042 0.9368 0.0
H198 H 0.74217 0.52863 0.93081 0.0
H199 H 0.70978 0.4973 0.8973 0.0
H200 H 0.47848 0.43377 0.88755 0.0
H201 H 0.4273 0.37531 0.91325 0.0
H202 H 0.54144 0.30792 0.91437 0.0
H203 H 0.59381 0.368 0.88889 0.0
H204 H 0.44664 0.41239 0.84128 0.0
H205 H 0.35601 0.32058 0.83198 0.0
H206 H 0.44248 0.22695 0.84302 0.0
H207 H 0.53312 0.3192 0.85195 0.0
H208 H 0.53255 0.51829 0.82044 0.0
H209 H 0.47409 0.48199 0.79018 0.0
H210 H 0.51326 0.34577 0.78408 0.0
H211 H 0.57286 0.38353 0.8139 0.0
H212 H 0.63677 0.62165 0.83708 0.0
H213 H 0.68727 0.68364 0.81203 0.0
H214 H 0.74995 0.57038 0.79514 0.0
H215 H 0.6987 0.50851 0.81999 0.0
O216 O 0.66938 0.59029 0.96771 0.0
O217 O 0.73828 0.56954 0.96381 0.0
O218 O 0.29317 0.20995 0.82609 0.0
O219 O 0.33498 0.15964 0.83228 0.0
C220 C 0.65169 0.53722 0.86402 0.0
C221 C 0.62218 0.49815 0.87759 0.0
C222 C 0.57251 0.4435 0.87194 0.0
C223 C 0.55137 0.42828 0.8528 0.0
C224 C 0.58111 0.46751 0.83921 0.0
C225 C 0.63181 0.52161 0.8448 0.0
C226 C 0.70034 0.59609 0.87051 0.0
C227 C 0.68803 0.63834 0.87692 0.0
C228 C 0.73079 0.68938 0.88717 0.0
C229 C 0.78638 0.69863 0.89129 0.0
C230 C 0.79973 0.65798 0.88366 0.0
C231 C 0.75679 0.60684 0.87332 0.0
C232 C 0.64117 0.51608 0.89796 0.0
C233 C 0.61306 0.53685 0.90928 0.0
C234 C 0.63119 0.55456 0.9284 0.0
C235 C 0.67794 0.552 0.93649 0.0
C236 C 0.70602 0.53113 0.92503 0.0
C237 C 0.68766 0.51322 0.90591 0.0
C238 C 0.53955 0.40481 0.88644 0.0
C239 C 0.4922 0.40617 0.89328 0.0
C240 C 0.46334 0.37315 0.90793 0.0
C241 C 0.48093 0.33767 0.91568 0.0
C242 C 0.5274 0.33509 0.9085 0.0
C243 C 0.55705 0.36909 0.89404 0.0
C244 C 0.49643 0.37239 0.84721 0.0
C245 C 0.44597 0.37201 0.84157 0.0
C246 C 0.39425 0.31951 0.83632 0.0
C247 C 0.39198 0.26638 0.83678 0.0
C248 C 0.44269 0.26703 0.84252 0.0
C249 C 0.49448 0.31962 0.84766 0.0
C250 C 0.55643 0.45314 0.81936 0.0
C251 C 0.53008 0.48188 0.81218 0.0
C252 C 0.49641 0.46088 0.795 0.0
C253 C 0.48857 0.41074 0.78481 0.0
C254 C 0.5189 0.38493 0.79141 0.0
C255 C 0.55266 0.40608 0.80853 0.0
C256 C 0.66455 0.56097 0.83038 0.0
C257 C 0.66195 0.61074 0.82806 0.0
C258 C 0.69072 0.64597 0.81376 0.0
C259 C 0.7223 0.63171 0.80152 0.0
C260 C 0.72514 0.582 0.80409 0.0
C261 C 0.69639 0.5469 0.81837 0.0
C262 C 0.6972 0.57107 0.9568 0.0
C263 C 0.337 0.21045 0.83137 0.0
H264 H 0.97817 0.06065 0.08618 0.0
H265 H 0.05975 0.21222 0.05491 0.0
H266 H 0.98109 0.12075 0.11383 0.0
H267 H 0.06171 0.27172 0.08237 0.0
H268 H 0.1267 0.37362 0.13833 0.0
H269 H 0.119 0.30408 0.11326 0.0
H270 H 0.94307 0.1828 0.12596 0.0
H271 H 0.95146 0.25194 0.15164 0.0
C272 C -0.00438 0.1065 0.08508 0.0
C273 C 0.01947 0.13196 0.06848 0.0
C274 C -0.00261 0.14083 0.10092 0.0
C275 C 0.02294 0.20099 0.10034 0.0
C276 C 0.04334 0.22566 0.08336 0.0
C277 C 0.0417 0.19151 0.06759 0.0
C278 C 0.08705 0.33142 0.13622 0.0
C279 C 0.03954 0.31827 0.14686 0.0
C280 C 0.08229 0.29201 0.12165 0.0
C281 C 0.02993 0.23878 0.1174 0.0
C282 C 0.98379 0.22374 0.12889 0.0
C283 C 0.98855 0.26328 0.14351 0.0
H284 H 0.86301 0.90158 0.39155 0.0
H285 H 0.94848 0.08844 0.39305 0.0
H286 H 0.80867 0.90272 0.41828 0.0
H287 H 0.8946 0.08936 0.4198 0.0
H288 H 0.83722 0.07019 0.48058 0.0
H289 H 0.89128 0.06481 0.45447 0.0
H290 H 0.73144 0.93024 0.42435 0.0
H291 H 0.67694 0.93694 0.44994 0.0
C292 C 0.87012 0.94282 0.39755 0.0
C293 C 0.91001 -0.00508 0.39019 0.0
C294 C 0.83898 0.9434 0.41281 0.0
C295 C 0.84788 -0.00383 0.42116 0.0
C296 C 0.88752 0.04817 0.41376 0.0
C297 C 0.91797 0.04753 0.39835 0.0
C298 C 0.81349 0.03956 0.46839 0.0
C299 C 0.75262 0.00404 0.46744 0.0
C300 C 0.8445 0.03643 0.45347 0.0
C301 C 0.81543 -0.00279 0.43741 0.0
C302 C 0.75493 0.96042 0.43667 0.0
C303 C 0.72382 0.96408 0.45143 0.0
H304 H 0.96936 0.78011 0.72053 0.0
H305 H 0.91193 0.90251 0.72507 0.0
H306 H 0.89369 0.71712 0.74017 0.0
H307 H 0.83572 0.83908 0.74504 0.0
H308 H 0.78493 0.75057 0.80298 0.0
H309 H 0.84156 0.81046 0.77846 0.0
H310 H 0.78536 0.65582 0.74098 0.0
H311 H 0.72803 0.59591 0.76531 0.0
C312 C 0.9398 0.79301 0.72549 0.0
C313 C 0.94648 0.84616 0.72134 0.0
C314 C 0.8963 0.75681 0.73666 0.0
C315 C 0.85895 0.7733 0.74415 0.0
C316 C 0.8642 0.82556 0.73948 0.0
C317 C 0.90736 0.86152 0.72797 0.0
C318 C 0.78364 0.72941 0.78937 0.0
C319 C 0.75259 0.66846 0.78617 0.0
C320 C 0.81595 0.76371 0.77533 0.0
C321 C 0.81796 0.73769 0.75787 0.0
C322 C 0.78503 0.67693 0.7544 0.0
C323 C 0.75255 0.64269 0.76837 0.0
H324 H 0.19101 0.95449 0.03441 0.0
H325 H 0.04792 0.94336 0.06339 0.0
H326 H 0.19087 0.88249 0.05417 0.0
H327 H 0.04684 0.87117 0.08244 0.0
H328 H 0.02184 0.70006 0.09775 0.0
H329 H 0.02952 0.76261 0.07334 0.0
H330 H 0.20586 0.88784 0.09445 0.0
H331 H 0.19788 0.82648 0.11949 0.0
C332 C 0.1593 0.93618 0.04481 0.0
C333 C 0.11967 0.95444 0.0475 0.0
C334 C 0.15934 0.8954 0.05606 0.0
C335 C 0.1186 0.87142 0.06965 0.0
C336 C 0.0783 0.8888 0.07193 0.0
C337 C 0.07917 0.93026 0.06111 0.0
C338 C 0.06235 0.74085 0.09723 0.0
C339 C 0.10881 0.75886 0.11084 0.0
C340 C 0.06686 0.77618 0.08312 0.0
C341 C 0.11822 0.82974 0.08212 0.0
C342 C 0.16607 0.84629 0.09488 0.0
C343 C 0.16136 0.8112 0.10919 0.0
H344 H 0.1407 0.09518 0.40078 0.0
H345 H 0.26521 0.10925 0.3615 0.0
H346 H 0.2025 0.09524 0.42669 0.0
H347 H 0.32489 0.10638 0.38693 0.0
H348 H 0.44561 0.14243 0.43661 0.0
H349 H 0.38716 0.15723 0.41375 0.0
H350 H 0.23158 0.0329 0.43863 0.0
H351 H 0.29072 0.02153 0.46255 0.0
C352 C 0.18144 0.09885 0.39771 0.0
C353 C 0.19819 0.10258 0.37911 0.0
C354 C 0.21655 0.09824 0.41251 0.0
C355 C 0.26871 0.1007 0.40893 0.0
C356 C 0.28577 0.10568 0.39035 0.0
C357 C 0.25127 0.10713 0.37569 0.0
C358 C 0.39905 0.11913 0.43751 0.0
C359 C 0.37297 0.08079 0.45147 0.0
C360 C 0.36535 0.12699 0.42419 0.0
C361 C 0.30451 0.09591 0.4242 0.0
C362 C 0.27833 0.05806 0.4383 0.0
C363 C 0.31221 0.05078 0.45183 0.0
H364 H 0.17003 0.17789 0.70987 0.0
H365 H 0.24607 0.09538 0.7397 0.0
H366 H 0.25166 0.27366 0.72289 0.0
H367 H 0.32667 0.18982 0.75206 0.0
H368 H 0.49228 0.35564 0.75172 0.0
H369 H 0.40823 0.2806 0.73163 0.0
H370 H 0.29617 0.32004 0.76249 0.0
H371 H 0.37956 0.39385 0.78302 0.0
C372 C 0.20365 0.18006 0.71925 0.0
C373 C 0.20172 0.129 0.72365 0.0
C374 C 0.25028 0.23466 0.72654 0.0
C375 C 0.29565 0.23853 0.73802 0.0
C376 C 0.29268 0.18768 0.74285 0.0
C377 C 0.24621 0.13361 0.73585 0.0
C378 C 0.45 0.34949 0.75389 0.0
C379 C 0.44241 0.37973 0.76921 0.0
C380 C 0.40211 0.30695 0.74232 0.0
C381 C 0.34611 0.29463 0.74573 0.0
C382 C 0.33915 0.32931 0.75957 0.0
C383 C 0.38702 0.37158 0.77129 0.0
H384 H 0.91029 0.00921 0.66549 0.0
H385 H 0.03179 0.07979 0.62248 0.0
H386 H 0.83714 0.01242 0.64536 0.0
H387 H 0.95868 0.08314 0.60246 0.0
H388 H 0.78993 0.00567 0.56378 0.0
H389 H 0.86494 0.00887 0.58485 0.0
H390 H 0.81573 0.08247 0.6309 0.0
H391 H 0.74012 0.07873 0.60979 0.0
C392 C 0.92161 0.02589 0.65182 0.0
C393 C 0.97685 0.04392 0.64556 0.0
C394 C 0.87973 0.02794 0.64033 0.0
C395 C 0.89201 0.04763 0.62227 0.0
C396 C 0.94767 0.06697 0.6162 0.0
C397 C 0.98966 0.06535 0.62773 0.0
C398 C 0.79492 0.02221 0.57843 0.0
C399 C 0.75906 0.04179 0.58515 0.0
C400 C 0.83825 0.02461 0.59045 0.0
C401 C 0.8464 0.04614 0.60952 0.0
C402 C 0.8103 0.06541 0.61629 0.0
C403 C 0.76732 0.06362 0.6042 0.0
H404 H 0.07545 0.92938 0.97237 0.0
H405 H 0.95121 0.98317 0.97946 0.0
H406 H 0.01263 0.85903 0.94619 0.0
H407 H 0.88925 0.91389 0.95319 0.0
H408 H 0.76247 0.73181 0.92484 0.0
H409 H 0.82952 0.80808 0.94865 0.0
H410 H 0.97124 0.84987 0.91353 0.0
H411 H 0.90353 0.77279 0.8895 0.0
C412 C 0.03507 0.92657 0.96824 0.0
C413 C 0.01799 0.96137 0.97807 0.0
C414 C -0.00068 0.8866 0.95318 0.0
C415 C 0.9459 0.88075 0.94774 0.0
C416 C 0.92975 0.91679 0.95726 0.0
C417 C 0.96537 0.95662 0.97227 0.0
C418 C 0.80774 0.75795 0.92201 0.0
C419 C 0.8277 0.74695 0.9052 0.0
C420 C 0.84618 0.80158 0.93568 0.0
C421 C 0.90554 0.83526 0.93288 0.0
C422 C 0.92572 0.82429 0.91609 0.0
C423 C 0.88708 0.7804 0.90235 0.0
H424 H 0.09169 0.89987 0.32211 0.0
H425 H 0.91327 0.85578 0.31766 0.0
H426 H 0.06198 0.80124 0.31162 0.0
H427 H 0.88255 0.75472 0.30686 0.0
H428 H 0.90757 0.65141 0.25325 0.0
H429 H 0.89891 0.71643 0.2763 0.0
H430 H 0.0105 0.69901 0.31681 0.0
H431 H 0.02085 0.63558 0.29336 0.0
C432 C 0.04573 0.86851 0.31912 0.0
C433 C 0.00483 0.88552 0.32027 0.0
C434 C 0.02849 0.81151 0.3134 0.0
C435 C 0.96976 0.76986 0.30849 0.0
C436 C 0.92812 0.78598 0.3106 0.0
C437 C 0.94556 0.84354 0.3167 0.0
C438 C 0.92813 0.65947 0.26736 0.0
C439 C 0.96602 0.63991 0.27147 0.0
C440 C 0.92292 0.69652 0.28063 0.0
C441 C 0.95537 0.7141 0.29817 0.0
C442 C 0.9861 0.68722 0.30321 0.0
C443 C 0.99208 0.65099 0.28984 0.0
H444 H 0.15966 0.872 0.65235 0.0
H445 H 0.17983 0.03739 0.64275 0.0
H446 H 0.23705 0.89115 0.6319 0.0
H447 H 0.25958 0.05849 0.62321 0.0
H448 H 0.38611 0.06895 0.58092 0.0
H449 H 0.29749 0.04252 0.59617 0.0
H450 H 0.33803 0.94943 0.63513 0.0
H451 H 0.42481 0.97311 0.61893 0.0
C452 C 0.17999 0.91198 0.64551 0.0
C453 C 0.16395 0.95325 0.64912 0.0
C454 C 0.22505 0.9235 0.63407 0.0
C455 C 0.25599 0.97718 0.62634 0.0
C456 C 0.23686 0.01662 0.62884 0.0
C457 C 0.19087 0.00448 0.63999 0.0
C458 C 0.37611 0.04315 0.59284 0.0
C459 C 0.41221 0.02304 0.59878 0.0
C460 C 0.32528 0.02799 0.60161 0.0
C461 C 0.30993 -0.00678 0.6168 0.0
C462 C 0.34733 0.97478 0.62312 0.0
C463 C 0.39755 0.98896 0.61406 0.0
H464 H 0.26132 0.07784 0.99081 0.0
H465 H 0.24082 0.22574 -0.00044 0.0
H466 H 0.34092 0.13234 0.9709 0.0
H467 H 0.31761 0.27884 0.97916 0.0
H468 H 0.47663 0.38062 0.9505 0.0
H469 H 0.41691 0.32662 0.97542 0.0
H470 H 0.35437 0.16572 0.94035 0.0
H471 H 0.41702 0.22028 0.91596 0.0
C472 C 0.27399 0.12201 0.98853 0.0
C473 C 0.2449 0.14754 -0.0033 0.0
C474 C 0.31932 0.15313 0.97705 0.0
C475 C 0.33585 0.21008 0.97339 0.0
C476 C 0.30723 0.23569 0.98195 0.0
C477 C 0.2627 0.20499 -0.00642 0.0
C478 C 0.45085 0.3336 0.9484 0.0
C479 C 0.45073 0.3043 0.93143 0.0
C480 C 0.41632 0.30264 0.96254 0.0
C481 C 0.37986 0.2418 0.95978 0.0
C482 C 0.38217 0.21241 0.94307 0.0
C483 C 0.41769 0.24348 0.92905 0.0
H484 H -0.00178 0.18147 0.32531 0.0
H485 H 0.10291 0.1718 0.2822 0.0
H486 H 0.99065 0.25456 0.30871 0.0
H487 H 0.09459 0.24315 0.26574 0.0
H488 H 0.1314 0.41718 0.25261 0.0
H489 H 0.13359 0.34708 0.27175 0.0
H490 H 0.95016 0.26838 0.27835 0.0
H491 H 0.94832 0.34071 0.25972 0.0
C492 C 0.0191 0.19447 0.31226 0.0
C493 C 0.05175 0.17135 0.30521 0.0
C494 C 0.01468 0.23616 0.30276 0.0
C495 C 0.0429 0.25529 0.28611 0.0
C496 C 0.07363 0.23047 0.27879 0.0
C497 C 0.07811 0.18923 0.28822 0.0
C498 C 0.09168 0.38587 0.25845 0.0
C499 C 0.03964 0.38457 0.25458 0.0
C500 C 0.09281 0.34514 0.26923 0.0
C501 C 0.04186 0.30168 0.27633 0.0
C502 C 0.9901 0.30141 0.27308 0.0
C503 C 0.98897 0.34242 0.26226 0.0
loop_
_geom_bond_atom_site_label_1
_geom_bond_atom_site_label_2
_geom_bond_distance
_geom_bond_site_symmetry_2
_ccdc_geom_bond_type
Zn0 O3 2.031 1_545 S
Zn0 O5 2.049 1_554 S
Zn0 O10 2.067 1_544 S
Zn1 O2 1.962 . S
Zn1 O4 1.986 . S
Zn1 O6 1.996 . S
Zn1 O9 1.943 . S
O2 Zn1 1.962 . S
O2 C7 1.254 1_545 S
O3 Zn0 2.031 1_565 S
O3 C7 1.269 . S
O4 Zn1 1.986 . S
O4 C11 1.262 . S
O5 Zn0 2.049 1_556 S
O5 C13 1.260 1_556 S
O6 Zn1 1.996 . S
O6 C13 1.257 . S
C7 O2 1.254 1_565 S
C7 O3 1.269 . S
C8 O9 1.249 1_565 S
C8 O10 1.270 1_554 S
O9 Zn1 1.943 . S
O9 C8 1.249 1_545 S
O10 Zn0 2.067 1_566 S
O10 C8 1.270 1_556 S
C11 O4 1.262 . S
C11 O12 1.232 . S
O12 C11 1.232 . S
C13 O5 1.260 1_554 S
C13 O6 1.257 . S
Zn14 O17 2.031 . S
Zn14 O19 2.049 . S
Zn14 O24 2.067 1_545 S
Zn15 O16 1.962 . S
Zn15 O18 1.986 1_455 S
Zn15 O20 1.996 . S
Zn15 O23 1.943 1_445 S
O16 Zn15 1.962 . S
O16 C21 1.254 . S
O17 Zn14 2.031 . S
O17 C21 1.269 . S
O18 Zn15 1.986 1_655 S
O18 C25 1.262 . S
O19 Zn14 2.049 . S
O19 C27 1.260 . S
O20 Zn15 1.996 . S
O20 C27 1.257 . S
C21 O16 1.254 . S
C21 O17 1.269 . S
C22 O23 1.249 1_455 S
C22 O24 1.270 . S
O23 Zn15 1.943 1_665 S
O23 C22 1.249 1_655 S
O24 Zn14 2.067 1_565 S
O24 C22 1.270 . S
C25 O18 1.262 . S
C25 O26 1.232 1_545 S
O26 C25 1.232 1_565 S
C27 O19 1.260 . S
C27 O20 1.257 . S
Zn28 O31 2.031 1_565 S
Zn28 O33 2.049 . S
Zn28 O38 2.067 1_565 S
Zn29 O30 1.975 . S
Zn29 O32 1.986 . S
Zn29 O34 1.996 1_545 S
Zn29 O37 1.943 . S
O30 Zn29 1.975 . S
O30 C35 1.247 . S
O31 Zn28 2.031 1_545 S
O31 C35 1.269 . S
O32 Zn29 1.986 . S
O32 C39 1.262 . S
O33 Zn28 2.049 . S
O33 C41 1.260 . S
O34 Zn29 1.996 1_565 S
O34 C41 1.257 . S
C35 O30 1.247 . S
C35 O31 1.269 . S
C36 O37 1.249 . S
C36 O38 1.270 . S
O37 Zn29 1.943 . S
O37 C36 1.249 . S
O38 Zn28 2.067 1_545 S
O38 C36 1.270 . S
C39 O32 1.262 . S
C39 O40 1.232 . S
O40 C39 1.232 . S
C41 O33 1.260 . S
C41 O34 1.257 . S
H42 O68 0.856 . S
H43 O71 0.854 . S
H44 C79 0.930 1_655 S
H45 C80 0.930 1_655 S
H46 C82 0.930 . S
H47 C83 0.930 . S
H48 C85 0.931 . S
H49 C86 0.930 . S
H50 C88 0.930 . S
H51 C89 0.929 . S
H52 C91 0.930 . S
H53 C92 0.931 . S
H54 C94 0.930 . S
H55 C95 0.929 . S
H56 C97 0.931 1_655 S
H57 C98 0.930 1_655 S
H58 C100 0.930 . S
H59 C101 0.932 . S
H60 C103 0.930 . S
H61 C104 0.929 . S
H62 C106 0.931 . S
H63 C107 0.930 . S
H64 C109 0.929 1_655 S
H65 C110 0.931 1_655 S
H66 C112 0.930 . S
H67 C113 0.929 . S
O68 H42 0.856 . S
O68 C114 1.300 . S
O69 C114 1.209 . S
O70 C115 1.199 . S
O71 H43 0.854 . S
O71 C115 1.297 . S
C72 C73 1.404 . S
C72 C77 1.397 . S
C72 C78 1.492 . S
C73 C72 1.404 . S
C73 C74 1.396 . S
C73 C84 1.492 . S
C74 C73 1.396 . S
C74 C75 1.397 . S
C74 C90 1.509 . S
C75 C74 1.397 . S
C75 C76 1.412 . S
C75 C96 1.485 . S
C76 C75 1.412 . S
C76 C77 1.388 . S
C76 C102 1.490 . S
C77 C72 1.397 . S
C77 C76 1.388 . S
C77 C108 1.519 . S
C78 C72 1.492 . S
C78 C79 1.363 . S
C78 C83 1.390 . S
C79 H44 0.930 1_455 S
C79 C78 1.363 . S
C79 C80 1.372 . S
C80 H45 0.930 1_455 S
C80 C79 1.372 . S
C80 C81 1.383 . S
C81 C80 1.383 . S
C81 C82 1.395 . S
C82 H46 0.930 . S
C82 C81 1.395 . S
C82 C83 1.362 . S
C83 H47 0.930 . S
C83 C78 1.390 . S
C83 C82 1.362 . S
C84 C73 1.492 . S
C84 C85 1.377 . S
C84 C89 1.397 . S
C85 H48 0.931 . S
C85 C84 1.377 . S
C85 C86 1.376 . S
C86 H49 0.930 . S
C86 C85 1.376 . S
C86 C87 1.376 . S
C87 C86 1.376 . S
C87 C88 1.378 . S
C87 C114 1.486 . S
C88 H50 0.930 . S
C88 C87 1.378 . S
C88 C89 1.376 . S
C89 H51 0.929 . S
C89 C84 1.397 . S
C89 C88 1.376 . S
C90 C74 1.509 . S
C90 C91 1.391 . S
C90 C95 1.386 . S
C91 H52 0.930 . S
C91 C90 1.391 . S
C91 C92 1.375 . S
C92 H53 0.931 . S
C92 C91 1.375 . S
C92 C93 1.375 . S
C93 C92 1.375 . S
C93 C94 1.361 . S
C94 H54 0.930 . S
C94 C93 1.361 . S
C94 C95 1.399 . S
C95 H55 0.929 . S
C95 C90 1.386 . S
C95 C94 1.399 . S
C96 C75 1.485 . S
C96 C97 1.394 . S
C96 C101 1.360 . S
C97 H56 0.931 1_455 S
C97 C96 1.394 . S
C97 C98 1.372 . S
C98 H57 0.930 1_455 S
C98 C97 1.372 . S
C98 C99 1.397 . S
C99 C98 1.397 . S
C99 C100 1.390 . S
C99 C115 1.476 . S
C100 H58 0.930 . S
C100 C99 1.390 . S
C100 C101 1.366 . S
C101 H59 0.932 . S
C101 C96 1.360 . S
C101 C100 1.366 . S
C102 C76 1.490 . S
C102 C103 1.380 1_455 S
C102 C107 1.386 . S
C103 H60 0.930 . S
C103 C102 1.380 1_655 S
C103 C104 1.381 . S
C104 H61 0.929 . S
C104 C103 1.381 . S
C104 C105 1.371 1_655 S
C105 C104 1.371 1_455 S
C105 C106 1.380 . S
C106 H62 0.931 . S
C106 C105 1.380 . S
C106 C107 1.387 . S
C107 H63 0.930 . S
C107 C102 1.386 . S
C107 C106 1.387 . S
C108 C77 1.519 . S
C108 C109 1.377 . S
C108 C113 1.361 . S
C109 H64 0.929 1_455 S
C109 C108 1.377 . S
C109 C110 1.386 . S
C110 H65 0.931 1_455 S
C110 C109 1.386 . S
C110 C111 1.363 . S
C111 C110 1.363 . S
C111 C112 1.385 . S
C112 H66 0.930 . S
C112 C111 1.385 . S
C112 C113 1.396 . S
C113 H67 0.929 . S
C113 C108 1.361 . S
C113 C112 1.396 . S
C114 O68 1.300 . S
C114 O69 1.209 . S
C114 C87 1.486 . S
C115 O70 1.199 . S
C115 O71 1.297 . S
C115 C99 1.476 . S
H116 O142 0.856 . S
H117 O145 0.854 . S
H118 C153 0.930 . S
H119 C154 0.930 . S
H120 C156 0.930 . S
H121 C157 0.930 . S
H122 C159 0.931 1_565 S
H123 C160 0.930 1_565 S
H124 C162 0.930 . S
H125 C163 0.929 . S
H126 C165 0.930 1_565 S
H127 C166 0.931 1_565 S
H128 C168 0.930 . S
H129 C169 0.929 . S
H130 C171 0.931 1_565 S
H131 C172 0.930 1_565 S
H132 C174 0.930 . S
H133 C175 0.932 . S
H134 C177 0.930 . S
H135 C178 0.929 . S
H136 C180 0.931 . S
H137 C181 0.930 . S
H138 C183 0.916 1_565 S
H139 C184 0.931 1_565 S
H140 C186 0.930 . S
H141 C187 0.929 . S
O142 H116 0.856 . S
O142 C188 1.300 . S
O143 C188 1.209 . S
O144 C189 1.199 . S
O145 H117 0.854 . S
O145 C189 1.297 . S
C146 C147 1.404 . S
C146 C151 1.397 . S
C146 C152 1.492 . S
C147 C146 1.404 . S
C147 C148 1.396 . S
C147 C158 1.492 . S
C148 C147 1.396 . S
C148 C149 1.397 . S
C148 C164 1.509 . S
C149 C148 1.397 . S
C149 C150 1.412 . S
C149 C170 1.485 . S
C150 C149 1.412 . S
C150 C151 1.388 . S
C150 C176 1.490 . S
C151 C146 1.397 . S
C151 C150 1.388 . S
C151 C182 1.519 . S
C152 C146 1.492 . S
C152 C153 1.363 1_545 S
C152 C157 1.390 . S
C153 H118 0.930 . S
C153 C152 1.363 1_565 S
C153 C154 1.372 . S
C154 H119 0.930 . S
C154 C153 1.372 . S
C154 C155 1.383 1_565 S
C155 C154 1.383 1_545 S
C155 C156 1.395 . S
C156 H120 0.930 . S
C156 C155 1.395 . S
C156 C157 1.362 . S
C157 H121 0.930 . S
C157 C152 1.390 . S
C157 C156 1.362 . S
C158 C147 1.492 . S
C158 C159 1.377 . S
C158 C163 1.397 . S
C159 H122 0.931 1_545 S
C159 C158 1.377 . S
C159 C160 1.376 . S
C160 H123 0.930 1_545 S
C160 C159 1.376 . S
C160 C161 1.376 . S
C161 C160 1.376 . S
C161 C162 1.378 . S
C161 C188 1.486 . S
C162 H124 0.930 . S
C162 C161 1.378 . S
C162 C163 1.376 . S
C163 H125 0.929 . S
C163 C158 1.397 . S
C163 C162 1.376 . S
C164 C148 1.509 . S
C164 C165 1.391 . S
C164 C169 1.386 . S
C165 H126 0.930 1_545 S
C165 C164 1.391 . S
C165 C166 1.375 . S
C166 H127 0.931 1_545 S
C166 C165 1.375 . S
C166 C167 1.375 . S
C167 C166 1.375 . S
C167 C168 1.361 . S
C168 H128 0.930 . S
C168 C167 1.361 . S
C168 C169 1.399 . S
C169 H129 0.929 . S
C169 C164 1.386 . S
C169 C168 1.399 . S
C170 C149 1.485 . S
C170 C171 1.394 . S
C170 C175 1.360 . S
C171 H130 0.931 1_545 S
C171 C170 1.394 . S
C171 C172 1.372 . S
C172 H131 0.930 1_545 S
C172 C171 1.372 . S
C172 C173 1.397 . S
C173 C172 1.397 . S
C173 C174 1.390 . S
C173 C189 1.476 . S
C174 H132 0.930 . S
C174 C173 1.390 . S
C174 C175 1.366 . S
C175 H133 0.932 . S
C175 C170 1.360 . S
C175 C174 1.366 . S
C176 C150 1.490 . S
C176 C177 1.380 1_545 S
C176 C181 1.386 . S
C177 H134 0.930 . S
C177 C176 1.380 1_565 S
C177 C178 1.381 . S
C178 H135 0.929 . S
C178 C177 1.381 . S
C178 C179 1.371 1_565 S
C179 C178 1.371 1_545 S
C179 C180 1.380 . S
C180 H136 0.931 . S
C180 C179 1.380 . S
C180 C181 1.387 . S
C181 H137 0.930 . S
C181 C176 1.386 . S
C181 C180 1.387 . S
C182 C151 1.519 . S
C182 C183 1.397 . S
C182 C187 1.361 . S
C183 H138 0.916 1_545 S
C183 C182 1.397 . S
C183 C184 1.379 . S
C184 H139 0.931 1_545 S
C184 C183 1.379 . S
C184 C185 1.363 . S
C185 C184 1.363 . S
C185 C186 1.385 . S
C186 H140 0.930 . S
C186 C185 1.385 . S
C186 C187 1.396 . S
C187 H141 0.929 . S
C187 C182 1.361 . S
C187 C186 1.396 . S
C188 O142 1.300 . S
C188 O143 1.209 . S
C188 C161 1.486 . S
C189 O144 1.199 . S
C189 O145 1.297 . S
C189 C173 1.476 . S
H190 O216 0.856 . S
H191 O219 0.854 . S
H192 C227 0.930 . S
H193 C228 0.930 . S
H194 C230 0.930 . S
H195 C231 0.930 . S
H196 C233 0.931 . S
H197 C234 0.930 . S
H198 C236 0.930 . S
H199 C237 0.929 . S
H200 C239 0.930 . S
H201 C240 0.931 . S
H202 C242 0.930 . S
H203 C243 0.929 . S
H204 C245 0.931 . S
H205 C246 0.930 . S
H206 C248 0.930 . S
H207 C249 0.932 . S
H208 C251 0.930 . S
H209 C252 0.929 . S
H210 C254 0.931 . S
H211 C255 0.930 . S
H212 C257 0.929 . S
H213 C258 0.931 . S
H214 C260 0.930 . S
H215 C261 0.929 . S
O216 H190 0.856 . S
O216 C262 1.300 . S
O217 C262 1.209 . S
O218 C263 1.199 . S
O219 H191 0.854 . S
O219 C263 1.297 . S
C220 C221 1.404 . S
C220 C225 1.397 . S
C220 C226 1.492 . S
C221 C220 1.404 . S
C221 C222 1.396 . S
C221 C232 1.492 . S
C222 C221 1.396 . S
C222 C223 1.397 . S
C222 C238 1.509 . S
C223 C222 1.397 . S
C223 C224 1.412 . S
C223 C244 1.485 . S
C224 C223 1.412 . S
C224 C225 1.388 . S
C224 C250 1.490 . S
C225 C220 1.397 . S
C225 C224 1.388 . S
C225 C256 1.519 . S
C226 C220 1.492 . S
C226 C227 1.363 . S
C226 C231 1.390 . S
C227 H192 0.930 . S
C227 C226 1.363 . S
C227 C228 1.372 . S
C228 H193 0.930 . S
C228 C227 1.372 . S
C228 C229 1.383 . S
C229 C228 1.383 . S
C229 C230 1.395 . S
C230 H194 0.930 . S
C230 C229 1.395 . S
C230 C231 1.362 . S
C231 H195 0.930 . S
C231 C226 1.390 . S
C231 C230 1.362 . S
C232 C221 1.492 . S
C232 C233 1.377 . S
C232 C237 1.397 . S
C233 H196 0.931 . S
C233 C232 1.377 . S
C233 C234 1.376 . S
C234 H197 0.930 . S
C234 C233 1.376 . S
C234 C235 1.376 . S
C235 C234 1.376 . S
C235 C236 1.378 . S
C235 C262 1.486 . S
C236 H198 0.930 . S
C236 C235 1.378 . S
C236 C237 1.376 . S
C237 H199 0.929 . S
C237 C232 1.397 . S
C237 C236 1.376 . S
C238 C222 1.509 . S
C238 C239 1.391 . S
C238 C243 1.386 . S
C239 H200 0.930 . S
C239 C238 1.391 . S
C239 C240 1.375 . S
C240 H201 0.931 . S
C240 C239 1.375 . S
C240 C241 1.375 . S
C241 C240 1.375 . S
C241 C242 1.361 . S
C242 H202 0.930 . S
C242 C241 1.361 . S
C242 C243 1.399 . S
C243 H203 0.929 . S
C243 C238 1.386 . S
C243 C242 1.399 . S
C244 C223 1.485 . S
C244 C245 1.394 . S
C244 C249 1.360 . S
C245 H204 0.931 . S
C245 C244 1.394 . S
C245 C246 1.372 . S
C246 H205 0.930 . S
C246 C245 1.372 . S
C246 C247 1.397 . S
C247 C246 1.397 . S
C247 C248 1.390 . S
C247 C263 1.476 . S
C248 H206 0.930 . S
C248 C247 1.390 . S
C248 C249 1.366 . S
C249 H207 0.932 . S
C249 C244 1.360 . S
C249 C248 1.366 . S
C250 C224 1.490 . S
C250 C251 1.380 . S
C250 C255 1.386 . S
C251 H208 0.930 . S
C251 C250 1.380 . S
C251 C252 1.381 . S
C252 H209 0.929 . S
C252 C251 1.381 . S
C252 C253 1.371 . S
C253 C252 1.371 . S
C253 C254 1.380 . S
C254 H210 0.931 . S
C254 C253 1.380 . S
C254 C255 1.387 . S
C255 H211 0.930 . S
C255 C250 1.386 . S
C255 C254 1.387 . S
C256 C225 1.519 . S
C256 C257 1.377 . S
C256 C261 1.361 . S
C257 H212 0.929 . S
C257 C256 1.377 . S
C257 C258 1.386 . S
C258 H213 0.931 . S
C258 C257 1.386 . S
C258 C259 1.363 . S
C259 C258 1.363 . S
C259 C260 1.385 . S
C260 H214 0.930 . S
C260 C259 1.385 . S
C260 C261 1.396 . S
C261 H215 0.929 . S
C261 C256 1.361 . S
C261 C260 1.396 . S
C262 O216 1.300 . S
C262 O217 1.209 . S
C262 C235 1.486 . S
C263 O218 1.199 . S
C263 O219 1.297 . S
C263 C247 1.476 . S
H264 C272 0.950 . S
H265 C277 0.950 . S
H266 C274 0.950 . S
H267 C276 0.950 . S
H268 C278 0.950 . S
H269 C280 0.950 . S
H270 C282 0.950 . S
H271 C283 0.950 . S
C272 H264 0.950 . S
C272 C273 1.386 . S
C272 C274 1.391 . S
C273 C272 1.386 . S
C273 C277 1.393 . S
C274 H266 0.950 . S
C274 C272 1.391 . S
C274 C275 1.400 . S
C275 C274 1.400 . S
C275 C276 1.398 . S
C275 C281 1.491 . S
C276 H267 0.950 . S
C276 C275 1.398 . S
C276 C277 1.391 . S
C277 H265 0.950 . S
C277 C273 1.393 . S
C277 C276 1.391 . S
C278 H268 0.950 . S
C278 C279 1.386 . S
C278 C280 1.391 . S
C279 C278 1.386 . S
C279 C283 1.393 . S
C280 H269 0.950 . S
C280 C278 1.391 . S
C280 C281 1.400 . S
C281 C275 1.491 . S
C281 C280 1.400 . S
C281 C282 1.398 . S
C282 H270 0.950 . S
C282 C281 1.398 . S
C282 C283 1.391 . S
C283 H271 0.950 . S
C283 C279 1.393 . S
C283 C282 1.391 . S
H284 C292 0.950 . S
H285 C297 0.950 . S
H286 C294 0.950 . S
H287 C296 0.950 . S
H288 C298 0.950 . S
H289 C300 0.950 . S
H290 C302 0.950 . S
H291 C303 0.950 . S
C292 H284 0.950 . S
C292 C293 1.386 . S
C292 C294 1.391 . S
C293 C292 1.386 . S
C293 C297 1.393 1_565 S
C294 H286 0.950 . S
C294 C292 1.391 . S
C294 C295 1.400 1_565 S
C295 C294 1.400 1_545 S
C295 C296 1.398 . S
C295 C301 1.491 . S
C296 H287 0.950 . S
C296 C295 1.398 . S
C296 C297 1.391 . S
C297 H285 0.950 . S
C297 C293 1.393 1_545 S
C297 C296 1.391 . S
C298 H288 0.950 . S
C298 C299 1.386 . S
C298 C300 1.391 . S
C299 C298 1.386 . S
C299 C303 1.393 1_545 S
C300 H289 0.950 . S
C300 C298 1.391 . S
C300 C301 1.400 . S
C301 C295 1.491 . S
C301 C300 1.400 . S
C301 C302 1.398 1_545 S
C302 H290 0.950 . S
C302 C301 1.398 1_565 S
C302 C303 1.391 . S
C303 H291 0.950 . S
C303 C299 1.393 1_565 S
C303 C302 1.391 . S
H304 C312 0.950 . S
H305 C317 0.950 1_455 S
H306 C314 0.950 . S
H307 C316 0.950 . S
H308 C318 0.950 . S
H309 C320 0.950 . S
H310 C322 0.950 . S
H311 C323 0.950 . S
C312 H304 0.950 . S
C312 C313 1.386 . S
C312 C314 1.391 . S
C313 C312 1.386 . S
C313 C317 1.393 . S
C314 H306 0.950 . S
C314 C312 1.391 . S
C314 C315 1.400 . S
C315 C314 1.400 . S
C315 C316 1.398 . S
C315 C321 1.491 . S
C316 H307 0.950 . S
C316 C315 1.398 . S
C316 C317 1.391 . S
C317 H305 0.950 1_655 S
C317 C313 1.393 . S
C317 C316 1.391 . S
C318 H308 0.950 . S
C318 C319 1.386 . S
C318 C320 1.391 . S
C319 C318 1.386 . S
C319 C323 1.393 . S
C320 H309 0.950 . S
C320 C318 1.391 . S
C320 C321 1.400 . S
C321 C315 1.491 . S
C321 C320 1.400 . S
C321 C322 1.398 . S
C322 H310 0.950 . S
C322 C321 1.398 . S
C322 C323 1.391 . S
C323 H311 0.950 . S
C323 C319 1.393 . S
C323 C322 1.391 . S
H324 C332 0.950 1_545 S
H325 C337 0.950 . S
H326 C334 0.950 . S
H327 C336 0.950 . S
H328 C338 0.950 . S
H329 C340 0.950 . S
H330 C342 0.950 . S
H331 C343 0.950 . S
C332 H324 0.950 1_565 S
C332 C333 1.386 . S
C332 C334 1.391 . S
C333 C332 1.386 . S
C333 C337 1.393 . S
C334 H326 0.950 . S
C334 C332 1.391 . S
C334 C335 1.400 . S
C335 C334 1.400 . S
C335 C336 1.398 . S
C335 C341 1.491 . S
C336 H327 0.950 . S
C336 C335 1.398 . S
C336 C337 1.391 . S
C337 H325 0.950 . S
C337 C333 1.393 . S
C337 C336 1.391 . S
C338 H328 0.950 . S
C338 C339 1.386 . S
C338 C340 1.391 . S
C339 C338 1.386 . S
C339 C343 1.393 . S
C340 H329 0.950 . S
C340 C338 1.391 . S
C340 C341 1.400 . S
C341 C335 1.491 . S
C341 C340 1.400 . S
C341 C342 1.398 . S
C342 H330 0.950 . S
C342 C341 1.398 . S
C342 C343 1.391 . S
C343 H331 0.950 . S
C343 C339 1.393 . S
C343 C342 1.391 . S
H344 C352 0.950 . S
H345 C357 0.950 . S
H346 C354 0.950 . S
H347 C356 0.950 . S
H348 C358 0.950 . S
H349 C360 0.950 . S
H350 C362 0.950 . S
H351 C363 0.950 . S
C352 H344 0.950 . S
C352 C353 1.386 . S
C352 C354 1.391 . S
C353 C352 1.386 . S
C353 C357 1.393 . S
C354 H346 0.950 . S
C354 C352 1.391 . S
C354 C355 1.400 . S
C355 C354 1.400 . S
C355 C356 1.398 . S
C355 C361 1.491 . S
C356 H347 0.950 . S
C356 C355 1.398 . S
C356 C357 1.391 . S
C357 H345 0.950 . S
C357 C353 1.393 . S
C357 C356 1.391 . S
C358 H348 0.950 . S
C358 C359 1.386 . S
C358 C360 1.391 . S
C359 C358 1.386 . S
C359 C363 1.393 . S
C360 H349 0.950 . S
C360 C358 1.391 . S
C360 C361 1.400 . S
C361 C355 1.491 . S
C361 C360 1.400 . S
C361 C362 1.398 . S
C362 H350 0.950 . S
C362 C361 1.398 . S
C362 C363 1.391 . S
C363 H351 0.950 . S
C363 C359 1.393 . S
C363 C362 1.391 . S
H364 C372 0.950 . S
H365 C377 0.950 . S
H366 C374 0.950 . S
H367 C376 0.950 . S
H368 C378 0.950 . S
H369 C380 0.950 . S
H370 C382 0.950 . S
H371 C383 0.950 . S
C372 H364 0.950 . S
C372 C373 1.386 . S
C372 C374 1.391 . S
C373 C372 1.386 . S
C373 C377 1.393 . S
C374 H366 0.950 . S
C374 C372 1.391 . S
C374 C375 1.400 . S
C375 C374 1.400 . S
C375 C376 1.398 . S
C375 C381 1.491 . S
C376 H367 0.950 . S
C376 C375 1.398 . S
C376 C377 1.391 . S
C377 H365 0.950 . S
C377 C373 1.393 . S
C377 C376 1.391 . S
C378 H368 0.950 . S
C378 C379 1.386 . S
C378 C380 1.391 . S
C379 C378 1.386 . S
C379 C383 1.393 . S
C380 H369 0.950 . S
C380 C378 1.391 . S
C380 C381 1.400 . S
C381 C375 1.491 . S
C381 C380 1.400 . S
C381 C382 1.398 . S
C382 H370 0.950 . S
C382 C381 1.398 . S
C382 C383 1.391 . S
C383 H371 0.950 . S
C383 C379 1.393 . S
C383 C382 1.391 . S
H384 C392 0.950 . S
H385 C397 0.950 1_455 S
H386 C394 0.950 . S
H387 C396 0.950 . S
H388 C398 0.950 . S
H389 C400 0.950 . S
H390 C402 0.950 . S
H391 C403 0.950 . S
C392 H384 0.950 . S
C392 C393 1.386 . S
C392 C394 1.391 . S
C393 C392 1.386 . S
C393 C397 1.393 . S
C394 H386 0.950 . S
C394 C392 1.391 . S
C394 C395 1.400 . S
C395 C394 1.400 . S
C395 C396 1.398 . S
C395 C401 1.491 . S
C396 H387 0.950 . S
C396 C395 1.398 . S
C396 C397 1.391 . S
C397 H385 0.950 1_655 S
C397 C393 1.393 . S
C397 C396 1.391 . S
C398 H388 0.950 . S
C398 C399 1.386 . S
C398 C400 1.391 . S
C399 C398 1.386 . S
C399 C403 1.393 . S
C400 H389 0.950 . S
C400 C398 1.391 . S
C400 C401 1.400 . S
C401 C395 1.491 . S
C401 C400 1.400 . S
C401 C402 1.398 . S
C402 H390 0.950 . S
C402 C401 1.398 . S
C402 C403 1.391 . S
C403 H391 0.950 . S
C403 C399 1.393 . S
C403 C402 1.391 . S
H404 C412 0.950 . S
H405 C417 0.950 1_554 S
H406 C414 0.950 1_455 S
H407 C416 0.950 . S
H408 C418 0.950 . S
H409 C420 0.950 . S
H410 C422 0.950 . S
H411 C423 0.950 . S
C412 H404 0.950 . S
C412 C413 1.386 1_455 S
C412 C414 1.391 1_455 S
C413 C412 1.386 1_655 S
C413 C417 1.393 . S
C414 H406 0.950 1_655 S
C414 C412 1.391 1_655 S
C414 C415 1.400 . S
C415 C414 1.400 . S
C415 C416 1.398 . S
C415 C421 1.491 . S
C416 H407 0.950 . S
C416 C415 1.398 . S
C416 C417 1.391 . S
C417 H405 0.950 1_556 S
C417 C413 1.393 . S
C417 C416 1.391 . S
C418 H408 0.950 . S
C418 C419 1.386 . S
C418 C420 1.391 . S
C419 C418 1.386 . S
C419 C423 1.393 . S
C420 H409 0.950 . S
C420 C418 1.391 . S
C420 C421 1.400 . S
C421 C415 1.491 . S
C421 C420 1.400 . S
C421 C422 1.398 . S
C422 H410 0.950 . S
C422 C421 1.398 . S
C422 C423 1.391 . S
C423 H411 0.950 . S
C423 C419 1.393 . S
C423 C422 1.391 . S
H424 C432 0.950 . S
H425 C437 0.950 . S
H426 C434 0.950 . S
H427 C436 0.950 . S
H428 C438 0.950 . S
H429 C440 0.950 . S
H430 C442 0.950 . S
H431 C443 0.950 . S
C432 H424 0.950 . S
C432 C433 1.386 . S
C432 C434 1.391 . S
C433 C432 1.386 . S
C433 C437 1.393 1_455 S
C434 H426 0.950 . S
C434 C432 1.391 . S
C434 C435 1.400 . S
C435 C434 1.400 . S
C435 C436 1.398 1_455 S
C435 C441 1.491 . S
C436 H427 0.950 . S
C436 C435 1.398 1_655 S
C436 C437 1.391 . S
C437 H425 0.950 . S
C437 C433 1.393 1_655 S
C437 C436 1.391 . S
C438 H428 0.950 . S
C438 C439 1.386 1_655 S
C438 C440 1.391 . S
C439 C438 1.386 1_455 S
C439 C443 1.393 . S
C440 H429 0.950 . S
C440 C438 1.391 . S
C440 C441 1.400 1_655 S
C441 C435 1.491 . S
C441 C440 1.400 1_455 S
C441 C442 1.398 . S
C442 H430 0.950 . S
C442 C441 1.398 . S
C442 C443 1.391 . S
C443 H431 0.950 . S
C443 C439 1.393 . S
C443 C442 1.391 . S
H444 C452 0.950 . S
H445 C457 0.950 . S
H446 C454 0.950 . S
H447 C456 0.950 . S
H448 C458 0.950 . S
H449 C460 0.950 . S
H450 C462 0.950 . S
H451 C463 0.950 . S
C452 H444 0.950 . S
C452 C453 1.386 1_565 S
C452 C454 1.391 . S
C453 C452 1.386 1_545 S
C453 C457 1.393 . S
C454 H446 0.950 . S
C454 C452 1.391 . S
C454 C455 1.400 1_565 S
C455 C454 1.400 1_545 S
C455 C456 1.398 . S
C455 C461 1.491 . S
C456 H447 0.950 . S
C456 C455 1.398 . S
C456 C457 1.391 . S
C457 H445 0.950 . S
C457 C453 1.393 . S
C457 C456 1.391 . S
C458 H448 0.950 . S
C458 C459 1.386 . S
C458 C460 1.391 . S
C459 C458 1.386 . S
C459 C463 1.393 1_545 S
C460 H449 0.950 . S
C460 C458 1.391 . S
C460 C461 1.400 . S
C461 C455 1.491 . S
C461 C460 1.400 . S
C461 C462 1.398 1_545 S
C462 H450 0.950 . S
C462 C461 1.398 1_565 S
C462 C463 1.391 . S
C463 H451 0.950 . S
C463 C459 1.393 1_565 S
C463 C462 1.391 . S
H464 C472 0.950 . S
H465 C477 0.950 1_554 S
H466 C474 0.950 . S
H467 C476 0.950 . S
H468 C478 0.950 . S
H469 C480 0.950 . S
H470 C482 0.950 . S
H471 C483 0.950 . S
C472 H464 0.950 . S
C472 C473 1.386 1_556 S
C472 C474 1.391 . S
C473 C472 1.386 1_554 S
C473 C477 1.393 1_554 S
C474 H466 0.950 . S
C474 C472 1.391 . S
C474 C475 1.400 . S
C475 C474 1.400 . S
C475 C476 1.398 . S
C475 C481 1.491 . S
C476 H467 0.950 . S
C476 C475 1.398 . S
C476 C477 1.391 . S
C477 H465 0.950 1_556 S
C477 C473 1.393 1_556 S
C477 C476 1.391 . S
C478 H468 0.950 . S
C478 C479 1.386 . S
C478 C480 1.391 . S
C479 C478 1.386 . S
C479 C483 1.393 . S
C480 H469 0.950 . S
C480 C478 1.391 . S
C480 C481 1.400 . S
C481 C475 1.491 . S
C481 C480 1.400 . S
C481 C482 1.398 . S
C482 H470 0.950 . S
C482 C481 1.398 . S
C482 C483 1.391 . S
C483 H471 0.950 . S
C483 C479 1.393 . S
C483 C482 1.391 . S
H484 C492 0.950 . S
H485 C497 0.950 . S
H486 C494 0.950 . S
H487 C496 0.950 . S
H488 C498 0.950 . S
H489 C500 0.950 . S
H490 C502 0.950 . S
H491 C503 0.950 . S
C492 H484 0.950 . S
C492 C493 1.386 . S
C492 C494 1.391 . S
C493 C492 1.386 . S
C493 C497 1.393 . S
C494 H486 0.950 . S
C494 C492 1.391 . S
C494 C495 1.400 . S
C495 C494 1.400 . S
C495 C496 1.398 . S
C495 C501 1.491 . S
C496 H487 0.950 . S
C496 C495 1.398 . S
C496 C497 1.391 . S
C497 H485 0.950 . S
C497 C493 1.393 . S
C497 C496 1.391 . S
C498 H488 0.950 . S
C498 C499 1.386 . S
C498 C500 1.391 . S
C499 C498 1.386 . S
C499 C503 1.393 . S
C500 H489 0.950 . S
C500 C498 1.391 . S
C500 C501 1.400 . S
C501 C495 1.491 . S
C501 C500 1.400 . S
C501 C502 1.398 . S
C502 H490 0.950 . S
C502 C501 1.398 . S
C502 C503 1.391 . S
C503 H491 0.950 . S
C503 C499 1.393 . S
C503 C502 1.391 . S
C279 C81 1.241 . S
C273 C11 1.268 . S
C293 C25 1.287 1_565 S
C299 C155 1.258 . S
C313 C41 1.968 1_655 S
C319 C259 2.063 . S
C333 C7 0.711 . S
C339 C93 0.715 . S
C359 C167 0.759 . S
C353 C21 0.752 . S
C373 C36 1.455 . S
C379 C253 1.410 . S
C399 C185 2.039 . S
C393 C39 2.026 1_655 S
C413 C8 1.333 1_656 S
C419 C229 1.364 . S
C439 C105 1.461 . S
C433 C22 1.559 . S
C459 C179 1.387 . S
C453 C35 1.475 . S
C479 C241 0.808 . S
C473 C13 0.786 . S
C493 C27 2.036 . S
C499 C111 2.130 . S
