# Generated by pormake.
# Topology tsx, (6,3)-cn, num edge types: 1
# Building blocks:
#     Node 0, Type 0, BuildingBlock: CIFDUS_clean_sbu_1, # of connection points: 6
#     Node 1, Type 0, BuildingBlock: CIFDUS_clean_sbu_1, # of connection points: 6
#     Node 2, Type 1, BuildingBlock: BETDIP_clean_linker_0, # of connection points: 3
#     Node 3, Type 1, BuildingBlock: BETDIP_clean_linker_0, # of connection points: 3
#     Node 4, Type 1, BuildingBlock: BETDIP_clean_linker_0, # of connection points: 3
#     Node 5, Type 1, BuildingBlock: BETDIP_clean_linker_0, # of connection points: 3
#     Edge 6, Type (0, 1), BuildingBlock: ZUJKAS_clean_linker_0, # of connection points: 2
#     Edge 7, Type (0, 1), BuildingBlock: ZUJKAS_clean_linker_0, # of connection points: 2
#     Edge 8, Type (0, 1), BuildingBlock: ZUJKAS_clean_linker_0, # of connection points: 2
#     Edge 9, Type (0, 1), BuildingBlock: ZUJKAS_clean_linker_0, # of connection points: 2
#     Edge 10, Type (0, 1), BuildingBlock: ZUJKAS_clean_linker_0, # of connection points: 2
#     Edge 11, Type (0, 1), BuildingBlock: ZUJKAS_clean_linker_0, # of connection points: 2
#     Edge 12, Type (0, 1), BuildingBlock: ZUJKAS_clean_linker_0, # of connection points: 2
#     Edge 13, Type (0, 1), BuildingBlock: ZUJKAS_clean_linker_0, # of connection points: 2
#     Edge 14, Type (0, 1), BuildingBlock: ZUJKAS_clean_linker_0, # of connection points: 2
#     Edge 15, Type (0, 1), BuildingBlock: ZUJKAS_clean_linker_0, # of connection points: 2
#     Edge 16, Type (0, 1), BuildingBlock: ZUJKAS_clean_linker_0, # of connection points: 2
#     Edge 17, Type (0, 1), BuildingBlock: ZUJKAS_clean_linker_0, # of connection points: 2
# Relax obj value: 0.094
# Max RMSD: 0.150
# Mean RMSD: 0.112
data_MOF--net-tsx--node1-CIFDUS_clean_sbu_1--node2-BETDIP_clean_linker_0--edge1-ZUJKAS_clean_linker_0
_symmetry_space_group_name_H-M    P1
_symmetry_Int_Tables_number       1
_symmetry_cell_setting            triclinic
loop_
_symmetry_equiv_pos_as_xyz
'x, y, z'
_cell_length_a     24.339977
_cell_length_b     29.255915
_cell_length_c     43.979194
_cell_angle_alpha  97.084104
_cell_angle_beta   101.25836
_cell_angle_gamma 91.001103
loop_
_atom_site_label
_atom_site_type_symbol
_atom_site_fract_x
_atom_site_fract_y
_atom_site_fract_z
_atom_type_partial_charge
O0 O 0.99916 0.07491 0.00503 0.0
Mn1 Mn 0.05455 0.021 0.01039 0.0
O2 O 0.92844 0.04785 0.96533 0.0
Mn3 Mn 0.95699 0.99084 0.95507 0.0
O4 O 0.10947 0.96675 0.01519 0.0
O5 O 0.11747 0.06771 0.02999 0.0
Mn6 Mn 0.15528 0.0491 0.06442 0.0
O7 O 0.03374 0.01438 0.05404 0.0
O8 O 0.18427 0.99312 0.05229 0.0
O9 O 0.07664 0.02747 0.96699 0.0
O10 O 0.00913 0.98949 0.92985 0.0
O11 O 0.19074 0.10352 0.06061 0.0
O12 O 0.10533 0.04765 0.09096 0.0
C13 C 0.95564 0.93954 0.98537 0.0
C14 C 0.95181 0.07958 0.9868 0.0
C15 C 0.15841 0.96161 0.03153 0.0
C16 C 0.1527 0.10281 0.03547 0.0
C17 C 0.05633 0.02865 0.08273 0.0
C18 C 0.05702 0.01011 0.93852 0.0
O19 O 0.9916 0.97417 0.9908 0.0
O20 O 0.92005 0.93733 0.95915 0.0
O21 O 0.51293 0.58753 0.50763 0.0
Mn22 Mn 0.56223 0.52953 0.51143 0.0
O23 O 0.43609 0.56402 0.47071 0.0
Mn24 Mn 0.45496 0.50346 0.4613 0.0
O25 O 0.61048 0.47068 0.51439 0.0
O26 O 0.63127 0.57193 0.52657 0.0
Mn27 Mn 0.67233 0.5512 0.55936 0.0
O28 O 0.54896 0.52862 0.55735 0.0
O29 O 0.6931 0.49283 0.54601 0.0
O30 O 0.57626 0.53047 0.46559 0.0
O31 O 0.50142 0.49415 0.43292 0.0
O32 O 0.71158 0.60216 0.55317 0.0
O33 O 0.62948 0.555 0.5898 0.0
C34 C 0.45479 0.4557 0.49429 0.0
C35 C 0.46538 0.59501 0.49056 0.0
C36 C 0.66067 0.46233 0.52759 0.0
C37 C 0.66995 0.60426 0.53011 0.0
C38 C 0.5781 0.54156 0.58495 0.0
C39 C 0.55099 0.51182 0.43827 0.0
O40 O 0.49331 0.48753 0.49638 0.0
O41 O 0.4146 0.45461 0.47011 0.0
H42 H 0.07227 0.98199 0.4842 0.0
H43 H 0.98718 0.03374 0.40117 0.0
H44 H 0.0951 0.91995 0.39357 0.0
H45 H 0.02367 0.10384 0.44014 0.0
C46 C 0.99807 0.09199 0.45556 0.0
C47 C 0.06313 0.98014 0.45893 0.0
C48 C 0.08776 0.94669 0.44058 0.0
C49 C 0.02769 0.01205 0.4448 0.0
C50 C 0.01572 0.00978 0.41207 0.0
C51 C 0.03936 0.97644 0.3933 0.0
C52 C 0.07516 0.94484 0.40778 0.0
N53 N 1.00413 0.04646 0.46353 0.0
H54 H 0.00942 0.02156 0.52998 0.0
H55 H 0.10127 0.08653 0.61898 0.0
H56 H 0.99279 0.96772 0.61475 0.0
H57 H 0.07137 0.15224 0.58903 0.0
C58 C 0.09436 0.13777 0.5715 0.0
C59 C 0.02008 0.02315 0.5552 0.0
C60 C 0.99688 0.98996 0.57025 0.0
C61 C 0.05705 0.05855 0.57278 0.0
C62 C 0.07133 0.06025 0.60549 0.0
C63 C 0.04896 0.0273 0.62083 0.0
C64 C 0.01164 0.99247 0.60299 0.0
N65 N 0.08146 0.09136 0.55745 0.0
H66 H 0.59387 0.49315 0.98786 0.0
H67 H 0.51715 0.55599 0.90769 0.0
H68 H 0.6114 0.4344 0.89563 0.0
H69 H 0.55821 0.62229 0.95086 0.0
C70 C 0.53025 0.60946 0.96469 0.0
C71 C 0.58553 0.49359 0.96277 0.0
C72 C 0.60713 0.45968 0.9433 0.0
C73 C 0.55368 0.52857 0.95004 0.0
C74 C 0.54208 0.52904 0.91748 0.0
C75 C 0.56237 0.495 0.89756 0.0
C76 C 0.59506 0.46056 0.91075 0.0
N77 N 0.53236 0.5626 0.97008 0.0
H78 H 0.48738 0.52266 0.02588 0.0
H79 H 0.58755 0.58056 0.11447 0.0
H80 H 0.46185 0.47383 0.1107 0.0
H81 H 0.55601 0.64812 0.08609 0.0
C82 C 0.57786 0.63474 0.06775 0.0
C83 C 0.49856 0.52361 0.05105 0.0
C84 C 0.46987 0.49426 0.06633 0.0
C85 C 0.53954 0.55608 0.06856 0.0
C86 C 0.55421 0.55691 0.10121 0.0
C87 C 0.52713 0.52697 0.11672 0.0
C88 C 0.48439 0.49625 0.09902 0.0
N89 N 0.56549 0.58836 0.05349 0.0
H90 H 0.22464 0.11175 0.99712 0.0
H91 H 0.26013 0.18617 0.98745 0.0
H92 H 0.12459 0.25297 0.0227 0.0
H93 H 0.08965 0.17835 0.03289 0.0
H94 H 0.22647 0.27083 0.96078 0.0
H95 H 0.26779 0.28924 0.09082 0.0
H96 H 0.24437 0.23522 0.06699 0.0
H97 H 0.19554 0.27965 0.0717 0.0
C98 C 0.20048 0.14193 1.00098 0.0
C99 C 0.15417 0.13935 0.01548 0.0
C100 C 0.22108 0.18458 0.99569 0.0
C101 C 0.19579 0.22527 0.00502 0.0
C102 C 0.14511 0.22201 0.01562 0.0
H103 H 0.36179 0.49357 0.07337 0.0
H104 H 0.28918 0.43265 0.05292 0.0
C105 C 0.1246 0.17927 0.02101 0.0
C106 C 0.22841 0.26997 0.00984 0.0
H107 H 0.30225 0.34857 0.06793 0.0
C108 C 0.24254 0.28824 0.98415 0.0
C109 C 0.25021 0.29224 0.04041 0.0
C110 C 0.23926 0.27305 0.06914 0.0
C111 C 0.27747 0.32846 0.98826 0.0
C112 C 0.29967 0.35035 0.01889 0.0
C113 C 0.28494 0.33216 0.04443 0.0
C114 C 0.33975 0.39121 0.0257 0.0
C115 C 0.2899 0.34722 0.95979 0.0
C116 C 0.39197 0.38917 0.01647 0.0
C117 C 0.43335 0.4245 0.02785 0.0
C118 C 0.42341 0.46195 0.04904 0.0
C119 C 0.37037 0.46504 0.05702 0.0
C120 C 0.32893 0.4302 0.04537 0.0
H121 H 0.25692 0.33588 0.93876 0.0
H122 H 0.29346 0.38548 0.96343 0.0
H123 H 0.33031 0.33412 0.95506 0.0
H124 H 0.40202 0.35908 1.00196 0.0
H125 H 0.4742 0.42112 0.02169 0.0
H126 H 0.11991 0.88341 0.99044 0.0
H127 H 0.17109 0.81331 0.98056 0.0
H128 H 0.31409 0.87203 0.04924 0.0
H129 H 0.26356 0.94107 0.05971 0.0
H130 H 0.26638 0.80478 0.95853 0.0
H131 H 0.30226 0.74569 0.07486 0.0
H132 H 0.25217 0.78856 0.06404 0.0
H133 H 0.32538 0.80487 0.07793 0.0
C134 C 0.162 0.88112 0.00371 0.0
C135 C 0.18741 0.91797 0.02595 0.0
C136 C 0.19117 0.84102 0.99805 0.0
C137 C 0.24606 0.83695 0.01465 0.0
C138 C 0.27125 0.87364 0.03683 0.0
H139 H 0.52304 0.70015 0.95986 0.0
H140 H 0.4496 0.75119 0.97193 0.0
C141 C 0.24227 0.91345 0.04256 0.0
C142 C 0.27922 0.79631 0.00734 0.0
H143 H 0.36776 0.71989 0.04189 0.0
C144 C 0.28774 0.78567 0.97666 0.0
C145 C 0.30636 0.77066 0.03081 0.0
C146 C 0.29555 0.77771 0.06366 0.0
C147 C 0.32527 0.75215 0.96924 0.0
C148 C 0.3562 0.72949 0.99331 0.0
C149 C 0.34499 0.73795 0.02356 0.0
C150 C 0.40217 0.69875 0.98778 0.0
C151 C 0.33178 0.74176 0.93568 0.0
C152 C 0.40164 0.65292 0.99428 0.0
C153 C 0.44422 0.62382 0.98784 0.0
C154 C 0.48791 0.64027 0.97483 0.0
C155 C 0.4895 0.68655 0.96957 0.0
C156 C 0.44729 0.71559 0.97618 0.0
H157 H 0.29336 0.74967 0.91926 0.0
H158 H 0.36696 0.76359 0.93191 0.0
H159 H 0.34097 0.70503 0.92986 0.0
H160 H 0.36763 0.63937 0.00364 0.0
H161 H 0.44205 0.58829 0.99225 0.0
H162 H 0.92421 0.95794 0.04129 0.0
H163 H 0.87358 0.90248 0.06448 0.0
H164 H 0.91279 0.79238 0.99845 0.0
H165 H 0.96372 0.84759 0.97574 0.0
H166 H 0.78064 0.85869 0.0254 0.0
H167 H 0.91931 0.72729 0.07549 0.0
H168 H 0.9458 0.78291 0.06954 0.0
H169 H 0.92893 0.73731 0.03738 0.0
C170 C 0.92503 0.9215 0.03317 0.0
C171 C 0.94885 0.90677 0.00725 0.0
C172 C 0.89542 0.88988 0.0461 0.0
C173 C 0.88937 0.84313 0.03327 0.0
C174 C 0.91771 0.82792 0.00924 0.0
H175 H 0.6471 0.61578 0.02511 0.0
H176 H 0.72361 0.66621 0.01698 0.0
C177 C 0.94708 0.85951 0.99632 0.0
C178 C 0.84542 0.81246 0.0404 0.0
H179 H 0.82085 0.70655 0.06164 0.0
C180 C 0.78961 0.82573 0.03379 0.0
C181 C 0.8569 0.76902 0.0507 0.0
C182 C 0.91605 0.7534 0.05896 0.0
C183 C 0.74497 0.79655 0.03658 0.0
C184 C 0.75635 0.75311 0.04685 0.0
C185 C 0.81215 0.73977 0.05362 0.0
C186 C 0.71077 0.72202 0.05173 0.0
C187 C 0.68578 0.81202 0.02766 0.0
C188 C 0.6785 0.73655 0.07399 0.0
C189 C 0.63495 0.7081 0.0785 0.0
C190 C 0.62294 0.66431 0.06106 0.0
C191 C 0.65534 0.64945 0.03882 0.0
C192 C 0.69913 0.67811 0.03427 0.0
H193 H 0.6833 0.83978 0.0124 0.0
H194 H 0.65695 0.78279 0.01535 0.0
H195 H 0.6709 0.82576 0.04915 0.0
H196 H 0.68722 0.76992 0.08806 0.0
H197 H 0.6109 0.72025 0.09597 0.0
H198 H 0.85015 0.09897 0.95355 0.0
H199 H 0.79993 0.16953 0.9581 0.0
H200 H 0.93306 0.23042 0.03243 0.0
H201 H 0.98469 0.15914 0.02797 0.0
H202 H 0.76301 0.21338 0.01153 0.0
H203 H 0.91094 0.32561 0.96853 0.0
H204 H 0.91261 0.26351 0.96246 0.0
H205 H 0.93874 0.29439 1.00054 0.0
C206 C 0.86925 0.12717 0.97093 0.0
C207 C 0.92187 0.12322 0.99032 0.0
C208 C 0.84018 0.16757 0.97352 0.0
C209 C 0.86281 0.20531 0.99543 0.0
C210 C 0.91513 0.20181 0.01509 0.0
H211 H 0.6962 0.4712 0.99282 0.0
H212 H 0.76012 0.41236 0.01207 0.0
C213 C 0.94449 0.16103 0.01256 0.0
C214 C 0.83055 0.24782 0.99698 0.0
H215 H 0.82476 0.35594 0.97504 0.0
C216 C 0.77691 0.24488 0.0041 0.0
C217 C 0.84885 0.28893 0.98742 0.0
C218 C 0.90578 0.29362 0.97911 0.0
C219 C 0.74005 0.28104 1.00042 0.0
C220 C 0.75699 0.32093 0.98893 0.0
C221 C 0.81186 0.32516 0.98371 0.0
C222 C 0.71661 0.35623 0.97905 0.0
C223 C 0.68264 0.27572 0.008 0.0
C224 C 0.67108 0.34412 0.95414 0.0
C225 C 0.6348 0.37751 0.94308 0.0
C226 C 0.64329 0.42377 0.95671 0.0
C227 C 0.6883 0.43573 0.98208 0.0
C228 C 0.72496 0.40227 0.99299 0.0
H229 H 0.68209 0.25062 0.02497 0.0
H230 H 0.66845 0.30927 0.01779 0.0
H231 H 0.6522 0.26269 0.98627 0.0
H232 H 0.66436 0.30892 0.94274 0.0
H233 H 0.60033 0.3672 0.92364 0.0
H234 H 0.74157 0.61571 0.49218 0.0
H235 H 0.77629 0.69099 0.48405 0.0
H236 H 0.6386 0.7547 0.519 0.0
H237 H 0.60443 0.67889 0.52782 0.0
H238 H 0.74897 0.77335 0.4594 0.0
H239 H 0.77376 0.7936 0.58908 0.0
H240 H 0.75076 0.73967 0.56512 0.0
H241 H 0.70309 0.78569 0.56721 0.0
C242 C 0.71684 0.64543 0.49638 0.0
C243 C 0.67042 0.64159 0.51063 0.0
C244 C 0.73699 0.68863 0.49195 0.0
C245 C 0.71114 0.72872 0.50185 0.0
C246 C 0.65992 0.72428 0.5118 0.0
H247 H 0.90136 0.99766 0.52627 0.0
H248 H 0.82683 0.93769 0.50504 0.0
C249 C 0.63982 0.68086 0.51636 0.0
C250 C 0.744 0.77351 0.50775 0.0
H251 H 0.81853 0.84901 0.56776 0.0
C252 C 0.76335 0.79053 0.483 0.0
C253 C 0.76373 0.79541 0.5387 0.0
C254 C 0.74727 0.77764 0.56664 0.0
C255 C 0.80309 0.82782 0.48851 0.0
C256 C 0.82371 0.84868 0.51951 0.0
C257 C 0.8026 0.83293 0.544 0.0
C258 C 0.87103 0.88377 0.52791 0.0
C259 C 0.825 0.84314 0.46145 0.0
C260 C 0.92096 0.87324 0.54726 0.0
C261 C 0.9631 0.90725 0.55944 0.0
C262 C 0.95638 0.95273 0.55261 0.0
C263 C 0.90781 0.96282 0.53175 0.0
C264 C 0.86524 0.9286 0.51963 0.0
H265 H 0.81036 0.8195 0.43943 0.0
H266 H 0.81042 0.8781 0.45769 0.0
H267 H 0.87157 0.8452 0.46673 0.0
H268 H 0.92649 0.83889 0.55389 0.0
H269 H 1.00028 0.89835 0.57518 0.0
H270 H 0.6065 0.38347 0.49253 0.0
H271 H 0.64711 0.30815 0.48198 0.0
H272 H 0.80665 0.36207 0.53698 0.0
H273 H 0.76692 0.43611 0.54806 0.0
H274 H 0.73191 0.28658 0.45211 0.0
H275 H 0.79216 0.24323 0.57217 0.0
H276 H 0.74435 0.28814 0.56242 0.0
H277 H 0.81911 0.29996 0.57027 0.0
C278 C 0.65006 0.37905 0.50263 0.0
C279 C 0.68323 0.41595 0.52129 0.0
C280 C 0.67317 0.33598 0.49663 0.0
C281 C 0.72963 0.32907 0.50935 0.0
C282 C 0.76258 0.36594 0.52777 0.0
H283 H 0.98215 0.17906 0.4433 0.0
H284 H 0.9093 0.23017 0.45584 0.0
C285 C 0.7397 0.4086 0.53384 0.0
C286 C 0.75631 0.2849 0.50174 0.0
H287 H 0.84801 0.20975 0.53527 0.0
C288 C 0.75626 0.26914 0.47028 0.0
C289 C 0.78717 0.26129 0.52533 0.0
C290 C 0.78516 0.27378 0.5594 0.0
C291 C 0.78976 0.23291 0.46195 0.0
C292 C 0.82527 0.21271 0.48572 0.0
C293 C 0.82178 0.22587 0.51704 0.0
C294 C 0.86963 0.18112 0.4787 0.0
C295 C 0.78767 0.2174 0.42771 0.0
C296 C 0.87336 0.13722 0.48869 0.0
C297 C 0.91575 0.10805 0.48191 0.0
C298 C 0.95507 0.12261 0.46517 0.0
C299 C 0.95209 0.16691 0.45602 0.0
C300 C 0.9101 0.19595 0.46288 0.0
H301 H 0.74612 0.22346 0.41342 0.0
H302 H 0.81973 0.23764 0.4196 0.0
H303 H 0.79622 0.18025 0.42343 0.0
H304 H 0.84307 0.12532 0.50135 0.0
H305 H 0.9172 0.07408 0.48935 0.0
H306 H 0.40703 0.46795 0.5449 0.0
H307 H 0.36468 0.40554 0.56595 0.0
H308 H 0.4478 0.30601 0.5119 0.0
H309 H 0.49002 0.36869 0.49081 0.0
H310 H 0.33246 0.29786 0.49595 0.0
H311 H 0.39934 0.3069 0.62438 0.0
H312 H 0.38113 0.36165 0.61169 0.0
H313 H 0.44041 0.33315 0.60055 0.0
C314 C 0.41906 0.43294 0.53913 0.0
C315 C 0.45271 0.42306 0.51684 0.0
C316 C 0.39454 0.39717 0.55101 0.0
C317 C 0.40306 0.35097 0.54055 0.0
C318 C 0.44091 0.34135 0.52046 0.0
H319 H 0.17411 0.11159 0.53666 0.0
H320 H 0.25362 0.15913 0.52959 0.0
C321 C 0.46557 0.37717 0.5087 0.0
C322 C 0.36446 0.31381 0.54544 0.0
H323 H 0.3113 0.26653 0.60138 0.0
C324 C 0.32853 0.29032 0.51899 0.0
C325 C 0.35887 0.30447 0.57548 0.0
C326 C 0.39734 0.32756 0.60465 0.0
C327 C 0.28553 0.25939 0.52175 0.0
C328 C 0.27906 0.25072 0.55184 0.0
C329 C 0.31618 0.27314 0.5783 0.0
C330 C 0.2319 0.22093 0.55644 0.0
C331 C 0.24563 0.23826 0.49245 0.0
C332 C 0.19387 0.23943 0.57438 0.0
C333 C 0.14892 0.21225 0.57868 0.0
C334 C 0.14086 0.16602 0.56507 0.0
C335 C 0.17884 0.14731 0.5471 0.0
C336 C 0.22424 0.17449 0.543 0.0
H337 H 0.24778 0.25717 0.47226 0.0
H338 H 0.25681 0.20217 0.48627 0.0
H339 H 0.20172 0.23784 0.49603 0.0
H340 H 0.19878 0.2751 0.58497 0.0
H341 H 0.12044 0.22742 0.59281 0.0
H342 H 0.40976 0.63732 0.44333 0.0
H343 H 0.35825 0.70791 0.44689 0.0
H344 H 0.41345 0.72718 0.54708 0.0
H345 H 0.4666 0.65624 0.54357 0.0
H346 H 0.28696 0.72418 0.51873 0.0
H347 H 0.41485 0.84862 0.47314 0.0
H348 H 0.40695 0.79143 0.45199 0.0
H349 H 0.44451 0.80043 0.49182 0.0
C350 C 0.4119 0.65703 0.4661 0.0
C351 C 0.44204 0.64131 0.49319 0.0
C352 C 0.38259 0.69742 0.46807 0.0
C353 C 0.38222 0.72279 0.49719 0.0
C354 C 0.41361 0.70813 0.52436 0.0
H355 H 0.17756 0.96859 0.48882 0.0
H356 H 0.25081 0.91746 0.50946 0.0
C357 C 0.44405 0.66785 0.52233 0.0
C358 C 0.34459 0.76193 0.49866 0.0
H359 H 0.31767 0.86428 0.47006 0.0
C360 C 0.29417 0.7554 0.50883 0.0
C361 C 0.35412 0.80253 0.48574 0.0
C362 C 0.40824 0.81156 0.47525 0.0
C363 C 0.25149 0.78711 0.50449 0.0
C364 C 0.25952 0.8261 0.48953 0.0
C365 C 0.31144 0.8342 0.48135 0.0
C366 C 0.21295 0.85634 0.47941 0.0
C367 C 0.19734 0.77788 0.5149 0.0
C368 C 0.16739 0.83884 0.45579 0.0
C369 C 0.12587 0.86791 0.44384 0.0
C370 C 0.12894 0.91507 0.45539 0.0
C371 C 0.17378 0.9323 0.47971 0.0
C372 C 0.21573 0.90323 0.49141 0.0
H373 H 0.20292 0.75405 0.53298 0.0
H374 H 0.18051 0.81048 0.52439 0.0
H375 H 0.16581 0.76167 0.49451 0.0
H376 H 0.16485 0.80288 0.4459 0.0
H377 H 0.09175 0.85366 0.42519 0.0
H378 H 0.04968 0.08806 0.13389 0.0
H379 H 0.02474 0.06916 0.18219 0.0
H380 H 0.97718 0.93011 0.13867 0.0
H381 H 1.00304 0.94892 0.09019 0.0
H382 H 0.9262 0.02914 0.19893 0.0
H383 H 0.11097 0.91801 0.21222 0.0
H384 H 0.10051 0.95884 0.18425 0.0
H385 H 0.05851 0.90615 0.17694 0.0
C386 C 0.03231 0.05384 0.13433 0.0
C387 C 0.02778 0.02002 0.10827 0.0
C388 C 0.01812 0.04307 0.16193 0.0
C389 C 0.99984 0.99811 0.16414 0.0
C390 C 0.99161 0.96495 0.13748 0.0
H391 H 0.01702 0.90162 0.34773 0.0
H392 H 0.99898 0.90171 0.29085 0.0
C393 C 1.00553 0.97587 0.10967 0.0
C394 C 0.99562 0.98563 0.19532 0.0
H395 H 0.06706 0.93236 0.25503 0.0
C396 C 0.95634 0.00734 0.21106 0.0
C397 C 0.03502 0.95717 0.21108 0.0
C398 C 0.07896 0.93379 0.19548 0.0
C399 C 0.95654 0.00254 0.24248 0.0
C400 C 0.99803 0.97627 0.25879 0.0
C401 C 0.03545 0.95264 0.24256 0.0
C402 C 1.00642 0.97594 0.29317 0.0
C403 C 0.91271 0.02621 0.25799 0.0
C404 C 0.01763 0.0175 0.31338 0.0
C405 C 0.02804 0.01754 0.34576 0.0
C406 C 0.02805 0.97594 0.35874 0.0
C407 C 0.01754 0.93422 0.33848 0.0
C408 C 1.00691 0.93424 0.30599 0.0
H409 H 0.87412 0.03079 0.24059 0.0
H410 H 0.90135 0.00646 0.27603 0.0
H411 H 0.92941 0.06096 0.26943 0.0
H412 H 0.01941 0.05 0.30412 0.0
H413 H 0.03721 0.0502 0.36066 0.0
H414 H 0.08736 0.94275 0.89852 0.0
H415 H 0.10715 0.95122 0.84712 0.0
H416 H 0.10877 0.09918 0.8688 0.0
H417 H 0.09045 0.0906 0.92087 0.0
H418 H 0.02406 0.99326 0.80895 0.0
H419 H 0.23209 0.08019 0.81617 0.0
H420 H 0.21592 0.05045 0.84722 0.0
H421 H 0.18941 0.10641 0.84204 0.0
C422 C 0.09475 0.97706 0.89286 0.0
C423 C 0.08782 0.01603 0.91356 0.0
C424 C 0.10572 0.9819 0.86345 0.0
C425 C 0.10927 0.02579 0.85404 0.0
C426 C 0.1071 0.06499 0.87571 0.0
H427 H 0.05917 0.10341 0.66516 0.0
H428 H 0.07822 0.10535 0.72217 0.0
C429 C 0.09679 0.06012 0.90547 0.0
C430 C 0.10465 0.02961 0.8203 0.0
H431 H 0.17089 0.0694 0.76639 0.0
C432 C 0.05636 0.00974 0.79968 0.0
C433 C 0.14631 0.05181 0.80832 0.0
C434 C 0.19913 0.07322 0.82947 0.0
C435 C 0.04878 0.01096 0.76741 0.0
C436 C 0.09101 0.03203 0.75525 0.0
C437 C 0.13882 0.05296 0.77583 0.0
C438 C 0.08589 0.03167 0.72109 0.0
C439 C 0.99528 0.98998 0.74655 0.0
C440 C 0.08519 0.98973 0.70171 0.0
C441 C 0.07434 0.98847 0.66923 0.0
C442 C 0.06415 0.0292 0.65545 0.0
C443 C 0.06711 0.07145 0.67501 0.0
C444 C 0.07795 0.07265 0.70757 0.0
H445 H 0.96184 0.98522 0.75998 0.0
H446 H 0.97953 0.01186 0.72805 0.0
H447 H 1.00367 0.95565 0.73497 0.0
H448 H 0.09192 0.95779 0.71174 0.0
H449 H 0.07354 0.9555 0.65488 0.0
H450 H 0.49445 0.48218 0.5929 0.0
H451 H 0.46651 0.47154 0.64252 0.0
H452 H 0.58145 0.58341 0.68998 0.0
H453 H 0.60836 0.59455 0.64097 0.0
H454 H 0.53738 0.44747 0.69382 0.0
H455 H 0.44597 0.61257 0.7276 0.0
H456 H 0.45498 0.59475 0.68812 0.0
H457 H 0.51235 0.62253 0.71717 0.0
C458 C 0.51225 0.50534 0.61377 0.0
C459 C 0.55347 0.53922 0.61301 0.0
C460 C 0.49661 0.49907 0.64213 0.0
C461 C 0.52131 0.52712 0.66996 0.0
C462 C 0.56073 0.56206 0.66882 0.0
H463 H 0.6345 0.48047 0.8571 0.0
H464 H 0.61514 0.48339 0.80078 0.0
C465 C 0.57648 0.56813 0.64073 0.0
C466 C 0.51148 0.51739 0.7009 0.0
H467 H 0.4893 0.57164 0.77052 0.0
C468 C 0.5256 0.47428 0.71039 0.0
C469 C 0.49533 0.55202 0.72247 0.0
C470 C 0.47572 0.59786 0.71317 0.0
C471 C 0.52795 0.46608 0.74143 0.0
C472 C 0.51698 0.50222 0.76369 0.0
C473 C 0.4988 0.54415 0.75365 0.0
C474 C 0.52758 0.49837 0.79773 0.0
C475 C 0.54319 0.41899 0.75016 0.0
C476 C 0.48526 0.50702 0.81503 0.0
C477 C 0.49635 0.50564 0.84737 0.0
C478 C 0.55011 0.49579 0.86309 0.0
C479 C 0.5924 0.48726 0.84567 0.0
C480 C 0.58131 0.48877 0.81341 0.0
H481 H 0.53144 0.39196 0.72967 0.0
H482 H 0.58924 0.41862 0.75848 0.0
H483 H 0.52229 0.41006 0.76907 0.0
H484 H 0.4436 0.51484 0.8035 0.0
H485 H 0.46272 0.512 0.86004 0.0
H486 H 0.59773 0.58705 0.42006 0.0
H487 H 0.61009 0.59392 0.36652 0.0
H488 H 0.5714 0.44823 0.34064 0.0
H489 H 0.55762 0.44157 0.39351 0.0
H490 H 0.67121 0.54643 0.31996 0.0
H491 H 0.44042 0.51417 0.28998 0.0
H492 H 0.47821 0.52863 0.32973 0.0
H493 H 0.47724 0.47073 0.31029 0.0
C494 C 0.5941 0.5563 0.4032 0.0
C495 C 0.5765 0.51382 0.4107 0.0
C496 C 0.60082 0.56027 0.37264 0.0
C497 C 0.59042 0.52173 0.34952 0.0
C498 C 0.57873 0.47849 0.35802 0.0
H499 H 0.53563 0.45384 0.15056 0.0
H500 H 0.55563 0.45589 0.20739 0.0
C501 C 0.57125 0.47466 0.38825 0.0
C502 C 0.58412 0.52706 0.31593 0.0
H503 H 0.48755 0.51224 0.24742 0.0
C504 C 0.63106 0.53941 0.30409 0.0
C505 C 0.53144 0.51838 0.29536 0.0
C506 C 0.4788 0.50768 0.30696 0.0
C507 C 0.62696 0.54139 0.27188 0.0
C508 C 0.57472 0.53089 0.25129 0.0
C509 C 0.52765 0.5198 0.26329 0.0
C510 C 0.56765 0.53004 0.21701 0.0
C511 C 0.67857 0.55331 0.25982 0.0
C512 C 0.56764 0.57114 0.20364 0.0
C513 C 0.55531 0.57021 0.1711 0.0
C514 C 0.54276 0.52808 0.15134 0.0
C515 C 0.54408 0.48694 0.16498 0.0
C516 C 0.55605 0.48797 0.19746 0.0
H517 H 0.7172 0.55536 0.27827 0.0
H518 H 0.68357 0.5272 0.24007 0.0
H519 H 0.67378 0.58715 0.25084 0.0
H520 H 0.57556 0.60402 0.21838 0.0
H521 H 0.55396 0.6026 0.16148 0.0
loop_
_geom_bond_atom_site_label_1
_geom_bond_atom_site_label_2
_geom_bond_distance
_geom_bond_site_symmetry_2
_ccdc_geom_bond_type
O0 Mn1 2.163 . S
O0 C14 1.244 1_454 S
Mn1 O0 2.163 . S
Mn1 O4 2.162 1_545 S
Mn1 O5 2.221 . S
Mn1 O7 2.163 . S
Mn1 O9 2.160 1_554 S
Mn1 O19 2.221 1_444 S
O2 Mn3 2.087 1_545 S
O2 C14 1.256 . S
Mn3 O2 2.087 1_565 S
Mn3 O10 2.089 1_565 S
Mn3 O19 2.290 . S
Mn3 O20 2.251 . S
O4 Mn1 2.162 1_565 S
O4 C15 1.256 . S
O5 Mn1 2.221 . S
O5 Mn6 2.290 . S
O5 C16 1.278 . S
Mn6 O5 2.290 . S
Mn6 O8 2.089 1_545 S
Mn6 O11 2.251 . S
Mn6 O12 2.087 . S
O7 Mn1 2.163 . S
O7 C17 1.244 . S
O8 Mn6 2.089 1_565 S
O8 C15 1.256 . S
O9 Mn1 2.160 1_556 S
O9 C18 1.239 . S
O10 Mn3 2.089 1_545 S
O10 C18 1.256 1_655 S
O11 Mn6 2.251 . S
O11 C16 1.241 . S
O12 Mn6 2.087 . S
O12 C17 1.256 . S
C13 O19 1.290 . S
C13 O20 1.244 . S
C14 O0 1.244 1_656 S
C14 O2 1.256 . S
C15 O4 1.256 . S
C15 O8 1.256 . S
C16 O5 1.278 . S
C16 O11 1.241 . S
C17 O7 1.244 . S
C17 O12 1.256 . S
C18 O9 1.239 . S
C18 O10 1.256 1_455 S
O19 Mn1 2.221 1_666 S
O19 Mn3 2.290 . S
O19 C13 1.290 . S
O20 Mn3 2.251 . S
O20 C13 1.244 . S
O21 Mn22 2.163 . S
O21 C35 1.244 . S
Mn22 O21 2.163 . S
Mn22 O25 2.160 . S
Mn22 O26 2.221 . S
Mn22 O28 2.163 . S
Mn22 O30 2.160 . S
Mn22 O40 2.221 . S
O23 Mn24 2.087 . S
O23 C35 1.256 . S
Mn24 O23 2.087 . S
Mn24 O31 2.089 . S
Mn24 O40 2.290 . S
Mn24 O41 2.251 . S
O25 Mn22 2.160 . S
O25 C36 1.239 . S
O26 Mn22 2.221 . S
O26 Mn27 2.290 . S
O26 C37 1.278 . S
Mn27 O26 2.290 . S
Mn27 O29 2.089 . S
Mn27 O32 2.251 . S
Mn27 O33 2.087 . S
O28 Mn22 2.163 . S
O28 C38 1.244 . S
O29 Mn27 2.089 . S
O29 C36 1.256 . S
O30 Mn22 2.160 . S
O30 C39 1.239 . S
O31 Mn24 2.089 . S
O31 C39 1.256 . S
O32 Mn27 2.251 . S
O32 C37 1.241 . S
O33 Mn27 2.087 . S
O33 C38 1.256 . S
C34 O40 1.278 . S
C34 O41 1.241 . S
C35 O21 1.244 . S
C35 O23 1.256 . S
C36 O25 1.239 . S
C36 O29 1.256 . S
C37 O26 1.278 . S
C37 O32 1.241 . S
C38 O28 1.244 . S
C38 O33 1.256 . S
C39 O30 1.239 . S
C39 O31 1.256 . S
O40 Mn22 2.221 . S
O40 Mn24 2.290 . S
O40 C34 1.278 . S
O41 Mn24 2.251 . S
O41 C34 1.241 . S
H42 C47 0.930 . S
H43 C50 0.930 . S
H44 C52 0.930 . S
H45 C46 1.016 . S
C46 H45 1.016 . S
C46 N53 1.286 1_655 S
C47 H42 0.930 . S
C47 C48 1.397 . S
C47 C49 1.361 1_565 S
C48 C47 1.397 . S
C48 C52 1.390 . S
C49 C47 1.361 1_545 S
C49 C50 1.393 . S
C49 N53 1.413 . S
C50 H43 0.930 . S
C50 C49 1.393 . S
C50 C51 1.399 1_545 S
C51 C50 1.399 1_565 S
C51 C52 1.381 . S
C52 H44 0.930 . S
C52 C48 1.390 . S
C52 C51 1.381 . S
N53 C46 1.286 1_455 S
N53 C49 1.413 . S
H54 C59 0.930 . S
H55 C62 0.930 . S
H56 C64 0.930 . S
H57 C58 1.016 . S
C58 H57 1.016 . S
C58 N65 1.286 . S
C59 H54 0.930 . S
C59 C60 1.397 . S
C59 C61 1.361 1_655 S
C60 C59 1.397 . S
C60 C64 1.390 . S
C61 C59 1.361 1_455 S
C61 C62 1.393 . S
C61 N65 1.413 . S
C62 H55 0.930 . S
C62 C61 1.393 . S
C62 C63 1.399 1_455 S
C63 C62 1.399 1_655 S
C63 C64 1.381 . S
C64 H56 0.930 . S
C64 C60 1.390 . S
C64 C63 1.381 . S
N65 C58 1.286 . S
N65 C61 1.413 . S
H66 C71 0.930 . S
H67 C74 0.930 . S
H68 C76 0.930 . S
H69 C70 1.016 . S
C70 H69 1.016 . S
C70 N77 1.286 . S
C71 H66 0.930 . S
C71 C72 1.397 . S
C71 C73 1.361 . S
C72 C71 1.397 . S
C72 C76 1.390 . S
C73 C71 1.361 . S
C73 C74 1.393 . S
C73 N77 1.413 . S
C74 H67 0.930 . S
C74 C73 1.393 . S
C74 C75 1.399 . S
C75 C74 1.399 . S
C75 C76 1.381 . S
C76 H68 0.930 . S
C76 C72 1.390 . S
C76 C75 1.381 . S
N77 C70 1.286 . S
N77 C73 1.413 . S
H78 C83 0.930 . S
H79 C86 0.930 . S
H80 C88 0.930 . S
H81 C82 1.016 . S
C82 H81 1.016 . S
C82 N89 1.286 . S
C83 H78 0.930 . S
C83 C84 1.397 . S
C83 C85 1.361 . S
C84 C83 1.397 . S
C84 C88 1.390 . S
C85 C83 1.361 . S
C85 C86 1.393 . S
C85 N89 1.413 . S
C86 H79 0.930 . S
C86 C85 1.393 . S
C86 C87 1.399 . S
C87 C86 1.399 . S
C87 C88 1.381 . S
C88 H80 0.930 . S
C88 C84 1.390 . S
C88 C87 1.381 . S
N89 C82 1.286 . S
N89 C85 1.413 . S
H90 C98 0.929 . S
H91 C100 0.930 . S
H92 C102 0.930 . S
H93 C105 0.929 . S
H94 C108 0.944 . S
H95 C110 0.960 . S
H96 C110 0.960 . S
H97 C110 0.960 . S
C98 H90 0.929 . S
C98 C99 1.377 . S
C98 C100 1.384 . S
C99 C98 1.377 . S
C99 C105 1.390 . S
C100 H91 0.930 . S
C100 C98 1.384 . S
C100 C101 1.372 . S
C101 C100 1.372 . S
C101 C102 1.400 . S
C101 C106 1.490 . S
C102 H92 0.930 . S
C102 C101 1.400 . S
C102 C105 1.386 . S
H103 C119 0.930 . S
H104 C120 0.931 . S
C105 H93 0.929 . S
C105 C99 1.390 . S
C105 C102 1.386 . S
C106 C101 1.490 . S
C106 C108 1.395 . S
C106 C109 1.403 . S
H107 C113 0.930 . S
C108 H94 0.944 . S
C108 C106 1.395 . S
C108 C111 1.403 . S
C109 C106 1.403 . S
C109 C110 1.524 . S
C109 C113 1.400 . S
C110 H95 0.960 . S
C110 H96 0.960 . S
C110 H97 0.960 . S
C110 C109 1.524 . S
C111 C108 1.403 . S
C111 C112 1.392 . S
C111 C115 1.495 1_554 S
C112 C111 1.392 . S
C112 C113 1.385 . S
C112 C114 1.478 . S
C113 H107 0.930 . S
C113 C109 1.400 . S
C113 C112 1.385 . S
C114 C112 1.478 . S
C114 C116 1.381 . S
C114 C120 1.383 . S
C115 C111 1.495 1_556 S
C115 H121 0.959 . S
C115 H122 0.961 . S
C115 H123 0.960 1_556 S
C116 C114 1.381 . S
C116 C117 1.394 . S
C116 H124 0.930 . S
C117 C116 1.394 . S
C117 C118 1.383 . S
C117 H125 0.929 . S
C118 C117 1.383 . S
C118 C119 1.377 . S
C119 H103 0.930 . S
C119 C118 1.377 . S
C119 C120 1.379 . S
C120 H104 0.931 . S
C120 C114 1.383 . S
C120 C119 1.379 . S
H121 C115 0.959 . S
H122 C115 0.961 . S
H123 C115 0.960 1_554 S
H124 C116 0.930 . S
H125 C117 0.929 . S
H126 C134 0.929 . S
H127 C136 0.930 . S
H128 C138 0.930 . S
H129 C141 0.929 . S
H130 C144 0.930 . S
H131 C146 0.960 . S
H132 C146 0.960 . S
H133 C146 0.960 . S
C134 H126 0.929 . S
C134 C135 1.377 1_556 S
C134 C136 1.384 . S
C135 C134 1.377 1_554 S
C135 C141 1.390 . S
C136 H127 0.930 . S
C136 C134 1.384 . S
C136 C137 1.372 1_556 S
C137 C136 1.372 1_554 S
C137 C138 1.400 . S
C137 C142 1.490 1_554 S
C138 H128 0.930 . S
C138 C137 1.400 . S
C138 C141 1.386 . S
H139 C155 0.930 . S
H140 C156 0.931 . S
C141 H129 0.929 . S
C141 C135 1.390 . S
C141 C138 1.386 . S
C142 C137 1.490 1_556 S
C142 C144 1.395 . S
C142 C145 1.403 1_556 S
H143 C149 0.930 . S
C144 H130 0.930 . S
C144 C142 1.395 . S
C144 C147 1.403 . S
C145 C142 1.403 1_554 S
C145 C146 1.524 . S
C145 C149 1.400 . S
C146 H131 0.960 . S
C146 H132 0.960 . S
C146 H133 0.960 . S
C146 C145 1.524 . S
C147 C144 1.403 . S
C147 C148 1.392 . S
C147 C151 1.495 . S
C148 C147 1.392 . S
C148 C149 1.385 1_556 S
C148 C150 1.478 . S
C149 H143 0.930 . S
C149 C145 1.400 . S
C149 C148 1.385 1_554 S
C150 C148 1.478 . S
C150 C152 1.381 . S
C150 C156 1.383 1_556 S
C151 C147 1.495 . S
C151 H157 0.959 . S
C151 H158 0.961 . S
C151 H159 0.960 . S
C152 C150 1.381 . S
C152 C153 1.394 . S
C152 H160 0.930 . S
C153 C152 1.394 . S
C153 C154 1.383 . S
C153 H161 0.929 . S
C154 C153 1.383 . S
C154 C155 1.377 1_556 S
C155 H139 0.930 . S
C155 C154 1.377 1_554 S
C155 C156 1.379 . S
C156 H140 0.931 . S
C156 C150 1.383 1_554 S
C156 C155 1.379 . S
H157 C151 0.959 . S
H158 C151 0.961 . S
H159 C151 0.960 . S
H160 C152 0.930 . S
H161 C153 0.929 . S
H162 C170 0.929 . S
H163 C172 0.930 . S
H164 C174 0.930 . S
H165 C177 0.929 . S
H166 C180 0.930 1_556 S
H167 C182 0.960 . S
H168 C182 0.960 . S
H169 C182 0.960 . S
C170 H162 0.929 . S
C170 C171 1.377 . S
C170 C172 1.384 . S
C171 C170 1.377 . S
C171 C177 1.390 . S
C172 H163 0.930 . S
C172 C170 1.384 . S
C172 C173 1.372 . S
C173 C172 1.372 . S
C173 C174 1.400 . S
C173 C178 1.490 . S
C174 H164 0.930 . S
C174 C173 1.400 . S
C174 C177 1.386 . S
H175 C191 0.930 . S
H176 C192 0.931 . S
C177 H165 0.929 . S
C177 C171 1.390 . S
C177 C174 1.386 . S
C178 C173 1.490 . S
C178 C180 1.395 . S
C178 C181 1.403 . S
H179 C185 0.930 . S
C180 H166 0.930 1_554 S
C180 C178 1.395 . S
C180 C183 1.403 . S
C181 C178 1.403 . S
C181 C182 1.524 . S
C181 C185 1.400 . S
C182 H167 0.960 . S
C182 H168 0.960 . S
C182 H169 0.960 . S
C182 C181 1.524 . S
C183 C180 1.403 . S
C183 C184 1.392 . S
C183 C187 1.495 1_554 S
C184 C183 1.392 . S
C184 C185 1.385 . S
C184 C186 1.478 . S
C185 H179 0.930 . S
C185 C181 1.400 . S
C185 C184 1.385 . S
C186 C184 1.478 . S
C186 C188 1.381 . S
C186 C192 1.383 . S
C187 C183 1.495 1_556 S
C187 H193 0.959 . S
C187 H194 0.961 . S
C187 H195 0.960 . S
C188 C186 1.381 . S
C188 C189 1.394 . S
C188 H196 0.930 . S
C189 C188 1.394 . S
C189 C190 1.383 . S
C189 H197 0.929 . S
C190 C189 1.383 . S
C190 C191 1.377 . S
C191 H175 0.930 . S
C191 C190 1.377 . S
C191 C192 1.379 . S
C192 H176 0.931 . S
C192 C186 1.383 . S
C192 C191 1.379 . S
H193 C187 0.959 . S
H194 C187 0.961 . S
H195 C187 0.960 . S
H196 C188 0.930 . S
H197 C189 0.929 . S
H198 C206 0.929 . S
H199 C208 0.930 . S
H200 C210 0.930 . S
H201 C213 0.929 . S
H202 C216 0.930 . S
H203 C218 0.960 1_554 S
H204 C218 0.960 . S
H205 C218 0.960 1_554 S
C206 H198 0.929 . S
C206 C207 1.377 . S
C206 C208 1.384 . S
C207 C206 1.377 . S
C207 C213 1.390 1_556 S
C208 H199 0.930 . S
C208 C206 1.384 . S
C208 C209 1.372 . S
C209 C208 1.372 . S
C209 C210 1.400 1_556 S
C209 C214 1.490 . S
C210 H200 0.930 . S
C210 C209 1.400 1_554 S
C210 C213 1.386 . S
H211 C227 0.930 1_554 S
H212 C228 0.931 1_554 S
C213 H201 0.929 . S
C213 C207 1.390 1_554 S
C213 C210 1.386 . S
C214 C209 1.490 . S
C214 C216 1.395 . S
C214 C217 1.403 . S
H215 C221 0.930 . S
C216 H202 0.930 . S
C216 C214 1.395 . S
C216 C219 1.403 . S
C217 C214 1.403 . S
C217 C218 1.524 . S
C217 C221 1.400 . S
C218 H203 0.960 1_556 S
C218 H204 0.960 . S
C218 H205 0.960 1_556 S
C218 C217 1.524 . S
C219 C216 1.403 . S
C219 C220 1.392 . S
C219 C223 1.495 . S
C220 C219 1.392 . S
C220 C221 1.385 . S
C220 C222 1.478 . S
C221 H215 0.930 . S
C221 C217 1.400 . S
C221 C220 1.385 . S
C222 C220 1.478 . S
C222 C224 1.381 . S
C222 C228 1.383 . S
C223 C219 1.495 . S
C223 H229 0.959 . S
C223 H230 0.961 . S
C223 H231 0.960 . S
C224 C222 1.381 . S
C224 C225 1.394 . S
C224 H232 0.930 . S
C225 C224 1.394 . S
C225 C226 1.383 . S
C225 H233 0.929 . S
C226 C225 1.383 . S
C226 C227 1.377 . S
C227 H211 0.930 1_556 S
C227 C226 1.377 . S
C227 C228 1.379 . S
C228 H212 0.931 1_556 S
C228 C222 1.383 . S
C228 C227 1.379 . S
H229 C223 0.959 . S
H230 C223 0.961 . S
H231 C223 0.960 . S
H232 C224 0.930 . S
H233 C225 0.929 . S
H234 C242 0.929 . S
H235 C244 0.930 . S
H236 C246 0.930 . S
H237 C249 0.929 . S
H238 C252 0.930 . S
H239 C254 0.960 . S
H240 C254 0.960 . S
H241 C254 0.960 . S
C242 H234 0.929 . S
C242 C243 1.377 . S
C242 C244 1.384 . S
C243 C242 1.377 . S
C243 C249 1.390 . S
C244 H235 0.930 . S
C244 C242 1.384 . S
C244 C245 1.372 . S
C245 C244 1.372 . S
C245 C246 1.400 . S
C245 C250 1.490 . S
C246 H236 0.930 . S
C246 C245 1.400 . S
C246 C249 1.386 . S
H247 C263 0.930 . S
H248 C264 0.931 . S
C249 H237 0.929 . S
C249 C243 1.390 . S
C249 C246 1.386 . S
C250 C245 1.490 . S
C250 C252 1.395 . S
C250 C253 1.403 . S
H251 C257 0.930 . S
C252 H238 0.930 . S
C252 C250 1.395 . S
C252 C255 1.403 . S
C253 C250 1.403 . S
C253 C254 1.524 . S
C253 C257 1.400 . S
C254 H239 0.960 . S
C254 H240 0.960 . S
C254 H241 0.960 . S
C254 C253 1.524 . S
C255 C252 1.403 . S
C255 C256 1.392 . S
C255 C259 1.495 . S
C256 C255 1.392 . S
C256 C257 1.385 . S
C256 C258 1.478 . S
C257 H251 0.930 . S
C257 C253 1.400 . S
C257 C256 1.385 . S
C258 C256 1.478 . S
C258 C260 1.381 . S
C258 C264 1.383 . S
C259 C255 1.495 . S
C259 H265 0.959 . S
C259 H266 0.961 . S
C259 H267 0.960 . S
C260 C258 1.381 . S
C260 C261 1.394 . S
C260 H268 0.930 . S
C261 C260 1.394 . S
C261 C262 1.383 . S
C261 H269 0.929 . S
C262 C261 1.383 . S
C262 C263 1.377 . S
C263 H247 0.930 . S
C263 C262 1.377 . S
C263 C264 1.379 . S
C264 H248 0.931 . S
C264 C258 1.383 . S
C264 C263 1.379 . S
H265 C259 0.959 . S
H266 C259 0.961 . S
H267 C259 0.960 . S
H268 C260 0.930 . S
H269 C261 0.929 . S
H270 C278 0.929 . S
H271 C280 0.930 . S
H272 C282 0.930 . S
H273 C285 0.929 . S
H274 C288 0.930 . S
H275 C290 0.960 . S
H276 C290 0.960 . S
H277 C290 0.960 . S
C278 H270 0.929 . S
C278 C279 1.377 . S
C278 C280 1.384 . S
C279 C278 1.377 . S
C279 C285 1.390 . S
C280 H271 0.930 . S
C280 C278 1.384 . S
C280 C281 1.372 . S
C281 C280 1.372 . S
C281 C282 1.400 . S
C281 C286 1.490 . S
C282 H272 0.930 . S
C282 C281 1.400 . S
C282 C285 1.386 . S
H283 C299 0.930 . S
H284 C300 0.931 . S
C285 H273 0.929 . S
C285 C279 1.390 . S
C285 C282 1.386 . S
C286 C281 1.490 . S
C286 C288 1.395 . S
C286 C289 1.403 . S
H287 C293 0.930 . S
C288 H274 0.930 . S
C288 C286 1.395 . S
C288 C291 1.403 . S
C289 C286 1.403 . S
C289 C290 1.524 . S
C289 C293 1.400 . S
C290 H275 0.960 . S
C290 H276 0.960 . S
C290 H277 0.960 . S
C290 C289 1.524 . S
C291 C288 1.403 . S
C291 C292 1.392 . S
C291 C295 1.495 . S
C292 C291 1.392 . S
C292 C293 1.385 . S
C292 C294 1.478 . S
C293 H287 0.930 . S
C293 C289 1.400 . S
C293 C292 1.385 . S
C294 C292 1.478 . S
C294 C296 1.381 . S
C294 C300 1.383 . S
C295 C291 1.495 . S
C295 H301 0.959 . S
C295 H302 0.961 . S
C295 H303 0.960 . S
C296 C294 1.381 . S
C296 C297 1.394 . S
C296 H304 0.930 . S
C297 C296 1.394 . S
C297 C298 1.383 . S
C297 H305 0.929 . S
C298 C297 1.383 . S
C298 C299 1.377 . S
C299 H283 0.930 . S
C299 C298 1.377 . S
C299 C300 1.379 . S
C300 H284 0.931 . S
C300 C294 1.383 . S
C300 C299 1.379 . S
H301 C295 0.959 . S
H302 C295 0.961 . S
H303 C295 0.960 . S
H304 C296 0.930 . S
H305 C297 0.929 . S
H306 C314 0.929 . S
H307 C316 0.930 . S
H308 C318 0.930 . S
H309 C321 0.929 . S
H310 C324 0.930 . S
H311 C326 0.960 . S
H312 C326 0.960 . S
H313 C326 0.960 . S
C314 H306 0.929 . S
C314 C315 1.377 . S
C314 C316 1.384 . S
C315 C314 1.377 . S
C315 C321 1.390 . S
C316 H307 0.930 . S
C316 C314 1.384 . S
C316 C317 1.372 . S
C317 C316 1.372 . S
C317 C318 1.400 . S
C317 C322 1.490 . S
C318 H308 0.930 . S
C318 C317 1.400 . S
C318 C321 1.386 . S
H319 C335 0.930 . S
H320 C336 0.931 . S
C321 H309 0.929 . S
C321 C315 1.390 . S
C321 C318 1.386 . S
C322 C317 1.490 . S
C322 C324 1.395 . S
C322 C325 1.403 . S
H323 C329 0.930 . S
C324 H310 0.930 . S
C324 C322 1.395 . S
C324 C327 1.403 . S
C325 C322 1.403 . S
C325 C326 1.524 . S
C325 C329 1.400 . S
C326 H311 0.960 . S
C326 H312 0.960 . S
C326 H313 0.960 . S
C326 C325 1.524 . S
C327 C324 1.403 . S
C327 C328 1.392 . S
C327 C331 1.495 . S
C328 C327 1.392 . S
C328 C329 1.385 . S
C328 C330 1.478 . S
C329 H323 0.930 . S
C329 C325 1.400 . S
C329 C328 1.385 . S
C330 C328 1.478 . S
C330 C332 1.381 . S
C330 C336 1.383 . S
C331 C327 1.495 . S
C331 H337 0.959 . S
C331 H338 0.961 . S
C331 H339 0.960 . S
C332 C330 1.381 . S
C332 C333 1.394 . S
C332 H340 0.930 . S
C333 C332 1.394 . S
C333 C334 1.383 . S
C333 H341 0.929 . S
C334 C333 1.383 . S
C334 C335 1.377 . S
C335 H319 0.930 . S
C335 C334 1.377 . S
C335 C336 1.379 . S
C336 H320 0.931 . S
C336 C330 1.383 . S
C336 C335 1.379 . S
H337 C331 0.959 . S
H338 C331 0.961 . S
H339 C331 0.960 . S
H340 C332 0.930 . S
H341 C333 0.929 . S
H342 C350 0.929 . S
H343 C352 0.930 . S
H344 C354 0.930 . S
H345 C357 0.929 . S
H346 C360 0.930 . S
H347 C362 0.960 . S
H348 C362 0.960 . S
H349 C362 0.960 . S
C350 H342 0.929 . S
C350 C351 1.377 . S
C350 C352 1.384 . S
C351 C350 1.377 . S
C351 C357 1.390 . S
C352 H343 0.930 . S
C352 C350 1.384 . S
C352 C353 1.372 . S
C353 C352 1.372 . S
C353 C354 1.400 . S
C353 C358 1.490 . S
C354 H344 0.930 . S
C354 C353 1.400 . S
C354 C357 1.386 . S
H355 C371 0.930 . S
H356 C372 0.931 . S
C357 H345 0.929 . S
C357 C351 1.390 . S
C357 C354 1.386 . S
C358 C353 1.490 . S
C358 C360 1.395 . S
C358 C361 1.403 . S
H359 C365 0.930 . S
C360 H346 0.930 . S
C360 C358 1.395 . S
C360 C363 1.403 . S
C361 C358 1.403 . S
C361 C362 1.524 . S
C361 C365 1.400 . S
C362 H347 0.960 . S
C362 H348 0.960 . S
C362 H349 0.960 . S
C362 C361 1.524 . S
C363 C360 1.403 . S
C363 C364 1.392 . S
C363 C367 1.495 . S
C364 C363 1.392 . S
C364 C365 1.385 . S
C364 C366 1.478 . S
C365 H359 0.930 . S
C365 C361 1.400 . S
C365 C364 1.385 . S
C366 C364 1.478 . S
C366 C368 1.381 . S
C366 C372 1.383 . S
C367 C363 1.495 . S
C367 H373 0.959 . S
C367 H374 0.961 . S
C367 H375 0.960 . S
C368 C366 1.381 . S
C368 C369 1.394 . S
C368 H376 0.930 . S
C369 C368 1.394 . S
C369 C370 1.383 . S
C369 H377 0.929 . S
C370 C369 1.383 . S
C370 C371 1.377 . S
C371 H355 0.930 . S
C371 C370 1.377 . S
C371 C372 1.379 . S
C372 H356 0.931 . S
C372 C366 1.383 . S
C372 C371 1.379 . S
H373 C367 0.959 . S
H374 C367 0.961 . S
H375 C367 0.960 . S
H376 C368 0.930 . S
H377 C369 0.929 . S
H378 C386 0.929 . S
H379 C388 0.930 . S
H380 C390 0.930 . S
H381 C393 0.929 . S
H382 C396 0.930 . S
H383 C398 0.960 . S
H384 C398 0.960 . S
H385 C398 0.960 . S
C386 H378 0.929 . S
C386 C387 1.377 . S
C386 C388 1.384 . S
C387 C386 1.377 . S
C387 C393 1.390 1_545 S
C388 H379 0.930 . S
C388 C386 1.384 . S
C388 C389 1.372 . S
C389 C388 1.372 . S
C389 C390 1.400 1_545 S
C389 C394 1.490 . S
C390 H380 0.930 . S
C390 C389 1.400 1_565 S
C390 C393 1.386 . S
H391 C407 0.930 . S
H392 C408 0.931 . S
C393 H381 0.929 . S
C393 C387 1.390 1_565 S
C393 C390 1.386 . S
C394 C389 1.490 . S
C394 C396 1.395 . S
C394 C397 1.403 1_545 S
H395 C401 0.930 . S
C396 H382 0.930 . S
C396 C394 1.395 . S
C396 C399 1.403 . S
C397 C394 1.403 1_565 S
C397 C398 1.524 . S
C397 C401 1.400 . S
C398 H383 0.960 . S
C398 H384 0.960 . S
C398 H385 0.960 . S
C398 C397 1.524 . S
C399 C396 1.403 . S
C399 C400 1.392 . S
C399 C403 1.495 1_455 S
C400 C399 1.392 . S
C400 C401 1.385 1_545 S
C400 C402 1.478 . S
C401 H395 0.930 . S
C401 C397 1.400 . S
C401 C400 1.385 1_565 S
C402 C400 1.478 . S
C402 C404 1.381 . S
C402 C408 1.383 1_545 S
C403 C399 1.495 1_655 S
C403 H409 0.959 . S
C403 H410 0.961 . S
C403 H411 0.960 1_655 S
C404 C402 1.381 . S
C404 C405 1.394 . S
C404 H412 0.930 . S
C405 C404 1.394 . S
C405 C406 1.383 1_545 S
C405 H413 0.929 . S
C406 C405 1.383 1_565 S
C406 C407 1.377 . S
C407 H391 0.930 . S
C407 C406 1.377 . S
C407 C408 1.379 . S
C408 H392 0.931 . S
C408 C402 1.383 1_565 S
C408 C407 1.379 . S
H409 C403 0.959 . S
H410 C403 0.961 . S
H411 C403 0.960 1_455 S
H412 C404 0.930 . S
H413 C405 0.929 . S
H414 C422 0.929 . S
H415 C424 0.930 . S
H416 C426 0.930 1_655 S
H417 C429 0.929 1_655 S
H418 C432 0.930 . S
H419 C434 0.960 . S
H420 C434 0.960 . S
H421 C434 0.960 . S
C422 H414 0.929 . S
C422 C423 1.377 1_565 S
C422 C424 1.384 . S
C423 C422 1.377 1_545 S
C423 C429 1.390 . S
C424 H415 0.930 . S
C424 C422 1.384 . S
C424 C425 1.372 1_565 S
C425 C424 1.372 1_545 S
C425 C426 1.400 . S
C425 C430 1.490 . S
C426 H416 0.930 1_455 S
C426 C425 1.400 . S
C426 C429 1.386 . S
H427 C443 0.930 . S
H428 C444 0.931 . S
C429 H417 0.929 1_455 S
C429 C423 1.390 . S
C429 C426 1.386 . S
C430 C425 1.490 . S
C430 C432 1.395 1_445 S
C430 C433 1.403 . S
H431 C437 0.930 . S
C432 H418 0.930 . S
C432 C430 1.395 1_665 S
C432 C435 1.406 . S
C433 C430 1.403 . S
C433 C434 1.524 . S
C433 C437 1.400 . S
C434 H419 0.960 . S
C434 H420 0.960 . S
C434 H421 0.960 . S
C434 C433 1.524 . S
C435 C432 1.406 . S
C435 C436 1.379 1_665 S
C435 C439 1.506 . S
C436 C435 1.379 1_445 S
C436 C437 1.385 . S
C436 C438 1.477 . S
C437 H431 0.930 . S
C437 C433 1.400 . S
C437 C436 1.385 . S
C438 C436 1.477 . S
C438 C440 1.382 . S
C438 C444 1.382 1_455 S
C439 C435 1.506 . S
C439 H445 0.959 . S
C439 H446 0.961 . S
C439 H447 0.960 . S
C440 C438 1.382 . S
C440 C441 1.394 . S
C440 H448 0.930 1_545 S
C441 C440 1.394 . S
C441 C442 1.383 1_455 S
C441 H449 0.929 1_545 S
C442 C441 1.383 1_655 S
C442 C443 1.377 . S
C443 H427 0.930 . S
C443 C442 1.377 . S
C443 C444 1.379 . S
C444 H428 0.931 . S
C444 C438 1.382 1_655 S
C444 C443 1.379 . S
H445 C439 0.959 . S
H446 C439 0.961 . S
H447 C439 0.960 . S
H448 C440 0.930 1_565 S
H449 C441 0.929 1_565 S
H450 C458 0.929 . S
H451 C460 0.930 . S
H452 C462 0.930 . S
H453 C465 0.929 . S
H454 C468 0.930 . S
H455 C470 0.960 . S
H456 C470 0.960 . S
H457 C470 0.960 . S
C458 H450 0.929 . S
C458 C459 1.377 . S
C458 C460 1.384 . S
C459 C458 1.377 . S
C459 C465 1.390 . S
C460 H451 0.930 . S
C460 C458 1.384 . S
C460 C461 1.372 . S
C461 C460 1.372 . S
C461 C462 1.400 . S
C461 C466 1.490 . S
C462 H452 0.930 . S
C462 C461 1.400 . S
C462 C465 1.386 . S
H463 C479 0.930 . S
H464 C480 0.931 . S
C465 H453 0.929 . S
C465 C459 1.390 . S
C465 C462 1.386 . S
C466 C461 1.490 . S
C466 C468 1.395 . S
C466 C469 1.403 . S
H467 C473 0.930 . S
C468 H454 0.930 . S
C468 C466 1.395 . S
C468 C471 1.403 . S
C469 C466 1.403 . S
C469 C470 1.524 . S
C469 C473 1.400 . S
C470 H455 0.960 . S
C470 H456 0.960 . S
C470 H457 0.960 . S
C470 C469 1.524 . S
C471 C468 1.403 . S
C471 C472 1.392 . S
C471 C475 1.495 . S
C472 C471 1.392 . S
C472 C473 1.385 . S
C472 C474 1.478 . S
C473 H467 0.930 . S
C473 C469 1.400 . S
C473 C472 1.385 . S
C474 C472 1.478 . S
C474 C476 1.381 . S
C474 C480 1.383 . S
C475 C471 1.495 . S
C475 H481 0.959 . S
C475 H482 0.961 . S
C475 H483 0.960 . S
C476 C474 1.381 . S
C476 C477 1.394 . S
C476 H484 0.930 . S
C477 C476 1.394 . S
C477 C478 1.383 . S
C477 H485 0.929 . S
C478 C477 1.383 . S
C478 C479 1.377 . S
C479 H463 0.930 . S
C479 C478 1.377 . S
C479 C480 1.379 . S
C480 H464 0.931 . S
C480 C474 1.383 . S
C480 C479 1.379 . S
H481 C475 0.959 . S
H482 C475 0.961 . S
H483 C475 0.960 . S
H484 C476 0.930 . S
H485 C477 0.929 . S
H486 C494 0.929 . S
H487 C496 0.930 . S
H488 C498 0.930 . S
H489 C501 0.929 . S
H490 C504 0.930 . S
H491 C506 0.960 . S
H492 C506 0.960 . S
H493 C506 0.960 . S
C494 H486 0.929 . S
C494 C495 1.377 . S
C494 C496 1.384 . S
C495 C494 1.377 . S
C495 C501 1.390 . S
C496 H487 0.930 . S
C496 C494 1.384 . S
C496 C497 1.372 . S
C497 C496 1.372 . S
C497 C498 1.400 . S
C497 C502 1.490 . S
C498 H488 0.930 . S
C498 C497 1.400 . S
C498 C501 1.386 . S
H499 C515 0.930 . S
H500 C516 0.931 . S
C501 H489 0.929 . S
C501 C495 1.390 . S
C501 C498 1.386 . S
C502 C497 1.490 . S
C502 C504 1.395 . S
C502 C505 1.403 . S
H503 C509 0.930 . S
C504 H490 0.930 . S
C504 C502 1.395 . S
C504 C507 1.403 . S
C505 C502 1.403 . S
C505 C506 1.524 . S
C505 C509 1.400 . S
C506 H491 0.960 . S
C506 H492 0.960 . S
C506 H493 0.960 . S
C506 C505 1.524 . S
C507 C504 1.403 . S
C507 C508 1.392 . S
C507 C511 1.495 . S
C508 C507 1.392 . S
C508 C509 1.385 . S
C508 C510 1.478 . S
C509 H503 0.930 . S
C509 C505 1.400 . S
C509 C508 1.385 . S
C510 C508 1.478 . S
C510 C512 1.381 . S
C510 C516 1.383 . S
C511 C507 1.495 . S
C511 H517 0.959 . S
C511 H518 0.961 . S
C511 H519 0.960 . S
C512 C510 1.381 . S
C512 C513 1.394 . S
C512 H520 0.930 . S
C513 C512 1.394 . S
C513 C514 1.383 . S
C513 H521 0.929 . S
C514 C513 1.383 . S
C514 C515 1.377 . S
C515 H499 0.930 . S
C515 C514 1.377 . S
C515 C516 1.379 . S
C516 H500 0.931 . S
C516 C510 1.383 . S
C516 C515 1.379 . S
H517 C511 0.959 . S
H518 C511 0.961 . S
H519 C511 0.960 . S
H520 C512 0.930 . S
H521 C513 0.929 . S
C118 C84 1.441 . S
C99 C16 1.282 . S
C135 C15 1.386 . S
C154 C70 1.328 . S
C171 C13 1.238 1_554 S
C190 C82 1.408 . S
C207 C14 1.410 . S
C226 C72 1.432 . S
C243 C37 1.282 . S
C262 C60 1.439 1_565 S
C279 C36 1.379 . S
C298 C46 1.350 . S
C334 C58 1.407 . S
C315 C34 1.242 . S
C370 C48 1.443 . S
C351 C35 1.407 . S
C387 C17 1.584 . S
C406 C51 1.627 . S
C423 C18 1.389 . S
C442 C63 1.395 . S
C478 C75 1.622 . S
C459 C38 1.585 . S
C495 C39 1.379 . S
C514 C87 1.418 . S
