# Generated by pormake.
# Topology anh, (6,3)-cn, num edge types: 1
# Building blocks:
#     Node 0, Type 0, BuildingBlock: PAMTUU_clean_sbu_0, # of connection points: 6
#     Node 1, Type 0, BuildingBlock: PAMTUU_clean_sbu_0, # of connection points: 6
#     Node 2, Type 0, BuildingBlock: PAMTUU_clean_sbu_0, # of connection points: 6
#     Node 3, Type 1, BuildingBlock: BELTOD_clean_linker_0, # of connection points: 3
#     Node 4, Type 1, BuildingBlock: BELTOD_clean_linker_0, # of connection points: 3
#     Node 5, Type 1, BuildingBlock: BELTOD_clean_linker_0, # of connection points: 3
#     Node 6, Type 1, BuildingBlock: BELTOD_clean_linker_0, # of connection points: 3
#     Node 7, Type 1, BuildingBlock: BELTOD_clean_linker_0, # of connection points: 3
#     Node 8, Type 1, BuildingBlock: BELTOD_clean_linker_0, # of connection points: 3
#     Edge 9, Type (0, 1), BuildingBlock: KIFKEQ_clean_linker_1, # of connection points: 2
#     Edge 10, Type (0, 1), BuildingBlock: KIFKEQ_clean_linker_1, # of connection points: 2
#     Edge 11, Type (0, 1), BuildingBlock: KIFKEQ_clean_linker_1, # of connection points: 2
#     Edge 12, Type (0, 1), BuildingBlock: KIFKEQ_clean_linker_1, # of connection points: 2
#     Edge 13, Type (0, 1), BuildingBlock: KIFKEQ_clean_linker_1, # of connection points: 2
#     Edge 14, Type (0, 1), BuildingBlock: KIFKEQ_clean_linker_1, # of connection points: 2
#     Edge 15, Type (0, 1), BuildingBlock: KIFKEQ_clean_linker_1, # of connection points: 2
#     Edge 16, Type (0, 1), BuildingBlock: KIFKEQ_clean_linker_1, # of connection points: 2
#     Edge 17, Type (0, 1), BuildingBlock: KIFKEQ_clean_linker_1, # of connection points: 2
#     Edge 18, Type (0, 1), BuildingBlock: KIFKEQ_clean_linker_1, # of connection points: 2
#     Edge 19, Type (0, 1), BuildingBlock: KIFKEQ_clean_linker_1, # of connection points: 2
#     Edge 20, Type (0, 1), BuildingBlock: KIFKEQ_clean_linker_1, # of connection points: 2
#     Edge 21, Type (0, 1), BuildingBlock: KIFKEQ_clean_linker_1, # of connection points: 2
#     Edge 22, Type (0, 1), BuildingBlock: KIFKEQ_clean_linker_1, # of connection points: 2
#     Edge 23, Type (0, 1), BuildingBlock: KIFKEQ_clean_linker_1, # of connection points: 2
#     Edge 24, Type (0, 1), BuildingBlock: KIFKEQ_clean_linker_1, # of connection points: 2
#     Edge 25, Type (0, 1), BuildingBlock: KIFKEQ_clean_linker_1, # of connection points: 2
#     Edge 26, Type (0, 1), BuildingBlock: KIFKEQ_clean_linker_1, # of connection points: 2
# Relax obj value: 0.242
# Max RMSD: 0.183
# Mean RMSD: 0.147
data_MOF--net-anh--node1-PAMTUU_clean_sbu_0--node2-BELTOD_clean_linker_0--edge1-KIFKEQ_clean_linker_1
_symmetry_space_group_name_H-M    P1
_symmetry_Int_Tables_number       1
_symmetry_cell_setting            triclinic
loop_
_symmetry_equiv_pos_as_xyz
'x, y, z'
_cell_length_a     35.198593
_cell_length_b     35.23859
_cell_length_c     61.643349
_cell_angle_alpha  92.308522
_cell_angle_beta   91.616518
_cell_angle_gamma 120.05576
loop_
_atom_site_label
_atom_site_type_symbol
_atom_site_fract_x
_atom_site_fract_y
_atom_site_fract_z
_atom_type_partial_charge
Tb0 Tb 0.08215 0.63154 0.16306 0.0
Tb1 Tb 0.13429 0.57885 0.15751 0.0
C2 C 0.09941 0.60429 0.11717 0.0
C3 C 0.99089 0.64527 0.17703 0.0
C4 C 0.90166 0.58606 0.18281 0.0
C5 C 0.91393 0.62127 0.16934 0.0
C6 C 0.9583 0.65064 0.16645 0.0
C7 C 0.97878 0.61288 0.19216 0.0
C8 C 0.93452 0.5837 0.19512 0.0
C9 C 1.0351 0.66577 0.16868 0.0
O10 O 1.02915 0.56187 0.15844 0.0
O11 O 1.06871 0.52893 0.1675 0.0
O12 O 0.15128 0.60955 0.18983 0.0
O13 O 0.08628 0.60667 0.19451 0.0
O14 O 0.17765 0.56561 0.14044 0.0
O15 O 0.14446 0.52878 0.16791 0.0
O16 O 0.18749 0.64847 0.15717 0.0
O17 O 0.15119 0.68537 0.16689 0.0
O18 O 0.10133 0.6368 0.12929 0.0
O19 O 0.10061 0.57202 0.12632 0.0
C20 C 1.03044 0.52678 0.16414 0.0
O21 O 1.06704 0.67227 0.18239 0.0
O22 O 1.03684 0.64785 0.15009 0.0
C23 C 0.12169 0.60776 0.20264 0.0
C24 C 0.21583 0.54051 0.16288 0.0
C25 C 0.29022 0.53521 0.1761 0.0
C26 C 0.25293 0.51737 0.18849 0.0
C27 C 0.21605 0.51988 0.18192 0.0
C28 C 0.25412 0.56074 0.15126 0.0
C29 C 0.29104 0.55828 0.15786 0.0
C30 C 0.17462 0.53693 0.1541 0.0
C31 C 0.18793 0.68545 0.16278 0.0
H32 H 0.88943 0.6238 0.15948 0.0
H33 H 0.96698 0.67509 0.15455 0.0
H34 H 1.00331 0.60778 0.2004 0.0
H35 H 0.92605 0.55726 0.20582 0.0
H36 H 0.25152 0.49959 0.20266 0.0
H37 H 0.18704 0.5039 0.19125 0.0
H38 H 0.25491 0.57665 0.13647 0.0
H39 H 0.31906 0.57179 0.14778 0.0
Tb40 Tb 0.54818 0.08423 0.49458 0.0
Tb41 Tb 0.65376 0.13903 0.49626 0.0
C42 C 0.59956 0.1077 0.45201 0.0
C43 C 0.44326 0.99164 0.50376 0.0
C44 C 0.41192 0.90338 0.51246 0.0
C45 C 0.38922 0.91441 0.49711 0.0
C46 C 0.40492 0.95829 0.49274 0.0
C47 C 0.464 0.98088 0.52026 0.0
C48 C 0.44841 0.93715 0.5246 0.0
C49 C 0.46646 1.03556 0.49532 0.0
O50 O 0.56619 1.03238 0.49163 0.0
O51 O 0.63928 0.0718 0.50285 0.0
O52 O 0.63288 0.14843 0.52754 0.0
O53 O 0.57269 0.08096 0.52689 0.0
O54 O 0.71231 0.18183 0.48205 0.0
O55 O 0.71324 0.15628 0.51328 0.0
O56 O 0.63572 0.19061 0.49325 0.0
O57 O 0.56267 0.15262 0.50089 0.0
O58 O 0.56664 0.10698 0.46191 0.0
O59 O 0.63246 0.10938 0.46337 0.0
C60 C 0.60295 1.03364 0.49819 0.0
O61 O 0.48964 0.06809 0.50969 0.0
O62 O 0.48848 1.03794 0.47826 0.0
C63 C 0.60489 0.11498 0.53785 0.0
C64 C 0.76656 0.23027 0.5089 0.0
C65 C 0.82886 0.31581 0.5257 0.0
C66 C 0.8206 0.27904 0.53724 0.0
C67 C 0.78992 0.23667 0.52886 0.0
C68 C 0.77307 0.26709 0.49798 0.0
C69 C 0.80384 0.3093 0.50626 0.0
C70 C 0.73607 0.18537 0.49951 0.0
C71 C 0.59897 0.19011 0.49793 0.0
H72 H 0.36128 0.88905 0.48731 0.0
H73 H 0.38889 0.96589 0.47975 0.0
H74 H 0.49395 1.006 0.52886 0.0
H75 H 0.4663 0.92964 0.53664 0.0
H76 H 0.83902 0.28289 0.55234 0.0
H77 H 0.78524 0.20885 0.53773 0.0
H78 H 0.75545 0.26343 0.48263 0.0
H79 H 0.80979 0.3366 0.49663 0.0
Tb80 Tb 0.55059 0.5139 0.82073 0.0
Tb81 Tb 0.59966 0.61699 0.83503 0.0
C82 C 0.58106 0.58227 0.78574 0.0
C83 C 0.54026 0.40799 0.81843 0.0
C84 C 0.59547 0.37272 0.82499 0.0
C85 C 0.56182 0.35451 0.80836 0.0
C86 C 0.53454 0.37229 0.805 0.0
C87 C 0.57224 0.42442 0.83578 0.0
C88 C 0.59963 0.40704 0.83901 0.0
C89 C 0.51899 0.43311 0.81246 0.0
O90 O 0.62147 0.53508 0.8193 0.0
O91 O 0.65281 0.60146 0.83899 0.0
O92 O 0.56811 0.58073 0.8633 0.0
O93 O 0.57779 0.52392 0.85359 0.0
O94 O 0.62089 0.68167 0.82737 0.0
O95 O 0.63443 0.66743 0.8595 0.0
O96 O 0.53085 0.60027 0.8293 0.0
O97 O 0.49583 0.525 0.82949 0.0
O98 O 0.54829 0.54542 0.7917 0.0
O99 O 0.61018 0.61143 0.80033 0.0
C100 C 0.65597 0.5686 0.82992 0.0
O101 O 0.50729 0.44922 0.82871 0.0
O102 O 0.53989 0.46242 0.79843 0.0
C103 C 0.57187 0.54716 0.8686 0.0
C104 C 0.61665 0.72344 0.85717 0.0
C105 C 0.58997 0.78218 0.87302 0.0
C106 C 0.62388 0.77923 0.8841 0.0
C107 C 0.63736 0.7504 0.8761 0.0
C108 C 0.58017 0.7233 0.84728 0.0
C109 C 0.56716 0.75248 0.85502 0.0
C110 C 0.63414 0.69683 0.84746 0.0
C111 C 0.49448 0.56198 0.8303 0.0
H112 H 0.55823 0.32821 0.79721 0.0
H113 H 0.51055 0.35965 0.79134 0.0
H114 H 0.5776 0.45219 0.84626 0.0
H115 H 0.62504 0.42139 0.85204 0.0
H116 H 0.64153 0.80075 0.89831 0.0
H117 H 0.66499 0.75031 0.88425 0.0
H118 H 0.56288 0.70213 0.83291 0.0
H119 H 0.54122 0.75372 0.8458 0.0
P120 P 0.62679 0.09782 0.21164 0.0
H121 H 0.59557 1.0286 0.17558 0.0
H122 H 0.52415 0.96485 0.16499 0.0
H123 H 0.46349 1.01254 0.21016 0.0
H124 H 0.53478 0.07755 0.21935 0.0
H125 H 0.69915 0.12175 0.18199 0.0
H126 H 0.7612 0.19066 0.1724 0.0
H127 H 0.70835 0.2616 0.20678 0.0
H128 H 0.6447 0.19163 0.21528 0.0
H129 H 0.57028 1.03561 0.24254 0.0
H130 H 0.67465 0.17083 0.24627 0.0
O131 O 0.65254 0.06889 0.21108 0.0
H132 H 0.56422 1.0396 0.28162 0.0
H133 H 0.66788 0.17541 0.28533 0.0
C134 C 0.57166 0.0587 0.19848 0.0
C135 C 0.56676 1.02618 0.18275 0.0
C136 C 0.52525 0.98858 0.17703 0.0
C137 C 0.48648 0.98122 0.18701 0.0
C138 C 0.49133 1.01555 0.20177 0.0
C139 C 0.53281 0.05357 0.20714 0.0
C140 C 0.66669 0.15039 0.19988 0.0
C141 C 0.70017 0.15194 0.18725 0.0
C142 C 0.73671 0.19218 0.18201 0.0
C143 C 0.742 0.23329 0.18927 0.0
C144 C 0.70678 0.23157 0.20075 0.0
C145 C 0.66974 0.19101 0.20573 0.0
C146 C 0.62085 0.10374 0.24079 0.0
C147 C 0.59081 0.06683 0.25152 0.0
C148 C 0.58748 0.06906 0.27409 0.0
C149 C 0.6149 0.1081 0.28683 0.0
C150 C 0.64591 0.14478 0.27617 0.0
C151 C 0.6492 0.14245 0.25353 0.0
P152 P 0.62447 0.62689 0.54691 0.0
H153 H 0.64284 0.59024 0.50658 0.0
H154 H 0.63561 0.51889 0.49636 0.0
H155 H 0.56463 0.46667 0.55391 0.0
H156 H 0.57045 0.53668 0.56333 0.0
H157 H 0.65359 0.68398 0.50947 0.0
H158 H 0.64781 0.74756 0.4995 0.0
H159 H 0.55799 0.72381 0.55022 0.0
H160 H 0.56347 0.66059 0.55983 0.0
H161 H 0.68759 0.65222 0.58469 0.0
H162 H 0.54744 0.59508 0.57431 0.0
O163 O 0.67867 0.65286 0.54416 0.0
H164 H 0.67999 0.6467 0.62357 0.0
H165 H 0.53969 0.5926 0.6135 0.0
C166 C 0.60675 0.5701 0.53569 0.0
C167 C 0.62438 0.56309 0.51667 0.0
C168 C 0.62093 0.52189 0.51104 0.0
C169 C 0.59988 0.48566 0.52428 0.0
C170 C 0.58073 0.49247 0.54284 0.0
C171 C 0.58406 0.53349 0.54836 0.0
C172 C 0.60885 0.6659 0.53547 0.0
C173 C 0.63165 0.69152 0.51818 0.0
C174 C 0.62885 0.72885 0.51266 0.0
C175 C 0.60282 0.74233 0.52411 0.0
C176 C 0.57831 0.71528 0.5407 0.0
C177 C 0.58139 0.67819 0.54628 0.0
C178 C 0.61823 0.62521 0.57629 0.0
C179 C 0.6551 0.63939 0.59072 0.0
C180 C 0.6507 0.6365 0.61324 0.0
C181 C 0.60922 0.61963 0.62215 0.0
C182 C 0.57227 0.60544 0.60757 0.0
C183 C 0.5767 0.60768 0.585 0.0
P184 P 0.09578 0.59957 0.87569 0.0
H185 H 0.14272 0.60954 0.83511 0.0
H186 H 0.20391 0.5987 0.8258 0.0
H187 H 0.19184 0.5347 0.88555 0.0
H188 H 0.12999 0.54442 0.89426 0.0
H189 H 1.06539 0.65352 0.85365 0.0
H190 H 0.99454 0.64484 0.84395 0.0
H191 H 0.93139 0.51041 0.86205 0.0
H192 H 1.00397 0.51874 0.87038 0.0
H193 H 0.16352 0.64382 0.91078 0.0
H194 H 1.0248 0.54905 0.90627 0.0
O195 O 0.12813 0.65321 0.87268 0.0
H196 H 0.16316 0.64452 0.95039 0.0
H197 H 1.02402 0.55026 0.94568 0.0
C198 C 0.13034 0.57738 0.86532 0.0
C199 C 0.15208 0.59174 0.8459 0.0
C200 C 0.18819 0.58628 0.84079 0.0
C201 C 0.20447 0.56634 0.85496 0.0
C202 C 0.18104 0.54997 0.8739 0.0
C203 C 0.14493 0.55544 0.87895 0.0
C204 C 1.04137 0.58716 0.86332 0.0
C205 C 1.03673 0.62166 0.85531 0.0
C206 C 0.99518 0.6168 0.85003 0.0
C207 C 0.95558 0.57731 0.85284 0.0
C208 C 0.96024 0.54173 0.85967 0.0
C209 C 1.00228 0.54648 0.86458 0.0
C210 C 0.09414 0.59685 0.9052 0.0
C211 C 0.13285 0.62322 0.91822 0.0
C212 C 0.13256 0.62381 0.94099 0.0
C213 C 0.09346 0.59779 0.95143 0.0
C214 C 1.05488 0.57058 0.93833 0.0
C215 C 1.05524 0.57005 0.91554 0.0
P216 P 0.18553 0.49723 0.42242 0.0
H217 H 0.23638 0.49618 0.46 0.0
H218 H 0.29707 0.55674 0.48204 0.0
H219 H 0.31257 0.64488 0.43193 0.0
H220 H 0.25191 0.58488 0.4103 0.0
H221 H 0.09337 0.43481 0.4278 0.0
H222 H 1.03996 0.43452 0.45251 0.0
H223 H 0.13949 0.55962 0.48249 0.0
H224 H 0.19238 0.56074 0.45735 0.0
H225 H 0.21983 0.49627 0.38016 0.0
H226 H 0.12794 0.53018 0.40688 0.0
O227 O 0.18011 0.44739 0.42026 0.0
H228 H 0.20627 0.51581 0.34434 0.0
H229 H 0.11264 0.54766 0.37112 0.0
C230 C 0.23976 0.53604 0.43352 0.0
C231 C 0.25423 0.52815 0.45336 0.0
C232 C 0.28866 0.56274 0.46599 0.0
C233 C 0.3093 0.60546 0.45873 0.0
C234 C 0.29764 0.61219 0.43783 0.0
C235 C 0.2628 0.57779 0.4254 0.0
C236 C 0.1471 0.49702 0.44112 0.0
C237 C 0.1037 0.46212 0.4397 0.0
C238 C 1.07322 0.46223 0.45364 0.0
C239 C 0.08586 0.49715 0.46931 0.0
C240 C 0.12919 0.53234 0.47058 0.0
C241 C 0.15945 0.53264 0.45632 0.0
C242 C 0.17453 0.51112 0.3961 0.0
C243 C 0.19637 0.50742 0.37825 0.0
C244 C 0.18832 0.51835 0.35776 0.0
C245 C 0.15798 0.53294 0.35475 0.0
C246 C 0.13647 0.53695 0.37283 0.0
C247 C 0.14491 0.52644 0.39333 0.0
P248 P 0.75685 0.11663 0.76128 0.0
H249 H 0.8036 0.16594 0.80154 0.0
H250 H 0.80715 0.23056 0.82011 0.0
H251 H 0.75062 0.25183 0.76201 0.0
H252 H 0.74633 0.18748 0.74386 0.0
H253 H 0.72182 1.02424 0.76872 0.0
H254 H 0.66688 0.97459 0.79283 0.0
H255 H 0.64457 0.07895 0.81553 0.0
H256 H 0.69823 0.12805 0.79087 0.0
H257 H 0.7983 0.15046 0.72098 0.0
H258 H 0.66737 0.06322 0.74078 0.0
O259 O 0.79936 0.10809 0.76265 0.0
H260 H 0.76903 0.14452 0.68388 0.0
H261 H 0.63811 0.05517 0.70361 0.0
C262 C 0.77475 0.17189 0.77134 0.0
C263 C 0.79375 0.18569 0.79255 0.0
C264 C 0.79561 0.22243 0.80317 0.0
C265 C 0.77904 0.24605 0.79252 0.0
C266 C 0.7642 0.23464 0.77055 0.0
C267 C 0.76163 0.19757 0.76011 0.0
C268 C 0.71523 0.08014 0.77852 0.0
C269 C 0.70495 1.03635 0.77878 0.0
C270 C 0.67329 1.00799 0.79237 0.0
C271 C 0.65165 1.02316 0.80599 0.0
C272 C 0.66101 0.06668 0.80524 0.0
C273 C 0.69205 0.09478 0.79129 0.0
C274 C 0.73519 0.1071 0.73358 0.0
C275 C 0.76338 0.12923 0.7172 0.0
C276 C 0.74652 0.12558 0.69596 0.0
C277 C 0.70109 0.09926 0.69067 0.0
C278 C 0.67312 0.07625 0.70712 0.0
C279 C 0.68998 0.08045 0.72842 0.0
P280 P 0.49229 0.33271 0.07449 0.0
H281 H 0.509 0.29226 0.11066 0.0
H282 H 0.57591 0.31598 0.13372 0.0
H283 H 0.6519 0.41025 0.08745 0.0
H284 H 0.58535 0.38812 0.06509 0.0
H285 H 0.41651 0.30598 0.10171 0.0
H286 H 0.39986 0.34704 0.12916 0.0
H287 H 0.52437 0.46357 0.12006 0.0
H288 H 0.5404 0.4226 0.0925 0.0
H289 H 0.53252 0.32799 0.03428 0.0
H290 H 0.46445 0.39298 0.05839 0.0
O291 O 0.45311 0.27997 0.07128 0.0
H292 H 0.54679 0.36787 1.00105 0.0
H293 H 0.47939 0.4334 0.02568 0.0
C294 C 0.54218 0.33759 0.08587 0.0
C295 C 0.54034 0.3167 0.10503 0.0
C296 C 0.5784 0.33045 0.11827 0.0
C297 C 0.61884 0.36475 0.11226 0.0
C298 C 0.62114 0.3832 0.09223 0.0
C299 C 0.58299 0.37021 0.0793 0.0
C300 C 0.47935 0.36151 0.09494 0.0
C301 C 0.44018 0.34029 0.1057 0.0
C302 C 0.431 0.36365 0.12153 0.0
C303 C 0.46091 0.40848 0.12673 0.0
C304 C 0.50062 0.42917 0.11626 0.0
C305 C 0.50976 0.40583 0.10053 0.0
C306 C 0.49883 0.3586 0.04914 0.0
C307 C 0.52073 0.35084 0.03244 0.0
C308 C 0.52908 0.37385 0.01356 0.0
C309 C 0.51491 0.40442 0.01092 0.0
C310 C 0.49085 0.41022 0.02721 0.0
C311 C 0.48267 0.38732 0.04608 0.0
H312 H 0.2782 0.45485 0.18396 0.0
H313 H 0.37968 0.58845 0.17554 0.0
H314 H 0.33061 0.43032 0.17948 0.0
H315 H 0.43312 0.564 0.17157 0.0
H316 H 0.4699 0.48821 0.12021 0.0
H317 H 0.43905 0.52536 0.14068 0.0
H318 H 0.39403 0.42516 0.18731 0.0
H319 H 0.42429 0.38719 0.16624 0.0
C320 C 0.31225 0.47933 0.18211 0.0
C321 C 0.3247 0.52346 0.17969 0.0
C322 C 0.34252 0.46524 0.17958 0.0
C323 C 0.38598 0.49505 0.17468 0.0
C324 C 0.39958 0.54003 0.17476 0.0
C325 C 0.3691 0.55409 0.17709 0.0
C326 C 0.45452 0.47474 0.13516 0.0
C327 C 0.44888 0.43448 0.14147 0.0
C328 C 0.43701 0.49624 0.14705 0.0
C329 C 0.41363 0.47809 0.16559 0.0
C330 C 0.41113 0.43959 0.17288 0.0
C331 C 0.42834 0.41781 0.16083 0.0
H332 H 0.83759 0.39758 0.52276 0.0
H333 H 0.90984 0.33334 0.54114 0.0
H334 H 0.90679 0.46458 0.5175 0.0
H335 H 0.97811 0.39989 0.53647 0.0
H336 H 0.09528 0.50316 0.51351 0.0
H337 H 1.03569 0.47873 0.53852 0.0
H338 H 0.94537 0.46093 0.48485 0.0
H339 H 1.00467 0.48522 0.46017 0.0
C340 C 0.86816 0.39822 0.52651 0.0
C341 C 0.86815 0.35955 0.53141 0.0
C342 C 0.90775 0.4367 0.52367 0.0
C343 C 0.94774 0.43701 0.52588 0.0
C344 C 0.94788 0.40076 0.5345 0.0
C345 C 0.9084 0.36226 0.53716 0.0
C346 C 1.06299 0.49569 0.50734 0.0
C347 C 1.05401 0.49496 0.48494 0.0
C348 C 1.02898 0.4818 0.52162 0.0
C349 C 0.98576 0.46733 0.51363 0.0
C350 C 0.97827 0.47206 0.49162 0.0
C351 C 1.01207 0.48544 0.47737 0.0
H352 H 0.51384 0.78665 0.86897 0.0
H353 H 0.65315 0.86647 0.886 0.0
H354 H 0.51204 0.85255 0.85997 0.0
H355 H 0.65062 0.93139 0.87811 0.0
H356 H 0.65718 1.04078 0.84971 0.0
H357 H 0.62536 0.98618 0.87695 0.0
H358 H 0.55019 0.88599 0.82583 0.0
H359 H 0.58198 0.9404 0.79885 0.0
C360 C 0.54368 0.81821 0.87162 0.0
C361 C 0.5841 0.82085 0.8771 0.0
C362 C 0.54245 0.85597 0.86669 0.0
C363 C 0.58144 0.89689 0.86766 0.0
C364 C 0.61997 0.90033 0.87704 0.0
C365 C 0.62139 0.86266 0.88159 0.0
C366 C 0.63235 1.00743 0.84447 0.0
C367 C 0.62267 0.99432 0.82224 0.0
C368 C 0.61412 0.97625 0.86005 0.0
C369 C 0.58586 0.93173 0.85352 0.0
C370 C 0.57172 0.92002 0.83145 0.0
C371 C 0.59028 0.95103 0.81592 0.0
H372 H 0.87748 0.49978 0.17887 0.0
H373 H 0.82355 0.58615 0.18083 0.0
H374 H 0.80573 0.43841 0.16649 0.0
H375 H 0.75144 0.52426 0.16847 0.0
H376 H 0.62197 0.39785 0.15318 0.0
H377 H 0.68802 0.4466 0.17632 0.0
H378 H 0.76793 0.42992 0.12925 0.0
H379 H 0.70203 0.38173 0.10609 0.0
C380 C 0.85002 0.50539 0.17739 0.0
C381 C 0.85627 0.54793 0.18062 0.0
C382 C 0.80905 0.47023 0.1702 0.0
C383 C 0.77334 0.47671 0.16641 0.0
C384 C 0.77851 0.51838 0.17138 0.0
C385 C 0.81976 0.55381 0.17832 0.0
C386 C 0.6536 0.40366 0.14816 0.0
C387 C 0.65718 0.38611 0.12795 0.0
C388 C 0.69127 0.43174 0.16128 0.0
C389 C 0.73291 0.44202 0.15451 0.0
C390 C 0.73613 0.42217 0.13493 0.0
C391 C 0.69859 0.39474 0.12167 0.0
H392 H 0.46955 0.87324 0.5134 0.0
H393 H 0.33091 0.82942 0.513 0.0
H394 H 0.45262 0.79738 0.50726 0.0
H395 H 0.31393 0.7536 0.50673 0.0
H396 H 0.28938 0.61949 0.4994 0.0
H397 H 0.32035 0.69016 0.52 0.0
H398 H 0.41839 0.74977 0.47262 0.0
H399 H 0.38762 0.67899 0.45212 0.0
C400 C 0.4355 0.84729 0.51265 0.0
C401 C 0.40149 0.85723 0.5134 0.0
C402 C 0.42587 0.80394 0.50904 0.0
C403 C 0.38204 0.7697 0.50639 0.0
C404 C 0.34807 0.77931 0.50889 0.0
C405 C 0.35772 0.82271 0.51227 0.0
C406 C 0.31872 0.64727 0.4939 0.0
C407 C 0.33594 0.64397 0.47406 0.0
C408 C 0.33615 0.68776 0.50559 0.0
C409 C 0.37128 0.72547 0.49773 0.0
C410 C 0.39137 0.7212 0.47912 0.0
C411 C 0.37369 0.68078 0.46732 0.0
H412 H 0.58085 0.28907 0.82467 0.0
H413 H 0.68454 0.42494 0.82842 0.0
H414 H 0.63567 0.26604 0.82334 0.0
H415 H 0.73949 0.4019 0.8272 0.0
H416 H 0.79393 0.32688 0.782 0.0
H417 H 0.75535 0.36337 0.79595 0.0
H418 H 0.69953 0.26779 0.84442 0.0
H419 H 0.73769 0.23109 0.83037 0.0
C420 C 0.61539 0.31391 0.82553 0.0
C421 C 0.6285 0.35865 0.82655 0.0
C422 C 0.64678 0.30083 0.82503 0.0
C423 C 0.69182 0.33227 0.82528 0.0
C424 C 0.705 0.37707 0.82703 0.0
C425 C 0.6736 0.39016 0.8278 0.0
C426 C 0.77467 0.31469 0.79613 0.0
C427 C 0.76839 0.27596 0.80495 0.0
C428 C 0.75271 0.3356 0.80416 0.0
C429 C 0.7239 0.31783 0.821 0.0
C430 C 0.72117 0.28176 0.83124 0.0
C431 C 0.7434 0.26107 0.82334 0.0
H432 H 0.67171 1.02122 0.51192 0.0
H433 H 0.53418 0.94721 0.49147 0.0
H434 H 0.67144 0.95289 0.51771 0.0
H435 H 0.5342 0.87871 0.49659 0.0
H436 H 0.53483 0.76137 0.52741 0.0
H437 H 0.53514 0.82948 0.52125 0.0
H438 H 0.66964 0.88901 0.50318 0.0
H439 H 0.6698 0.82143 0.51004 0.0
C440 C 0.64131 0.99045 0.50846 0.0
C441 C 0.60302 0.9907 0.50111 0.0
C442 C 0.64118 0.95071 0.5117 0.0
C443 C 0.6027 0.90908 0.50781 0.0
C444 C 0.56446 0.90942 0.50032 0.0
C445 C 0.56457 0.94917 0.4971 0.0
C446 C 0.56477 0.78889 0.52227 0.0
C447 C 0.60232 0.7847 0.51937 0.0
C448 C 0.56478 0.82837 0.51843 0.0
C449 C 0.60243 0.86598 0.51161 0.0
C450 C 0.6399 0.86172 0.50863 0.0
C451 C 0.6398 0.82216 0.51234 0.0
H452 H 0.73156 0.62769 0.85422 0.0
H453 H 0.67966 0.50927 0.81264 0.0
H454 H 0.80002 0.62781 0.86006 0.0
H455 H 0.74937 0.51024 0.8176 0.0
H456 H 0.87178 0.50402 0.84164 0.0
H457 H 0.80116 0.5007 0.8366 0.0
H458 H 0.86579 0.64129 0.84933 0.0
H459 H 0.93487 0.64406 0.856 0.0
C460 C 0.73479 0.6018 0.84599 0.0
C461 C 0.69933 0.56875 0.83272 0.0
C462 C 0.77484 0.60199 0.84923 0.0
C463 C 0.78198 0.56937 0.83918 0.0
C464 C 0.74623 0.53603 0.82595 0.0
C465 C 0.70584 0.53564 0.82287 0.0
C466 C 0.87116 0.53433 0.84369 0.0
C467 C 0.91062 0.5744 0.8492 0.0
C468 C 0.83007 0.5325 0.84045 0.0
C469 C 0.82624 0.57068 0.84248 0.0
C470 C 0.86577 0.6106 0.84789 0.0
C471 C 0.90652 0.61235 0.85133 0.0
H472 H 0.20327 0.77082 0.16464 0.0
H473 H 0.27282 0.6994 0.16716 0.0
H474 H 0.27256 0.83992 0.16924 0.0
H475 H 0.34221 0.76816 0.17308 0.0
H476 H 0.46969 0.89798 0.17125 0.0
H477 H 0.40076 0.83038 0.16426 0.0
H478 H 0.33137 0.89456 0.18773 0.0
H479 H 0.40004 0.96324 0.19279 0.0
C480 C 0.23338 0.76968 0.16632 0.0
C481 C 0.23162 0.72871 0.16536 0.0
C482 C 0.27382 0.80991 0.16923 0.0
C483 C 0.31473 0.81136 0.17176 0.0
C484 C 0.31264 0.77003 0.17084 0.0
C485 C 0.27221 0.72984 0.16754 0.0
C486 C 0.44 0.89859 0.17455 0.0
C487 C 0.44222 0.93793 0.18263 0.0
C488 C 0.39955 0.8586 0.17087 0.0
C489 C 0.35873 0.85517 0.17539 0.0
C490 C 0.36093 0.89446 0.18353 0.0
C491 C 0.40135 0.93464 0.18689 0.0
H492 H 0.66917 0.27596 0.49918 0.0
H493 H 0.52854 0.20383 0.50333 0.0
H494 H 0.66937 0.34493 0.50514 0.0
H495 H 0.52819 0.27258 0.50845 0.0
H496 H 0.53887 0.40058 0.53534 0.0
H497 H 0.5395 0.33251 0.52939 0.0
H498 H 0.65794 0.40029 0.49463 0.0
H499 H 0.6589 0.4691 0.50186 0.0
C500 C 0.63803 0.27458 0.50112 0.0
C501 C 0.59884 0.23341 0.5007 0.0
C502 C 0.63804 0.3147 0.50447 0.0
C503 C 0.59879 0.31582 0.50743 0.0
C504 C 0.55955 0.27441 0.50675 0.0
C505 C 0.55962 0.23433 0.50358 0.0
C506 C 0.56562 0.40165 0.52665 0.0
C507 C 0.59898 0.4419 0.51933 0.0
C508 C 0.56559 0.36165 0.52286 0.0
C509 C 0.59874 0.35936 0.51136 0.0
C510 C 0.63187 0.39952 0.50382 0.0
C511 C 0.63203 0.43962 0.50773 0.0
H512 H 0.40972 0.49068 0.83322 0.0
H513 H 0.47976 0.63207 0.83422 0.0
H514 H 0.341 0.49071 0.83838 0.0
H515 H 0.41178 0.63236 0.83988 0.0
H516 H 0.27817 0.62377 0.83308 0.0
H517 H 0.34463 0.62128 0.82641 0.0
H518 H 0.29525 0.50299 0.86098 0.0
H519 H 0.22769 0.50429 0.86674 0.0
C520 C 0.41072 0.5219 0.83453 0.0
C521 C 0.45112 0.56132 0.83311 0.0
C522 C 0.37093 0.52201 0.8377 0.0
C523 C 0.36959 0.56156 0.83961 0.0
C524 C 0.41017 0.6009 0.83816 0.0
C525 C 0.44981 0.60077 0.83499 0.0
C526 C 0.28074 0.59665 0.83906 0.0
C527 C 0.24622 0.56421 0.85052 0.0
C528 C 0.31982 0.59558 0.83547 0.0
C529 C 0.32669 0.56204 0.84315 0.0
C530 C 0.29204 0.52936 0.85446 0.0
C531 C 0.25292 0.53044 0.85807 0.0
H532 H 0.94348 0.50377 0.15399 0.0
H533 H 1.0196 0.45131 0.18209 0.0
H534 H 0.87582 0.43478 0.15914 0.0
H535 H 0.95225 0.38344 0.18832 0.0
H536 H 0.82717 0.24936 0.1829 0.0
H537 H 0.89326 0.31704 0.17606 0.0
H538 H 0.82249 0.38719 0.18154 0.0
H539 H 0.75516 0.31866 0.18677 0.0
C540 C 0.94602 0.47774 0.16143 0.0
C541 C 0.98789 0.48391 0.16744 0.0
C542 C 0.90671 0.43783 0.16465 0.0
C543 C 0.90719 0.40229 0.17438 0.0
C544 C 0.94927 0.40879 0.18046 0.0
C545 C 0.98851 0.44841 0.17698 0.0
C546 C 0.82479 0.27872 0.18223 0.0
C547 C 0.78414 0.27687 0.18529 0.0
C548 C 0.86373 0.3185 0.17863 0.0
C549 C 0.8646 0.35903 0.17809 0.0
C550 C 0.82409 0.35736 0.1813 0.0
C551 C 0.78495 0.31744 0.18472 0.0
H552 H 0.09853 0.66594 0.09119 0.0
H553 H 0.09472 0.54142 0.08792 0.0
H554 H 0.09558 0.66463 0.05142 0.0
H555 H 0.09267 0.54054 0.04848 0.0
H556 H 1.0476 0.52941 0.97763 0.0
H557 H 1.04677 0.53159 0.01715 0.0
H558 H 0.13861 0.6712 0.02038 0.0
H559 H 0.13806 0.66932 0.98076 0.0
C560 C 0.09705 0.63829 0.08204 0.0
C561 C 0.09677 0.60377 0.0929 0.0
C562 C 0.09564 0.63765 0.05919 0.0
C563 C 0.09378 0.60241 0.04656 0.0
C564 C 0.09333 0.56791 0.0575 0.0
C565 C 0.09479 0.56857 0.08025 0.0
C566 C 1.06725 0.56072 0.9867 0.0
C567 C 0.09296 0.59915 0.97581 0.0
C568 C 1.06718 0.56191 0.00948 0.0
C569 C 0.09279 0.60156 0.02215 0.0
C570 C 0.11814 0.64009 0.01127 0.0
C571 C 0.11827 0.63889 0.98847 0.0
H572 H 0.54026 0.10905 0.42227 0.0
H573 H 0.66134 0.10601 0.42659 0.0
H574 H 0.54373 0.11079 0.38274 0.0
H575 H 0.66426 0.10665 0.38725 0.0
H576 H 0.68222 0.15108 0.3184 0.0
H577 H 0.67771 0.15226 0.35773 0.0
H578 H 0.53675 0.06821 0.35003 0.0
H579 H 0.54105 0.06875 0.31065 0.0
C580 C 0.56748 0.10849 0.41482 0.0
C581 C 0.60053 0.10747 0.42776 0.0
C582 C 0.5694 0.10928 0.39207 0.0
C583 C 0.60442 0.10907 0.38159 0.0
C584 C 0.6372 0.1077 0.3946 0.0
C585 C 0.63532 0.10698 0.41728 0.0
C586 C 0.65013 0.13337 0.32501 0.0
C587 C 0.61204 0.10979 0.31111 0.0
C588 C 0.64758 0.13353 0.34769 0.0
C589 C 0.60686 0.11006 0.35729 0.0
C590 C 0.5687 0.087 0.34339 0.0
C591 C 0.57124 0.08687 0.3207 0.0
H592 H 0.5451 0.52039 0.75188 0.0
H593 H 0.62788 0.6601 0.7657 0.0
H594 H 0.55255 0.53024 0.71326 0.0
H595 H 0.63351 0.67066 0.72672 0.0
H596 H 0.66833 0.67294 0.65579 0.0
H597 H 0.66262 0.6643 0.6946 0.0
H598 H 0.53209 0.55186 0.68287 0.0
H599 H 0.53949 0.55793 0.6441 0.0
C600 C 0.56449 0.55346 0.74664 0.0
C601 C 0.58576 0.58946 0.76201 0.0
C602 C 0.56853 0.55923 0.72431 0.0
C603 C 0.59331 0.60139 0.71643 0.0
C604 C 0.6146 0.63754 0.73189 0.0
C605 C 0.61118 0.6316 0.75435 0.0
C606 C 0.63863 0.64579 0.66136 0.0
C607 C 0.6046 0.61596 0.64636 0.0
C608 C 0.63501 0.64129 0.68387 0.0
C609 C 0.59692 0.60719 0.6923 0.0
C610 C 0.56248 0.57805 0.67732 0.0
C611 C 0.5664 0.58209 0.65482 0.0
H612 H 0.55249 0.05426 0.56608 0.0
H613 H 0.6796 0.17106 0.56212 0.0
H614 H 0.57279 1.04779 0.60361 0.0
H615 H 0.69964 0.16396 0.59917 0.0
H616 H 0.73761 0.09867 0.65205 0.0
H617 H 0.71118 0.1021 0.61563 0.0
H618 H 0.5963 0.09678 0.64172 0.0
H619 H 0.62343 0.09537 0.67842 0.0
C620 C 0.58445 0.07871 0.57325 0.0
C621 C 0.61444 0.11309 0.56113 0.0
C622 C 0.59598 0.07497 0.59466 0.0
C623 C 0.6379 0.10511 0.60405 0.0
C624 C 0.66733 0.14003 0.59214 0.0
C625 C 0.65564 0.14419 0.57098 0.0
C626 C 0.7069 0.09859 0.65014 0.0
C627 C 0.68298 0.09725 0.66828 0.0
C628 C 0.69169 0.10028 0.62927 0.0
C629 C 0.65192 0.09996 0.62601 0.0
C630 C 0.62697 0.09681 0.64389 0.0
C631 C 0.6425 0.0958 0.66486 0.0
H632 H 0.59951 0.49456 0.88509 0.0
H633 H 0.53689 0.56907 0.90301 0.0
H634 H 0.58819 0.46528 0.92069 0.0
H635 H 0.52598 0.53985 0.93925 0.0
H636 H 0.46182 0.42473 0.98661 0.0
H637 H 0.47972 0.4663 0.95401 0.0
H638 H 0.61109 0.4859 0.95901 0.0
H639 H 0.59324 0.44439 0.99153 0.0
C640 C 0.58369 0.5051 0.89676 0.0
C641 C 0.56875 0.53388 0.89119 0.0
C642 C 0.57754 0.48854 0.91728 0.0
C643 C 0.55619 0.50022 0.93281 0.0
C644 C 0.54225 0.53001 0.92752 0.0
C645 C 0.54874 0.54696 0.90689 0.0
C646 C 0.49468 0.43838 0.98089 0.0
C647 C 0.52595 0.43078 0.99148 0.0
C648 C 0.50498 0.46237 0.96228 0.0
C649 C 0.54674 0.47922 0.95389 0.0
C650 C 0.57839 0.47274 0.96488 0.0
C651 C 0.5681 0.44877 0.98344 0.0
H652 H 0.18638 0.59845 0.22222 0.0
H653 H 1.06801 0.60172 0.23564 0.0
H654 H 0.1918 0.58054 0.2593 0.0
H655 H 1.07411 0.58402 0.2733 0.0
H656 H 0.14323 0.59986 0.3443 0.0
H657 H 0.1313 0.61902 0.30802 0.0
H658 H 0.14136 0.5108 0.27947 0.0
H659 H 0.15166 0.4905 0.31553 0.0
C660 C 0.16165 0.59579 0.23312 0.0
C661 C 0.12652 0.60127 0.2259 0.0
C662 C 0.16474 0.58527 0.25435 0.0
C663 C 0.1331 0.58039 0.269 0.0
C664 C 0.09887 0.58758 0.26222 0.0
C665 C 0.0954 0.59765 0.24073 0.0
C666 C 0.14208 0.57962 0.33032 0.0
C667 C 0.14892 0.54387 0.33286 0.0
C668 C 0.13532 0.5907 0.30959 0.0
C669 C 0.13581 0.56658 0.29105 0.0
C670 C 0.14147 0.53028 0.29356 0.0
C671 C 0.1477 0.51889 0.31421 0.0
loop_
_geom_bond_atom_site_label_1
_geom_bond_atom_site_label_2
_geom_bond_distance
_geom_bond_site_symmetry_2
_ccdc_geom_bond_type
Tb0 C9 2.764 1_455 S
Tb0 O10 2.325 1_455 S
Tb0 O13 2.303 . S
Tb0 O17 2.322 . S
Tb0 O18 2.349 . S
Tb0 O21 2.415 1_455 S
Tb0 O22 2.399 1_455 S
Tb1 O11 2.322 . S
Tb1 O12 2.349 . S
Tb1 O14 2.415 . S
Tb1 O15 2.399 . S
Tb1 O16 2.325 . S
Tb1 O19 2.303 . S
Tb1 C30 2.764 . S
C2 O18 1.261 . S
C2 O19 1.257 . S
C3 C6 1.358 . S
C3 C7 1.332 . S
C3 C9 1.504 . S
C4 C5 1.373 . S
C4 C8 1.308 . S
C5 C4 1.373 . S
C5 C6 1.429 . S
C5 H32 0.932 . S
C6 C3 1.358 . S
C6 C5 1.429 . S
C6 H33 0.930 . S
C7 C3 1.332 . S
C7 C8 1.394 . S
C7 H34 0.932 . S
C8 C4 1.308 . S
C8 C7 1.394 . S
C8 H35 0.929 . S
C9 Tb0 2.764 1_655 S
C9 C3 1.504 . S
C9 O21 1.239 . S
C9 O22 1.263 . S
O10 Tb0 2.325 1_655 S
O10 C20 1.236 . S
O11 Tb1 2.322 . S
O11 C20 1.257 1_455 S
O12 Tb1 2.349 . S
O12 C23 1.261 . S
O13 Tb0 2.303 . S
O13 C23 1.257 . S
O14 Tb1 2.415 . S
O14 C30 1.239 . S
O15 Tb1 2.399 . S
O15 C30 1.263 . S
O16 Tb1 2.325 . S
O16 C31 1.236 . S
O17 Tb0 2.322 . S
O17 C31 1.257 . S
O18 Tb0 2.349 . S
O18 C2 1.261 . S
O19 Tb1 2.303 . S
O19 C2 1.257 . S
C20 O10 1.236 . S
C20 O11 1.257 1_655 S
O21 Tb0 2.415 1_655 S
O21 C9 1.239 . S
O22 Tb0 2.399 1_655 S
O22 C9 1.263 . S
C23 O12 1.261 . S
C23 O13 1.257 . S
C24 C27 1.358 . S
C24 C28 1.332 . S
C24 C30 1.504 . S
C25 C26 1.373 . S
C25 C29 1.308 . S
C26 C25 1.373 . S
C26 C27 1.429 . S
C26 H36 0.932 . S
C27 C24 1.358 . S
C27 C26 1.429 . S
C27 H37 0.930 . S
C28 C24 1.332 . S
C28 C29 1.394 . S
C28 H38 0.932 . S
C29 C25 1.308 . S
C29 C28 1.394 . S
C29 H39 0.929 . S
C30 Tb1 2.764 . S
C30 O14 1.239 . S
C30 O15 1.263 . S
C30 C24 1.504 . S
C31 O16 1.236 . S
C31 O17 1.257 . S
H32 C5 0.932 . S
H33 C6 0.930 . S
H34 C7 0.932 . S
H35 C8 0.929 . S
H36 C26 0.932 . S
H37 C27 0.930 . S
H38 C28 0.932 . S
H39 C29 0.929 . S
Tb40 C49 2.764 . S
Tb40 O50 2.325 . S
Tb40 O53 2.303 1_565 S
Tb40 O57 2.322 1_565 S
Tb40 O58 2.349 1_565 S
Tb40 O61 2.415 . S
Tb40 O62 2.399 . S
Tb41 O51 2.322 1_545 S
Tb41 O52 2.349 . S
Tb41 O54 2.415 . S
Tb41 O55 2.399 . S
Tb41 O56 2.325 . S
Tb41 O59 2.303 . S
Tb41 C70 2.764 . S
C42 O58 1.261 . S
C42 O59 1.257 . S
C43 C46 1.358 . S
C43 C47 1.332 . S
C43 C49 1.504 . S
C44 C45 1.373 . S
C44 C48 1.308 . S
C45 C44 1.373 . S
C45 C46 1.429 . S
C45 H72 0.932 . S
C46 C43 1.358 . S
C46 C45 1.429 . S
C46 H73 0.930 . S
C47 C43 1.332 . S
C47 C48 1.394 . S
C47 H74 0.932 . S
C48 C44 1.308 . S
C48 C47 1.394 . S
C48 H75 0.929 . S
C49 Tb40 2.764 . S
C49 C43 1.504 . S
C49 O61 1.239 . S
C49 O62 1.263 . S
O50 Tb40 2.325 . S
O50 C60 1.236 . S
O51 Tb41 2.322 1_565 S
O51 C60 1.257 . S
O52 Tb41 2.349 . S
O52 C63 1.261 . S
O53 Tb40 2.303 1_545 S
O53 C63 1.257 . S
O54 Tb41 2.415 . S
O54 C70 1.239 . S
O55 Tb41 2.399 . S
O55 C70 1.263 . S
O56 Tb41 2.325 . S
O56 C71 1.236 . S
O57 Tb40 2.322 1_545 S
O57 C71 1.257 . S
O58 Tb40 2.349 1_545 S
O58 C42 1.261 . S
O59 Tb41 2.303 . S
O59 C42 1.257 . S
C60 O50 1.236 . S
C60 O51 1.257 . S
O61 Tb40 2.415 . S
O61 C49 1.239 . S
O62 Tb40 2.399 . S
O62 C49 1.263 . S
C63 O52 1.261 . S
C63 O53 1.257 . S
C64 C67 1.358 . S
C64 C68 1.332 . S
C64 C70 1.504 . S
C65 C66 1.373 . S
C65 C69 1.308 . S
C66 C65 1.373 . S
C66 C67 1.429 . S
C66 H76 0.932 . S
C67 C64 1.358 . S
C67 C66 1.429 . S
C67 H77 0.930 . S
C68 C64 1.332 . S
C68 C69 1.394 . S
C68 H78 0.932 . S
C69 C65 1.308 . S
C69 C68 1.394 . S
C69 H79 0.929 . S
C70 Tb41 2.764 . S
C70 O54 1.239 . S
C70 O55 1.263 . S
C70 C64 1.504 . S
C71 O56 1.236 . S
C71 O57 1.257 . S
H72 C45 0.932 . S
H73 C46 0.930 . S
H74 C47 0.932 . S
H75 C48 0.929 . S
H76 C66 0.932 . S
H77 C67 0.930 . S
H78 C68 0.932 . S
H79 C69 0.929 . S
Tb80 C89 2.764 . S
Tb80 O90 2.325 . S
Tb80 O93 2.303 . S
Tb80 O97 2.322 . S
Tb80 O98 2.349 . S
Tb80 O101 2.415 . S
Tb80 O102 2.399 . S
Tb81 O91 2.322 . S
Tb81 O92 2.349 . S
Tb81 O94 2.415 . S
Tb81 O95 2.399 . S
Tb81 O96 2.325 . S
Tb81 O99 2.303 . S
Tb81 C110 2.764 . S
C82 O98 1.261 . S
C82 O99 1.257 . S
C83 C86 1.358 . S
C83 C87 1.332 . S
C83 C89 1.504 . S
C84 C85 1.373 . S
C84 C88 1.308 . S
C85 C84 1.373 . S
C85 C86 1.429 . S
C85 H112 0.932 . S
C86 C83 1.358 . S
C86 C85 1.429 . S
C86 H113 0.930 . S
C87 C83 1.332 . S
C87 C88 1.394 . S
C87 H114 0.932 . S
C88 C84 1.308 . S
C88 C87 1.394 . S
C88 H115 0.929 . S
C89 Tb80 2.764 . S
C89 C83 1.504 . S
C89 O101 1.239 . S
C89 O102 1.263 . S
O90 Tb80 2.325 . S
O90 C100 1.236 . S
O91 Tb81 2.322 . S
O91 C100 1.257 . S
O92 Tb81 2.349 . S
O92 C103 1.261 . S
O93 Tb80 2.303 . S
O93 C103 1.257 . S
O94 Tb81 2.415 . S
O94 C110 1.239 . S
O95 Tb81 2.399 . S
O95 C110 1.263 . S
O96 Tb81 2.325 . S
O96 C111 1.236 . S
O97 Tb80 2.322 . S
O97 C111 1.257 . S
O98 Tb80 2.349 . S
O98 C82 1.261 . S
O99 Tb81 2.303 . S
O99 C82 1.257 . S
C100 O90 1.236 . S
C100 O91 1.257 . S
O101 Tb80 2.415 . S
O101 C89 1.239 . S
O102 Tb80 2.399 . S
O102 C89 1.263 . S
C103 O92 1.261 . S
C103 O93 1.257 . S
C104 C107 1.358 . S
C104 C108 1.332 . S
C104 C110 1.504 . S
C105 C106 1.373 . S
C105 C109 1.308 . S
C106 C105 1.373 . S
C106 C107 1.429 . S
C106 H116 0.932 . S
C107 C104 1.358 . S
C107 C106 1.429 . S
C107 H117 0.930 . S
C108 C104 1.332 . S
C108 C109 1.394 . S
C108 H118 0.932 . S
C109 C105 1.308 . S
C109 C108 1.394 . S
C109 H119 0.929 . S
C110 Tb81 2.764 . S
C110 O94 1.239 . S
C110 O95 1.263 . S
C110 C104 1.504 . S
C111 O96 1.236 . S
C111 O97 1.257 . S
H112 C85 0.932 . S
H113 C86 0.930 . S
H114 C87 0.932 . S
H115 C88 0.929 . S
H116 C106 0.932 . S
H117 C107 0.930 . S
H118 C108 0.932 . S
H119 C109 0.929 . S
P120 O131 1.490 1_545 S
P120 C134 1.812 1_545 S
P120 C140 1.803 . S
P120 C146 1.819 . S
H121 C135 0.941 . S
H122 C136 0.939 . S
H123 C138 0.940 . S
H124 C139 0.940 . S
H125 C141 0.939 . S
H126 C142 0.942 . S
H127 C144 0.940 . S
H128 C145 0.939 . S
H129 C147 0.941 . S
H130 C151 0.939 . S
O131 P120 1.490 1_565 S
H132 C148 0.939 . S
H133 C150 0.940 . S
C134 P120 1.812 1_565 S
C134 C135 1.389 . S
C134 C139 1.391 . S
C135 H121 0.941 . S
C135 C134 1.389 . S
C135 C136 1.397 . S
C136 H122 0.939 . S
C136 C135 1.397 . S
C136 C137 1.378 . S
C137 C136 1.378 . S
C137 C138 1.378 . S
C138 H123 0.940 . S
C138 C137 1.378 . S
C138 C139 1.396 . S
C139 H124 0.940 . S
C139 C134 1.391 . S
C139 C138 1.396 . S
C140 P120 1.803 . S
C140 C141 1.378 . S
C140 C145 1.400 . S
C141 H125 0.939 . S
C141 C140 1.378 . S
C141 C142 1.361 . S
C142 H126 0.942 . S
C142 C141 1.361 . S
C142 C143 1.369 . S
C143 C142 1.369 . S
C143 C144 1.404 . S
C144 H127 0.940 . S
C144 C143 1.404 . S
C144 C145 1.389 . S
C145 H128 0.939 . S
C145 C140 1.400 . S
C145 C144 1.389 . S
C146 P120 1.819 . S
C146 C147 1.391 1_545 S
C146 C151 1.391 . S
C147 H129 0.941 . S
C147 C146 1.391 1_565 S
C147 C148 1.396 . S
C148 H132 0.939 . S
C148 C147 1.396 . S
C148 C149 1.397 1_565 S
C149 C148 1.397 1_545 S
C149 C150 1.385 . S
C150 H133 0.940 . S
C150 C149 1.385 . S
C150 C151 1.388 . S
C151 H130 0.939 . S
C151 C146 1.391 . S
C151 C150 1.388 . S
P152 O163 1.490 . S
P152 C166 1.812 . S
P152 C172 1.803 . S
P152 C178 1.819 . S
H153 C167 0.941 . S
H154 C168 0.939 . S
H155 C170 0.940 . S
H156 C171 0.940 . S
H157 C173 0.939 . S
H158 C174 0.942 . S
H159 C176 0.940 . S
H160 C177 0.939 . S
H161 C179 0.941 . S
H162 C183 0.939 . S
O163 P152 1.490 . S
H164 C180 0.939 . S
H165 C182 0.940 . S
C166 P152 1.812 . S
C166 C167 1.389 . S
C166 C171 1.391 . S
C167 H153 0.941 . S
C167 C166 1.389 . S
C167 C168 1.397 . S
C168 H154 0.939 . S
C168 C167 1.397 . S
C168 C169 1.378 . S
C169 C168 1.378 . S
C169 C170 1.378 . S
C170 H155 0.940 . S
C170 C169 1.378 . S
C170 C171 1.396 . S
C171 H156 0.940 . S
C171 C166 1.391 . S
C171 C170 1.396 . S
C172 P152 1.803 . S
C172 C173 1.378 . S
C172 C177 1.400 . S
C173 H157 0.939 . S
C173 C172 1.378 . S
C173 C174 1.361 . S
C174 H158 0.942 . S
C174 C173 1.361 . S
C174 C175 1.369 . S
C175 C174 1.369 . S
C175 C176 1.404 . S
C176 H159 0.940 . S
C176 C175 1.404 . S
C176 C177 1.389 . S
C177 H160 0.939 . S
C177 C172 1.400 . S
C177 C176 1.389 . S
C178 P152 1.819 . S
C178 C179 1.391 . S
C178 C183 1.391 . S
C179 H161 0.941 . S
C179 C178 1.391 . S
C179 C180 1.396 . S
C180 H164 0.939 . S
C180 C179 1.396 . S
C180 C181 1.397 . S
C181 C180 1.397 . S
C181 C182 1.385 . S
C182 H165 0.940 . S
C182 C181 1.385 . S
C182 C183 1.388 . S
C183 H162 0.939 . S
C183 C178 1.391 . S
C183 C182 1.388 . S
P184 O195 1.490 . S
P184 C198 1.812 . S
P184 C204 1.803 . S
P184 C210 1.819 . S
H185 C199 0.941 . S
H186 C200 0.939 . S
H187 C202 0.940 . S
H188 C203 0.940 . S
H189 C205 0.939 . S
H190 C206 0.942 . S
H191 C208 0.940 . S
H192 C209 0.939 . S
H193 C211 0.941 . S
H194 C215 0.939 . S
O195 P184 1.490 . S
H196 C212 0.939 . S
H197 C214 0.940 . S
C198 P184 1.812 . S
C198 C199 1.389 . S
C198 C203 1.391 . S
C199 H185 0.941 . S
C199 C198 1.389 . S
C199 C200 1.397 . S
C200 H186 0.939 . S
C200 C199 1.397 . S
C200 C201 1.378 . S
C201 C200 1.378 . S
C201 C202 1.378 . S
C202 H187 0.940 . S
C202 C201 1.378 . S
C202 C203 1.396 . S
C203 H188 0.940 . S
C203 C198 1.391 . S
C203 C202 1.396 . S
C204 P184 1.803 . S
C204 C205 1.378 . S
C204 C209 1.400 . S
C205 H189 0.939 . S
C205 C204 1.378 . S
C205 C206 1.361 1_455 S
C206 H190 0.942 . S
C206 C205 1.361 1_655 S
C206 C207 1.369 . S
C207 C206 1.369 . S
C207 C208 1.404 . S
C208 H191 0.940 . S
C208 C207 1.404 . S
C208 C209 1.389 1_655 S
C209 H192 0.939 . S
C209 C204 1.400 . S
C209 C208 1.389 1_455 S
C210 P184 1.819 . S
C210 C211 1.391 . S
C210 C215 1.391 . S
C211 H193 0.941 . S
C211 C210 1.391 . S
C211 C212 1.396 . S
C212 H196 0.939 . S
C212 C211 1.396 . S
C212 C213 1.397 . S
C213 C212 1.397 . S
C213 C214 1.385 . S
C214 H197 0.940 . S
C214 C213 1.385 . S
C214 C215 1.388 . S
C215 H194 0.939 . S
C215 C210 1.391 . S
C215 C214 1.388 . S
P216 O227 1.490 . S
P216 C230 1.812 . S
P216 C236 1.803 1_455 S
P216 C242 1.819 . S
H217 C231 0.941 . S
H218 C232 0.939 . S
H219 C234 0.940 . S
H220 C235 0.940 . S
H221 C237 0.939 . S
H222 C238 0.942 . S
H223 C240 0.940 . S
H224 C241 0.939 . S
H225 C243 0.941 . S
H226 C247 0.939 . S
O227 P216 1.490 . S
H228 C244 0.939 . S
H229 C246 0.940 . S
C230 P216 1.812 . S
C230 C231 1.389 . S
C230 C235 1.391 . S
C231 H217 0.941 . S
C231 C230 1.389 . S
C231 C232 1.397 . S
C232 H218 0.939 . S
C232 C231 1.397 . S
C232 C233 1.378 . S
C233 C232 1.378 . S
C233 C234 1.378 . S
C234 H219 0.940 . S
C234 C233 1.378 . S
C234 C235 1.396 . S
C235 H220 0.940 . S
C235 C230 1.391 . S
C235 C234 1.396 . S
C236 P216 1.803 1_655 S
C236 C237 1.378 . S
C236 C241 1.400 . S
C237 H221 0.939 . S
C237 C236 1.378 . S
C237 C238 1.361 . S
C238 H222 0.942 . S
C238 C237 1.361 . S
C238 C239 1.369 . S
C239 C238 1.369 . S
C239 C240 1.404 . S
C240 H223 0.940 . S
C240 C239 1.404 . S
C240 C241 1.389 . S
C241 H224 0.939 . S
C241 C236 1.400 . S
C241 C240 1.389 . S
C242 P216 1.819 . S
C242 C243 1.391 . S
C242 C247 1.391 1_455 S
C243 H225 0.941 . S
C243 C242 1.391 . S
C243 C244 1.396 . S
C244 H228 0.939 . S
C244 C243 1.396 . S
C244 C245 1.397 . S
C245 C244 1.397 . S
C245 C246 1.385 1_455 S
C246 H229 0.940 . S
C246 C245 1.385 1_655 S
C246 C247 1.388 . S
C247 H226 0.939 . S
C247 C242 1.391 1_655 S
C247 C246 1.388 . S
P248 O259 1.490 . S
P248 C262 1.812 . S
P248 C268 1.803 1_545 S
P248 C274 1.819 . S
H249 C263 0.941 . S
H250 C264 0.939 . S
H251 C266 0.940 . S
H252 C267 0.940 . S
H253 C269 0.939 . S
H254 C270 0.942 . S
H255 C272 0.940 . S
H256 C273 0.939 . S
H257 C275 0.941 . S
H258 C279 0.939 . S
O259 P248 1.490 . S
H260 C276 0.939 . S
H261 C278 0.940 . S
C262 P248 1.812 . S
C262 C263 1.389 . S
C262 C267 1.391 . S
C263 H249 0.941 . S
C263 C262 1.389 . S
C263 C264 1.397 . S
C264 H250 0.939 . S
C264 C263 1.397 . S
C264 C265 1.378 . S
C265 C264 1.378 . S
C265 C266 1.378 . S
C266 H251 0.940 . S
C266 C265 1.378 . S
C266 C267 1.396 . S
C267 H252 0.940 . S
C267 C262 1.391 . S
C267 C266 1.396 . S
C268 P248 1.803 1_565 S
C268 C269 1.378 . S
C268 C273 1.400 . S
C269 H253 0.939 . S
C269 C268 1.378 . S
C269 C270 1.361 . S
C270 H254 0.942 . S
C270 C269 1.361 . S
C270 C271 1.369 . S
C271 C270 1.369 . S
C271 C272 1.404 . S
C272 H255 0.940 . S
C272 C271 1.404 . S
C272 C273 1.389 . S
C273 H256 0.939 . S
C273 C268 1.400 . S
C273 C272 1.389 . S
C274 P248 1.819 . S
C274 C275 1.391 . S
C274 C279 1.391 1_545 S
C275 H257 0.941 . S
C275 C274 1.391 . S
C275 C276 1.396 . S
C276 H260 0.939 . S
C276 C275 1.396 . S
C276 C277 1.392 1_545 S
C277 C276 1.392 1_565 S
C277 C278 1.390 . S
C278 H261 0.940 . S
C278 C277 1.390 . S
C278 C279 1.388 . S
C279 H258 0.939 . S
C279 C274 1.391 1_565 S
C279 C278 1.388 . S
P280 O291 1.490 . S
P280 C294 1.812 . S
P280 C300 1.803 . S
P280 C306 1.819 . S
H281 C295 0.941 . S
H282 C296 0.939 . S
H283 C298 0.940 . S
H284 C299 0.940 . S
H285 C301 0.939 . S
H286 C302 0.942 . S
H287 C304 0.940 . S
H288 C305 0.939 . S
H289 C307 0.941 . S
H290 C311 0.939 . S
O291 P280 1.490 . S
H292 C308 0.939 . S
H293 C310 0.940 . S
C294 P280 1.812 . S
C294 C295 1.389 . S
C294 C299 1.391 . S
C295 H281 0.941 . S
C295 C294 1.389 . S
C295 C296 1.397 . S
C296 H282 0.939 . S
C296 C295 1.397 . S
C296 C297 1.378 . S
C297 C296 1.378 . S
C297 C298 1.378 . S
C298 H283 0.940 . S
C298 C297 1.378 . S
C298 C299 1.396 . S
C299 H284 0.940 . S
C299 C294 1.391 . S
C299 C298 1.396 . S
C300 P280 1.803 . S
C300 C301 1.378 . S
C300 C305 1.400 . S
C301 H285 0.939 . S
C301 C300 1.378 . S
C301 C302 1.361 . S
C302 H286 0.942 . S
C302 C301 1.361 . S
C302 C303 1.369 . S
C303 C302 1.369 . S
C303 C304 1.404 . S
C304 H287 0.940 . S
C304 C303 1.404 . S
C304 C305 1.389 . S
C305 H288 0.939 . S
C305 C300 1.400 . S
C305 C304 1.389 . S
C306 P280 1.819 . S
C306 C307 1.391 . S
C306 C311 1.391 . S
C307 H289 0.941 . S
C307 C306 1.391 . S
C307 C308 1.396 . S
C308 H292 0.939 . S
C308 C307 1.396 . S
C308 C309 1.397 . S
C309 C308 1.397 . S
C309 C310 1.385 . S
C310 H293 0.940 . S
C310 C309 1.385 . S
C310 C311 1.388 . S
C311 H290 0.939 . S
C311 C306 1.391 . S
C311 C310 1.388 . S
H312 C320 0.950 . S
H313 C325 0.950 . S
H314 C322 0.950 . S
H315 C324 0.950 . S
H316 C326 0.950 . S
H317 C328 0.950 . S
H318 C330 0.950 . S
H319 C331 0.950 . S
C320 H312 0.950 . S
C320 C321 1.386 . S
C320 C322 1.391 . S
C321 C320 1.386 . S
C321 C325 1.393 . S
C322 H314 0.950 . S
C322 C320 1.391 . S
C322 C323 1.400 . S
C323 C322 1.400 . S
C323 C324 1.398 . S
C323 C329 1.491 . S
C324 H315 0.950 . S
C324 C323 1.398 . S
C324 C325 1.391 . S
C325 H313 0.950 . S
C325 C321 1.393 . S
C325 C324 1.391 . S
C326 H316 0.950 . S
C326 C327 1.386 . S
C326 C328 1.391 . S
C327 C326 1.386 . S
C327 C331 1.393 . S
C328 H317 0.950 . S
C328 C326 1.391 . S
C328 C329 1.400 . S
C329 C323 1.491 . S
C329 C328 1.400 . S
C329 C330 1.398 . S
C330 H318 0.950 . S
C330 C329 1.398 . S
C330 C331 1.391 . S
C331 H319 0.950 . S
C331 C327 1.393 . S
C331 C330 1.391 . S
H332 C340 0.950 . S
H333 C345 0.950 . S
H334 C342 0.950 . S
H335 C344 0.950 . S
H336 C346 0.950 . S
H337 C348 0.950 . S
H338 C350 0.950 . S
H339 C351 0.950 . S
C340 H332 0.950 . S
C340 C341 1.386 . S
C340 C342 1.391 . S
C341 C340 1.386 . S
C341 C345 1.393 . S
C342 H334 0.950 . S
C342 C340 1.391 . S
C342 C343 1.400 . S
C343 C342 1.400 . S
C343 C344 1.398 . S
C343 C349 1.491 . S
C344 H335 0.950 . S
C344 C343 1.398 . S
C344 C345 1.391 . S
C345 H333 0.950 . S
C345 C341 1.393 . S
C345 C344 1.391 . S
C346 H336 0.950 . S
C346 C347 1.386 . S
C346 C348 1.391 . S
C347 C346 1.386 . S
C347 C351 1.393 . S
C348 H337 0.950 . S
C348 C346 1.391 . S
C348 C349 1.400 . S
C349 C343 1.491 . S
C349 C348 1.400 . S
C349 C350 1.398 . S
C350 H338 0.950 . S
C350 C349 1.398 . S
C350 C351 1.391 . S
C351 H339 0.950 . S
C351 C347 1.393 . S
C351 C350 1.391 . S
H352 C360 0.950 . S
H353 C365 0.950 . S
H354 C362 0.950 . S
H355 C364 0.950 . S
H356 C366 0.950 . S
H357 C368 0.950 . S
H358 C370 0.950 . S
H359 C371 0.950 . S
C360 H352 0.950 . S
C360 C361 1.386 . S
C360 C362 1.391 . S
C361 C360 1.386 . S
C361 C365 1.393 . S
C362 H354 0.950 . S
C362 C360 1.391 . S
C362 C363 1.400 . S
C363 C362 1.400 . S
C363 C364 1.398 . S
C363 C369 1.491 . S
C364 H355 0.950 . S
C364 C363 1.398 . S
C364 C365 1.391 . S
C365 H353 0.950 . S
C365 C361 1.393 . S
C365 C364 1.391 . S
C366 H356 0.950 . S
C366 C367 1.386 . S
C366 C368 1.391 . S
C367 C366 1.386 . S
C367 C371 1.393 . S
C368 H357 0.950 . S
C368 C366 1.391 . S
C368 C369 1.400 . S
C369 C363 1.491 . S
C369 C368 1.400 . S
C369 C370 1.398 . S
C370 H358 0.950 . S
C370 C369 1.398 . S
C370 C371 1.391 . S
C371 H359 0.950 . S
C371 C367 1.393 . S
C371 C370 1.391 . S
H372 C380 0.950 . S
H373 C385 0.950 . S
H374 C382 0.950 . S
H375 C384 0.950 . S
H376 C386 0.950 . S
H377 C388 0.950 . S
H378 C390 0.950 . S
H379 C391 0.950 . S
C380 H372 0.950 . S
C380 C381 1.386 . S
C380 C382 1.391 . S
C381 C380 1.386 . S
C381 C385 1.393 . S
C382 H374 0.950 . S
C382 C380 1.391 . S
C382 C383 1.400 . S
C383 C382 1.400 . S
C383 C384 1.398 . S
C383 C389 1.491 . S
C384 H375 0.950 . S
C384 C383 1.398 . S
C384 C385 1.391 . S
C385 H373 0.950 . S
C385 C381 1.393 . S
C385 C384 1.391 . S
C386 H376 0.950 . S
C386 C387 1.386 . S
C386 C388 1.391 . S
C387 C386 1.386 . S
C387 C391 1.393 . S
C388 H377 0.950 . S
C388 C386 1.391 . S
C388 C389 1.400 . S
C389 C383 1.491 . S
C389 C388 1.400 . S
C389 C390 1.398 . S
C390 H378 0.950 . S
C390 C389 1.398 . S
C390 C391 1.391 . S
C391 H379 0.950 . S
C391 C387 1.393 . S
C391 C390 1.391 . S
H392 C400 0.950 . S
H393 C405 0.950 . S
H394 C402 0.950 . S
H395 C404 0.950 . S
H396 C406 0.950 . S
H397 C408 0.950 . S
H398 C410 0.950 . S
H399 C411 0.950 . S
C400 H392 0.950 . S
C400 C401 1.386 . S
C400 C402 1.391 . S
C401 C400 1.386 . S
C401 C405 1.393 . S
C402 H394 0.950 . S
C402 C400 1.391 . S
C402 C403 1.400 . S
C403 C402 1.400 . S
C403 C404 1.398 . S
C403 C409 1.491 . S
C404 H395 0.950 . S
C404 C403 1.398 . S
C404 C405 1.391 . S
C405 H393 0.950 . S
C405 C401 1.393 . S
C405 C404 1.391 . S
C406 H396 0.950 . S
C406 C407 1.386 . S
C406 C408 1.391 . S
C407 C406 1.386 . S
C407 C411 1.393 . S
C408 H397 0.950 . S
C408 C406 1.391 . S
C408 C409 1.400 . S
C409 C403 1.491 . S
C409 C408 1.400 . S
C409 C410 1.398 . S
C410 H398 0.950 . S
C410 C409 1.398 . S
C410 C411 1.391 . S
C411 H399 0.950 . S
C411 C407 1.393 . S
C411 C410 1.391 . S
H412 C420 0.950 . S
H413 C425 0.950 . S
H414 C422 0.950 . S
H415 C424 0.950 . S
H416 C426 0.950 . S
H417 C428 0.950 . S
H418 C430 0.950 . S
H419 C431 0.950 . S
C420 H412 0.950 . S
C420 C421 1.386 . S
C420 C422 1.391 . S
C421 C420 1.386 . S
C421 C425 1.393 . S
C422 H414 0.950 . S
C422 C420 1.391 . S
C422 C423 1.400 . S
C423 C422 1.400 . S
C423 C424 1.398 . S
C423 C429 1.491 . S
C424 H415 0.950 . S
C424 C423 1.398 . S
C424 C425 1.391 . S
C425 H413 0.950 . S
C425 C421 1.393 . S
C425 C424 1.391 . S
C426 H416 0.950 . S
C426 C427 1.386 . S
C426 C428 1.391 . S
C427 C426 1.386 . S
C427 C431 1.393 . S
C428 H417 0.950 . S
C428 C426 1.391 . S
C428 C429 1.400 . S
C429 C423 1.491 . S
C429 C428 1.400 . S
C429 C430 1.398 . S
C430 H418 0.950 . S
C430 C429 1.398 . S
C430 C431 1.391 . S
C431 H419 0.950 . S
C431 C427 1.393 . S
C431 C430 1.391 . S
H432 C440 0.950 . S
H433 C445 0.950 . S
H434 C442 0.950 . S
H435 C444 0.950 . S
H436 C446 0.950 . S
H437 C448 0.950 . S
H438 C450 0.950 . S
H439 C451 0.950 . S
C440 H432 0.950 . S
C440 C441 1.386 . S
C440 C442 1.391 . S
C441 C440 1.386 . S
C441 C445 1.393 . S
C442 H434 0.950 . S
C442 C440 1.391 . S
C442 C443 1.400 . S
C443 C442 1.400 . S
C443 C444 1.398 . S
C443 C449 1.491 . S
C444 H435 0.950 . S
C444 C443 1.398 . S
C444 C445 1.391 . S
C445 H433 0.950 . S
C445 C441 1.393 . S
C445 C444 1.391 . S
C446 H436 0.950 . S
C446 C447 1.386 . S
C446 C448 1.391 . S
C447 C446 1.386 . S
C447 C451 1.393 . S
C448 H437 0.950 . S
C448 C446 1.391 . S
C448 C449 1.400 . S
C449 C443 1.491 . S
C449 C448 1.400 . S
C449 C450 1.398 . S
C450 H438 0.950 . S
C450 C449 1.398 . S
C450 C451 1.391 . S
C451 H439 0.950 . S
C451 C447 1.393 . S
C451 C450 1.391 . S
H452 C460 0.950 . S
H453 C465 0.950 . S
H454 C462 0.950 . S
H455 C464 0.950 . S
H456 C466 0.950 . S
H457 C468 0.950 . S
H458 C470 0.950 . S
H459 C471 0.950 . S
C460 H452 0.950 . S
C460 C461 1.386 . S
C460 C462 1.391 . S
C461 C460 1.386 . S
C461 C465 1.393 . S
C462 H454 0.950 . S
C462 C460 1.391 . S
C462 C463 1.400 . S
C463 C462 1.400 . S
C463 C464 1.398 . S
C463 C469 1.491 . S
C464 H455 0.950 . S
C464 C463 1.398 . S
C464 C465 1.391 . S
C465 H453 0.950 . S
C465 C461 1.393 . S
C465 C464 1.391 . S
C466 H456 0.950 . S
C466 C467 1.386 . S
C466 C468 1.391 . S
C467 C466 1.386 . S
C467 C471 1.393 . S
C468 H457 0.950 . S
C468 C466 1.391 . S
C468 C469 1.400 . S
C469 C463 1.491 . S
C469 C468 1.400 . S
C469 C470 1.398 . S
C470 H458 0.950 . S
C470 C469 1.398 . S
C470 C471 1.391 . S
C471 H459 0.950 . S
C471 C467 1.393 . S
C471 C470 1.391 . S
H472 C480 0.950 . S
H473 C485 0.950 . S
H474 C482 0.950 . S
H475 C484 0.950 . S
H476 C486 0.950 . S
H477 C488 0.950 . S
H478 C490 0.950 . S
H479 C491 0.950 . S
C480 H472 0.950 . S
C480 C481 1.386 . S
C480 C482 1.391 . S
C481 C480 1.386 . S
C481 C485 1.393 . S
C482 H474 0.950 . S
C482 C480 1.391 . S
C482 C483 1.400 . S
C483 C482 1.400 . S
C483 C484 1.398 . S
C483 C489 1.491 . S
C484 H475 0.950 . S
C484 C483 1.398 . S
C484 C485 1.391 . S
C485 H473 0.950 . S
C485 C481 1.393 . S
C485 C484 1.391 . S
C486 H476 0.950 . S
C486 C487 1.386 . S
C486 C488 1.391 . S
C487 C486 1.386 . S
C487 C491 1.393 . S
C488 H477 0.950 . S
C488 C486 1.391 . S
C488 C489 1.400 . S
C489 C483 1.491 . S
C489 C488 1.400 . S
C489 C490 1.398 . S
C490 H478 0.950 . S
C490 C489 1.398 . S
C490 C491 1.391 . S
C491 H479 0.950 . S
C491 C487 1.393 . S
C491 C490 1.391 . S
H492 C500 0.950 . S
H493 C505 0.950 . S
H494 C502 0.950 . S
H495 C504 0.950 . S
H496 C506 0.950 . S
H497 C508 0.950 . S
H498 C510 0.950 . S
H499 C511 0.950 . S
C500 H492 0.950 . S
C500 C501 1.386 . S
C500 C502 1.391 . S
C501 C500 1.386 . S
C501 C505 1.393 . S
C502 H494 0.950 . S
C502 C500 1.391 . S
C502 C503 1.400 . S
C503 C502 1.400 . S
C503 C504 1.398 . S
C503 C509 1.491 . S
C504 H495 0.950 . S
C504 C503 1.398 . S
C504 C505 1.391 . S
C505 H493 0.950 . S
C505 C501 1.393 . S
C505 C504 1.391 . S
C506 H496 0.950 . S
C506 C507 1.386 . S
C506 C508 1.391 . S
C507 C506 1.386 . S
C507 C511 1.393 . S
C508 H497 0.950 . S
C508 C506 1.391 . S
C508 C509 1.400 . S
C509 C503 1.491 . S
C509 C508 1.400 . S
C509 C510 1.398 . S
C510 H498 0.950 . S
C510 C509 1.398 . S
C510 C511 1.391 . S
C511 H499 0.950 . S
C511 C507 1.393 . S
C511 C510 1.391 . S
H512 C520 0.950 . S
H513 C525 0.950 . S
H514 C522 0.950 . S
H515 C524 0.950 . S
H516 C526 0.950 . S
H517 C528 0.950 . S
H518 C530 0.950 . S
H519 C531 0.950 . S
C520 H512 0.950 . S
C520 C521 1.386 . S
C520 C522 1.391 . S
C521 C520 1.386 . S
C521 C525 1.393 . S
C522 H514 0.950 . S
C522 C520 1.391 . S
C522 C523 1.400 . S
C523 C522 1.400 . S
C523 C524 1.398 . S
C523 C529 1.491 . S
C524 H515 0.950 . S
C524 C523 1.398 . S
C524 C525 1.391 . S
C525 H513 0.950 . S
C525 C521 1.393 . S
C525 C524 1.391 . S
C526 H516 0.950 . S
C526 C527 1.386 . S
C526 C528 1.391 . S
C527 C526 1.386 . S
C527 C531 1.393 . S
C528 H517 0.950 . S
C528 C526 1.391 . S
C528 C529 1.400 . S
C529 C523 1.491 . S
C529 C528 1.400 . S
C529 C530 1.398 . S
C530 H518 0.950 . S
C530 C529 1.398 . S
C530 C531 1.391 . S
C531 H519 0.950 . S
C531 C527 1.393 . S
C531 C530 1.391 . S
H532 C540 0.950 . S
H533 C545 0.950 . S
H534 C542 0.950 . S
H535 C544 0.950 . S
H536 C546 0.950 . S
H537 C548 0.950 . S
H538 C550 0.950 . S
H539 C551 0.950 . S
C540 H532 0.950 . S
C540 C541 1.386 . S
C540 C542 1.391 . S
C541 C540 1.386 . S
C541 C545 1.393 . S
C542 H534 0.950 . S
C542 C540 1.391 . S
C542 C543 1.400 . S
C543 C542 1.400 . S
C543 C544 1.398 . S
C543 C549 1.491 . S
C544 H535 0.950 . S
C544 C543 1.398 . S
C544 C545 1.391 . S
C545 H533 0.950 . S
C545 C541 1.393 . S
C545 C544 1.391 . S
C546 H536 0.950 . S
C546 C547 1.386 . S
C546 C548 1.391 . S
C547 C546 1.386 . S
C547 C551 1.393 . S
C548 H537 0.950 . S
C548 C546 1.391 . S
C548 C549 1.400 . S
C549 C543 1.491 . S
C549 C548 1.400 . S
C549 C550 1.398 . S
C550 H538 0.950 . S
C550 C549 1.398 . S
C550 C551 1.391 . S
C551 H539 0.950 . S
C551 C547 1.393 . S
C551 C550 1.391 . S
H552 C560 0.950 . S
H553 C565 0.950 . S
H554 C562 0.950 . S
H555 C564 0.950 . S
H556 C566 0.950 . S
H557 C568 0.950 . S
H558 C570 0.950 . S
H559 C571 0.938 1_556 S
C560 H552 0.950 . S
C560 C561 1.386 . S
C560 C562 1.391 . S
C561 C560 1.386 . S
C561 C565 1.393 . S
C562 H554 0.950 . S
C562 C560 1.391 . S
C562 C563 1.400 . S
C563 C562 1.400 . S
C563 C564 1.398 . S
C563 C569 1.491 . S
C564 H555 0.950 . S
C564 C563 1.398 . S
C564 C565 1.391 . S
C565 H553 0.950 . S
C565 C561 1.393 . S
C565 C564 1.391 . S
C566 H556 0.950 . S
C566 C567 1.386 . S
C566 C568 1.391 1_556 S
C567 C566 1.386 . S
C567 C571 1.376 1_556 S
C568 H557 0.950 . S
C568 C566 1.391 1_554 S
C568 C569 1.400 . S
C569 C563 1.491 . S
C569 C568 1.400 . S
C569 C570 1.398 . S
C570 H558 0.950 . S
C570 C569 1.398 . S
C570 C571 1.420 . S
C571 H559 0.938 1_554 S
C571 C567 1.376 1_554 S
C571 C570 1.420 . S
H572 C580 0.950 1_565 S
H573 C585 0.950 . S
H574 C582 0.950 1_565 S
H575 C584 0.950 . S
H576 C586 0.950 . S
H577 C588 0.950 . S
H578 C590 0.950 1_565 S
H579 C591 0.950 1_565 S
C580 H572 0.950 1_545 S
C580 C581 1.386 . S
C580 C582 1.391 . S
C581 C580 1.386 . S
C581 C585 1.393 . S
C582 H574 0.950 1_545 S
C582 C580 1.391 . S
C582 C583 1.400 . S
C583 C582 1.400 . S
C583 C584 1.398 . S
C583 C589 1.491 . S
C584 H575 0.950 . S
C584 C583 1.398 . S
C584 C585 1.391 . S
C585 H573 0.950 . S
C585 C581 1.393 . S
C585 C584 1.391 . S
C586 H576 0.950 . S
C586 C587 1.386 . S
C586 C588 1.391 . S
C587 C586 1.386 . S
C587 C591 1.393 . S
C588 H577 0.950 . S
C588 C586 1.391 . S
C588 C589 1.400 . S
C589 C583 1.491 . S
C589 C588 1.400 . S
C589 C590 1.398 . S
C590 H578 0.950 1_545 S
C590 C589 1.398 . S
C590 C591 1.391 . S
C591 H579 0.950 1_545 S
C591 C587 1.393 . S
C591 C590 1.391 . S
H592 C600 0.950 . S
H593 C605 0.950 . S
H594 C602 0.950 . S
H595 C604 0.950 . S
H596 C606 0.950 . S
H597 C608 0.950 . S
H598 C610 0.950 . S
H599 C611 0.950 . S
C600 H592 0.950 . S
C600 C601 1.386 . S
C600 C602 1.391 . S
C601 C600 1.386 . S
C601 C605 1.393 . S
C602 H594 0.950 . S
C602 C600 1.391 . S
C602 C603 1.400 . S
C603 C602 1.400 . S
C603 C604 1.398 . S
C603 C609 1.491 . S
C604 H595 0.950 . S
C604 C603 1.398 . S
C604 C605 1.391 . S
C605 H593 0.950 . S
C605 C601 1.393 . S
C605 C604 1.391 . S
C606 H596 0.950 . S
C606 C607 1.386 . S
C606 C608 1.391 . S
C607 C606 1.386 . S
C607 C611 1.393 . S
C608 H597 0.950 . S
C608 C606 1.391 . S
C608 C609 1.400 . S
C609 C603 1.491 . S
C609 C608 1.400 . S
C609 C610 1.398 . S
C610 H598 0.950 . S
C610 C609 1.398 . S
C610 C611 1.391 . S
C611 H599 0.950 . S
C611 C607 1.393 . S
C611 C610 1.391 . S
H612 C620 0.950 . S
H613 C625 0.950 . S
H614 C622 0.950 . S
H615 C624 0.950 . S
H616 C626 0.950 . S
H617 C628 0.950 . S
H618 C630 0.950 . S
H619 C631 0.950 . S
C620 H612 0.950 . S
C620 C621 1.384 1_565 S
C620 C622 1.394 . S
C621 C620 1.384 1_545 S
C621 C625 1.393 . S
C622 H614 0.950 . S
C622 C620 1.394 . S
C622 C623 1.400 1_565 S
C623 C622 1.400 1_545 S
C623 C624 1.398 . S
C623 C629 1.491 . S
C624 H615 0.950 . S
C624 C623 1.398 . S
C624 C625 1.391 . S
C625 H613 0.950 . S
C625 C621 1.393 . S
C625 C624 1.391 . S
C626 H616 0.950 . S
C626 C627 1.386 1_545 S
C626 C628 1.391 . S
C627 C626 1.386 1_565 S
C627 C631 1.393 . S
C628 H617 0.950 . S
C628 C626 1.391 . S
C628 C629 1.400 . S
C629 C623 1.491 . S
C629 C628 1.400 . S
C629 C630 1.398 1_545 S
C630 H618 0.950 . S
C630 C629 1.398 1_565 S
C630 C631 1.391 . S
C631 H619 0.950 . S
C631 C627 1.393 . S
C631 C630 1.391 . S
H632 C640 0.950 . S
H633 C645 0.950 . S
H634 C642 0.950 . S
H635 C644 0.950 . S
H636 C646 0.950 1_554 S
H637 C648 0.950 . S
H638 C650 0.950 . S
H639 C651 0.950 . S
C640 H632 0.950 . S
C640 C641 1.386 . S
C640 C642 1.391 . S
C641 C640 1.386 . S
C641 C645 1.393 . S
C642 H634 0.950 . S
C642 C640 1.391 . S
C642 C643 1.400 . S
C643 C642 1.400 . S
C643 C644 1.398 . S
C643 C649 1.491 . S
C644 H635 0.950 . S
C644 C643 1.398 . S
C644 C645 1.391 . S
C645 H633 0.950 . S
C645 C641 1.393 . S
C645 C644 1.391 . S
C646 H636 0.950 1_556 S
C646 C647 1.386 1_556 S
C646 C648 1.391 . S
C647 C646 1.386 1_554 S
C647 C651 1.393 1_554 S
C648 H637 0.950 . S
C648 C646 1.391 . S
C648 C649 1.400 . S
C649 C643 1.491 . S
C649 C648 1.400 . S
C649 C650 1.398 . S
C650 H638 0.950 . S
C650 C649 1.398 . S
C650 C651 1.391 . S
C651 H639 0.950 . S
C651 C647 1.393 1_556 S
C651 C650 1.391 . S
H652 C660 0.950 . S
H653 C665 0.967 . S
H654 C662 0.950 . S
H655 C664 0.950 1_655 S
H656 C666 0.950 . S
H657 C668 0.950 . S
H658 C670 0.950 . S
H659 C671 0.950 . S
C660 H652 0.950 . S
C660 C661 1.386 . S
C660 C662 1.391 . S
C661 C660 1.386 . S
C661 C665 1.393 . S
C662 H654 0.950 . S
C662 C660 1.391 . S
C662 C663 1.400 . S
C663 C662 1.400 . S
C663 C664 1.398 . S
C663 C669 1.491 . S
C664 H655 0.950 1_455 S
C664 C663 1.398 . S
C664 C665 1.391 . S
C665 H653 0.967 . S
C665 C661 1.393 . S
C665 C664 1.391 . S
C666 H656 0.950 . S
C666 C667 1.381 1_655 S
C666 C668 1.391 . S
C667 C666 1.381 1_455 S
C667 C671 1.399 . S
C668 H657 0.950 . S
C668 C666 1.391 . S
C668 C669 1.400 1_655 S
C669 C663 1.491 . S
C669 C668 1.400 1_455 S
C669 C670 1.398 . S
C670 H658 0.950 . S
C670 C669 1.398 . S
C670 C671 1.391 . S
C671 H659 0.950 . S
C671 C667 1.399 . S
C671 C670 1.391 . S
C321 C25 0.362 . S
C327 C303 0.363 . S
C341 C65 0.414 . S
C347 C239 0.395 . S
C361 C105 0.473 . S
C367 C271 0.448 . S
C381 C4 0.463 . S
C387 C297 0.329 . S
C407 C233 0.454 . S
C401 C44 0.413 . S
C427 C265 0.434 . S
C421 C84 0.413 . S
C441 C60 2.909 . S
C447 C175 2.846 . S
C461 C100 3.040 . S
C467 C207 2.974 . S
C481 C31 3.048 . S
C487 C137 2.988 . S
C507 C169 2.984 . S
C501 C71 3.047 . S
C527 C201 2.885 . S
C521 C111 2.912 . S
C541 C20 2.912 . S
C547 C143 2.835 . S
C567 C213 1.769 . S
C561 C2 1.751 . S
C581 C42 1.751 . S
C587 C149 1.749 . S
C601 C82 1.754 . S
C607 C181 1.759 . S
C627 C277 1.033 . S
C621 C63 1.051 . S
C647 C309 1.089 . S
C641 C103 1.084 . S
C661 C23 1.042 . S
C667 C245 1.029 . S
