# Generated by pormake.
# Topology rtl, (3,6)-cn, num edge types: 1
# Building blocks:
#     Node 0, Type 0, BuildingBlock: BETDIP_clean_linker_0, # of connection points: 3
#     Node 1, Type 0, BuildingBlock: BETDIP_clean_linker_0, # of connection points: 3
#     Node 2, Type 0, BuildingBlock: BETDIP_clean_linker_0, # of connection points: 3
#     Node 3, Type 0, BuildingBlock: BETDIP_clean_linker_0, # of connection points: 3
#     Node 4, Type 1, BuildingBlock: VOLQOD_clean_sbu_1, # of connection points: 6
#     Node 5, Type 1, BuildingBlock: VOLQOD_clean_sbu_1, # of connection points: 6
#     Edge 6, Type (0, 1), BuildingBlock: FUNLAD_clean_linker_1, # of connection points: 2
#     Edge 7, Type (0, 1), BuildingBlock: FUNLAD_clean_linker_1, # of connection points: 2
#     Edge 8, Type (0, 1), BuildingBlock: FUNLAD_clean_linker_1, # of connection points: 2
#     Edge 9, Type (0, 1), BuildingBlock: FUNLAD_clean_linker_1, # of connection points: 2
#     Edge 10, Type (0, 1), BuildingBlock: FUNLAD_clean_linker_1, # of connection points: 2
#     Edge 11, Type (0, 1), BuildingBlock: FUNLAD_clean_linker_1, # of connection points: 2
#     Edge 12, Type (0, 1), BuildingBlock: FUNLAD_clean_linker_1, # of connection points: 2
#     Edge 13, Type (0, 1), BuildingBlock: FUNLAD_clean_linker_1, # of connection points: 2
#     Edge 14, Type (0, 1), BuildingBlock: FUNLAD_clean_linker_1, # of connection points: 2
#     Edge 15, Type (0, 1), BuildingBlock: FUNLAD_clean_linker_1, # of connection points: 2
#     Edge 16, Type (0, 1), BuildingBlock: FUNLAD_clean_linker_1, # of connection points: 2
#     Edge 17, Type (0, 1), BuildingBlock: FUNLAD_clean_linker_1, # of connection points: 2
# Relax obj value: 0.041
# Max RMSD: 0.143
# Mean RMSD: 0.096
data_MOF--net-rtl--node1-VOLQOD_clean_sbu_1--node2-BETDIP_clean_linker_0--edge1-FUNLAD_clean_linker_1
_symmetry_space_group_name_H-M    P1
_symmetry_Int_Tables_number       1
_symmetry_cell_setting            triclinic
loop_
_symmetry_equiv_pos_as_xyz
'x, y, z'
_cell_length_a     38.985602
_cell_length_b     39.539551
_cell_length_c     22.690174
_cell_angle_alpha  90.897065
_cell_angle_beta   91.351318
_cell_angle_gamma 90.197085
loop_
_atom_site_label
_atom_site_type_symbol
_atom_site_fract_x
_atom_site_fract_y
_atom_site_fract_z
_atom_type_partial_charge
H0 H 0.21371 0.79105 0.89194 0.0
H1 H 0.21474 0.79168 0.08177 0.0
H2 H 0.15021 0.86063 0.98683 0.0
H3 H 0.26055 0.76086 0.07588 0.0
C4 C 0.26262 0.74993 0.03199 0.0
C5 C 0.2047 0.80138 0.93331 0.0
C6 C 0.1807 0.82772 0.93299 0.0
C7 C 0.21791 0.78864 0.98644 0.0
C8 C 0.20577 0.80169 0.04018 0.0
C9 C 0.18098 0.82737 0.04084 0.0
C10 C 0.16894 0.84057 0.98697 0.0
N11 N 0.24291 0.76251 0.98363 0.0
H12 H 0.68484 0.73779 0.63331 0.0
H13 H 0.69421 0.72482 0.44515 0.0
H14 H 0.61437 0.6734 0.53515 0.0
H15 H 0.74905 0.74196 0.46506 0.0
C16 C 0.74717 0.76023 0.50108 0.0
C17 C 0.67597 0.72655 0.59178 0.0
C18 C 0.64832 0.70381 0.59073 0.0
C19 C 0.69324 0.73389 0.53987 0.0
C20 C 0.68188 0.71889 0.48595 0.0
C21 C 0.65321 0.69722 0.48446 0.0
C22 C 0.63651 0.69012 0.53665 0.0
N23 N 0.72123 0.75706 0.54359 0.0
H24 H 0.82013 0.22361 0.88645 0.0
H25 H 0.81409 0.21535 0.07497 0.0
H26 H 0.90327 0.17948 0.98632 0.0
H27 H 0.75616 0.21429 0.05105 0.0
C28 C 0.75498 0.2346 0.01942 0.0
C29 C 0.8314 0.21601 0.92829 0.0
C30 C 0.86388 0.20071 0.93034 0.0
C31 C 0.81315 0.22127 0.98017 0.0
C32 C 0.82759 0.21093 0.03447 0.0
C33 C 0.86009 0.19571 0.03671 0.0
C34 C 0.87837 0.19168 0.98479 0.0
N35 N 0.78083 0.23773 0.97663 0.0
H36 H 0.30202 0.30294 0.42005 0.0
H37 H 0.28035 0.32143 0.60336 0.0
H38 H 0.35847 0.37869 0.52022 0.0
H39 H 0.26493 0.26734 0.60006 0.0
C40 C 0.25283 0.26324 0.557 0.0
C41 C 0.30695 0.31684 0.46088 0.0
C42 C 0.33245 0.34217 0.46419 0.0
C43 C 0.28859 0.30838 0.51128 0.0
C44 C 0.29501 0.32648 0.56456 0.0
C45 C 0.32091 0.35108 0.56842 0.0
C46 C 0.33918 0.35885 0.51801 0.0
N47 N 0.26417 0.28146 0.50736 0.0
O48 O 0.93606 0.96163 0.48886 0.0
Zn49 Zn 0.95731 0.00809 0.48672 0.0
O50 O 0.00745 0.00617 0.48366 0.0
Zn51 Zn 0.02771 0.03154 0.55082 0.0
Zn52 Zn 0.02199 0.95871 0.48602 0.0
Zn53 Zn 0.02241 0.0267 0.41072 0.0
O54 O 0.06145 0.067 0.52452 0.0
O55 O 0.05686 0.06402 0.42681 0.0
O56 O 0.94234 0.03509 0.5571 0.0
O57 O 0.99098 0.05532 0.59712 0.0
O58 O 0.05286 0.99998 0.60573 0.0
O59 O 0.05064 0.94988 0.55967 0.0
O60 O 0.04907 0.94619 0.41392 0.0
O61 O 0.93717 0.03208 0.41666 0.0
O62 O 0.04512 0.99214 0.35879 0.0
O63 O 0.98262 0.0471 0.36579 0.0
C64 C 0.94867 0.93196 0.48815 0.0
C65 C 0.06994 0.07706 0.47378 0.0
C66 C 0.06022 0.96865 0.60326 0.0
C67 C 0.95833 0.05344 0.59526 0.0
C68 C 0.05495 0.96183 0.36647 0.0
C69 C 0.95035 0.04687 0.37327 0.0
O70 O 0.98093 0.92716 0.48676 0.0
O71 O 0.59305 0.46634 0.01422 0.0
Zn72 Zn 0.56472 0.50847 0.02346 0.0
O73 O 0.51592 0.49854 0.03054 0.0
Zn74 Zn 0.48962 0.52291 0.97014 0.0
Zn75 Zn 0.50967 0.44986 0.01843 0.0
Zn76 Zn 0.50009 0.51239 0.10891 0.0
O77 O 0.45549 0.55457 0.00599 0.0
O78 O 0.46344 0.54844 0.10245 0.0
O79 O 0.57319 0.53812 0.95423 0.0
O80 O 0.52088 0.55101 0.92063 0.0
O81 O 0.46338 0.49046 0.91634 0.0
O82 O 0.48151 0.43993 0.94513 0.0
O83 O 0.48364 0.43035 0.08487 0.0
O84 O 0.58259 0.53306 0.09571 0.0
O85 O 0.47833 0.47256 0.15002 0.0
O86 O 0.53925 0.53329 0.15788 0.0
C87 C 0.58551 0.43505 0.01103 0.0
C88 C 0.4482 0.56226 0.05889 0.0
C89 C 0.46359 0.45835 0.91095 0.0
C90 C 0.5534 0.5539 0.91893 0.0
C91 C 0.47308 0.44188 0.13376 0.0
C92 C 0.57013 0.54066 0.14545 0.0
O93 O 0.55453 0.42485 0.01258 0.0
H94 H 0.22013 0.22594 0.59275 0.0
C95 C 0.22705 0.23865 0.55257 0.0
H96 H 0.21727 0.24035 0.45822 0.0
H97 H 0.16161 0.08798 0.46241 0.0
H98 H 0.21558 0.08042 0.41325 0.0
H99 H 0.25548 0.12833 0.40223 0.0
H100 H 0.2417 0.18409 0.44085 0.0
C101 C 0.20999 0.22942 0.49976 0.0
C102 C 0.18381 0.20189 0.49939 0.0
C103 C 0.19165 0.16976 0.47477 0.0
C104 C 0.16825 0.14229 0.47998 0.0
C105 C 0.17775 0.11002 0.45796 0.0
C106 C 0.20884 0.10525 0.43002 0.0
C107 C 0.23134 0.1322 0.42392 0.0
C108 C 0.22308 0.16409 0.44622 0.0
H109 H 0.10084 0.11335 0.42428 0.0
C110 C 0.09537 0.10455 0.46825 0.0
H111 H 0.10606 0.11096 0.55941 0.0
H112 H 0.15931 0.26113 0.54561 0.0
H113 H 0.10478 0.26922 0.59316 0.0
H114 H 0.0641 0.22175 0.60218 0.0
H115 H 0.07766 0.16595 0.56366 0.0
C116 C 0.11193 0.11876 0.51504 0.0
C117 C 0.13652 0.14733 0.50833 0.0
C118 C 0.12833 0.17975 0.53155 0.0
C119 C 0.1519 0.20707 0.5268 0.0
C120 C 0.14269 0.23933 0.54921 0.0
C121 C 0.11137 0.24438 0.57626 0.0
C122 C 0.08846 0.21766 0.58129 0.0
C123 C 0.09663 0.18572 0.55913 0.0
H124 H 0.28873 0.71357 0.9782 0.0
C125 C 0.28606 0.72395 0.0225 0.0
H126 H 0.30291 0.72035 0.11358 0.0
H127 H 0.35637 0.5698 0.0838 0.0
H128 H 0.30546 0.56096 0.14083 0.0
H129 H 0.26586 0.60801 0.16121 0.0
H130 H 0.27684 0.66413 0.12419 0.0
C131 C 0.30642 0.71127 0.06866 0.0
C132 C 0.33129 0.68344 0.05843 0.0
C133 C 0.325 0.651 0.08172 0.0
C134 C 0.34823 0.62402 0.07098 0.0
C135 C 0.34033 0.59149 0.09228 0.0
C136 C 0.31099 0.58598 0.12471 0.0
C137 C 0.28867 0.61245 0.13611 0.0
C138 C 0.29534 0.64458 0.11472 0.0
H139 H 0.41806 0.59629 0.11582 0.0
C140 C 0.42189 0.58817 0.07046 0.0
H141 H 0.40712 0.59464 0.98119 0.0
H142 H 0.35256 0.7433 0.01174 0.0
H143 H 0.40364 0.7523 0.95519 0.0
H144 H 0.44375 0.70552 0.93599 0.0
H145 H 0.43309 0.64951 0.97348 0.0
C146 C 0.40295 0.60198 0.02682 0.0
C147 C 0.37822 0.62983 0.03825 0.0
C148 C 0.38456 0.66235 0.01519 0.0
C149 C 0.36122 0.68924 0.02564 0.0
C150 C 0.36887 0.72172 0.00383 0.0
C151 C 0.39827 0.72732 0.97162 0.0
C152 C 0.42086 0.701 0.96086 0.0
C153 C 0.41434 0.6689 0.9825 0.0
H154 H 0.76914 0.80422 0.5439 0.0
C155 C 0.77141 0.78616 0.50759 0.0
H156 H 0.80033 0.77211 0.43117 0.0
H157 H 0.86469 0.91553 0.38738 0.0
H158 H 0.82727 0.90787 0.30135 0.0
H159 H 0.78718 0.85953 0.29344 0.0
H160 H 0.78444 0.81842 0.37129 0.0
C161 C 0.79852 0.78939 0.46869 0.0
C162 C 0.82306 0.81835 0.4738 0.0
C163 C 0.82413 0.84235 0.42807 0.0
C164 C 0.84681 0.87057 0.4331 0.0
C165 C 0.84762 0.89389 0.38633 0.0
C166 C 0.82632 0.88977 0.33658 0.0
C167 C 0.80379 0.86253 0.3321 0.0
C168 C 0.80255 0.83905 0.37714 0.0
H169 H 0.93708 0.87718 0.48516 0.0
C170 C 0.92563 0.90218 0.48767 0.0
H171 H 0.87945 0.92991 0.48966 0.0
H172 H 0.83115 0.7747 0.56579 0.0
H173 H 0.86708 0.78339 0.65338 0.0
H174 H 0.90286 0.8347 0.66577 0.0
H175 H 0.90346 0.87725 0.59008 0.0
C176 C 0.89129 0.90507 0.48913 0.0
C177 C 0.86825 0.87495 0.48404 0.0
C178 C 0.86714 0.851 0.5299 0.0
C179 C 0.84516 0.82225 0.52412 0.0
C180 C 0.84612 0.79775 0.56901 0.0
C181 C 0.86685 0.80229 0.61937 0.0
C182 C 0.88709 0.83111 0.62624 0.0
C183 C 0.88734 0.85526 0.58222 0.0
H184 H 0.70842 0.25305 0.05537 0.0
C185 C 0.7274 0.25699 0.02183 0.0
H186 H 0.74175 0.28856 0.94917 0.0
H187 H 0.59541 0.3516 0.90274 0.0
H188 H 0.60212 0.31688 0.81471 0.0
H189 H 0.65088 0.27766 0.80615 0.0
H190 H 0.69339 0.27307 0.88538 0.0
C191 C 0.72392 0.28475 0.98457 0.0
C192 C 0.69458 0.3085 0.9901 0.0
C193 C 0.6698 0.31065 0.94357 0.0
C194 C 0.64141 0.33291 0.94885 0.0
C195 C 0.61729 0.33486 0.90135 0.0
C196 C 0.62084 0.3151 0.85052 0.0
C197 C 0.64831 0.29304 0.84568 0.0
C198 C 0.67257 0.29071 0.89149 0.0
H199 H 0.63979 0.42023 0.00485 0.0
C200 C 0.61372 0.41046 0.00636 0.0
H201 H 0.58262 0.36652 0.00496 0.0
H202 H 0.73967 0.31395 0.08456 0.0
H203 H 0.73165 0.34674 0.17423 0.0
H204 H 0.67982 0.38147 0.1869 0.0
H205 H 0.63613 0.38418 0.10938 0.0
C206 C 0.60849 0.37684 0.00517 0.0
C207 C 0.63775 0.35288 0.00074 0.0
C208 C 0.66222 0.35029 0.04776 0.0
C209 C 0.69116 0.3288 0.04177 0.0
C210 C 0.71636 0.32852 0.08779 0.0
C211 C 0.71222 0.34746 0.13939 0.0
C212 C 0.68313 0.36712 0.14642 0.0
C213 C 0.65834 0.36862 0.10133 0.0
H214 H 0.18486 0.83601 0.13764 0.0
C215 C 0.16883 0.84038 0.09862 0.0
H216 H 0.12081 0.85906 0.06837 0.0
H217 H 0.04418 0.86336 0.30613 0.0
H218 H 0.01657 0.81518 0.25734 0.0
H219 H 0.03968 0.79078 0.16583 0.0
H220 H 0.09043 0.8146 0.12231 0.0
C221 C 0.13886 0.85665 0.10516 0.0
C222 C 0.12752 0.86926 0.16367 0.0
C223 C 0.09823 0.85463 0.1892 0.0
C224 C 0.08523 0.86836 0.24247 0.0
C225 C 0.05541 0.85376 0.2661 0.0
C226 C 0.03927 0.82608 0.23852 0.0
C227 C 0.05225 0.81237 0.18697 0.0
C228 C 0.08135 0.82637 0.16237 0.0
H229 H 0.07596 0.95853 0.27738 0.0
C230 C 0.07308 0.94478 0.31814 0.0
H231 H 0.08224 0.89872 0.36179 0.0
H232 H 0.18343 0.90458 0.1256 0.0
H233 H 0.21312 0.95028 0.1778 0.0
H234 H 0.1933 0.97087 0.27433 0.0
H235 H 0.14313 0.94627 0.31853 0.0
C236 C 0.08565 0.91327 0.3221 0.0
C237 C 0.10168 0.89658 0.27031 0.0
C238 C 0.13215 0.90995 0.24665 0.0
C239 C 0.1446 0.89688 0.19247 0.0
C240 C 0.17362 0.91243 0.16779 0.0
C241 C 0.19083 0.93889 0.19714 0.0
C242 C 0.1796 0.95057 0.25137 0.0
C243 C 0.15062 0.93638 0.27604 0.0
H244 H 0.62733 0.71296 0.67979 0.0
C245 C 0.63197 0.6938 0.64608 0.0
H246 H 0.62896 0.64223 0.62163 0.0
H247 H 0.59759 0.6354 0.90816 0.0
H248 H 0.6525 0.66325 0.92636 0.0
H249 H 0.68666 0.68353 0.84375 0.0
H250 H 0.6657 0.6771 0.74293 0.0
C251 C 0.62354 0.6613 0.65515 0.0
C252 C 0.60351 0.65005 0.70629 0.0
C253 C 0.6172 0.65259 0.7647 0.0
C254 C 0.59865 0.63882 0.81202 0.0
C255 C 0.61158 0.64374 0.87038 0.0
C256 C 0.6429 0.65992 0.88147 0.0
C257 C 0.66205 0.67148 0.83499 0.0
C258 C 0.64953 0.66786 0.77721 0.0
H259 H 0.59585 0.57126 0.86472 0.0
C260 C 0.56904 0.57551 0.87465 0.0
H261 H 0.52496 0.60487 0.85726 0.0
H262 H 0.56797 0.64456 0.60082 0.0
H263 H 0.51393 0.61532 0.58275 0.0
H264 H 0.48411 0.58756 0.6637 0.0
H265 H 0.50791 0.58929 0.76321 0.0
C266 C 0.55174 0.60039 0.84752 0.0
C267 C 0.5679 0.62031 0.80031 0.0
C268 C 0.5536 0.6189 0.74232 0.0
C269 C 0.57124 0.63413 0.69541 0.0
C270 C 0.55613 0.63274 0.63795 0.0
C271 C 0.52501 0.61616 0.62695 0.0
C272 C 0.5082 0.6006 0.67253 0.0
C273 C 0.52219 0.60183 0.72957 0.0
H274 H 0.90324 0.1803 0.09475 0.0
C275 C 0.8754 0.18221 0.09173 0.0
H276 H 0.82899 0.16603 0.12883 0.0
H277 H 0.9099 0.03801 0.22627 0.0
H278 H 0.87234 0.01237 0.15152 0.0
H279 H 0.83498 0.04756 0.08842 0.0
H280 H 0.8351 0.10864 0.09963 0.0
C281 C 0.85677 0.16728 0.13307 0.0
C282 C 0.87436 0.14627 0.17823 0.0
C283 C 0.87302 0.11052 0.17249 0.0
C284 C 0.89416 0.09021 0.20947 0.0
C285 C 0.89371 0.05466 0.2006 0.0
C286 C 0.87242 0.03958 0.15751 0.0
C287 C 0.85142 0.0594 0.12194 0.0
C288 C 0.85174 0.09446 0.12891 0.0
H289 H 0.89987 0.06337 0.33853 0.0
C290 C 0.92739 0.06518 0.33242 0.0
H291 H 0.96688 0.08842 0.28519 0.0
H292 H 0.87951 0.21371 0.20524 0.0
H293 H 0.91607 0.23958 0.28168 0.0
H294 H 0.95281 0.20446 0.34603 0.0
H295 H 0.95323 0.14335 0.33443 0.0
C296 C 0.93943 0.08501 0.29006 0.0
C297 C 0.91598 0.10575 0.25296 0.0
C298 C 0.91618 0.14143 0.26031 0.0
C299 C 0.89521 0.1617 0.22305 0.0
C300 C 0.89549 0.19724 0.23173 0.0
C301 C 0.91618 0.21237 0.27562 0.0
C302 C 0.93685 0.19259 0.31187 0.0
C303 C 0.93691 0.15753 0.30462 0.0
H304 H 0.30783 0.37558 0.65381 0.0
C305 C 0.32876 0.36902 0.625 0.0
H306 H 0.38225 0.37001 0.61272 0.0
H307 H 0.42654 0.49834 0.75205 0.0
H308 H 0.42955 0.51812 0.65176 0.0
H309 H 0.40459 0.48445 0.56882 0.0
H310 H 0.37677 0.43063 0.58574 0.0
C311 C 0.36122 0.37722 0.64084 0.0
C312 C 0.37004 0.39964 0.69205 0.0
C313 C 0.38524 0.43158 0.68159 0.0
C314 C 0.39901 0.45128 0.72943 0.0
C315 C 0.41525 0.48248 0.71746 0.0
C316 C 0.41718 0.49416 0.66003 0.0
C317 C 0.40318 0.47519 0.61335 0.0
C318 C 0.3874 0.44426 0.62369 0.0
H319 H 0.44836 0.41522 0.85374 0.0
C320 C 0.44269 0.44151 0.86432 0.0
H321 H 0.41062 0.48322 0.84608 0.0
H322 H 0.34204 0.33974 0.72793 0.0
H323 H 0.33468 0.32236 0.82879 0.0
H324 H 0.35405 0.35904 0.91214 0.0
H325 H 0.38168 0.41301 0.89485 0.0
C326 C 0.41659 0.45694 0.83613 0.0
C327 C 0.39716 0.43914 0.78765 0.0
C328 C 0.37914 0.4087 0.79857 0.0
C329 C 0.36638 0.38841 0.75059 0.0
C330 C 0.351 0.35683 0.76262 0.0
C331 C 0.34675 0.34645 0.8204 0.0
C332 C 0.35777 0.36704 0.86732 0.0
C333 C 0.37381 0.39781 0.8568 0.0
H334 H 0.61178 0.67882 0.42465 0.0
C335 C 0.63952 0.68137 0.42946 0.0
H336 H 0.68703 0.66385 0.39845 0.0
H337 H 0.60399 0.53167 0.30949 0.0
H338 H 0.63548 0.5099 0.39433 0.0
H339 H 0.6708 0.54788 0.45842 0.0
H340 H 0.67497 0.60782 0.43802 0.0
C341 C 0.65936 0.66456 0.39155 0.0
C342 C 0.64285 0.64112 0.34747 0.0
C343 C 0.64131 0.60605 0.35937 0.0
C344 C 0.6209 0.58416 0.32255 0.0
C345 C 0.61918 0.54937 0.33607 0.0
C346 C 0.63709 0.53657 0.38462 0.0
C347 C 0.65698 0.55796 0.42071 0.0
C348 C 0.65913 0.59232 0.40852 0.0
H349 H 0.61876 0.56413 0.17648 0.0
C350 C 0.59211 0.56003 0.18769 0.0
H351 H 0.55331 0.57188 0.24823 0.0
H352 H 0.64345 0.70624 0.30915 0.0
H353 H 0.61238 0.728 0.22375 0.0
H354 H 0.57631 0.69022 0.16052 0.0
H355 H 0.5711 0.63049 0.18212 0.0
C356 C 0.58001 0.57479 0.23651 0.0
C357 C 0.60237 0.59736 0.27373 0.0
C358 C 0.60494 0.6322 0.26053 0.0
C359 C 0.62538 0.65407 0.29732 0.0
C360 C 0.62779 0.6887 0.28305 0.0
C361 C 0.61023 0.70145 0.23408 0.0
C362 C 0.58995 0.68017 0.19844 0.0
C363 C 0.58721 0.64593 0.2113 0.0
H364 H 0.91046 0.19044 0.87989 0.0
C365 C 0.88257 0.19129 0.87663 0.0
H366 H 0.839 0.17412 0.82776 0.0
H367 H 0.96446 0.1544 0.63552 0.0
H368 H 0.96102 0.21523 0.62442 0.0
H369 H 0.92363 0.24963 0.68772 0.0
H370 H 0.88932 0.22331 0.76252 0.0
C371 C 0.86676 0.17669 0.82959 0.0
C372 C 0.88712 0.15606 0.78789 0.0
C373 C 0.90698 0.17178 0.74457 0.0
C374 C 0.92853 0.1519 0.70815 0.0
C375 C 0.94783 0.16825 0.66472 0.0
C376 C 0.94605 0.20316 0.65779 0.0
C377 C 0.92501 0.22254 0.69345 0.0
C378 C 0.90557 0.20715 0.73633 0.0
H379 H 0.91018 0.07015 0.63518 0.0
C380 C 0.93791 0.07338 0.63703 0.0
H381 H 0.97951 0.1003 0.6768 0.0
H382 H 0.85189 0.11804 0.8665 0.0
H383 H 0.85675 0.05757 0.88031 0.0
H384 H 0.89605 0.0234 0.82027 0.0
H385 H 0.93045 0.04942 0.7458 0.0
C386 C 0.95201 0.09563 0.67589 0.0
C387 C 0.93014 0.11635 0.71527 0.0
C388 C 0.91061 0.1007 0.75935 0.0
C389 C 0.88862 0.12052 0.79496 0.0
C390 C 0.86918 0.10425 0.83836 0.0
C391 C 0.87174 0.06954 0.84685 0.0
C392 C 0.8938 0.0503 0.81298 0.0
C393 C 0.91318 0.06556 0.76992 0.0
H394 H 0.37781 0.36514 0.42508 0.0
C395 C 0.35392 0.35187 0.41406 0.0
H396 H 0.32024 0.3378 0.34325 0.0
H397 H 0.38133 0.46069 0.19888 0.0
H398 H 0.32137 0.47595 0.20594 0.0
H399 H 0.2815 0.44091 0.26199 0.0
H400 H 0.30128 0.39018 0.31075 0.0
C401 C 0.34485 0.34865 0.35681 0.0
C402 C 0.36671 0.36529 0.31252 0.0
C403 C 0.35467 0.39469 0.28387 0.0
C404 C 0.37782 0.41519 0.25239 0.0
C405 C 0.36505 0.44445 0.22416 0.0
C406 C 0.33065 0.45347 0.22773 0.0
C407 C 0.3082 0.43374 0.25925 0.0
C408 C 0.31992 0.4047 0.28713 0.0
H409 H 0.44848 0.39327 0.15342 0.0
C410 C 0.45256 0.41901 0.16979 0.0
H411 H 0.43967 0.45514 0.23485 0.0
H412 H 0.39607 0.30695 0.35142 0.0
H413 H 0.45629 0.29169 0.34608 0.0
H414 H 0.49766 0.32954 0.29918 0.0
H415 H 0.47909 0.38234 0.25636 0.0
C416 C 0.43724 0.42908 0.21938 0.0
C417 C 0.41302 0.40635 0.24992 0.0
C418 C 0.42475 0.37612 0.27654 0.0
C419 C 0.4013 0.35511 0.30629 0.0
C420 C 0.41321 0.32436 0.33033 0.0
C421 C 0.4476 0.31524 0.32726 0.0
C422 C 0.47085 0.33648 0.30065 0.0
C423 C 0.45976 0.36664 0.27573 0.0
H424 H 0.16577 0.82286 0.8383 0.0
C425 C 0.16709 0.84038 0.87573 0.0
H426 H 0.15831 0.89067 0.90467 0.0
H427 H 0.14675 0.90869 0.61463 0.0
H428 H 0.20713 0.89395 0.61365 0.0
H429 H 0.23721 0.8751 0.70413 0.0
H430 H 0.20711 0.87062 0.79598 0.0
C431 C 0.15659 0.87246 0.86841 0.0
C432 C 0.13898 0.88352 0.81311 0.0
C433 C 0.15713 0.88624 0.7599 0.0
C434 C 0.13993 0.8977 0.70792 0.0
C435 C 0.15859 0.9002 0.65537 0.0
C436 C 0.19326 0.89187 0.65422 0.0
C437 C 0.21018 0.88121 0.70514 0.0
C438 C 0.19252 0.87853 0.75754 0.0
H439 H 0.08555 0.97052 0.69116 0.0
C440 C 0.07919 0.95397 0.65372 0.0
H441 H 0.08234 0.90415 0.61879 0.0
H442 H 0.09647 0.88053 0.90743 0.0
H443 H 0.03613 0.89499 0.90804 0.0
H444 H 0.00628 0.91434 0.81768 0.0
H445 H 0.03667 0.91948 0.72628 0.0
C446 C 0.08761 0.92108 0.65612 0.0
C447 C 0.10492 0.90712 0.70959 0.0
C448 C 0.08664 0.90384 0.76252 0.0
C449 C 0.10376 0.8923 0.81442 0.0
C450 C 0.08486 0.88933 0.86672 0.0
C451 C 0.05014 0.89744 0.86768 0.0
C452 C 0.03335 0.90836 0.81684 0.0
C453 C 0.05119 0.91143 0.76472 0.0
loop_
_geom_bond_atom_site_label_1
_geom_bond_atom_site_label_2
_geom_bond_distance
_geom_bond_site_symmetry_2
_ccdc_geom_bond_type
H0 C5 0.930 . S
H1 C8 0.930 . S
H2 C10 0.930 . S
H3 C4 1.016 . S
C4 H3 1.016 . S
C4 N11 1.286 1_554 S
C5 H0 0.930 . S
C5 C6 1.397 . S
C5 C7 1.361 . S
C6 C5 1.397 . S
C6 C10 1.390 1_556 S
C7 C5 1.361 . S
C7 C8 1.393 1_556 S
C7 N11 1.413 . S
C8 H1 0.930 . S
C8 C7 1.393 1_554 S
C8 C9 1.399 . S
C9 C8 1.399 . S
C9 C10 1.381 . S
C10 H2 0.930 . S
C10 C6 1.390 1_554 S
C10 C9 1.381 . S
N11 C4 1.286 1_556 S
N11 C7 1.413 . S
H12 C17 0.930 . S
H13 C20 0.930 . S
H14 C22 0.930 . S
H15 C16 1.016 . S
C16 H15 1.016 . S
C16 N23 1.286 . S
C17 H12 0.930 . S
C17 C18 1.397 . S
C17 C19 1.361 . S
C18 C17 1.397 . S
C18 C22 1.390 . S
C19 C17 1.361 . S
C19 C20 1.393 . S
C19 N23 1.413 . S
C20 H13 0.930 . S
C20 C19 1.393 . S
C20 C21 1.399 . S
C21 C20 1.399 . S
C21 C22 1.381 . S
C22 H14 0.930 . S
C22 C18 1.390 . S
C22 C21 1.381 . S
N23 C16 1.286 . S
N23 C19 1.413 . S
H24 C29 0.930 . S
H25 C32 0.930 . S
H26 C34 0.930 . S
H27 C28 1.016 . S
C28 H27 1.016 . S
C28 N35 1.286 1_554 S
C29 H24 0.930 . S
C29 C30 1.397 . S
C29 C31 1.361 . S
C30 C29 1.397 . S
C30 C34 1.390 1_556 S
C31 C29 1.361 . S
C31 C32 1.393 1_556 S
C31 N35 1.413 . S
C32 H25 0.930 . S
C32 C31 1.393 1_554 S
C32 C33 1.399 . S
C33 C32 1.399 . S
C33 C34 1.381 . S
C34 H26 0.930 . S
C34 C30 1.390 1_554 S
C34 C33 1.381 . S
N35 C28 1.286 1_556 S
N35 C31 1.413 . S
H36 C41 0.930 . S
H37 C44 0.930 . S
H38 C46 0.930 . S
H39 C40 1.016 . S
C40 H39 1.016 . S
C40 N47 1.286 . S
C41 H36 0.930 . S
C41 C42 1.397 . S
C41 C43 1.361 . S
C42 C41 1.397 . S
C42 C46 1.390 . S
C43 C41 1.361 . S
C43 C44 1.393 . S
C43 N47 1.413 . S
C44 H37 0.930 . S
C44 C43 1.393 . S
C44 C45 1.399 . S
C45 C44 1.399 . S
C45 C46 1.381 . S
C46 H38 0.930 . S
C46 C42 1.390 . S
C46 C45 1.381 . S
N47 C40 1.286 . S
N47 C43 1.413 . S
O48 Zn49 1.953 1_565 S
O48 C64 1.225 . S
Zn49 O48 1.953 1_545 S
Zn49 O50 1.949 1_655 S
Zn49 O56 1.919 . S
Zn49 O61 1.924 . S
O50 Zn49 1.949 1_455 S
O50 Zn51 1.923 . S
O50 Zn52 1.950 1_545 S
O50 Zn53 1.945 . S
Zn51 O50 1.923 . S
Zn51 O54 1.933 . S
Zn51 O57 1.924 1_455 S
Zn51 O58 1.965 1_545 S
Zn52 O50 1.950 1_565 S
Zn52 O59 1.938 . S
Zn52 O60 1.906 . S
Zn52 O70 1.953 1_455 S
Zn53 O50 1.945 . S
Zn53 O55 1.932 . S
Zn53 O62 1.980 . S
Zn53 O63 1.910 1_455 S
O54 Zn51 1.933 . S
O54 C65 1.226 . S
O55 Zn53 1.932 . S
O55 C65 1.307 . S
O56 Zn49 1.919 . S
O56 C67 1.253 . S
O57 Zn51 1.924 1_655 S
O57 C67 1.309 . S
O58 Zn51 1.965 1_565 S
O58 C66 1.303 . S
O59 Zn52 1.938 . S
O59 C66 1.247 . S
O60 Zn52 1.906 . S
O60 C68 1.304 . S
O61 Zn49 1.924 . S
O61 C69 1.311 . S
O62 Zn53 1.980 . S
O62 C68 1.267 1_545 S
O63 Zn53 1.910 1_655 S
O63 C69 1.231 . S
C64 O48 1.225 . S
C64 O70 1.298 . S
C65 O54 1.226 . S
C65 O55 1.307 . S
C66 O58 1.303 . S
C66 O59 1.247 . S
C67 O56 1.253 . S
C67 O57 1.309 . S
C68 O60 1.304 . S
C68 O62 1.267 1_565 S
C69 O61 1.311 . S
C69 O63 1.231 . S
O70 Zn52 1.953 1_655 S
O70 C64 1.298 . S
O71 Zn72 1.953 1_556 S
O71 C87 1.225 1_556 S
Zn72 O71 1.953 1_554 S
Zn72 O73 1.949 . S
Zn72 O79 1.919 1_554 S
Zn72 O84 1.924 . S
O73 Zn72 1.949 . S
O73 Zn74 1.923 1_554 S
O73 Zn75 1.950 . S
O73 Zn76 1.945 . S
Zn74 O73 1.923 1_556 S
Zn74 O77 1.933 . S
Zn74 O80 1.941 . S
Zn74 O81 1.965 . S
Zn75 O73 1.950 . S
Zn75 O82 1.938 1_554 S
Zn75 O83 1.906 . S
Zn75 O93 1.953 . S
Zn76 O73 1.945 . S
Zn76 O78 1.932 . S
Zn76 O85 1.977 . S
Zn76 O86 1.910 . S
O77 Zn74 1.933 . S
O77 C88 1.226 1_556 S
O78 Zn76 1.932 . S
O78 C88 1.307 . S
O79 Zn72 1.919 1_556 S
O79 C90 1.253 . S
O80 Zn74 1.941 . S
O80 C90 1.283 . S
O81 Zn74 1.965 . S
O81 C89 1.303 . S
O82 Zn75 1.938 1_556 S
O82 C89 1.247 . S
O83 Zn75 1.906 . S
O83 C91 1.304 . S
O84 Zn72 1.924 . S
O84 C92 1.311 . S
O85 Zn76 1.977 . S
O85 C91 1.272 . S
O86 Zn76 1.910 . S
O86 C92 1.231 . S
C87 O71 1.225 1_554 S
C87 O93 1.298 . S
C88 O77 1.226 1_554 S
C88 O78 1.307 . S
C89 O81 1.303 . S
C89 O82 1.247 . S
C90 O79 1.253 . S
C90 O80 1.283 . S
C91 O83 1.304 . S
C91 O85 1.272 . S
C92 O84 1.311 . S
C92 O86 1.231 . S
O93 Zn75 1.953 . S
O93 C87 1.298 . S
H94 C95 0.951 . S
C95 H94 0.951 . S
C95 C101 1.265 . S
H96 C101 0.950 . S
H97 C105 0.949 . S
H98 C106 0.950 . S
H99 C107 0.951 . S
H100 C108 0.951 . S
C101 C95 1.265 . S
C101 H96 0.950 . S
C101 C102 1.478 . S
C102 C101 1.478 . S
C102 C103 1.397 . S
C102 C119 1.394 . S
C103 C102 1.397 . S
C103 C104 1.438 . S
C103 C108 1.429 . S
C104 C103 1.438 . S
C104 C105 1.428 . S
C104 C117 1.394 . S
C105 H97 0.949 . S
C105 C104 1.428 . S
C105 C106 1.345 . S
C106 H98 0.950 . S
C106 C105 1.345 . S
C106 C107 1.424 . S
C107 H99 0.951 . S
C107 C106 1.424 . S
C107 C108 1.347 . S
C108 H100 0.951 . S
C108 C103 1.429 . S
C108 C107 1.347 . S
H109 C110 0.951 . S
C110 H109 0.951 . S
C110 C116 1.265 . S
H111 C116 0.950 . S
H112 C120 0.949 . S
H113 C121 0.950 . S
H114 C122 0.951 . S
H115 C123 0.951 . S
C116 C110 1.265 . S
C116 H111 0.950 . S
C116 C117 1.478 . S
C117 C104 1.394 . S
C117 C116 1.478 . S
C117 C118 1.397 . S
C118 C117 1.397 . S
C118 C119 1.438 . S
C118 C123 1.429 . S
C119 C102 1.394 . S
C119 C118 1.438 . S
C119 C120 1.428 . S
C120 H112 0.949 . S
C120 C119 1.428 . S
C120 C121 1.345 . S
C121 H113 0.950 . S
C121 C120 1.345 . S
C121 C122 1.424 . S
C122 H114 0.951 . S
C122 C121 1.424 . S
C122 C123 1.347 . S
C123 H115 0.951 . S
C123 C118 1.429 . S
C123 C122 1.347 . S
H124 C125 0.951 . S
C125 H124 0.951 . S
C125 C131 1.265 . S
H126 C131 0.950 . S
H127 C135 0.949 . S
H128 C136 0.950 . S
H129 C137 0.951 . S
H130 C138 0.951 . S
C131 C125 1.265 . S
C131 H126 0.950 . S
C131 C132 1.478 . S
C132 C131 1.478 . S
C132 C133 1.397 . S
C132 C149 1.394 1_554 S
C133 C132 1.397 . S
C133 C134 1.438 . S
C133 C138 1.429 . S
C134 C133 1.438 . S
C134 C135 1.428 . S
C134 C147 1.394 . S
C135 H127 0.949 . S
C135 C134 1.428 . S
C135 C136 1.345 . S
C136 H128 0.950 . S
C136 C135 1.345 . S
C136 C137 1.424 . S
C137 H129 0.951 . S
C137 C136 1.424 . S
C137 C138 1.347 . S
C138 H130 0.951 . S
C138 C133 1.429 . S
C138 C137 1.347 . S
H139 C140 0.951 . S
C140 H139 0.951 . S
C140 C146 1.265 . S
H141 C146 0.950 . S
H142 C150 0.949 . S
H143 C151 0.950 . S
H144 C152 0.951 . S
H145 C153 0.951 . S
C146 C140 1.265 . S
C146 H141 0.950 . S
C146 C147 1.478 . S
C147 C134 1.394 . S
C147 C146 1.478 . S
C147 C148 1.397 1_554 S
C148 C147 1.397 1_556 S
C148 C149 1.438 . S
C148 C153 1.429 . S
C149 C132 1.394 1_556 S
C149 C148 1.438 . S
C149 C150 1.428 . S
C150 H142 0.949 . S
C150 C149 1.428 . S
C150 C151 1.345 . S
C151 H143 0.950 . S
C151 C150 1.345 . S
C151 C152 1.424 . S
C152 H144 0.951 . S
C152 C151 1.424 . S
C152 C153 1.347 . S
C153 H145 0.951 . S
C153 C148 1.429 . S
C153 C152 1.347 . S
H154 C155 0.951 . S
C155 H154 0.951 . S
C155 C161 1.265 . S
H156 C161 0.950 . S
H157 C165 0.949 . S
H158 C166 0.950 . S
H159 C167 0.951 . S
H160 C168 0.951 . S
C161 C155 1.265 . S
C161 H156 0.950 . S
C161 C162 1.478 . S
C162 C161 1.478 . S
C162 C163 1.397 . S
C162 C179 1.394 . S
C163 C162 1.397 . S
C163 C164 1.438 . S
C163 C168 1.429 . S
C164 C163 1.438 . S
C164 C165 1.428 . S
C164 C177 1.394 . S
C165 H157 0.949 . S
C165 C164 1.428 . S
C165 C166 1.345 . S
C166 H158 0.950 . S
C166 C165 1.345 . S
C166 C167 1.424 . S
C167 H159 0.951 . S
C167 C166 1.424 . S
C167 C168 1.347 . S
C168 H160 0.951 . S
C168 C163 1.429 . S
C168 C167 1.347 . S
H169 C170 0.951 . S
C170 H169 0.951 . S
C170 C176 1.265 . S
H171 C176 0.950 . S
H172 C180 0.949 . S
H173 C181 0.950 . S
H174 C182 0.951 . S
H175 C183 0.951 . S
C176 C170 1.265 . S
C176 H171 0.950 . S
C176 C177 1.478 . S
C177 C164 1.394 . S
C177 C176 1.478 . S
C177 C178 1.397 . S
C178 C177 1.397 . S
C178 C179 1.438 . S
C178 C183 1.429 . S
C179 C162 1.394 . S
C179 C178 1.438 . S
C179 C180 1.428 . S
C180 H172 0.949 . S
C180 C179 1.428 . S
C180 C181 1.345 . S
C181 H173 0.950 . S
C181 C180 1.345 . S
C181 C182 1.424 . S
C182 H174 0.951 . S
C182 C181 1.424 . S
C182 C183 1.347 . S
C183 H175 0.951 . S
C183 C178 1.429 . S
C183 C182 1.347 . S
H184 C185 0.951 . S
C185 H184 0.951 . S
C185 C191 1.265 . S
H186 C191 0.950 . S
H187 C195 0.949 . S
H188 C196 0.950 . S
H189 C197 0.951 . S
H190 C198 0.951 . S
C191 C185 1.265 . S
C191 H186 0.950 . S
C191 C192 1.478 . S
C192 C191 1.478 . S
C192 C193 1.397 1_554 S
C192 C209 1.394 . S
C193 C192 1.397 1_556 S
C193 C194 1.438 . S
C193 C198 1.429 . S
C194 C193 1.438 . S
C194 C195 1.428 . S
C194 C207 1.394 1_556 S
C195 H187 0.949 . S
C195 C194 1.428 . S
C195 C196 1.345 . S
C196 H188 0.950 . S
C196 C195 1.345 . S
C196 C197 1.424 . S
C197 H189 0.951 . S
C197 C196 1.424 . S
C197 C198 1.347 . S
C198 H190 0.951 . S
C198 C193 1.429 . S
C198 C197 1.347 . S
H199 C200 0.951 . S
C200 H199 0.951 . S
C200 C206 1.265 . S
H201 C206 0.950 . S
H202 C210 0.949 . S
H203 C211 0.950 . S
H204 C212 0.951 . S
H205 C213 0.951 . S
C206 C200 1.265 . S
C206 H201 0.950 . S
C206 C207 1.478 . S
C207 C194 1.394 1_554 S
C207 C206 1.478 . S
C207 C208 1.397 . S
C208 C207 1.397 . S
C208 C209 1.438 . S
C208 C213 1.429 . S
C209 C192 1.394 . S
C209 C208 1.438 . S
C209 C210 1.428 . S
C210 H202 0.949 . S
C210 C209 1.428 . S
C210 C211 1.345 . S
C211 H203 0.950 . S
C211 C210 1.345 . S
C211 C212 1.424 . S
C212 H204 0.951 . S
C212 C211 1.424 . S
C212 C213 1.347 . S
C213 H205 0.951 . S
C213 C208 1.429 . S
C213 C212 1.347 . S
H214 C215 0.951 . S
C215 H214 0.951 . S
C215 C221 1.265 . S
H216 C221 0.950 . S
H217 C225 0.949 . S
H218 C226 0.950 . S
H219 C227 0.951 . S
H220 C228 0.951 . S
C221 C215 1.265 . S
C221 H216 0.950 . S
C221 C222 1.478 . S
C222 C221 1.478 . S
C222 C223 1.397 . S
C222 C239 1.394 . S
C223 C222 1.397 . S
C223 C224 1.438 . S
C223 C228 1.429 . S
C224 C223 1.438 . S
C224 C225 1.428 . S
C224 C237 1.394 . S
C225 H217 0.949 . S
C225 C224 1.428 . S
C225 C226 1.345 . S
C226 H218 0.950 . S
C226 C225 1.345 . S
C226 C227 1.424 . S
C227 H219 0.951 . S
C227 C226 1.424 . S
C227 C228 1.347 . S
C228 H220 0.951 . S
C228 C223 1.429 . S
C228 C227 1.347 . S
H229 C230 0.951 . S
C230 H229 0.951 . S
C230 C236 1.265 . S
H231 C236 0.950 . S
H232 C240 0.949 . S
H233 C241 0.950 . S
H234 C242 0.951 . S
H235 C243 0.951 . S
C236 C230 1.265 . S
C236 H231 0.950 . S
C236 C237 1.478 . S
C237 C224 1.394 . S
C237 C236 1.478 . S
C237 C238 1.397 . S
C238 C237 1.397 . S
C238 C239 1.438 . S
C238 C243 1.429 . S
C239 C222 1.394 . S
C239 C238 1.438 . S
C239 C240 1.428 . S
C240 H232 0.949 . S
C240 C239 1.428 . S
C240 C241 1.345 . S
C241 H233 0.950 . S
C241 C240 1.345 . S
C241 C242 1.424 . S
C242 H234 0.951 . S
C242 C241 1.424 . S
C242 C243 1.347 . S
C243 H235 0.951 . S
C243 C238 1.429 . S
C243 C242 1.347 . S
H244 C245 0.951 . S
C245 H244 0.951 . S
C245 C251 1.265 . S
H246 C251 0.950 . S
H247 C255 0.949 . S
H248 C256 0.950 . S
H249 C257 0.951 . S
H250 C258 0.951 . S
C251 C245 1.265 . S
C251 H246 0.950 . S
C251 C252 1.478 . S
C252 C251 1.478 . S
C252 C253 1.397 . S
C252 C269 1.394 . S
C253 C252 1.397 . S
C253 C254 1.438 . S
C253 C258 1.429 . S
C254 C253 1.438 . S
C254 C255 1.428 . S
C254 C267 1.394 . S
C255 H247 0.949 . S
C255 C254 1.428 . S
C255 C256 1.345 . S
C256 H248 0.950 . S
C256 C255 1.345 . S
C256 C257 1.424 . S
C257 H249 0.951 . S
C257 C256 1.424 . S
C257 C258 1.347 . S
C258 H250 0.951 . S
C258 C253 1.429 . S
C258 C257 1.347 . S
H259 C260 0.951 . S
C260 H259 0.951 . S
C260 C266 1.265 . S
H261 C266 0.950 . S
H262 C270 0.949 . S
H263 C271 0.950 . S
H264 C272 0.951 . S
H265 C273 0.951 . S
C266 C260 1.265 . S
C266 H261 0.950 . S
C266 C267 1.478 . S
C267 C254 1.394 . S
C267 C266 1.478 . S
C267 C268 1.397 . S
C268 C267 1.397 . S
C268 C269 1.438 . S
C268 C273 1.429 . S
C269 C252 1.394 . S
C269 C268 1.438 . S
C269 C270 1.428 . S
C270 H262 0.949 . S
C270 C269 1.428 . S
C270 C271 1.345 . S
C271 H263 0.950 . S
C271 C270 1.345 . S
C271 C272 1.424 . S
C272 H264 0.951 . S
C272 C271 1.424 . S
C272 C273 1.347 . S
C273 H265 0.951 . S
C273 C268 1.429 . S
C273 C272 1.347 . S
H274 C275 0.951 . S
C275 H274 0.951 . S
C275 C281 1.265 . S
H276 C281 0.950 . S
H277 C285 0.949 . S
H278 C286 0.950 1_565 S
H279 C287 0.951 . S
H280 C288 0.951 . S
C281 C275 1.265 . S
C281 H276 0.950 . S
C281 C282 1.478 . S
C282 C281 1.478 . S
C282 C283 1.397 . S
C282 C299 1.394 . S
C283 C282 1.397 . S
C283 C284 1.438 . S
C283 C288 1.429 . S
C284 C283 1.438 . S
C284 C285 1.428 . S
C284 C297 1.394 . S
C285 H277 0.949 . S
C285 C284 1.428 . S
C285 C286 1.345 . S
C286 H278 0.950 1_545 S
C286 C285 1.345 . S
C286 C287 1.424 . S
C287 H279 0.951 . S
C287 C286 1.424 . S
C287 C288 1.347 . S
C288 H280 0.951 . S
C288 C283 1.429 . S
C288 C287 1.347 . S
H289 C290 0.951 . S
C290 H289 0.951 . S
C290 C296 1.265 . S
H291 C296 0.950 . S
H292 C300 0.949 . S
H293 C301 0.950 . S
H294 C302 0.951 . S
H295 C303 0.951 . S
C296 C290 1.265 . S
C296 H291 0.950 . S
C296 C297 1.478 . S
C297 C284 1.394 . S
C297 C296 1.478 . S
C297 C298 1.397 . S
C298 C297 1.397 . S
C298 C299 1.438 . S
C298 C303 1.429 . S
C299 C282 1.394 . S
C299 C298 1.438 . S
C299 C300 1.428 . S
C300 H292 0.949 . S
C300 C299 1.428 . S
C300 C301 1.345 . S
C301 H293 0.950 . S
C301 C300 1.345 . S
C301 C302 1.424 . S
C302 H294 0.951 . S
C302 C301 1.424 . S
C302 C303 1.347 . S
C303 H295 0.951 . S
C303 C298 1.429 . S
C303 C302 1.347 . S
H304 C305 0.951 . S
C305 H304 0.951 . S
C305 C311 1.265 . S
H306 C311 0.950 . S
H307 C315 0.949 . S
H308 C316 0.950 . S
H309 C317 0.951 . S
H310 C318 0.951 . S
C311 C305 1.265 . S
C311 H306 0.950 . S
C311 C312 1.478 . S
C312 C311 1.478 . S
C312 C313 1.397 . S
C312 C329 1.394 . S
C313 C312 1.397 . S
C313 C314 1.438 . S
C313 C318 1.429 . S
C314 C313 1.438 . S
C314 C315 1.428 . S
C314 C327 1.394 . S
C315 H307 0.949 . S
C315 C314 1.428 . S
C315 C316 1.345 . S
C316 H308 0.950 . S
C316 C315 1.345 . S
C316 C317 1.424 . S
C317 H309 0.951 . S
C317 C316 1.424 . S
C317 C318 1.347 . S
C318 H310 0.951 . S
C318 C313 1.429 . S
C318 C317 1.347 . S
H319 C320 0.951 . S
C320 H319 0.951 . S
C320 C326 1.265 . S
H321 C326 0.950 . S
H322 C330 0.949 . S
H323 C331 0.950 . S
H324 C332 0.951 . S
H325 C333 0.951 . S
C326 C320 1.265 . S
C326 H321 0.950 . S
C326 C327 1.478 . S
C327 C314 1.394 . S
C327 C326 1.478 . S
C327 C328 1.397 . S
C328 C327 1.397 . S
C328 C329 1.438 . S
C328 C333 1.429 . S
C329 C312 1.394 . S
C329 C328 1.438 . S
C329 C330 1.428 . S
C330 H322 0.949 . S
C330 C329 1.428 . S
C330 C331 1.345 . S
C331 H323 0.950 . S
C331 C330 1.345 . S
C331 C332 1.424 . S
C332 H324 0.951 . S
C332 C331 1.424 . S
C332 C333 1.347 . S
C333 H325 0.951 . S
C333 C328 1.429 . S
C333 C332 1.347 . S
H334 C335 0.951 . S
C335 H334 0.951 . S
C335 C341 1.265 . S
H336 C341 0.950 . S
H337 C345 0.949 . S
H338 C346 0.950 . S
H339 C347 0.951 . S
H340 C348 0.951 . S
C341 C335 1.265 . S
C341 H336 0.950 . S
C341 C342 1.478 . S
C342 C341 1.478 . S
C342 C343 1.397 . S
C342 C359 1.394 . S
C343 C342 1.397 . S
C343 C344 1.438 . S
C343 C348 1.429 . S
C344 C343 1.438 . S
C344 C345 1.428 . S
C344 C357 1.394 . S
C345 H337 0.949 . S
C345 C344 1.428 . S
C345 C346 1.345 . S
C346 H338 0.950 . S
C346 C345 1.345 . S
C346 C347 1.424 . S
C347 H339 0.951 . S
C347 C346 1.424 . S
C347 C348 1.347 . S
C348 H340 0.951 . S
C348 C343 1.429 . S
C348 C347 1.347 . S
H349 C350 0.951 . S
C350 H349 0.951 . S
C350 C356 1.265 . S
H351 C356 0.950 . S
H352 C360 0.949 . S
H353 C361 0.950 . S
H354 C362 0.951 . S
H355 C363 0.951 . S
C356 C350 1.265 . S
C356 H351 0.950 . S
C356 C357 1.478 . S
C357 C344 1.394 . S
C357 C356 1.478 . S
C357 C358 1.397 . S
C358 C357 1.397 . S
C358 C359 1.438 . S
C358 C363 1.429 . S
C359 C342 1.394 . S
C359 C358 1.438 . S
C359 C360 1.428 . S
C360 H352 0.949 . S
C360 C359 1.428 . S
C360 C361 1.345 . S
C361 H353 0.950 . S
C361 C360 1.345 . S
C361 C362 1.424 . S
C362 H354 0.951 . S
C362 C361 1.424 . S
C362 C363 1.347 . S
C363 H355 0.951 . S
C363 C358 1.429 . S
C363 C362 1.347 . S
H364 C365 0.951 . S
C365 H364 0.951 . S
C365 C371 1.265 . S
H366 C371 0.950 . S
H367 C375 0.949 . S
H368 C376 0.950 . S
H369 C377 0.951 . S
H370 C378 0.951 . S
C371 C365 1.265 . S
C371 H366 0.950 . S
C371 C372 1.478 . S
C372 C371 1.478 . S
C372 C373 1.397 . S
C372 C389 1.394 . S
C373 C372 1.397 . S
C373 C374 1.438 . S
C373 C378 1.429 . S
C374 C373 1.438 . S
C374 C375 1.428 . S
C374 C387 1.394 . S
C375 H367 0.949 . S
C375 C374 1.428 . S
C375 C376 1.345 . S
C376 H368 0.950 . S
C376 C375 1.345 . S
C376 C377 1.424 . S
C377 H369 0.951 . S
C377 C376 1.424 . S
C377 C378 1.347 . S
C378 H370 0.951 . S
C378 C373 1.429 . S
C378 C377 1.347 . S
H379 C380 0.951 . S
C380 H379 0.951 . S
C380 C386 1.265 . S
H381 C386 0.950 . S
H382 C390 0.949 . S
H383 C391 0.950 . S
H384 C392 0.951 . S
H385 C393 0.951 . S
C386 C380 1.265 . S
C386 H381 0.950 . S
C386 C387 1.478 . S
C387 C374 1.394 . S
C387 C386 1.478 . S
C387 C388 1.397 . S
C388 C387 1.397 . S
C388 C389 1.438 . S
C388 C393 1.429 . S
C389 C372 1.394 . S
C389 C388 1.438 . S
C389 C390 1.428 . S
C390 H382 0.949 . S
C390 C389 1.428 . S
C390 C391 1.345 . S
C391 H383 0.950 . S
C391 C390 1.345 . S
C391 C392 1.424 . S
C392 H384 0.951 . S
C392 C391 1.424 . S
C392 C393 1.347 . S
C393 H385 0.951 . S
C393 C388 1.429 . S
C393 C392 1.347 . S
H394 C395 0.951 . S
C395 H394 0.951 . S
C395 C401 1.265 . S
H396 C401 0.950 . S
H397 C405 0.949 . S
H398 C406 0.950 . S
H399 C407 0.951 . S
H400 C408 0.951 . S
C401 C395 1.265 . S
C401 H396 0.950 . S
C401 C402 1.478 . S
C402 C401 1.478 . S
C402 C403 1.397 . S
C402 C419 1.394 . S
C403 C402 1.397 . S
C403 C404 1.438 . S
C403 C408 1.429 . S
C404 C403 1.438 . S
C404 C405 1.428 . S
C404 C417 1.394 . S
C405 H397 0.949 . S
C405 C404 1.428 . S
C405 C406 1.345 . S
C406 H398 0.950 . S
C406 C405 1.345 . S
C406 C407 1.424 . S
C407 H399 0.951 . S
C407 C406 1.424 . S
C407 C408 1.347 . S
C408 H400 0.951 . S
C408 C403 1.429 . S
C408 C407 1.347 . S
H409 C410 0.951 . S
C410 H409 0.951 . S
C410 C416 1.265 . S
H411 C416 0.950 . S
H412 C420 0.949 . S
H413 C421 0.950 . S
H414 C422 0.951 . S
H415 C423 0.951 . S
C416 C410 1.265 . S
C416 H411 0.950 . S
C416 C417 1.478 . S
C417 C404 1.394 . S
C417 C416 1.478 . S
C417 C418 1.397 . S
C418 C417 1.397 . S
C418 C419 1.438 . S
C418 C423 1.429 . S
C419 C402 1.394 . S
C419 C418 1.438 . S
C419 C420 1.428 . S
C420 H412 0.949 . S
C420 C419 1.428 . S
C420 C421 1.345 . S
C421 H413 0.950 . S
C421 C420 1.345 . S
C421 C422 1.424 . S
C422 H414 0.951 . S
C422 C421 1.424 . S
C422 C423 1.347 . S
C423 H415 0.951 . S
C423 C418 1.429 . S
C423 C422 1.347 . S
H424 C425 0.951 . S
C425 H424 0.951 . S
C425 C431 1.265 . S
H426 C431 0.950 . S
H427 C435 0.949 . S
H428 C436 0.950 . S
H429 C437 0.951 . S
H430 C438 0.951 . S
C431 C425 1.265 . S
C431 H426 0.950 . S
C431 C432 1.478 . S
C432 C431 1.478 . S
C432 C433 1.397 . S
C432 C449 1.394 . S
C433 C432 1.397 . S
C433 C434 1.438 . S
C433 C438 1.429 . S
C434 C433 1.438 . S
C434 C435 1.428 . S
C434 C447 1.394 . S
C435 H427 0.949 . S
C435 C434 1.428 . S
C435 C436 1.345 . S
C436 H428 0.950 . S
C436 C435 1.345 . S
C436 C437 1.424 . S
C437 H429 0.951 . S
C437 C436 1.424 . S
C437 C438 1.347 . S
C438 H430 0.951 . S
C438 C433 1.429 . S
C438 C437 1.347 . S
H439 C440 0.951 . S
C440 H439 0.951 . S
C440 C446 1.265 . S
H441 C446 0.950 . S
H442 C450 0.949 . S
H443 C451 0.950 . S
H444 C452 0.951 . S
H445 C453 0.951 . S
C446 C440 1.265 . S
C446 H441 0.950 . S
C446 C447 1.478 . S
C447 C434 1.394 . S
C447 C446 1.478 . S
C447 C448 1.397 . S
C448 C447 1.397 . S
C448 C449 1.438 . S
C448 C453 1.429 . S
C449 C432 1.394 . S
C449 C448 1.438 . S
C449 C450 1.428 . S
C450 H442 0.949 . S
C450 C449 1.428 . S
C450 C451 1.345 . S
C451 H443 0.950 . S
C451 C450 1.345 . S
C451 C452 1.424 . S
C452 H444 0.951 . S
C452 C451 1.424 . S
C452 C453 1.347 . S
C453 H445 0.951 . S
C453 C448 1.429 . S
C453 C452 1.347 . S
C110 C65 1.482 . S
C95 C40 1.458 . S
C125 C4 1.479 . S
C140 C88 1.485 . S
C155 C16 1.508 . S
C170 C64 1.514 . S
C185 C28 1.501 . S
C200 C87 1.507 . S
C230 C68 1.443 . S
C215 C9 1.511 . S
C260 C90 1.438 . S
C245 C18 1.516 . S
C275 C33 1.495 . S
C290 C69 1.504 . S
C305 C45 1.529 . S
C320 C89 1.523 . S
C350 C92 1.439 . S
C335 C21 1.425 . S
C380 C67 1.412 . S
C365 C30 1.450 . S
C410 C91 1.437 . S
C395 C42 1.430 . S
C425 C6 1.433 . S
C440 C66 1.360 . S
