# Generated by pormake.
# Topology scu, (8,4)-cn, num edge types: 1
# Building blocks:
#     Node 0, Type 0, BuildingBlock: VETTIZ_charged_sbu_0, # of connection points: 8
#     Node 1, Type 1, BuildingBlock: IZENUY_clean_linker_0, # of connection points: 4
#     Node 2, Type 1, BuildingBlock: IZENUY_clean_linker_0, # of connection points: 4
#     Edge 3, Type (0, 1), BuildingBlock: UVAHIK_clean_linker_0, # of connection points: 2
#     Edge 4, Type (0, 1), BuildingBlock: UVAHIK_clean_linker_0, # of connection points: 2
#     Edge 5, Type (0, 1), BuildingBlock: UVAHIK_clean_linker_0, # of connection points: 2
#     Edge 6, Type (0, 1), BuildingBlock: UVAHIK_clean_linker_0, # of connection points: 2
#     Edge 7, Type (0, 1), BuildingBlock: UVAHIK_clean_linker_0, # of connection points: 2
#     Edge 8, Type (0, 1), BuildingBlock: UVAHIK_clean_linker_0, # of connection points: 2
#     Edge 9, Type (0, 1), BuildingBlock: UVAHIK_clean_linker_0, # of connection points: 2
#     Edge 10, Type (0, 1), BuildingBlock: UVAHIK_clean_linker_0, # of connection points: 2
# Relax obj value: 0.029
# Max RMSD: 0.128
# Mean RMSD: 0.109
data_MOF--net-scu--node1-VETTIZ_charged_sbu_0--node2-IZENUY_clean_linker_0--edge1-UVAHIK_clean_linker_0
_symmetry_space_group_name_H-M    P1
_symmetry_Int_Tables_number       1
_symmetry_cell_setting            triclinic
loop_
_symmetry_equiv_pos_as_xyz
'x, y, z'
_cell_length_a     36.548082
_cell_length_b     36.508064
_cell_length_c     22.862991
_cell_angle_alpha  90.3361
_cell_angle_beta   87.503688
_cell_angle_gamma 91.713477
loop_
_atom_site_label
_atom_site_type_symbol
_atom_site_fract_x
_atom_site_fract_y
_atom_site_fract_z
_atom_type_partial_charge
Fe0 Fe 0.02907 0.03447 0.13157 0.0
O1 O 0.02823 0.03404 0.04581 0.0
Fe2 Fe 0.0423 0.98548 1.00167 0.0
Fe3 Fe 0.98394 0.04569 1.00201 0.0
O4 O 0.0307 0.03137 0.04584 0.0
O5 O 0.99811 0.99717 0.95766 0.0
O6 O 0.9956 0.99982 0.95768 0.0
Fe7 Fe 0.9978 0.99677 0.8718 0.0
C8 C 0.94665 0.0208 0.11438 0.0
O9 O 0.02575 0.09021 0.11805 0.0
O10 O 0.97853 0.09319 0.05432 0.0
O11 O 0.05436 0.9966 0.85968 0.0
O12 O 0.07612 0.01523 0.94464 0.0
O13 O 0.08808 0.9802 0.05362 0.0
O14 O 0.08503 0.02969 0.11718 0.0
O15 O 0.01587 0.07737 0.9449 0.0
O16 O 1.00017 0.05292 0.85966 0.0
C17 C 0.10243 1.00353 0.0902 0.0
O18 O 1.00062 0.94101 0.88541 0.0
O19 O 0.04768 0.93794 0.94941 0.0
O20 O 0.97264 0.03398 0.14426 0.0
O21 O 0.95006 0.01606 0.05931 0.0
C22 C 1.001 0.10784 0.09133 0.0
C23 C 1.01279 0.07948 0.88989 0.0
C24 C 0.92405 0.02785 0.91269 0.0
O25 O 0.93814 0.05085 0.95009 0.0
O26 O 0.94186 1.00207 0.88532 0.0
C27 C 0.0802 1.00981 0.88984 0.0
O28 O 1.01036 0.95394 0.05892 0.0
O29 O 0.02717 0.97827 0.14367 0.0
C30 C 0.02523 0.9233 0.91234 0.0
C31 C 0.01402 0.95177 0.11381 0.0
H32 H 1.00646 0.47094 0.41476 0.0
H33 H 0.02743 0.45113 0.59608 0.0
H34 H 0.02166 0.36141 0.4734 0.0
H35 H 0.0202 0.56013 0.58916 0.0
H36 H 0.99972 0.58005 0.40768 0.0
H37 H 1.00527 0.6697 0.53051 0.0
N38 N 0.01572 0.50373 0.52092 0.0
N39 N 1.0112 0.5274 0.48288 0.0
C40 C 1.01166 0.45231 0.44994 0.0
C41 C 0.01393 0.4147 0.43793 0.0
C42 C 0.01675 0.46565 0.50725 0.0
C43 C 0.02345 0.44084 0.55219 0.0
C44 C 0.0258 0.40309 0.54036 0.0
C45 C 0.02082 0.39051 0.48308 0.0
C46 C 0.01512 0.57879 0.55395 0.0
C47 C 1.01284 0.61639 0.56598 0.0
C48 C 1.01018 0.56547 0.49657 0.0
C49 C 1.0036 0.59032 0.45161 0.0
C50 C 1.00126 0.62807 0.46346 0.0
C51 C 1.0061 0.64061 0.5208 0.0
H52 H 0.57164 1.00581 0.43535 0.0
H53 H 0.55995 0.02639 0.62134 0.0
H54 H 0.66672 0.01376 0.53985 0.0
H55 H 0.45726 0.01401 0.57556 0.0
H56 H 0.46589 0.99948 0.38793 0.0
H57 H 0.36066 0.99185 0.47958 0.0
N58 N 0.52215 0.01521 0.5271 0.0
N59 N 0.50543 1.00963 0.48127 0.0
C60 C 0.58369 1.01043 0.47732 0.0
C61 C 0.62197 1.00896 0.48142 0.0
C62 C 0.56108 0.01655 0.52809 0.0
C63 C 0.57718 0.02212 0.58225 0.0
C64 C 0.61522 0.02075 0.58645 0.0
C65 C 0.63724 0.01435 0.53616 0.0
C66 C 0.4447 1.00864 0.53419 0.0
C67 C 0.40656 1.00296 0.53339 0.0
C68 C 0.46648 1.00665 0.48166 0.0
C69 C 0.4494 1.00039 0.42845 0.0
C70 C 0.41124 0.99471 0.42756 0.0
C71 C 0.39022 0.99556 0.48021 0.0
C72 C 0.96493 0.16543 0.10318 0.0
C73 C 0.99829 0.14736 0.10549 0.0
C74 C 0.9623 0.20188 0.12244 0.0
C75 C 0.0181 0.28507 0.15822 0.0
H76 H 0.9435 0.30127 0.28057 0.0
C77 C 0.03962 0.38236 0.35045 0.0
C78 C 1.00975 0.39933 0.37861 0.0
C79 C 0.03451 0.35964 0.30202 0.0
C80 C 0.96398 0.29774 0.24547 0.0
H81 H 0.05543 0.15398 0.12653 0.0
H82 H 0.05093 0.21714 0.15926 0.0
H83 H 0.94087 0.24533 0.22195 0.0
H84 H 0.95145 0.40752 0.37718 0.0
H85 H 0.9423 0.36784 0.29159 0.0
H86 H 0.04207 0.33672 0.18319 0.0
C87 C 0.02675 0.20335 0.14292 0.0
C88 C 0.96247 0.26557 0.21191 0.0
C89 C 0.02924 0.16696 0.12468 0.0
C90 C 0.97494 0.39504 0.3555 0.0
C91 C 0.96971 0.37203 0.30704 0.0
C92 C 0.01952 0.31727 0.19153 0.0
C93 C 0.99316 0.22106 0.1431 0.0
C94 C 0.99035 0.25824 0.16955 0.0
C95 C 0.99929 0.3531 0.28094 0.0
C96 C 0.99332 0.32332 0.23721 0.0
H97 H 0.94061 0.15102 0.08864 0.0
H98 H 0.93607 0.21489 0.12197 0.0
H99 H 0.03963 0.28044 0.12516 0.0
H100 H 0.0666 0.3849 0.36821 0.0
H101 H 0.05785 0.3452 0.28378 0.0
C102 C 0.8779 0.01745 0.11514 0.0
C103 C 0.91054 1.01339 0.1445 0.0
C104 C 0.84383 0.01416 0.14557 0.0
C105 C 0.80386 0.0174 0.29843 0.0
H106 H 0.71529 0.98036 0.22814 0.0
C107 C 0.6756 0.97714 0.43556 0.0
C108 C 0.64704 1.0017 0.42995 0.0
C109 C 0.70428 0.97584 0.39345 0.0
C110 C 0.73986 0.99094 0.24793 0.0
H111 H 0.93309 1.00039 0.22763 0.0
H112 H 0.87404 0.99284 0.27997 0.0
H113 H 0.77342 0.98235 0.17008 0.0
H114 H 0.62451 0.04179 0.37316 0.0
H115 H 0.67484 0.03883 0.29816 0.0
H116 H 0.77052 0.02459 0.37676 0.0
C117 C 0.87445 1.00026 0.23417 0.0
C118 C 0.77315 0.99224 0.21482 0.0
C119 C 0.90841 1.00426 0.20408 0.0
C120 C 0.64609 0.02255 0.37852 0.0
C121 C 0.67485 0.02096 0.33581 0.0
C122 C 0.77091 0.0155 0.33153 0.0
C123 C 0.84165 1.00614 0.20585 0.0
C124 C 0.80574 1.00518 0.23987 0.0
C125 C 0.70478 0.99858 0.34426 0.0
C126 C 0.73872 1.00206 0.3068 0.0
H127 H 0.87872 0.02466 0.06918 0.0
H128 H 0.81936 0.01917 0.12219 0.0
H129 H 0.82787 0.02865 0.31898 0.0
H130 H 0.67675 0.96028 0.47425 0.0
H131 H 0.72699 0.95822 0.40061 0.0
C132 C 1.01122 0.88306 0.11361 0.0
C133 C 1.00581 0.91638 0.1434 0.0
C134 C 1.00739 0.84971 0.14358 0.0
C135 C 1.00594 0.81349 0.29609 0.0
H136 H 0.97526 0.72223 0.22267 0.0
C137 C 0.97151 0.68475 0.43003 0.0
C138 C 0.99442 0.65521 0.41706 0.0
C139 C 0.96992 0.71401 0.3914 0.0
C140 C 0.98399 0.74756 0.24344 0.0
H141 H 0.98987 0.9409 0.22673 0.0
H142 H 0.98119 0.883 0.27826 0.0
H143 H 0.97687 0.77923 0.16637 0.0
H144 H 0.0313 0.63195 0.3509 0.0
H145 H 0.0276 0.68311 0.28217 0.0
H146 H 1.0118 0.78195 0.37356 0.0
C147 C 0.99013 0.88235 0.23252 0.0
C148 C 0.9851 0.78024 0.21127 0.0
C149 C 0.99475 0.91564 0.2029 0.0
C150 C 0.01337 0.65425 0.36216 0.0
C151 C 1.01136 0.68351 0.32294 0.0
C152 C 1.00413 0.78111 0.32831 0.0
C153 C 0.99739 0.8489 0.2038 0.0
C154 C 0.99595 0.81376 0.2373 0.0
C155 C 0.99062 0.71418 0.33831 0.0
C156 C 0.99303 0.7479 0.30246 0.0
H157 H 0.01998 0.88284 0.06772 0.0
H158 H 0.01359 0.82475 0.11987 0.0
H159 H 0.0156 0.83826 0.31743 0.0
H160 H 0.9558 0.68595 0.47125 0.0
H161 H 0.95332 0.73714 0.40382 0.0
C162 C 0.15487 0.96606 0.11927 0.0
C163 C 0.1412 0.99999 0.10381 0.0
C164 C 0.19013 0.96406 0.14061 0.0
C165 C 0.2599 0.02485 0.20977 0.0
H166 H 0.31713 0.93709 0.20359 0.0
C167 C 0.39358 0.0182 0.33068 0.0
C168 C 0.39216 0.98995 0.37214 0.0
C169 C 0.36901 0.01778 0.28537 0.0
C170 C 0.30151 0.96186 0.20522 0.0
H171 H 0.15422 0.05786 0.09371 0.0
H172 H 0.21631 0.05426 0.12706 0.0
H173 H 0.26248 0.94021 0.14596 0.0
H174 H 0.36613 0.93794 0.39673 0.0
H175 H 0.32378 0.9367 0.31671 0.0
H176 H 0.29897 0.04642 0.26887 0.0
C177 C 0.19954 0.02934 0.12596 0.0
C178 C 0.27 0.9636 0.17264 0.0
C179 C 0.16405 0.03144 0.10625 0.0
C180 C 0.36778 0.95994 0.36503 0.0
C181 C 0.34365 0.95921 0.31923 0.0
C182 C 0.29165 0.02333 0.2413 0.0
C183 C 0.21267 0.99589 0.14562 0.0
C184 C 0.2483 0.9949 0.17533 0.0
C185 C 0.34306 0.98881 0.28034 0.0
C186 C 0.31243 0.99163 0.24025 0.0
H187 H 0.13759 0.94146 0.118 0.0
H188 H 0.19888 0.93782 0.15573 0.0
H189 H 0.24371 0.04911 0.21457 0.0
H190 H 0.41192 0.04178 0.33565 0.0
H191 H 0.36919 0.04086 0.25579 0.0
C192 C 0.06114 0.86559 0.90099 0.0
C193 C 0.02787 0.88376 0.89826 0.0
C194 C 0.06375 0.82912 0.88184 0.0
C195 C 1.00788 0.74606 0.84561 0.0
H196 H 0.08294 0.72957 0.7241 0.0
C197 C 0.9869 0.64874 0.65327 0.0
C198 C 0.01683 0.63171 0.62537 0.0
C199 C 0.99187 0.67143 0.70177 0.0
C200 C 0.06233 0.73317 0.75897 0.0
H201 H 0.97083 0.87731 0.87659 0.0
H202 H 0.97527 0.81411 0.84404 0.0
H203 H 0.08547 0.78553 0.78264 0.0
H204 H 0.07508 0.62339 0.62738 0.0
H205 H 0.08399 0.66302 0.7131 0.0
H206 H 0.98389 0.69444 0.82049 0.0
C207 C 0.99941 0.82784 0.86062 0.0
C208 C 0.06378 0.76536 0.79249 0.0
C209 C 0.99696 0.86424 0.87876 0.0
C210 C 0.05155 0.63591 0.64884 0.0
C211 C 0.05664 0.65889 0.69737 0.0
C212 C 1.00652 0.71383 0.81235 0.0
C213 C 0.03293 0.81001 0.86087 0.0
C214 C 0.03575 0.77281 0.83452 0.0
C215 C 0.02702 0.67789 0.72319 0.0
C216 C 0.03289 0.70768 0.76697 0.0
H217 H 0.08544 0.87993 0.91578 0.0
H218 H 0.08992 0.81602 0.88264 0.0
H219 H 0.98623 0.75076 0.87842 0.0
H220 H 0.95999 0.64626 0.63525 0.0
H221 H 0.9685 0.68592 0.71978 0.0
C222 C 0.14858 0.01685 0.8942 0.0
C223 C 0.11699 0.01607 0.86108 0.0
C224 C 0.18348 0.01945 0.86651 0.0
C225 C 0.23345 0.04715 0.72986 0.0
H226 H 0.30243 0.9732 0.76849 0.0
C227 C 0.36158 0.97519 0.60652 0.0
C228 C 0.38265 1.00582 0.58693 0.0
C229 C 0.33353 0.97905 0.64946 0.0
C230 C 0.28356 0.9942 0.75763 0.0
H231 H 0.09731 0.01894 0.77316 0.0
H232 H 0.15822 0.02412 0.72502 0.0
H233 H 0.24386 0.97662 0.8242 0.0
H234 H 0.39188 0.06424 0.59741 0.0
H235 H 0.3423 0.07122 0.67235 0.0
H236 H 0.27276 0.06424 0.66248 0.0
C237 C 0.15594 0.02249 0.77234 0.0
C238 C 0.25016 0.99629 0.78966 0.0
C239 C 0.12107 0.01931 0.79989 0.0
C240 C 0.37625 0.04018 0.61257 0.0
C241 C 0.34775 0.04419 0.6549 0.0
C242 C 0.26706 0.04542 0.69841 0.0
C243 C 0.18752 0.02198 0.80526 0.0
C244 C 0.22444 0.02229 0.77529 0.0
C245 C 0.32557 0.01377 0.67279 0.0
C246 C 0.29216 0.01846 0.71119 0.0
H247 H 0.14642 0.0143 0.94142 0.0
H248 H 0.20735 0.01922 0.89298 0.0
H249 H 0.21423 0.06761 0.71808 0.0
H250 H 0.36579 0.94853 0.58669 0.0
H251 H 0.31671 0.95519 0.66191 0.0
C252 C 0.01558 0.1482 0.89011 0.0
C253 C 0.02121 0.11488 0.86043 0.0
C254 C 0.01955 0.18155 0.86016 0.0
C255 C 0.02173 0.21768 0.70761 0.0
H256 H 0.05174 0.30907 0.7813 0.0
C257 C 0.05572 0.34648 0.57371 0.0
C258 C 0.03277 0.37598 0.58675 0.0
C259 C 0.05742 0.31724 0.61234 0.0
C260 C 0.04321 0.28369 0.76045 0.0
H261 H 0.03772 0.09038 0.77734 0.0
H262 H 0.04665 0.14828 0.72589 0.0
H263 H 0.05009 0.25209 0.83766 0.0
H264 H 0.99592 0.39918 0.65301 0.0
H265 H 0.99978 0.34805 0.72171 0.0
H266 H 0.01606 0.24915 0.63003 0.0
C267 C 0.03742 0.14892 0.77151 0.0
C268 C 0.04207 0.25104 0.79265 0.0
C269 C 0.03266 0.11563 0.80109 0.0
C270 C 0.01388 0.37692 0.6417 0.0
C271 C 0.01598 0.34767 0.6809 0.0
C272 C 0.02356 0.25004 0.67537 0.0
C273 C 0.02992 0.18236 0.80009 0.0
C274 C 0.03145 0.21747 0.76654 0.0
C275 C 0.03677 0.31703 0.66548 0.0
C276 C 0.03442 0.2833 0.70131 0.0
H277 H 1.00652 0.14842 0.93587 0.0
H278 H 0.01317 0.20651 0.88376 0.0
H279 H 1.01224 0.19286 0.6862 0.0
H280 H 0.07137 0.34531 0.53243 0.0
H281 H 0.07405 0.29414 0.59987 0.0
C282 C 0.86569 1.00048 0.877 0.0
C283 C 0.88495 0.03101 0.8993 0.0
C284 C 0.82958 1.0033 0.86068 0.0
C285 C 0.76739 0.06865 0.80407 0.0
H286 H 0.69665 0.98815 0.8272 0.0
C287 C 0.6369 0.05829 0.67087 0.0
C288 C 0.63295 0.02412 0.64309 0.0
C289 C 0.66052 0.06269 0.71729 0.0
C290 C 0.71599 1.01097 0.82055 0.0
H291 H 0.88093 0.08832 0.92347 0.0
H292 H 0.81755 0.09342 0.89365 0.0
H293 H 0.75267 0.98971 0.88157 0.0
H294 H 0.64878 0.96754 0.64297 0.0
H295 H 0.68954 0.97486 0.72393 0.0
H296 H 0.7317 0.08888 0.74067 0.0
C297 C 0.83065 0.06727 0.88918 0.0
C298 C 0.74805 1.01186 0.85171 0.0
C299 C 0.86683 0.06431 0.90639 0.0
C300 C 0.65116 0.99402 0.66434 0.0
C301 C 0.67441 0.99828 0.71083 0.0
C302 C 0.73532 0.0677 0.7727 0.0
C303 C 0.81178 0.0368 0.86571 0.0
C304 C 0.77475 0.03995 0.84213 0.0
C305 C 0.68029 0.03289 0.73675 0.0
C306 C 0.70994 0.03807 0.77891 0.0
H307 H 0.87866 0.97431 0.87143 0.0
H308 H 0.81604 0.97944 0.84203 0.0
H309 H 0.78753 0.09054 0.79549 0.0
H310 H 0.62338 0.08193 0.65457 0.0
H311 H 0.66431 0.08963 0.73658 0.0
loop_
_geom_bond_atom_site_label_1
_geom_bond_atom_site_label_2
_geom_bond_distance
_geom_bond_site_symmetry_2
_ccdc_geom_bond_type
Fe0 O1 1.886 . S
Fe0 O4 1.715 1_645 S
Fe0 O9 2.077 1_655 S
Fe0 O14 1.935 1_655 S
Fe0 O20 2.077 1_545 S
Fe0 O29 1.935 1_545 S
O1 Fe0 1.886 . S
O1 Fe3 1.714 1_554 S
Fe2 O4 1.890 . S
Fe2 O5 1.710 1_554 S
Fe2 O12 1.932 1_554 S
Fe2 O13 2.081 . S
Fe2 O19 1.932 1_554 S
Fe2 O28 2.081 . S
Fe3 O1 1.714 1_556 S
Fe3 O6 1.887 . S
Fe3 O10 1.934 1_556 S
Fe3 O15 2.078 . S
Fe3 O21 1.934 1_556 S
Fe3 O25 2.078 . S
O4 Fe0 1.715 1_465 S
O4 Fe2 1.890 . S
O5 Fe2 1.710 1_556 S
O5 Fe7 1.886 . S
O6 Fe3 1.887 . S
O6 Fe7 1.715 1_645 S
Fe7 O5 1.886 . S
Fe7 O6 1.715 1_465 S
Fe7 O11 2.077 1_565 S
Fe7 O16 1.935 1_565 S
Fe7 O18 2.077 1_455 S
Fe7 O26 1.935 1_455 S
C8 O20 1.375 1_545 S
C8 O21 1.421 . S
O9 Fe0 2.077 1_455 S
O9 C22 1.373 1_455 S
O10 Fe3 1.934 1_554 S
O10 C22 1.421 . S
O11 Fe7 2.077 1_545 S
O11 C27 1.373 1_545 S
O12 Fe2 1.932 1_556 S
O12 C27 1.421 . S
O13 Fe2 2.081 . S
O13 C17 1.381 . S
O14 Fe0 1.935 1_455 S
O14 C17 1.421 1_545 S
O15 Fe3 2.078 . S
O15 C23 1.381 . S
O16 Fe7 1.935 1_545 S
O16 C23 1.421 1_455 S
C17 O13 1.381 . S
C17 O14 1.421 1_565 S
O18 Fe7 2.077 1_655 S
O18 C30 1.375 1_655 S
O19 Fe2 1.932 1_556 S
O19 C30 1.421 . S
O20 Fe0 2.077 1_565 S
O20 C8 1.375 1_565 S
O21 Fe3 1.934 1_554 S
O21 C8 1.421 . S
C22 O9 1.373 1_655 S
C22 O10 1.421 . S
C23 O15 1.381 . S
C23 O16 1.421 1_655 S
C24 O25 1.381 . S
C24 O26 1.421 1_545 S
O25 Fe3 2.078 . S
O25 C24 1.381 . S
O26 Fe7 1.935 1_655 S
O26 C24 1.421 1_565 S
C27 O11 1.373 1_565 S
C27 O12 1.421 . S
O28 Fe2 2.081 . S
O28 C31 1.381 . S
O29 Fe0 1.935 1_565 S
O29 C31 1.421 1_655 S
C30 O18 1.375 1_455 S
C30 O19 1.421 . S
C31 O28 1.381 . S
C31 O29 1.421 1_455 S
H32 C40 0.940 . S
H33 C43 0.940 . S
H34 C45 0.940 . S
H35 C46 0.940 . S
H36 C49 0.940 . S
H37 C51 0.940 . S
N38 N39 1.190 . S
N38 C42 1.477 . S
N39 N38 1.190 . S
N39 C48 1.477 . S
C40 H32 0.940 . S
C40 C41 1.390 1_455 S
C40 C42 1.322 . S
C41 C40 1.390 1_655 S
C41 C45 1.370 . S
C42 N38 1.477 . S
C42 C40 1.322 . S
C42 C43 1.447 . S
C43 H33 0.940 . S
C43 C42 1.447 . S
C43 C44 1.373 . S
C44 C43 1.373 . S
C44 C45 1.417 1_455 S
C45 H34 0.940 . S
C45 C41 1.370 . S
C45 C44 1.417 1_655 S
C46 H35 0.940 . S
C46 C47 1.390 1_455 S
C46 C48 1.322 . S
C47 C46 1.390 1_655 S
C47 C51 1.370 . S
C48 N39 1.477 . S
C48 C46 1.322 . S
C48 C49 1.447 . S
C49 H36 0.940 . S
C49 C48 1.447 . S
C49 C50 1.373 . S
C50 C49 1.373 . S
C50 C51 1.417 1_455 S
C51 H37 0.940 . S
C51 C47 1.370 . S
C51 C50 1.417 1_655 S
H52 C60 0.940 . S
H53 C63 0.940 . S
H54 C65 0.940 . S
H55 C66 0.940 . S
H56 C69 0.940 . S
H57 C71 0.940 . S
N58 N59 1.190 . S
N58 C62 1.477 . S
N59 N58 1.190 . S
N59 C68 1.477 . S
C60 H52 0.940 . S
C60 C61 1.390 1_545 S
C60 C62 1.322 . S
C61 C60 1.390 1_565 S
C61 C65 1.370 . S
C62 N58 1.477 . S
C62 C60 1.322 . S
C62 C63 1.447 . S
C63 H53 0.940 . S
C63 C62 1.447 . S
C63 C64 1.373 . S
C64 C63 1.373 . S
C64 C65 1.417 1_545 S
C65 H54 0.940 . S
C65 C61 1.370 . S
C65 C64 1.417 1_565 S
C66 H55 0.940 . S
C66 C67 1.390 1_545 S
C66 C68 1.322 . S
C67 C66 1.390 1_565 S
C67 C71 1.370 . S
C68 N59 1.477 . S
C68 C66 1.322 . S
C68 C69 1.447 . S
C69 H56 0.940 . S
C69 C68 1.447 . S
C69 C70 1.373 . S
C70 C69 1.373 . S
C70 C71 1.417 1_545 S
C71 H57 0.940 . S
C71 C67 1.370 . S
C71 C70 1.417 1_565 S
C72 C73 1.375 . S
C72 C74 1.327 . S
C72 H97 0.950 . S
C73 C72 1.375 . S
C73 C89 1.324 1_655 S
C74 C72 1.327 . S
C74 C93 1.429 . S
C74 H98 0.950 . S
C75 C92 1.574 . S
C75 C94 1.368 1_455 S
C75 H99 0.949 . S
H76 C80 0.949 . S
C77 C78 1.349 1_455 S
C77 C79 1.327 . S
C77 H100 0.950 . S
C78 C77 1.349 1_655 S
C78 C90 1.349 . S
C79 C77 1.327 . S
C79 C95 1.429 1_455 S
C79 H101 0.950 . S
C80 H76 0.949 . S
C80 C88 1.574 . S
C80 C96 1.368 . S
H81 C89 0.950 . S
H82 C87 0.950 . S
H83 C88 0.949 . S
H84 C90 0.950 . S
H85 C91 0.950 . S
H86 C92 0.949 . S
C87 H82 0.950 . S
C87 C89 1.327 . S
C87 C93 1.429 1_455 S
C88 C80 1.574 . S
C88 H83 0.949 . S
C88 C94 1.368 . S
C89 C73 1.324 1_455 S
C89 H81 0.950 . S
C89 C87 1.327 . S
C90 C78 1.349 . S
C90 H84 0.950 . S
C90 C91 1.327 . S
C91 H85 0.950 . S
C91 C90 1.327 . S
C91 C95 1.429 . S
C92 C75 1.574 . S
C92 H86 0.949 . S
C92 C96 1.368 1_455 S
C93 C74 1.429 . S
C93 C87 1.429 1_655 S
C93 C94 1.523 . S
C94 C75 1.368 1_655 S
C94 C88 1.368 . S
C94 C93 1.523 . S
C95 C79 1.429 1_655 S
C95 C91 1.429 . S
C95 C96 1.523 . S
C96 C80 1.368 . S
C96 C92 1.368 1_655 S
C96 C95 1.523 . S
H97 C72 0.950 . S
H98 C74 0.950 . S
H99 C75 0.949 . S
H100 C77 0.950 . S
H101 C79 0.950 . S
C102 C103 1.361 . S
C102 C104 1.327 . S
C102 H127 0.950 . S
C103 C102 1.361 . S
C103 C119 1.337 1_545 S
C104 C102 1.327 . S
C104 C123 1.419 1_545 S
C104 H128 0.950 . S
C105 C122 1.574 . S
C105 C124 1.394 . S
C105 H129 0.949 . S
H106 C110 0.949 . S
C107 C108 1.349 . S
C107 C109 1.327 . S
C107 H130 0.950 . S
C108 C107 1.349 . S
C108 C120 1.349 1_565 S
C109 C107 1.327 . S
C109 C125 1.429 . S
C109 H131 0.950 . S
C110 H106 0.949 . S
C110 C118 1.574 . S
C110 C126 1.368 1_545 S
H111 C119 0.950 . S
H112 C117 0.950 . S
H113 C118 0.949 . S
H114 C120 0.950 . S
H115 C121 0.950 . S
H116 C122 0.949 . S
C117 H112 0.950 . S
C117 C119 1.327 . S
C117 C123 1.438 . S
C118 C110 1.574 . S
C118 H113 0.949 . S
C118 C124 1.343 1_545 S
C119 C103 1.337 1_565 S
C119 H111 0.950 . S
C119 C117 1.327 . S
C120 C108 1.349 1_545 S
C120 H114 0.950 . S
C120 C121 1.327 . S
C121 H115 0.950 . S
C121 C120 1.327 . S
C121 C125 1.429 1_545 S
C122 C105 1.574 . S
C122 H116 0.949 . S
C122 C126 1.368 . S
C123 C104 1.419 1_565 S
C123 C117 1.438 . S
C123 C124 1.523 . S
C124 C105 1.394 . S
C124 C118 1.343 1_565 S
C124 C123 1.523 . S
C125 C109 1.429 . S
C125 C121 1.429 1_565 S
C125 C126 1.523 . S
C126 C110 1.368 1_565 S
C126 C122 1.368 . S
C126 C125 1.523 . S
H127 C102 0.950 . S
H128 C104 0.950 . S
H129 C105 0.949 . S
H130 C107 0.950 . S
H131 C109 0.950 . S
C132 C133 1.348 1_455 S
C132 C134 1.327 . S
C132 H157 0.950 . S
C133 C132 1.348 1_655 S
C133 C149 1.349 . S
C134 C132 1.327 . S
C134 C153 1.441 . S
C134 H158 0.950 . S
C135 C152 1.574 . S
C135 C154 1.368 1_655 S
C135 H159 0.949 . S
H136 C140 0.949 . S
C137 C138 1.349 1_655 S
C137 C139 1.327 . S
C137 H160 0.950 . S
C138 C137 1.349 1_455 S
C138 C150 1.349 . S
C139 C137 1.327 . S
C139 C155 1.429 1_655 S
C139 H161 0.950 . S
C140 H136 0.949 . S
C140 C148 1.574 . S
C140 C156 1.368 . S
H141 C149 0.950 . S
H142 C147 0.950 . S
H143 C148 0.949 . S
H144 C150 0.950 . S
H145 C151 0.950 . S
H146 C152 0.949 . S
C147 H142 0.950 . S
C147 C149 1.327 . S
C147 C153 1.415 1_655 S
C148 C140 1.574 . S
C148 H143 0.949 . S
C148 C154 1.368 . S
C149 C133 1.349 . S
C149 H141 0.950 . S
C149 C147 1.327 . S
C150 C138 1.349 . S
C150 H144 0.950 . S
C150 C151 1.327 . S
C151 H145 0.950 . S
C151 C150 1.327 . S
C151 C155 1.429 . S
C152 C135 1.574 . S
C152 H146 0.949 . S
C152 C156 1.368 1_655 S
C153 C134 1.441 . S
C153 C147 1.415 1_455 S
C153 C154 1.524 . S
C154 C135 1.368 1_455 S
C154 C148 1.368 . S
C154 C153 1.524 . S
C155 C139 1.429 1_455 S
C155 C151 1.429 . S
C155 C156 1.523 . S
C156 C140 1.368 . S
C156 C152 1.368 1_455 S
C156 C155 1.523 . S
H157 C132 0.950 . S
H158 C134 0.950 . S
H159 C135 0.949 . S
H160 C137 0.950 . S
H161 C139 0.950 . S
C162 C163 1.329 1_565 S
C162 C164 1.327 . S
C162 H187 0.950 . S
C163 C162 1.329 1_545 S
C163 C179 1.369 . S
C164 C162 1.327 . S
C164 C183 1.429 1_565 S
C164 H188 0.950 . S
C165 C182 1.574 . S
C165 C184 1.368 . S
C165 H189 0.949 . S
H166 C170 0.949 . S
C167 C168 1.349 . S
C167 C169 1.327 . S
C167 H190 0.950 . S
C168 C167 1.349 . S
C168 C180 1.349 1_545 S
C169 C167 1.327 . S
C169 C185 1.429 . S
C169 H191 0.950 . S
C170 H166 0.949 . S
C170 C178 1.574 . S
C170 C186 1.368 1_565 S
H171 C179 0.950 . S
H172 C177 0.950 . S
H173 C178 0.949 . S
H174 C180 0.950 . S
H175 C181 0.950 . S
H176 C182 0.949 . S
C177 H172 0.950 . S
C177 C179 1.327 . S
C177 C183 1.429 . S
C178 C170 1.574 . S
C178 H173 0.949 . S
C178 C184 1.368 1_565 S
C179 C163 1.369 . S
C179 H171 0.950 . S
C179 C177 1.327 . S
C180 C168 1.349 1_565 S
C180 H174 0.950 . S
C180 C181 1.327 . S
C181 H175 0.950 . S
C181 C180 1.327 . S
C181 C185 1.429 1_565 S
C182 C165 1.574 . S
C182 H176 0.949 . S
C182 C186 1.368 . S
C183 C164 1.429 1_545 S
C183 C177 1.429 . S
C183 C184 1.523 . S
C184 C165 1.368 . S
C184 C178 1.368 1_545 S
C184 C183 1.523 . S
C185 C169 1.429 . S
C185 C181 1.429 1_545 S
C185 C186 1.523 . S
C186 C170 1.368 1_545 S
C186 C182 1.368 . S
C186 C185 1.523 . S
H187 C162 0.950 . S
H188 C164 0.950 . S
H189 C165 0.949 . S
H190 C167 0.950 . S
H191 C169 0.950 . S
C192 C193 1.363 . S
C192 C194 1.327 . S
C192 H217 0.950 . S
C193 C192 1.363 . S
C193 C209 1.335 1_455 S
C194 C192 1.327 . S
C194 C213 1.418 1_455 S
C194 H218 0.950 . S
C195 C212 1.574 . S
C195 C214 1.398 . S
C195 H219 0.949 . S
H196 C200 0.949 . S
C197 C198 1.349 . S
C197 C199 1.327 . S
C197 H220 0.950 . S
C198 C197 1.349 . S
C198 C210 1.349 1_655 S
C199 C197 1.327 . S
C199 C215 1.429 . S
C199 H221 0.950 . S
C200 H196 0.949 . S
C200 C208 1.574 . S
C200 C216 1.368 1_455 S
H201 C209 0.950 . S
H202 C207 0.950 . S
H203 C208 0.949 . S
H204 C210 0.950 . S
H205 C211 0.950 . S
H206 C212 0.949 . S
C207 H202 0.950 . S
C207 C209 1.327 . S
C207 C213 1.439 . S
C208 C200 1.574 . S
C208 H203 0.949 . S
C208 C214 1.339 1_455 S
C209 C193 1.335 1_655 S
C209 H201 0.950 . S
C209 C207 1.327 . S
C210 C198 1.349 1_455 S
C210 H204 0.950 . S
C210 C211 1.327 . S
C211 H205 0.950 . S
C211 C210 1.327 . S
C211 C215 1.429 1_455 S
C212 C195 1.574 . S
C212 H206 0.949 . S
C212 C216 1.368 . S
C213 C194 1.418 1_655 S
C213 C207 1.439 . S
C213 C214 1.523 . S
C214 C195 1.398 . S
C214 C208 1.339 1_655 S
C214 C213 1.523 . S
C215 C199 1.429 . S
C215 C211 1.429 1_655 S
C215 C216 1.523 . S
C216 C200 1.368 1_655 S
C216 C212 1.368 . S
C216 C215 1.523 . S
H217 C192 0.950 . S
H218 C194 0.950 . S
H219 C195 0.949 . S
H220 C197 0.950 . S
H221 C199 0.950 . S
C222 C223 1.328 1_545 S
C222 C224 1.327 . S
C222 H247 0.950 . S
C223 C222 1.328 1_565 S
C223 C239 1.370 . S
C224 C222 1.327 . S
C224 C243 1.429 1_545 S
C224 H248 0.950 . S
C225 C242 1.574 . S
C225 C244 1.368 . S
C225 H249 0.949 . S
H226 C230 0.949 . S
C227 C228 1.349 . S
C227 C229 1.327 . S
C227 H250 0.950 . S
C228 C227 1.349 . S
C228 C240 1.349 1_565 S
C229 C227 1.327 . S
C229 C245 1.429 . S
C229 H251 0.950 . S
C230 H226 0.949 . S
C230 C238 1.574 . S
C230 C246 1.368 1_545 S
H231 C239 0.950 . S
H232 C237 0.950 . S
H233 C238 0.949 . S
H234 C240 0.950 . S
H235 C241 0.950 . S
H236 C242 0.949 . S
C237 H232 0.950 . S
C237 C239 1.327 . S
C237 C243 1.429 . S
C238 C230 1.574 . S
C238 H233 0.949 . S
C238 C244 1.368 1_545 S
C239 C223 1.370 . S
C239 H231 0.950 . S
C239 C237 1.327 . S
C240 C228 1.349 1_545 S
C240 H234 0.950 . S
C240 C241 1.327 . S
C241 H235 0.950 . S
C241 C240 1.327 . S
C241 C245 1.429 1_545 S
C242 C225 1.574 . S
C242 H236 0.949 . S
C242 C246 1.368 . S
C243 C224 1.429 1_565 S
C243 C237 1.429 . S
C243 C244 1.523 . S
C244 C225 1.368 . S
C244 C238 1.368 1_565 S
C244 C243 1.523 . S
C245 C229 1.429 . S
C245 C241 1.429 1_565 S
C245 C246 1.523 . S
C246 C230 1.368 1_565 S
C246 C242 1.368 . S
C246 C245 1.523 . S
H247 C222 0.950 . S
H248 C224 0.950 . S
H249 C225 0.949 . S
H250 C227 0.950 . S
H251 C229 0.950 . S
C252 C253 1.334 1_655 S
C252 C254 1.327 . S
C252 H277 0.950 . S
C253 C252 1.334 1_455 S
C253 C269 1.363 . S
C254 C252 1.327 . S
C254 C273 1.429 1_655 S
C254 H278 0.950 . S
C255 C272 1.574 . S
C255 C274 1.368 . S
C255 H279 0.949 . S
H256 C260 0.949 . S
C257 C258 1.349 . S
C257 C259 1.327 . S
C257 H280 0.950 . S
C258 C257 1.349 . S
C258 C270 1.349 1_455 S
C259 C257 1.327 . S
C259 C275 1.429 . S
C259 H281 0.950 . S
C260 H256 0.949 . S
C260 C268 1.574 . S
C260 C276 1.368 1_655 S
H261 C269 0.950 . S
H262 C267 0.950 . S
H263 C268 0.949 . S
H264 C270 0.950 . S
H265 C271 0.950 . S
H266 C272 0.949 . S
C267 H262 0.950 . S
C267 C269 1.327 . S
C267 C273 1.429 . S
C268 C260 1.574 . S
C268 H263 0.949 . S
C268 C274 1.368 1_655 S
C269 C253 1.363 . S
C269 H261 0.950 . S
C269 C267 1.327 . S
C270 C258 1.349 1_655 S
C270 H264 0.950 . S
C270 C271 1.327 . S
C271 H265 0.950 . S
C271 C270 1.327 . S
C271 C275 1.429 1_655 S
C272 C255 1.574 . S
C272 H266 0.949 . S
C272 C276 1.368 . S
C273 C254 1.429 1_455 S
C273 C267 1.429 . S
C273 C274 1.523 . S
C274 C255 1.368 . S
C274 C268 1.368 1_455 S
C274 C273 1.523 . S
C275 C259 1.429 . S
C275 C271 1.429 1_455 S
C275 C276 1.523 . S
C276 C260 1.368 1_455 S
C276 C272 1.368 . S
C276 C275 1.523 . S
H277 C252 0.950 . S
H278 C254 0.950 . S
H279 C255 0.949 . S
H280 C257 0.950 . S
H281 C259 0.950 . S
C282 C283 1.350 . S
C282 C284 1.327 . S
C282 H307 0.950 . S
C283 C282 1.350 . S
C283 C299 1.348 1_565 S
C284 C282 1.327 . S
C284 C303 1.409 1_565 S
C284 H308 0.950 . S
C285 C302 1.574 . S
C285 C304 1.368 . S
C285 H309 0.949 . S
H286 C290 0.949 . S
C287 C288 1.349 . S
C287 C289 1.327 . S
C287 H310 0.950 . S
C288 C287 1.349 . S
C288 C300 1.349 1_545 S
C289 C287 1.327 . S
C289 C305 1.429 . S
C289 H311 0.950 . S
C290 H286 0.949 . S
C290 C298 1.574 . S
C290 C306 1.368 1_565 S
H291 C299 0.950 . S
H292 C297 0.950 . S
H293 C298 0.949 . S
H294 C300 0.950 . S
H295 C301 0.950 . S
H296 C302 0.949 . S
C297 H292 0.950 . S
C297 C299 1.327 . S
C297 C303 1.447 . S
C298 C290 1.574 . S
C298 H293 0.949 . S
C298 C304 1.368 1_565 S
C299 C283 1.348 1_545 S
C299 H291 0.950 . S
C299 C297 1.327 . S
C300 C288 1.349 1_565 S
C300 H294 0.950 . S
C300 C301 1.327 . S
C301 H295 0.950 . S
C301 C300 1.327 . S
C301 C305 1.429 1_565 S
C302 C285 1.574 . S
C302 H296 0.949 . S
C302 C306 1.368 . S
C303 C284 1.409 1_545 S
C303 C297 1.447 . S
C303 C304 1.524 . S
C304 C285 1.368 . S
C304 C298 1.368 1_545 S
C304 C303 1.524 . S
C305 C289 1.429 . S
C305 C301 1.429 1_545 S
C305 C306 1.523 . S
C306 C290 1.368 1_545 S
C306 C302 1.368 . S
C306 C305 1.523 . S
H307 C282 0.950 . S
H308 C284 0.950 . S
H309 C285 0.949 . S
H310 C287 0.950 . S
H311 C289 0.950 . S
C73 C22 1.600 . S
C78 C41 1.558 . S
C103 C8 1.602 . S
C108 C61 1.563 . S
C133 C31 1.564 1_655 S
C138 C50 1.577 . S
C163 C17 1.563 1_545 S
C168 C70 1.571 . S
C193 C30 1.602 . S
C198 C47 1.566 . S
C223 C27 1.600 . S
C228 C67 1.562 . S
C258 C44 1.575 . S
C253 C23 1.561 1_455 S
C283 C24 1.564 1_565 S
C288 C64 1.580 . S
