# Generated by pormake.
# Topology ssc, (4,4)-cn, num edge types: 1
# Building blocks:
#     Node 0, Type 0, BuildingBlock: GALJAG_clean_sbu_0, # of connection points: 4
#     Node 1, Type 0, BuildingBlock: GALJAG_clean_sbu_0, # of connection points: 4
#     Node 2, Type 0, BuildingBlock: GALJAG_clean_sbu_0, # of connection points: 4
#     Node 3, Type 0, BuildingBlock: GALJAG_clean_sbu_0, # of connection points: 4
#     Node 4, Type 0, BuildingBlock: GALJAG_clean_sbu_0, # of connection points: 4
#     Node 5, Type 0, BuildingBlock: GALJAG_clean_sbu_0, # of connection points: 4
#     Node 6, Type 0, BuildingBlock: GALJAG_clean_sbu_0, # of connection points: 4
#     Node 7, Type 0, BuildingBlock: GALJAG_clean_sbu_0, # of connection points: 4
#     Node 8, Type 0, BuildingBlock: GALJAG_clean_sbu_0, # of connection points: 4
#     Node 9, Type 0, BuildingBlock: GALJAG_clean_sbu_0, # of connection points: 4
#     Node 10, Type 0, BuildingBlock: GALJAG_clean_sbu_0, # of connection points: 4
#     Node 11, Type 0, BuildingBlock: GALJAG_clean_sbu_0, # of connection points: 4
#     Node 12, Type 1, BuildingBlock: GIZVER_clean_linker_0, # of connection points: 4
#     Node 13, Type 1, BuildingBlock: GIZVER_clean_linker_0, # of connection points: 4
#     Node 14, Type 1, BuildingBlock: GIZVER_clean_linker_0, # of connection points: 4
#     Node 15, Type 1, BuildingBlock: GIZVER_clean_linker_0, # of connection points: 4
#     Node 16, Type 1, BuildingBlock: GIZVER_clean_linker_0, # of connection points: 4
#     Node 17, Type 1, BuildingBlock: GIZVER_clean_linker_0, # of connection points: 4
#     Node 18, Type 1, BuildingBlock: GIZVER_clean_linker_0, # of connection points: 4
#     Node 19, Type 1, BuildingBlock: GIZVER_clean_linker_0, # of connection points: 4
#     Node 20, Type 1, BuildingBlock: GIZVER_clean_linker_0, # of connection points: 4
#     Node 21, Type 1, BuildingBlock: GIZVER_clean_linker_0, # of connection points: 4
#     Node 22, Type 1, BuildingBlock: GIZVER_clean_linker_0, # of connection points: 4
#     Node 23, Type 1, BuildingBlock: GIZVER_clean_linker_0, # of connection points: 4
#     Edge 24, Type (0, 1), BuildingBlock: ZUJKAS_clean_linker_0, # of connection points: 2
#     Edge 25, Type (0, 1), BuildingBlock: ZUJKAS_clean_linker_0, # of connection points: 2
#     Edge 26, Type (0, 1), BuildingBlock: ZUJKAS_clean_linker_0, # of connection points: 2
#     Edge 27, Type (0, 1), BuildingBlock: ZUJKAS_clean_linker_0, # of connection points: 2
#     Edge 28, Type (0, 1), BuildingBlock: ZUJKAS_clean_linker_0, # of connection points: 2
#     Edge 29, Type (0, 1), BuildingBlock: ZUJKAS_clean_linker_0, # of connection points: 2
#     Edge 30, Type (0, 1), BuildingBlock: ZUJKAS_clean_linker_0, # of connection points: 2
#     Edge 31, Type (0, 1), BuildingBlock: ZUJKAS_clean_linker_0, # of connection points: 2
#     Edge 32, Type (0, 1), BuildingBlock: ZUJKAS_clean_linker_0, # of connection points: 2
#     Edge 33, Type (0, 1), BuildingBlock: ZUJKAS_clean_linker_0, # of connection points: 2
#     Edge 34, Type (0, 1), BuildingBlock: ZUJKAS_clean_linker_0, # of connection points: 2
#     Edge 35, Type (0, 1), BuildingBlock: ZUJKAS_clean_linker_0, # of connection points: 2
#     Edge 36, Type (0, 1), BuildingBlock: ZUJKAS_clean_linker_0, # of connection points: 2
#     Edge 37, Type (0, 1), BuildingBlock: ZUJKAS_clean_linker_0, # of connection points: 2
#     Edge 38, Type (0, 1), BuildingBlock: ZUJKAS_clean_linker_0, # of connection points: 2
#     Edge 39, Type (0, 1), BuildingBlock: ZUJKAS_clean_linker_0, # of connection points: 2
#     Edge 40, Type (0, 1), BuildingBlock: ZUJKAS_clean_linker_0, # of connection points: 2
#     Edge 41, Type (0, 1), BuildingBlock: ZUJKAS_clean_linker_0, # of connection points: 2
#     Edge 42, Type (0, 1), BuildingBlock: ZUJKAS_clean_linker_0, # of connection points: 2
#     Edge 43, Type (0, 1), BuildingBlock: ZUJKAS_clean_linker_0, # of connection points: 2
#     Edge 44, Type (0, 1), BuildingBlock: ZUJKAS_clean_linker_0, # of connection points: 2
#     Edge 45, Type (0, 1), BuildingBlock: ZUJKAS_clean_linker_0, # of connection points: 2
#     Edge 46, Type (0, 1), BuildingBlock: ZUJKAS_clean_linker_0, # of connection points: 2
#     Edge 47, Type (0, 1), BuildingBlock: ZUJKAS_clean_linker_0, # of connection points: 2
#     Edge 48, Type (0, 1), BuildingBlock: ZUJKAS_clean_linker_0, # of connection points: 2
#     Edge 49, Type (0, 1), BuildingBlock: ZUJKAS_clean_linker_0, # of connection points: 2
#     Edge 50, Type (0, 1), BuildingBlock: ZUJKAS_clean_linker_0, # of connection points: 2
#     Edge 51, Type (0, 1), BuildingBlock: ZUJKAS_clean_linker_0, # of connection points: 2
#     Edge 52, Type (0, 1), BuildingBlock: ZUJKAS_clean_linker_0, # of connection points: 2
#     Edge 53, Type (0, 1), BuildingBlock: ZUJKAS_clean_linker_0, # of connection points: 2
#     Edge 54, Type (0, 1), BuildingBlock: ZUJKAS_clean_linker_0, # of connection points: 2
#     Edge 55, Type (0, 1), BuildingBlock: ZUJKAS_clean_linker_0, # of connection points: 2
#     Edge 56, Type (0, 1), BuildingBlock: ZUJKAS_clean_linker_0, # of connection points: 2
#     Edge 57, Type (0, 1), BuildingBlock: ZUJKAS_clean_linker_0, # of connection points: 2
#     Edge 58, Type (0, 1), BuildingBlock: ZUJKAS_clean_linker_0, # of connection points: 2
#     Edge 59, Type (0, 1), BuildingBlock: ZUJKAS_clean_linker_0, # of connection points: 2
#     Edge 60, Type (0, 1), BuildingBlock: ZUJKAS_clean_linker_0, # of connection points: 2
#     Edge 61, Type (0, 1), BuildingBlock: ZUJKAS_clean_linker_0, # of connection points: 2
#     Edge 62, Type (0, 1), BuildingBlock: ZUJKAS_clean_linker_0, # of connection points: 2
#     Edge 63, Type (0, 1), BuildingBlock: ZUJKAS_clean_linker_0, # of connection points: 2
#     Edge 64, Type (0, 1), BuildingBlock: ZUJKAS_clean_linker_0, # of connection points: 2
#     Edge 65, Type (0, 1), BuildingBlock: ZUJKAS_clean_linker_0, # of connection points: 2
#     Edge 66, Type (0, 1), BuildingBlock: ZUJKAS_clean_linker_0, # of connection points: 2
#     Edge 67, Type (0, 1), BuildingBlock: ZUJKAS_clean_linker_0, # of connection points: 2
#     Edge 68, Type (0, 1), BuildingBlock: ZUJKAS_clean_linker_0, # of connection points: 2
#     Edge 69, Type (0, 1), BuildingBlock: ZUJKAS_clean_linker_0, # of connection points: 2
#     Edge 70, Type (0, 1), BuildingBlock: ZUJKAS_clean_linker_0, # of connection points: 2
#     Edge 71, Type (0, 1), BuildingBlock: ZUJKAS_clean_linker_0, # of connection points: 2
# Relax obj value: 0.069
# Max RMSD: 0.288
# Mean RMSD: 0.243
data_MOF--net-ssc--node1-GALJAG_clean_sbu_0--node2-GIZVER_clean_linker_0--edge1-ZUJKAS_clean_linker_0
_symmetry_space_group_name_H-M    P1
_symmetry_Int_Tables_number       1
_symmetry_cell_setting            triclinic
loop_
_symmetry_equiv_pos_as_xyz
'x, y, z'
_cell_length_a     40.615667
_cell_length_b     40.651456
_cell_length_c     40.598799
_cell_angle_alpha  90.125126
_cell_angle_beta   90.088525
_cell_angle_gamma 90.46781
loop_
_atom_site_label
_atom_site_type_symbol
_atom_site_fract_x
_atom_site_fract_y
_atom_site_fract_z
_atom_type_partial_charge
In0 In 0.01207 0.25309 0.14647 0.0
O1 O 0.04967 0.22818 0.18073 0.0
O2 O 0.05594 0.27883 0.17089 0.0
C3 C 0.01018 0.19718 0.10983 0.0
C4 C 0.96129 0.26256 0.18843 0.0
C5 C 0.00687 0.2998 0.09957 0.0
O6 O 0.02618 0.22244 0.1013 0.0
O7 O 0.99537 0.19996 0.13694 0.0
O8 O 0.98243 0.29062 0.11648 0.0
O9 O 0.03336 0.28525 0.10615 0.0
C10 C 0.06645 0.25389 0.18571 0.0
O11 O 0.9846 0.28304 0.18548 0.0
O12 O 0.96338 0.23768 0.16994 0.0
In13 In 0.0223 0.74681 0.36674 0.0
O14 O 0.99943 0.69973 0.38746 0.0
O15 O 0.04697 0.71391 0.40455 0.0
C16 C 0.97002 0.74562 0.32535 0.0
C17 C 0.02082 0.79538 0.41269 0.0
C18 C 0.07355 0.74729 0.32412 0.0
O19 O 0.98577 0.72015 0.33296 0.0
O20 O 0.98061 0.77179 0.33857 0.0
O21 O 0.05247 0.76985 0.32498 0.0
O22 O 0.06886 0.72467 0.34477 0.0
C23 C 0.02356 0.69333 0.40588 0.0
O24 O 0.04484 0.79152 0.3935 0.0
O25 O 0.99742 0.7753 0.40822 0.0
In26 In 0.52776 0.70772 0.63744 0.0
O27 O 0.55163 0.6739 0.59878 0.0
O28 O 0.50344 0.66226 0.61518 0.0
C29 C 0.58027 0.71926 0.67688 0.0
C30 C 0.51749 0.75856 0.59557 0.0
C31 C 0.48248 0.69999 0.68547 0.0
O32 O 0.57791 0.69354 0.65951 0.0
O33 O 0.55668 0.73899 0.6737 0.0
O34 O 0.48185 0.72378 0.66557 0.0
O35 O 0.5058 0.68015 0.68101 0.0
C36 C 0.52708 0.65479 0.59666 0.0
O37 O 0.49476 0.73954 0.60502 0.0
O38 O 0.54556 0.75174 0.60685 0.0
In39 In 0.51777 0.29161 0.86122 0.0
O40 O 0.54386 0.32232 0.82184 0.0
O41 O 0.56688 0.2784 0.83778 0.0
C42 C 0.5178 0.34266 0.90411 0.0
C43 C 0.47003 0.27919 0.81641 0.0
C44 C 0.51273 0.24049 0.90372 0.0
O45 O 0.54282 0.32514 0.89944 0.0
O46 O 0.49322 0.33488 0.88669 0.0
O47 O 0.48848 0.25768 0.89529 0.0
O48 O 0.53961 0.24884 0.89051 0.0
C49 C 0.56787 0.30304 0.81893 0.0
O50 O 0.49405 0.26018 0.82075 0.0
O51 O 0.47006 0.30432 0.83474 0.0
In52 In 0.14217 0.01599 0.20518 0.0
O53 O 0.17658 0.98249 0.23376 0.0
O54 O 0.17481 0.97689 0.18175 0.0
C55 C 0.09904 0.01352 0.25575 0.0
C56 C 0.18437 0.06792 0.20842 0.0
C57 C 0.09963 0.01148 0.15386 0.0
O58 O 0.11706 0.98959 0.24808 0.0
O59 O 0.10254 0.03859 0.23774 0.0
O60 O 0.11275 0.03842 0.16243 0.0
O61 O 0.10848 0.98707 0.17068 0.0
C62 C 0.18713 0.96757 0.20871 0.0
O63 O 0.18194 0.04996 0.18314 0.0
O64 O 0.1648 0.06037 0.23128 0.0
In65 In 0.20707 0.8788 0.56016 0.0
O66 O 0.18625 0.83457 0.53186 0.0
O67 O 0.23585 0.84856 0.52272 0.0
C68 C 0.15101 0.91308 0.5511 0.0
C69 C 0.21129 0.84213 0.61542 0.0
C70 C 0.25287 0.92752 0.55494 0.0
O71 O 0.16428 0.89645 0.52859 0.0
O72 O 0.16599 0.91245 0.57837 0.0
O73 O 0.24459 0.91549 0.58235 0.0
O74 O 0.23802 0.91514 0.53055 0.0
C75 C 0.21246 0.82894 0.51631 0.0
O76 O 0.23585 0.84843 0.59748 0.0
O77 O 0.1848 0.85514 0.60602 0.0
In78 In 0.37853 1.00028 0.68526 0.0
O79 O 0.34421 0.9574 0.67005 0.0
O80 O 0.34119 0.97582 0.71895 0.0
C81 C 0.42064 0.00271 0.63362 0.0
C82 C 0.33989 0.05311 0.67696 0.0
C83 C 0.42264 0.99474 0.73497 0.0
O84 O 0.40965 0.97579 0.64468 0.0
O85 O 0.40967 0.02782 0.6479 0.0
O86 O 0.40738 0.02106 0.72935 0.0
O87 O 0.41531 0.97127 0.71588 0.0
C88 C 0.33036 0.95561 0.69786 0.0
O89 O 0.36117 0.05167 0.69964 0.0
O90 O 0.33816 0.02795 0.65871 0.0
In91 In 0.23982 0.12076 0.07342 0.0
O92 O 0.21327 0.14835 0.11554 0.0
O93 O 0.26535 0.14695 0.1156 0.0
C94 C 0.19334 0.07226 0.07254 0.0
C95 C 0.23541 0.16471 0.0238 0.0
C96 C 0.2979 0.09056 0.06283 0.0
O97 O 0.22254 0.0679 0.08196 0.0
O98 O 0.18701 0.10153 0.06455 0.0
O99 O 0.28545 0.11004 0.04222 0.0
O100 O 0.28096 0.08608 0.08849 0.0
C101 C 0.23972 0.15772 0.12907 0.0
O102 O 0.24754 0.17155 0.05157 0.0
O103 O 0.22512 0.13544 0.02083 0.0
In104 In 0.7468 0.35264 0.05858 0.0
O105 O 0.76137 0.32113 0.10341 0.0
O106 O 0.71285 0.3396 0.10104 0.0
C107 C 0.79838 0.39464 0.05183 0.0
C108 C 0.75266 0.29975 0.01853 0.0
C109 C 0.69818 0.39494 0.04373 0.0
O110 O 0.7876 0.38612 0.07972 0.0
O111 O 0.78361 0.38153 0.02778 0.0
O112 O 0.70528 0.37105 0.02519 0.0
O113 O 0.71565 0.39738 0.06937 0.0
C114 C 0.73334 0.32259 0.11664 0.0
O115 O 0.72525 0.31278 0.02472 0.0
O116 O 0.77698 0.31343 0.03245 0.0
In117 In 0.86355 0.51433 0.19059 0.0
O118 O 0.82984 0.47225 0.17264 0.0
O119 O 0.82537 0.48802 0.22231 0.0
C120 C 0.90599 0.50573 0.13989 0.0
C121 C 0.82704 0.56922 0.18286 0.0
C122 C 0.90651 0.51554 0.24186 0.0
O123 O 0.89466 0.48195 0.15632 0.0
O124 O 0.89567 0.53347 0.14877 0.0
O125 O 0.90135 0.54012 0.2238 0.0
O126 O 0.89019 0.49018 0.23401 0.0
C127 C 0.81572 0.46844 0.20006 0.0
O128 O 0.84433 0.56418 0.20812 0.0
O129 O 0.82754 0.54629 0.16188 0.0
In130 In 0.70459 0.63661 0.54536 0.0
O131 O 0.6867 0.66816 0.58908 0.0
O132 O 0.73613 0.65205 0.58909 0.0
C133 C 0.65568 0.59138 0.53682 0.0
C134 C 0.69671 0.68406 0.49956 0.0
C135 C 0.76133 0.60416 0.53548 0.0
O136 O 0.66648 0.5989 0.56505 0.0
O137 O 0.66881 0.60722 0.51365 0.0
O138 O 0.75766 0.63397 0.52784 0.0
O139 O 0.73638 0.59066 0.54842 0.0
C140 C 0.71438 0.66872 0.6033 0.0
O141 O 0.71435 0.65913 0.49497 0.0
O142 O 0.68261 0.68499 0.52723 0.0
In143 In 0.64531 0.50986 0.71524 0.0
O144 O 0.68144 0.46938 0.72961 0.0
O145 O 0.68384 0.48791 0.68086 0.0
C146 C 0.6064 0.49489 0.76715 0.0
C147 C 0.68083 0.56557 0.72734 0.0
C148 C 0.59787 0.50706 0.66818 0.0
O149 O 0.62554 0.47433 0.75415 0.0
O150 O 0.60725 0.52318 0.75429 0.0
O151 O 0.60938 0.53401 0.67872 0.0
O152 O 0.61076 0.48197 0.68075 0.0
C153 C 0.69519 0.46816 0.70184 0.0
O154 O 0.67329 0.55635 0.69861 0.0
O155 O 0.67007 0.54705 0.74983 0.0
H156 H 0.08392 0.29178 0.56725 0.0
H157 H 0.00817 0.23502 0.51867 0.0
H158 H 0.07193 0.1887 0.58835 0.0
H159 H 0.0606 0.30435 0.50845 0.0
H160 H 0.02063 0.28799 0.49868 0.0
H161 H 0.99729 0.29541 0.57549 0.0
H162 H 0.97301 0.39799 0.57312 0.0
H163 H 0.03601 0.35845 0.49903 0.0
C164 C 0.07074 0.26869 0.56417 0.0
C165 C 0.08041 0.24074 0.58198 0.0
C166 C 0.04472 0.2667 0.54129 0.0
C167 C 0.02782 0.23673 0.5367 0.0
C168 C 0.03712 0.20863 0.55419 0.0
C169 C 0.06325 0.21098 0.57674 0.0
C170 C 0.037 0.29558 0.51937 0.0
C171 C 0.02098 0.32408 0.53695 0.0
C172 C 0.00067 0.31963 0.56493 0.0
C173 C 0.98386 0.34644 0.57875 0.0
C174 C 0.98739 0.37748 0.56411 0.0
C175 C 0.00592 0.38185 0.53548 0.0
C176 C 0.02271 0.35523 0.52195 0.0
H177 H 0.05773 0.74289 0.83492 0.0
H178 H 0.03091 0.76555 0.93492 0.0
H179 H 0.07532 0.83983 0.87453 0.0
H180 H 0.04449 0.69922 0.87019 0.0
H181 H 0.05113 0.70749 0.91287 0.0
H182 H 0.98024 0.7323 0.85674 0.0
H183 H 0.91255 0.66677 0.90559 0.0
H184 H 0.01315 0.67127 0.93689 0.0
C185 C 0.05534 0.76071 0.85463 0.0
C186 C 0.06777 0.79286 0.85038 0.0
C187 C 0.04184 0.75062 0.88497 0.0
C188 C 0.03972 0.77345 0.91099 0.0
C189 C 0.05091 0.80591 0.90669 0.0
C190 C 0.06465 0.81538 0.87651 0.0
C191 C 0.0358 0.71437 0.89125 0.0
C192 C 1.00024 0.70499 0.89779 0.0
C193 C 0.97484 0.71507 0.87636 0.0
C194 C 0.9428 0.70191 0.87951 0.0
C195 C 0.93673 0.67813 0.90383 0.0
C196 C 0.96188 0.66677 0.92438 0.0
C197 C 0.9934 0.68079 0.92176 0.0
H198 H 0.49867 0.69805 0.02786 0.0
H199 H 0.53985 0.76587 0.09959 0.0
H200 H 0.58666 0.67377 0.08087 0.0
H201 H 0.48519 0.75993 0.02778 0.0
H202 H 0.4639 0.74408 0.06201 0.0
H203 H 0.51359 0.81371 0.03033 0.0
H204 H 0.48944 0.87732 0.1109 0.0
H205 H 0.45814 0.77591 0.11206 0.0
C206 C 0.51732 0.70441 0.04598 0.0
C207 C 0.54314 0.68257 0.052 0.0
C208 C 0.51571 0.73475 0.06276 0.0
C209 C 0.54034 0.74284 0.08618 0.0
C210 C 0.56568 0.72063 0.09289 0.0
C211 C 0.56687 0.69079 0.07572 0.0
C212 C 0.48705 0.75705 0.05497 0.0
C213 C 0.48848 0.7905 0.07113 0.0
C214 C 0.50369 0.81705 0.05488 0.0
C215 C 0.50365 0.84848 0.0691 0.0
C216 C 0.48976 0.85279 0.10037 0.0
C217 C 0.4714 0.82748 0.11532 0.0
C218 C 0.47218 0.79587 0.1012 0.0
H219 H 0.56592 0.22901 0.33381 0.0
H220 H 0.53721 0.25488 0.43273 0.0
H221 H 0.58008 0.32779 0.36955 0.0
H222 H 0.55282 0.18626 0.37104 0.0
H223 H 0.55847 0.19615 0.41349 0.0
H224 H 0.49221 0.2073 0.34827 0.0
H225 H 0.41914 0.1586 0.40787 0.0
H226 H 0.51682 0.17219 0.44539 0.0
C227 C 0.56286 0.24741 0.35289 0.0
C228 C 0.57366 0.27989 0.34727 0.0
C229 C 0.54945 0.23818 0.38362 0.0
C230 C 0.54629 0.262 0.40867 0.0
C231 C 0.55729 0.29436 0.4034 0.0
C232 C 0.57055 0.30302 0.37278 0.0
C233 C 0.54363 0.2022 0.39129 0.0
C234 C 0.50784 0.19355 0.39727 0.0
C235 C 0.48463 0.19675 0.37159 0.0
C236 C 0.45263 0.18369 0.37501 0.0
C237 C 0.4437 0.16885 0.4049 0.0
C238 C 0.46669 0.1643 0.43006 0.0
C239 C 0.49868 0.17691 0.42641 0.0
H240 H 0.50848 0.00273 0.19169 0.0
H241 H 0.57746 0.0275 0.26927 0.0
H242 H 0.54565 0.10136 0.20147 0.0
H243 H 0.51305 0.96717 0.24299 0.0
H244 H 0.55123 0.96052 0.22371 0.0
H245 H 0.51145 0.98361 0.30388 0.0
H246 H 0.58903 0.9408 0.36098 0.0
H247 H 0.59845 0.94682 0.25603 0.0
C248 C 0.52303 0.02081 0.20512 0.0
C249 C 0.52433 0.05334 0.19382 0.0
C250 C 0.54111 0.0112 0.23308 0.0
C251 C 0.56175 0.03453 0.24895 0.0
C252 C 0.56271 0.06723 0.238 0.0
C253 C 0.54349 0.07648 0.21094 0.0
C254 C 0.53924 0.97541 0.24326 0.0
C255 C 0.5541 0.96775 0.27644 0.0
C256 C 0.53599 0.97342 0.30544 0.0
C257 C 0.54881 0.96425 0.33619 0.0
C258 C 0.58012 0.95009 0.3376 0.0
C259 C 0.59804 0.94329 0.30895 0.0
C260 C 0.58512 0.95266 0.27837 0.0
H261 H 0.22548 0.35928 0.56403 0.0
H262 H 0.25967 0.45348 0.52861 0.0
H263 H 0.32907 0.38106 0.56045 0.0
H264 H 0.18622 0.40091 0.55312 0.0
H265 H 0.20099 0.44258 0.55108 0.0
H266 H 0.21964 0.37603 0.48841 0.0
H267 H 0.1575 0.41954 0.415 0.0
H268 H 0.1593 0.45965 0.51264 0.0
C269 C 0.24549 0.37568 0.5572 0.0
C270 C 0.27811 0.36604 0.56274 0.0
C271 C 0.23864 0.40691 0.54405 0.0
C272 C 0.26479 0.42879 0.53713 0.0
C273 C 0.29742 0.41921 0.54265 0.0
C274 C 0.30388 0.38768 0.55467 0.0
C275 C 0.20336 0.41772 0.53986 0.0
C276 C 0.19261 0.41912 0.50418 0.0
C277 C 0.20277 0.3952 0.48113 0.0
C278 C 0.19087 0.39572 0.44864 0.0
C279 C 0.16799 0.41974 0.43959 0.0
C280 C 0.1565 0.44257 0.46255 0.0
C281 C 0.16883 0.44234 0.49475 0.0
H282 H 0.96208 0.99434 0.71947 0.0
H283 H 0.86715 0.96663 0.75863 0.0
H284 H 0.91529 0.9046 0.68814 0.0
H285 H 0.93888 0.0282 0.76032 0.0
H286 H 0.89833 0.03242 0.74493 0.0
H287 H 0.94667 0.99575 0.81517 0.0
H288 H 0.87408 0.02487 0.88607 0.0
H289 H 0.85538 0.03841 0.78309 0.0
C290 C 0.942 0.97672 0.72148 0.0
C291 C 0.94221 0.94835 0.70176 0.0
C292 C 0.91545 0.98318 0.7428 0.0
C293 C 0.88853 0.96101 0.74379 0.0
C294 C 0.88836 0.93264 0.72392 0.0
C295 C 0.91563 0.92625 0.70378 0.0
C296 C 0.91417 0.01615 0.76007 0.0
C297 C 0.90137 0.01474 0.795 0.0
C298 C 0.92209 0.00432 0.82074 0.0
C299 C 0.91211 0.00746 0.85374 0.0
C300 C 0.88089 0.02027 0.86065 0.0
C301 C 0.86052 0.03197 0.83545 0.0
C302 C 0.8706 0.02851 0.8026 0.0
H303 H 0.29281 0.60916 0.06921 0.0
H304 H 0.23962 0.52898 0.02357 0.0
H305 H 0.18737 0.61121 0.06419 0.0
H306 H 0.32207 0.56141 0.05313 0.0
H307 H 0.29849 0.52436 0.04707 0.0
H308 H 0.29795 0.60057 0.99283 0.0
H309 H 0.34925 0.55267 0.91465 0.0
H310 H 0.33296 0.50146 0.00582 0.0
C311 C 0.26982 0.59829 0.06082 0.0
C312 C 0.24012 0.61415 0.06768 0.0
C313 C 0.26981 0.56795 0.04408 0.0
C314 C 0.23971 0.55316 0.0349 0.0
C315 C 0.20983 0.56847 0.04252 0.0
C316 C 0.21039 0.59948 0.05779 0.0
C317 C 0.30175 0.55015 0.03845 0.0
C318 C 0.31202 0.55006 0.00269 0.0
C319 C 0.30906 0.57848 0.98304 0.0
C320 C 0.32168 0.57879 0.951 0.0
C321 C 0.33792 0.55116 0.93879 0.0
C322 C 0.34254 0.5232 0.95836 0.0
C323 C 0.3291 0.5227 0.99022 0.0
H324 H 0.74332 0.82804 0.05395 0.0
H325 H 0.777 0.92189 0.01754 0.0
H326 H 0.84227 0.86116 0.07355 0.0
H327 H 0.70398 0.86598 0.03403 0.0
H328 H 0.71624 0.9083 0.03102 0.0
H329 H 0.74614 0.83659 0.97884 0.0
H330 H 0.6939 0.86945 0.89335 0.0
H331 H 0.6826 0.92096 0.98495 0.0
C332 C 0.76291 0.84603 0.05096 0.0
C333 C 0.79386 0.84041 0.06529 0.0
C334 C 0.7567 0.87533 0.03364 0.0
C335 C 0.78199 0.89892 0.03003 0.0
C336 C 0.8129 0.89382 0.04451 0.0
C337 C 0.81862 0.86449 0.06168 0.0
C338 C 0.72212 0.883 0.02245 0.0
C339 C 0.71751 0.88101 0.98553 0.0
C340 C 0.73075 0.85479 0.96709 0.0
C341 C 0.72281 0.85123 0.93366 0.0
C342 C 0.70097 0.8732 0.91889 0.0
C343 C 0.68587 0.898 0.93728 0.0
C344 C 0.69487 0.90236 0.97038 0.0
H345 H 0.40533 0.52947 0.19563 0.0
H346 H 0.32256 0.48945 0.24907 0.0
H347 H 0.37005 0.43236 0.17359 0.0
H348 H 0.38195 0.56184 0.23746 0.0
H349 H 0.33926 0.5578 0.22862 0.0
H350 H 0.39891 0.52019 0.28988 0.0
H351 H 0.34381 0.55725 0.37244 0.0
H352 H 0.30815 0.57175 0.27438 0.0
C353 C 0.38879 0.50914 0.20107 0.0
C354 C 0.39036 0.4805 0.182 0.0
C355 C 0.36455 0.51253 0.22555 0.0
C356 C 0.34209 0.4865 0.23118 0.0
C357 C 0.34381 0.45739 0.21247 0.0
C358 C 0.36826 0.45467 0.18816 0.0
C359 C 0.36006 0.54575 0.24159 0.0
C360 C 0.35345 0.54452 0.27818 0.0
C361 C 0.37721 0.53183 0.2999 0.0
C362 C 0.37382 0.53577 0.33423 0.0
C363 C 0.34583 0.55199 0.34635 0.0
C364 C 0.32204 0.56489 0.32502 0.0
C365 C 0.3259 0.56084 0.29098 0.0
H366 H 0.79015 0.18417 0.56741 0.0
H367 H 0.75017 0.09262 0.53102 0.0
H368 H 0.68548 0.17054 0.56049 0.0
H369 H 0.82531 0.13772 0.56221 0.0
H370 H 0.80717 0.0979 0.55586 0.0
H371 H 0.81005 0.17384 0.50076 0.0
H372 H 0.86794 0.12482 0.4276 0.0
H373 H 0.84233 0.07408 0.51657 0.0
C374 C 0.76914 0.16933 0.55989 0.0
C375 C 0.73726 0.1815 0.56438 0.0
C376 C 0.77398 0.13753 0.54718 0.0
C377 C 0.74651 0.11774 0.53914 0.0
C378 C 0.71444 0.12941 0.54426 0.0
C379 C 0.71015 0.16167 0.55582 0.0
C380 C 0.80826 0.12343 0.54606 0.0
C381 C 0.82257 0.12323 0.51174 0.0
C382 C 0.82206 0.1518 0.49202 0.0
C383 C 0.83857 0.15242 0.46171 0.0
C384 C 0.85495 0.12421 0.45092 0.0
C385 C 0.85647 0.09593 0.47045 0.0
C386 C 0.84045 0.09561 0.50099 0.0
H387 H 0.07006 0.47263 0.69202 0.0
H388 H 0.14339 0.51515 0.75626 0.0
H389 H 0.08964 0.57667 0.68988 0.0
H390 H 0.0991 0.43725 0.72673 0.0
H391 H 0.14084 0.45114 0.72506 0.0
H392 H 0.07002 0.47047 0.78339 0.0
H393 H 0.12012 0.42884 0.86619 0.0
H394 H 0.16555 0.42676 0.77082 0.0
C395 C 0.08276 0.49414 0.70165 0.0
C396 C 0.07628 0.52521 0.68822 0.0
C397 C 0.10677 0.4903 0.72628 0.0
C398 C 0.12404 0.51808 0.73811 0.0
C399 C 0.11695 0.5495 0.72585 0.0
C400 C 0.09314 0.55274 0.701 0.0
C401 C 0.11654 0.45609 0.73657 0.0
C402 C 0.11883 0.45177 0.77341 0.0
C403 C 0.09204 0.4598 0.79385 0.0
C404 C 0.09304 0.45221 0.82748 0.0
C405 C 0.12061 0.43644 0.84058 0.0
C406 C 0.14663 0.42664 0.82031 0.0
C407 C 0.14585 0.43489 0.7868 0.0
H408 H 0.95769 0.34461 0.08856 0.0
H409 H 0.95655 0.38752 0.04597 0.0
H410 H 0.05061 0.35441 0.00994 0.0
H411 H 0.05235 0.31276 0.05273 0.0
H412 H 0.04948 0.41934 0.01518 0.0
H413 H 0.93675 0.37622 0.94922 0.0
H414 H 0.93264 0.38628 0.99212 0.0
H415 H 0.95671 0.35146 0.98005 0.0
C416 C 0.97802 0.34659 0.07143 0.0
C417 C 0.00509 0.32533 0.07385 0.0
C418 C 0.97729 0.37099 0.04706 0.0
C419 C 0.00337 0.37404 0.02455 0.0
C420 C 0.03026 0.3527 0.02711 0.0
H421 H 0.04847 0.4042 0.83609 0.0
H422 H 0.01613 0.39603 0.88578 0.0
C423 C 0.03121 0.32879 0.05154 0.0
C424 C 0.00363 0.399 0.99793 0.0
H425 H 0.96899 0.41637 0.92339 0.0
C426 C 0.03155 0.41934 0.99535 0.0
C427 C 0.98014 0.39878 0.97217 0.0
C428 C 0.94992 0.37695 0.97322 0.0
C429 C 0.03871 0.43648 0.96629 0.0
C430 C 0.01603 0.43502 0.93968 0.0
C431 C 0.98629 0.41753 0.94374 0.0
C432 C 0.02607 0.44463 0.90577 0.0
C433 C 0.07232 0.45242 0.96318 0.0
C434 C 0.04016 0.47561 0.89891 0.0
C435 C 0.05955 0.47993 0.87069 0.0
C436 C 0.06357 0.45382 0.84844 0.0
C437 C 0.04538 0.42474 0.85285 0.0
C438 C 0.02694 0.42008 0.88138 0.0
H439 H 0.0885 0.44705 0.98456 0.0
H440 H 0.08488 0.44373 0.94054 0.0
H441 H 0.0697 0.47944 0.96157 0.0
H442 H 0.03869 0.49541 0.91671 0.0
H443 H 0.07357 0.50251 0.86774 0.0
H444 H 0.94093 0.79779 0.29557 0.0
H445 H 0.8971 0.79668 0.25453 0.0
H446 H 0.89112 0.69089 0.26199 0.0
H447 H 0.93622 0.69184 0.30222 0.0
H448 H 0.89017 0.70631 0.20096 0.0
H449 H 0.8004 0.78665 0.26044 0.0
H450 H 0.83887 0.80838 0.25975 0.0
H451 H 0.83519 0.77048 0.28269 0.0
C452 C 0.93003 0.77432 0.28877 0.0
C453 C 0.94196 0.74493 0.30212 0.0
C454 C 0.90466 0.7737 0.26554 0.0
C455 C 0.89004 0.74376 0.25572 0.0
C456 C 0.9017 0.71433 0.26936 0.0
H457 H 0.7514 0.81131 0.10966 0.0
H458 H 0.7659 0.77345 0.15383 0.0
C459 C 0.92749 0.7149 0.29231 0.0
C460 C 0.86489 0.74348 0.22903 0.0
H461 H 0.80184 0.78966 0.19973 0.0
C462 C 0.87029 0.72396 0.20098 0.0
C463 C 0.83778 0.76509 0.22931 0.0
C464 C 0.82754 0.78345 0.25992 0.0
C465 C 0.852 0.72856 0.17199 0.0
C466 C 0.82857 0.75418 0.17065 0.0
C467 C 0.8204 0.77064 0.2 0.0
C468 C 0.81684 0.76845 0.13896 0.0
C469 C 0.85909 0.70655 0.14296 0.0
C470 C 0.8399 0.77679 0.11453 0.0
C471 C 0.83136 0.79755 0.08865 0.0
C472 C 0.79987 0.8116 0.08715 0.0
C473 C 0.77593 0.8011 0.10996 0.0
C474 C 0.78431 0.7796 0.13551 0.0
H475 H 0.8603 0.68052 0.15115 0.0
H476 H 0.84028 0.70846 0.12329 0.0
H477 H 0.88358 0.71306 0.13261 0.0
H478 H 0.86534 0.76935 0.11664 0.0
H479 H 0.8502 0.80436 0.07103 0.0
H480 H 0.57455 0.63233 0.55413 0.0
H481 H 0.56629 0.59395 0.50793 0.0
H482 H 0.46538 0.57915 0.53748 0.0
H483 H 0.47349 0.6165 0.58382 0.0
H484 H 0.49697 0.52089 0.51194 0.0
H485 H 0.51093 0.63105 0.43126 0.0
H486 H 0.54448 0.62042 0.45804 0.0
H487 H 0.50662 0.635 0.47527 0.0
C488 C 0.55082 0.62031 0.55113 0.0
C489 C 0.52447 0.6279 0.5722 0.0
C490 C 0.54619 0.59839 0.5248 0.0
C491 C 0.51511 0.58405 0.51914 0.0
C492 C 0.48957 0.58987 0.54152 0.0
H493 H 0.36914 0.51305 0.39772 0.0
H494 H 0.41132 0.51668 0.43981 0.0
C495 C 0.4942 0.61146 0.56786 0.0
C496 C 0.50707 0.56696 0.48787 0.0
H497 H 0.48579 0.5848 0.40878 0.0
C498 C 0.4952 0.53448 0.48906 0.0
C499 C 0.50517 0.58463 0.45798 0.0
C500 C 0.5173 0.61975 0.4553 0.0
C501 C 0.47938 0.51999 0.46178 0.0
C502 C 0.47469 0.53877 0.4328 0.0
C503 C 0.48917 0.57024 0.43085 0.0
C504 C 0.45107 0.52896 0.40628 0.0
C505 C 0.46686 0.48518 0.46494 0.0
C506 C 0.45888 0.53434 0.37297 0.0
C507 C 0.43418 0.53402 0.34887 0.0
C508 C 0.40115 0.52777 0.3575 0.0
C509 C 0.39411 0.51883 0.39024 0.0
C510 C 0.41856 0.52014 0.41442 0.0
H511 H 0.4835 0.47054 0.48075 0.0
H512 H 0.44252 0.48544 0.47719 0.0
H513 H 0.46436 0.47289 0.44062 0.0
H514 H 0.48372 0.54114 0.36591 0.0
H515 H 0.44073 0.54116 0.32405 0.0
H516 H 0.56951 0.34794 0.76882 0.0
H517 H 0.6061 0.34752 0.72079 0.0
H518 H 0.65961 0.26649 0.76253 0.0
H519 H 0.62318 0.26655 0.81042 0.0
H520 H 0.6983 0.32259 0.72366 0.0
H521 H 0.59218 0.26026 0.66124 0.0
H522 H 0.58559 0.29807 0.68337 0.0
H523 H 0.59537 0.26135 0.70557 0.0
C524 C 0.58957 0.33056 0.76812 0.0
C525 C 0.59322 0.30694 0.79312 0.0
C526 C 0.61048 0.33045 0.74074 0.0
C527 C 0.63542 0.30692 0.73819 0.0
C528 C 0.64059 0.28495 0.76422 0.0
H529 H 0.76239 0.19764 0.62422 0.0
H530 H 0.74131 0.23898 0.66196 0.0
C531 C 0.61963 0.28489 0.79144 0.0
C532 C 0.6526 0.30132 0.70663 0.0
H533 H 0.64302 0.25861 0.635 0.0
C534 C 0.68619 0.30919 0.70387 0.0
C535 C 0.63658 0.28426 0.68076 0.0
C536 C 0.60046 0.27531 0.68262 0.0
C537 C 0.70458 0.29891 0.67642 0.0
C538 C 0.68911 0.27938 0.65183 0.0
C539 C 0.65502 0.27353 0.65374 0.0
C540 C 0.7079 0.26074 0.62663 0.0
C541 C 0.74044 0.30856 0.6744 0.0
C542 C 0.69675 0.25936 0.59384 0.0
C543 C 0.70831 0.2351 0.5724 0.0
C544 C 0.73154 0.21211 0.58327 0.0
C545 C 0.74486 0.21537 0.61505 0.0
C546 C 0.7329 0.23924 0.63664 0.0
H547 H 0.7446 0.33322 0.68546 0.0
H548 H 0.7553 0.29079 0.68871 0.0
H549 H 0.74941 0.30893 0.64858 0.0
H550 H 0.67744 0.27559 0.5855 0.0
H551 H 0.69768 0.23304 0.54799 0.0
H552 H 0.06982 0.67895 0.4519 0.0
H553 H 0.06875 0.63438 0.49179 0.0
H554 H 0.97761 0.59798 0.45016 0.0
H555 H 0.9781 0.64342 0.41049 0.0
H556 H 0.97292 0.60175 0.51453 0.0
H557 H 0.08853 0.53868 0.48683 0.0
H558 H 0.09773 0.58147 0.49238 0.0
H559 H 0.07125 0.56848 0.45896 0.0
C560 C 0.04977 0.66121 0.45089 0.0
C561 C 0.02401 0.66469 0.42814 0.0
C562 C 0.04936 0.63549 0.47351 0.0
C563 C 0.02351 0.61232 0.47351 0.0
C564 C 0.998 0.61534 0.45037 0.0
H565 H 0.07145 0.48306 0.63536 0.0
H566 H 0.04807 0.49484 0.58157 0.0
C567 C 0.99827 0.64132 0.42779 0.0
C568 C 0.02184 0.58744 0.50011 0.0
H569 H 0.07184 0.53805 0.54514 0.0
C570 C 0.99421 0.58711 0.52085 0.0
C571 C 0.04905 0.56742 0.50788 0.0
C572 C 0.07808 0.5638 0.48501 0.0
C573 C 0.99459 0.57023 0.55097 0.0
C574 C 0.02363 0.55383 0.56077 0.0
C575 C 0.04977 0.55123 0.53827 0.0
C576 C 0.02937 0.54271 0.59516 0.0
C577 C 0.96428 0.5713 0.57231 0.0
C578 C 0.02527 0.56487 0.6214 0.0
C579 C 0.03775 0.55773 0.6526 0.0
C580 C 0.05569 0.52879 0.65802 0.0
C581 C 0.05764 0.50552 0.63237 0.0
C582 C 0.04445 0.51235 0.60134 0.0
H583 H 0.94167 0.57188 0.55692 0.0
H584 H 0.96283 0.54994 0.58922 0.0
H585 H 0.96467 0.59426 0.58714 0.0
H586 H 0.01457 0.58881 0.61738 0.0
H587 H 0.03512 0.57592 0.67193 0.0
H588 H 0.58599 0.77053 0.71913 0.0
H589 H 0.62911 0.78116 0.75926 0.0
H590 H 0.67988 0.69362 0.72809 0.0
H591 H 0.63557 0.68206 0.68816 0.0
H592 H 0.68076 0.69829 0.79323 0.0
H593 H 0.71795 0.81883 0.74467 0.0
H594 H 0.67475 0.82 0.75274 0.0
H595 H 0.69029 0.7921 0.72201 0.0
C596 C 0.60641 0.75361 0.7205 0.0
C597 C 0.60757 0.72567 0.7002 0.0
C598 C 0.63128 0.75989 0.74333 0.0
C599 C 0.65837 0.73885 0.74597 0.0
C600 C 0.65944 0.71047 0.72615 0.0
H601 H 0.77234 0.84496 0.889 0.0
H602 H 0.77131 0.80634 0.84258 0.0
C603 C 0.63421 0.70397 0.70333 0.0
C604 C 0.68424 0.74627 0.77083 0.0
H605 H 0.72457 0.81194 0.8043 0.0
C606 C 0.69102 0.72293 0.79533 0.0
C607 C 0.69896 0.77787 0.77305 0.0
C608 C 0.69534 0.80338 0.74639 0.0
C609 C 0.70921 0.73154 0.82361 0.0
C610 C 0.71978 0.76456 0.82792 0.0
C611 C 0.71605 0.78672 0.80169 0.0
C612 C 0.72938 0.7784 0.86058 0.0
C613 C 0.71623 0.70529 0.84875 0.0
C614 C 0.70813 0.77388 0.88753 0.0
C615 C 0.70954 0.79522 0.91447 0.0
C616 C 0.73173 0.82179 0.9146 0.0
C617 C 0.75537 0.82427 0.88957 0.0
C618 C 0.75451 0.80237 0.86292 0.0
H619 H 0.7219 0.68165 0.8363 0.0
H620 H 0.73722 0.7121 0.86501 0.0
H621 H 0.69398 0.70112 0.86406 0.0
H622 H 0.68798 0.75634 0.8863 0.0
H623 H 0.69066 0.79336 0.93323 0.0
H624 H 0.56789 0.3665 0.94317 0.0
H625 H 0.56247 0.40279 0.99138 0.0
H626 H 0.45832 0.41019 0.973 0.0
H627 H 0.46345 0.37481 0.92497 0.0
H628 H 0.49403 0.47277 0.99205 0.0
H629 H 0.51467 0.36588 0.07529 0.0
H630 H 0.54466 0.37575 0.04413 0.0
H631 H 0.50509 0.35976 0.03228 0.0
C632 C 0.544 0.37656 0.94904 0.0
C633 C 0.51606 0.36788 0.93028 0.0
C634 C 0.54101 0.39728 0.97649 0.0
C635 C 0.51008 0.40946 0.98548 0.0
C636 C 0.48252 0.40175 0.96603 0.0
H637 H 0.37395 0.47056 0.11817 0.0
H638 H 0.4109 0.46127 0.0716 0.0
C639 C 0.48548 0.38131 0.93864 0.0
C640 C 0.50498 0.42742 0.01674 0.0
H641 H 0.49004 0.41252 0.09804 0.0
C642 C 0.49351 0.45983 0.01533 0.0
C643 C 0.50539 0.41076 0.04727 0.0
C644 C 0.51802 0.37608 0.05014 0.0
C645 C 0.4793 0.47482 0.04298 0.0
C646 C 0.47703 0.45702 0.07274 0.0
C647 C 0.49158 0.42594 0.07503 0.0
C648 C 0.45559 0.46778 0.10005 0.0
C649 C 0.46558 0.509 0.03987 0.0
C650 C 0.46855 0.47465 0.13144 0.0
C651 C 0.44738 0.48025 0.15809 0.0
C652 C 0.41311 0.4782 0.1537 0.0
C653 C 0.40031 0.47212 0.12211 0.0
C654 C 0.42136 0.4671 0.09551 0.0
H655 H 0.47588 0.52209 0.01816 0.0
H656 H 0.43846 0.5074 0.03685 0.0
H657 H 0.4709 0.52362 0.06243 0.0
H658 H 0.49493 0.47485 0.13543 0.0
H659 H 0.45771 0.48482 0.1823 0.0
H660 H 0.92041 0.21464 0.21112 0.0
H661 H 0.88336 0.21746 0.25788 0.0
H662 H 0.90486 0.32116 0.26871 0.0
H663 H 0.9438 0.31779 0.22278 0.0
H664 H 0.91017 0.29723 0.32394 0.0
H665 H 0.79432 0.2451 0.2801 0.0
H666 H 0.82466 0.21598 0.26777 0.0
H667 H 0.82604 0.25738 0.25148 0.0
C668 C 0.91675 0.23821 0.22301 0.0
C669 C 0.93514 0.26593 0.21345 0.0
C670 C 0.8951 0.23996 0.24959 0.0
C671 C 0.89053 0.26971 0.26668 0.0
C672 C 0.90771 0.29791 0.25598 0.0
H673 H 0.78893 0.19191 0.43855 0.0
H674 H 0.79421 0.23467 0.39594 0.0
C675 C 0.92999 0.29599 0.22974 0.0
C676 C 0.8722 0.26956 0.29848 0.0
H677 H 0.81141 0.22605 0.33689 0.0
C678 C 0.88789 0.28259 0.32656 0.0
C679 C 0.84213 0.25213 0.3025 0.0
C680 C 0.82073 0.24233 0.27366 0.0
C681 C 0.87703 0.27456 0.35833 0.0
C682 C 0.85099 0.25152 0.36211 0.0
C683 C 0.83234 0.24256 0.33426 0.0
C684 C 0.84736 0.23157 0.39264 0.0
C685 C 0.89477 0.28956 0.38744 0.0
C686 C 0.87536 0.21624 0.40568 0.0
C687 C 0.87238 0.19247 0.43008 0.0
C688 C 0.84126 0.18268 0.44157 0.0
C689 C 0.81321 0.19916 0.43013 0.0
C690 C 0.81624 0.22342 0.4057 0.0
H691 H 0.90039 0.31592 0.38264 0.0
H692 H 0.88009 0.28769 0.41041 0.0
H693 H 0.91867 0.277 0.39103 0.0
H694 H 0.89956 0.22095 0.39552 0.0
H695 H 0.89442 0.18027 0.43863 0.0
H696 H 0.09125 0.96457 0.30138 0.0
H697 H 0.0539 0.96398 0.34884 0.0
H698 H 0.01774 0.05944 0.32092 0.0
H699 H 0.05531 0.06049 0.27404 0.0
H700 H 0.03351 0.05463 0.38735 0.0
H701 H 0.95386 0.94978 0.34713 0.0
H702 H 0.99739 0.94258 0.35009 0.0
H703 H 0.98199 0.97017 0.31935 0.0
C704 C 0.07522 0.98535 0.30535 0.0
C705 C 0.0761 0.01255 0.28396 0.0
C706 C 0.05383 0.98491 0.33237 0.0
C707 C 0.03282 0.01152 0.33821 0.0
C708 C 0.03376 0.03865 0.31687 0.0
H709 H 0.85581 0.06555 0.41088 0.0
H710 H 0.90099 0.03496 0.3865 0.0
C711 C 0.05518 0.03918 0.29004 0.0
C712 C 0.00985 0.01189 0.36656 0.0
H713 H 0.93706 0.97935 0.3937 0.0
C714 C 0.01271 0.03783 0.38922 0.0
C715 C 0.98296 0.9897 0.36897 0.0
C716 C 0.97855 0.96154 0.34506 0.0
C717 C 0.98805 0.0439 0.41253 0.0
C718 C 0.9601 0.02284 0.41378 0.0
C719 C 0.95856 0.99532 0.39281 0.0
C720 C 0.92977 0.03291 0.43139 0.0
C721 C 0.99088 0.07446 0.43357 0.0
C722 C 0.92981 0.03993 0.46532 0.0
C723 C 0.90402 0.05794 0.47925 0.0
C724 C 0.8778 0.06864 0.45942 0.0
C725 C 0.87598 0.05796 0.42655 0.0
C726 C 0.90176 0.04036 0.41264 0.0
H727 H 0.01227 0.09014 0.42658 0.0
H728 H 0.9682 0.08939 0.43158 0.0
H729 H 0.99397 0.06726 0.45968 0.0
H730 H 0.95079 0.03359 0.48045 0.0
H731 H 0.90598 0.06578 0.5047 0.0
H732 H 0.26467 0.80807 0.63756 0.0
H733 H 0.26399 0.76052 0.67454 0.0
H734 H 0.16021 0.77432 0.69143 0.0
H735 H 0.16073 0.82191 0.65478 0.0
H736 H 0.19666 0.75056 0.74772 0.0
H737 H 0.21958 0.67843 0.63328 0.0
H738 H 0.24942 0.70939 0.64446 0.0
H739 H 0.2088 0.72135 0.63205 0.0
C740 C 0.24186 0.80137 0.64972 0.0
C741 C 0.21255 0.81815 0.64267 0.0
C742 C 0.24154 0.77423 0.67081 0.0
C743 C 0.21189 0.76346 0.68499 0.0
C744 C 0.1833 0.78206 0.68043 0.0
H745 H 0.09437 0.60991 0.74332 0.0
H746 H 0.12575 0.6613 0.74343 0.0
C747 C 0.18359 0.80915 0.65935 0.0
C748 C 0.20912 0.7306 0.70044 0.0
H749 H 0.20383 0.64934 0.67999 0.0
C750 C 0.19855 0.7283 0.73322 0.0
C751 C 0.21231 0.70159 0.68143 0.0
C752 C 0.22296 0.70256 0.6458 0.0
C753 C 0.18899 0.69797 0.7469 0.0
C754 C 0.19003 0.66929 0.72713 0.0
C755 C 0.20309 0.6713 0.69519 0.0
C756 C 0.17309 0.63819 0.73645 0.0
C757 C 0.17686 0.69716 0.78197 0.0
C758 C 0.18927 0.6079 0.73339 0.0
C759 C 0.17123 0.5784 0.73303 0.0
C760 C 0.13672 0.57885 0.7354 0.0
C761 C 0.12095 0.60893 0.74132 0.0
C762 C 0.13895 0.63832 0.74174 0.0
H763 H 0.18904 0.71664 0.797 0.0
H764 H 0.15001 0.70198 0.78223 0.0
H765 H 0.1813 0.67289 0.79359 0.0
H766 H 0.21556 0.60723 0.729 0.0
H767 H 0.18399 0.55561 0.72817 0.0
H768 H 0.44867 0.04351 0.77407 0.0
H769 H 0.49205 0.03811 0.81597 0.0
H770 H 0.49652 0.93392 0.79678 0.0
H771 H 0.45354 0.93904 0.7549 0.0
H772 H 0.492 0.95886 0.86895 0.0
H773 H 0.59249 0.01273 0.79202 0.0
H774 H 0.55312 0.03282 0.79422 0.0
H775 H 0.55647 0.99413 0.77334 0.0
C776 C 0.45883 0.01945 0.77891 0.0
C777 C 0.44777 0.99169 0.76118 0.0
C778 C 0.48361 0.01645 0.80275 0.0
C779 C 0.49748 0.98565 0.80927 0.0
C780 C 0.48608 0.95789 0.79202 0.0
H781 H 0.63345 0.87079 0.90601 0.0
H782 H 0.58716 0.89846 0.88023 0.0
C783 C 0.46156 0.96088 0.7681 0.0
C784 C 0.52425 0.98189 0.83369 0.0
H785 H 0.60785 0.98695 0.84142 0.0
C786 C 0.51726 0.96557 0.86329 0.0
C787 C 0.55707 0.99102 0.82634 0.0
C788 C 0.56556 0.00862 0.79477 0.0
C789 C 0.54255 0.95657 0.88497 0.0
C790 C 0.57565 0.96343 0.8764 0.0
C791 C 0.58245 0.9817 0.84788 0.0
C792 C 0.60333 0.94749 0.89379 0.0
C793 C 0.53376 0.93872 0.91633 0.0
C794 C 0.62815 0.96597 0.9096 0.0
C795 C 0.65491 0.95008 0.92443 0.0
C796 C 0.65743 0.91563 0.92293 0.0
C797 C 0.6324 0.8974 0.90719 0.0
C798 C 0.60573 0.91314 0.89275 0.0
H799 H 0.50844 0.94482 0.92456 0.0
H800 H 0.53465 0.9118 0.91187 0.0
H801 H 0.55135 0.94488 0.93644 0.0
H802 H 0.62684 0.99256 0.91037 0.0
H803 H 0.67392 0.96466 0.9364 0.0
H804 H 0.18949 0.18261 0.16729 0.0
H805 H 0.19282 0.23097 0.20371 0.0
H806 H 0.29706 0.23888 0.18402 0.0
H807 H 0.29424 0.18988 0.15024 0.0
H808 H 0.28708 0.25895 0.24226 0.0
H809 H 0.19244 0.31888 0.16343 0.0
H810 H 0.17968 0.28313 0.18592 0.0
H811 H 0.20907 0.27928 0.15313 0.0
C812 C 0.21314 0.19445 0.17138 0.0
C813 C 0.24145 0.18304 0.15523 0.0
C814 C 0.21498 0.22228 0.19189 0.0
C815 C 0.24493 0.23961 0.19553 0.0
C816 C 0.27351 0.2264 0.18146 0.0
H817 H 0.31287 0.42215 0.16432 0.0
H818 H 0.28125 0.37163 0.17013 0.0
C819 C 0.27185 0.19834 0.16185 0.0
C820 C 0.24708 0.273 0.21067 0.0
H821 H 0.22493 0.3526 0.19627 0.0
C822 C 0.27309 0.27943 0.2327 0.0
C823 C 0.22853 0.29979 0.19848 0.0
C824 C 0.201 0.29517 0.17382 0.0
C825 C 0.28367 0.31169 0.23963 0.0
C826 C 0.26658 0.33843 0.22553 0.0
C827 C 0.23807 0.33204 0.20688 0.0
C828 C 0.28167 0.37186 0.2235 0.0
C829 C 0.31482 0.3166 0.25945 0.0
C830 C 0.29159 0.38975 0.25156 0.0
C831 C 0.31064 0.41854 0.24823 0.0
C832 C 0.31966 0.42999 0.21678 0.0
C833 C 0.30728 0.41346 0.1889 0.0
C834 C 0.28877 0.3847 0.19222 0.0
H835 H 0.32767 0.2931 0.26423 0.0
H836 H 0.33213 0.33334 0.24641 0.0
H837 H 0.30871 0.32785 0.28357 0.0
H838 H 0.28565 0.38087 0.27597 0.0
H839 H 0.31953 0.43093 0.27019 0.0
H840 H 0.06647 0.9564 0.1348 0.0
H841 H 0.02061 0.95204 0.09643 0.0
H842 H 0.02691 0.05624 0.07783 0.0
H843 H 0.0739 0.06066 0.11561 0.0
H844 H 0.96521 0.0355 0.09784 0.0
H845 H 0.00701 0.956 0.99684 0.0
H846 H 0.01822 0.93813 0.03556 0.0
H847 H 0.03536 0.97744 0.0239 0.0
C848 C 0.05881 0.97827 0.1218 0.0
C849 C 0.074 0.00881 0.12805 0.0
C850 C 0.03264 0.97572 0.09967 0.0
C851 C 0.02063 0.00372 0.08366 0.0
C852 C 0.03607 0.03425 0.0894 0.0
H853 H 0.83857 0.92821 0.99198 0.0
H854 H 0.88626 0.96607 0.9929 0.0
C855 C 0.06278 0.03673 0.11117 0.0
C856 C 0.98904 0.00119 0.06539 0.0
H857 H 0.94862 0.94868 0.01337 0.0
C858 C 0.96168 0.01759 0.07831 0.0
C859 C 0.98432 0.97812 0.03966 0.0
C860 C 0.01293 0.96171 0.02296 0.0
C861 C 0.92956 0.00863 0.06901 0.0
C862 C 0.92476 0.98208 0.04688 0.0
C863 C 0.95217 0.96861 0.03086 0.0
C864 C 0.89311 0.96355 0.04573 0.0
C865 C 0.90096 0.02602 0.08481 0.0
C866 C 0.88102 0.94975 0.07501 0.0
C867 C 0.85406 0.9284 0.07451 0.0
C868 C 0.83872 0.91987 0.04465 0.0
C869 C 0.84992 0.93451 0.01533 0.0
C870 C 0.87717 0.95603 0.01584 0.0
H871 H 0.90775 0.05161 0.09183 0.0
H872 H 0.87934 0.02652 0.06804 0.0
H873 H 0.89382 0.01296 0.10771 0.0
H874 H 0.89338 0.95427 0.09826 0.0
H875 H 0.8458 0.9177 0.09751 0.0
H876 H 0.16557 0.78351 0.49848 0.0
H877 H 0.17288 0.7349 0.46332 0.0
H878 H 0.2743 0.76258 0.44739 0.0
H879 H 0.2673 0.811 0.48244 0.0
H880 H 0.19739 0.72888 0.39474 0.0
H881 H 0.27579 0.668 0.48816 0.0
H882 H 0.24928 0.70209 0.49799 0.0
H883 H 0.2884 0.70935 0.47855 0.0
C884 C 0.18934 0.77932 0.48729 0.0
C885 C 0.21596 0.80087 0.49343 0.0
C886 C 0.19344 0.75163 0.46718 0.0
C887 C 0.22421 0.74505 0.45314 0.0
C888 C 0.25046 0.7671 0.45835 0.0
H889 H 0.30623 0.62642 0.30414 0.0
H890 H 0.27378 0.6671 0.33373 0.0
C891 C 0.24639 0.79475 0.47833 0.0
C892 C 0.22969 0.71446 0.43419 0.0
H893 H 0.27686 0.64558 0.43399 0.0
C894 C 0.21441 0.71036 0.4034 0.0
C895 C 0.25129 0.69007 0.44591 0.0
C896 C 0.26692 0.69232 0.4796 0.0
C897 C 0.2217 0.68325 0.38317 0.0
C898 C 0.24516 0.66003 0.39398 0.0
C899 C 0.25897 0.66337 0.42556 0.0
C900 C 0.25824 0.63373 0.37232 0.0
C901 C 0.20444 0.67995 0.35039 0.0
C902 C 0.25996 0.60119 0.38377 0.0
C903 C 0.27889 0.57797 0.36706 0.0
C904 C 0.29633 0.58684 0.33852 0.0
C905 C 0.29266 0.61873 0.32579 0.0
C906 C 0.27397 0.64202 0.34266 0.0
H907 H 0.1798 0.69161 0.35104 0.0
H908 H 0.21919 0.69273 0.33123 0.0
H909 H 0.20141 0.65376 0.34307 0.0
H910 H 0.24812 0.59424 0.40664 0.0
H911 H 0.28121 0.55351 0.37731 0.0
H912 H 0.44225 0.05794 0.6029 0.0
H913 H 0.49152 0.06447 0.56968 0.0
H914 H 0.50835 0.95988 0.57441 0.0
H915 H 0.45897 0.95332 0.6086 0.0
H916 H 0.56035 0.99106 0.59368 0.0
H917 H 0.52333 0.05081 0.47855 0.0
H918 H 0.50506 0.07294 0.5119 0.0
H919 H 0.49378 0.03046 0.50488 0.0
C920 C 0.45602 0.03619 0.59631 0.0
C921 C 0.44696 0.00517 0.60863 0.0
C922 C 0.48404 0.03989 0.57683 0.0
C923 C 0.50353 0.01262 0.56894 0.0
C924 C 0.49358 0.98127 0.57989 0.0
H925 H 0.69638 0.08647 0.49447 0.0
H926 H 0.64757 0.0498 0.49327 0.0
C927 C 0.46539 0.97754 0.59943 0.0
C928 C 0.5368 0.01816 0.55466 0.0
H929 H 0.57749 0.06923 0.50153 0.0
C930 C 0.56408 0.00721 0.57276 0.0
C931 C 0.54212 0.03863 0.52692 0.0
C932 C 0.51442 0.0485 0.50431 0.0
C933 C 0.59583 0.01931 0.56637 0.0
C934 C 0.60034 0.04334 0.54165 0.0
C935 C 0.57387 0.05132 0.52098 0.0
C936 C 0.63017 0.06453 0.54139 0.0
C937 C 0.62399 0.00805 0.58771 0.0
C938 C 0.63616 0.08504 0.56857 0.0
C939 C 0.66352 0.10584 0.56922 0.0
C940 C 0.68556 0.10683 0.54259 0.0
C941 C 0.67975 0.08616 0.5153 0.0
C942 C 0.65196 0.06534 0.51456 0.0
H943 H 0.61945 0.98282 0.59725 0.0
H944 H 0.64758 0.00838 0.57392 0.0
H945 H 0.62646 0.02484 0.60919 0.0
H946 H 0.61945 0.08507 0.58936 0.0
H947 H 0.66757 0.12104 0.59083 0.0
H948 H 0.20406 0.15899 0.96428 0.0
H949 H 0.19859 0.20158 0.92189 0.0
H950 H 0.25669 0.2684 0.98123 0.0
H951 H 0.2623 0.22616 0.02349 0.0
H952 H 0.1693 0.26285 0.93378 0.0
H953 H 0.29732 0.27879 0.88879 0.0
H954 H 0.28368 0.2426 0.91084 0.0
H955 H 0.29357 0.27981 0.93286 0.0
C956 C 0.21599 0.18263 0.96804 0.0
C957 C 0.23349 0.18933 0.9972 0.0
C958 C 0.21293 0.20686 0.94383 0.0
C959 C 0.2277 0.23793 0.94823 0.0
C960 C 0.24574 0.24437 0.97702 0.0
H961 H 0.18022 0.42919 0.87876 0.0
H962 H 0.20582 0.38255 0.90673 0.0
C963 C 0.24864 0.22029 0.00128 0.0
C964 C 0.22146 0.26477 0.92453 0.0
H965 H 0.25941 0.32171 0.87532 0.0
C966 C 0.18894 0.2754 0.92063 0.0
C967 C 0.2472 0.28115 0.90754 0.0
C968 C 0.28239 0.26986 0.90992 0.0
C969 C 0.18156 0.30268 0.90104 0.0
C970 C 0.20735 0.31964 0.88488 0.0
C971 C 0.23981 0.30863 0.88798 0.0
C972 C 0.20036 0.34934 0.8654 0.0
C973 C 0.1463 0.31385 0.89829 0.0
C974 C 0.19034 0.34628 0.83249 0.0
C975 C 0.17565 0.37281 0.81649 0.0
C976 C 0.17067 0.40264 0.83333 0.0
C977 C 0.18357 0.40643 0.8653 0.0
C978 C 0.19826 0.3799 0.88125 0.0
H979 H 0.12899 0.29746 0.91181 0.0
H980 H 0.14409 0.33917 0.90831 0.0
H981 H 0.13879 0.31458 0.872 0.0
H982 H 0.1916 0.32272 0.82005 0.0
H983 H 0.16565 0.36898 0.79203 0.0
H984 H 0.34782 0.10892 0.02135 0.0
H985 H 0.40048 0.08094 0.01296 0.0
H986 H 0.37084 0.00604 0.08232 0.0
H987 H 0.31939 0.03486 0.09212 0.0
H988 H 0.43186 0.02311 0.09266 0.0
H989 H 0.41614 0.00104 0.95821 0.0
H990 H 0.41503 0.04321 0.97122 0.0
H991 H 0.38301 0.01534 0.98385 0.0
C992 C 0.3527 0.08646 0.03475 0.0
C993 C 0.32954 0.0739 0.05727 0.0
C994 C 0.38268 0.07039 0.02976 0.0
C995 C 0.38948 0.04101 0.04651 0.0
C996 C 0.36628 0.02868 0.06911 0.0
H997 H 0.46573 0.86381 0.01744 0.0
H998 H 0.44943 0.91948 0.00472 0.0
C999 C 0.3368 0.04509 0.07465 0.0
C1000 C 0.42039 0.02244 0.041 0.0
H1001 H 0.46113 0.97654 0.98378 0.0
C1002 C 0.43852 0.01308 0.06882 0.0
C1003 C 0.42931 0.00988 0.00973 0.0
C1004 C 0.40983 0.0176 0.97904 0.0
C1005 C 0.46252 0.98854 0.06707 0.0
C1006 C 0.47054 0.97469 0.03594 0.0
C1007 C 0.45508 0.98708 0.00756 0.0
C1008 C 0.48832 0.94282 0.03332 0.0
C1009 C 0.47594 0.97534 0.09915 0.0
C1010 C 0.51783 0.93703 0.05048 0.0
C1011 C 0.52649 0.90482 0.05889 0.0
C1012 C 0.50675 0.87821 0.04848 0.0
C1013 C 0.48137 0.8839 0.02578 0.0
C1014 C 0.47191 0.91597 0.01863 0.0
H1015 H 0.46341 0.98593 0.121 0.0
H1016 H 0.47303 0.94818 0.10016 0.0
H1017 H 0.50247 0.98153 0.10127 0.0
H1018 H 0.53214 0.95733 0.06039 0.0
H1019 H 0.54635 0.90098 0.07627 0.0
H1020 H 0.82859 0.41131 0.99457 0.0
H1021 H 0.86823 0.45546 0.98533 0.0
H1022 H 0.86692 0.47918 0.08892 0.0
H1023 H 0.82695 0.43479 0.09838 0.0
H1024 H 0.86266 0.53269 0.05547 0.0
H1025 H 0.96402 0.46413 1.00021 0.0
H1026 H 0.92776 0.45479 0.97674 0.0
H1027 H 0.9299 0.44321 0.01964 0.0
C1028 C 0.83722 0.42549 0.01555 0.0
C1029 C 0.82482 0.41942 0.04724 0.0
C1030 C 0.86022 0.45059 0.01028 0.0
C1031 C 0.87164 0.47009 0.0366 0.0
C1032 C 0.85932 0.46398 0.06837 0.0
H1033 H 0.97674 0.65793 0.99013 0.0
H1034 H 0.96168 0.61027 0.02473 0.0
C1035 C 0.83637 0.43864 0.07373 0.0
C1036 C 0.89391 0.49856 0.02987 0.0
H1037 H 0.95795 0.52107 0.98029 0.0
C1038 C 0.88415 0.53012 0.0399 0.0
C1039 C 0.92241 0.49537 0.01011 0.0
C1040 C 0.93673 0.46242 0.00146 0.0
C1041 C 0.90005 0.55853 0.02788 0.0
C1042 C 0.92625 0.55516 0.00525 0.0
C1043 C 0.93768 0.52366 0.99746 0.0
C1044 C 0.93811 0.58321 0.98509 0.0
C1045 C 0.88709 0.59188 0.03738 0.0
C1046 C 0.93084 0.58321 0.95134 0.0
C1047 C 0.93941 0.61002 0.93178 0.0
C1048 C 0.95551 0.63757 0.94547 0.0
C1049 C 0.96414 0.63709 0.97904 0.0
C1050 C 0.95538 0.61006 0.9988 0.0
H1051 H 0.86481 0.59014 0.05315 0.0
H1052 H 0.90639 0.6057 0.05112 0.0
H1053 H 0.88097 0.60622 0.01497 0.0
H1054 H 0.91775 0.56267 0.9402 0.0
H1055 H 0.93306 0.60935 0.90585 0.0
H1056 H 0.78122 0.58083 0.13559 0.0
H1057 H 0.74732 0.62947 0.1289 0.0
H1058 H 0.79588 0.67553 0.21185 0.0
H1059 H 0.82936 0.62605 0.21936 0.0
H1060 H 0.73184 0.68154 0.21764 0.0
H1061 H 0.76419 0.71917 0.09282 0.0
H1062 H 0.75125 0.67711 0.08962 0.0
H1063 H 0.78714 0.68764 0.11378 0.0
C1064 C 0.78493 0.60139 0.15224 0.0
C1065 C 0.80778 0.59955 0.1781 0.0
C1066 C 0.76579 0.62942 0.14817 0.0
C1067 C 0.76949 0.65655 0.16942 0.0
C1068 C 0.79275 0.65503 0.19501 0.0
H1069 H 0.61034 0.77126 0.09199 0.0
H1070 H 0.66377 0.77169 0.12043 0.0
C1071 C 0.81175 0.62673 0.19932 0.0
C1072 C 0.74631 0.6845 0.1666 0.0
H1073 H 0.70435 0.72626 0.10759 0.0
C1074 C 0.72642 0.69217 0.19379 0.0
C1075 C 0.73986 0.69974 0.13599 0.0
C1076 C 0.76213 0.69567 0.10662 0.0
C1077 C 0.69767 0.71076 0.18994 0.0
C1078 C 0.68829 0.7211 0.15803 0.0
C1079 C 0.71077 0.7176 0.13201 0.0
C1080 C 0.65344 0.72815 0.14943 0.0
C1081 C 0.67671 0.71738 0.2198 0.0
C1082 C 0.62915 0.70471 0.15753 0.0
C1083 C 0.59876 0.70469 0.14161 0.0
C1084 C 0.5921 0.72785 0.11698 0.0
C1085 C 0.61489 0.75331 0.11112 0.0
C1086 C 0.64545 0.75344 0.12724 0.0
H1087 H 0.69253 0.72321 0.24142 0.0
H1088 H 0.65952 0.73808 0.21569 0.0
H1089 H 0.66229 0.69492 0.22596 0.0
H1090 H 0.63469 0.68438 0.17373 0.0
H1091 H 0.58157 0.68473 0.14637 0.0
H1092 H 0.62023 0.55464 0.58158 0.0
H1093 H 0.58884 0.50394 0.57021 0.0
H1094 H 0.60995 0.51401 0.46668 0.0
H1095 H 0.63963 0.56496 0.47753 0.0
H1096 H 0.5526 0.48989 0.47195 0.0
H1097 H 0.63187 0.41944 0.55812 0.0
H1098 H 0.60718 0.45026 0.57742 0.0
H1099 H 0.63949 0.46217 0.54936 0.0
C1100 C 0.6176 0.54625 0.55637 0.0
C1101 C 0.63283 0.5635 0.5305 0.0
C1102 C 0.59985 0.51718 0.54994 0.0
C1103 C 0.59773 0.5045 0.51774 0.0
C1104 C 0.61127 0.52295 0.49181 0.0
H1105 H 0.61185 0.32304 0.42859 0.0
H1106 H 0.61496 0.37195 0.46341 0.0
C1107 C 0.62843 0.55215 0.49807 0.0
C1108 C 0.58362 0.47124 0.51059 0.0
H1109 H 0.59466 0.38935 0.52594 0.0
C1110 C 0.56149 0.46794 0.48408 0.0
C1111 C 0.59516 0.44241 0.52641 0.0
C1112 C 0.61991 0.4436 0.55421 0.0
C1113 C 0.55265 0.43693 0.47138 0.0
C1114 C 0.56495 0.40826 0.48659 0.0
C1115 C 0.58507 0.41142 0.51456 0.0
C1116 C 0.56228 0.37554 0.4704 0.0
C1117 C 0.53255 0.43518 0.4401 0.0
C1118 C 0.53168 0.36038 0.46389 0.0
C1119 C 0.52989 0.33223 0.44383 0.0
C1120 C 0.5587 0.31902 0.43023 0.0
C1121 C 0.58931 0.33288 0.43877 0.0
C1122 C 0.59109 0.36079 0.45867 0.0
H1123 H 0.52863 0.45983 0.42906 0.0
H1124 H 0.54494 0.41939 0.4216 0.0
H1125 H 0.50813 0.42403 0.44544 0.0
H1126 H 0.50918 0.37106 0.47318 0.0
H1127 H 0.50603 0.32195 0.43745 0.0
H1128 H 0.21492 0.93364 0.15805 0.0
H1129 H 0.26209 0.89697 0.16064 0.0
H1130 H 0.26573 0.90828 0.26627 0.0
H1131 H 0.21867 0.94551 0.26379 0.0
H1132 H 0.32418 0.92102 0.23862 0.0
H1133 H 0.27818 0.80325 0.1884 0.0
H1134 H 0.26585 0.83656 0.16249 0.0
H1135 H 0.25091 0.83444 0.20423 0.0
C1136 C 0.22535 0.92784 0.1819 0.0
C1137 C 0.21321 0.94254 0.21069 0.0
C1138 C 0.25212 0.90656 0.18341 0.0
C1139 C 0.26708 0.89933 0.21374 0.0
C1140 C 0.25433 0.91321 0.24267 0.0
H1141 H 0.44849 0.78979 0.16766 0.0
H1142 H 0.40116 0.80193 0.20331 0.0
C1143 C 0.22752 0.93453 0.24118 0.0
C1144 C 0.29856 0.88113 0.21424 0.0
H1145 H 0.3363 0.81607 0.17745 0.0
C1146 C 0.32671 0.89751 0.22623 0.0
C1147 C 0.30197 0.85008 0.19885 0.0
C1148 C 0.2725 0.82993 0.18814 0.0
C1149 C 0.35831 0.88555 0.21971 0.0
C1150 C 0.36174 0.85682 0.20041 0.0
C1151 C 0.33364 0.83838 0.19188 0.0
C1152 C 0.39272 0.85012 0.18261 0.0
C1153 C 0.38783 0.90508 0.2314 0.0
C1154 C 0.40337 0.87305 0.15922 0.0
C1155 C 0.42957 0.86602 0.13851 0.0
C1156 C 0.44635 0.83589 0.14083 0.0
C1157 C 0.43623 0.81319 0.16508 0.0
C1158 C 0.40936 0.82013 0.18562 0.0
H1159 H 0.38228 0.91845 0.25461 0.0
H1160 H 0.4094 0.88897 0.23549 0.0
H1161 H 0.39446 0.92365 0.21248 0.0
H1162 H 0.39024 0.8959 0.15577 0.0
H1163 H 0.4353 0.88374 0.11947 0.0
H1164 H 0.11743 0.92118 0.49336 0.0
H1165 H 0.07496 0.96198 0.48164 0.0
H1166 H 0.07663 0.99263 0.58338 0.0
H1167 H 0.11857 0.95155 0.59542 0.0
H1168 H 0.01188 0.99545 0.55075 0.0
H1169 H 0.11303 0.05684 0.48059 0.0
H1170 H 0.10093 0.01585 0.46879 0.0
H1171 H 0.121 0.02272 0.50766 0.0
C1172 C 0.10827 0.9362 0.51336 0.0
C1173 C 0.12187 0.93379 0.54515 0.0
C1174 C 0.08395 0.95938 0.50663 0.0
C1175 C 0.07321 0.98072 0.5315 0.0
C1176 C 0.08475 0.97647 0.5638 0.0
H1177 H 0.01958 0.15937 0.59653 0.0
H1178 H 0.01529 0.1012 0.58298 0.0
C1179 C 0.10892 0.9532 0.57059 0.0
C1180 C 0.05458 0.01079 0.52345 0.0
H1181 H 0.06782 0.08828 0.49449 0.0
C1182 C 0.02361 0.01561 0.53782 0.0
C1183 C 0.06976 0.03685 0.50596 0.0
C1184 C 0.10305 0.0331 0.48991 0.0
C1185 C 0.00853 0.04661 0.53731 0.0
C1186 C 0.02543 0.07353 0.5229 0.0
C1187 C 0.05488 0.0678 0.50581 0.0
C1188 C 0.01695 0.1083 0.53011 0.0
C1189 C 0.97524 0.05034 0.55318 0.0
C1190 C 0.01806 0.13206 0.50501 0.0
C1191 C 0.02132 0.16544 0.51282 0.0
C1192 C 0.02349 0.1756 0.54588 0.0
C1193 C 0.01847 0.15219 0.57084 0.0
C1194 C 0.01552 0.11884 0.56305 0.0
H1195 H 0.95966 0.02829 0.54828 0.0
H1196 H 0.97838 0.05236 0.58027 0.0
H1197 H 0.96216 0.07241 0.54407 0.0
H1198 H 0.01935 0.12463 0.47944 0.0
H1199 H 0.02522 0.18281 0.49299 0.0
H1200 H 0.78725 0.45279 0.25854 0.0
H1201 H 0.74621 0.41011 0.26956 0.0
H1202 H 0.74582 0.38266 0.16689 0.0
H1203 H 0.78728 0.42564 0.15556 0.0
H1204 H 0.68203 0.3899 0.19472 0.0
H1205 H 0.75962 0.30946 0.27121 0.0
H1206 H 0.76275 0.35161 0.28421 0.0
H1207 H 0.77662 0.34007 0.24373 0.0
C1208 C 0.77857 0.43766 0.23826 0.0
C1209 C 0.79055 0.44258 0.2062 0.0
C1210 C 0.75527 0.41309 0.24465 0.0
C1211 C 0.74339 0.39283 0.21917 0.0
C1212 C 0.75492 0.39784 0.18696 0.0
H1213 H 0.61911 0.24414 0.31204 0.0
H1214 H 0.65725 0.26522 0.27058 0.0
C1215 C 0.77854 0.42239 0.18054 0.0
C1216 C 0.71784 0.36764 0.22665 0.0
H1217 H 0.70106 0.30655 0.28153 0.0
C1218 C 0.68622 0.37121 0.21325 0.0
C1219 C 0.72354 0.3424 0.2498 0.0
C1220 C 0.75758 0.33537 0.26279 0.0
C1221 C 0.65957 0.35202 0.22451 0.0
C1222 C 0.66451 0.32948 0.25066 0.0
C1223 C 0.69678 0.32407 0.26192 0.0
C1224 C 0.63669 0.31416 0.2693 0.0
C1225 C 0.62655 0.35616 0.20805 0.0
C1226 C 0.61123 0.33398 0.28137 0.0
C1227 C 0.58871 0.32167 0.30425 0.0
C1228 C 0.59178 0.28958 0.31676 0.0
C1229 C 0.61582 0.26894 0.30301 0.0
C1230 C 0.63794 0.28111 0.27943 0.0
H1231 H 0.62968 0.36123 0.18135 0.0
H1232 H 0.61069 0.33398 0.21087 0.0
H1233 H 0.61388 0.37766 0.21896 0.0
H1234 H 0.6099 0.35974 0.27488 0.0
H1235 H 0.57008 0.33809 0.31372 0.0
H1236 H 0.71565 0.60318 0.68314 0.0
H1237 H 0.75851 0.6443 0.69586 0.0
H1238 H 0.73868 0.63307 0.7995 0.0
H1239 H 0.69608 0.59211 0.78713 0.0
H1240 H 0.75331 0.70231 0.77431 0.0
H1241 H 0.84483 0.60656 0.7405 0.0
H1242 H 0.81281 0.61688 0.71167 0.0
H1243 H 0.80251 0.5958 0.74906 0.0
C1244 C 0.72002 0.60996 0.7086 0.0
C1245 C 0.70287 0.59402 0.7342 0.0
C1246 C 0.74447 0.63346 0.71578 0.0
C1247 C 0.75192 0.64147 0.74863 0.0
C1248 C 0.73325 0.62727 0.774 0.0
H1249 H 0.87786 0.71267 0.89239 0.0
H1250 H 0.83246 0.70647 0.85395 0.0
C1251 C 0.70904 0.6037 0.76689 0.0
C1252 C 0.78155 0.66119 0.75737 0.0
H1253 H 0.86394 0.65205 0.77002 0.0
C1254 C 0.77761 0.69168 0.77301 0.0
C1255 C 0.81336 0.6476 0.75489 0.0
C1256 C 0.81894 0.61488 0.73824 0.0
C1257 C 0.8043 0.7079 0.78825 0.0
C1258 C 0.83571 0.69292 0.78824 0.0
C1259 C 0.84002 0.66369 0.77022 0.0
C1260 C 0.86307 0.70401 0.81032 0.0
C1261 C 0.79812 0.74039 0.80497 0.0
C1262 C 0.8958 0.70514 0.79898 0.0
C1263 C 0.9221 0.70754 0.82132 0.0
C1264 C 0.9161 0.709 0.85539 0.0
C1265 C 0.88334 0.71113 0.86632 0.0
C1266 C 0.85719 0.70807 0.84417 0.0
H1267 H 0.78038 0.7551 0.79044 0.0
H1268 H 0.78697 0.73584 0.82948 0.0
H1269 H 0.82104 0.75503 0.80835 0.0
H1270 H 0.9011 0.70207 0.77302 0.0
H1271 H 0.94701 0.70564 0.81205 0.0
H1272 H 0.4601 0.77471 0.5646 0.0
H1273 H 0.45125 0.81935 0.52508 0.0
H1274 H 0.55245 0.85013 0.53626 0.0
H1275 H 0.56163 0.80548 0.57563 0.0
H1276 H 0.49307 0.90326 0.53501 0.0
H1277 H 0.50421 0.81364 0.43137 0.0
H1278 H 0.47936 0.80303 0.46659 0.0
H1279 H 0.52319 0.80615 0.47086 0.0
C1280 C 0.4804 0.79116 0.55886 0.0
C1281 C 0.51165 0.78645 0.57299 0.0
C1282 C 0.47524 0.81669 0.53643 0.0
C1283 C 0.50116 0.83802 0.52797 0.0
C1284 C 0.5321 0.83402 0.54275 0.0
H1285 H 0.5649 0.98368 0.39863 0.0
H1286 H 0.54303 0.95858 0.44844 0.0
C1287 C 0.53735 0.80839 0.56502 0.0
C1288 C 0.49706 0.86245 0.50138 0.0
H1289 H 0.50009 0.86918 0.41788 0.0
C1290 C 0.49414 0.89591 0.50933 0.0
C1291 C 0.49811 0.85267 0.46803 0.0
C1292 C 0.50147 0.81697 0.4584 0.0
C1293 C 0.49318 0.92006 0.48455 0.0
C1294 C 0.49604 0.91041 0.45115 0.0
C1295 C 0.49757 0.87673 0.44339 0.0
C1296 C 0.50205 0.93424 0.42401 0.0
C1297 C 0.48937 0.95555 0.49451 0.0
C1298 C 0.48535 0.93064 0.39383 0.0
C1299 C 0.49826 0.9446 0.3651 0.0
C1300 C 0.52805 0.96237 0.36621 0.0
C1301 C 0.54201 0.96987 0.39708 0.0
C1302 C 0.52936 0.9556 0.4257 0.0
H1303 H 0.47334 0.95752 0.5165 0.0
H1304 H 0.51385 0.96589 0.50122 0.0
H1305 H 0.47866 0.97062 0.47446 0.0
H1306 H 0.46411 0.91445 0.39193 0.0
H1307 H 0.48697 0.9383 0.34171 0.0
H1308 H 0.46958 0.23214 0.76814 0.0
H1309 H 0.43103 0.22733 0.72172 0.0
H1310 H 0.37534 0.30864 0.76007 0.0
H1311 H 0.41376 0.31382 0.80632 0.0
H1312 H 0.33928 0.2431 0.72854 0.0
H1313 H 0.43258 0.31257 0.65493 0.0
H1314 H 0.44516 0.27901 0.6809 0.0
H1315 H 0.43119 0.31653 0.6992 0.0
C1316 C 0.44879 0.2486 0.76698 0.0
C1317 C 0.44484 0.27358 0.79065 0.0
C1318 C 0.42676 0.24571 0.74057 0.0
C1319 C 0.40039 0.26756 0.73767 0.0
C1320 C 0.39544 0.2914 0.76213 0.0
H1321 H 0.25494 0.35045 0.6233 0.0
H1322 H 0.28155 0.31427 0.66272 0.0
C1323 C 0.41753 0.29445 0.78837 0.0
C1324 C 0.38056 0.26881 0.70718 0.0
H1325 H 0.38023 0.30593 0.63216 0.0
C1326 C 0.34828 0.25627 0.70711 0.0
C1327 C 0.39262 0.28557 0.67924 0.0
C1328 C 0.42725 0.29932 0.67825 0.0
C1329 C 0.32716 0.26144 0.68013 0.0
C1330 C 0.33845 0.28049 0.65319 0.0
C1331 C 0.37143 0.29124 0.65266 0.0
C1332 C 0.31599 0.2938 0.62761 0.0
C1333 C 0.29296 0.24682 0.68102 0.0
C1334 C 0.32549 0.29364 0.59432 0.0
C1335 C 0.31071 0.315 0.57189 0.0
C1336 C 0.28585 0.33644 0.5823 0.0
C1337 C 0.27378 0.33386 0.61457 0.0
C1338 C 0.28895 0.31295 0.63715 0.0
H1339 H 0.29287 0.22326 0.69475 0.0
H1340 H 0.27629 0.26387 0.69417 0.0
H1341 H 0.28308 0.24236 0.65587 0.0
H1342 H 0.34623 0.27908 0.58632 0.0
H1343 H 0.32041 0.3166 0.5471 0.0
H1344 H 0.0372 0.18717 0.04909 0.0
H1345 H 0.0282 0.14019 0.01227 0.0
H1346 H 0.9685 0.09303 0.08645 0.0
H1347 H 0.97701 0.14004 0.12318 0.0
H1348 H 0.03989 0.07344 0.01569 0.0
H1349 H 0.90525 0.0974 0.01004 0.0
H1350 H 0.93425 0.12689 0.02665 0.0
H1351 H 0.92169 0.09199 0.05066 0.0
C1352 C 0.02237 0.16664 0.05765 0.0
C1353 C 0.00745 0.16747 0.08886 0.0
C1354 C 0.01734 0.13976 0.03663 0.0
C1355 C 0.99723 0.11327 0.04637 0.0
C1356 C 0.9836 0.11339 0.07814 0.0
H1357 H 0.90452 0.97498 0.91222 0.0
H1358 H 0.93223 0.99004 0.9637 0.0
C1359 C 0.98858 0.14026 0.09916 0.0
C1360 C 0.98906 0.08669 0.02247 0.0
H1361 H 0.92499 0.05367 0.97885 0.0
C1362 C 0.01473 0.06889 0.0078 0.0
C1363 C 0.95623 0.08061 0.01227 0.0
C1364 C 0.92774 0.10034 0.02542 0.0
C1365 C 0.00849 0.04597 0.9825 0.0
C1366 C 0.9758 0.04083 0.97155 0.0
C1367 C 0.95006 0.05734 0.98745 0.0
C1368 C 0.9676 0.02266 0.94079 0.0
C1369 C 0.037 0.028 0.96732 0.0
C1370 C 0.97978 0.03422 0.91054 0.0
C1371 C 0.96419 0.02539 0.88103 0.0
C1372 C 0.93592 0.00524 0.8814 0.0
C1373 C 0.92626 0.99058 0.91125 0.0
C1374 C 0.94201 0.99924 0.9407 0.0
H1375 H 0.05736 0.02518 0.98533 0.0
H1376 H 0.02941 0.00332 0.95821 0.0
H1377 H 0.04665 0.04245 0.94624 0.0
H1378 H 0.99906 0.05275 0.90988 0.0
H1379 H 0.97194 0.0374 0.85851 0.0
H1380 H 0.084 0.78914 0.27255 0.0
H1381 H 0.12334 0.78232 0.22736 0.0
H1382 H 0.16213 0.69592 0.2745 0.0
H1383 H 0.12294 0.7025 0.3197 0.0
H1384 H 0.21104 0.74218 0.24038 0.0
H1385 H 0.10319 0.70057 0.16547 0.0
H1386 H 0.10046 0.73961 0.18619 0.0
H1387 H 0.10172 0.70242 0.20985 0.0
C1388 C 0.10132 0.76906 0.27358 0.0
C1389 C 0.10011 0.74607 0.29937 0.0
C1390 C 0.12379 0.76526 0.24782 0.0
C1391 C 0.14538 0.7385 0.24757 0.0
C1392 C 0.14567 0.71676 0.27434 0.0
H1393 H 0.26323 0.61805 0.13013 0.0
H1394 H 0.24604 0.65735 0.17201 0.0
C1395 C 0.12314 0.72045 0.30001 0.0
C1396 C 0.16445 0.73044 0.21771 0.0
H1397 H 0.15513 0.69545 0.14197 0.0
C1398 C 0.19895 0.73243 0.21857 0.0
C1399 C 0.14849 0.71792 0.18935 0.0
C1400 C 0.11145 0.71474 0.18745 0.0
C1401 C 0.21801 0.7213 0.19194 0.0
C1402 C 0.20205 0.70707 0.16426 0.0
C1403 C 0.16747 0.70652 0.16301 0.0
C1404 C 0.21995 0.68896 0.13807 0.0
C1405 C 0.25495 0.72466 0.19392 0.0
C1406 C 0.21175 0.69383 0.10478 0.0
C1407 C 0.22091 0.67084 0.08093 0.0
C1408 C 0.23891 0.64292 0.08992 0.0
C1409 C 0.24983 0.6397 0.12255 0.0
C1410 C 0.24013 0.66234 0.14651 0.0
H1411 H 0.26223 0.74617 0.20928 0.0
H1412 H 0.26521 0.70241 0.2058 0.0
H1413 H 0.26612 0.72736 0.16912 0.0
H1414 H 0.19614 0.7141 0.09764 0.0
H1415 H 0.21208 0.67367 0.05591 0.0
H1416 H 0.56232 0.20337 0.92925 0.0
H1417 H 0.55849 0.1632 0.97396 0.0
H1418 H 0.45361 0.17804 0.9793 0.0
H1419 H 0.45721 0.2181 0.93451 0.0
H1420 H 0.53681 0.17907 0.0361 0.0
H1421 H 0.46281 0.07704 0.98338 0.0
H1422 H 0.48084 0.109 0.9583 0.0
H1423 H 0.44275 0.11612 0.97959 0.0
C1424 C 0.53837 0.19769 0.9396 0.0
C1425 C 0.51009 0.21398 0.92849 0.0
C1426 C 0.53622 0.17473 0.9651 0.0
C1427 C 0.50573 0.16741 0.97974 0.0
C1428 C 0.47729 0.18287 0.96797 0.0
H1429 H 0.48414 0.10514 0.18106 0.0
H1430 H 0.47402 0.12972 0.12698 0.0
C1431 C 0.47943 0.20593 0.94253 0.0
C1432 C 0.50424 0.14644 0.00954 0.0
H1433 H 0.46873 0.07734 0.04226 0.0
C1434 C 0.52206 0.15674 0.03736 0.0
C1435 C 0.48521 0.11715 0.01104 0.0
C1436 C 0.46705 0.10398 0.98136 0.0
C1437 C 0.52093 0.13895 0.06684 0.0
C1438 C 0.50081 0.11043 0.06882 0.0
C1439 C 0.48356 0.09958 0.04082 0.0
C1440 C 0.49873 0.09137 0.09978 0.0
C1441 C 0.54165 0.15067 0.09557 0.0
C1442 C 0.51387 0.06056 0.10203 0.0
C1443 C 0.51946 0.04639 0.1329 0.0
C1444 C 0.50989 0.06286 0.16176 0.0
C1445 C 0.49185 0.09207 0.15914 0.0
C1446 C 0.48614 0.10612 0.12833 0.0
H1447 H 0.56121 0.16823 0.08773 0.0
H1448 H 0.52569 0.16343 0.11362 0.0
H1449 H 0.55343 0.12964 0.10826 0.0
H1450 H 0.52363 0.04874 0.08023 0.0
H1451 H 0.53373 0.02404 0.13432 0.0
H1452 H 0.09044 0.20489 0.22516 0.0
H1453 H 0.13024 0.21116 0.27039 0.0
H1454 H 0.14434 0.31318 0.24477 0.0
H1455 H 0.1051 0.30709 0.19957 0.0
H1456 H 0.2038 0.27868 0.26816 0.0
H1457 H 0.09403 0.26504 0.34972 0.0
H1458 H 0.10302 0.23253 0.32109 0.0
H1459 H 0.08971 0.27171 0.30604 0.0
C1460 C 0.10258 0.22846 0.22878 0.0
C1461 C 0.09419 0.25569 0.20927 0.0
C1462 C 0.12531 0.23196 0.25456 0.0
C1463 C 0.13982 0.26275 0.26115 0.0
C1464 C 0.13334 0.28923 0.24013 0.0
H1465 H 0.20877 0.40343 0.3845 0.0
H1466 H 0.20685 0.36153 0.34159 0.0
C1467 C 0.11073 0.28577 0.21442 0.0
C1468 C 0.15757 0.26928 0.29238 0.0
H1469 H 0.14152 0.28755 0.37267 0.0
C1470 C 0.19053 0.27987 0.29126 0.0
C1471 C 0.14032 0.27039 0.3226 0.0
C1472 C 0.10478 0.25948 0.32521 0.0
C1473 C 0.20595 0.2937 0.3191 0.0
C1474 C 0.18759 0.29786 0.34839 0.0
C1475 C 0.15564 0.28452 0.35023 0.0
C1476 C 0.19801 0.32089 0.37498 0.0
C1477 C 0.24139 0.3046 0.31641 0.0
C1478 C 0.19466 0.31208 0.40829 0.0
C1479 C 0.19531 0.33624 0.43292 0.0
C1480 C 0.19912 0.36958 0.42454 0.0
C1481 C 0.2055 0.37793 0.39158 0.0
C1482 C 0.20479 0.35387 0.36704 0.0
H1483 H 0.2557 0.28605 0.30249 0.0
H1484 H 0.2427 0.32807 0.30251 0.0
H1485 H 0.25314 0.30815 0.34087 0.0
H1486 H 0.18924 0.28683 0.41501 0.0
H1487 H 0.19015 0.32911 0.4581 0.0
H1488 H 0.06713 0.84319 0.42617 0.0
H1489 H 0.06726 0.88238 0.47235 0.0
H1490 H 0.9749 0.84174 0.50611 0.0
H1491 H 0.97418 0.80336 0.45987 0.0
H1492 H 0.97669 0.91013 0.50567 0.0
H1493 H 0.08721 0.85964 0.56899 0.0
H1494 H 0.08929 0.86782 0.52554 0.0
H1495 H 0.06344 0.83518 0.54021 0.0
C1496 C 0.04681 0.84279 0.4434 0.0
C1497 C 0.02067 0.82015 0.43947 0.0
C1498 C 0.04705 0.86501 0.46988 0.0
C1499 C 0.02135 0.86463 0.49296 0.0
C1500 C 0.99503 0.84242 0.48863 0.0
H1501 H 0.97351 0.89121 0.68605 0.0
H1502 H 0.00156 0.87902 0.63447 0.0
C1503 C 0.99465 0.82048 0.46218 0.0
C1504 C 0.02116 0.88693 0.52195 0.0
H1505 H 0.05509 0.89708 0.59837 0.0
C1506 C 0.99422 0.90796 0.52573 0.0
C1507 C 0.04405 0.88377 0.54804 0.0
C1508 C 0.07263 0.86038 0.54583 0.0
C1509 C 0.98784 0.92369 0.5558 0.0
C1510 C 0.00998 0.9195 0.58247 0.0
C1511 C 0.03838 0.90054 0.57782 0.0
C1512 C 0.00066 0.92912 0.61653 0.0
C1513 C 0.95567 0.94171 0.55968 0.0
C1514 C 0.99267 0.96171 0.62463 0.0
C1515 C 0.97599 0.96866 0.65398 0.0
C1516 C 0.96751 0.94314 0.67584 0.0
C1517 C 0.97906 0.91127 0.66937 0.0
C1518 C 0.99532 0.90431 0.63995 0.0
H1519 H 0.93936 0.93869 0.53787 0.0
H1520 H 0.94225 0.93266 0.58173 0.0
H1521 H 0.96048 0.96835 0.56311 0.0
H1522 H 0.99737 0.98144 0.60737 0.0
H1523 H 0.96756 0.99351 0.65827 0.0
H1524 H 0.42765 0.73693 0.69773 0.0
H1525 H 0.38688 0.72853 0.7416 0.0
H1526 H 0.44175 0.64527 0.77688 0.0
H1527 H 0.482 0.65307 0.73301 0.0
H1528 H 0.37487 0.63278 0.76941 0.0
H1529 H 0.39745 0.74802 0.84067 0.0
H1530 H 0.38803 0.75203 0.79755 0.0
H1531 H 0.42596 0.7334 0.80997 0.0
C1532 C 0.431 0.7169 0.71495 0.0
C1533 C 0.45799 0.69562 0.71198 0.0
C1534 C 0.4078 0.71228 0.74006 0.0
C1535 C 0.41148 0.68649 0.76266 0.0
C1536 C 0.43846 0.66534 0.75968 0.0
H1537 H 0.37076 0.62343 0.94877 0.0
H1538 H 0.38343 0.65846 0.90164 0.0
C1539 C 0.46147 0.66982 0.73461 0.0
C1540 C 0.38713 0.68042 0.78914 0.0
H1541 H 0.36126 0.70912 0.86377 0.0
C1542 C 0.37133 0.64966 0.78981 0.0
C1543 C 0.38263 0.70264 0.81557 0.0
C1544 C 0.39949 0.73584 0.81624 0.0
C1545 C 0.35309 0.6394 0.81725 0.0
C1546 C 0.34966 0.66106 0.84445 0.0
C1547 C 0.36366 0.69274 0.8428 0.0
C1548 C 0.3372 0.64893 0.87658 0.0
C1549 C 0.34007 0.60447 0.81783 0.0
C1550 C 0.30599 0.63399 0.87938 0.0
C1551 C 0.29893 0.61357 0.90623 0.0
C1552 C 0.32264 0.60883 0.93089 0.0
C1553 C 0.35201 0.62716 0.93015 0.0
C1554 C 0.35927 0.64708 0.90316 0.0
H1555 H 0.34976 0.58947 0.79715 0.0
H1556 H 0.34671 0.59218 0.84129 0.0
H1557 H 0.31284 0.60469 0.81574 0.0
H1558 H 0.2883 0.63574 0.85949 0.0
H1559 H 0.27628 0.59931 0.90626 0.0
H1560 H 0.56529 0.53577 0.80028 0.0
H1561 H 0.5258 0.52137 0.84313 0.0
H1562 H 0.55649 0.42011 0.83871 0.0
H1563 H 0.59611 0.4344 0.79526 0.0
H1564 H 0.4899 0.42485 0.83827 0.0
H1565 H 0.53859 0.50017 0.93966 0.0
H1566 H 0.53531 0.5256 0.90382 0.0
H1567 H 0.56283 0.49094 0.90359 0.0
C1568 C 0.56395 0.5105 0.80864 0.0
C1569 C 0.58389 0.48626 0.79448 0.0
C1570 C 0.54152 0.50232 0.83335 0.0
C1571 C 0.53862 0.46977 0.84464 0.0
C1572 C 0.55856 0.44543 0.83063 0.0
H1573 H 0.39052 0.4925 0.99407 0.0
H1574 H 0.43805 0.46431 0.97197 0.0
C1575 C 0.58118 0.45365 0.80586 0.0
C1576 C 0.51294 0.4615 0.86932 0.0
H1577 H 0.47859 0.49394 0.93824 0.0
C1578 C 0.48774 0.43923 0.86069 0.0
C1579 C 0.51069 0.47889 0.89937 0.0
C1580 C 0.53859 0.4999 0.91229 0.0
C1581 C 0.45868 0.43699 0.87936 0.0
C1582 C 0.45437 0.45841 0.90658 0.0
C1583 C 0.48122 0.47778 0.91716 0.0
C1584 C 0.42152 0.46529 0.92125 0.0
C1585 C 0.43273 0.41228 0.8691 0.0
C1586 C 0.3951 0.47364 0.90058 0.0
C1587 C 0.36734 0.48912 0.91336 0.0
C1588 C 0.36583 0.49756 0.94694 0.0
C1589 C 0.39071 0.48633 0.96811 0.0
C1590 C 0.4182 0.47029 0.95538 0.0
H1591 H 0.44441 0.38918 0.86052 0.0
H1592 H 0.4156 0.40632 0.88956 0.0
H1593 H 0.41848 0.42225 0.84808 0.0
H1594 H 0.39697 0.47095 0.87413 0.0
H1595 H 0.3483 0.49694 0.89646 0.0
H1596 H 0.67626 0.32654 0.15078 0.0
H1597 H 0.65432 0.28664 0.1898 0.0
H1598 H 0.74516 0.23261 0.18555 0.0
H1599 H 0.76759 0.27304 0.14672 0.0
H1600 H 0.6443 0.22656 0.1695 0.0
H1601 H 0.7219 0.22176 0.2816 0.0
H1602 H 0.72509 0.25476 0.25205 0.0
H1603 H 0.7451 0.2162 0.24443 0.0
C1604 C 0.692 0.30676 0.15892 0.0
C1605 C 0.7235 0.3027 0.14545 0.0
C1606 C 0.67945 0.28401 0.18134 0.0
C1607 C 0.69807 0.25668 0.1908 0.0
C1608 C 0.73051 0.25381 0.1792 0.0
H1609 H 0.62921 0.06354 0.23451 0.0
H1610 H 0.66647 0.11121 0.23293 0.0
C1611 C 0.74323 0.27682 0.15681 0.0
C1612 C 0.6813 0.22879 0.20755 0.0
H1613 H 0.68432 0.1761 0.27311 0.0
C1614 C 0.6529 0.21592 0.1924 0.0
C1615 C 0.69283 0.21444 0.23712 0.0
C1616 C 0.72274 0.2277 0.25492 0.0
C1617 C 0.6358 0.18913 0.20569 0.0
C1618 C 0.64709 0.17486 0.23531 0.0
C1619 C 0.6756 0.1874 0.25059 0.0
C1620 C 0.62973 0.14589 0.24906 0.0
C1621 C 0.60604 0.1758 0.18744 0.0
C1622 C 0.59751 0.14938 0.26092 0.0
C1623 C 0.57615 0.12228 0.26148 0.0
C1624 C 0.58699 0.09137 0.25068 0.0
C1625 C 0.62045 0.0871 0.24327 0.0
C1626 C 0.64174 0.11431 0.24234 0.0
H1627 H 0.60408 0.18591 0.16212 0.0
H1628 H 0.60692 0.14855 0.18575 0.0
H1629 H 0.58338 0.18247 0.20107 0.0
H1630 H 0.58785 0.1736 0.26616 0.0
H1631 H 0.55039 0.12613 0.26708 0.0
H1632 H 0.94787 0.56581 0.25988 0.0
H1633 H 0.98868 0.56605 0.30449 0.0
H1634 H 0.95903 0.46769 0.33141 0.0
H1635 H 0.9183 0.46712 0.28679 0.0
H1636 H 0.96984 0.52159 0.3867 0.0
H1637 H 0.07233 0.50144 0.29775 0.0
H1638 H 0.04227 0.53259 0.289 0.0
H1639 H 0.03039 0.49005 0.28788 0.0
C1640 C 0.94989 0.54432 0.27543 0.0
C1641 C 0.93007 0.51633 0.2697 0.0
C1642 C 0.97313 0.54455 0.30092 0.0
C1643 C 0.97677 0.5169 0.32114 0.0
C1644 C 0.95642 0.4893 0.31609 0.0
H1645 H 0.09161 0.42986 0.46967 0.0
H1646 H 0.04677 0.45612 0.43968 0.0
C1647 C 0.93332 0.48896 0.2905 0.0
C1648 C 0.00331 0.51563 0.34608 0.0
H1649 H 0.08523 0.50002 0.35381 0.0
C1650 C 0.9952 0.51733 0.37961 0.0
C1651 C 0.03632 0.51045 0.33671 0.0
C1652 C 0.04612 0.50838 0.30092 0.0
C1653 C 0.01925 0.5129 0.40412 0.0
C1654 C 0.052 0.50574 0.39477 0.0
C1655 C 0.06023 0.50559 0.36114 0.0
C1656 C 0.07738 0.49466 0.41867 0.0
C1657 C 0.00896 0.51537 0.43966 0.0
C1658 C 0.10952 0.5078 0.41752 0.0
C1659 C 0.13522 0.49241 0.43432 0.0
C1660 C 0.12906 0.46397 0.45284 0.0
C1661 C 0.09667 0.45221 0.456 0.0
C1662 C 0.07105 0.4673 0.43891 0.0
H1663 H 0.99078 0.53535 0.44297 0.0
H1664 H 0.99697 0.49189 0.44687 0.0
H1665 H 0.03002 0.52003 0.45641 0.0
H1666 H 0.11505 0.52879 0.40204 0.0
H1667 H 0.16018 0.50148 0.4312 0.0
H1668 H 0.67317 0.70958 0.63779 0.0
H1669 H 0.68977 0.75429 0.67491 0.0
H1670 H 0.79123 0.72477 0.6658 0.0
H1671 H 0.77456 0.67925 0.63064 0.0
H1672 H 0.78449 0.74872 0.7225 0.0
H1673 H 0.72356 0.83576 0.6366 0.0
H1674 H 0.6959 0.80857 0.65772 0.0
H1675 H 0.7249 0.79233 0.62842 0.0
C1676 C 0.69889 0.7122 0.64448 0.0
C1677 C 0.72263 0.69131 0.63078 0.0
C1678 C 0.70845 0.73804 0.66543 0.0
C1679 C 0.74197 0.74391 0.67226 0.0
C1680 C 0.76523 0.72122 0.66078 0.0
H1681 H 0.85923 0.91015 0.66804 0.0
H1682 H 0.81807 0.86687 0.66257 0.0
C1683 C 0.75566 0.69514 0.64046 0.0
C1684 C 0.75386 0.77492 0.68826 0.0
H1685 H 0.75639 0.85836 0.67791 0.0
C1686 C 0.77806 0.77274 0.71297 0.0
C1687 C 0.74563 0.80642 0.6758 0.0
C1688 C 0.72131 0.81103 0.64802 0.0
C1689 C 0.79619 0.8005 0.72336 0.0
C1690 C 0.78836 0.8318 0.71042 0.0
C1691 C 0.76226 0.83437 0.6879 0.0
C1692 C 0.81044 0.86088 0.71502 0.0
C1693 C 0.82551 0.79557 0.74564 0.0
C1694 C 0.81926 0.87296 0.74637 0.0
C1695 C 0.84358 0.89756 0.74959 0.0
C1696 C 0.85913 0.9105 0.72147 0.0
C1697 C 0.84834 0.90006 0.69021 0.0
C1698 C 0.82452 0.87546 0.68704 0.0
H1699 H 0.83232 0.76923 0.74763 0.0
H1700 H 0.8473 0.80938 0.73641 0.0
H1701 H 0.81966 0.80487 0.77064 0.0
H1702 H 0.80811 0.86273 0.76832 0.0
H1703 H 0.85121 0.90538 0.77397 0.0
H1704 H 0.56016 0.45332 0.65532 0.0
H1705 H 0.51191 0.44933 0.62021 0.0
H1706 H 0.525 0.55073 0.59138 0.0
H1707 H 0.57213 0.55556 0.62895 0.0
H1708 H 0.46507 0.54225 0.60004 0.0
H1709 H 0.50082 0.43525 0.52652 0.0
H1710 H 0.50274 0.42306 0.56864 0.0
H1711 H 0.52957 0.45545 0.55392 0.0
C1712 C 0.55299 0.47473 0.64127 0.0
C1713 C 0.57009 0.50467 0.64471 0.0
C1714 C 0.52554 0.4723 0.62074 0.0
C1715 C 0.5152 0.49936 0.60199 0.0
C1716 C 0.53245 0.52937 0.60526 0.0
H1717 H 0.34207 0.42929 0.49344 0.0
H1718 H 0.3951 0.45813 0.49875 0.0
C1719 C 0.55947 0.53211 0.62668 0.0
C1720 C 0.48474 0.49664 0.58154 0.0
H1721 H 0.44105 0.44132 0.53536 0.0
C1722 C 0.46018 0.52054 0.58521 0.0
C1723 C 0.47831 0.46912 0.56094 0.0
C1724 C 0.50453 0.44459 0.55199 0.0
C1725 C 0.42865 0.51606 0.57155 0.0
C1726 C 0.4209 0.48619 0.55513 0.0
C1727 C 0.44636 0.46388 0.54873 0.0
C1728 C 0.38629 0.47545 0.54851 0.0
C1729 C 0.40385 0.54319 0.57559 0.0
C1730 C 0.36303 0.47627 0.57413 0.0
C1731 C 0.33254 0.46056 0.57068 0.0
C1732 C 0.32487 0.44312 0.54184 0.0
C1733 C 0.34729 0.44328 0.51561 0.0
C1734 C 0.37767 0.45957 0.51881 0.0
H1735 H 0.41614 0.56768 0.57447 0.0
H1736 H 0.38442 0.54205 0.55634 0.0
H1737 H 0.39218 0.54118 0.6002 0.0
H1738 H 0.36922 0.48697 0.59779 0.0
H1739 H 0.31593 0.45988 0.59155 0.0
H1740 H 0.70373 0.26331 0.98915 0.0
H1741 H 0.70991 0.21366 0.95527 0.0
H1742 H 0.81545 0.22122 0.96512 0.0
H1743 H 0.80947 0.27028 0.99935 0.0
H1744 H 0.74253 0.20297 0.89618 0.0
H1745 H 0.79665 0.12764 0.99542 0.0
H1746 H 0.77658 0.16629 0.00343 0.0
H1747 H 0.81875 0.16558 0.98982 0.0
C1748 C 0.72822 0.25432 0.9841 0.0
C1749 C 0.75611 0.27049 0.99715 0.0
C1750 C 0.73172 0.22601 0.96473 0.0
C1751 C 0.76311 0.21339 0.95822 0.0
C1752 C 0.79096 0.23006 0.9705 0.0
H1753 H 0.8503 0.09424 0.81398 0.0
H1754 H 0.81736 0.13597 0.84126 0.0
C1755 C 0.7875 0.2582 0.98992 0.0
C1756 C 0.76715 0.18288 0.93857 0.0
H1757 H 0.80519 0.1085 0.94017 0.0
C1758 C 0.75577 0.18204 0.90589 0.0
C1759 C 0.78366 0.15525 0.95147 0.0
C1760 C 0.79429 0.15353 0.98707 0.0
C1761 C 0.76232 0.15511 0.88517 0.0
C1762 C 0.78127 0.12868 0.89734 0.0
C1763 C 0.79086 0.12876 0.93061 0.0
C1764 C 0.79442 0.10229 0.87574 0.0
C1765 C 0.74916 0.15546 0.85043 0.0
C1766 C 0.792 0.06915 0.88532 0.0
C1767 C 0.81122 0.04524 0.86993 0.0
C1768 C 0.83308 0.05404 0.84457 0.0
C1769 C 0.83324 0.08661 0.83304 0.0
C1770 C 0.81432 0.11056 0.84867 0.0
H1771 H 0.7258 0.16943 0.84899 0.0
H1772 H 0.76728 0.16793 0.83417 0.0
H1773 H 0.74471 0.13017 0.84094 0.0
H1774 H 0.77686 0.06214 0.90614 0.0
H1775 H 0.81072 0.02032 0.87934 0.0
H1776 H 0.92613 0.44901 0.10938 0.0
H1777 H 0.97218 0.44314 0.07093 0.0
H1778 H 0.98942 0.54801 0.07535 0.0
H1779 H 0.94233 0.55412 0.11147 0.0
H1780 H 0.0045 0.52887 0.0181 0.0
H1781 H 0.0618 0.43853 0.10378 0.0
H1782 H 0.0246 0.42594 0.0835 0.0
H1783 H 0.0237 0.45824 0.11399 0.0
C1784 C 0.93962 0.47078 0.10173 0.0
C1785 C 0.93121 0.50195 0.11403 0.0
C1786 C 0.96611 0.46736 0.07999 0.0
C1787 C 0.98529 0.4949 0.07115 0.0
C1788 C 0.97537 0.52621 0.08186 0.0
H1789 H 0.16353 0.56147 0.08962 0.0
H1790 H 0.11001 0.53472 0.08555 0.0
C1791 C 0.9485 0.52972 0.1028 0.0
C1792 C 0.01735 0.49187 0.05367 0.0
H1793 H 0.09593 0.46591 0.0674 0.0
C1794 C 0.02426 0.51424 0.02814 0.0
C1795 C 0.04333 0.47249 0.06642 0.0
C1796 C 0.03818 0.44755 0.09349 0.0
C1797 C 0.0567 0.52107 0.01837 0.0
C1798 C 0.08278 0.50442 0.03392 0.0
C1799 C 0.07566 0.47881 0.0559 0.0
C1800 C 0.11626 0.5189 0.03503 0.0
C1801 C 0.06312 0.54856 0.99426 0.0
C1802 C 0.13771 0.51865 0.00792 0.0
C1803 C 0.16861 0.53432 0.01014 0.0
C1804 C 0.17803 0.55056 0.03938 0.0
C1805 C 0.15667 0.54987 0.06652 0.0
C1806 C 0.12619 0.53431 0.06434 0.0
H1807 H 0.04002 0.55808 0.98325 0.0
H1808 H 0.07607 0.56914 0.00698 0.0
H1809 H 0.07932 0.53984 0.97413 0.0
H1810 H 0.13049 0.50663 0.98516 0.0
H1811 H 0.18478 0.53435 0.98895 0.0
H1812 H 0.72203 0.68511 0.43733 0.0
H1813 H 0.71528 0.72787 0.39554 0.0
H1814 H 0.65721 0.78463 0.46364 0.0
H1815 H 0.66331 0.74171 0.50529 0.0
H1816 H 0.62822 0.77764 0.40319 0.0
H1817 H 0.75826 0.81897 0.38947 0.0
H1818 H 0.75119 0.7756 0.38408 0.0
H1819 H 0.74441 0.79414 0.42366 0.0
C1820 C 0.70796 0.70679 0.44342 0.0
C1821 C 0.69315 0.71009 0.47454 0.0
C1822 C 0.70436 0.73131 0.41961 0.0
C1823 C 0.68618 0.75964 0.42666 0.0
C1824 C 0.6715 0.763 0.45778 0.0
H1825 H 0.65063 0.94706 0.35082 0.0
H1826 H 0.67963 0.89926 0.3723 0.0
C1827 C 0.67495 0.73847 0.48152 0.0
C1828 C 0.68067 0.78506 0.40119 0.0
H1829 H 0.71909 0.84348 0.35416 0.0
C1830 C 0.6481 0.79185 0.39225 0.0
C1831 C 0.70671 0.80359 0.38711 0.0
C1832 C 0.74212 0.798 0.39669 0.0
C1833 C 0.64066 0.81728 0.37034 0.0
C1834 C 0.66665 0.83589 0.35618 0.0
C1835 C 0.69934 0.82873 0.36457 0.0
C1836 C 0.65953 0.86541 0.33619 0.0
C1837 C 0.60489 0.82505 0.36388 0.0
C1838 C 0.64111 0.8627 0.30701 0.0
C1839 C 0.62428 0.88998 0.29484 0.0
C1840 C 0.62596 0.9202 0.31168 0.0
C1841 C 0.64865 0.92391 0.33765 0.0
C1842 C 0.66522 0.8966 0.34996 0.0
H1843 H 0.58815 0.81232 0.38142 0.0
H1844 H 0.60057 0.85193 0.36571 0.0
H1845 H 0.59819 0.81698 0.3386 0.0
H1846 H 0.63694 0.83885 0.29572 0.0
H1847 H 0.60703 0.88636 0.27475 0.0
H1848 H 0.81983 0.62983 0.51405 0.0
H1849 H 0.87183 0.60076 0.50605 0.0
H1850 H 0.82497 0.50996 0.53576 0.0
H1851 H 0.77324 0.53896 0.54457 0.0
H1852 H 0.88326 0.52111 0.56709 0.0
H1853 H 0.89812 0.53829 0.43205 0.0
H1854 H 0.89334 0.57533 0.45573 0.0
H1855 H 0.85985 0.5463 0.45306 0.0
C1856 C 0.82062 0.60364 0.51872 0.0
C1857 C 0.79251 0.58661 0.52993 0.0
C1858 C 0.85027 0.58705 0.5139 0.0
C1859 C 0.85212 0.55314 0.51984 0.0
C1860 C 0.82402 0.53614 0.53092 0.0
H1861 H 0.96783 0.39047 0.48195 0.0
H1862 H 0.93688 0.44074 0.47222 0.0
C1863 C 0.79449 0.55271 0.53595 0.0
C1864 C 0.88352 0.53527 0.5161 0.0
H1865 H 0.93939 0.50868 0.45947 0.0
C1866 C 0.89589 0.51878 0.54369 0.0
C1867 C 0.8998 0.53226 0.48545 0.0
C1868 C 0.88705 0.54873 0.45476 0.0
C1869 C 0.92347 0.4985 0.54138 0.0
C1870 C 0.93966 0.49516 0.51066 0.0
C1871 C 0.9277 0.51218 0.48315 0.0
C1872 C 0.9657 0.4703 0.5062 0.0
C1873 C 0.93363 0.47913 0.57144 0.0
C1874 C 0.9942 0.47125 0.52577 0.0
C1875 C 0.01167 0.4424 0.53168 0.0
C1876 C 0.00119 0.41271 0.51727 0.0
C1877 C 0.97643 0.4132 0.49315 0.0
C1878 C 0.95857 0.44189 0.48777 0.0
H1879 H 0.91514 0.48055 0.59152 0.0
H1880 H 0.93719 0.45283 0.56502 0.0
H1881 H 0.9573 0.48896 0.58112 0.0
H1882 H 1.00041 0.49315 0.5396 0.0
H1883 H 0.03062 0.44246 0.55049 0.0
H1884 H 0.26938 0.96008 0.49893 0.0
H1885 H 0.31157 0.00257 0.49176 0.0
H1886 H 0.33615 0.99685 0.59492 0.0
H1887 H 0.29352 0.95413 0.60247 0.0
H1888 H 0.31673 0.06595 0.53031 0.0
H1889 H 0.42483 0.98307 0.53898 0.0
H1890 H 0.38522 0.96809 0.52521 0.0
H1891 H 0.39124 0.9784 0.56769 0.0
C1892 C 0.28366 0.96784 0.52017 0.0
C1893 C 0.27814 0.95372 0.55125 0.0
C1894 C 0.30772 0.99217 0.51602 0.0
C1895 C 0.32699 0.00272 0.54276 0.0
C1896 C 0.32156 0.98889 0.57397 0.0
H1897 H 0.44546 0.17842 0.49255 0.0
H1898 H 0.41663 0.14001 0.52964 0.0
C1899 C 0.29721 0.96458 0.57822 0.0
C1900 C 0.3527 0.02819 0.53728 0.0
H1901 H 0.43487 0.03737 0.52223 0.0
C1902 C 0.34272 0.06009 0.52925 0.0
C1903 C 0.38637 0.02007 0.53543 0.0
C1904 C 0.39785 0.98557 0.54218 0.0
C1905 C 0.3653 0.08377 0.51779 0.0
C1906 C 0.39913 0.07557 0.51528 0.0
C1907 C 0.4092 0.04394 0.52476 0.0
C1908 C 0.42317 0.09748 0.49811 0.0
C1909 C 0.35215 0.11638 0.50608 0.0
C1910 C 0.43898 0.08584 0.46968 0.0
C1911 C 0.45616 0.10747 0.44919 0.0
C1912 C 0.45787 0.14115 0.45669 0.0
C1913 C 0.4446 0.15247 0.48647 0.0
C1914 C 0.42773 0.13062 0.50733 0.0
H1915 H 0.32495 0.11589 0.50315 0.0
H1916 H 0.35838 0.13575 0.5244 0.0
H1917 H 0.36324 0.12339 0.48209 0.0
H1918 H 0.43613 0.06042 0.46205 0.0
H1919 H 0.46602 0.09832 0.42617 0.0
H1920 H 0.34532 0.11419 0.70533 0.0
H1921 H 0.31004 0.16195 0.69562 0.0
H1922 H 0.25089 0.1042 0.62823 0.0
H1923 H 0.28659 0.0571 0.63685 0.0
H1924 H 0.26571 0.16344 0.60342 0.0
H1925 H 0.21854 0.17786 0.7312 0.0
H1926 H 0.26246 0.1796 0.72624 0.0
H1927 H 0.24068 0.14184 0.71813 0.0
C1928 C 0.32471 0.11177 0.68852 0.0
C1929 C 0.31859 0.08193 0.67191 0.0
C1930 C 0.30447 0.13901 0.68315 0.0
C1931 C 0.27753 0.13656 0.66154 0.0
C1932 C 0.27154 0.1067 0.64501 0.0
H1933 H 0.09102 0.20689 0.63926 0.0
H1934 H 0.14413 0.19181 0.6617 0.0
C1935 C 0.29191 0.07975 0.65 0.0
C1936 C 0.25539 0.16474 0.65527 0.0
H1937 H 0.19576 0.21169 0.69068 0.0
C1938 C 0.25057 0.17433 0.62249 0.0
C1939 C 0.23598 0.17903 0.68032 0.0
C1940 C 0.23937 0.16902 0.71594 0.0
C1941 C 0.22488 0.19535 0.61352 0.0
C1942 C 0.2044 0.20871 0.63842 0.0
C1943 C 0.21131 0.20146 0.67159 0.0
C1944 C 0.17242 0.22454 0.63032 0.0
C1945 C 0.21841 0.20037 0.57721 0.0
C1946 C 0.17003 0.24988 0.60694 0.0
C1947 C 0.13954 0.25737 0.59273 0.0
C1948 C 0.11079 0.24055 0.60272 0.0
C1949 C 0.1128 0.2192 0.62986 0.0
C1950 C 0.14328 0.21086 0.64311 0.0
H1951 H 0.23254 0.18301 0.5616 0.0
H1952 H 0.19187 0.19695 0.57144 0.0
H1953 H 0.22593 0.22568 0.57015 0.0
H1954 H 0.19196 0.26214 0.59788 0.0
H1955 H 0.13904 0.27441 0.57229 0.0
H1956 H 0.12843 0.07477 0.05391 0.0
H1957 H 0.09327 0.02846 0.03685 0.0
H1958 H 0.17134 0.96104 0.06025 0.0
H1959 H 0.20595 0.00688 0.07835 0.0
H1960 H 0.10749 0.99024 0.98588 0.0
H1961 H 0.09373 0.91227 0.09537 0.0
H1962 H 0.11645 0.95057 0.0973 0.0
H1963 H 0.13627 0.91345 0.08401 0.0
C1964 C 0.13774 0.04999 0.05619 0.0
C1965 C 0.17004 0.0445 0.06728 0.0
C1966 C 0.11767 0.02353 0.04637 0.0
C1967 C 0.1295 0.99113 0.04743 0.0
C1968 C 0.16126 0.98561 0.05985 0.0
H1969 H 0.0976 0.80629 0.95409 0.0
H1970 H 0.11121 0.85174 0.99153 0.0
C1971 C 0.18117 0.01195 0.07001 0.0
C1972 C 0.11064 0.96378 0.0316 0.0
H1973 H 0.08464 0.8843 0.04191 0.0
C1974 C 0.10175 0.96735 0.99837 0.0
C1975 C 0.10394 0.93353 0.04761 0.0
C1976 C 0.11295 0.92748 0.08312 0.0
C1977 C 0.08751 0.94134 0.98037 0.0
C1978 C 0.08113 0.91094 0.99626 0.0
C1979 C 0.0892 0.90763 0.02975 0.0
C1980 C 0.0694 0.88145 0.97768 0.0
C1981 C 0.08133 0.94619 0.94401 0.0
C1982 C 0.0405 0.88221 0.95856 0.0
C1983 C 0.03303 0.85642 0.93678 0.0
C1984 C 0.05373 0.82901 0.9347 0.0
C1985 C 0.08107 0.82702 0.95571 0.0
C1986 C 0.08888 0.85303 0.97698 0.0
H1987 H 0.09431 0.9683 0.93433 0.0
H1988 H 0.08944 0.92443 0.92967 0.0
H1989 H 0.0546 0.94954 0.93973 0.0
H1990 H 0.02452 0.90338 0.95937 0.0
H1991 H 0.01196 0.85849 0.92055 0.0
H1992 H 0.71573 0.41508 0.73755 0.0
H1993 H 0.76221 0.37894 0.72549 0.0
H1994 H 0.784 0.43585 0.63845 0.0
H1995 H 0.73696 0.471 0.64967 0.0
H1996 H 0.78846 0.37329 0.62522 0.0
H1997 H 0.8571 0.39746 0.74147 0.0
H1998 H 0.81691 0.37956 0.74659 0.0
H1999 H 0.82109 0.42046 0.73017 0.0
C2000 C 0.7305 0.41978 0.71584 0.0
C2001 C 0.72287 0.44594 0.69461 0.0
C2002 C 0.75719 0.39925 0.70909 0.0
C2003 C 0.77705 0.40491 0.68133 0.0
C2004 C 0.76909 0.43087 0.66 0.0
H2005 H 0.97238 0.3872 0.63098 0.0
H2006 H 0.92085 0.3918 0.66081 0.0
C2007 C 0.74222 0.45103 0.66646 0.0
C2008 C 0.80626 0.38429 0.67394 0.0
H2009 H 0.88262 0.36388 0.70231 0.0
C2010 C 0.80901 0.371 0.64214 0.0
C2011 C 0.8329 0.38098 0.6962 0.0
C2012 C 0.83211 0.39555 0.73043 0.0
C2013 C 0.83849 0.35714 0.63094 0.0
C2014 C 0.86565 0.35481 0.65284 0.0
C2015 C 0.86189 0.36561 0.68554 0.0
C2016 C 0.89939 0.34699 0.64086 0.0
C2017 C 0.84082 0.34777 0.59498 0.0
C2018 C 0.90581 0.31899 0.62156 0.0
C2019 C 0.93506 0.31693 0.60339 0.0
C2020 C 0.95869 0.34239 0.60511 0.0
C2021 C 0.95421 0.36771 0.6283 0.0
C2022 C 0.92473 0.37024 0.64561 0.0
H2023 H 0.81992 0.35749 0.58033 0.0
H2024 H 0.86403 0.35725 0.584 0.0
H2025 H 0.84035 0.32059 0.59261 0.0
H2026 H 0.88731 0.29989 0.61868 0.0
H2027 H 0.93783 0.29685 0.58607 0.0
H2028 H 0.68108 0.44838 0.07969 0.0
H2029 H 0.63864 0.4884 0.06756 0.0
H2030 H 0.61253 0.43528 0.9791 0.0
H2031 H 0.65575 0.39496 0.99093 0.0
H2032 H 0.61816 0.50075 0.96839 0.0
H2033 H 0.54134 0.48426 0.07963 0.0
H2034 H 0.58423 0.48499 0.08905 0.0
H2035 H 0.56777 0.45224 0.06383 0.0
C2036 C 0.66607 0.44488 0.05784 0.0
C2037 C 0.6716 0.4184 0.03638 0.0
C2038 C 0.64149 0.46759 0.05114 0.0
C2039 C 0.62146 0.46412 0.02312 0.0
C2040 C 0.6271 0.43791 0.00133 0.0
H2041 H 0.49555 0.63515 0.04211 0.0
H2042 H 0.50448 0.57849 0.02312 0.0
C2043 C 0.65187 0.41504 0.00802 0.0
C2044 C 0.59688 0.48985 0.01577 0.0
H2045 H 0.54138 0.53822 0.05534 0.0
C2046 C 0.60065 0.50848 0.98694 0.0
C2047 C 0.57318 0.4994 0.03934 0.0
C2048 C 0.56607 0.47892 0.06949 0.0
C2049 C 0.58444 0.5386 0.98313 0.0
C2050 C 0.56434 0.55041 0.00899 0.0
C2051 C 0.55727 0.52965 0.03572 0.0
C2052 C 0.55625 0.58583 0.01238 0.0
C2053 C 0.59045 0.55829 0.95224 0.0
C2054 C 0.58201 0.60906 0.01179 0.0
C2055 C 0.57686 0.64124 0.02218 0.0
C2056 C 0.546 0.65086 0.03418 0.0
C2057 C 0.51955 0.62838 0.03283 0.0
C2058 C 0.52468 0.59601 0.0221 0.0
H2059 H 0.59453 0.54183 0.93079 0.0
H2060 H 0.56953 0.57484 0.94677 0.0
H2061 H 0.61315 0.57336 0.95529 0.0
H2062 H 0.60685 0.60183 0.00563 0.0
H2063 H 0.59762 0.65815 0.02271 0.0
H2064 H 0.30021 0.91043 0.65678 0.0
H2065 H 0.25418 0.87324 0.6704 0.0
H2066 H 0.25253 0.91226 0.76924 0.0
H2067 H 0.29848 0.94875 0.75614 0.0
H2068 H 0.25069 0.84369 0.76649 0.0
H2069 H 0.15664 0.89835 0.68329 0.0
H2070 H 0.19671 0.88931 0.66698 0.0
H2071 H 0.19239 0.92146 0.69677 0.0
C2072 C 0.29002 0.91095 0.68142 0.0
C2073 C 0.30299 0.93252 0.7054 0.0
C2074 C 0.26358 0.88985 0.68909 0.0
C2075 C 0.24966 0.8902 0.72076 0.0
C2076 C 0.26283 0.91156 0.74464 0.0
H2077 H 0.0726 0.85274 0.81897 0.0
H2078 H 0.1158 0.87051 0.78126 0.0
C2079 C 0.28913 0.93246 0.73708 0.0
C2080 C 0.22164 0.86836 0.72999 0.0
H2081 H 0.13841 0.85893 0.72126 0.0
C2082 C 0.22619 0.84649 0.75624 0.0
C2083 C 0.18971 0.87241 0.71673 0.0
C2084 C 0.18322 0.89668 0.68947 0.0
C2085 C 0.19949 0.83025 0.77115 0.0
C2086 C 0.16729 0.83482 0.75844 0.0
C2087 C 0.16303 0.85522 0.73085 0.0
C2088 C 0.13763 0.82235 0.77621 0.0
C2089 C 0.20588 0.81076 0.80214 0.0
C2090 C 0.1342 0.78902 0.78465 0.0
C2091 C 0.11016 0.77892 0.8072 0.0
C2092 C 0.08834 0.80186 0.82114 0.0
C2093 C 0.08958 0.83454 0.80971 0.0
C2094 C 0.11411 0.84471 0.78775 0.0
H2095 H 0.2307 0.81592 0.81257 0.0
H2096 H 0.18729 0.8164 0.82132 0.0
H2097 H 0.20442 0.78409 0.79655 0.0
H2098 H 0.1512 0.77104 0.77524 0.0
H2099 H 0.11021 0.75354 0.81516 0.0
H2100 H 0.23258 0.08614 0.16466 0.0
H2101 H 0.2812 0.1202 0.17633 0.0
H2102 H 0.24514 0.13827 0.27459 0.0
H2103 H 0.19619 0.10554 0.26266 0.0
H2104 H 0.27558 0.18981 0.25597 0.0
H2105 H 0.35588 0.08422 0.22325 0.0
H2106 H 0.33282 0.10078 0.18964 0.0
H2107 H 0.3118 0.08049 0.22311 0.0
C2108 C 0.2348 0.09792 0.18854 0.0
C2109 C 0.21083 0.09274 0.21294 0.0
C2110 C 0.26279 0.11714 0.19531 0.0
C2111 C 0.26751 0.13116 0.22666 0.0
C2112 C 0.24236 0.12777 0.25018 0.0
H2113 H 0.4174 0.12983 0.35677 0.0
H2114 H 0.37605 0.12485 0.3141 0.0
C2115 C 0.21432 0.10887 0.24338 0.0
C2116 C 0.2994 0.14673 0.23663 0.0
H2117 H 0.38049 0.12886 0.24908 0.0
C2118 C 0.29863 0.17663 0.25418 0.0
C2119 C 0.32974 0.12988 0.23384 0.0
C2120 C 0.33271 0.097 0.21668 0.0
C2121 C 0.32616 0.18809 0.27201 0.0
C2122 C 0.35578 0.17005 0.27083 0.0
C2123 C 0.35763 0.14246 0.2501 0.0
C2124 C 0.3823 0.17451 0.29579 0.0
C2125 C 0.32241 0.21758 0.29428 0.0
C2126 C 0.40013 0.2041 0.29972 0.0
C2127 C 0.42366 0.2073 0.32502 0.0
C2128 C 0.42963 0.1809 0.34655 0.0
C2129 C 0.41272 0.15103 0.34138 0.0
C2130 C 0.38926 0.148 0.31663 0.0
H2131 H 0.29666 0.22655 0.29511 0.0
H2132 H 0.33026 0.21146 0.31974 0.0
H2133 H 0.33843 0.23787 0.28534 0.0
H2134 H 0.39576 0.22468 0.28347 0.0
H2135 H 0.43657 0.23051 0.32822 0.0
loop_
_geom_bond_atom_site_label_1
_geom_bond_atom_site_label_2
_geom_bond_distance
_geom_bond_site_symmetry_2
_ccdc_geom_bond_type
In0 O1 2.294 . S
In0 O2 2.326 . S
In0 O6 2.266 . S
In0 O7 2.326 1_455 S
In0 O8 2.266 1_455 S
In0 O9 2.326 . S
In0 O11 2.294 1_455 S
In0 O12 2.326 1_455 S
O1 In0 2.294 . S
O1 C10 1.240 . S
O2 In0 2.326 . S
O2 C10 1.252 . S
C3 O6 1.252 1_655 S
C3 O7 1.260 . S
C4 O11 1.240 . S
C4 O12 1.252 . S
C5 O8 1.252 1_455 S
C5 O9 1.260 . S
O6 In0 2.266 . S
O6 C3 1.252 1_455 S
O7 In0 2.326 1_655 S
O7 C3 1.260 . S
O8 In0 2.266 1_655 S
O8 C5 1.252 1_655 S
O9 In0 2.326 . S
O9 C5 1.260 . S
C10 O1 1.240 . S
C10 O2 1.252 . S
O11 In0 2.294 1_655 S
O11 C4 1.240 . S
O12 In0 2.326 1_655 S
O12 C4 1.252 . S
In13 O14 2.294 1_455 S
In13 O15 2.326 . S
In13 O19 2.266 1_455 S
In13 O20 2.326 1_455 S
In13 O21 2.266 . S
In13 O22 2.326 . S
In13 O24 2.294 . S
In13 O25 2.326 1_455 S
O14 In13 2.294 1_655 S
O14 C23 1.240 1_655 S
O15 In13 2.326 . S
O15 C23 1.252 . S
C16 O19 1.252 . S
C16 O20 1.260 . S
C17 O24 1.240 1_655 S
C17 O25 1.252 . S
C18 O21 1.252 . S
C18 O22 1.260 . S
O19 In13 2.266 1_655 S
O19 C16 1.252 . S
O20 In13 2.326 1_655 S
O20 C16 1.260 . S
O21 In13 2.266 . S
O21 C18 1.252 . S
O22 In13 2.326 . S
O22 C18 1.260 . S
C23 O14 1.240 1_455 S
C23 O15 1.252 . S
O24 In13 2.294 . S
O24 C17 1.240 1_455 S
O25 In13 2.326 1_655 S
O25 C17 1.252 . S
In26 O27 2.294 . S
In26 O28 2.326 . S
In26 O32 2.266 . S
In26 O33 2.326 . S
In26 O34 2.266 . S
In26 O35 2.326 . S
In26 O37 2.294 . S
In26 O38 2.326 . S
O27 In26 2.294 . S
O27 C36 1.240 . S
O28 In26 2.326 . S
O28 C36 1.252 . S
C29 O32 1.252 . S
C29 O33 1.260 . S
C30 O37 1.240 . S
C30 O38 1.252 . S
C31 O34 1.252 . S
C31 O35 1.260 . S
O32 In26 2.266 . S
O32 C29 1.252 . S
O33 In26 2.326 . S
O33 C29 1.260 . S
O34 In26 2.266 . S
O34 C31 1.252 . S
O35 In26 2.326 . S
O35 C31 1.260 . S
C36 O27 1.240 . S
C36 O28 1.252 . S
O37 In26 2.294 . S
O37 C30 1.240 . S
O38 In26 2.326 . S
O38 C30 1.252 . S
In39 O40 2.294 . S
In39 O41 2.326 . S
In39 O45 2.266 . S
In39 O46 2.326 . S
In39 O47 2.266 . S
In39 O48 2.326 . S
In39 O50 2.294 . S
In39 O51 2.326 . S
O40 In39 2.294 . S
O40 C49 1.240 . S
O41 In39 2.326 . S
O41 C49 1.252 . S
C42 O45 1.252 . S
C42 O46 1.260 . S
C43 O50 1.240 . S
C43 O51 1.252 . S
C44 O47 1.252 . S
C44 O48 1.260 . S
O45 In39 2.266 . S
O45 C42 1.252 . S
O46 In39 2.326 . S
O46 C42 1.260 . S
O47 In39 2.266 . S
O47 C44 1.252 . S
O48 In39 2.326 . S
O48 C44 1.260 . S
C49 O40 1.240 . S
C49 O41 1.252 . S
O50 In39 2.294 . S
O50 C43 1.240 . S
O51 In39 2.326 . S
O51 C43 1.252 . S
In52 O53 2.294 1_545 S
In52 O54 2.326 1_545 S
In52 O58 2.266 1_545 S
In52 O59 2.326 . S
In52 O60 2.266 . S
In52 O61 2.326 1_545 S
In52 O63 2.294 . S
In52 O64 2.326 . S
O53 In52 2.294 1_565 S
O53 C62 1.240 . S
O54 In52 2.326 1_565 S
O54 C62 1.252 . S
C55 O58 1.252 1_545 S
C55 O59 1.260 . S
C56 O63 1.240 . S
C56 O64 1.252 . S
C57 O60 1.252 1_565 S
C57 O61 1.260 . S
O58 In52 2.266 1_565 S
O58 C55 1.252 1_565 S
O59 In52 2.326 . S
O59 C55 1.260 . S
O60 In52 2.266 . S
O60 C57 1.252 1_545 S
O61 In52 2.326 1_565 S
O61 C57 1.260 . S
C62 O53 1.240 . S
C62 O54 1.252 . S
O63 In52 2.294 . S
O63 C56 1.240 . S
O64 In52 2.326 . S
O64 C56 1.252 . S
In65 O66 2.294 . S
In65 O67 2.326 . S
In65 O71 2.266 . S
In65 O72 2.326 . S
In65 O73 2.266 . S
In65 O74 2.326 . S
In65 O76 2.294 . S
In65 O77 2.326 . S
O66 In65 2.294 . S
O66 C75 1.240 . S
O67 In65 2.326 . S
O67 C75 1.252 . S
C68 O71 1.252 . S
C68 O72 1.260 . S
C69 O76 1.240 . S
C69 O77 1.252 . S
C70 O73 1.252 . S
C70 O74 1.260 . S
O71 In65 2.266 . S
O71 C68 1.252 . S
O72 In65 2.326 . S
O72 C68 1.260 . S
O73 In65 2.266 . S
O73 C70 1.252 . S
O74 In65 2.326 . S
O74 C70 1.260 . S
C75 O66 1.240 . S
C75 O67 1.252 . S
O76 In65 2.294 . S
O76 C69 1.240 . S
O77 In65 2.326 . S
O77 C69 1.252 . S
In78 O79 2.294 1_545 S
In78 O80 2.326 1_545 S
In78 O84 2.266 1_545 S
In78 O85 2.326 . S
In78 O86 2.266 . S
In78 O87 2.326 1_545 S
In78 O89 2.294 . S
In78 O90 2.326 . S
O79 In78 2.294 1_565 S
O79 C88 1.240 . S
O80 In78 2.326 1_565 S
O80 C88 1.252 . S
C81 O84 1.252 1_545 S
C81 O85 1.260 . S
C82 O89 1.240 . S
C82 O90 1.252 . S
C83 O86 1.252 1_565 S
C83 O87 1.260 . S
O84 In78 2.266 1_565 S
O84 C81 1.252 1_565 S
O85 In78 2.326 . S
O85 C81 1.260 . S
O86 In78 2.266 . S
O86 C83 1.252 1_545 S
O87 In78 2.326 1_565 S
O87 C83 1.260 . S
C88 O79 1.240 . S
C88 O80 1.252 . S
O89 In78 2.294 . S
O89 C82 1.240 . S
O90 In78 2.326 . S
O90 C82 1.252 . S
In91 O92 2.294 . S
In91 O93 2.326 . S
In91 O97 2.266 . S
In91 O98 2.326 1_554 S
In91 O99 2.266 1_554 S
In91 O100 2.326 . S
In91 O102 2.294 1_554 S
In91 O103 2.326 1_554 S
O92 In91 2.294 . S
O92 C101 1.240 . S
O93 In91 2.326 . S
O93 C101 1.252 . S
C94 O97 1.252 1_556 S
C94 O98 1.260 . S
C95 O102 1.240 . S
C95 O103 1.252 . S
C96 O99 1.252 1_554 S
C96 O100 1.260 . S
O97 In91 2.266 . S
O97 C94 1.252 1_554 S
O98 In91 2.326 1_556 S
O98 C94 1.260 . S
O99 In91 2.266 1_556 S
O99 C96 1.252 1_556 S
O100 In91 2.326 . S
O100 C96 1.260 . S
C101 O92 1.240 . S
C101 O93 1.252 . S
O102 In91 2.294 1_556 S
O102 C95 1.240 . S
O103 In91 2.326 1_556 S
O103 C95 1.252 . S
In104 O105 2.294 . S
In104 O106 2.326 . S
In104 O110 2.266 . S
In104 O111 2.326 1_554 S
In104 O112 2.266 1_554 S
In104 O113 2.326 . S
In104 O115 2.294 1_554 S
In104 O116 2.326 1_554 S
O105 In104 2.294 . S
O105 C114 1.240 . S
O106 In104 2.326 . S
O106 C114 1.252 . S
C107 O110 1.252 1_556 S
C107 O111 1.260 . S
C108 O115 1.240 . S
C108 O116 1.252 . S
C109 O112 1.252 1_554 S
C109 O113 1.260 . S
O110 In104 2.266 . S
O110 C107 1.252 1_554 S
O111 In104 2.326 1_556 S
O111 C107 1.260 . S
O112 In104 2.266 1_556 S
O112 C109 1.252 1_556 S
O113 In104 2.326 . S
O113 C109 1.260 . S
C114 O105 1.240 . S
C114 O106 1.252 . S
O115 In104 2.294 1_556 S
O115 C108 1.240 . S
O116 In104 2.326 1_556 S
O116 C108 1.252 . S
In117 O118 2.294 . S
In117 O119 2.326 . S
In117 O123 2.266 . S
In117 O124 2.326 . S
In117 O125 2.266 . S
In117 O126 2.326 . S
In117 O128 2.294 . S
In117 O129 2.326 . S
O118 In117 2.294 . S
O118 C127 1.240 . S
O119 In117 2.326 . S
O119 C127 1.252 . S
C120 O123 1.252 . S
C120 O124 1.260 . S
C121 O128 1.240 . S
C121 O129 1.252 . S
C122 O125 1.252 . S
C122 O126 1.260 . S
O123 In117 2.266 . S
O123 C120 1.252 . S
O124 In117 2.326 . S
O124 C120 1.260 . S
O125 In117 2.266 . S
O125 C122 1.252 . S
O126 In117 2.326 . S
O126 C122 1.260 . S
C127 O118 1.240 . S
C127 O119 1.252 . S
O128 In117 2.294 . S
O128 C121 1.240 . S
O129 In117 2.326 . S
O129 C121 1.252 . S
In130 O131 2.294 . S
In130 O132 2.326 . S
In130 O136 2.266 . S
In130 O137 2.326 . S
In130 O138 2.266 . S
In130 O139 2.326 . S
In130 O141 2.294 . S
In130 O142 2.326 . S
O131 In130 2.294 . S
O131 C140 1.240 . S
O132 In130 2.326 . S
O132 C140 1.252 . S
C133 O136 1.252 . S
C133 O137 1.260 . S
C134 O141 1.240 . S
C134 O142 1.252 . S
C135 O138 1.252 . S
C135 O139 1.260 . S
O136 In130 2.266 . S
O136 C133 1.252 . S
O137 In130 2.326 . S
O137 C133 1.260 . S
O138 In130 2.266 . S
O138 C135 1.252 . S
O139 In130 2.326 . S
O139 C135 1.260 . S
C140 O131 1.240 . S
C140 O132 1.252 . S
O141 In130 2.294 . S
O141 C134 1.240 . S
O142 In130 2.326 . S
O142 C134 1.252 . S
In143 O144 2.294 . S
In143 O145 2.326 . S
In143 O149 2.266 . S
In143 O150 2.326 . S
In143 O151 2.266 . S
In143 O152 2.326 . S
In143 O154 2.294 . S
In143 O155 2.326 . S
O144 In143 2.294 . S
O144 C153 1.240 . S
O145 In143 2.326 . S
O145 C153 1.252 . S
C146 O149 1.252 . S
C146 O150 1.260 . S
C147 O154 1.240 . S
C147 O155 1.252 . S
C148 O151 1.252 . S
C148 O152 1.260 . S
O149 In143 2.266 . S
O149 C146 1.252 . S
O150 In143 2.326 . S
O150 C146 1.260 . S
O151 In143 2.266 . S
O151 C148 1.252 . S
O152 In143 2.326 . S
O152 C148 1.260 . S
C153 O144 1.240 . S
C153 O145 1.252 . S
O154 In143 2.294 . S
O154 C147 1.240 . S
O155 In143 2.326 . S
O155 C147 1.252 . S
H156 C164 0.930 . S
H157 C167 0.930 . S
H158 C169 0.930 . S
H159 C170 0.970 . S
H160 C170 0.970 . S
H161 C172 0.930 . S
H162 C174 0.930 . S
H163 C176 0.930 . S
C164 H156 0.930 . S
C164 C165 1.382 . S
C164 C166 1.426 . S
C165 C164 1.382 . S
C165 C169 1.389 . S
C166 C164 1.426 . S
C166 C167 1.375 . S
C166 C170 1.532 . S
C167 H157 0.930 . S
C167 C166 1.375 . S
C167 C168 1.416 . S
C168 C167 1.416 . S
C168 C169 1.371 . S
C169 H158 0.930 . S
C169 C165 1.389 . S
C169 C168 1.371 . S
C170 H159 0.970 . S
C170 H160 0.970 . S
C170 C166 1.532 . S
C170 C171 1.499 . S
C171 C170 1.499 . S
C171 C172 1.370 1_455 S
C171 C176 1.415 1_455 S
C172 H161 0.930 . S
C172 C171 1.370 1_655 S
C172 C173 1.407 . S
C173 C172 1.407 . S
C173 C174 1.365 . S
C174 H162 0.930 . S
C174 C173 1.365 . S
C174 C175 1.393 . S
C175 C174 1.393 . S
C175 C176 1.387 . S
C176 H163 0.930 . S
C176 C171 1.415 1_655 S
C176 C175 1.387 . S
H177 C185 0.930 . S
H178 C188 0.930 . S
H179 C190 0.930 . S
H180 C191 0.970 . S
H181 C191 0.970 . S
H182 C193 0.930 . S
H183 C195 0.930 . S
H184 C197 0.913 1_455 S
C185 H177 0.930 . S
C185 C186 1.382 . S
C185 C187 1.426 . S
C186 C185 1.382 . S
C186 C190 1.389 . S
C187 C185 1.426 . S
C187 C188 1.375 . S
C187 C191 1.532 . S
C188 H178 0.930 . S
C188 C187 1.375 . S
C188 C189 1.416 . S
C189 C188 1.416 . S
C189 C190 1.371 . S
C190 H179 0.930 . S
C190 C186 1.389 . S
C190 C189 1.371 . S
C191 H180 0.970 . S
C191 H181 0.970 . S
C191 C187 1.532 . S
C191 C192 1.499 . S
C192 C191 1.499 . S
C192 C193 1.370 1_455 S
C192 C197 1.415 1_455 S
C193 H182 0.930 . S
C193 C192 1.370 1_655 S
C193 C194 1.407 . S
C194 C193 1.407 . S
C194 C195 1.365 . S
C195 H183 0.930 . S
C195 C194 1.365 . S
C195 C196 1.393 . S
C196 C195 1.393 . S
C196 C197 1.387 . S
C197 H184 0.913 1_655 S
C197 C192 1.415 1_655 S
C197 C196 1.387 . S
H198 C206 0.930 . S
H199 C209 0.930 . S
H200 C211 0.930 . S
H201 C212 0.970 . S
H202 C212 0.970 . S
H203 C214 0.930 . S
H204 C216 0.930 . S
H205 C218 0.930 . S
C206 H198 0.930 . S
C206 C207 1.382 . S
C206 C208 1.426 . S
C207 C206 1.382 . S
C207 C211 1.389 . S
C208 C206 1.426 . S
C208 C209 1.375 . S
C208 C212 1.532 . S
C209 H199 0.930 . S
C209 C208 1.375 . S
C209 C210 1.416 . S
C210 C209 1.416 . S
C210 C211 1.371 . S
C211 H200 0.930 . S
C211 C207 1.389 . S
C211 C210 1.371 . S
C212 H201 0.970 . S
C212 H202 0.970 . S
C212 C208 1.532 . S
C212 C213 1.499 . S
C213 C212 1.499 . S
C213 C214 1.370 . S
C213 C218 1.415 . S
C214 H203 0.930 . S
C214 C213 1.370 . S
C214 C215 1.407 . S
C215 C214 1.407 . S
C215 C216 1.365 . S
C216 H204 0.930 . S
C216 C215 1.365 . S
C216 C217 1.393 . S
C217 C216 1.393 . S
C217 C218 1.387 . S
C218 H205 0.930 . S
C218 C213 1.415 . S
C218 C217 1.387 . S
H219 C227 0.930 . S
H220 C230 0.930 . S
H221 C232 0.930 . S
H222 C233 0.970 . S
H223 C233 0.970 . S
H224 C235 0.930 . S
H225 C237 0.930 . S
H226 C239 0.930 . S
C227 H219 0.930 . S
C227 C228 1.382 . S
C227 C229 1.426 . S
C228 C227 1.382 . S
C228 C232 1.389 . S
C229 C227 1.426 . S
C229 C230 1.375 . S
C229 C233 1.532 . S
C230 H220 0.930 . S
C230 C229 1.375 . S
C230 C231 1.416 . S
C231 C230 1.416 . S
C231 C232 1.371 . S
C232 H221 0.930 . S
C232 C228 1.389 . S
C232 C231 1.371 . S
C233 H222 0.970 . S
C233 H223 0.970 . S
C233 C229 1.532 . S
C233 C234 1.499 . S
C234 C233 1.499 . S
C234 C235 1.370 . S
C234 C239 1.415 . S
C235 H224 0.930 . S
C235 C234 1.370 . S
C235 C236 1.407 . S
C236 C235 1.407 . S
C236 C237 1.365 . S
C237 H225 0.930 . S
C237 C236 1.365 . S
C237 C238 1.393 . S
C238 C237 1.393 . S
C238 C239 1.387 . S
C239 H226 0.930 . S
C239 C234 1.415 . S
C239 C238 1.387 . S
H240 C248 0.930 . S
H241 C251 0.930 . S
H242 C253 0.930 . S
H243 C254 0.970 . S
H244 C254 0.970 . S
H245 C256 0.930 . S
H246 C258 0.930 . S
H247 C260 0.930 . S
C248 H240 0.930 . S
C248 C249 1.382 . S
C248 C250 1.426 1_545 S
C249 C248 1.382 . S
C249 C253 1.389 . S
C250 C248 1.426 1_565 S
C250 C251 1.375 1_565 S
C250 C254 1.532 . S
C251 H241 0.930 . S
C251 C250 1.375 1_545 S
C251 C252 1.416 . S
C252 C251 1.416 . S
C252 C253 1.371 . S
C253 H242 0.930 . S
C253 C249 1.389 . S
C253 C252 1.371 . S
C254 H243 0.970 . S
C254 H244 0.970 . S
C254 C250 1.532 . S
C254 C255 1.499 . S
C255 C254 1.499 . S
C255 C256 1.370 . S
C255 C260 1.415 . S
C256 H245 0.930 . S
C256 C255 1.370 . S
C256 C257 1.407 . S
C257 C256 1.407 . S
C257 C258 1.365 . S
C258 H246 0.930 . S
C258 C257 1.365 . S
C258 C259 1.393 . S
C259 C258 1.393 . S
C259 C260 1.387 . S
C260 H247 0.930 . S
C260 C255 1.415 . S
C260 C259 1.387 . S
H261 C269 0.930 . S
H262 C272 0.930 . S
H263 C274 0.930 . S
H264 C275 0.970 . S
H265 C275 0.970 . S
H266 C277 0.930 . S
H267 C279 0.930 . S
H268 C281 0.930 . S
C269 H261 0.930 . S
C269 C270 1.382 . S
C269 C271 1.426 . S
C270 C269 1.382 . S
C270 C274 1.389 . S
C271 C269 1.426 . S
C271 C272 1.375 . S
C271 C275 1.532 . S
C272 H262 0.930 . S
C272 C271 1.375 . S
C272 C273 1.416 . S
C273 C272 1.416 . S
C273 C274 1.371 . S
C274 H263 0.930 . S
C274 C270 1.389 . S
C274 C273 1.371 . S
C275 H264 0.970 . S
C275 H265 0.970 . S
C275 C271 1.532 . S
C275 C276 1.499 . S
C276 C275 1.499 . S
C276 C277 1.370 . S
C276 C281 1.415 . S
C277 H266 0.930 . S
C277 C276 1.370 . S
C277 C278 1.407 . S
C278 C277 1.407 . S
C278 C279 1.365 . S
C279 H267 0.930 . S
C279 C278 1.365 . S
C279 C280 1.393 . S
C280 C279 1.393 . S
C280 C281 1.387 . S
C281 H268 0.930 . S
C281 C276 1.415 . S
C281 C280 1.387 . S
H282 C290 0.930 . S
H283 C293 0.930 . S
H284 C295 0.930 . S
H285 C296 0.970 . S
H286 C296 0.970 . S
H287 C298 0.930 . S
H288 C300 0.930 . S
H289 C302 0.930 . S
C290 H282 0.930 . S
C290 C291 1.382 . S
C290 C292 1.426 1_565 S
C291 C290 1.382 . S
C291 C295 1.389 . S
C292 C290 1.426 1_545 S
C292 C293 1.375 1_545 S
C292 C296 1.532 . S
C293 H283 0.930 . S
C293 C292 1.375 1_565 S
C293 C294 1.416 . S
C294 C293 1.416 . S
C294 C295 1.371 . S
C295 H284 0.930 . S
C295 C291 1.389 . S
C295 C294 1.371 . S
C296 H285 0.970 . S
C296 H286 0.970 . S
C296 C292 1.532 . S
C296 C297 1.499 . S
C297 C296 1.499 . S
C297 C298 1.370 . S
C297 C302 1.415 . S
C298 H287 0.930 . S
C298 C297 1.370 . S
C298 C299 1.407 . S
C299 C298 1.407 . S
C299 C300 1.365 . S
C300 H288 0.930 . S
C300 C299 1.365 . S
C300 C301 1.393 . S
C301 C300 1.393 . S
C301 C302 1.387 . S
C302 H289 0.930 . S
C302 C297 1.415 . S
C302 C301 1.387 . S
H303 C311 0.930 . S
H304 C314 0.930 . S
H305 C316 0.930 . S
H306 C317 0.970 . S
H307 C317 0.970 . S
H308 C319 0.930 . S
H309 C321 0.930 . S
H310 C323 0.930 . S
C311 H303 0.930 . S
C311 C312 1.382 . S
C311 C313 1.426 . S
C312 C311 1.382 . S
C312 C316 1.389 . S
C313 C311 1.426 . S
C313 C314 1.375 . S
C313 C317 1.532 . S
C314 H304 0.930 . S
C314 C313 1.375 . S
C314 C315 1.416 . S
C315 C314 1.416 . S
C315 C316 1.371 . S
C316 H305 0.930 . S
C316 C312 1.389 . S
C316 C315 1.371 . S
C317 H306 0.970 . S
C317 H307 0.970 . S
C317 C313 1.532 . S
C317 C318 1.499 . S
C318 C317 1.499 . S
C318 C319 1.370 1_554 S
C318 C323 1.415 1_554 S
C319 H308 0.930 . S
C319 C318 1.370 1_556 S
C319 C320 1.407 . S
C320 C319 1.407 . S
C320 C321 1.365 . S
C321 H309 0.930 . S
C321 C320 1.365 . S
C321 C322 1.393 . S
C322 C321 1.393 . S
C322 C323 1.387 . S
C323 H310 0.930 . S
C323 C318 1.415 1_556 S
C323 C322 1.387 . S
H324 C332 0.930 . S
H325 C335 0.930 . S
H326 C337 0.930 . S
H327 C338 0.970 . S
H328 C338 0.970 . S
H329 C340 0.930 . S
H330 C342 0.930 . S
H331 C344 0.930 . S
C332 H324 0.930 . S
C332 C333 1.382 . S
C332 C334 1.426 . S
C333 C332 1.382 . S
C333 C337 1.389 . S
C334 C332 1.426 . S
C334 C335 1.375 . S
C334 C338 1.532 . S
C335 H325 0.930 . S
C335 C334 1.375 . S
C335 C336 1.416 . S
C336 C335 1.416 . S
C336 C337 1.371 . S
C337 H326 0.930 . S
C337 C333 1.389 . S
C337 C336 1.371 . S
C338 H327 0.970 . S
C338 H328 0.970 . S
C338 C334 1.532 . S
C338 C339 1.499 . S
C339 C338 1.499 . S
C339 C340 1.370 1_554 S
C339 C344 1.415 1_554 S
C340 H329 0.930 . S
C340 C339 1.370 1_556 S
C340 C341 1.407 . S
C341 C340 1.407 . S
C341 C342 1.365 . S
C342 H330 0.930 . S
C342 C341 1.365 . S
C342 C343 1.393 . S
C343 C342 1.393 . S
C343 C344 1.387 . S
C344 H331 0.930 . S
C344 C339 1.415 1_556 S
C344 C343 1.387 . S
H345 C353 0.930 . S
H346 C356 0.930 . S
H347 C358 0.930 . S
H348 C359 0.970 . S
H349 C359 0.970 . S
H350 C361 0.930 . S
H351 C363 0.930 . S
H352 C365 0.930 . S
C353 H345 0.930 . S
C353 C354 1.382 . S
C353 C355 1.426 . S
C354 C353 1.382 . S
C354 C358 1.389 . S
C355 C353 1.426 . S
C355 C356 1.375 . S
C355 C359 1.532 . S
C356 H346 0.930 . S
C356 C355 1.375 . S
C356 C357 1.416 . S
C357 C356 1.416 . S
C357 C358 1.371 . S
C358 H347 0.930 . S
C358 C354 1.389 . S
C358 C357 1.371 . S
C359 H348 0.970 . S
C359 H349 0.970 . S
C359 C355 1.532 . S
C359 C360 1.499 . S
C360 C359 1.499 . S
C360 C361 1.370 . S
C360 C365 1.415 . S
C361 H350 0.930 . S
C361 C360 1.370 . S
C361 C362 1.407 . S
C362 C361 1.407 . S
C362 C363 1.365 . S
C363 H351 0.930 . S
C363 C362 1.365 . S
C363 C364 1.393 . S
C364 C363 1.393 . S
C364 C365 1.387 . S
C365 H352 0.930 . S
C365 C360 1.415 . S
C365 C364 1.387 . S
H366 C374 0.930 . S
H367 C377 0.930 . S
H368 C379 0.930 . S
H369 C380 0.970 . S
H370 C380 0.970 . S
H371 C382 0.930 . S
H372 C384 0.930 . S
H373 C386 0.930 . S
C374 H366 0.930 . S
C374 C375 1.382 . S
C374 C376 1.426 . S
C375 C374 1.382 . S
C375 C379 1.389 . S
C376 C374 1.426 . S
C376 C377 1.375 . S
C376 C380 1.532 . S
C377 H367 0.930 . S
C377 C376 1.375 . S
C377 C378 1.416 . S
C378 C377 1.416 . S
C378 C379 1.371 . S
C379 H368 0.930 . S
C379 C375 1.389 . S
C379 C378 1.371 . S
C380 H369 0.970 . S
C380 H370 0.970 . S
C380 C376 1.532 . S
C380 C381 1.499 . S
C381 C380 1.499 . S
C381 C382 1.370 . S
C381 C386 1.415 . S
C382 H371 0.930 . S
C382 C381 1.370 . S
C382 C383 1.407 . S
C383 C382 1.407 . S
C383 C384 1.365 . S
C384 H372 0.930 . S
C384 C383 1.365 . S
C384 C385 1.393 . S
C385 C384 1.393 . S
C385 C386 1.387 . S
C386 H373 0.930 . S
C386 C381 1.415 . S
C386 C385 1.387 . S
H387 C395 0.930 . S
H388 C398 0.930 . S
H389 C400 0.930 . S
H390 C401 0.970 . S
H391 C401 0.970 . S
H392 C403 0.930 . S
H393 C405 0.930 . S
H394 C407 0.930 . S
C395 H387 0.930 . S
C395 C396 1.382 . S
C395 C397 1.426 . S
C396 C395 1.382 . S
C396 C400 1.389 . S
C397 C395 1.426 . S
C397 C398 1.375 . S
C397 C401 1.532 . S
C398 H388 0.930 . S
C398 C397 1.375 . S
C398 C399 1.416 . S
C399 C398 1.416 . S
C399 C400 1.371 . S
C400 H389 0.930 . S
C400 C396 1.389 . S
C400 C399 1.371 . S
C401 H390 0.970 . S
C401 H391 0.970 . S
C401 C397 1.532 . S
C401 C402 1.499 . S
C402 C401 1.499 . S
C402 C403 1.370 . S
C402 C407 1.415 . S
C403 H392 0.930 . S
C403 C402 1.370 . S
C403 C404 1.407 . S
C404 C403 1.407 . S
C404 C405 1.365 . S
C405 H393 0.930 . S
C405 C404 1.365 . S
C405 C406 1.393 . S
C406 C405 1.393 . S
C406 C407 1.387 . S
C407 H394 0.930 . S
C407 C402 1.415 . S
C407 C406 1.387 . S
H408 C416 0.929 . S
H409 C418 0.926 1_556 S
H410 C420 0.930 . S
H411 C423 0.929 . S
H412 C426 0.930 . S
H413 C428 0.960 . S
H414 C428 0.960 . S
H415 C428 0.960 . S
C416 H408 0.929 . S
C416 C417 1.377 1_655 S
C416 C418 1.384 . S
C417 C416 1.377 1_455 S
C417 C423 1.390 . S
C418 H409 0.926 1_554 S
C418 C416 1.384 . S
C418 C419 1.364 1_654 S
C419 C418 1.364 1_456 S
C419 C420 1.388 1_556 S
C419 C424 1.508 . S
C420 H410 0.930 . S
C420 C419 1.388 1_554 S
C420 C423 1.386 . S
H421 C437 0.930 . S
H422 C438 0.931 . S
C423 H411 0.929 . S
C423 C417 1.390 . S
C423 C420 1.386 . S
C424 C419 1.508 . S
C424 C426 1.395 . S
C424 C427 1.403 . S
H425 C431 0.930 . S
C426 H412 0.930 . S
C426 C424 1.395 . S
C426 C429 1.403 . S
C427 C424 1.403 . S
C427 C428 1.524 . S
C427 C431 1.400 . S
C428 H413 0.960 . S
C428 H414 0.960 . S
C428 H415 0.960 . S
C428 C427 1.524 . S
C429 C426 1.403 . S
C429 C430 1.392 . S
C429 C433 1.495 . S
C430 C429 1.392 . S
C430 C431 1.385 . S
C430 C432 1.478 . S
C431 H425 0.930 . S
C431 C427 1.400 . S
C431 C430 1.385 . S
C432 C430 1.478 . S
C432 C434 1.381 . S
C432 C438 1.383 . S
C433 C429 1.495 . S
C433 H439 0.959 . S
C433 H440 0.961 . S
C433 H441 0.960 . S
C434 C432 1.381 . S
C434 C435 1.394 . S
C434 H442 0.930 . S
C435 C434 1.394 . S
C435 C436 1.383 . S
C435 H443 0.929 . S
C436 C435 1.383 . S
C436 C437 1.377 . S
C437 H421 0.930 . S
C437 C436 1.377 . S
C437 C438 1.379 . S
C438 H422 0.931 . S
C438 C432 1.383 . S
C438 C437 1.379 . S
H439 C433 0.959 . S
H440 C433 0.961 . S
H441 C433 0.960 . S
H442 C434 0.930 . S
H443 C435 0.929 . S
H444 C452 0.929 . S
H445 C454 0.930 . S
H446 C456 0.930 . S
H447 C459 0.929 . S
H448 C462 0.930 . S
H449 C464 0.960 . S
H450 C464 0.960 . S
H451 C464 0.960 . S
C452 H444 0.929 . S
C452 C453 1.377 . S
C452 C454 1.384 . S
C453 C452 1.377 . S
C453 C459 1.390 . S
C454 H445 0.930 . S
C454 C452 1.384 . S
C454 C455 1.372 . S
C455 C454 1.372 . S
C455 C456 1.400 . S
C455 C460 1.490 . S
C456 H446 0.930 . S
C456 C455 1.400 . S
C456 C459 1.386 . S
H457 C473 0.930 . S
H458 C474 0.931 . S
C459 H447 0.929 . S
C459 C453 1.390 . S
C459 C456 1.386 . S
C460 C455 1.490 . S
C460 C462 1.395 . S
C460 C463 1.403 . S
H461 C467 0.930 . S
C462 H448 0.930 . S
C462 C460 1.395 . S
C462 C465 1.403 . S
C463 C460 1.403 . S
C463 C464 1.524 . S
C463 C467 1.400 . S
C464 H449 0.960 . S
C464 H450 0.960 . S
C464 H451 0.960 . S
C464 C463 1.524 . S
C465 C462 1.403 . S
C465 C466 1.392 . S
C465 C469 1.495 . S
C466 C465 1.392 . S
C466 C467 1.385 . S
C466 C468 1.478 . S
C467 H461 0.930 . S
C467 C463 1.400 . S
C467 C466 1.385 . S
C468 C466 1.478 . S
C468 C470 1.381 . S
C468 C474 1.383 . S
C469 C465 1.495 . S
C469 H475 0.959 . S
C469 H476 0.961 . S
C469 H477 0.960 . S
C470 C468 1.381 . S
C470 C471 1.394 . S
C470 H478 0.930 . S
C471 C470 1.394 . S
C471 C472 1.383 . S
C471 H479 0.929 . S
C472 C471 1.383 . S
C472 C473 1.377 . S
C473 H457 0.930 . S
C473 C472 1.377 . S
C473 C474 1.379 . S
C474 H458 0.931 . S
C474 C468 1.383 . S
C474 C473 1.379 . S
H475 C469 0.959 . S
H476 C469 0.961 . S
H477 C469 0.960 . S
H478 C470 0.930 . S
H479 C471 0.929 . S
H480 C488 0.929 . S
H481 C490 0.930 . S
H482 C492 0.930 . S
H483 C495 0.929 . S
H484 C498 0.930 . S
H485 C500 0.960 . S
H486 C500 0.960 . S
H487 C500 0.960 . S
C488 H480 0.929 . S
C488 C489 1.377 . S
C488 C490 1.384 . S
C489 C488 1.377 . S
C489 C495 1.390 . S
C490 H481 0.930 . S
C490 C488 1.384 . S
C490 C491 1.372 . S
C491 C490 1.372 . S
C491 C492 1.400 . S
C491 C496 1.490 . S
C492 H482 0.930 . S
C492 C491 1.400 . S
C492 C495 1.386 . S
H493 C509 0.930 . S
H494 C510 0.931 . S
C495 H483 0.929 . S
C495 C489 1.390 . S
C495 C492 1.386 . S
C496 C491 1.490 . S
C496 C498 1.395 . S
C496 C499 1.403 . S
H497 C503 0.930 . S
C498 H484 0.930 . S
C498 C496 1.395 . S
C498 C501 1.403 . S
C499 C496 1.403 . S
C499 C500 1.524 . S
C499 C503 1.400 . S
C500 H485 0.960 . S
C500 H486 0.960 . S
C500 H487 0.960 . S
C500 C499 1.524 . S
C501 C498 1.403 . S
C501 C502 1.392 . S
C501 C505 1.495 . S
C502 C501 1.392 . S
C502 C503 1.385 . S
C502 C504 1.478 . S
C503 H497 0.930 . S
C503 C499 1.400 . S
C503 C502 1.385 . S
C504 C502 1.478 . S
C504 C506 1.381 . S
C504 C510 1.383 . S
C505 C501 1.495 . S
C505 H511 0.959 . S
C505 H512 0.961 . S
C505 H513 0.960 . S
C506 C504 1.381 . S
C506 C507 1.394 . S
C506 H514 0.930 . S
C507 C506 1.394 . S
C507 C508 1.383 . S
C507 H515 0.929 . S
C508 C507 1.383 . S
C508 C509 1.377 . S
C509 H493 0.930 . S
C509 C508 1.377 . S
C509 C510 1.379 . S
C510 H494 0.931 . S
C510 C504 1.383 . S
C510 C509 1.379 . S
H511 C505 0.959 . S
H512 C505 0.961 . S
H513 C505 0.960 . S
H514 C506 0.930 . S
H515 C507 0.929 . S
H516 C524 0.929 . S
H517 C526 0.930 . S
H518 C528 0.930 . S
H519 C531 0.929 . S
H520 C534 0.930 . S
H521 C536 0.960 . S
H522 C536 0.960 . S
H523 C536 0.960 . S
C524 H516 0.929 . S
C524 C525 1.377 . S
C524 C526 1.384 . S
C525 C524 1.377 . S
C525 C531 1.390 . S
C526 H517 0.930 . S
C526 C524 1.384 . S
C526 C527 1.372 . S
C527 C526 1.372 . S
C527 C528 1.400 . S
C527 C532 1.490 . S
C528 H518 0.930 . S
C528 C527 1.400 . S
C528 C531 1.386 . S
H529 C545 0.930 . S
H530 C546 0.931 . S
C531 H519 0.929 . S
C531 C525 1.390 . S
C531 C528 1.386 . S
C532 C527 1.490 . S
C532 C534 1.395 . S
C532 C535 1.403 . S
H533 C539 0.930 . S
C534 H520 0.930 . S
C534 C532 1.395 . S
C534 C537 1.403 . S
C535 C532 1.403 . S
C535 C536 1.524 . S
C535 C539 1.400 . S
C536 H521 0.960 . S
C536 H522 0.960 . S
C536 H523 0.960 . S
C536 C535 1.524 . S
C537 C534 1.403 . S
C537 C538 1.392 . S
C537 C541 1.495 . S
C538 C537 1.392 . S
C538 C539 1.385 . S
C538 C540 1.478 . S
C539 H533 0.930 . S
C539 C535 1.400 . S
C539 C538 1.385 . S
C540 C538 1.478 . S
C540 C542 1.381 . S
C540 C546 1.383 . S
C541 C537 1.495 . S
C541 H547 0.959 . S
C541 H548 0.961 . S
C541 H549 0.960 . S
C542 C540 1.381 . S
C542 C543 1.394 . S
C542 H550 0.930 . S
C543 C542 1.394 . S
C543 C544 1.383 . S
C543 H551 0.929 . S
C544 C543 1.383 . S
C544 C545 1.377 . S
C545 H529 0.930 . S
C545 C544 1.377 . S
C545 C546 1.379 . S
C546 H530 0.931 . S
C546 C540 1.383 . S
C546 C545 1.379 . S
H547 C541 0.959 . S
H548 C541 0.961 . S
H549 C541 0.960 . S
H550 C542 0.930 . S
H551 C543 0.929 . S
H552 C560 0.929 . S
H553 C562 0.930 . S
H554 C564 0.930 . S
H555 C567 0.929 . S
H556 C570 0.930 1_655 S
H557 C572 0.960 . S
H558 C572 0.960 . S
H559 C572 0.960 . S
C560 H552 0.929 . S
C560 C561 1.377 . S
C560 C562 1.384 . S
C561 C560 1.377 . S
C561 C567 1.390 . S
C562 H553 0.930 . S
C562 C560 1.384 . S
C562 C563 1.372 . S
C563 C562 1.372 . S
C563 C564 1.400 . S
C563 C568 1.490 . S
C564 H554 0.930 . S
C564 C563 1.400 . S
C564 C567 1.386 . S
H565 C581 0.930 . S
H566 C582 0.931 . S
C567 H555 0.929 . S
C567 C561 1.390 . S
C567 C564 1.386 . S
C568 C563 1.490 . S
C568 C570 1.395 . S
C568 C571 1.403 . S
H569 C575 0.930 . S
C570 H556 0.930 1_455 S
C570 C568 1.395 . S
C570 C573 1.403 . S
C571 C568 1.403 . S
C571 C572 1.524 . S
C571 C575 1.400 . S
C572 H557 0.960 . S
C572 H558 0.960 . S
C572 H559 0.960 . S
C572 C571 1.524 . S
C573 C570 1.403 . S
C573 C574 1.392 . S
C573 C577 1.495 1_455 S
C574 C573 1.392 . S
C574 C575 1.385 . S
C574 C576 1.478 . S
C575 H569 0.930 . S
C575 C571 1.400 . S
C575 C574 1.385 . S
C576 C574 1.478 . S
C576 C578 1.381 . S
C576 C582 1.383 . S
C577 C573 1.495 1_655 S
C577 H583 0.959 . S
C577 H584 0.961 . S
C577 H585 0.960 1_655 S
C578 C576 1.381 . S
C578 C579 1.394 . S
C578 H586 0.930 . S
C579 C578 1.394 . S
C579 C580 1.383 . S
C579 H587 0.929 . S
C580 C579 1.383 . S
C580 C581 1.377 . S
C581 H565 0.930 . S
C581 C580 1.377 . S
C581 C582 1.379 . S
C582 H566 0.931 . S
C582 C576 1.383 . S
C582 C581 1.379 . S
H583 C577 0.959 . S
H584 C577 0.961 . S
H585 C577 0.960 1_455 S
H586 C578 0.930 . S
H587 C579 0.929 . S
H588 C596 0.929 . S
H589 C598 0.930 . S
H590 C600 0.930 . S
H591 C603 0.929 . S
H592 C606 0.930 . S
H593 C608 0.960 . S
H594 C608 0.960 . S
H595 C608 0.960 . S
C596 H588 0.929 . S
C596 C597 1.377 . S
C596 C598 1.384 . S
C597 C596 1.377 . S
C597 C603 1.390 . S
C598 H589 0.930 . S
C598 C596 1.384 . S
C598 C599 1.372 . S
C599 C598 1.372 . S
C599 C600 1.400 . S
C599 C604 1.490 . S
C600 H590 0.930 . S
C600 C599 1.400 . S
C600 C603 1.386 . S
H601 C617 0.930 . S
H602 C618 0.931 . S
C603 H591 0.929 . S
C603 C597 1.390 . S
C603 C600 1.386 . S
C604 C599 1.490 . S
C604 C606 1.395 . S
C604 C607 1.403 . S
H605 C611 0.930 . S
C606 H592 0.930 . S
C606 C604 1.395 . S
C606 C609 1.403 . S
C607 C604 1.403 . S
C607 C608 1.524 . S
C607 C611 1.400 . S
C608 H593 0.960 . S
C608 H594 0.960 . S
C608 H595 0.960 . S
C608 C607 1.524 . S
C609 C606 1.403 . S
C609 C610 1.392 . S
C609 C613 1.495 . S
C610 C609 1.392 . S
C610 C611 1.385 . S
C610 C612 1.478 . S
C611 H605 0.930 . S
C611 C607 1.400 . S
C611 C610 1.385 . S
C612 C610 1.478 . S
C612 C614 1.381 . S
C612 C618 1.383 . S
C613 C609 1.495 . S
C613 H619 0.959 . S
C613 H620 0.961 . S
C613 H621 0.960 . S
C614 C612 1.381 . S
C614 C615 1.394 . S
C614 H622 0.930 . S
C615 C614 1.394 . S
C615 C616 1.383 . S
C615 H623 0.929 . S
C616 C615 1.383 . S
C616 C617 1.377 . S
C617 H601 0.930 . S
C617 C616 1.377 . S
C617 C618 1.379 . S
C618 H602 0.931 . S
C618 C612 1.383 . S
C618 C617 1.379 . S
H619 C613 0.959 . S
H620 C613 0.961 . S
H621 C613 0.960 . S
H622 C614 0.930 . S
H623 C615 0.929 . S
H624 C632 0.929 . S
H625 C634 0.930 1_554 S
H626 C636 0.930 . S
H627 C639 0.929 . S
H628 C642 0.930 . S
H629 C644 0.960 . S
H630 C644 0.960 . S
H631 C644 0.960 . S
C632 H624 0.929 . S
C632 C633 1.377 . S
C632 C634 1.384 . S
C633 C632 1.377 . S
C633 C639 1.390 . S
C634 H625 0.930 1_556 S
C634 C632 1.384 . S
C634 C635 1.372 1_556 S
C635 C634 1.372 1_554 S
C635 C636 1.400 1_554 S
C635 C640 1.490 . S
C636 H626 0.930 . S
C636 C635 1.400 1_556 S
C636 C639 1.386 . S
H637 C653 0.930 . S
H638 C654 0.931 . S
C639 H627 0.929 . S
C639 C633 1.390 . S
C639 C636 1.386 . S
C640 C635 1.490 . S
C640 C642 1.395 . S
C640 C643 1.403 . S
H641 C647 0.930 . S
C642 H628 0.930 . S
C642 C640 1.395 . S
C642 C645 1.403 . S
C643 C640 1.403 . S
C643 C644 1.524 . S
C643 C647 1.400 . S
C644 H629 0.960 . S
C644 H630 0.960 . S
C644 H631 0.960 . S
C644 C643 1.524 . S
C645 C642 1.403 . S
C645 C646 1.392 . S
C645 C649 1.495 . S
C646 C645 1.392 . S
C646 C647 1.385 . S
C646 C648 1.478 . S
C647 H641 0.930 . S
C647 C643 1.400 . S
C647 C646 1.385 . S
C648 C646 1.478 . S
C648 C650 1.381 . S
C648 C654 1.383 . S
C649 C645 1.495 . S
C649 H655 0.959 . S
C649 H656 0.961 . S
C649 H657 0.960 . S
C650 C648 1.381 . S
C650 C651 1.394 . S
C650 H658 0.930 . S
C651 C650 1.394 . S
C651 C652 1.383 . S
C651 H659 0.929 . S
C652 C651 1.383 . S
C652 C653 1.377 . S
C653 H637 0.930 . S
C653 C652 1.377 . S
C653 C654 1.379 . S
C654 H638 0.931 . S
C654 C648 1.383 . S
C654 C653 1.379 . S
H655 C649 0.959 . S
H656 C649 0.961 . S
H657 C649 0.960 . S
H658 C650 0.930 . S
H659 C651 0.929 . S
H660 C668 0.929 . S
H661 C670 0.930 . S
H662 C672 0.930 . S
H663 C675 0.929 . S
H664 C678 0.930 . S
H665 C680 0.960 . S
H666 C680 0.960 . S
H667 C680 0.960 . S
C668 H660 0.929 . S
C668 C669 1.377 . S
C668 C670 1.384 . S
C669 C668 1.377 . S
C669 C675 1.390 . S
C670 H661 0.930 . S
C670 C668 1.384 . S
C670 C671 1.372 . S
C671 C670 1.372 . S
C671 C672 1.400 . S
C671 C676 1.490 . S
C672 H662 0.930 . S
C672 C671 1.400 . S
C672 C675 1.386 . S
H673 C689 0.930 . S
H674 C690 0.931 . S
C675 H663 0.929 . S
C675 C669 1.390 . S
C675 C672 1.386 . S
C676 C671 1.490 . S
C676 C678 1.395 . S
C676 C679 1.403 . S
H677 C683 0.930 . S
C678 H664 0.930 . S
C678 C676 1.395 . S
C678 C681 1.403 . S
C679 C676 1.403 . S
C679 C680 1.524 . S
C679 C683 1.400 . S
C680 H665 0.960 . S
C680 H666 0.960 . S
C680 H667 0.960 . S
C680 C679 1.524 . S
C681 C678 1.403 . S
C681 C682 1.392 . S
C681 C685 1.495 . S
C682 C681 1.392 . S
C682 C683 1.385 . S
C682 C684 1.478 . S
C683 H677 0.930 . S
C683 C679 1.400 . S
C683 C682 1.385 . S
C684 C682 1.478 . S
C684 C686 1.381 . S
C684 C690 1.383 . S
C685 C681 1.495 . S
C685 H691 0.959 . S
C685 H692 0.961 . S
C685 H693 0.960 . S
C686 C684 1.381 . S
C686 C687 1.394 . S
C686 H694 0.930 . S
C687 C686 1.394 . S
C687 C688 1.383 . S
C687 H695 0.929 . S
C688 C687 1.383 . S
C688 C689 1.377 . S
C689 H673 0.930 . S
C689 C688 1.377 . S
C689 C690 1.379 . S
C690 H674 0.931 . S
C690 C684 1.383 . S
C690 C689 1.379 . S
H691 C685 0.959 . S
H692 C685 0.961 . S
H693 C685 0.960 . S
H694 C686 0.930 . S
H695 C687 0.929 . S
H696 C704 0.929 . S
H697 C706 0.930 . S
H698 C708 0.930 1_655 S
H699 C711 0.929 . S
H700 C714 0.930 . S
H701 C716 0.960 . S
H702 C716 0.960 . S
H703 C716 0.960 . S
C704 H696 0.929 . S
C704 C705 1.377 . S
C704 C706 1.384 . S
C705 C704 1.377 . S
C705 C711 1.390 . S
C706 H697 0.930 . S
C706 C704 1.384 . S
C706 C707 1.372 . S
C707 C706 1.372 . S
C707 C708 1.400 . S
C707 C712 1.490 1_455 S
C708 H698 0.930 1_455 S
C708 C707 1.400 . S
C708 C711 1.386 . S
H709 C725 0.930 . S
H710 C726 0.931 . S
C711 H699 0.929 . S
C711 C705 1.390 . S
C711 C708 1.386 . S
C712 C707 1.490 1_655 S
C712 C714 1.395 . S
C712 C715 1.403 . S
H713 C719 0.930 . S
C714 H700 0.930 . S
C714 C712 1.395 . S
C714 C717 1.403 . S
C715 C712 1.403 . S
C715 C716 1.524 1_545 S
C715 C719 1.400 . S
C716 H701 0.960 . S
C716 H702 0.960 . S
C716 H703 0.960 . S
C716 C715 1.524 1_565 S
C717 C714 1.403 . S
C717 C718 1.392 . S
C717 C721 1.495 . S
C718 C717 1.392 . S
C718 C719 1.385 . S
C718 C720 1.478 . S
C719 H713 0.930 . S
C719 C715 1.400 . S
C719 C718 1.385 . S
C720 C718 1.478 . S
C720 C722 1.381 . S
C720 C726 1.383 . S
C721 C717 1.495 . S
C721 H727 0.959 . S
C721 H728 0.961 . S
C721 H729 0.960 . S
C722 C720 1.381 . S
C722 C723 1.394 . S
C722 H730 0.930 . S
C723 C722 1.394 . S
C723 C724 1.383 . S
C723 H731 0.929 . S
C724 C723 1.383 . S
C724 C725 1.377 . S
C725 H709 0.930 . S
C725 C724 1.377 . S
C725 C726 1.379 . S
C726 H710 0.931 . S
C726 C720 1.383 . S
C726 C725 1.379 . S
H727 C721 0.959 . S
H728 C721 0.961 . S
H729 C721 0.960 . S
H730 C722 0.930 . S
H731 C723 0.929 . S
H732 C740 0.929 . S
H733 C742 0.930 . S
H734 C744 0.930 . S
H735 C747 0.929 . S
H736 C750 0.930 . S
H737 C752 0.960 . S
H738 C752 0.960 . S
H739 C752 0.960 . S
C740 H732 0.929 . S
C740 C741 1.377 . S
C740 C742 1.384 . S
C741 C740 1.377 . S
C741 C747 1.390 . S
C742 H733 0.930 . S
C742 C740 1.384 . S
C742 C743 1.372 . S
C743 C742 1.372 . S
C743 C744 1.400 . S
C743 C748 1.490 . S
C744 H734 0.930 . S
C744 C743 1.400 . S
C744 C747 1.386 . S
H745 C761 0.930 . S
H746 C762 0.931 . S
C747 H735 0.929 . S
C747 C741 1.390 . S
C747 C744 1.386 . S
C748 C743 1.490 . S
C748 C750 1.395 . S
C748 C751 1.403 . S
H749 C755 0.930 . S
C750 H736 0.930 . S
C750 C748 1.395 . S
C750 C753 1.403 . S
C751 C748 1.403 . S
C751 C752 1.524 . S
C751 C755 1.400 . S
C752 H737 0.960 . S
C752 H738 0.960 . S
C752 H739 0.960 . S
C752 C751 1.524 . S
C753 C750 1.403 . S
C753 C754 1.392 . S
C753 C757 1.495 . S
C754 C753 1.392 . S
C754 C755 1.385 . S
C754 C756 1.478 . S
C755 H749 0.930 . S
C755 C751 1.400 . S
C755 C754 1.385 . S
C756 C754 1.478 . S
C756 C758 1.381 . S
C756 C762 1.383 . S
C757 C753 1.495 . S
C757 H763 0.959 . S
C757 H764 0.961 . S
C757 H765 0.960 . S
C758 C756 1.381 . S
C758 C759 1.394 . S
C758 H766 0.930 . S
C759 C758 1.394 . S
C759 C760 1.383 . S
C759 H767 0.929 . S
C760 C759 1.383 . S
C760 C761 1.377 . S
C761 H745 0.930 . S
C761 C760 1.377 . S
C761 C762 1.379 . S
C762 H746 0.931 . S
C762 C756 1.383 . S
C762 C761 1.379 . S
H763 C757 0.959 . S
H764 C757 0.961 . S
H765 C757 0.960 . S
H766 C758 0.930 . S
H767 C759 0.929 . S
H768 C776 0.929 . S
H769 C778 0.930 . S
H770 C780 0.930 . S
H771 C783 0.929 . S
H772 C786 0.930 . S
H773 C788 0.960 . S
H774 C788 0.960 . S
H775 C788 0.960 . S
C776 H768 0.929 . S
C776 C777 1.377 1_545 S
C776 C778 1.384 . S
C777 C776 1.377 1_565 S
C777 C783 1.390 . S
C778 H769 0.930 . S
C778 C776 1.384 . S
C778 C779 1.372 1_545 S
C779 C778 1.372 1_565 S
C779 C780 1.400 . S
C779 C784 1.490 . S
C780 H770 0.930 . S
C780 C779 1.400 . S
C780 C783 1.386 . S
H781 C797 0.930 . S
H782 C798 0.931 . S
C783 H771 0.929 . S
C783 C777 1.390 . S
C783 C780 1.386 . S
C784 C779 1.490 . S
C784 C786 1.395 . S
C784 C787 1.403 . S
H785 C791 0.930 . S
C786 H772 0.930 . S
C786 C784 1.395 . S
C786 C789 1.403 . S
C787 C784 1.403 . S
C787 C788 1.524 . S
C787 C791 1.400 . S
C788 H773 0.960 . S
C788 H774 0.960 . S
C788 H775 0.960 . S
C788 C787 1.524 . S
C789 C786 1.403 . S
C789 C790 1.392 . S
C789 C793 1.495 . S
C790 C789 1.392 . S
C790 C791 1.385 . S
C790 C792 1.478 . S
C791 H785 0.930 . S
C791 C787 1.400 . S
C791 C790 1.385 . S
C792 C790 1.478 . S
C792 C794 1.381 . S
C792 C798 1.383 . S
C793 C789 1.495 . S
C793 H799 0.959 . S
C793 H800 0.961 . S
C793 H801 0.960 . S
C794 C792 1.381 . S
C794 C795 1.394 . S
C794 H802 0.930 . S
C795 C794 1.394 . S
C795 C796 1.383 . S
C795 H803 0.929 . S
C796 C795 1.383 . S
C796 C797 1.377 . S
C797 H781 0.930 . S
C797 C796 1.377 . S
C797 C798 1.379 . S
C798 H782 0.931 . S
C798 C792 1.383 . S
C798 C797 1.379 . S
H799 C793 0.959 . S
H800 C793 0.961 . S
H801 C793 0.960 . S
H802 C794 0.930 . S
H803 C795 0.929 . S
H804 C812 0.929 . S
H805 C814 0.930 . S
H806 C816 0.930 . S
H807 C819 0.929 . S
H808 C822 0.930 . S
H809 C824 0.960 . S
H810 C824 0.960 . S
H811 C824 0.960 . S
C812 H804 0.929 . S
C812 C813 1.377 . S
C812 C814 1.384 . S
C813 C812 1.377 . S
C813 C819 1.390 . S
C814 H805 0.930 . S
C814 C812 1.384 . S
C814 C815 1.372 . S
C815 C814 1.372 . S
C815 C816 1.400 . S
C815 C820 1.490 . S
C816 H806 0.930 . S
C816 C815 1.400 . S
C816 C819 1.386 . S
H817 C833 0.930 . S
H818 C834 0.931 . S
C819 H807 0.929 . S
C819 C813 1.390 . S
C819 C816 1.386 . S
C820 C815 1.490 . S
C820 C822 1.395 . S
C820 C823 1.403 . S
H821 C827 0.930 . S
C822 H808 0.930 . S
C822 C820 1.395 . S
C822 C825 1.403 . S
C823 C820 1.403 . S
C823 C824 1.524 . S
C823 C827 1.400 . S
C824 H809 0.960 . S
C824 H810 0.960 . S
C824 H811 0.960 . S
C824 C823 1.524 . S
C825 C822 1.403 . S
C825 C826 1.392 . S
C825 C829 1.495 . S
C826 C825 1.392 . S
C826 C827 1.385 . S
C826 C828 1.478 . S
C827 H821 0.930 . S
C827 C823 1.400 . S
C827 C826 1.385 . S
C828 C826 1.478 . S
C828 C830 1.381 . S
C828 C834 1.383 . S
C829 C825 1.495 . S
C829 H835 0.959 . S
C829 H836 0.961 . S
C829 H837 0.960 . S
C830 C828 1.381 . S
C830 C831 1.394 . S
C830 H838 0.930 . S
C831 C830 1.394 . S
C831 C832 1.383 . S
C831 H839 0.929 . S
C832 C831 1.383 . S
C832 C833 1.377 . S
C833 H817 0.930 . S
C833 C832 1.377 . S
C833 C834 1.379 . S
C834 H818 0.931 . S
C834 C828 1.383 . S
C834 C833 1.379 . S
H835 C829 0.959 . S
H836 C829 0.961 . S
H837 C829 0.960 . S
H838 C830 0.930 . S
H839 C831 0.929 . S
H840 C848 0.929 . S
H841 C850 0.930 . S
H842 C852 0.930 . S
H843 C855 0.929 . S
H844 C858 0.930 . S
H845 C860 0.960 . S
H846 C860 0.960 1_455 S
H847 C860 0.960 1_455 S
C848 H840 0.929 . S
C848 C849 1.377 . S
C848 C850 1.384 . S
C849 C848 1.377 . S
C849 C855 1.390 1_565 S
C850 H841 0.930 . S
C850 C848 1.384 . S
C850 C851 1.382 . S
C851 C850 1.382 . S
C851 C852 1.409 1_565 S
C851 C856 1.471 1_455 S
C852 H842 0.930 . S
C852 C851 1.409 1_545 S
C852 C855 1.386 . S
H853 C869 0.930 . S
H854 C870 0.931 . S
C855 H843 0.929 . S
C855 C849 1.390 1_545 S
C855 C852 1.386 . S
C856 C851 1.471 1_655 S
C856 C858 1.395 . S
C856 C859 1.403 . S
H857 C863 0.930 . S
C858 H844 0.930 . S
C858 C856 1.395 . S
C858 C861 1.403 . S
C859 C856 1.403 . S
C859 C860 1.524 . S
C859 C863 1.400 . S
C860 H845 0.960 . S
C860 H846 0.960 1_655 S
C860 H847 0.960 1_655 S
C860 C859 1.524 . S
C861 C858 1.403 . S
C861 C862 1.392 . S
C861 C865 1.495 . S
C862 C861 1.392 . S
C862 C863 1.385 . S
C862 C864 1.478 . S
C863 H857 0.930 . S
C863 C859 1.400 . S
C863 C862 1.385 . S
C864 C862 1.478 . S
C864 C866 1.381 . S
C864 C870 1.383 . S
C865 C861 1.495 . S
C865 H871 0.959 . S
C865 H872 0.961 . S
C865 H873 0.960 . S
C866 C864 1.381 . S
C866 C867 1.394 . S
C866 H874 0.930 . S
C867 C866 1.394 . S
C867 C868 1.383 . S
C867 H875 0.929 . S
C868 C867 1.383 . S
C868 C869 1.377 . S
C869 H853 0.930 . S
C869 C868 1.377 . S
C869 C870 1.379 . S
C870 H854 0.931 . S
C870 C864 1.383 . S
C870 C869 1.379 . S
H871 C865 0.959 . S
H872 C865 0.961 . S
H873 C865 0.960 . S
H874 C866 0.930 . S
H875 C867 0.929 . S
H876 C884 0.929 . S
H877 C886 0.930 . S
H878 C888 0.930 . S
H879 C891 0.929 . S
H880 C894 0.930 . S
H881 C896 0.960 . S
H882 C896 0.960 . S
H883 C896 0.960 . S
C884 H876 0.929 . S
C884 C885 1.377 . S
C884 C886 1.384 . S
C885 C884 1.377 . S
C885 C891 1.390 . S
C886 H877 0.930 . S
C886 C884 1.384 . S
C886 C887 1.372 . S
C887 C886 1.372 . S
C887 C888 1.400 . S
C887 C892 1.490 . S
C888 H878 0.930 . S
C888 C887 1.400 . S
C888 C891 1.386 . S
H889 C905 0.930 . S
H890 C906 0.931 . S
C891 H879 0.929 . S
C891 C885 1.390 . S
C891 C888 1.386 . S
C892 C887 1.490 . S
C892 C894 1.395 . S
C892 C895 1.403 . S
H893 C899 0.930 . S
C894 H880 0.930 . S
C894 C892 1.395 . S
C894 C897 1.403 . S
C895 C892 1.403 . S
C895 C896 1.524 . S
C895 C899 1.400 . S
C896 H881 0.960 . S
C896 H882 0.960 . S
C896 H883 0.960 . S
C896 C895 1.524 . S
C897 C894 1.403 . S
C897 C898 1.392 . S
C897 C901 1.495 . S
C898 C897 1.392 . S
C898 C899 1.385 . S
C898 C900 1.478 . S
C899 H893 0.930 . S
C899 C895 1.400 . S
C899 C898 1.385 . S
C900 C898 1.478 . S
C900 C902 1.381 . S
C900 C906 1.383 . S
C901 C897 1.495 . S
C901 H907 0.959 . S
C901 H908 0.961 . S
C901 H909 0.960 . S
C902 C900 1.381 . S
C902 C903 1.394 . S
C902 H910 0.930 . S
C903 C902 1.394 . S
C903 C904 1.383 . S
C903 H911 0.929 . S
C904 C903 1.383 . S
C904 C905 1.377 . S
C905 H889 0.930 . S
C905 C904 1.377 . S
C905 C906 1.379 . S
C906 H890 0.931 . S
C906 C900 1.383 . S
C906 C905 1.379 . S
H907 C901 0.959 . S
H908 C901 0.961 . S
H909 C901 0.960 . S
H910 C902 0.930 . S
H911 C903 0.929 . S
H912 C920 0.929 . S
H913 C922 0.930 . S
H914 C924 0.930 1_565 S
H915 C927 0.929 . S
H916 C930 0.930 . S
H917 C932 0.960 . S
H918 C932 0.960 . S
H919 C932 0.960 . S
C920 H912 0.929 . S
C920 C921 1.377 . S
C920 C922 1.384 . S
C921 C920 1.377 . S
C921 C927 1.390 1_545 S
C922 H913 0.930 . S
C922 C920 1.384 . S
C922 C923 1.372 . S
C923 C922 1.372 . S
C923 C924 1.400 . S
C923 C928 1.490 . S
C924 H914 0.930 1_545 S
C924 C923 1.400 . S
C924 C927 1.386 1_545 S
H925 C941 0.930 . S
H926 C942 0.931 . S
C927 H915 0.929 . S
C927 C921 1.390 1_565 S
C927 C924 1.386 1_565 S
C928 C923 1.490 . S
C928 C930 1.395 . S
C928 C931 1.403 . S
H929 C935 0.930 . S
C930 H916 0.930 . S
C930 C928 1.395 . S
C930 C933 1.403 . S
C931 C928 1.403 . S
C931 C932 1.524 . S
C931 C935 1.400 . S
C932 H917 0.960 . S
C932 H918 0.960 . S
C932 H919 0.960 . S
C932 C931 1.524 . S
C933 C930 1.403 . S
C933 C934 1.392 . S
C933 C937 1.495 . S
C934 C933 1.392 . S
C934 C935 1.385 . S
C934 C936 1.478 . S
C935 H929 0.930 . S
C935 C931 1.400 . S
C935 C934 1.385 . S
C936 C934 1.478 . S
C936 C938 1.381 . S
C936 C942 1.383 . S
C937 C933 1.495 . S
C937 H943 0.959 . S
C937 H944 0.961 . S
C937 H945 0.960 . S
C938 C936 1.381 . S
C938 C939 1.394 . S
C938 H946 0.930 . S
C939 C938 1.394 . S
C939 C940 1.383 . S
C939 H947 0.929 . S
C940 C939 1.383 . S
C940 C941 1.377 . S
C941 H925 0.930 . S
C941 C940 1.377 . S
C941 C942 1.379 . S
C942 H926 0.931 . S
C942 C936 1.383 . S
C942 C941 1.379 . S
H943 C937 0.959 . S
H944 C937 0.961 . S
H945 C937 0.960 . S
H946 C938 0.930 . S
H947 C939 0.929 . S
H948 C956 0.929 . S
H949 C958 0.930 . S
H950 C960 0.930 . S
H951 C963 0.929 . S
H952 C966 0.930 . S
H953 C968 0.960 . S
H954 C968 0.960 . S
H955 C968 0.960 . S
C956 H948 0.929 . S
C956 C957 1.377 . S
C956 C958 1.384 . S
C957 C956 1.377 . S
C957 C963 1.390 . S
C958 H949 0.930 . S
C958 C956 1.384 . S
C958 C959 1.372 . S
C959 C958 1.372 . S
C959 C960 1.400 . S
C959 C964 1.490 . S
C960 H950 0.930 . S
C960 C959 1.400 . S
C960 C963 1.386 . S
H961 C977 0.930 . S
H962 C978 0.931 . S
C963 H951 0.929 . S
C963 C957 1.390 . S
C963 C960 1.386 . S
C964 C959 1.490 . S
C964 C966 1.395 . S
C964 C967 1.403 . S
H965 C971 0.930 . S
C966 H952 0.930 . S
C966 C964 1.395 . S
C966 C969 1.403 . S
C967 C964 1.403 . S
C967 C968 1.524 . S
C967 C971 1.400 . S
C968 H953 0.960 . S
C968 H954 0.960 . S
C968 H955 0.960 . S
C968 C967 1.524 . S
C969 C966 1.403 . S
C969 C970 1.392 . S
C969 C973 1.495 . S
C970 C969 1.392 . S
C970 C971 1.385 . S
C970 C972 1.478 . S
C971 H965 0.930 . S
C971 C967 1.400 . S
C971 C970 1.385 . S
C972 C970 1.478 . S
C972 C974 1.381 . S
C972 C978 1.383 . S
C973 C969 1.495 . S
C973 H979 0.959 . S
C973 H980 0.961 . S
C973 H981 0.960 . S
C974 C972 1.381 . S
C974 C975 1.394 . S
C974 H982 0.930 . S
C975 C974 1.394 . S
C975 C976 1.383 . S
C975 H983 0.929 . S
C976 C975 1.383 . S
C976 C977 1.377 . S
C977 H961 0.930 . S
C977 C976 1.377 . S
C977 C978 1.379 . S
C978 H962 0.931 . S
C978 C972 1.383 . S
C978 C977 1.379 . S
H979 C973 0.959 . S
H980 C973 0.961 . S
H981 C973 0.960 . S
H982 C974 0.930 . S
H983 C975 0.929 . S
H984 C992 0.929 . S
H985 C994 0.930 1_556 S
H986 C996 0.930 1_565 S
H987 C999 0.929 . S
H988 C1002 0.930 . S
H989 C1004 0.960 . S
H990 C1004 0.960 . S
H991 C1004 0.960 . S
C992 H984 0.929 . S
C992 C993 1.377 1_556 S
C992 C994 1.384 1_556 S
C993 C992 1.377 1_554 S
C993 C999 1.390 . S
C994 H985 0.930 1_554 S
C994 C992 1.384 1_554 S
C994 C995 1.372 1_545 S
C995 C994 1.372 1_565 S
C995 C996 1.400 1_565 S
C995 C1000 1.490 . S
C996 H986 0.930 1_545 S
C996 C995 1.400 1_545 S
C996 C999 1.386 . S
H997 C1013 0.930 . S
H998 C1014 0.931 . S
C999 H987 0.929 . S
C999 C993 1.390 . S
C999 C996 1.386 . S
C1000 C995 1.490 . S
C1000 C1002 1.395 . S
C1000 C1003 1.403 . S
H1001 C1007 0.930 . S
C1002 H988 0.930 . S
C1002 C1000 1.395 . S
C1002 C1005 1.403 . S
C1003 C1000 1.403 . S
C1003 C1004 1.524 . S
C1003 C1007 1.400 . S
C1004 H989 0.960 . S
C1004 H990 0.960 . S
C1004 H991 0.960 . S
C1004 C1003 1.524 . S
C1005 C1002 1.403 . S
C1005 C1006 1.392 . S
C1005 C1009 1.495 . S
C1006 C1005 1.392 . S
C1006 C1007 1.385 . S
C1006 C1008 1.478 . S
C1007 H1001 0.930 . S
C1007 C1003 1.400 . S
C1007 C1006 1.385 . S
C1008 C1006 1.478 . S
C1008 C1010 1.381 . S
C1008 C1014 1.383 . S
C1009 C1005 1.495 . S
C1009 H1015 0.959 . S
C1009 H1016 0.961 . S
C1009 H1017 0.960 . S
C1010 C1008 1.381 . S
C1010 C1011 1.394 . S
C1010 H1018 0.930 . S
C1011 C1010 1.394 . S
C1011 C1012 1.383 . S
C1011 H1019 0.929 . S
C1012 C1011 1.383 . S
C1012 C1013 1.377 . S
C1013 H997 0.930 . S
C1013 C1012 1.377 . S
C1013 C1014 1.379 . S
C1014 H998 0.931 . S
C1014 C1008 1.383 . S
C1014 C1013 1.379 . S
H1015 C1009 0.959 . S
H1016 C1009 0.961 . S
H1017 C1009 0.960 . S
H1018 C1010 0.930 . S
H1019 C1011 0.929 . S
H1020 C1028 0.929 . S
H1021 C1030 0.930 . S
H1022 C1032 0.930 . S
H1023 C1035 0.929 . S
H1024 C1038 0.930 . S
H1025 C1040 0.960 1_554 S
H1026 C1040 0.960 . S
H1027 C1040 0.960 1_554 S
C1028 H1020 0.929 . S
C1028 C1029 1.377 . S
C1028 C1030 1.384 . S
C1029 C1028 1.377 . S
C1029 C1035 1.390 1_556 S
C1030 H1021 0.930 . S
C1030 C1028 1.384 . S
C1030 C1031 1.372 . S
C1031 C1030 1.372 . S
C1031 C1032 1.400 1_556 S
C1031 C1036 1.490 . S
C1032 H1022 0.930 . S
C1032 C1031 1.400 1_554 S
C1032 C1035 1.386 . S
H1033 C1049 0.930 . S
H1034 C1050 0.931 . S
C1035 H1023 0.929 . S
C1035 C1029 1.390 1_554 S
C1035 C1032 1.386 . S
C1036 C1031 1.490 . S
C1036 C1038 1.395 . S
C1036 C1039 1.403 . S
H1037 C1043 0.930 . S
C1038 H1024 0.930 . S
C1038 C1036 1.395 . S
C1038 C1041 1.403 . S
C1039 C1036 1.403 . S
C1039 C1040 1.524 . S
C1039 C1043 1.400 . S
C1040 H1025 0.960 1_556 S
C1040 H1026 0.960 . S
C1040 H1027 0.960 1_556 S
C1040 C1039 1.524 . S
C1041 C1038 1.403 . S
C1041 C1042 1.392 . S
C1041 C1045 1.495 . S
C1042 C1041 1.392 . S
C1042 C1043 1.385 . S
C1042 C1044 1.478 . S
C1043 H1037 0.930 . S
C1043 C1039 1.400 . S
C1043 C1042 1.385 . S
C1044 C1042 1.478 . S
C1044 C1046 1.381 . S
C1044 C1050 1.383 . S
C1045 C1041 1.495 . S
C1045 H1051 0.959 . S
C1045 H1052 0.961 . S
C1045 H1053 0.960 . S
C1046 C1044 1.381 . S
C1046 C1047 1.394 . S
C1046 H1054 0.930 . S
C1047 C1046 1.394 . S
C1047 C1048 1.383 . S
C1047 H1055 0.929 . S
C1048 C1047 1.383 . S
C1048 C1049 1.377 . S
C1049 H1033 0.930 . S
C1049 C1048 1.377 . S
C1049 C1050 1.379 . S
C1050 H1034 0.931 . S
C1050 C1044 1.383 . S
C1050 C1049 1.379 . S
H1051 C1045 0.959 . S
H1052 C1045 0.961 . S
H1053 C1045 0.960 . S
H1054 C1046 0.930 . S
H1055 C1047 0.929 . S
H1056 C1064 0.929 . S
H1057 C1066 0.930 . S
H1058 C1068 0.930 . S
H1059 C1071 0.929 . S
H1060 C1074 0.930 . S
H1061 C1076 0.960 . S
H1062 C1076 0.960 . S
H1063 C1076 0.960 . S
C1064 H1056 0.929 . S
C1064 C1065 1.377 . S
C1064 C1066 1.384 . S
C1065 C1064 1.377 . S
C1065 C1071 1.390 . S
C1066 H1057 0.930 . S
C1066 C1064 1.384 . S
C1066 C1067 1.372 . S
C1067 C1066 1.372 . S
C1067 C1068 1.400 . S
C1067 C1072 1.490 . S
C1068 H1058 0.930 . S
C1068 C1067 1.400 . S
C1068 C1071 1.386 . S
H1069 C1085 0.930 . S
H1070 C1086 0.931 . S
C1071 H1059 0.929 . S
C1071 C1065 1.390 . S
C1071 C1068 1.386 . S
C1072 C1067 1.490 . S
C1072 C1074 1.395 . S
C1072 C1075 1.403 . S
H1073 C1079 0.930 . S
C1074 H1060 0.930 . S
C1074 C1072 1.395 . S
C1074 C1077 1.403 . S
C1075 C1072 1.403 . S
C1075 C1076 1.524 . S
C1075 C1079 1.400 . S
C1076 H1061 0.960 . S
C1076 H1062 0.960 . S
C1076 H1063 0.960 . S
C1076 C1075 1.524 . S
C1077 C1074 1.403 . S
C1077 C1078 1.392 . S
C1077 C1081 1.495 . S
C1078 C1077 1.392 . S
C1078 C1079 1.385 . S
C1078 C1080 1.478 . S
C1079 H1073 0.930 . S
C1079 C1075 1.400 . S
C1079 C1078 1.385 . S
C1080 C1078 1.478 . S
C1080 C1082 1.381 . S
C1080 C1086 1.383 . S
C1081 C1077 1.495 . S
C1081 H1087 0.959 . S
C1081 H1088 0.961 . S
C1081 H1089 0.960 . S
C1082 C1080 1.381 . S
C1082 C1083 1.394 . S
C1082 H1090 0.930 . S
C1083 C1082 1.394 . S
C1083 C1084 1.383 . S
C1083 H1091 0.929 . S
C1084 C1083 1.383 . S
C1084 C1085 1.377 . S
C1085 H1069 0.930 . S
C1085 C1084 1.377 . S
C1085 C1086 1.379 . S
C1086 H1070 0.931 . S
C1086 C1080 1.383 . S
C1086 C1085 1.379 . S
H1087 C1081 0.959 . S
H1088 C1081 0.961 . S
H1089 C1081 0.960 . S
H1090 C1082 0.930 . S
H1091 C1083 0.929 . S
H1092 C1100 0.929 . S
H1093 C1102 0.930 . S
H1094 C1104 0.930 . S
H1095 C1107 0.929 . S
H1096 C1110 0.930 . S
H1097 C1112 0.960 . S
H1098 C1112 0.960 . S
H1099 C1112 0.960 . S
C1100 H1092 0.929 . S
C1100 C1101 1.377 . S
C1100 C1102 1.384 . S
C1101 C1100 1.377 . S
C1101 C1107 1.390 . S
C1102 H1093 0.930 . S
C1102 C1100 1.384 . S
C1102 C1103 1.372 . S
C1103 C1102 1.372 . S
C1103 C1104 1.400 . S
C1103 C1108 1.490 . S
C1104 H1094 0.930 . S
C1104 C1103 1.400 . S
C1104 C1107 1.386 . S
H1105 C1121 0.930 . S
H1106 C1122 0.931 . S
C1107 H1095 0.929 . S
C1107 C1101 1.390 . S
C1107 C1104 1.386 . S
C1108 C1103 1.490 . S
C1108 C1110 1.395 . S
C1108 C1111 1.403 . S
H1109 C1115 0.930 . S
C1110 H1096 0.930 . S
C1110 C1108 1.395 . S
C1110 C1113 1.403 . S
C1111 C1108 1.403 . S
C1111 C1112 1.524 . S
C1111 C1115 1.400 . S
C1112 H1097 0.960 . S
C1112 H1098 0.960 . S
C1112 H1099 0.960 . S
C1112 C1111 1.524 . S
C1113 C1110 1.403 . S
C1113 C1114 1.392 . S
C1113 C1117 1.495 . S
C1114 C1113 1.392 . S
C1114 C1115 1.385 . S
C1114 C1116 1.478 . S
C1115 H1109 0.930 . S
C1115 C1111 1.400 . S
C1115 C1114 1.385 . S
C1116 C1114 1.478 . S
C1116 C1118 1.381 . S
C1116 C1122 1.383 . S
C1117 C1113 1.495 . S
C1117 H1123 0.959 . S
C1117 H1124 0.961 . S
C1117 H1125 0.960 . S
C1118 C1116 1.381 . S
C1118 C1119 1.394 . S
C1118 H1126 0.930 . S
C1119 C1118 1.394 . S
C1119 C1120 1.383 . S
C1119 H1127 0.929 . S
C1120 C1119 1.383 . S
C1120 C1121 1.377 . S
C1121 H1105 0.930 . S
C1121 C1120 1.377 . S
C1121 C1122 1.379 . S
C1122 H1106 0.931 . S
C1122 C1116 1.383 . S
C1122 C1121 1.379 . S
H1123 C1117 0.959 . S
H1124 C1117 0.961 . S
H1125 C1117 0.960 . S
H1126 C1118 0.930 . S
H1127 C1119 0.929 . S
H1128 C1136 0.929 . S
H1129 C1138 0.930 . S
H1130 C1140 0.930 . S
H1131 C1143 0.929 . S
H1132 C1146 0.930 . S
H1133 C1148 0.960 . S
H1134 C1148 0.960 . S
H1135 C1148 0.960 . S
C1136 H1128 0.929 . S
C1136 C1137 1.377 . S
C1136 C1138 1.384 . S
C1137 C1136 1.377 . S
C1137 C1143 1.390 . S
C1138 H1129 0.930 . S
C1138 C1136 1.384 . S
C1138 C1139 1.372 . S
C1139 C1138 1.372 . S
C1139 C1140 1.400 . S
C1139 C1144 1.490 . S
C1140 H1130 0.930 . S
C1140 C1139 1.400 . S
C1140 C1143 1.386 . S
H1141 C1157 0.930 . S
H1142 C1158 0.931 . S
C1143 H1131 0.929 . S
C1143 C1137 1.390 . S
C1143 C1140 1.386 . S
C1144 C1139 1.490 . S
C1144 C1146 1.395 . S
C1144 C1147 1.403 . S
H1145 C1151 0.930 . S
C1146 H1132 0.930 . S
C1146 C1144 1.395 . S
C1146 C1149 1.403 . S
C1147 C1144 1.403 . S
C1147 C1148 1.524 . S
C1147 C1151 1.400 . S
C1148 H1133 0.960 . S
C1148 H1134 0.960 . S
C1148 H1135 0.960 . S
C1148 C1147 1.524 . S
C1149 C1146 1.403 . S
C1149 C1150 1.392 . S
C1149 C1153 1.495 . S
C1150 C1149 1.392 . S
C1150 C1151 1.385 . S
C1150 C1152 1.478 . S
C1151 H1145 0.930 . S
C1151 C1147 1.400 . S
C1151 C1150 1.385 . S
C1152 C1150 1.478 . S
C1152 C1154 1.381 . S
C1152 C1158 1.383 . S
C1153 C1149 1.495 . S
C1153 H1159 0.959 . S
C1153 H1160 0.961 . S
C1153 H1161 0.960 . S
C1154 C1152 1.381 . S
C1154 C1155 1.394 . S
C1154 H1162 0.930 . S
C1155 C1154 1.394 . S
C1155 C1156 1.383 . S
C1155 H1163 0.929 . S
C1156 C1155 1.383 . S
C1156 C1157 1.377 . S
C1157 H1141 0.930 . S
C1157 C1156 1.377 . S
C1157 C1158 1.379 . S
C1158 H1142 0.931 . S
C1158 C1152 1.383 . S
C1158 C1157 1.379 . S
H1159 C1153 0.959 . S
H1160 C1153 0.961 . S
H1161 C1153 0.960 . S
H1162 C1154 0.930 . S
H1163 C1155 0.929 . S
H1164 C1172 0.929 . S
H1165 C1174 0.930 1_545 S
H1166 C1176 0.930 . S
H1167 C1179 0.929 . S
H1168 C1182 0.930 . S
H1169 C1184 0.960 . S
H1170 C1184 0.960 . S
H1171 C1184 0.960 . S
C1172 H1164 0.929 . S
C1172 C1173 1.377 . S
C1172 C1174 1.384 . S
C1173 C1172 1.377 . S
C1173 C1179 1.390 . S
C1174 H1165 0.930 1_565 S
C1174 C1172 1.384 . S
C1174 C1175 1.372 1_565 S
C1175 C1174 1.372 1_545 S
C1175 C1176 1.400 1_545 S
C1175 C1180 1.490 . S
C1176 H1166 0.930 . S
C1176 C1175 1.400 1_565 S
C1176 C1179 1.386 . S
H1177 C1193 0.930 . S
H1178 C1194 0.931 . S
C1179 H1167 0.929 . S
C1179 C1173 1.390 . S
C1179 C1176 1.386 . S
C1180 C1175 1.490 . S
C1180 C1182 1.395 . S
C1180 C1183 1.403 . S
H1181 C1187 0.930 . S
C1182 H1168 0.930 . S
C1182 C1180 1.395 . S
C1182 C1185 1.403 . S
C1183 C1180 1.403 . S
C1183 C1184 1.524 . S
C1183 C1187 1.400 . S
C1184 H1169 0.960 . S
C1184 H1170 0.960 . S
C1184 H1171 0.960 . S
C1184 C1183 1.524 . S
C1185 C1182 1.403 . S
C1185 C1186 1.392 . S
C1185 C1189 1.495 . S
C1186 C1185 1.392 . S
C1186 C1187 1.385 . S
C1186 C1188 1.478 . S
C1187 H1181 0.930 . S
C1187 C1183 1.400 . S
C1187 C1186 1.385 . S
C1188 C1186 1.478 . S
C1188 C1190 1.381 . S
C1188 C1194 1.383 . S
C1189 C1185 1.495 . S
C1189 H1195 0.959 . S
C1189 H1196 0.961 . S
C1189 H1197 0.960 . S
C1190 C1188 1.381 . S
C1190 C1191 1.394 . S
C1190 H1198 0.930 . S
C1191 C1190 1.394 . S
C1191 C1192 1.383 . S
C1191 H1199 0.929 . S
C1192 C1191 1.383 . S
C1192 C1193 1.377 . S
C1193 H1177 0.930 . S
C1193 C1192 1.377 . S
C1193 C1194 1.379 . S
C1194 H1178 0.931 . S
C1194 C1188 1.383 . S
C1194 C1193 1.379 . S
H1195 C1189 0.959 . S
H1196 C1189 0.961 . S
H1197 C1189 0.960 . S
H1198 C1190 0.930 . S
H1199 C1191 0.929 . S
H1200 C1208 0.929 . S
H1201 C1210 0.930 . S
H1202 C1212 0.930 . S
H1203 C1215 0.929 . S
H1204 C1218 0.930 . S
H1205 C1220 0.960 . S
H1206 C1220 0.960 . S
H1207 C1220 0.960 . S
C1208 H1200 0.929 . S
C1208 C1209 1.377 . S
C1208 C1210 1.384 . S
C1209 C1208 1.377 . S
C1209 C1215 1.390 . S
C1210 H1201 0.930 . S
C1210 C1208 1.384 . S
C1210 C1211 1.372 . S
C1211 C1210 1.372 . S
C1211 C1212 1.400 . S
C1211 C1216 1.490 . S
C1212 H1202 0.930 . S
C1212 C1211 1.400 . S
C1212 C1215 1.386 . S
H1213 C1229 0.930 . S
H1214 C1230 0.931 . S
C1215 H1203 0.929 . S
C1215 C1209 1.390 . S
C1215 C1212 1.386 . S
C1216 C1211 1.490 . S
C1216 C1218 1.395 . S
C1216 C1219 1.403 . S
H1217 C1223 0.930 . S
C1218 H1204 0.930 . S
C1218 C1216 1.395 . S
C1218 C1221 1.403 . S
C1219 C1216 1.403 . S
C1219 C1220 1.524 . S
C1219 C1223 1.400 . S
C1220 H1205 0.960 . S
C1220 H1206 0.960 . S
C1220 H1207 0.960 . S
C1220 C1219 1.524 . S
C1221 C1218 1.403 . S
C1221 C1222 1.392 . S
C1221 C1225 1.495 . S
C1222 C1221 1.392 . S
C1222 C1223 1.385 . S
C1222 C1224 1.478 . S
C1223 H1217 0.930 . S
C1223 C1219 1.400 . S
C1223 C1222 1.385 . S
C1224 C1222 1.478 . S
C1224 C1226 1.381 . S
C1224 C1230 1.383 . S
C1225 C1221 1.495 . S
C1225 H1231 0.959 . S
C1225 H1232 0.961 . S
C1225 H1233 0.960 . S
C1226 C1224 1.381 . S
C1226 C1227 1.394 . S
C1226 H1234 0.930 . S
C1227 C1226 1.394 . S
C1227 C1228 1.383 . S
C1227 H1235 0.929 . S
C1228 C1227 1.383 . S
C1228 C1229 1.377 . S
C1229 H1213 0.930 . S
C1229 C1228 1.377 . S
C1229 C1230 1.379 . S
C1230 H1214 0.931 . S
C1230 C1224 1.383 . S
C1230 C1229 1.379 . S
H1231 C1225 0.959 . S
H1232 C1225 0.961 . S
H1233 C1225 0.960 . S
H1234 C1226 0.930 . S
H1235 C1227 0.929 . S
H1236 C1244 0.929 . S
H1237 C1246 0.930 . S
H1238 C1248 0.930 . S
H1239 C1251 0.929 . S
H1240 C1254 0.930 . S
H1241 C1256 0.960 . S
H1242 C1256 0.960 . S
H1243 C1256 0.960 . S
C1244 H1236 0.929 . S
C1244 C1245 1.377 . S
C1244 C1246 1.384 . S
C1245 C1244 1.377 . S
C1245 C1251 1.390 . S
C1246 H1237 0.930 . S
C1246 C1244 1.384 . S
C1246 C1247 1.372 . S
C1247 C1246 1.372 . S
C1247 C1248 1.400 . S
C1247 C1252 1.490 . S
C1248 H1238 0.930 . S
C1248 C1247 1.400 . S
C1248 C1251 1.386 . S
H1249 C1265 0.930 . S
H1250 C1266 0.931 . S
C1251 H1239 0.929 . S
C1251 C1245 1.390 . S
C1251 C1248 1.386 . S
C1252 C1247 1.490 . S
C1252 C1254 1.395 . S
C1252 C1255 1.403 . S
H1253 C1259 0.930 . S
C1254 H1240 0.930 . S
C1254 C1252 1.395 . S
C1254 C1257 1.403 . S
C1255 C1252 1.403 . S
C1255 C1256 1.524 . S
C1255 C1259 1.400 . S
C1256 H1241 0.960 . S
C1256 H1242 0.960 . S
C1256 H1243 0.960 . S
C1256 C1255 1.524 . S
C1257 C1254 1.403 . S
C1257 C1258 1.392 . S
C1257 C1261 1.495 . S
C1258 C1257 1.392 . S
C1258 C1259 1.385 . S
C1258 C1260 1.478 . S
C1259 H1253 0.930 . S
C1259 C1255 1.400 . S
C1259 C1258 1.385 . S
C1260 C1258 1.478 . S
C1260 C1262 1.381 . S
C1260 C1266 1.383 . S
C1261 C1257 1.495 . S
C1261 H1267 0.959 . S
C1261 H1268 0.961 . S
C1261 H1269 0.960 . S
C1262 C1260 1.381 . S
C1262 C1263 1.394 . S
C1262 H1270 0.930 . S
C1263 C1262 1.394 . S
C1263 C1264 1.383 . S
C1263 H1271 0.929 . S
C1264 C1263 1.383 . S
C1264 C1265 1.377 . S
C1265 H1249 0.930 . S
C1265 C1264 1.377 . S
C1265 C1266 1.379 . S
C1266 H1250 0.931 . S
C1266 C1260 1.383 . S
C1266 C1265 1.379 . S
H1267 C1261 0.959 . S
H1268 C1261 0.961 . S
H1269 C1261 0.960 . S
H1270 C1262 0.930 . S
H1271 C1263 0.929 . S
H1272 C1280 0.929 . S
H1273 C1282 0.930 . S
H1274 C1284 0.930 . S
H1275 C1287 0.929 . S
H1276 C1290 0.930 . S
H1277 C1292 0.960 . S
H1278 C1292 0.960 . S
H1279 C1292 0.960 . S
C1280 H1272 0.929 . S
C1280 C1281 1.377 . S
C1280 C1282 1.384 . S
C1281 C1280 1.377 . S
C1281 C1287 1.390 . S
C1282 H1273 0.930 . S
C1282 C1280 1.384 . S
C1282 C1283 1.372 . S
C1283 C1282 1.372 . S
C1283 C1284 1.400 . S
C1283 C1288 1.490 . S
C1284 H1274 0.930 . S
C1284 C1283 1.400 . S
C1284 C1287 1.386 . S
H1285 C1301 0.930 . S
H1286 C1302 0.931 . S
C1287 H1275 0.929 . S
C1287 C1281 1.390 . S
C1287 C1284 1.386 . S
C1288 C1283 1.490 . S
C1288 C1290 1.395 . S
C1288 C1291 1.403 . S
H1289 C1295 0.930 . S
C1290 H1276 0.930 . S
C1290 C1288 1.395 . S
C1290 C1293 1.403 . S
C1291 C1288 1.403 . S
C1291 C1292 1.524 . S
C1291 C1295 1.400 . S
C1292 H1277 0.960 . S
C1292 H1278 0.960 . S
C1292 H1279 0.960 . S
C1292 C1291 1.524 . S
C1293 C1290 1.403 . S
C1293 C1294 1.392 . S
C1293 C1297 1.495 . S
C1294 C1293 1.392 . S
C1294 C1295 1.385 . S
C1294 C1296 1.478 . S
C1295 H1289 0.930 . S
C1295 C1291 1.400 . S
C1295 C1294 1.385 . S
C1296 C1294 1.478 . S
C1296 C1298 1.381 . S
C1296 C1302 1.383 . S
C1297 C1293 1.495 . S
C1297 H1303 0.959 . S
C1297 H1304 0.961 . S
C1297 H1305 0.960 . S
C1298 C1296 1.381 . S
C1298 C1299 1.394 . S
C1298 H1306 0.930 . S
C1299 C1298 1.394 . S
C1299 C1300 1.383 . S
C1299 H1307 0.929 . S
C1300 C1299 1.383 . S
C1300 C1301 1.377 . S
C1301 H1285 0.930 . S
C1301 C1300 1.377 . S
C1301 C1302 1.379 . S
C1302 H1286 0.931 . S
C1302 C1296 1.383 . S
C1302 C1301 1.379 . S
H1303 C1297 0.959 . S
H1304 C1297 0.961 . S
H1305 C1297 0.960 . S
H1306 C1298 0.930 . S
H1307 C1299 0.929 . S
H1308 C1316 0.929 . S
H1309 C1318 0.930 . S
H1310 C1320 0.930 . S
H1311 C1323 0.929 . S
H1312 C1326 0.930 . S
H1313 C1328 0.960 . S
H1314 C1328 0.960 . S
H1315 C1328 0.960 . S
C1316 H1308 0.929 . S
C1316 C1317 1.377 . S
C1316 C1318 1.384 . S
C1317 C1316 1.377 . S
C1317 C1323 1.390 . S
C1318 H1309 0.930 . S
C1318 C1316 1.384 . S
C1318 C1319 1.372 . S
C1319 C1318 1.372 . S
C1319 C1320 1.400 . S
C1319 C1324 1.490 . S
C1320 H1310 0.930 . S
C1320 C1319 1.400 . S
C1320 C1323 1.386 . S
H1321 C1337 0.930 . S
H1322 C1338 0.931 . S
C1323 H1311 0.929 . S
C1323 C1317 1.390 . S
C1323 C1320 1.386 . S
C1324 C1319 1.490 . S
C1324 C1326 1.395 . S
C1324 C1327 1.403 . S
H1325 C1331 0.930 . S
C1326 H1312 0.930 . S
C1326 C1324 1.395 . S
C1326 C1329 1.403 . S
C1327 C1324 1.403 . S
C1327 C1328 1.524 . S
C1327 C1331 1.400 . S
C1328 H1313 0.960 . S
C1328 H1314 0.960 . S
C1328 H1315 0.960 . S
C1328 C1327 1.524 . S
C1329 C1326 1.403 . S
C1329 C1330 1.392 . S
C1329 C1333 1.495 . S
C1330 C1329 1.392 . S
C1330 C1331 1.385 . S
C1330 C1332 1.478 . S
C1331 H1325 0.930 . S
C1331 C1327 1.400 . S
C1331 C1330 1.385 . S
C1332 C1330 1.478 . S
C1332 C1334 1.381 . S
C1332 C1338 1.383 . S
C1333 C1329 1.495 . S
C1333 H1339 0.959 . S
C1333 H1340 0.961 . S
C1333 H1341 0.960 . S
C1334 C1332 1.381 . S
C1334 C1335 1.394 . S
C1334 H1342 0.930 . S
C1335 C1334 1.394 . S
C1335 C1336 1.383 . S
C1335 H1343 0.929 . S
C1336 C1335 1.383 . S
C1336 C1337 1.377 . S
C1337 H1321 0.930 . S
C1337 C1336 1.377 . S
C1337 C1338 1.379 . S
C1338 H1322 0.931 . S
C1338 C1332 1.383 . S
C1338 C1337 1.379 . S
H1339 C1333 0.959 . S
H1340 C1333 0.961 . S
H1341 C1333 0.960 . S
H1342 C1334 0.930 . S
H1343 C1335 0.929 . S
H1344 C1352 0.921 1_455 S
H1345 C1354 0.922 1_456 S
H1346 C1356 0.930 . S
H1347 C1359 0.929 . S
H1348 C1362 0.930 1_455 S
H1349 C1364 0.960 . S
H1350 C1364 0.960 . S
H1351 C1364 0.960 . S
C1352 H1344 0.921 1_655 S
C1352 C1353 1.383 . S
C1352 C1354 1.394 . S
C1353 C1352 1.383 . S
C1353 C1359 1.390 . S
C1354 H1345 0.922 1_654 S
C1354 C1352 1.394 . S
C1354 C1355 1.371 1_554 S
C1355 C1354 1.371 1_556 S
C1355 C1356 1.378 1_556 S
C1355 C1360 1.512 . S
C1356 H1346 0.930 . S
C1356 C1355 1.378 1_554 S
C1356 C1359 1.386 . S
H1357 C1373 0.930 . S
H1358 C1374 0.931 . S
C1359 H1347 0.929 . S
C1359 C1353 1.390 . S
C1359 C1356 1.386 . S
C1360 C1355 1.512 . S
C1360 C1362 1.395 . S
C1360 C1363 1.403 . S
H1361 C1367 0.930 . S
C1362 H1348 0.930 1_655 S
C1362 C1360 1.395 . S
C1362 C1365 1.403 . S
C1363 C1360 1.403 . S
C1363 C1364 1.524 . S
C1363 C1367 1.400 . S
C1364 H1349 0.960 . S
C1364 H1350 0.960 . S
C1364 H1351 0.960 . S
C1364 C1363 1.524 . S
C1365 C1362 1.403 . S
C1365 C1366 1.392 . S
C1365 C1369 1.495 1_655 S
C1366 C1365 1.392 . S
C1366 C1367 1.385 . S
C1366 C1368 1.478 . S
C1367 H1361 0.930 . S
C1367 C1363 1.400 . S
C1367 C1366 1.385 . S
C1368 C1366 1.478 . S
C1368 C1370 1.381 . S
C1368 C1374 1.383 . S
C1369 C1365 1.495 1_455 S
C1369 H1375 0.959 . S
C1369 H1376 0.961 . S
C1369 H1377 0.960 . S
C1370 C1368 1.381 . S
C1370 C1371 1.394 . S
C1370 H1378 0.930 . S
C1371 C1370 1.394 . S
C1371 C1372 1.383 . S
C1371 H1379 0.929 . S
C1372 C1371 1.383 . S
C1372 C1373 1.377 . S
C1373 H1357 0.930 . S
C1373 C1372 1.377 . S
C1373 C1374 1.379 . S
C1374 H1358 0.931 . S
C1374 C1368 1.383 . S
C1374 C1373 1.379 . S
H1375 C1369 0.959 . S
H1376 C1369 0.961 . S
H1377 C1369 0.960 . S
H1378 C1370 0.930 . S
H1379 C1371 0.929 . S
H1380 C1388 0.929 . S
H1381 C1390 0.930 . S
H1382 C1392 0.930 . S
H1383 C1395 0.929 . S
H1384 C1398 0.930 . S
H1385 C1400 0.960 . S
H1386 C1400 0.960 . S
H1387 C1400 0.960 . S
C1388 H1380 0.929 . S
C1388 C1389 1.377 . S
C1388 C1390 1.384 . S
C1389 C1388 1.377 . S
C1389 C1395 1.390 . S
C1390 H1381 0.930 . S
C1390 C1388 1.384 . S
C1390 C1391 1.372 . S
C1391 C1390 1.372 . S
C1391 C1392 1.400 . S
C1391 C1396 1.490 . S
C1392 H1382 0.930 . S
C1392 C1391 1.400 . S
C1392 C1395 1.386 . S
H1393 C1409 0.930 . S
H1394 C1410 0.931 . S
C1395 H1383 0.929 . S
C1395 C1389 1.390 . S
C1395 C1392 1.386 . S
C1396 C1391 1.490 . S
C1396 C1398 1.395 . S
C1396 C1399 1.403 . S
H1397 C1403 0.930 . S
C1398 H1384 0.930 . S
C1398 C1396 1.395 . S
C1398 C1401 1.403 . S
C1399 C1396 1.403 . S
C1399 C1400 1.524 . S
C1399 C1403 1.400 . S
C1400 H1385 0.960 . S
C1400 H1386 0.960 . S
C1400 H1387 0.960 . S
C1400 C1399 1.524 . S
C1401 C1398 1.403 . S
C1401 C1402 1.392 . S
C1401 C1405 1.495 . S
C1402 C1401 1.392 . S
C1402 C1403 1.385 . S
C1402 C1404 1.478 . S
C1403 H1397 0.930 . S
C1403 C1399 1.400 . S
C1403 C1402 1.385 . S
C1404 C1402 1.478 . S
C1404 C1406 1.381 . S
C1404 C1410 1.383 . S
C1405 C1401 1.495 . S
C1405 H1411 0.959 . S
C1405 H1412 0.961 . S
C1405 H1413 0.960 . S
C1406 C1404 1.381 . S
C1406 C1407 1.394 . S
C1406 H1414 0.930 . S
C1407 C1406 1.394 . S
C1407 C1408 1.383 . S
C1407 H1415 0.929 . S
C1408 C1407 1.383 . S
C1408 C1409 1.377 . S
C1409 H1393 0.930 . S
C1409 C1408 1.377 . S
C1409 C1410 1.379 . S
C1410 H1394 0.931 . S
C1410 C1404 1.383 . S
C1410 C1409 1.379 . S
H1411 C1405 0.959 . S
H1412 C1405 0.961 . S
H1413 C1405 0.960 . S
H1414 C1406 0.930 . S
H1415 C1407 0.929 . S
H1416 C1424 0.929 . S
H1417 C1426 0.930 . S
H1418 C1428 0.953 . S
H1419 C1431 0.929 . S
H1420 C1434 0.930 . S
H1421 C1436 0.960 . S
H1422 C1436 0.960 . S
H1423 C1436 0.960 . S
C1424 H1416 0.929 . S
C1424 C1425 1.377 . S
C1424 C1426 1.384 . S
C1425 C1424 1.377 . S
C1425 C1431 1.390 . S
C1426 H1417 0.930 . S
C1426 C1424 1.384 . S
C1426 C1427 1.372 1_556 S
C1427 C1426 1.372 1_554 S
C1427 C1428 1.402 . S
C1427 C1432 1.490 . S
C1428 H1418 0.953 . S
C1428 C1427 1.402 . S
C1428 C1431 1.361 1_554 S
H1429 C1445 0.930 . S
H1430 C1446 0.931 . S
C1431 H1419 0.929 . S
C1431 C1425 1.390 . S
C1431 C1428 1.361 1_556 S
C1432 C1427 1.490 . S
C1432 C1434 1.395 . S
C1432 C1435 1.403 . S
H1433 C1439 0.930 . S
C1434 H1420 0.930 . S
C1434 C1432 1.395 . S
C1434 C1437 1.403 . S
C1435 C1432 1.403 . S
C1435 C1436 1.524 . S
C1435 C1439 1.400 . S
C1436 H1421 0.960 . S
C1436 H1422 0.960 . S
C1436 H1423 0.960 . S
C1436 C1435 1.524 . S
C1437 C1434 1.403 . S
C1437 C1438 1.392 . S
C1437 C1441 1.495 . S
C1438 C1437 1.392 . S
C1438 C1439 1.385 . S
C1438 C1440 1.478 . S
C1439 H1433 0.930 . S
C1439 C1435 1.400 . S
C1439 C1438 1.385 . S
C1440 C1438 1.478 . S
C1440 C1442 1.381 . S
C1440 C1446 1.383 . S
C1441 C1437 1.495 . S
C1441 H1447 0.959 . S
C1441 H1448 0.961 . S
C1441 H1449 0.960 . S
C1442 C1440 1.381 . S
C1442 C1443 1.394 . S
C1442 H1450 0.930 . S
C1443 C1442 1.394 . S
C1443 C1444 1.383 . S
C1443 H1451 0.929 . S
C1444 C1443 1.383 . S
C1444 C1445 1.377 . S
C1445 H1429 0.930 . S
C1445 C1444 1.377 . S
C1445 C1446 1.379 . S
C1446 H1430 0.931 . S
C1446 C1440 1.383 . S
C1446 C1445 1.379 . S
H1447 C1441 0.959 . S
H1448 C1441 0.961 . S
H1449 C1441 0.960 . S
H1450 C1442 0.930 . S
H1451 C1443 0.929 . S
H1452 C1460 0.929 . S
H1453 C1462 0.930 . S
H1454 C1464 0.930 . S
H1455 C1467 0.929 . S
H1456 C1470 0.930 . S
H1457 C1472 0.960 . S
H1458 C1472 0.960 . S
H1459 C1472 0.960 . S
C1460 H1452 0.929 . S
C1460 C1461 1.377 . S
C1460 C1462 1.384 . S
C1461 C1460 1.377 . S
C1461 C1467 1.390 . S
C1462 H1453 0.930 . S
C1462 C1460 1.384 . S
C1462 C1463 1.372 . S
C1463 C1462 1.372 . S
C1463 C1464 1.400 . S
C1463 C1468 1.490 . S
C1464 H1454 0.930 . S
C1464 C1463 1.400 . S
C1464 C1467 1.386 . S
H1465 C1481 0.930 . S
H1466 C1482 0.931 . S
C1467 H1455 0.929 . S
C1467 C1461 1.390 . S
C1467 C1464 1.386 . S
C1468 C1463 1.490 . S
C1468 C1470 1.395 . S
C1468 C1471 1.403 . S
H1469 C1475 0.930 . S
C1470 H1456 0.930 . S
C1470 C1468 1.395 . S
C1470 C1473 1.403 . S
C1471 C1468 1.403 . S
C1471 C1472 1.524 . S
C1471 C1475 1.400 . S
C1472 H1457 0.960 . S
C1472 H1458 0.960 . S
C1472 H1459 0.960 . S
C1472 C1471 1.524 . S
C1473 C1470 1.403 . S
C1473 C1474 1.392 . S
C1473 C1477 1.495 . S
C1474 C1473 1.392 . S
C1474 C1475 1.385 . S
C1474 C1476 1.478 . S
C1475 H1469 0.930 . S
C1475 C1471 1.400 . S
C1475 C1474 1.385 . S
C1476 C1474 1.478 . S
C1476 C1478 1.381 . S
C1476 C1482 1.383 . S
C1477 C1473 1.495 . S
C1477 H1483 0.959 . S
C1477 H1484 0.961 . S
C1477 H1485 0.960 . S
C1478 C1476 1.381 . S
C1478 C1479 1.394 . S
C1478 H1486 0.930 . S
C1479 C1478 1.394 . S
C1479 C1480 1.383 . S
C1479 H1487 0.929 . S
C1480 C1479 1.383 . S
C1480 C1481 1.377 . S
C1481 H1465 0.930 . S
C1481 C1480 1.377 . S
C1481 C1482 1.379 . S
C1482 H1466 0.931 . S
C1482 C1476 1.383 . S
C1482 C1481 1.379 . S
H1483 C1477 0.959 . S
H1484 C1477 0.961 . S
H1485 C1477 0.960 . S
H1486 C1478 0.930 . S
H1487 C1479 0.929 . S
H1488 C1496 0.929 . S
H1489 C1498 0.930 . S
H1490 C1500 0.930 . S
H1491 C1503 0.929 1_455 S
H1492 C1506 0.930 . S
H1493 C1508 0.960 . S
H1494 C1508 0.960 . S
H1495 C1508 0.960 . S
C1496 H1488 0.929 . S
C1496 C1497 1.377 . S
C1496 C1498 1.384 . S
C1497 C1496 1.377 . S
C1497 C1503 1.390 . S
C1498 H1489 0.930 . S
C1498 C1496 1.384 . S
C1498 C1499 1.372 . S
C1499 C1498 1.372 . S
C1499 C1500 1.400 . S
C1499 C1504 1.490 . S
C1500 H1490 0.930 . S
C1500 C1499 1.400 . S
C1500 C1503 1.386 . S
H1501 C1517 0.930 . S
H1502 C1518 0.931 . S
C1503 H1491 0.929 1_655 S
C1503 C1497 1.390 . S
C1503 C1500 1.386 . S
C1504 C1499 1.490 . S
C1504 C1506 1.395 . S
C1504 C1507 1.403 . S
H1505 C1511 0.930 . S
C1506 H1492 0.930 . S
C1506 C1504 1.395 . S
C1506 C1509 1.403 . S
C1507 C1504 1.403 . S
C1507 C1508 1.524 1_655 S
C1507 C1511 1.400 . S
C1508 H1493 0.960 . S
C1508 H1494 0.960 . S
C1508 H1495 0.960 . S
C1508 C1507 1.524 1_455 S
C1509 C1506 1.403 . S
C1509 C1510 1.392 . S
C1509 C1513 1.495 . S
C1510 C1509 1.392 . S
C1510 C1511 1.385 . S
C1510 C1512 1.478 . S
C1511 H1505 0.930 . S
C1511 C1507 1.400 . S
C1511 C1510 1.385 . S
C1512 C1510 1.478 . S
C1512 C1514 1.381 . S
C1512 C1518 1.383 . S
C1513 C1509 1.495 . S
C1513 H1519 0.959 . S
C1513 H1520 0.961 . S
C1513 H1521 0.960 . S
C1514 C1512 1.381 . S
C1514 C1515 1.394 . S
C1514 H1522 0.930 . S
C1515 C1514 1.394 . S
C1515 C1516 1.383 . S
C1515 H1523 0.929 . S
C1516 C1515 1.383 . S
C1516 C1517 1.377 . S
C1517 H1501 0.930 . S
C1517 C1516 1.377 . S
C1517 C1518 1.379 . S
C1518 H1502 0.931 . S
C1518 C1512 1.383 . S
C1518 C1517 1.379 . S
H1519 C1513 0.959 . S
H1520 C1513 0.961 . S
H1521 C1513 0.960 . S
H1522 C1514 0.930 . S
H1523 C1515 0.929 . S
H1524 C1532 0.929 . S
H1525 C1534 0.930 . S
H1526 C1536 0.930 . S
H1527 C1539 0.929 . S
H1528 C1542 0.930 . S
H1529 C1544 0.960 . S
H1530 C1544 0.960 . S
H1531 C1544 0.960 . S
C1532 H1524 0.929 . S
C1532 C1533 1.377 . S
C1532 C1534 1.384 . S
C1533 C1532 1.377 . S
C1533 C1539 1.390 . S
C1534 H1525 0.930 . S
C1534 C1532 1.384 . S
C1534 C1535 1.372 . S
C1535 C1534 1.372 . S
C1535 C1536 1.400 . S
C1535 C1540 1.490 . S
C1536 H1526 0.930 . S
C1536 C1535 1.400 . S
C1536 C1539 1.386 . S
H1537 C1553 0.930 . S
H1538 C1554 0.931 . S
C1539 H1527 0.929 . S
C1539 C1533 1.390 . S
C1539 C1536 1.386 . S
C1540 C1535 1.490 . S
C1540 C1542 1.395 . S
C1540 C1543 1.403 . S
H1541 C1547 0.930 . S
C1542 H1528 0.930 . S
C1542 C1540 1.395 . S
C1542 C1545 1.403 . S
C1543 C1540 1.403 . S
C1543 C1544 1.524 . S
C1543 C1547 1.400 . S
C1544 H1529 0.960 . S
C1544 H1530 0.960 . S
C1544 H1531 0.960 . S
C1544 C1543 1.524 . S
C1545 C1542 1.403 . S
C1545 C1546 1.392 . S
C1545 C1549 1.495 . S
C1546 C1545 1.392 . S
C1546 C1547 1.385 . S
C1546 C1548 1.478 . S
C1547 H1541 0.930 . S
C1547 C1543 1.400 . S
C1547 C1546 1.385 . S
C1548 C1546 1.478 . S
C1548 C1550 1.381 . S
C1548 C1554 1.383 . S
C1549 C1545 1.495 . S
C1549 H1555 0.959 . S
C1549 H1556 0.961 . S
C1549 H1557 0.960 . S
C1550 C1548 1.381 . S
C1550 C1551 1.394 . S
C1550 H1558 0.930 . S
C1551 C1550 1.394 . S
C1551 C1552 1.383 . S
C1551 H1559 0.929 . S
C1552 C1551 1.383 . S
C1552 C1553 1.377 . S
C1553 H1537 0.930 . S
C1553 C1552 1.377 . S
C1553 C1554 1.379 . S
C1554 H1538 0.931 . S
C1554 C1548 1.383 . S
C1554 C1553 1.379 . S
H1555 C1549 0.959 . S
H1556 C1549 0.961 . S
H1557 C1549 0.960 . S
H1558 C1550 0.930 . S
H1559 C1551 0.929 . S
H1560 C1568 0.929 . S
H1561 C1570 0.930 . S
H1562 C1572 0.930 . S
H1563 C1575 0.929 . S
H1564 C1578 0.930 . S
H1565 C1580 0.960 . S
H1566 C1580 0.960 . S
H1567 C1580 0.960 . S
C1568 H1560 0.929 . S
C1568 C1569 1.377 . S
C1568 C1570 1.384 . S
C1569 C1568 1.377 . S
C1569 C1575 1.390 . S
C1570 H1561 0.930 . S
C1570 C1568 1.384 . S
C1570 C1571 1.372 . S
C1571 C1570 1.372 . S
C1571 C1572 1.400 . S
C1571 C1576 1.490 . S
C1572 H1562 0.930 . S
C1572 C1571 1.400 . S
C1572 C1575 1.386 . S
H1573 C1589 0.930 . S
H1574 C1590 0.931 . S
C1575 H1563 0.929 . S
C1575 C1569 1.390 . S
C1575 C1572 1.386 . S
C1576 C1571 1.490 . S
C1576 C1578 1.395 . S
C1576 C1579 1.403 . S
H1577 C1583 0.930 . S
C1578 H1564 0.930 . S
C1578 C1576 1.395 . S
C1578 C1581 1.403 . S
C1579 C1576 1.403 . S
C1579 C1580 1.524 . S
C1579 C1583 1.400 . S
C1580 H1565 0.960 . S
C1580 H1566 0.960 . S
C1580 H1567 0.960 . S
C1580 C1579 1.524 . S
C1581 C1578 1.403 . S
C1581 C1582 1.392 . S
C1581 C1585 1.495 . S
C1582 C1581 1.392 . S
C1582 C1583 1.385 . S
C1582 C1584 1.478 . S
C1583 H1577 0.930 . S
C1583 C1579 1.400 . S
C1583 C1582 1.385 . S
C1584 C1582 1.478 . S
C1584 C1586 1.381 . S
C1584 C1590 1.383 . S
C1585 C1581 1.495 . S
C1585 H1591 0.959 . S
C1585 H1592 0.961 . S
C1585 H1593 0.960 . S
C1586 C1584 1.381 . S
C1586 C1587 1.394 . S
C1586 H1594 0.930 . S
C1587 C1586 1.394 . S
C1587 C1588 1.383 . S
C1587 H1595 0.929 . S
C1588 C1587 1.383 . S
C1588 C1589 1.377 . S
C1589 H1573 0.930 . S
C1589 C1588 1.377 . S
C1589 C1590 1.379 . S
C1590 H1574 0.931 . S
C1590 C1584 1.383 . S
C1590 C1589 1.379 . S
H1591 C1585 0.959 . S
H1592 C1585 0.961 . S
H1593 C1585 0.960 . S
H1594 C1586 0.930 . S
H1595 C1587 0.929 . S
H1596 C1604 0.929 . S
H1597 C1606 0.930 . S
H1598 C1608 0.930 . S
H1599 C1611 0.929 . S
H1600 C1614 0.930 . S
H1601 C1616 0.960 . S
H1602 C1616 0.960 . S
H1603 C1616 0.960 . S
C1604 H1596 0.929 . S
C1604 C1605 1.377 . S
C1604 C1606 1.384 . S
C1605 C1604 1.377 . S
C1605 C1611 1.390 . S
C1606 H1597 0.930 . S
C1606 C1604 1.384 . S
C1606 C1607 1.372 . S
C1607 C1606 1.372 . S
C1607 C1608 1.400 . S
C1607 C1612 1.490 . S
C1608 H1598 0.930 . S
C1608 C1607 1.400 . S
C1608 C1611 1.386 . S
H1609 C1625 0.930 . S
H1610 C1626 0.931 . S
C1611 H1599 0.929 . S
C1611 C1605 1.390 . S
C1611 C1608 1.386 . S
C1612 C1607 1.490 . S
C1612 C1614 1.395 . S
C1612 C1615 1.403 . S
H1613 C1619 0.930 . S
C1614 H1600 0.930 . S
C1614 C1612 1.395 . S
C1614 C1617 1.403 . S
C1615 C1612 1.403 . S
C1615 C1616 1.524 . S
C1615 C1619 1.400 . S
C1616 H1601 0.960 . S
C1616 H1602 0.960 . S
C1616 H1603 0.960 . S
C1616 C1615 1.524 . S
C1617 C1614 1.403 . S
C1617 C1618 1.392 . S
C1617 C1621 1.495 . S
C1618 C1617 1.392 . S
C1618 C1619 1.385 . S
C1618 C1620 1.478 . S
C1619 H1613 0.930 . S
C1619 C1615 1.400 . S
C1619 C1618 1.385 . S
C1620 C1618 1.478 . S
C1620 C1622 1.381 . S
C1620 C1626 1.383 . S
C1621 C1617 1.495 . S
C1621 H1627 0.959 . S
C1621 H1628 0.961 . S
C1621 H1629 0.960 . S
C1622 C1620 1.381 . S
C1622 C1623 1.394 . S
C1622 H1630 0.930 . S
C1623 C1622 1.394 . S
C1623 C1624 1.383 . S
C1623 H1631 0.929 . S
C1624 C1623 1.383 . S
C1624 C1625 1.377 . S
C1625 H1609 0.930 . S
C1625 C1624 1.377 . S
C1625 C1626 1.379 . S
C1626 H1610 0.931 . S
C1626 C1620 1.383 . S
C1626 C1625 1.379 . S
H1627 C1621 0.959 . S
H1628 C1621 0.961 . S
H1629 C1621 0.960 . S
H1630 C1622 0.930 . S
H1631 C1623 0.929 . S
H1632 C1640 0.929 . S
H1633 C1642 0.936 . S
H1634 C1644 0.930 . S
H1635 C1647 0.929 . S
H1636 C1650 0.930 . S
H1637 C1652 0.960 . S
H1638 C1652 0.960 . S
H1639 C1652 0.960 . S
C1640 H1632 0.929 . S
C1640 C1641 1.377 . S
C1640 C1642 1.384 . S
C1641 C1640 1.377 . S
C1641 C1647 1.390 . S
C1642 H1633 0.936 . S
C1642 C1640 1.384 . S
C1642 C1643 1.372 1_655 S
C1643 C1642 1.372 1_455 S
C1643 C1644 1.400 1_455 S
C1643 C1648 1.490 . S
C1644 H1634 0.930 . S
C1644 C1643 1.400 1_655 S
C1644 C1647 1.386 . S
H1645 C1661 0.930 . S
H1646 C1662 0.931 . S
C1647 H1635 0.929 . S
C1647 C1641 1.390 . S
C1647 C1644 1.386 . S
C1648 C1643 1.490 . S
C1648 C1650 1.395 . S
C1648 C1651 1.403 . S
H1649 C1655 0.930 . S
C1650 H1636 0.930 . S
C1650 C1648 1.395 . S
C1650 C1653 1.403 . S
C1651 C1648 1.403 . S
C1651 C1652 1.524 . S
C1651 C1655 1.400 . S
C1652 H1637 0.960 . S
C1652 H1638 0.960 . S
C1652 H1639 0.960 . S
C1652 C1651 1.524 . S
C1653 C1650 1.403 . S
C1653 C1654 1.392 . S
C1653 C1657 1.495 . S
C1654 C1653 1.392 . S
C1654 C1655 1.385 . S
C1654 C1656 1.478 . S
C1655 H1649 0.930 . S
C1655 C1651 1.400 . S
C1655 C1654 1.385 . S
C1656 C1654 1.478 . S
C1656 C1658 1.381 . S
C1656 C1662 1.383 . S
C1657 C1653 1.495 . S
C1657 H1663 0.959 . S
C1657 H1664 0.961 . S
C1657 H1665 0.960 . S
C1658 C1656 1.381 . S
C1658 C1659 1.394 . S
C1658 H1666 0.930 . S
C1659 C1658 1.394 . S
C1659 C1660 1.383 . S
C1659 H1667 0.929 . S
C1660 C1659 1.383 . S
C1660 C1661 1.377 . S
C1661 H1645 0.930 . S
C1661 C1660 1.377 . S
C1661 C1662 1.379 . S
C1662 H1646 0.931 . S
C1662 C1656 1.383 . S
C1662 C1661 1.379 . S
H1663 C1657 0.959 . S
H1664 C1657 0.961 . S
H1665 C1657 0.960 . S
H1666 C1658 0.930 . S
H1667 C1659 0.929 . S
H1668 C1676 0.929 . S
H1669 C1678 0.930 . S
H1670 C1680 0.930 . S
H1671 C1683 0.929 . S
H1672 C1686 0.930 . S
H1673 C1688 0.960 . S
H1674 C1688 0.960 . S
H1675 C1688 0.960 . S
C1676 H1668 0.929 . S
C1676 C1677 1.377 . S
C1676 C1678 1.384 . S
C1677 C1676 1.377 . S
C1677 C1683 1.390 . S
C1678 H1669 0.930 . S
C1678 C1676 1.384 . S
C1678 C1679 1.372 . S
C1679 C1678 1.372 . S
C1679 C1680 1.400 . S
C1679 C1684 1.490 . S
C1680 H1670 0.930 . S
C1680 C1679 1.400 . S
C1680 C1683 1.386 . S
H1681 C1697 0.930 . S
H1682 C1698 0.931 . S
C1683 H1671 0.929 . S
C1683 C1677 1.390 . S
C1683 C1680 1.386 . S
C1684 C1679 1.490 . S
C1684 C1686 1.395 . S
C1684 C1687 1.403 . S
H1685 C1691 0.930 . S
C1686 H1672 0.930 . S
C1686 C1684 1.395 . S
C1686 C1689 1.403 . S
C1687 C1684 1.403 . S
C1687 C1688 1.524 . S
C1687 C1691 1.400 . S
C1688 H1673 0.960 . S
C1688 H1674 0.960 . S
C1688 H1675 0.960 . S
C1688 C1687 1.524 . S
C1689 C1686 1.403 . S
C1689 C1690 1.392 . S
C1689 C1693 1.495 . S
C1690 C1689 1.392 . S
C1690 C1691 1.385 . S
C1690 C1692 1.478 . S
C1691 H1685 0.930 . S
C1691 C1687 1.400 . S
C1691 C1690 1.385 . S
C1692 C1690 1.478 . S
C1692 C1694 1.381 . S
C1692 C1698 1.383 . S
C1693 C1689 1.495 . S
C1693 H1699 0.959 . S
C1693 H1700 0.961 . S
C1693 H1701 0.960 . S
C1694 C1692 1.381 . S
C1694 C1695 1.394 . S
C1694 H1702 0.930 . S
C1695 C1694 1.394 . S
C1695 C1696 1.383 . S
C1695 H1703 0.929 . S
C1696 C1695 1.383 . S
C1696 C1697 1.377 . S
C1697 H1681 0.930 . S
C1697 C1696 1.377 . S
C1697 C1698 1.379 . S
C1698 H1682 0.931 . S
C1698 C1692 1.383 . S
C1698 C1697 1.379 . S
H1699 C1693 0.959 . S
H1700 C1693 0.961 . S
H1701 C1693 0.960 . S
H1702 C1694 0.930 . S
H1703 C1695 0.929 . S
H1704 C1712 0.929 . S
H1705 C1714 0.930 . S
H1706 C1716 0.930 . S
H1707 C1719 0.929 . S
H1708 C1722 0.930 . S
H1709 C1724 0.960 . S
H1710 C1724 0.960 . S
H1711 C1724 0.960 . S
C1712 H1704 0.929 . S
C1712 C1713 1.377 . S
C1712 C1714 1.384 . S
C1713 C1712 1.377 . S
C1713 C1719 1.390 . S
C1714 H1705 0.930 . S
C1714 C1712 1.384 . S
C1714 C1715 1.372 . S
C1715 C1714 1.372 . S
C1715 C1716 1.400 . S
C1715 C1720 1.490 . S
C1716 H1706 0.930 . S
C1716 C1715 1.400 . S
C1716 C1719 1.386 . S
H1717 C1733 0.930 . S
H1718 C1734 0.931 . S
C1719 H1707 0.929 . S
C1719 C1713 1.390 . S
C1719 C1716 1.386 . S
C1720 C1715 1.490 . S
C1720 C1722 1.395 . S
C1720 C1723 1.403 . S
H1721 C1727 0.930 . S
C1722 H1708 0.930 . S
C1722 C1720 1.395 . S
C1722 C1725 1.403 . S
C1723 C1720 1.403 . S
C1723 C1724 1.524 . S
C1723 C1727 1.400 . S
C1724 H1709 0.960 . S
C1724 H1710 0.960 . S
C1724 H1711 0.960 . S
C1724 C1723 1.524 . S
C1725 C1722 1.403 . S
C1725 C1726 1.392 . S
C1725 C1729 1.495 . S
C1726 C1725 1.392 . S
C1726 C1727 1.385 . S
C1726 C1728 1.478 . S
C1727 H1721 0.930 . S
C1727 C1723 1.400 . S
C1727 C1726 1.385 . S
C1728 C1726 1.478 . S
C1728 C1730 1.381 . S
C1728 C1734 1.383 . S
C1729 C1725 1.495 . S
C1729 H1735 0.959 . S
C1729 H1736 0.961 . S
C1729 H1737 0.960 . S
C1730 C1728 1.381 . S
C1730 C1731 1.394 . S
C1730 H1738 0.930 . S
C1731 C1730 1.394 . S
C1731 C1732 1.383 . S
C1731 H1739 0.929 . S
C1732 C1731 1.383 . S
C1732 C1733 1.377 . S
C1733 H1717 0.930 . S
C1733 C1732 1.377 . S
C1733 C1734 1.379 . S
C1734 H1718 0.931 . S
C1734 C1728 1.383 . S
C1734 C1733 1.379 . S
H1735 C1729 0.959 . S
H1736 C1729 0.961 . S
H1737 C1729 0.960 . S
H1738 C1730 0.930 . S
H1739 C1731 0.929 . S
H1740 C1748 0.929 . S
H1741 C1750 0.930 . S
H1742 C1752 0.930 . S
H1743 C1755 0.929 . S
H1744 C1758 0.930 . S
H1745 C1760 0.960 . S
H1746 C1760 0.960 . S
H1747 C1760 0.960 . S
C1748 H1740 0.929 . S
C1748 C1749 1.377 . S
C1748 C1750 1.384 . S
C1749 C1748 1.377 . S
C1749 C1755 1.390 . S
C1750 H1741 0.930 . S
C1750 C1748 1.384 . S
C1750 C1751 1.372 . S
C1751 C1750 1.372 . S
C1751 C1752 1.400 . S
C1751 C1756 1.490 . S
C1752 H1742 0.930 . S
C1752 C1751 1.400 . S
C1752 C1755 1.386 . S
H1753 C1769 0.930 . S
H1754 C1770 0.931 . S
C1755 H1743 0.929 . S
C1755 C1749 1.390 . S
C1755 C1752 1.386 . S
C1756 C1751 1.490 . S
C1756 C1758 1.395 . S
C1756 C1759 1.403 . S
H1757 C1763 0.930 . S
C1758 H1744 0.930 . S
C1758 C1756 1.395 . S
C1758 C1761 1.403 . S
C1759 C1756 1.403 . S
C1759 C1760 1.524 . S
C1759 C1763 1.400 . S
C1760 H1745 0.960 . S
C1760 H1746 0.960 . S
C1760 H1747 0.960 . S
C1760 C1759 1.524 . S
C1761 C1758 1.403 . S
C1761 C1762 1.392 . S
C1761 C1765 1.495 . S
C1762 C1761 1.392 . S
C1762 C1763 1.385 . S
C1762 C1764 1.478 . S
C1763 H1757 0.930 . S
C1763 C1759 1.400 . S
C1763 C1762 1.385 . S
C1764 C1762 1.478 . S
C1764 C1766 1.381 . S
C1764 C1770 1.383 . S
C1765 C1761 1.495 . S
C1765 H1771 0.959 . S
C1765 H1772 0.961 . S
C1765 H1773 0.960 . S
C1766 C1764 1.381 . S
C1766 C1767 1.394 . S
C1766 H1774 0.930 . S
C1767 C1766 1.394 . S
C1767 C1768 1.383 . S
C1767 H1775 0.929 . S
C1768 C1767 1.383 . S
C1768 C1769 1.377 . S
C1769 H1753 0.930 . S
C1769 C1768 1.377 . S
C1769 C1770 1.379 . S
C1770 H1754 0.931 . S
C1770 C1764 1.383 . S
C1770 C1769 1.379 . S
H1771 C1765 0.959 . S
H1772 C1765 0.961 . S
H1773 C1765 0.960 . S
H1774 C1766 0.930 . S
H1775 C1767 0.929 . S
H1776 C1784 0.929 . S
H1777 C1786 0.930 . S
H1778 C1788 0.930 . S
H1779 C1791 0.929 . S
H1780 C1794 0.930 . S
H1781 C1796 0.960 . S
H1782 C1796 0.960 . S
H1783 C1796 0.960 . S
C1784 H1776 0.929 . S
C1784 C1785 1.377 . S
C1784 C1786 1.384 . S
C1785 C1784 1.377 . S
C1785 C1791 1.390 . S
C1786 H1777 0.930 . S
C1786 C1784 1.384 . S
C1786 C1787 1.372 1_655 S
C1787 C1786 1.372 1_455 S
C1787 C1788 1.400 . S
C1787 C1792 1.490 . S
C1788 H1778 0.930 . S
C1788 C1787 1.400 . S
C1788 C1791 1.386 1_455 S
H1789 C1805 0.930 . S
H1790 C1806 0.931 . S
C1791 H1779 0.929 . S
C1791 C1785 1.390 . S
C1791 C1788 1.386 1_655 S
C1792 C1787 1.490 . S
C1792 C1794 1.395 . S
C1792 C1795 1.403 . S
H1793 C1799 0.930 . S
C1794 H1780 0.930 . S
C1794 C1792 1.395 . S
C1794 C1797 1.403 . S
C1795 C1792 1.403 . S
C1795 C1796 1.524 . S
C1795 C1799 1.400 . S
C1796 H1781 0.960 . S
C1796 H1782 0.960 . S
C1796 H1783 0.960 . S
C1796 C1795 1.524 . S
C1797 C1794 1.403 . S
C1797 C1798 1.392 . S
C1797 C1801 1.495 . S
C1798 C1797 1.392 . S
C1798 C1799 1.385 . S
C1798 C1800 1.478 . S
C1799 H1793 0.930 . S
C1799 C1795 1.400 . S
C1799 C1798 1.385 . S
C1800 C1798 1.478 . S
C1800 C1802 1.381 . S
C1800 C1806 1.383 . S
C1801 C1797 1.495 . S
C1801 H1807 0.959 . S
C1801 H1808 0.961 . S
C1801 H1809 0.960 . S
C1802 C1800 1.381 . S
C1802 C1803 1.394 . S
C1802 H1810 0.930 . S
C1803 C1802 1.394 . S
C1803 C1804 1.383 . S
C1803 H1811 0.929 . S
C1804 C1803 1.383 . S
C1804 C1805 1.377 . S
C1805 H1789 0.930 . S
C1805 C1804 1.377 . S
C1805 C1806 1.379 . S
C1806 H1790 0.931 . S
C1806 C1800 1.383 . S
C1806 C1805 1.379 . S
H1807 C1801 0.959 . S
H1808 C1801 0.961 . S
H1809 C1801 0.960 . S
H1810 C1802 0.930 . S
H1811 C1803 0.929 . S
H1812 C1820 0.929 . S
H1813 C1822 0.930 . S
H1814 C1824 0.930 . S
H1815 C1827 0.929 . S
H1816 C1830 0.930 . S
H1817 C1832 0.960 . S
H1818 C1832 0.960 . S
H1819 C1832 0.960 . S
C1820 H1812 0.929 . S
C1820 C1821 1.377 . S
C1820 C1822 1.384 . S
C1821 C1820 1.377 . S
C1821 C1827 1.390 . S
C1822 H1813 0.930 . S
C1822 C1820 1.384 . S
C1822 C1823 1.372 . S
C1823 C1822 1.372 . S
C1823 C1824 1.400 . S
C1823 C1828 1.490 . S
C1824 H1814 0.930 . S
C1824 C1823 1.400 . S
C1824 C1827 1.386 . S
H1825 C1841 0.930 . S
H1826 C1842 0.931 . S
C1827 H1815 0.929 . S
C1827 C1821 1.390 . S
C1827 C1824 1.386 . S
C1828 C1823 1.490 . S
C1828 C1830 1.395 . S
C1828 C1831 1.403 . S
H1829 C1835 0.930 . S
C1830 H1816 0.930 . S
C1830 C1828 1.395 . S
C1830 C1833 1.403 . S
C1831 C1828 1.403 . S
C1831 C1832 1.524 . S
C1831 C1835 1.400 . S
C1832 H1817 0.960 . S
C1832 H1818 0.960 . S
C1832 H1819 0.960 . S
C1832 C1831 1.524 . S
C1833 C1830 1.403 . S
C1833 C1834 1.392 . S
C1833 C1837 1.495 . S
C1834 C1833 1.392 . S
C1834 C1835 1.385 . S
C1834 C1836 1.478 . S
C1835 H1829 0.930 . S
C1835 C1831 1.400 . S
C1835 C1834 1.385 . S
C1836 C1834 1.478 . S
C1836 C1838 1.381 . S
C1836 C1842 1.383 . S
C1837 C1833 1.495 . S
C1837 H1843 0.959 . S
C1837 H1844 0.961 . S
C1837 H1845 0.960 . S
C1838 C1836 1.381 . S
C1838 C1839 1.394 . S
C1838 H1846 0.930 . S
C1839 C1838 1.394 . S
C1839 C1840 1.383 . S
C1839 H1847 0.929 . S
C1840 C1839 1.383 . S
C1840 C1841 1.377 . S
C1841 H1825 0.930 . S
C1841 C1840 1.377 . S
C1841 C1842 1.379 . S
C1842 H1826 0.931 . S
C1842 C1836 1.383 . S
C1842 C1841 1.379 . S
H1843 C1837 0.959 . S
H1844 C1837 0.961 . S
H1845 C1837 0.960 . S
H1846 C1838 0.930 . S
H1847 C1839 0.929 . S
H1848 C1856 0.929 . S
H1849 C1858 0.930 . S
H1850 C1860 0.930 . S
H1851 C1863 0.929 . S
H1852 C1866 0.930 . S
H1853 C1868 0.960 . S
H1854 C1868 0.960 . S
H1855 C1868 0.960 . S
C1856 H1848 0.929 . S
C1856 C1857 1.377 . S
C1856 C1858 1.384 . S
C1857 C1856 1.377 . S
C1857 C1863 1.390 . S
C1858 H1849 0.930 . S
C1858 C1856 1.384 . S
C1858 C1859 1.372 . S
C1859 C1858 1.372 . S
C1859 C1860 1.400 . S
C1859 C1864 1.490 . S
C1860 H1850 0.930 . S
C1860 C1859 1.400 . S
C1860 C1863 1.386 . S
H1861 C1877 0.930 . S
H1862 C1878 0.931 . S
C1863 H1851 0.929 . S
C1863 C1857 1.390 . S
C1863 C1860 1.386 . S
C1864 C1859 1.490 . S
C1864 C1866 1.395 . S
C1864 C1867 1.403 . S
H1865 C1871 0.930 . S
C1866 H1852 0.930 . S
C1866 C1864 1.395 . S
C1866 C1869 1.403 . S
C1867 C1864 1.403 . S
C1867 C1868 1.524 . S
C1867 C1871 1.400 . S
C1868 H1853 0.960 . S
C1868 H1854 0.960 . S
C1868 H1855 0.960 . S
C1868 C1867 1.524 . S
C1869 C1866 1.403 . S
C1869 C1870 1.392 . S
C1869 C1873 1.495 . S
C1870 C1869 1.392 . S
C1870 C1871 1.385 . S
C1870 C1872 1.478 . S
C1871 H1865 0.930 . S
C1871 C1867 1.400 . S
C1871 C1870 1.385 . S
C1872 C1870 1.478 . S
C1872 C1874 1.381 . S
C1872 C1878 1.383 . S
C1873 C1869 1.495 . S
C1873 H1879 0.959 . S
C1873 H1880 0.961 . S
C1873 H1881 0.960 . S
C1874 C1872 1.381 . S
C1874 C1875 1.394 . S
C1874 H1882 0.930 . S
C1875 C1874 1.394 . S
C1875 C1876 1.383 . S
C1875 H1883 0.929 . S
C1876 C1875 1.383 . S
C1876 C1877 1.377 . S
C1877 H1861 0.930 . S
C1877 C1876 1.377 . S
C1877 C1878 1.379 . S
C1878 H1862 0.931 . S
C1878 C1872 1.383 . S
C1878 C1877 1.379 . S
H1879 C1873 0.959 . S
H1880 C1873 0.961 . S
H1881 C1873 0.960 . S
H1882 C1874 0.930 . S
H1883 C1875 0.929 . S
H1884 C1892 0.929 . S
H1885 C1894 0.930 . S
H1886 C1896 0.930 1_545 S
H1887 C1899 0.929 . S
H1888 C1902 0.930 . S
H1889 C1904 0.960 . S
H1890 C1904 0.960 . S
H1891 C1904 0.960 . S
C1892 H1884 0.929 . S
C1892 C1893 1.377 . S
C1892 C1894 1.384 . S
C1893 C1892 1.377 . S
C1893 C1899 1.390 . S
C1894 H1885 0.930 . S
C1894 C1892 1.384 . S
C1894 C1895 1.372 1_565 S
C1895 C1894 1.372 1_545 S
C1895 C1896 1.400 1_545 S
C1895 C1900 1.490 . S
C1896 H1886 0.930 1_565 S
C1896 C1895 1.400 1_565 S
C1896 C1899 1.386 . S
H1897 C1913 0.930 . S
H1898 C1914 0.931 . S
C1899 H1887 0.929 . S
C1899 C1893 1.390 . S
C1899 C1896 1.386 . S
C1900 C1895 1.490 . S
C1900 C1902 1.395 . S
C1900 C1903 1.403 . S
H1901 C1907 0.930 . S
C1902 H1888 0.930 . S
C1902 C1900 1.395 . S
C1902 C1905 1.403 . S
C1903 C1900 1.403 . S
C1903 C1904 1.524 . S
C1903 C1907 1.400 . S
C1904 H1889 0.960 . S
C1904 H1890 0.960 . S
C1904 H1891 0.960 . S
C1904 C1903 1.524 . S
C1905 C1902 1.403 . S
C1905 C1906 1.392 . S
C1905 C1909 1.495 . S
C1906 C1905 1.392 . S
C1906 C1907 1.385 . S
C1906 C1908 1.478 . S
C1907 H1901 0.930 . S
C1907 C1903 1.400 . S
C1907 C1906 1.385 . S
C1908 C1906 1.478 . S
C1908 C1910 1.381 . S
C1908 C1914 1.383 . S
C1909 C1905 1.495 . S
C1909 H1915 0.959 . S
C1909 H1916 0.961 . S
C1909 H1917 0.960 . S
C1910 C1908 1.381 . S
C1910 C1911 1.394 . S
C1910 H1918 0.930 . S
C1911 C1910 1.394 . S
C1911 C1912 1.383 . S
C1911 H1919 0.929 . S
C1912 C1911 1.383 . S
C1912 C1913 1.377 . S
C1913 H1897 0.930 . S
C1913 C1912 1.377 . S
C1913 C1914 1.379 . S
C1914 H1898 0.931 . S
C1914 C1908 1.383 . S
C1914 C1913 1.379 . S
H1915 C1909 0.959 . S
H1916 C1909 0.961 . S
H1917 C1909 0.960 . S
H1918 C1910 0.930 . S
H1919 C1911 0.929 . S
H1920 C1928 0.929 . S
H1921 C1930 0.930 . S
H1922 C1932 0.930 . S
H1923 C1935 0.929 . S
H1924 C1938 0.930 . S
H1925 C1940 0.960 . S
H1926 C1940 0.960 . S
H1927 C1940 0.960 . S
C1928 H1920 0.929 . S
C1928 C1929 1.377 . S
C1928 C1930 1.384 . S
C1929 C1928 1.377 . S
C1929 C1935 1.390 . S
C1930 H1921 0.930 . S
C1930 C1928 1.384 . S
C1930 C1931 1.372 . S
C1931 C1930 1.372 . S
C1931 C1932 1.400 . S
C1931 C1936 1.490 . S
C1932 H1922 0.930 . S
C1932 C1931 1.400 . S
C1932 C1935 1.386 . S
H1933 C1949 0.930 . S
H1934 C1950 0.931 . S
C1935 H1923 0.929 . S
C1935 C1929 1.390 . S
C1935 C1932 1.386 . S
C1936 C1931 1.490 . S
C1936 C1938 1.395 . S
C1936 C1939 1.403 . S
H1937 C1943 0.930 . S
C1938 H1924 0.930 . S
C1938 C1936 1.395 . S
C1938 C1941 1.403 . S
C1939 C1936 1.403 . S
C1939 C1940 1.524 . S
C1939 C1943 1.400 . S
C1940 H1925 0.960 . S
C1940 H1926 0.960 . S
C1940 H1927 0.960 . S
C1940 C1939 1.524 . S
C1941 C1938 1.403 . S
C1941 C1942 1.392 . S
C1941 C1945 1.495 . S
C1942 C1941 1.392 . S
C1942 C1943 1.385 . S
C1942 C1944 1.478 . S
C1943 H1937 0.930 . S
C1943 C1939 1.400 . S
C1943 C1942 1.385 . S
C1944 C1942 1.478 . S
C1944 C1946 1.381 . S
C1944 C1950 1.383 . S
C1945 C1941 1.495 . S
C1945 H1951 0.959 . S
C1945 H1952 0.961 . S
C1945 H1953 0.960 . S
C1946 C1944 1.381 . S
C1946 C1947 1.394 . S
C1946 H1954 0.930 . S
C1947 C1946 1.394 . S
C1947 C1948 1.383 . S
C1947 H1955 0.929 . S
C1948 C1947 1.383 . S
C1948 C1949 1.377 . S
C1949 H1933 0.930 . S
C1949 C1948 1.377 . S
C1949 C1950 1.379 . S
C1950 H1934 0.931 . S
C1950 C1944 1.383 . S
C1950 C1949 1.379 . S
H1951 C1945 0.959 . S
H1952 C1945 0.961 . S
H1953 C1945 0.960 . S
H1954 C1946 0.930 . S
H1955 C1947 0.929 . S
H1956 C1964 0.929 . S
H1957 C1966 0.930 . S
H1958 C1968 0.942 . S
H1959 C1971 0.929 . S
H1960 C1974 0.930 . S
H1961 C1976 0.960 . S
H1962 C1976 0.960 . S
H1963 C1976 0.960 . S
C1964 H1956 0.929 . S
C1964 C1965 1.377 . S
C1964 C1966 1.384 . S
C1965 C1964 1.377 . S
C1965 C1971 1.390 1_556 S
C1966 H1957 0.930 . S
C1966 C1964 1.384 . S
C1966 C1967 1.372 1_545 S
C1967 C1966 1.372 1_565 S
C1967 C1968 1.383 1_556 S
C1967 C1972 1.490 . S
C1968 H1958 0.942 . S
C1968 C1967 1.383 1_554 S
C1968 C1971 1.391 1_565 S
H1969 C1985 0.930 . S
H1970 C1986 0.931 . S
C1971 H1959 0.929 . S
C1971 C1965 1.390 1_554 S
C1971 C1968 1.391 1_545 S
C1972 C1967 1.490 . S
C1972 C1974 1.395 . S
C1972 C1975 1.403 . S
H1973 C1979 0.930 . S
C1974 H1960 0.930 . S
C1974 C1972 1.395 . S
C1974 C1977 1.403 . S
C1975 C1972 1.403 . S
C1975 C1976 1.524 1_556 S
C1975 C1979 1.400 . S
C1976 H1961 0.960 . S
C1976 H1962 0.960 . S
C1976 H1963 0.960 . S
C1976 C1975 1.524 1_554 S
C1977 C1974 1.403 . S
C1977 C1978 1.392 . S
C1977 C1981 1.495 . S
C1978 C1977 1.392 . S
C1978 C1979 1.385 . S
C1978 C1980 1.478 . S
C1979 H1973 0.930 . S
C1979 C1975 1.400 . S
C1979 C1978 1.385 . S
C1980 C1978 1.478 . S
C1980 C1982 1.381 . S
C1980 C1986 1.383 . S
C1981 C1977 1.495 . S
C1981 H1987 0.959 . S
C1981 H1988 0.961 . S
C1981 H1989 0.960 . S
C1982 C1980 1.381 . S
C1982 C1983 1.394 . S
C1982 H1990 0.930 . S
C1983 C1982 1.394 . S
C1983 C1984 1.383 . S
C1983 H1991 0.929 . S
C1984 C1983 1.383 . S
C1984 C1985 1.377 . S
C1985 H1969 0.930 . S
C1985 C1984 1.377 . S
C1985 C1986 1.379 . S
C1986 H1970 0.931 . S
C1986 C1980 1.383 . S
C1986 C1985 1.379 . S
H1987 C1981 0.959 . S
H1988 C1981 0.961 . S
H1989 C1981 0.960 . S
H1990 C1982 0.930 . S
H1991 C1983 0.929 . S
H1992 C2000 0.929 . S
H1993 C2002 0.930 . S
H1994 C2004 0.930 . S
H1995 C2007 0.929 . S
H1996 C2010 0.930 . S
H1997 C2012 0.960 . S
H1998 C2012 0.960 . S
H1999 C2012 0.960 . S
C2000 H1992 0.929 . S
C2000 C2001 1.377 . S
C2000 C2002 1.384 . S
C2001 C2000 1.377 . S
C2001 C2007 1.390 . S
C2002 H1993 0.930 . S
C2002 C2000 1.384 . S
C2002 C2003 1.372 . S
C2003 C2002 1.372 . S
C2003 C2004 1.400 . S
C2003 C2008 1.490 . S
C2004 H1994 0.930 . S
C2004 C2003 1.400 . S
C2004 C2007 1.386 . S
H2005 C2021 0.930 . S
H2006 C2022 0.931 . S
C2007 H1995 0.929 . S
C2007 C2001 1.390 . S
C2007 C2004 1.386 . S
C2008 C2003 1.490 . S
C2008 C2010 1.395 . S
C2008 C2011 1.403 . S
H2009 C2015 0.930 . S
C2010 H1996 0.930 . S
C2010 C2008 1.395 . S
C2010 C2013 1.403 . S
C2011 C2008 1.403 . S
C2011 C2012 1.524 . S
C2011 C2015 1.400 . S
C2012 H1997 0.960 . S
C2012 H1998 0.960 . S
C2012 H1999 0.960 . S
C2012 C2011 1.524 . S
C2013 C2010 1.403 . S
C2013 C2014 1.392 . S
C2013 C2017 1.495 . S
C2014 C2013 1.392 . S
C2014 C2015 1.385 . S
C2014 C2016 1.478 . S
C2015 H2009 0.930 . S
C2015 C2011 1.400 . S
C2015 C2014 1.385 . S
C2016 C2014 1.478 . S
C2016 C2018 1.381 . S
C2016 C2022 1.383 . S
C2017 C2013 1.495 . S
C2017 H2023 0.959 . S
C2017 H2024 0.961 . S
C2017 H2025 0.960 . S
C2018 C2016 1.381 . S
C2018 C2019 1.394 . S
C2018 H2026 0.930 . S
C2019 C2018 1.394 . S
C2019 C2020 1.383 . S
C2019 H2027 0.929 . S
C2020 C2019 1.383 . S
C2020 C2021 1.377 . S
C2021 H2005 0.930 . S
C2021 C2020 1.377 . S
C2021 C2022 1.379 . S
C2022 H2006 0.931 . S
C2022 C2016 1.383 . S
C2022 C2021 1.379 . S
H2023 C2017 0.959 . S
H2024 C2017 0.961 . S
H2025 C2017 0.960 . S
H2026 C2018 0.930 . S
H2027 C2019 0.929 . S
H2028 C2036 0.929 . S
H2029 C2038 0.930 . S
H2030 C2040 0.930 . S
H2031 C2043 0.929 . S
H2032 C2046 0.930 1_556 S
H2033 C2048 0.960 . S
H2034 C2048 0.960 . S
H2035 C2048 0.960 . S
C2036 H2028 0.929 . S
C2036 C2037 1.377 . S
C2036 C2038 1.384 . S
C2037 C2036 1.377 . S
C2037 C2043 1.390 . S
C2038 H2029 0.930 . S
C2038 C2036 1.384 . S
C2038 C2039 1.372 . S
C2039 C2038 1.372 . S
C2039 C2040 1.400 . S
C2039 C2044 1.490 . S
C2040 H2030 0.930 . S
C2040 C2039 1.400 . S
C2040 C2043 1.386 . S
H2041 C2057 0.930 . S
H2042 C2058 0.931 . S
C2043 H2031 0.929 . S
C2043 C2037 1.390 . S
C2043 C2040 1.386 . S
C2044 C2039 1.490 . S
C2044 C2046 1.395 . S
C2044 C2047 1.403 . S
H2045 C2051 0.930 . S
C2046 H2032 0.930 1_554 S
C2046 C2044 1.395 . S
C2046 C2049 1.403 . S
C2047 C2044 1.403 . S
C2047 C2048 1.524 . S
C2047 C2051 1.400 . S
C2048 H2033 0.960 . S
C2048 H2034 0.960 . S
C2048 H2035 0.960 . S
C2048 C2047 1.524 . S
C2049 C2046 1.403 . S
C2049 C2050 1.392 . S
C2049 C2053 1.495 1_554 S
C2050 C2049 1.392 . S
C2050 C2051 1.385 . S
C2050 C2052 1.478 . S
C2051 H2045 0.930 . S
C2051 C2047 1.400 . S
C2051 C2050 1.385 . S
C2052 C2050 1.478 . S
C2052 C2054 1.381 . S
C2052 C2058 1.383 . S
C2053 C2049 1.495 1_556 S
C2053 H2059 0.959 . S
C2053 H2060 0.961 . S
C2053 H2061 0.960 . S
C2054 C2052 1.381 . S
C2054 C2055 1.394 . S
C2054 H2062 0.930 . S
C2055 C2054 1.394 . S
C2055 C2056 1.383 . S
C2055 H2063 0.929 . S
C2056 C2055 1.383 . S
C2056 C2057 1.377 . S
C2057 H2041 0.930 . S
C2057 C2056 1.377 . S
C2057 C2058 1.379 . S
C2058 H2042 0.931 . S
C2058 C2052 1.383 . S
C2058 C2057 1.379 . S
H2059 C2053 0.959 . S
H2060 C2053 0.961 . S
H2061 C2053 0.960 . S
H2062 C2054 0.930 . S
H2063 C2055 0.929 . S
H2064 C2072 0.929 . S
H2065 C2074 0.930 . S
H2066 C2076 0.930 . S
H2067 C2079 0.929 . S
H2068 C2082 0.930 . S
H2069 C2084 0.960 . S
H2070 C2084 0.960 . S
H2071 C2084 0.960 . S
C2072 H2064 0.929 . S
C2072 C2073 1.377 . S
C2072 C2074 1.384 . S
C2073 C2072 1.377 . S
C2073 C2079 1.390 . S
C2074 H2065 0.930 . S
C2074 C2072 1.384 . S
C2074 C2075 1.372 . S
C2075 C2074 1.372 . S
C2075 C2076 1.400 . S
C2075 C2080 1.490 . S
C2076 H2066 0.930 . S
C2076 C2075 1.400 . S
C2076 C2079 1.386 . S
H2077 C2093 0.930 . S
H2078 C2094 0.931 . S
C2079 H2067 0.929 . S
C2079 C2073 1.390 . S
C2079 C2076 1.386 . S
C2080 C2075 1.490 . S
C2080 C2082 1.395 . S
C2080 C2083 1.403 . S
H2081 C2087 0.930 . S
C2082 H2068 0.930 . S
C2082 C2080 1.395 . S
C2082 C2085 1.403 . S
C2083 C2080 1.403 . S
C2083 C2084 1.524 . S
C2083 C2087 1.400 . S
C2084 H2069 0.960 . S
C2084 H2070 0.960 . S
C2084 H2071 0.960 . S
C2084 C2083 1.524 . S
C2085 C2082 1.403 . S
C2085 C2086 1.392 . S
C2085 C2089 1.495 . S
C2086 C2085 1.392 . S
C2086 C2087 1.385 . S
C2086 C2088 1.478 . S
C2087 H2081 0.930 . S
C2087 C2083 1.400 . S
C2087 C2086 1.385 . S
C2088 C2086 1.478 . S
C2088 C2090 1.381 . S
C2088 C2094 1.383 . S
C2089 C2085 1.495 . S
C2089 H2095 0.959 . S
C2089 H2096 0.961 . S
C2089 H2097 0.960 . S
C2090 C2088 1.381 . S
C2090 C2091 1.394 . S
C2090 H2098 0.930 . S
C2091 C2090 1.394 . S
C2091 C2092 1.383 . S
C2091 H2099 0.929 . S
C2092 C2091 1.383 . S
C2092 C2093 1.377 . S
C2093 H2077 0.930 . S
C2093 C2092 1.377 . S
C2093 C2094 1.379 . S
C2094 H2078 0.931 . S
C2094 C2088 1.383 . S
C2094 C2093 1.379 . S
H2095 C2089 0.959 . S
H2096 C2089 0.961 . S
H2097 C2089 0.960 . S
H2098 C2090 0.930 . S
H2099 C2091 0.929 . S
H2100 C2108 0.929 . S
H2101 C2110 0.930 . S
H2102 C2112 0.930 . S
H2103 C2115 0.929 . S
H2104 C2118 0.930 . S
H2105 C2120 0.960 . S
H2106 C2120 0.960 . S
H2107 C2120 0.960 . S
C2108 H2100 0.929 . S
C2108 C2109 1.377 . S
C2108 C2110 1.384 . S
C2109 C2108 1.377 . S
C2109 C2115 1.390 . S
C2110 H2101 0.930 . S
C2110 C2108 1.384 . S
C2110 C2111 1.372 . S
C2111 C2110 1.372 . S
C2111 C2112 1.400 . S
C2111 C2116 1.490 . S
C2112 H2102 0.930 . S
C2112 C2111 1.400 . S
C2112 C2115 1.386 . S
H2113 C2129 0.930 . S
H2114 C2130 0.931 . S
C2115 H2103 0.929 . S
C2115 C2109 1.390 . S
C2115 C2112 1.386 . S
C2116 C2111 1.490 . S
C2116 C2118 1.395 . S
C2116 C2119 1.403 . S
H2117 C2123 0.930 . S
C2118 H2104 0.930 . S
C2118 C2116 1.395 . S
C2118 C2121 1.403 . S
C2119 C2116 1.403 . S
C2119 C2120 1.524 . S
C2119 C2123 1.400 . S
C2120 H2105 0.960 . S
C2120 H2106 0.960 . S
C2120 H2107 0.960 . S
C2120 C2119 1.524 . S
C2121 C2118 1.403 . S
C2121 C2122 1.392 . S
C2121 C2125 1.495 . S
C2122 C2121 1.392 . S
C2122 C2123 1.385 . S
C2122 C2124 1.478 . S
C2123 H2117 0.930 . S
C2123 C2119 1.400 . S
C2123 C2122 1.385 . S
C2124 C2122 1.478 . S
C2124 C2126 1.381 . S
C2124 C2130 1.383 . S
C2125 C2121 1.495 . S
C2125 H2131 0.959 . S
C2125 H2132 0.961 . S
C2125 H2133 0.960 . S
C2126 C2124 1.381 . S
C2126 C2127 1.394 . S
C2126 H2134 0.930 . S
C2127 C2126 1.394 . S
C2127 C2128 1.383 . S
C2127 H2135 0.929 . S
C2128 C2127 1.383 . S
C2128 C2129 1.377 . S
C2129 H2113 0.930 . S
C2129 C2128 1.377 . S
C2129 C2130 1.379 . S
C2130 H2114 0.931 . S
C2130 C2124 1.383 . S
C2130 C2129 1.379 . S
H2131 C2125 0.959 . S
H2132 C2125 0.961 . S
H2133 C2125 0.960 . S
H2134 C2126 0.930 . S
H2135 C2127 0.929 . S
C436 C404 1.067 . S
C417 C5 1.127 . S
C453 C16 1.144 . S
C472 C333 1.080 . S
C489 C36 1.116 . S
C508 C362 1.068 . S
C544 C375 1.007 . S
C525 C49 1.130 . S
C561 C23 1.108 . S
C580 C396 1.050 . S
C616 C341 1.066 . S
C597 C29 1.148 . S
C652 C354 0.970 . S
C633 C42 1.119 . S
C688 C383 1.020 . S
C669 C4 1.141 . S
C705 C55 1.123 . S
C724 C385 0.938 . S
C760 C399 1.108 . S
C741 C69 1.136 . S
C796 C343 0.979 . S
C777 C83 1.118 . S
C832 C357 1.010 . S
C813 C101 1.139 . S
C849 C57 1.121 . S
C868 C336 1.011 . S
C885 C75 1.137 . S
C904 C364 1.077 . S
C921 C81 1.119 . S
C940 C378 1.013 . S
C976 C406 0.981 . S
C957 C95 1.145 . S
C1012 C215 1.024 . S
C993 C96 1.118 . S
C1048 C196 0.992 . S
C1029 C107 1.107 . S
C1084 C210 1.053 . S
C1065 C121 1.130 . S
C1120 C231 1.060 . S
C1101 C133 1.113 . S
C1137 C62 1.132 . S
C1156 C217 1.029 . S
C1173 C68 1.123 . S
C1192 C168 1.089 . S
C1209 C127 1.148 . S
C1228 C228 1.077 . S
C1245 C147 1.139 . S
C1264 C194 1.110 . S
C1300 C257 1.083 . S
C1281 C30 1.112 . S
C1336 C270 1.044 . S
C1317 C43 1.130 . S
C1353 C3 1.126 . S
C1372 C299 1.093 . S
C1389 C18 1.135 . S
C1408 C312 1.055 . S
C1444 C249 0.959 . S
C1425 C44 1.128 . S
C1480 C278 1.110 . S
C1461 C10 1.139 . S
C1497 C17 1.122 . S
C1516 C291 0.928 . S
C1552 C320 1.070 . S
C1533 C31 1.145 . S
C1569 C146 1.133 . S
C1588 C322 1.079 . S
C1605 C114 1.129 . S
C1624 C252 0.984 . S
C1660 C280 0.986 . S
C1641 C122 1.125 . S
C1677 C140 1.137 . S
C1696 C294 1.019 . S
C1732 C273 1.030 . S
C1713 C148 1.130 . S
C1749 C108 1.120 . S
C1768 C301 1.002 . S
C1804 C315 1.008 . S
C1785 C120 1.131 . S
C1840 C259 0.959 . S
C1821 C134 1.139 . S
C1876 C175 0.941 . S
C1857 C135 1.131 . S
C1912 C238 1.003 . S
C1893 C70 1.143 . S
C1929 C82 1.135 . S
C1948 C165 0.959 . S
C1984 C189 0.983 . S
C1965 C94 1.134 . S
C2020 C173 1.061 . S
C2001 C153 1.137 . S
C2037 C109 1.115 . S
C2056 C207 1.051 . S
C2073 C88 1.125 . S
C2092 C186 0.938 . S
C2109 C56 1.122 . S
C2128 C236 1.069 . S
