# Generated by pormake.
# Topology eea, (3,6)-cn, num edge types: 1
# Building blocks:
#     Node 0, Type 0, BuildingBlock: KAKCAD_clean_linker_0, # of connection points: 3
#     Node 1, Type 0, BuildingBlock: KAKCAD_clean_linker_0, # of connection points: 3
#     Node 2, Type 0, BuildingBlock: KAKCAD_clean_linker_0, # of connection points: 3
#     Node 3, Type 0, BuildingBlock: KAKCAD_clean_linker_0, # of connection points: 3
#     Node 4, Type 0, BuildingBlock: KAKCAD_clean_linker_0, # of connection points: 3
#     Node 5, Type 0, BuildingBlock: KAKCAD_clean_linker_0, # of connection points: 3
#     Node 6, Type 0, BuildingBlock: KAKCAD_clean_linker_0, # of connection points: 3
#     Node 7, Type 0, BuildingBlock: KAKCAD_clean_linker_0, # of connection points: 3
#     Node 8, Type 0, BuildingBlock: KAKCAD_clean_linker_0, # of connection points: 3
#     Node 9, Type 0, BuildingBlock: KAKCAD_clean_linker_0, # of connection points: 3
#     Node 10, Type 0, BuildingBlock: KAKCAD_clean_linker_0, # of connection points: 3
#     Node 11, Type 0, BuildingBlock: KAKCAD_clean_linker_0, # of connection points: 3
#     Node 12, Type 0, BuildingBlock: KAKCAD_clean_linker_0, # of connection points: 3
#     Node 13, Type 0, BuildingBlock: KAKCAD_clean_linker_0, # of connection points: 3
#     Node 14, Type 0, BuildingBlock: KAKCAD_clean_linker_0, # of connection points: 3
#     Node 15, Type 0, BuildingBlock: KAKCAD_clean_linker_0, # of connection points: 3
#     Node 16, Type 0, BuildingBlock: KAKCAD_clean_linker_0, # of connection points: 3
#     Node 17, Type 0, BuildingBlock: KAKCAD_clean_linker_0, # of connection points: 3
#     Node 18, Type 1, BuildingBlock: NUHQIS_clean_sbu_0, # of connection points: 6
#     Node 19, Type 1, BuildingBlock: NUHQIS_clean_sbu_0, # of connection points: 6
#     Node 20, Type 1, BuildingBlock: NUHQIS_clean_sbu_0, # of connection points: 6
#     Node 21, Type 1, BuildingBlock: NUHQIS_clean_sbu_0, # of connection points: 6
#     Node 22, Type 1, BuildingBlock: NUHQIS_clean_sbu_0, # of connection points: 6
#     Node 23, Type 1, BuildingBlock: NUHQIS_clean_sbu_0, # of connection points: 6
#     Node 24, Type 1, BuildingBlock: NUHQIS_clean_sbu_0, # of connection points: 6
#     Node 25, Type 1, BuildingBlock: NUHQIS_clean_sbu_0, # of connection points: 6
#     Node 26, Type 1, BuildingBlock: NUHQIS_clean_sbu_0, # of connection points: 6
#     Edge 27, Type (0, 1), BuildingBlock: CIFDUS_clean_linker_0, # of connection points: 2
#     Edge 28, Type (0, 1), BuildingBlock: CIFDUS_clean_linker_0, # of connection points: 2
#     Edge 29, Type (0, 1), BuildingBlock: CIFDUS_clean_linker_0, # of connection points: 2
#     Edge 30, Type (0, 1), BuildingBlock: CIFDUS_clean_linker_0, # of connection points: 2
#     Edge 31, Type (0, 1), BuildingBlock: CIFDUS_clean_linker_0, # of connection points: 2
#     Edge 32, Type (0, 1), BuildingBlock: CIFDUS_clean_linker_0, # of connection points: 2
#     Edge 33, Type (0, 1), BuildingBlock: CIFDUS_clean_linker_0, # of connection points: 2
#     Edge 34, Type (0, 1), BuildingBlock: CIFDUS_clean_linker_0, # of connection points: 2
#     Edge 35, Type (0, 1), BuildingBlock: CIFDUS_clean_linker_0, # of connection points: 2
#     Edge 36, Type (0, 1), BuildingBlock: CIFDUS_clean_linker_0, # of connection points: 2
#     Edge 37, Type (0, 1), BuildingBlock: CIFDUS_clean_linker_0, # of connection points: 2
#     Edge 38, Type (0, 1), BuildingBlock: CIFDUS_clean_linker_0, # of connection points: 2
#     Edge 39, Type (0, 1), BuildingBlock: CIFDUS_clean_linker_0, # of connection points: 2
#     Edge 40, Type (0, 1), BuildingBlock: CIFDUS_clean_linker_0, # of connection points: 2
#     Edge 41, Type (0, 1), BuildingBlock: CIFDUS_clean_linker_0, # of connection points: 2
#     Edge 42, Type (0, 1), BuildingBlock: CIFDUS_clean_linker_0, # of connection points: 2
#     Edge 43, Type (0, 1), BuildingBlock: CIFDUS_clean_linker_0, # of connection points: 2
#     Edge 44, Type (0, 1), BuildingBlock: CIFDUS_clean_linker_0, # of connection points: 2
#     Edge 45, Type (0, 1), BuildingBlock: CIFDUS_clean_linker_0, # of connection points: 2
#     Edge 46, Type (0, 1), BuildingBlock: CIFDUS_clean_linker_0, # of connection points: 2
#     Edge 47, Type (0, 1), BuildingBlock: CIFDUS_clean_linker_0, # of connection points: 2
#     Edge 48, Type (0, 1), BuildingBlock: CIFDUS_clean_linker_0, # of connection points: 2
#     Edge 49, Type (0, 1), BuildingBlock: CIFDUS_clean_linker_0, # of connection points: 2
#     Edge 50, Type (0, 1), BuildingBlock: CIFDUS_clean_linker_0, # of connection points: 2
#     Edge 51, Type (0, 1), BuildingBlock: CIFDUS_clean_linker_0, # of connection points: 2
#     Edge 52, Type (0, 1), BuildingBlock: CIFDUS_clean_linker_0, # of connection points: 2
#     Edge 53, Type (0, 1), BuildingBlock: CIFDUS_clean_linker_0, # of connection points: 2
#     Edge 54, Type (0, 1), BuildingBlock: CIFDUS_clean_linker_0, # of connection points: 2
#     Edge 55, Type (0, 1), BuildingBlock: CIFDUS_clean_linker_0, # of connection points: 2
#     Edge 56, Type (0, 1), BuildingBlock: CIFDUS_clean_linker_0, # of connection points: 2
#     Edge 57, Type (0, 1), BuildingBlock: CIFDUS_clean_linker_0, # of connection points: 2
#     Edge 58, Type (0, 1), BuildingBlock: CIFDUS_clean_linker_0, # of connection points: 2
#     Edge 59, Type (0, 1), BuildingBlock: CIFDUS_clean_linker_0, # of connection points: 2
#     Edge 60, Type (0, 1), BuildingBlock: CIFDUS_clean_linker_0, # of connection points: 2
#     Edge 61, Type (0, 1), BuildingBlock: CIFDUS_clean_linker_0, # of connection points: 2
#     Edge 62, Type (0, 1), BuildingBlock: CIFDUS_clean_linker_0, # of connection points: 2
#     Edge 63, Type (0, 1), BuildingBlock: CIFDUS_clean_linker_0, # of connection points: 2
#     Edge 64, Type (0, 1), BuildingBlock: CIFDUS_clean_linker_0, # of connection points: 2
#     Edge 65, Type (0, 1), BuildingBlock: CIFDUS_clean_linker_0, # of connection points: 2
#     Edge 66, Type (0, 1), BuildingBlock: CIFDUS_clean_linker_0, # of connection points: 2
#     Edge 67, Type (0, 1), BuildingBlock: CIFDUS_clean_linker_0, # of connection points: 2
#     Edge 68, Type (0, 1), BuildingBlock: CIFDUS_clean_linker_0, # of connection points: 2
#     Edge 69, Type (0, 1), BuildingBlock: CIFDUS_clean_linker_0, # of connection points: 2
#     Edge 70, Type (0, 1), BuildingBlock: CIFDUS_clean_linker_0, # of connection points: 2
#     Edge 71, Type (0, 1), BuildingBlock: CIFDUS_clean_linker_0, # of connection points: 2
#     Edge 72, Type (0, 1), BuildingBlock: CIFDUS_clean_linker_0, # of connection points: 2
#     Edge 73, Type (0, 1), BuildingBlock: CIFDUS_clean_linker_0, # of connection points: 2
#     Edge 74, Type (0, 1), BuildingBlock: CIFDUS_clean_linker_0, # of connection points: 2
#     Edge 75, Type (0, 1), BuildingBlock: CIFDUS_clean_linker_0, # of connection points: 2
#     Edge 76, Type (0, 1), BuildingBlock: CIFDUS_clean_linker_0, # of connection points: 2
#     Edge 77, Type (0, 1), BuildingBlock: CIFDUS_clean_linker_0, # of connection points: 2
#     Edge 78, Type (0, 1), BuildingBlock: CIFDUS_clean_linker_0, # of connection points: 2
#     Edge 79, Type (0, 1), BuildingBlock: CIFDUS_clean_linker_0, # of connection points: 2
#     Edge 80, Type (0, 1), BuildingBlock: CIFDUS_clean_linker_0, # of connection points: 2
# Relax obj value: 0.034
# Max RMSD: 0.132
# Mean RMSD: 0.080
data_MOF--net-eea--node1-NUHQIS_clean_sbu_0--node2-KAKCAD_clean_linker_0--edge1-CIFDUS_clean_linker_0
_symmetry_space_group_name_H-M    P1
_symmetry_Int_Tables_number       1
_symmetry_cell_setting            triclinic
loop_
_symmetry_equiv_pos_as_xyz
'x, y, z'
_cell_length_a     56.00731
_cell_length_b     56.383364
_cell_length_c     82.976931
_cell_angle_alpha  93.449717
_cell_angle_beta   93.137648
_cell_angle_gamma 119.96452
loop_
_atom_site_label
_atom_site_type_symbol
_atom_site_fract_x
_atom_site_fract_y
_atom_site_fract_z
_atom_type_partial_charge
C0 C 0.30546 0.16869 0.48304 0.0
C1 C 0.32355 0.15912 0.48733 0.0
C2 C 0.29532 0.16589 0.46685 0.0
C3 C 0.30317 0.15357 0.45459 0.0
C4 C 0.32238 0.14529 0.45883 0.0
C5 C 0.33237 0.14793 0.47502 0.0
C6 C 0.28927 0.1469 0.43781 0.0
C7 C 0.28265 0.16513 0.4306 0.0
C8 C 0.26647 0.15727 0.41553 0.0
C9 C 0.25723 0.13089 0.40771 0.0
C10 C 0.26443 0.11294 0.41451 0.0
C11 C 0.28047 0.12103 0.42947 0.0
C12 C 0.25382 0.08498 0.4065 0.0
C13 C 0.22522 0.0672 0.4028 0.0
C14 C 0.27215 0.07562 0.40303 0.0
C15 C 0.26199 0.04878 0.39602 0.0
C16 C 0.23335 0.03079 0.39269 0.0
C17 C 0.25788 0.17576 0.40829 0.0
C18 C 0.2516 0.19263 0.4182 0.0
C19 C 0.25447 0.17562 0.39134 0.0
C20 C 0.24383 0.19088 0.38449 0.0
C21 C 0.23685 0.20719 0.3944 0.0
C22 C 0.24151 0.20834 0.41135 0.0
C23 C 0.21504 0.0402 0.39609 0.0
H24 H 0.29813 0.1772 0.49228 0.0
H25 H 0.28029 0.17215 0.46406 0.0
H26 H 0.32923 0.13618 0.44965 0.0
H27 H 0.34668 0.14083 0.47796 0.0
H28 H 0.29008 0.18539 0.43678 0.0
H29 H 0.28476 0.10644 0.435 0.0
H30 H 0.24395 0.12395 0.39641 0.0
H31 H 0.21075 0.074 0.40549 0.0
H32 H 0.29429 0.08907 0.40579 0.0
H33 H 0.27644 0.04184 0.39355 0.0
H34 H 0.25366 0.19318 0.43128 0.0
H35 H 0.25965 0.1634 0.38328 0.0
H36 H 0.19287 0.02663 0.39357 0.0
H37 H 0.23708 0.22116 0.41942 0.0
H38 H 0.24039 0.1892 0.37141 0.0
C39 C 0.88589 0.18715 0.48137 0.0
C40 C 0.87826 0.16834 0.49314 0.0
C41 C 0.89202 0.18077 0.46613 0.0
C42 C 0.8904 0.15535 0.46231 0.0
C43 C 0.88372 0.13698 0.47427 0.0
C44 C 0.87779 0.14342 0.48952 0.0
C45 C 0.89333 0.14703 0.44552 0.0
C46 C 0.91492 0.16523 0.4368 0.0
C47 C 0.91665 0.15773 0.42052 0.0
C48 C 0.89586 0.13176 0.41309 0.0
C49 C 0.87497 0.11311 0.42187 0.0
C50 C 0.87381 0.1208 0.43801 0.0
C51 C 0.85485 0.08509 0.41433 0.0
C52 C 0.83794 0.08112 0.40011 0.0
C53 C 0.85298 0.06214 0.4212 0.0
C54 C 0.8349 0.03561 0.41377 0.0
C55 C 0.81798 0.03161 0.39958 0.0
C56 C 0.94024 0.17646 0.41135 0.0
C57 C 0.95379 0.20525 0.41473 0.0
C58 C 0.94961 0.16561 0.3991 0.0
C59 C 0.97122 0.18288 0.39029 0.0
C60 C 0.98504 0.21166 0.3938 0.0
C61 C 0.97606 0.22253 0.40628 0.0
C62 C 0.81936 0.0545 0.39289 0.0
H63 H 0.88674 0.20665 0.48386 0.0
H64 H 0.89696 0.19528 0.45713 0.0
H65 H 0.88254 0.11733 0.47173 0.0
H66 H 0.8718 0.12838 0.49825 0.0
H67 H 0.93065 0.18489 0.44294 0.0
H68 H 0.85714 0.10651 0.44459 0.0
H69 H 0.89596 0.12561 0.40049 0.0
H70 H 0.83907 0.09858 0.39466 0.0
H71 H 0.86595 0.0648 0.43212 0.0
H72 H 0.8341 0.01818 0.41911 0.0
H73 H 0.94719 0.21468 0.42385 0.0
H74 H 0.94049 0.14364 0.39627 0.0
H75 H 0.80654 0.05178 0.38189 0.0
H76 H 0.98631 0.24445 0.40972 0.0
H77 H 0.97684 0.17341 0.38063 0.0
C78 C 0.90867 0.75135 0.49395 0.0
C79 C 0.88155 0.7339 0.49792 0.0
C80 C 0.91352 0.76032 0.47844 0.0
C81 C 0.89142 0.75201 0.46638 0.0
C82 C 0.86432 0.7344 0.47031 0.0
C83 C 0.85945 0.72556 0.48585 0.0
C84 C 0.89657 0.76172 0.44982 0.0
C85 C 0.91984 0.76474 0.44236 0.0
C86 C 0.92486 0.77388 0.42681 0.0
C87 C 0.90599 0.77971 0.41863 0.0
C88 C 0.88261 0.77694 0.42578 0.0
C89 C 0.87825 0.76808 0.44142 0.0
C90 C 0.86282 0.78333 0.41688 0.0
C91 C 0.8724 0.8051 0.40695 0.0
C92 C 0.83412 0.76753 0.41807 0.0
C93 C 0.8156 0.77327 0.40956 0.0
C94 C 0.82522 0.79477 0.39949 0.0
C95 C 0.94991 0.77763 0.41912 0.0
C96 C 0.97576 0.7892 0.42833 0.0
C97 C 0.94836 0.77033 0.40241 0.0
C98 C 0.97203 0.77482 0.39508 0.0
C99 C 0.99791 0.78665 0.40426 0.0
C100 C 0.99942 0.79363 0.42101 0.0
C101 C 0.85384 0.81061 0.3983 0.0
H102 H 0.9263 0.75796 0.50279 0.0
H103 H 0.93466 0.77409 0.476 0.0
H104 H 0.84675 0.72722 0.46134 0.0
H105 H 0.83826 0.71242 0.48843 0.0
H106 H 0.93377 0.75935 0.4485 0.0
H107 H 0.86088 0.76681 0.44727 0.0
H108 H 0.90961 0.78653 0.40662 0.0
H109 H 0.89433 0.81815 0.40596 0.0
H110 H 0.82583 0.75033 0.42535 0.0
H111 H 0.79363 0.76049 0.4106 0.0
H112 H 0.97787 0.79546 0.44117 0.0
H113 H 0.92877 0.76091 0.39496 0.0
H114 H 0.86195 0.82758 0.39083 0.0
H115 H 0.01905 0.80308 0.42843 0.0
H116 H 0.96997 0.76873 0.38222 0.0
C117 C 0.14268 0.26329 0.52386 0.0
C118 C 0.13578 0.28325 0.51998 0.0
C119 C 0.13875 0.25336 0.53914 0.0
C120 C 0.12755 0.26286 0.55093 0.0
C121 C 0.12036 0.28257 0.54706 0.0
C122 C 0.12456 0.29274 0.53183 0.0
C123 C 0.12357 0.25226 0.5672 0.0
C124 C 0.14463 0.24972 0.57557 0.0
C125 C 0.14103 0.23906 0.59074 0.0
C126 C 0.11572 0.23056 0.59734 0.0
C127 C 0.09457 0.23328 0.58937 0.0
C128 C 0.09874 0.2444 0.57435 0.0
C129 C 0.06838 0.22462 0.59705 0.0
C130 C 0.05549 0.19966 0.60413 0.0
C131 C 0.05708 0.24192 0.5983 0.0
C132 C 0.03399 0.23484 0.60693 0.0
C133 C 0.02153 0.2102 0.61442 0.0
C134 C 0.16347 0.23667 0.59978 0.0
C135 C 0.18071 0.22963 0.59155 0.0
C136 C 0.16737 0.24077 0.61684 0.0
C137 C 0.18718 0.23698 0.62544 0.0
C138 C 0.20417 0.22954 0.61725 0.0
C139 C 0.2009 0.22631 0.60015 0.0
C140 C 0.03236 0.19252 0.61267 0.0
H141 H 0.15078 0.25497 0.51503 0.0
H142 H 0.14412 0.23787 0.54164 0.0
H143 H 0.11197 0.29053 0.55593 0.0
H144 H 0.11939 0.3084 0.52947 0.0
H145 H 0.16412 0.25671 0.57039 0.0
H146 H 0.08232 0.24611 0.56799 0.0
H147 H 0.11239 0.22182 0.60885 0.0
H148 H 0.06344 0.18568 0.60317 0.0
H149 H 0.06671 0.2614 0.59312 0.0
H150 H 0.02645 0.24913 0.60815 0.0
H151 H 0.1783 0.22609 0.57844 0.0
H152 H 0.15502 0.24683 0.62367 0.0
H153 H 0.02299 0.1731 0.61792 0.0
H154 H 0.2139 0.22115 0.59333 0.0
H155 H 0.18867 0.23937 0.63856 0.0
C156 C 0.66745 0.8093 0.54158 0.0
C157 C 0.67663 0.8304 0.5312 0.0
C158 C 0.67687 0.81532 0.55808 0.0
C159 C 0.69536 0.84256 0.56452 0.0
C160 C 0.70446 0.86363 0.5542 0.0
C161 C 0.69532 0.85761 0.53772 0.0
C162 C 0.70594 0.84922 0.58188 0.0
C163 C 0.71745 0.8349 0.5891 0.0
C164 C 0.73001 0.84286 0.60514 0.0
C165 C 0.73097 0.8656 0.61382 0.0
C166 C 0.71999 0.88051 0.60664 0.0
C167 C 0.70674 0.87153 0.5908 0.0
C168 C 0.72513 0.90706 0.61492 0.0
C169 C 0.7269 0.91136 0.63194 0.0
C170 C 0.73067 0.92922 0.60583 0.0
C171 C 0.73879 0.9551 0.6135 0.0
C172 C 0.74248 0.95988 0.63051 0.0
C173 C 0.74349 0.82845 0.61246 0.0
C174 C 0.73248 0.80006 0.60858 0.0
C175 C 0.76777 0.84304 0.6232 0.0
C176 C 0.78037 0.82955 0.63007 0.0
C177 C 0.76955 0.80122 0.62605 0.0
C178 C 0.74553 0.78671 0.61511 0.0
C179 C 0.73574 0.93754 0.63966 0.0
H180 H 0.65282 0.78816 0.53699 0.0
H181 H 0.66952 0.79875 0.56584 0.0
H182 H 0.71915 0.88475 0.55882 0.0
H183 H 0.70337 0.87428 0.53005 0.0
H184 H 0.7178 0.81843 0.58188 0.0
H185 H 0.6975 0.88228 0.58517 0.0
H186 H 0.74114 0.87226 0.62603 0.0
H187 H 0.72217 0.89469 0.63937 0.0
H188 H 0.72996 0.92706 0.59273 0.0
H189 H 0.74294 0.97159 0.60602 0.0
H190 H 0.71367 0.78799 0.60053 0.0
H191 H 0.77739 0.86503 0.62623 0.0
H192 H 0.73829 0.94039 0.65279 0.0
H193 H 0.73679 0.76502 0.6114 0.0
H194 H 0.79854 0.84145 0.63863 0.0
C195 C 0.11072 0.81787 0.52407 0.0
C196 C 0.13741 0.8229 0.52144 0.0
C197 C 0.1051 0.82464 0.53937 0.0
C198 C 0.12608 0.83665 0.55234 0.0
C199 C 0.15235 0.84044 0.54989 0.0
C200 C 0.15796 0.83371 0.53465 0.0
C201 C 0.12152 0.8476 0.5679 0.0
C202 C 0.09709 0.83257 0.57542 0.0
C203 C 0.09244 0.84383 0.58976 0.0
C204 C 0.11282 0.87056 0.5964 0.0
C205 C 0.13754 0.88554 0.58918 0.0
C206 C 0.1416 0.87395 0.57494 0.0
C207 C 0.15913 0.91353 0.59629 0.0
C208 C 0.15193 0.93311 0.60144 0.0
C209 C 0.18722 0.92101 0.59764 0.0
C210 C 0.20768 0.94748 0.60405 0.0
C211 C 0.20052 0.96712 0.60921 0.0
C212 C 0.06639 0.82797 0.59777 0.0
C213 C 0.04109 0.80986 0.58852 0.0
C214 C 0.06648 0.8311 0.61475 0.0
C215 C 0.04198 0.81713 0.6222 0.0
C216 C 0.01666 0.79904 0.61296 0.0
C217 C 0.0167 0.79541 0.59601 0.0
C218 C 0.17239 0.95963 0.60778 0.0
H219 H 0.0943 0.80919 0.51423 0.0
H220 H 0.08468 0.82157 0.54086 0.0
H221 H 0.16886 0.84935 0.5597 0.0
H222 H 0.1788 0.8381 0.53308 0.0
H223 H 0.08202 0.81192 0.57021 0.0
H224 H 0.16018 0.88595 0.56901 0.0
H225 H 0.10955 0.8799 0.6072 0.0
H226 H 0.13051 0.92808 0.60031 0.0
H227 H 0.19336 0.90624 0.59391 0.0
H228 H 0.22906 0.95241 0.60521 0.0
H229 H 0.0399 0.80703 0.57543 0.0
H230 H 0.08551 0.84434 0.6224 0.0
H231 H 0.16617 0.97437 0.61138 0.0
H232 H 0.99788 0.78128 0.58841 0.0
H233 H 0.04298 0.82091 0.63523 0.0
C234 C 0.97679 0.52018 0.81262 0.0
C235 C 0.99307 0.5096 0.81877 0.0
C236 C 0.96702 0.51488 0.7962 0.0
C237 C 0.97344 0.499 0.78552 0.0
C238 C 0.99021 0.48892 0.79161 0.0
C239 C 0.99984 0.49409 0.80804 0.0
C240 C 0.96203 0.49222 0.76821 0.0
C241 C 0.96007 0.51185 0.75947 0.0
C242 C 0.94849 0.50513 0.74327 0.0
C243 C 0.93946 0.47879 0.73565 0.0
C244 C 0.94054 0.45861 0.74428 0.0
C245 C 0.95192 0.46559 0.76057 0.0
C246 C 0.92843 0.42992 0.73661 0.0
C247 C 0.90436 0.41804 0.72568 0.0
C248 C 0.94039 0.41394 0.74045 0.0
C249 C 0.92837 0.38669 0.73373 0.0
C250 C 0.90441 0.37486 0.72271 0.0
C251 C 0.94302 0.5245 0.73479 0.0
C252 C 0.92908 0.53627 0.74236 0.0
C253 C 0.94946 0.52953 0.71877 0.0
C254 C 0.94172 0.54583 0.71039 0.0
C255 C 0.92712 0.55708 0.71783 0.0
C256 C 0.92104 0.55218 0.73395 0.0
C257 C 0.89269 0.39098 0.71869 0.0
H258 H 0.97148 0.53251 0.82051 0.0
H259 H 0.95391 0.52272 0.79196 0.0
H260 H 0.99582 0.4769 0.78368 0.0
H261 H 0.01208 0.48536 0.81238 0.0
H262 H 0.96745 0.53239 0.76524 0.0
H263 H 0.95186 0.44995 0.76756 0.0
H264 H 0.93064 0.47378 0.72312 0.0
H265 H 0.89418 0.42943 0.72265 0.0
H266 H 0.95909 0.42244 0.74866 0.0
H267 H 0.93777 0.37485 0.73736 0.0
H268 H 0.92337 0.53223 0.75458 0.0
H269 H 0.96025 0.52067 0.71271 0.0
H270 H 0.87451 0.38281 0.71008 0.0
H271 H 0.90922 0.55987 0.73997 0.0
H272 H 0.94706 0.54947 0.69808 0.0
C273 C 0.55557 0.51583 0.81493 0.0
C274 C 0.54467 0.49515 0.82555 0.0
C275 C 0.56174 0.51034 0.79949 0.0
C276 C 0.55684 0.48397 0.79428 0.0
C277 C 0.54654 0.4635 0.80504 0.0
C278 C 0.5406 0.46903 0.82049 0.0
C279 C 0.561 0.47724 0.77741 0.0
C280 C 0.58507 0.49492 0.77027 0.0
C281 C 0.58873 0.48854 0.75421 0.0
C282 C 0.56785 0.46385 0.74551 0.0
C283 C 0.54372 0.44579 0.75247 0.0
C284 C 0.54044 0.45295 0.76837 0.0
C285 C 0.52208 0.41934 0.74324 0.0
C286 C 0.51643 0.41729 0.7263 0.0
C287 C 0.50708 0.3957 0.75129 0.0
C288 C 0.48704 0.37085 0.74273 0.0
C289 C 0.48183 0.36861 0.72575 0.0
C290 C 0.6139 0.5077 0.74633 0.0
C291 C 0.62678 0.53637 0.75002 0.0
C292 C 0.62471 0.49758 0.73457 0.0
C293 C 0.64679 0.51552 0.72625 0.0
C294 C 0.65937 0.54422 0.72974 0.0
C295 C 0.64935 0.5543 0.74202 0.0
C296 C 0.49683 0.39224 0.71767 0.0
H297 H 0.55918 0.53624 0.81852 0.0
H298 H 0.56953 0.52649 0.79144 0.0
H299 H 0.54278 0.44304 0.80143 0.0
H300 H 0.53203 0.45257 0.8283 0.0
H301 H 0.60114 0.51335 0.77739 0.0
H302 H 0.5215 0.43987 0.77369 0.0
H303 H 0.57034 0.45863 0.7332 0.0
H304 H 0.52705 0.43506 0.71963 0.0
H305 H 0.511 0.39616 0.76426 0.0
H306 H 0.47558 0.35343 0.74952 0.0
H307 H 0.61912 0.54518 0.75885 0.0
H308 H 0.61604 0.47569 0.73162 0.0
H309 H 0.49377 0.39144 0.70462 0.0
H310 H 0.6588 0.57616 0.74548 0.0
H311 H 0.65351 0.50671 0.71684 0.0
C312 C 0.57252 0.07685 0.82311 0.0
C313 C 0.54565 0.05927 0.82735 0.0
C314 C 0.57663 0.08683 0.80783 0.0
C315 C 0.55399 0.07936 0.79632 0.0
C316 C 0.52712 0.06179 0.80061 0.0
C317 C 0.52301 0.05198 0.81592 0.0
C318 C 0.55822 0.08948 0.77985 0.0
C319 C 0.58065 0.09216 0.77156 0.0
C320 C 0.58384 0.10042 0.75579 0.0
C321 C 0.56434 0.10596 0.74826 0.0
C322 C 0.54235 0.10453 0.75644 0.0
C323 C 0.53956 0.09626 0.77225 0.0
C324 C 0.52279 0.11223 0.74852 0.0
C325 C 0.53213 0.13285 0.73782 0.0
C326 C 0.4947 0.09913 0.75149 0.0
C327 C 0.47663 0.10656 0.74406 0.0
C328 C 0.48597 0.12699 0.7332 0.0
C329 C 0.60785 0.10408 0.74712 0.0
C330 C 0.63505 0.12076 0.75443 0.0
C331 C 0.60379 0.09261 0.731 0.0
C332 C 0.6264 0.09824 0.72225 0.0
C333 C 0.65374 0.11588 0.72928 0.0
C334 C 0.65772 0.12674 0.7456 0.0
C335 C 0.51399 0.13981 0.73013 0.0
H336 H 0.59041 0.08316 0.83169 0.0
H337 H 0.5976 0.10065 0.80512 0.0
H338 H 0.50916 0.05512 0.79202 0.0
H339 H 0.50207 0.03814 0.81867 0.0
H340 H 0.59527 0.08711 0.77715 0.0
H341 H 0.52321 0.09573 0.77888 0.0
H342 H 0.56666 0.11179 0.736 0.0
H343 H 0.55363 0.14396 0.73539 0.0
H344 H 0.48648 0.0829 0.75945 0.0
H345 H 0.45538 0.0964 0.74699 0.0
H346 H 0.63879 0.13011 0.76678 0.0
H347 H 0.58303 0.07943 0.72511 0.0
H348 H 0.52209 0.15522 0.72164 0.0
H349 H 0.67834 0.14067 0.75144 0.0
H350 H 0.62235 0.08885 0.7099 0.0
C351 C 0.80412 0.58977 0.85461 0.0
C352 C 0.80307 0.6135 0.85144 0.0
C353 C 0.79757 0.57885 0.86949 0.0
C354 C 0.78951 0.59116 0.88162 0.0
C355 C 0.78742 0.61426 0.87831 0.0
C356 C 0.79422 0.62537 0.86341 0.0
C357 C 0.78452 0.58044 0.89783 0.0
C358 C 0.80323 0.57397 0.90552 0.0
C359 C 0.79891 0.56323 0.92064 0.0
C360 C 0.77531 0.55904 0.92811 0.0
C361 C 0.75631 0.56554 0.92073 0.0
C362 C 0.76124 0.57643 0.9056 0.0
C363 C 0.73123 0.56066 0.92879 0.0
C364 C 0.71601 0.53663 0.93649 0.0
C365 C 0.72239 0.58003 0.92894 0.0
C366 C 0.69902 0.57553 0.93661 0.0
C367 C 0.68375 0.55148 0.94431 0.0
C368 C 0.81919 0.5566 0.92857 0.0
C369 C 0.83192 0.54518 0.91923 0.0
C370 C 0.82645 0.56209 0.94545 0.0
C371 C 0.84612 0.55662 0.95274 0.0
C372 C 0.85918 0.54573 0.94331 0.0
C373 C 0.85172 0.53994 0.92649 0.0
C374 C 0.6926 0.5321 0.94414 0.0
H375 H 0.81012 0.57957 0.84559 0.0
H376 H 0.79888 0.56073 0.87154 0.0
H377 H 0.78142 0.6243 0.88744 0.0
H378 H 0.79336 0.64376 0.8615 0.0
H379 H 0.82166 0.57795 0.89982 0.0
H380 H 0.74652 0.58099 0.89962 0.0
H381 H 0.77169 0.55067 0.93973 0.0
H382 H 0.72193 0.52104 0.9364 0.0
H383 H 0.73382 0.59894 0.92333 0.0
H384 H 0.69313 0.59114 0.93669 0.0
H385 H 0.82647 0.54011 0.90626 0.0
H386 H 0.81742 0.57123 0.95303 0.0
H387 H 0.68115 0.51312 0.94967 0.0
H388 H 0.86105 0.53111 0.91892 0.0
H389 H 0.85161 0.56155 0.96571 0.0
C390 C 0.35433 0.14907 0.86728 0.0
C391 C 0.37023 0.1681 0.85662 0.0
C392 C 0.36221 0.15465 0.88399 0.0
C393 C 0.38579 0.17957 0.89026 0.0
C394 C 0.40162 0.19857 0.87957 0.0
C395 C 0.394 0.19282 0.86291 0.0
C396 C 0.39418 0.18597 0.9079 0.0
C397 C 0.39774 0.16746 0.91682 0.0
C398 C 0.4078 0.17432 0.93335 0.0
C399 C 0.41435 0.20029 0.94077 0.0
C400 C 0.41138 0.21932 0.9319 0.0
C401 C 0.40055 0.21154 0.91555 0.0
C402 C 0.42144 0.24792 0.93928 0.0
C403 C 0.42037 0.25353 0.9559 0.0
C404 C 0.43336 0.27014 0.92976 0.0
C405 C 0.44386 0.29707 0.93661 0.0
C406 C 0.44365 0.30281 0.95331 0.0
C407 C 0.41316 0.15515 0.94248 0.0
C408 C 0.39667 0.12646 0.93875 0.0
C409 C 0.43549 0.16536 0.95459 0.0
C410 C 0.44133 0.1475 0.96259 0.0
C411 C 0.42564 0.1189 0.95835 0.0
C412 C 0.40305 0.10862 0.9464 0.0
C413 C 0.43162 0.28062 0.96286 0.0
H414 H 0.33595 0.12983 0.86268 0.0
H415 H 0.3497 0.13972 0.89203 0.0
H416 H 0.42003 0.21782 0.88412 0.0
H417 H 0.40646 0.20793 0.85494 0.0
H418 H 0.39389 0.14826 0.91058 0.0
H419 H 0.39727 0.22549 0.90859 0.0
H420 H 0.4225 0.206 0.95339 0.0
H421 H 0.41097 0.23705 0.96362 0.0
H422 H 0.43521 0.26697 0.917 0.0
H423 H 0.45224 0.31337 0.9287 0.0
H424 H 0.37891 0.11763 0.92977 0.0
H425 H 0.44909 0.18724 0.95772 0.0
H426 H 0.43127 0.28408 0.97579 0.0
H427 H 0.39056 0.08682 0.94259 0.0
H428 H 0.45842 0.15634 0.97202 0.0
C429 C 0.77431 0.15862 0.85419 0.0
C430 C 0.80117 0.16685 0.84995 0.0
C431 C 0.76982 0.1631 0.87024 0.0
C432 C 0.79203 0.1757 0.8825 0.0
C433 C 0.81872 0.18306 0.87834 0.0
C434 C 0.82325 0.1789 0.8623 0.0
C435 C 0.78771 0.18232 0.89939 0.0
C436 C 0.76355 0.16447 0.90649 0.0
C437 C 0.75941 0.17122 0.9223 0.0
C438 C 0.77949 0.19613 0.93098 0.0
C439 C 0.80357 0.21408 0.9241 0.0
C440 C 0.80764 0.20709 0.90841 0.0
C441 C 0.82423 0.2406 0.93315 0.0
C442 C 0.81638 0.25951 0.93864 0.0
C443 C 0.85189 0.24723 0.93618 0.0
C444 C 0.8714 0.27236 0.94475 0.0
C445 C 0.86362 0.29142 0.95006 0.0
C446 C 0.73395 0.15259 0.92976 0.0
C447 C 0.70778 0.14224 0.92127 0.0
C448 C 0.73564 0.1458 0.94564 0.0
C449 C 0.71161 0.12891 0.95288 0.0
C450 C 0.6853 0.1187 0.94448 0.0
C451 C 0.68375 0.12568 0.92858 0.0
C452 C 0.83601 0.28487 0.94688 0.0
H453 H 0.75669 0.14886 0.8451 0.0
H454 H 0.749 0.15733 0.87291 0.0
H455 H 0.83628 0.19235 0.88747 0.0
H456 H 0.84429 0.18585 0.85955 0.0
H457 H 0.74818 0.14508 0.89987 0.0
H458 H 0.82598 0.22154 0.90305 0.0
H459 H 0.7763 0.2017 0.94308 0.0
H460 H 0.79516 0.25481 0.93634 0.0
H461 H 0.85831 0.23286 0.93205 0.0
H462 H 0.89263 0.27709 0.94705 0.0
H463 H 0.7059 0.1475 0.90911 0.0
H464 H 0.7556 0.15335 0.95241 0.0
H465 H 0.8296 0.29928 0.95094 0.0
H466 H 0.66392 0.11871 0.92182 0.0
H467 H 0.71371 0.12362 0.965 0.0
C468 C 0.63718 0.84636 0.15407 0.0
C469 C 0.657 0.83993 0.15999 0.0
C470 C 0.62736 0.84039 0.13765 0.0
C471 C 0.6374 0.82815 0.12674 0.0
C472 C 0.65772 0.82228 0.13266 0.0
C473 C 0.66729 0.82796 0.14913 0.0
C474 C 0.62599 0.82069 0.10939 0.0
C475 C 0.61862 0.83757 0.10124 0.0
C476 C 0.60602 0.82973 0.08524 0.0
C477 C 0.60134 0.80498 0.07717 0.0
C478 C 0.60866 0.78787 0.08509 0.0
C479 C 0.62103 0.7959 0.10114 0.0
C480 C 0.60173 0.76068 0.07708 0.0
C481 C 0.57519 0.74293 0.06916 0.0
C482 C 0.62106 0.75174 0.07801 0.0
C483 C 0.61387 0.72541 0.07133 0.0
C484 C 0.5871 0.70738 0.06369 0.0
C485 C 0.59639 0.84677 0.07739 0.0
C486 C 0.58096 0.8559 0.08582 0.0
C487 C 0.60252 0.85411 0.06163 0.0
C488 C 0.59401 0.87099 0.05461 0.0
C489 C 0.579 0.88059 0.0632 0.0
C490 C 0.57223 0.87246 0.07878 0.0
C491 C 0.56791 0.71654 0.0626 0.0
H492 H 0.62865 0.85528 0.16223 0.0
H493 H 0.61132 0.8447 0.13362 0.0
H494 H 0.66626 0.81328 0.12458 0.0
H495 H 0.6828 0.82306 0.15338 0.0
H496 H 0.62265 0.85694 0.10734 0.0
H497 H 0.62556 0.78212 0.10746 0.0
H498 H 0.59136 0.79871 0.06487 0.0
H499 H 0.55972 0.74912 0.0685 0.0
H500 H 0.64176 0.76514 0.08393 0.0
H501 H 0.62929 0.71919 0.07215 0.0
H502 H 0.57546 0.85006 0.09787 0.0
H503 H 0.61445 0.84735 0.0549 0.0
H504 H 0.54697 0.70307 0.05708 0.0
H505 H 0.56008 0.87883 0.08559 0.0
H506 H 0.59976 0.87704 0.04264 0.0
C507 C 0.22715 0.83977 0.14885 0.0
C508 C 0.22118 0.81952 0.15955 0.0
C509 C 0.23117 0.83519 0.13272 0.0
C510 C 0.22883 0.8101 0.12695 0.0
C511 C 0.22338 0.79009 0.13773 0.0
C512 C 0.21978 0.79482 0.15389 0.0
C513 C 0.23044 0.80411 0.10953 0.0
C514 C 0.25253 0.82283 0.10141 0.0
C515 C 0.25374 0.81733 0.08475 0.0
C516 C 0.23217 0.79268 0.07639 0.0
C517 C 0.21018 0.77353 0.08443 0.0
C518 C 0.20948 0.77954 0.10099 0.0
C519 C 0.18822 0.74701 0.07562 0.0
C520 C 0.17789 0.74589 0.05958 0.0
C521 C 0.1778 0.72246 0.08312 0.0
C522 C 0.15776 0.69741 0.07474 0.0
C523 C 0.14785 0.69628 0.05864 0.0
C524 C 0.2775 0.83701 0.07611 0.0
C525 C 0.29113 0.86554 0.08064 0.0
C526 C 0.28679 0.82743 0.06319 0.0
C527 C 0.30855 0.84578 0.05485 0.0
C528 C 0.32238 0.87428 0.05948 0.0
C529 C 0.31343 0.88383 0.0726 0.0
C530 C 0.15801 0.72078 0.05116 0.0
H531 H 0.2285 0.85905 0.15294 0.0
H532 H 0.23521 0.85088 0.12462 0.0
H533 H 0.22161 0.77063 0.13359 0.0
H534 H 0.21502 0.7788 0.16185 0.0
H535 H 0.26908 0.8413 0.10825 0.0
H536 H 0.19221 0.76533 0.10722 0.0
H537 H 0.23251 0.78818 0.06358 0.0
H538 H 0.18505 0.76444 0.05354 0.0
H539 H 0.18559 0.72247 0.09535 0.0
H540 H 0.15056 0.67879 0.08073 0.0
H541 H 0.2845 0.87394 0.09033 0.0
H542 H 0.27746 0.80566 0.05948 0.0
H543 H 0.15048 0.72054 0.03881 0.0
H544 H 0.32373 0.90549 0.07685 0.0
H545 H 0.31427 0.83742 0.04468 0.0
C546 C 0.22609 0.40271 0.15444 0.0
C547 C 0.19845 0.38448 0.15722 0.0
C548 C 0.23261 0.41284 0.13925 0.0
C549 C 0.21165 0.40486 0.12646 0.0
C550 C 0.18423 0.38568 0.12911 0.0
C551 C 0.17773 0.37575 0.14425 0.0
C552 C 0.21774 0.4174 0.1107 0.0
C553 C 0.24175 0.4227 0.10317 0.0
C554 C 0.24663 0.43397 0.08813 0.0
C555 C 0.22782 0.44079 0.08096 0.0
C556 C 0.20413 0.436 0.08835 0.0
C557 C 0.19913 0.4242 0.10308 0.0
C558 C 0.18461 0.44353 0.08072 0.0
C559 C 0.19373 0.47091 0.07784 0.0
C560 C 0.15672 0.42344 0.07642 0.0
C561 C 0.13828 0.4306 0.06926 0.0
C562 C 0.1473 0.45808 0.06666 0.0
C563 C 0.27097 0.43842 0.07952 0.0
C564 C 0.29803 0.454 0.08719 0.0
C565 C 0.26724 0.4285 0.06309 0.0
C566 C 0.29 0.43443 0.05442 0.0
C567 C 0.31726 0.45087 0.06184 0.0
C568 C 0.32091 0.46035 0.07844 0.0
C569 C 0.17515 0.47819 0.07105 0.0
H570 H 0.24255 0.40991 0.16418 0.0
H571 H 0.25392 0.42766 0.13771 0.0
H572 H 0.16759 0.37843 0.11948 0.0
H573 H 0.15633 0.36125 0.14583 0.0
H574 H 0.2561 0.41725 0.10868 0.0
H575 H 0.18096 0.42101 0.10882 0.0
H576 H 0.23157 0.44981 0.06952 0.0
H577 H 0.21514 0.48674 0.08111 0.0
H578 H 0.14927 0.40218 0.0785 0.0
H579 H 0.11685 0.4148 0.06603 0.0
H580 H 0.30152 0.46214 0.0998 0.0
H581 H 0.24658 0.41619 0.0569 0.0
H582 H 0.18252 0.49951 0.06914 0.0
H583 H 0.34145 0.47336 0.08461 0.0
H584 H 0.28612 0.42607 0.04185 0.0
C585 C 0.47653 0.93217 0.19237 0.0
C586 C 0.47358 0.95511 0.19006 0.0
C587 C 0.47147 0.92048 0.20711 0.0
C588 C 0.46319 0.93131 0.21994 0.0
C589 C 0.45965 0.95389 0.21754 0.0
C590 C 0.46491 0.96573 0.20281 0.0
C591 C 0.45904 0.91943 0.23585 0.0
C592 C 0.47816 0.91261 0.24262 0.0
C593 C 0.4745 0.90077 0.2574 0.0
C594 C 0.45104 0.89559 0.26537 0.0
C595 C 0.43189 0.90267 0.25901 0.0
C596 C 0.43616 0.91479 0.24429 0.0
C597 C 0.40743 0.89726 0.26782 0.0
C598 C 0.39092 0.87147 0.2735 0.0
C599 C 0.40085 0.918 0.271 0.0
C600 C 0.37854 0.91319 0.27991 0.0
C601 C 0.36201 0.88738 0.28557 0.0
C602 C 0.49537 0.89424 0.2646 0.0
C603 C 0.50874 0.88429 0.25467 0.0
C604 C 0.50238 0.89821 0.28149 0.0
C605 C 0.52202 0.89228 0.28825 0.0
C606 C 0.53541 0.88247 0.27831 0.0
C607 C 0.52861 0.87863 0.26143 0.0
C608 C 0.36835 0.86652 0.28215 0.0
H609 H 0.48339 0.92358 0.18289 0.0
H610 H 0.47411 0.90291 0.20847 0.0
H611 H 0.45342 0.96282 0.22718 0.0
H612 H 0.46218 0.98323 0.20139 0.0
H613 H 0.4964 0.91726 0.23651 0.0
H614 H 0.42121 0.91982 0.23918 0.0
H615 H 0.44767 0.88612 0.27664 0.0
H616 H 0.39539 0.85505 0.27116 0.0
H617 H 0.41329 0.93812 0.26687 0.0
H618 H 0.37403 0.92959 0.28224 0.0
H619 H 0.50362 0.88051 0.24165 0.0
H620 H 0.49303 0.90636 0.28954 0.0
H621 H 0.3561 0.84647 0.2864 0.0
H622 H 0.53831 0.87078 0.25346 0.0
H623 H 0.52708 0.89582 0.30128 0.0
C624 C 0.02401 0.48099 0.20024 0.0
C625 C 0.03951 0.50198 0.19049 0.0
C626 C 0.03025 0.48519 0.21706 0.0
C627 C 0.05193 0.51054 0.22443 0.0
C628 C 0.06776 0.53134 0.21466 0.0
C629 C 0.06168 0.52706 0.19783 0.0
C630 C 0.05739 0.51559 0.24232 0.0
C631 C 0.05896 0.49616 0.25143 0.0
C632 C 0.064 0.50076 0.26847 0.0
C633 C 0.06695 0.5251 0.27628 0.0
C634 C 0.06625 0.54499 0.26723 0.0
C635 C 0.06134 0.54006 0.2503 0.0
C636 C 0.07261 0.57185 0.27525 0.0
C637 C 0.05783 0.57352 0.28798 0.0
C638 C 0.09387 0.59611 0.27012 0.0
C639 C 0.10045 0.62167 0.27767 0.0
C640 C 0.08563 0.62344 0.29033 0.0
C641 C 0.06825 0.4812 0.27784 0.0
C642 C 0.05396 0.45286 0.27269 0.0
C643 C 0.08806 0.49094 0.29141 0.0
C644 C 0.09407 0.47303 0.29923 0.0
C645 C 0.08097 0.44499 0.29347 0.0
C646 C 0.06044 0.43506 0.28027 0.0
C647 C 0.0641 0.59922 0.29537 0.0
H648 H 0.00696 0.46138 0.19485 0.0
H649 H 0.01767 0.46886 0.22433 0.0
H650 H 0.08477 0.55098 0.22004 0.0
H651 H 0.07385 0.54363 0.1906 0.0
H652 H 0.05739 0.478 0.24509 0.0
H653 H 0.06037 0.55529 0.24334 0.0
H654 H 0.07068 0.52909 0.28938 0.0
H655 H 0.04131 0.55501 0.29208 0.0
H656 H 0.10564 0.59527 0.26039 0.0
H657 H 0.11704 0.64011 0.27354 0.0
H658 H 0.0381 0.4444 0.26254 0.0
H659 H 0.09978 0.51261 0.29571 0.0
H660 H 0.05249 0.6002 0.30515 0.0
H661 H 0.04997 0.41368 0.27536 0.0
H662 H 0.10946 0.4814 0.30961 0.0
C663 C 0.44146 0.48881 0.1952 0.0
C664 C 0.46832 0.49725 0.19094 0.0
C665 C 0.43725 0.49448 0.21114 0.0
C666 C 0.45982 0.50854 0.22311 0.0
C667 C 0.48644 0.51563 0.21895 0.0
C668 C 0.49065 0.51019 0.20306 0.0
C669 C 0.45621 0.51775 0.23953 0.0
C670 C 0.43345 0.50076 0.24794 0.0
C671 C 0.43044 0.51011 0.26342 0.0
C672 C 0.44998 0.53684 0.27024 0.0
C673 C 0.47253 0.55396 0.26194 0.0
C674 C 0.47563 0.54431 0.24672 0.0
C675 C 0.4927 0.58225 0.26896 0.0
C676 C 0.48383 0.60093 0.27303 0.0
C677 C 0.521 0.5909 0.2712 0.0
C678 C 0.54018 0.61783 0.27757 0.0
C679 C 0.53136 0.63663 0.28141 0.0
C680 C 0.40685 0.49235 0.27254 0.0
C681 C 0.37962 0.47889 0.26509 0.0
C682 C 0.41136 0.4898 0.28902 0.0
C683 C 0.38908 0.4743 0.29792 0.0
C684 C 0.36171 0.46119 0.29059 0.0
C685 C 0.3573 0.46367 0.27403 0.0
C686 C 0.50307 0.62804 0.27906 0.0
H687 H 0.42388 0.47883 0.18608 0.0
H688 H 0.41652 0.48889 0.21391 0.0
H689 H 0.5042 0.52588 0.22795 0.0
H690 H 0.51149 0.51639 0.2002 0.0
H691 H 0.41848 0.48011 0.24264 0.0
H692 H 0.49282 0.55799 0.24024 0.0
H693 H 0.4476 0.54444 0.28201 0.0
H694 H 0.46208 0.59467 0.27128 0.0
H695 H 0.52822 0.57674 0.26813 0.0
H696 H 0.56193 0.62411 0.27928 0.0
H697 H 0.37555 0.48083 0.25247 0.0
H698 H 0.4322 0.49978 0.29502 0.0
H699 H 0.49587 0.64223 0.28206 0.0
H700 H 0.33655 0.45437 0.268 0.0
H701 H 0.39337 0.47248 0.31052 0.0
Tb702 Tb 0.49825 0.98435 0.9878 0.0
Eu703 Eu 0.51717 0.01765 0.025 0.0
C704 C 0.5237 0.96561 0.01583 0.0
C705 C 0.45816 0.96326 0.01472 0.0
C706 C 0.4904 0.97589 0.94285 0.0
C707 C 0.50077 0.97519 0.91477 0.0
C708 C 0.49558 0.9633 0.92947 0.0
C709 C 0.49053 0.00064 0.94133 0.0
C710 C 0.49549 0.01242 0.92659 0.0
C711 C 0.50078 0.99989 0.91313 0.0
C712 C 0.48657 0.96387 0.95852 0.0
O713 O 0.48008 0.01073 0.9901 0.0
O714 O 0.51229 0.04547 0.0087 0.0
O715 O 0.55606 0.03448 0.012 0.0
O716 O 0.53466 0.02389 0.98607 0.0
C717 C 0.49252 0.03632 0.99678 0.0
O718 O 0.50784 0.03667 0.04566 0.0
O719 O 0.54487 0.03354 0.0474 0.0
O720 O 0.51628 0.97788 0.02669 0.0
O721 O 0.52238 0.96899 1.00032 0.0
O722 O 0.46852 0.9558 1.00292 0.0
O723 O 0.47097 0.98851 0.02186 0.0
C724 C 0.55702 0.03673 0.99632 0.0
O725 O 0.50932 0.96993 0.96721 0.0
O726 O 0.46888 0.96564 0.9674 0.0
C727 C 0.52071 0.02664 0.07088 0.0
C728 C 0.50464 0.00281 0.10043 0.0
C729 C 0.50589 0.02787 0.09785 0.0
C730 C 0.51386 0.03964 0.08324 0.0
C731 C 0.51951 0.00166 0.0734 0.0
C732 C 0.51175 0.98999 0.08801 0.0
C733 C 0.52815 0.03871 0.05528 0.0
H734 H 0.50452 0.96487 0.90462 0.0
H735 H 0.49583 0.94435 0.93042 0.0
H736 H 0.48706 0.01101 0.95157 0.0
H737 H 0.49568 0.03162 0.92581 0.0
H738 H 0.50021 0.03818 0.10698 0.0
H739 H 0.5144 0.05879 0.08152 0.0
H740 H 0.52449 0.99104 0.06405 0.0
H741 H 0.51151 0.97095 0.08958 0.0
Tb742 Tb 0.01448 0.50541 0.99027 0.0
Eu743 Eu 0.97982 0.48327 0.02201 0.0
C744 C 0.03041 0.54498 0.02238 0.0
C745 C 0.03586 0.48372 0.01858 0.0
C746 C 0.03187 0.52096 0.9484 0.0
C747 C 0.04356 0.53873 0.92232 0.0
C748 C 0.05127 0.53896 0.93865 0.0
C749 C 1.00453 0.50296 0.94176 0.0
C750 C 0.99683 0.50257 0.92541 0.0
C751 C 0.01629 0.52037 0.91546 0.0
C752 C 0.04026 0.52125 0.96549 0.0
O753 O 0.97618 0.46825 0.98112 0.0
O754 O 0.96922 0.44674 1.00429 0.0
O755 O 0.95132 0.48805 1.00409 0.0
O756 O 0.98382 0.51857 0.98874 0.0
C757 C 0.96485 0.4458 0.98853 0.0
O758 O 0.96396 0.45236 0.03919 0.0
O759 O 0.95439 0.4852 0.04043 0.0
O760 O 0.00597 0.52924 0.02735 0.0
O761 O 0.0393 0.53666 0.01017 0.0
O762 O 0.03068 0.48251 1.0028 0.0
O763 O 0.0223 0.49005 0.02871 0.0
C764 C 0.95866 0.50618 0.99343 0.0
O765 O 0.0365 0.53726 0.97572 0.0
O766 O 0.03222 0.49724 0.97065 0.0
C767 C 0.96018 0.46884 0.06495 0.0
C768 C 0.97456 0.47554 0.09862 0.0
C769 C 0.95024 0.45208 0.09139 0.0
C770 C 0.94313 0.44879 0.07468 0.0
C771 C 0.98444 0.49232 0.07204 0.0
C772 C 0.99152 0.4957 0.08876 0.0
C773 C 0.9531 0.46446 0.04736 0.0
H774 H 0.05893 0.55303 0.91509 0.0
H775 H 0.0724 0.55317 0.94367 0.0
H776 H 0.98921 0.48903 0.94917 0.0
H777 H 0.97577 0.48795 0.9205 0.0
H778 H 0.93697 0.43599 0.09858 0.0
H779 H 0.92447 0.43042 0.06933 0.0
H780 H 0.99795 0.50793 0.06464 0.0
H781 H 0.0102 0.51416 0.09397 0.0
Tb782 Tb 0.5193 0.49805 0.02628 0.0
Eu783 Eu 0.49381 0.50629 0.99158 0.0
C784 C 0.48946 0.45039 0.99842 0.0
C785 C 0.555 0.51419 0.9966 0.0
C786 C 0.53081 0.49517 0.07032 0.0
C787 C 0.52051 0.47912 0.09698 0.0
C788 C 0.52679 0.47575 0.08123 0.0
C789 C 0.52856 0.51814 0.07537 0.0
C790 C 0.52256 0.52168 0.09118 0.0
C791 C 0.51829 0.5021 0.10212 0.0
C792 C 0.53528 0.49004 0.05344 0.0
O793 O 0.5358 0.54228 0.0263 0.0
O794 O 0.50341 0.54306 0.0084 0.0
O795 O 0.45823 0.4876 0.00757 0.0
O796 O 0.4844 0.50231 0.03223 0.0
C797 C 0.52393 0.55514 0.01993 0.0
O798 O 0.49631 0.53181 0.97223 0.0
O799 O 0.46336 0.48917 0.97036 0.0
O800 O 0.4972 0.46851 0.98789 0.0
O801 O 0.48997 0.45761 0.01379 0.0
O802 O 0.5477 0.49921 0.00894 0.0
O803 O 0.53967 0.52362 0.99036 0.0
C804 C 0.4604 0.49172 0.02355 0.0
O805 O 0.51321 0.47167 0.0444 0.0
O806 O 0.55019 0.51146 0.0458 0.0
C807 C 0.48404 0.50706 0.94631 0.0
C808 C 0.50263 0.50187 0.91592 0.0
C809 C 0.50183 0.52571 0.92107 0.0
C810 C 0.49259 0.52822 0.93608 0.0
C811 C 0.48446 0.48308 0.94113 0.0
C812 C 0.49347 0.48046 0.92609 0.0
C813 C 0.47673 0.51109 0.96273 0.0
H814 H 0.51757 0.46385 0.10518 0.0
H815 H 0.52817 0.45776 0.0775 0.0
H816 H 0.53107 0.53316 0.06706 0.0
H817 H 0.5207 0.53944 0.09477 0.0
H818 H 0.50904 0.54277 0.9137 0.0
H819 H 0.49271 0.54702 0.93986 0.0
H820 H 0.47821 0.46646 0.94879 0.0
H821 H 0.49329 0.4616 0.92246 0.0
Tb822 Tb 0.15886 0.31294 0.31905 0.0
Eu823 Eu 0.18043 0.3471 0.35589 0.0
C824 C 0.18426 0.29425 0.34685 0.0
C825 C 0.11967 0.29403 0.34664 0.0
C826 C 0.15406 0.3024 0.27401 0.0
C827 C 0.17017 0.29984 0.24762 0.0
C828 C 0.16176 0.28901 0.26239 0.0
C829 C 0.15474 0.32683 0.27053 0.0
C830 C 0.16292 0.33756 0.25567 0.0
C831 C 0.17097 0.32431 0.24407 0.0
C832 C 0.14709 0.29139 0.28995 0.0
O833 O 0.14125 0.33978 0.3216 0.0
O834 O 0.17411 0.37458 0.33999 0.0
O835 O 0.21813 0.36176 0.34172 0.0
O836 O 0.19461 0.35234 0.31657 0.0
C837 C 0.15366 0.36529 0.32846 0.0
O838 O 0.17374 0.36708 0.37724 0.0
O839 O 0.21033 0.3632 0.37732 0.0
O840 O 0.17594 0.30576 0.35757 0.0
O841 O 0.18482 0.29952 0.33161 0.0
O842 O 0.12862 0.28559 0.33447 0.0
O843 O 0.13398 0.31922 0.35389 0.0
C844 C 0.21785 0.3639 0.32601 0.0
O845 O 0.16787 0.29433 0.29943 0.0
O846 O 0.13073 0.29687 0.29797 0.0
C847 C 0.1894 0.35799 0.40202 0.0
C848 C 0.17925 0.33747 0.43279 0.0
C849 C 0.17682 0.36041 0.42949 0.0
C850 C 0.18196 0.37061 0.41428 0.0
C851 C 0.19132 0.33473 0.40519 0.0
C852 C 0.18646 0.3247 0.42042 0.0
C853 C 0.19485 0.36905 0.38601 0.0
H854 H 0.17593 0.28894 0.23892 0.0
H855 H 0.16158 0.27025 0.26482 0.0
H856 H 0.14931 0.33783 0.27937 0.0
H857 H 0.16356 0.35658 0.25341 0.0
H858 H 0.17149 0.37081 0.43877 0.0
H859 H 0.18023 0.38848 0.41211 0.0
H860 H 0.19663 0.32428 0.39591 0.0
H861 H 0.18813 0.30677 0.42248 0.0
Tb862 Tb 0.6882 0.83971 0.33005 0.0
Eu863 Eu 0.65041 0.82211 0.36079 0.0
C864 C 0.70097 0.88319 0.35939 0.0
C865 C 0.70797 0.82378 0.36231 0.0
C866 C 0.70816 0.84761 0.28799 0.0
C867 C 0.7187 0.86393 0.26143 0.0
C868 C 0.72537 0.86756 0.27822 0.0
C869 C 0.68403 0.82401 0.28079 0.0
C870 C 0.6775 0.82024 0.264 0.0
C871 C 0.69478 0.84016 0.25416 0.0
C872 C 0.71544 0.85179 0.30562 0.0
O873 O 0.65158 0.80022 0.32196 0.0
O874 O 0.64374 0.78363 0.3467 0.0
O875 O 0.62311 0.82121 0.33976 0.0
O876 O 0.65723 0.85218 0.3256 0.0
C877 C 0.64076 0.77955 0.33084 0.0
O878 O 0.63144 0.79394 0.37914 0.0
O879 O 0.62324 0.82734 0.37664 0.0
O880 O 0.67549 0.86848 0.36322 0.0
O881 O 0.71142 0.87312 0.3491 0.0
O882 O 0.70602 0.82196 0.34631 0.0
O883 O 0.69189 0.82957 0.37057 0.0
C884 C 0.63123 0.83897 0.32892 0.0
O885 O 0.70975 0.86859 0.31372 0.0
O886 O 0.7086 0.82966 0.31285 0.0
C887 C 0.62466 0.81361 0.40286 0.0
C888 C 0.63488 0.82337 0.43683 0.0
C889 C 0.61438 0.79742 0.42942 0.0
C890 C 0.60927 0.79262 0.41256 0.0
C891 C 0.645 0.83965 0.41021 0.0
C892 C 0.64995 0.84454 0.42709 0.0
C893 C 0.62021 0.80748 0.38518 0.0
H894 H 0.73243 0.87952 0.25411 0.0
H895 H 0.744 0.88594 0.28358 0.0
H896 H 0.67024 0.80848 0.28813 0.0
H897 H 0.65875 0.80191 0.25872 0.0
H898 H 0.60237 0.78083 0.43668 0.0
H899 H 0.59359 0.77238 0.40706 0.0
H900 H 0.65735 0.85604 0.4029 0.0
H901 H 0.66608 0.86463 0.43252 0.0
Tb902 Tb 0.18493 0.82829 0.3548 0.0
Eu903 Eu 0.15951 0.83571 0.32004 0.0
C904 C 0.15353 0.77885 0.32829 0.0
C905 C 0.21871 0.84055 0.32406 0.0
C906 C 0.19339 0.82379 0.3987 0.0
C907 C 0.17891 0.80294 0.42381 0.0
C908 C 0.18875 0.80299 0.40868 0.0
C909 C 0.18826 0.84476 0.40415 0.0
C910 C 0.17869 0.84488 0.41935 0.0
C911 C 0.17365 0.82384 0.42934 0.0
C912 C 0.20151 0.82211 0.38224 0.0
O913 O 0.18337 0.86583 0.35843 0.0
O914 O 0.19037 0.87754 0.33262 0.0
O915 O 0.13108 0.83583 0.3381 0.0
O916 O 0.14094 0.81307 0.35709 0.0
C917 C 0.19153 0.8844 0.34811 0.0
O918 O 0.16268 0.86247 0.30131 0.0
O919 O 0.12956 0.82002 0.29857 0.0
O920 O 0.13994 0.79034 0.32251 0.0
O921 O 0.17604 0.79295 0.33831 0.0
O922 O 0.21994 0.8465 0.33983 0.0
O923 O 0.19547 0.83041 0.31466 0.0
C924 C 0.12512 0.82215 0.35098 0.0
O925 O 0.18256 0.80189 0.37223 0.0
O926 O 0.21394 0.84499 0.37539 0.0
C927 C 0.14928 0.84007 0.27487 0.0
C928 C 0.16497 0.83776 0.24329 0.0
C929 C 0.15916 0.85831 0.24873 0.0
C930 C 0.15134 0.85939 0.26435 0.0
C931 C 0.15508 0.81953 0.26956 0.0
C932 C 0.16268 0.81828 0.25389 0.0
C933 C 0.1427 0.84265 0.2916 0.0
H934 H 0.17485 0.78615 0.43101 0.0
H935 H 0.19221 0.78642 0.40461 0.0
H936 H 0.19136 0.86091 0.3966 0.0
H937 H 0.17531 0.86155 0.42327 0.0
H938 H 0.16114 0.87392 0.24103 0.0
H939 H 0.14729 0.87561 0.26831 0.0
H940 H 0.15393 0.80455 0.27754 0.0
H941 H 0.1666 0.80194 0.25007 0.0
Tb942 Tb 0.83361 0.65674 0.65668 0.0
Eu943 Eu 0.84828 0.69312 0.69254 0.0
C944 C 0.86236 0.64576 0.68681 0.0
C945 C 0.79278 0.6346 0.6833 0.0
C946 C 0.82824 0.64314 0.61188 0.0
C947 C 0.83003 0.63476 0.58299 0.0
C948 C 0.82575 0.62551 0.59844 0.0
C949 C 0.8351 0.67026 0.60967 0.0
C950 C 0.83933 0.67954 0.5942 0.0
C951 C 0.83688 0.66191 0.58062 0.0
C952 C 0.82493 0.63343 0.62818 0.0
O953 O 0.81009 0.67805 0.65702 0.0
O954 O 0.8393 0.7163 0.67449 0.0
O955 O 0.88772 0.71082 0.68007 0.0
O956 O 0.8667 0.69817 0.65409 0.0
C957 C 0.81927 0.70371 0.6627 0.0
O958 O 0.83609 0.71226 0.71164 0.0
O959 O 0.87494 0.71277 0.71513 0.0
O960 O 0.85148 0.65607 0.69652 0.0
O961 O 0.86138 0.64763 0.67109 0.0
O962 O 0.80491 0.62784 0.67224 0.0
O963 O 0.80324 0.66014 0.6896 0.0
C964 C 0.88877 0.71283 0.66439 0.0
O965 O 0.84782 0.64261 0.63754 0.0
O966 O 0.80582 0.63437 0.63603 0.0
C967 C 0.84918 0.70586 0.73785 0.0
C968 C 0.83298 0.68409 0.76784 0.0
C969 C 0.83496 0.70925 0.7647 0.0
C970 C 0.84304 0.72004 0.74986 0.0
C971 C 0.84707 0.68066 0.74089 0.0
C972 C 0.83921 0.66997 0.75575 0.0
C973 C 0.85668 0.71684 0.722 0.0
H974 H 0.82843 0.6207 0.57295 0.0
H975 H 0.82079 0.60462 0.59992 0.0
H976 H 0.83729 0.68427 0.61992 0.0
H977 H 0.84427 0.70045 0.59286 0.0
H978 H 0.8305 0.72074 0.77378 0.0
H979 H 0.84435 0.73941 0.74773 0.0
H980 H 0.85128 0.66908 0.73173 0.0
H981 H 0.8375 0.65037 0.75765 0.0
Tb982 Tb 0.35496 0.17173 0.65805 0.0
Eu983 Eu 0.31765 0.15894 0.68898 0.0
C984 C 0.37407 0.21387 0.68904 0.0
C985 C 0.36803 0.14731 0.68798 0.0
C986 C 0.37799 0.18166 0.61639 0.0
C987 C 0.39044 0.20298 0.59129 0.0
C988 C 0.39623 0.20328 0.6079 0.0
C989 C 0.35401 0.15939 0.608 0.0
C990 C 0.34835 0.15894 0.59131 0.0
C991 C 0.36635 0.18092 0.58285 0.0
C992 C 0.38349 0.1839 0.63411 0.0
O993 O 0.32424 0.12761 0.65416 0.0
O994 O 0.29045 0.127 0.6689 0.0
O995 O 0.30693 0.18405 0.67287 0.0
O996 O 0.31752 0.1709 0.6489 0.0
C997 C 0.29855 0.11532 0.65809 0.0
O998 O 0.29017 0.13028 0.70508 0.0
O999 O 0.30132 0.1732 0.7081 0.0
O1000 O 0.35993 0.1938 0.69781 0.0
O1001 O 0.36913 0.21044 0.67317 0.0
O1002 O 0.37848 0.16544 0.67739 0.0
O1003 O 0.34248 0.13754 0.69167 0.0
C1004 C 0.30456 0.18106 0.65691 0.0
O1005 O 0.37784 0.2007 0.64219 0.0
O1006 O 0.37527 0.16114 0.6409 0.0
C1007 C 0.29571 0.15025 0.7317 0.0
C1008 C 0.30778 0.15001 0.76509 0.0
C1009 C 0.28155 0.13084 0.75718 0.0
C1010 C 0.27558 0.13101 0.74062 0.0
C1011 C 0.32193 0.16937 0.7395 0.0
C1012 C 0.32784 0.16937 0.75606 0.0
C1013 C 0.28949 0.14957 0.7142 0.0
H1014 H 0.40477 0.22005 0.58504 0.0
H1015 H 0.41473 0.2207 0.61421 0.0
H1016 H 0.33945 0.14266 0.61437 0.0
H1017 H 0.32951 0.14181 0.58511 0.0
H1018 H 0.26576 0.11543 0.76372 0.0
H1019 H 0.25532 0.11593 0.73474 0.0
H1020 H 0.33787 0.18429 0.7328 0.0
H1021 H 0.34809 0.18472 0.76179 0.0
Tb1022 Tb 0.8547 0.16542 0.68831 0.0
Eu1023 Eu 0.82592 0.17746 0.65651 0.0
C1024 C 0.8214 0.12035 0.65967 0.0
C1025 C 0.88659 0.18426 0.65744 0.0
C1026 C 0.8679 0.15696 0.73098 0.0
C1027 C 0.8621 0.13817 0.75701 0.0
C1028 C 0.86913 0.13848 0.74107 0.0
C1029 C 0.85953 0.17518 0.73703 0.0
C1030 C 0.85272 0.17505 0.75299 0.0
C1031 C 0.85378 0.15645 0.7632 0.0
C1032 C 0.87372 0.15594 0.71394 0.0
O1033 O 0.8731 0.20982 0.68843 0.0
O1034 O 0.83696 0.21192 0.67569 0.0
O1035 O 0.79211 0.15691 0.67317 0.0
O1036 O 0.82012 0.16816 0.697 0.0
C1037 C 0.86003 0.22319 0.68531 0.0
O1038 O 0.82777 0.20513 0.63865 0.0
O1039 O 0.79351 0.16308 0.63645 0.0
O1040 O 0.82819 0.13964 0.64997 0.0
O1041 O 0.82385 0.12607 0.6754 0.0
O1042 O 0.88082 0.16783 0.66908 0.0
O1043 O 0.87119 0.19499 0.65363 0.0
C1044 C 0.79562 0.15911 0.68913 0.0
O1045 O 0.85328 0.13701 0.7041 0.0
O1046 O 0.88591 0.17931 0.70767 0.0
C1047 C 0.81395 0.18128 0.61256 0.0
C1048 C 0.8339 0.17721 0.58251 0.0
C1049 C 0.8298 0.19936 0.5869 0.0
C1050 C 0.81995 0.20137 0.6018 0.0
C1051 C 0.81741 0.15883 0.60803 0.0
C1052 C 0.82708 0.15674 0.59317 0.0
C1053 C 0.80729 0.18529 0.62913 0.0
H1054 H 0.86271 0.12324 0.76438 0.0
H1055 H 0.87515 0.12399 0.73654 0.0
H1056 H 0.8581 0.18943 0.72938 0.0
H1057 H 0.84682 0.1897 0.75736 0.0
H1058 H 0.83509 0.21564 0.57907 0.0
H1059 H 0.81784 0.21906 0.60514 0.0
H1060 H 0.81329 0.14316 0.61616 0.0
H1061 H 0.82946 0.13914 0.5901 0.0
H1062 H 0.36048 0.8655 0.04475 0.0
H1063 H 0.33784 0.92763 0.05418 0.0
H1064 H 0.37769 0.96035 0.04133 0.0
H1065 H 0.41954 0.97182 0.02778 0.0
H1066 H 0.43943 0.90861 0.01581 0.0
H1067 H 0.39934 0.8755 0.02874 0.0
C1068 C 0.36371 0.88594 0.04374 0.0
C1069 C 0.34606 0.89391 0.05076 0.0
C1070 C 0.38614 0.9045 0.03575 0.0
C1071 C 0.35132 0.92088 0.04945 0.0
C1072 C 0.37401 0.93964 0.0419 0.0
C1073 C 0.41494 0.95072 0.02791 0.0
C1074 C 0.43242 0.94264 0.02096 0.0
C1075 C 0.39167 0.93175 0.03513 0.0
C1076 C 0.42614 0.91522 0.02102 0.0
C1077 C 0.40334 0.89636 0.02849 0.0
H1078 H 0.1176 0.44051 0.03712 0.0
H1079 H 0.13308 0.49328 0.08086 0.0
H1080 H 0.09962 0.50564 0.07 0.0
H1081 H 0.06567 0.50109 0.0481 0.0
H1082 H 0.05253 0.45084 1.00354 0.0
H1083 H 0.08539 0.43794 0.01456 0.0
C1084 C 0.11356 0.45471 0.04421 0.0
C1085 C 0.12753 0.46588 0.05977 0.0
C1086 C 0.09477 0.46217 0.03772 0.0
C1087 C 0.1225 0.48449 0.06884 0.0
C1088 C 0.10337 0.4915 0.06265 0.0
C1089 C 0.07 0.4873 0.04082 0.0
C1090 C 0.05654 0.47678 0.02507 0.0
C1091 C 0.08933 0.48042 0.04712 0.0
C1092 C 0.06266 0.45926 0.01568 0.0
C1093 C 0.08138 0.45181 0.022 0.0
H1094 H 0.55492 0.67855 0.0358 0.0
H1095 H 0.60075 0.672 0.07716 0.0
H1096 H 0.5861 0.62474 0.06701 0.0
H1097 H 0.55899 0.58471 0.04686 0.0
H1098 H 0.51155 0.59091 0.00618 0.0
H1099 H 0.5277 0.63865 0.01582 0.0
C1100 C 0.56153 0.66674 0.04269 0.0
C1101 C 0.5789 0.67888 0.05723 0.0
C1102 C 0.5526 0.63941 0.03697 0.0
C1103 C 0.5877 0.66338 0.06581 0.0
C1104 C 0.57915 0.63624 0.06008 0.0
C1105 C 0.55226 0.59652 0.04006 0.0
C1106 C 0.53406 0.58418 0.02583 0.0
C1107 C 0.56146 0.62399 0.04573 0.0
C1108 C 0.52544 0.59979 0.01723 0.0
C1109 C 0.53471 0.62715 0.0227 0.0
H1110 H 0.87756 0.34204 0.94175 0.0
H1111 H 0.89574 0.30026 0.97803 0.0
H1112 H 0.9288 0.34452 0.99329 0.0
H1113 H 0.95178 0.39503 0.99647 0.0
H1114 H 0.93557 0.4369 0.95931 0.0
H1115 H 0.90256 0.39271 0.94415 0.0
C1116 C 0.88883 0.34276 0.953 0.0
C1117 C 0.88423 0.31814 0.9589 0.0
C1118 C 0.90809 0.36822 0.9615 0.0
C1119 C 0.89909 0.3191 0.97333 0.0
C1120 C 0.91789 0.34433 0.98204 0.0
C1121 C 0.94101 0.39444 0.98505 0.0
C1122 C 0.9459 0.41912 0.97907 0.0
C1123 C 0.92244 0.36901 0.97628 0.0
C1124 C 0.93215 0.41814 0.96414 0.0
C1125 C 0.91323 0.3929 0.9555 0.0
H1126 H 0.66686 0.5289 0.97283 0.0
H1127 H 0.64359 0.56266 0.93367 0.0
H1128 H 0.60246 0.55482 0.94652 0.0
H1129 H 0.57265 0.53789 0.96864 0.0
H1130 H 0.59501 0.50289 0.00748 0.0
H1131 H 0.63664 0.51141 0.99487 0.0
C1132 C 0.6527 0.53434 0.96701 0.0
C1133 C 0.65854 0.54649 0.95228 0.0
C1134 C 0.62882 0.52953 0.97441 0.0
C1135 C 0.64001 0.55373 0.94511 0.0
C1136 C 0.61632 0.54908 0.95241 0.0
C1137 C 0.58664 0.53219 0.97443 0.0
C1138 C 0.58061 0.51981 0.98906 0.0
C1139 C 0.61051 0.53701 0.96706 0.0
C1140 C 0.59901 0.51244 0.99624 0.0
C1141 C 0.62288 0.51732 0.98903 0.0
H1142 H 0.47754 0.12952 0.96881 0.0
H1143 H 0.39143 0.06545 0.96501 0.0
H1144 H 0.40467 0.03404 0.97585 0.0
H1145 H 0.44077 0.02462 0.98644 0.0
H1146 H 0.52591 0.09033 0.99321 0.0
H1147 H 0.5128 0.12158 0.98165 0.0
C1148 C 0.46144 0.10895 0.97067 0.0
C1149 C 0.43345 0.10004 0.96591 0.0
C1150 C 0.46904 0.09126 0.97751 0.0
C1151 C 0.4132 0.0729 0.96812 0.0
C1152 C 0.42071 0.0549 0.97449 0.0
C1153 C 0.45636 0.04582 0.98539 0.0
C1154 C 0.48423 0.05525 0.99053 0.0
C1155 C 0.44857 0.06382 0.97914 0.0
C1156 C 0.5043 0.08276 0.98936 0.0
C1157 C 0.49683 0.10056 0.98271 0.0
H1158 H 0.67521 0.12189 0.97634 0.0
H1159 H 0.63734 0.07454 0.9299 0.0
H1160 H 0.59465 0.04587 0.94188 0.0
H1161 H 0.56802 0.034 0.96527 0.0
H1162 H 0.60572 0.07887 0.01224 0.0
H1163 H 0.64886 0.10836 1.00034 0.0
C1164 C 0.65779 0.10509 0.96886 0.0
C1165 C 0.65958 0.1007 0.95214 0.0
C1166 C 0.63331 0.08817 0.97591 0.0
C1167 C 0.63652 0.07895 0.94267 0.0
C1168 C 0.61209 0.06233 0.94954 0.0
C1169 C 0.58562 0.05029 0.97296 0.0
C1170 C 0.58358 0.05441 0.98961 0.0
C1171 C 0.61024 0.06683 0.9661 0.0
C1172 C 0.60675 0.0753 0.99939 0.0
C1173 C 0.63137 0.09217 0.99257 0.0
H1174 H 0.85778 0.52155 0.97102 0.0
H1175 H 0.90912 0.55861 0.9326 0.0
H1176 H 0.94455 0.55014 0.94477 0.0
H1177 H 0.96092 0.53195 0.96626 0.0
H1178 H 0.90904 0.49394 1.00437 0.0
H1179 H 0.87409 0.50322 0.99248 0.0
C1180 C 0.87682 0.52796 0.96539 0.0
C1181 C 0.88076 0.5407 0.95092 0.0
C1182 C 0.89707 0.52287 0.97241 0.0
C1183 C 0.90541 0.54852 0.94365 0.0
C1184 C 0.92576 0.5438 0.95065 0.0
C1185 C 0.94204 0.52582 0.97203 0.0
C1186 C 0.93773 0.51234 0.98624 0.0
C1187 C 0.9218 0.53094 0.96501 0.0
C1188 C 0.91295 0.5043 0.99342 0.0
C1189 C 0.89292 0.50962 0.98663 0.0
H1190 H 0.42736 0.32264 0.9789 0.0
H1191 H 0.48883 0.34876 0.94446 0.0
H1192 H 0.50761 0.39642 0.95506 0.0
H1193 H 0.50647 0.43099 0.97385 0.0
H1194 H 0.4488 0.40502 0.01026 0.0
H1195 H 0.42922 0.35686 0.99946 0.0
C1196 C 0.44518 0.33858 0.97386 0.0
C1197 C 0.45616 0.33184 0.96062 0.0
C1198 C 0.45669 0.36604 0.98042 0.0
C1199 C 0.47916 0.35313 0.95425 0.0
C1200 C 0.49021 0.3805 0.96042 0.0
C1201 C 0.48966 0.41472 0.97942 0.0
C1202 C 0.47886 0.42137 0.99268 0.0
C1203 C 0.47899 0.3872 0.9734 0.0
C1204 C 0.45742 0.40024 1.00002 0.0
C1205 C 0.44618 0.37278 0.99382 0.0
H1206 H 0.10082 0.65511 0.06878 0.0
H1207 H 0.14972 0.6774 0.02802 0.0
H1208 H 0.1175 0.6327 0.01316 0.0
H1209 H 0.07615 0.58703 0.01199 0.0
H1210 H 0.02663 0.56465 0.05253 0.0
H1211 H 0.05844 0.60963 0.06727 0.0
C1212 C 0.10441 0.6501 0.05666 0.0
C1213 C 0.12762 0.66947 0.04951 0.0
C1214 C 0.08576 0.62438 0.04818 0.0
C1215 C 0.13185 0.66292 0.03372 0.0
C1216 C 0.11354 0.63732 0.02525 0.0
C1217 C 0.0723 0.59195 0.02406 0.0
C1218 C 0.04913 0.57245 0.03117 0.0
C1219 C 0.09053 0.61786 0.0324 0.0
C1220 C 0.04428 0.5793 0.04675 0.0
C1221 C 0.0625 0.60499 0.0552 0.0
H1222 H 0.36809 0.45807 0.0721 0.0
H1223 H 0.32167 0.46101 0.02973 0.0
H1224 H 0.36084 0.47257 0.01396 0.0
H1225 H 0.40907 0.48278 0.01216 0.0
H1226 H 0.45587 0.48277 0.05529 0.0
H1227 H 0.41618 0.46982 0.07066 0.0
C1228 C 0.36651 0.46158 0.05948 0.0
C1229 C 0.3416 0.4584 0.05223 0.0
C1230 C 0.38942 0.46893 0.05051 0.0
C1231 C 0.34017 0.46263 0.0357 0.0
C1232 C 0.36274 0.46952 0.02664 0.0
C1233 C 0.41053 0.4799 0.02491 0.0
C1234 C 0.43555 0.48383 0.03248 0.0
C1235 C 0.38754 0.47275 0.03389 0.0
C1236 C 0.43704 0.48013 0.04907 0.0
C1237 C 0.41426 0.47262 0.05793 0.0
H1238 H 0.56022 0.87937 0.03175 0.0
H1239 H 0.5799 0.92483 0.07903 0.0
H1240 H 0.56429 0.9546 0.06847 0.0
H1241 H 0.54463 0.96747 0.04617 0.0
H1242 H 0.52656 0.92422 0.99841 0.0
H1243 H 0.54258 0.89418 0.00874 0.0
C1244 C 0.56141 0.896 0.03969 0.0
C1245 C 0.57084 0.89951 0.05624 0.0
C1246 C 0.55276 0.91345 0.03347 0.0
C1247 C 0.57209 0.92113 0.06636 0.0
C1248 C 0.56336 0.93834 0.06031 0.0
C1249 C 0.54406 0.95141 0.03799 0.0
C1250 C 0.53412 0.94785 0.02159 0.0
C1251 C 0.55344 0.93452 0.04396 0.0
C1252 C 0.53408 0.92732 0.0111 0.0
C1253 C 0.54318 0.91013 0.01702 0.0
H1254 H 0.02234 0.2008 0.37953 0.0
H1255 H 1.00136 0.2646 0.38683 0.0
H1256 H 0.04097 0.2954 0.37313 0.0
H1257 H 0.08217 0.30477 0.35934 0.0
H1258 H 0.09993 0.23956 0.34923 0.0
H1259 H 0.06017 0.20841 0.36316 0.0
C1260 C 0.0258 0.22115 0.37788 0.0
C1261 C 0.00868 0.23015 0.38458 0.0
C1262 C 0.04801 0.23854 0.3693 0.0
C1263 C 0.01439 0.25704 0.3824 0.0
C1264 C 0.03695 0.27472 0.37434 0.0
C1265 C 0.07713 0.28364 0.36008 0.0
C1266 C 0.09393 0.27444 0.35335 0.0
C1267 C 0.05401 0.26576 0.36785 0.0
C1268 C 0.08713 0.24701 0.35422 0.0
C1269 C 0.06454 0.22928 0.36229 0.0
H1270 H 0.78218 0.79849 0.4105 0.0
H1271 H 0.82412 0.80427 0.3676 0.0
H1272 H 0.7917 0.81366 0.35224 0.0
H1273 H 0.75111 0.81999 0.35095 0.0
H1274 H 0.71015 0.8153 0.39424 0.0
H1275 H 0.74232 0.80567 0.40937 0.0
C1276 C 0.7841 0.80164 0.39776 0.0
C1277 C 0.80549 0.80059 0.39021 0.0
C1278 C 0.76554 0.80726 0.38904 0.0
C1279 C 0.80797 0.80516 0.37375 0.0
C1280 C 0.78937 0.81043 0.36493 0.0
C1281 C 0.7492 0.81684 0.36369 0.0
C1282 C 0.72812 0.81835 0.37138 0.0
C1283 C 0.76803 0.81152 0.37244 0.0
C1284 C 0.72616 0.81438 0.38795 0.0
C1285 C 0.74455 0.80879 0.39665 0.0
H1286 H 0.24599 0.01255 0.36535 0.0
H1287 H 0.19658 0.98484 0.4056 0.0
H1288 H 0.17952 0.93687 0.39546 0.0
H1289 H 0.17909 0.90302 0.37531 0.0
H1290 H 0.22634 0.93042 0.33412 0.0
H1291 H 0.24385 0.9784 0.3444 0.0
C1292 C 0.23149 0.99591 0.37184 0.0
C1293 C 0.22257 0.00198 0.38618 0.0
C1294 C 0.22145 0.96847 0.36578 0.0
C1295 C 0.20357 0.98046 0.39448 0.0
C1296 C 0.19391 0.95313 0.38872 0.0
C1297 C 0.19327 0.91952 0.36861 0.0
C1298 C 0.20161 0.91329 0.35406 0.0
C1299 C 0.20279 0.94692 0.37442 0.0
C1300 C 0.21963 0.93478 0.34535 0.0
C1301 C 0.22968 0.96217 0.35124 0.0
H1302 H 0.567 0.65275 0.3084 0.0
H1303 H 0.54052 0.68391 0.26932 0.0
H1304 H 0.57369 0.73128 0.28058 0.0
H1305 H 0.60917 0.76366 0.30207 0.0
H1306 H 0.63278 0.73226 0.34231 0.0
H1307 H 0.60197 0.6851 0.33007 0.0
C1308 C 0.56872 0.67 0.30235 0.0
C1309 C 0.55161 0.66511 0.28808 0.0
C1310 C 0.58727 0.69702 0.3091 0.0
C1311 C 0.55355 0.68741 0.28037 0.0
C1312 C 0.5725 0.71439 0.28678 0.0
C1313 C 0.60772 0.74646 0.30804 0.0
C1314 C 0.62325 0.7513 0.32299 0.0
C1315 C 0.58934 0.71943 0.30119 0.0
C1316 C 0.62093 0.72893 0.33079 0.0
C1317 C 0.60335 0.70201 0.32381 0.0
H1318 H 0.30941 0.84388 0.28074 0.0
H1319 H 0.36122 0.91929 0.31149 0.0
H1320 H 0.32211 0.91075 0.32696 0.0
H1321 H 0.27249 0.88211 0.33134 0.0
H1322 H 0.22052 0.80837 0.29922 0.0
H1323 H 0.26022 0.81571 0.28489 0.0
C1324 C 0.31216 0.85833 0.2909 0.0
C1325 C 0.3382 0.88214 0.29497 0.0
C1326 C 0.28948 0.85351 0.29955 0.0
C1327 C 0.34134 0.9009 0.30803 0.0
C1328 C 0.319 0.89596 0.31693 0.0
C1329 C 0.27002 0.86755 0.32133 0.0
C1330 C 0.24365 0.84465 0.31641 0.0
C1331 C 0.2929 0.87236 0.31277 0.0
C1332 C 0.24061 0.82618 0.30322 0.0
C1333 C 0.2633 0.83036 0.29501 0.0
H1334 H 0.13298 0.45824 0.30546 0.0
H1335 H 0.04888 0.38997 0.29743 0.0
H1336 H 0.06415 0.35924 0.30703 0.0
H1337 H 0.10153 0.35157 0.31738 0.0
H1338 H 0.18458 0.42063 0.32772 0.0
H1339 H 0.16935 0.45144 0.31792 0.0
C1340 C 0.11775 0.4368 0.30612 0.0
C1341 C 0.08977 0.42656 0.30057 0.0
C1342 C 0.1265 0.41936 0.31208 0.0
C1343 C 0.07064 0.39846 0.30126 0.0
C1344 C 0.07931 0.38085 0.30686 0.0
C1345 C 0.11624 0.37338 0.31748 0.0
C1346 C 0.14414 0.38387 0.32311 0.0
C1347 C 0.10722 0.39103 0.31216 0.0
C1348 C 0.16297 0.41217 0.32344 0.0
C1349 C 0.1543 0.42974 0.31781 0.0
H1350 H 0.31373 0.41368 0.28037 0.0
H1351 H 0.35581 0.47251 0.32241 0.0
H1352 H 0.31605 0.44668 0.33765 0.0
H1353 H 0.26793 0.40824 0.33861 0.0
H1354 H 0.22562 0.35216 0.2955 0.0
H1355 H 0.26653 0.37627 0.28114 0.0
C1356 C 0.31419 0.42114 0.2928 0.0
C1357 C 0.33781 0.44515 0.30012 0.0
C1358 C 0.29102 0.40667 0.30135 0.0
C1359 C 0.33812 0.45393 0.31644 0.0
C1360 C 0.31526 0.43927 0.32516 0.0
C1361 C 0.26785 0.40129 0.32612 0.0
C1362 C 0.24374 0.37855 0.31813 0.0
C1363 C 0.29144 0.4157 0.3177 0.0
C1364 C 0.24381 0.3698 0.3019 0.0
C1365 C 0.26723 0.38353 0.29365 0.0
H1366 H 0.53128 0.85413 0.30434 0.0
H1367 H 0.58636 0.8965 0.26847 0.0
H1368 H 0.62096 0.88684 0.28077 0.0
H1369 H 0.63588 0.86685 0.30215 0.0
H1370 H 0.57968 0.82371 0.33751 0.0
H1371 H 0.54549 0.8333 0.32507 0.0
C1372 C 0.55093 0.86139 0.29927 0.0
C1373 C 0.55627 0.87616 0.28557 0.0
C1374 C 0.57062 0.85564 0.30634 0.0
C1375 C 0.58165 0.88496 0.27897 0.0
C1376 C 0.6015 0.87955 0.28604 0.0
C1377 C 0.61616 0.85956 0.30712 0.0
C1378 C 0.61052 0.84463 0.3208 0.0
C1379 C 0.59627 0.86497 0.29979 0.0
C1380 C 0.5847 0.83518 0.32699 0.0
C1381 C 0.56506 0.8407 0.31989 0.0
H1382 H 0.13595 0.66284 0.3039 0.0
H1383 H 0.05184 0.64478 0.2943 0.0
H1384 H 0.06533 0.69159 0.30535 0.0
H1385 H 0.1017 0.73822 0.3167 0.0
H1386 H 0.18541 0.75517 0.32721 0.0
H1387 H 0.17149 0.70822 0.31682 0.0
C1388 C 0.12062 0.66922 0.30432 0.0
C1389 C 0.09307 0.6507 0.29823 0.0
C1390 C 0.12849 0.69592 0.31076 0.0
C1391 C 0.07318 0.65884 0.29898 0.0
C1392 C 0.08092 0.68556 0.30521 0.0
C1393 C 0.11683 0.73156 0.31672 0.0
C1394 C 0.14455 0.75012 0.32259 0.0
C1395 C 0.1086 0.70438 0.31094 0.0
C1396 C 0.16392 0.74121 0.32277 0.0
C1397 C 0.15602 0.7144 0.31681 0.0
H1398 H 0.76198 0.00458 0.3941 0.0
H1399 H 0.8332 0.99616 0.38726 0.0
H1400 H 0.80324 0.94959 0.37381 0.0
H1401 H 0.7569 0.91134 0.3642 0.0
H1402 H 0.68514 0.9182 0.37256 0.0
H1403 H 0.7151 0.96527 0.3853 0.0
C1404 C 0.77078 0.99245 0.38959 0.0
C1405 C 0.79961 0.00359 0.39151 0.0
C1406 C 0.75338 0.9655 0.38223 0.0
C1407 C 0.81099 0.9878 0.38587 0.0
C1408 C 0.79391 0.96127 0.37819 0.0
C1409 C 0.74781 0.92318 0.36875 0.0
C1410 C 0.71889 0.91143 0.36733 0.0
C1411 C 0.7651 0.94992 0.37632 0.0
C1412 C 0.70738 0.92682 0.37353 0.0
C1413 C 0.72448 0.95373 0.38078 0.0
H1414 H 0.01331 0.80673 0.3751 0.0
H1415 H 0.03966 0.77825 0.41577 0.0
H1416 H 0.08115 0.78673 0.403 0.0
H1417 H 0.10988 0.8019 0.38016 0.0
H1418 H 0.08343 0.83051 0.33955 0.0
H1419 H 0.04204 0.822 0.35234 0.0
C1420 C 0.02797 0.80211 0.38111 0.0
C1421 C 0.02322 0.79179 0.39639 0.0
C1422 C 0.05182 0.807 0.37368 0.0
C1423 C 0.04282 0.78645 0.4041 0.0
C1424 C 0.06652 0.79116 0.39676 0.0
C1425 C 0.09503 0.80618 0.37405 0.0
C1426 C 0.09984 0.81675 0.35884 0.0
C1427 C 0.07123 0.80139 0.38154 0.0
C1428 C 0.0804 0.82239 0.35124 0.0
C1429 C 0.05664 0.81751 0.35855 0.0
H1430 H 0.24686 0.23162 0.36596 0.0
H1431 H 0.19706 0.21614 0.40632 0.0
H1432 H 0.17647 0.24133 0.39504 0.0
H1433 H 0.17269 0.26803 0.37399 0.0
H1434 H 0.21973 0.28115 0.33263 0.0
H1435 H 0.24048 0.25558 0.34376 0.0
C1436 C 0.23121 0.23332 0.37221 0.0
C1437 C 0.22394 0.2222 0.38715 0.0
C1438 C 0.21871 0.24717 0.3654 0.0
C1439 C 0.2038 0.22508 0.39508 0.0
C1440 C 0.1917 0.23924 0.38854 0.0
C1441 C 0.18739 0.26519 0.36735 0.0
C1442 C 0.19482 0.2766 0.35256 0.0
C1443 C 0.19909 0.25046 0.37377 0.0
C1444 C 0.21361 0.27247 0.34401 0.0
C1445 C 0.2256 0.25801 0.35043 0.0
H1446 H 0.69947 0.53692 0.7162 0.0
H1447 H 0.67108 0.59532 0.72178 0.0
H1448 H 0.70937 0.62782 0.70788 0.0
H1449 H 0.75153 0.64042 0.69461 0.0
H1450 H 0.77788 0.58108 0.68662 0.0
H1451 H 0.73904 0.54779 0.7004 0.0
C1452 C 0.70119 0.55649 0.71417 0.0
C1453 C 0.68237 0.56357 0.72046 0.0
C1454 C 0.72281 0.57491 0.70556 0.0
C1455 C 0.68555 0.58938 0.71771 0.0
C1456 C 0.70733 0.60798 0.70954 0.0
C1457 C 0.74863 0.62009 0.69577 0.0
C1458 C 0.76759 0.61323 0.68971 0.0
C1459 C 0.7262 0.60108 0.70354 0.0
C1460 C 0.76344 0.58676 0.69111 0.0
C1461 C 0.74136 0.56783 0.69909 0.0
H1462 H 0.4301 0.09462 0.72364 0.0
H1463 H 0.49839 0.17803 0.72469 0.0
H1464 H 0.46847 0.19094 0.71017 0.0
H1465 H 0.42292 0.17896 0.69712 0.0
H1466 H 0.3534 0.09733 0.69857 0.0
H1467 H 0.38363 0.08358 0.71251 0.0
C1468 C 0.43848 0.11576 0.72098 0.0
C1469 C 0.46685 0.13507 0.72511 0.0
C1470 C 0.42086 0.12345 0.71306 0.0
C1471 C 0.47703 0.1623 0.72128 0.0
C1472 C 0.45981 0.16989 0.71308 0.0
C1473 C 0.41444 0.15813 0.70044 0.0
C1474 C 0.38609 0.13906 0.69665 0.0
C1475 C 0.43177 0.15062 0.70881 0.0
C1476 C 0.37521 0.11233 0.70133 0.0
C1477 C 0.39249 0.10447 0.70927 0.0
H1478 H 0.93078 0.34717 0.71389 0.0
H1479 H 0.84917 0.33698 0.71524 0.0
H1480 H 0.82843 0.28973 0.70302 0.0
H1481 H 0.83332 0.25084 0.69246 0.0
H1482 H 0.91459 0.25989 0.69361 0.0
H1483 H 0.93554 0.30788 0.70477 0.0
C1484 C 0.90843 0.33458 0.71179 0.0
C1485 C 0.89168 0.34585 0.71546 0.0
C1486 C 0.89653 0.30712 0.70527 0.0
C1487 C 0.86273 0.32919 0.71226 0.0
C1488 C 0.85077 0.30202 0.70539 0.0
C1489 C 0.85561 0.2634 0.69512 0.0
C1490 C 0.87243 0.252 0.69217 0.0
C1491 C 0.86747 0.29077 0.70186 0.0
C1492 C 0.90124 0.26826 0.69585 0.0
C1493 C 0.91323 0.29569 0.70219 0.0
H1494 H 0.19772 0.99703 0.63512 0.0
H1495 H 0.2522 0.00015 0.59946 0.0
H1496 H 0.28772 0.04606 0.61151 0.0
H1497 H 0.30307 0.08573 0.63213 0.0
H1498 H 0.24712 0.08201 0.66707 0.0
H1499 H 0.21242 0.03628 0.65514 0.0
C1500 C 0.2172 0.00784 0.62982 0.0
C1501 C 0.22218 0.99514 0.61637 0.0
C1502 C 0.23735 0.03426 0.63667 0.0
C1503 C 0.24788 0.0093 0.60993 0.0
C1504 C 0.26816 0.03563 0.61675 0.0
C1505 C 0.28331 0.07488 0.63713 0.0
C1506 C 0.27782 0.08743 0.65047 0.0
C1507 C 0.26313 0.04836 0.63014 0.0
C1508 C 0.252 0.07306 0.65676 0.0
C1509 C 0.23205 0.04678 0.64997 0.0
H1510 H 0.97789 0.21836 0.6082 0.0
H1511 H 0.01156 0.18623 0.643 0.0
H1512 H 0.97276 0.17469 0.65917 0.0
H1513 H 0.92933 0.17434 0.66374 0.0
H1514 H 0.89701 0.20804 0.62913 0.0
H1515 H 0.93525 0.21859 0.61287 0.0
C1516 C 0.97696 0.20909 0.6194 0.0
C1517 C 0.99772 0.20317 0.62428 0.0
C1518 C 0.95476 0.20282 0.62879 0.0
C1519 C 0.99574 0.19067 0.63874 0.0
C1520 C 0.9736 0.18422 0.64809 0.0
C1521 C 0.93067 0.18399 0.65265 0.0
C1522 C 0.91029 0.19047 0.64779 0.0
C1523 C 0.95297 0.19023 0.64326 0.0
C1524 C 0.91243 0.20299 0.63333 0.0
C1525 C 0.93431 0.20901 0.62394 0.0
H1526 H 0.74497 0.74834 0.63409 0.0
H1527 H 0.82514 0.82167 0.63426 0.0
H1528 H 0.84723 0.79855 0.64664 0.0
H1529 H 0.84404 0.75707 0.65686 0.0
H1530 H 0.7647 0.6824 0.6535 0.0
H1531 H 0.74209 0.7063 0.64247 0.0
C1532 C 0.76733 0.75925 0.63651 0.0
C1533 C 0.78319 0.78688 0.63327 0.0
C1534 C 0.7801 0.74552 0.64301 0.0
C1535 C 0.81215 0.80065 0.63693 0.0
C1536 C 0.82492 0.78736 0.64388 0.0
C1537 C 0.8218 0.74617 0.65375 0.0
C1538 C 0.80593 0.71821 0.65605 0.0
C1539 C 0.8091 0.75981 0.64696 0.0
C1540 C 0.77723 0.704 0.65176 0.0
C1541 C 0.76433 0.71764 0.64551 0.0
H1542 H 0.0096 0.78012 0.64314 0.0
H1543 H 0.96397 0.78466 0.60083 0.0
H1544 H 0.92088 0.75878 0.61303 0.0
H1545 H 0.8958 0.73416 0.63544 0.0
H1546 H 0.9413 0.73253 0.67862 0.0
H1547 H 0.98487 0.75895 0.66655 0.0
C1548 C 0.99039 0.776 0.63663 0.0
C1549 C 0.99036 0.78419 0.62089 0.0
C1550 C 0.96557 0.76179 0.64394 0.0
C1551 C 0.96489 0.77806 0.61271 0.0
C1552 C 0.94013 0.76347 0.61977 0.0
C1553 C 0.91527 0.73975 0.64227 0.0
C1554 C 0.9153 0.73128 0.65788 0.0
C1555 C 0.9402 0.75507 0.63531 0.0
C1556 C 0.94071 0.73891 0.66662 0.0
C1557 C 0.96561 0.75387 0.65967 0.0
H1558 H 0.21973 0.19175 0.60916 0.0
H1559 H 0.23497 0.25597 0.64641 0.0
H1560 H 0.26618 0.2459 0.66226 0.0
H1561 H 0.28942 0.2188 0.66564 0.0
H1562 H 0.27708 0.15761 0.62719 0.0
H1563 H 0.24506 0.16704 0.61163 0.0
C1564 C 0.2302 0.20399 0.62059 0.0
C1565 C 0.22461 0.22449 0.62653 0.0
C1566 C 0.24878 0.19864 0.62949 0.0
C1567 C 0.23819 0.23962 0.64159 0.0
C1568 C 0.25629 0.23403 0.65066 0.0
C1569 C 0.27967 0.20755 0.65386 0.0
C1570 C 0.28552 0.18747 0.64762 0.0
C1571 C 0.26164 0.21349 0.64477 0.0
C1572 C 0.27301 0.17326 0.63225 0.0
C1573 C 0.25463 0.17859 0.62335 0.0
H1574 H 0.78292 0.00678 0.62014 0.0
H1575 H 0.73041 0.97719 0.65909 0.0
H1576 H 0.75169 0.02416 0.67216 0.0
H1577 H 0.78424 0.07389 0.672 0.0
H1578 H 0.83303 0.10316 0.63156 0.0
H1579 H 0.81362 0.05592 0.61936 0.0
C1580 C 0.77562 0.01051 0.63132 0.0
C1581 C 0.75487 0.98838 0.63851 0.0
C1582 C 0.78727 0.03752 0.63848 0.0
C1583 C 0.7465 0.99372 0.65332 0.0
C1584 C 0.75854 0.02061 0.66076 0.0
C1585 C 0.79069 0.06981 0.66057 0.0
C1586 C 0.81007 0.09179 0.65269 0.0
C1587 C 0.77887 0.04267 0.65341 0.0
C1588 C 0.81805 0.08646 0.63779 0.0
C1589 C 0.80701 0.05951 0.63083 0.0
H1590 H 0.46894 0.31687 0.73254 0.0
H1591 H 0.44748 0.35945 0.69814 0.0
H1592 H 0.41388 0.31559 0.68313 0.0
H1593 H 0.38924 0.2648 0.68019 0.0
H1594 H 0.40725 0.22266 0.71638 0.0
H1595 H 0.44301 0.26669 0.73047 0.0
C1596 C 0.45666 0.31675 0.72194 0.0
C1597 C 0.46101 0.34173 0.71658 0.0
C1598 C 0.43656 0.29141 0.71368 0.0
C1599 C 0.44519 0.34077 0.70248 0.0
C1600 C 0.42569 0.31561 0.69393 0.0
C1601 C 0.40113 0.26536 0.69113 0.0
C1602 C 0.39576 0.24064 0.69724 0.0
C1603 C 0.42112 0.29079 0.69944 0.0
C1604 C 0.41098 0.24151 0.71151 0.0
C1605 C 0.43144 0.26664 0.71955 0.0
H1606 H 0.7056 0.12536 0.73931 0.0
H1607 H 0.65645 0.12421 0.69698 0.0
H1608 H 0.69528 0.13656 0.68084 0.0
H1609 H 0.74363 0.14847 0.67866 0.0
H1610 H 0.79343 0.15216 0.7214 0.0
H1611 H 0.75423 0.13873 0.73738 0.0
C1612 C 0.70336 0.12809 0.72661 0.0
C1613 C 0.6778 0.12356 0.71947 0.0
C1614 C 0.72607 0.13586 0.7174 0.0
C1615 C 0.67549 0.12687 0.70285 0.0
C1616 C 0.69785 0.13422 0.69358 0.0
C1617 C 0.74593 0.14634 0.69146 0.0
C1618 C 0.77155 0.15135 0.69874 0.0
C1619 C 0.72326 0.13879 0.70071 0.0
C1620 C 0.77407 0.14858 0.71541 0.0
C1621 C 0.75159 0.14081 0.7246 0.0
H1622 H 0.92512 0.60198 0.72955 0.0
H1623 H 0.90676 0.54809 0.68575 0.0
H1624 H 0.88687 0.5721 0.67179 0.0
H1625 H 0.87156 0.60639 0.67267 0.0
H1626 H 0.88651 0.65684 0.71752 0.0
H1627 H 0.91014 0.63566 0.7305 0.0
C1628 C 0.91656 0.59524 0.71699 0.0
C1629 C 0.91724 0.57306 0.70881 0.0
C1630 C 0.90419 0.60834 0.70925 0.0
C1631 C 0.9068 0.56526 0.69236 0.0
C1632 C 0.89514 0.5788 0.68439 0.0
C1633 C 0.88014 0.61277 0.68525 0.0
C1634 C 0.87712 0.63296 0.69415 0.0
C1635 C 0.89328 0.60007 0.69281 0.0
C1636 C 0.88823 0.64105 0.71046 0.0
C1637 C 0.90187 0.62906 0.71789 0.0
H1638 H 0.46 0.92997 0.15908 0.0
H1639 H 0.50258 0.0101 0.18626 0.0
H1640 H 0.51545 0.0319 0.16112 0.0
H1641 H 0.51618 0.0282 0.13145 0.0
H1642 H 0.47257 0.94797 0.10427 0.0
H1643 H 0.45921 0.92636 0.12934 0.0
C1644 C 0.47218 0.95221 0.15951 0.0
C1645 C 0.48034 0.96832 0.17459 0.0
C1646 C 0.4796 0.96465 0.14499 0.0
C1647 C 0.49575 0.99715 0.17486 0.0
C1648 C 0.50329 0.00965 0.16047 0.0
C1649 C 0.50346 0.00601 0.13094 0.0
C1650 C 0.4957 0.98985 0.11587 0.0
C1651 C 0.49547 0.99361 0.14546 0.0
C1652 C 0.47945 0.96104 0.11563 0.0
C1653 C 0.47157 0.9486 0.12999 0.0
H1654 H 0.98829 0.48162 0.17505 0.0
H1655 H 0.07383 0.51416 0.16633 0.0
H1656 H 0.06128 0.50885 0.13708 0.0
H1657 H 0.02592 0.49471 0.11408 0.0
H1658 H 0.94056 0.46355 0.12298 0.0
H1659 H 0.95305 0.46804 0.15209 0.0
C1660 C 1.00412 0.48728 0.16671 0.0
C1661 C 0.03189 0.49813 0.17278 0.0
C1662 C 0.99679 0.48436 0.14999 0.0
C1663 C 0.05231 0.50588 0.16191 0.0
C1664 C 0.04514 0.50279 0.14521 0.0
C1665 C 0.01009 0.48919 0.12239 0.0
C1666 C 0.98234 0.47877 0.11634 0.0
C1667 C 0.01745 0.49214 0.13913 0.0
C1668 C 0.96201 0.47126 0.12728 0.0
C1669 C 0.96915 0.47397 0.14394 0.0
H1670 H 0.50721 0.53547 0.17416 0.0
H1671 H 0.44061 0.45108 0.16935 0.0
H1672 H 0.45003 0.44512 0.14135 0.0
H1673 H 0.47788 0.46384 0.11842 0.0
H1674 H 0.54395 0.54852 0.12332 0.0
H1675 H 0.53407 0.55448 0.15112 0.0
C1676 C 0.49487 0.51573 0.167 0.0
C1677 C 0.47342 0.49366 0.17384 0.0
C1678 C 0.50031 0.51254 0.15095 0.0
C1679 C 0.45719 0.46837 0.16433 0.0
C1680 C 0.46265 0.46494 0.14836 0.0
C1681 C 0.49017 0.48354 0.12562 0.0
C1682 C 0.51171 0.50568 0.11886 0.0
C1683 C 0.48426 0.48685 0.14158 0.0
C1684 C 0.52716 0.53123 0.12822 0.0
C1685 C 0.5216 0.53461 0.14413 0.0
H1686 H 0.96352 0.50809 0.84406 0.0
H1687 H 0.04329 0.52074 0.83307 0.0
H1688 H 0.05746 0.52529 0.86196 0.0
H1689 H 0.04672 0.52431 0.89022 0.0
H1690 H 0.9678 0.51391 0.90129 0.0
H1691 H 0.95384 0.50992 0.87242 0.0
C1692 C 0.98418 0.5123 0.84797 0.0
C1693 C 1.00225 0.51395 0.83638 0.0
C1694 C 0.9923 0.51514 0.86459 0.0
C1695 C 0.02878 0.51893 0.8417 0.0
C1696 C 0.03697 0.52169 0.85822 0.0
C1697 C 0.02663 0.52162 0.88636 0.0
C1698 C 0.00832 0.5193 0.89794 0.0
C1699 C 0.01883 0.51963 0.86976 0.0
C1700 C 0.98216 0.51532 0.89265 0.0
C1701 C 0.9742 0.5132 0.87614 0.0
H1702 H 0.5542 0.47983 0.85465 0.0
H1703 H 0.51641 0.52185 0.8324 0.0
H1704 H 0.50049 0.52806 0.85832 0.0
H1705 H 0.49553 0.51976 0.88703 0.0
H1706 H 0.53447 0.47877 0.9094 0.0
H1707 H 0.55102 0.47337 0.88365 0.0
C1708 C 0.54243 0.4903 0.85547 0.0
C1709 C 0.53647 0.50029 0.84158 0.0
C1710 C 0.53324 0.49372 0.87041 0.0
C1711 C 0.52156 0.5142 0.84293 0.0
C1712 C 0.51227 0.51759 0.85773 0.0
C1713 C 0.50793 0.50995 0.88636 0.0
C1714 C 0.51341 0.49945 0.9002 0.0
C1715 C 0.5178 0.50724 0.87153 0.0
C1716 C 0.52929 0.48651 0.89894 0.0
C1717 C 0.53901 0.4836 0.88422 0.0
H1718 H 0.50693 0.05435 0.84766 0.0
H1719 H 0.5745 0.03892 0.84331 0.0
H1720 H 0.56686 0.01955 0.86937 0.0
H1721 H 0.54054 0.00631 0.8933 0.0
H1722 H 0.47302 0.0218 0.89767 0.0
H1723 H 0.48108 0.04177 0.87179 0.0
C1724 C 0.51989 0.04662 0.85237 0.0
C1725 C 0.54124 0.04808 0.84347 0.0
C1726 C 0.51539 0.03549 0.86741 0.0
C1727 C 0.55811 0.03834 0.84993 0.0
C1728 C 0.55365 0.0271 0.86481 0.0
C1729 C 0.52748 0.01391 0.88854 0.0
C1730 C 0.50613 0.01244 0.89743 0.0
C1731 C 0.53228 0.02546 0.87363 0.0
C1732 C 0.48973 0.02285 0.89119 0.0
C1733 C 0.49425 0.03416 0.87633 0.0
H1734 H 0.17814 0.2933 0.50128 0.0
H1735 H 0.10322 0.29743 0.50169 0.0
H1736 H 0.11045 0.31525 0.47524 0.0
H1737 H 0.13756 0.32896 0.45159 0.0
H1738 H 0.21123 0.32281 0.45076 0.0
H1739 H 0.20451 0.30586 0.4775 0.0
C1740 C 0.16313 0.29773 0.49555 0.0
C1741 C 0.14018 0.294 0.50366 0.0
C1742 C 0.1671 0.30752 0.48014 0.0
C1743 C 0.12136 0.30048 0.49601 0.0
C1744 C 0.12535 0.3105 0.48077 0.0
C1745 C 0.15222 0.32406 0.45731 0.0
C1746 C 0.17487 0.32716 0.44914 0.0
C1747 C 0.14814 0.31411 0.4727 0.0
C1748 C 0.19347 0.32036 0.45667 0.0
C1749 C 0.18971 0.31078 0.47201 0.0
H1750 H 0.66383 0.86055 0.51183 0.0
H1751 H 0.66844 0.78627 0.51092 0.0
H1752 H 0.65458 0.77695 0.4818 0.0
H1753 H 0.64319 0.79094 0.4564 0.0
H1754 H 0.64107 0.86641 0.45706 0.0
H1755 H 0.6527 0.87464 0.48649 0.0
C1756 C 0.66206 0.84244 0.50526 0.0
C1757 C 0.66723 0.82418 0.51359 0.0
C1758 C 0.65476 0.83754 0.48847 0.0
C1759 C 0.66422 0.8005 0.5049 0.0
C1760 C 0.65653 0.79525 0.48821 0.0
C1761 C 0.645 0.80903 0.46304 0.0
C1762 C 0.64122 0.82801 0.45466 0.0
C1763 C 0.65195 0.81374 0.47987 0.0
C1764 C 0.64407 0.85162 0.4633 0.0
C1765 C 0.65061 0.85627 0.48009 0.0
H1766 H 0.12076 0.83436 0.49291 0.0
H1767 H 0.17036 0.8021 0.51273 0.0
H1768 H 0.18585 0.79956 0.48609 0.0
H1769 H 0.18708 0.80856 0.45752 0.0
H1770 H 0.13554 0.83849 0.43736 0.0
H1771 H 0.11921 0.83997 0.46383 0.0
C1772 C 0.13452 0.82625 0.49137 0.0
C1773 C 0.14448 0.81861 0.50488 0.0
C1774 C 0.1433 0.82474 0.47599 0.0
C1775 C 0.16269 0.80856 0.50263 0.0
C1776 C 0.17151 0.80701 0.48738 0.0
C1777 C 0.17194 0.815 0.4588 0.0
C1778 C 0.16284 0.82365 0.4454 0.0
C1779 C 0.16224 0.8154 0.47402 0.0
C1780 C 0.14348 0.8323 0.44747 0.0
C1781 C 0.1339 0.83294 0.4626 0.0
H1782 H 0.66002 0.80413 0.17916 0.0
H1783 H 0.67401 0.88668 0.18014 0.0
H1784 H 0.68758 0.89431 0.20937 0.0
H1785 H 0.6945 0.87707 0.23472 0.0
H1786 H 0.67925 0.79405 0.23379 0.0
H1787 H 0.66709 0.78696 0.20445 0.0
C1788 C 0.66634 0.82387 0.18577 0.0
C1789 C 0.66616 0.84486 0.17755 0.0
C1790 C 0.67373 0.82794 0.20256 0.0
C1791 C 0.67389 0.87019 0.18627 0.0
C1792 C 0.68168 0.87456 0.20294 0.0
C1793 C 0.68874 0.85753 0.22804 0.0
C1794 C 0.68779 0.83612 0.23636 0.0
C1795 C 0.68154 0.85353 0.21122 0.0
C1796 C 0.67989 0.81075 0.22764 0.0
C1797 C 0.67306 0.80672 0.21088 0.0
H1798 H 0.18607 0.83637 0.16915 0.0
H1799 H 0.24243 0.81099 0.18754 0.0
H1800 H 0.23057 0.81506 0.21513 0.0
H1801 H 0.20363 0.8251 0.23389 0.0
H1802 H 0.14532 0.84803 0.21517 0.0
H1803 H 0.15896 0.84624 0.18793 0.0
C1804 C 0.19597 0.83206 0.17924 0.0
C1805 C 0.21515 0.82349 0.17636 0.0
C1806 C 0.18873 0.83401 0.195 0.0
C1807 C 0.22751 0.8175 0.18948 0.0
C1808 C 0.22076 0.81985 0.20524 0.0
C1809 C 0.19365 0.82943 0.22385 0.0
C1810 C 0.17343 0.83669 0.22666 0.0
C1811 C 0.2012 0.82784 0.20812 0.0
C1812 C 0.16121 0.84277 0.21348 0.0
C1813 C 0.16886 0.84157 0.19784 0.0
H1814 H 0.22382 0.36644 0.17842 0.0
H1815 H 0.15579 0.38172 0.17297 0.0
H1816 H 0.14172 0.36526 0.19929 0.0
H1817 H 0.14789 0.34539 0.2237 0.0
H1818 H 0.21547 0.32945 0.22914 0.0
H1819 H 0.23047 0.34722 0.20316 0.0
C1820 C 0.20606 0.36637 0.18306 0.0
C1821 C 0.19082 0.37519 0.17363 0.0
C1822 C 0.19788 0.35662 0.19824 0.0
C1823 C 0.16769 0.3747 0.17982 0.0
C1824 C 0.15967 0.36539 0.19493 0.0
C1825 C 0.16605 0.34604 0.21927 0.0
C1826 C 0.18044 0.33598 0.22839 0.0
C1827 C 0.17448 0.35611 0.20422 0.0
C1828 C 0.20376 0.3367 0.22232 0.0
C1829 C 0.21245 0.34699 0.20747 0.0
H1830 H 0.78071 0.63766 0.83281 0.0
H1831 H 0.84616 0.61818 0.83512 0.0
H1832 H 0.86069 0.63766 0.80961 0.0
H1833 H 0.85529 0.66059 0.78662 0.0
H1834 H 0.79087 0.68137 0.78445 0.0
H1835 H 0.77601 0.6617 0.81003 0.0
C1836 C 0.79832 0.63789 0.82784 0.0
C1837 C 0.81205 0.62611 0.83592 0.0
C1838 C 0.80692 0.64954 0.81317 0.0
C1839 C 0.8347 0.62646 0.82909 0.0
C1840 C 0.84322 0.63783 0.81452 0.0
C1841 C 0.83789 0.66067 0.79169 0.0
C1842 C 0.82422 0.67243 0.78357 0.0
C1843 C 0.82946 0.64935 0.80642 0.0
C1844 C 0.80197 0.67272 0.79049 0.0
C1845 C 0.79335 0.66134 0.80509 0.0
H1846 H 0.31973 0.15255 0.84148 0.0
H1847 H 0.40236 0.17215 0.83233 0.0
H1848 H 0.38984 0.16684 0.8031 0.0
H1849 H 0.35603 0.15837 0.78032 0.0
H1850 H 0.27411 0.14151 0.78947 0.0
H1851 H 0.2855 0.1433 0.81851 0.0
C1852 C 0.33482 0.15528 0.83304 0.0
C1853 C 0.36189 0.16273 0.83897 0.0
C1854 C 0.32762 0.15269 0.81629 0.0
C1855 C 0.38144 0.16658 0.82798 0.0
C1856 C 0.37429 0.16353 0.81131 0.0
C1857 C 0.3407 0.15531 0.78866 0.0
C1858 C 0.31431 0.14998 0.78269 0.0
C1859 C 0.34758 0.15699 0.80535 0.0
C1860 C 0.29451 0.14538 0.79368 0.0
C1861 C 0.30106 0.14659 0.81031 0.0
H1862 H 0.83851 0.15404 0.83819 0.0
H1863 H 0.77572 0.17322 0.82269 0.0
H1864 H 0.78542 0.17025 0.79461 0.0
H1865 H 0.81271 0.16378 0.77449 0.0
H1866 H 0.87816 0.14854 0.79032 0.0
H1867 H 0.86642 0.14853 0.81817 0.0
C1868 C 0.82708 0.15786 0.82873 0.0
C1869 C 0.80639 0.16387 0.83269 0.0
C1870 C 0.83326 0.15688 0.8126 0.0
C1871 C 0.79144 0.1681 0.8201 0.0
C1872 C 0.79716 0.16667 0.804 0.0
C1873 C 0.82466 0.16076 0.78403 0.0
C1874 C 0.84634 0.1562 0.7802 0.0
C1875 C 0.8182 0.16135 0.80013 0.0
C1876 C 0.86111 0.15171 0.79277 0.0
C1877 C 0.85454 0.15189 0.80877 0.0
H1878 H 0.34129 0.20096 0.51137 0.0
H1879 H 0.32422 0.11757 0.50213 0.0
H1880 H 0.33592 0.11686 0.53082 0.0
H1881 H 0.35023 0.13968 0.55869 0.0
H1882 H 0.36769 0.22319 0.56789 0.0
H1883 H 0.35652 0.22411 0.53912 0.0
C1884 C 0.3401 0.18264 0.51567 0.0
C1885 C 0.33193 0.15938 0.50465 0.0
C1886 C 0.34685 0.18237 0.53218 0.0
C1887 C 0.33078 0.13587 0.51034 0.0
C1888 C 0.33729 0.13538 0.52676 0.0
C1889 C 0.35146 0.158 0.55437 0.0
C1890 C 0.35971 0.1813 0.56536 0.0
C1891 C 0.34521 0.15845 0.5378 0.0
C1892 C 0.36159 0.20507 0.55961 0.0
C1893 C 0.35512 0.20558 0.54319 0.0
H1894 H 0.89199 0.15962 0.52334 0.0
H1895 H 0.84421 0.18925 0.49811 0.0
H1896 H 0.82692 0.19544 0.52349 0.0
H1897 H 0.82346 0.19015 0.55265 0.0
H1898 H 0.8719 0.16112 0.57787 0.0
H1899 H 0.89027 0.15644 0.55268 0.0
C1900 C 0.87778 0.16742 0.5234 0.0
C1901 C 0.86938 0.17389 0.50882 0.0
C1902 C 0.86774 0.17074 0.53802 0.0
C1903 C 0.85127 0.18438 0.50917 0.0
C1904 C 0.8412 0.18773 0.52367 0.0
C1905 C 0.83828 0.18312 0.55269 0.0
C1906 C 0.84593 0.17567 0.56716 0.0
C1907 C 0.84907 0.18072 0.53815 0.0
C1908 C 0.86506 0.16639 0.56689 0.0
C1909 C 0.87579 0.16389 0.55249 0.0
H1910 H 0.84277 0.68353 0.5064 0.0
H1911 H 0.90864 0.76345 0.52715 0.0
H1912 H 0.90091 0.74836 0.55428 0.0
H1913 H 0.87567 0.71241 0.57225 0.0
H1914 H 0.80829 0.63331 0.55154 0.0
H1915 H 0.81636 0.64827 0.52441 0.0
C1916 C 0.85526 0.69783 0.51684 0.0
C1917 C 0.87638 0.72463 0.51457 0.0
C1918 C 0.85048 0.68915 0.53251 0.0
C1919 C 0.89257 0.74256 0.52836 0.0
C1920 C 0.88803 0.73401 0.54395 0.0
C1921 C 0.86249 0.69851 0.56184 0.0
C1922 C 0.84146 0.67165 0.56406 0.0
C1923 C 0.86706 0.70734 0.54619 0.0
C1924 C 0.82495 0.65391 0.5503 0.0
C1925 C 0.82944 0.66251 0.53473 0.0
loop_
_geom_bond_atom_site_label_1
_geom_bond_atom_site_label_2
_geom_bond_distance
_geom_bond_site_symmetry_2
_ccdc_geom_bond_type
C0 C1 1.386 . S
C0 C2 1.397 . S
C0 H24 0.931 . S
C1 C0 1.386 . S
C1 C5 1.397 . S
C2 C0 1.397 . S
C2 C3 1.384 . S
C2 H25 0.930 . S
C3 C2 1.384 . S
C3 C4 1.377 . S
C3 C6 1.481 . S
C4 C3 1.377 . S
C4 C5 1.389 . S
C4 H26 0.929 . S
C5 C1 1.397 . S
C5 C4 1.389 . S
C5 H27 0.931 . S
C6 C3 1.481 . S
C6 C7 1.387 . S
C6 C11 1.390 . S
C7 C6 1.387 . S
C7 C8 1.401 . S
C7 H28 0.930 . S
C8 C7 1.401 . S
C8 C9 1.376 . S
C8 C17 1.511 . S
C9 C8 1.376 . S
C9 C10 1.392 . S
C9 H30 0.931 . S
C10 C9 1.392 . S
C10 C11 1.361 . S
C10 C12 1.500 . S
C11 C6 1.390 . S
C11 C10 1.361 . S
C11 H29 0.931 . S
C12 C10 1.500 . S
C12 C13 1.371 . S
C12 C14 1.365 . S
C13 C12 1.371 . S
C13 C23 1.386 . S
C13 H31 0.931 . S
C14 C12 1.365 . S
C14 C15 1.409 . S
C14 H32 0.929 . S
C15 C14 1.409 . S
C15 C16 1.380 . S
C15 H33 0.930 . S
C16 C15 1.380 . S
C16 C23 1.357 . S
C17 C8 1.511 . S
C17 C18 1.341 . S
C17 C19 1.371 . S
C18 C17 1.341 . S
C18 C22 1.394 . S
C18 H34 0.930 . S
C19 C17 1.371 . S
C19 C20 1.392 . S
C19 H35 0.931 . S
C20 C19 1.392 . S
C20 C21 1.331 . S
C20 H38 0.932 . S
C21 C20 1.331 . S
C21 C22 1.336 . S
C22 C18 1.394 . S
C22 C21 1.336 . S
C22 H37 0.929 . S
C23 C13 1.386 . S
C23 C16 1.357 . S
C23 H36 0.928 . S
H24 C0 0.931 . S
H25 C2 0.930 . S
H26 C4 0.929 . S
H27 C5 0.931 . S
H28 C7 0.930 . S
H29 C11 0.931 . S
H30 C9 0.931 . S
H31 C13 0.931 . S
H32 C14 0.929 . S
H33 C15 0.930 . S
H34 C18 0.930 . S
H35 C19 0.931 . S
H36 C23 0.928 . S
H37 C22 0.929 . S
H38 C20 0.932 . S
C39 C40 1.386 . S
C39 C41 1.397 . S
C39 H63 0.931 . S
C40 C39 1.386 . S
C40 C44 1.397 . S
C41 C39 1.397 . S
C41 C42 1.384 . S
C41 H64 0.930 . S
C42 C41 1.384 . S
C42 C43 1.377 . S
C42 C45 1.481 . S
C43 C42 1.377 . S
C43 C44 1.389 . S
C43 H65 0.929 . S
C44 C40 1.397 . S
C44 C43 1.389 . S
C44 H66 0.931 . S
C45 C42 1.481 . S
C45 C46 1.387 . S
C45 C50 1.390 . S
C46 C45 1.387 . S
C46 C47 1.401 . S
C46 H67 0.930 . S
C47 C46 1.401 . S
C47 C48 1.376 . S
C47 C56 1.511 . S
C48 C47 1.376 . S
C48 C49 1.392 . S
C48 H69 0.931 . S
C49 C48 1.392 . S
C49 C50 1.361 . S
C49 C51 1.500 . S
C50 C45 1.390 . S
C50 C49 1.361 . S
C50 H68 0.931 . S
C51 C49 1.500 . S
C51 C52 1.371 . S
C51 C53 1.365 . S
C52 C51 1.371 . S
C52 C62 1.386 . S
C52 H70 0.931 . S
C53 C51 1.365 . S
C53 C54 1.409 . S
C53 H71 0.929 . S
C54 C53 1.409 . S
C54 C55 1.380 . S
C54 H72 0.930 . S
C55 C54 1.380 . S
C55 C62 1.357 . S
C56 C47 1.511 . S
C56 C57 1.341 . S
C56 C58 1.371 . S
C57 C56 1.341 . S
C57 C61 1.394 . S
C57 H73 0.930 . S
C58 C56 1.371 . S
C58 C59 1.392 . S
C58 H74 0.931 . S
C59 C58 1.392 . S
C59 C60 1.331 . S
C59 H77 0.932 . S
C60 C59 1.331 . S
C60 C61 1.336 . S
C61 C57 1.394 . S
C61 C60 1.336 . S
C61 H76 0.929 . S
C62 C52 1.386 . S
C62 C55 1.357 . S
C62 H75 0.928 . S
H63 C39 0.931 . S
H64 C41 0.930 . S
H65 C43 0.929 . S
H66 C44 0.931 . S
H67 C46 0.930 . S
H68 C50 0.931 . S
H69 C48 0.931 . S
H70 C52 0.931 . S
H71 C53 0.929 . S
H72 C54 0.930 . S
H73 C57 0.930 . S
H74 C58 0.931 . S
H75 C62 0.928 . S
H76 C61 0.929 . S
H77 C59 0.932 . S
C78 C79 1.386 . S
C78 C80 1.397 . S
C78 H102 0.931 . S
C79 C78 1.386 . S
C79 C83 1.397 . S
C80 C78 1.397 . S
C80 C81 1.384 . S
C80 H103 0.930 . S
C81 C80 1.384 . S
C81 C82 1.377 . S
C81 C84 1.481 . S
C82 C81 1.377 . S
C82 C83 1.389 . S
C82 H104 0.929 . S
C83 C79 1.397 . S
C83 C82 1.389 . S
C83 H105 0.931 . S
C84 C81 1.481 . S
C84 C85 1.387 . S
C84 C89 1.390 . S
C85 C84 1.387 . S
C85 C86 1.401 . S
C85 H106 0.930 . S
C86 C85 1.401 . S
C86 C87 1.376 . S
C86 C95 1.511 . S
C87 C86 1.376 . S
C87 C88 1.392 . S
C87 H108 0.931 . S
C88 C87 1.392 . S
C88 C89 1.361 . S
C88 C90 1.500 . S
C89 C84 1.390 . S
C89 C88 1.361 . S
C89 H107 0.931 . S
C90 C88 1.500 . S
C90 C91 1.371 . S
C90 C92 1.365 . S
C91 C90 1.371 . S
C91 C101 1.386 . S
C91 H109 0.931 . S
C92 C90 1.365 . S
C92 C93 1.409 . S
C92 H110 0.929 . S
C93 C92 1.409 . S
C93 C94 1.380 . S
C93 H111 0.930 . S
C94 C93 1.380 . S
C94 C101 1.357 . S
C95 C86 1.511 . S
C95 C96 1.341 . S
C95 C97 1.371 . S
C96 C95 1.341 . S
C96 C100 1.394 . S
C96 H112 0.930 . S
C97 C95 1.371 . S
C97 C98 1.392 . S
C97 H113 0.931 . S
C98 C97 1.392 . S
C98 C99 1.331 . S
C98 H116 0.932 . S
C99 C98 1.331 . S
C99 C100 1.336 . S
C100 C96 1.394 . S
C100 C99 1.336 . S
C100 H115 0.929 . S
C101 C91 1.386 . S
C101 C94 1.357 . S
C101 H114 0.928 . S
H102 C78 0.931 . S
H103 C80 0.930 . S
H104 C82 0.929 . S
H105 C83 0.931 . S
H106 C85 0.930 . S
H107 C89 0.931 . S
H108 C87 0.931 . S
H109 C91 0.931 . S
H110 C92 0.929 . S
H111 C93 0.930 . S
H112 C96 0.930 . S
H113 C97 0.931 . S
H114 C101 0.928 . S
H115 C100 0.929 . S
H116 C98 0.932 . S
C117 C118 1.386 . S
C117 C119 1.397 . S
C117 H141 0.931 . S
C118 C117 1.386 . S
C118 C122 1.397 . S
C119 C117 1.397 . S
C119 C120 1.384 . S
C119 H142 0.930 . S
C120 C119 1.384 . S
C120 C121 1.377 . S
C120 C123 1.481 . S
C121 C120 1.377 . S
C121 C122 1.389 . S
C121 H143 0.929 . S
C122 C118 1.397 . S
C122 C121 1.389 . S
C122 H144 0.931 . S
C123 C120 1.481 . S
C123 C124 1.387 . S
C123 C128 1.390 . S
C124 C123 1.387 . S
C124 C125 1.401 . S
C124 H145 0.930 . S
C125 C124 1.401 . S
C125 C126 1.376 . S
C125 C134 1.511 . S
C126 C125 1.376 . S
C126 C127 1.392 . S
C126 H147 0.931 . S
C127 C126 1.392 . S
C127 C128 1.361 . S
C127 C129 1.500 . S
C128 C123 1.390 . S
C128 C127 1.361 . S
C128 H146 0.931 . S
C129 C127 1.500 . S
C129 C130 1.371 . S
C129 C131 1.365 . S
C130 C129 1.371 . S
C130 C140 1.386 . S
C130 H148 0.931 . S
C131 C129 1.365 . S
C131 C132 1.409 . S
C131 H149 0.929 . S
C132 C131 1.409 . S
C132 C133 1.380 . S
C132 H150 0.930 . S
C133 C132 1.380 . S
C133 C140 1.357 . S
C134 C125 1.511 . S
C134 C135 1.341 . S
C134 C136 1.371 . S
C135 C134 1.341 . S
C135 C139 1.394 . S
C135 H151 0.930 . S
C136 C134 1.371 . S
C136 C137 1.392 . S
C136 H152 0.931 . S
C137 C136 1.392 . S
C137 C138 1.331 . S
C137 H155 0.932 . S
C138 C137 1.331 . S
C138 C139 1.336 . S
C139 C135 1.394 . S
C139 C138 1.336 . S
C139 H154 0.929 . S
C140 C130 1.386 . S
C140 C133 1.357 . S
C140 H153 0.928 . S
H141 C117 0.931 . S
H142 C119 0.930 . S
H143 C121 0.929 . S
H144 C122 0.931 . S
H145 C124 0.930 . S
H146 C128 0.931 . S
H147 C126 0.931 . S
H148 C130 0.931 . S
H149 C131 0.929 . S
H150 C132 0.930 . S
H151 C135 0.930 . S
H152 C136 0.931 . S
H153 C140 0.928 . S
H154 C139 0.929 . S
H155 C137 0.932 . S
C156 C157 1.386 . S
C156 C158 1.397 . S
C156 H180 0.931 . S
C157 C156 1.386 . S
C157 C161 1.397 . S
C158 C156 1.397 . S
C158 C159 1.384 . S
C158 H181 0.930 . S
C159 C158 1.384 . S
C159 C160 1.377 . S
C159 C162 1.481 . S
C160 C159 1.377 . S
C160 C161 1.389 . S
C160 H182 0.929 . S
C161 C157 1.397 . S
C161 C160 1.389 . S
C161 H183 0.931 . S
C162 C159 1.481 . S
C162 C163 1.387 . S
C162 C167 1.390 . S
C163 C162 1.387 . S
C163 C164 1.401 . S
C163 H184 0.930 . S
C164 C163 1.401 . S
C164 C165 1.376 . S
C164 C173 1.511 . S
C165 C164 1.376 . S
C165 C166 1.392 . S
C165 H186 0.931 . S
C166 C165 1.392 . S
C166 C167 1.361 . S
C166 C168 1.500 . S
C167 C162 1.390 . S
C167 C166 1.361 . S
C167 H185 0.931 . S
C168 C166 1.500 . S
C168 C169 1.371 . S
C168 C170 1.365 . S
C169 C168 1.371 . S
C169 C179 1.386 . S
C169 H187 0.931 . S
C170 C168 1.365 . S
C170 C171 1.409 . S
C170 H188 0.929 . S
C171 C170 1.409 . S
C171 C172 1.380 . S
C171 H189 0.930 . S
C172 C171 1.380 . S
C172 C179 1.357 . S
C173 C164 1.511 . S
C173 C174 1.341 . S
C173 C175 1.371 . S
C174 C173 1.341 . S
C174 C178 1.394 . S
C174 H190 0.930 . S
C175 C173 1.371 . S
C175 C176 1.392 . S
C175 H191 0.931 . S
C176 C175 1.392 . S
C176 C177 1.331 . S
C176 H194 0.932 . S
C177 C176 1.331 . S
C177 C178 1.336 . S
C178 C174 1.394 . S
C178 C177 1.336 . S
C178 H193 0.929 . S
C179 C169 1.386 . S
C179 C172 1.357 . S
C179 H192 0.928 . S
H180 C156 0.931 . S
H181 C158 0.930 . S
H182 C160 0.929 . S
H183 C161 0.931 . S
H184 C163 0.930 . S
H185 C167 0.931 . S
H186 C165 0.931 . S
H187 C169 0.931 . S
H188 C170 0.929 . S
H189 C171 0.930 . S
H190 C174 0.930 . S
H191 C175 0.931 . S
H192 C179 0.928 . S
H193 C178 0.929 . S
H194 C176 0.932 . S
C195 C196 1.386 . S
C195 C197 1.397 . S
C195 H219 0.931 . S
C196 C195 1.386 . S
C196 C200 1.397 . S
C197 C195 1.397 . S
C197 C198 1.384 . S
C197 H220 0.930 . S
C198 C197 1.384 . S
C198 C199 1.377 . S
C198 C201 1.481 . S
C199 C198 1.377 . S
C199 C200 1.389 . S
C199 H221 0.929 . S
C200 C196 1.397 . S
C200 C199 1.389 . S
C200 H222 0.931 . S
C201 C198 1.481 . S
C201 C202 1.387 . S
C201 C206 1.390 . S
C202 C201 1.387 . S
C202 C203 1.401 . S
C202 H223 0.930 . S
C203 C202 1.401 . S
C203 C204 1.376 . S
C203 C212 1.511 . S
C204 C203 1.376 . S
C204 C205 1.392 . S
C204 H225 0.931 . S
C205 C204 1.392 . S
C205 C206 1.361 . S
C205 C207 1.500 . S
C206 C201 1.390 . S
C206 C205 1.361 . S
C206 H224 0.931 . S
C207 C205 1.500 . S
C207 C208 1.371 . S
C207 C209 1.365 . S
C208 C207 1.371 . S
C208 C218 1.386 . S
C208 H226 0.931 . S
C209 C207 1.365 . S
C209 C210 1.409 . S
C209 H227 0.929 . S
C210 C209 1.409 . S
C210 C211 1.380 . S
C210 H228 0.930 . S
C211 C210 1.380 . S
C211 C218 1.357 . S
C212 C203 1.511 . S
C212 C213 1.341 . S
C212 C214 1.371 . S
C213 C212 1.341 . S
C213 C217 1.394 . S
C213 H229 0.930 . S
C214 C212 1.371 . S
C214 C215 1.392 . S
C214 H230 0.931 . S
C215 C214 1.392 . S
C215 C216 1.331 . S
C215 H233 0.932 . S
C216 C215 1.331 . S
C216 C217 1.336 . S
C217 C213 1.394 . S
C217 C216 1.336 . S
C217 H232 0.929 . S
C218 C208 1.386 . S
C218 C211 1.357 . S
C218 H231 0.928 . S
H219 C195 0.931 . S
H220 C197 0.930 . S
H221 C199 0.929 . S
H222 C200 0.931 . S
H223 C202 0.930 . S
H224 C206 0.931 . S
H225 C204 0.931 . S
H226 C208 0.931 . S
H227 C209 0.929 . S
H228 C210 0.930 . S
H229 C213 0.930 . S
H230 C214 0.931 . S
H231 C218 0.928 . S
H232 C217 0.929 . S
H233 C215 0.932 . S
C234 C235 1.386 . S
C234 C236 1.397 . S
C234 H258 0.931 . S
C235 C234 1.386 . S
C235 C239 1.397 1_655 S
C236 C234 1.397 . S
C236 C237 1.384 . S
C236 H259 0.930 . S
C237 C236 1.384 . S
C237 C238 1.377 . S
C237 C240 1.481 . S
C238 C237 1.377 . S
C238 C239 1.389 1_655 S
C238 H260 0.929 1_655 S
C239 C235 1.397 1_455 S
C239 C238 1.389 1_455 S
C239 H261 0.931 . S
C240 C237 1.481 . S
C240 C241 1.387 . S
C240 C245 1.390 . S
C241 C240 1.387 . S
C241 C242 1.401 . S
C241 H262 0.930 . S
C242 C241 1.401 . S
C242 C243 1.376 . S
C242 C251 1.511 . S
C243 C242 1.376 . S
C243 C244 1.392 . S
C243 H264 0.931 . S
C244 C243 1.392 . S
C244 C245 1.361 . S
C244 C246 1.500 . S
C245 C240 1.390 . S
C245 C244 1.361 . S
C245 H263 0.931 . S
C246 C244 1.500 . S
C246 C247 1.371 . S
C246 C248 1.365 . S
C247 C246 1.371 . S
C247 C257 1.386 . S
C247 H265 0.931 . S
C248 C246 1.365 . S
C248 C249 1.409 . S
C248 H266 0.929 . S
C249 C248 1.409 . S
C249 C250 1.380 . S
C249 H267 0.930 . S
C250 C249 1.380 . S
C250 C257 1.357 . S
C251 C242 1.511 . S
C251 C252 1.341 . S
C251 C253 1.371 . S
C252 C251 1.341 . S
C252 C256 1.394 . S
C252 H268 0.930 . S
C253 C251 1.371 . S
C253 C254 1.392 . S
C253 H269 0.931 . S
C254 C253 1.392 . S
C254 C255 1.331 . S
C254 H272 0.932 . S
C255 C254 1.331 . S
C255 C256 1.336 . S
C256 C252 1.394 . S
C256 C255 1.336 . S
C256 H271 0.929 . S
C257 C247 1.386 . S
C257 C250 1.357 . S
C257 H270 0.928 . S
H258 C234 0.931 . S
H259 C236 0.930 . S
H260 C238 0.929 1_455 S
H261 C239 0.931 . S
H262 C241 0.930 . S
H263 C245 0.931 . S
H264 C243 0.931 . S
H265 C247 0.931 . S
H266 C248 0.929 . S
H267 C249 0.930 . S
H268 C252 0.930 . S
H269 C253 0.931 . S
H270 C257 0.928 . S
H271 C256 0.929 . S
H272 C254 0.932 . S
C273 C274 1.386 . S
C273 C275 1.397 . S
C273 H297 0.931 . S
C274 C273 1.386 . S
C274 C278 1.397 . S
C275 C273 1.397 . S
C275 C276 1.384 . S
C275 H298 0.930 . S
C276 C275 1.384 . S
C276 C277 1.377 . S
C276 C279 1.481 . S
C277 C276 1.377 . S
C277 C278 1.389 . S
C277 H299 0.929 . S
C278 C274 1.397 . S
C278 C277 1.389 . S
C278 H300 0.931 . S
C279 C276 1.481 . S
C279 C280 1.387 . S
C279 C284 1.390 . S
C280 C279 1.387 . S
C280 C281 1.401 . S
C280 H301 0.930 . S
C281 C280 1.401 . S
C281 C282 1.376 . S
C281 C290 1.511 . S
C282 C281 1.376 . S
C282 C283 1.392 . S
C282 H303 0.931 . S
C283 C282 1.392 . S
C283 C284 1.361 . S
C283 C285 1.500 . S
C284 C279 1.390 . S
C284 C283 1.361 . S
C284 H302 0.931 . S
C285 C283 1.500 . S
C285 C286 1.371 . S
C285 C287 1.365 . S
C286 C285 1.371 . S
C286 C296 1.386 . S
C286 H304 0.931 . S
C287 C285 1.365 . S
C287 C288 1.409 . S
C287 H305 0.929 . S
C288 C287 1.409 . S
C288 C289 1.380 . S
C288 H306 0.930 . S
C289 C288 1.380 . S
C289 C296 1.357 . S
C290 C281 1.511 . S
C290 C291 1.341 . S
C290 C292 1.371 . S
C291 C290 1.341 . S
C291 C295 1.394 . S
C291 H307 0.930 . S
C292 C290 1.371 . S
C292 C293 1.392 . S
C292 H308 0.931 . S
C293 C292 1.392 . S
C293 C294 1.331 . S
C293 H311 0.932 . S
C294 C293 1.331 . S
C294 C295 1.336 . S
C295 C291 1.394 . S
C295 C294 1.336 . S
C295 H310 0.929 . S
C296 C286 1.386 . S
C296 C289 1.357 . S
C296 H309 0.928 . S
H297 C273 0.931 . S
H298 C275 0.930 . S
H299 C277 0.929 . S
H300 C278 0.931 . S
H301 C280 0.930 . S
H302 C284 0.931 . S
H303 C282 0.931 . S
H304 C286 0.931 . S
H305 C287 0.929 . S
H306 C288 0.930 . S
H307 C291 0.930 . S
H308 C292 0.931 . S
H309 C296 0.928 . S
H310 C295 0.929 . S
H311 C293 0.932 . S
C312 C313 1.386 . S
C312 C314 1.397 . S
C312 H336 0.931 . S
C313 C312 1.386 . S
C313 C317 1.397 . S
C314 C312 1.397 . S
C314 C315 1.384 . S
C314 H337 0.930 . S
C315 C314 1.384 . S
C315 C316 1.377 . S
C315 C318 1.481 . S
C316 C315 1.377 . S
C316 C317 1.389 . S
C316 H338 0.929 . S
C317 C313 1.397 . S
C317 C316 1.389 . S
C317 H339 0.931 . S
C318 C315 1.481 . S
C318 C319 1.387 . S
C318 C323 1.390 . S
C319 C318 1.387 . S
C319 C320 1.401 . S
C319 H340 0.930 . S
C320 C319 1.401 . S
C320 C321 1.376 . S
C320 C329 1.511 . S
C321 C320 1.376 . S
C321 C322 1.392 . S
C321 H342 0.931 . S
C322 C321 1.392 . S
C322 C323 1.361 . S
C322 C324 1.500 . S
C323 C318 1.390 . S
C323 C322 1.361 . S
C323 H341 0.931 . S
C324 C322 1.500 . S
C324 C325 1.371 . S
C324 C326 1.365 . S
C325 C324 1.371 . S
C325 C335 1.386 . S
C325 H343 0.931 . S
C326 C324 1.365 . S
C326 C327 1.409 . S
C326 H344 0.929 . S
C327 C326 1.409 . S
C327 C328 1.380 . S
C327 H345 0.930 . S
C328 C327 1.380 . S
C328 C335 1.357 . S
C329 C320 1.511 . S
C329 C330 1.341 . S
C329 C331 1.371 . S
C330 C329 1.341 . S
C330 C334 1.394 . S
C330 H346 0.930 . S
C331 C329 1.371 . S
C331 C332 1.392 . S
C331 H347 0.931 . S
C332 C331 1.392 . S
C332 C333 1.331 . S
C332 H350 0.932 . S
C333 C332 1.331 . S
C333 C334 1.336 . S
C334 C330 1.394 . S
C334 C333 1.336 . S
C334 H349 0.929 . S
C335 C325 1.386 . S
C335 C328 1.357 . S
C335 H348 0.928 . S
H336 C312 0.931 . S
H337 C314 0.930 . S
H338 C316 0.929 . S
H339 C317 0.931 . S
H340 C319 0.930 . S
H341 C323 0.931 . S
H342 C321 0.931 . S
H343 C325 0.931 . S
H344 C326 0.929 . S
H345 C327 0.930 . S
H346 C330 0.930 . S
H347 C331 0.931 . S
H348 C335 0.928 . S
H349 C334 0.929 . S
H350 C332 0.932 . S
C351 C352 1.386 . S
C351 C353 1.397 . S
C351 H375 0.931 . S
C352 C351 1.386 . S
C352 C356 1.397 . S
C353 C351 1.397 . S
C353 C354 1.384 . S
C353 H376 0.930 . S
C354 C353 1.384 . S
C354 C355 1.377 . S
C354 C357 1.481 . S
C355 C354 1.377 . S
C355 C356 1.389 . S
C355 H377 0.929 . S
C356 C352 1.397 . S
C356 C355 1.389 . S
C356 H378 0.931 . S
C357 C354 1.481 . S
C357 C358 1.387 . S
C357 C362 1.390 . S
C358 C357 1.387 . S
C358 C359 1.401 . S
C358 H379 0.930 . S
C359 C358 1.401 . S
C359 C360 1.376 . S
C359 C368 1.511 . S
C360 C359 1.376 . S
C360 C361 1.392 . S
C360 H381 0.931 . S
C361 C360 1.392 . S
C361 C362 1.361 . S
C361 C363 1.500 . S
C362 C357 1.390 . S
C362 C361 1.361 . S
C362 H380 0.931 . S
C363 C361 1.500 . S
C363 C364 1.371 . S
C363 C365 1.365 . S
C364 C363 1.371 . S
C364 C374 1.386 . S
C364 H382 0.931 . S
C365 C363 1.365 . S
C365 C366 1.409 . S
C365 H383 0.929 . S
C366 C365 1.409 . S
C366 C367 1.380 . S
C366 H384 0.930 . S
C367 C366 1.380 . S
C367 C374 1.357 . S
C368 C359 1.511 . S
C368 C369 1.341 . S
C368 C370 1.371 . S
C369 C368 1.341 . S
C369 C373 1.394 . S
C369 H385 0.930 . S
C370 C368 1.371 . S
C370 C371 1.392 . S
C370 H386 0.931 . S
C371 C370 1.392 . S
C371 C372 1.331 . S
C371 H389 0.932 . S
C372 C371 1.331 . S
C372 C373 1.336 . S
C373 C369 1.394 . S
C373 C372 1.336 . S
C373 H388 0.929 . S
C374 C364 1.386 . S
C374 C367 1.357 . S
C374 H387 0.928 . S
H375 C351 0.931 . S
H376 C353 0.930 . S
H377 C355 0.929 . S
H378 C356 0.931 . S
H379 C358 0.930 . S
H380 C362 0.931 . S
H381 C360 0.931 . S
H382 C364 0.931 . S
H383 C365 0.929 . S
H384 C366 0.930 . S
H385 C369 0.930 . S
H386 C370 0.931 . S
H387 C374 0.928 . S
H388 C373 0.929 . S
H389 C371 0.932 . S
C390 C391 1.386 . S
C390 C392 1.397 . S
C390 H414 0.931 . S
C391 C390 1.386 . S
C391 C395 1.397 . S
C392 C390 1.397 . S
C392 C393 1.384 . S
C392 H415 0.930 . S
C393 C392 1.384 . S
C393 C394 1.377 . S
C393 C396 1.481 . S
C394 C393 1.377 . S
C394 C395 1.389 . S
C394 H416 0.929 . S
C395 C391 1.397 . S
C395 C394 1.389 . S
C395 H417 0.931 . S
C396 C393 1.481 . S
C396 C397 1.387 . S
C396 C401 1.390 . S
C397 C396 1.387 . S
C397 C398 1.401 . S
C397 H418 0.930 . S
C398 C397 1.401 . S
C398 C399 1.376 . S
C398 C407 1.511 . S
C399 C398 1.376 . S
C399 C400 1.392 . S
C399 H420 0.931 . S
C400 C399 1.392 . S
C400 C401 1.361 . S
C400 C402 1.500 . S
C401 C396 1.390 . S
C401 C400 1.361 . S
C401 H419 0.931 . S
C402 C400 1.500 . S
C402 C403 1.371 . S
C402 C404 1.365 . S
C403 C402 1.371 . S
C403 C413 1.386 . S
C403 H421 0.931 . S
C404 C402 1.365 . S
C404 C405 1.409 . S
C404 H422 0.929 . S
C405 C404 1.409 . S
C405 C406 1.380 . S
C405 H423 0.930 . S
C406 C405 1.380 . S
C406 C413 1.357 . S
C407 C398 1.511 . S
C407 C408 1.341 . S
C407 C409 1.371 . S
C408 C407 1.341 . S
C408 C412 1.394 . S
C408 H424 0.930 . S
C409 C407 1.371 . S
C409 C410 1.392 . S
C409 H425 0.931 . S
C410 C409 1.392 . S
C410 C411 1.331 . S
C410 H428 0.932 . S
C411 C410 1.331 . S
C411 C412 1.336 . S
C412 C408 1.394 . S
C412 C411 1.336 . S
C412 H427 0.929 . S
C413 C403 1.386 . S
C413 C406 1.357 . S
C413 H426 0.928 . S
H414 C390 0.931 . S
H415 C392 0.930 . S
H416 C394 0.929 . S
H417 C395 0.931 . S
H418 C397 0.930 . S
H419 C401 0.931 . S
H420 C399 0.931 . S
H421 C403 0.931 . S
H422 C404 0.929 . S
H423 C405 0.930 . S
H424 C408 0.930 . S
H425 C409 0.931 . S
H426 C413 0.928 . S
H427 C412 0.929 . S
H428 C410 0.932 . S
C429 C430 1.386 . S
C429 C431 1.397 . S
C429 H453 0.931 . S
C430 C429 1.386 . S
C430 C434 1.397 . S
C431 C429 1.397 . S
C431 C432 1.384 . S
C431 H454 0.930 . S
C432 C431 1.384 . S
C432 C433 1.377 . S
C432 C435 1.481 . S
C433 C432 1.377 . S
C433 C434 1.389 . S
C433 H455 0.929 . S
C434 C430 1.397 . S
C434 C433 1.389 . S
C434 H456 0.931 . S
C435 C432 1.481 . S
C435 C436 1.387 . S
C435 C440 1.390 . S
C436 C435 1.387 . S
C436 C437 1.401 . S
C436 H457 0.930 . S
C437 C436 1.401 . S
C437 C438 1.376 . S
C437 C446 1.511 . S
C438 C437 1.376 . S
C438 C439 1.392 . S
C438 H459 0.931 . S
C439 C438 1.392 . S
C439 C440 1.361 . S
C439 C441 1.500 . S
C440 C435 1.390 . S
C440 C439 1.361 . S
C440 H458 0.931 . S
C441 C439 1.500 . S
C441 C442 1.371 . S
C441 C443 1.365 . S
C442 C441 1.371 . S
C442 C452 1.386 . S
C442 H460 0.931 . S
C443 C441 1.365 . S
C443 C444 1.409 . S
C443 H461 0.929 . S
C444 C443 1.409 . S
C444 C445 1.380 . S
C444 H462 0.930 . S
C445 C444 1.380 . S
C445 C452 1.357 . S
C446 C437 1.511 . S
C446 C447 1.341 . S
C446 C448 1.371 . S
C447 C446 1.341 . S
C447 C451 1.394 . S
C447 H463 0.930 . S
C448 C446 1.371 . S
C448 C449 1.392 . S
C448 H464 0.931 . S
C449 C448 1.392 . S
C449 C450 1.331 . S
C449 H467 0.932 . S
C450 C449 1.331 . S
C450 C451 1.336 . S
C451 C447 1.394 . S
C451 C450 1.336 . S
C451 H466 0.929 . S
C452 C442 1.386 . S
C452 C445 1.357 . S
C452 H465 0.928 . S
H453 C429 0.931 . S
H454 C431 0.930 . S
H455 C433 0.929 . S
H456 C434 0.931 . S
H457 C436 0.930 . S
H458 C440 0.931 . S
H459 C438 0.931 . S
H460 C442 0.931 . S
H461 C443 0.929 . S
H462 C444 0.930 . S
H463 C447 0.930 . S
H464 C448 0.931 . S
H465 C452 0.928 . S
H466 C451 0.929 . S
H467 C449 0.932 . S
C468 C469 1.386 . S
C468 C470 1.397 . S
C468 H492 0.931 . S
C469 C468 1.386 . S
C469 C473 1.397 . S
C470 C468 1.397 . S
C470 C471 1.384 . S
C470 H493 0.930 . S
C471 C470 1.384 . S
C471 C472 1.377 . S
C471 C474 1.481 . S
C472 C471 1.377 . S
C472 C473 1.389 . S
C472 H494 0.929 . S
C473 C469 1.397 . S
C473 C472 1.389 . S
C473 H495 0.931 . S
C474 C471 1.481 . S
C474 C475 1.387 . S
C474 C479 1.390 . S
C475 C474 1.387 . S
C475 C476 1.401 . S
C475 H496 0.930 . S
C476 C475 1.401 . S
C476 C477 1.376 . S
C476 C485 1.511 . S
C477 C476 1.376 . S
C477 C478 1.392 . S
C477 H498 0.931 . S
C478 C477 1.392 . S
C478 C479 1.361 . S
C478 C480 1.500 . S
C479 C474 1.390 . S
C479 C478 1.361 . S
C479 H497 0.931 . S
C480 C478 1.500 . S
C480 C481 1.371 . S
C480 C482 1.365 . S
C481 C480 1.371 . S
C481 C491 1.386 . S
C481 H499 0.931 . S
C482 C480 1.365 . S
C482 C483 1.409 . S
C482 H500 0.929 . S
C483 C482 1.409 . S
C483 C484 1.380 . S
C483 H501 0.930 . S
C484 C483 1.380 . S
C484 C491 1.357 . S
C485 C476 1.511 . S
C485 C486 1.341 . S
C485 C487 1.371 . S
C486 C485 1.341 . S
C486 C490 1.394 . S
C486 H502 0.930 . S
C487 C485 1.371 . S
C487 C488 1.392 . S
C487 H503 0.931 . S
C488 C487 1.392 . S
C488 C489 1.331 . S
C488 H506 0.932 . S
C489 C488 1.331 . S
C489 C490 1.336 . S
C490 C486 1.394 . S
C490 C489 1.336 . S
C490 H505 0.929 . S
C491 C481 1.386 . S
C491 C484 1.357 . S
C491 H504 0.928 . S
H492 C468 0.931 . S
H493 C470 0.930 . S
H494 C472 0.929 . S
H495 C473 0.931 . S
H496 C475 0.930 . S
H497 C479 0.931 . S
H498 C477 0.931 . S
H499 C481 0.931 . S
H500 C482 0.929 . S
H501 C483 0.930 . S
H502 C486 0.930 . S
H503 C487 0.931 . S
H504 C491 0.928 . S
H505 C490 0.929 . S
H506 C488 0.932 . S
C507 C508 1.386 . S
C507 C509 1.397 . S
C507 H531 0.931 . S
C508 C507 1.386 . S
C508 C512 1.397 . S
C509 C507 1.397 . S
C509 C510 1.384 . S
C509 H532 0.930 . S
C510 C509 1.384 . S
C510 C511 1.377 . S
C510 C513 1.481 . S
C511 C510 1.377 . S
C511 C512 1.389 . S
C511 H533 0.929 . S
C512 C508 1.397 . S
C512 C511 1.389 . S
C512 H534 0.931 . S
C513 C510 1.481 . S
C513 C514 1.387 . S
C513 C518 1.390 . S
C514 C513 1.387 . S
C514 C515 1.401 . S
C514 H535 0.930 . S
C515 C514 1.401 . S
C515 C516 1.376 . S
C515 C524 1.511 . S
C516 C515 1.376 . S
C516 C517 1.392 . S
C516 H537 0.931 . S
C517 C516 1.392 . S
C517 C518 1.361 . S
C517 C519 1.500 . S
C518 C513 1.390 . S
C518 C517 1.361 . S
C518 H536 0.931 . S
C519 C517 1.500 . S
C519 C520 1.371 . S
C519 C521 1.365 . S
C520 C519 1.371 . S
C520 C530 1.386 . S
C520 H538 0.931 . S
C521 C519 1.365 . S
C521 C522 1.409 . S
C521 H539 0.929 . S
C522 C521 1.409 . S
C522 C523 1.380 . S
C522 H540 0.930 . S
C523 C522 1.380 . S
C523 C530 1.357 . S
C524 C515 1.511 . S
C524 C525 1.341 . S
C524 C526 1.371 . S
C525 C524 1.341 . S
C525 C529 1.394 . S
C525 H541 0.930 . S
C526 C524 1.371 . S
C526 C527 1.392 . S
C526 H542 0.931 . S
C527 C526 1.392 . S
C527 C528 1.331 . S
C527 H545 0.932 . S
C528 C527 1.331 . S
C528 C529 1.336 . S
C529 C525 1.394 . S
C529 C528 1.336 . S
C529 H544 0.929 . S
C530 C520 1.386 . S
C530 C523 1.357 . S
C530 H543 0.928 . S
H531 C507 0.931 . S
H532 C509 0.930 . S
H533 C511 0.929 . S
H534 C512 0.931 . S
H535 C514 0.930 . S
H536 C518 0.931 . S
H537 C516 0.931 . S
H538 C520 0.931 . S
H539 C521 0.929 . S
H540 C522 0.930 . S
H541 C525 0.930 . S
H542 C526 0.931 . S
H543 C530 0.928 . S
H544 C529 0.929 . S
H545 C527 0.932 . S
C546 C547 1.386 . S
C546 C548 1.397 . S
C546 H570 0.931 . S
C547 C546 1.386 . S
C547 C551 1.397 . S
C548 C546 1.397 . S
C548 C549 1.384 . S
C548 H571 0.930 . S
C549 C548 1.384 . S
C549 C550 1.377 . S
C549 C552 1.481 . S
C550 C549 1.377 . S
C550 C551 1.389 . S
C550 H572 0.929 . S
C551 C547 1.397 . S
C551 C550 1.389 . S
C551 H573 0.931 . S
C552 C549 1.481 . S
C552 C553 1.387 . S
C552 C557 1.390 . S
C553 C552 1.387 . S
C553 C554 1.401 . S
C553 H574 0.930 . S
C554 C553 1.401 . S
C554 C555 1.376 . S
C554 C563 1.511 . S
C555 C554 1.376 . S
C555 C556 1.392 . S
C555 H576 0.931 . S
C556 C555 1.392 . S
C556 C557 1.361 . S
C556 C558 1.500 . S
C557 C552 1.390 . S
C557 C556 1.361 . S
C557 H575 0.931 . S
C558 C556 1.500 . S
C558 C559 1.371 . S
C558 C560 1.365 . S
C559 C558 1.371 . S
C559 C569 1.386 . S
C559 H577 0.931 . S
C560 C558 1.365 . S
C560 C561 1.409 . S
C560 H578 0.929 . S
C561 C560 1.409 . S
C561 C562 1.380 . S
C561 H579 0.930 . S
C562 C561 1.380 . S
C562 C569 1.357 . S
C563 C554 1.511 . S
C563 C564 1.341 . S
C563 C565 1.371 . S
C564 C563 1.341 . S
C564 C568 1.394 . S
C564 H580 0.930 . S
C565 C563 1.371 . S
C565 C566 1.392 . S
C565 H581 0.931 . S
C566 C565 1.392 . S
C566 C567 1.331 . S
C566 H584 0.932 . S
C567 C566 1.331 . S
C567 C568 1.336 . S
C568 C564 1.394 . S
C568 C567 1.336 . S
C568 H583 0.929 . S
C569 C559 1.386 . S
C569 C562 1.357 . S
C569 H582 0.928 . S
H570 C546 0.931 . S
H571 C548 0.930 . S
H572 C550 0.929 . S
H573 C551 0.931 . S
H574 C553 0.930 . S
H575 C557 0.931 . S
H576 C555 0.931 . S
H577 C559 0.931 . S
H578 C560 0.929 . S
H579 C561 0.930 . S
H580 C564 0.930 . S
H581 C565 0.931 . S
H582 C569 0.928 . S
H583 C568 0.929 . S
H584 C566 0.932 . S
C585 C586 1.386 . S
C585 C587 1.397 . S
C585 H609 0.931 . S
C586 C585 1.386 . S
C586 C590 1.397 . S
C587 C585 1.397 . S
C587 C588 1.384 . S
C587 H610 0.930 . S
C588 C587 1.384 . S
C588 C589 1.377 . S
C588 C591 1.481 . S
C589 C588 1.377 . S
C589 C590 1.389 . S
C589 H611 0.929 . S
C590 C586 1.397 . S
C590 C589 1.389 . S
C590 H612 0.931 . S
C591 C588 1.481 . S
C591 C592 1.387 . S
C591 C596 1.390 . S
C592 C591 1.387 . S
C592 C593 1.401 . S
C592 H613 0.930 . S
C593 C592 1.401 . S
C593 C594 1.376 . S
C593 C602 1.511 . S
C594 C593 1.376 . S
C594 C595 1.392 . S
C594 H615 0.931 . S
C595 C594 1.392 . S
C595 C596 1.361 . S
C595 C597 1.500 . S
C596 C591 1.390 . S
C596 C595 1.361 . S
C596 H614 0.931 . S
C597 C595 1.500 . S
C597 C598 1.371 . S
C597 C599 1.365 . S
C598 C597 1.371 . S
C598 C608 1.386 . S
C598 H616 0.931 . S
C599 C597 1.365 . S
C599 C600 1.409 . S
C599 H617 0.929 . S
C600 C599 1.409 . S
C600 C601 1.380 . S
C600 H618 0.930 . S
C601 C600 1.380 . S
C601 C608 1.357 . S
C602 C593 1.511 . S
C602 C603 1.341 . S
C602 C604 1.371 . S
C603 C602 1.341 . S
C603 C607 1.394 . S
C603 H619 0.930 . S
C604 C602 1.371 . S
C604 C605 1.392 . S
C604 H620 0.931 . S
C605 C604 1.392 . S
C605 C606 1.331 . S
C605 H623 0.932 . S
C606 C605 1.331 . S
C606 C607 1.336 . S
C607 C603 1.394 . S
C607 C606 1.336 . S
C607 H622 0.929 . S
C608 C598 1.386 . S
C608 C601 1.357 . S
C608 H621 0.928 . S
H609 C585 0.931 . S
H610 C587 0.930 . S
H611 C589 0.929 . S
H612 C590 0.931 . S
H613 C592 0.930 . S
H614 C596 0.931 . S
H615 C594 0.931 . S
H616 C598 0.931 . S
H617 C599 0.929 . S
H618 C600 0.930 . S
H619 C603 0.930 . S
H620 C604 0.931 . S
H621 C608 0.928 . S
H622 C607 0.929 . S
H623 C605 0.932 . S
C624 C625 1.386 1_655 S
C624 C626 1.397 1_655 S
C624 H648 0.931 . S
C625 C624 1.386 1_455 S
C625 C629 1.397 . S
C626 C624 1.397 1_455 S
C626 C627 1.384 . S
C626 H649 0.930 1_455 S
C627 C626 1.384 . S
C627 C628 1.377 . S
C627 C630 1.481 . S
C628 C627 1.377 . S
C628 C629 1.389 . S
C628 H650 0.929 . S
C629 C625 1.397 . S
C629 C628 1.389 . S
C629 H651 0.931 . S
C630 C627 1.481 . S
C630 C631 1.387 . S
C630 C635 1.390 . S
C631 C630 1.387 . S
C631 C632 1.401 . S
C631 H652 0.930 . S
C632 C631 1.401 . S
C632 C633 1.376 . S
C632 C641 1.511 . S
C633 C632 1.376 . S
C633 C634 1.392 . S
C633 H654 0.931 . S
C634 C633 1.392 . S
C634 C635 1.361 . S
C634 C636 1.500 . S
C635 C630 1.390 . S
C635 C634 1.361 . S
C635 H653 0.931 . S
C636 C634 1.500 . S
C636 C637 1.371 . S
C636 C638 1.365 . S
C637 C636 1.371 . S
C637 C647 1.386 . S
C637 H655 0.931 . S
C638 C636 1.365 . S
C638 C639 1.409 . S
C638 H656 0.929 . S
C639 C638 1.409 . S
C639 C640 1.380 . S
C639 H657 0.930 . S
C640 C639 1.380 . S
C640 C647 1.357 . S
C641 C632 1.511 . S
C641 C642 1.341 . S
C641 C643 1.371 . S
C642 C641 1.341 . S
C642 C646 1.394 . S
C642 H658 0.930 . S
C643 C641 1.371 . S
C643 C644 1.392 . S
C643 H659 0.931 . S
C644 C643 1.392 . S
C644 C645 1.331 . S
C644 H662 0.932 . S
C645 C644 1.331 . S
C645 C646 1.336 . S
C646 C642 1.394 . S
C646 C645 1.336 . S
C646 H661 0.929 . S
C647 C637 1.386 . S
C647 C640 1.357 . S
C647 H660 0.928 . S
H648 C624 0.931 . S
H649 C626 0.930 1_655 S
H650 C628 0.929 . S
H651 C629 0.931 . S
H652 C631 0.930 . S
H653 C635 0.931 . S
H654 C633 0.931 . S
H655 C637 0.931 . S
H656 C638 0.929 . S
H657 C639 0.930 . S
H658 C642 0.930 . S
H659 C643 0.931 . S
H660 C647 0.928 . S
H661 C646 0.929 . S
H662 C644 0.932 . S
C663 C664 1.386 . S
C663 C665 1.397 . S
C663 H687 0.931 . S
C664 C663 1.386 . S
C664 C668 1.397 . S
C665 C663 1.397 . S
C665 C666 1.384 . S
C665 H688 0.930 . S
C666 C665 1.384 . S
C666 C667 1.377 . S
C666 C669 1.481 . S
C667 C666 1.377 . S
C667 C668 1.389 . S
C667 H689 0.929 . S
C668 C664 1.397 . S
C668 C667 1.389 . S
C668 H690 0.931 . S
C669 C666 1.481 . S
C669 C670 1.387 . S
C669 C674 1.390 . S
C670 C669 1.387 . S
C670 C671 1.401 . S
C670 H691 0.930 . S
C671 C670 1.401 . S
C671 C672 1.376 . S
C671 C680 1.511 . S
C672 C671 1.376 . S
C672 C673 1.392 . S
C672 H693 0.931 . S
C673 C672 1.392 . S
C673 C674 1.361 . S
C673 C675 1.500 . S
C674 C669 1.390 . S
C674 C673 1.361 . S
C674 H692 0.931 . S
C675 C673 1.500 . S
C675 C676 1.371 . S
C675 C677 1.365 . S
C676 C675 1.371 . S
C676 C686 1.386 . S
C676 H694 0.931 . S
C677 C675 1.365 . S
C677 C678 1.409 . S
C677 H695 0.929 . S
C678 C677 1.409 . S
C678 C679 1.380 . S
C678 H696 0.930 . S
C679 C678 1.380 . S
C679 C686 1.357 . S
C680 C671 1.511 . S
C680 C681 1.341 . S
C680 C682 1.371 . S
C681 C680 1.341 . S
C681 C685 1.394 . S
C681 H697 0.930 . S
C682 C680 1.371 . S
C682 C683 1.392 . S
C682 H698 0.931 . S
C683 C682 1.392 . S
C683 C684 1.331 . S
C683 H701 0.932 . S
C684 C683 1.331 . S
C684 C685 1.336 . S
C685 C681 1.394 . S
C685 C684 1.336 . S
C685 H700 0.929 . S
C686 C676 1.386 . S
C686 C679 1.357 . S
C686 H699 0.928 . S
H687 C663 0.931 . S
H688 C665 0.930 . S
H689 C667 0.929 . S
H690 C668 0.931 . S
H691 C670 0.930 . S
H692 C674 0.931 . S
H693 C672 0.931 . S
H694 C676 0.931 . S
H695 C677 0.929 . S
H696 C678 0.930 . S
H697 C681 0.930 . S
H698 C682 0.931 . S
H699 C686 0.928 . S
H700 C685 0.929 . S
H701 C683 0.932 . S
Tb702 C712 2.825 . S
Tb702 O713 2.347 1_565 S
Tb702 O716 2.366 1_565 S
Tb702 O721 2.418 . S
Tb702 O722 2.409 . S
Tb702 O725 2.479 . S
Tb702 O726 2.450 1_565 S
Eu703 O714 2.418 . S
Eu703 O715 2.384 . S
Eu703 O718 2.479 . S
Eu703 O719 2.469 . S
Eu703 O720 2.347 1_545 S
Eu703 O723 2.366 1_545 S
Eu703 C733 2.825 . S
C704 O720 1.259 . S
C704 O721 1.265 1_554 S
C705 O722 1.225 1_554 S
C705 O723 1.265 . S
C706 C708 1.380 . S
C706 C709 1.374 1_565 S
C706 C712 1.507 . S
C707 C708 1.384 . S
C707 C711 1.387 1_565 S
C707 H734 0.930 . S
C708 C706 1.380 . S
C708 C707 1.384 . S
C708 H735 0.931 . S
C709 C706 1.374 1_545 S
C709 C710 1.390 . S
C709 H736 0.930 . S
C710 C709 1.390 . S
C710 C711 1.391 . S
C710 H737 0.930 . S
C711 C707 1.387 1_545 S
C711 C710 1.391 . S
C712 Tb702 2.825 . S
C712 C706 1.507 . S
C712 O725 1.238 . S
C712 O726 1.215 1_565 S
O713 Tb702 2.347 1_545 S
O713 C717 1.259 . S
O714 Eu703 2.418 . S
O714 C717 1.265 1_554 S
O715 Eu703 2.384 . S
O715 C724 1.255 1_554 S
O716 Tb702 2.366 1_545 S
O716 C724 1.265 . S
C717 O713 1.259 . S
C717 O714 1.265 1_556 S
O718 Eu703 2.479 . S
O718 C733 1.238 . S
O719 Eu703 2.469 . S
O719 C733 1.244 . S
O720 Eu703 2.347 1_565 S
O720 C704 1.259 . S
O721 Tb702 2.418 . S
O721 C704 1.265 1_556 S
O722 Tb702 2.409 . S
O722 C705 1.225 1_556 S
O723 Eu703 2.366 1_565 S
O723 C705 1.265 . S
C724 O715 1.255 1_556 S
C724 O716 1.265 . S
O725 Tb702 2.479 . S
O725 C712 1.238 . S
O726 Tb702 2.450 1_545 S
O726 C712 1.215 1_545 S
C727 C730 1.380 . S
C727 C731 1.374 1_545 S
C727 C733 1.507 . S
C728 C729 1.387 1_565 S
C728 C732 1.391 . S
C729 C728 1.387 1_545 S
C729 C730 1.384 . S
C729 H738 0.930 . S
C730 C727 1.380 . S
C730 C729 1.384 . S
C730 H739 0.931 . S
C731 C727 1.374 1_565 S
C731 C732 1.390 . S
C731 H740 0.930 . S
C732 C728 1.391 . S
C732 C731 1.390 . S
C732 H741 0.930 . S
C733 Eu703 2.825 . S
C733 O718 1.238 . S
C733 O719 1.244 . S
C733 C727 1.507 . S
H734 C707 0.930 . S
H735 C708 0.931 . S
H736 C709 0.930 . S
H737 C710 0.930 . S
H738 C729 0.930 . S
H739 C730 0.931 . S
H740 C731 0.930 . S
H741 C732 0.930 . S
Tb742 C752 2.825 . S
Tb742 O753 2.347 1_455 S
Tb742 O756 2.366 1_455 S
Tb742 O761 2.418 . S
Tb742 O762 2.384 1_556 S
Tb742 O765 2.479 . S
Tb742 O766 2.471 1_455 S
Eu743 O754 2.418 . S
Eu743 O755 2.387 1_554 S
Eu743 O758 2.479 . S
Eu743 O759 2.471 1_655 S
Eu743 O760 2.347 1_655 S
Eu743 O763 2.366 1_655 S
Eu743 C773 2.825 . S
C744 O760 1.259 . S
C744 O761 1.265 1_554 S
C745 O762 1.255 . S
C745 O763 1.265 . S
C746 C748 1.380 . S
C746 C749 1.374 1_455 S
C746 C752 1.507 . S
C747 C748 1.384 . S
C747 C751 1.387 1_455 S
C747 H774 0.930 . S
C748 C746 1.380 . S
C748 C747 1.384 . S
C748 H775 0.931 . S
C749 C746 1.374 1_655 S
C749 C750 1.390 . S
C749 H776 0.930 . S
C750 C749 1.390 . S
C750 C751 1.391 . S
C750 H777 0.930 . S
C751 C747 1.387 1_655 S
C751 C750 1.391 . S
C752 Tb742 2.825 . S
C752 C746 1.507 . S
C752 O765 1.238 . S
C752 O766 1.247 1_455 S
O753 Tb742 2.347 1_655 S
O753 C757 1.259 . S
O754 Eu743 2.418 . S
O754 C757 1.265 1_554 S
O755 Eu743 2.387 1_556 S
O755 C764 1.252 . S
O756 Tb742 2.366 1_655 S
O756 C764 1.265 . S
C757 O753 1.259 . S
C757 O754 1.265 1_556 S
O758 Eu743 2.479 . S
O758 C773 1.238 . S
O759 Eu743 2.471 1_455 S
O759 C773 1.247 1_455 S
O760 Eu743 2.347 1_455 S
O760 C744 1.259 . S
O761 Tb742 2.418 . S
O761 C744 1.265 1_556 S
O762 Tb742 2.384 1_554 S
O762 C745 1.255 . S
O763 Eu743 2.366 1_455 S
O763 C745 1.265 . S
C764 O755 1.252 . S
C764 O756 1.265 . S
O765 Tb742 2.479 . S
O765 C752 1.238 . S
O766 Tb742 2.471 1_655 S
O766 C752 1.247 1_655 S
C767 C770 1.380 . S
C767 C771 1.374 1_655 S
C767 C773 1.507 . S
C768 C769 1.387 1_455 S
C768 C772 1.391 . S
C769 C768 1.387 1_655 S
C769 C770 1.384 . S
C769 H778 0.930 . S
C770 C767 1.380 . S
C770 C769 1.384 . S
C770 H779 0.931 . S
C771 C767 1.374 1_455 S
C771 C772 1.390 . S
C771 H780 0.930 . S
C772 C768 1.391 . S
C772 C771 1.390 . S
C772 H781 0.930 . S
C773 Eu743 2.825 . S
C773 O758 1.238 . S
C773 O759 1.247 1_655 S
C773 C767 1.507 . S
H774 C747 0.930 . S
H775 C748 0.931 . S
H776 C749 0.930 . S
H777 C750 0.930 . S
H778 C769 0.930 . S
H779 C770 0.931 . S
H780 C771 0.930 . S
H781 C772 0.930 . S
Tb782 C792 2.825 . S
Tb782 O793 2.347 . S
Tb782 O796 2.366 . S
Tb782 O801 2.418 . S
Tb782 O802 2.384 . S
Tb782 O805 2.479 . S
Tb782 O806 2.471 . S
Eu783 O794 2.418 . S
Eu783 O795 2.384 1_556 S
Eu783 O798 2.479 . S
Eu783 O799 2.471 . S
Eu783 O800 2.347 . S
Eu783 O803 2.366 . S
Eu783 C813 2.825 . S
C784 O800 1.259 . S
C784 O801 1.265 1_556 S
C785 O802 1.255 1_556 S
C785 O803 1.265 . S
C786 C788 1.380 . S
C786 C789 1.374 . S
C786 C792 1.507 . S
C787 C788 1.384 . S
C787 C791 1.387 . S
C787 H814 0.930 . S
C788 C786 1.380 . S
C788 C787 1.384 . S
C788 H815 0.931 . S
C789 C786 1.374 . S
C789 C790 1.390 . S
C789 H816 0.930 . S
C790 C789 1.390 . S
C790 C791 1.391 . S
C790 H817 0.930 . S
C791 C787 1.387 . S
C791 C790 1.391 . S
C792 Tb782 2.825 . S
C792 C786 1.507 . S
C792 O805 1.238 . S
C792 O806 1.247 . S
O793 Tb782 2.347 . S
O793 C797 1.259 . S
O794 Eu783 2.418 . S
O794 C797 1.265 1_556 S
O795 Eu783 2.384 1_554 S
O795 C804 1.255 . S
O796 Tb782 2.366 . S
O796 C804 1.265 . S
C797 O793 1.259 . S
C797 O794 1.265 1_554 S
O798 Eu783 2.479 . S
O798 C813 1.238 . S
O799 Eu783 2.471 . S
O799 C813 1.247 . S
O800 Eu783 2.347 . S
O800 C784 1.259 . S
O801 Tb782 2.418 . S
O801 C784 1.265 1_554 S
O802 Tb782 2.384 . S
O802 C785 1.255 1_554 S
O803 Eu783 2.366 . S
O803 C785 1.265 . S
C804 O795 1.255 . S
C804 O796 1.265 . S
O805 Tb782 2.479 . S
O805 C792 1.238 . S
O806 Tb782 2.471 . S
O806 C792 1.247 . S
C807 C810 1.380 . S
C807 C811 1.374 . S
C807 C813 1.507 . S
C808 C809 1.387 . S
C808 C812 1.391 . S
C809 C808 1.387 . S
C809 C810 1.384 . S
C809 H818 0.930 . S
C810 C807 1.380 . S
C810 C809 1.384 . S
C810 H819 0.931 . S
C811 C807 1.374 . S
C811 C812 1.390 . S
C811 H820 0.930 . S
C812 C808 1.391 . S
C812 C811 1.390 . S
C812 H821 0.930 . S
C813 Eu783 2.825 . S
C813 O798 1.238 . S
C813 O799 1.247 . S
C813 C807 1.507 . S
H814 C787 0.930 . S
H815 C788 0.931 . S
H816 C789 0.930 . S
H817 C790 0.930 . S
H818 C809 0.930 . S
H819 C810 0.931 . S
H820 C811 0.930 . S
H821 C812 0.930 . S
Tb822 C832 2.825 . S
Tb822 O833 2.347 . S
Tb822 O836 2.366 . S
Tb822 O841 2.418 . S
Tb822 O842 2.384 . S
Tb822 O845 2.479 . S
Tb822 O846 2.471 . S
Eu823 O834 2.418 . S
Eu823 O835 2.384 . S
Eu823 O838 2.479 . S
Eu823 O839 2.471 . S
Eu823 O840 2.347 . S
Eu823 O843 2.366 . S
Eu823 C853 2.825 . S
C824 O840 1.259 . S
C824 O841 1.265 . S
C825 O842 1.255 . S
C825 O843 1.265 . S
C826 C828 1.380 . S
C826 C829 1.374 . S
C826 C832 1.507 . S
C827 C828 1.384 . S
C827 C831 1.387 . S
C827 H854 0.930 . S
C828 C826 1.380 . S
C828 C827 1.384 . S
C828 H855 0.931 . S
C829 C826 1.374 . S
C829 C830 1.390 . S
C829 H856 0.930 . S
C830 C829 1.390 . S
C830 C831 1.391 . S
C830 H857 0.930 . S
C831 C827 1.387 . S
C831 C830 1.391 . S
C832 Tb822 2.825 . S
C832 C826 1.507 . S
C832 O845 1.238 . S
C832 O846 1.247 . S
O833 Tb822 2.347 . S
O833 C837 1.259 . S
O834 Eu823 2.418 . S
O834 C837 1.265 . S
O835 Eu823 2.384 . S
O835 C844 1.255 . S
O836 Tb822 2.366 . S
O836 C844 1.265 . S
C837 O833 1.259 . S
C837 O834 1.265 . S
O838 Eu823 2.479 . S
O838 C853 1.238 . S
O839 Eu823 2.471 . S
O839 C853 1.247 . S
O840 Eu823 2.347 . S
O840 C824 1.259 . S
O841 Tb822 2.418 . S
O841 C824 1.265 . S
O842 Tb822 2.384 . S
O842 C825 1.255 . S
O843 Eu823 2.366 . S
O843 C825 1.265 . S
C844 O835 1.255 . S
C844 O836 1.265 . S
O845 Tb822 2.479 . S
O845 C832 1.238 . S
O846 Tb822 2.471 . S
O846 C832 1.247 . S
C847 C850 1.380 . S
C847 C851 1.374 . S
C847 C853 1.507 . S
C848 C849 1.387 . S
C848 C852 1.391 . S
C849 C848 1.387 . S
C849 C850 1.384 . S
C849 H858 0.930 . S
C850 C847 1.380 . S
C850 C849 1.384 . S
C850 H859 0.931 . S
C851 C847 1.374 . S
C851 C852 1.390 . S
C851 H860 0.930 . S
C852 C848 1.391 . S
C852 C851 1.390 . S
C852 H861 0.930 . S
C853 Eu823 2.825 . S
C853 O838 1.238 . S
C853 O839 1.247 . S
C853 C847 1.507 . S
H854 C827 0.930 . S
H855 C828 0.931 . S
H856 C829 0.930 . S
H857 C830 0.930 . S
H858 C849 0.930 . S
H859 C850 0.931 . S
H860 C851 0.930 . S
H861 C852 0.930 . S
Tb862 C872 2.825 . S
Tb862 O873 2.347 . S
Tb862 O876 2.366 . S
Tb862 O881 2.418 . S
Tb862 O882 2.384 . S
Tb862 O885 2.479 . S
Tb862 O886 2.471 . S
Eu863 O874 2.418 . S
Eu863 O875 2.384 . S
Eu863 O878 2.479 . S
Eu863 O879 2.471 . S
Eu863 O880 2.347 . S
Eu863 O883 2.366 . S
Eu863 C893 2.825 . S
C864 O880 1.259 . S
C864 O881 1.265 . S
C865 O882 1.255 . S
C865 O883 1.265 . S
C866 C868 1.380 . S
C866 C869 1.374 . S
C866 C872 1.507 . S
C867 C868 1.384 . S
C867 C871 1.387 . S
C867 H894 0.930 . S
C868 C866 1.380 . S
C868 C867 1.384 . S
C868 H895 0.931 . S
C869 C866 1.374 . S
C869 C870 1.390 . S
C869 H896 0.930 . S
C870 C869 1.390 . S
C870 C871 1.391 . S
C870 H897 0.930 . S
C871 C867 1.387 . S
C871 C870 1.391 . S
C872 Tb862 2.825 . S
C872 C866 1.507 . S
C872 O885 1.238 . S
C872 O886 1.247 . S
O873 Tb862 2.347 . S
O873 C877 1.259 . S
O874 Eu863 2.418 . S
O874 C877 1.265 . S
O875 Eu863 2.384 . S
O875 C884 1.255 . S
O876 Tb862 2.366 . S
O876 C884 1.265 . S
C877 O873 1.259 . S
C877 O874 1.265 . S
O878 Eu863 2.479 . S
O878 C893 1.238 . S
O879 Eu863 2.471 . S
O879 C893 1.247 . S
O880 Eu863 2.347 . S
O880 C864 1.259 . S
O881 Tb862 2.418 . S
O881 C864 1.265 . S
O882 Tb862 2.384 . S
O882 C865 1.255 . S
O883 Eu863 2.366 . S
O883 C865 1.265 . S
C884 O875 1.255 . S
C884 O876 1.265 . S
O885 Tb862 2.479 . S
O885 C872 1.238 . S
O886 Tb862 2.471 . S
O886 C872 1.247 . S
C887 C890 1.380 . S
C887 C891 1.374 . S
C887 C893 1.507 . S
C888 C889 1.387 . S
C888 C892 1.391 . S
C889 C888 1.387 . S
C889 C890 1.384 . S
C889 H898 0.930 . S
C890 C887 1.380 . S
C890 C889 1.384 . S
C890 H899 0.931 . S
C891 C887 1.374 . S
C891 C892 1.390 . S
C891 H900 0.930 . S
C892 C888 1.391 . S
C892 C891 1.390 . S
C892 H901 0.930 . S
C893 Eu863 2.825 . S
C893 O878 1.238 . S
C893 O879 1.247 . S
C893 C887 1.507 . S
H894 C867 0.930 . S
H895 C868 0.931 . S
H896 C869 0.930 . S
H897 C870 0.930 . S
H898 C889 0.930 . S
H899 C890 0.931 . S
H900 C891 0.930 . S
H901 C892 0.930 . S
Tb902 C912 2.825 . S
Tb902 O913 2.347 . S
Tb902 O916 2.366 . S
Tb902 O921 2.418 . S
Tb902 O922 2.384 . S
Tb902 O925 2.479 . S
Tb902 O926 2.471 . S
Eu903 O914 2.418 . S
Eu903 O915 2.384 . S
Eu903 O918 2.479 . S
Eu903 O919 2.471 . S
Eu903 O920 2.347 . S
Eu903 O923 2.366 . S
Eu903 C933 2.825 . S
C904 O920 1.259 . S
C904 O921 1.265 . S
C905 O922 1.255 . S
C905 O923 1.265 . S
C906 C908 1.380 . S
C906 C909 1.374 . S
C906 C912 1.507 . S
C907 C908 1.384 . S
C907 C911 1.387 . S
C907 H934 0.930 . S
C908 C906 1.380 . S
C908 C907 1.384 . S
C908 H935 0.931 . S
C909 C906 1.374 . S
C909 C910 1.390 . S
C909 H936 0.930 . S
C910 C909 1.390 . S
C910 C911 1.391 . S
C910 H937 0.930 . S
C911 C907 1.387 . S
C911 C910 1.391 . S
C912 Tb902 2.825 . S
C912 C906 1.507 . S
C912 O925 1.238 . S
C912 O926 1.247 . S
O913 Tb902 2.347 . S
O913 C917 1.259 . S
O914 Eu903 2.418 . S
O914 C917 1.265 . S
O915 Eu903 2.384 . S
O915 C924 1.255 . S
O916 Tb902 2.366 . S
O916 C924 1.265 . S
C917 O913 1.259 . S
C917 O914 1.265 . S
O918 Eu903 2.479 . S
O918 C933 1.238 . S
O919 Eu903 2.471 . S
O919 C933 1.247 . S
O920 Eu903 2.347 . S
O920 C904 1.259 . S
O921 Tb902 2.418 . S
O921 C904 1.265 . S
O922 Tb902 2.384 . S
O922 C905 1.255 . S
O923 Eu903 2.366 . S
O923 C905 1.265 . S
C924 O915 1.255 . S
C924 O916 1.265 . S
O925 Tb902 2.479 . S
O925 C912 1.238 . S
O926 Tb902 2.471 . S
O926 C912 1.247 . S
C927 C930 1.380 . S
C927 C931 1.374 . S
C927 C933 1.507 . S
C928 C929 1.387 . S
C928 C932 1.391 . S
C929 C928 1.387 . S
C929 C930 1.384 . S
C929 H938 0.930 . S
C930 C927 1.380 . S
C930 C929 1.384 . S
C930 H939 0.931 . S
C931 C927 1.374 . S
C931 C932 1.390 . S
C931 H940 0.930 . S
C932 C928 1.391 . S
C932 C931 1.390 . S
C932 H941 0.930 . S
C933 Eu903 2.825 . S
C933 O918 1.238 . S
C933 O919 1.247 . S
C933 C927 1.507 . S
H934 C907 0.930 . S
H935 C908 0.931 . S
H936 C909 0.930 . S
H937 C910 0.930 . S
H938 C929 0.930 . S
H939 C930 0.931 . S
H940 C931 0.930 . S
H941 C932 0.930 . S
Tb942 C952 2.825 . S
Tb942 O953 2.347 . S
Tb942 O956 2.366 . S
Tb942 O961 2.418 . S
Tb942 O962 2.384 . S
Tb942 O965 2.479 . S
Tb942 O966 2.471 . S
Eu943 O954 2.418 . S
Eu943 O955 2.384 . S
Eu943 O958 2.479 . S
Eu943 O959 2.471 . S
Eu943 O960 2.347 . S
Eu943 O963 2.366 . S
Eu943 C973 2.825 . S
C944 O960 1.259 . S
C944 O961 1.265 . S
C945 O962 1.255 . S
C945 O963 1.265 . S
C946 C948 1.380 . S
C946 C949 1.374 . S
C946 C952 1.507 . S
C947 C948 1.384 . S
C947 C951 1.387 . S
C947 H974 0.930 . S
C948 C946 1.380 . S
C948 C947 1.384 . S
C948 H975 0.931 . S
C949 C946 1.374 . S
C949 C950 1.390 . S
C949 H976 0.930 . S
C950 C949 1.390 . S
C950 C951 1.391 . S
C950 H977 0.930 . S
C951 C947 1.387 . S
C951 C950 1.391 . S
C952 Tb942 2.825 . S
C952 C946 1.507 . S
C952 O965 1.238 . S
C952 O966 1.247 . S
O953 Tb942 2.347 . S
O953 C957 1.259 . S
O954 Eu943 2.418 . S
O954 C957 1.265 . S
O955 Eu943 2.384 . S
O955 C964 1.255 . S
O956 Tb942 2.366 . S
O956 C964 1.265 . S
C957 O953 1.259 . S
C957 O954 1.265 . S
O958 Eu943 2.479 . S
O958 C973 1.238 . S
O959 Eu943 2.471 . S
O959 C973 1.247 . S
O960 Eu943 2.347 . S
O960 C944 1.259 . S
O961 Tb942 2.418 . S
O961 C944 1.265 . S
O962 Tb942 2.384 . S
O962 C945 1.255 . S
O963 Eu943 2.366 . S
O963 C945 1.265 . S
C964 O955 1.255 . S
C964 O956 1.265 . S
O965 Tb942 2.479 . S
O965 C952 1.238 . S
O966 Tb942 2.471 . S
O966 C952 1.247 . S
C967 C970 1.380 . S
C967 C971 1.374 . S
C967 C973 1.507 . S
C968 C969 1.387 . S
C968 C972 1.391 . S
C969 C968 1.387 . S
C969 C970 1.384 . S
C969 H978 0.930 . S
C970 C967 1.380 . S
C970 C969 1.384 . S
C970 H979 0.931 . S
C971 C967 1.374 . S
C971 C972 1.390 . S
C971 H980 0.930 . S
C972 C968 1.391 . S
C972 C971 1.390 . S
C972 H981 0.930 . S
C973 Eu943 2.825 . S
C973 O958 1.238 . S
C973 O959 1.247 . S
C973 C967 1.507 . S
H974 C947 0.930 . S
H975 C948 0.931 . S
H976 C949 0.930 . S
H977 C950 0.930 . S
H978 C969 0.930 . S
H979 C970 0.931 . S
H980 C971 0.930 . S
H981 C972 0.930 . S
Tb982 C992 2.825 . S
Tb982 O993 2.347 . S
Tb982 O996 2.366 . S
Tb982 O1001 2.418 . S
Tb982 O1002 2.384 . S
Tb982 O1005 2.479 . S
Tb982 O1006 2.471 . S
Eu983 O994 2.418 . S
Eu983 O995 2.384 . S
Eu983 O998 2.479 . S
Eu983 O999 2.471 . S
Eu983 O1000 2.347 . S
Eu983 O1003 2.366 . S
Eu983 C1013 2.825 . S
C984 O1000 1.259 . S
C984 O1001 1.265 . S
C985 O1002 1.255 . S
C985 O1003 1.265 . S
C986 C988 1.380 . S
C986 C989 1.374 . S
C986 C992 1.507 . S
C987 C988 1.384 . S
C987 C991 1.387 . S
C987 H1014 0.930 . S
C988 C986 1.380 . S
C988 C987 1.384 . S
C988 H1015 0.931 . S
C989 C986 1.374 . S
C989 C990 1.390 . S
C989 H1016 0.930 . S
C990 C989 1.390 . S
C990 C991 1.391 . S
C990 H1017 0.930 . S
C991 C987 1.387 . S
C991 C990 1.391 . S
C992 Tb982 2.825 . S
C992 C986 1.507 . S
C992 O1005 1.238 . S
C992 O1006 1.247 . S
O993 Tb982 2.347 . S
O993 C997 1.259 . S
O994 Eu983 2.418 . S
O994 C997 1.265 . S
O995 Eu983 2.384 . S
O995 C1004 1.255 . S
O996 Tb982 2.366 . S
O996 C1004 1.265 . S
C997 O993 1.259 . S
C997 O994 1.265 . S
O998 Eu983 2.479 . S
O998 C1013 1.238 . S
O999 Eu983 2.471 . S
O999 C1013 1.247 . S
O1000 Eu983 2.347 . S
O1000 C984 1.259 . S
O1001 Tb982 2.418 . S
O1001 C984 1.265 . S
O1002 Tb982 2.384 . S
O1002 C985 1.255 . S
O1003 Eu983 2.366 . S
O1003 C985 1.265 . S
C1004 O995 1.255 . S
C1004 O996 1.265 . S
O1005 Tb982 2.479 . S
O1005 C992 1.238 . S
O1006 Tb982 2.471 . S
O1006 C992 1.247 . S
C1007 C1010 1.380 . S
C1007 C1011 1.374 . S
C1007 C1013 1.507 . S
C1008 C1009 1.387 . S
C1008 C1012 1.391 . S
C1009 C1008 1.387 . S
C1009 C1010 1.384 . S
C1009 H1018 0.930 . S
C1010 C1007 1.380 . S
C1010 C1009 1.384 . S
C1010 H1019 0.931 . S
C1011 C1007 1.374 . S
C1011 C1012 1.390 . S
C1011 H1020 0.930 . S
C1012 C1008 1.391 . S
C1012 C1011 1.390 . S
C1012 H1021 0.930 . S
C1013 Eu983 2.825 . S
C1013 O998 1.238 . S
C1013 O999 1.247 . S
C1013 C1007 1.507 . S
H1014 C987 0.930 . S
H1015 C988 0.931 . S
H1016 C989 0.930 . S
H1017 C990 0.930 . S
H1018 C1009 0.930 . S
H1019 C1010 0.931 . S
H1020 C1011 0.930 . S
H1021 C1012 0.930 . S
Tb1022 C1032 2.825 . S
Tb1022 O1033 2.347 . S
Tb1022 O1036 2.366 . S
Tb1022 O1041 2.418 . S
Tb1022 O1042 2.384 . S
Tb1022 O1045 2.479 . S
Tb1022 O1046 2.471 . S
Eu1023 O1034 2.418 . S
Eu1023 O1035 2.384 . S
Eu1023 O1038 2.479 . S
Eu1023 O1039 2.471 . S
Eu1023 O1040 2.347 . S
Eu1023 O1043 2.366 . S
Eu1023 C1053 2.825 . S
C1024 O1040 1.259 . S
C1024 O1041 1.265 . S
C1025 O1042 1.255 . S
C1025 O1043 1.265 . S
C1026 C1028 1.380 . S
C1026 C1029 1.374 . S
C1026 C1032 1.507 . S
C1027 C1028 1.384 . S
C1027 C1031 1.387 . S
C1027 H1054 0.930 . S
C1028 C1026 1.380 . S
C1028 C1027 1.384 . S
C1028 H1055 0.931 . S
C1029 C1026 1.374 . S
C1029 C1030 1.390 . S
C1029 H1056 0.930 . S
C1030 C1029 1.390 . S
C1030 C1031 1.391 . S
C1030 H1057 0.930 . S
C1031 C1027 1.387 . S
C1031 C1030 1.391 . S
C1032 Tb1022 2.825 . S
C1032 C1026 1.507 . S
C1032 O1045 1.238 . S
C1032 O1046 1.247 . S
O1033 Tb1022 2.347 . S
O1033 C1037 1.259 . S
O1034 Eu1023 2.418 . S
O1034 C1037 1.265 . S
O1035 Eu1023 2.384 . S
O1035 C1044 1.255 . S
O1036 Tb1022 2.366 . S
O1036 C1044 1.265 . S
C1037 O1033 1.259 . S
C1037 O1034 1.265 . S
O1038 Eu1023 2.479 . S
O1038 C1053 1.238 . S
O1039 Eu1023 2.471 . S
O1039 C1053 1.247 . S
O1040 Eu1023 2.347 . S
O1040 C1024 1.259 . S
O1041 Tb1022 2.418 . S
O1041 C1024 1.265 . S
O1042 Tb1022 2.384 . S
O1042 C1025 1.255 . S
O1043 Eu1023 2.366 . S
O1043 C1025 1.265 . S
C1044 O1035 1.255 . S
C1044 O1036 1.265 . S
O1045 Tb1022 2.479 . S
O1045 C1032 1.238 . S
O1046 Tb1022 2.471 . S
O1046 C1032 1.247 . S
C1047 C1050 1.380 . S
C1047 C1051 1.374 . S
C1047 C1053 1.507 . S
C1048 C1049 1.387 . S
C1048 C1052 1.391 . S
C1049 C1048 1.387 . S
C1049 C1050 1.384 . S
C1049 H1058 0.930 . S
C1050 C1047 1.380 . S
C1050 C1049 1.384 . S
C1050 H1059 0.931 . S
C1051 C1047 1.374 . S
C1051 C1052 1.390 . S
C1051 H1060 0.930 . S
C1052 C1048 1.391 . S
C1052 C1051 1.390 . S
C1052 H1061 0.930 . S
C1053 Eu1023 2.825 . S
C1053 O1038 1.238 . S
C1053 O1039 1.247 . S
C1053 C1047 1.507 . S
H1054 C1027 0.930 . S
H1055 C1028 0.931 . S
H1056 C1029 0.930 . S
H1057 C1030 0.930 . S
H1058 C1049 0.930 . S
H1059 C1050 0.931 . S
H1060 C1051 0.930 . S
H1061 C1052 0.930 . S
H1062 C1068 0.930 . S
H1063 C1071 0.930 . S
H1064 C1072 0.930 . S
H1065 C1073 0.930 . S
H1066 C1076 0.930 . S
H1067 C1077 0.930 . S
C1068 H1062 0.930 . S
C1068 C1069 1.355 . S
C1068 C1070 1.415 . S
C1069 C1068 1.355 . S
C1069 C1071 1.419 . S
C1070 C1068 1.415 . S
C1070 C1075 1.425 . S
C1070 C1077 1.409 . S
C1071 H1063 0.930 . S
C1071 C1069 1.419 . S
C1071 C1072 1.362 . S
C1072 H1064 0.930 . S
C1072 C1071 1.362 . S
C1072 C1075 1.409 . S
C1073 H1065 0.930 . S
C1073 C1074 1.355 . S
C1073 C1075 1.415 . S
C1074 C1073 1.355 . S
C1074 C1076 1.419 . S
C1075 C1070 1.425 . S
C1075 C1072 1.409 . S
C1075 C1073 1.415 . S
C1076 H1066 0.930 . S
C1076 C1074 1.419 . S
C1076 C1077 1.362 . S
C1077 H1067 0.930 . S
C1077 C1070 1.409 . S
C1077 C1076 1.362 . S
H1078 C1084 0.930 . S
H1079 C1087 0.930 . S
H1080 C1088 0.930 . S
H1081 C1089 0.930 . S
H1082 C1092 0.930 . S
H1083 C1093 0.930 . S
C1084 H1078 0.930 . S
C1084 C1085 1.355 . S
C1084 C1086 1.415 . S
C1085 C1084 1.355 . S
C1085 C1087 1.419 . S
C1086 C1084 1.415 . S
C1086 C1091 1.425 . S
C1086 C1093 1.409 . S
C1087 H1079 0.930 . S
C1087 C1085 1.419 . S
C1087 C1088 1.362 . S
C1088 H1080 0.930 . S
C1088 C1087 1.362 . S
C1088 C1091 1.409 . S
C1089 H1081 0.930 . S
C1089 C1090 1.355 . S
C1089 C1091 1.415 . S
C1090 C1089 1.355 . S
C1090 C1092 1.419 . S
C1091 C1086 1.425 . S
C1091 C1088 1.409 . S
C1091 C1089 1.415 . S
C1092 H1082 0.930 . S
C1092 C1090 1.419 . S
C1092 C1093 1.362 . S
C1093 H1083 0.930 . S
C1093 C1086 1.409 . S
C1093 C1092 1.362 . S
H1094 C1100 0.930 . S
H1095 C1103 0.930 . S
H1096 C1104 0.930 . S
H1097 C1105 0.930 . S
H1098 C1108 0.930 1_556 S
H1099 C1109 0.930 1_556 S
C1100 H1094 0.930 . S
C1100 C1101 1.355 . S
C1100 C1102 1.415 . S
C1101 C1100 1.355 . S
C1101 C1103 1.419 . S
C1102 C1100 1.415 . S
C1102 C1107 1.425 . S
C1102 C1109 1.409 . S
C1103 H1095 0.930 . S
C1103 C1101 1.419 . S
C1103 C1104 1.362 . S
C1104 H1096 0.930 . S
C1104 C1103 1.362 . S
C1104 C1107 1.409 . S
C1105 H1097 0.930 . S
C1105 C1106 1.355 . S
C1105 C1107 1.415 . S
C1106 C1105 1.355 . S
C1106 C1108 1.419 . S
C1107 C1102 1.425 . S
C1107 C1104 1.409 . S
C1107 C1105 1.415 . S
C1108 H1098 0.930 1_554 S
C1108 C1106 1.419 . S
C1108 C1109 1.362 . S
C1109 H1099 0.930 1_554 S
C1109 C1102 1.409 . S
C1109 C1108 1.362 . S
H1110 C1116 0.930 . S
H1111 C1119 0.930 . S
H1112 C1120 0.930 . S
H1113 C1121 0.930 . S
H1114 C1124 0.930 . S
H1115 C1125 0.930 . S
C1116 H1110 0.930 . S
C1116 C1117 1.355 . S
C1116 C1118 1.415 . S
C1117 C1116 1.355 . S
C1117 C1119 1.419 . S
C1118 C1116 1.415 . S
C1118 C1123 1.425 . S
C1118 C1125 1.409 . S
C1119 H1111 0.930 . S
C1119 C1117 1.419 . S
C1119 C1120 1.362 . S
C1120 H1112 0.930 . S
C1120 C1119 1.362 . S
C1120 C1123 1.409 . S
C1121 H1113 0.930 . S
C1121 C1122 1.355 . S
C1121 C1123 1.415 . S
C1122 C1121 1.355 . S
C1122 C1124 1.419 . S
C1123 C1118 1.425 . S
C1123 C1120 1.409 . S
C1123 C1121 1.415 . S
C1124 H1114 0.930 . S
C1124 C1122 1.419 . S
C1124 C1125 1.362 . S
C1125 H1115 0.930 . S
C1125 C1118 1.409 . S
C1125 C1124 1.362 . S
H1126 C1132 0.930 . S
H1127 C1135 0.930 . S
H1128 C1136 0.930 . S
H1129 C1137 0.930 . S
H1130 C1140 0.923 1_554 S
H1131 C1141 0.930 . S
C1132 H1126 0.930 . S
C1132 C1133 1.355 . S
C1132 C1134 1.415 . S
C1133 C1132 1.355 . S
C1133 C1135 1.419 . S
C1134 C1132 1.415 . S
C1134 C1139 1.425 . S
C1134 C1141 1.409 . S
C1135 H1127 0.930 . S
C1135 C1133 1.419 . S
C1135 C1136 1.362 . S
C1136 H1128 0.930 . S
C1136 C1135 1.362 . S
C1136 C1139 1.409 . S
C1137 H1129 0.930 . S
C1137 C1138 1.355 . S
C1137 C1139 1.415 . S
C1138 C1137 1.355 . S
C1138 C1140 1.419 . S
C1139 C1134 1.425 . S
C1139 C1136 1.409 . S
C1139 C1137 1.415 . S
C1140 H1130 0.923 1_556 S
C1140 C1138 1.419 . S
C1140 C1141 1.362 . S
C1141 H1131 0.930 . S
C1141 C1134 1.409 . S
C1141 C1140 1.362 . S
H1142 C1148 0.930 . S
H1143 C1151 0.930 . S
H1144 C1152 0.930 . S
H1145 C1153 0.930 . S
H1146 C1156 0.930 . S
H1147 C1157 0.930 . S
C1148 H1142 0.930 . S
C1148 C1149 1.355 . S
C1148 C1150 1.415 . S
C1149 C1148 1.355 . S
C1149 C1151 1.419 . S
C1150 C1148 1.415 . S
C1150 C1155 1.425 . S
C1150 C1157 1.409 . S
C1151 H1143 0.930 . S
C1151 C1149 1.419 . S
C1151 C1152 1.362 . S
C1152 H1144 0.930 . S
C1152 C1151 1.362 . S
C1152 C1155 1.409 . S
C1153 H1145 0.930 . S
C1153 C1154 1.355 . S
C1153 C1155 1.415 . S
C1154 C1153 1.355 . S
C1154 C1156 1.419 . S
C1155 C1150 1.425 . S
C1155 C1152 1.409 . S
C1155 C1153 1.415 . S
C1156 H1146 0.930 . S
C1156 C1154 1.419 . S
C1156 C1157 1.362 . S
C1157 H1147 0.930 . S
C1157 C1150 1.409 . S
C1157 C1156 1.362 . S
H1158 C1164 0.930 . S
H1159 C1167 0.930 . S
H1160 C1168 0.930 . S
H1161 C1169 0.930 . S
H1162 C1172 0.866 1_554 S
H1163 C1173 0.930 1_554 S
C1164 H1158 0.930 . S
C1164 C1165 1.355 . S
C1164 C1166 1.415 . S
C1165 C1164 1.355 . S
C1165 C1167 1.419 . S
C1166 C1164 1.415 . S
C1166 C1171 1.425 . S
C1166 C1173 1.409 . S
C1167 H1159 0.930 . S
C1167 C1165 1.419 . S
C1167 C1168 1.362 . S
C1168 H1160 0.930 . S
C1168 C1167 1.362 . S
C1168 C1171 1.409 . S
C1169 H1161 0.930 . S
C1169 C1170 1.355 . S
C1169 C1171 1.415 . S
C1170 C1169 1.355 . S
C1170 C1172 1.470 . S
C1171 C1166 1.425 . S
C1171 C1168 1.409 . S
C1171 C1169 1.415 . S
C1172 H1162 0.866 1_556 S
C1172 C1170 1.470 . S
C1172 C1173 1.378 . S
C1173 H1163 0.930 1_556 S
C1173 C1166 1.409 . S
C1173 C1172 1.378 . S
H1174 C1180 0.930 . S
H1175 C1183 0.930 . S
H1176 C1184 0.930 . S
H1177 C1185 0.930 . S
H1178 C1188 0.930 . S
H1179 C1189 0.930 . S
C1180 H1174 0.930 . S
C1180 C1181 1.355 . S
C1180 C1182 1.415 . S
C1181 C1180 1.355 . S
C1181 C1183 1.419 . S
C1182 C1180 1.415 . S
C1182 C1187 1.425 . S
C1182 C1189 1.409 . S
C1183 H1175 0.930 . S
C1183 C1181 1.419 . S
C1183 C1184 1.362 . S
C1184 H1176 0.930 . S
C1184 C1183 1.362 . S
C1184 C1187 1.409 . S
C1185 H1177 0.930 . S
C1185 C1186 1.355 . S
C1185 C1187 1.415 . S
C1186 C1185 1.355 . S
C1186 C1188 1.419 . S
C1187 C1182 1.425 . S
C1187 C1184 1.409 . S
C1187 C1185 1.415 . S
C1188 H1178 0.930 . S
C1188 C1186 1.419 . S
C1188 C1189 1.362 . S
C1189 H1179 0.930 . S
C1189 C1182 1.409 . S
C1189 C1188 1.362 . S
H1190 C1196 0.930 . S
H1191 C1199 0.930 . S
H1192 C1200 0.930 . S
H1193 C1201 0.930 . S
H1194 C1204 0.930 . S
H1195 C1205 0.930 . S
C1196 H1190 0.930 . S
C1196 C1197 1.355 . S
C1196 C1198 1.415 . S
C1197 C1196 1.355 . S
C1197 C1199 1.419 . S
C1198 C1196 1.415 . S
C1198 C1203 1.425 . S
C1198 C1205 1.409 1_556 S
C1199 H1191 0.930 . S
C1199 C1197 1.419 . S
C1199 C1200 1.362 . S
C1200 H1192 0.930 . S
C1200 C1199 1.362 . S
C1200 C1203 1.409 . S
C1201 H1193 0.930 . S
C1201 C1202 1.355 . S
C1201 C1203 1.415 . S
C1202 C1201 1.355 . S
C1202 C1204 1.419 1_556 S
C1203 C1198 1.425 . S
C1203 C1200 1.409 . S
C1203 C1201 1.415 . S
C1204 H1194 0.930 . S
C1204 C1202 1.419 1_554 S
C1204 C1205 1.362 . S
C1205 H1195 0.930 . S
C1205 C1198 1.409 1_554 S
C1205 C1204 1.362 . S
H1206 C1212 0.930 . S
H1207 C1215 0.930 . S
H1208 C1216 0.930 . S
H1209 C1217 0.930 . S
H1210 C1220 0.930 . S
H1211 C1221 0.930 . S
C1212 H1206 0.930 . S
C1212 C1213 1.355 . S
C1212 C1214 1.415 . S
C1213 C1212 1.355 . S
C1213 C1215 1.419 . S
C1214 C1212 1.415 . S
C1214 C1219 1.425 . S
C1214 C1221 1.409 . S
C1215 H1207 0.930 . S
C1215 C1213 1.419 . S
C1215 C1216 1.362 . S
C1216 H1208 0.930 . S
C1216 C1215 1.362 . S
C1216 C1219 1.409 . S
C1217 H1209 0.930 . S
C1217 C1218 1.355 . S
C1217 C1219 1.415 . S
C1218 C1217 1.355 . S
C1218 C1220 1.419 . S
C1219 C1214 1.425 . S
C1219 C1216 1.409 . S
C1219 C1217 1.415 . S
C1220 H1210 0.930 . S
C1220 C1218 1.419 . S
C1220 C1221 1.362 . S
C1221 H1211 0.930 . S
C1221 C1214 1.409 . S
C1221 C1220 1.362 . S
H1222 C1228 0.930 . S
H1223 C1231 0.930 . S
H1224 C1232 0.930 . S
H1225 C1233 0.930 . S
H1226 C1236 0.930 . S
H1227 C1237 0.930 . S
C1228 H1222 0.930 . S
C1228 C1229 1.355 . S
C1228 C1230 1.415 . S
C1229 C1228 1.355 . S
C1229 C1231 1.419 . S
C1230 C1228 1.415 . S
C1230 C1235 1.425 . S
C1230 C1237 1.409 . S
C1231 H1223 0.930 . S
C1231 C1229 1.419 . S
C1231 C1232 1.362 . S
C1232 H1224 0.930 . S
C1232 C1231 1.362 . S
C1232 C1235 1.409 . S
C1233 H1225 0.930 . S
C1233 C1234 1.355 . S
C1233 C1235 1.415 . S
C1234 C1233 1.355 . S
C1234 C1236 1.419 . S
C1235 C1230 1.425 . S
C1235 C1232 1.409 . S
C1235 C1233 1.415 . S
C1236 H1226 0.930 . S
C1236 C1234 1.419 . S
C1236 C1237 1.362 . S
C1237 H1227 0.930 . S
C1237 C1230 1.409 . S
C1237 C1236 1.362 . S
H1238 C1244 0.930 . S
H1239 C1247 0.930 . S
H1240 C1248 0.930 . S
H1241 C1249 0.930 . S
H1242 C1252 0.943 . S
H1243 C1253 0.894 1_556 S
C1244 H1238 0.930 . S
C1244 C1245 1.355 . S
C1244 C1246 1.415 . S
C1245 C1244 1.355 . S
C1245 C1247 1.419 . S
C1246 C1244 1.415 . S
C1246 C1251 1.425 . S
C1246 C1253 1.451 . S
C1247 H1239 0.930 . S
C1247 C1245 1.419 . S
C1247 C1248 1.362 . S
C1248 H1240 0.930 . S
C1248 C1247 1.362 . S
C1248 C1251 1.409 . S
C1249 H1241 0.930 . S
C1249 C1250 1.355 . S
C1249 C1251 1.415 . S
C1250 C1249 1.355 . S
C1250 C1252 1.407 1_554 S
C1251 C1246 1.425 . S
C1251 C1248 1.409 . S
C1251 C1249 1.415 . S
C1252 H1242 0.943 . S
C1252 C1250 1.407 1_556 S
C1252 C1253 1.359 1_556 S
C1253 H1243 0.894 1_554 S
C1253 C1246 1.451 . S
C1253 C1252 1.359 1_554 S
H1254 C1260 0.930 . S
H1255 C1263 0.930 . S
H1256 C1264 0.930 . S
H1257 C1265 0.930 . S
H1258 C1268 0.930 . S
H1259 C1269 0.930 . S
C1260 H1254 0.930 . S
C1260 C1261 1.355 1_455 S
C1260 C1262 1.415 . S
C1261 C1260 1.355 1_655 S
C1261 C1263 1.419 . S
C1262 C1260 1.415 . S
C1262 C1267 1.425 . S
C1262 C1269 1.409 . S
C1263 H1255 0.930 . S
C1263 C1261 1.419 . S
C1263 C1264 1.362 1_655 S
C1264 H1256 0.930 . S
C1264 C1263 1.362 1_455 S
C1264 C1267 1.409 . S
C1265 H1257 0.930 . S
C1265 C1266 1.355 . S
C1265 C1267 1.415 . S
C1266 C1265 1.355 . S
C1266 C1268 1.419 . S
C1267 C1262 1.425 . S
C1267 C1264 1.409 . S
C1267 C1265 1.415 . S
C1268 H1258 0.930 . S
C1268 C1266 1.419 . S
C1268 C1269 1.362 . S
C1269 H1259 0.930 . S
C1269 C1262 1.409 . S
C1269 C1268 1.362 . S
H1270 C1276 0.930 . S
H1271 C1279 0.930 . S
H1272 C1280 0.930 . S
H1273 C1281 0.930 . S
H1274 C1284 0.930 . S
H1275 C1285 0.930 . S
C1276 H1270 0.930 . S
C1276 C1277 1.355 . S
C1276 C1278 1.415 . S
C1277 C1276 1.355 . S
C1277 C1279 1.419 . S
C1278 C1276 1.415 . S
C1278 C1283 1.425 . S
C1278 C1285 1.409 . S
C1279 H1271 0.930 . S
C1279 C1277 1.419 . S
C1279 C1280 1.362 . S
C1280 H1272 0.930 . S
C1280 C1279 1.362 . S
C1280 C1283 1.409 . S
C1281 H1273 0.930 . S
C1281 C1282 1.355 . S
C1281 C1283 1.415 . S
C1282 C1281 1.355 . S
C1282 C1284 1.419 . S
C1283 C1278 1.425 . S
C1283 C1280 1.409 . S
C1283 C1281 1.415 . S
C1284 H1274 0.930 . S
C1284 C1282 1.419 . S
C1284 C1285 1.362 . S
C1285 H1275 0.930 . S
C1285 C1278 1.409 . S
C1285 C1284 1.362 . S
H1286 C1292 0.930 . S
H1287 C1295 0.930 . S
H1288 C1296 0.930 . S
H1289 C1297 0.930 . S
H1290 C1300 0.930 . S
H1291 C1301 0.930 . S
C1292 H1286 0.930 . S
C1292 C1293 1.355 . S
C1292 C1294 1.415 1_545 S
C1293 C1292 1.355 . S
C1293 C1295 1.419 . S
C1294 C1292 1.415 1_565 S
C1294 C1299 1.425 . S
C1294 C1301 1.409 . S
C1295 H1287 0.930 . S
C1295 C1293 1.419 . S
C1295 C1296 1.362 1_545 S
C1296 H1288 0.930 . S
C1296 C1295 1.362 1_565 S
C1296 C1299 1.409 . S
C1297 H1289 0.930 . S
C1297 C1298 1.355 . S
C1297 C1299 1.415 . S
C1298 C1297 1.355 . S
C1298 C1300 1.419 . S
C1299 C1294 1.425 . S
C1299 C1296 1.409 . S
C1299 C1297 1.415 . S
C1300 H1290 0.930 . S
C1300 C1298 1.419 . S
C1300 C1301 1.362 . S
C1301 H1291 0.930 . S
C1301 C1294 1.409 . S
C1301 C1300 1.362 . S
H1302 C1308 0.930 . S
H1303 C1311 0.930 . S
H1304 C1312 0.930 . S
H1305 C1313 0.930 . S
H1306 C1316 0.930 . S
H1307 C1317 0.930 . S
C1308 H1302 0.930 . S
C1308 C1309 1.355 . S
C1308 C1310 1.415 . S
C1309 C1308 1.355 . S
C1309 C1311 1.419 . S
C1310 C1308 1.415 . S
C1310 C1315 1.425 . S
C1310 C1317 1.409 . S
C1311 H1303 0.930 . S
C1311 C1309 1.419 . S
C1311 C1312 1.362 . S
C1312 H1304 0.930 . S
C1312 C1311 1.362 . S
C1312 C1315 1.409 . S
C1313 H1305 0.930 . S
C1313 C1314 1.355 . S
C1313 C1315 1.415 . S
C1314 C1313 1.355 . S
C1314 C1316 1.419 . S
C1315 C1310 1.425 . S
C1315 C1312 1.409 . S
C1315 C1313 1.415 . S
C1316 H1306 0.930 . S
C1316 C1314 1.419 . S
C1316 C1317 1.362 . S
C1317 H1307 0.930 . S
C1317 C1310 1.409 . S
C1317 C1316 1.362 . S
H1318 C1324 0.930 . S
H1319 C1327 0.930 . S
H1320 C1328 0.930 . S
H1321 C1329 0.930 . S
H1322 C1332 0.930 . S
H1323 C1333 0.930 . S
C1324 H1318 0.930 . S
C1324 C1325 1.355 . S
C1324 C1326 1.415 . S
C1325 C1324 1.355 . S
C1325 C1327 1.419 . S
C1326 C1324 1.415 . S
C1326 C1331 1.425 . S
C1326 C1333 1.409 . S
C1327 H1319 0.930 . S
C1327 C1325 1.419 . S
C1327 C1328 1.362 . S
C1328 H1320 0.930 . S
C1328 C1327 1.362 . S
C1328 C1331 1.409 . S
C1329 H1321 0.930 . S
C1329 C1330 1.355 . S
C1329 C1331 1.415 . S
C1330 C1329 1.355 . S
C1330 C1332 1.419 . S
C1331 C1326 1.425 . S
C1331 C1328 1.409 . S
C1331 C1329 1.415 . S
C1332 H1322 0.930 . S
C1332 C1330 1.419 . S
C1332 C1333 1.362 . S
C1333 H1323 0.930 . S
C1333 C1326 1.409 . S
C1333 C1332 1.362 . S
H1334 C1340 0.930 . S
H1335 C1343 0.930 . S
H1336 C1344 0.930 . S
H1337 C1345 0.930 . S
H1338 C1348 0.930 . S
H1339 C1349 0.930 . S
C1340 H1334 0.930 . S
C1340 C1341 1.355 . S
C1340 C1342 1.415 . S
C1341 C1340 1.355 . S
C1341 C1343 1.419 . S
C1342 C1340 1.415 . S
C1342 C1347 1.425 . S
C1342 C1349 1.409 . S
C1343 H1335 0.930 . S
C1343 C1341 1.419 . S
C1343 C1344 1.362 . S
C1344 H1336 0.930 . S
C1344 C1343 1.362 . S
C1344 C1347 1.409 . S
C1345 H1337 0.930 . S
C1345 C1346 1.355 . S
C1345 C1347 1.415 . S
C1346 C1345 1.355 . S
C1346 C1348 1.419 . S
C1347 C1342 1.425 . S
C1347 C1344 1.409 . S
C1347 C1345 1.415 . S
C1348 H1338 0.930 . S
C1348 C1346 1.419 . S
C1348 C1349 1.362 . S
C1349 H1339 0.930 . S
C1349 C1342 1.409 . S
C1349 C1348 1.362 . S
H1350 C1356 0.930 . S
H1351 C1359 0.930 . S
H1352 C1360 0.930 . S
H1353 C1361 0.930 . S
H1354 C1364 0.930 . S
H1355 C1365 0.930 . S
C1356 H1350 0.930 . S
C1356 C1357 1.355 . S
C1356 C1358 1.415 . S
C1357 C1356 1.355 . S
C1357 C1359 1.419 . S
C1358 C1356 1.415 . S
C1358 C1363 1.425 . S
C1358 C1365 1.409 . S
C1359 H1351 0.930 . S
C1359 C1357 1.419 . S
C1359 C1360 1.362 . S
C1360 H1352 0.930 . S
C1360 C1359 1.362 . S
C1360 C1363 1.409 . S
C1361 H1353 0.930 . S
C1361 C1362 1.355 . S
C1361 C1363 1.415 . S
C1362 C1361 1.355 . S
C1362 C1364 1.419 . S
C1363 C1358 1.425 . S
C1363 C1360 1.409 . S
C1363 C1361 1.415 . S
C1364 H1354 0.930 . S
C1364 C1362 1.419 . S
C1364 C1365 1.362 . S
C1365 H1355 0.930 . S
C1365 C1358 1.409 . S
C1365 C1364 1.362 . S
H1366 C1372 0.930 . S
H1367 C1375 0.930 . S
H1368 C1376 0.930 . S
H1369 C1377 0.930 . S
H1370 C1380 0.930 . S
H1371 C1381 0.930 . S
C1372 H1366 0.930 . S
C1372 C1373 1.355 . S
C1372 C1374 1.415 . S
C1373 C1372 1.355 . S
C1373 C1375 1.419 . S
C1374 C1372 1.415 . S
C1374 C1379 1.425 . S
C1374 C1381 1.409 . S
C1375 H1367 0.930 . S
C1375 C1373 1.419 . S
C1375 C1376 1.362 . S
C1376 H1368 0.930 . S
C1376 C1375 1.362 . S
C1376 C1379 1.409 . S
C1377 H1369 0.930 . S
C1377 C1378 1.355 . S
C1377 C1379 1.415 . S
C1378 C1377 1.355 . S
C1378 C1380 1.419 . S
C1379 C1374 1.425 . S
C1379 C1376 1.409 . S
C1379 C1377 1.415 . S
C1380 H1370 0.930 . S
C1380 C1378 1.419 . S
C1380 C1381 1.362 . S
C1381 H1371 0.930 . S
C1381 C1374 1.409 . S
C1381 C1380 1.362 . S
H1382 C1388 0.930 . S
H1383 C1391 0.930 . S
H1384 C1392 0.930 . S
H1385 C1393 0.930 . S
H1386 C1396 0.930 . S
H1387 C1397 0.930 . S
C1388 H1382 0.930 . S
C1388 C1389 1.355 . S
C1388 C1390 1.415 . S
C1389 C1388 1.355 . S
C1389 C1391 1.419 . S
C1390 C1388 1.415 . S
C1390 C1395 1.425 . S
C1390 C1397 1.409 . S
C1391 H1383 0.930 . S
C1391 C1389 1.419 . S
C1391 C1392 1.362 . S
C1392 H1384 0.930 . S
C1392 C1391 1.362 . S
C1392 C1395 1.409 . S
C1393 H1385 0.930 . S
C1393 C1394 1.355 . S
C1393 C1395 1.415 . S
C1394 C1393 1.355 . S
C1394 C1396 1.419 . S
C1395 C1390 1.425 . S
C1395 C1392 1.409 . S
C1395 C1393 1.415 . S
C1396 H1386 0.930 . S
C1396 C1394 1.419 . S
C1396 C1397 1.362 . S
C1397 H1387 0.930 . S
C1397 C1390 1.409 . S
C1397 C1396 1.362 . S
H1398 C1404 0.930 . S
H1399 C1407 0.930 . S
H1400 C1408 0.930 . S
H1401 C1409 0.930 . S
H1402 C1412 0.930 . S
H1403 C1413 0.930 . S
C1404 H1398 0.930 . S
C1404 C1405 1.355 . S
C1404 C1406 1.415 1_545 S
C1405 C1404 1.355 . S
C1405 C1407 1.419 . S
C1406 C1404 1.415 1_565 S
C1406 C1411 1.425 . S
C1406 C1413 1.409 . S
C1407 H1399 0.930 . S
C1407 C1405 1.419 . S
C1407 C1408 1.362 1_545 S
C1408 H1400 0.930 . S
C1408 C1407 1.362 1_565 S
C1408 C1411 1.409 . S
C1409 H1401 0.930 . S
C1409 C1410 1.355 . S
C1409 C1411 1.415 . S
C1410 C1409 1.355 . S
C1410 C1412 1.419 . S
C1411 C1406 1.425 . S
C1411 C1408 1.409 . S
C1411 C1409 1.415 . S
C1412 H1402 0.930 . S
C1412 C1410 1.419 . S
C1412 C1413 1.362 . S
C1413 H1403 0.930 . S
C1413 C1406 1.409 . S
C1413 C1412 1.362 . S
H1414 C1420 0.930 . S
H1415 C1423 0.930 . S
H1416 C1424 0.930 . S
H1417 C1425 0.930 . S
H1418 C1428 0.930 . S
H1419 C1429 0.930 . S
C1420 H1414 0.930 . S
C1420 C1421 1.355 . S
C1420 C1422 1.415 . S
C1421 C1420 1.355 . S
C1421 C1423 1.419 . S
C1422 C1420 1.415 . S
C1422 C1427 1.425 . S
C1422 C1429 1.409 . S
C1423 H1415 0.930 . S
C1423 C1421 1.419 . S
C1423 C1424 1.362 . S
C1424 H1416 0.930 . S
C1424 C1423 1.362 . S
C1424 C1427 1.409 . S
C1425 H1417 0.930 . S
C1425 C1426 1.355 . S
C1425 C1427 1.415 . S
C1426 C1425 1.355 . S
C1426 C1428 1.419 . S
C1427 C1422 1.425 . S
C1427 C1424 1.409 . S
C1427 C1425 1.415 . S
C1428 H1418 0.930 . S
C1428 C1426 1.419 . S
C1428 C1429 1.362 . S
C1429 H1419 0.930 . S
C1429 C1422 1.409 . S
C1429 C1428 1.362 . S
H1430 C1436 0.930 . S
H1431 C1439 0.930 . S
H1432 C1440 0.930 . S
H1433 C1441 0.930 . S
H1434 C1444 0.930 . S
H1435 C1445 0.930 . S
C1436 H1430 0.930 . S
C1436 C1437 1.355 . S
C1436 C1438 1.415 . S
C1437 C1436 1.355 . S
C1437 C1439 1.419 . S
C1438 C1436 1.415 . S
C1438 C1443 1.425 . S
C1438 C1445 1.409 . S
C1439 H1431 0.930 . S
C1439 C1437 1.419 . S
C1439 C1440 1.362 . S
C1440 H1432 0.930 . S
C1440 C1439 1.362 . S
C1440 C1443 1.409 . S
C1441 H1433 0.930 . S
C1441 C1442 1.355 . S
C1441 C1443 1.415 . S
C1442 C1441 1.355 . S
C1442 C1444 1.419 . S
C1443 C1438 1.425 . S
C1443 C1440 1.409 . S
C1443 C1441 1.415 . S
C1444 H1434 0.930 . S
C1444 C1442 1.419 . S
C1444 C1445 1.362 . S
C1445 H1435 0.930 . S
C1445 C1438 1.409 . S
C1445 C1444 1.362 . S
H1446 C1452 0.930 . S
H1447 C1455 0.930 . S
H1448 C1456 0.930 . S
H1449 C1457 0.930 . S
H1450 C1460 0.930 . S
H1451 C1461 0.930 . S
C1452 H1446 0.930 . S
C1452 C1453 1.355 . S
C1452 C1454 1.415 . S
C1453 C1452 1.355 . S
C1453 C1455 1.419 . S
C1454 C1452 1.415 . S
C1454 C1459 1.425 . S
C1454 C1461 1.409 . S
C1455 H1447 0.930 . S
C1455 C1453 1.419 . S
C1455 C1456 1.362 . S
C1456 H1448 0.930 . S
C1456 C1455 1.362 . S
C1456 C1459 1.409 . S
C1457 H1449 0.930 . S
C1457 C1458 1.355 . S
C1457 C1459 1.415 . S
C1458 C1457 1.355 . S
C1458 C1460 1.419 . S
C1459 C1454 1.425 . S
C1459 C1456 1.409 . S
C1459 C1457 1.415 . S
C1460 H1450 0.930 . S
C1460 C1458 1.419 . S
C1460 C1461 1.362 . S
C1461 H1451 0.930 . S
C1461 C1454 1.409 . S
C1461 C1460 1.362 . S
H1462 C1468 0.930 . S
H1463 C1471 0.930 . S
H1464 C1472 0.930 . S
H1465 C1473 0.930 . S
H1466 C1476 0.930 . S
H1467 C1477 0.930 . S
C1468 H1462 0.930 . S
C1468 C1469 1.355 . S
C1468 C1470 1.415 . S
C1469 C1468 1.355 . S
C1469 C1471 1.419 . S
C1470 C1468 1.415 . S
C1470 C1475 1.425 . S
C1470 C1477 1.409 . S
C1471 H1463 0.930 . S
C1471 C1469 1.419 . S
C1471 C1472 1.362 . S
C1472 H1464 0.930 . S
C1472 C1471 1.362 . S
C1472 C1475 1.409 . S
C1473 H1465 0.930 . S
C1473 C1474 1.355 . S
C1473 C1475 1.415 . S
C1474 C1473 1.355 . S
C1474 C1476 1.419 . S
C1475 C1470 1.425 . S
C1475 C1472 1.409 . S
C1475 C1473 1.415 . S
C1476 H1466 0.930 . S
C1476 C1474 1.419 . S
C1476 C1477 1.362 . S
C1477 H1467 0.930 . S
C1477 C1470 1.409 . S
C1477 C1476 1.362 . S
H1478 C1484 0.930 . S
H1479 C1487 0.930 . S
H1480 C1488 0.930 . S
H1481 C1489 0.930 . S
H1482 C1492 0.930 . S
H1483 C1493 0.930 . S
C1484 H1478 0.930 . S
C1484 C1485 1.355 . S
C1484 C1486 1.415 . S
C1485 C1484 1.355 . S
C1485 C1487 1.419 . S
C1486 C1484 1.415 . S
C1486 C1491 1.425 . S
C1486 C1493 1.409 . S
C1487 H1479 0.930 . S
C1487 C1485 1.419 . S
C1487 C1488 1.362 . S
C1488 H1480 0.930 . S
C1488 C1487 1.362 . S
C1488 C1491 1.409 . S
C1489 H1481 0.930 . S
C1489 C1490 1.355 . S
C1489 C1491 1.415 . S
C1490 C1489 1.355 . S
C1490 C1492 1.419 . S
C1491 C1486 1.425 . S
C1491 C1488 1.409 . S
C1491 C1489 1.415 . S
C1492 H1482 0.930 . S
C1492 C1490 1.419 . S
C1492 C1493 1.362 . S
C1493 H1483 0.930 . S
C1493 C1486 1.409 . S
C1493 C1492 1.362 . S
H1494 C1500 0.930 . S
H1495 C1503 0.930 . S
H1496 C1504 0.930 . S
H1497 C1505 0.930 . S
H1498 C1508 0.930 . S
H1499 C1509 0.930 . S
C1500 H1494 0.930 . S
C1500 C1501 1.355 . S
C1500 C1502 1.415 1_565 S
C1501 C1500 1.355 . S
C1501 C1503 1.419 . S
C1502 C1500 1.415 1_545 S
C1502 C1507 1.425 . S
C1502 C1509 1.409 . S
C1503 H1495 0.930 . S
C1503 C1501 1.419 . S
C1503 C1504 1.362 1_565 S
C1504 H1496 0.930 . S
C1504 C1503 1.362 1_545 S
C1504 C1507 1.409 . S
C1505 H1497 0.930 . S
C1505 C1506 1.355 . S
C1505 C1507 1.415 . S
C1506 C1505 1.355 . S
C1506 C1508 1.419 . S
C1507 C1502 1.425 . S
C1507 C1504 1.409 . S
C1507 C1505 1.415 . S
C1508 H1498 0.930 . S
C1508 C1506 1.419 . S
C1508 C1509 1.362 . S
C1509 H1499 0.930 . S
C1509 C1502 1.409 . S
C1509 C1508 1.362 . S
H1510 C1516 0.930 . S
H1511 C1519 0.930 . S
H1512 C1520 0.930 . S
H1513 C1521 0.930 . S
H1514 C1524 0.930 . S
H1515 C1525 0.930 . S
C1516 H1510 0.930 . S
C1516 C1517 1.355 . S
C1516 C1518 1.415 . S
C1517 C1516 1.355 . S
C1517 C1519 1.419 1_655 S
C1518 C1516 1.415 . S
C1518 C1523 1.425 . S
C1518 C1525 1.409 . S
C1519 H1511 0.930 . S
C1519 C1517 1.419 1_455 S
C1519 C1520 1.362 1_455 S
C1520 H1512 0.930 . S
C1520 C1519 1.362 1_655 S
C1520 C1523 1.409 . S
C1521 H1513 0.930 . S
C1521 C1522 1.355 . S
C1521 C1523 1.415 . S
C1522 C1521 1.355 . S
C1522 C1524 1.419 . S
C1523 C1518 1.425 . S
C1523 C1520 1.409 . S
C1523 C1521 1.415 . S
C1524 H1514 0.930 . S
C1524 C1522 1.419 . S
C1524 C1525 1.362 . S
C1525 H1515 0.930 . S
C1525 C1518 1.409 . S
C1525 C1524 1.362 . S
H1526 C1532 0.930 . S
H1527 C1535 0.930 . S
H1528 C1536 0.930 . S
H1529 C1537 0.930 . S
H1530 C1540 0.930 . S
H1531 C1541 0.930 . S
C1532 H1526 0.930 . S
C1532 C1533 1.355 . S
C1532 C1534 1.415 . S
C1533 C1532 1.355 . S
C1533 C1535 1.419 . S
C1534 C1532 1.415 . S
C1534 C1539 1.425 . S
C1534 C1541 1.409 . S
C1535 H1527 0.930 . S
C1535 C1533 1.419 . S
C1535 C1536 1.362 . S
C1536 H1528 0.930 . S
C1536 C1535 1.362 . S
C1536 C1539 1.409 . S
C1537 H1529 0.930 . S
C1537 C1538 1.355 . S
C1537 C1539 1.415 . S
C1538 C1537 1.355 . S
C1538 C1540 1.419 . S
C1539 C1534 1.425 . S
C1539 C1536 1.409 . S
C1539 C1537 1.415 . S
C1540 H1530 0.930 . S
C1540 C1538 1.419 . S
C1540 C1541 1.362 . S
C1541 H1531 0.930 . S
C1541 C1534 1.409 . S
C1541 C1540 1.362 . S
H1542 C1548 0.930 1_455 S
H1543 C1551 0.930 . S
H1544 C1552 0.930 . S
H1545 C1553 0.930 . S
H1546 C1556 0.930 . S
H1547 C1557 0.930 . S
C1548 H1542 0.930 1_655 S
C1548 C1549 1.355 1_655 S
C1548 C1550 1.415 . S
C1549 C1548 1.355 1_455 S
C1549 C1551 1.419 1_455 S
C1550 C1548 1.415 . S
C1550 C1555 1.425 . S
C1550 C1557 1.409 . S
C1551 H1543 0.930 . S
C1551 C1549 1.419 1_655 S
C1551 C1552 1.362 . S
C1552 H1544 0.930 . S
C1552 C1551 1.362 . S
C1552 C1555 1.409 . S
C1553 H1545 0.930 . S
C1553 C1554 1.355 . S
C1553 C1555 1.415 . S
C1554 C1553 1.355 . S
C1554 C1556 1.419 . S
C1555 C1550 1.425 . S
C1555 C1552 1.409 . S
C1555 C1553 1.415 . S
C1556 H1546 0.930 . S
C1556 C1554 1.419 . S
C1556 C1557 1.362 . S
C1557 H1547 0.930 . S
C1557 C1550 1.409 . S
C1557 C1556 1.362 . S
H1558 C1564 0.930 . S
H1559 C1567 0.930 . S
H1560 C1568 0.930 . S
H1561 C1569 0.930 . S
H1562 C1572 0.930 . S
H1563 C1573 0.930 . S
C1564 H1558 0.930 . S
C1564 C1565 1.355 . S
C1564 C1566 1.415 . S
C1565 C1564 1.355 . S
C1565 C1567 1.419 . S
C1566 C1564 1.415 . S
C1566 C1571 1.425 . S
C1566 C1573 1.409 . S
C1567 H1559 0.930 . S
C1567 C1565 1.419 . S
C1567 C1568 1.362 . S
C1568 H1560 0.930 . S
C1568 C1567 1.362 . S
C1568 C1571 1.409 . S
C1569 H1561 0.930 . S
C1569 C1570 1.355 . S
C1569 C1571 1.415 . S
C1570 C1569 1.355 . S
C1570 C1572 1.419 . S
C1571 C1566 1.425 . S
C1571 C1568 1.409 . S
C1571 C1569 1.415 . S
C1572 H1562 0.930 . S
C1572 C1570 1.419 . S
C1572 C1573 1.362 . S
C1573 H1563 0.930 . S
C1573 C1566 1.409 . S
C1573 C1572 1.362 . S
H1574 C1580 0.930 . S
H1575 C1583 0.930 . S
H1576 C1584 0.930 . S
H1577 C1585 0.930 . S
H1578 C1588 0.930 . S
H1579 C1589 0.930 . S
C1580 H1574 0.930 . S
C1580 C1581 1.355 . S
C1580 C1582 1.415 1_565 S
C1581 C1580 1.355 . S
C1581 C1583 1.419 . S
C1582 C1580 1.415 1_545 S
C1582 C1587 1.425 . S
C1582 C1589 1.409 . S
C1583 H1575 0.930 . S
C1583 C1581 1.419 . S
C1583 C1584 1.362 1_565 S
C1584 H1576 0.930 . S
C1584 C1583 1.362 1_545 S
C1584 C1587 1.409 . S
C1585 H1577 0.930 . S
C1585 C1586 1.355 . S
C1585 C1587 1.415 . S
C1586 C1585 1.355 . S
C1586 C1588 1.419 . S
C1587 C1582 1.425 . S
C1587 C1584 1.409 . S
C1587 C1585 1.415 . S
C1588 H1578 0.930 . S
C1588 C1586 1.419 . S
C1588 C1589 1.362 . S
C1589 H1579 0.930 . S
C1589 C1582 1.409 . S
C1589 C1588 1.362 . S
H1590 C1596 0.930 . S
H1591 C1599 0.930 . S
H1592 C1600 0.930 . S
H1593 C1601 0.930 . S
H1594 C1604 0.930 . S
H1595 C1605 0.930 . S
C1596 H1590 0.930 . S
C1596 C1597 1.355 . S
C1596 C1598 1.415 . S
C1597 C1596 1.355 . S
C1597 C1599 1.419 . S
C1598 C1596 1.415 . S
C1598 C1603 1.425 . S
C1598 C1605 1.409 . S
C1599 H1591 0.930 . S
C1599 C1597 1.419 . S
C1599 C1600 1.362 . S
C1600 H1592 0.930 . S
C1600 C1599 1.362 . S
C1600 C1603 1.409 . S
C1601 H1593 0.930 . S
C1601 C1602 1.355 . S
C1601 C1603 1.415 . S
C1602 C1601 1.355 . S
C1602 C1604 1.419 . S
C1603 C1598 1.425 . S
C1603 C1600 1.409 . S
C1603 C1601 1.415 . S
C1604 H1594 0.930 . S
C1604 C1602 1.419 . S
C1604 C1605 1.362 . S
C1605 H1595 0.930 . S
C1605 C1598 1.409 . S
C1605 C1604 1.362 . S
H1606 C1612 0.930 . S
H1607 C1615 0.930 . S
H1608 C1616 0.930 . S
H1609 C1617 0.930 . S
H1610 C1620 0.930 . S
H1611 C1621 0.930 . S
C1612 H1606 0.930 . S
C1612 C1613 1.355 . S
C1612 C1614 1.415 . S
C1613 C1612 1.355 . S
C1613 C1615 1.419 . S
C1614 C1612 1.415 . S
C1614 C1619 1.425 . S
C1614 C1621 1.409 . S
C1615 H1607 0.930 . S
C1615 C1613 1.419 . S
C1615 C1616 1.362 . S
C1616 H1608 0.930 . S
C1616 C1615 1.362 . S
C1616 C1619 1.409 . S
C1617 H1609 0.930 . S
C1617 C1618 1.355 . S
C1617 C1619 1.415 . S
C1618 C1617 1.355 . S
C1618 C1620 1.419 . S
C1619 C1614 1.425 . S
C1619 C1616 1.409 . S
C1619 C1617 1.415 . S
C1620 H1610 0.930 . S
C1620 C1618 1.419 . S
C1620 C1621 1.362 . S
C1621 H1611 0.930 . S
C1621 C1614 1.409 . S
C1621 C1620 1.362 . S
H1622 C1628 0.930 . S
H1623 C1631 0.930 . S
H1624 C1632 0.930 . S
H1625 C1633 0.930 . S
H1626 C1636 0.930 . S
H1627 C1637 0.930 . S
C1628 H1622 0.930 . S
C1628 C1629 1.355 . S
C1628 C1630 1.415 . S
C1629 C1628 1.355 . S
C1629 C1631 1.419 . S
C1630 C1628 1.415 . S
C1630 C1635 1.425 . S
C1630 C1637 1.409 . S
C1631 H1623 0.930 . S
C1631 C1629 1.419 . S
C1631 C1632 1.362 . S
C1632 H1624 0.930 . S
C1632 C1631 1.362 . S
C1632 C1635 1.409 . S
C1633 H1625 0.930 . S
C1633 C1634 1.355 . S
C1633 C1635 1.415 . S
C1634 C1633 1.355 . S
C1634 C1636 1.419 . S
C1635 C1630 1.425 . S
C1635 C1632 1.409 . S
C1635 C1633 1.415 . S
C1636 H1626 0.930 . S
C1636 C1634 1.419 . S
C1636 C1637 1.362 . S
C1637 H1627 0.930 . S
C1637 C1630 1.409 . S
C1637 C1636 1.362 . S
H1638 C1644 0.930 . S
H1639 C1647 0.930 1_545 S
H1640 C1648 0.930 . S
H1641 C1649 0.930 . S
H1642 C1652 0.930 . S
H1643 C1653 0.930 . S
C1644 H1638 0.930 . S
C1644 C1645 1.355 . S
C1644 C1646 1.415 . S
C1645 C1644 1.355 . S
C1645 C1647 1.419 . S
C1646 C1644 1.415 . S
C1646 C1651 1.425 . S
C1646 C1653 1.409 . S
C1647 H1639 0.930 1_565 S
C1647 C1645 1.419 . S
C1647 C1648 1.362 1_565 S
C1648 H1640 0.930 . S
C1648 C1647 1.362 1_545 S
C1648 C1651 1.409 1_545 S
C1649 H1641 0.930 . S
C1649 C1650 1.355 1_545 S
C1649 C1651 1.415 1_545 S
C1650 C1649 1.355 1_565 S
C1650 C1652 1.419 . S
C1651 C1646 1.425 . S
C1651 C1648 1.409 1_565 S
C1651 C1649 1.415 1_565 S
C1652 H1642 0.930 . S
C1652 C1650 1.419 . S
C1652 C1653 1.362 . S
C1653 H1643 0.930 . S
C1653 C1646 1.409 . S
C1653 C1652 1.362 . S
H1654 C1660 0.930 . S
H1655 C1663 0.930 . S
H1656 C1664 0.930 . S
H1657 C1665 0.930 . S
H1658 C1668 0.930 . S
H1659 C1669 0.930 . S
C1660 H1654 0.930 . S
C1660 C1661 1.355 1_655 S
C1660 C1662 1.415 . S
C1661 C1660 1.355 1_455 S
C1661 C1663 1.419 . S
C1662 C1660 1.415 . S
C1662 C1667 1.425 1_655 S
C1662 C1669 1.409 . S
C1663 H1655 0.930 . S
C1663 C1661 1.419 . S
C1663 C1664 1.362 . S
C1664 H1656 0.930 . S
C1664 C1663 1.362 . S
C1664 C1667 1.409 . S
C1665 H1657 0.930 . S
C1665 C1666 1.355 . S
C1665 C1667 1.415 . S
C1666 C1665 1.355 . S
C1666 C1668 1.419 1_455 S
C1667 C1662 1.425 1_455 S
C1667 C1664 1.409 . S
C1667 C1665 1.415 . S
C1668 H1658 0.930 . S
C1668 C1666 1.419 1_655 S
C1668 C1669 1.362 . S
C1669 H1659 0.930 . S
C1669 C1662 1.409 . S
C1669 C1668 1.362 . S
H1670 C1676 0.930 . S
H1671 C1679 0.930 . S
H1672 C1680 0.930 . S
H1673 C1681 0.930 . S
H1674 C1684 0.930 . S
H1675 C1685 0.930 . S
C1676 H1670 0.930 . S
C1676 C1677 1.355 . S
C1676 C1678 1.415 . S
C1677 C1676 1.355 . S
C1677 C1679 1.419 . S
C1678 C1676 1.415 . S
C1678 C1683 1.425 . S
C1678 C1685 1.409 . S
C1679 H1671 0.930 . S
C1679 C1677 1.419 . S
C1679 C1680 1.362 . S
C1680 H1672 0.930 . S
C1680 C1679 1.362 . S
C1680 C1683 1.409 . S
C1681 H1673 0.930 . S
C1681 C1682 1.355 . S
C1681 C1683 1.415 . S
C1682 C1681 1.355 . S
C1682 C1684 1.419 . S
C1683 C1678 1.425 . S
C1683 C1680 1.409 . S
C1683 C1681 1.415 . S
C1684 H1674 0.930 . S
C1684 C1682 1.419 . S
C1684 C1685 1.362 . S
C1685 H1675 0.930 . S
C1685 C1678 1.409 . S
C1685 C1684 1.362 . S
H1686 C1692 0.930 . S
H1687 C1695 0.930 . S
H1688 C1696 0.930 . S
H1689 C1697 0.930 . S
H1690 C1700 0.930 . S
H1691 C1701 0.930 . S
C1692 H1686 0.930 . S
C1692 C1693 1.355 . S
C1692 C1694 1.415 . S
C1693 C1692 1.355 . S
C1693 C1695 1.419 1_655 S
C1694 C1692 1.415 . S
C1694 C1699 1.425 1_655 S
C1694 C1701 1.409 . S
C1695 H1687 0.930 . S
C1695 C1693 1.419 1_455 S
C1695 C1696 1.362 . S
C1696 H1688 0.930 . S
C1696 C1695 1.362 . S
C1696 C1699 1.409 . S
C1697 H1689 0.930 . S
C1697 C1698 1.355 1_455 S
C1697 C1699 1.415 . S
C1698 C1697 1.355 1_655 S
C1698 C1700 1.419 . S
C1699 C1694 1.425 1_455 S
C1699 C1696 1.409 . S
C1699 C1697 1.415 . S
C1700 H1690 0.930 . S
C1700 C1698 1.419 . S
C1700 C1701 1.362 . S
C1701 H1691 0.930 . S
C1701 C1694 1.409 . S
C1701 C1700 1.362 . S
H1702 C1708 0.930 . S
H1703 C1711 0.930 . S
H1704 C1712 0.930 . S
H1705 C1713 0.930 . S
H1706 C1716 0.930 . S
H1707 C1717 0.930 . S
C1708 H1702 0.930 . S
C1708 C1709 1.355 . S
C1708 C1710 1.415 . S
C1709 C1708 1.355 . S
C1709 C1711 1.419 . S
C1710 C1708 1.415 . S
C1710 C1715 1.425 . S
C1710 C1717 1.409 . S
C1711 H1703 0.930 . S
C1711 C1709 1.419 . S
C1711 C1712 1.362 . S
C1712 H1704 0.930 . S
C1712 C1711 1.362 . S
C1712 C1715 1.409 . S
C1713 H1705 0.930 . S
C1713 C1714 1.355 . S
C1713 C1715 1.415 . S
C1714 C1713 1.355 . S
C1714 C1716 1.419 . S
C1715 C1710 1.425 . S
C1715 C1712 1.409 . S
C1715 C1713 1.415 . S
C1716 H1706 0.930 . S
C1716 C1714 1.419 . S
C1716 C1717 1.362 . S
C1717 H1707 0.930 . S
C1717 C1710 1.409 . S
C1717 C1716 1.362 . S
H1718 C1724 0.930 . S
H1719 C1727 0.930 . S
H1720 C1728 0.930 . S
H1721 C1729 0.930 1_565 S
H1722 C1732 0.930 . S
H1723 C1733 0.930 . S
C1724 H1718 0.930 . S
C1724 C1725 1.355 . S
C1724 C1726 1.415 . S
C1725 C1724 1.355 . S
C1725 C1727 1.419 . S
C1726 C1724 1.415 . S
C1726 C1731 1.425 . S
C1726 C1733 1.409 . S
C1727 H1719 0.930 . S
C1727 C1725 1.419 . S
C1727 C1728 1.362 . S
C1728 H1720 0.930 . S
C1728 C1727 1.362 . S
C1728 C1731 1.409 . S
C1729 H1721 0.930 1_545 S
C1729 C1730 1.355 . S
C1729 C1731 1.415 . S
C1730 C1729 1.355 . S
C1730 C1732 1.419 . S
C1731 C1726 1.425 . S
C1731 C1728 1.409 . S
C1731 C1729 1.415 . S
C1732 H1722 0.930 . S
C1732 C1730 1.419 . S
C1732 C1733 1.362 . S
C1733 H1723 0.930 . S
C1733 C1726 1.409 . S
C1733 C1732 1.362 . S
H1734 C1740 0.930 . S
H1735 C1743 0.930 . S
H1736 C1744 0.930 . S
H1737 C1745 0.930 . S
H1738 C1748 0.930 . S
H1739 C1749 0.930 . S
C1740 H1734 0.930 . S
C1740 C1741 1.355 . S
C1740 C1742 1.415 . S
C1741 C1740 1.355 . S
C1741 C1743 1.419 . S
C1742 C1740 1.415 . S
C1742 C1747 1.425 . S
C1742 C1749 1.409 . S
C1743 H1735 0.930 . S
C1743 C1741 1.419 . S
C1743 C1744 1.362 . S
C1744 H1736 0.930 . S
C1744 C1743 1.362 . S
C1744 C1747 1.409 . S
C1745 H1737 0.930 . S
C1745 C1746 1.355 . S
C1745 C1747 1.415 . S
C1746 C1745 1.355 . S
C1746 C1748 1.419 . S
C1747 C1742 1.425 . S
C1747 C1744 1.409 . S
C1747 C1745 1.415 . S
C1748 H1738 0.930 . S
C1748 C1746 1.419 . S
C1748 C1749 1.362 . S
C1749 H1739 0.930 . S
C1749 C1742 1.409 . S
C1749 C1748 1.362 . S
H1750 C1756 0.930 . S
H1751 C1759 0.930 . S
H1752 C1760 0.930 . S
H1753 C1761 0.930 . S
H1754 C1764 0.930 . S
H1755 C1765 0.930 . S
C1756 H1750 0.930 . S
C1756 C1757 1.355 . S
C1756 C1758 1.415 . S
C1757 C1756 1.355 . S
C1757 C1759 1.419 . S
C1758 C1756 1.415 . S
C1758 C1763 1.425 . S
C1758 C1765 1.409 . S
C1759 H1751 0.930 . S
C1759 C1757 1.419 . S
C1759 C1760 1.362 . S
C1760 H1752 0.930 . S
C1760 C1759 1.362 . S
C1760 C1763 1.409 . S
C1761 H1753 0.930 . S
C1761 C1762 1.355 . S
C1761 C1763 1.415 . S
C1762 C1761 1.355 . S
C1762 C1764 1.419 . S
C1763 C1758 1.425 . S
C1763 C1760 1.409 . S
C1763 C1761 1.415 . S
C1764 H1754 0.930 . S
C1764 C1762 1.419 . S
C1764 C1765 1.362 . S
C1765 H1755 0.930 . S
C1765 C1758 1.409 . S
C1765 C1764 1.362 . S
H1766 C1772 0.930 . S
H1767 C1775 0.930 . S
H1768 C1776 0.930 . S
H1769 C1777 0.930 . S
H1770 C1780 0.930 . S
H1771 C1781 0.930 . S
C1772 H1766 0.930 . S
C1772 C1773 1.355 . S
C1772 C1774 1.415 . S
C1773 C1772 1.355 . S
C1773 C1775 1.419 . S
C1774 C1772 1.415 . S
C1774 C1779 1.425 . S
C1774 C1781 1.409 . S
C1775 H1767 0.930 . S
C1775 C1773 1.419 . S
C1775 C1776 1.362 . S
C1776 H1768 0.930 . S
C1776 C1775 1.362 . S
C1776 C1779 1.409 . S
C1777 H1769 0.930 . S
C1777 C1778 1.355 . S
C1777 C1779 1.415 . S
C1778 C1777 1.355 . S
C1778 C1780 1.419 . S
C1779 C1774 1.425 . S
C1779 C1776 1.409 . S
C1779 C1777 1.415 . S
C1780 H1770 0.930 . S
C1780 C1778 1.419 . S
C1780 C1781 1.362 . S
C1781 H1771 0.930 . S
C1781 C1774 1.409 . S
C1781 C1780 1.362 . S
H1782 C1788 0.930 . S
H1783 C1791 0.930 . S
H1784 C1792 0.930 . S
H1785 C1793 0.930 . S
H1786 C1796 0.930 . S
H1787 C1797 0.930 . S
C1788 H1782 0.930 . S
C1788 C1789 1.355 . S
C1788 C1790 1.415 . S
C1789 C1788 1.355 . S
C1789 C1791 1.419 . S
C1790 C1788 1.415 . S
C1790 C1795 1.425 . S
C1790 C1797 1.409 . S
C1791 H1783 0.930 . S
C1791 C1789 1.419 . S
C1791 C1792 1.362 . S
C1792 H1784 0.930 . S
C1792 C1791 1.362 . S
C1792 C1795 1.409 . S
C1793 H1785 0.930 . S
C1793 C1794 1.355 . S
C1793 C1795 1.415 . S
C1794 C1793 1.355 . S
C1794 C1796 1.419 . S
C1795 C1790 1.425 . S
C1795 C1792 1.409 . S
C1795 C1793 1.415 . S
C1796 H1786 0.930 . S
C1796 C1794 1.419 . S
C1796 C1797 1.362 . S
C1797 H1787 0.930 . S
C1797 C1790 1.409 . S
C1797 C1796 1.362 . S
H1798 C1804 0.930 . S
H1799 C1807 0.930 . S
H1800 C1808 0.930 . S
H1801 C1809 0.930 . S
H1802 C1812 0.930 . S
H1803 C1813 0.930 . S
C1804 H1798 0.930 . S
C1804 C1805 1.355 . S
C1804 C1806 1.415 . S
C1805 C1804 1.355 . S
C1805 C1807 1.419 . S
C1806 C1804 1.415 . S
C1806 C1811 1.425 . S
C1806 C1813 1.409 . S
C1807 H1799 0.930 . S
C1807 C1805 1.419 . S
C1807 C1808 1.362 . S
C1808 H1800 0.930 . S
C1808 C1807 1.362 . S
C1808 C1811 1.409 . S
C1809 H1801 0.930 . S
C1809 C1810 1.355 . S
C1809 C1811 1.415 . S
C1810 C1809 1.355 . S
C1810 C1812 1.419 . S
C1811 C1806 1.425 . S
C1811 C1808 1.409 . S
C1811 C1809 1.415 . S
C1812 H1802 0.930 . S
C1812 C1810 1.419 . S
C1812 C1813 1.362 . S
C1813 H1803 0.930 . S
C1813 C1806 1.409 . S
C1813 C1812 1.362 . S
H1814 C1820 0.930 . S
H1815 C1823 0.930 . S
H1816 C1824 0.930 . S
H1817 C1825 0.930 . S
H1818 C1828 0.930 . S
H1819 C1829 0.930 . S
C1820 H1814 0.930 . S
C1820 C1821 1.355 . S
C1820 C1822 1.415 . S
C1821 C1820 1.355 . S
C1821 C1823 1.419 . S
C1822 C1820 1.415 . S
C1822 C1827 1.425 . S
C1822 C1829 1.409 . S
C1823 H1815 0.930 . S
C1823 C1821 1.419 . S
C1823 C1824 1.362 . S
C1824 H1816 0.930 . S
C1824 C1823 1.362 . S
C1824 C1827 1.409 . S
C1825 H1817 0.930 . S
C1825 C1826 1.355 . S
C1825 C1827 1.415 . S
C1826 C1825 1.355 . S
C1826 C1828 1.419 . S
C1827 C1822 1.425 . S
C1827 C1824 1.409 . S
C1827 C1825 1.415 . S
C1828 H1818 0.930 . S
C1828 C1826 1.419 . S
C1828 C1829 1.362 . S
C1829 H1819 0.930 . S
C1829 C1822 1.409 . S
C1829 C1828 1.362 . S
H1830 C1836 0.930 . S
H1831 C1839 0.930 . S
H1832 C1840 0.930 . S
H1833 C1841 0.930 . S
H1834 C1844 0.930 . S
H1835 C1845 0.930 . S
C1836 H1830 0.930 . S
C1836 C1837 1.355 . S
C1836 C1838 1.415 . S
C1837 C1836 1.355 . S
C1837 C1839 1.419 . S
C1838 C1836 1.415 . S
C1838 C1843 1.425 . S
C1838 C1845 1.409 . S
C1839 H1831 0.930 . S
C1839 C1837 1.419 . S
C1839 C1840 1.362 . S
C1840 H1832 0.930 . S
C1840 C1839 1.362 . S
C1840 C1843 1.409 . S
C1841 H1833 0.930 . S
C1841 C1842 1.355 . S
C1841 C1843 1.415 . S
C1842 C1841 1.355 . S
C1842 C1844 1.419 . S
C1843 C1838 1.425 . S
C1843 C1840 1.409 . S
C1843 C1841 1.415 . S
C1844 H1834 0.930 . S
C1844 C1842 1.419 . S
C1844 C1845 1.362 . S
C1845 H1835 0.930 . S
C1845 C1838 1.409 . S
C1845 C1844 1.362 . S
H1846 C1852 0.930 . S
H1847 C1855 0.930 . S
H1848 C1856 0.930 . S
H1849 C1857 0.930 . S
H1850 C1860 0.930 . S
H1851 C1861 0.930 . S
C1852 H1846 0.930 . S
C1852 C1853 1.355 . S
C1852 C1854 1.415 . S
C1853 C1852 1.355 . S
C1853 C1855 1.419 . S
C1854 C1852 1.415 . S
C1854 C1859 1.425 . S
C1854 C1861 1.409 . S
C1855 H1847 0.930 . S
C1855 C1853 1.419 . S
C1855 C1856 1.362 . S
C1856 H1848 0.930 . S
C1856 C1855 1.362 . S
C1856 C1859 1.409 . S
C1857 H1849 0.930 . S
C1857 C1858 1.355 . S
C1857 C1859 1.415 . S
C1858 C1857 1.355 . S
C1858 C1860 1.419 . S
C1859 C1854 1.425 . S
C1859 C1856 1.409 . S
C1859 C1857 1.415 . S
C1860 H1850 0.930 . S
C1860 C1858 1.419 . S
C1860 C1861 1.362 . S
C1861 H1851 0.930 . S
C1861 C1854 1.409 . S
C1861 C1860 1.362 . S
H1862 C1868 0.930 . S
H1863 C1871 0.930 . S
H1864 C1872 0.930 . S
H1865 C1873 0.930 . S
H1866 C1876 0.930 . S
H1867 C1877 0.930 . S
C1868 H1862 0.930 . S
C1868 C1869 1.355 . S
C1868 C1870 1.415 . S
C1869 C1868 1.355 . S
C1869 C1871 1.419 . S
C1870 C1868 1.415 . S
C1870 C1875 1.425 . S
C1870 C1877 1.409 . S
C1871 H1863 0.930 . S
C1871 C1869 1.419 . S
C1871 C1872 1.362 . S
C1872 H1864 0.930 . S
C1872 C1871 1.362 . S
C1872 C1875 1.409 . S
C1873 H1865 0.930 . S
C1873 C1874 1.355 . S
C1873 C1875 1.415 . S
C1874 C1873 1.355 . S
C1874 C1876 1.419 . S
C1875 C1870 1.425 . S
C1875 C1872 1.409 . S
C1875 C1873 1.415 . S
C1876 H1866 0.930 . S
C1876 C1874 1.419 . S
C1876 C1877 1.362 . S
C1877 H1867 0.930 . S
C1877 C1870 1.409 . S
C1877 C1876 1.362 . S
H1878 C1884 0.930 . S
H1879 C1887 0.930 . S
H1880 C1888 0.930 . S
H1881 C1889 0.930 . S
H1882 C1892 0.930 . S
H1883 C1893 0.930 . S
C1884 H1878 0.930 . S
C1884 C1885 1.355 . S
C1884 C1886 1.415 . S
C1885 C1884 1.355 . S
C1885 C1887 1.419 . S
C1886 C1884 1.415 . S
C1886 C1891 1.425 . S
C1886 C1893 1.409 . S
C1887 H1879 0.930 . S
C1887 C1885 1.419 . S
C1887 C1888 1.362 . S
C1888 H1880 0.930 . S
C1888 C1887 1.362 . S
C1888 C1891 1.409 . S
C1889 H1881 0.930 . S
C1889 C1890 1.355 . S
C1889 C1891 1.415 . S
C1890 C1889 1.355 . S
C1890 C1892 1.419 . S
C1891 C1886 1.425 . S
C1891 C1888 1.409 . S
C1891 C1889 1.415 . S
C1892 H1882 0.930 . S
C1892 C1890 1.419 . S
C1892 C1893 1.362 . S
C1893 H1883 0.930 . S
C1893 C1886 1.409 . S
C1893 C1892 1.362 . S
H1894 C1900 0.930 . S
H1895 C1903 0.930 . S
H1896 C1904 0.930 . S
H1897 C1905 0.930 . S
H1898 C1908 0.930 . S
H1899 C1909 0.930 . S
C1900 H1894 0.930 . S
C1900 C1901 1.355 . S
C1900 C1902 1.415 . S
C1901 C1900 1.355 . S
C1901 C1903 1.419 . S
C1902 C1900 1.415 . S
C1902 C1907 1.425 . S
C1902 C1909 1.409 . S
C1903 H1895 0.930 . S
C1903 C1901 1.419 . S
C1903 C1904 1.362 . S
C1904 H1896 0.930 . S
C1904 C1903 1.362 . S
C1904 C1907 1.409 . S
C1905 H1897 0.930 . S
C1905 C1906 1.355 . S
C1905 C1907 1.415 . S
C1906 C1905 1.355 . S
C1906 C1908 1.419 . S
C1907 C1902 1.425 . S
C1907 C1904 1.409 . S
C1907 C1905 1.415 . S
C1908 H1898 0.930 . S
C1908 C1906 1.419 . S
C1908 C1909 1.362 . S
C1909 H1899 0.930 . S
C1909 C1902 1.409 . S
C1909 C1908 1.362 . S
H1910 C1916 0.930 . S
H1911 C1919 0.930 . S
H1912 C1920 0.930 . S
H1913 C1921 0.930 . S
H1914 C1924 0.930 . S
H1915 C1925 0.930 . S
C1916 H1910 0.930 . S
C1916 C1917 1.355 . S
C1916 C1918 1.415 . S
C1917 C1916 1.355 . S
C1917 C1919 1.419 . S
C1918 C1916 1.415 . S
C1918 C1923 1.425 . S
C1918 C1925 1.409 . S
C1919 H1911 0.930 . S
C1919 C1917 1.419 . S
C1919 C1920 1.362 . S
C1920 H1912 0.930 . S
C1920 C1919 1.362 . S
C1920 C1923 1.409 . S
C1921 H1913 0.930 . S
C1921 C1922 1.355 . S
C1921 C1923 1.415 . S
C1922 C1921 1.355 . S
C1922 C1924 1.419 . S
C1923 C1918 1.425 . S
C1923 C1920 1.409 . S
C1923 C1921 1.415 . S
C1924 H1914 0.930 . S
C1924 C1922 1.419 . S
C1924 C1925 1.362 . S
C1925 H1915 0.930 . S
C1925 C1918 1.409 . S
C1925 C1924 1.362 . S
C1069 C528 1.705 . S
C1074 C705 1.717 . S
C1085 C562 1.786 . S
C1090 C745 1.796 . S
C1101 C484 1.749 . S
C1106 C797 1.756 . S
C1117 C445 1.603 . S
C1122 C757 1.585 . S
C1138 C785 1.514 . S
C1133 C367 1.507 . S
C1149 C411 1.488 . S
C1154 C717 1.493 . S
C1170 C724 1.717 . S
C1165 C450 1.686 . S
C1186 C764 1.791 . S
C1181 C372 1.789 . S
C1197 C406 1.723 . S
C1202 C784 1.753 . S
C1213 C523 1.566 . S
C1218 C744 1.597 . S
C1229 C567 1.452 . S
C1234 C804 1.482 . S
C1250 C704 1.496 . S
C1245 C489 1.476 . S
C1266 C825 1.717 . S
C1261 C60 1.706 . S
C1277 C94 1.803 . S
C1282 C865 1.812 . S
C1293 C16 1.744 . S
C1298 C917 1.784 . S
C1309 C679 1.572 . S
C1314 C877 1.598 . S
C1325 C601 1.525 . S
C1330 C905 1.529 . S
C1341 C645 1.481 . S
C1346 C837 1.485 . S
C1357 C684 1.667 . S
C1362 C844 1.705 . S
C1373 C606 1.794 . S
C1378 C884 1.797 . S
C1394 C904 1.800 . S
C1389 C640 1.787 . S
C1405 C55 1.552 . S
C1410 C864 1.572 . S
C1426 C924 1.511 . S
C1421 C99 1.502 1_455 S
C1437 C21 1.415 . S
C1442 C824 1.478 . S
C1458 C945 1.701 . S
C1453 C294 1.687 . S
C1469 C328 1.788 . S
C1474 C985 1.798 . S
C1490 C1037 1.774 . S
C1485 C250 1.734 . S
C1506 C997 1.566 . S
C1501 C211 1.558 . S
C1522 C1025 1.515 . S
C1517 C133 1.499 1_655 S
C1533 C177 1.420 . S
C1538 C957 1.466 . S
C1549 C216 1.674 . S
C1554 C964 1.709 . S
C1565 C138 1.780 . S
C1570 C1004 1.795 . S
C1586 C1024 1.805 . S
C1581 C172 1.786 . S
C1597 C289 1.606 . S
C1602 C984 1.619 . S
C1613 C333 1.465 . S
C1618 C1044 1.491 . S
C1629 C255 1.448 . S
C1634 C944 1.513 . S
C1645 C586 1.366 . S
C1650 C728 1.362 . S
C1666 C768 1.807 . S
C1661 C625 1.819 . S
C1677 C664 1.574 . S
C1682 C791 1.569 . S
C1693 C235 1.857 . S
C1698 C751 1.844 . S
C1709 C274 1.573 . S
C1714 C808 1.574 . S
C1730 C711 1.328 . S
C1725 C313 1.354 . S
C1741 C118 1.365 . S
C1746 C848 1.336 . S
C1757 C157 1.832 . S
C1762 C888 1.811 . S
C1773 C196 1.585 . S
C1778 C911 1.584 . S
C1789 C469 1.835 . S
C1794 C871 1.822 . S
C1810 C928 1.545 . S
C1805 C508 1.544 . S
C1821 C547 1.364 . S
C1826 C831 1.368 . S
C1837 C352 1.358 . S
C1842 C968 1.365 . S
C1853 C391 1.819 . S
C1858 C1008 1.809 . S
C1874 C1031 1.559 . S
C1869 C430 1.551 . S
C1885 C1 1.853 . S
C1890 C991 1.858 . S
C1901 C40 1.570 . S
C1906 C1048 1.574 . S
C1917 C79 1.358 . S
C1922 C951 1.360 . S
