# Generated by pormake.
# Topology rtl, (3,6)-cn, num edge types: 1
# Building blocks:
#     Node 0, Type 0, BuildingBlock: KAKCAD_clean_linker_0, # of connection points: 3
#     Node 1, Type 0, BuildingBlock: KAKCAD_clean_linker_0, # of connection points: 3
#     Node 2, Type 0, BuildingBlock: KAKCAD_clean_linker_0, # of connection points: 3
#     Node 3, Type 0, BuildingBlock: KAKCAD_clean_linker_0, # of connection points: 3
#     Node 4, Type 1, BuildingBlock: KUMJIN_clean_sbu_1, # of connection points: 6
#     Node 5, Type 1, BuildingBlock: KUMJIN_clean_sbu_1, # of connection points: 6
#     Edge 6, Type (0, 1), BuildingBlock: EZIPEK_clean_linker_0, # of connection points: 2
#     Edge 7, Type (0, 1), BuildingBlock: EZIPEK_clean_linker_0, # of connection points: 2
#     Edge 8, Type (0, 1), BuildingBlock: EZIPEK_clean_linker_0, # of connection points: 2
#     Edge 9, Type (0, 1), BuildingBlock: EZIPEK_clean_linker_0, # of connection points: 2
#     Edge 10, Type (0, 1), BuildingBlock: EZIPEK_clean_linker_0, # of connection points: 2
#     Edge 11, Type (0, 1), BuildingBlock: EZIPEK_clean_linker_0, # of connection points: 2
#     Edge 12, Type (0, 1), BuildingBlock: EZIPEK_clean_linker_0, # of connection points: 2
#     Edge 13, Type (0, 1), BuildingBlock: EZIPEK_clean_linker_0, # of connection points: 2
#     Edge 14, Type (0, 1), BuildingBlock: EZIPEK_clean_linker_0, # of connection points: 2
#     Edge 15, Type (0, 1), BuildingBlock: EZIPEK_clean_linker_0, # of connection points: 2
#     Edge 16, Type (0, 1), BuildingBlock: EZIPEK_clean_linker_0, # of connection points: 2
#     Edge 17, Type (0, 1), BuildingBlock: EZIPEK_clean_linker_0, # of connection points: 2
# Relax obj value: 0.019
# Max RMSD: 0.113
# Mean RMSD: 0.068
data_MOF--net-rtl--node1-KUMJIN_clean_sbu_1--node2-KAKCAD_clean_linker_0--edge1-EZIPEK_clean_linker_0
_symmetry_space_group_name_H-M    P1
_symmetry_Int_Tables_number       1
_symmetry_cell_setting            triclinic
loop_
_symmetry_equiv_pos_as_xyz
'x, y, z'
_cell_length_a     31.36884
_cell_length_b     31.904264
_cell_length_c     28.252795
_cell_angle_alpha  76.697253
_cell_angle_beta   99.875929
_cell_angle_gamma 90.687746
loop_
_atom_site_label
_atom_site_type_symbol
_atom_site_fract_x
_atom_site_fract_y
_atom_site_fract_z
_atom_type_partial_charge
C0 C 0.12956 0.93074 0.87203 0.0
C1 C 0.15173 0.94006 0.83195 0.0
C2 C 0.15204 0.91508 0.91988 0.0
C3 C 0.19718 0.90842 0.92848 0.0
C4 C 0.21948 0.91907 0.88826 0.0
C5 C 0.19689 0.93485 0.84027 0.0
C6 C 0.2203 0.88761 0.9787 0.0
C7 C 0.25014 0.8537 0.98481 0.0
C8 C 0.26977 0.8311 0.03202 0.0
C9 C 0.26043 0.8437 0.0738 0.0
C10 C 0.23007 0.87747 0.06865 0.0
C11 C 0.21023 0.89907 0.02068 0.0
C12 C 0.21637 0.88839 0.11271 0.0
C13 C 0.21345 0.85607 0.15538 0.0
C14 C 0.20294 0.93079 0.11111 0.0
C15 C 0.18435 0.93996 0.14926 0.0
C16 C 0.17979 0.90726 0.19059 0.0
C17 C 0.29776 0.79266 0.03692 0.0
C18 C 0.28354 0.76149 0.01014 0.0
C19 C 0.33895 0.78733 0.06674 0.0
C20 C 0.36579 0.75196 0.0687 0.0
C21 C 0.35155 0.72124 0.04136 0.0
C22 C 0.31012 0.72607 0.01247 0.0
C23 C 0.19585 0.86556 0.19415 0.0
H24 H 0.09462 0.93453 0.86605 0.0
H25 H 0.13384 0.90663 0.94985 0.0
H26 H 0.25432 0.91462 0.89387 0.0
H27 H 0.21439 0.942 0.8096 0.0
H28 H 0.25712 0.84384 0.95262 0.0
H29 H 0.18592 0.92423 0.01573 0.0
H30 H 0.27594 0.82632 0.11017 0.0
H31 H 0.22288 0.82297 0.15812 0.0
H32 H 0.20583 0.95692 0.07981 0.0
H33 H 0.17256 0.97246 0.14601 0.0
H34 H 0.2517 0.76451 0.98739 0.0
H35 H 0.3507 0.81094 0.08758 0.0
H36 H 0.19279 0.8399 0.2259 0.0
H37 H 0.29848 0.70248 0.99154 0.0
H38 H 0.39767 0.74856 0.09138 0.0
C39 C 0.57348 0.65875 0.76348 0.0
C40 C 0.60143 0.6409 0.80781 0.0
C41 C 0.59018 0.67768 0.72095 0.0
C42 C 0.63516 0.6797 0.7221 0.0
C43 C 0.66309 0.66325 0.76709 0.0
C44 C 0.64635 0.6437 0.80951 0.0
C45 C 0.65264 0.69645 0.67578 0.0
C46 C 0.6866 0.72587 0.67419 0.0
C47 C 0.70349 0.74094 0.63032 0.0
C48 C 0.68589 0.72586 0.58831 0.0
C49 C 0.65349 0.6952 0.58982 0.0
C50 C 0.63634 0.68133 0.63333 0.0
C51 C 0.64048 0.67547 0.5469 0.0
C52 C 0.6726 0.66202 0.52407 0.0
C53 C 0.59673 0.66961 0.52862 0.0
C54 C 0.58547 0.65091 0.48799 0.0
C55 C 0.61789 0.63715 0.46581 0.0
C56 C 0.73983 0.77173 0.62764 0.0
C57 C 0.74324 0.80496 0.65326 0.0
C58 C 0.7708 0.76892 0.59761 0.0
C59 C 0.80294 0.79939 0.59167 0.0
C60 C 0.80575 0.83282 0.61656 0.0
C61 C 0.77608 0.83502 0.64803 0.0
C62 C 0.66142 0.64306 0.48405 0.0
H63 H 0.53874 0.6568 0.76147 0.0
H64 H 0.5679 0.69031 0.68691 0.0
H65 H 0.69787 0.66405 0.769 0.0
H66 H 0.66838 0.62998 0.8434 0.0
H67 H 0.69995 0.73667 0.70718 0.0
H68 H 0.61167 0.65719 0.63491 0.0
H69 H 0.69751 0.73787 0.55386 0.0
H70 H 0.70659 0.66556 0.53768 0.0
H71 H 0.57134 0.67988 0.54539 0.0
H72 H 0.55166 0.64673 0.4742 0.0
H73 H 0.71999 0.80846 0.67642 0.0
H74 H 0.77032 0.74314 0.57845 0.0
H75 H 0.68686 0.63261 0.46746 0.0
H76 H 0.77795 0.86046 0.66787 0.0
H77 H 0.82581 0.7968 0.56769 0.0
C78 C 0.80852 0.07927 0.25745 0.0
C79 C 0.85222 0.06619 0.26603 0.0
C80 C 0.78659 0.09508 0.20922 0.0
C81 C 0.80824 0.09899 0.16867 0.0
C82 C 0.85178 0.08458 0.17762 0.0
C83 C 0.87338 0.06801 0.22574 0.0
C84 C 0.78668 0.12081 0.11778 0.0
C85 C 0.75868 0.15666 0.11041 0.0
C86 C 0.74105 0.18005 0.06265 0.0
C87 C 0.75143 0.16712 0.02166 0.0
C88 C 0.77976 0.13166 0.02814 0.0
C89 C 0.79649 0.10823 0.07623 0.0
C90 C 0.79528 0.12172 0.98504 0.0
C91 C 0.76662 0.12249 0.94066 0.0
C92 C 0.83969 0.11387 0.98729 0.0
C93 C 0.85529 0.10825 0.94574 0.0
C94 C 0.82684 0.11027 0.90121 0.0
C95 C 0.71412 0.21961 0.05609 0.0
C96 C 0.7268 0.24915 0.08553 0.0
C97 C 0.67546 0.22784 0.0214 0.0
C98 C 0.64933 0.26422 0.0175 0.0
C99 C 0.66178 0.29286 0.048 0.0
C100 C 0.70083 0.28534 0.08157 0.0
C101 C 0.78228 0.11654 0.89909 0.0
H102 H 0.79168 0.07801 0.28815 0.0
H103 H 0.75287 0.10495 0.20383 0.0
H104 H 0.86988 0.08767 0.14769 0.0
H105 H 0.90718 0.05813 0.23174 0.0
H106 H 0.75146 0.16734 0.14196 0.0
H107 H 0.8177 0.08044 0.08118 0.0
H108 H 0.73946 0.18619 0.98481 0.0
H109 H 0.73222 0.12819 0.93798 0.0
H110 H 0.86268 0.11368 0.02066 0.0
H111 H 0.88979 0.10355 0.94792 0.0
H112 H 0.7568 0.24421 0.11186 0.0
H113 H 0.66489 0.20557 0.99832 0.0
H114 H 0.75992 0.11809 0.86491 0.0
H115 H 0.71088 0.30725 0.10528 0.0
H116 H 0.61913 0.2696 0.99153 0.0
C117 C 0.34801 0.36693 0.28736 0.0
C118 C 0.39173 0.37733 0.28846 0.0
C119 C 0.33345 0.34635 0.33091 0.0
C120 C 0.36247 0.33589 0.37607 0.0
C121 C 0.40645 0.34533 0.37644 0.0
C122 C 0.42087 0.36589 0.33314 0.0
C123 C 0.34698 0.31787 0.42337 0.0
C124 C 0.31719 0.28434 0.42784 0.0
C125 C 0.30343 0.26756 0.47331 0.0
C126 C 0.31909 0.28549 0.51379 0.0
C127 C 0.34859 0.31896 0.50986 0.0
C128 C 0.36239 0.33478 0.46463 0.0
C129 C 0.364 0.33824 0.55263 0.0
C130 C 0.37465 0.31207 0.60071 0.0
C131 C 0.36717 0.38319 0.54576 0.0
C132 C 0.37986 0.40159 0.58608 0.0
C133 C 0.38948 0.37544 0.63392 0.0
C134 C 0.27273 0.23141 0.47929 0.0
C135 C 0.23634 0.23033 0.44316 0.0
C136 C 0.2779 0.19932 0.52322 0.0
C137 C 0.24802 0.1667 0.53055 0.0
C138 C 0.213 0.16277 0.49298 0.0
C139 C 0.2065 0.1974 0.45042 0.0
C140 C 0.38722 0.33057 0.64109 0.0
H141 H 0.32521 0.37508 0.25295 0.0
H142 H 0.29937 0.33971 0.32949 0.0
H143 H 0.42978 0.33704 0.41041 0.0
H144 H 0.45485 0.37308 0.3345 0.0
H145 H 0.30571 0.27061 0.39645 0.0
H146 H 0.38511 0.36072 0.46142 0.0
H147 H 0.30729 0.27422 0.54825 0.0
H148 H 0.37311 0.27733 0.60712 0.0
H149 H 0.35868 0.40429 0.50938 0.0
H150 H 0.38122 0.43633 0.58012 0.0
H151 H 0.22993 0.25595 0.40998 0.0
H152 H 0.30487 0.19969 0.55273 0.0
H153 H 0.39456 0.31003 0.67793 0.0
H154 H 0.17757 0.20088 0.42288 0.0
H155 H 0.25248 0.14601 0.56704 0.0
Eu156 Eu 0.03222 0.96018 0.53038 0.0
C157 C 0.95942 0.14792 0.48048 0.0
N158 N 0.98891 0.12962 0.52118 0.0
C159 C 0.03095 0.19336 0.51008 0.0
C160 C 0.9656 0.1894 0.45208 0.0
C161 C 0.02337 0.15238 0.53738 0.0
C162 C 1.00229 0.21172 0.46691 0.0
C163 C 0.89027 0.14489 0.42718 0.0
C164 C 0.92194 0.12596 0.46817 0.0
C165 C 0.89712 0.18558 0.39808 0.0
C166 C 0.93464 0.20774 0.41048 0.0
Eu167 Eu 0.97338 0.05927 0.56249 0.0
N168 N 0.91644 0.08604 0.49617 0.0
C169 C 0.85244 0.1225 0.41682 0.0
C170 C 0.87896 0.06485 0.48737 0.0
C171 C 0.84657 0.08252 0.44738 0.0
H172 H 0.04493 0.13929 0.57169 0.0
H173 H 0.81748 0.06493 0.43963 0.0
H174 H 0.97248 0.8785 0.50304 0.0
H175 H 0.19053 0.95768 0.64625 0.0
H176 H 0.87533 0.03318 0.50921 0.0
H177 H 0.82748 0.1359 0.38553 0.0
H178 H 0.12789 0.98976 0.58227 0.0
H179 H 0.05869 0.21093 0.52263 0.0
H180 H 0.8733 0.20044 0.36623 0.0
H181 H 0.93907 0.23943 0.38809 0.0
H182 H 0.97242 0.79887 0.53089 0.0
H183 H 0.00815 0.24362 0.44604 0.0
H184 H 0.19231 0.87963 0.68527 0.0
N185 N 0.02997 0.88453 0.55279 0.0
C186 C 0.06247 0.86423 0.58865 0.0
C187 C 0.99789 0.81688 0.54742 0.0
C188 C 0.06369 0.81907 0.60574 0.0
C189 C 0.99794 0.86179 0.53179 0.0
C190 C 0.03074 0.79545 0.58478 0.0
N191 N 0.09371 0.93199 0.58913 0.0
C192 C 0.12817 0.95633 0.60063 0.0
C193 C 0.13068 0.86843 0.64271 0.0
C194 C 0.09539 0.88862 0.60718 0.0
C195 C 0.16466 0.89388 0.65792 0.0
C196 C 0.16373 0.93797 0.63614 0.0
H197 H 0.03056 0.76067 0.59688 0.0
H198 H 0.09932 0.76428 0.65638 0.0
H199 H 0.15803 0.80748 0.68859 0.0
O200 O 0.06969 0.98779 0.47274 0.0
O201 O 0.04137 0.95972 0.61262 0.0
O202 O 0.03127 0.02923 0.61973 0.0
O203 O 0.05049 0.92162 0.48187 0.0
O204 O 0.05219 0.03044 0.50986 0.0
O205 O 0.04611 0.06423 0.57115 0.0
O206 O 0.93561 0.05061 0.62286 0.0
O207 O 0.96736 0.04959 0.48358 0.0
O208 O 0.96696 0.97773 0.48326 0.0
O209 O 0.95316 0.11404 0.58773 0.0
O210 O 0.94431 0.99352 0.58713 0.0
O211 O 0.96235 0.94581 0.54188 0.0
C212 C 0.04168 0.98834 0.63986 0.0
C213 C 0.05765 0.95915 0.40173 0.0
C214 C 0.07631 0.95328 0.32321 0.0
C215 C 0.03564 0.97162 0.29889 0.0
C216 C 0.01679 0.97611 0.37698 0.0
C217 C 0.00599 0.98284 0.32578 0.0
C218 C 0.08735 0.9473 0.37479 0.0
C219 C 0.06825 0.05548 0.53911 0.0
C220 C 0.06909 0.95306 0.45561 0.0
C221 C 0.09797 0.79894 0.64253 0.0
C222 C 0.13139 0.82355 0.66092 0.0
C223 C 0.95348 0.01754 0.46332 0.0
C224 C 0.94618 0.10332 0.67108 0.0
C225 C 0.92502 0.11058 0.74785 0.0
C226 C 0.96423 0.13042 0.75996 0.0
C227 C 0.9849 0.12421 0.6833 0.0
C228 C 0.91616 0.09666 0.70355 0.0
C229 C 0.99404 0.13709 0.72782 0.0
C230 C 0.93927 0.95711 0.5725 0.0
C231 C 0.9355 0.09137 0.62312 0.0
H232 H 0.02663 0.97644 0.2592 0.0
H233 H 0.99327 0.98375 0.39744 0.0
H234 H 0.97441 0.99632 0.307 0.0
H235 H 0.11867 0.93314 0.39378 0.0
H236 H 0.97136 0.14138 0.79396 0.0
H237 H 0.00831 0.13027 0.6586 0.0
H238 H 0.88563 0.0818 0.69389 0.0
H239 H 0.02408 0.15275 0.73715 0.0
Eu240 Eu 0.45952 0.47829 0.00899 0.0
C241 C 0.64141 0.5594 0.06013 0.0
N242 N 0.62511 0.52095 0.07985 0.0
C243 C 0.68956 0.48407 0.07434 0.0
C244 C 0.68177 0.56133 0.04421 0.0
C245 C 0.64953 0.48387 0.08975 0.0
C246 C 0.70541 0.5229 0.0506 0.0
C247 C 0.63535 0.63744 0.03913 0.0
C248 C 0.61829 0.597 0.05748 0.0
C249 C 0.6746 0.63944 0.02119 0.0
C250 C 0.69773 0.60148 0.0237 0.0
Eu251 Eu 0.55589 0.52322 0.10141 0.0
N252 N 0.5802 0.59409 0.07483 0.0
C253 C 0.61305 0.67473 0.04051 0.0
C254 C 0.55965 0.63037 0.07881 0.0
C255 C 0.57546 0.67113 0.0612 0.0
H256 H 0.63865 0.45409 0.11021 0.0
H257 H 0.55864 0.69976 0.06367 0.0
H258 H 0.37069 0.54549 0.98853 0.0
H259 H 0.47148 0.30442 0.08202 0.0
H260 H 0.53118 0.62827 0.09583 0.0
H261 H 0.62515 0.70637 0.02683 0.0
H262 H 0.49357 0.37534 0.0376 0.0
H263 H 0.70835 0.45438 0.08129 0.0
H264 H 0.68786 0.67023 1.00638 0.0
H265 H 0.72847 0.60358 0.01082 0.0
H266 H 0.30106 0.54529 0.01714 0.0
H267 H 0.73657 0.52302 0.03893 0.0
H268 H 0.40387 0.29897 0.11691 0.0
N269 N 0.38924 0.48134 0.02921 0.0
C270 C 0.37555 0.44389 0.05551 0.0
C271 C 0.32198 0.51673 0.02883 0.0
C272 C 0.33522 0.44209 0.07153 0.0
C273 C 0.36203 0.51688 0.01346 0.0
C274 C 0.30882 0.47941 0.05873 0.0
N275 N 0.43968 0.40929 0.04874 0.0
C276 C 0.46406 0.37305 0.05279 0.0
C277 C 0.38733 0.36705 0.09054 0.0
C278 C 0.40113 0.4067 0.06485 0.0
C279 C 0.41335 0.33003 0.09734 0.0
C280 C 0.45158 0.33297 0.07776 0.0
H281 H 0.27765 0.47935 0.07035 0.0
H282 H 0.29141 0.40116 0.11182 0.0
H283 H 0.3371 0.33549 0.12854 0.0
O284 O 0.46938 0.44746 0.95 0.0
O285 O 0.47743 0.44607 0.08933 0.0
O286 O 0.49246 0.50114 0.12764 0.0
O287 O 0.40907 0.48118 0.94456 0.0
O288 O 0.52873 0.45253 0.0175 0.0
O289 O 0.559 0.45338 0.09749 0.0
O290 O 0.57563 0.55392 0.16346 0.0
O291 O 0.56151 0.53226 0.01978 0.0
O292 O 0.49131 0.53977 0.9767 0.0
O293 O 0.59054 0.48539 0.17206 0.0
O294 O 0.4954 0.56515 0.08109 0.0
O295 O 0.44562 0.54602 0.0184 0.0
C296 C 0.47362 0.46455 0.12503 0.0
C297 C 0.43303 0.48004 0.87027 0.0
C298 C 0.42481 0.47119 0.78599 0.0
C299 C 0.43007 0.51562 0.76934 0.0
C300 C 0.43876 0.52434 0.85338 0.0
C301 C 0.43746 0.54196 0.80304 0.0
C302 C 0.42695 0.45346 0.83664 0.0
C303 C 0.55759 0.4382 0.05782 0.0
C304 C 0.43237 0.46099 0.92254 0.0
C305 C 0.32206 0.40299 0.09876 0.0
C306 C 0.34803 0.36556 0.1082 0.0
C307 C 0.53288 0.54675 0.97934 0.0
C308 C 0.61433 0.5155 0.24373 0.0
C309 C 0.6233 0.54117 0.31977 0.0
C310 C 0.65678 0.51022 0.34081 0.0
C311 C 0.64762 0.48457 0.26566 0.0
C312 C 0.60198 0.5437 0.27107 0.0
C313 C 0.66876 0.48209 0.31391 0.0
C314 C 0.45916 0.57134 0.04885 0.0
C315 C 0.59316 0.51836 0.1923 0.0
H316 H 0.42857 0.52976 0.73034 0.0
H317 H 0.44394 0.54524 0.87899 0.0
H318 H 0.44178 0.57614 0.79007 0.0
H319 H 0.42274 0.41917 0.84959 0.0
H320 H 0.67352 0.50777 0.37827 0.0
H321 H 0.65765 0.46262 0.24528 0.0
H322 H 0.57597 0.56741 0.25475 0.0
H323 H 0.69456 0.45831 0.33049 0.0
C324 C 0.18314 0.09589 0.54647 0.0
C325 C 0.18059 0.12654 0.50073 0.0
C326 C 0.10536 0.10679 0.47832 0.0
C327 C 0.10586 0.08247 0.52726 0.0
N328 N 0.14514 0.06003 0.61094 0.0
N329 N 0.14911 0.13094 0.4157 0.0
C330 C 0.14458 0.07913 0.56238 0.0
C331 C 0.14437 0.12381 0.46395 0.0
N332 N 0.2219 0.07628 0.56975 0.0
N333 N 0.06721 0.1161 0.44617 0.0
H334 H 0.17949 0.13586 0.40527 0.0
H335 H 0.12457 0.12566 0.38792 0.0
H336 H 0.03756 0.10753 0.45691 0.0
H337 H 0.06492 0.13682 0.41134 0.0
H338 H 0.22492 0.0508 0.60091 0.0
H339 H 0.24941 0.08111 0.55313 0.0
H340 H 0.17227 0.06025 0.63802 0.0
H341 H 0.11784 0.04697 0.62453 0.0
C342 C 0.39705 0.6801 1.00118 0.0
C343 C 0.37971 0.68347 0.04332 0.0
C344 C 0.4189 0.61704 0.09068 0.0
C345 C 0.43194 0.61025 0.04683 0.0
N346 N 0.42967 0.635 0.95848 0.0
N347 N 0.36666 0.65072 0.12506 0.0
C348 C 0.41961 0.64152 1.00145 0.0
C349 C 0.38859 0.65075 0.08717 0.0
N350 N 0.39367 0.71462 0.96158 0.0
N351 N 0.43564 0.5922 0.13622 0.0
H352 H 0.3439 0.67464 0.124 0.0
H353 H 0.36784 0.62478 0.15545 0.0
H354 H 0.45621 0.56563 0.14236 0.0
H355 H 0.43148 0.60006 0.16899 0.0
H356 H 0.40993 0.71618 0.93206 0.0
H357 H 0.37786 0.74355 0.96026 0.0
H358 H 0.4163 0.65356 0.92379 0.0
H359 H 0.44953 0.60984 0.95672 0.0
C360 C 0.88433 0.85239 0.62608 0.0
C361 C 0.84015 0.86525 0.60971 0.0
C362 C 0.86154 0.94013 0.58581 0.0
C363 C 0.90561 0.92648 0.59145 0.0
N364 N 0.95929 0.86878 0.62254 0.0
N365 N 0.78693 0.92102 0.56623 0.0
C366 C 0.91701 0.8822 0.61308 0.0
C367 C 0.82882 0.909 0.58734 0.0
N368 N 0.89497 0.81217 0.65548 0.0
N369 N 0.85045 0.98204 0.58238 0.0
H370 H 0.76191 0.89923 0.56566 0.0
H371 H 0.77804 0.95194 0.54499 0.0
H372 H 0.8729 0.00528 0.58793 0.0
H373 H 0.81889 0.99227 0.58183 0.0
H374 H 0.9263 0.80193 0.67284 0.0
H375 H 0.87184 0.78999 0.6665 0.0
H376 H 0.96975 0.83665 0.63371 0.0
H377 H 0.98412 0.89012 0.61723 0.0
C378 C 0.61024 0.3266 0.08693 0.0
C379 C 0.63333 0.32978 0.04756 0.0
C380 C 0.61089 0.40604 0.01723 0.0
C381 C 0.58892 0.40294 0.05801 0.0
N382 N 0.58778 0.36473 0.14268 0.0
N383 N 0.6611 0.37315 0.97854 0.0
C384 C 0.59409 0.36458 0.09615 0.0
C385 C 0.63505 0.36972 0.01335 0.0
N386 N 0.60399 0.28718 0.11598 0.0
N387 N 0.61044 0.44446 0.98367 0.0
H388 H 0.67821 0.34688 0.97412 0.0
H389 H 0.66762 0.40207 0.95552 0.0
H390 H 0.59982 0.47312 0.99011 0.0
H391 H 0.62068 0.44818 0.94986 0.0
H392 H 0.58351 0.28289 0.14204 0.0
H393 H 0.61565 0.25846 0.11053 0.0
H394 H 0.59377 0.33776 0.17205 0.0
H395 H 0.58427 0.3928 0.15445 0.0
C396 C 0.11561 0.89621 0.23444 0.0
C397 C 0.15561 0.91633 0.22838 0.0
C398 C 0.14438 0.96083 0.28573 0.0
C399 C 0.10601 0.93848 0.29421 0.0
N400 N 0.06153 0.87737 0.28682 0.0
N401 N 0.21268 0.96082 0.25645 0.0
C402 C 0.09374 0.90369 0.27183 0.0
C403 C 0.17145 0.94654 0.25662 0.0
N404 N 0.09706 0.87197 0.20271 0.0
N405 N 0.15405 0.99675 0.30365 0.0
H406 H 0.23361 0.95044 0.23622 0.0
H407 H 0.22745 0.97964 0.27989 0.0
H408 H 0.13507 0.00823 0.32511 0.0
H409 H 0.17894 0.0171 0.29399 0.0
H410 H 0.06581 0.86045 0.20241 0.0
H411 H 0.11088 0.86695 0.17339 0.0
H412 H 0.0542 0.84898 0.27526 0.0
H413 H 0.04516 0.88154 0.31468 0.0
C414 C 0.57806 0.63741 0.88963 0.0
C415 C 0.58344 0.61684 0.85148 0.0
C416 C 0.55452 0.55028 0.89624 0.0
C417 C 0.54829 0.57124 0.93395 0.0
N418 N 0.54131 0.63795 0.95814 0.0
N419 N 0.57139 0.5559 0.81427 0.0
C420 C 0.55657 0.61572 0.92837 0.0
C421 C 0.56994 0.5739 0.85353 0.0
N422 N 0.59378 0.67761 0.88916 0.0
N423 N 0.54628 0.50752 0.90162 0.0
H424 H 0.58505 0.57097 0.7838 0.0
H425 H 0.55685 0.52715 0.8102 0.0
H426 H 0.53305 0.48999 0.93102 0.0
H427 H 0.55457 0.48872 0.8788 0.0
H428 H 0.59539 0.69205 0.91893 0.0
H429 H 0.60814 0.69529 0.86045 0.0
H430 H 0.54177 0.67139 0.95231 0.0
H431 H 0.52401 0.62329 0.98556 0.0
C432 C 0.91165 0.07888 0.33213 0.0
C433 C 0.87695 0.05337 0.31718 0.0
C434 C 0.88969 0.00539 0.39993 0.0
C435 C 0.9277 0.02803 0.41246 0.0
N436 N 0.98163 0.07715 0.38314 0.0
N437 N 0.83777 0.98754 0.334 0.0
C438 C 0.94056 0.06238 0.37656 0.0
C439 C 0.86729 0.01515 0.35026 0.0
N440 N 0.9167 0.11923 0.3045 0.0
N441 N 0.87372 0.9761 0.43555 0.0
H442 H 0.82108 0.99334 0.29777 0.0
H443 H 0.83281 0.95713 0.35523 0.0
H444 H 0.8883 0.96887 0.47257 0.0
H445 H 0.84368 0.96221 0.4292 0.0
H446 H 0.93928 0.14038 0.3167 0.0
H447 H 0.89542 0.13315 0.27218 0.0
H448 H 0.99348 0.10016 0.35627 0.0
H449 H 0.00546 0.0617 0.41211 0.0
C450 C 0.44259 0.40666 0.69251 0.0
C451 C 0.39942 0.39571 0.67662 0.0
C452 C 0.374 0.42868 0.73744 0.0
C453 C 0.4165 0.4433 0.75007 0.0
N454 N 0.49148 0.44713 0.74054 0.0
N455 N 0.32349 0.39676 0.68139 0.0
C456 C 0.45095 0.43235 0.72798 0.0
C457 C 0.36503 0.40642 0.6988 0.0
N458 N 0.47554 0.39172 0.67418 0.0
N459 N 0.34224 0.43612 0.76246 0.0
H460 H 0.31581 0.37907 0.65443 0.0
H461 H 0.29619 0.40801 0.69147 0.0
H462 H 0.34648 0.45499 0.78842 0.0
H463 H 0.31226 0.42175 0.75973 0.0
H464 H 0.50821 0.39485 0.68723 0.0
H465 H 0.4703 0.37331 0.64772 0.0
H466 H 0.51697 0.44493 0.72197 0.0
H467 H 0.49948 0.46348 0.76872 0.0
C468 C 0.61657 0.63778 0.37686 0.0
C469 C 0.60749 0.61601 0.42362 0.0
C470 C 0.59259 0.55067 0.39276 0.0
C471 C 0.61063 0.56964 0.35039 0.0
N472 N 0.6408 0.63148 0.30176 0.0
N473 N 0.58824 0.55083 0.47743 0.0
C474 C 0.62213 0.61359 0.34175 0.0
C475 C 0.59503 0.57238 0.43173 0.0
N476 N 0.62004 0.68155 0.36635 0.0
N477 N 0.57323 0.51179 0.39558 0.0
H478 H 0.58951 0.5655 0.50699 0.0
H479 H 0.58426 0.51767 0.48703 0.0
H480 H 0.5707 0.49545 0.36721 0.0
H481 H 0.55601 0.49801 0.42342 0.0
H482 H 0.62277 0.6999 0.33144 0.0
H483 H 0.61588 0.6999 0.3915 0.0
H484 H 0.65446 0.66175 0.29666 0.0
H485 H 0.64524 0.61497 0.27507 0.0
C486 C 0.86264 0.06876 0.85275 0.0
C487 C 0.84473 0.10829 0.8564 0.0
C488 C 0.86842 0.14506 0.7796 0.0
C489 C 0.89245 0.10742 0.78076 0.0
N490 N 0.91391 0.03335 0.81831 0.0
N491 N 0.83338 0.18524 0.82581 0.0
C492 C 0.88954 0.06898 0.81695 0.0
C493 C 0.84778 0.14671 0.82009 0.0
N494 N 0.85357 0.03113 0.88335 0.0
N495 N 0.86539 0.17918 0.73965 0.0
H496 H 0.81815 0.18809 0.85498 0.0
H497 H 0.83946 0.21488 0.80376 0.0
H498 H 0.88034 0.17893 0.70943 0.0
H499 H 0.84486 0.2059 0.73428 0.0
H500 H 0.86232 1.00079 0.87976 0.0
H501 H 0.83385 0.03012 0.9098 0.0
H502 H 0.91723 0.00594 0.84712 0.0
H503 H 0.93292 0.03209 0.79175 0.0
C504 C 0.39953 0.44333 0.22158 0.0
C505 C 0.40812 0.39882 0.24281 0.0
C506 C 0.46 0.39721 0.18781 0.0
C507 C 0.45029 0.44153 0.16494 0.0
N508 N 0.39908 0.50094 0.149 0.0
N509 N 0.43659 0.33099 0.23649 0.0
C510 C 0.41668 0.46304 0.17866 0.0
C511 C 0.43517 0.375 0.22275 0.0
N512 N 0.37606 0.46716 0.24301 0.0
N513 N 0.4941 0.37655 0.17799 0.0
H514 H 0.41855 0.31368 0.26188 0.0
H515 H 0.452 0.31169 0.21901 0.0
H516 H 0.51337 0.39143 0.1531 0.0
H517 H 0.50552 0.34585 0.1976 0.0
H518 H 0.3729 0.50064 0.23192 0.0
H519 H 0.36265 0.45388 0.27427 0.0
H520 H 0.37174 0.51596 0.15479 0.0
H521 H 0.40871 0.51455 0.11542 0.0
C522 C 0.11213 0.99652 0.76223 0.0
C523 C 0.12643 0.9531 0.78131 0.0
C524 C 0.07643 0.93166 0.71527 0.0
C525 C 0.065 0.9756 0.69291 0.0
N526 N 0.05455 0.04425 0.71199 0.0
N527 N 0.127 0.87966 0.773 0.0
C528 C 0.07828 0.00694 0.72066 0.0
C529 C 0.11023 0.92081 0.75668 0.0
N530 N 0.13104 0.02786 0.78386 0.0
N531 N 0.05064 0.90036 0.70153 0.0
H532 H 0.15129 0.87033 0.80388 0.0
H533 H 0.11957 0.8558 0.75343 0.0
H534 H 0.02024 0.9084 0.68012 0.0
H535 H 0.05532 0.86762 0.71785 0.0
H536 H 0.1254 0.06066 0.76836 0.0
H537 H 0.1555 0.02111 0.81486 0.0
H538 H 0.06104 0.06725 0.73289 0.0
H539 H 0.02379 0.04808 0.69058 0.0
loop_
_geom_bond_atom_site_label_1
_geom_bond_atom_site_label_2
_geom_bond_distance
_geom_bond_site_symmetry_2
_ccdc_geom_bond_type
C0 C1 1.386 . S
C0 C2 1.397 . S
C0 H24 0.931 . S
C1 C0 1.386 . S
C1 C5 1.397 . S
C2 C0 1.397 . S
C2 C3 1.384 . S
C2 H25 0.930 . S
C3 C2 1.384 . S
C3 C4 1.377 . S
C3 C6 1.481 . S
C4 C3 1.377 . S
C4 C5 1.389 . S
C4 H26 0.929 . S
C5 C1 1.397 . S
C5 C4 1.389 . S
C5 H27 0.931 1_565 S
C6 C3 1.481 . S
C6 C7 1.387 . S
C6 C11 1.390 1_556 S
C7 C6 1.387 . S
C7 C8 1.401 1_556 S
C7 H28 0.930 . S
C8 C7 1.401 1_554 S
C8 C9 1.376 . S
C8 C17 1.511 . S
C9 C8 1.376 . S
C9 C10 1.392 . S
C9 H30 0.931 . S
C10 C9 1.392 . S
C10 C11 1.361 . S
C10 C12 1.500 . S
C11 C6 1.390 1_554 S
C11 C10 1.361 . S
C11 H29 0.931 . S
C12 C10 1.500 . S
C12 C13 1.371 . S
C12 C14 1.365 . S
C13 C12 1.371 . S
C13 C23 1.386 . S
C13 H31 0.931 . S
C14 C12 1.365 . S
C14 C15 1.409 . S
C14 H32 0.929 . S
C15 C14 1.409 . S
C15 C16 1.380 . S
C15 H33 0.930 . S
C16 C15 1.380 . S
C16 C23 1.357 . S
C17 C8 1.511 . S
C17 C18 1.341 1_554 S
C17 C19 1.371 . S
C18 C17 1.341 1_556 S
C18 C22 1.394 1_556 S
C18 H34 0.930 . S
C19 C17 1.371 . S
C19 C20 1.392 . S
C19 H35 0.931 . S
C20 C19 1.392 . S
C20 C21 1.331 . S
C20 H38 0.932 . S
C21 C20 1.331 . S
C21 C22 1.336 . S
C22 C18 1.394 1_554 S
C22 C21 1.336 . S
C22 H37 0.929 1_554 S
C23 C13 1.386 . S
C23 C16 1.357 . S
C23 H36 0.928 . S
H24 C0 0.931 . S
H25 C2 0.930 . S
H26 C4 0.929 . S
H27 C5 0.931 1_545 S
H28 C7 0.930 . S
H29 C11 0.931 . S
H30 C9 0.931 . S
H31 C13 0.931 . S
H32 C14 0.929 . S
H33 C15 0.930 . S
H34 C18 0.930 . S
H35 C19 0.931 . S
H36 C23 0.928 . S
H37 C22 0.929 1_556 S
H38 C20 0.932 . S
C39 C40 1.386 . S
C39 C41 1.397 . S
C39 H63 0.931 . S
C40 C39 1.386 . S
C40 C44 1.397 . S
C41 C39 1.397 . S
C41 C42 1.384 . S
C41 H64 0.930 . S
C42 C41 1.384 . S
C42 C43 1.377 . S
C42 C45 1.481 . S
C43 C42 1.377 . S
C43 C44 1.389 . S
C43 H65 0.929 . S
C44 C40 1.397 . S
C44 C43 1.389 . S
C44 H66 0.931 . S
C45 C42 1.481 . S
C45 C46 1.387 . S
C45 C50 1.390 . S
C46 C45 1.387 . S
C46 C47 1.401 . S
C46 H67 0.930 . S
C47 C46 1.401 . S
C47 C48 1.376 . S
C47 C56 1.511 . S
C48 C47 1.376 . S
C48 C49 1.392 . S
C48 H69 0.931 . S
C49 C48 1.392 . S
C49 C50 1.361 . S
C49 C51 1.500 . S
C50 C45 1.390 . S
C50 C49 1.361 . S
C50 H68 0.931 . S
C51 C49 1.500 . S
C51 C52 1.371 . S
C51 C53 1.365 . S
C52 C51 1.371 . S
C52 C62 1.386 . S
C52 H70 0.931 . S
C53 C51 1.365 . S
C53 C54 1.409 . S
C53 H71 0.929 . S
C54 C53 1.409 . S
C54 C55 1.380 . S
C54 H72 0.930 . S
C55 C54 1.380 . S
C55 C62 1.357 . S
C56 C47 1.511 . S
C56 C57 1.341 . S
C56 C58 1.371 . S
C57 C56 1.341 . S
C57 C61 1.394 . S
C57 H73 0.930 . S
C58 C56 1.371 . S
C58 C59 1.392 . S
C58 H74 0.931 . S
C59 C58 1.392 . S
C59 C60 1.331 . S
C59 H77 0.932 . S
C60 C59 1.331 . S
C60 C61 1.336 . S
C61 C57 1.394 . S
C61 C60 1.336 . S
C61 H76 0.929 . S
C62 C52 1.386 . S
C62 C55 1.357 . S
C62 H75 0.928 . S
H63 C39 0.931 . S
H64 C41 0.930 . S
H65 C43 0.929 . S
H66 C44 0.931 . S
H67 C46 0.930 . S
H68 C50 0.931 . S
H69 C48 0.931 . S
H70 C52 0.931 . S
H71 C53 0.929 . S
H72 C54 0.930 . S
H73 C57 0.930 . S
H74 C58 0.931 . S
H75 C62 0.928 . S
H76 C61 0.929 . S
H77 C59 0.932 . S
C78 C79 1.386 . S
C78 C80 1.397 . S
C78 H102 0.931 . S
C79 C78 1.386 . S
C79 C83 1.397 . S
C80 C78 1.397 . S
C80 C81 1.384 . S
C80 H103 0.930 . S
C81 C80 1.384 . S
C81 C82 1.377 . S
C81 C84 1.481 . S
C82 C81 1.377 . S
C82 C83 1.389 . S
C82 H104 0.929 . S
C83 C79 1.397 . S
C83 C82 1.389 . S
C83 H105 0.931 . S
C84 C81 1.481 . S
C84 C85 1.387 . S
C84 C89 1.390 . S
C85 C84 1.387 . S
C85 C86 1.401 . S
C85 H106 0.930 . S
C86 C85 1.401 . S
C86 C87 1.376 . S
C86 C95 1.511 . S
C87 C86 1.376 . S
C87 C88 1.392 . S
C87 H108 0.931 1_554 S
C88 C87 1.392 . S
C88 C89 1.361 . S
C88 C90 1.500 1_554 S
C89 C84 1.390 . S
C89 C88 1.361 . S
C89 H107 0.931 . S
C90 C88 1.500 1_556 S
C90 C91 1.371 . S
C90 C92 1.365 . S
C91 C90 1.371 . S
C91 C101 1.386 . S
C91 H109 0.931 . S
C92 C90 1.365 . S
C92 C93 1.409 . S
C92 H110 0.929 1_556 S
C93 C92 1.409 . S
C93 C94 1.380 . S
C93 H111 0.930 . S
C94 C93 1.380 . S
C94 C101 1.357 . S
C95 C86 1.511 . S
C95 C96 1.341 . S
C95 C97 1.371 . S
C96 C95 1.341 . S
C96 C100 1.394 . S
C96 H112 0.930 . S
C97 C95 1.371 . S
C97 C98 1.392 . S
C97 H113 0.931 1_554 S
C98 C97 1.392 . S
C98 C99 1.334 . S
C98 H116 0.929 1_554 S
C99 C98 1.334 . S
C99 C100 1.336 . S
C100 C96 1.394 . S
C100 C99 1.336 . S
C100 H115 0.929 . S
C101 C91 1.386 . S
C101 C94 1.357 . S
C101 H114 0.928 . S
H102 C78 0.931 . S
H103 C80 0.930 . S
H104 C82 0.929 . S
H105 C83 0.931 . S
H106 C85 0.930 . S
H107 C89 0.931 . S
H108 C87 0.931 1_556 S
H109 C91 0.931 . S
H110 C92 0.929 1_554 S
H111 C93 0.930 . S
H112 C96 0.930 . S
H113 C97 0.931 1_556 S
H114 C101 0.928 . S
H115 C100 0.929 . S
H116 C98 0.929 1_556 S
C117 C118 1.386 . S
C117 C119 1.397 . S
C117 H141 0.931 . S
C118 C117 1.386 . S
C118 C122 1.397 . S
C119 C117 1.397 . S
C119 C120 1.384 . S
C119 H142 0.930 . S
C120 C119 1.384 . S
C120 C121 1.377 . S
C120 C123 1.481 . S
C121 C120 1.377 . S
C121 C122 1.389 . S
C121 H143 0.929 . S
C122 C118 1.397 . S
C122 C121 1.389 . S
C122 H144 0.931 . S
C123 C120 1.481 . S
C123 C124 1.387 . S
C123 C128 1.390 . S
C124 C123 1.387 . S
C124 C125 1.401 . S
C124 H145 0.930 . S
C125 C124 1.401 . S
C125 C126 1.376 . S
C125 C134 1.511 . S
C126 C125 1.376 . S
C126 C127 1.392 . S
C126 H147 0.931 . S
C127 C126 1.392 . S
C127 C128 1.361 . S
C127 C129 1.500 . S
C128 C123 1.390 . S
C128 C127 1.361 . S
C128 H146 0.931 . S
C129 C127 1.500 . S
C129 C130 1.371 . S
C129 C131 1.365 . S
C130 C129 1.371 . S
C130 C140 1.386 . S
C130 H148 0.931 . S
C131 C129 1.365 . S
C131 C132 1.409 . S
C131 H149 0.929 . S
C132 C131 1.409 . S
C132 C133 1.380 . S
C132 H150 0.930 . S
C133 C132 1.380 . S
C133 C140 1.357 . S
C134 C125 1.511 . S
C134 C135 1.341 . S
C134 C136 1.371 . S
C135 C134 1.341 . S
C135 C139 1.394 . S
C135 H151 0.930 . S
C136 C134 1.371 . S
C136 C137 1.392 . S
C136 H152 0.931 . S
C137 C136 1.392 . S
C137 C138 1.331 . S
C137 H155 0.932 . S
C138 C137 1.331 . S
C138 C139 1.336 . S
C139 C135 1.394 . S
C139 C138 1.336 . S
C139 H154 0.929 . S
C140 C130 1.386 . S
C140 C133 1.357 . S
C140 H153 0.928 . S
H141 C117 0.931 . S
H142 C119 0.930 . S
H143 C121 0.929 . S
H144 C122 0.931 . S
H145 C124 0.930 . S
H146 C128 0.931 . S
H147 C126 0.931 . S
H148 C130 0.931 . S
H149 C131 0.929 . S
H150 C132 0.930 . S
H151 C135 0.930 . S
H152 C136 0.931 . S
H153 C140 0.928 . S
H154 C139 0.929 . S
H155 C137 0.932 . S
Eu156 N185 2.600 . S
Eu156 N191 2.562 . S
Eu156 O200 2.462 . S
Eu156 O201 2.373 . S
Eu156 O203 2.432 . S
Eu156 O204 2.291 1_565 S
Eu156 O208 2.335 1_465 S
Eu156 O211 2.372 1_455 S
Eu156 C220 2.787 . S
C157 N158 1.365 . S
C157 C160 1.405 . S
C157 C164 1.448 . S
N158 C157 1.365 . S
N158 C161 1.319 . S
N158 Eu167 2.600 . S
C159 C161 1.397 . S
C159 C162 1.367 . S
C159 H179 0.931 1_655 S
C160 C157 1.405 . S
C160 C162 1.403 . S
C160 C166 1.439 . S
C161 N158 1.319 . S
C161 C159 1.397 . S
C161 H172 0.930 1_655 S
C162 C159 1.367 . S
C162 C160 1.403 . S
C162 H183 0.929 . S
C163 C164 1.430 . S
C163 C165 1.387 . S
C163 C169 1.404 . S
C164 C157 1.448 . S
C164 C163 1.430 . S
C164 N168 1.351 . S
C165 C163 1.387 . S
C165 C166 1.374 . S
C165 H180 0.931 . S
C166 C160 1.439 . S
C166 C165 1.374 . S
C166 H181 0.931 . S
Eu167 N158 2.600 . S
Eu167 N168 2.562 . S
Eu167 O202 2.335 1_655 S
Eu167 O205 2.372 1_655 S
Eu167 O206 2.462 . S
Eu167 O207 2.373 . S
Eu167 O209 2.432 . S
Eu167 O210 2.291 1_545 S
Eu167 C231 2.787 . S
N168 C164 1.351 . S
N168 Eu167 2.562 . S
N168 C170 1.325 . S
C169 C163 1.404 . S
C169 C171 1.366 . S
C169 H177 0.930 . S
C170 N168 1.325 . S
C170 C171 1.416 . S
C170 H176 0.929 . S
C171 C169 1.366 . S
C171 C170 1.416 . S
C171 H173 0.930 . S
H172 C161 0.930 1_455 S
H173 C171 0.930 . S
H174 C189 0.930 1_655 S
H175 C196 0.930 . S
H176 C170 0.929 . S
H177 C169 0.930 . S
H178 C192 0.929 . S
H179 C159 0.931 1_455 S
H180 C165 0.931 . S
H181 C166 0.931 . S
H182 C187 0.931 1_655 S
H183 C162 0.929 . S
H184 C195 0.930 . S
N185 Eu156 2.600 . S
N185 C186 1.365 . S
N185 C189 1.319 . S
C186 N185 1.365 . S
C186 C188 1.405 . S
C186 C194 1.448 . S
C187 H182 0.931 1_455 S
C187 C189 1.397 . S
C187 C190 1.367 . S
C188 C186 1.405 . S
C188 C190 1.403 . S
C188 C221 1.439 . S
C189 H174 0.930 1_455 S
C189 N185 1.319 . S
C189 C187 1.397 . S
C190 C187 1.367 . S
C190 C188 1.403 . S
C190 H197 0.929 . S
N191 Eu156 2.562 . S
N191 C192 1.325 . S
N191 C194 1.351 . S
C192 H178 0.929 . S
C192 N191 1.325 . S
C192 C196 1.416 . S
C193 C194 1.430 . S
C193 C195 1.404 . S
C193 C222 1.387 . S
C194 C186 1.448 . S
C194 N191 1.351 . S
C194 C193 1.430 . S
C195 H184 0.930 . S
C195 C193 1.404 . S
C195 C196 1.366 . S
C196 H175 0.930 . S
C196 C192 1.416 . S
C196 C195 1.366 . S
H197 C190 0.929 . S
H198 C221 0.931 . S
H199 C222 0.931 . S
O200 Eu156 2.462 . S
O200 C220 1.252 . S
O201 Eu156 2.373 . S
O201 C212 1.249 . S
O202 Eu167 2.335 1_455 S
O202 C212 1.264 1_545 S
O203 Eu156 2.432 . S
O203 C220 1.268 . S
O204 Eu156 2.291 1_545 S
O204 C219 1.255 . S
O205 Eu167 2.372 1_455 S
O205 C219 1.257 . S
O206 Eu167 2.462 . S
O206 C231 1.252 . S
O207 Eu167 2.373 . S
O207 C223 1.249 . S
O208 Eu156 2.335 1_645 S
O208 C223 1.264 . S
O209 Eu167 2.432 . S
O209 C231 1.268 . S
O210 Eu167 2.291 1_565 S
O210 C230 1.255 . S
O211 Eu156 2.372 1_655 S
O211 C230 1.257 . S
C212 O201 1.249 . S
C212 O202 1.264 1_565 S
C213 C216 1.382 . S
C213 C218 1.390 . S
C213 C220 1.506 . S
C214 C215 1.398 . S
C214 C218 1.392 . S
C215 C214 1.398 . S
C215 C217 1.372 . S
C215 H232 0.931 . S
C216 C213 1.382 . S
C216 C217 1.390 . S
C216 H233 0.931 . S
C217 C215 1.372 . S
C217 C216 1.390 . S
C217 H234 0.929 . S
C218 C213 1.390 . S
C218 C214 1.392 . S
C218 H235 0.930 . S
C219 O204 1.255 . S
C219 O205 1.257 . S
C220 Eu156 2.787 . S
C220 O200 1.252 . S
C220 O203 1.268 . S
C220 C213 1.506 . S
C221 C188 1.439 . S
C221 H198 0.931 . S
C221 C222 1.374 . S
C222 C193 1.387 . S
C222 H199 0.931 . S
C222 C221 1.374 . S
C223 O207 1.249 . S
C223 O208 1.264 . S
C224 C227 1.382 . S
C224 C228 1.390 . S
C224 C231 1.506 . S
C225 C226 1.398 . S
C225 C228 1.392 . S
C226 C225 1.398 . S
C226 C229 1.372 . S
C226 H236 0.931 . S
C227 C224 1.382 . S
C227 C229 1.390 . S
C227 H237 0.931 . S
C228 C224 1.390 . S
C228 C225 1.392 . S
C228 H238 0.930 . S
C229 C226 1.372 . S
C229 C227 1.390 . S
C229 H239 0.929 . S
C230 O210 1.255 . S
C230 O211 1.257 . S
C231 Eu167 2.787 . S
C231 O206 1.252 . S
C231 O209 1.268 . S
C231 C224 1.506 . S
H232 C215 0.931 . S
H233 C216 0.931 . S
H234 C217 0.929 . S
H235 C218 0.930 . S
H236 C226 0.931 . S
H237 C227 0.931 . S
H238 C228 0.930 . S
H239 C229 0.929 . S
Eu240 N269 2.599 . S
Eu240 N275 2.562 1_556 S
Eu240 O284 2.462 . S
Eu240 O285 2.373 1_556 S
Eu240 O287 2.432 . S
Eu240 O288 2.291 1_556 S
Eu240 O292 2.335 . S
Eu240 O295 2.372 1_556 S
Eu240 C304 2.787 . S
C241 N242 1.365 . S
C241 C244 1.405 . S
C241 C248 1.448 . S
N242 C241 1.365 . S
N242 C245 1.319 . S
N242 Eu251 2.600 . S
C243 C245 1.397 . S
C243 C246 1.367 . S
C243 H263 0.931 . S
C244 C241 1.405 . S
C244 C246 1.403 . S
C244 C250 1.439 . S
C245 N242 1.319 . S
C245 C243 1.397 . S
C245 H256 0.930 . S
C246 C243 1.367 . S
C246 C244 1.403 . S
C246 H267 0.929 . S
C247 C248 1.430 . S
C247 C249 1.387 . S
C247 C253 1.404 . S
C248 C241 1.448 . S
C248 C247 1.430 . S
C248 N252 1.351 . S
C249 C247 1.387 . S
C249 C250 1.374 . S
C249 H264 0.931 . S
C250 C244 1.439 . S
C250 C249 1.374 . S
C250 H265 0.931 . S
Eu251 N242 2.600 . S
Eu251 N252 2.562 . S
Eu251 O286 2.335 . S
Eu251 O289 2.372 . S
Eu251 O290 2.462 . S
Eu251 O291 2.373 . S
Eu251 O293 2.432 . S
Eu251 O294 2.291 . S
Eu251 C315 2.787 . S
N252 C248 1.351 . S
N252 Eu251 2.562 . S
N252 C254 1.325 . S
C253 C247 1.404 . S
C253 C255 1.366 . S
C253 H261 0.930 . S
C254 N252 1.325 . S
C254 C255 1.416 . S
C254 H260 0.929 . S
C255 C253 1.366 . S
C255 C254 1.416 . S
C255 H257 0.930 . S
H256 C245 0.930 . S
H257 C255 0.930 . S
H258 C273 0.930 . S
H259 C280 0.930 . S
H260 C254 0.929 . S
H261 C253 0.930 . S
H262 C276 0.929 . S
H263 C243 0.931 . S
H264 C249 0.931 . S
H265 C250 0.931 . S
H266 C271 0.931 . S
H267 C246 0.929 . S
H268 C279 0.930 . S
N269 Eu240 2.599 . S
N269 C270 1.366 1_556 S
N269 C273 1.319 . S
C270 N269 1.366 1_554 S
C270 C272 1.405 . S
C270 C278 1.448 . S
C271 H266 0.931 . S
C271 C273 1.397 . S
C271 C274 1.367 1_556 S
C272 C270 1.405 . S
C272 C274 1.403 . S
C272 C305 1.439 . S
C273 H258 0.930 . S
C273 N269 1.319 . S
C273 C271 1.397 . S
C274 C271 1.367 1_554 S
C274 C272 1.403 . S
C274 H281 0.929 . S
N275 Eu240 2.562 1_554 S
N275 C276 1.325 . S
N275 C278 1.351 . S
C276 H262 0.929 . S
C276 N275 1.325 . S
C276 C280 1.416 . S
C277 C278 1.430 . S
C277 C279 1.404 . S
C277 C306 1.387 . S
C278 C270 1.448 . S
C278 N275 1.351 . S
C278 C277 1.430 . S
C279 H268 0.930 . S
C279 C277 1.404 . S
C279 C280 1.366 . S
C280 H259 0.930 . S
C280 C276 1.416 . S
C280 C279 1.366 . S
H281 C274 0.929 . S
H282 C305 0.931 . S
H283 C306 0.931 . S
O284 Eu240 2.462 . S
O284 C304 1.252 . S
O285 Eu240 2.373 1_554 S
O285 C296 1.249 . S
O286 Eu251 2.335 . S
O286 C296 1.264 . S
O287 Eu240 2.432 . S
O287 C304 1.268 . S
O288 Eu240 2.291 1_554 S
O288 C303 1.255 . S
O289 Eu251 2.372 . S
O289 C303 1.257 . S
O290 Eu251 2.462 . S
O290 C315 1.252 . S
O291 Eu251 2.373 . S
O291 C307 1.249 1_554 S
O292 Eu240 2.335 . S
O292 C307 1.264 . S
O293 Eu251 2.432 . S
O293 C315 1.268 . S
O294 Eu251 2.291 . S
O294 C314 1.255 . S
O295 Eu240 2.372 1_554 S
O295 C314 1.257 . S
C296 O285 1.249 . S
C296 O286 1.264 . S
C297 C300 1.382 . S
C297 C302 1.390 . S
C297 C304 1.506 . S
C298 C299 1.398 . S
C298 C302 1.392 . S
C299 C298 1.398 . S
C299 C301 1.372 . S
C299 H316 0.931 . S
C300 C297 1.382 . S
C300 C301 1.390 . S
C300 H317 0.931 . S
C301 C299 1.372 . S
C301 C300 1.390 . S
C301 H318 0.929 . S
C302 C297 1.390 . S
C302 C298 1.392 . S
C302 H319 0.930 . S
C303 O288 1.255 . S
C303 O289 1.257 . S
C304 Eu240 2.787 . S
C304 O284 1.252 . S
C304 O287 1.268 . S
C304 C297 1.506 . S
C305 C272 1.439 . S
C305 H282 0.931 . S
C305 C306 1.374 . S
C306 C277 1.387 . S
C306 H283 0.931 . S
C306 C305 1.374 . S
C307 O291 1.249 1_556 S
C307 O292 1.264 . S
C308 C311 1.382 . S
C308 C312 1.390 . S
C308 C315 1.506 . S
C309 C310 1.398 . S
C309 C312 1.392 . S
C310 C309 1.398 . S
C310 C313 1.372 . S
C310 H320 0.931 . S
C311 C308 1.382 . S
C311 C313 1.390 . S
C311 H321 0.931 . S
C312 C308 1.390 . S
C312 C309 1.392 . S
C312 H322 0.930 . S
C313 C310 1.372 . S
C313 C311 1.390 . S
C313 H323 0.929 . S
C314 O294 1.255 . S
C314 O295 1.257 . S
C315 Eu251 2.787 . S
C315 O290 1.252 . S
C315 O293 1.268 . S
C315 C308 1.506 . S
H316 C299 0.931 . S
H317 C300 0.931 . S
H318 C301 0.929 . S
H319 C302 0.930 . S
H320 C310 0.931 . S
H321 C311 0.931 . S
H322 C312 0.930 . S
H323 C313 0.929 . S
C324 C325 1.363 . S
C324 C330 1.379 . S
C324 N332 1.356 . S
C325 C324 1.363 . S
C325 C331 1.363 . S
C326 C327 1.363 . S
C326 C331 1.379 . S
C326 N333 1.356 . S
C327 C326 1.363 . S
C327 C330 1.363 . S
N328 C330 1.356 . S
N328 H340 0.984 . S
N328 H341 0.985 . S
N329 C331 1.356 . S
N329 H334 0.984 . S
N329 H335 0.985 . S
C330 C324 1.379 . S
C330 C327 1.363 . S
C330 N328 1.356 . S
C331 C325 1.363 . S
C331 C326 1.379 . S
C331 N329 1.356 . S
N332 C324 1.356 . S
N332 H338 0.984 . S
N332 H339 0.984 . S
N333 C326 1.356 . S
N333 H336 0.984 . S
N333 H337 0.985 . S
H334 N329 0.984 . S
H335 N329 0.985 . S
H336 N333 0.984 . S
H337 N333 0.985 . S
H338 N332 0.984 . S
H339 N332 0.984 . S
H340 N328 0.984 . S
H341 N328 0.985 . S
C342 C343 1.363 . S
C342 C348 1.379 . S
C342 N350 1.356 1_554 S
C343 C342 1.363 . S
C343 C349 1.363 . S
C344 C345 1.363 . S
C344 C349 1.379 . S
C344 N351 1.356 . S
C345 C344 1.363 . S
C345 C348 1.363 . S
N346 C348 1.356 1_556 S
N346 H358 0.984 . S
N346 H359 0.985 . S
N347 C349 1.356 . S
N347 H352 0.984 . S
N347 H353 0.985 . S
C348 C342 1.379 . S
C348 C345 1.363 . S
C348 N346 1.356 1_554 S
C349 C343 1.363 . S
C349 C344 1.379 . S
C349 N347 1.356 . S
N350 C342 1.356 1_556 S
N350 H356 0.984 . S
N350 H357 0.984 . S
N351 C344 1.356 . S
N351 H354 0.984 . S
N351 H355 0.985 . S
H352 N347 0.984 . S
H353 N347 0.985 . S
H354 N351 0.984 . S
H355 N351 0.985 . S
H356 N350 0.984 . S
H357 N350 0.984 . S
H358 N346 0.984 . S
H359 N346 0.985 . S
C360 C361 1.363 . S
C360 C366 1.379 . S
C360 N368 1.356 . S
C361 C360 1.363 . S
C361 C367 1.363 . S
C362 C363 1.363 . S
C362 C367 1.379 . S
C362 N369 1.356 . S
C363 C362 1.363 . S
C363 C366 1.363 . S
N364 C366 1.356 . S
N364 H376 0.984 . S
N364 H377 0.985 . S
N365 C367 1.356 . S
N365 H370 0.984 . S
N365 H371 0.985 . S
C366 C360 1.379 . S
C366 C363 1.363 . S
C366 N364 1.356 . S
C367 C361 1.363 . S
C367 C362 1.379 . S
C367 N365 1.356 . S
N368 C360 1.356 . S
N368 H374 0.984 . S
N368 H375 0.984 . S
N369 C362 1.356 . S
N369 H372 0.984 . S
N369 H373 0.985 1_565 S
H370 N365 0.984 . S
H371 N365 0.985 . S
H372 N369 0.984 . S
H373 N369 0.985 1_545 S
H374 N368 0.984 . S
H375 N368 0.984 . S
H376 N364 0.984 . S
H377 N364 0.985 . S
C378 C379 1.363 . S
C378 C384 1.379 . S
C378 N386 1.356 . S
C379 C378 1.363 . S
C379 C385 1.363 . S
C380 C381 1.363 . S
C380 C385 1.379 . S
C380 N387 1.356 1_554 S
C381 C380 1.363 . S
C381 C384 1.363 . S
N382 C384 1.356 . S
N382 H394 0.984 . S
N382 H395 0.985 . S
N383 C385 1.356 1_556 S
N383 H388 0.984 . S
N383 H389 0.985 . S
C384 C378 1.379 . S
C384 C381 1.363 . S
C384 N382 1.356 . S
C385 C379 1.363 . S
C385 C380 1.379 . S
C385 N383 1.356 1_554 S
N386 C378 1.356 . S
N386 H392 0.984 . S
N386 H393 0.984 . S
N387 C380 1.356 1_556 S
N387 H390 0.984 1_556 S
N387 H391 0.985 . S
H388 N383 0.984 . S
H389 N383 0.985 . S
H390 N387 0.984 1_554 S
H391 N387 0.985 . S
H392 N386 0.984 . S
H393 N386 0.984 . S
H394 N382 0.984 . S
H395 N382 0.985 . S
C396 C397 1.363 . S
C396 C402 1.379 . S
C396 N404 1.356 . S
C397 C396 1.363 . S
C397 C403 1.363 . S
C398 C399 1.363 . S
C398 C403 1.379 . S
C398 N405 1.356 1_565 S
C399 C398 1.363 . S
C399 C402 1.363 . S
N400 C402 1.356 . S
N400 H412 0.984 . S
N400 H413 0.985 . S
N401 C403 1.356 . S
N401 H406 0.984 . S
N401 H407 0.985 1_565 S
C402 C396 1.379 . S
C402 C399 1.363 . S
C402 N400 1.356 . S
C403 C397 1.363 . S
C403 C398 1.379 . S
C403 N401 1.356 . S
N404 C396 1.356 . S
N404 H410 0.984 . S
N404 H411 0.984 . S
N405 C398 1.356 1_545 S
N405 H408 0.984 . S
N405 H409 0.985 . S
H406 N401 0.984 . S
H407 N401 0.985 1_545 S
H408 N405 0.984 . S
H409 N405 0.985 . S
H410 N404 0.984 . S
H411 N404 0.984 . S
H412 N400 0.984 . S
H413 N400 0.985 . S
C414 C415 1.363 . S
C414 C420 1.379 . S
C414 N422 1.356 . S
C415 C414 1.363 . S
C415 C421 1.363 . S
C416 C417 1.363 . S
C416 C421 1.379 . S
C416 N423 1.356 . S
C417 C416 1.363 . S
C417 C420 1.363 . S
N418 C420 1.356 . S
N418 H430 0.984 . S
N418 H431 0.985 . S
N419 C421 1.356 . S
N419 H424 0.984 . S
N419 H425 0.985 . S
C420 C414 1.379 . S
C420 C417 1.363 . S
C420 N418 1.356 . S
C421 C415 1.363 . S
C421 C416 1.379 . S
C421 N419 1.356 . S
N422 C414 1.356 . S
N422 H428 0.984 . S
N422 H429 0.984 . S
N423 C416 1.356 . S
N423 H426 0.984 . S
N423 H427 0.985 . S
H424 N419 0.984 . S
H425 N419 0.985 . S
H426 N423 0.984 . S
H427 N423 0.985 . S
H428 N422 0.984 . S
H429 N422 0.984 . S
H430 N418 0.984 . S
H431 N418 0.985 . S
C432 C433 1.363 . S
C432 C438 1.379 . S
C432 N440 1.356 . S
C433 C432 1.363 . S
C433 C439 1.363 . S
C434 C435 1.363 . S
C434 C439 1.379 . S
C434 N441 1.356 1_545 S
C435 C434 1.363 . S
C435 C438 1.363 . S
N436 C438 1.356 . S
N436 H448 0.984 . S
N436 H449 0.985 . S
N437 C439 1.356 1_565 S
N437 H442 0.984 . S
N437 H443 0.985 . S
C438 C432 1.379 . S
C438 C435 1.363 . S
C438 N436 1.356 . S
C439 C433 1.363 . S
C439 C434 1.379 . S
C439 N437 1.356 1_545 S
N440 C432 1.356 . S
N440 H446 0.984 . S
N440 H447 0.984 . S
N441 C434 1.356 1_565 S
N441 H444 0.984 . S
N441 H445 0.985 . S
H442 N437 0.984 . S
H443 N437 0.985 . S
H444 N441 0.984 . S
H445 N441 0.985 . S
H446 N440 0.984 . S
H447 N440 0.984 . S
H448 N436 0.984 . S
H449 N436 0.985 . S
C450 C451 1.363 . S
C450 C456 1.379 . S
C450 N458 1.356 . S
C451 C450 1.363 . S
C451 C457 1.363 . S
C452 C453 1.363 . S
C452 C457 1.379 . S
C452 N459 1.356 . S
C453 C452 1.363 . S
C453 C456 1.363 . S
N454 C456 1.356 . S
N454 H466 0.984 . S
N454 H467 0.985 . S
N455 C457 1.356 . S
N455 H460 0.984 . S
N455 H461 0.985 . S
C456 C450 1.379 . S
C456 C453 1.363 . S
C456 N454 1.356 . S
C457 C451 1.363 . S
C457 C452 1.379 . S
C457 N455 1.356 . S
N458 C450 1.356 . S
N458 H464 0.984 . S
N458 H465 0.984 . S
N459 C452 1.356 . S
N459 H462 0.984 . S
N459 H463 0.985 . S
H460 N455 0.984 . S
H461 N455 0.985 . S
H462 N459 0.984 . S
H463 N459 0.985 . S
H464 N458 0.984 . S
H465 N458 0.984 . S
H466 N454 0.984 . S
H467 N454 0.985 . S
C468 C469 1.363 . S
C468 C474 1.379 . S
C468 N476 1.356 . S
C469 C468 1.363 . S
C469 C475 1.363 . S
C470 C471 1.363 . S
C470 C475 1.379 . S
C470 N477 1.356 . S
C471 C470 1.363 . S
C471 C474 1.363 . S
N472 C474 1.356 . S
N472 H484 0.984 . S
N472 H485 0.985 . S
N473 C475 1.356 . S
N473 H478 0.984 . S
N473 H479 0.985 . S
C474 C468 1.379 . S
C474 C471 1.363 . S
C474 N472 1.356 . S
C475 C469 1.363 . S
C475 C470 1.379 . S
C475 N473 1.356 . S
N476 C468 1.356 . S
N476 H482 0.984 . S
N476 H483 0.984 . S
N477 C470 1.356 . S
N477 H480 0.984 . S
N477 H481 0.985 . S
H478 N473 0.984 . S
H479 N473 0.985 . S
H480 N477 0.984 . S
H481 N477 0.985 . S
H482 N476 0.984 . S
H483 N476 0.984 . S
H484 N472 0.984 . S
H485 N472 0.985 . S
C486 C487 1.363 . S
C486 C492 1.379 . S
C486 N494 1.356 . S
C487 C486 1.363 . S
C487 C493 1.363 . S
C488 C489 1.363 . S
C488 C493 1.379 . S
C488 N495 1.356 . S
C489 C488 1.363 . S
C489 C492 1.363 . S
N490 C492 1.356 1_565 S
N490 H502 0.984 . S
N490 H503 0.985 . S
N491 C493 1.356 . S
N491 H496 0.984 . S
N491 H497 0.985 . S
C492 C486 1.379 . S
C492 C489 1.363 . S
C492 N490 1.356 1_545 S
C493 C487 1.363 . S
C493 C488 1.379 . S
C493 N491 1.356 . S
N494 C486 1.356 . S
N494 H500 0.984 1_545 S
N494 H501 0.984 . S
N495 C488 1.356 . S
N495 H498 0.984 . S
N495 H499 0.985 . S
H496 N491 0.984 . S
H497 N491 0.985 . S
H498 N495 0.984 . S
H499 N495 0.985 . S
H500 N494 0.984 1_565 S
H501 N494 0.984 . S
H502 N490 0.984 . S
H503 N490 0.985 . S
C504 C505 1.363 . S
C504 C510 1.379 . S
C504 N512 1.356 . S
C505 C504 1.363 . S
C505 C511 1.363 . S
C506 C507 1.363 . S
C506 C511 1.379 . S
C506 N513 1.356 . S
C507 C506 1.363 . S
C507 C510 1.363 . S
N508 C510 1.356 . S
N508 H520 0.984 . S
N508 H521 0.985 . S
N509 C511 1.356 . S
N509 H514 0.984 . S
N509 H515 0.985 . S
C510 C504 1.379 . S
C510 C507 1.363 . S
C510 N508 1.356 . S
C511 C505 1.363 . S
C511 C506 1.379 . S
C511 N509 1.356 . S
N512 C504 1.356 . S
N512 H518 0.984 . S
N512 H519 0.984 . S
N513 C506 1.356 . S
N513 H516 0.984 . S
N513 H517 0.985 . S
H514 N509 0.984 . S
H515 N509 0.985 . S
H516 N513 0.984 . S
H517 N513 0.985 . S
H518 N512 0.984 . S
H519 N512 0.984 . S
H520 N508 0.984 . S
H521 N508 0.985 . S
C522 C523 1.363 . S
C522 C528 1.379 . S
C522 N530 1.356 1_565 S
C523 C522 1.363 . S
C523 C529 1.363 . S
C524 C525 1.363 . S
C524 C529 1.379 . S
C524 N531 1.356 . S
C525 C524 1.363 . S
C525 C528 1.363 . S
N526 C528 1.356 1_545 S
N526 H538 0.984 . S
N526 H539 0.985 . S
N527 C529 1.356 . S
N527 H532 0.984 . S
N527 H533 0.985 . S
C528 C522 1.379 . S
C528 C525 1.363 . S
C528 N526 1.356 1_565 S
C529 C523 1.363 . S
C529 C524 1.379 . S
C529 N527 1.356 . S
N530 C522 1.356 1_545 S
N530 H536 0.984 . S
N530 H537 0.984 . S
N531 C524 1.356 . S
N531 H534 0.984 . S
N531 H535 0.985 . S
H532 N527 0.984 . S
H533 N527 0.985 . S
H534 N531 0.984 . S
H535 N531 0.985 . S
H536 N530 0.984 . S
H537 N530 0.984 . S
H538 N526 0.984 . S
H539 N526 0.985 . S
C327 C219 1.684 . S
C325 C138 1.645 . S
C343 C21 1.639 . S
C345 C314 1.671 . S
C361 C60 1.654 . S
C363 C230 1.684 . S
C379 C99 1.654 . S
C381 C303 1.671 . S
C399 C214 1.433 . S
C397 C16 1.552 . S
C417 C307 1.637 . S
C415 C40 1.617 . S
C433 C79 1.637 . S
C435 C223 1.675 . S
C451 C133 1.538 . S
C453 C298 1.416 . S
C471 C309 1.416 . S
C469 C55 1.536 . S
C489 C225 1.433 . S
C487 C94 1.550 . S
C507 C296 1.638 . S
C505 C118 1.613 . S
C523 C1 1.629 . S
C525 C212 1.675 . S
