# Generated by pormake.
# Topology pyr, (3,6)-cn, num edge types: 1
# Building blocks:
#     Node 0, Type 0, BuildingBlock: BELTOD_clean_linker_0, # of connection points: 3
#     Node 1, Type 0, BuildingBlock: BELTOD_clean_linker_0, # of connection points: 3
#     Node 2, Type 0, BuildingBlock: BELTOD_clean_linker_0, # of connection points: 3
#     Node 3, Type 0, BuildingBlock: BELTOD_clean_linker_0, # of connection points: 3
#     Node 4, Type 0, BuildingBlock: BELTOD_clean_linker_0, # of connection points: 3
#     Node 5, Type 0, BuildingBlock: BELTOD_clean_linker_0, # of connection points: 3
#     Node 6, Type 0, BuildingBlock: BELTOD_clean_linker_0, # of connection points: 3
#     Node 7, Type 0, BuildingBlock: BELTOD_clean_linker_0, # of connection points: 3
#     Node 8, Type 1, BuildingBlock: INOVEN_clean_sbu_0, # of connection points: 6
#     Node 9, Type 1, BuildingBlock: INOVEN_clean_sbu_0, # of connection points: 6
#     Node 10, Type 1, BuildingBlock: INOVEN_clean_sbu_0, # of connection points: 6
#     Node 11, Type 1, BuildingBlock: INOVEN_clean_sbu_0, # of connection points: 6
#     Edge 12, Type (0, 1), BuildingBlock: ZUJKAS_clean_linker_0, # of connection points: 2
#     Edge 13, Type (0, 1), BuildingBlock: ZUJKAS_clean_linker_0, # of connection points: 2
#     Edge 14, Type (0, 1), BuildingBlock: ZUJKAS_clean_linker_0, # of connection points: 2
#     Edge 15, Type (0, 1), BuildingBlock: ZUJKAS_clean_linker_0, # of connection points: 2
#     Edge 16, Type (0, 1), BuildingBlock: ZUJKAS_clean_linker_0, # of connection points: 2
#     Edge 17, Type (0, 1), BuildingBlock: ZUJKAS_clean_linker_0, # of connection points: 2
#     Edge 18, Type (0, 1), BuildingBlock: ZUJKAS_clean_linker_0, # of connection points: 2
#     Edge 19, Type (0, 1), BuildingBlock: ZUJKAS_clean_linker_0, # of connection points: 2
#     Edge 20, Type (0, 1), BuildingBlock: ZUJKAS_clean_linker_0, # of connection points: 2
#     Edge 21, Type (0, 1), BuildingBlock: ZUJKAS_clean_linker_0, # of connection points: 2
#     Edge 22, Type (0, 1), BuildingBlock: ZUJKAS_clean_linker_0, # of connection points: 2
#     Edge 23, Type (0, 1), BuildingBlock: ZUJKAS_clean_linker_0, # of connection points: 2
#     Edge 24, Type (0, 1), BuildingBlock: ZUJKAS_clean_linker_0, # of connection points: 2
#     Edge 25, Type (0, 1), BuildingBlock: ZUJKAS_clean_linker_0, # of connection points: 2
#     Edge 26, Type (0, 1), BuildingBlock: ZUJKAS_clean_linker_0, # of connection points: 2
#     Edge 27, Type (0, 1), BuildingBlock: ZUJKAS_clean_linker_0, # of connection points: 2
#     Edge 28, Type (0, 1), BuildingBlock: ZUJKAS_clean_linker_0, # of connection points: 2
#     Edge 29, Type (0, 1), BuildingBlock: ZUJKAS_clean_linker_0, # of connection points: 2
#     Edge 30, Type (0, 1), BuildingBlock: ZUJKAS_clean_linker_0, # of connection points: 2
#     Edge 31, Type (0, 1), BuildingBlock: ZUJKAS_clean_linker_0, # of connection points: 2
#     Edge 32, Type (0, 1), BuildingBlock: ZUJKAS_clean_linker_0, # of connection points: 2
#     Edge 33, Type (0, 1), BuildingBlock: ZUJKAS_clean_linker_0, # of connection points: 2
#     Edge 34, Type (0, 1), BuildingBlock: ZUJKAS_clean_linker_0, # of connection points: 2
#     Edge 35, Type (0, 1), BuildingBlock: ZUJKAS_clean_linker_0, # of connection points: 2
# Relax obj value: 0.076
# Max RMSD: 0.122
# Mean RMSD: 0.056
data_MOF--net-pyr--node1-INOVEN_clean_sbu_0--node2-BELTOD_clean_linker_0--edge1-ZUJKAS_clean_linker_0
_symmetry_space_group_name_H-M    P1
_symmetry_Int_Tables_number       1
_symmetry_cell_setting            triclinic
loop_
_symmetry_equiv_pos_as_xyz
'x, y, z'
_cell_length_a     55.424032
_cell_length_b     57.520307
_cell_length_c     50.425199
_cell_angle_alpha  90.799566
_cell_angle_beta   88.501689
_cell_angle_gamma 99.819644
loop_
_atom_site_label
_atom_site_type_symbol
_atom_site_fract_x
_atom_site_fract_y
_atom_site_fract_z
_atom_type_partial_charge
P0 P 0.32826 0.30208 0.24339 0.0
H1 H 0.37397 0.30317 0.21299 0.0
H2 H 0.39249 0.27249 0.19005 0.0
H3 H 0.32955 0.22064 0.21252 0.0
H4 H 0.31104 0.25128 0.23462 0.0
H5 H 0.31687 0.34935 0.24912 0.0
H6 H 0.29102 0.37094 0.22386 0.0
H7 H 0.28213 0.31531 0.16465 0.0
H8 H 0.30783 0.29369 0.19023 0.0
H9 H 0.32866 0.28962 0.29962 0.0
H10 H 0.27603 0.2844 0.23735 0.0
O11 O 0.35028 0.31918 0.26004 0.0
H12 H 0.29681 0.26912 0.32985 0.0
H13 H 0.24435 0.26429 0.26729 0.0
C14 C 0.34133 0.2795 0.22586 0.0
C15 C 0.36419 0.28518 0.21289 0.0
C16 C 0.37479 0.2676 0.19991 0.0
C17 C 0.36258 0.24404 0.19957 0.0
C18 C 0.33938 0.2386 0.21214 0.0
C19 C 0.32882 0.25617 0.22503 0.0
C20 C 0.31458 0.32013 0.22134 0.0
C21 C 0.30997 0.34216 0.23029 0.0
C22 C 0.29517 0.35448 0.21582 0.0
C23 C 0.28446 0.3448 0.19228 0.0
C24 C 0.28996 0.32313 0.18282 0.0
C25 C 0.30487 0.31087 0.19727 0.0
C26 C 0.30463 0.28887 0.26638 0.0
C27 C 0.31021 0.28441 0.29258 0.0
C28 C 0.29203 0.27276 0.30982 0.0
C29 C 0.26813 0.2651 0.30089 0.0
C30 C 0.26265 0.26981 0.27467 0.0
C31 C 0.28073 0.28152 0.25758 0.0
P32 P 0.32122 0.89355 0.596 0.0
H33 H 0.36841 0.90795 0.62118 0.0
H34 H 0.38168 0.90525 0.66672 0.0
H35 H 0.3088 0.8703 0.6894 0.0
H36 H 0.29618 0.87208 0.64374 0.0
H37 H 0.35003 0.88279 0.54908 0.0
H38 H 0.35402 0.84559 0.52664 0.0
H39 H 0.3021 0.80791 0.58312 0.0
H40 H 0.2977 0.84511 0.60478 0.0
H41 H 0.29182 0.91824 0.63242 0.0
H42 H 0.28206 0.87975 0.55835 0.0
O43 O 0.33873 0.91641 0.58117 0.0
H44 H 0.24875 0.92249 0.63316 0.0
H45 H 0.2394 0.88491 0.55822 0.0
C46 C 0.33112 0.89094 0.62933 0.0
C47 C 0.35536 0.89968 0.636 0.0
C48 C 0.36288 0.89815 0.66207 0.0
C49 C 0.34624 0.88784 0.68189 0.0
C50 C 0.32221 0.87819 0.67471 0.0
C51 C 0.31484 0.87949 0.64862 0.0
C52 C 0.32379 0.86658 0.57874 0.0
C53 C 0.3394 0.86651 0.55647 0.0
C54 C 0.34166 0.84525 0.54368 0.0
C55 C 0.32837 0.82378 0.55307 0.0
C56 C 0.3123 0.82412 0.57507 0.0
C57 C 0.31001 0.84535 0.58773 0.0
C58 C 0.28989 0.89794 0.59583 0.0
C59 C 0.28038 0.91061 0.61637 0.0
C60 C 0.25577 0.9132 0.61665 0.0
C61 C 0.24045 0.90369 0.59597 0.0
C62 C 0.25041 0.89177 0.57491 0.0
C63 C 0.27491 0.88897 0.57484 0.0
P64 P 0.66951 0.34321 0.84383 0.0
H65 H 0.71275 0.33012 0.8667 0.0
H66 H 0.74681 0.3518 0.89149 0.0
H67 H 0.71186 0.41345 0.89263 0.0
H68 H 0.67748 0.39134 0.86812 0.0
H69 H 0.64773 0.29543 0.82778 0.0
H70 H 0.62529 0.2616 0.85176 0.0
H71 H 0.62599 0.30424 0.92298 0.0
H72 H 0.64873 0.33823 0.89869 0.0
H73 H 0.68558 0.38573 0.81297 0.0
H74 H 0.61699 0.34102 0.83225 0.0
O75 O 0.68499 0.33044 0.8206 0.0
H76 H 0.66506 0.40743 0.78184 0.0
H77 H 0.59607 0.36299 0.80149 0.0
C78 C 0.69273 0.35917 0.86511 0.0
C79 C 0.7123 0.34826 0.87244 0.0
C80 C 0.73191 0.36078 0.88648 0.0
C81 C 0.73242 0.38458 0.89372 0.0
C82 C 0.71216 0.39518 0.88742 0.0
C83 C 0.69249 0.38257 0.87326 0.0
C84 C 0.6503 0.31933 0.86149 0.0
C85 C 0.64304 0.29761 0.84854 0.0
C86 C 0.63028 0.27817 0.86235 0.0
C87 C 0.62411 0.28002 0.88945 0.0
C88 C 0.63043 0.30216 0.90214 0.0
C89 C 0.64347 0.32161 0.88829 0.0
C90 C 0.65282 0.36204 0.82548 0.0
C91 C 0.66592 0.38102 0.8111 0.0
C92 C 0.65409 0.39344 0.79318 0.0
C93 C 0.62878 0.38708 0.78894 0.0
C94 C 0.61559 0.3683 0.80388 0.0
C95 C 0.62751 0.35586 0.82182 0.0
P96 P 0.81933 0.69835 0.3374 0.0
H97 H 0.83534 0.74731 0.3222 0.0
H98 H 0.85829 0.78145 0.34455 0.0
H99 H 0.87135 0.73712 0.40937 0.0
H100 H 0.84745 0.70292 0.38694 0.0
H101 H 0.81116 0.68238 0.28265 0.0
H102 H 0.83314 0.66055 0.25153 0.0
H103 H 0.88595 0.65427 0.31147 0.0
H104 H 0.86397 0.67705 0.34254 0.0
H105 H 0.79635 0.70848 0.38818 0.0
H106 H 0.79733 0.64807 0.33689 0.0
O107 O 0.80006 0.71047 0.31923 0.0
H108 H 0.76398 0.68574 0.41556 0.0
H109 H 0.76499 0.62509 0.36431 0.0
C110 C 0.83924 0.72261 0.35311 0.0
C111 C 0.8432 0.74485 0.34117 0.0
C112 C 0.85659 0.76443 0.35397 0.0
C113 C 0.86668 0.76225 0.37897 0.0
C114 C 0.8635 0.73964 0.3904 0.0
C115 C 0.84999 0.71999 0.37752 0.0
C116 C 0.83606 0.68167 0.31489 0.0
C117 C 0.82753 0.67646 0.28919 0.0
C118 C 0.84005 0.66367 0.27137 0.0
C119 C 0.86138 0.65544 0.27884 0.0
C120 C 0.8698 0.66053 0.30482 0.0
C121 C 0.8572 0.67346 0.32269 0.0
C122 C 0.79987 0.67985 0.36087 0.0
C123 C 0.79021 0.69007 0.3833 0.0
C124 C 0.77155 0.67702 0.39893 0.0
C125 C 0.76178 0.65353 0.39219 0.0
C126 C 0.77191 0.64317 0.37 0.0
C127 C 0.79067 0.65624 0.35446 0.0
P128 P 0.71198 0.80459 0.89012 0.0
H129 H 0.68758 0.8166 0.93894 0.0
H130 H 0.64879 0.83002 0.94682 0.0
H131 H 0.62788 0.8101 0.86652 0.0
H132 H 0.66743 0.79738 0.85859 0.0
H133 H 0.7548 0.78653 0.87121 0.0
H134 H 0.7695 0.74967 0.87769 0.0
H135 H 0.70334 0.72272 0.92244 0.0
H136 H 0.68841 0.76006 0.91546 0.0
H137 H 0.72265 0.85303 0.87212 0.0
H138 H 0.7164 0.78365 0.83679 0.0
O139 O 0.72948 0.82156 0.91174 0.0
H140 H 0.73723 0.87069 0.82969 0.0
H141 H 0.73245 0.80102 0.79467 0.0
C142 C 0.68058 0.80654 0.89802 0.0
C143 C 0.67443 0.81456 0.92322 0.0
C144 C 0.65204 0.82212 0.92774 0.0
C145 C 0.63528 0.82158 0.90714 0.0
C146 C 0.64059 0.81129 0.88263 0.0
C147 C 0.66311 0.80382 0.87812 0.0
C148 C 0.72017 0.77575 0.89209 0.0
C149 C 0.74303 0.77246 0.88168 0.0
C150 C 0.75144 0.75132 0.88541 0.0
C151 C 0.73742 0.73312 0.90024 0.0
C152 C 0.71443 0.73639 0.91075 0.0
C153 C 0.70585 0.75762 0.90668 0.0
C154 C 0.71955 0.81707 0.85783 0.0
C155 C 0.72452 0.8416 0.8552 0.0
C156 C 0.73295 0.85165 0.83095 0.0
C157 C 0.73674 0.83728 0.80893 0.0
C158 C 0.72988 0.81266 0.81119 0.0
C159 C 0.72104 0.80266 0.8354 0.0
P160 P 0.77773 0.25648 0.40851 0.0
H161 H 0.78132 0.29533 0.44682 0.0
H162 H 0.75188 0.30755 0.47895 0.0
H163 H 0.69841 0.24712 0.45668 0.0
H164 H 0.72767 0.23524 0.42454 0.0
H165 H 0.8269 0.24804 0.39512 0.0
H166 H 0.85146 0.22024 0.41201 0.0
H167 H 0.79426 0.19621 0.4702 0.0
H168 H 0.77031 0.22449 0.45378 0.0
H169 H 0.75772 0.27065 0.3594 0.0
H170 H 0.76032 0.20588 0.40052 0.0
O171 O 0.79497 0.2807 0.39608 0.0
H172 H 0.73267 0.24834 0.32516 0.0
H173 H 0.73559 0.18362 0.36647 0.0
C174 C 0.7564 0.26485 0.43274 0.0
C175 C 0.76324 0.28476 0.44889 0.0
C176 C 0.74652 0.29155 0.46744 0.0
C177 C 0.72278 0.27837 0.47015 0.0
C178 C 0.71643 0.25783 0.4547 0.0
C179 C 0.73314 0.25108 0.43623 0.0
C180 C 0.79706 0.23862 0.42352 0.0
C181 C 0.81995 0.23714 0.4119 0.0
C182 C 0.83381 0.22105 0.42138 0.0
C183 C 0.82477 0.20594 0.44241 0.0
C184 C 0.80195 0.20784 0.45429 0.0
C185 C 0.7882 0.22403 0.44489 0.0
C186 C 0.76129 0.2399 0.38219 0.0
C187 C 0.75323 0.25163 0.36084 0.0
C188 C 0.73893 0.23888 0.34134 0.0
C189 C 0.73219 0.21425 0.34318 0.0
C190 C 0.74033 0.2026 0.36465 0.0
C191 C 0.75472 0.21532 0.38399 0.0
P192 P 0.35351 0.69029 0.19912 0.0
H193 H 0.32714 0.69735 0.15149 0.0
H194 H 0.28668 0.68035 0.1354 0.0
H195 H 0.26994 0.64357 0.20946 0.0
H196 H 0.31049 0.66077 0.22548 0.0
H197 H 0.40198 0.71932 0.19758 0.0
H198 H 0.41691 0.76048 0.1861 0.0
H199 H 0.34226 0.77209 0.18024 0.0
H200 H 0.32751 0.731 0.19251 0.0
H201 H 0.35597 0.64273 0.21617 0.0
H202 H 0.36764 0.7122 0.25158 0.0
O203 O 0.37005 0.678 0.1765 0.0
H204 H 0.36931 0.6264 0.25652 0.0
H205 H 0.38062 0.6959 0.29257 0.0
C206 C 0.32191 0.68061 0.18981 0.0
C207 C 0.31459 0.68602 0.16452 0.0
C208 C 0.29138 0.67624 0.15531 0.0
C209 C 0.27495 0.66048 0.17106 0.0
C210 C 0.28217 0.65542 0.19665 0.0
C211 C 0.30538 0.66541 0.20594 0.0
C212 C 0.36363 0.72189 0.19567 0.0
C213 C 0.38881 0.73082 0.19426 0.0
C214 C 0.39733 0.75437 0.18737 0.0
C215 C 0.38086 0.76968 0.18168 0.0
C216 C 0.35555 0.76095 0.18447 0.0
C217 C 0.34704 0.73732 0.19142 0.0
C218 C 0.36081 0.6787 0.23073 0.0
C219 C 0.3611 0.65446 0.23284 0.0
C220 C 0.36865 0.64509 0.2561 0.0
C221 C 0.37613 0.65973 0.27805 0.0
C222 C 0.37534 0.68406 0.27605 0.0
C223 C 0.36772 0.69343 0.25265 0.0
P224 P 0.17364 0.34671 0.73004 0.0
H225 H 0.19169 0.3171 0.68972 0.0
H226 H 0.17238 0.28272 0.66445 0.0
H227 H 0.10182 0.29108 0.69798 0.0
H228 H 0.12133 0.32579 0.723 0.0
H229 H 0.22295 0.36887 0.74449 0.0
H230 H 0.25664 0.39269 0.72018 0.0
H231 H 0.21039 0.39274 0.65244 0.0
H232 H 0.17687 0.36804 0.67687 0.0
H233 H 0.14043 0.33302 0.77492 0.0
H234 H 0.16383 0.39578 0.72895 0.0
O235 O 0.18757 0.3321 0.75169 0.0
H236 H 0.11835 0.3552 0.80594 0.0
H237 H 0.14127 0.41812 0.75959 0.0
C238 C 0.15798 0.32427 0.70803 0.0
C239 C 0.17198 0.31187 0.69123 0.0
C240 C 0.16093 0.292 0.677 0.0
C241 C 0.13554 0.28393 0.67933 0.0
C242 C 0.12138 0.29688 0.69554 0.0
C243 C 0.13254 0.31677 0.7099 0.0
C244 C 0.19753 0.36629 0.71234 0.0
C245 C 0.22001 0.37401 0.72441 0.0
C246 C 0.23927 0.38788 0.71049 0.0
C247 C 0.23643 0.39467 0.68418 0.0
C248 C 0.21348 0.38753 0.67245 0.0
C249 C 0.19421 0.37352 0.68644 0.0
C250 C 0.1539 0.3627 0.74966 0.0
C251 C 0.14041 0.35152 0.77121 0.0
C252 C 0.12769 0.36428 0.78894 0.0
C253 C 0.12808 0.3886 0.78552 0.0
C254 C 0.14087 0.39954 0.7632 0.0
C255 C 0.15364 0.38671 0.74546 0.0
Gd256 Gd 0.0134 0.02894 0.50336 0.0
Gd257 Gd 0.99285 1.01253 0.55776 0.0
C258 C 0.02926 0.06274 0.55466 0.0
C259 C 0.02948 0.05069 0.46036 0.0
C260 C 0.04178 0.07441 0.4526 0.0
C261 C 0.05893 0.08783 0.46919 0.0
C262 C 0.03836 0.08264 0.42721 0.0
C263 C 0.0714 0.11589 0.43371 0.0
C264 C 0.05298 0.10327 0.41785 0.0
C265 C 0.07363 0.10838 0.45982 0.0
C266 C 0.03463 0.99575 0.52618 0.0
C267 C 0.97605 0.9805 0.50656 0.0
C268 C 0.98265 0.9958 0.60455 0.0
C269 C 0.96185 0.9791 0.61527 0.0
C270 C 0.95704 0.97811 0.64263 0.0
C271 C 0.94609 0.96475 0.59807 0.0
C272 C 0.92054 0.94866 0.63563 0.0
C273 C 0.92564 0.94959 0.60817 0.0
C274 C 0.93653 0.96301 0.65276 0.0
C275 C 0.96267 0.03313 0.52814 0.0
O276 O 0.02991 0.06024 0.52852 0.0
O277 O 0.01723 0.04614 0.57023 0.0
O278 O 0.04248 0.03876 0.47455 0.0
O279 O 0.00647 0.04828 0.46832 0.0
O280 O 0.02988 0.99571 0.50118 0.0
O281 O 0.02849 1.01341 0.53772 0.0
O282 O 0.98139 0.9803 0.532 0.0
O283 O 0.98292 0.99959 0.492 0.0
O284 O 0.97747 1.0161 0.59718 0.0
O285 O 0.99691 0.98687 0.58747 0.0
O286 O 0.955 1.01565 0.54388 0.0
O287 O 0.98537 0.0394 0.53007 0.0
H288 H 0.06189 0.0818 0.48889 0.0
H289 H 0.02513 0.07258 0.41418 0.0
H290 H 0.05046 0.10884 0.39783 0.0
H291 H 0.08771 0.11751 0.47253 0.0
H292 H 0.96892 0.98925 0.65611 0.0
H293 H 0.9495 0.96543 0.57682 0.0
H294 H 0.91386 0.93861 0.59448 0.0
H295 H 0.9329 0.96301 0.67397 0.0
Gd296 Gd 0.51493 0.03495 0.05379 0.0
Gd297 Gd 0.46758 0.02488 1.02588 0.0
C298 C 0.47023 0.058 0.07653 0.0
C299 C 0.5591 0.04913 0.06926 0.0
C300 C 0.57123 0.06021 0.09288 0.0
C301 C 0.56114 0.05544 0.11846 0.0
C302 C 0.59284 0.07661 0.0896 0.0
C303 C 0.59418 0.08366 0.13722 0.0
C304 C 0.60421 0.08828 0.11156 0.0
C305 C 0.57264 0.06698 0.14051 0.0
C306 C 0.48152 1.00054 0.07684 0.0
C307 C 0.51191 1.00001 1.00303 0.0
C308 C 0.42812 1.00655 1.00216 0.0
C309 C 0.42167 0.98685 0.98323 0.0
C310 C 0.4363 0.98494 0.96042 0.0
C311 C 0.40037 0.97017 0.98745 0.0
C312 C 0.4073 0.95112 0.94508 0.0
C313 C 0.39329 0.95238 0.96861 0.0
C314 C 0.42913 0.9674 0.94151 0.0
C315 C 0.49522 0.06741 1.01429 0.0
O316 O 0.49423 0.0615 0.07264 0.0
O317 O 0.45591 0.04091 0.06391 0.0
O318 O 0.54782 0.02729 0.07149 0.0
O319 O 0.54679 0.0624 0.05597 0.0
O320 O 0.49606 1.01644 0.09001 0.0
O321 O 0.48575 1.00346 0.05231 0.0
O322 O 0.48888 1.00259 1.00061 0.0
O323 O 0.52583 1.01121 1.02161 0.0
O324 O 0.44335 0.02482 0.99319 0.0
O325 O 0.43265 1.00097 1.02642 0.0
O326 O 0.47169 0.06402 1.01819 0.0
O327 O 0.50295 0.04811 1.01634 0.0
H328 H 0.54428 0.043 0.12135 0.0
H329 H 0.60082 0.08055 0.06998 0.0
H330 H 0.62094 0.10085 0.10849 0.0
H331 H 0.56443 0.06325 0.16006 0.0
H332 H 0.45299 0.99742 0.95672 0.0
H333 H 0.38897 0.97118 1.00507 0.0
H334 H 0.3766 0.93991 0.97227 0.0
H335 H 0.44026 0.96737 0.92355 0.0
Gd336 Gd 0.50176 0.50625 0.51905 0.0
Gd337 Gd 0.4949 0.54441 0.55679 0.0
C338 C 0.52051 0.50439 0.5803 0.0
C339 C 0.51906 0.47399 0.49243 0.0
C340 C 0.53188 0.45492 0.50064 0.0
C341 C 0.5213 0.43133 0.49601 0.0
C342 C 0.55391 0.45992 0.51443 0.0
C343 C 0.55469 0.41797 0.51855 0.0
C344 C 0.56523 0.44165 0.52318 0.0
C345 C 0.53251 0.41303 0.50497 0.0
C346 C 0.457 0.50015 0.54311 0.0
C347 C 0.47685 0.54642 0.49537 0.0
C348 C 0.47643 0.57539 0.58453 0.0
C349 C 0.459 0.59092 0.57822 0.0
C350 C 0.46166 0.61358 0.58942 0.0
C351 C 0.44059 0.58383 0.55973 0.0
C352 C 0.42832 0.62235 0.56287 0.0
C353 C 0.42539 0.59942 0.5521 0.0
C354 C 0.44641 0.62917 0.58186 0.0
C355 C 0.53978 0.55044 0.53296 0.0
O356 O 0.52203 0.4972 0.55532 0.0
O357 O 0.50857 0.52171 0.58676 0.0
O358 O 0.49607 0.47179 0.50006 0.0
O359 O 0.53091 0.49561 0.49494 0.0
O360 O 0.46074 0.49528 0.5183 0.0
O361 O 0.47713 0.50736 0.55411 0.0
O362 O 0.47404 0.55263 0.52053 0.0
O363 O 0.48987 0.52992 0.4889 0.0
O364 O 0.49773 0.58011 0.57225 0.0
O365 O 0.46759 0.55281 0.58504 0.0
O366 O 0.5359 0.55542 0.55775 0.0
O367 O 0.51968 0.54333 0.52181 0.0
H368 H 0.50418 0.42706 0.48567 0.0
H369 H 0.56245 0.47794 0.51856 0.0
H370 H 0.5825 0.44615 0.53314 0.0
H371 H 0.52373 0.395 0.50134 0.0
H372 H 0.47579 0.61933 0.60368 0.0
H373 H 0.43825 0.5664 0.55076 0.0
H374 H 0.41181 0.59373 0.53725 0.0
H375 H 0.44884 0.64662 0.59082 0.0
Gd376 Gd 0.00364 0.50068 0.04731 0.0
Gd377 Gd 0.99845 0.54696 1.02402 0.0
C378 C 0.04722 0.54656 0.05549 0.0
C379 C 0.01883 0.46219 0.05962 0.0
C380 C 0.04079 0.45512 0.07053 0.0
C381 C 0.05581 0.4698 0.08813 0.0
C382 C 0.04706 0.43344 0.06271 0.0
C383 C 0.08299 0.44076 0.09038 0.0
C384 C 0.06796 0.42632 0.07249 0.0
C385 C 0.07673 0.46266 0.098 0.0
C386 C 0.97804 0.52687 0.07859 0.0
C387 C 0.95443 0.50156 1.01693 0.0
C388 C 0.98318 0.5848 1.00959 0.0
C389 C 0.96037 0.59069 0.99931 0.0
C390 C 0.9617 0.60787 0.97966 0.0
C391 C 0.93731 0.57944 1.0088 0.0
C392 C 0.91721 0.60309 0.97957 0.0
C393 C 0.91591 0.58569 0.99909 0.0
C394 C 0.94033 0.61399 0.96982 0.0
C395 C 0.02394 0.52039 0.99304 0.0
O396 O 0.04081 0.52326 0.05537 0.0
O397 O 0.03248 0.56026 0.04647 0.0
O398 O 0.00558 0.4732 0.0757 0.0
O399 O 0.0215 0.47125 0.03588 0.0
O400 O 0.97274 0.50405 0.07635 0.0
O401 O 0.99721 0.53456 0.06513 0.0
O402 O 0.96081 0.52482 1.01767 0.0
O403 O 0.96946 0.48772 1.02491 0.0
O404 O 0.99534 0.57261 0.99367 0.0
O405 O 0.98241 0.57773 0.03419 0.0
O406 O 0.02983 0.54312 0.99571 0.0
O407 O 0.00454 0.51304 1.00623 0.0
H408 H 0.05132 0.4867 0.09429 0.0
H409 H 0.03581 0.42201 0.04892 0.0
H410 H 0.07246 0.40957 0.06578 0.0
H411 H 0.08778 0.47413 0.1119 0.0
H412 H 0.97932 0.61671 0.97207 0.0
H413 H 0.93582 0.56594 1.0238 0.0
H414 H 0.89834 0.57685 1.00678 0.0
H415 H 0.94192 0.62766 0.95501 0.0
H416 H 0.25646 0.27429 0.35276 0.0
H417 H 0.22409 0.25163 0.3809 0.0
H418 H 0.20452 0.20274 0.31628 0.0
H419 H 0.23678 0.22498 0.2883 0.0
H420 H 0.1713 0.23995 0.3685 0.0
H421 H 0.21542 0.1613 0.38094 0.0
H422 H 0.2324 0.18974 0.37138 0.0
H423 H 0.2152 0.17097 0.34723 0.0
C424 C 0.24536 0.25858 0.34471 0.0
C425 C 0.24907 0.25141 0.31835 0.0
C426 C 0.22686 0.24577 0.36071 0.0
C427 C 0.21213 0.22546 0.35066 0.0
C428 C 0.21589 0.21825 0.32443 0.0
H429 H 0.09276 0.11718 0.38431 0.0
H430 H 0.1263 0.14623 0.36674 0.0
C431 C 0.23418 0.23108 0.30843 0.0
C432 C 0.19237 0.21178 0.36711 0.0
H433 H 0.17248 0.15641 0.39075 0.0
C434 C 0.17163 0.22181 0.37383 0.0
C435 C 0.19301 0.18819 0.37402 0.0
C436 C 0.21529 0.17693 0.36826 0.0
C437 C 0.15083 0.20831 0.38595 0.0
C438 C 0.15108 0.18437 0.39171 0.0
C439 C 0.17229 0.17474 0.3861 0.0
C440 C 0.12911 0.1684 0.40189 0.0
C441 C 0.12836 0.21936 0.3913 0.0
C442 C 0.11929 0.17149 0.42737 0.0
C443 C 0.0998 0.15499 0.43743 0.0
C444 C 0.08994 0.13508 0.4222 0.0
C445 C 0.09951 0.13249 0.39642 0.0
C446 C 0.11888 0.14896 0.38641 0.0
H447 H 0.12971 0.23673 0.3815 0.0
H448 H 0.11172 0.20753 0.38433 0.0
H449 H 0.12607 0.22206 0.41299 0.0
H450 H 0.12714 0.18625 0.43974 0.0
H451 H 0.09277 0.15757 0.45729 0.0
H452 H 0.33268 0.85398 0.72 0.0
H453 H 0.3401 0.85775 0.76764 0.0
H454 H 0.38413 0.92628 0.75524 0.0
H455 H 0.37572 0.92336 0.70807 0.0
H456 H 0.38139 0.86486 0.79815 0.0
H457 H 0.33195 0.94046 0.80799 0.0
H458 H 0.33081 0.92229 0.77845 0.0
H459 H 0.35634 0.94571 0.78361 0.0
C460 C 0.34384 0.86992 0.72743 0.0
C461 C 0.35328 0.88852 0.71019 0.0
C462 C 0.34823 0.87193 0.75461 0.0
C463 C 0.36217 0.89252 0.76499 0.0
C464 C 0.37283 0.91046 0.74768 0.0
H465 H 0.43418 0.92809 0.91004 0.0
H466 H 0.4204 0.90915 0.86841 0.0
C467 C 0.36827 0.9086 0.72061 0.0
C468 C 0.36485 0.89586 0.79398 0.0
H469 H 0.35748 0.93464 0.84394 0.0
C470 C 0.37591 0.87994 0.80832 0.0
C471 C 0.35701 0.91512 0.80736 0.0
C472 C 0.34312 0.93171 0.79361 0.0
C473 C 0.38055 0.88354 0.83547 0.0
C474 C 0.3745 0.9039 0.84831 0.0
C475 C 0.36232 0.9191 0.83417 0.0
C476 C 0.38208 0.91107 0.87566 0.0
C477 C 0.39188 0.8655 0.85 0.0
C478 C 0.3652 0.91836 0.89386 0.0
C479 C 0.37319 0.9301 0.91727 0.0
C480 C 0.39825 0.93459 0.92313 0.0
C481 C 0.41483 0.92547 0.90591 0.0
C482 C 0.40688 0.91416 0.88225 0.0
H483 H 0.38654 0.84764 0.8411 0.0
H484 H 0.41212 0.87016 0.8483 0.0
H485 H 0.38638 0.86479 0.87134 0.0
H486 H 0.34596 0.9162 0.88922 0.0
H487 H 0.35986 0.93698 0.92983 0.0
H488 H 0.6376 0.43417 0.77548 0.0
H489 H 0.6191 0.45358 0.74031 0.0
H490 H 0.5738 0.38751 0.72001 0.0
H491 H 0.59244 0.36784 0.75483 0.0
H492 H 0.61861 0.44435 0.68568 0.0
H493 H 0.52389 0.4323 0.72787 0.0
H494 H 0.54979 0.42817 0.74717 0.0
H495 H 0.53636 0.40553 0.72448 0.0
C496 C 0.62376 0.42366 0.76353 0.0
C497 C 0.61656 0.39933 0.76825 0.0
C498 C 0.61311 0.43486 0.74343 0.0
C499 C 0.5948 0.42214 0.72761 0.0
C500 C 0.5875 0.39789 0.73225 0.0
H501 H 0.54633 0.46763 0.57512 0.0
H502 H 0.56446 0.44767 0.61016 0.0
C503 C 0.59818 0.38664 0.75231 0.0
C504 C 0.58382 0.43414 0.70591 0.0
H505 H 0.52975 0.44727 0.68416 0.0
C506 C 0.59918 0.44499 0.68538 0.0
C507 C 0.55849 0.43525 0.70554 0.0
C508 C 0.54115 0.42489 0.72754 0.0
C509 C 0.58992 0.45662 0.66445 0.0
C510 C 0.56449 0.45727 0.66376 0.0
C511 C 0.54918 0.44665 0.68447 0.0
C512 C 0.55349 0.46939 0.64217 0.0
C513 C 0.60757 0.46855 0.64355 0.0
C514 C 0.54074 0.48798 0.64833 0.0
C515 C 0.53024 0.49939 0.62831 0.0
C516 C 0.53204 0.49242 0.60154 0.0
C517 C 0.54467 0.47365 0.59542 0.0
C518 C 0.5552 0.46226 0.61548 0.0
H519 H 0.62674 0.47169 0.65044 0.0
H520 H 0.60678 0.45708 0.62561 0.0
H521 H 0.60268 0.4857 0.63782 0.0
H522 H 0.53904 0.4938 0.66872 0.0
H523 H 0.52062 0.51367 0.63389 0.0
H524 H 0.91121 0.65719 0.27156 0.0
H525 H 0.93245 0.63623 0.23807 0.0
H526 H 0.863 0.60225 0.20819 0.0
H527 H 0.84162 0.62252 0.24189 0.0
H528 H 0.92796 0.58553 0.2274 0.0
H529 H 0.90094 0.6347 0.14215 0.0
H530 H 0.89953 0.64521 0.17599 0.0
H531 H 0.87618 0.62217 0.16409 0.0
C532 C 0.9004 0.64504 0.25812 0.0
C533 C 0.87461 0.64183 0.25939 0.0
C534 C 0.91261 0.63317 0.23885 0.0
C535 C 0.89933 0.61799 0.22029 0.0
C536 C 0.87365 0.61426 0.22192 0.0
H537 H 0.94096 0.51106 0.11394 0.0
H538 H 0.92302 0.53373 0.14844 0.0
C539 C 0.86145 0.62597 0.24121 0.0
C540 C 0.91217 0.60596 0.19921 0.0
H541 H 0.91973 0.60143 0.13187 0.0
C542 C 0.92626 0.58909 0.20653 0.0
C543 C 0.91018 0.61076 0.17196 0.0
C544 C 0.89608 0.62933 0.16296 0.0
C545 C 0.9378 0.57643 0.18731 0.0
C546 C 0.93512 0.58067 0.16004 0.0
C547 C 0.92162 0.59803 0.15275 0.0
C548 C 0.94592 0.56702 0.13882 0.0
C549 C 0.95288 0.55865 0.19632 0.0
C550 C 0.96443 0.57826 0.12151 0.0
C551 C 0.9748 0.5653 0.10179 0.0
C552 C 0.96662 0.5409 0.09879 0.0
C553 C 0.94774 0.52981 0.11579 0.0
C554 C 0.93753 0.54272 0.13561 0.0
H555 H 0.95771 0.56123 0.21753 0.0
H556 H 0.94222 0.54062 0.19386 0.0
H557 H 0.97002 0.55977 0.18413 0.0
H558 H 0.97111 0.59701 0.12351 0.0
H559 H 0.98935 0.57435 0.08905 0.0
H560 H 0.41065 0.23827 0.2005 0.0
H561 H 0.4292 0.20649 0.18013 0.0
H562 H 0.35895 0.17449 0.1503 0.0
H563 H 0.34046 0.20664 0.16963 0.0
H564 H 0.41831 0.15871 0.18976 0.0
H565 H 0.40279 0.17658 0.08433 0.0
H566 H 0.3996 0.19756 0.11059 0.0
H567 H 0.37537 0.17311 0.10465 0.0
C568 C 0.39922 0.22471 0.18919 0.0
C569 C 0.37407 0.22509 0.18661 0.0
C570 C 0.40982 0.20645 0.17776 0.0
C571 C 0.39553 0.18828 0.16341 0.0
C572 C 0.37043 0.18856 0.16086 0.0
H573 H 0.42153 0.06023 0.08354 0.0
H574 H 0.40352 0.0911 0.10654 0.0
C575 C 0.35983 0.20682 0.17221 0.0
C576 C 0.40671 0.16869 0.15174 0.0
H577 H 0.41577 0.14023 0.09338 0.0
C578 C 0.41789 0.15474 0.16867 0.0
C579 C 0.40615 0.16356 0.12421 0.0
C580 C 0.39555 0.17862 0.10483 0.0
C581 C 0.4281 0.13549 0.15887 0.0
C582 C 0.42728 0.13024 0.13141 0.0
C583 C 0.4162 0.14423 0.11447 0.0
C584 C 0.43811 0.11052 0.11965 0.0
C585 C 0.43927 0.12065 0.17797 0.0
C586 C 0.46352 0.11113 0.11965 0.0
C587 C 0.47391 0.09354 0.10649 0.0
C588 C 0.45905 0.07505 0.09303 0.0
C589 C 0.43352 0.07415 0.09376 0.0
C590 C 0.42317 0.09181 0.10682 0.0
H591 H 0.43359 0.12369 0.19885 0.0
H592 H 0.43403 0.10159 0.1731 0.0
H593 H 0.45953 0.12523 0.17638 0.0
H594 H 0.4754 0.12561 0.12912 0.0
H595 H 0.49364 0.09482 0.10627 0.0
H596 H 0.22139 0.94279 0.61146 0.0
H597 H 0.17962 0.94983 0.60604 0.0
H598 H 0.15915 0.88 0.57293 0.0
H599 H 0.20067 0.87226 0.57933 0.0
H600 H 0.15605 0.92585 0.5407 0.0
H601 H 0.10786 0.91705 0.63919 0.0
H602 H 0.13963 0.93082 0.63801 0.0
H603 H 0.13147 0.9001 0.62983 0.0
C604 C 0.20788 0.92859 0.60386 0.0
C605 C 0.21448 0.90702 0.59559 0.0
C606 C 0.18403 0.93268 0.60077 0.0
C607 C 0.16644 0.91534 0.58929 0.0
C608 C 0.17255 0.89347 0.58202 0.0
H609 H 0.04072 0.95235 0.50829 0.0
H610 H 0.0687 0.92774 0.52543 0.0
C611 C 0.19634 0.88924 0.58539 0.0
C612 C 0.14308 0.92159 0.58116 0.0
H613 H 0.08913 0.93527 0.60515 0.0
C614 C 0.14115 0.92756 0.55459 0.0
C615 C 0.12407 0.92397 0.59957 0.0
C616 C 0.12562 0.91756 0.62828 0.0
C617 C 0.12112 0.9371 0.54607 0.0
C618 C 0.10207 0.93985 0.56454 0.0
C619 C 0.10364 0.93299 0.591 0.0
C620 C 0.08173 0.95197 0.55725 0.0
C621 C 0.12145 0.94552 0.51778 0.0
C622 C 0.07845 0.97279 0.57068 0.0
C623 C 0.06203 0.98648 0.56137 0.0
C624 C 0.04897 0.97968 0.53827 0.0
C625 C 0.05103 0.95811 0.52585 0.0
C626 C 0.06703 0.94414 0.53555 0.0
H627 H 0.14005 0.94747 0.50842 0.0
H628 H 0.10908 0.93245 0.50585 0.0
H629 H 0.11509 0.96277 0.5168 0.0
H630 H 0.08948 0.97907 0.58758 0.0
H631 H 0.06054 1.00298 0.57139 0.0
H632 H 0.7339 0.41712 0.93467 0.0
H633 H 0.77015 0.43916 0.95619 0.0
H634 H 0.81683 0.40477 0.9048 0.0
H635 H 0.78091 0.38316 0.88289 0.0
H636 H 0.80716 0.4219 0.98332 0.0
H637 H 0.84631 0.4747 0.89654 0.0
H638 H 0.8151 0.45922 0.89787 0.0
H639 H 0.83981 0.44354 0.88989 0.0
C640 C 0.75188 0.41443 0.92774 0.0
C641 C 0.75436 0.39829 0.90699 0.0
C642 C 0.77262 0.42696 0.94019 0.0
C643 C 0.79632 0.42389 0.93194 0.0
C644 C 0.79883 0.40778 0.91129 0.0
H645 H 0.93432 0.4546 1.01343 0.0
H646 H 0.89544 0.43686 0.99402 0.0
C647 C 0.77817 0.3952 0.89896 0.0
C648 C 0.81844 0.43702 0.94524 0.0
H649 H 0.87244 0.47455 0.93334 0.0
C650 C 0.82135 0.43353 0.97242 0.0
C651 C 0.83688 0.45247 0.93118 0.0
C652 C 0.83434 0.45794 0.90232 0.0
C653 C 0.84246 0.44445 0.98566 0.0
C654 C 0.86139 0.45909 0.97132 0.0
C655 C 0.85811 0.46317 0.94434 0.0
C656 C 0.88486 0.47005 0.9838 0.0
C657 C 0.84423 0.44033 1.01497 0.0
C658 C 0.89224 0.49468 0.98418 0.0
C659 C 0.91459 0.50494 0.99526 0.0
C660 C 0.93023 0.49078 1.006 0.0
C661 C 0.92278 0.46611 1.00552 0.0
C662 C 0.90041 0.4559 0.99453 0.0
H663 H 0.8259 0.43436 1.02437 0.0
H664 H 0.85545 0.42638 1.0179 0.0
H665 H 0.85314 0.4566 1.02529 0.0
H666 H 0.88067 0.50601 0.97591 0.0
H667 H 0.91969 0.52397 0.99513 0.0
H668 H 0.72141 0.62482 0.37242 0.0
H669 H 0.68479 0.60564 0.39675 0.0
H670 H 0.71625 0.63347 0.47031 0.0
H671 H 0.75293 0.65279 0.44612 0.0
H672 H 0.67743 0.5726 0.43632 0.0
H673 H 0.65098 0.65634 0.47281 0.0
H674 H 0.67432 0.65552 0.44737 0.0
H675 H 0.68129 0.6529 0.48173 0.0
C676 C 0.72071 0.62666 0.39382 0.0
C677 C 0.74015 0.64051 0.40726 0.0
C678 C 0.69966 0.61575 0.4077 0.0
C679 C 0.69748 0.61846 0.43534 0.0
C680 C 0.71717 0.63161 0.44893 0.0
H681 H 0.58301 0.57175 0.55375 0.0
H682 H 0.62146 0.58681 0.52995 0.0
C683 C 0.73819 0.64262 0.43505 0.0
C684 C 0.67454 0.60771 0.44984 0.0
H685 H 0.62812 0.62101 0.49021 0.0
C686 C 0.66661 0.5832 0.44803 0.0
C687 C 0.6603 0.62151 0.46507 0.0
C688 C 0.66698 0.64804 0.46671 0.0
C689 C 0.64518 0.57211 0.46142 0.0
C690 C 0.63107 0.58591 0.47677 0.0
C691 C 0.63898 0.6104 0.47854 0.0
C692 C 0.60803 0.57541 0.49118 0.0
C693 C 0.63809 0.54564 0.45947 0.0
C694 C 0.58761 0.56392 0.47735 0.0
C695 C 0.56555 0.5553 0.49094 0.0
C696 C 0.56346 0.55811 0.51862 0.0
C697 C 0.58402 0.5693 0.53244 0.0
C698 C 0.60601 0.57795 0.51885 0.0
H699 H 0.65374 0.53715 0.45261 0.0
H700 H 0.63118 0.53809 0.47893 0.0
H701 H 0.62324 0.54117 0.44499 0.0
H702 H 0.58853 0.5621 0.45597 0.0
H703 H 0.55 0.54685 0.47973 0.0
H704 H 0.28608 0.39187 0.18236 0.0
H705 H 0.25334 0.41065 0.16475 0.0
H706 H 0.20818 0.34236 0.15523 0.0
H707 H 0.2405 0.32351 0.17311 0.0
H708 H 0.227 0.40115 0.11375 0.0
H709 H 0.16762 0.3823 0.20406 0.0
H710 H 0.20014 0.38186 0.20386 0.0
H711 H 0.17948 0.35749 0.19007 0.0
C712 C 0.2692 0.38087 0.17641 0.0
C713 C 0.26587 0.3562 0.17916 0.0
C714 C 0.25059 0.3916 0.16629 0.0
C715 C 0.22831 0.37787 0.15903 0.0
C716 C 0.2252 0.35325 0.16098 0.0
H717 H 0.08728 0.39638 0.10615 0.0
H718 H 0.12356 0.38284 0.12232 0.0
C719 C 0.24379 0.3425 0.17095 0.0
C720 C 0.20794 0.38917 0.15004 0.0
H721 H 0.14971 0.3967 0.16684 0.0
C722 C 0.21015 0.4004 0.12538 0.0
C723 C 0.18607 0.38814 0.16537 0.0
C724 C 0.18313 0.37698 0.19243 0.0
C725 C 0.19061 0.40988 0.11513 0.0
C726 C 0.16854 0.40848 0.13028 0.0
C727 C 0.16661 0.39771 0.15523 0.0
C728 C 0.14678 0.41708 0.1202 0.0
C729 C 0.19342 0.42047 0.08778 0.0
C730 C 0.14769 0.44092 0.11393 0.0
C731 C 0.12699 0.4487 0.10436 0.0
C732 C 0.10495 0.43279 0.10108 0.0
C733 C 0.10405 0.40902 0.10791 0.0
C734 C 0.12473 0.40128 0.11736 0.0
H735 H 0.20902 0.41509 0.07636 0.0
H736 H 0.17647 0.41519 0.07636 0.0
H737 H 0.19693 0.43999 0.08962 0.0
H738 H 0.16437 0.45353 0.1165 0.0
H739 H 0.12837 0.4671 0.09918 0.0
H740 H 0.58538 0.27648 0.92542 0.0
H741 H 0.56449 0.24102 0.9485 0.0
H742 H 0.6137 0.19994 0.91014 0.0
H743 H 0.63463 0.23517 0.88708 0.0
H744 H 0.54233 0.19541 0.92142 0.0
H745 H 0.61504 0.18554 0.99226 0.0
H746 H 0.61305 0.21338 0.97702 0.0
H747 H 0.62451 0.19077 0.95813 0.0
C748 C 0.5919 0.25995 0.92209 0.0
C749 C 0.61168 0.25872 0.9043 0.0
C750 C 0.57988 0.23967 0.93522 0.0
C751 C 0.58763 0.21782 0.93123 0.0
C752 C 0.60751 0.2166 0.91374 0.0
H753 H 0.54193 0.07495 0.99262 0.0
H754 H 0.56415 0.11139 0.97263 0.0
C755 C 0.61934 0.23676 0.9004 0.0
C756 C 0.57447 0.1961 0.94456 0.0
H757 H 0.58089 0.15476 0.99084 0.0
C758 C 0.55068 0.18658 0.93672 0.0
C759 C 0.58548 0.1844 0.96425 0.0
C760 C 0.61088 0.19402 0.97365 0.0
C761 C 0.53777 0.16552 0.94767 0.0
C762 C 0.54859 0.15394 0.96777 0.0
C763 C 0.57245 0.16352 0.97557 0.0
C764 C 0.53545 0.13194 0.98086 0.0
C765 C 0.51298 0.15551 0.93684 0.0
C766 C 0.51217 0.13131 0.99289 0.0
C767 C 0.49937 0.11045 1.00401 0.0
C768 C 0.5097 0.08975 1.00388 0.0
C769 C 0.53342 0.09056 0.99291 0.0
C770 C 0.54614 0.11142 0.98149 0.0
H771 H 0.51089 0.16193 0.91649 0.0
H772 H 0.50991 0.13593 0.93631 0.0
H773 H 0.49852 0.16128 0.94971 0.0
H774 H 0.50376 0.14698 0.99359 0.0
H775 H 0.48127 0.1105 1.01263 0.0
H776 H 0.89691 0.80089 0.35782 0.0
H777 H 0.915 0.83727 0.38052 0.0
H778 H 0.88448 0.80888 0.45507 0.0
H779 H 0.86563 0.7726 0.43248 0.0
H780 H 0.88751 0.86757 0.41259 0.0
H781 H 0.95883 0.83371 0.46918 0.0
H782 H 0.94501 0.81863 0.44024 0.0
H783 H 0.92832 0.81696 0.47132 0.0
C784 C 0.89389 0.80231 0.37903 0.0
C785 C 0.87961 0.78368 0.3932 0.0
C786 C 0.9044 0.82314 0.392 0.0
C787 C 0.90122 0.82578 0.4195 0.0
C788 C 0.88746 0.80712 0.43387 0.0
H789 H 0.95429 0.9396 0.53082 0.0
H790 H 0.93512 0.90267 0.50989 0.0
C791 C 0.87677 0.78631 0.42089 0.0
C792 C 0.91149 0.84843 0.43289 0.0
H793 H 0.95419 0.87323 0.47728 0.0
C794 C 0.90213 0.86885 0.42671 0.0
C795 C 0.9304 0.85003 0.45146 0.0
C796 C 0.94144 0.82875 0.45842 0.0
C797 C 0.91096 0.89075 0.43878 0.0
C798 C 0.93024 0.89251 0.45702 0.0
C799 C 0.93948 0.87199 0.46331 0.0
C800 C 0.94121 0.91541 0.46968 0.0
C801 C 0.89904 0.91164 0.43234 0.0
C802 C 0.95116 0.935 0.45415 0.0
C803 C 0.96193 0.95628 0.46609 0.0
C804 C 0.96337 0.95837 0.49387 0.0
C805 C 0.95349 0.9387 0.50938 0.0
C806 C 0.94255 0.9175 0.49742 0.0
H807 H 0.88017 0.90597 0.42508 0.0
H808 H 0.89818 0.92332 0.44993 0.0
H809 H 0.9099 0.92202 0.41639 0.0
H810 H 0.95102 0.93375 0.43271 0.0
H811 H 0.96959 0.97093 0.45349 0.0
H812 H 0.37214 0.81176 0.53766 0.0
H813 H 0.38046 0.77258 0.52656 0.0
H814 H 0.30328 0.74441 0.53277 0.0
H815 H 0.29468 0.78387 0.54359 0.0
H816 H 0.33093 0.7232 0.56573 0.0
H817 H 0.37226 0.72602 0.46488 0.0
H818 H 0.38598 0.75088 0.48434 0.0
H819 H 0.35398 0.7474 0.47671 0.0
C820 C 0.3568 0.79746 0.53569 0.0
C821 C 0.33276 0.80091 0.54169 0.0
C822 C 0.36159 0.77503 0.52924 0.0
C823 C 0.34245 0.75563 0.52852 0.0
C824 C 0.31827 0.7592 0.53305 0.0
H825 H 0.37903 0.61414 0.55363 0.0
H826 H 0.35379 0.64288 0.5403 0.0
C827 C 0.31344 0.78169 0.53943 0.0
C828 C 0.34839 0.73154 0.52758 0.0
H829 H 0.38572 0.69843 0.4954 0.0
C830 C 0.34228 0.71736 0.55 0.0
C831 C 0.36313 0.72401 0.507 0.0
C832 C 0.36899 0.73781 0.48176 0.0
C833 C 0.35243 0.69695 0.55354 0.0
C834 C 0.36876 0.69045 0.53389 0.0
C835 C 0.37331 0.7036 0.51051 0.0
C836 C 0.38388 0.67228 0.53899 0.0
C837 C 0.34717 0.68359 0.57919 0.0
C838 C 0.40918 0.67923 0.54185 0.0
C839 C 0.42361 0.66292 0.54924 0.0
C840 C 0.41299 0.63932 0.55392 0.0
C841 C 0.38773 0.63221 0.55014 0.0
C842 C 0.37327 0.64859 0.54268 0.0
H843 H 0.33677 0.69288 0.59383 0.0
H844 H 0.33618 0.66597 0.5751 0.0
H845 H 0.36451 0.68088 0.58826 0.0
H846 H 0.41768 0.69747 0.53903 0.0
H847 H 0.44309 0.66883 0.55141 0.0
H848 H 0.72882 0.82433 0.75651 0.0
H849 H 0.7537 0.83988 0.71761 0.0
H850 H 0.79921 0.88935 0.76793 0.0
H851 H 0.77521 0.87371 0.80667 0.0
H852 H 0.78314 0.90823 0.71868 0.0
H853 H 0.82646 0.82801 0.70535 0.0
H854 H 0.79355 0.82465 0.70747 0.0
H855 H 0.81123 0.8341 0.73612 0.0
C856 C 0.74412 0.83853 0.75926 0.0
C857 C 0.74995 0.8478 0.78476 0.0
C858 C 0.75823 0.84741 0.73703 0.0
C859 C 0.77828 0.86566 0.74003 0.0
C860 C 0.78368 0.87534 0.76525 0.0
H861 H 0.9162 0.92183 0.68037 0.0
H862 H 0.8788 0.89963 0.70031 0.0
C863 C 0.76978 0.86646 0.78738 0.0
C864 C 0.79467 0.87437 0.71745 0.0
H865 H 0.84392 0.86172 0.68156 0.0
C866 C 0.7961 0.89797 0.70999 0.0
C867 C 0.81154 0.86085 0.70644 0.0
C868 C 0.81086 0.8355 0.71419 0.0
C869 C 0.81496 0.9089 0.693 0.0
C870 C 0.83261 0.8957 0.68302 0.0
C871 C 0.83029 0.87171 0.68924 0.0
C872 C 0.85525 0.90727 0.66918 0.0
C873 C 0.81683 0.93486 0.68737 0.0
C874 C 0.85443 0.91848 0.64479 0.0
C875 C 0.87575 0.93149 0.63352 0.0
C876 C 0.89825 0.93334 0.6464 0.0
C877 C 0.8991 0.92116 0.67023 0.0
C878 C 0.8778 0.90826 0.6815 0.0
H879 H 0.80394 0.94324 0.70002 0.0
H880 H 0.83574 0.94432 0.69064 0.0
H881 H 0.81247 0.93717 0.66632 0.0
H882 H 0.83723 0.91765 0.63481 0.0
H883 H 0.87444 0.94074 0.61519 0.0
H884 H 0.73637 0.2183 0.28928 0.0
H885 H 0.71074 0.19526 0.256 0.0
H886 H 0.66729 0.15642 0.31819 0.0
H887 H 0.69266 0.17951 0.35161 0.0
H888 H 0.70182 0.14262 0.25196 0.0
H889 H 0.61769 0.18236 0.2684 0.0
H890 H 0.64762 0.19722 0.27806 0.0
H891 H 0.6318 0.17306 0.29728 0.0
C892 C 0.72121 0.20501 0.29584 0.0
C893 C 0.71649 0.20068 0.32301 0.0
C894 C 0.7067 0.19182 0.27686 0.0
C895 C 0.68711 0.17432 0.28474 0.0
C896 C 0.68225 0.17001 0.3118 0.0
H897 H 0.6042 0.06537 0.18468 0.0
H898 H 0.62588 0.0866 0.22201 0.0
C899 C 0.69684 0.18308 0.3308 0.0
C900 C 0.67211 0.1602 0.26457 0.0
H901 H 0.61556 0.1511 0.2372 0.0
C902 C 0.68293 0.14436 0.24876 0.0
C903 C 0.64755 0.16267 0.26054 0.0
C904 C 0.63539 0.17982 0.27679 0.0
C905 C 0.66975 0.13089 0.22885 0.0
C906 C 0.64521 0.13339 0.22478 0.0
C907 C 0.63436 0.14918 0.24062 0.0
C908 C 0.63102 0.12067 0.2031 0.0
C909 C 0.68223 0.11444 0.21186 0.0
C910 C 0.62649 0.13297 0.18049 0.0
C911 C 0.61426 0.12095 0.15922 0.0
C912 C 0.60617 0.09645 0.16034 0.0
C913 C 0.61015 0.08426 0.18336 0.0
C914 C 0.62259 0.0963 0.20458 0.0
H915 H 0.7022 0.11672 0.21541 0.0
H916 H 0.67394 0.09591 0.2163 0.0
H917 H 0.67949 0.11745 0.19052 0.0
H918 H 0.63283 0.15182 0.17912 0.0
H919 H 0.61113 0.13082 0.14186 0.0
H920 H 0.41386 0.67954 0.3103 0.0
H921 H 0.43004 0.66199 0.3485 0.0
H922 H 0.3763 0.59901 0.33888 0.0
H923 H 0.35934 0.61678 0.30143 0.0
H924 H 0.38133 0.61112 0.39077 0.0
H925 H 0.47329 0.6121 0.34437 0.0
H926 H 0.46447 0.64068 0.34661 0.0
H927 H 0.44766 0.61817 0.32591 0.0
C928 C 0.40521 0.66208 0.31646 0.0
C929 C 0.38534 0.64959 0.30241 0.0
C930 C 0.41475 0.6519 0.33818 0.0
C931 C 0.40482 0.62888 0.34634 0.0
C932 C 0.38452 0.61667 0.33291 0.0
H933 H 0.4754 0.5361 0.44203 0.0
H934 H 0.45742 0.55619 0.40707 0.0
C935 C 0.37494 0.62684 0.31127 0.0
C936 C 0.41554 0.6174 0.3687 0.0
H937 H 0.46826 0.60046 0.38931 0.0
C938 C 0.40035 0.60882 0.39044 0.0
C939 C 0.4403 0.614 0.36825 0.0
C940 C 0.45735 0.6215 0.34494 0.0
C941 C 0.40918 0.59715 0.41163 0.0
C942 C 0.4341 0.59428 0.41148 0.0
C943 C 0.44924 0.60276 0.38968 0.0
C944 C 0.44469 0.58192 0.43324 0.0
C945 C 0.39147 0.58742 0.4336 0.0
C946 C 0.44382 0.58966 0.45979 0.0
C947 C 0.45399 0.57805 0.47995 0.0
C948 C 0.46557 0.55854 0.47406 0.0
C949 C 0.46663 0.55098 0.44743 0.0
C950 C 0.45635 0.56252 0.42733 0.0
H951 H 0.37217 0.58512 0.42721 0.0
H952 H 0.3952 0.57015 0.44047 0.0
H953 H 0.39346 0.59993 0.45067 0.0
H954 H 0.43554 0.60491 0.46495 0.0
H955 H 0.45303 0.58459 0.50011 0.0
H956 H 0.14448 0.43367 0.80392 0.0
H957 H 0.12615 0.45553 0.83878 0.0
H958 H 0.06671 0.39714 0.84861 0.0
H959 H 0.08462 0.37527 0.81345 0.0
H960 H 0.07902 0.46888 0.8428 0.0
H961 H 0.093 0.40889 0.92424 0.0
H962 H 0.10848 0.40855 0.89232 0.0
H963 H 0.07702 0.3947 0.89626 0.0
C964 C 0.12733 0.42553 0.81317 0.0
C965 C 0.11617 0.40255 0.80582 0.0
C966 C 0.11695 0.43804 0.83328 0.0
C967 C 0.09528 0.42785 0.84669 0.0
C968 C 0.08374 0.40519 0.83901 0.0
H969 H 0.00835 0.47438 0.97812 0.0
H970 H 0.02542 0.45209 0.9425 0.0
C971 C 0.09406 0.39268 0.81885 0.0
C972 C 0.08473 0.44096 0.86863 0.0
H973 H 0.07032 0.43918 0.93505 0.0
C974 C 0.07719 0.46243 0.86299 0.0
C975 C 0.08223 0.43252 0.89498 0.0
C976 C 0.09078 0.41001 0.90248 0.0
C977 C 0.06689 0.47546 0.88282 0.0
C978 C 0.06459 0.46714 0.90926 0.0
C979 C 0.07206 0.44561 0.91486 0.0
C980 C 0.05461 0.48055 0.93138 0.0
C981 C 0.05801 0.49775 0.87507 0.0
C982 C 0.06561 0.5038 0.93751 0.0
C983 C 0.05584 0.51657 0.95779 0.0
C984 C 0.03498 0.50631 0.97259 0.0
C985 C 0.0244 0.4828 0.96702 0.0
C986 C 0.03414 0.47005 0.94665 0.0
H987 H 0.05441 0.49794 0.85351 0.0
H988 H 0.04099 0.49983 0.88629 0.0
H989 H 0.07231 0.51318 0.87957 0.0
H990 H 0.0818 0.51212 0.92659 0.0
H991 H 0.06454 0.53457 0.96176 0.0
H992 H 0.60586 0.82485 0.95135 0.0
H993 H 0.57855 0.85335 0.9593 0.0
H994 H 0.58917 0.87603 0.87802 0.0
H995 H 0.61774 0.84868 0.87036 0.0
H996 H 0.59848 0.9122 0.90977 0.0
H997 H 0.51022 0.86032 0.94305 0.0
H998 H 0.53456 0.85296 0.96223 0.0
H999 H 0.53392 0.84676 0.92708 0.0
C1000 C 0.60215 0.83566 0.93503 0.0
C1001 C 0.6143 0.83459 0.9103 0.0
C1002 C 0.58618 0.85174 0.93951 0.0
C1003 C 0.58158 0.86676 0.9192 0.0
C1004 C 0.59236 0.86459 0.89398 0.0
H1005 H 0.48857 0.97152 0.96402 0.0
H1006 H 0.5042 0.94027 0.9389 0.0
C1007 C 0.60855 0.84871 0.88957 0.0
C1008 C 0.56849 0.88675 0.92532 0.0
H1009 H 0.51847 0.90119 0.95835 0.0
C1010 C 0.58074 0.90972 0.9199 0.0
C1011 C 0.54517 0.88366 0.93816 0.0
C1012 C 0.53012 0.85955 0.94268 0.0
C1013 C 0.57103 0.92961 0.92838 0.0
C1014 C 0.54879 0.92649 0.94332 0.0
C1015 C 0.53574 0.90359 0.94727 0.0
C1016 C 0.53982 0.94658 0.9568 0.0
C1017 C 0.58494 0.95377 0.92158 0.0
C1018 C 0.55466 0.96053 0.97513 0.0
C1019 C 0.54589 0.97846 0.98936 0.0
C1020 C 0.52192 0.98265 0.98583 0.0
C1021 C 0.50716 0.96887 0.96715 0.0
C1022 C 0.51602 0.95094 0.95283 0.0
H1023 H 0.59605 0.95324 0.90298 0.0
H1024 H 0.5724 0.96669 0.91923 0.0
H1025 H 0.59773 0.96006 0.93774 0.0
H1026 H 0.57285 0.95712 0.97904 0.0
H1027 H 0.55772 0.98857 1.00369 0.0
H1028 H 0.83057 0.19171 0.49315 0.0
H1029 H 0.85202 0.16034 0.5071 0.0
H1030 H 0.87199 0.14766 0.42559 0.0
H1031 H 0.84963 0.17819 0.41132 0.0
H1032 H 0.85516 0.10665 0.45268 0.0
H1033 H 0.92594 0.16533 0.50965 0.0
H1034 H 0.89507 0.16713 0.51998 0.0
H1035 H 0.9059 0.17658 0.4873 0.0
C1036 C 0.83939 0.18215 0.47817 0.0
C1037 C 0.83854 0.18757 0.45113 0.0
C1038 C 0.85183 0.1644 0.48621 0.0
C1039 C 0.86387 0.15197 0.46739 0.0
C1040 C 0.86292 0.15718 0.44041 0.0
H1041 H 0.97716 0.07185 0.49804 0.0
H1042 H 0.95179 0.09895 0.48153 0.0
C1043 C 0.85036 0.17481 0.43234 0.0
C1044 C 0.8775 0.13348 0.47575 0.0
H1045 H 0.92539 0.12424 0.51294 0.0
C1046 C 0.87055 0.11044 0.46583 0.0
C1047 C 0.89768 0.13862 0.49267 0.0
C1048 C 0.90678 0.16329 0.50285 0.0
C1049 C 0.88329 0.09233 0.47243 0.0
C1050 C 0.90316 0.09739 0.48978 0.0
C1051 C 0.91005 0.12042 0.49973 0.0
C1052 C 0.91774 0.07939 0.49735 0.0
C1053 C 0.87578 0.06815 0.46027 0.0
C1054 C 0.90692 0.05916 0.51132 0.0
C1055 C 0.92139 0.04341 0.52046 0.0
C1056 C 0.94687 0.04792 0.51605 0.0
C1057 C 0.95754 0.06786 0.50155 0.0
C1058 C 0.94309 0.08342 0.49222 0.0
H1059 H 0.86461 0.06874 0.44239 0.0
H1060 H 0.89206 0.06011 0.45466 0.0
H1061 H 0.86456 0.05652 0.47497 0.0
H1062 H 0.88745 0.05598 0.51593 0.0
H1063 H 0.91278 0.02822 0.53176 0.0
H1064 H 0.25262 0.61419 0.17607 0.0
H1065 H 0.21442 0.59458 0.15645 0.0
H1066 H 0.20435 0.66045 0.1223 0.0
H1067 H 0.24263 0.68008 0.14159 0.0
H1068 H 0.16747 0.60075 0.1622 0.0
H1069 H 0.19735 0.6184 0.05769 0.0
H1070 H 0.21837 0.62342 0.08471 0.0
H1071 H 0.19934 0.64483 0.07738 0.0
C1072 C 0.24221 0.62457 0.16455 0.0
C1073 C 0.2509 0.64874 0.1603 0.0
C1074 C 0.22037 0.61328 0.15321 0.0
C1075 C 0.20664 0.62583 0.13732 0.0
C1076 C 0.21489 0.65012 0.13374 0.0
H1077 H 0.06789 0.59346 0.05656 0.0
H1078 H 0.10634 0.61179 0.07653 0.0
C1079 C 0.2368 0.66138 0.1449 0.0
C1080 C 0.18364 0.61359 0.12477 0.0
H1081 H 0.15502 0.60335 0.0653 0.0
C1082 C 0.16486 0.6012 0.14099 0.0
C1083 C 0.1801 0.61402 0.09703 0.0
C1084 C 0.19995 0.62567 0.07815 0.0
C1085 C 0.14258 0.58981 0.13039 0.0
C1086 C 0.13894 0.59057 0.10274 0.0
C1087 C 0.15773 0.60282 0.0865 0.0
C1088 C 0.11565 0.57909 0.09034 0.0
C1089 C 0.12283 0.57754 0.14897 0.0
C1090 C 0.10815 0.55449 0.091 0.0
C1091 C 0.08616 0.54387 0.07944 0.0
C1092 C 0.0711 0.55763 0.06696 0.0
C1093 C 0.07887 0.58225 0.06604 0.0
C1094 C 0.10092 0.5928 0.07746 0.0
H1095 H 0.12628 0.58291 0.16997 0.0
H1096 H 0.1046 0.58135 0.14361 0.0
H1097 H 0.12222 0.55819 0.14736 0.0
H1098 H 0.11937 0.54345 0.1004 0.0
H1099 H 0.0809 0.52489 0.08046 0.0
H1100 H 0.27226 0.42999 0.70245 0.0
H1101 H 0.3086 0.45007 0.67843 0.0
H1102 H 0.28509 0.41123 0.60736 0.0
H1103 H 0.24903 0.39047 0.63135 0.0
H1104 H 0.34497 0.42622 0.65119 0.0
H1105 H 0.30167 0.48196 0.58394 0.0
H1106 H 0.28674 0.46967 0.61412 0.0
H1107 H 0.28804 0.45128 0.58526 0.0
C1108 C 0.27477 0.42558 0.68174 0.0
C1109 C 0.2576 0.40843 0.66896 0.0
C1110 C 0.29553 0.43724 0.66799 0.0
C1111 C 0.29948 0.4323 0.64106 0.0
C1112 C 0.28222 0.4156 0.62804 0.0
H1113 H 0.41422 0.47688 0.52307 0.0
H1114 H 0.37629 0.46123 0.54745 0.0
C1115 C 0.26152 0.40379 0.64181 0.0
C1116 C 0.3223 0.4437 0.62699 0.0
H1117 H 0.34387 0.48118 0.57647 0.0
C1118 C 0.34479 0.43835 0.63495 0.0
C1119 C 0.32198 0.45938 0.60571 0.0
C1120 C 0.29837 0.46613 0.59677 0.0
C1121 C 0.36692 0.44783 0.62183 0.0
C1122 C 0.36669 0.46369 0.6006 0.0
C1123 C 0.34414 0.46912 0.59276 0.0
C1124 C 0.38952 0.47426 0.5858 0.0
C1125 C 0.3902 0.44003 0.63028 0.0
C1126 C 0.40951 0.48733 0.59904 0.0
C1127 C 0.43134 0.49609 0.58515 0.0
C1128 C 0.43349 0.49228 0.55766 0.0
C1129 C 0.41317 0.48002 0.54427 0.0
C1130 C 0.39145 0.47109 0.55819 0.0
H1131 H 0.38635 0.42311 0.64121 0.0
H1132 H 0.40237 0.43783 0.61292 0.0
H1133 H 0.40015 0.45358 0.64375 0.0
H1134 H 0.40832 0.49063 0.62018 0.0
H1135 H 0.44663 0.50558 0.59599 0.0
H1136 H 0.76152 0.70711 0.86623 0.0
H1137 H 0.78692 0.67818 0.8781 0.0
H1138 H 0.76374 0.68282 0.96002 0.0
H1139 H 0.7384 0.71192 0.94831 0.0
H1140 H 0.82498 0.69242 0.91419 0.0
H1141 H 0.76342 0.6112 0.94806 0.0
H1142 H 0.75329 0.63263 0.92697 0.0
H1143 H 0.75666 0.63843 0.96188 0.0
C1144 C 0.76141 0.70156 0.88669 0.0
C1145 C 0.74816 0.71194 0.90639 0.0
C1146 C 0.77584 0.68498 0.89341 0.0
C1147 C 0.77714 0.67832 0.9199 0.0
C1148 C 0.76267 0.68742 0.93938 0.0
H1149 H 0.87794 0.61268 1.00908 0.0
H1150 H 0.8428 0.62896 0.99357 0.0
C1151 C 0.74819 0.70405 0.93266 0.0
C1152 C 0.79626 0.66476 0.92759 0.0
H1153 H 0.80582 0.61408 0.95698 0.0
C1154 C 0.82081 0.67517 0.92329 0.0
C1155 C 0.79069 0.64245 0.93977 0.0
C1156 C 0.76459 0.63036 0.94431 0.0
C1157 C 0.84002 0.66411 0.93128 0.0
C1158 C 0.83453 0.64169 0.94332 0.0
C1159 C 0.80995 0.6312 0.9476 0.0
C1160 C 0.85423 0.62933 0.9522 0.0
C1161 C 0.86601 0.67692 0.92753 0.0
C1162 C 0.87185 0.62346 0.93397 0.0
C1163 C 0.89198 0.61432 0.94278 0.0
C1164 C 0.89467 0.61059 0.96996 0.0
C1165 C 0.8763 0.61528 0.98802 0.0
C1166 C 0.85625 0.6246 0.9792 0.0
H1167 H 0.86674 0.69613 0.92452 0.0
H1168 H 0.8772 0.67452 0.94491 0.0
H1169 H 0.87444 0.66972 0.90972 0.0
H1170 H 0.87033 0.62647 0.91297 0.0
H1171 H 0.90563 0.61045 0.92837 0.0
H1172 H 0.36319 0.81087 0.19339 0.0
H1173 H 0.37837 0.8506 0.17661 0.0
H1174 H 0.43463 0.82394 0.13076 0.0
H1175 H 0.41958 0.78429 0.14728 0.0
H1176 H 0.453 0.86455 0.15667 0.0
H1177 H 0.36964 0.87666 0.10372 0.0
H1178 H 0.36428 0.86971 0.13821 0.0
H1179 H 0.37408 0.84836 0.11584 0.0
C1180 C 0.37865 0.81338 0.17954 0.0
C1181 C 0.39011 0.7942 0.1718 0.0
C1182 C 0.38731 0.83618 0.16989 0.0
C1183 C 0.4075 0.84036 0.15206 0.0
C1184 C 0.41904 0.82129 0.14447 0.0
H1185 H 0.45699 0.96182 0.05089 0.0
H1186 H 0.43862 0.92365 0.06982 0.0
C1187 C 0.41045 0.79856 0.15411 0.0
C1188 C 0.41702 0.86456 0.14165 0.0
H1189 H 0.40131 0.90997 0.10635 0.0
C1190 C 0.44165 0.87447 0.14571 0.0
C1191 C 0.4024 0.8775 0.12698 0.0
C1192 C 0.3762 0.86748 0.12066 0.0
C1193 C 0.45198 0.89683 0.13574 0.0
C1194 C 0.43721 0.91003 0.12164 0.0
C1195 C 0.41261 0.90006 0.11739 0.0
C1196 C 0.44719 0.93382 0.11043 0.0
C1197 C 0.47885 0.90579 0.13979 0.0
C1198 C 0.45761 0.95261 0.12691 0.0
C1199 C 0.46818 0.97447 0.1161 0.0
C1200 C 0.46844 0.97811 0.08856 0.0
C1201 C 0.45719 0.95959 0.07218 0.0
C1202 C 0.44666 0.93773 0.083 0.0
H1203 H 0.48887 0.89128 0.14459 0.0
H1204 H 0.48757 0.91494 0.12184 0.0
H1205 H 0.48091 0.91857 0.1566 0.0
H1206 H 0.45778 0.95033 0.14818 0.0
H1207 H 0.47653 0.9884 0.12929 0.0
H1208 H 0.09203 0.2744 0.65288 0.0
H1209 H 0.07393 0.23743 0.63098 0.0
H1210 H 0.1352 0.20561 0.65384 0.0
H1211 H 0.15345 0.24246 0.67542 0.0
H1212 H 0.1242 0.1952 0.6032 0.0
H1213 H 0.03901 0.17769 0.66504 0.0
H1214 H 0.04343 0.20572 0.64883 0.0
H1215 H 0.06455 0.20018 0.67353 0.0
C1216 C 0.10155 0.25947 0.6534 0.0
C1217 C 0.12424 0.26148 0.66592 0.0
C1218 C 0.09114 0.23828 0.64093 0.0
C1219 C 0.10297 0.2185 0.64105 0.0
C1220 C 0.12566 0.22054 0.65342 0.0
H1221 H 0.03728 0.07286 0.60738 0.0
H1222 H 0.05575 0.11042 0.62745 0.0
C1223 C 0.13614 0.24172 0.6657 0.0
C1224 C 0.09208 0.19575 0.62801 0.0
H1225 H 0.04133 0.15255 0.62769 0.0
C1226 C 0.10608 0.18588 0.60859 0.0
C1227 C 0.06856 0.18332 0.63523 0.0
C1228 C 0.05308 0.19211 0.65697 0.0
C1229 C 0.09723 0.16413 0.59617 0.0
C1230 C 0.07342 0.15203 0.60283 0.0
C1231 C 0.05948 0.16184 0.62236 0.0
C1232 C 0.0628 0.12898 0.59026 0.0
C1233 C 0.11381 0.15405 0.57655 0.0
C1234 C 0.06046 0.12675 0.56261 0.0
C1235 C 0.05009 0.10516 0.55102 0.0
C1236 C 0.04148 0.08534 0.56684 0.0
C1237 C 0.04373 0.08767 0.59453 0.0
C1238 C 0.05426 0.10921 0.60608 0.0
H1239 H 0.13338 0.16169 0.57945 0.0
H1240 H 0.1116 0.13457 0.57823 0.0
H1241 H 0.10911 0.1583 0.55613 0.0
H1242 H 0.06627 0.14181 0.54995 0.0
H1243 H 0.04835 0.1042 0.52968 0.0
H1244 H 0.67579 0.28034 0.45782 0.0
H1245 H 0.64618 0.2988 0.4833 0.0
H1246 H 0.69747 0.31478 0.5466 0.0
H1247 H 0.72757 0.29644 0.52084 0.0
H1248 H 0.62377 0.29256 0.53329 0.0
H1249 H 0.68563 0.37969 0.52513 0.0
H1250 H 0.69164 0.35418 0.50661 0.0
H1251 H 0.69705 0.35643 0.54159 0.0
C1252 C 0.68064 0.28732 0.47739 0.0
C1253 C 0.70406 0.28711 0.48726 0.0
C1254 C 0.66369 0.29788 0.49195 0.0
C1255 C 0.66975 0.30841 0.51668 0.0
C1256 C 0.69262 0.30711 0.52733 0.0
H1257 H 0.58056 0.41479 0.56381 0.0
H1258 H 0.60678 0.38574 0.57302 0.0
C1259 C 0.70976 0.29667 0.51262 0.0
C1260 C 0.65274 0.32259 0.5295 0.0
H1261 H 0.64495 0.37982 0.53755 0.0
C1262 C 0.62852 0.31161 0.53492 0.0
C1263 C 0.65904 0.34743 0.53183 0.0
C1264 C 0.68468 0.36026 0.52589 0.0
C1265 C 0.61002 0.32496 0.54039 0.0
C1266 C 0.61596 0.34982 0.54026 0.0
C1267 C 0.64052 0.3607 0.53752 0.0
C1268 C 0.597 0.3648 0.53776 0.0
C1269 C 0.58406 0.31241 0.54477 0.0
C1270 C 0.58277 0.36249 0.51498 0.0
C1271 C 0.56823 0.37923 0.50936 0.0
C1272 C 0.56761 0.39865 0.52645 0.0
C1273 C 0.58096 0.40027 0.54999 0.0
C1274 C 0.59572 0.38357 0.55547 0.0
H1275 H 0.58366 0.2947 0.55347 0.0
H1276 H 0.57352 0.32279 0.55805 0.0
H1277 H 0.57485 0.30989 0.52541 0.0
H1278 H 0.58402 0.3485 0.50067 0.0
H1279 H 0.55857 0.3776 0.49086 0.0
loop_
_geom_bond_atom_site_label_1
_geom_bond_atom_site_label_2
_geom_bond_distance
_geom_bond_site_symmetry_2
_ccdc_geom_bond_type
P0 O11 1.490 . S
P0 C14 1.812 . S
P0 C20 1.803 . S
P0 C26 1.819 . S
H1 C15 0.941 . S
H2 C16 0.939 . S
H3 C18 0.940 . S
H4 C19 0.940 . S
H5 C21 0.939 . S
H6 C22 0.942 . S
H7 C24 0.940 . S
H8 C25 0.939 . S
H9 C27 0.941 . S
H10 C31 0.939 . S
O11 P0 1.490 . S
H12 C28 0.939 . S
H13 C30 0.940 . S
C14 P0 1.812 . S
C14 C15 1.389 . S
C14 C19 1.391 . S
C15 H1 0.941 . S
C15 C14 1.389 . S
C15 C16 1.397 . S
C16 H2 0.939 . S
C16 C15 1.397 . S
C16 C17 1.378 . S
C17 C16 1.378 . S
C17 C18 1.378 . S
C18 H3 0.940 . S
C18 C17 1.378 . S
C18 C19 1.396 . S
C19 H4 0.940 . S
C19 C14 1.391 . S
C19 C18 1.396 . S
C20 P0 1.803 . S
C20 C21 1.378 . S
C20 C25 1.400 . S
C21 H5 0.939 . S
C21 C20 1.378 . S
C21 C22 1.361 . S
C22 H6 0.942 . S
C22 C21 1.361 . S
C22 C23 1.369 . S
C23 C22 1.369 . S
C23 C24 1.404 . S
C24 H7 0.940 . S
C24 C23 1.404 . S
C24 C25 1.389 . S
C25 H8 0.939 . S
C25 C20 1.400 . S
C25 C24 1.389 . S
C26 P0 1.819 . S
C26 C27 1.391 . S
C26 C31 1.391 . S
C27 H9 0.941 . S
C27 C26 1.391 . S
C27 C28 1.396 . S
C28 H12 0.939 . S
C28 C27 1.396 . S
C28 C29 1.397 . S
C29 C28 1.397 . S
C29 C30 1.385 . S
C30 H13 0.940 . S
C30 C29 1.385 . S
C30 C31 1.388 . S
C31 H10 0.939 . S
C31 C26 1.391 . S
C31 C30 1.388 . S
P32 O43 1.490 . S
P32 C46 1.812 . S
P32 C52 1.803 . S
P32 C58 1.819 . S
H33 C47 0.941 . S
H34 C48 0.939 . S
H35 C50 0.940 . S
H36 C51 0.940 . S
H37 C53 0.939 . S
H38 C54 0.942 . S
H39 C56 0.940 . S
H40 C57 0.939 . S
H41 C59 0.941 . S
H42 C63 0.939 . S
O43 P32 1.490 . S
H44 C60 0.939 . S
H45 C62 0.940 . S
C46 P32 1.812 . S
C46 C47 1.389 . S
C46 C51 1.391 . S
C47 H33 0.941 . S
C47 C46 1.389 . S
C47 C48 1.397 . S
C48 H34 0.939 . S
C48 C47 1.397 . S
C48 C49 1.378 . S
C49 C48 1.378 . S
C49 C50 1.378 . S
C50 H35 0.940 . S
C50 C49 1.378 . S
C50 C51 1.396 . S
C51 H36 0.940 . S
C51 C46 1.391 . S
C51 C50 1.396 . S
C52 P32 1.803 . S
C52 C53 1.378 . S
C52 C57 1.400 . S
C53 H37 0.939 . S
C53 C52 1.378 . S
C53 C54 1.361 . S
C54 H38 0.942 . S
C54 C53 1.361 . S
C54 C55 1.369 . S
C55 C54 1.369 . S
C55 C56 1.404 . S
C56 H39 0.940 . S
C56 C55 1.404 . S
C56 C57 1.389 . S
C57 H40 0.939 . S
C57 C52 1.400 . S
C57 C56 1.389 . S
C58 P32 1.819 . S
C58 C59 1.391 . S
C58 C63 1.391 . S
C59 H41 0.941 . S
C59 C58 1.391 . S
C59 C60 1.396 . S
C60 H44 0.939 . S
C60 C59 1.396 . S
C60 C61 1.397 . S
C61 C60 1.397 . S
C61 C62 1.385 . S
C62 H45 0.940 . S
C62 C61 1.385 . S
C62 C63 1.388 . S
C63 H42 0.939 . S
C63 C58 1.391 . S
C63 C62 1.388 . S
P64 O75 1.490 . S
P64 C78 1.812 . S
P64 C84 1.803 . S
P64 C90 1.819 . S
H65 C79 0.941 . S
H66 C80 0.939 . S
H67 C82 0.940 . S
H68 C83 0.940 . S
H69 C85 0.939 . S
H70 C86 0.942 . S
H71 C88 0.940 . S
H72 C89 0.939 . S
H73 C91 0.941 . S
H74 C95 0.939 . S
O75 P64 1.490 . S
H76 C92 0.939 . S
H77 C94 0.940 . S
C78 P64 1.812 . S
C78 C79 1.389 . S
C78 C83 1.391 . S
C79 H65 0.941 . S
C79 C78 1.389 . S
C79 C80 1.397 . S
C80 H66 0.939 . S
C80 C79 1.397 . S
C80 C81 1.378 . S
C81 C80 1.378 . S
C81 C82 1.378 . S
C82 H67 0.940 . S
C82 C81 1.378 . S
C82 C83 1.396 . S
C83 H68 0.940 . S
C83 C78 1.391 . S
C83 C82 1.396 . S
C84 P64 1.803 . S
C84 C85 1.378 . S
C84 C89 1.400 . S
C85 H69 0.939 . S
C85 C84 1.378 . S
C85 C86 1.361 . S
C86 H70 0.942 . S
C86 C85 1.361 . S
C86 C87 1.369 . S
C87 C86 1.369 . S
C87 C88 1.404 . S
C88 H71 0.940 . S
C88 C87 1.404 . S
C88 C89 1.389 . S
C89 H72 0.939 . S
C89 C84 1.400 . S
C89 C88 1.389 . S
C90 P64 1.819 . S
C90 C91 1.391 . S
C90 C95 1.391 . S
C91 H73 0.941 . S
C91 C90 1.391 . S
C91 C92 1.396 . S
C92 H76 0.939 . S
C92 C91 1.396 . S
C92 C93 1.397 . S
C93 C92 1.397 . S
C93 C94 1.385 . S
C94 H77 0.940 . S
C94 C93 1.385 . S
C94 C95 1.388 . S
C95 H74 0.939 . S
C95 C90 1.391 . S
C95 C94 1.388 . S
P96 O107 1.490 . S
P96 C110 1.812 . S
P96 C116 1.803 . S
P96 C122 1.819 . S
H97 C111 0.941 . S
H98 C112 0.939 . S
H99 C114 0.940 . S
H100 C115 0.940 . S
H101 C117 0.939 . S
H102 C118 0.942 . S
H103 C120 0.940 . S
H104 C121 0.939 . S
H105 C123 0.941 . S
H106 C127 0.939 . S
O107 P96 1.490 . S
H108 C124 0.939 . S
H109 C126 0.940 . S
C110 P96 1.812 . S
C110 C111 1.389 . S
C110 C115 1.391 . S
C111 H97 0.941 . S
C111 C110 1.389 . S
C111 C112 1.397 . S
C112 H98 0.939 . S
C112 C111 1.397 . S
C112 C113 1.378 . S
C113 C112 1.378 . S
C113 C114 1.378 . S
C114 H99 0.940 . S
C114 C113 1.378 . S
C114 C115 1.396 . S
C115 H100 0.940 . S
C115 C110 1.391 . S
C115 C114 1.396 . S
C116 P96 1.803 . S
C116 C117 1.378 . S
C116 C121 1.400 . S
C117 H101 0.939 . S
C117 C116 1.378 . S
C117 C118 1.361 . S
C118 H102 0.942 . S
C118 C117 1.361 . S
C118 C119 1.369 . S
C119 C118 1.369 . S
C119 C120 1.404 . S
C120 H103 0.940 . S
C120 C119 1.404 . S
C120 C121 1.389 . S
C121 H104 0.939 . S
C121 C116 1.400 . S
C121 C120 1.389 . S
C122 P96 1.819 . S
C122 C123 1.391 . S
C122 C127 1.391 . S
C123 H105 0.941 . S
C123 C122 1.391 . S
C123 C124 1.396 . S
C124 H108 0.939 . S
C124 C123 1.396 . S
C124 C125 1.397 . S
C125 C124 1.397 . S
C125 C126 1.385 . S
C126 H109 0.940 . S
C126 C125 1.385 . S
C126 C127 1.388 . S
C127 H106 0.939 . S
C127 C122 1.391 . S
C127 C126 1.388 . S
P128 O139 1.490 . S
P128 C142 1.812 . S
P128 C148 1.803 . S
P128 C154 1.819 . S
H129 C143 0.941 . S
H130 C144 0.939 . S
H131 C146 0.940 . S
H132 C147 0.940 . S
H133 C149 0.939 . S
H134 C150 0.942 . S
H135 C152 0.940 . S
H136 C153 0.939 . S
H137 C155 0.941 . S
H138 C159 0.939 . S
O139 P128 1.490 . S
H140 C156 0.939 . S
H141 C158 0.940 . S
C142 P128 1.812 . S
C142 C143 1.389 . S
C142 C147 1.391 . S
C143 H129 0.941 . S
C143 C142 1.389 . S
C143 C144 1.397 . S
C144 H130 0.939 . S
C144 C143 1.397 . S
C144 C145 1.378 . S
C145 C144 1.378 . S
C145 C146 1.378 . S
C146 H131 0.940 . S
C146 C145 1.378 . S
C146 C147 1.396 . S
C147 H132 0.940 . S
C147 C142 1.391 . S
C147 C146 1.396 . S
C148 P128 1.803 . S
C148 C149 1.378 . S
C148 C153 1.400 . S
C149 H133 0.939 . S
C149 C148 1.378 . S
C149 C150 1.361 . S
C150 H134 0.942 . S
C150 C149 1.361 . S
C150 C151 1.369 . S
C151 C150 1.369 . S
C151 C152 1.404 . S
C152 H135 0.940 . S
C152 C151 1.404 . S
C152 C153 1.389 . S
C153 H136 0.939 . S
C153 C148 1.400 . S
C153 C152 1.389 . S
C154 P128 1.819 . S
C154 C155 1.391 . S
C154 C159 1.391 . S
C155 H137 0.941 . S
C155 C154 1.391 . S
C155 C156 1.396 . S
C156 H140 0.939 . S
C156 C155 1.396 . S
C156 C157 1.397 . S
C157 C156 1.397 . S
C157 C158 1.385 . S
C158 H141 0.940 . S
C158 C157 1.385 . S
C158 C159 1.388 . S
C159 H138 0.939 . S
C159 C154 1.391 . S
C159 C158 1.388 . S
P160 O171 1.490 . S
P160 C174 1.812 . S
P160 C180 1.803 . S
P160 C186 1.819 . S
H161 C175 0.941 . S
H162 C176 0.939 . S
H163 C178 0.940 . S
H164 C179 0.940 . S
H165 C181 0.939 . S
H166 C182 0.942 . S
H167 C184 0.940 . S
H168 C185 0.939 . S
H169 C187 0.941 . S
H170 C191 0.939 . S
O171 P160 1.490 . S
H172 C188 0.939 . S
H173 C190 0.940 . S
C174 P160 1.812 . S
C174 C175 1.389 . S
C174 C179 1.391 . S
C175 H161 0.941 . S
C175 C174 1.389 . S
C175 C176 1.397 . S
C176 H162 0.939 . S
C176 C175 1.397 . S
C176 C177 1.378 . S
C177 C176 1.378 . S
C177 C178 1.378 . S
C178 H163 0.940 . S
C178 C177 1.378 . S
C178 C179 1.396 . S
C179 H164 0.940 . S
C179 C174 1.391 . S
C179 C178 1.396 . S
C180 P160 1.803 . S
C180 C181 1.378 . S
C180 C185 1.400 . S
C181 H165 0.939 . S
C181 C180 1.378 . S
C181 C182 1.361 . S
C182 H166 0.942 . S
C182 C181 1.361 . S
C182 C183 1.369 . S
C183 C182 1.369 . S
C183 C184 1.404 . S
C184 H167 0.940 . S
C184 C183 1.404 . S
C184 C185 1.389 . S
C185 H168 0.939 . S
C185 C180 1.400 . S
C185 C184 1.389 . S
C186 P160 1.819 . S
C186 C187 1.391 . S
C186 C191 1.391 . S
C187 H169 0.941 . S
C187 C186 1.391 . S
C187 C188 1.396 . S
C188 H172 0.939 . S
C188 C187 1.396 . S
C188 C189 1.397 . S
C189 C188 1.397 . S
C189 C190 1.385 . S
C190 H173 0.940 . S
C190 C189 1.385 . S
C190 C191 1.388 . S
C191 H170 0.939 . S
C191 C186 1.391 . S
C191 C190 1.388 . S
P192 O203 1.490 . S
P192 C206 1.812 . S
P192 C212 1.803 . S
P192 C218 1.819 . S
H193 C207 0.941 . S
H194 C208 0.939 . S
H195 C210 0.940 . S
H196 C211 0.940 . S
H197 C213 0.939 . S
H198 C214 0.942 . S
H199 C216 0.940 . S
H200 C217 0.939 . S
H201 C219 0.941 . S
H202 C223 0.939 . S
O203 P192 1.490 . S
H204 C220 0.939 . S
H205 C222 0.940 . S
C206 P192 1.812 . S
C206 C207 1.389 . S
C206 C211 1.391 . S
C207 H193 0.941 . S
C207 C206 1.389 . S
C207 C208 1.397 . S
C208 H194 0.939 . S
C208 C207 1.397 . S
C208 C209 1.378 . S
C209 C208 1.378 . S
C209 C210 1.378 . S
C210 H195 0.940 . S
C210 C209 1.378 . S
C210 C211 1.396 . S
C211 H196 0.940 . S
C211 C206 1.391 . S
C211 C210 1.396 . S
C212 P192 1.803 . S
C212 C213 1.378 . S
C212 C217 1.400 . S
C213 H197 0.939 . S
C213 C212 1.378 . S
C213 C214 1.361 . S
C214 H198 0.942 . S
C214 C213 1.361 . S
C214 C215 1.369 . S
C215 C214 1.369 . S
C215 C216 1.404 . S
C216 H199 0.940 . S
C216 C215 1.404 . S
C216 C217 1.389 . S
C217 H200 0.939 . S
C217 C212 1.400 . S
C217 C216 1.389 . S
C218 P192 1.819 . S
C218 C219 1.391 . S
C218 C223 1.391 . S
C219 H201 0.941 . S
C219 C218 1.391 . S
C219 C220 1.396 . S
C220 H204 0.939 . S
C220 C219 1.396 . S
C220 C221 1.397 . S
C221 C220 1.397 . S
C221 C222 1.385 . S
C222 H205 0.940 . S
C222 C221 1.385 . S
C222 C223 1.388 . S
C223 H202 0.939 . S
C223 C218 1.391 . S
C223 C222 1.388 . S
P224 O235 1.490 . S
P224 C238 1.812 . S
P224 C244 1.803 . S
P224 C250 1.819 . S
H225 C239 0.941 . S
H226 C240 0.939 . S
H227 C242 0.940 . S
H228 C243 0.940 . S
H229 C245 0.939 . S
H230 C246 0.942 . S
H231 C248 0.940 . S
H232 C249 0.939 . S
H233 C251 0.941 . S
H234 C255 0.939 . S
O235 P224 1.490 . S
H236 C252 0.939 . S
H237 C254 0.940 . S
C238 P224 1.812 . S
C238 C239 1.389 . S
C238 C243 1.391 . S
C239 H225 0.941 . S
C239 C238 1.389 . S
C239 C240 1.397 . S
C240 H226 0.939 . S
C240 C239 1.397 . S
C240 C241 1.378 . S
C241 C240 1.378 . S
C241 C242 1.378 . S
C242 H227 0.940 . S
C242 C241 1.378 . S
C242 C243 1.396 . S
C243 H228 0.940 . S
C243 C238 1.391 . S
C243 C242 1.396 . S
C244 P224 1.803 . S
C244 C245 1.378 . S
C244 C249 1.400 . S
C245 H229 0.939 . S
C245 C244 1.378 . S
C245 C246 1.361 . S
C246 H230 0.942 . S
C246 C245 1.361 . S
C246 C247 1.369 . S
C247 C246 1.369 . S
C247 C248 1.404 . S
C248 H231 0.940 . S
C248 C247 1.404 . S
C248 C249 1.389 . S
C249 H232 0.939 . S
C249 C244 1.400 . S
C249 C248 1.389 . S
C250 P224 1.819 . S
C250 C251 1.391 . S
C250 C255 1.391 . S
C251 H233 0.941 . S
C251 C250 1.391 . S
C251 C252 1.396 . S
C252 H236 0.939 . S
C252 C251 1.396 . S
C252 C253 1.397 . S
C253 C252 1.397 . S
C253 C254 1.385 . S
C254 H237 0.940 . S
C254 C253 1.385 . S
C254 C255 1.388 . S
C255 H234 0.939 . S
C255 C250 1.391 . S
C255 C254 1.388 . S
Gd256 C259 2.818 . S
Gd256 O276 2.377 . S
Gd256 O278 2.448 . S
Gd256 O279 2.506 . S
Gd256 O280 2.435 1_545 S
Gd256 O281 2.717 1_545 S
Gd256 O283 2.395 1_445 S
Gd256 O287 2.327 1_455 S
Gd257 C268 2.814 . S
Gd257 O277 2.400 1_665 S
Gd257 O281 2.325 1_655 S
Gd257 O282 2.373 . S
Gd257 O284 2.446 . S
Gd257 O285 2.500 . S
Gd257 O286 2.439 1_565 S
Gd257 O287 2.720 1_565 S
C258 O276 1.240 . S
C258 O277 1.240 . S
C259 Gd256 2.818 . S
C259 C260 1.510 . S
C259 O278 1.249 . S
C259 O279 1.252 . S
C260 C259 1.510 . S
C260 C261 1.404 . S
C260 C262 1.352 . S
C261 C260 1.404 . S
C261 C265 1.389 . S
C261 H288 0.930 . S
C262 C260 1.352 . S
C262 C264 1.374 . S
C262 H289 0.931 . S
C263 C264 1.359 . S
C263 C265 1.364 . S
C264 C262 1.374 . S
C264 C263 1.359 . S
C264 H290 0.931 . S
C265 C261 1.389 . S
C265 C263 1.364 . S
C265 H291 0.931 . S
C266 O280 1.256 . S
C266 O281 1.257 . S
C267 O282 1.240 . S
C267 O283 1.240 . S
C268 Gd257 2.814 . S
C268 C269 1.510 . S
C268 O284 1.249 . S
C268 O285 1.252 . S
C269 C268 1.510 . S
C269 C270 1.404 . S
C269 C271 1.352 . S
C270 C269 1.404 . S
C270 C274 1.389 . S
C270 H292 0.930 . S
C271 C269 1.352 . S
C271 C273 1.374 . S
C271 H293 0.931 . S
C272 C273 1.359 . S
C272 C274 1.364 . S
C273 C271 1.374 . S
C273 C272 1.359 . S
C273 H294 0.931 . S
C274 C270 1.389 . S
C274 C272 1.364 . S
C274 H295 0.931 . S
C275 O286 1.256 . S
C275 O287 1.257 . S
O276 Gd256 2.377 . S
O276 C258 1.240 . S
O277 Gd257 2.400 1_445 S
O277 C258 1.240 . S
O278 Gd256 2.448 . S
O278 C259 1.249 . S
O279 Gd256 2.506 . S
O279 C259 1.252 . S
O280 Gd256 2.435 1_565 S
O280 C266 1.256 . S
O281 Gd256 2.717 1_565 S
O281 Gd257 2.325 1_455 S
O281 C266 1.257 . S
O282 Gd257 2.373 . S
O282 C267 1.240 . S
O283 Gd256 2.395 1_665 S
O283 C267 1.240 . S
O284 Gd257 2.446 . S
O284 C268 1.249 . S
O285 Gd257 2.500 . S
O285 C268 1.252 . S
O286 Gd257 2.439 1_545 S
O286 C275 1.256 . S
O287 Gd256 2.327 1_655 S
O287 Gd257 2.720 1_545 S
O287 C275 1.257 . S
H288 C261 0.930 . S
H289 C262 0.931 . S
H290 C264 0.931 . S
H291 C265 0.931 . S
H292 C270 0.930 . S
H293 C271 0.931 . S
H294 C273 0.931 . S
H295 C274 0.931 . S
Gd296 C299 2.818 . S
Gd296 O316 2.377 . S
Gd296 O318 2.448 . S
Gd296 O319 2.506 . S
Gd296 O320 2.435 1_545 S
Gd296 O321 2.717 1_545 S
Gd296 O323 2.395 1_544 S
Gd296 O327 2.327 1_554 S
Gd297 C308 2.818 1_545 S
Gd297 O317 2.395 1_556 S
Gd297 O321 2.327 1_546 S
Gd297 O322 2.377 1_545 S
Gd297 O324 2.452 . S
Gd297 O325 2.506 1_545 S
Gd297 O326 2.435 . S
Gd297 O327 2.717 . S
C298 O316 1.240 . S
C298 O317 1.240 . S
C299 Gd296 2.818 . S
C299 C300 1.510 . S
C299 O318 1.249 . S
C299 O319 1.252 . S
C300 C299 1.510 . S
C300 C301 1.404 . S
C300 C302 1.352 . S
C301 C300 1.404 . S
C301 C305 1.389 . S
C301 H328 0.930 . S
C302 C300 1.352 . S
C302 C304 1.374 . S
C302 H329 0.931 . S
C303 C304 1.359 . S
C303 C305 1.364 . S
C304 C302 1.374 . S
C304 C303 1.359 . S
C304 H330 0.931 . S
C305 C301 1.389 . S
C305 C303 1.364 . S
C305 H331 0.931 . S
C306 O320 1.256 . S
C306 O321 1.257 . S
C307 O322 1.240 . S
C307 O323 1.240 . S
C308 Gd297 2.818 1_565 S
C308 C309 1.510 . S
C308 O324 1.209 1_565 S
C308 O325 1.252 . S
C309 C308 1.510 . S
C309 C310 1.404 . S
C309 C311 1.352 . S
C310 C309 1.404 . S
C310 C314 1.389 . S
C310 H332 0.930 . S
C311 C309 1.352 . S
C311 C313 1.374 . S
C311 H333 0.931 . S
C312 C313 1.359 . S
C312 C314 1.364 . S
C313 C311 1.374 . S
C313 C312 1.359 . S
C313 H334 0.931 . S
C314 C310 1.389 . S
C314 C312 1.364 . S
C314 H335 0.931 . S
C315 O326 1.256 . S
C315 O327 1.257 . S
O316 Gd296 2.377 . S
O316 C298 1.240 . S
O317 Gd297 2.395 1_554 S
O317 C298 1.240 . S
O318 Gd296 2.448 . S
O318 C299 1.249 . S
O319 Gd296 2.506 . S
O319 C299 1.252 . S
O320 Gd296 2.435 1_565 S
O320 C306 1.256 . S
O321 Gd296 2.717 1_565 S
O321 Gd297 2.327 1_564 S
O321 C306 1.257 . S
O322 Gd297 2.377 1_565 S
O322 C307 1.240 . S
O323 Gd296 2.395 1_566 S
O323 C307 1.240 . S
O324 Gd297 2.452 . S
O324 C308 1.209 1_545 S
O325 Gd297 2.506 1_565 S
O325 C308 1.252 . S
O326 Gd297 2.435 . S
O326 C315 1.256 . S
O327 Gd296 2.327 1_556 S
O327 Gd297 2.717 . S
O327 C315 1.257 . S
H328 C301 0.930 . S
H329 C302 0.931 . S
H330 C304 0.931 . S
H331 C305 0.931 . S
H332 C310 0.930 . S
H333 C311 0.931 . S
H334 C313 0.931 . S
H335 C314 0.931 . S
Gd336 C339 2.818 . S
Gd336 O356 2.377 . S
Gd336 O358 2.448 . S
Gd336 O359 2.506 . S
Gd336 O360 2.435 . S
Gd336 O361 2.717 . S
Gd336 O363 2.395 . S
Gd336 O367 2.327 . S
Gd337 C348 2.818 . S
Gd337 O357 2.395 . S
Gd337 O361 2.327 . S
Gd337 O362 2.377 . S
Gd337 O364 2.448 . S
Gd337 O365 2.506 . S
Gd337 O366 2.435 . S
Gd337 O367 2.717 . S
C338 O356 1.240 . S
C338 O357 1.240 . S
C339 Gd336 2.818 . S
C339 C340 1.510 . S
C339 O358 1.249 . S
C339 O359 1.252 . S
C340 C339 1.510 . S
C340 C341 1.404 . S
C340 C342 1.352 . S
C341 C340 1.404 . S
C341 C345 1.389 . S
C341 H368 0.930 . S
C342 C340 1.352 . S
C342 C344 1.374 . S
C342 H369 0.931 . S
C343 C344 1.359 . S
C343 C345 1.364 . S
C344 C342 1.374 . S
C344 C343 1.359 . S
C344 H370 0.931 . S
C345 C341 1.389 . S
C345 C343 1.364 . S
C345 H371 0.931 . S
C346 O360 1.256 . S
C346 O361 1.257 . S
C347 O362 1.240 . S
C347 O363 1.240 . S
C348 Gd337 2.818 . S
C348 C349 1.510 . S
C348 O364 1.249 . S
C348 O365 1.252 . S
C349 C348 1.510 . S
C349 C350 1.404 . S
C349 C351 1.352 . S
C350 C349 1.404 . S
C350 C354 1.389 . S
C350 H372 0.930 . S
C351 C349 1.352 . S
C351 C353 1.374 . S
C351 H373 0.931 . S
C352 C353 1.359 . S
C352 C354 1.364 . S
C353 C351 1.374 . S
C353 C352 1.359 . S
C353 H374 0.931 . S
C354 C350 1.389 . S
C354 C352 1.364 . S
C354 H375 0.931 . S
C355 O366 1.256 . S
C355 O367 1.257 . S
O356 Gd336 2.377 . S
O356 C338 1.240 . S
O357 Gd337 2.395 . S
O357 C338 1.240 . S
O358 Gd336 2.448 . S
O358 C339 1.249 . S
O359 Gd336 2.506 . S
O359 C339 1.252 . S
O360 Gd336 2.435 . S
O360 C346 1.256 . S
O361 Gd336 2.717 . S
O361 Gd337 2.327 . S
O361 C346 1.257 . S
O362 Gd337 2.377 . S
O362 C347 1.240 . S
O363 Gd336 2.395 . S
O363 C347 1.240 . S
O364 Gd337 2.448 . S
O364 C348 1.249 . S
O365 Gd337 2.506 . S
O365 C348 1.252 . S
O366 Gd337 2.435 . S
O366 C355 1.256 . S
O367 Gd336 2.327 . S
O367 Gd337 2.717 . S
O367 C355 1.257 . S
H368 C341 0.930 . S
H369 C342 0.931 . S
H370 C344 0.931 . S
H371 C345 0.931 . S
H372 C350 0.930 . S
H373 C351 0.931 . S
H374 C353 0.931 . S
H375 C354 0.931 . S
Gd376 C379 2.818 . S
Gd376 O396 2.377 . S
Gd376 O398 2.448 . S
Gd376 O399 2.506 . S
Gd376 O400 2.435 1_455 S
Gd376 O401 2.717 1_455 S
Gd376 O403 2.405 1_455 S
Gd376 O407 2.327 1_554 S
Gd377 C388 2.818 . S
Gd377 O397 2.395 1_656 S
Gd377 O401 2.327 1_556 S
Gd377 O402 2.377 . S
Gd377 O404 2.448 . S
Gd377 O405 2.506 . S
Gd377 O406 2.435 1_655 S
Gd377 O407 2.717 1_655 S
C378 O396 1.240 . S
C378 O397 1.240 . S
C379 Gd376 2.818 . S
C379 C380 1.510 . S
C379 O398 1.249 . S
C379 O399 1.252 . S
C380 C379 1.510 . S
C380 C381 1.404 . S
C380 C382 1.352 . S
C381 C380 1.404 . S
C381 C385 1.389 . S
C381 H408 0.930 . S
C382 C380 1.352 . S
C382 C384 1.374 . S
C382 H409 0.931 . S
C383 C384 1.359 . S
C383 C385 1.364 . S
C384 C382 1.374 . S
C384 C383 1.359 . S
C384 H410 0.931 . S
C385 C381 1.389 . S
C385 C383 1.364 . S
C385 H411 0.931 . S
C386 O400 1.256 . S
C386 O401 1.257 . S
C387 O402 1.240 . S
C387 O403 1.226 1_556 S
C388 Gd377 2.818 . S
C388 C389 1.510 . S
C388 O404 1.249 . S
C388 O405 1.252 . S
C389 C388 1.510 . S
C389 C390 1.404 . S
C389 C391 1.352 . S
C390 C389 1.404 . S
C390 C394 1.389 . S
C390 H412 0.930 . S
C391 C389 1.352 . S
C391 C393 1.374 . S
C391 H413 0.931 . S
C392 C393 1.359 . S
C392 C394 1.364 . S
C393 C391 1.374 . S
C393 C392 1.359 . S
C393 H414 0.931 . S
C394 C390 1.389 . S
C394 C392 1.364 . S
C394 H415 0.931 . S
C395 O406 1.256 . S
C395 O407 1.257 . S
O396 Gd376 2.377 . S
O396 C378 1.240 . S
O397 Gd377 2.395 1_454 S
O397 C378 1.240 . S
O398 Gd376 2.448 . S
O398 C379 1.249 . S
O399 Gd376 2.506 . S
O399 C379 1.252 . S
O400 Gd376 2.435 1_655 S
O400 C386 1.256 . S
O401 Gd376 2.717 1_655 S
O401 Gd377 2.327 1_554 S
O401 C386 1.257 . S
O402 Gd377 2.377 . S
O402 C387 1.240 . S
O403 Gd376 2.405 1_655 S
O403 C387 1.226 1_554 S
O404 Gd377 2.448 . S
O404 C388 1.249 . S
O405 Gd377 2.506 . S
O405 C388 1.252 . S
O406 Gd377 2.435 1_455 S
O406 C395 1.256 . S
O407 Gd376 2.327 1_556 S
O407 Gd377 2.717 1_455 S
O407 C395 1.257 . S
H408 C381 0.930 . S
H409 C382 0.931 . S
H410 C384 0.931 . S
H411 C385 0.931 . S
H412 C390 0.930 . S
H413 C391 0.931 . S
H414 C393 0.931 . S
H415 C394 0.931 . S
H416 C424 0.929 . S
H417 C426 0.930 . S
H418 C428 0.930 . S
H419 C431 0.929 . S
H420 C434 0.930 . S
H421 C436 0.960 . S
H422 C436 0.960 . S
H423 C436 0.960 . S
C424 H416 0.929 . S
C424 C425 1.377 . S
C424 C426 1.384 . S
C425 C424 1.377 . S
C425 C431 1.390 . S
C426 H417 0.930 . S
C426 C424 1.384 . S
C426 C427 1.372 . S
C427 C426 1.372 . S
C427 C428 1.400 . S
C427 C432 1.490 . S
C428 H418 0.930 . S
C428 C427 1.400 . S
C428 C431 1.386 . S
H429 C445 0.930 . S
H430 C446 0.931 . S
C431 H419 0.929 . S
C431 C425 1.390 . S
C431 C428 1.386 . S
C432 C427 1.490 . S
C432 C434 1.395 . S
C432 C435 1.403 . S
H433 C439 0.930 . S
C434 H420 0.930 . S
C434 C432 1.395 . S
C434 C437 1.403 . S
C435 C432 1.403 . S
C435 C436 1.524 . S
C435 C439 1.400 . S
C436 H421 0.960 . S
C436 H422 0.960 . S
C436 H423 0.960 . S
C436 C435 1.524 . S
C437 C434 1.403 . S
C437 C438 1.392 . S
C437 C441 1.495 . S
C438 C437 1.392 . S
C438 C439 1.385 . S
C438 C440 1.478 . S
C439 H433 0.930 . S
C439 C435 1.400 . S
C439 C438 1.385 . S
C440 C438 1.478 . S
C440 C442 1.381 . S
C440 C446 1.383 . S
C441 C437 1.495 . S
C441 H447 0.959 . S
C441 H448 0.961 . S
C441 H449 0.960 . S
C442 C440 1.381 . S
C442 C443 1.394 . S
C442 H450 0.930 . S
C443 C442 1.394 . S
C443 C444 1.383 . S
C443 H451 0.929 . S
C444 C443 1.383 . S
C444 C445 1.377 . S
C445 H429 0.930 . S
C445 C444 1.377 . S
C445 C446 1.379 . S
C446 H430 0.931 . S
C446 C440 1.383 . S
C446 C445 1.379 . S
H447 C441 0.959 . S
H448 C441 0.961 . S
H449 C441 0.960 . S
H450 C442 0.930 . S
H451 C443 0.929 . S
H452 C460 0.929 . S
H453 C462 0.930 . S
H454 C464 0.930 . S
H455 C467 0.929 . S
H456 C470 0.930 . S
H457 C472 0.960 . S
H458 C472 0.960 . S
H459 C472 0.960 . S
C460 H452 0.929 . S
C460 C461 1.377 . S
C460 C462 1.384 . S
C461 C460 1.377 . S
C461 C467 1.390 . S
C462 H453 0.930 . S
C462 C460 1.384 . S
C462 C463 1.372 . S
C463 C462 1.372 . S
C463 C464 1.400 . S
C463 C468 1.490 . S
C464 H454 0.930 . S
C464 C463 1.400 . S
C464 C467 1.386 . S
H465 C481 0.930 . S
H466 C482 0.931 . S
C467 H455 0.929 . S
C467 C461 1.390 . S
C467 C464 1.386 . S
C468 C463 1.490 . S
C468 C470 1.395 . S
C468 C471 1.403 . S
H469 C475 0.930 . S
C470 H456 0.930 . S
C470 C468 1.395 . S
C470 C473 1.403 . S
C471 C468 1.403 . S
C471 C472 1.524 . S
C471 C475 1.400 . S
C472 H457 0.960 . S
C472 H458 0.960 . S
C472 H459 0.960 . S
C472 C471 1.524 . S
C473 C470 1.403 . S
C473 C474 1.392 . S
C473 C477 1.495 . S
C474 C473 1.392 . S
C474 C475 1.385 . S
C474 C476 1.478 . S
C475 H469 0.930 . S
C475 C471 1.400 . S
C475 C474 1.385 . S
C476 C474 1.478 . S
C476 C478 1.381 . S
C476 C482 1.383 . S
C477 C473 1.495 . S
C477 H483 0.959 . S
C477 H484 0.961 . S
C477 H485 0.960 . S
C478 C476 1.381 . S
C478 C479 1.394 . S
C478 H486 0.930 . S
C479 C478 1.394 . S
C479 C480 1.383 . S
C479 H487 0.929 . S
C480 C479 1.383 . S
C480 C481 1.377 . S
C481 H465 0.930 . S
C481 C480 1.377 . S
C481 C482 1.379 . S
C482 H466 0.931 . S
C482 C476 1.383 . S
C482 C481 1.379 . S
H483 C477 0.959 . S
H484 C477 0.961 . S
H485 C477 0.960 . S
H486 C478 0.930 . S
H487 C479 0.929 . S
H488 C496 0.929 . S
H489 C498 0.930 . S
H490 C500 0.930 . S
H491 C503 0.929 . S
H492 C506 0.930 . S
H493 C508 0.960 . S
H494 C508 0.960 . S
H495 C508 0.960 . S
C496 H488 0.929 . S
C496 C497 1.377 . S
C496 C498 1.384 . S
C497 C496 1.377 . S
C497 C503 1.390 . S
C498 H489 0.930 . S
C498 C496 1.384 . S
C498 C499 1.372 . S
C499 C498 1.372 . S
C499 C500 1.400 . S
C499 C504 1.490 . S
C500 H490 0.930 . S
C500 C499 1.400 . S
C500 C503 1.386 . S
H501 C517 0.930 . S
H502 C518 0.931 . S
C503 H491 0.929 . S
C503 C497 1.390 . S
C503 C500 1.386 . S
C504 C499 1.490 . S
C504 C506 1.395 . S
C504 C507 1.403 . S
H505 C511 0.930 . S
C506 H492 0.930 . S
C506 C504 1.395 . S
C506 C509 1.403 . S
C507 C504 1.403 . S
C507 C508 1.524 . S
C507 C511 1.400 . S
C508 H493 0.960 . S
C508 H494 0.960 . S
C508 H495 0.960 . S
C508 C507 1.524 . S
C509 C506 1.403 . S
C509 C510 1.392 . S
C509 C513 1.495 . S
C510 C509 1.392 . S
C510 C511 1.385 . S
C510 C512 1.478 . S
C511 H505 0.930 . S
C511 C507 1.400 . S
C511 C510 1.385 . S
C512 C510 1.478 . S
C512 C514 1.381 . S
C512 C518 1.383 . S
C513 C509 1.495 . S
C513 H519 0.959 . S
C513 H520 0.961 . S
C513 H521 0.960 . S
C514 C512 1.381 . S
C514 C515 1.394 . S
C514 H522 0.930 . S
C515 C514 1.394 . S
C515 C516 1.383 . S
C515 H523 0.929 . S
C516 C515 1.383 . S
C516 C517 1.377 . S
C517 H501 0.930 . S
C517 C516 1.377 . S
C517 C518 1.379 . S
C518 H502 0.931 . S
C518 C512 1.383 . S
C518 C517 1.379 . S
H519 C513 0.959 . S
H520 C513 0.961 . S
H521 C513 0.960 . S
H522 C514 0.930 . S
H523 C515 0.929 . S
H524 C532 0.929 . S
H525 C534 0.930 . S
H526 C536 0.930 . S
H527 C539 0.929 . S
H528 C542 0.930 . S
H529 C544 0.960 . S
H530 C544 0.960 . S
H531 C544 0.960 . S
C532 H524 0.929 . S
C532 C533 1.377 . S
C532 C534 1.384 . S
C533 C532 1.377 . S
C533 C539 1.390 . S
C534 H525 0.930 . S
C534 C532 1.384 . S
C534 C535 1.372 . S
C535 C534 1.372 . S
C535 C536 1.400 . S
C535 C540 1.490 . S
C536 H526 0.930 . S
C536 C535 1.400 . S
C536 C539 1.386 . S
H537 C553 0.930 . S
H538 C554 0.931 . S
C539 H527 0.929 . S
C539 C533 1.390 . S
C539 C536 1.386 . S
C540 C535 1.490 . S
C540 C542 1.395 . S
C540 C543 1.403 . S
H541 C547 0.930 . S
C542 H528 0.930 . S
C542 C540 1.395 . S
C542 C545 1.403 . S
C543 C540 1.403 . S
C543 C544 1.524 . S
C543 C547 1.400 . S
C544 H529 0.960 . S
C544 H530 0.960 . S
C544 H531 0.960 . S
C544 C543 1.524 . S
C545 C542 1.403 . S
C545 C546 1.392 . S
C545 C549 1.495 . S
C546 C545 1.392 . S
C546 C547 1.385 . S
C546 C548 1.478 . S
C547 H541 0.930 . S
C547 C543 1.400 . S
C547 C546 1.385 . S
C548 C546 1.478 . S
C548 C550 1.381 . S
C548 C554 1.383 . S
C549 C545 1.495 . S
C549 H555 0.959 . S
C549 H556 0.961 . S
C549 H557 0.960 . S
C550 C548 1.381 . S
C550 C551 1.394 . S
C550 H558 0.930 . S
C551 C550 1.394 . S
C551 C552 1.383 . S
C551 H559 0.929 . S
C552 C551 1.383 . S
C552 C553 1.377 . S
C553 H537 0.930 . S
C553 C552 1.377 . S
C553 C554 1.379 . S
C554 H538 0.931 . S
C554 C548 1.383 . S
C554 C553 1.379 . S
H555 C549 0.959 . S
H556 C549 0.961 . S
H557 C549 0.960 . S
H558 C550 0.930 . S
H559 C551 0.929 . S
H560 C568 0.929 . S
H561 C570 0.930 . S
H562 C572 0.930 . S
H563 C575 0.929 . S
H564 C578 0.930 . S
H565 C580 0.960 . S
H566 C580 0.960 . S
H567 C580 0.960 . S
C568 H560 0.929 . S
C568 C569 1.377 . S
C568 C570 1.384 . S
C569 C568 1.377 . S
C569 C575 1.390 . S
C570 H561 0.930 . S
C570 C568 1.384 . S
C570 C571 1.372 . S
C571 C570 1.372 . S
C571 C572 1.400 . S
C571 C576 1.490 . S
C572 H562 0.930 . S
C572 C571 1.400 . S
C572 C575 1.386 . S
H573 C589 0.930 . S
H574 C590 0.931 . S
C575 H563 0.929 . S
C575 C569 1.390 . S
C575 C572 1.386 . S
C576 C571 1.490 . S
C576 C578 1.395 . S
C576 C579 1.403 . S
H577 C583 0.930 . S
C578 H564 0.930 . S
C578 C576 1.395 . S
C578 C581 1.403 . S
C579 C576 1.403 . S
C579 C580 1.524 . S
C579 C583 1.400 . S
C580 H565 0.960 . S
C580 H566 0.960 . S
C580 H567 0.960 . S
C580 C579 1.524 . S
C581 C578 1.403 . S
C581 C582 1.392 . S
C581 C585 1.495 . S
C582 C581 1.392 . S
C582 C583 1.385 . S
C582 C584 1.478 . S
C583 H577 0.930 . S
C583 C579 1.400 . S
C583 C582 1.385 . S
C584 C582 1.478 . S
C584 C586 1.381 . S
C584 C590 1.383 . S
C585 C581 1.495 . S
C585 H591 0.959 . S
C585 H592 0.961 . S
C585 H593 0.960 . S
C586 C584 1.381 . S
C586 C587 1.394 . S
C586 H594 0.930 . S
C587 C586 1.394 . S
C587 C588 1.383 . S
C587 H595 0.929 . S
C588 C587 1.383 . S
C588 C589 1.377 . S
C589 H573 0.930 . S
C589 C588 1.377 . S
C589 C590 1.379 . S
C590 H574 0.931 . S
C590 C584 1.383 . S
C590 C589 1.379 . S
H591 C585 0.959 . S
H592 C585 0.961 . S
H593 C585 0.960 . S
H594 C586 0.930 . S
H595 C587 0.929 . S
H596 C604 0.929 . S
H597 C606 0.930 . S
H598 C608 0.930 . S
H599 C611 0.929 . S
H600 C614 0.930 . S
H601 C616 0.960 . S
H602 C616 0.960 . S
H603 C616 0.960 . S
C604 H596 0.929 . S
C604 C605 1.377 . S
C604 C606 1.384 . S
C605 C604 1.377 . S
C605 C611 1.390 . S
C606 H597 0.930 . S
C606 C604 1.384 . S
C606 C607 1.372 . S
C607 C606 1.372 . S
C607 C608 1.400 . S
C607 C612 1.490 . S
C608 H598 0.930 . S
C608 C607 1.400 . S
C608 C611 1.386 . S
H609 C625 0.930 . S
H610 C626 0.931 . S
C611 H599 0.929 . S
C611 C605 1.390 . S
C611 C608 1.386 . S
C612 C607 1.490 . S
C612 C614 1.395 . S
C612 C615 1.403 . S
H613 C619 0.930 . S
C614 H600 0.930 . S
C614 C612 1.395 . S
C614 C617 1.403 . S
C615 C612 1.403 . S
C615 C616 1.524 . S
C615 C619 1.400 . S
C616 H601 0.960 . S
C616 H602 0.960 . S
C616 H603 0.960 . S
C616 C615 1.524 . S
C617 C614 1.403 . S
C617 C618 1.392 . S
C617 C621 1.495 . S
C618 C617 1.392 . S
C618 C619 1.385 . S
C618 C620 1.478 . S
C619 H613 0.930 . S
C619 C615 1.400 . S
C619 C618 1.385 . S
C620 C618 1.478 . S
C620 C622 1.381 . S
C620 C626 1.383 . S
C621 C617 1.495 . S
C621 H627 0.959 . S
C621 H628 0.961 . S
C621 H629 0.960 . S
C622 C620 1.381 . S
C622 C623 1.394 . S
C622 H630 0.930 . S
C623 C622 1.394 . S
C623 C624 1.383 . S
C623 H631 0.890 1_565 S
C624 C623 1.383 . S
C624 C625 1.377 . S
C625 H609 0.930 . S
C625 C624 1.377 . S
C625 C626 1.379 . S
C626 H610 0.931 . S
C626 C620 1.383 . S
C626 C625 1.379 . S
H627 C621 0.959 . S
H628 C621 0.961 . S
H629 C621 0.960 . S
H630 C622 0.930 . S
H631 C623 0.890 1_545 S
H632 C640 0.929 . S
H633 C642 0.930 . S
H634 C644 0.930 . S
H635 C647 0.929 . S
H636 C650 0.930 . S
H637 C652 0.960 . S
H638 C652 0.960 . S
H639 C652 0.960 . S
C640 H632 0.929 . S
C640 C641 1.377 . S
C640 C642 1.384 . S
C641 C640 1.377 . S
C641 C647 1.390 . S
C642 H633 0.930 . S
C642 C640 1.384 . S
C642 C643 1.372 . S
C643 C642 1.372 . S
C643 C644 1.400 . S
C643 C648 1.490 . S
C644 H634 0.930 . S
C644 C643 1.400 . S
C644 C647 1.386 . S
H645 C661 0.930 . S
H646 C662 0.931 . S
C647 H635 0.929 . S
C647 C641 1.390 . S
C647 C644 1.386 . S
C648 C643 1.490 . S
C648 C650 1.395 . S
C648 C651 1.403 . S
H649 C655 0.930 . S
C650 H636 0.930 . S
C650 C648 1.395 . S
C650 C653 1.403 . S
C651 C648 1.403 . S
C651 C652 1.524 . S
C651 C655 1.400 . S
C652 H637 0.960 . S
C652 H638 0.960 . S
C652 H639 0.960 . S
C652 C651 1.524 . S
C653 C650 1.403 . S
C653 C654 1.392 . S
C653 C657 1.495 . S
C654 C653 1.392 . S
C654 C655 1.385 . S
C654 C656 1.478 . S
C655 H649 0.930 . S
C655 C651 1.400 . S
C655 C654 1.385 . S
C656 C654 1.478 . S
C656 C658 1.381 . S
C656 C662 1.383 . S
C657 C653 1.495 . S
C657 H663 0.959 . S
C657 H664 0.961 . S
C657 H665 0.960 . S
C658 C656 1.381 . S
C658 C659 1.394 . S
C658 H666 0.930 . S
C659 C658 1.394 . S
C659 C660 1.383 . S
C659 H667 0.929 . S
C660 C659 1.383 . S
C660 C661 1.377 . S
C661 H645 0.930 . S
C661 C660 1.377 . S
C661 C662 1.379 . S
C662 H646 0.931 . S
C662 C656 1.383 . S
C662 C661 1.379 . S
H663 C657 0.959 . S
H664 C657 0.961 . S
H665 C657 0.960 . S
H666 C658 0.930 . S
H667 C659 0.929 . S
H668 C676 0.929 . S
H669 C678 0.930 . S
H670 C680 0.930 . S
H671 C683 0.929 . S
H672 C686 0.930 . S
H673 C688 0.960 . S
H674 C688 0.960 . S
H675 C688 0.960 . S
C676 H668 0.929 . S
C676 C677 1.377 . S
C676 C678 1.384 . S
C677 C676 1.377 . S
C677 C683 1.390 . S
C678 H669 0.930 . S
C678 C676 1.384 . S
C678 C679 1.372 . S
C679 C678 1.372 . S
C679 C680 1.400 . S
C679 C684 1.490 . S
C680 H670 0.930 . S
C680 C679 1.400 . S
C680 C683 1.386 . S
H681 C697 0.930 . S
H682 C698 0.931 . S
C683 H671 0.929 . S
C683 C677 1.390 . S
C683 C680 1.386 . S
C684 C679 1.490 . S
C684 C686 1.395 . S
C684 C687 1.403 . S
H685 C691 0.930 . S
C686 H672 0.930 . S
C686 C684 1.395 . S
C686 C689 1.403 . S
C687 C684 1.403 . S
C687 C688 1.524 . S
C687 C691 1.400 . S
C688 H673 0.960 . S
C688 H674 0.960 . S
C688 H675 0.960 . S
C688 C687 1.524 . S
C689 C686 1.403 . S
C689 C690 1.392 . S
C689 C693 1.495 . S
C690 C689 1.392 . S
C690 C691 1.385 . S
C690 C692 1.478 . S
C691 H685 0.930 . S
C691 C687 1.400 . S
C691 C690 1.385 . S
C692 C690 1.478 . S
C692 C694 1.381 . S
C692 C698 1.383 . S
C693 C689 1.495 . S
C693 H699 0.959 . S
C693 H700 0.961 . S
C693 H701 0.960 . S
C694 C692 1.381 . S
C694 C695 1.394 . S
C694 H702 0.930 . S
C695 C694 1.394 . S
C695 C696 1.383 . S
C695 H703 0.929 . S
C696 C695 1.383 . S
C696 C697 1.377 . S
C697 H681 0.930 . S
C697 C696 1.377 . S
C697 C698 1.379 . S
C698 H682 0.931 . S
C698 C692 1.383 . S
C698 C697 1.379 . S
H699 C693 0.959 . S
H700 C693 0.961 . S
H701 C693 0.960 . S
H702 C694 0.930 . S
H703 C695 0.929 . S
H704 C712 0.929 . S
H705 C714 0.930 . S
H706 C716 0.930 . S
H707 C719 0.929 . S
H708 C722 0.930 . S
H709 C724 0.960 . S
H710 C724 0.960 . S
H711 C724 0.960 . S
C712 H704 0.929 . S
C712 C713 1.377 . S
C712 C714 1.384 . S
C713 C712 1.377 . S
C713 C719 1.390 . S
C714 H705 0.930 . S
C714 C712 1.384 . S
C714 C715 1.372 . S
C715 C714 1.372 . S
C715 C716 1.400 . S
C715 C720 1.490 . S
C716 H706 0.930 . S
C716 C715 1.400 . S
C716 C719 1.386 . S
H717 C733 0.930 . S
H718 C734 0.931 . S
C719 H707 0.929 . S
C719 C713 1.390 . S
C719 C716 1.386 . S
C720 C715 1.490 . S
C720 C722 1.395 . S
C720 C723 1.403 . S
H721 C727 0.930 . S
C722 H708 0.930 . S
C722 C720 1.395 . S
C722 C725 1.403 . S
C723 C720 1.403 . S
C723 C724 1.524 . S
C723 C727 1.400 . S
C724 H709 0.960 . S
C724 H710 0.960 . S
C724 H711 0.960 . S
C724 C723 1.524 . S
C725 C722 1.403 . S
C725 C726 1.392 . S
C725 C729 1.495 . S
C726 C725 1.392 . S
C726 C727 1.385 . S
C726 C728 1.478 . S
C727 H721 0.930 . S
C727 C723 1.400 . S
C727 C726 1.385 . S
C728 C726 1.478 . S
C728 C730 1.381 . S
C728 C734 1.383 . S
C729 C725 1.495 . S
C729 H735 0.959 . S
C729 H736 0.961 . S
C729 H737 0.960 . S
C730 C728 1.381 . S
C730 C731 1.394 . S
C730 H738 0.930 . S
C731 C730 1.394 . S
C731 C732 1.383 . S
C731 H739 0.929 . S
C732 C731 1.383 . S
C732 C733 1.377 . S
C733 H717 0.930 . S
C733 C732 1.377 . S
C733 C734 1.379 . S
C734 H718 0.931 . S
C734 C728 1.383 . S
C734 C733 1.379 . S
H735 C729 0.959 . S
H736 C729 0.961 . S
H737 C729 0.960 . S
H738 C730 0.930 . S
H739 C731 0.929 . S
H740 C748 0.929 . S
H741 C750 0.930 . S
H742 C752 0.930 . S
H743 C755 0.929 . S
H744 C758 0.930 . S
H745 C760 0.960 . S
H746 C760 0.960 . S
H747 C760 0.960 . S
C748 H740 0.929 . S
C748 C749 1.377 . S
C748 C750 1.384 . S
C749 C748 1.377 . S
C749 C755 1.390 . S
C750 H741 0.930 . S
C750 C748 1.384 . S
C750 C751 1.372 . S
C751 C750 1.372 . S
C751 C752 1.400 . S
C751 C756 1.490 . S
C752 H742 0.930 . S
C752 C751 1.400 . S
C752 C755 1.386 . S
H753 C769 0.930 . S
H754 C770 0.931 . S
C755 H743 0.929 . S
C755 C749 1.390 . S
C755 C752 1.386 . S
C756 C751 1.490 . S
C756 C758 1.395 . S
C756 C759 1.403 . S
H757 C763 0.930 . S
C758 H744 0.930 . S
C758 C756 1.395 . S
C758 C761 1.403 . S
C759 C756 1.403 . S
C759 C760 1.524 . S
C759 C763 1.400 . S
C760 H745 0.960 . S
C760 H746 0.960 . S
C760 H747 0.960 . S
C760 C759 1.524 . S
C761 C758 1.403 . S
C761 C762 1.392 . S
C761 C765 1.495 . S
C762 C761 1.392 . S
C762 C763 1.385 . S
C762 C764 1.478 . S
C763 H757 0.930 . S
C763 C759 1.400 . S
C763 C762 1.385 . S
C764 C762 1.478 . S
C764 C766 1.381 . S
C764 C770 1.383 . S
C765 C761 1.495 . S
C765 H771 0.959 . S
C765 H772 0.961 . S
C765 H773 0.960 . S
C766 C764 1.381 . S
C766 C767 1.394 . S
C766 H774 0.930 . S
C767 C766 1.394 . S
C767 C768 1.383 . S
C767 H775 0.929 . S
C768 C767 1.383 . S
C768 C769 1.377 . S
C769 H753 0.930 . S
C769 C768 1.377 . S
C769 C770 1.379 . S
C770 H754 0.931 . S
C770 C764 1.383 . S
C770 C769 1.379 . S
H771 C765 0.959 . S
H772 C765 0.961 . S
H773 C765 0.960 . S
H774 C766 0.930 . S
H775 C767 0.929 . S
H776 C784 0.929 . S
H777 C786 0.930 . S
H778 C788 0.930 . S
H779 C791 0.929 . S
H780 C794 0.930 . S
H781 C796 0.960 . S
H782 C796 0.960 . S
H783 C796 0.960 . S
C784 H776 0.929 . S
C784 C785 1.377 . S
C784 C786 1.384 . S
C785 C784 1.377 . S
C785 C791 1.390 . S
C786 H777 0.930 . S
C786 C784 1.384 . S
C786 C787 1.372 . S
C787 C786 1.372 . S
C787 C788 1.400 . S
C787 C792 1.490 . S
C788 H778 0.930 . S
C788 C787 1.400 . S
C788 C791 1.386 . S
H789 C805 0.930 . S
H790 C806 0.931 . S
C791 H779 0.929 . S
C791 C785 1.390 . S
C791 C788 1.386 . S
C792 C787 1.490 . S
C792 C794 1.395 . S
C792 C795 1.403 . S
H793 C799 0.930 . S
C794 H780 0.930 . S
C794 C792 1.395 . S
C794 C797 1.403 . S
C795 C792 1.403 . S
C795 C796 1.524 . S
C795 C799 1.400 . S
C796 H781 0.960 . S
C796 H782 0.960 . S
C796 H783 0.960 . S
C796 C795 1.524 . S
C797 C794 1.403 . S
C797 C798 1.392 . S
C797 C801 1.495 . S
C798 C797 1.392 . S
C798 C799 1.385 . S
C798 C800 1.478 . S
C799 H793 0.930 . S
C799 C795 1.400 . S
C799 C798 1.385 . S
C800 C798 1.478 . S
C800 C802 1.381 . S
C800 C806 1.383 . S
C801 C797 1.495 . S
C801 H807 0.959 . S
C801 H808 0.961 . S
C801 H809 0.960 . S
C802 C800 1.381 . S
C802 C803 1.394 . S
C802 H810 0.930 . S
C803 C802 1.394 . S
C803 C804 1.383 . S
C803 H811 0.929 . S
C804 C803 1.383 . S
C804 C805 1.377 . S
C805 H789 0.930 . S
C805 C804 1.377 . S
C805 C806 1.379 . S
C806 H790 0.931 . S
C806 C800 1.383 . S
C806 C805 1.379 . S
H807 C801 0.959 . S
H808 C801 0.961 . S
H809 C801 0.960 . S
H810 C802 0.930 . S
H811 C803 0.929 . S
H812 C820 0.929 . S
H813 C822 0.930 . S
H814 C824 0.930 . S
H815 C827 0.929 . S
H816 C830 0.930 . S
H817 C832 0.960 . S
H818 C832 0.960 . S
H819 C832 0.960 . S
C820 H812 0.929 . S
C820 C821 1.377 . S
C820 C822 1.384 . S
C821 C820 1.377 . S
C821 C827 1.390 . S
C822 H813 0.930 . S
C822 C820 1.384 . S
C822 C823 1.372 . S
C823 C822 1.372 . S
C823 C824 1.400 . S
C823 C828 1.490 . S
C824 H814 0.930 . S
C824 C823 1.400 . S
C824 C827 1.386 . S
H825 C841 0.930 . S
H826 C842 0.931 . S
C827 H815 0.929 . S
C827 C821 1.390 . S
C827 C824 1.386 . S
C828 C823 1.490 . S
C828 C830 1.395 . S
C828 C831 1.403 . S
H829 C835 0.930 . S
C830 H816 0.930 . S
C830 C828 1.395 . S
C830 C833 1.403 . S
C831 C828 1.403 . S
C831 C832 1.524 . S
C831 C835 1.400 . S
C832 H817 0.960 . S
C832 H818 0.960 . S
C832 H819 0.960 . S
C832 C831 1.524 . S
C833 C830 1.403 . S
C833 C834 1.392 . S
C833 C837 1.495 . S
C834 C833 1.392 . S
C834 C835 1.385 . S
C834 C836 1.478 . S
C835 H829 0.930 . S
C835 C831 1.400 . S
C835 C834 1.385 . S
C836 C834 1.478 . S
C836 C838 1.381 . S
C836 C842 1.383 . S
C837 C833 1.495 . S
C837 H843 0.959 . S
C837 H844 0.961 . S
C837 H845 0.960 . S
C838 C836 1.381 . S
C838 C839 1.394 . S
C838 H846 0.930 . S
C839 C838 1.394 . S
C839 C840 1.383 . S
C839 H847 0.929 . S
C840 C839 1.383 . S
C840 C841 1.377 . S
C841 H825 0.930 . S
C841 C840 1.377 . S
C841 C842 1.379 . S
C842 H826 0.931 . S
C842 C836 1.383 . S
C842 C841 1.379 . S
H843 C837 0.959 . S
H844 C837 0.961 . S
H845 C837 0.960 . S
H846 C838 0.930 . S
H847 C839 0.929 . S
H848 C856 0.929 . S
H849 C858 0.930 . S
H850 C860 0.930 . S
H851 C863 0.929 . S
H852 C866 0.930 . S
H853 C868 0.960 . S
H854 C868 0.960 . S
H855 C868 0.960 . S
C856 H848 0.929 . S
C856 C857 1.377 . S
C856 C858 1.384 . S
C857 C856 1.377 . S
C857 C863 1.390 . S
C858 H849 0.930 . S
C858 C856 1.384 . S
C858 C859 1.372 . S
C859 C858 1.372 . S
C859 C860 1.400 . S
C859 C864 1.490 . S
C860 H850 0.930 . S
C860 C859 1.400 . S
C860 C863 1.386 . S
H861 C877 0.930 . S
H862 C878 0.931 . S
C863 H851 0.929 . S
C863 C857 1.390 . S
C863 C860 1.386 . S
C864 C859 1.490 . S
C864 C866 1.395 . S
C864 C867 1.403 . S
H865 C871 0.930 . S
C866 H852 0.930 . S
C866 C864 1.395 . S
C866 C869 1.403 . S
C867 C864 1.403 . S
C867 C868 1.524 . S
C867 C871 1.400 . S
C868 H853 0.960 . S
C868 H854 0.960 . S
C868 H855 0.960 . S
C868 C867 1.524 . S
C869 C866 1.403 . S
C869 C870 1.392 . S
C869 C873 1.495 . S
C870 C869 1.392 . S
C870 C871 1.385 . S
C870 C872 1.478 . S
C871 H865 0.930 . S
C871 C867 1.400 . S
C871 C870 1.385 . S
C872 C870 1.478 . S
C872 C874 1.381 . S
C872 C878 1.383 . S
C873 C869 1.495 . S
C873 H879 0.959 . S
C873 H880 0.961 . S
C873 H881 0.960 . S
C874 C872 1.381 . S
C874 C875 1.394 . S
C874 H882 0.930 . S
C875 C874 1.394 . S
C875 C876 1.383 . S
C875 H883 0.929 . S
C876 C875 1.383 . S
C876 C877 1.377 . S
C877 H861 0.930 . S
C877 C876 1.377 . S
C877 C878 1.379 . S
C878 H862 0.931 . S
C878 C872 1.383 . S
C878 C877 1.379 . S
H879 C873 0.959 . S
H880 C873 0.961 . S
H881 C873 0.960 . S
H882 C874 0.930 . S
H883 C875 0.929 . S
H884 C892 0.929 . S
H885 C894 0.930 . S
H886 C896 0.930 . S
H887 C899 0.929 . S
H888 C902 0.930 . S
H889 C904 0.960 . S
H890 C904 0.960 . S
H891 C904 0.960 . S
C892 H884 0.929 . S
C892 C893 1.377 . S
C892 C894 1.384 . S
C893 C892 1.377 . S
C893 C899 1.390 . S
C894 H885 0.930 . S
C894 C892 1.384 . S
C894 C895 1.372 . S
C895 C894 1.372 . S
C895 C896 1.400 . S
C895 C900 1.490 . S
C896 H886 0.930 . S
C896 C895 1.400 . S
C896 C899 1.386 . S
H897 C913 0.930 . S
H898 C914 0.931 . S
C899 H887 0.929 . S
C899 C893 1.390 . S
C899 C896 1.386 . S
C900 C895 1.490 . S
C900 C902 1.395 . S
C900 C903 1.403 . S
H901 C907 0.930 . S
C902 H888 0.930 . S
C902 C900 1.395 . S
C902 C905 1.403 . S
C903 C900 1.403 . S
C903 C904 1.524 . S
C903 C907 1.400 . S
C904 H889 0.960 . S
C904 H890 0.960 . S
C904 H891 0.960 . S
C904 C903 1.524 . S
C905 C902 1.403 . S
C905 C906 1.392 . S
C905 C909 1.495 . S
C906 C905 1.392 . S
C906 C907 1.385 . S
C906 C908 1.478 . S
C907 H901 0.930 . S
C907 C903 1.400 . S
C907 C906 1.385 . S
C908 C906 1.478 . S
C908 C910 1.381 . S
C908 C914 1.383 . S
C909 C905 1.495 . S
C909 H915 0.959 . S
C909 H916 0.961 . S
C909 H917 0.960 . S
C910 C908 1.381 . S
C910 C911 1.394 . S
C910 H918 0.930 . S
C911 C910 1.394 . S
C911 C912 1.383 . S
C911 H919 0.929 . S
C912 C911 1.383 . S
C912 C913 1.377 . S
C913 H897 0.930 . S
C913 C912 1.377 . S
C913 C914 1.379 . S
C914 H898 0.931 . S
C914 C908 1.383 . S
C914 C913 1.379 . S
H915 C909 0.959 . S
H916 C909 0.961 . S
H917 C909 0.960 . S
H918 C910 0.930 . S
H919 C911 0.929 . S
H920 C928 0.929 . S
H921 C930 0.930 . S
H922 C932 0.930 . S
H923 C935 0.929 . S
H924 C938 0.930 . S
H925 C940 0.960 . S
H926 C940 0.960 . S
H927 C940 0.960 . S
C928 H920 0.929 . S
C928 C929 1.377 . S
C928 C930 1.384 . S
C929 C928 1.377 . S
C929 C935 1.390 . S
C930 H921 0.930 . S
C930 C928 1.384 . S
C930 C931 1.372 . S
C931 C930 1.372 . S
C931 C932 1.400 . S
C931 C936 1.490 . S
C932 H922 0.930 . S
C932 C931 1.400 . S
C932 C935 1.386 . S
H933 C949 0.930 . S
H934 C950 0.931 . S
C935 H923 0.929 . S
C935 C929 1.390 . S
C935 C932 1.386 . S
C936 C931 1.490 . S
C936 C938 1.395 . S
C936 C939 1.403 . S
H937 C943 0.930 . S
C938 H924 0.930 . S
C938 C936 1.395 . S
C938 C941 1.403 . S
C939 C936 1.403 . S
C939 C940 1.524 . S
C939 C943 1.400 . S
C940 H925 0.960 . S
C940 H926 0.960 . S
C940 H927 0.960 . S
C940 C939 1.524 . S
C941 C938 1.403 . S
C941 C942 1.392 . S
C941 C945 1.495 . S
C942 C941 1.392 . S
C942 C943 1.385 . S
C942 C944 1.478 . S
C943 H937 0.930 . S
C943 C939 1.400 . S
C943 C942 1.385 . S
C944 C942 1.478 . S
C944 C946 1.381 . S
C944 C950 1.383 . S
C945 C941 1.495 . S
C945 H951 0.959 . S
C945 H952 0.961 . S
C945 H953 0.960 . S
C946 C944 1.381 . S
C946 C947 1.394 . S
C946 H954 0.930 . S
C947 C946 1.394 . S
C947 C948 1.383 . S
C947 H955 0.929 . S
C948 C947 1.383 . S
C948 C949 1.377 . S
C949 H933 0.930 . S
C949 C948 1.377 . S
C949 C950 1.379 . S
C950 H934 0.931 . S
C950 C944 1.383 . S
C950 C949 1.379 . S
H951 C945 0.959 . S
H952 C945 0.961 . S
H953 C945 0.960 . S
H954 C946 0.930 . S
H955 C947 0.929 . S
H956 C964 0.929 . S
H957 C966 0.930 . S
H958 C968 0.930 . S
H959 C971 0.929 . S
H960 C974 0.930 . S
H961 C976 0.960 . S
H962 C976 0.960 . S
H963 C976 0.960 . S
C964 H956 0.929 . S
C964 C965 1.377 . S
C964 C966 1.384 . S
C965 C964 1.377 . S
C965 C971 1.390 . S
C966 H957 0.930 . S
C966 C964 1.384 . S
C966 C967 1.372 . S
C967 C966 1.372 . S
C967 C968 1.400 . S
C967 C972 1.490 . S
C968 H958 0.930 . S
C968 C967 1.400 . S
C968 C971 1.386 . S
H969 C985 0.930 . S
H970 C986 0.931 . S
C971 H959 0.929 . S
C971 C965 1.390 . S
C971 C968 1.386 . S
C972 C967 1.490 . S
C972 C974 1.395 . S
C972 C975 1.403 . S
H973 C979 0.930 . S
C974 H960 0.930 . S
C974 C972 1.395 . S
C974 C977 1.403 . S
C975 C972 1.403 . S
C975 C976 1.524 . S
C975 C979 1.400 . S
C976 H961 0.960 . S
C976 H962 0.960 . S
C976 H963 0.960 . S
C976 C975 1.524 . S
C977 C974 1.403 . S
C977 C978 1.392 . S
C977 C981 1.495 . S
C978 C977 1.392 . S
C978 C979 1.385 . S
C978 C980 1.478 . S
C979 H973 0.930 . S
C979 C975 1.400 . S
C979 C978 1.385 . S
C980 C978 1.478 . S
C980 C982 1.381 . S
C980 C986 1.383 . S
C981 C977 1.495 . S
C981 H987 0.959 . S
C981 H988 0.961 . S
C981 H989 0.960 . S
C982 C980 1.381 . S
C982 C983 1.394 . S
C982 H990 0.930 . S
C983 C982 1.394 . S
C983 C984 1.383 . S
C983 H991 0.929 . S
C984 C983 1.383 . S
C984 C985 1.377 . S
C985 H969 0.930 . S
C985 C984 1.377 . S
C985 C986 1.379 . S
C986 H970 0.931 . S
C986 C980 1.383 . S
C986 C985 1.379 . S
H987 C981 0.959 . S
H988 C981 0.961 . S
H989 C981 0.960 . S
H990 C982 0.930 . S
H991 C983 0.929 . S
H992 C1000 0.929 . S
H993 C1002 0.930 . S
H994 C1004 0.930 . S
H995 C1007 0.929 . S
H996 C1010 0.930 . S
H997 C1012 0.960 . S
H998 C1012 0.960 . S
H999 C1012 0.960 . S
C1000 H992 0.929 . S
C1000 C1001 1.377 . S
C1000 C1002 1.384 . S
C1001 C1000 1.377 . S
C1001 C1007 1.390 . S
C1002 H993 0.930 . S
C1002 C1000 1.384 . S
C1002 C1003 1.372 . S
C1003 C1002 1.372 . S
C1003 C1004 1.400 . S
C1003 C1008 1.490 . S
C1004 H994 0.930 . S
C1004 C1003 1.400 . S
C1004 C1007 1.386 . S
H1005 C1021 0.930 . S
H1006 C1022 0.931 . S
C1007 H995 0.929 . S
C1007 C1001 1.390 . S
C1007 C1004 1.386 . S
C1008 C1003 1.490 . S
C1008 C1010 1.395 . S
C1008 C1011 1.403 . S
H1009 C1015 0.930 . S
C1010 H996 0.930 . S
C1010 C1008 1.395 . S
C1010 C1013 1.403 . S
C1011 C1008 1.403 . S
C1011 C1012 1.524 . S
C1011 C1015 1.400 . S
C1012 H997 0.960 . S
C1012 H998 0.960 . S
C1012 H999 0.960 . S
C1012 C1011 1.524 . S
C1013 C1010 1.403 . S
C1013 C1014 1.392 . S
C1013 C1017 1.495 . S
C1014 C1013 1.392 . S
C1014 C1015 1.385 . S
C1014 C1016 1.478 . S
C1015 H1009 0.930 . S
C1015 C1011 1.400 . S
C1015 C1014 1.385 . S
C1016 C1014 1.478 . S
C1016 C1018 1.381 . S
C1016 C1022 1.383 . S
C1017 C1013 1.495 . S
C1017 H1023 0.959 . S
C1017 H1024 0.961 . S
C1017 H1025 0.960 . S
C1018 C1016 1.381 . S
C1018 C1019 1.394 . S
C1018 H1026 0.930 . S
C1019 C1018 1.394 . S
C1019 C1020 1.383 . S
C1019 H1027 0.929 . S
C1020 C1019 1.383 . S
C1020 C1021 1.377 . S
C1021 H1005 0.930 . S
C1021 C1020 1.377 . S
C1021 C1022 1.379 . S
C1022 H1006 0.931 . S
C1022 C1016 1.383 . S
C1022 C1021 1.379 . S
H1023 C1017 0.959 . S
H1024 C1017 0.961 . S
H1025 C1017 0.960 . S
H1026 C1018 0.930 . S
H1027 C1019 0.929 . S
H1028 C1036 0.929 . S
H1029 C1038 0.930 . S
H1030 C1040 0.930 . S
H1031 C1043 0.929 . S
H1032 C1046 0.930 . S
H1033 C1048 0.960 . S
H1034 C1048 0.960 . S
H1035 C1048 0.960 . S
C1036 H1028 0.929 . S
C1036 C1037 1.377 . S
C1036 C1038 1.384 . S
C1037 C1036 1.377 . S
C1037 C1043 1.390 . S
C1038 H1029 0.930 . S
C1038 C1036 1.384 . S
C1038 C1039 1.372 . S
C1039 C1038 1.372 . S
C1039 C1040 1.400 . S
C1039 C1044 1.490 . S
C1040 H1030 0.930 . S
C1040 C1039 1.400 . S
C1040 C1043 1.386 . S
H1041 C1057 0.930 . S
H1042 C1058 0.931 . S
C1043 H1031 0.929 . S
C1043 C1037 1.390 . S
C1043 C1040 1.386 . S
C1044 C1039 1.490 . S
C1044 C1046 1.395 . S
C1044 C1047 1.403 . S
H1045 C1051 0.930 . S
C1046 H1032 0.930 . S
C1046 C1044 1.395 . S
C1046 C1049 1.403 . S
C1047 C1044 1.403 . S
C1047 C1048 1.524 . S
C1047 C1051 1.400 . S
C1048 H1033 0.960 . S
C1048 H1034 0.960 . S
C1048 H1035 0.960 . S
C1048 C1047 1.524 . S
C1049 C1046 1.403 . S
C1049 C1050 1.392 . S
C1049 C1053 1.495 . S
C1050 C1049 1.392 . S
C1050 C1051 1.385 . S
C1050 C1052 1.478 . S
C1051 H1045 0.930 . S
C1051 C1047 1.400 . S
C1051 C1050 1.385 . S
C1052 C1050 1.478 . S
C1052 C1054 1.381 . S
C1052 C1058 1.383 . S
C1053 C1049 1.495 . S
C1053 H1059 0.959 . S
C1053 H1060 0.961 . S
C1053 H1061 0.960 . S
C1054 C1052 1.381 . S
C1054 C1055 1.394 . S
C1054 H1062 0.930 . S
C1055 C1054 1.394 . S
C1055 C1056 1.383 . S
C1055 H1063 0.929 . S
C1056 C1055 1.383 . S
C1056 C1057 1.377 . S
C1057 H1041 0.930 . S
C1057 C1056 1.377 . S
C1057 C1058 1.379 . S
C1058 H1042 0.931 . S
C1058 C1052 1.383 . S
C1058 C1057 1.379 . S
H1059 C1053 0.959 . S
H1060 C1053 0.961 . S
H1061 C1053 0.960 . S
H1062 C1054 0.930 . S
H1063 C1055 0.929 . S
H1064 C1072 0.929 . S
H1065 C1074 0.930 . S
H1066 C1076 0.930 . S
H1067 C1079 0.929 . S
H1068 C1082 0.930 . S
H1069 C1084 0.960 . S
H1070 C1084 0.960 . S
H1071 C1084 0.960 . S
C1072 H1064 0.929 . S
C1072 C1073 1.377 . S
C1072 C1074 1.384 . S
C1073 C1072 1.377 . S
C1073 C1079 1.390 . S
C1074 H1065 0.930 . S
C1074 C1072 1.384 . S
C1074 C1075 1.372 . S
C1075 C1074 1.372 . S
C1075 C1076 1.400 . S
C1075 C1080 1.490 . S
C1076 H1066 0.930 . S
C1076 C1075 1.400 . S
C1076 C1079 1.386 . S
H1077 C1093 0.930 . S
H1078 C1094 0.931 . S
C1079 H1067 0.929 . S
C1079 C1073 1.390 . S
C1079 C1076 1.386 . S
C1080 C1075 1.490 . S
C1080 C1082 1.395 . S
C1080 C1083 1.403 . S
H1081 C1087 0.930 . S
C1082 H1068 0.930 . S
C1082 C1080 1.395 . S
C1082 C1085 1.403 . S
C1083 C1080 1.403 . S
C1083 C1084 1.524 . S
C1083 C1087 1.400 . S
C1084 H1069 0.960 . S
C1084 H1070 0.960 . S
C1084 H1071 0.960 . S
C1084 C1083 1.524 . S
C1085 C1082 1.403 . S
C1085 C1086 1.392 . S
C1085 C1089 1.495 . S
C1086 C1085 1.392 . S
C1086 C1087 1.385 . S
C1086 C1088 1.478 . S
C1087 H1081 0.930 . S
C1087 C1083 1.400 . S
C1087 C1086 1.385 . S
C1088 C1086 1.478 . S
C1088 C1090 1.381 . S
C1088 C1094 1.383 . S
C1089 C1085 1.495 . S
C1089 H1095 0.959 . S
C1089 H1096 0.961 . S
C1089 H1097 0.960 . S
C1090 C1088 1.381 . S
C1090 C1091 1.394 . S
C1090 H1098 0.930 . S
C1091 C1090 1.394 . S
C1091 C1092 1.383 . S
C1091 H1099 0.929 . S
C1092 C1091 1.383 . S
C1092 C1093 1.377 . S
C1093 H1077 0.930 . S
C1093 C1092 1.377 . S
C1093 C1094 1.379 . S
C1094 H1078 0.931 . S
C1094 C1088 1.383 . S
C1094 C1093 1.379 . S
H1095 C1089 0.959 . S
H1096 C1089 0.961 . S
H1097 C1089 0.960 . S
H1098 C1090 0.930 . S
H1099 C1091 0.929 . S
H1100 C1108 0.929 . S
H1101 C1110 0.930 . S
H1102 C1112 0.930 . S
H1103 C1115 0.929 . S
H1104 C1118 0.930 . S
H1105 C1120 0.960 . S
H1106 C1120 0.960 . S
H1107 C1120 0.960 . S
C1108 H1100 0.929 . S
C1108 C1109 1.377 . S
C1108 C1110 1.384 . S
C1109 C1108 1.377 . S
C1109 C1115 1.390 . S
C1110 H1101 0.930 . S
C1110 C1108 1.384 . S
C1110 C1111 1.372 . S
C1111 C1110 1.372 . S
C1111 C1112 1.400 . S
C1111 C1116 1.490 . S
C1112 H1102 0.930 . S
C1112 C1111 1.400 . S
C1112 C1115 1.386 . S
H1113 C1129 0.930 . S
H1114 C1130 0.931 . S
C1115 H1103 0.929 . S
C1115 C1109 1.390 . S
C1115 C1112 1.386 . S
C1116 C1111 1.490 . S
C1116 C1118 1.395 . S
C1116 C1119 1.403 . S
H1117 C1123 0.930 . S
C1118 H1104 0.930 . S
C1118 C1116 1.395 . S
C1118 C1121 1.403 . S
C1119 C1116 1.403 . S
C1119 C1120 1.524 . S
C1119 C1123 1.400 . S
C1120 H1105 0.960 . S
C1120 H1106 0.960 . S
C1120 H1107 0.960 . S
C1120 C1119 1.524 . S
C1121 C1118 1.403 . S
C1121 C1122 1.392 . S
C1121 C1125 1.495 . S
C1122 C1121 1.392 . S
C1122 C1123 1.385 . S
C1122 C1124 1.478 . S
C1123 H1117 0.930 . S
C1123 C1119 1.400 . S
C1123 C1122 1.385 . S
C1124 C1122 1.478 . S
C1124 C1126 1.381 . S
C1124 C1130 1.383 . S
C1125 C1121 1.495 . S
C1125 H1131 0.959 . S
C1125 H1132 0.961 . S
C1125 H1133 0.960 . S
C1126 C1124 1.381 . S
C1126 C1127 1.394 . S
C1126 H1134 0.930 . S
C1127 C1126 1.394 . S
C1127 C1128 1.383 . S
C1127 H1135 0.929 . S
C1128 C1127 1.383 . S
C1128 C1129 1.377 . S
C1129 H1113 0.930 . S
C1129 C1128 1.377 . S
C1129 C1130 1.379 . S
C1130 H1114 0.931 . S
C1130 C1124 1.383 . S
C1130 C1129 1.379 . S
H1131 C1125 0.959 . S
H1132 C1125 0.961 . S
H1133 C1125 0.960 . S
H1134 C1126 0.930 . S
H1135 C1127 0.929 . S
H1136 C1144 0.929 . S
H1137 C1146 0.930 . S
H1138 C1148 0.930 . S
H1139 C1151 0.929 . S
H1140 C1154 0.930 . S
H1141 C1156 0.960 . S
H1142 C1156 0.960 . S
H1143 C1156 0.960 . S
C1144 H1136 0.929 . S
C1144 C1145 1.377 . S
C1144 C1146 1.384 . S
C1145 C1144 1.377 . S
C1145 C1151 1.390 . S
C1146 H1137 0.930 . S
C1146 C1144 1.384 . S
C1146 C1147 1.372 . S
C1147 C1146 1.372 . S
C1147 C1148 1.400 . S
C1147 C1152 1.490 . S
C1148 H1138 0.930 . S
C1148 C1147 1.400 . S
C1148 C1151 1.386 . S
H1149 C1165 0.930 . S
H1150 C1166 0.931 . S
C1151 H1139 0.929 . S
C1151 C1145 1.390 . S
C1151 C1148 1.386 . S
C1152 C1147 1.490 . S
C1152 C1154 1.395 . S
C1152 C1155 1.403 . S
H1153 C1159 0.930 . S
C1154 H1140 0.930 . S
C1154 C1152 1.395 . S
C1154 C1157 1.403 . S
C1155 C1152 1.403 . S
C1155 C1156 1.524 . S
C1155 C1159 1.400 . S
C1156 H1141 0.960 . S
C1156 H1142 0.960 . S
C1156 H1143 0.960 . S
C1156 C1155 1.524 . S
C1157 C1154 1.403 . S
C1157 C1158 1.392 . S
C1157 C1161 1.495 . S
C1158 C1157 1.392 . S
C1158 C1159 1.385 . S
C1158 C1160 1.478 . S
C1159 H1153 0.930 . S
C1159 C1155 1.400 . S
C1159 C1158 1.385 . S
C1160 C1158 1.478 . S
C1160 C1162 1.381 . S
C1160 C1166 1.383 . S
C1161 C1157 1.495 . S
C1161 H1167 0.959 . S
C1161 H1168 0.961 . S
C1161 H1169 0.960 . S
C1162 C1160 1.381 . S
C1162 C1163 1.394 . S
C1162 H1170 0.930 . S
C1163 C1162 1.394 . S
C1163 C1164 1.383 . S
C1163 H1171 0.929 . S
C1164 C1163 1.383 . S
C1164 C1165 1.377 . S
C1165 H1149 0.930 . S
C1165 C1164 1.377 . S
C1165 C1166 1.379 . S
C1166 H1150 0.931 . S
C1166 C1160 1.383 . S
C1166 C1165 1.379 . S
H1167 C1161 0.959 . S
H1168 C1161 0.961 . S
H1169 C1161 0.960 . S
H1170 C1162 0.930 . S
H1171 C1163 0.929 . S
H1172 C1180 0.929 . S
H1173 C1182 0.930 . S
H1174 C1184 0.930 . S
H1175 C1187 0.929 . S
H1176 C1190 0.930 . S
H1177 C1192 0.960 . S
H1178 C1192 0.960 . S
H1179 C1192 0.960 . S
C1180 H1172 0.929 . S
C1180 C1181 1.377 . S
C1180 C1182 1.384 . S
C1181 C1180 1.377 . S
C1181 C1187 1.390 . S
C1182 H1173 0.930 . S
C1182 C1180 1.384 . S
C1182 C1183 1.372 . S
C1183 C1182 1.372 . S
C1183 C1184 1.400 . S
C1183 C1188 1.490 . S
C1184 H1174 0.930 . S
C1184 C1183 1.400 . S
C1184 C1187 1.386 . S
H1185 C1201 0.930 . S
H1186 C1202 0.931 . S
C1187 H1175 0.929 . S
C1187 C1181 1.390 . S
C1187 C1184 1.386 . S
C1188 C1183 1.490 . S
C1188 C1190 1.395 . S
C1188 C1191 1.403 . S
H1189 C1195 0.930 . S
C1190 H1176 0.930 . S
C1190 C1188 1.395 . S
C1190 C1193 1.403 . S
C1191 C1188 1.403 . S
C1191 C1192 1.524 . S
C1191 C1195 1.400 . S
C1192 H1177 0.960 . S
C1192 H1178 0.960 . S
C1192 H1179 0.960 . S
C1192 C1191 1.524 . S
C1193 C1190 1.403 . S
C1193 C1194 1.392 . S
C1193 C1197 1.495 . S
C1194 C1193 1.392 . S
C1194 C1195 1.385 . S
C1194 C1196 1.478 . S
C1195 H1189 0.930 . S
C1195 C1191 1.400 . S
C1195 C1194 1.385 . S
C1196 C1194 1.478 . S
C1196 C1198 1.381 . S
C1196 C1202 1.383 . S
C1197 C1193 1.495 . S
C1197 H1203 0.959 . S
C1197 H1204 0.961 . S
C1197 H1205 0.960 . S
C1198 C1196 1.381 . S
C1198 C1199 1.394 . S
C1198 H1206 0.930 . S
C1199 C1198 1.394 . S
C1199 C1200 1.383 . S
C1199 H1207 0.929 . S
C1200 C1199 1.383 . S
C1200 C1201 1.377 . S
C1201 H1185 0.930 . S
C1201 C1200 1.377 . S
C1201 C1202 1.379 . S
C1202 H1186 0.931 . S
C1202 C1196 1.383 . S
C1202 C1201 1.379 . S
H1203 C1197 0.959 . S
H1204 C1197 0.961 . S
H1205 C1197 0.960 . S
H1206 C1198 0.930 . S
H1207 C1199 0.929 . S
H1208 C1216 0.929 . S
H1209 C1218 0.930 . S
H1210 C1220 0.930 . S
H1211 C1223 0.929 . S
H1212 C1226 0.930 . S
H1213 C1228 0.960 . S
H1214 C1228 0.960 . S
H1215 C1228 0.960 . S
C1216 H1208 0.929 . S
C1216 C1217 1.377 . S
C1216 C1218 1.384 . S
C1217 C1216 1.377 . S
C1217 C1223 1.390 . S
C1218 H1209 0.930 . S
C1218 C1216 1.384 . S
C1218 C1219 1.372 . S
C1219 C1218 1.372 . S
C1219 C1220 1.400 . S
C1219 C1224 1.490 . S
C1220 H1210 0.930 . S
C1220 C1219 1.400 . S
C1220 C1223 1.386 . S
H1221 C1237 0.930 . S
H1222 C1238 0.931 . S
C1223 H1211 0.929 . S
C1223 C1217 1.390 . S
C1223 C1220 1.386 . S
C1224 C1219 1.490 . S
C1224 C1226 1.395 . S
C1224 C1227 1.403 . S
H1225 C1231 0.930 . S
C1226 H1212 0.930 . S
C1226 C1224 1.395 . S
C1226 C1229 1.403 . S
C1227 C1224 1.403 . S
C1227 C1228 1.524 . S
C1227 C1231 1.400 . S
C1228 H1213 0.960 . S
C1228 H1214 0.960 . S
C1228 H1215 0.960 . S
C1228 C1227 1.524 . S
C1229 C1226 1.403 . S
C1229 C1230 1.392 . S
C1229 C1233 1.495 . S
C1230 C1229 1.392 . S
C1230 C1231 1.385 . S
C1230 C1232 1.478 . S
C1231 H1225 0.930 . S
C1231 C1227 1.400 . S
C1231 C1230 1.385 . S
C1232 C1230 1.478 . S
C1232 C1234 1.381 . S
C1232 C1238 1.383 . S
C1233 C1229 1.495 . S
C1233 H1239 0.959 . S
C1233 H1240 0.961 . S
C1233 H1241 0.960 . S
C1234 C1232 1.381 . S
C1234 C1235 1.394 . S
C1234 H1242 0.930 . S
C1235 C1234 1.394 . S
C1235 C1236 1.383 . S
C1235 H1243 0.929 . S
C1236 C1235 1.383 . S
C1236 C1237 1.377 . S
C1237 H1221 0.930 . S
C1237 C1236 1.377 . S
C1237 C1238 1.379 . S
C1238 H1222 0.931 . S
C1238 C1232 1.383 . S
C1238 C1237 1.379 . S
H1239 C1233 0.959 . S
H1240 C1233 0.961 . S
H1241 C1233 0.960 . S
H1242 C1234 0.930 . S
H1243 C1235 0.929 . S
H1244 C1252 0.929 . S
H1245 C1254 0.930 . S
H1246 C1256 0.930 . S
H1247 C1259 0.929 . S
H1248 C1262 0.930 . S
H1249 C1264 0.960 . S
H1250 C1264 0.960 . S
H1251 C1264 0.960 . S
C1252 H1244 0.929 . S
C1252 C1253 1.377 . S
C1252 C1254 1.384 . S
C1253 C1252 1.377 . S
C1253 C1259 1.390 . S
C1254 H1245 0.930 . S
C1254 C1252 1.384 . S
C1254 C1255 1.372 . S
C1255 C1254 1.372 . S
C1255 C1256 1.400 . S
C1255 C1260 1.490 . S
C1256 H1246 0.930 . S
C1256 C1255 1.400 . S
C1256 C1259 1.386 . S
H1257 C1273 0.930 . S
H1258 C1274 0.931 . S
C1259 H1247 0.929 . S
C1259 C1253 1.390 . S
C1259 C1256 1.386 . S
C1260 C1255 1.490 . S
C1260 C1262 1.395 . S
C1260 C1263 1.403 . S
H1261 C1267 0.930 . S
C1262 H1248 0.930 . S
C1262 C1260 1.395 . S
C1262 C1265 1.403 . S
C1263 C1260 1.403 . S
C1263 C1264 1.524 . S
C1263 C1267 1.400 . S
C1264 H1249 0.960 . S
C1264 H1250 0.960 . S
C1264 H1251 0.960 . S
C1264 C1263 1.524 . S
C1265 C1262 1.403 . S
C1265 C1266 1.392 . S
C1265 C1269 1.495 . S
C1266 C1265 1.392 . S
C1266 C1267 1.385 . S
C1266 C1268 1.478 . S
C1267 H1261 0.930 . S
C1267 C1263 1.400 . S
C1267 C1266 1.385 . S
C1268 C1266 1.478 . S
C1268 C1270 1.381 . S
C1268 C1274 1.383 . S
C1269 C1265 1.495 . S
C1269 H1275 0.959 . S
C1269 H1276 0.961 . S
C1269 H1277 0.960 . S
C1270 C1268 1.381 . S
C1270 C1271 1.394 . S
C1270 H1278 0.930 . S
C1271 C1270 1.394 . S
C1271 C1272 1.383 . S
C1271 H1279 0.929 . S
C1272 C1271 1.383 . S
C1272 C1273 1.377 . S
C1273 H1257 0.930 . S
C1273 C1272 1.377 . S
C1273 C1274 1.379 . S
C1274 H1258 0.931 . S
C1274 C1268 1.383 . S
C1274 C1273 1.379 . S
H1275 C1269 0.959 . S
H1276 C1269 0.961 . S
H1277 C1269 0.960 . S
H1278 C1270 0.930 . S
H1279 C1271 0.929 . S
C425 C29 1.235 . S
C444 C263 1.243 . S
C461 C49 0.901 . S
C480 C312 0.914 . S
C516 C338 2.459 . S
C497 C93 2.443 . S
C533 C119 2.218 . S
C552 C386 2.191 . S
C588 C298 2.349 . S
C569 C17 2.344 . S
C624 C266 0.884 . S
C605 C61 0.940 . S
C660 C387 1.849 . S
C641 C81 1.856 . S
C696 C355 1.558 . S
C677 C125 1.527 . S
C713 C23 1.665 . S
C732 C383 1.662 . S
C768 C315 2.253 . S
C749 C87 2.305 . S
C785 C113 2.321 . S
C804 C267 2.346 . S
C821 C55 0.754 . S
C840 C352 0.764 . S
C876 C272 1.186 . S
C857 C157 1.091 . S
C893 C189 0.959 . S
C912 C303 0.952 . S
C929 C221 2.388 . S
C948 C347 2.409 . S
C965 C253 2.295 . S
C984 C395 2.288 . S
C1001 C145 2.253 . S
C1020 C307 2.434 . S
C1056 C275 0.837 . S
C1037 C183 0.881 . S
C1092 C378 1.882 . S
C1073 C209 1.876 . S
C1128 C346 1.492 . S
C1109 C247 1.485 . S
C1145 C151 1.557 . S
C1164 C392 1.678 . S
C1200 C306 2.253 . S
C1181 C215 2.292 . S
C1236 C258 2.305 . S
C1217 C241 2.263 . S
C1253 C177 0.744 . S
C1272 C343 0.764 . S
