# Generated by pormake.
# Topology pyr, (3,6)-cn, num edge types: 1
# Building blocks:
#     Node 0, Type 0, BuildingBlock: BETDAH_clean_linker_0, # of connection points: 3
#     Node 1, Type 0, BuildingBlock: BETDAH_clean_linker_0, # of connection points: 3
#     Node 2, Type 0, BuildingBlock: BETDAH_clean_linker_0, # of connection points: 3
#     Node 3, Type 0, BuildingBlock: BETDAH_clean_linker_0, # of connection points: 3
#     Node 4, Type 0, BuildingBlock: BETDAH_clean_linker_0, # of connection points: 3
#     Node 5, Type 0, BuildingBlock: BETDAH_clean_linker_0, # of connection points: 3
#     Node 6, Type 0, BuildingBlock: BETDAH_clean_linker_0, # of connection points: 3
#     Node 7, Type 0, BuildingBlock: BETDAH_clean_linker_0, # of connection points: 3
#     Node 8, Type 1, BuildingBlock: MIFKUJ_clean_sbu_0, # of connection points: 6
#     Node 9, Type 1, BuildingBlock: MIFKUJ_clean_sbu_0, # of connection points: 6
#     Node 10, Type 1, BuildingBlock: MIFKUJ_clean_sbu_0, # of connection points: 6
#     Node 11, Type 1, BuildingBlock: MIFKUJ_clean_sbu_0, # of connection points: 6
#     Edge 12, Type (0, 1), BuildingBlock: AJUNOK_clean_linker_0, # of connection points: 2
#     Edge 13, Type (0, 1), BuildingBlock: AJUNOK_clean_linker_0, # of connection points: 2
#     Edge 14, Type (0, 1), BuildingBlock: AJUNOK_clean_linker_0, # of connection points: 2
#     Edge 15, Type (0, 1), BuildingBlock: AJUNOK_clean_linker_0, # of connection points: 2
#     Edge 16, Type (0, 1), BuildingBlock: AJUNOK_clean_linker_0, # of connection points: 2
#     Edge 17, Type (0, 1), BuildingBlock: AJUNOK_clean_linker_0, # of connection points: 2
#     Edge 18, Type (0, 1), BuildingBlock: AJUNOK_clean_linker_0, # of connection points: 2
#     Edge 19, Type (0, 1), BuildingBlock: AJUNOK_clean_linker_0, # of connection points: 2
#     Edge 20, Type (0, 1), BuildingBlock: AJUNOK_clean_linker_0, # of connection points: 2
#     Edge 21, Type (0, 1), BuildingBlock: AJUNOK_clean_linker_0, # of connection points: 2
#     Edge 22, Type (0, 1), BuildingBlock: AJUNOK_clean_linker_0, # of connection points: 2
#     Edge 23, Type (0, 1), BuildingBlock: AJUNOK_clean_linker_0, # of connection points: 2
#     Edge 24, Type (0, 1), BuildingBlock: AJUNOK_clean_linker_0, # of connection points: 2
#     Edge 25, Type (0, 1), BuildingBlock: AJUNOK_clean_linker_0, # of connection points: 2
#     Edge 26, Type (0, 1), BuildingBlock: AJUNOK_clean_linker_0, # of connection points: 2
#     Edge 27, Type (0, 1), BuildingBlock: AJUNOK_clean_linker_0, # of connection points: 2
#     Edge 28, Type (0, 1), BuildingBlock: AJUNOK_clean_linker_0, # of connection points: 2
#     Edge 29, Type (0, 1), BuildingBlock: AJUNOK_clean_linker_0, # of connection points: 2
#     Edge 30, Type (0, 1), BuildingBlock: AJUNOK_clean_linker_0, # of connection points: 2
#     Edge 31, Type (0, 1), BuildingBlock: AJUNOK_clean_linker_0, # of connection points: 2
#     Edge 32, Type (0, 1), BuildingBlock: AJUNOK_clean_linker_0, # of connection points: 2
#     Edge 33, Type (0, 1), BuildingBlock: AJUNOK_clean_linker_0, # of connection points: 2
#     Edge 34, Type (0, 1), BuildingBlock: AJUNOK_clean_linker_0, # of connection points: 2
#     Edge 35, Type (0, 1), BuildingBlock: AJUNOK_clean_linker_0, # of connection points: 2
# Relax obj value: 0.059
# Max RMSD: 0.193
# Mean RMSD: 0.125
data_MOF--net-pyr--node1-MIFKUJ_clean_sbu_0--node2-BETDAH_clean_linker_0--edge1-AJUNOK_clean_linker_0
_symmetry_space_group_name_H-M    P1
_symmetry_Int_Tables_number       1
_symmetry_cell_setting            triclinic
loop_
_symmetry_equiv_pos_as_xyz
'x, y, z'
_cell_length_a     28.680609
_cell_length_b     26.039872
_cell_length_c     28.540487
_cell_angle_alpha  85.378587
_cell_angle_beta   88.121783
_cell_angle_gamma 104.53789
loop_
_atom_site_label
_atom_site_type_symbol
_atom_site_fract_x
_atom_site_fract_y
_atom_site_fract_z
_atom_type_partial_charge
H0 H 0.22616 0.10461 0.27105 0.0
H1 H 0.28785 0.23945 0.17191 0.0
H2 H 0.16291 0.23878 0.25927 0.0
C3 C 0.22532 0.14339 0.25465 0.0
C4 C 0.18959 0.16804 0.26932 0.0
C5 C 0.26027 0.16861 0.21913 0.0
C6 C 0.26002 0.21907 0.19847 0.0
C7 C 0.22451 0.24388 0.21216 0.0
C8 C 0.18897 0.21826 0.24731 0.0
N9 N 0.22819 0.29662 0.19306 0.0
C10 C 0.18959 0.31409 0.17597 0.0
H11 H 0.43068 0.82457 0.78082 0.0
H12 H 0.3635 0.95383 0.78699 0.0
H13 H 0.34964 0.86597 0.66511 0.0
C14 C 0.40764 0.8478 0.7654 0.0
C15 C 0.39082 0.83907 0.72008 0.0
C16 C 0.3969 0.88816 0.79032 0.0
C17 C 0.37089 0.92155 0.76874 0.0
C18 C 0.35337 0.91326 0.72408 0.0
C19 C 0.36273 0.87164 0.69998 0.0
N20 N 0.33002 0.95038 0.70288 0.0
C21 C 0.28808 0.93687 0.67865 0.0
H22 H 0.70745 0.30369 0.93666 0.0
H23 H 0.69159 0.40203 0.81248 0.0
H24 H 0.58069 0.26053 0.85732 0.0
C25 C 0.68688 0.31141 0.9069 0.0
C26 C 0.64175 0.27672 0.901 0.0
C27 C 0.70549 0.35625 0.8746 0.0
C28 C 0.67794 0.36693 0.83688 0.0
C29 C 0.63273 0.33233 0.83099 0.0
C30 C 0.61538 0.28728 0.86258 0.0
N31 N 0.60346 0.34109 0.79375 0.0
C32 C 0.60921 0.38905 0.76657 0.0
H33 H 0.78292 0.72061 0.38497 0.0
H34 H 0.86737 0.7208 0.25736 0.0
H35 H 0.72132 0.62427 0.27614 0.0
C36 C 0.78644 0.70599 0.35083 0.0
C37 C 0.74693 0.67031 0.33396 0.0
C38 C 0.82981 0.72464 0.32337 0.0
C39 C 0.83405 0.70624 0.27882 0.0
C40 C 0.79453 0.66991 0.2619 0.0
C41 C 0.75129 0.6527 0.28934 0.0
N42 N 0.79603 0.65065 0.21705 0.0
C43 C 0.83773 0.64845 0.19222 0.0
H44 H 0.89662 0.81159 0.74632 0.0
H45 H 0.82032 0.84609 0.868 0.0
H46 H 0.84941 0.95574 0.74367 0.0
C47 C 0.87764 0.83677 0.76336 0.0
C48 C 0.87388 0.88445 0.7392 0.0
C49 C 0.85863 0.82258 0.81008 0.0
C50 C 0.83401 0.85576 0.83167 0.0
C51 C 0.83064 0.90376 0.8075 0.0
C52 C 0.85119 0.91808 0.76178 0.0
N53 N 0.8108 0.94092 0.82944 0.0
C54 C 0.76988 0.92742 0.85974 0.0
H55 H 0.71393 0.11613 0.29757 0.0
H56 H 0.77012 0.22807 0.39718 0.0
H57 H 0.64801 0.24476 0.31972 0.0
C58 C 0.71178 0.15046 0.31584 0.0
C59 C 0.67708 0.17847 0.30416 0.0
C60 C 0.7452 0.16814 0.34954 0.0
C61 C 0.74373 0.21369 0.37179 0.0
C62 C 0.70818 0.24065 0.36205 0.0
C63 C 0.67468 0.22297 0.3283 0.0
N64 N 0.7097 0.28773 0.38422 0.0
C65 C 0.66949 0.30345 0.39995 0.0
H66 H 0.31061 0.73782 0.17116 0.0
H67 H 0.28926 0.57991 0.23938 0.0
H68 H 0.42158 0.69752 0.25402 0.0
C69 C 0.32314 0.70954 0.19428 0.0
C70 C 0.36946 0.72415 0.21153 0.0
C71 C 0.29369 0.65794 0.20478 0.0
C72 C 0.31088 0.62065 0.23267 0.0
C73 C 0.35634 0.63499 0.25119 0.0
C74 C 0.38566 0.68696 0.24099 0.0
N75 N 0.37351 0.59483 0.27589 0.0
C76 C 0.39401 0.60055 0.31908 0.0
H77 H 0.23051 0.33944 0.65331 0.0
H78 H 0.20455 0.41303 0.77812 0.0
H79 H 0.0965 0.28153 0.73526 0.0
C80 C 0.20718 0.34214 0.68314 0.0
C81 C 0.16155 0.30619 0.69014 0.0
C82 C 0.22313 0.38132 0.71424 0.0
C83 C 0.19246 0.38416 0.75298 0.0
C84 C 0.14671 0.34811 0.76032 0.0
C85 C 0.13188 0.30902 0.72931 0.0
N86 N 0.11497 0.34918 0.79905 0.0
C87 C 0.11397 0.39482 0.8206 0.0
Zn88 Zn 0.06949 0.03316 0.5382 0.0
Zn89 Zn 0.94903 0.00026 0.44982 0.0
C90 C 0.1078 0.1398 0.56333 0.0
O91 O 0.12812 0.14631 0.52063 0.0
C92 C 0.94286 0.89685 0.41666 0.0
O93 O 0.96456 0.88879 0.45539 0.0
O94 O 0.11594 0.98952 0.55793 0.0
O95 O 1.00144 0.99262 0.54691 0.0
O96 O 0.9314 0.96511 0.51691 0.0
C97 C 0.11575 0.97212 0.60086 0.0
O98 O 0.08224 0.97906 0.63042 0.0
O99 O 0.08056 0.09462 0.57844 0.0
C100 C 0.89651 0.06319 0.39416 0.0
O101 O 0.9253 0.05679 0.35965 0.0
O102 O 0.90113 0.04432 0.43575 0.0
O103 O 0.01876 0.04322 0.42995 0.0
O104 O 0.08473 0.06155 0.47109 0.0
O105 O 0.93325 0.94145 0.4073 0.0
C106 C 0.95771 0.96676 0.55192 0.0
C107 C 0.0637 0.06488 0.43283 0.0
Zn108 Zn 0.54436 0.97678 0.03498 0.0
Zn109 Zn 0.48152 0.04207 0.10119 0.0
C110 C 0.47474 0.92118 0.97476 0.0
O111 O 0.48462 0.88059 0.99913 0.0
C112 C 0.55224 0.11385 0.15077 0.0
O113 O 0.53973 0.14929 0.12182 0.0
O114 O 0.59722 0.94854 0.00594 0.0
O115 O 0.5751 0.0541 0.0402 0.0
O116 O 0.50708 0.07779 0.03671 0.0
C117 C 0.60593 0.95959 0.96177 0.0
O118 O 0.58186 0.98937 0.93877 0.0
O119 O 0.49341 0.96795 0.98609 0.0
C120 C 0.41523 0.0757 0.16283 0.0
O121 O 0.44126 0.05986 0.19533 0.0
O122 O 0.42592 0.07228 0.11979 0.0
O123 O 0.45566 0.96237 0.11194 0.0
O124 O 0.51821 0.93069 0.09444 0.0
O125 O 0.53287 0.06468 0.14782 0.0
C126 C 0.55194 0.08729 0.02586 0.0
C127 C 0.47748 0.92543 0.11579 0.0
Zn128 Zn 0.52255 0.50397 0.52657 0.0
Zn129 Zn 0.48465 0.58709 0.59884 0.0
C130 C 0.57269 0.57097 0.44873 0.0
O131 O 0.53633 0.54267 0.4275 0.0
C132 C 0.411 0.52481 0.66312 0.0
O133 O 0.4344 0.55844 0.69136 0.0
O134 O 0.53015 0.44015 0.49304 0.0
O135 O 0.54132 0.49302 0.59234 0.0
O136 O 0.54152 0.56601 0.62786 0.0
C137 C 0.56995 0.42861 0.50078 0.0
O138 O 0.59883 0.456 0.52978 0.0
O139 O 0.5736 0.56376 0.49321 0.0
C140 C 0.4545 0.68577 0.61141 0.0
O141 O 0.44663 0.68599 0.56633 0.0
O142 O 0.4728 0.65022 0.63081 0.0
O143 O 0.48369 0.60269 0.52786 0.0
O144 O 0.45774 0.51774 0.51808 0.0
O145 O 0.42637 0.5276 0.62046 0.0
C146 C 0.55351 0.52234 0.62562 0.0
C147 C 0.4605 0.56604 0.50432 0.0
Zn148 Zn 0.95784 0.57342 0.95396 0.0
Zn149 Zn 0.05218 0.53299 0.05176 0.0
C150 C 0.89004 0.50208 0.90377 0.0
O151 O 0.91973 0.52686 0.86835 0.0
C152 C 0.11316 0.57912 0.11718 0.0
O153 O 0.07478 0.55067 0.14222 0.0
O154 O 0.94702 0.63859 0.91717 0.0
O155 O 0.95679 0.58386 0.02223 0.0
O156 O 0.99948 0.56147 0.07978 0.0
C157 C 0.90472 0.64552 0.9209 0.0
O158 O 0.87238 0.61199 0.94967 0.0
O159 O 0.89957 0.51456 0.94514 0.0
C160 C 0.0918 0.44892 0.07311 0.0
O161 O 0.12067 0.4793 0.03966 0.0
O162 O 0.0535 0.46168 0.0854 0.0
O163 O 0.05824 0.5273 0.9812 0.0
O164 O 0.01364 0.55154 0.92558 0.0
O165 O 0.11273 0.58075 0.07252 0.0
C166 C 0.9666 0.58247 0.06523 0.0
C167 C 0.04868 0.53291 0.93811 0.0
C168 C 0.17452 0.12337 0.35101 0.0
C169 C 0.15596 0.14285 0.31024 0.0
C170 C 0.14431 0.09869 0.39014 0.0
C171 C 0.09401 0.0921 0.39033 0.0
H172 H 0.21295 0.12751 0.35288 0.0
H173 H 0.16074 0.08418 0.42039 0.0
S174 S 0.02737 0.13778 0.29275 0.0
N175 N 0.08424 0.15483 0.27241 0.0
N176 N 0.02724 0.10888 0.34646 0.0
C177 C 0.07493 0.11197 0.34995 0.0
C178 C 0.10592 0.13738 0.30991 0.0
C179 C 0.43988 0.94715 0.84922 0.0
C180 C 0.41391 0.89643 0.83847 0.0
C181 C 0.45767 0.95535 0.89402 0.0
C182 C 0.45015 0.91312 0.92984 0.0
H183 H 0.44761 0.98049 0.82241 0.0
H184 H 0.47888 0.99474 0.90002 0.0
S185 S 0.37912 0.77407 0.92107 0.0
N186 N 0.37788 0.8045 0.86825 0.0
N187 N 0.41128 0.81959 0.95235 0.0
C188 C 0.42254 0.86265 0.91997 0.0
C189 C 0.40451 0.85437 0.87435 0.0
C190 C 0.62479 0.43781 0.68847 0.0
C191 C 0.60613 0.43373 0.73494 0.0
C192 C 0.61101 0.47114 0.65362 0.0
C193 C 0.57816 0.50121 0.6643 0.0
H194 H 0.64738 0.41241 0.67834 0.0
H195 H 0.62378 0.47078 0.61756 0.0
S196 S 0.52365 0.50809 0.78236 0.0
N197 N 0.55707 0.4653 0.79123 0.0
N198 N 0.53117 0.52845 0.72563 0.0
C199 C 0.56265 0.50078 0.71154 0.0
C200 C 0.57655 0.46659 0.74698 0.0
C201 C 0.86931 0.64267 0.11295 0.0
C202 C 0.87463 0.63851 0.16155 0.0
C203 C 0.90008 0.62569 0.08215 0.0
C204 C 0.93716 0.60356 0.09896 0.0
H205 H 0.84017 0.65759 0.09868 0.0
H206 H 0.89382 0.62885 0.04495 0.0
S207 S 0.96726 0.58781 0.22419 0.0
N208 N 0.92022 0.61365 0.22573 0.0
N209 N 0.97875 0.58165 0.16811 0.0
C210 C 0.94377 0.60115 0.14782 0.0
C211 C 0.91223 0.61858 0.17911 0.0
C212 C 0.33413 0.13769 0.23558 0.0
C213 C 0.29834 0.14325 0.20462 0.0
C214 C 0.37167 0.1156 0.22174 0.0
C215 C 0.37462 0.0982 0.17648 0.0
H216 H 0.33346 0.15128 0.27044 0.0
H217 H 0.39888 0.1128 0.24657 0.0
S218 S 0.28689 0.10074 0.08397 0.0
N219 N 0.26632 0.12782 0.128 0.0
N220 N 0.3365 0.08574 0.10174 0.0
C221 C 0.33828 0.1028 0.14557 0.0
C222 C 0.30022 0.12547 0.15972 0.0
C223 C 0.20237 0.93475 0.68702 0.0
C224 C 0.24243 0.93419 0.6578 0.0
C225 C 0.16034 0.94371 0.66803 0.0
C226 C 0.15707 0.95297 0.61903 0.0
H227 H 0.20435 0.93092 0.72496 0.0
H228 H 0.13121 0.94606 0.69222 0.0
S229 S 0.25106 0.94896 0.52754 0.0
N230 N 0.27556 0.93874 0.57792 0.0
N231 N 0.1966 0.9554 0.54162 0.0
C232 C 0.19614 0.94899 0.58937 0.0
C233 C 0.23892 0.93978 0.60893 0.0
C234 C 0.76323 0.41267 0.92494 0.0
C235 C 0.75321 0.39253 0.88114 0.0
C236 C 0.8078 0.44743 0.93202 0.0
C237 C 0.84415 0.46337 0.89557 0.0
H238 H 0.73609 0.40213 0.9538 0.0
H239 H 0.81341 0.46249 0.96624 0.0
S240 S 0.83697 0.41842 0.77518 0.0
N241 N 0.78384 0.38855 0.80148 0.0
N242 N 0.86773 0.45409 0.81457 0.0
C243 C 0.83485 0.4427 0.85176 0.0
C244 C 0.78935 0.40729 0.84458 0.0
C245 C 0.70392 0.62943 0.41054 0.0
C246 C 0.70178 0.64988 0.36377 0.0
C247 C 0.66181 0.6063 0.43859 0.0
C248 C 0.61604 0.60242 0.42076 0.0
H249 H 0.73839 0.62965 0.42507 0.0
H250 H 0.66523 0.58923 0.47381 0.0
S251 S 0.59087 0.65625 0.30271 0.0
N252 N 0.65033 0.66974 0.30241 0.0
N253 N 0.57095 0.62508 0.35499 0.0
C254 C 0.61335 0.62466 0.37474 0.0
C255 C 0.65628 0.64863 0.34625 0.0
C256 C 0.16689 0.35195 0.10192 0.0
C257 C 0.1576 0.3394 0.15051 0.0
C258 C 0.14275 0.3847 0.0767 0.0
C259 C 0.10838 0.40598 0.09923 0.0
H260 H 0.19467 0.33844 0.08359 0.0
H261 H 0.15264 0.39524 0.03954 0.0
S262 S 0.06915 0.38134 0.22605 0.0
N263 N 0.11041 0.34758 0.22029 0.0
N264 N 0.06436 0.40924 0.17291 0.0
C265 C 0.09686 0.39113 0.1476 0.0
C266 C 0.12183 0.35787 0.17333 0.0
C267 C 0.57322 0.22045 0.95311 0.0
C268 C 0.62109 0.22973 0.93499 0.0
C269 C 0.55151 0.17474 0.98291 0.0
C270 C 0.57677 0.13635 0.99577 0.0
H271 H 0.55222 0.2487 0.94395 0.0
H272 H 0.51444 0.16938 0.9956 0.0
S273 S 0.7033 0.14212 0.95748 0.0
N274 N 0.69325 0.19711 0.93174 0.0
N275 N 0.65287 0.11123 0.98815 0.0
C276 C 0.62508 0.14563 0.9784 0.0
C277 C 0.64714 0.19231 0.94799 0.0
C278 C 0.88553 0.75728 0.38586 0.0
C279 C 0.86847 0.76631 0.34111 0.0
C280 C 0.9127 0.79945 0.40883 0.0
C281 C 0.92296 0.85223 0.38812 0.0
H282 H 0.87554 0.71771 0.40428 0.0
H283 H 0.92295 0.79094 0.44425 0.0
S284 S 0.89136 0.89574 0.2689 0.0
N285 N 0.86758 0.83071 0.27496 0.0
N286 N 0.91839 0.91031 0.31811 0.0
C287 C 0.90892 0.86118 0.34198 0.0
C288 C 0.88176 0.81808 0.31843 0.0
C289 C 0.42074 0.81078 0.64485 0.0
C290 C 0.40531 0.7984 0.69277 0.0
C291 C 0.43667 0.77425 0.61891 0.0
C292 C 0.43872 0.7242 0.63998 0.0
H293 H 0.42132 0.84942 0.62732 0.0
H294 H 0.44814 0.78565 0.58217 0.0
S295 S 0.39868 0.67015 0.76316 0.0
N296 N 0.38959 0.73044 0.7591 0.0
N297 N 0.42176 0.66311 0.71106 0.0
C298 C 0.42308 0.71105 0.6877 0.0
C299 C 0.40586 0.74776 0.71387 0.0
C300 C 0.93781 0.94408 0.68478 0.0
C301 C 0.89631 0.90155 0.69136 0.0
C302 C 0.95798 0.96389 0.63955 0.0
C303 C 0.93687 0.94244 0.59919 0.0
H304 H 0.95442 0.96257 0.71487 0.0
H305 H 0.98955 0.99736 0.63619 0.0
S306 S 0.82805 0.82967 0.59823 0.0
N307 N 0.83517 0.83759 0.65465 0.0
N308 N 0.87245 0.87526 0.56919 0.0
C309 C 0.89545 0.89942 0.60549 0.0
C310 C 0.87536 0.8788 0.65172 0.0
C311 C 0.61747 0.11014 0.26456 0.0
C312 C 0.64536 0.16286 0.26489 0.0
C313 C 0.58798 0.09449 0.22726 0.0
C314 C 0.58545 0.13094 0.18871 0.0
H315 H 0.61809 0.0809 0.29363 0.0
H316 H 0.56655 0.05364 0.22902 0.0
S317 S 0.65551 0.27253 0.17081 0.0
N318 N 0.67128 0.25061 0.22227 0.0
N319 N 0.61606 0.22154 0.15213 0.0
C320 C 0.61413 0.18356 0.18823 0.0
C321 C 0.644 0.19943 0.2263 0.0
C322 C 0.39276 0.54635 0.39299 0.0
C323 C 0.4102 0.59518 0.36598 0.0
C324 C 0.40859 0.53802 0.43807 0.0
C325 C 0.44238 0.57839 0.45785 0.0
H326 H 0.36704 0.51401 0.37895 0.0
H327 H 0.39444 0.49934 0.45739 0.0
S328 S 0.49869 0.71397 0.40034 0.0
N329 N 0.46243 0.68471 0.36111 0.0
N330 N 0.49255 0.66957 0.44637 0.0
C331 C 0.45955 0.62799 0.43115 0.0
C332 C 0.44342 0.63624 0.38495 0.0
C333 C 0.06181 0.45348 0.83563 0.0
C334 C 0.10411 0.43775 0.84466 0.0
C335 C 0.04617 0.48791 0.86404 0.0
C336 C 0.07218 0.50735 0.90278 0.0
H337 H 0.03932 0.43698 0.80792 0.0
H338 H 0.01181 0.49645 0.85727 0.0
S339 S 0.19001 0.48435 0.93542 0.0
N340 N 0.17487 0.44813 0.89071 0.0
N341 N 0.14621 0.51404 0.9439 0.0
C342 C 0.11668 0.49495 0.90964 0.0
C343 C 0.13246 0.4597 0.88063 0.0
C344 C 0.72529 0.92676 0.9354 0.0
C345 C 0.72565 0.92478 0.8864 0.0
C346 C 0.68511 0.93509 0.96029 0.0
C347 C 0.64467 0.94265 0.93662 0.0
H348 H 0.75694 0.92425 0.95425 0.0
H349 H 0.68684 0.93849 0.99781 0.0
S350 S 0.62685 0.93503 0.80885 0.0
N351 N 0.68142 0.92635 0.81559 0.0
N352 N 0.60606 0.94241 0.86188 0.0
C353 C 0.64395 0.93783 0.88786 0.0
C354 C 0.68452 0.92882 0.86283 0.0
C355 C 0.82963 0.15969 0.33964 0.0
C356 C 0.7829 0.14025 0.36074 0.0
C357 C 0.86628 0.13444 0.35065 0.0
C358 C 0.85759 0.08978 0.38398 0.0
H359 H 0.83779 0.19453 0.31439 0.0
H360 H 0.9018 0.15036 0.33341 0.0
S361 S 0.74067 0.02307 0.44797 0.0
N362 N 0.72929 0.07334 0.41523 0.0
N363 N 0.79837 0.02652 0.43704 0.0
C364 C 0.81093 0.07021 0.40542 0.0
C365 C 0.77348 0.09531 0.39348 0.0
C366 C 0.24347 0.64903 0.13466 0.0
C367 C 0.24646 0.64166 0.18369 0.0
C368 C 0.19985 0.6301 0.1135 0.0
C369 C 0.1576 0.60338 0.14066 0.0
H370 H 0.27544 0.66805 0.11236 0.0
H371 H 0.19962 0.63539 0.07548 0.0
S372 S 0.14599 0.57884 0.27122 0.0
N373 N 0.20342 0.60937 0.25921 0.0
N374 N 0.12117 0.57389 0.21986 0.0
C375 C 0.15987 0.59773 0.19005 0.0
C376 C 0.20439 0.61675 0.21145 0.0
C377 C 0.31105 0.3992 0.69003 0.0
C378 C 0.27193 0.41857 0.70543 0.0
C379 C 0.3562 0.43377 0.67653 0.0
C380 C 0.36423 0.48872 0.67928 0.0
H381 H 0.30662 0.35694 0.68773 0.0
H382 H 0.38501 0.41744 0.66393 0.0
S383 S 0.27529 0.56045 0.71731 0.0
N384 N 0.24491 0.49717 0.72187 0.0
N385 N 0.33074 0.56153 0.69892 0.0
C386 C 0.32639 0.50871 0.69602 0.0
C387 C 0.28001 0.47377 0.70867 0.0
C388 C 0.91647 0.77109 0.83884 0.0
C389 C 0.86879 0.77609 0.83758 0.0
C390 C 0.92771 0.72885 0.8658 0.0
C391 C 0.8917 0.68982 0.8926 0.0
H392 H 0.94555 0.80065 0.81942 0.0
H393 H 0.96506 0.72712 0.86584 0.0
S394 S 0.76057 0.68311 0.89876 0.0
N395 N 0.78499 0.73749 0.86367 0.0
N396 N 0.80574 0.65796 0.91447 0.0
C397 C 0.84365 0.694 0.89108 0.0
C398 C 0.8323 0.73716 0.86362 0.0
C399 C 0.38563 0.82285 0.19608 0.0
C400 C 0.40178 0.7764 0.19395 0.0
C401 C 0.41123 0.87116 0.17196 0.0
C402 C 0.45387 0.87483 0.14446 0.0
H403 H 0.35202 0.82137 0.21528 0.0
H404 H 0.39663 0.90552 0.17394 0.0
S405 S 0.51221 0.76447 0.12928 0.0
N406 N 0.46364 0.73699 0.1639 0.0
N407 N 0.51215 0.82771 0.11856 0.0
C408 C 0.47146 0.82895 0.14374 0.0
C409 C 0.44534 0.77978 0.16851 0.0
C410 C 0.12497 0.21171 0.67435 0.0
C411 C 0.14538 0.26503 0.65698 0.0
C412 C 0.11187 0.17168 0.64376 0.0
C413 C 0.11905 0.1834 0.59464 0.0
H414 H 0.12019 0.20056 0.71193 0.0
H415 H 0.09721 0.13103 0.65885 0.0
S416 S 0.16643 0.3177 0.53125 0.0
N417 N 0.16816 0.3282 0.58751 0.0
N418 N 0.1449 0.25281 0.52997 0.0
C419 C 0.13817 0.2368 0.57677 0.0
C420 C 0.151 0.27763 0.60793 0.0
C421 C 0.64193 0.33076 0.47344 0.0
C422 C 0.6364 0.32635 0.42523 0.0
C423 C 0.61769 0.36146 0.49815 0.0
C424 C 0.5867 0.3885 0.47558 0.0
H425 H 0.6671 0.31256 0.49176 0.0
H426 H 0.62479 0.36575 0.53488 0.0
S427 S 0.55771 0.38635 0.34993 0.0
N428 N 0.59626 0.34882 0.35587 0.0
N429 N 0.54972 0.4062 0.40251 0.0
C430 C 0.57869 0.38181 0.42779 0.0
C431 C 0.60395 0.35085 0.40246 0.0
loop_
_geom_bond_atom_site_label_1
_geom_bond_atom_site_label_2
_geom_bond_distance
_geom_bond_site_symmetry_2
_ccdc_geom_bond_type
H0 C3 0.929 . S
H1 C6 0.929 . S
H2 C8 0.930 . S
C3 H0 0.929 . S
C3 C4 1.398 . S
C3 C5 1.396 . S
C4 C3 1.398 . S
C4 C8 1.407 . S
C5 C3 1.396 . S
C5 C6 1.394 . S
C6 H1 0.929 . S
C6 C5 1.394 . S
C6 C7 1.382 . S
C7 C6 1.382 . S
C7 C8 1.392 . S
C7 N9 1.420 . S
C8 H2 0.930 . S
C8 C4 1.407 . S
C8 C7 1.392 . S
N9 C7 1.420 . S
N9 C10 1.244 . S
C10 N9 1.244 . S
H11 C14 0.929 . S
H12 C17 0.929 . S
H13 C19 0.930 . S
C14 H11 0.929 . S
C14 C15 1.398 . S
C14 C16 1.396 . S
C15 C14 1.398 . S
C15 C19 1.407 . S
C16 C14 1.396 . S
C16 C17 1.394 . S
C17 H12 0.929 . S
C17 C16 1.394 . S
C17 C18 1.382 . S
C18 C17 1.382 . S
C18 C19 1.392 . S
C18 N20 1.420 . S
C19 H13 0.930 . S
C19 C15 1.407 . S
C19 C18 1.392 . S
N20 C18 1.420 . S
N20 C21 1.244 . S
C21 N20 1.244 . S
H22 C25 0.929 . S
H23 C28 0.929 . S
H24 C30 0.930 . S
C25 H22 0.929 . S
C25 C26 1.398 . S
C25 C27 1.396 . S
C26 C25 1.398 . S
C26 C30 1.407 . S
C27 C25 1.396 . S
C27 C28 1.394 . S
C28 H23 0.929 . S
C28 C27 1.394 . S
C28 C29 1.382 . S
C29 C28 1.382 . S
C29 C30 1.392 . S
C29 N31 1.420 . S
C30 H24 0.930 . S
C30 C26 1.407 . S
C30 C29 1.392 . S
N31 C29 1.420 . S
N31 C32 1.244 . S
C32 N31 1.244 . S
H33 C36 0.929 . S
H34 C39 0.929 . S
H35 C41 0.930 . S
C36 H33 0.929 . S
C36 C37 1.398 . S
C36 C38 1.396 . S
C37 C36 1.398 . S
C37 C41 1.407 . S
C38 C36 1.396 . S
C38 C39 1.394 . S
C39 H34 0.929 . S
C39 C38 1.394 . S
C39 C40 1.382 . S
C40 C39 1.382 . S
C40 C41 1.392 . S
C40 N42 1.420 . S
C41 H35 0.930 . S
C41 C37 1.407 . S
C41 C40 1.392 . S
N42 C40 1.420 . S
N42 C43 1.244 . S
C43 N42 1.244 . S
H44 C47 0.929 . S
H45 C50 0.929 . S
H46 C52 0.930 . S
C47 H44 0.929 . S
C47 C48 1.398 . S
C47 C49 1.396 . S
C48 C47 1.398 . S
C48 C52 1.407 . S
C49 C47 1.396 . S
C49 C50 1.394 . S
C50 H45 0.929 . S
C50 C49 1.394 . S
C50 C51 1.382 . S
C51 C50 1.382 . S
C51 C52 1.392 . S
C51 N53 1.420 . S
C52 H46 0.930 . S
C52 C48 1.407 . S
C52 C51 1.392 . S
N53 C51 1.420 . S
N53 C54 1.244 . S
C54 N53 1.244 . S
H55 C58 0.929 . S
H56 C61 0.929 . S
H57 C63 0.930 . S
C58 H55 0.929 . S
C58 C59 1.398 . S
C58 C60 1.396 . S
C59 C58 1.398 . S
C59 C63 1.407 . S
C60 C58 1.396 . S
C60 C61 1.394 . S
C61 H56 0.929 . S
C61 C60 1.394 . S
C61 C62 1.382 . S
C62 C61 1.382 . S
C62 C63 1.392 . S
C62 N64 1.420 . S
C63 H57 0.930 . S
C63 C59 1.407 . S
C63 C62 1.392 . S
N64 C62 1.420 . S
N64 C65 1.244 . S
C65 N64 1.244 . S
H66 C69 0.929 . S
H67 C72 0.929 . S
H68 C74 0.930 . S
C69 H66 0.929 . S
C69 C70 1.398 . S
C69 C71 1.396 . S
C70 C69 1.398 . S
C70 C74 1.407 . S
C71 C69 1.396 . S
C71 C72 1.394 . S
C72 H67 0.929 . S
C72 C71 1.394 . S
C72 C73 1.382 . S
C73 C72 1.382 . S
C73 C74 1.392 . S
C73 N75 1.420 . S
C74 H68 0.930 . S
C74 C70 1.407 . S
C74 C73 1.392 . S
N75 C73 1.420 . S
N75 C76 1.244 . S
C76 N75 1.244 . S
H77 C80 0.929 . S
H78 C83 0.929 . S
H79 C85 0.930 . S
C80 H77 0.929 . S
C80 C81 1.398 . S
C80 C82 1.396 . S
C81 C80 1.398 . S
C81 C85 1.407 . S
C82 C80 1.396 . S
C82 C83 1.394 . S
C83 H78 0.929 . S
C83 C82 1.394 . S
C83 C84 1.382 . S
C84 C83 1.382 . S
C84 C85 1.392 . S
C84 N86 1.420 . S
C85 H79 0.930 . S
C85 C81 1.407 . S
C85 C84 1.392 . S
N86 C84 1.420 . S
N86 C87 1.244 . S
C87 N86 1.244 . S
Zn88 O94 1.969 1_545 S
Zn88 O95 1.965 1_545 S
Zn88 O99 2.024 . S
Zn88 O104 1.969 . S
Zn89 O96 1.969 1_545 S
Zn89 O102 1.969 . S
Zn89 O103 1.965 1_655 S
Zn89 O105 2.024 1_545 S
C90 O91 1.229 . S
C90 O99 1.058 . S
O91 C90 1.229 . S
C92 O93 1.229 . S
C92 O105 1.058 . S
O93 C92 1.229 . S
O94 Zn88 1.969 1_565 S
O94 C97 1.267 . S
O95 Zn88 1.965 1_565 S
O95 C106 1.260 1_455 S
O96 Zn89 1.969 1_565 S
O96 C106 1.258 . S
C97 O94 1.267 . S
C97 O98 1.228 . S
O98 C97 1.228 . S
O99 Zn88 2.024 . S
O99 C90 1.058 . S
C100 O101 1.228 . S
C100 O102 1.267 . S
O101 C100 1.228 . S
O102 Zn89 1.969 . S
O102 C100 1.267 . S
O103 Zn89 1.965 1_455 S
O103 C107 1.260 . S
O104 Zn88 1.969 . S
O104 C107 1.258 . S
O105 Zn89 2.024 1_565 S
O105 C92 1.058 . S
C106 O95 1.260 1_655 S
C106 O96 1.258 . S
C107 O103 1.260 . S
C107 O104 1.258 . S
Zn108 O114 1.969 . S
Zn108 O115 1.965 1_566 S
Zn108 O119 2.024 . S
Zn108 O124 1.969 1_556 S
Zn109 O116 1.969 . S
Zn109 O122 1.969 . S
Zn109 O123 1.965 1_545 S
Zn109 O125 2.024 . S
C110 O111 1.229 . S
C110 O119 1.058 . S
O111 C110 1.229 . S
C112 O113 1.229 . S
C112 O125 1.058 . S
O113 C112 1.229 . S
O114 Zn108 1.969 . S
O114 C117 1.267 . S
O115 Zn108 1.965 1_544 S
O115 C126 1.260 . S
O116 Zn109 1.969 . S
O116 C126 1.258 . S
C117 O114 1.267 . S
C117 O118 1.228 . S
O118 C117 1.228 . S
O119 Zn108 2.024 . S
O119 C110 1.058 . S
C120 O121 1.228 . S
C120 O122 1.267 . S
O121 C120 1.228 . S
O122 Zn109 1.969 . S
O122 C120 1.267 . S
O123 Zn109 1.965 1_565 S
O123 C127 1.260 . S
O124 Zn108 1.969 1_554 S
O124 C127 1.258 . S
O125 Zn109 2.024 . S
O125 C112 1.058 . S
C126 O115 1.260 . S
C126 O116 1.258 . S
C127 O123 1.260 . S
C127 O124 1.258 . S
Zn128 O134 1.969 . S
Zn128 O135 1.965 . S
Zn128 O139 2.024 . S
Zn128 O144 1.969 . S
Zn129 O136 1.969 . S
Zn129 O142 1.969 . S
Zn129 O143 1.965 . S
Zn129 O145 2.024 . S
C130 O131 1.229 . S
C130 O139 1.058 . S
O131 C130 1.229 . S
C132 O133 1.229 . S
C132 O145 1.058 . S
O133 C132 1.229 . S
O134 Zn128 1.969 . S
O134 C137 1.267 . S
O135 Zn128 1.965 . S
O135 C146 1.260 . S
O136 Zn129 1.969 . S
O136 C146 1.258 . S
C137 O134 1.267 . S
C137 O138 1.228 . S
O138 C137 1.228 . S
O139 Zn128 2.024 . S
O139 C130 1.058 . S
C140 O141 1.228 . S
C140 O142 1.267 . S
O141 C140 1.228 . S
O142 Zn129 1.969 . S
O142 C140 1.267 . S
O143 Zn129 1.965 . S
O143 C147 1.260 . S
O144 Zn128 1.969 . S
O144 C147 1.258 . S
O145 Zn129 2.024 . S
O145 C132 1.058 . S
C146 O135 1.260 . S
C146 O136 1.258 . S
C147 O143 1.260 . S
C147 O144 1.258 . S
Zn148 O154 1.969 . S
Zn148 O155 1.965 1_556 S
Zn148 O159 2.024 . S
Zn148 O164 1.969 1_655 S
Zn149 O156 1.969 . S
Zn149 O162 1.969 . S
Zn149 O163 1.965 1_554 S
Zn149 O165 2.024 . S
C150 O151 1.229 . S
C150 O159 1.058 . S
O151 C150 1.229 . S
C152 O153 1.229 . S
C152 O165 1.058 . S
O153 C152 1.229 . S
O154 Zn148 1.969 . S
O154 C157 1.267 . S
O155 Zn148 1.965 1_554 S
O155 C166 1.260 . S
O156 Zn149 1.969 . S
O156 C166 1.258 1_455 S
C157 O154 1.267 . S
C157 O158 1.228 . S
O158 C157 1.228 . S
O159 Zn148 2.024 . S
O159 C150 1.058 . S
C160 O161 1.228 . S
C160 O162 1.267 . S
O161 C160 1.228 . S
O162 Zn149 1.969 . S
O162 C160 1.267 . S
O163 Zn149 1.965 1_556 S
O163 C167 1.260 . S
O164 Zn148 1.969 1_455 S
O164 C167 1.258 . S
O165 Zn149 2.024 . S
O165 C152 1.058 . S
C166 O155 1.260 . S
C166 O156 1.258 1_655 S
C167 O163 1.260 . S
C167 O164 1.258 . S
C168 C169 1.369 . S
C168 C170 1.419 . S
C168 H172 0.930 . S
C169 C168 1.369 . S
C169 C178 1.429 . S
C170 C168 1.419 . S
C170 C171 1.363 . S
C170 H173 0.929 . S
C171 C170 1.363 . S
C171 C177 1.428 . S
H172 C168 0.930 . S
H173 C170 0.929 . S
S174 N175 1.613 . S
S174 N176 1.610 . S
N175 S174 1.613 . S
N175 C178 1.350 . S
N176 S174 1.610 . S
N176 C177 1.351 . S
C177 C171 1.428 . S
C177 N176 1.351 . S
C177 C178 1.434 . S
C178 C169 1.429 . S
C178 N175 1.350 . S
C178 C177 1.434 . S
C179 C180 1.369 . S
C179 C181 1.419 . S
C179 H183 0.930 . S
C180 C179 1.369 . S
C180 C189 1.429 . S
C181 C179 1.419 . S
C181 C182 1.363 . S
C181 H184 0.929 . S
C182 C181 1.363 . S
C182 C188 1.428 . S
H183 C179 0.930 . S
H184 C181 0.929 . S
S185 N186 1.613 . S
S185 N187 1.610 . S
N186 S185 1.613 . S
N186 C189 1.350 . S
N187 S185 1.610 . S
N187 C188 1.351 . S
C188 C182 1.428 . S
C188 N187 1.351 . S
C188 C189 1.434 . S
C189 C180 1.429 . S
C189 N186 1.350 . S
C189 C188 1.434 . S
C190 C191 1.369 . S
C190 C192 1.419 . S
C190 H194 0.930 . S
C191 C190 1.369 . S
C191 C200 1.429 . S
C192 C190 1.419 . S
C192 C193 1.363 . S
C192 H195 0.929 . S
C193 C192 1.363 . S
C193 C199 1.428 . S
H194 C190 0.930 . S
H195 C192 0.929 . S
S196 N197 1.613 . S
S196 N198 1.610 . S
N197 S196 1.613 . S
N197 C200 1.350 . S
N198 S196 1.610 . S
N198 C199 1.351 . S
C199 C193 1.428 . S
C199 N198 1.351 . S
C199 C200 1.434 . S
C200 C191 1.429 . S
C200 N197 1.350 . S
C200 C199 1.434 . S
C201 C202 1.369 . S
C201 C203 1.419 . S
C201 H205 0.930 . S
C202 C201 1.369 . S
C202 C211 1.429 . S
C203 C201 1.419 . S
C203 C204 1.363 . S
C203 H206 0.929 . S
C204 C203 1.363 . S
C204 C210 1.428 . S
H205 C201 0.930 . S
H206 C203 0.929 . S
S207 N208 1.613 1_455 S
S207 N209 1.610 . S
N208 S207 1.613 1_655 S
N208 C211 1.350 . S
N209 S207 1.610 . S
N209 C210 1.351 1_455 S
C210 C204 1.428 . S
C210 N209 1.351 1_655 S
C210 C211 1.434 . S
C211 C202 1.429 . S
C211 N208 1.350 . S
C211 C210 1.434 . S
C212 C213 1.369 . S
C212 C214 1.419 . S
C212 H216 0.930 . S
C213 C212 1.369 . S
C213 C222 1.429 . S
C214 C212 1.419 . S
C214 C215 1.363 . S
C214 H217 0.929 . S
C215 C214 1.363 . S
C215 C221 1.428 . S
H216 C212 0.930 . S
H217 C214 0.929 . S
S218 N219 1.613 . S
S218 N220 1.610 . S
N219 S218 1.613 . S
N219 C222 1.350 . S
N220 S218 1.610 . S
N220 C221 1.351 . S
C221 C215 1.428 . S
C221 N220 1.351 . S
C221 C222 1.434 . S
C222 C213 1.429 . S
C222 N219 1.350 . S
C222 C221 1.434 . S
C223 C224 1.369 . S
C223 C225 1.419 . S
C223 H227 0.930 . S
C224 C223 1.369 . S
C224 C233 1.429 . S
C225 C223 1.419 . S
C225 C226 1.363 . S
C225 H228 0.929 . S
C226 C225 1.363 . S
C226 C232 1.428 . S
H227 C223 0.930 . S
H228 C225 0.929 . S
S229 N230 1.613 . S
S229 N231 1.610 . S
N230 S229 1.613 . S
N230 C233 1.350 . S
N231 S229 1.610 . S
N231 C232 1.351 . S
C232 C226 1.428 . S
C232 N231 1.351 . S
C232 C233 1.434 . S
C233 C224 1.429 . S
C233 N230 1.350 . S
C233 C232 1.434 . S
C234 C235 1.369 . S
C234 C236 1.419 . S
C234 H238 0.930 . S
C235 C234 1.369 . S
C235 C244 1.429 . S
C236 C234 1.419 . S
C236 C237 1.363 . S
C236 H239 0.929 . S
C237 C236 1.363 . S
C237 C243 1.428 . S
H238 C234 0.930 . S
H239 C236 0.929 . S
S240 N241 1.613 . S
S240 N242 1.610 . S
N241 S240 1.613 . S
N241 C244 1.350 . S
N242 S240 1.610 . S
N242 C243 1.351 . S
C243 C237 1.428 . S
C243 N242 1.351 . S
C243 C244 1.434 . S
C244 C235 1.429 . S
C244 N241 1.350 . S
C244 C243 1.434 . S
C245 C246 1.369 . S
C245 C247 1.419 . S
C245 H249 0.930 . S
C246 C245 1.369 . S
C246 C255 1.429 . S
C247 C245 1.419 . S
C247 C248 1.363 . S
C247 H250 0.929 . S
C248 C247 1.363 . S
C248 C254 1.428 . S
H249 C245 0.930 . S
H250 C247 0.929 . S
S251 N252 1.613 . S
S251 N253 1.610 . S
N252 S251 1.613 . S
N252 C255 1.350 . S
N253 S251 1.610 . S
N253 C254 1.351 . S
C254 C248 1.428 . S
C254 N253 1.351 . S
C254 C255 1.434 . S
C255 C246 1.429 . S
C255 N252 1.350 . S
C255 C254 1.434 . S
C256 C257 1.369 . S
C256 C258 1.419 . S
C256 H260 0.930 . S
C257 C256 1.369 . S
C257 C266 1.429 . S
C258 C256 1.419 . S
C258 C259 1.363 . S
C258 H261 0.929 . S
C259 C258 1.363 . S
C259 C265 1.428 . S
H260 C256 0.930 . S
H261 C258 0.929 . S
S262 N263 1.613 . S
S262 N264 1.610 . S
N263 S262 1.613 . S
N263 C266 1.350 . S
N264 S262 1.610 . S
N264 C265 1.351 . S
C265 C259 1.428 . S
C265 N264 1.351 . S
C265 C266 1.434 . S
C266 C257 1.429 . S
C266 N263 1.350 . S
C266 C265 1.434 . S
C267 C268 1.369 . S
C267 C269 1.419 . S
C267 H271 0.930 . S
C268 C267 1.369 . S
C268 C277 1.429 . S
C269 C267 1.419 . S
C269 C270 1.363 . S
C269 H272 0.929 . S
C270 C269 1.363 . S
C270 C276 1.428 . S
H271 C267 0.930 . S
H272 C269 0.929 . S
S273 N274 1.613 . S
S273 N275 1.610 1_556 S
N274 S273 1.613 . S
N274 C277 1.350 . S
N275 S273 1.610 1_554 S
N275 C276 1.351 1_554 S
C276 C270 1.428 . S
C276 N275 1.351 1_556 S
C276 C277 1.434 . S
C277 C268 1.429 . S
C277 N274 1.350 . S
C277 C276 1.434 . S
C278 C279 1.369 . S
C278 C280 1.419 . S
C278 H282 0.930 . S
C279 C278 1.369 . S
C279 C288 1.429 . S
C280 C278 1.419 . S
C280 C281 1.363 . S
C280 H283 0.929 . S
C281 C280 1.363 . S
C281 C287 1.428 . S
H282 C278 0.930 . S
H283 C280 0.929 . S
S284 N285 1.613 . S
S284 N286 1.610 . S
N285 S284 1.613 . S
N285 C288 1.350 . S
N286 S284 1.610 . S
N286 C287 1.351 . S
C287 C281 1.428 . S
C287 N286 1.351 . S
C287 C288 1.434 . S
C288 C279 1.429 . S
C288 N285 1.350 . S
C288 C287 1.434 . S
C289 C290 1.369 . S
C289 C291 1.419 . S
C289 H293 0.930 . S
C290 C289 1.369 . S
C290 C299 1.429 . S
C291 C289 1.419 . S
C291 C292 1.363 . S
C291 H294 0.929 . S
C292 C291 1.363 . S
C292 C298 1.428 . S
H293 C289 0.930 . S
H294 C291 0.929 . S
S295 N296 1.613 . S
S295 N297 1.610 . S
N296 S295 1.613 . S
N296 C299 1.350 . S
N297 S295 1.610 . S
N297 C298 1.351 . S
C298 C292 1.428 . S
C298 N297 1.351 . S
C298 C299 1.434 . S
C299 C290 1.429 . S
C299 N296 1.350 . S
C299 C298 1.434 . S
C300 C301 1.369 . S
C300 C302 1.419 . S
C300 H304 0.930 . S
C301 C300 1.369 . S
C301 C310 1.429 . S
C302 C300 1.419 . S
C302 C303 1.363 . S
C302 H305 0.929 . S
C303 C302 1.363 . S
C303 C309 1.428 . S
H304 C300 0.930 . S
H305 C302 0.929 . S
S306 N307 1.613 . S
S306 N308 1.610 . S
N307 S306 1.613 . S
N307 C310 1.350 . S
N308 S306 1.610 . S
N308 C309 1.351 . S
C309 C303 1.428 . S
C309 N308 1.351 . S
C309 C310 1.434 . S
C310 C301 1.429 . S
C310 N307 1.350 . S
C310 C309 1.434 . S
C311 C312 1.369 . S
C311 C313 1.419 . S
C311 H315 0.930 . S
C312 C311 1.369 . S
C312 C321 1.429 . S
C313 C311 1.419 . S
C313 C314 1.363 . S
C313 H316 0.929 . S
C314 C313 1.363 . S
C314 C320 1.428 . S
H315 C311 0.930 . S
H316 C313 0.929 . S
S317 N318 1.613 . S
S317 N319 1.610 . S
N318 S317 1.613 . S
N318 C321 1.350 . S
N319 S317 1.610 . S
N319 C320 1.351 . S
C320 C314 1.428 . S
C320 N319 1.351 . S
C320 C321 1.434 . S
C321 C312 1.429 . S
C321 N318 1.350 . S
C321 C320 1.434 . S
C322 C323 1.369 . S
C322 C324 1.419 . S
C322 H326 0.930 . S
C323 C322 1.369 . S
C323 C332 1.429 . S
C324 C322 1.419 . S
C324 C325 1.363 . S
C324 H327 0.929 . S
C325 C324 1.363 . S
C325 C331 1.428 . S
H326 C322 0.930 . S
H327 C324 0.929 . S
S328 N329 1.613 . S
S328 N330 1.610 . S
N329 S328 1.613 . S
N329 C332 1.350 . S
N330 S328 1.610 . S
N330 C331 1.351 . S
C331 C325 1.428 . S
C331 N330 1.351 . S
C331 C332 1.434 . S
C332 C323 1.429 . S
C332 N329 1.350 . S
C332 C331 1.434 . S
C333 C334 1.369 . S
C333 C335 1.419 . S
C333 H337 0.930 . S
C334 C333 1.369 . S
C334 C343 1.429 . S
C335 C333 1.419 . S
C335 C336 1.363 . S
C335 H338 0.929 . S
C336 C335 1.363 . S
C336 C342 1.428 . S
H337 C333 0.930 . S
H338 C335 0.929 . S
S339 N340 1.613 . S
S339 N341 1.610 . S
N340 S339 1.613 . S
N340 C343 1.350 . S
N341 S339 1.610 . S
N341 C342 1.351 . S
C342 C336 1.428 . S
C342 N341 1.351 . S
C342 C343 1.434 . S
C343 C334 1.429 . S
C343 N340 1.350 . S
C343 C342 1.434 . S
C344 C345 1.369 . S
C344 C346 1.419 . S
C344 H348 0.930 . S
C345 C344 1.369 . S
C345 C354 1.429 . S
C346 C344 1.419 . S
C346 C347 1.363 . S
C346 H349 0.929 . S
C347 C346 1.363 . S
C347 C353 1.428 . S
H348 C344 0.930 . S
H349 C346 0.929 . S
S350 N351 1.613 . S
S350 N352 1.610 . S
N351 S350 1.613 . S
N351 C354 1.350 . S
N352 S350 1.610 . S
N352 C353 1.351 . S
C353 C347 1.428 . S
C353 N352 1.351 . S
C353 C354 1.434 . S
C354 C345 1.429 . S
C354 N351 1.350 . S
C354 C353 1.434 . S
C355 C356 1.369 . S
C355 C357 1.419 . S
C355 H359 0.930 . S
C356 C355 1.369 . S
C356 C365 1.429 . S
C357 C355 1.419 . S
C357 C358 1.363 . S
C357 H360 0.929 . S
C358 C357 1.363 . S
C358 C364 1.428 . S
H359 C355 0.930 . S
H360 C357 0.929 . S
S361 N362 1.613 . S
S361 N363 1.610 . S
N362 S361 1.613 . S
N362 C365 1.350 . S
N363 S361 1.610 . S
N363 C364 1.351 . S
C364 C358 1.428 . S
C364 N363 1.351 . S
C364 C365 1.434 . S
C365 C356 1.429 . S
C365 N362 1.350 . S
C365 C364 1.434 . S
C366 C367 1.369 . S
C366 C368 1.419 . S
C366 H370 0.930 . S
C367 C366 1.369 . S
C367 C376 1.429 . S
C368 C366 1.419 . S
C368 C369 1.363 . S
C368 H371 0.929 . S
C369 C368 1.363 . S
C369 C375 1.428 . S
H370 C366 0.930 . S
H371 C368 0.929 . S
S372 N373 1.613 . S
S372 N374 1.610 . S
N373 S372 1.613 . S
N373 C376 1.350 . S
N374 S372 1.610 . S
N374 C375 1.351 . S
C375 C369 1.428 . S
C375 N374 1.351 . S
C375 C376 1.434 . S
C376 C367 1.429 . S
C376 N373 1.350 . S
C376 C375 1.434 . S
C377 C378 1.369 . S
C377 C379 1.419 . S
C377 H381 0.930 . S
C378 C377 1.369 . S
C378 C387 1.429 . S
C379 C377 1.419 . S
C379 C380 1.363 . S
C379 H382 0.929 . S
C380 C379 1.363 . S
C380 C386 1.428 . S
H381 C377 0.930 . S
H382 C379 0.929 . S
S383 N384 1.613 . S
S383 N385 1.610 . S
N384 S383 1.613 . S
N384 C387 1.350 . S
N385 S383 1.610 . S
N385 C386 1.351 . S
C386 C380 1.428 . S
C386 N385 1.351 . S
C386 C387 1.434 . S
C387 C378 1.429 . S
C387 N384 1.350 . S
C387 C386 1.434 . S
C388 C389 1.369 . S
C388 C390 1.419 . S
C388 H392 0.930 . S
C389 C388 1.369 . S
C389 C398 1.429 . S
C390 C388 1.419 . S
C390 C391 1.363 . S
C390 H393 0.929 . S
C391 C390 1.363 . S
C391 C397 1.428 . S
H392 C388 0.930 . S
H393 C390 0.929 . S
S394 N395 1.613 . S
S394 N396 1.610 . S
N395 S394 1.613 . S
N395 C398 1.350 . S
N396 S394 1.610 . S
N396 C397 1.351 . S
C397 C391 1.428 . S
C397 N396 1.351 . S
C397 C398 1.434 . S
C398 C389 1.429 . S
C398 N395 1.350 . S
C398 C397 1.434 . S
C399 C400 1.369 . S
C399 C401 1.419 . S
C399 H403 0.930 . S
C400 C399 1.369 . S
C400 C409 1.429 . S
C401 C399 1.419 . S
C401 C402 1.363 . S
C401 H404 0.929 . S
C402 C401 1.363 . S
C402 C408 1.428 . S
H403 C399 0.930 . S
H404 C401 0.929 . S
S405 N406 1.613 . S
S405 N407 1.610 . S
N406 S405 1.613 . S
N406 C409 1.350 . S
N407 S405 1.610 . S
N407 C408 1.351 . S
C408 C402 1.428 . S
C408 N407 1.351 . S
C408 C409 1.434 . S
C409 C400 1.429 . S
C409 N406 1.350 . S
C409 C408 1.434 . S
C410 C411 1.369 . S
C410 C412 1.419 . S
C410 H414 0.930 . S
C411 C410 1.369 . S
C411 C420 1.429 . S
C412 C410 1.419 . S
C412 C413 1.363 . S
C412 H415 0.929 . S
C413 C412 1.363 . S
C413 C419 1.428 . S
H414 C410 0.930 . S
H415 C412 0.929 . S
S416 N417 1.613 . S
S416 N418 1.610 . S
N417 S416 1.613 . S
N417 C420 1.350 . S
N418 S416 1.610 . S
N418 C419 1.351 . S
C419 C413 1.428 . S
C419 N418 1.351 . S
C419 C420 1.434 . S
C420 C411 1.429 . S
C420 N417 1.350 . S
C420 C419 1.434 . S
C421 C422 1.369 . S
C421 C423 1.419 . S
C421 H425 0.930 . S
C422 C421 1.369 . S
C422 C431 1.429 . S
C423 C421 1.419 . S
C423 C424 1.363 . S
C423 H426 0.929 . S
C424 C423 1.363 . S
C424 C430 1.428 . S
H425 C421 0.930 . S
H426 C423 0.929 . S
S427 N428 1.613 . S
S427 N429 1.610 . S
N428 S427 1.613 . S
N428 C431 1.350 . S
N429 S427 1.610 . S
N429 C430 1.351 . S
C430 C424 1.428 . S
C430 N429 1.351 . S
C430 C431 1.434 . S
C431 C422 1.429 . S
C431 N428 1.350 . S
C431 C430 1.434 . S
C169 C4 1.596 . S
C171 C107 1.592 . S
C180 C16 1.460 . S
C182 C110 1.411 . S
C193 C146 1.463 . S
C191 C32 1.493 . S
C202 C43 1.586 . S
C204 C166 1.587 . S
C215 C120 1.950 . S
C213 C5 1.962 . S
C226 C97 1.276 . S
C224 C21 1.304 . S
C237 C150 1.484 . S
C235 C27 1.554 . S
C248 C130 1.307 . S
C246 C37 1.417 . S
C257 C10 1.398 . S
C259 C160 1.322 . S
C270 C126 1.770 1_556 S
C268 C26 1.799 . S
C279 C38 1.470 . S
C281 C92 1.444 . S
C290 C15 1.460 . S
C292 C140 1.403 . S
C303 C106 1.633 . S
C301 C48 1.642 . S
C312 C59 1.329 . S
C314 C112 1.298 . S
C323 C76 1.751 . S
C325 C147 1.739 . S
C334 C87 1.485 . S
C336 C167 1.458 . S
C345 C54 1.511 . S
C347 C117 1.468 . S
C358 C100 1.831 . S
C356 C60 1.819 . S
C369 C152 1.453 . S
C367 C71 1.617 . S
C380 C132 1.313 . S
C378 C82 1.347 . S
C389 C49 1.599 . S
C391 C157 1.496 . S
C402 C127 1.459 . S
C400 C70 1.473 . S
C413 C90 1.677 . S
C411 C81 1.718 . S
C422 C65 1.324 . S
C424 C137 1.275 . S
