# Generated by pormake.
# Topology pyr, (3,6)-cn, num edge types: 1
# Building blocks:
#     Node 0, Type 0, BuildingBlock: ESEHIV_clean_linker_0, # of connection points: 3
#     Node 1, Type 0, BuildingBlock: ESEHIV_clean_linker_0, # of connection points: 3
#     Node 2, Type 0, BuildingBlock: ESEHIV_clean_linker_0, # of connection points: 3
#     Node 3, Type 0, BuildingBlock: ESEHIV_clean_linker_0, # of connection points: 3
#     Node 4, Type 0, BuildingBlock: ESEHIV_clean_linker_0, # of connection points: 3
#     Node 5, Type 0, BuildingBlock: ESEHIV_clean_linker_0, # of connection points: 3
#     Node 6, Type 0, BuildingBlock: ESEHIV_clean_linker_0, # of connection points: 3
#     Node 7, Type 0, BuildingBlock: ESEHIV_clean_linker_0, # of connection points: 3
#     Node 8, Type 1, BuildingBlock: PAMTOO_clean_sbu_0, # of connection points: 6
#     Node 9, Type 1, BuildingBlock: PAMTOO_clean_sbu_0, # of connection points: 6
#     Node 10, Type 1, BuildingBlock: PAMTOO_clean_sbu_0, # of connection points: 6
#     Node 11, Type 1, BuildingBlock: PAMTOO_clean_sbu_0, # of connection points: 6
#     Edge 12, Type (0, 1), BuildingBlock: CIFDUS_clean_linker_0, # of connection points: 2
#     Edge 13, Type (0, 1), BuildingBlock: CIFDUS_clean_linker_0, # of connection points: 2
#     Edge 14, Type (0, 1), BuildingBlock: CIFDUS_clean_linker_0, # of connection points: 2
#     Edge 15, Type (0, 1), BuildingBlock: CIFDUS_clean_linker_0, # of connection points: 2
#     Edge 16, Type (0, 1), BuildingBlock: CIFDUS_clean_linker_0, # of connection points: 2
#     Edge 17, Type (0, 1), BuildingBlock: CIFDUS_clean_linker_0, # of connection points: 2
#     Edge 18, Type (0, 1), BuildingBlock: CIFDUS_clean_linker_0, # of connection points: 2
#     Edge 19, Type (0, 1), BuildingBlock: CIFDUS_clean_linker_0, # of connection points: 2
#     Edge 20, Type (0, 1), BuildingBlock: CIFDUS_clean_linker_0, # of connection points: 2
#     Edge 21, Type (0, 1), BuildingBlock: CIFDUS_clean_linker_0, # of connection points: 2
#     Edge 22, Type (0, 1), BuildingBlock: CIFDUS_clean_linker_0, # of connection points: 2
#     Edge 23, Type (0, 1), BuildingBlock: CIFDUS_clean_linker_0, # of connection points: 2
#     Edge 24, Type (0, 1), BuildingBlock: CIFDUS_clean_linker_0, # of connection points: 2
#     Edge 25, Type (0, 1), BuildingBlock: CIFDUS_clean_linker_0, # of connection points: 2
#     Edge 26, Type (0, 1), BuildingBlock: CIFDUS_clean_linker_0, # of connection points: 2
#     Edge 27, Type (0, 1), BuildingBlock: CIFDUS_clean_linker_0, # of connection points: 2
#     Edge 28, Type (0, 1), BuildingBlock: CIFDUS_clean_linker_0, # of connection points: 2
#     Edge 29, Type (0, 1), BuildingBlock: CIFDUS_clean_linker_0, # of connection points: 2
#     Edge 30, Type (0, 1), BuildingBlock: CIFDUS_clean_linker_0, # of connection points: 2
#     Edge 31, Type (0, 1), BuildingBlock: CIFDUS_clean_linker_0, # of connection points: 2
#     Edge 32, Type (0, 1), BuildingBlock: CIFDUS_clean_linker_0, # of connection points: 2
#     Edge 33, Type (0, 1), BuildingBlock: CIFDUS_clean_linker_0, # of connection points: 2
#     Edge 34, Type (0, 1), BuildingBlock: CIFDUS_clean_linker_0, # of connection points: 2
#     Edge 35, Type (0, 1), BuildingBlock: CIFDUS_clean_linker_0, # of connection points: 2
# Relax obj value: 0.159
# Max RMSD: 0.185
# Mean RMSD: 0.076
data_MOF--net-pyr--node1-PAMTOO_clean_sbu_0--node2-ESEHIV_clean_linker_0--edge1-CIFDUS_clean_linker_0
_symmetry_space_group_name_H-M    P1
_symmetry_Int_Tables_number       1
_symmetry_cell_setting            triclinic
loop_
_symmetry_equiv_pos_as_xyz
'x, y, z'
_cell_length_a     30.934926
_cell_length_b     32.253488
_cell_length_c     30.003037
_cell_angle_alpha  90.136033
_cell_angle_beta   90.213278
_cell_angle_gamma 105.26431
loop_
_atom_site_label
_atom_site_type_symbol
_atom_site_fract_x
_atom_site_fract_y
_atom_site_fract_z
_atom_type_partial_charge
H0 H 0.33891 0.33911 0.3208 0.0
H1 H 0.44175 0.27498 0.29877 0.0
H2 H 0.38995 0.3334 0.1892 0.0
C3 C 0.36389 0.33196 0.2991 0.0
C4 C 0.36214 0.34062 0.25341 0.0
C5 C 0.3929 0.30878 0.31607 0.0
C6 C 0.42105 0.29465 0.28624 0.0
C7 C 0.41828 0.30093 0.23998 0.0
C8 C 0.39123 0.32689 0.22449 0.0
H9 H 0.07514 0.80069 0.83797 0.0
H10 H 0.14906 0.70463 0.83448 0.0
H11 H 0.11164 0.75595 0.71292 0.0
C12 C 0.08842 0.77765 0.81997 0.0
C13 C 0.08673 0.77803 0.77325 0.0
C14 C 0.11264 0.7528 0.84273 0.0
C15 C 0.13086 0.72456 0.81772 0.0
C16 C 0.13228 0.72679 0.77104 0.0
C17 C 0.10961 0.75318 0.74891 0.0
H18 H 0.6811 0.35812 0.96636 0.0
H19 H 0.69386 0.45395 0.86464 0.0
H20 H 0.57771 0.34432 0.86765 0.0
C21 C 0.66808 0.37007 0.93687 0.0
C22 C 0.62688 0.3465 0.9192 0.0
C23 C 0.6927 0.40865 0.91766 0.0
C24 C 0.6748 0.42446 0.87997 0.0
C25 C 0.63331 0.40152 0.86104 0.0
C26 C 0.60986 0.36214 0.88094 0.0
H27 H 0.82943 0.72208 0.47556 0.0
H28 H 0.93141 0.73418 0.37645 0.0
H29 H 0.81082 0.62943 0.36944 0.0
C30 C 0.84131 0.71041 0.4453 0.0
C31 C 0.81491 0.67324 0.42461 0.0
C32 C 0.88303 0.73276 0.42819 0.0
C33 C 0.89878 0.71737 0.38911 0.0
C34 C 0.8734 0.67938 0.36769 0.0
C35 C 0.83135 0.65775 0.38593 0.0
H36 H 0.60183 0.80127 0.8819 0.0
H37 H 0.66946 0.7007 0.88943 0.0
H38 H 0.63844 0.75991 1.00883 0.0
C39 C 0.61372 0.77803 0.90109 0.0
C40 C 0.61349 0.78084 0.9478 0.0
C41 C 0.63544 0.7504 0.87948 0.0
C42 C 0.6524 0.72203 0.90549 0.0
C43 C 0.655 0.7264 0.95194 0.0
C44 C 0.6349 0.75534 0.97306 0.0
H45 H 0.82052 0.35346 0.39076 0.0
H46 H 0.8891 0.25445 0.38079 0.0
H47 H 0.88702 0.31915 0.50571 0.0
C48 C 0.842 0.33559 0.40558 0.0
C49 C 0.85262 0.34075 0.45121 0.0
C50 C 0.85352 0.30364 0.38016 0.0
C51 C 0.88067 0.27994 0.3996 0.0
C52 C 0.89374 0.28596 0.44457 0.0
C53 C 0.87962 0.31647 0.47032 0.0
H54 H 0.33788 0.74021 0.20028 0.0
H55 H 0.32478 0.6275 0.28087 0.0
H56 H 0.4329 0.74048 0.30554 0.0
C57 C 0.34971 0.72386 0.22737 0.0
C58 C 0.38821 0.74561 0.25134 0.0
C59 C 0.32636 0.68137 0.23756 0.0
C60 C 0.34217 0.66038 0.2728 0.0
C61 C 0.38042 0.68147 0.29775 0.0
C62 C 0.4033 0.72416 0.28676 0.0
H63 H 0.09006 0.32962 0.82059 0.0
H64 H 0.19665 0.34334 0.72532 0.0
H65 H 0.18476 0.45265 0.80179 0.0
C66 C 0.11925 0.34943 0.80394 0.0
C67 C 0.13518 0.3934 0.81546 0.0
C68 C 0.14119 0.33117 0.77091 0.0
C69 C 0.17935 0.3574 0.75008 0.0
C70 C 0.19572 0.40117 0.76085 0.0
C71 C 0.17296 0.41886 0.79332 0.0
Dy72 Dy 0.05552 0.04979 0.56907 0.0
Dy73 Dy 0.95767 1.01994 0.61732 0.0
C74 C 0.0316 0.10544 0.65 0.0
O75 O 0.05612 0.99128 0.6074 0.0
O76 O 1.00023 0.98789 0.65847 0.0
O77 O 0.12717 0.06028 0.57202 0.0
O78 O 0.09408 0.06485 0.50857 0.0
O79 O 0.96381 0.96247 0.57901 0.0
O80 O 0.01013 0.99948 0.52522 0.0
O81 O 0.95173 0.05475 0.55413 0.0
O82 O 0.02162 0.10062 0.55178 0.0
O83 O 0.88635 0.99908 0.60671 0.0
O84 O 0.91312 1.01143 0.6738 0.0
C85 C 0.0355 0.97623 0.64432 0.0
O86 O 0.06323 0.09159 0.63035 0.0
O87 O 0.98888 0.08623 0.64376 0.0
C88 C 0.17226 0.09848 0.51335 0.0
C89 C 0.25463 0.14967 0.48215 0.0
C90 C 0.23985 0.15638 0.52518 0.0
C91 C 0.19891 0.13064 0.54088 0.0
C92 C 0.18649 0.09284 0.47013 0.0
C93 C 0.22712 0.11814 0.45465 0.0
C94 C 0.13187 0.06722 0.52926 0.0
C95 C 0.98186 0.96403 0.53941 0.0
C96 C 0.97888 0.09144 0.54204 0.0
C97 C 0.84691 0.95627 0.66385 0.0
C98 C 0.78983 0.87987 0.69684 0.0
C99 C 0.82956 0.87914 0.67452 0.0
C100 C 0.85796 0.91712 0.6582 0.0
C101 C 0.8066 0.95698 0.68436 0.0
C102 C 0.77825 0.9191 0.70077 0.0
C103 C 0.87746 0.99662 0.64919 0.0
H104 H 0.26027 0.18081 0.54679 0.0
H105 H 0.18853 0.13535 0.57454 0.0
H106 H 0.1665 0.0681 0.44849 0.0
H107 H 0.23694 0.11306 0.42087 0.0
H108 H 0.83925 0.84941 0.67076 0.0
H109 H 0.88896 0.91613 0.64207 0.0
H110 H 0.79764 0.98702 0.68879 0.0
H111 H 0.7484 0.92099 0.71851 0.0
Dy112 Dy 0.45391 1.03332 1.05414 0.0
Dy113 Dy 0.55545 0.0482 0.0948 0.0
C114 C 0.47317 0.97612 0.13485 0.0
O115 O 0.46835 0.09609 1.08972 0.0
O116 O 0.52396 0.08897 0.13782 0.0
O117 O 0.38464 1.03183 1.0651 0.0
O118 O 0.4067 1.01765 0.99963 0.0
O119 O 0.55676 0.1073 1.05508 0.0
O120 O 0.49915 0.07844 1.00649 0.0
O121 O 0.55024 1.00877 1.03318 0.0
O122 O 0.47577 0.97491 1.03533 0.0
O123 O 0.62589 0.06009 1.08067 0.0
O124 O 0.60202 0.04836 0.14858 0.0
C125 C 0.49369 0.10855 0.12505 0.0
O126 O 0.44692 0.99887 0.11941 0.0
O127 O 0.51566 0.98537 0.12359 0.0
C128 C 0.33644 0.97709 1.02357 0.0
C129 C 0.27233 0.89834 1.00968 0.0
C130 C 0.31157 0.8999 1.03415 0.0
C131 C 0.34341 0.93904 1.04106 0.0
C132 C 0.29618 0.97613 1.00172 0.0
C133 C 0.26422 0.93702 0.99492 0.0
C134 C 0.37248 1.01694 1.02526 0.0
C135 C 0.53443 0.10943 1.01814 0.0
C136 C 0.51676 0.97551 1.02401 0.0
C137 C 0.67314 0.09554 0.13795 0.0
C138 C 0.73979 0.16361 0.17493 0.0
C139 C 0.70176 0.17146 0.15436 0.0
C140 C 0.66858 0.1376 0.1361 0.0
C141 C 0.71193 0.08783 0.15629 0.0
C142 C 0.74509 0.12162 0.17464 0.0
C143 C 0.63691 0.05934 0.12258 0.0
H144 H 0.3186 0.87064 1.04599 0.0
H145 H 0.37436 0.93937 1.05829 0.0
H146 H 0.29036 1.0053 0.98813 0.0
H147 H 0.23465 0.93678 0.97535 0.0
H148 H 0.69695 0.20353 0.15381 0.0
H149 H 0.63879 0.14401 0.12174 0.0
H150 H 0.71585 0.05545 0.1578 0.0
H151 H 0.77363 0.11444 0.19081 0.0
Dy152 Dy 0.50184 0.51024 0.56156 0.0
Dy153 Dy 0.49912 0.59498 0.61957 0.0
C154 C 0.5438 0.52546 0.66104 0.0
O155 O 0.42982 0.49786 0.58138 0.0
O156 O 0.44279 0.54094 0.64334 0.0
O157 O 0.49619 0.44206 0.55655 0.0
O158 O 0.51585 0.48307 0.49914 0.0
O159 O 0.45169 0.59261 0.56256 0.0
O160 O 0.48305 0.5557 0.51277 0.0
O161 O 0.55764 0.61659 0.57346 0.0
O162 O 0.57215 0.55141 0.56298 0.0
O163 O 0.4994 0.66205 0.62217 0.0
O164 O 0.49047 0.6244 0.68254 0.0
C165 C 0.41665 0.50985 0.61982 0.0
O166 O 0.52035 0.49776 0.63202 0.0
O167 O 0.54787 0.56693 0.65667 0.0
C168 C 0.55727 0.43353 0.51329 0.0
C169 C 0.64529 0.42549 0.50315 0.0
C170 C 0.62823 0.42926 0.54581 0.0
C171 C 0.58474 0.43364 0.55084 0.0
C172 C 0.57371 0.42802 0.47083 0.0
C173 C 0.61737 0.42417 0.46578 0.0
C174 C 0.51504 0.44626 0.51737 0.0
C175 C 0.45888 0.58273 0.52128 0.0
C176 C 0.58387 0.59332 0.55906 0.0
C177 C 0.44468 0.67116 0.67222 0.0
C178 C 0.36304 0.69265 0.68614 0.0
C179 C 0.36338 0.65292 0.66702 0.0
C180 C 0.40381 0.64235 0.66002 0.0
C181 C 0.44468 0.7108 0.6913 0.0
C182 C 0.40417 0.72151 0.6982 0.0
C183 C 0.4869 0.65975 0.66372 0.0
H184 H 0.64909 0.43046 0.57512 0.0
H185 H 0.57332 0.43875 0.58399 0.0
H186 H 0.55339 0.42843 0.44142 0.0
H187 H 0.6295 0.42062 0.43254 0.0
H188 H 0.33243 0.63022 0.65687 0.0
H189 H 0.40319 0.61168 0.64484 0.0
H190 H 0.47593 0.73343 0.70081 0.0
H191 H 0.405 0.75216 0.71349 0.0
Dy192 Dy 0.0063 0.56872 1.07001 0.0
Dy193 Dy 0.99842 0.48194 0.12747 0.0
C194 C 0.95523 0.55357 0.16469 0.0
O195 O 0.07613 0.57529 0.09614 0.0
O196 O 0.05285 0.53414 0.15755 0.0
O197 O 0.02165 0.63808 1.06758 0.0
O198 O 0.99579 0.60039 1.0091 0.0
O199 O 0.04932 0.48214 1.07433 0.0
O200 O 0.02645 0.52333 1.02218 0.0
O201 O 0.9442 0.46278 1.07628 0.0
O202 O 0.9349 0.52966 1.06248 0.0
O203 O 1.00311 0.41624 0.13178 0.0
O204 O 0.99127 0.44967 0.1911 0.0
C205 C 0.08374 0.56301 0.13654 0.0
O206 O 0.98289 0.58081 0.13864 0.0
O207 O 0.94814 0.51193 0.1586 0.0
C208 C 0.96459 0.65659 1.02726 0.0
C209 C 0.88738 0.68687 1.02106 0.0
C210 C 0.88795 0.65216 1.04894 0.0
C211 C 0.92625 0.63731 1.05214 0.0
C212 C 0.96468 0.69182 1.00005 0.0
C213 C 0.92632 0.70706 0.99715 0.0
C214 C 1.00287 0.63774 1.02857 0.0
C215 C 0.04673 0.49358 1.03259 0.0
C216 C 0.92127 0.48763 1.05854 0.0
C217 C 0.04558 0.41047 0.19517 0.0
C218 C 0.13055 0.40111 0.22009 0.0
C219 C 0.12077 0.44105 0.22424 0.0
C220 C 0.07881 0.44565 0.21192 0.0
C221 C 0.05463 0.3702 0.19227 0.0
C222 C 0.09674 0.3655 0.20475 0.0
C223 C 0.00447 0.41741 0.17519 0.0
H224 H 0.85864 0.63633 1.06808 0.0
H225 H 0.92568 0.61018 1.07355 0.0
H226 H 0.99396 0.70696 0.98054 0.0
H227 H 0.9266 0.73373 0.97517 0.0
H228 H 0.14609 0.46924 0.23536 0.0
H229 H 0.073 0.47723 0.21403 0.0
H230 H 0.02966 0.34276 0.17902 0.0
H231 H 0.10304 0.33414 0.20178 0.0
H232 H 0.39694 0.22927 0.34413 0.0
H233 H 0.36988 0.34633 0.39215 0.0
H234 H 0.3294 0.30733 0.45545 0.0
H235 H 0.2871 0.23687 0.48536 0.0
H236 H 0.31795 0.12164 0.43783 0.0
H237 H 0.37346 0.16387 0.38699 0.0
C238 C 0.38434 0.24723 0.3692 0.0
C239 C 0.38485 0.29048 0.36194 0.0
C240 C 0.36114 0.22472 0.40539 0.0
C241 C 0.36827 0.31255 0.39568 0.0
C242 C 0.34511 0.29029 0.432 0.0
C243 C 0.30724 0.22127 0.46512 0.0
C244 C 0.29734 0.17617 0.46392 0.0
C245 C 0.33882 0.24576 0.43543 0.0
C246 C 0.32407 0.15631 0.43811 0.0
C247 C 0.35576 0.18039 0.40902 0.0
H248 H 0.19328 0.75096 0.87928 0.0
H249 H 0.07027 0.78385 0.91186 0.0
H250 H 0.1085 0.82868 0.97328 0.0
H251 H 0.1808 0.87004 1.00612 0.0
H252 H 0.30169 0.83417 0.9726 0.0
H253 H 0.25924 0.7771 0.92452 0.0
C254 C 0.17358 0.76597 0.90058 0.0
C255 C 0.12912 0.76528 0.88912 0.0
C256 C 0.19564 0.79165 0.9357 0.0
C257 C 0.1051 0.7853 0.91825 0.0
C258 C 0.12692 0.81094 0.95357 0.0
C259 C 0.1975 0.84888 0.98919 0.0
C260 C 0.24441 0.8569 0.99217 0.0
C261 C 0.17294 0.81645 0.96069 0.0
C262 C 0.26565 0.8288 0.97088 0.0
C263 C 0.24144 0.79634 0.94297 0.0
H264 H 0.63609 0.48544 0.84006 0.0
H265 H 0.58858 0.35582 0.78971 0.0
H266 H 0.55736 0.38234 0.72426 0.0
H267 H 0.54302 0.44218 0.68082 0.0
H268 H 0.59143 0.57197 0.73036 0.0
H269 H 0.62325 0.54556 0.79569 0.0
C270 C 0.61934 0.4629 0.81463 0.0
C271 C 0.61473 0.41842 0.82045 0.0
C272 C 0.60157 0.47846 0.77655 0.0
C273 C 0.59217 0.39003 0.78701 0.0
C274 C 0.57448 0.40525 0.7492 0.0
C275 C 0.56059 0.46483 0.70579 0.0
C276 C 0.56458 0.5092 0.7003 0.0
C277 C 0.57883 0.44937 0.7436 0.0
C278 C 0.58767 0.53775 0.73331 0.0
C279 C 0.6059 0.52261 0.77089 0.0
H280 H 0.86431 0.59503 0.34311 0.0
H281 H 0.92155 0.72505 0.29853 0.0
H282 H 0.95092 0.69797 0.2324 0.0
H283 H 0.96123 0.63748 0.18698 0.0
H284 H 0.90249 0.50745 0.23053 0.0
H285 H 0.87218 0.5345 0.29629 0.0
C286 C 0.88269 0.6176 0.31876 0.0
C287 C 0.89067 0.66229 0.32649 0.0
C288 C 0.89921 0.60175 0.2802 0.0
C289 C 0.91537 0.69062 0.29442 0.0
C290 C 0.93198 0.67511 0.2562 0.0
C291 C 0.94162 0.61493 0.21068 0.0
C292 C 0.93437 0.5703 0.20346 0.0
C293 C 0.92429 0.63075 0.24876 0.0
C294 C 0.90872 0.54187 0.23482 0.0
C295 C 0.89141 0.55736 0.27267 0.0
H296 H 0.49232 0.26824 0.24727 0.0
H297 H 0.37916 0.26671 0.16126 0.0
H298 H 0.39527 0.21016 0.11709 0.0
H299 H 0.43475 0.15518 0.10737 0.0
H300 H 0.54333 0.15006 0.1962 0.0
H301 H 0.53422 0.21378 0.23566 0.0
C302 C 0.47106 0.25566 0.21894 0.0
C303 C 0.4344 0.27235 0.20827 0.0
C304 C 0.47878 0.2209 0.19469 0.0
C305 C 0.40828 0.25594 0.17037 0.0
C306 C 0.41688 0.22271 0.14524 0.0
C307 C 0.45663 0.16787 0.1353 0.0
C308 C 0.48927 0.1474 0.14912 0.0
C309 C 0.45101 0.20406 0.15795 0.0
C310 C 0.51749 0.16479 0.18516 0.0
C311 C 0.51244 0.20137 0.20761 0.0
H312 H 0.12938 0.83777 0.71446 0.0
H313 H 0.00417 0.79269 0.78381 0.0
H314 H 0.97712 0.85118 0.75159 0.0
H315 H 0.98984 0.9158 0.70366 0.0
H316 H 0.11686 0.9605 0.63654 0.0
H317 H 0.14242 0.90184 0.66814 0.0
C318 C 0.09588 0.84034 0.72188 0.0
C319 C 0.06847 0.81067 0.75074 0.0
C320 C 0.08109 0.87438 0.70409 0.0
C321 C 0.02563 0.81505 0.76122 0.0
C322 C 0.01031 0.84856 0.74302 0.0
C323 C 0.02324 0.91291 0.69642 0.0
C324 C 0.05128 0.94254 0.66771 0.0
C325 C 0.03791 0.87868 0.71461 0.0
C326 C 0.09439 0.93809 0.65833 0.0
C327 C 0.10913 0.90446 0.6763 0.0
H328 H 0.75724 0.37341 0.95 0.0
H329 H 0.72763 0.49573 0.93196 0.0
H330 H 0.7959 0.53138 0.97334 0.0
H331 H 0.86225 0.52694 1.01829 0.0
H332 H 0.88751 0.40279 1.03877 0.0
H333 H 0.82203 0.36883 0.9941 0.0
C334 C 0.76536 0.40788 0.95531 0.0
C335 C 0.73677 0.43165 0.93821 0.0
C336 C 0.80372 0.42785 0.98026 0.0
C337 C 0.74894 0.47651 0.9444 0.0
C338 C 0.78781 0.49687 0.96851 0.0
C339 C 0.85336 0.49244 1.01312 0.0
C340 C 0.87996 0.46756 1.03233 0.0
C341 C 0.81513 0.47275 0.98726 0.0
C342 C 0.86781 0.42289 1.0249 0.0
C343 C 0.83034 0.40333 0.99908 0.0
H344 H 0.75284 0.70975 0.46068 0.0
H345 H 0.7773 0.58629 0.43438 0.0
H346 H 0.70836 0.55071 0.47378 0.0
H347 H 0.64253 0.55497 0.51819 0.0
H348 H 0.62057 0.67926 0.54634 0.0
H349 H 0.68793 0.71411 0.50489 0.0
C350 C 0.74342 0.67503 0.46377 0.0
C351 C 0.7707 0.65088 0.44477 0.0
C352 C 0.70442 0.65491 0.48739 0.0
C353 C 0.75697 0.60581 0.44821 0.0
C354 C 0.71772 0.58544 0.47118 0.0
C355 C 0.65257 0.58972 0.51556 0.0
C356 C 0.62639 0.6144 0.53577 0.0
C357 C 0.69146 0.60972 0.4914 0.0
C358 C 0.63994 0.65937 0.53147 0.0
C359 C 0.67845 0.67938 0.50757 0.0
H360 H 0.32316 0.39978 0.28971 0.0
H361 H 0.31268 0.31301 0.17783 0.0
H362 H 0.2417 0.32622 0.15643 0.0
H363 H 0.1789 0.35665 0.1733 0.0
H364 H 0.18561 0.43762 0.28925 0.0
H365 H 0.26107 0.43162 0.30561 0.0
C366 C 0.30549 0.38387 0.26051 0.0
C367 C 0.32357 0.35534 0.23568 0.0
C368 C 0.26338 0.38983 0.24955 0.0
C369 C 0.30041 0.33576 0.19736 0.0
C370 C 0.25924 0.3427 0.18541 0.0
C371 C 0.19668 0.37267 0.2024 0.0
C372 C 0.17638 0.3972 0.2302 0.0
C373 C 0.2398 0.36861 0.21201 0.0
C374 C 0.20045 0.41867 0.26713 0.0
C375 C 0.2436 0.4152 0.27658 0.0
H376 H 0.58888 0.26615 0.88326 0.0
H377 H 0.6109 0.33577 1.00787 0.0
H378 H 0.58501 0.2689 1.04897 0.0
H379 H 0.56111 0.19029 1.05038 0.0
H380 H 0.53359 0.11922 0.9272 0.0
H381 H 0.55643 0.18656 0.88481 0.0
C382 C 0.5871 0.26667 0.91933 0.0
C383 C 0.60268 0.30603 0.94238 0.0
C384 C 0.57186 0.2277 0.94312 0.0
C385 C 0.60001 0.30599 0.98923 0.0
C386 C 0.58524 0.2677 1.01287 0.0
C387 C 0.5602 0.18954 1.01421 0.0
C388 C 0.54661 0.14982 0.99191 0.0
C389 C 0.57222 0.22831 0.99027 0.0
C390 C 0.54436 0.14941 0.9451 0.0
C391 C 0.55738 0.18794 0.9209 0.0
H392 H 0.92185 0.81411 0.39624 0.0
H393 H 0.9025 0.73856 0.51651 0.0
H394 H 0.93205 0.80309 0.5611 0.0
H395 H 0.95752 0.88141 0.567 0.0
H396 H 0.98038 0.9584 0.44792 0.0
H397 H 0.95568 0.89328 0.40195 0.0
C398 C 0.92508 0.81178 0.43208 0.0
C399 C 0.90936 0.77152 0.45301 0.0
C400 C 0.94212 0.84941 0.45787 0.0
C401 C 0.91372 0.76913 0.49958 0.0
C402 C 0.93053 0.80607 0.52518 0.0
C403 C 0.95725 0.88398 0.53095 0.0
C404 C 0.9701 0.92477 0.51096 0.0
C405 C 0.94367 0.84647 0.50486 0.0
C406 C 0.97045 0.92741 0.46418 0.0
C407 C 0.95626 0.89014 0.43788 0.0
H408 H 0.20013 0.77205 0.72059 0.0
H409 H 0.14235 0.64501 0.77211 0.0
H410 H 0.20806 0.62225 0.74748 0.0
H411 H 0.2852 0.64105 0.71873 0.0
H412 H 0.34404 0.76941 0.67052 0.0
H413 H 0.27484 0.7893 0.68687 0.0
C414 C 0.20136 0.73901 0.72515 0.0
C415 C 0.1663 0.71003 0.74759 0.0
C416 C 0.23989 0.72677 0.71249 0.0
C417 C 0.16881 0.66767 0.75449 0.0
C418 C 0.20651 0.65484 0.74078 0.0
C419 C 0.28264 0.67317 0.71113 0.0
C420 C 0.31994 0.70381 0.69377 0.0
C421 C 0.2428 0.68449 0.72092 0.0
C422 C 0.31616 0.74545 0.68462 0.0
C423 C 0.27649 0.75676 0.69366 0.0
H424 H 0.71689 0.74945 0.84664 0.0
H425 H 0.59199 0.77548 0.80772 0.0
H426 H 0.62825 0.81328 0.74164 0.0
H427 H 0.69873 0.84997 0.70369 0.0
H428 H 0.82273 0.82444 0.74626 0.0
H429 H 0.78261 0.7734 0.80095 0.0
C430 C 0.69658 0.76146 0.82301 0.0
C431 C 0.65175 0.76022 0.83296 0.0
C432 C 0.71771 0.78369 0.78575 0.0
C433 C 0.62681 0.77683 0.80161 0.0
C434 C 0.64756 0.79852 0.76382 0.0
C435 C 0.71676 0.83258 0.72443 0.0
C436 C 0.76377 0.84166 0.72145 0.0
C437 C 0.69361 0.80412 0.75698 0.0
C438 C 0.7866 0.81815 0.74771 0.0
C439 C 0.76372 0.7892 0.77939 0.0
H440 H 0.88567 0.27264 0.30533 0.0
H441 H 0.76657 0.30005 0.35913 0.0
H442 H 0.72344 0.26586 0.2956 0.0
H443 H 0.71595 0.21814 0.23193 0.0
H444 H 0.83171 0.1835 0.18045 0.0
H445 H 0.87928 0.22963 0.23631 0.0
C446 C 0.85039 0.27146 0.30297 0.0
C447 C 0.82981 0.28916 0.33729 0.0
C448 C 0.82477 0.24963 0.26713 0.0
C449 C 0.78404 0.28781 0.33312 0.0
C450 C 0.7589 0.26758 0.29694 0.0
C451 C 0.75181 0.22165 0.23195 0.0
C452 C 0.77025 0.19735 0.20227 0.0
C453 C 0.77851 0.2471 0.2647 0.0
C454 C 0.81668 0.20162 0.20334 0.0
C455 C 0.84383 0.22794 0.23526 0.0
H456 H 0.39104 0.70376 0.38584 0.0
H457 H 0.40517 0.60652 0.2926 0.0
H458 H 0.43073 0.56725 0.35271 0.0
H459 H 0.44936 0.5605 0.43235 0.0
H460 H 0.43013 0.65565 0.52615 0.0
H461 H 0.4062 0.69523 0.46587 0.0
C462 C 0.39994 0.67407 0.37877 0.0
C463 C 0.39662 0.6583 0.33472 0.0
C464 C 0.41352 0.65102 0.41382 0.0
C465 C 0.40756 0.61939 0.32617 0.0
C466 C 0.42216 0.59691 0.36059 0.0
C467 C 0.43977 0.5898 0.43964 0.0
C468 C 0.44171 0.60489 0.48401 0.0
C469 C 0.42526 0.61234 0.40465 0.0
C470 C 0.42883 0.64291 0.49259 0.0
C471 C 0.41528 0.66581 0.45799 0.0
H472 H 0.1255 0.3739 0.90423 0.0
H473 H 0.09766 0.46021 0.80554 0.0
H474 H 0.06817 0.49902 0.86325 0.0
H475 H 0.05181 0.50971 0.94239 0.0
H476 H 0.08296 0.42519 1.04165 0.0
H477 H 0.10974 0.38507 0.98369 0.0
C478 C 0.11236 0.40083 0.89541 0.0
C479 C 0.11322 0.41378 0.85052 0.0
C480 C 0.09652 0.42382 0.92911 0.0
C481 C 0.097 0.44937 0.83974 0.0
C482 C 0.08033 0.47171 0.87281 0.0
C483 C 0.06461 0.48264 0.95146 0.0
C484 C 0.06534 0.47086 0.99671 0.0
C485 C 0.08028 0.45955 0.91774 0.0
C486 C 0.08209 0.43546 1.00739 0.0
C487 C 0.0973 0.41221 0.97411 0.0
H488 H 0.53458 0.80226 0.93634 0.0
H489 H 0.66155 0.84046 1.00538 0.0
H490 H 0.64285 0.90434 1.03407 0.0
H491 H 0.59207 0.95064 1.03737 0.0
H492 H 0.46321 0.91219 0.97211 0.0
H493 H 0.481 0.84714 0.94371 0.0
C494 C 0.55781 0.82445 0.95805 0.0
C495 C 0.59922 0.81658 0.96901 0.0
C496 C 0.54679 0.86121 0.97453 0.0
C497 C 0.62917 0.84545 0.99713 0.0
C498 C 0.6187 0.88219 1.01317 0.0
C499 C 0.56797 0.9282 1.01662 0.0
C500 C 0.52679 0.93649 1.006 0.0
C501 C 0.57793 0.89064 1.00161 0.0
C502 C 0.49534 0.90658 0.98024 0.0
C503 C 0.50548 0.86943 0.96415 0.0
H504 H 0.86819 0.1995 0.43984 0.0
H505 H 0.96899 0.3047 0.49733 0.0
H506 H 0.00625 0.2537 0.53072 0.0
H507 H 0.00923 0.17869 0.5439 0.0
H508 H 0.90565 0.07436 0.48835 0.0
H509 H 0.87077 0.12557 0.45305 0.0
C510 C 0.89861 0.21128 0.45932 0.0
C511 C 0.91625 0.25571 0.46572 0.0
C512 C 0.91938 0.18192 0.47847 0.0
C513 C 0.95493 0.27057 0.49197 0.0
C514 C 0.97625 0.24146 0.51084 0.0
C515 C 0.97935 0.16732 0.52357 0.0
C516 C 0.96019 0.12287 0.51837 0.0
C517 C 0.95878 0.19701 0.50424 0.0
C518 C 0.921 0.10842 0.49276 0.0
C519 C 0.90101 0.13765 0.47264 0.0
H520 H 0.24741 0.6301 0.26878 0.0
H521 H 0.31241 0.68398 0.14723 0.0
H522 H 0.24357 0.65346 0.10524 0.0
H523 H 0.16377 0.61203 0.10295 0.0
H524 H 0.10031 0.55734 0.22505 0.0
H525 H 0.16931 0.58692 0.26618 0.0
C526 C 0.24681 0.63469 0.23301 0.0
C527 C 0.28519 0.65967 0.21148 0.0
C528 C 0.20705 0.61689 0.20889 0.0
C529 C 0.28329 0.66556 0.16503 0.0
C530 C 0.24388 0.64795 0.14084 0.0
C531 C 0.16504 0.60671 0.13855 0.0
C532 C 0.1266 0.58237 0.1606 0.0
C533 C 0.2053 0.62385 0.16244 0.0
C534 C 0.12918 0.57562 0.20683 0.0
C535 C 0.16877 0.59265 0.23063 0.0
H536 H 0.22371 0.39741 0.67431 0.0
H537 H 0.26282 0.4647 0.79881 0.0
H538 H 0.33269 0.5054 0.76541 0.0
H539 H 0.38456 0.51958 0.70244 0.0
H540 H 0.34839 0.44923 0.57932 0.0
H541 H 0.27605 0.41141 0.6111 0.0
C542 C 0.24759 0.42064 0.69443 0.0
C543 C 0.23754 0.42767 0.73929 0.0
C544 C 0.28857 0.4432 0.67538 0.0
C545 C 0.26884 0.45884 0.76414 0.0
C546 C 0.3092 0.48194 0.74516 0.0
C547 C 0.36091 0.49606 0.68235 0.0
C548 C 0.37217 0.48726 0.63846 0.0
C549 C 0.31963 0.47406 0.70101 0.0
C550 C 0.34087 0.4566 0.61319 0.0
C551 C 0.29941 0.43497 0.63136 0.0
H552 H 0.73053 0.77454 0.98868 0.0
H553 H 0.65795 0.64312 0.96328 0.0
H554 H 0.72348 0.61883 0.98627 0.0
H555 H 0.80372 0.63618 1.0054 0.0
H556 H 0.87775 0.76847 1.0243 0.0
H557 H 0.80945 0.79156 1.01159 0.0
C558 C 0.72874 0.74049 0.98961 0.0
C559 C 0.68946 0.71044 0.97532 0.0
C560 C 0.76707 0.72719 1.00063 0.0
C561 C 0.68773 0.66655 0.97502 0.0
C562 C 0.72527 0.65283 0.98766 0.0
C563 C 0.80467 0.67 1.0074 0.0
C564 C 0.84563 0.70066 1.01566 0.0
C565 C 0.76549 0.683 0.99925 0.0
C566 C 0.84666 0.74441 1.01751 0.0
C567 C 0.80763 0.75755 1.01049 0.0
H568 H 0.35282 0.81231 0.23161 0.0
H569 H 0.47872 0.77899 0.23916 0.0
H570 H 0.51708 0.84845 0.20638 0.0
H571 H 0.51358 0.91646 0.16961 0.0
H572 H 0.3863 0.94776 0.16167 0.0
H573 H 0.35009 0.8815 0.20001 0.0
C574 C 0.38873 0.82029 0.22632 0.0
C575 C 0.41271 0.79017 0.23752 0.0
C576 C 0.41039 0.85996 0.20687 0.0
C577 C 0.45939 0.80153 0.23114 0.0
C578 C 0.48129 0.84117 0.212 0.0
C579 C 0.47803 0.90906 0.17671 0.0
C580 C 0.45289 0.93736 0.16237 0.0
C581 C 0.45699 0.87035 0.19884 0.0
C582 C 0.40676 0.92691 0.17203 0.0
C583 C 0.38583 0.88882 0.194 0.0
H584 H 0.05582 0.28482 0.74856 0.0
H585 H 0.19129 0.27379 0.76048 0.0
H586 H 0.16962 0.20306 0.72523 0.0
H587 H 0.1135 0.1462 0.68588 0.0
H588 H 0.97743 0.15601 0.67523 0.0
H589 H 0.99787 0.22456 0.715 0.0
C590 C 0.08033 0.26653 0.7443 0.0
C591 C 0.12528 0.28502 0.75678 0.0
C592 C 0.06765 0.2256 0.72362 0.0
C593 C 0.15661 0.26076 0.75067 0.0
C594 C 0.14426 0.22022 0.73041 0.0
C595 C 0.08822 0.16315 0.69249 0.0
C596 C 0.04401 0.1458 0.67717 0.0
C597 C 0.10013 0.20269 0.71576 0.0
C598 C 0.01173 0.16831 0.68653 0.0
C599 C 0.02341 0.20773 0.70929 0.0
H600 H 0.83379 0.41712 0.43421 0.0
H601 H 0.81026 0.3141 0.52997 0.0
H602 H 0.74648 0.33613 0.5596 0.0
H603 H 0.68824 0.37439 0.54738 0.0
H604 H 0.70728 0.47174 0.44571 0.0
H605 H 0.78093 0.46155 0.4285 0.0
C606 C 0.81529 0.40011 0.46226 0.0
C607 C 0.82629 0.36346 0.4791 0.0
C608 C 0.77672 0.411 0.47701 0.0
C609 C 0.80274 0.34244 0.51622 0.0
C610 C 0.76562 0.35454 0.53271 0.0
C611 C 0.70899 0.39394 0.52213 0.0
C612 C 0.69212 0.42316 0.49723 0.0
C613 C 0.75081 0.3871 0.51162 0.0
C614 C 0.71924 0.44837 0.4646 0.0
C615 C 0.76141 0.44272 0.45493 0.0
loop_
_geom_bond_atom_site_label_1
_geom_bond_atom_site_label_2
_geom_bond_distance
_geom_bond_site_symmetry_2
_ccdc_geom_bond_type
H0 C3 0.931 . S
H1 C6 0.928 . S
H2 C8 0.930 . S
C3 H0 0.931 . S
C3 C4 1.413 . S
C3 C5 1.360 . S
C4 C3 1.413 . S
C4 C8 1.429 . S
C5 C3 1.360 . S
C5 C6 1.372 . S
C6 H1 0.928 . S
C6 C5 1.372 . S
C6 C7 1.404 . S
C7 C6 1.404 . S
C7 C8 1.391 . S
C8 H2 0.930 . S
C8 C4 1.429 . S
C8 C7 1.391 . S
H9 C12 0.931 . S
H10 C15 0.928 . S
H11 C17 0.930 . S
C12 H9 0.931 . S
C12 C13 1.413 . S
C12 C14 1.360 . S
C13 C12 1.413 . S
C13 C17 1.429 . S
C14 C12 1.360 . S
C14 C15 1.372 . S
C15 H10 0.928 . S
C15 C14 1.372 . S
C15 C16 1.404 . S
C16 C15 1.404 . S
C16 C17 1.391 . S
C17 H11 0.930 . S
C17 C13 1.429 . S
C17 C16 1.391 . S
H18 C21 0.931 . S
H19 C24 0.928 . S
H20 C26 0.930 . S
C21 H18 0.931 . S
C21 C22 1.413 . S
C21 C23 1.360 . S
C22 C21 1.413 . S
C22 C26 1.429 . S
C23 C21 1.360 . S
C23 C24 1.372 . S
C24 H19 0.928 . S
C24 C23 1.372 . S
C24 C25 1.404 . S
C25 C24 1.404 . S
C25 C26 1.391 . S
C26 H20 0.930 . S
C26 C22 1.429 . S
C26 C25 1.391 . S
H27 C30 0.931 . S
H28 C33 0.928 . S
H29 C35 0.930 . S
C30 H27 0.931 . S
C30 C31 1.413 . S
C30 C32 1.360 . S
C31 C30 1.413 . S
C31 C35 1.429 . S
C32 C30 1.360 . S
C32 C33 1.372 . S
C33 H28 0.928 . S
C33 C32 1.372 . S
C33 C34 1.404 . S
C34 C33 1.404 . S
C34 C35 1.391 . S
C35 H29 0.930 . S
C35 C31 1.429 . S
C35 C34 1.391 . S
H36 C39 0.931 . S
H37 C42 0.928 . S
H38 C44 0.930 . S
C39 H36 0.931 . S
C39 C40 1.413 . S
C39 C41 1.360 . S
C40 C39 1.413 . S
C40 C44 1.429 . S
C41 C39 1.360 . S
C41 C42 1.372 . S
C42 H37 0.928 . S
C42 C41 1.372 . S
C42 C43 1.404 . S
C43 C42 1.404 . S
C43 C44 1.391 . S
C44 H38 0.930 . S
C44 C40 1.429 . S
C44 C43 1.391 . S
H45 C48 0.931 . S
H46 C51 0.928 . S
H47 C53 0.930 . S
C48 H45 0.931 . S
C48 C49 1.413 . S
C48 C50 1.360 . S
C49 C48 1.413 . S
C49 C53 1.429 . S
C50 C48 1.360 . S
C50 C51 1.372 . S
C51 H46 0.928 . S
C51 C50 1.372 . S
C51 C52 1.404 . S
C52 C51 1.404 . S
C52 C53 1.391 . S
C53 H47 0.930 . S
C53 C49 1.429 . S
C53 C52 1.391 . S
H54 C57 0.931 . S
H55 C60 0.928 . S
H56 C62 0.930 . S
C57 H54 0.931 . S
C57 C58 1.413 . S
C57 C59 1.360 . S
C58 C57 1.413 . S
C58 C62 1.429 . S
C59 C57 1.360 . S
C59 C60 1.372 . S
C60 H55 0.928 . S
C60 C59 1.372 . S
C60 C61 1.404 . S
C61 C60 1.404 . S
C61 C62 1.391 . S
C62 H56 0.930 . S
C62 C58 1.429 . S
C62 C61 1.391 . S
H63 C66 0.931 . S
H64 C69 0.928 . S
H65 C71 0.930 . S
C66 H63 0.931 . S
C66 C67 1.413 . S
C66 C68 1.360 . S
C67 C66 1.413 . S
C67 C71 1.429 . S
C68 C66 1.360 . S
C68 C69 1.372 . S
C69 H64 0.928 . S
C69 C68 1.372 . S
C69 C70 1.404 . S
C70 C69 1.404 . S
C70 C71 1.391 . S
C71 H65 0.930 . S
C71 C67 1.429 . S
C71 C70 1.391 . S
Dy72 O75 2.307 1_545 S
Dy72 O77 2.395 . S
Dy72 O78 2.379 . S
Dy72 O80 2.339 1_545 S
Dy72 O82 2.298 . S
Dy72 O86 2.275 . S
Dy72 C94 2.738 . S
Dy73 O76 2.298 . S
Dy73 O79 2.275 . S
Dy73 O81 2.307 1_565 S
Dy73 O83 2.395 . S
Dy73 O84 2.379 . S
Dy73 O87 2.339 1_565 S
Dy73 C103 2.738 . S
C74 O86 1.254 . S
C74 O87 1.257 1_455 S
O75 Dy72 2.307 1_565 S
O75 C85 1.266 . S
O76 Dy73 2.298 . S
O76 C85 1.236 1_655 S
O77 Dy72 2.395 . S
O77 C94 1.255 . S
O78 Dy72 2.379 . S
O78 C94 1.249 . S
O79 Dy73 2.275 . S
O79 C95 1.254 . S
O80 Dy72 2.339 1_565 S
O80 C95 1.257 1_455 S
O81 Dy73 2.307 1_545 S
O81 C96 1.266 . S
O82 Dy72 2.298 . S
O82 C96 1.236 1_455 S
O83 Dy73 2.395 . S
O83 C103 1.255 . S
O84 Dy73 2.379 . S
O84 C103 1.249 . S
C85 O75 1.266 . S
C85 O76 1.236 1_455 S
O86 Dy72 2.275 . S
O86 C74 1.254 . S
O87 Dy73 2.339 1_545 S
O87 C74 1.257 1_655 S
C88 C91 1.344 . S
C88 C92 1.328 . S
C88 C94 1.516 . S
C89 C90 1.304 . S
C89 C93 1.323 . S
C90 C89 1.304 . S
C90 C91 1.371 . S
C90 H104 0.930 . S
C91 C88 1.344 . S
C91 C90 1.371 . S
C91 H105 0.931 . S
C92 C88 1.328 . S
C92 C93 1.433 . S
C92 H106 0.931 . S
C93 C89 1.323 . S
C93 C92 1.433 . S
C93 H107 0.933 . S
C94 Dy72 2.738 . S
C94 O77 1.255 . S
C94 O78 1.249 . S
C94 C88 1.516 . S
C95 O79 1.254 . S
C95 O80 1.257 1_655 S
C96 O81 1.266 . S
C96 O82 1.236 1_655 S
C97 C100 1.344 . S
C97 C101 1.328 . S
C97 C103 1.516 . S
C98 C99 1.304 . S
C98 C102 1.323 . S
C99 C98 1.304 . S
C99 C100 1.371 . S
C99 H108 0.930 . S
C100 C97 1.344 . S
C100 C99 1.371 . S
C100 H109 0.931 . S
C101 C97 1.328 . S
C101 C102 1.433 . S
C101 H110 0.931 . S
C102 C98 1.323 . S
C102 C101 1.433 . S
C102 H111 0.933 . S
C103 Dy73 2.738 . S
C103 O83 1.255 . S
C103 O84 1.249 . S
C103 C97 1.516 . S
H104 C90 0.930 . S
H105 C91 0.931 . S
H106 C92 0.931 . S
H107 C93 0.933 . S
H108 C99 0.930 . S
H109 C100 0.931 . S
H110 C101 0.931 . S
H111 C102 0.933 . S
Dy112 O115 2.307 1_566 S
Dy112 O117 2.395 . S
Dy112 O118 2.379 . S
Dy112 O120 2.339 1_565 S
Dy112 O122 2.298 . S
Dy112 O126 2.275 1_556 S
Dy112 C134 2.738 . S
Dy113 O116 2.298 . S
Dy113 O119 2.275 1_554 S
Dy113 O121 2.307 1_544 S
Dy113 O123 2.395 . S
Dy113 O124 2.379 . S
Dy113 O127 2.339 1_545 S
Dy113 C143 2.738 . S
C114 O126 1.254 . S
C114 O127 1.257 . S
O115 Dy112 2.307 1_544 S
O115 C125 1.266 . S
O116 Dy113 2.298 . S
O116 C125 1.236 . S
O117 Dy112 2.395 . S
O117 C134 1.255 . S
O118 Dy112 2.379 . S
O118 C134 1.249 . S
O119 Dy113 2.275 1_556 S
O119 C135 1.254 . S
O120 Dy112 2.339 1_545 S
O120 C135 1.257 . S
O121 Dy113 2.307 1_566 S
O121 C136 1.266 . S
O122 Dy112 2.298 . S
O122 C136 1.236 . S
O123 Dy113 2.395 . S
O123 C143 1.255 . S
O124 Dy113 2.379 . S
O124 C143 1.249 . S
C125 O115 1.266 . S
C125 O116 1.236 . S
O126 Dy112 2.275 1_554 S
O126 C114 1.254 . S
O127 Dy113 2.339 1_565 S
O127 C114 1.257 . S
C128 C131 1.344 . S
C128 C132 1.328 . S
C128 C134 1.516 . S
C129 C130 1.304 . S
C129 C133 1.323 . S
C130 C129 1.304 . S
C130 C131 1.371 . S
C130 H144 0.930 . S
C131 C128 1.344 . S
C131 C130 1.371 . S
C131 H145 0.931 . S
C132 C128 1.328 . S
C132 C133 1.433 . S
C132 H146 0.931 . S
C133 C129 1.323 . S
C133 C132 1.433 . S
C133 H147 0.933 . S
C134 Dy112 2.738 . S
C134 O117 1.255 . S
C134 O118 1.249 . S
C134 C128 1.516 . S
C135 O119 1.254 . S
C135 O120 1.257 . S
C136 O121 1.266 . S
C136 O122 1.236 . S
C137 C140 1.344 . S
C137 C141 1.328 . S
C137 C143 1.516 . S
C138 C139 1.304 . S
C138 C142 1.323 . S
C139 C138 1.304 . S
C139 C140 1.371 . S
C139 H148 0.930 . S
C140 C137 1.344 . S
C140 C139 1.371 . S
C140 H149 0.931 . S
C141 C137 1.328 . S
C141 C142 1.433 . S
C141 H150 0.931 . S
C142 C138 1.323 . S
C142 C141 1.433 . S
C142 H151 0.933 . S
C143 Dy113 2.738 . S
C143 O123 1.255 . S
C143 O124 1.249 . S
C143 C137 1.516 . S
H144 C130 0.930 . S
H145 C131 0.931 . S
H146 C132 0.931 . S
H147 C133 0.933 . S
H148 C139 0.930 . S
H149 C140 0.931 . S
H150 C141 0.931 . S
H151 C142 0.933 . S
Dy152 O155 2.307 . S
Dy152 O157 2.395 . S
Dy152 O158 2.379 . S
Dy152 O160 2.339 . S
Dy152 O162 2.298 . S
Dy152 O166 2.275 . S
Dy152 C174 2.738 . S
Dy153 O156 2.298 . S
Dy153 O159 2.275 . S
Dy153 O161 2.307 . S
Dy153 O163 2.395 . S
Dy153 O164 2.379 . S
Dy153 O167 2.339 . S
Dy153 C183 2.738 . S
C154 O166 1.254 . S
C154 O167 1.257 . S
O155 Dy152 2.307 . S
O155 C165 1.266 . S
O156 Dy153 2.298 . S
O156 C165 1.236 . S
O157 Dy152 2.395 . S
O157 C174 1.255 . S
O158 Dy152 2.379 . S
O158 C174 1.249 . S
O159 Dy153 2.275 . S
O159 C175 1.254 . S
O160 Dy152 2.339 . S
O160 C175 1.257 . S
O161 Dy153 2.307 . S
O161 C176 1.266 . S
O162 Dy152 2.298 . S
O162 C176 1.236 . S
O163 Dy153 2.395 . S
O163 C183 1.255 . S
O164 Dy153 2.379 . S
O164 C183 1.249 . S
C165 O155 1.266 . S
C165 O156 1.236 . S
O166 Dy152 2.275 . S
O166 C154 1.254 . S
O167 Dy153 2.339 . S
O167 C154 1.257 . S
C168 C171 1.344 . S
C168 C172 1.328 . S
C168 C174 1.516 . S
C169 C170 1.304 . S
C169 C173 1.323 . S
C170 C169 1.304 . S
C170 C171 1.371 . S
C170 H184 0.930 . S
C171 C168 1.344 . S
C171 C170 1.371 . S
C171 H185 0.931 . S
C172 C168 1.328 . S
C172 C173 1.433 . S
C172 H186 0.931 . S
C173 C169 1.323 . S
C173 C172 1.433 . S
C173 H187 0.933 . S
C174 Dy152 2.738 . S
C174 O157 1.255 . S
C174 O158 1.249 . S
C174 C168 1.516 . S
C175 O159 1.254 . S
C175 O160 1.257 . S
C176 O161 1.266 . S
C176 O162 1.236 . S
C177 C180 1.344 . S
C177 C181 1.328 . S
C177 C183 1.516 . S
C178 C179 1.304 . S
C178 C182 1.323 . S
C179 C178 1.304 . S
C179 C180 1.371 . S
C179 H188 0.930 . S
C180 C177 1.344 . S
C180 C179 1.371 . S
C180 H189 0.931 . S
C181 C177 1.328 . S
C181 C182 1.433 . S
C181 H190 0.931 . S
C182 C178 1.323 . S
C182 C181 1.433 . S
C182 H191 0.933 . S
C183 Dy153 2.738 . S
C183 O163 1.255 . S
C183 O164 1.249 . S
C183 C177 1.516 . S
H184 C170 0.930 . S
H185 C171 0.931 . S
H186 C172 0.931 . S
H187 C173 0.933 . S
H188 C179 0.930 . S
H189 C180 0.931 . S
H190 C181 0.931 . S
H191 C182 0.933 . S
Dy192 O195 2.307 1_656 S
Dy192 O197 2.395 . S
Dy192 O198 2.379 . S
Dy192 O200 2.339 1_655 S
Dy192 O202 2.298 . S
Dy192 O206 2.275 1_556 S
Dy192 C214 2.738 . S
Dy193 O196 2.298 . S
Dy193 O199 2.275 1_554 S
Dy193 O201 2.307 1_455 S
Dy193 O203 2.395 . S
Dy193 O204 2.379 . S
Dy193 O207 2.339 1_455 S
Dy193 C223 2.738 . S
C194 O206 1.254 . S
C194 O207 1.257 . S
O195 Dy192 2.307 1_454 S
O195 C205 1.266 . S
O196 Dy193 2.298 . S
O196 C205 1.236 . S
O197 Dy192 2.395 . S
O197 C214 1.255 . S
O198 Dy192 2.379 . S
O198 C214 1.249 . S
O199 Dy193 2.275 1_556 S
O199 C215 1.254 . S
O200 Dy192 2.339 1_455 S
O200 C215 1.257 . S
O201 Dy193 2.307 1_655 S
O201 C216 1.266 1_554 S
O202 Dy192 2.298 . S
O202 C216 1.236 . S
O203 Dy193 2.395 . S
O203 C223 1.255 . S
O204 Dy193 2.379 . S
O204 C223 1.249 . S
C205 O195 1.266 . S
C205 O196 1.236 . S
O206 Dy192 2.275 1_554 S
O206 C194 1.254 . S
O207 Dy193 2.339 1_655 S
O207 C194 1.257 . S
C208 C211 1.344 . S
C208 C212 1.328 . S
C208 C214 1.516 . S
C209 C210 1.304 . S
C209 C213 1.323 . S
C210 C209 1.304 . S
C210 C211 1.371 . S
C210 H224 0.930 . S
C211 C208 1.344 . S
C211 C210 1.371 . S
C211 H225 0.931 . S
C212 C208 1.328 . S
C212 C213 1.433 . S
C212 H226 0.931 . S
C213 C209 1.323 . S
C213 C212 1.433 . S
C213 H227 0.933 . S
C214 Dy192 2.738 . S
C214 O197 1.255 . S
C214 O198 1.249 . S
C214 C208 1.516 . S
C215 O199 1.254 . S
C215 O200 1.257 . S
C216 O201 1.266 1_556 S
C216 O202 1.236 . S
C217 C220 1.344 . S
C217 C221 1.328 . S
C217 C223 1.516 . S
C218 C219 1.304 . S
C218 C222 1.323 . S
C219 C218 1.304 . S
C219 C220 1.371 . S
C219 H228 0.930 . S
C220 C217 1.344 . S
C220 C219 1.371 . S
C220 H229 0.931 . S
C221 C217 1.328 . S
C221 C222 1.433 . S
C221 H230 0.931 . S
C222 C218 1.323 . S
C222 C221 1.433 . S
C222 H231 0.933 . S
C223 Dy193 2.738 . S
C223 O203 1.255 . S
C223 O204 1.249 . S
C223 C217 1.516 . S
H224 C210 0.930 . S
H225 C211 0.931 . S
H226 C212 0.931 . S
H227 C213 0.933 . S
H228 C219 0.930 . S
H229 C220 0.931 . S
H230 C221 0.931 . S
H231 C222 0.933 . S
H232 C238 0.930 . S
H233 C241 0.930 . S
H234 C242 0.930 . S
H235 C243 0.930 . S
H236 C246 0.930 . S
H237 C247 0.930 . S
C238 H232 0.930 . S
C238 C239 1.355 . S
C238 C240 1.415 . S
C239 C238 1.355 . S
C239 C241 1.419 . S
C240 C238 1.415 . S
C240 C245 1.425 . S
C240 C247 1.409 . S
C241 H233 0.930 . S
C241 C239 1.419 . S
C241 C242 1.362 . S
C242 H234 0.930 . S
C242 C241 1.362 . S
C242 C245 1.409 . S
C243 H235 0.930 . S
C243 C244 1.355 . S
C243 C245 1.415 . S
C244 C243 1.355 . S
C244 C246 1.419 . S
C245 C240 1.425 . S
C245 C242 1.409 . S
C245 C243 1.415 . S
C246 H236 0.930 . S
C246 C244 1.419 . S
C246 C247 1.362 . S
C247 H237 0.930 . S
C247 C240 1.409 . S
C247 C246 1.362 . S
H248 C254 0.930 . S
H249 C257 0.930 . S
H250 C258 0.930 . S
H251 C259 0.930 . S
H252 C262 0.930 . S
H253 C263 0.930 . S
C254 H248 0.930 . S
C254 C255 1.355 . S
C254 C256 1.415 . S
C255 C254 1.355 . S
C255 C257 1.419 . S
C256 C254 1.415 . S
C256 C261 1.425 . S
C256 C263 1.409 . S
C257 H249 0.930 . S
C257 C255 1.419 . S
C257 C258 1.362 . S
C258 H250 0.930 . S
C258 C257 1.362 . S
C258 C261 1.409 . S
C259 H251 0.930 . S
C259 C260 1.355 . S
C259 C261 1.415 . S
C260 C259 1.355 . S
C260 C262 1.419 . S
C261 C256 1.425 . S
C261 C258 1.409 . S
C261 C259 1.415 . S
C262 H252 0.930 . S
C262 C260 1.419 . S
C262 C263 1.362 . S
C263 H253 0.930 . S
C263 C256 1.409 . S
C263 C262 1.362 . S
H264 C270 0.930 . S
H265 C273 0.930 . S
H266 C274 0.930 . S
H267 C275 0.930 . S
H268 C278 0.930 . S
H269 C279 0.930 . S
C270 H264 0.930 . S
C270 C271 1.355 . S
C270 C272 1.415 . S
C271 C270 1.355 . S
C271 C273 1.419 . S
C272 C270 1.415 . S
C272 C277 1.425 . S
C272 C279 1.409 . S
C273 H265 0.930 . S
C273 C271 1.419 . S
C273 C274 1.362 . S
C274 H266 0.930 . S
C274 C273 1.362 . S
C274 C277 1.409 . S
C275 H267 0.930 . S
C275 C276 1.355 . S
C275 C277 1.415 . S
C276 C275 1.355 . S
C276 C278 1.419 . S
C277 C272 1.425 . S
C277 C274 1.409 . S
C277 C275 1.415 . S
C278 H268 0.930 . S
C278 C276 1.419 . S
C278 C279 1.362 . S
C279 H269 0.930 . S
C279 C272 1.409 . S
C279 C278 1.362 . S
H280 C286 0.930 . S
H281 C289 0.930 . S
H282 C290 0.930 . S
H283 C291 0.930 . S
H284 C294 0.930 . S
H285 C295 0.930 . S
C286 H280 0.930 . S
C286 C287 1.355 . S
C286 C288 1.415 . S
C287 C286 1.355 . S
C287 C289 1.419 . S
C288 C286 1.415 . S
C288 C293 1.425 . S
C288 C295 1.409 . S
C289 H281 0.930 . S
C289 C287 1.419 . S
C289 C290 1.362 . S
C290 H282 0.930 . S
C290 C289 1.362 . S
C290 C293 1.409 . S
C291 H283 0.930 . S
C291 C292 1.355 . S
C291 C293 1.415 . S
C292 C291 1.355 . S
C292 C294 1.419 . S
C293 C288 1.425 . S
C293 C290 1.409 . S
C293 C291 1.415 . S
C294 H284 0.930 . S
C294 C292 1.419 . S
C294 C295 1.362 . S
C295 H285 0.930 . S
C295 C288 1.409 . S
C295 C294 1.362 . S
H296 C302 0.930 . S
H297 C305 0.930 . S
H298 C306 0.930 . S
H299 C307 0.930 . S
H300 C310 0.930 . S
H301 C311 0.930 . S
C302 H296 0.930 . S
C302 C303 1.355 . S
C302 C304 1.415 . S
C303 C302 1.355 . S
C303 C305 1.419 . S
C304 C302 1.415 . S
C304 C309 1.425 . S
C304 C311 1.409 . S
C305 H297 0.930 . S
C305 C303 1.419 . S
C305 C306 1.362 . S
C306 H298 0.930 . S
C306 C305 1.362 . S
C306 C309 1.409 . S
C307 H299 0.930 . S
C307 C308 1.355 . S
C307 C309 1.415 . S
C308 C307 1.355 . S
C308 C310 1.419 . S
C309 C304 1.425 . S
C309 C306 1.409 . S
C309 C307 1.415 . S
C310 H300 0.930 . S
C310 C308 1.419 . S
C310 C311 1.362 . S
C311 H301 0.930 . S
C311 C304 1.409 . S
C311 C310 1.362 . S
H312 C318 0.930 . S
H313 C321 0.930 . S
H314 C322 0.930 . S
H315 C323 0.930 . S
H316 C326 0.930 . S
H317 C327 0.930 . S
C318 H312 0.930 . S
C318 C319 1.355 . S
C318 C320 1.415 . S
C319 C318 1.355 . S
C319 C321 1.419 . S
C320 C318 1.415 . S
C320 C325 1.425 . S
C320 C327 1.409 . S
C321 H313 0.930 . S
C321 C319 1.419 . S
C321 C322 1.362 . S
C322 H314 0.930 . S
C322 C321 1.362 . S
C322 C325 1.409 . S
C323 H315 0.930 . S
C323 C324 1.355 . S
C323 C325 1.415 . S
C324 C323 1.355 . S
C324 C326 1.419 . S
C325 C320 1.425 . S
C325 C322 1.409 . S
C325 C323 1.415 . S
C326 H316 0.930 . S
C326 C324 1.419 . S
C326 C327 1.362 . S
C327 H317 0.930 . S
C327 C320 1.409 . S
C327 C326 1.362 . S
H328 C334 0.930 . S
H329 C337 0.930 . S
H330 C338 0.930 . S
H331 C339 0.930 . S
H332 C342 0.930 . S
H333 C343 0.930 . S
C334 H328 0.930 . S
C334 C335 1.355 . S
C334 C336 1.415 . S
C335 C334 1.355 . S
C335 C337 1.419 . S
C336 C334 1.415 . S
C336 C341 1.425 . S
C336 C343 1.409 . S
C337 H329 0.930 . S
C337 C335 1.419 . S
C337 C338 1.362 . S
C338 H330 0.930 . S
C338 C337 1.362 . S
C338 C341 1.409 . S
C339 H331 0.930 . S
C339 C340 1.355 . S
C339 C341 1.415 . S
C340 C339 1.355 . S
C340 C342 1.419 . S
C341 C336 1.425 . S
C341 C338 1.409 . S
C341 C339 1.415 . S
C342 H332 0.930 . S
C342 C340 1.419 . S
C342 C343 1.362 . S
C343 H333 0.930 . S
C343 C336 1.409 . S
C343 C342 1.362 . S
H344 C350 0.930 . S
H345 C353 0.930 . S
H346 C354 0.930 . S
H347 C355 0.930 . S
H348 C358 0.930 . S
H349 C359 0.930 . S
C350 H344 0.930 . S
C350 C351 1.355 . S
C350 C352 1.415 . S
C351 C350 1.355 . S
C351 C353 1.419 . S
C352 C350 1.415 . S
C352 C357 1.425 . S
C352 C359 1.409 . S
C353 H345 0.930 . S
C353 C351 1.419 . S
C353 C354 1.362 . S
C354 H346 0.930 . S
C354 C353 1.362 . S
C354 C357 1.409 . S
C355 H347 0.930 . S
C355 C356 1.355 . S
C355 C357 1.415 . S
C356 C355 1.355 . S
C356 C358 1.419 . S
C357 C352 1.425 . S
C357 C354 1.409 . S
C357 C355 1.415 . S
C358 H348 0.930 . S
C358 C356 1.419 . S
C358 C359 1.362 . S
C359 H349 0.930 . S
C359 C352 1.409 . S
C359 C358 1.362 . S
H360 C366 0.930 . S
H361 C369 0.930 . S
H362 C370 0.930 . S
H363 C371 0.930 . S
H364 C374 0.930 . S
H365 C375 0.930 . S
C366 H360 0.930 . S
C366 C367 1.355 . S
C366 C368 1.415 . S
C367 C366 1.355 . S
C367 C369 1.419 . S
C368 C366 1.415 . S
C368 C373 1.425 . S
C368 C375 1.409 . S
C369 H361 0.930 . S
C369 C367 1.419 . S
C369 C370 1.362 . S
C370 H362 0.930 . S
C370 C369 1.362 . S
C370 C373 1.409 . S
C371 H363 0.930 . S
C371 C372 1.355 . S
C371 C373 1.415 . S
C372 C371 1.355 . S
C372 C374 1.419 . S
C373 C368 1.425 . S
C373 C370 1.409 . S
C373 C371 1.415 . S
C374 H364 0.930 . S
C374 C372 1.419 . S
C374 C375 1.362 . S
C375 H365 0.930 . S
C375 C368 1.409 . S
C375 C374 1.362 . S
H376 C382 0.930 . S
H377 C385 0.930 . S
H378 C386 0.930 . S
H379 C387 0.930 . S
H380 C390 0.930 . S
H381 C391 0.930 . S
C382 H376 0.930 . S
C382 C383 1.355 . S
C382 C384 1.415 . S
C383 C382 1.355 . S
C383 C385 1.419 . S
C384 C382 1.415 . S
C384 C389 1.425 . S
C384 C391 1.409 . S
C385 H377 0.930 . S
C385 C383 1.419 . S
C385 C386 1.362 . S
C386 H378 0.930 . S
C386 C385 1.362 . S
C386 C389 1.409 . S
C387 H379 0.930 . S
C387 C388 1.355 . S
C387 C389 1.415 . S
C388 C387 1.355 . S
C388 C390 1.419 . S
C389 C384 1.425 . S
C389 C386 1.409 . S
C389 C387 1.415 . S
C390 H380 0.930 . S
C390 C388 1.419 . S
C390 C391 1.362 . S
C391 H381 0.930 . S
C391 C384 1.409 . S
C391 C390 1.362 . S
H392 C398 0.930 . S
H393 C401 0.930 . S
H394 C402 0.930 . S
H395 C403 0.930 . S
H396 C406 0.930 . S
H397 C407 0.930 . S
C398 H392 0.930 . S
C398 C399 1.355 . S
C398 C400 1.415 . S
C399 C398 1.355 . S
C399 C401 1.419 . S
C400 C398 1.415 . S
C400 C405 1.425 . S
C400 C407 1.409 . S
C401 H393 0.930 . S
C401 C399 1.419 . S
C401 C402 1.362 . S
C402 H394 0.930 . S
C402 C401 1.362 . S
C402 C405 1.409 . S
C403 H395 0.930 . S
C403 C404 1.355 . S
C403 C405 1.415 . S
C404 C403 1.355 . S
C404 C406 1.419 . S
C405 C400 1.425 . S
C405 C402 1.409 . S
C405 C403 1.415 . S
C406 H396 0.930 . S
C406 C404 1.419 . S
C406 C407 1.362 . S
C407 H397 0.930 . S
C407 C400 1.409 . S
C407 C406 1.362 . S
H408 C414 0.930 . S
H409 C417 0.930 . S
H410 C418 0.930 . S
H411 C419 0.930 . S
H412 C422 0.930 . S
H413 C423 0.930 . S
C414 H408 0.930 . S
C414 C415 1.355 . S
C414 C416 1.415 . S
C415 C414 1.355 . S
C415 C417 1.419 . S
C416 C414 1.415 . S
C416 C421 1.425 . S
C416 C423 1.409 . S
C417 H409 0.930 . S
C417 C415 1.419 . S
C417 C418 1.362 . S
C418 H410 0.930 . S
C418 C417 1.362 . S
C418 C421 1.409 . S
C419 H411 0.930 . S
C419 C420 1.355 . S
C419 C421 1.415 . S
C420 C419 1.355 . S
C420 C422 1.419 . S
C421 C416 1.425 . S
C421 C418 1.409 . S
C421 C419 1.415 . S
C422 H412 0.930 . S
C422 C420 1.419 . S
C422 C423 1.362 . S
C423 H413 0.930 . S
C423 C416 1.409 . S
C423 C422 1.362 . S
H424 C430 0.930 . S
H425 C433 0.930 . S
H426 C434 0.930 . S
H427 C435 0.930 . S
H428 C438 0.930 . S
H429 C439 0.930 . S
C430 H424 0.930 . S
C430 C431 1.355 . S
C430 C432 1.415 . S
C431 C430 1.355 . S
C431 C433 1.419 . S
C432 C430 1.415 . S
C432 C437 1.425 . S
C432 C439 1.409 . S
C433 H425 0.930 . S
C433 C431 1.419 . S
C433 C434 1.362 . S
C434 H426 0.930 . S
C434 C433 1.362 . S
C434 C437 1.409 . S
C435 H427 0.930 . S
C435 C436 1.355 . S
C435 C437 1.415 . S
C436 C435 1.355 . S
C436 C438 1.419 . S
C437 C432 1.425 . S
C437 C434 1.409 . S
C437 C435 1.415 . S
C438 H428 0.930 . S
C438 C436 1.419 . S
C438 C439 1.362 . S
C439 H429 0.930 . S
C439 C432 1.409 . S
C439 C438 1.362 . S
H440 C446 0.930 . S
H441 C449 0.930 . S
H442 C450 0.930 . S
H443 C451 0.930 . S
H444 C454 0.930 . S
H445 C455 0.930 . S
C446 H440 0.930 . S
C446 C447 1.355 . S
C446 C448 1.415 . S
C447 C446 1.355 . S
C447 C449 1.419 . S
C448 C446 1.415 . S
C448 C453 1.425 . S
C448 C455 1.409 . S
C449 H441 0.930 . S
C449 C447 1.419 . S
C449 C450 1.362 . S
C450 H442 0.930 . S
C450 C449 1.362 . S
C450 C453 1.409 . S
C451 H443 0.930 . S
C451 C452 1.355 . S
C451 C453 1.415 . S
C452 C451 1.355 . S
C452 C454 1.419 . S
C453 C448 1.425 . S
C453 C450 1.409 . S
C453 C451 1.415 . S
C454 H444 0.930 . S
C454 C452 1.419 . S
C454 C455 1.362 . S
C455 H445 0.930 . S
C455 C448 1.409 . S
C455 C454 1.362 . S
H456 C462 0.930 . S
H457 C465 0.930 . S
H458 C466 0.930 . S
H459 C467 0.930 . S
H460 C470 0.930 . S
H461 C471 0.930 . S
C462 H456 0.930 . S
C462 C463 1.355 . S
C462 C464 1.415 . S
C463 C462 1.355 . S
C463 C465 1.419 . S
C464 C462 1.415 . S
C464 C469 1.425 . S
C464 C471 1.409 . S
C465 H457 0.930 . S
C465 C463 1.419 . S
C465 C466 1.362 . S
C466 H458 0.930 . S
C466 C465 1.362 . S
C466 C469 1.409 . S
C467 H459 0.930 . S
C467 C468 1.355 . S
C467 C469 1.415 . S
C468 C467 1.355 . S
C468 C470 1.419 . S
C469 C464 1.425 . S
C469 C466 1.409 . S
C469 C467 1.415 . S
C470 H460 0.930 . S
C470 C468 1.419 . S
C470 C471 1.362 . S
C471 H461 0.930 . S
C471 C464 1.409 . S
C471 C470 1.362 . S
H472 C478 0.930 . S
H473 C481 0.930 . S
H474 C482 0.930 . S
H475 C483 0.930 . S
H476 C486 0.930 . S
H477 C487 0.930 . S
C478 H472 0.930 . S
C478 C479 1.355 . S
C478 C480 1.415 . S
C479 C478 1.355 . S
C479 C481 1.419 . S
C480 C478 1.415 . S
C480 C485 1.425 . S
C480 C487 1.409 . S
C481 H473 0.930 . S
C481 C479 1.419 . S
C481 C482 1.362 . S
C482 H474 0.930 . S
C482 C481 1.362 . S
C482 C485 1.409 . S
C483 H475 0.930 . S
C483 C484 1.355 . S
C483 C485 1.415 . S
C484 C483 1.355 . S
C484 C486 1.419 . S
C485 C480 1.425 . S
C485 C482 1.409 . S
C485 C483 1.415 . S
C486 H476 0.930 . S
C486 C484 1.419 . S
C486 C487 1.362 . S
C487 H477 0.930 . S
C487 C480 1.409 . S
C487 C486 1.362 . S
H488 C494 0.930 . S
H489 C497 0.930 . S
H490 C498 0.930 . S
H491 C499 0.930 . S
H492 C502 0.930 . S
H493 C503 0.930 . S
C494 H488 0.930 . S
C494 C495 1.355 . S
C494 C496 1.415 . S
C495 C494 1.355 . S
C495 C497 1.419 . S
C496 C494 1.415 . S
C496 C501 1.425 . S
C496 C503 1.409 . S
C497 H489 0.930 . S
C497 C495 1.419 . S
C497 C498 1.362 . S
C498 H490 0.930 . S
C498 C497 1.362 . S
C498 C501 1.409 . S
C499 H491 0.930 . S
C499 C500 1.355 . S
C499 C501 1.415 . S
C500 C499 1.355 . S
C500 C502 1.419 . S
C501 C496 1.425 . S
C501 C498 1.409 . S
C501 C499 1.415 . S
C502 H492 0.930 . S
C502 C500 1.419 . S
C502 C503 1.362 . S
C503 H493 0.930 . S
C503 C496 1.409 . S
C503 C502 1.362 . S
H504 C510 0.930 . S
H505 C513 0.930 . S
H506 C514 0.930 . S
H507 C515 0.930 . S
H508 C518 0.930 . S
H509 C519 0.930 . S
C510 H504 0.930 . S
C510 C511 1.355 . S
C510 C512 1.415 . S
C511 C510 1.355 . S
C511 C513 1.419 . S
C512 C510 1.415 . S
C512 C517 1.425 . S
C512 C519 1.409 . S
C513 H505 0.930 . S
C513 C511 1.419 . S
C513 C514 1.362 . S
C514 H506 0.930 . S
C514 C513 1.362 . S
C514 C517 1.409 . S
C515 H507 0.930 . S
C515 C516 1.355 . S
C515 C517 1.415 . S
C516 C515 1.355 . S
C516 C518 1.419 . S
C517 C512 1.425 . S
C517 C514 1.409 . S
C517 C515 1.415 . S
C518 H508 0.930 . S
C518 C516 1.419 . S
C518 C519 1.362 . S
C519 H509 0.930 . S
C519 C512 1.409 . S
C519 C518 1.362 . S
H520 C526 0.930 . S
H521 C529 0.930 . S
H522 C530 0.930 . S
H523 C531 0.930 . S
H524 C534 0.930 . S
H525 C535 0.930 . S
C526 H520 0.930 . S
C526 C527 1.355 . S
C526 C528 1.415 . S
C527 C526 1.355 . S
C527 C529 1.419 . S
C528 C526 1.415 . S
C528 C533 1.425 . S
C528 C535 1.409 . S
C529 H521 0.930 . S
C529 C527 1.419 . S
C529 C530 1.362 . S
C530 H522 0.930 . S
C530 C529 1.362 . S
C530 C533 1.409 . S
C531 H523 0.930 . S
C531 C532 1.355 . S
C531 C533 1.415 . S
C532 C531 1.355 . S
C532 C534 1.419 . S
C533 C528 1.425 . S
C533 C530 1.409 . S
C533 C531 1.415 . S
C534 H524 0.930 . S
C534 C532 1.419 . S
C534 C535 1.362 . S
C535 H525 0.930 . S
C535 C528 1.409 . S
C535 C534 1.362 . S
H536 C542 0.930 . S
H537 C545 0.930 . S
H538 C546 0.930 . S
H539 C547 0.930 . S
H540 C550 0.930 . S
H541 C551 0.930 . S
C542 H536 0.930 . S
C542 C543 1.355 . S
C542 C544 1.415 . S
C543 C542 1.355 . S
C543 C545 1.419 . S
C544 C542 1.415 . S
C544 C549 1.425 . S
C544 C551 1.409 . S
C545 H537 0.930 . S
C545 C543 1.419 . S
C545 C546 1.362 . S
C546 H538 0.930 . S
C546 C545 1.362 . S
C546 C549 1.409 . S
C547 H539 0.930 . S
C547 C548 1.355 . S
C547 C549 1.415 . S
C548 C547 1.355 . S
C548 C550 1.419 . S
C549 C544 1.425 . S
C549 C546 1.409 . S
C549 C547 1.415 . S
C550 H540 0.930 . S
C550 C548 1.419 . S
C550 C551 1.362 . S
C551 H541 0.930 . S
C551 C544 1.409 . S
C551 C550 1.362 . S
H552 C558 0.930 . S
H553 C561 0.930 . S
H554 C562 0.930 . S
H555 C563 0.930 . S
H556 C566 0.930 . S
H557 C567 0.930 . S
C558 H552 0.930 . S
C558 C559 1.355 . S
C558 C560 1.415 . S
C559 C558 1.355 . S
C559 C561 1.419 . S
C560 C558 1.415 . S
C560 C565 1.425 . S
C560 C567 1.409 . S
C561 H553 0.930 . S
C561 C559 1.419 . S
C561 C562 1.362 . S
C562 H554 0.930 . S
C562 C561 1.362 . S
C562 C565 1.409 . S
C563 H555 0.930 . S
C563 C564 1.355 . S
C563 C565 1.415 . S
C564 C563 1.355 . S
C564 C566 1.419 . S
C565 C560 1.425 . S
C565 C562 1.409 . S
C565 C563 1.415 . S
C566 H556 0.930 . S
C566 C564 1.419 . S
C566 C567 1.362 . S
C567 H557 0.930 . S
C567 C560 1.409 . S
C567 C566 1.362 . S
H568 C574 0.930 . S
H569 C577 0.930 . S
H570 C578 0.930 . S
H571 C579 0.930 . S
H572 C582 0.930 . S
H573 C583 0.930 . S
C574 H568 0.930 . S
C574 C575 1.355 . S
C574 C576 1.415 . S
C575 C574 1.355 . S
C575 C577 1.419 . S
C576 C574 1.415 . S
C576 C581 1.425 . S
C576 C583 1.409 . S
C577 H569 0.930 . S
C577 C575 1.419 . S
C577 C578 1.362 . S
C578 H570 0.930 . S
C578 C577 1.362 . S
C578 C581 1.409 . S
C579 H571 0.930 . S
C579 C580 1.355 . S
C579 C581 1.415 . S
C580 C579 1.355 . S
C580 C582 1.419 . S
C581 C576 1.425 . S
C581 C578 1.409 . S
C581 C579 1.415 . S
C582 H572 0.930 . S
C582 C580 1.419 . S
C582 C583 1.362 . S
C583 H573 0.930 . S
C583 C576 1.409 . S
C583 C582 1.362 . S
H584 C590 0.930 . S
H585 C593 0.930 . S
H586 C594 0.930 . S
H587 C595 0.930 . S
H588 C598 0.930 1_655 S
H589 C599 0.930 1_655 S
C590 H584 0.930 . S
C590 C591 1.355 . S
C590 C592 1.415 . S
C591 C590 1.355 . S
C591 C593 1.419 . S
C592 C590 1.415 . S
C592 C597 1.425 . S
C592 C599 1.409 . S
C593 H585 0.930 . S
C593 C591 1.419 . S
C593 C594 1.362 . S
C594 H586 0.930 . S
C594 C593 1.362 . S
C594 C597 1.409 . S
C595 H587 0.930 . S
C595 C596 1.355 . S
C595 C597 1.415 . S
C596 C595 1.355 . S
C596 C598 1.419 . S
C597 C592 1.425 . S
C597 C594 1.409 . S
C597 C595 1.415 . S
C598 H588 0.930 1_455 S
C598 C596 1.419 . S
C598 C599 1.362 . S
C599 H589 0.930 1_455 S
C599 C592 1.409 . S
C599 C598 1.362 . S
H600 C606 0.930 . S
H601 C609 0.930 . S
H602 C610 0.930 . S
H603 C611 0.930 . S
H604 C614 0.930 . S
H605 C615 0.930 . S
C606 H600 0.930 . S
C606 C607 1.355 . S
C606 C608 1.415 . S
C607 C606 1.355 . S
C607 C609 1.419 . S
C608 C606 1.415 . S
C608 C613 1.425 . S
C608 C615 1.409 . S
C609 H601 0.930 . S
C609 C607 1.419 . S
C609 C610 1.362 . S
C610 H602 0.930 . S
C610 C609 1.362 . S
C610 C613 1.409 . S
C611 H603 0.930 . S
C611 C612 1.355 . S
C611 C613 1.415 . S
C612 C611 1.355 . S
C612 C614 1.419 . S
C613 C608 1.425 . S
C613 C610 1.409 . S
C613 C611 1.415 . S
C614 H604 0.930 . S
C614 C612 1.419 . S
C614 C615 1.362 . S
C615 H605 0.930 . S
C615 C608 1.409 . S
C615 C614 1.362 . S
C239 C5 0.972 . S
C244 C89 0.998 . S
C255 C14 1.017 . S
C260 C129 1.009 . S
C276 C154 2.433 . S
C271 C25 2.508 . S
C287 C34 2.506 . S
C292 C194 2.435 . S
C308 C125 1.503 . S
C303 C7 1.404 . S
C324 C85 1.524 . S
C319 C13 1.450 . S
C340 C216 1.738 . S
C335 C23 1.788 . S
C356 C176 1.761 . S
C351 C31 1.805 . S
C367 C4 1.180 . S
C372 C218 1.209 . S
C388 C135 2.188 . S
C383 C22 2.230 . S
C399 C32 2.237 . S
C404 C95 2.187 . S
C415 C16 1.260 . S
C420 C178 1.281 . S
C436 C98 1.004 . S
C431 C41 1.011 . S
C447 C50 0.924 . S
C452 C138 0.976 . S
C463 C61 2.501 . S
C468 C175 2.455 . S
C479 C67 2.518 . S
C484 C215 2.478 . S
C495 C40 1.433 . S
C500 C136 1.521 . S
C516 C96 1.508 . S
C511 C52 1.433 . S
C532 C205 1.747 . S
C527 C59 1.800 . S
C548 C165 1.779 . S
C543 C70 1.791 . S
C559 C43 1.263 . S
C564 C209 1.276 . S
C580 C114 2.220 . S
C575 C58 2.249 . S
C596 C74 2.172 . S
C591 C68 2.214 . S
C607 C49 1.173 . S
C612 C169 1.221 . S
