# Generated by pormake.
# Topology anh, (6,3)-cn, num edge types: 1
# Building blocks:
#     Node 0, Type 0, BuildingBlock: BETFAJ_clean_sbu_0, # of connection points: 6
#     Node 1, Type 0, BuildingBlock: BETFAJ_clean_sbu_0, # of connection points: 6
#     Node 2, Type 0, BuildingBlock: BETFAJ_clean_sbu_0, # of connection points: 6
#     Node 3, Type 1, BuildingBlock: PAMTOO_clean_linker_0, # of connection points: 3
#     Node 4, Type 1, BuildingBlock: PAMTOO_clean_linker_0, # of connection points: 3
#     Node 5, Type 1, BuildingBlock: PAMTOO_clean_linker_0, # of connection points: 3
#     Node 6, Type 1, BuildingBlock: PAMTOO_clean_linker_0, # of connection points: 3
#     Node 7, Type 1, BuildingBlock: PAMTOO_clean_linker_0, # of connection points: 3
#     Node 8, Type 1, BuildingBlock: PAMTOO_clean_linker_0, # of connection points: 3
#     Edge 9, Type (0, 1), BuildingBlock: XUDNAN_clean_linker_2, # of connection points: 2
#     Edge 10, Type (0, 1), BuildingBlock: XUDNAN_clean_linker_2, # of connection points: 2
#     Edge 11, Type (0, 1), BuildingBlock: XUDNAN_clean_linker_2, # of connection points: 2
#     Edge 12, Type (0, 1), BuildingBlock: XUDNAN_clean_linker_2, # of connection points: 2
#     Edge 13, Type (0, 1), BuildingBlock: XUDNAN_clean_linker_2, # of connection points: 2
#     Edge 14, Type (0, 1), BuildingBlock: XUDNAN_clean_linker_2, # of connection points: 2
#     Edge 15, Type (0, 1), BuildingBlock: XUDNAN_clean_linker_2, # of connection points: 2
#     Edge 16, Type (0, 1), BuildingBlock: XUDNAN_clean_linker_2, # of connection points: 2
#     Edge 17, Type (0, 1), BuildingBlock: XUDNAN_clean_linker_2, # of connection points: 2
#     Edge 18, Type (0, 1), BuildingBlock: XUDNAN_clean_linker_2, # of connection points: 2
#     Edge 19, Type (0, 1), BuildingBlock: XUDNAN_clean_linker_2, # of connection points: 2
#     Edge 20, Type (0, 1), BuildingBlock: XUDNAN_clean_linker_2, # of connection points: 2
#     Edge 21, Type (0, 1), BuildingBlock: XUDNAN_clean_linker_2, # of connection points: 2
#     Edge 22, Type (0, 1), BuildingBlock: XUDNAN_clean_linker_2, # of connection points: 2
#     Edge 23, Type (0, 1), BuildingBlock: XUDNAN_clean_linker_2, # of connection points: 2
#     Edge 24, Type (0, 1), BuildingBlock: XUDNAN_clean_linker_2, # of connection points: 2
#     Edge 25, Type (0, 1), BuildingBlock: XUDNAN_clean_linker_2, # of connection points: 2
#     Edge 26, Type (0, 1), BuildingBlock: XUDNAN_clean_linker_2, # of connection points: 2
# Relax obj value: 0.165
# Max RMSD: 0.184
# Mean RMSD: 0.125
data_MOF--net-anh--node1-BETFAJ_clean_sbu_0--node2-PAMTOO_clean_linker_0--edge1-XUDNAN_clean_linker_2
_symmetry_space_group_name_H-M    P1
_symmetry_Int_Tables_number       1
_symmetry_cell_setting            triclinic
loop_
_symmetry_equiv_pos_as_xyz
'x, y, z'
_cell_length_a     30.05749
_cell_length_b     37.901158
_cell_length_c     49.038563
_cell_angle_alpha  88.92546
_cell_angle_beta   91.412882
_cell_angle_gamma 130.25952
loop_
_atom_site_label
_atom_site_type_symbol
_atom_site_fract_x
_atom_site_fract_y
_atom_site_fract_z
_atom_type_partial_charge
Sm0 Sm 0.1919 0.49719 0.13461 0.0
Sm1 Sm 0.121 0.52121 0.15965 0.0
C2 C 0.25779 0.48971 0.10504 0.0
C3 C 0.31985 0.51318 0.10279 0.0
C4 C 0.33624 0.48764 0.09516 0.0
C5 C 0.39495 0.50808 0.09544 0.0
C6 C 0.4381 0.55449 0.10326 0.0
C7 C 0.42168 0.5805 0.10999 0.0
C8 C 0.36284 0.55988 0.10993 0.0
C9 C 0.19021 0.49695 0.19064 0.0
C10 C 0.25448 0.60759 0.14497 0.0
C11 C 1.05708 0.52492 0.1936 0.0
C12 C 0.99834 0.49164 0.20477 0.0
C13 C 0.96857 0.44401 0.20451 0.0
C14 C 0.90917 0.41217 0.21038 0.0
C15 C 0.87924 0.4277 0.21706 0.0
C16 C 0.91071 0.47549 0.21982 0.0
C17 C 0.96976 0.50721 0.21353 0.0
C18 C 0.12232 0.5212 0.10358 0.0
C19 C 1.05662 0.41182 0.14524 0.0
O20 O 0.24139 0.51299 0.097 0.0
O21 O 0.2335 0.46673 0.12773 0.0
O22 O 0.19562 0.52603 0.17496 0.0
O23 O 0.18691 0.46649 0.1768 0.0
O24 O 0.25561 0.57754 0.13232 0.0
O25 O 0.20945 0.59421 0.15951 0.0
O26 O 1.09451 0.51989 0.20165 0.0
O27 O 1.05962 0.53364 0.16744 0.0
O28 O 0.11788 0.49271 0.11942 0.0
O29 O 0.12184 0.55024 0.1171 0.0
O30 O 1.0574 0.44038 0.1609 0.0
O31 O 1.1006 0.42732 0.12921 0.0
H32 H 0.30351 0.45152 0.08967 0.0
H33 H 0.40658 0.48742 0.08999 0.0
H34 H 0.45408 0.61617 0.11639 0.0
H35 H 0.35086 0.57998 0.11617 0.0
H36 H 0.99051 0.43152 0.19843 0.0
H37 H 0.88585 0.3756 0.20806 0.0
H38 H 0.88858 0.48852 0.22446 0.0
H39 H 0.99223 0.54387 0.21401 0.0
Sm40 Sm 0.69901 0.02834 0.47851 0.0
Sm41 Sm 0.62115 0.06336 0.46555 0.0
C42 C 0.74999 1.0009 0.50437 0.0
C43 C 0.75007 0.96226 0.5037 0.0
C44 C 0.76481 0.95062 0.52748 0.0
C45 C 0.76308 0.91292 0.52771 0.0
C46 C 0.7466 0.88623 0.50409 0.0
C47 C 0.73235 0.89829 0.48016 0.0
C48 C 0.73377 0.93593 0.48 0.0
C49 C 0.67992 0.03291 0.42349 0.0
C50 C 0.55768 0.9516 0.46459 0.0
C51 C 0.57142 0.09455 0.44341 0.0
C52 C 0.5713 0.13213 0.44976 0.0
C53 C 0.53883 0.13931 0.4335 0.0
C54 C 0.54177 0.17701 0.43841 0.0
C55 C 0.5774 0.20816 0.45964 0.0
C56 C 0.60924 0.2003 0.47613 0.0
C57 C 0.60622 0.16261 0.47122 0.0
C58 C 0.63875 0.05638 0.52055 0.0
C59 C 0.76446 0.14025 0.47475 0.0
O60 O 0.70166 0.99065 0.51265 0.0
O61 O 0.77356 0.02975 0.48361 0.0
O62 O 0.66532 0.04291 0.44369 0.0
O63 O 0.70705 0.01845 0.43225 0.0
O64 O 0.60401 0.95992 0.47633 0.0
O65 O 0.55664 0.98477 0.45628 0.0
O66 O 0.6218 0.10808 0.4357 0.0
O67 O 0.54459 0.05973 0.46066 0.0
O68 O 0.65611 0.04972 0.50005 0.0
O69 O 0.60994 0.06944 0.51226 0.0
O70 O 0.71634 0.13097 0.46492 0.0
O71 O 0.7666 0.10799 0.48374 0.0
H72 H 0.77732 0.97055 0.54596 0.0
H73 H 0.77494 0.90479 0.54635 0.0
H74 H 0.71896 0.87805 0.46176 0.0
H75 H 0.72164 0.9442 0.46151 0.0
H76 H 0.5118 0.11611 0.41681 0.0
H77 H 0.51613 0.18175 0.42558 0.0
H78 H 0.63767 0.22392 0.49241 0.0
H79 H 0.63198 0.15769 0.48383 0.0
Sm80 Sm 0.71565 0.59921 0.83644 0.0
Sm81 Sm 0.62776 0.4872 0.84188 0.0
C82 C 0.76745 0.68504 0.82107 0.0
C83 C 0.75473 0.71675 0.81985 0.0
C84 C 0.75927 0.7375 0.79489 0.0
C85 C 0.749 0.76857 0.7933 0.0
C86 C 0.73444 0.77984 0.81671 0.0
C87 C 0.72938 0.75874 0.84167 0.0
C88 C 0.73915 0.72732 0.84322 0.0
C89 C 0.69682 0.56344 0.88785 0.0
C90 C 0.57055 0.53831 0.83991 0.0
C91 C 0.5727 0.40343 0.86193 0.0
C92 C 0.5743 0.36617 0.8568 0.0
C93 C 0.54647 0.32822 0.87456 0.0
C94 C 0.54935 0.29335 0.87024 0.0
C95 C 0.58012 0.29586 0.84803 0.0
C96 C 0.60772 0.33397 0.83019 0.0
C97 C 0.60499 0.3689 0.83459 0.0
C98 C 0.65916 0.51583 0.78831 0.0
C99 C 0.77201 0.5486 0.83652 0.0
O100 O 0.73798 0.6501 0.80413 0.0
O101 O 0.77496 0.67421 0.84528 0.0
O102 O 0.65856 0.5467 0.86917 0.0
O103 O 0.74632 0.6023 0.88032 0.0
O104 O 0.62359 0.57884 0.8361 0.0
O105 O 0.5616 0.49933 0.84384 0.0
O106 O 0.62 0.44076 0.87329 0.0
O107 O 0.55103 0.41234 0.8421 0.0
O108 O 0.67471 0.53947 0.80941 0.0
O109 O 0.62197 0.47238 0.79508 0.0
O110 O 0.72057 0.50973 0.84426 0.0
O111 O 0.78031 0.58649 0.82948 0.0
H112 H 0.77134 0.72998 0.77663 0.0
H113 H 0.75381 0.78463 0.77384 0.0
H114 H 0.71761 0.76641 0.85998 0.0
H115 H 0.73485 0.71159 0.86273 0.0
H116 H 0.52271 0.32565 0.89184 0.0
H117 H 0.52707 0.26422 0.88418 0.0
H118 H 0.63237 0.33726 0.81311 0.0
H119 H 0.62723 0.39825 0.8208 0.0
H120 H 0.7303 0.11974 0.22336 0.0
H121 H 0.59314 0.97239 0.21953 0.0
H122 H 0.68192 0.0485 0.14655 0.0
H123 H 0.55671 0.96516 0.13474 0.0
C124 C 0.54852 0.94807 0.15486 0.0
O125 O 0.60117 0.96619 0.16722 0.0
H126 H 0.5245 0.9549 0.1675 0.0
C127 C 0.70246 0.08843 0.21133 0.0
C128 C 0.71157 0.09005 0.18318 0.0
C129 C 0.65989 0.04632 0.22459 0.0
C130 C 0.62586 1.0052 0.20953 0.0
C131 C 0.63361 1.0062 0.18142 0.0
C132 C 0.6763 0.04842 0.16829 0.0
H133 H 0.73374 0.64507 0.59121 0.0
H134 H 0.68857 0.51204 0.58484 0.0
H135 H 0.69015 0.57886 0.51304 0.0
H136 H 0.59263 0.48045 0.51519 0.0
C137 C 0.61281 0.46861 0.52718 0.0
O138 O 0.67092 0.50547 0.53217 0.0
H139 H 0.58923 0.45391 0.54679 0.0
C140 C 0.72133 0.61639 0.57892 0.0
C141 C 0.71362 0.61709 0.55055 0.0
C142 C 0.71215 0.57865 0.59166 0.0
C143 C 0.69568 0.54147 0.57557 0.0
C144 C 0.68803 0.54185 0.54734 0.0
C145 C 0.6973 0.57959 0.53486 0.0
H146 H 1.08128 0.55434 0.9042 0.0
H147 H 0.21626 0.54585 0.8958 0.0
H148 H 0.14393 0.56063 0.82445 0.0
H149 H 0.29819 0.61195 0.85634 0.0
C150 C 0.27976 0.58555 0.84002 0.0
O151 O 0.21984 0.55073 0.84317 0.0
H152 H 0.28739 0.60305 0.82014 0.0
C153 C 0.11151 0.556 0.89141 0.0
C154 C 0.10825 0.55937 0.86289 0.0
C155 C 0.14969 0.55057 0.90346 0.0
C156 C 0.18681 0.55026 0.88681 0.0
C157 C 0.18605 0.55482 0.85851 0.0
C158 C 0.14627 0.55898 0.84645 0.0
H159 H 1.0604 0.42639 0.39227 0.0
H160 H 0.18728 0.57513 0.38613 0.0
H161 H 0.12977 0.50926 0.46467 0.0
H162 H 0.27709 0.60585 0.42746 0.0
C163 C 0.25833 0.61243 0.44387 0.0
O164 O 0.19983 0.58907 0.43856 0.0
H165 H 0.26246 0.5995 0.4635 0.0
C166 C 1.08833 0.46032 0.40156 0.0
C167 C 1.08928 0.46308 0.43006 0.0
C168 C 0.12323 0.50019 0.38517 0.0
C169 C 0.16066 0.54359 0.39807 0.0
C170 C 0.16394 0.54686 0.42665 0.0
C171 C 0.12826 0.50655 0.44266 0.0
H172 H 0.68266 0.9794 0.72211 0.0
H173 H 0.63223 0.0631 0.72315 0.0
H174 H 0.65914 0.01961 0.79829 0.0
H175 H 0.56217 0.0208 0.79701 0.0
C176 C 0.58138 0.05145 0.78358 0.0
O177 O 0.63655 0.0698 0.77601 0.0
H178 H 0.55264 0.03978 0.76517 0.0
C179 C 0.67058 0.99647 0.73318 0.0
C180 C 0.67079 0.99499 0.76186 0.0
C181 C 0.65582 0.02015 0.71867 0.0
C182 C 0.64418 0.04475 0.73352 0.0
C183 C 0.64642 0.04506 0.76208 0.0
C184 C 0.65922 0.02001 0.7762 0.0
H185 H 0.6462 0.44469 0.09175 0.0
H186 H 0.77329 0.59348 0.08409 0.0
H187 H 0.76111 0.52857 0.15895 0.0
H188 H 0.85284 0.66785 0.15208 0.0
C189 C 0.811 0.6317 0.15103 0.0
O190 O 0.81697 0.60723 0.1331 0.0
H191 H 0.80316 0.61676 0.17186 0.0
C192 C 0.67989 0.47852 0.10049 0.0
C193 C 0.69816 0.48193 0.12767 0.0
C194 C 0.70718 0.5186 0.08433 0.0
C195 C 0.7522 0.56206 0.09593 0.0
C196 C 0.77162 0.56541 0.12266 0.0
C197 C 0.74476 0.52551 0.13841 0.0
H198 H 0.47832 0.51587 0.12944 0.0
H199 H 0.53592 0.63859 0.08487 0.0
H200 H 0.63874 0.67276 0.09216 0.0
H201 H 0.58831 0.57277 0.18029 0.0
H202 H 0.59599 0.52939 0.18243 0.0
H203 H 0.52727 0.51345 0.17202 0.0
H204 H 0.52828 0.47833 0.12726 0.0
H205 H 0.59674 0.49379 0.13781 0.0
H206 H 0.59053 0.51348 0.10537 0.0
H207 H 0.73524 0.69211 0.10363 0.0
H208 H 0.81738 0.69677 0.12062 0.0
H209 H 0.69494 0.56421 0.16086 0.0
C210 C 0.51256 0.54963 0.12083 0.0
C211 C 0.49948 0.57452 0.10637 0.0
C212 C 0.54534 0.61907 0.09599 0.0
C213 C 0.60365 0.63859 0.09995 0.0
C214 C 0.61505 0.61317 0.11451 0.0
C215 C 0.57072 0.56969 0.12484 0.0
C216 C 0.59432 0.55019 0.1407 0.0
C217 C 0.57535 0.54093 0.17063 0.0
C218 C 0.57639 0.50636 0.12696 0.0
C219 C 0.6589 0.58985 0.13817 0.0
C220 C 0.67019 0.6255 0.12252 0.0
C221 C 0.72692 0.66468 0.1162 0.0
C222 C 0.77318 0.66719 0.126 0.0
C223 C 0.76217 0.63126 0.1424 0.0
C224 C 0.70437 0.59247 0.14873 0.0
H225 H 0.78361 0.21311 0.44826 0.0
H226 H 0.86906 0.17904 0.5012 0.0
H227 H 0.95998 0.26083 0.49981 0.0
H228 H 0.9021 0.28819 0.40535 0.0
H229 H 0.88802 0.32742 0.40017 0.0
H230 H 0.82892 0.26757 0.4078 0.0
H231 H 0.80186 0.29166 0.44917 0.0
H232 H 0.86119 0.3517 0.44173 0.0
H233 H 0.85638 0.32856 0.47502 0.0
H234 H 1.04394 0.34696 0.4903 0.0
H235 H 0.11319 0.42613 0.47067 0.0
H236 H 0.9717 0.40134 0.42351 0.0
C237 C 0.82104 0.22277 0.45997 0.0
C238 C 0.81886 0.18951 0.47503 0.0
C239 C 0.86946 0.20379 0.48956 0.0
C240 C 0.92127 0.25028 0.489 0.0
C241 C 0.92188 0.28208 0.47377 0.0
C242 C 0.87297 0.2687 0.45943 0.0
C243 C 0.8856 0.30836 0.44295 0.0
C244 C 0.87559 0.29721 0.41226 0.0
C245 C 0.84909 0.3208 0.45282 0.0
C246 C 0.94958 0.34608 0.44979 0.0
C247 C 0.96979 0.33071 0.46794 0.0
C248 C 1.02835 0.35937 0.47628 0.0
C249 C 1.06733 0.40432 0.4652 0.0
C250 C 1.04756 0.41972 0.44577 0.0
C251 C 0.98776 0.39045 0.43853 0.0
H252 H 0.672 0.78592 0.77822 0.0
H253 H 0.77882 0.85214 0.85132 0.0
H254 H 0.77016 0.91264 0.84692 0.0
H255 H 0.73082 0.88766 0.74103 0.0
H256 H 0.6625 0.86606 0.72538 0.0
H257 H 0.67394 0.8265 0.7354 0.0
H258 H 0.58129 0.78048 0.76494 0.0
H259 H 0.56936 0.81979 0.75488 0.0
H260 H 0.57456 0.81024 0.79053 0.0
H261 H 0.75569 0.96924 0.83227 0.0
H262 H 0.73411 0.01556 0.80949 0.0
H263 H 0.63367 0.91005 0.74713 0.0
C264 C 0.69333 0.81304 0.79338 0.0
C265 C 0.72613 0.81441 0.8151 0.0
C266 C 0.75298 0.85021 0.83467 0.0
C267 C 0.74849 0.88479 0.83227 0.0
C268 C 0.71646 0.88277 0.81036 0.0
C269 C 0.6889 0.84753 0.79141 0.0
C270 C 0.65818 0.8537 0.76944 0.0
C271 C 0.68286 0.8588 0.74115 0.0
C272 C 0.59192 0.81368 0.76999 0.0
C273 C 0.67393 0.89852 0.77859 0.0
C274 C 0.70736 0.91474 0.80227 0.0
C275 C 0.72891 0.95655 0.8139 0.0
C276 C 0.71619 0.98255 0.80088 0.0
C277 C 0.68226 0.96664 0.77645 0.0
C278 C 0.6604 0.92368 0.76553 0.0
H279 H 0.81514 0.37492 0.17401 0.0
H280 H 0.80188 0.41601 0.25276 0.0
H281 H 0.71025 0.39763 0.23823 0.0
H282 H 0.80496 0.43353 0.13927 0.0
H283 H 0.75978 0.3976 0.11062 0.0
H284 H 0.79743 0.38389 0.13021 0.0
H285 H 0.7008 0.30199 0.1397 0.0
H286 H 0.6623 0.31536 0.11953 0.0
H287 H 0.64048 0.29446 0.154 0.0
H288 H 0.65726 0.41342 0.2118 0.0
H289 H 0.65311 0.46062 0.17863 0.0
H290 H 0.69901 0.41386 0.11419 0.0
C291 C 0.79011 0.37648 0.18866 0.0
C292 C 0.81505 0.3968 0.21434 0.0
C293 C 0.78301 0.40012 0.23303 0.0
C294 C 0.73071 0.38964 0.22482 0.0
C295 C 0.71131 0.37618 0.19781 0.0
C296 C 0.73915 0.368 0.18012 0.0
C297 C 0.72109 0.36674 0.15073 0.0
C298 C 0.77398 0.39737 0.13169 0.0
C299 C 0.67862 0.31666 0.14039 0.0
C300 C 0.68954 0.3853 0.15423 0.0
C301 C 0.67995 0.38667 0.1816 0.0
C302 C 0.6626 0.41099 0.19036 0.0
C303 C 0.66046 0.43793 0.1714 0.0
C304 C 0.67578 0.44046 0.14404 0.0
C305 C 0.68573 0.41111 0.13497 0.0
H306 H 0.53747 0.87284 0.48217 0.0
H307 H 0.4581 0.91875 0.43566 0.0
H308 H 0.37203 0.83747 0.42621 0.0
H309 H 0.48842 0.77856 0.43902 0.0
H310 H 0.4756 0.74113 0.46669 0.0
H311 H 0.53036 0.8029 0.47032 0.0
H312 H 0.48051 0.79912 0.51393 0.0
H313 H 0.42554 0.73731 0.51045 0.0
H314 H 0.40447 0.77219 0.5125 0.0
H315 H 0.2962 0.75075 0.41989 0.0
H316 H 0.23531 0.66575 0.41887 0.0
H317 H 0.36251 0.67624 0.4706 0.0
C318 C 0.50198 0.86596 0.47008 0.0
C319 C 0.50486 0.90252 0.45969 0.0
C320 C 0.45716 0.89161 0.44397 0.0
C321 C 0.40798 0.84544 0.43844 0.0
C322 C 0.40679 0.81037 0.44887 0.0
C323 C 0.45243 0.82009 0.46448 0.0
C324 C 0.44054 0.77607 0.47312 0.0
C325 C 0.48645 0.7746 0.46159 0.0
C326 C 0.43758 0.77088 0.50435 0.0
C327 C 0.38119 0.74005 0.45982 0.0
C328 C 0.36252 0.76052 0.44586 0.0
C329 C 0.30996 0.73433 0.43113 0.0
C330 C 0.27549 0.686 0.43077 0.0
C331 C 0.29318 0.66419 0.44545 0.0
C332 C 0.34709 0.69186 0.45987 0.0
H333 H 0.5699 0.2554 0.79963 0.0
H334 H 0.5988 0.25312 0.88657 0.0
H335 H 0.60388 0.19144 0.87954 0.0
H336 H 0.47925 0.1338 0.78898 0.0
H337 H 0.5086 0.1391 0.75609 0.0
H338 H 0.50857 0.18379 0.76788 0.0
H339 H 0.6202 0.24479 0.76106 0.0
H340 H 0.62058 0.20028 0.7492 0.0
H341 H 0.66718 0.23644 0.77742 0.0
H342 H 0.60548 0.1297 0.86304 0.0
H343 H 0.60079 0.07096 0.83822 0.0
H344 H 0.57126 0.11368 0.76221 0.0
C345 C 0.5779 0.24228 0.81717 0.0
C346 C 0.58387 0.25909 0.84368 0.0
C347 C 0.59337 0.24042 0.86612 0.0
C348 C 0.59671 0.20559 0.86231 0.0
C349 C 0.59045 0.18973 0.83593 0.0
C350 C 0.58121 0.20743 0.81374 0.0
C351 C 0.57478 0.18373 0.78757 0.0
C352 C 0.51419 0.15861 0.77437 0.0
C353 C 0.6236 0.21838 0.76764 0.0
C354 C 0.58153 0.14975 0.79853 0.0
C355 C 0.5908 0.1539 0.82647 0.0
C356 C 0.59805 0.12604 0.84119 0.0
C357 C 0.59523 0.0928 0.827 0.0
C358 C 0.58467 0.08744 0.7985 0.0
C359 C 0.57862 0.11678 0.78408 0.0
H360 H 0.69899 0.81951 0.54355 0.0
H361 H 0.78768 0.86147 0.4662 0.0
H362 H 0.78604 0.79531 0.46857 0.0
H363 H 0.77344 0.78585 0.5756 0.0
H364 H 0.71044 0.73728 0.59336 0.0
H365 H 0.71624 0.78648 0.58478 0.0
H366 H 0.61662 0.73312 0.5591 0.0
H367 H 0.6104 0.68368 0.5677 0.0
H368 H 0.60562 0.6958 0.53254 0.0
H369 H 0.77907 0.72657 0.48096 0.0
H370 H 0.76527 0.66016 0.5017 0.0
H371 H 0.67887 0.66304 0.5702 0.0
C372 C 0.71811 0.81481 0.52711 0.0
C373 C 0.74367 0.84565 0.50474 0.0
C374 C 0.76749 0.83798 0.48342 0.0
C375 C 0.76695 0.80065 0.48465 0.0
C376 C 0.74197 0.7712 0.5072 0.0
C377 C 0.71765 0.77773 0.52794 0.0
C378 C 0.69418 0.74167 0.55013 0.0
C379 C 0.72546 0.76418 0.57758 0.0
C380 C 0.62776 0.7118 0.55249 0.0
C381 C 0.70996 0.71421 0.53891 0.0
C382 C 0.73735 0.73159 0.51411 0.0
C383 C 0.75718 0.71242 0.50025 0.0
C384 C 0.74892 0.67459 0.51213 0.0
C385 C 0.7211 0.65639 0.53762 0.0
C386 C 0.70105 0.67645 0.55091 0.0
H387 H 0.87993 0.60428 0.86282 0.0
H388 H 0.77348 0.48998 0.80642 0.0
H389 H 0.85174 0.48532 0.80356 0.0
H390 H 1.02321 0.65771 0.83452 0.0
H391 H 1.05845 0.67094 0.86751 0.0
H392 H 0.99682 0.66853 0.86304 0.0
H393 H 0.94325 0.60794 0.9019 0.0
H394 H 1.00478 0.61036 0.90655 0.0
H395 H 0.93325 0.55574 0.90001 0.0
H396 H 0.9421 0.49252 0.80731 0.0
H397 H 1.03035 0.50421 0.82165 0.0
H398 H 1.07582 0.60988 0.87835 0.0
C399 C 0.87372 0.57888 0.84952 0.0
C400 C 0.82102 0.54804 0.83436 0.0
C401 C 0.81371 0.51425 0.81791 0.0
C402 C 0.85805 0.51145 0.81613 0.0
C403 C 0.90946 0.54216 0.83135 0.0
C404 C 0.91717 0.57481 0.84806 0.0
C405 C 0.97436 0.60085 0.86413 0.0
C406 C 1.01565 0.65258 0.85686 0.0
C407 C 0.96323 0.59326 0.89497 0.0
C408 C 0.99749 0.57776 0.8539 0.0
C409 C 0.9599 0.54457 0.83463 0.0
C410 C 0.9718 0.5185 0.82237 0.0
C411 C 1.02245 0.52566 0.83048 0.0
C412 C 1.06055 0.55811 0.85102 0.0
C413 C 1.04788 0.58487 0.86252 0.0
H414 H 0.2706 0.6793 0.17029 0.0
H415 H 0.35439 0.64972 0.11568 0.0
H416 H 0.43915 0.73316 0.11281 0.0
H417 H 0.31814 0.78335 0.13715 0.0
H418 H 0.32866 0.81218 0.16849 0.0
H419 H 0.27504 0.7501 0.16649 0.0
H420 H 0.3239 0.74309 0.20804 0.0
H421 H 0.37772 0.80516 0.21016 0.0
H422 H 0.40039 0.77151 0.2071 0.0
H423 H 0.51456 0.82049 0.11538 0.0
H424 H 0.57428 0.90459 0.12342 0.0
H425 H 0.44139 0.87647 0.17654 0.0
C426 C 0.30671 0.6902 0.15773 0.0
C427 C 0.30568 0.65773 0.14324 0.0
C428 C 0.35405 0.67375 0.12705 0.0
C429 C 0.40246 0.72115 0.12527 0.0
C430 C 0.40196 0.75215 0.13981 0.0
C431 C 0.35534 0.7373 0.15574 0.0
C432 C 0.36537 0.77762 0.16923 0.0
C433 C 0.31905 0.781 0.15976 0.0
C434 C 0.36695 0.77412 0.20048 0.0
C435 C 0.4249 0.81755 0.15836 0.0
C436 C 0.44532 0.80219 0.14141 0.0
C437 C 0.49906 0.83286 0.12868 0.0
C438 C 0.53266 0.88043 0.13335 0.0
C439 C 0.51246 0.89681 0.15061 0.0
C440 C 0.45796 0.86484 0.16331 0.0
H441 H 0.58075 0.24394 0.50862 0.0
H442 H 0.58582 0.26553 0.42111 0.0
H443 H 0.59513 0.33428 0.42875 0.0
H444 H 0.49778 0.27798 0.52489 0.0
H445 H 0.5375 0.30639 0.55618 0.0
H446 H 0.53092 0.25875 0.54378 0.0
H447 H 0.64345 0.31003 0.54481 0.0
H448 H 0.65039 0.35784 0.55724 0.0
H449 H 0.68723 0.36436 0.52667 0.0
H450 H 0.60528 0.40139 0.44598 0.0
H451 H 0.61322 0.46094 0.47177 0.0
H452 H 0.60278 0.39596 0.54779 0.0
C453 C 0.58422 0.26328 0.49105 0.0
C454 C 0.58236 0.24923 0.46425 0.0
C455 C 0.58625 0.2752 0.44181 0.0
C456 C 0.59197 0.31449 0.44595 0.0
C457 C 0.59377 0.32738 0.47263 0.0
C458 C 0.58997 0.30255 0.4948 0.0
C459 C 0.59287 0.32366 0.52139 0.0
C460 C 0.5364 0.28966 0.5375 0.0
C461 C 0.64669 0.33994 0.53853 0.0
C462 C 0.59871 0.36419 0.51073 0.0
C463 C 0.59928 0.36581 0.48254 0.0
C464 C 0.60454 0.40031 0.46804 0.0
C465 C 0.60891 0.43384 0.48278 0.0
C466 C 0.60742 0.43225 0.51161 0.0
C467 C 0.60305 0.39736 0.52571 0.0
H468 H 0.56722 0.60987 0.83296 0.0
H469 H 0.45585 0.46221 0.8485 0.0
H470 H 0.37047 0.45779 0.8501 0.0
H471 H 0.4928 0.63169 0.87708 0.0
H472 H 0.50129 0.67389 0.85469 0.0
H473 H 0.55407 0.66576 0.85456 0.0
H474 H 0.53732 0.65027 0.80269 0.0
H475 H 0.4845 0.65836 0.80259 0.0
H476 H 0.46454 0.60558 0.78955 0.0
H477 H 0.29571 0.46915 0.85054 0.0
H478 H 0.23893 0.4955 0.84921 0.0
H479 H 0.39716 0.63547 0.83299 0.0
C480 C 0.52492 0.57653 0.83668 0.0
C481 C 0.51891 0.53636 0.8406 0.0
C482 C 0.46231 0.49361 0.8454 0.0
C483 C 0.41322 0.49068 0.84637 0.0
C484 C 0.42068 0.53076 0.84247 0.0
C485 C 0.47514 0.57293 0.83768 0.0
C486 C 0.47105 0.61078 0.83416 0.0
C487 C 0.50693 0.64771 0.85645 0.0
C488 C 0.4905 0.63252 0.80554 0.0
C489 C 0.4059 0.58333 0.83771 0.0
C490 C 0.37764 0.53722 0.84253 0.0
C491 C 0.31749 0.50519 0.84668 0.0
C492 C 0.28541 0.52053 0.84586 0.0
C493 C 0.31324 0.56766 0.8408 0.0
C494 C 0.37445 0.59921 0.83675 0.0
H495 H 0.95352 0.36502 0.17329 0.0
H496 H 1.04343 0.34452 0.11639 0.0
H497 H 0.96086 0.2608 0.11677 0.0
H498 H 0.8953 0.26655 0.21378 0.0
H499 H 0.82678 0.25316 0.21946 0.0
H500 H 0.89115 0.31191 0.21297 0.0
H501 H 0.83745 0.31607 0.17204 0.0
H502 H 0.77328 0.25736 0.17905 0.0
H503 H 0.80474 0.27314 0.14562 0.0
H504 H 0.87262 0.17889 0.12593 0.0
H505 H 0.78538 0.10445 0.14386 0.0
H506 H 0.75018 0.17744 0.19358 0.0
C507 C 0.95571 0.34309 0.16072 0.0
C508 C 1.00526 0.36165 0.14485 0.0
C509 C 1.00612 0.33141 0.12873 0.0
C510 C 0.95927 0.28368 0.12872 0.0
C511 C 0.91145 0.26651 0.14476 0.0
C512 C 0.9091 0.29524 0.16038 0.0
C513 C 0.85363 0.26758 0.17676 0.0
C514 C 0.86756 0.27526 0.20756 0.0
C515 C 0.81499 0.27923 0.16784 0.0
C516 C 0.82622 0.21879 0.16856 0.0
C517 C 0.85998 0.21903 0.14984 0.0
C518 C 0.84528 0.17821 0.14028 0.0
C519 C 0.79528 0.13598 0.15047 0.0
C520 C 0.76044 0.13475 0.1701 0.0
C521 C 0.77586 0.17695 0.17874 0.0
H522 H 0.12876 0.57744 0.06394 0.0
H523 H 0.12499 0.4617 0.07577 0.0
H524 H 0.13309 0.45805 0.02639 0.0
H525 H 1.04225 0.53478 0.00144 0.0
H526 H 1.0831 0.59097 0.98563 0.0
H527 H 1.07806 0.58563 0.02223 0.0
H528 H 0.19076 0.64326 0.0266 0.0
H529 H 0.19614 0.64875 0.99 0.0
H530 H 0.23202 0.63181 0.0088 0.0
H531 H 0.14154 0.46599 0.97644 0.0
H532 H 0.14738 0.48408 0.92753 0.0
H533 H 0.1448 0.59424 0.94639 0.0
C534 C 0.12967 0.55143 0.05604 0.0
C535 C 0.12651 0.51998 0.07371 0.0
C536 C 0.12757 0.48627 0.06267 0.0
C537 C 0.13217 0.48387 0.03462 0.0
C538 C 0.13533 0.51525 0.01773 0.0
C539 C 0.13389 0.5483 0.02785 0.0
C540 C 0.13717 0.57726 0.00482 0.0
C541 C 1.08184 0.57182 0.00346 0.0
C542 C 0.19231 0.6283 0.00774 0.0
C543 C 0.14063 0.55517 0.98035 0.0
C544 C 0.13974 0.51962 0.98842 0.0
C545 C 0.14252 0.49387 0.9698 0.0
C546 C 0.14623 0.50463 0.94207 0.0
C547 C 0.14711 0.54084 0.93313 0.0
C548 C 0.14408 0.56632 0.95261 0.0
H549 H 0.6764 0.98753 0.37963 0.0
H550 H 0.66257 0.08981 0.40235 0.0
H551 H 0.64745 0.09969 0.35407 0.0
H552 H 0.75733 0.04434 0.31989 0.0
H553 H 0.72208 0.99234 0.30033 0.0
H554 H 0.72682 0.99055 0.33691 0.0
H555 H 0.61455 0.92616 0.33898 0.0
H556 H 0.60946 0.92779 0.30235 0.0
H557 H 0.56833 0.93587 0.32337 0.0
H558 H 0.64209 0.10307 0.30337 0.0
H559 H 0.64529 0.09896 0.25326 0.0
H560 H 0.66129 0.9936 0.26296 0.0
C561 C 0.66938 1.01151 0.37437 0.0
C562 C 0.66902 0.0372 0.39469 0.0
C563 C 0.66065 0.0687 0.38715 0.0
C564 C 0.65264 0.07479 0.35975 0.0
C565 C 0.65296 0.04886 0.34015 0.0
C566 C 0.66091 0.01771 0.34705 0.0
C567 C 0.66183 0.99564 0.32187 0.0
C568 C 0.72051 1.00638 0.31963 0.0
C569 C 0.61047 0.94326 0.32164 0.0
C570 C 0.65449 0.02004 0.29974 0.0
C571 C 0.64928 0.0505 0.31077 0.0
C572 C 0.64537 0.07893 0.29446 0.0
C573 C 0.64738 0.07648 0.26611 0.0
C574 C 0.65296 0.04569 0.25439 0.0
C575 C 0.6558 0.01673 0.27144 0.0
H576 H 0.60867 0.46861 0.74072 0.0
H577 H 0.75354 0.60328 0.77321 0.0
H578 H 0.78545 0.63368 0.72628 0.0
H579 H 0.68496 0.47098 0.6837 0.0
H580 H 0.62268 0.44217 0.66089 0.0
H581 H 0.61228 0.43089 0.69702 0.0
H582 H 0.54758 0.45381 0.69736 0.0
H583 H 0.55754 0.46491 0.66123 0.0
H584 H 0.57597 0.50948 0.68411 0.0
H585 H 0.80047 0.64925 0.67577 0.0
H586 H 0.79596 0.64982 0.62542 0.0
H587 H 0.63989 0.50503 0.62614 0.0
C588 C 0.64721 0.50446 0.7379 0.0
C589 C 0.67841 0.53391 0.76044 0.0
C590 C 0.72853 0.58055 0.7561 0.0
C591 C 0.7472 0.59793 0.72956 0.0
C592 C 0.71522 0.56807 0.7077 0.0
C593 C 0.66621 0.52235 0.71158 0.0
C594 C 0.63864 0.49783 0.68465 0.0
C595 C 0.63973 0.45812 0.68138 0.0
C596 C 0.57625 0.48051 0.68167 0.0
C597 C 0.67954 0.53698 0.66498 0.0
C598 C 0.72364 0.57711 0.67867 0.0
C599 C 0.76611 0.61803 0.66483 0.0
C600 C 0.76299 0.61807 0.63625 0.0
C601 C 0.71752 0.57751 0.6218 0.0
C602 C 0.67569 0.53641 0.6365 0.0
H603 H 0.66549 0.10679 0.56651 0.0
H604 H 0.61706 0.97845 0.53783 0.0
H605 H 0.61749 0.95563 0.58536 0.0
H606 H 0.76392 0.12515 0.62107 0.0
H607 H 0.7443 0.14953 0.64407 0.0
H608 H 0.74092 0.15587 0.60776 0.0
H609 H 0.6326 0.11886 0.6114 0.0
H610 H 0.63552 0.11207 0.64767 0.0
H611 H 0.58141 0.06257 0.6269 0.0
H612 H 0.61524 0.94424 0.63577 0.0
H613 H 0.61997 0.94757 0.68577 0.0
H614 H 0.67965 0.08708 0.68206 0.0
C615 C 0.65547 0.07411 0.57039 0.0
C616 C 0.64209 0.04449 0.54874 0.0
C617 C 0.62896 1.00195 0.55426 0.0
C618 C 0.62851 0.98857 0.58115 0.0
C619 C 0.64197 0.01851 0.60215 0.0
C620 C 0.65608 0.06069 0.59712 0.0
C621 C 0.66987 0.08664 0.62344 0.0
C622 C 0.73354 0.13198 0.62412 0.0
C623 C 0.6273 0.09554 0.62759 0.0
C624 C 0.66014 0.05202 0.64405 0.0
C625 C 0.64362 1.01287 0.6313 0.0
C626 C 0.62942 0.97515 0.64599 0.0
C627 C 0.63282 0.97765 0.67451 0.0
C628 C 0.65145 0.01801 0.68822 0.0
C629 C 0.66509 0.05559 0.67253 0.0
H630 H 0.7766 0.5937 0.92859 0.0
H631 H 0.59126 0.49288 0.91037 0.0
H632 H 0.57271 0.46751 0.95875 0.0
H633 H 0.78145 0.52275 0.97794 0.0
H634 H 0.83536 0.57172 -0.00091 0.0
H635 H 0.83324 0.57931 0.96285 0.0
H636 H 0.8246 0.64193 0.97164 0.0
H637 H 0.82611 0.63424 0.00787 0.0
H638 H 0.76628 0.62788 0.99238 0.0
H639 H 0.57502 0.45767 0.01033 0.0
H640 H 0.5983 0.46197 0.05962 0.0
H641 H 0.78243 0.56758 0.0424 0.0
C642 C 0.73215 0.56594 0.93471 0.0
C643 C 0.6853 0.54529 0.91592 0.0
C644 C 0.62773 0.50906 0.92459 0.0
C645 C 0.61683 0.4945 0.95197 0.0
C646 C 0.6641 0.51629 0.97019 0.0
C647 C 0.72065 0.5509 0.96178 0.0
C648 C 0.76385 0.56964 0.98525 0.0
C649 C 0.80595 0.56028 0.98102 0.0
C650 C 0.79714 0.62148 0.98952 0.0
C651 C 0.72281 0.54094 0.00837 0.0
C652 C 0.66544 0.51022 -0.00059 0.0
C653 C 0.61988 0.48125 0.01749 0.0
C654 C 0.63349 0.48384 0.04541 0.0
C655 C 0.69214 0.51525 0.0549 0.0
C656 C 0.73707 0.54372 0.03594 0.0
H657 H 0.25007 0.55438 0.23398 0.0
H658 H 1.08496 0.42311 0.21006 0.0
H659 H 1.04703 0.41348 0.25628 0.0
H660 H 0.25431 0.51484 0.30078 0.0
H661 H 0.28925 0.56963 0.31699 0.0
H662 H 0.30127 0.56778 0.28146 0.0
H663 H 0.26688 0.61378 0.2694 0.0
H664 H 0.25396 0.61519 0.3049 0.0
H665 H 0.196 0.59184 0.28002 0.0
H666 H 1.02618 0.42034 0.30414 0.0
H667 H 1.02789 0.43471 0.35289 0.0
H668 H 0.2119 0.55577 0.34796 0.0
C669 C 0.20605 0.52363 0.23867 0.0
C670 C 0.17003 0.48954 0.21871 0.0
C671 C 0.11293 0.44946 0.22528 0.0
C672 C 1.09101 0.44392 0.25134 0.0
C673 C 0.12745 0.47829 0.27066 0.0
C674 C 0.18421 0.51678 0.26489 0.0
C675 C 0.21569 0.5465 0.29001 0.0
C676 C 0.26822 0.54986 0.29777 0.0
C677 C 0.23421 0.59468 0.28582 0.0
C678 C 0.16777 0.51861 0.31082 0.0
C679 C 0.1169 0.4801 0.299 0.0
C680 C 1.06614 0.4498 0.31379 0.0
C681 C 1.06786 0.45812 0.34164 0.0
C682 C 0.12055 0.49563 0.35482 0.0
C683 C 0.17079 0.52678 0.33884 0.0
loop_
_geom_bond_atom_site_label_1
_geom_bond_atom_site_label_2
_geom_bond_distance
_geom_bond_site_symmetry_2
_ccdc_geom_bond_type
Sm0 C2 2.846 . S
Sm0 O20 2.543 . S
Sm0 O21 2.450 . S
Sm0 O22 2.681 1_455 S
Sm0 O23 2.464 . S
Sm0 O24 2.396 . S
Sm0 O28 2.386 . S
Sm0 O31 2.408 1_455 S
Sm1 C11 2.846 . S
Sm1 O22 2.386 . S
Sm1 O25 2.408 1_655 S
Sm1 O26 2.543 . S
Sm1 O27 2.450 . S
Sm1 O28 2.681 1_655 S
Sm1 O29 2.464 . S
Sm1 O30 2.396 . S
C2 Sm0 2.846 . S
C2 C3 1.506 . S
C2 O20 1.261 . S
C2 O21 1.242 . S
C3 C2 1.506 . S
C3 C4 1.358 . S
C3 C8 1.382 . S
C4 C3 1.358 . S
C4 C5 1.385 . S
C4 H32 0.930 . S
C5 C4 1.385 . S
C5 C6 1.395 . S
C5 H33 0.929 . S
C6 C5 1.395 . S
C6 C7 1.335 . S
C7 C6 1.335 . S
C7 C8 1.398 . S
C7 H34 0.930 . S
C8 C3 1.382 . S
C8 C7 1.398 . S
C8 H35 0.929 . S
C9 O22 1.271 1_455 S
C9 O23 1.251 . S
C10 O24 1.252 . S
C10 O25 1.272 . S
C11 Sm1 2.846 . S
C11 C12 1.506 . S
C11 O26 1.261 . S
C11 O27 1.242 . S
C12 C11 1.506 . S
C12 C13 1.358 . S
C12 C17 1.382 . S
C13 C12 1.358 . S
C13 C14 1.385 . S
C13 H36 0.930 . S
C14 C13 1.385 . S
C14 C15 1.395 . S
C14 H37 0.929 . S
C15 C14 1.395 . S
C15 C16 1.335 . S
C16 C15 1.335 . S
C16 C17 1.398 . S
C16 H38 0.930 . S
C17 C12 1.382 . S
C17 C16 1.398 . S
C17 H39 0.929 . S
C18 O28 1.271 . S
C18 O29 1.251 1_455 S
C19 O30 1.252 . S
C19 O31 1.272 . S
O20 Sm0 2.543 . S
O20 C2 1.261 . S
O21 Sm0 2.450 . S
O21 C2 1.242 . S
O22 Sm0 2.681 1_655 S
O22 Sm1 2.386 . S
O22 C9 1.271 1_655 S
O23 Sm0 2.464 . S
O23 C9 1.251 . S
O24 Sm0 2.396 . S
O24 C10 1.252 . S
O25 Sm1 2.408 1_455 S
O25 C10 1.272 . S
O26 Sm1 2.543 . S
O26 C11 1.261 . S
O27 Sm1 2.450 . S
O27 C11 1.242 . S
O28 Sm0 2.386 . S
O28 Sm1 2.681 1_455 S
O28 C18 1.271 . S
O29 Sm1 2.464 . S
O29 C18 1.251 1_655 S
O30 Sm1 2.396 . S
O30 C19 1.252 . S
O31 Sm0 2.408 1_655 S
O31 C19 1.272 . S
H32 C4 0.930 . S
H33 C5 0.929 . S
H34 C7 0.930 . S
H35 C8 0.929 . S
H36 C13 0.930 . S
H37 C14 0.929 . S
H38 C16 0.930 . S
H39 C17 0.929 . S
Sm40 C42 2.846 1_545 S
Sm40 O60 2.543 1_545 S
Sm40 O61 2.450 1_545 S
Sm40 O62 2.681 . S
Sm40 O63 2.464 . S
Sm40 O64 2.396 1_545 S
Sm40 O68 2.386 . S
Sm40 O71 2.408 . S
Sm41 C51 2.846 . S
Sm41 O62 2.386 . S
Sm41 O65 2.408 1_545 S
Sm41 O66 2.543 . S
Sm41 O67 2.450 . S
Sm41 O68 2.681 . S
Sm41 O69 2.464 . S
Sm41 O70 2.396 . S
C42 Sm40 2.846 1_565 S
C42 C43 1.506 . S
C42 O60 1.261 . S
C42 O61 1.242 . S
C43 C42 1.506 . S
C43 C44 1.358 . S
C43 C48 1.382 . S
C44 C43 1.358 . S
C44 C45 1.385 . S
C44 H72 0.930 . S
C45 C44 1.385 . S
C45 C46 1.395 . S
C45 H73 0.929 . S
C46 C45 1.395 . S
C46 C47 1.335 . S
C47 C46 1.335 . S
C47 C48 1.398 . S
C47 H74 0.930 . S
C48 C43 1.382 . S
C48 C47 1.398 . S
C48 H75 0.929 . S
C49 O62 1.271 . S
C49 O63 1.251 . S
C50 O64 1.252 . S
C50 O65 1.272 . S
C51 Sm41 2.846 . S
C51 C52 1.506 . S
C51 O66 1.261 . S
C51 O67 1.242 . S
C52 C51 1.506 . S
C52 C53 1.358 . S
C52 C57 1.382 . S
C53 C52 1.358 . S
C53 C54 1.385 . S
C53 H76 0.930 . S
C54 C53 1.385 . S
C54 C55 1.395 . S
C54 H77 0.929 . S
C55 C54 1.395 . S
C55 C56 1.335 . S
C56 C55 1.335 . S
C56 C57 1.398 . S
C56 H78 0.930 . S
C57 C52 1.382 . S
C57 C56 1.398 . S
C57 H79 0.929 . S
C58 O68 1.271 . S
C58 O69 1.251 . S
C59 O70 1.252 . S
C59 O71 1.272 . S
O60 Sm40 2.543 1_565 S
O60 C42 1.261 . S
O61 Sm40 2.450 1_565 S
O61 C42 1.242 . S
O62 Sm40 2.681 . S
O62 Sm41 2.386 . S
O62 C49 1.271 . S
O63 Sm40 2.464 . S
O63 C49 1.251 . S
O64 Sm40 2.396 1_565 S
O64 C50 1.252 . S
O65 Sm41 2.408 1_565 S
O65 C50 1.272 . S
O66 Sm41 2.543 . S
O66 C51 1.261 . S
O67 Sm41 2.450 . S
O67 C51 1.242 . S
O68 Sm40 2.386 . S
O68 Sm41 2.681 . S
O68 C58 1.271 . S
O69 Sm41 2.464 . S
O69 C58 1.251 . S
O70 Sm41 2.396 . S
O70 C59 1.252 . S
O71 Sm40 2.408 . S
O71 C59 1.272 . S
H72 C44 0.930 . S
H73 C45 0.929 . S
H74 C47 0.930 . S
H75 C48 0.929 . S
H76 C53 0.930 . S
H77 C54 0.929 . S
H78 C56 0.930 . S
H79 C57 0.929 . S
Sm80 C82 2.846 . S
Sm80 O100 2.543 . S
Sm80 O101 2.450 . S
Sm80 O102 2.681 . S
Sm80 O103 2.464 . S
Sm80 O104 2.396 . S
Sm80 O108 2.386 . S
Sm80 O111 2.408 . S
Sm81 C91 2.846 . S
Sm81 O102 2.386 . S
Sm81 O105 2.408 . S
Sm81 O106 2.543 . S
Sm81 O107 2.450 . S
Sm81 O108 2.681 . S
Sm81 O109 2.464 . S
Sm81 O110 2.396 . S
C82 Sm80 2.846 . S
C82 C83 1.506 . S
C82 O100 1.261 . S
C82 O101 1.242 . S
C83 C82 1.506 . S
C83 C84 1.358 . S
C83 C88 1.382 . S
C84 C83 1.358 . S
C84 C85 1.385 . S
C84 H112 0.930 . S
C85 C84 1.385 . S
C85 C86 1.395 . S
C85 H113 0.929 . S
C86 C85 1.395 . S
C86 C87 1.335 . S
C87 C86 1.335 . S
C87 C88 1.398 . S
C87 H114 0.930 . S
C88 C83 1.382 . S
C88 C87 1.398 . S
C88 H115 0.929 . S
C89 O102 1.271 . S
C89 O103 1.251 . S
C90 O104 1.252 . S
C90 O105 1.272 . S
C91 Sm81 2.846 . S
C91 C92 1.506 . S
C91 O106 1.261 . S
C91 O107 1.242 . S
C92 C91 1.506 . S
C92 C93 1.358 . S
C92 C97 1.382 . S
C93 C92 1.358 . S
C93 C94 1.385 . S
C93 H116 0.930 . S
C94 C93 1.385 . S
C94 C95 1.395 . S
C94 H117 0.929 . S
C95 C94 1.395 . S
C95 C96 1.335 . S
C96 C95 1.335 . S
C96 C97 1.398 . S
C96 H118 0.930 . S
C97 C92 1.382 . S
C97 C96 1.398 . S
C97 H119 0.929 . S
C98 O108 1.271 . S
C98 O109 1.251 . S
C99 O110 1.252 . S
C99 O111 1.272 . S
O100 Sm80 2.543 . S
O100 C82 1.261 . S
O101 Sm80 2.450 . S
O101 C82 1.242 . S
O102 Sm80 2.681 . S
O102 Sm81 2.386 . S
O102 C89 1.271 . S
O103 Sm80 2.464 . S
O103 C89 1.251 . S
O104 Sm80 2.396 . S
O104 C90 1.252 . S
O105 Sm81 2.408 . S
O105 C90 1.272 . S
O106 Sm81 2.543 . S
O106 C91 1.261 . S
O107 Sm81 2.450 . S
O107 C91 1.242 . S
O108 Sm80 2.386 . S
O108 Sm81 2.681 . S
O108 C98 1.271 . S
O109 Sm81 2.464 . S
O109 C98 1.251 . S
O110 Sm81 2.396 . S
O110 C99 1.252 . S
O111 Sm80 2.408 . S
O111 C99 1.272 . S
H112 C84 0.930 . S
H113 C85 0.929 . S
H114 C87 0.930 . S
H115 C88 0.929 . S
H116 C93 0.930 . S
H117 C94 0.929 . S
H118 C96 0.930 . S
H119 C97 0.929 . S
H120 C127 0.929 . S
H121 C130 0.930 . S
H122 C132 0.929 . S
H123 C124 0.969 . S
C124 H123 0.969 . S
C124 O125 1.550 . S
C124 H126 0.973 . S
O125 C124 1.550 . S
O125 C131 1.412 . S
H126 C124 0.973 . S
C127 H120 0.929 . S
C127 C128 1.400 . S
C127 C129 1.364 . S
C128 C127 1.400 . S
C128 C132 1.377 . S
C129 C127 1.364 . S
C129 C130 1.374 1_545 S
C130 H121 0.930 . S
C130 C129 1.374 1_565 S
C130 C131 1.383 . S
C131 O125 1.412 . S
C131 C130 1.383 . S
C131 C132 1.394 1_565 S
C132 H122 0.929 . S
C132 C128 1.377 . S
C132 C131 1.394 1_545 S
H133 C140 0.929 . S
H134 C143 0.930 . S
H135 C145 0.929 . S
H136 C137 0.969 . S
C137 H136 0.969 . S
C137 O138 1.550 . S
C137 H139 0.973 . S
O138 C137 1.550 . S
O138 C144 1.412 . S
H139 C137 0.973 . S
C140 H133 0.929 . S
C140 C141 1.400 . S
C140 C142 1.364 . S
C141 C140 1.400 . S
C141 C145 1.377 . S
C142 C140 1.364 . S
C142 C143 1.374 . S
C143 H134 0.930 . S
C143 C142 1.374 . S
C143 C144 1.383 . S
C144 O138 1.412 . S
C144 C143 1.383 . S
C144 C145 1.394 . S
C145 H135 0.929 . S
C145 C141 1.377 . S
C145 C144 1.394 . S
H146 C153 0.929 . S
H147 C156 0.930 . S
H148 C158 0.929 . S
H149 C150 0.969 . S
C150 H149 0.969 . S
C150 O151 1.550 . S
C150 H152 0.973 . S
O151 C150 1.550 . S
O151 C157 1.412 . S
H152 C150 0.973 . S
C153 H146 0.929 . S
C153 C154 1.400 . S
C153 C155 1.364 . S
C154 C153 1.400 . S
C154 C158 1.377 . S
C155 C153 1.364 . S
C155 C156 1.374 . S
C156 H147 0.930 . S
C156 C155 1.374 . S
C156 C157 1.383 . S
C157 O151 1.412 . S
C157 C156 1.383 . S
C157 C158 1.394 . S
C158 H148 0.929 . S
C158 C154 1.377 . S
C158 C157 1.394 . S
H159 C166 0.929 . S
H160 C169 0.930 . S
H161 C171 0.929 . S
H162 C163 0.969 . S
C163 H162 0.969 . S
C163 O164 1.550 . S
C163 H165 0.973 . S
O164 C163 1.550 . S
O164 C170 1.412 . S
H165 C163 0.973 . S
C166 H159 0.929 . S
C166 C167 1.400 . S
C166 C168 1.364 1_655 S
C167 C166 1.400 . S
C167 C171 1.377 1_655 S
C168 C166 1.364 1_455 S
C168 C169 1.374 . S
C169 H160 0.930 . S
C169 C168 1.374 . S
C169 C170 1.383 . S
C170 O164 1.412 . S
C170 C169 1.383 . S
C170 C171 1.394 . S
C171 H161 0.929 . S
C171 C167 1.377 1_455 S
C171 C170 1.394 . S
H172 C179 0.929 . S
H173 C182 0.930 . S
H174 C184 0.929 . S
H175 C176 0.969 . S
C176 H175 0.969 . S
C176 O177 1.550 . S
C176 H178 0.973 . S
O177 C176 1.550 . S
O177 C183 1.412 . S
H178 C176 0.973 . S
C179 H172 0.929 . S
C179 C180 1.400 . S
C179 C181 1.364 1_565 S
C180 C179 1.400 . S
C180 C184 1.377 1_565 S
C181 C179 1.364 1_545 S
C181 C182 1.374 . S
C182 H173 0.930 . S
C182 C181 1.374 . S
C182 C183 1.383 . S
C183 O177 1.412 . S
C183 C182 1.383 . S
C183 C184 1.394 . S
C184 H174 0.929 . S
C184 C180 1.377 1_545 S
C184 C183 1.394 . S
H185 C192 0.929 . S
H186 C195 0.930 . S
H187 C197 0.929 . S
H188 C189 0.969 . S
C189 H188 0.969 . S
C189 O190 1.550 . S
C189 H191 0.973 . S
O190 C189 1.550 . S
O190 C196 1.412 . S
H191 C189 0.973 . S
C192 H185 0.929 . S
C192 C193 1.400 . S
C192 C194 1.364 . S
C193 C192 1.400 . S
C193 C197 1.377 . S
C194 C192 1.364 . S
C194 C195 1.374 . S
C195 H186 0.930 . S
C195 C194 1.374 . S
C195 C196 1.383 . S
C196 O190 1.412 . S
C196 C195 1.383 . S
C196 C197 1.394 . S
C197 H187 0.929 . S
C197 C193 1.377 . S
C197 C196 1.394 . S
H198 C210 0.930 . S
H199 C212 0.930 . S
H200 C213 0.930 . S
H201 C217 0.959 . S
H202 C217 0.959 . S
H203 C217 0.961 . S
H204 C218 0.960 . S
H205 C218 0.961 . S
H206 C218 0.959 . S
H207 C221 0.929 . S
H208 C222 0.931 . S
H209 C224 0.930 . S
C210 H198 0.930 . S
C210 C211 1.399 . S
C210 C215 1.399 . S
C211 C210 1.399 . S
C211 C212 1.376 . S
C212 H199 0.930 . S
C212 C211 1.376 . S
C212 C213 1.388 . S
C213 H200 0.930 . S
C213 C212 1.388 . S
C213 C214 1.390 . S
C214 C213 1.390 . S
C214 C215 1.394 . S
C214 C220 1.465 . S
C215 C210 1.399 . S
C215 C214 1.394 . S
C215 C216 1.516 . S
C216 C215 1.516 . S
C216 C217 1.502 . S
C216 C218 1.561 . S
C216 C219 1.526 . S
C217 H201 0.959 . S
C217 H202 0.959 . S
C217 H203 0.961 . S
C217 C216 1.502 . S
C218 H204 0.960 . S
C218 H205 0.961 . S
C218 H206 0.959 . S
C218 C216 1.561 . S
C219 C216 1.526 . S
C219 C220 1.396 . S
C219 C224 1.390 . S
C220 C214 1.465 . S
C220 C219 1.396 . S
C220 C221 1.399 . S
C221 H207 0.929 . S
C221 C220 1.399 . S
C221 C222 1.385 . S
C222 H208 0.931 . S
C222 C221 1.385 . S
C222 C223 1.389 . S
C223 C222 1.389 . S
C223 C224 1.387 . S
C224 H209 0.930 . S
C224 C219 1.390 . S
C224 C223 1.387 . S
H225 C237 0.930 . S
H226 C239 0.930 . S
H227 C240 0.930 . S
H228 C244 0.959 . S
H229 C244 0.959 . S
H230 C244 0.961 . S
H231 C245 0.960 . S
H232 C245 0.961 . S
H233 C245 0.959 . S
H234 C248 0.929 . S
H235 C249 0.931 . S
H236 C251 0.930 . S
C237 H225 0.930 . S
C237 C238 1.399 . S
C237 C242 1.399 . S
C238 C237 1.399 . S
C238 C239 1.376 . S
C239 H226 0.930 . S
C239 C238 1.376 . S
C239 C240 1.388 . S
C240 H227 0.930 . S
C240 C239 1.388 . S
C240 C241 1.390 . S
C241 C240 1.390 . S
C241 C242 1.394 . S
C241 C247 1.465 . S
C242 C237 1.399 . S
C242 C241 1.394 . S
C242 C243 1.516 . S
C243 C242 1.516 . S
C243 C244 1.502 . S
C243 C245 1.561 . S
C243 C246 1.526 . S
C244 H228 0.959 . S
C244 H229 0.959 . S
C244 H230 0.961 . S
C244 C243 1.502 . S
C245 H231 0.960 . S
C245 H232 0.961 . S
C245 H233 0.959 . S
C245 C243 1.561 . S
C246 C243 1.526 . S
C246 C247 1.396 . S
C246 C251 1.390 . S
C247 C241 1.465 . S
C247 C246 1.396 . S
C247 C248 1.399 . S
C248 H234 0.929 . S
C248 C247 1.399 . S
C248 C249 1.385 . S
C249 H235 0.931 . S
C249 C248 1.385 . S
C249 C250 1.389 . S
C250 C249 1.389 . S
C250 C251 1.387 . S
C251 H236 0.930 . S
C251 C246 1.390 . S
C251 C250 1.387 . S
H252 C264 0.930 . S
H253 C266 0.930 . S
H254 C267 0.930 . S
H255 C271 0.959 . S
H256 C271 0.959 . S
H257 C271 0.961 . S
H258 C272 0.960 . S
H259 C272 0.961 . S
H260 C272 0.959 . S
H261 C275 0.929 . S
H262 C276 0.931 1_545 S
H263 C278 0.930 . S
C264 H252 0.930 . S
C264 C265 1.399 . S
C264 C269 1.399 . S
C265 C264 1.399 . S
C265 C266 1.376 . S
C266 H253 0.930 . S
C266 C265 1.376 . S
C266 C267 1.388 . S
C267 H254 0.930 . S
C267 C266 1.388 . S
C267 C268 1.390 . S
C268 C267 1.390 . S
C268 C269 1.394 . S
C268 C274 1.465 . S
C269 C264 1.399 . S
C269 C268 1.394 . S
C269 C270 1.516 . S
C270 C269 1.516 . S
C270 C271 1.502 . S
C270 C272 1.561 . S
C270 C273 1.526 . S
C271 H255 0.959 . S
C271 H256 0.959 . S
C271 H257 0.961 . S
C271 C270 1.502 . S
C272 H258 0.960 . S
C272 H259 0.961 . S
C272 H260 0.959 . S
C272 C270 1.561 . S
C273 C270 1.526 . S
C273 C274 1.396 . S
C273 C278 1.390 . S
C274 C268 1.465 . S
C274 C273 1.396 . S
C274 C275 1.399 . S
C275 H261 0.929 . S
C275 C274 1.399 . S
C275 C276 1.385 . S
C276 H262 0.931 1_565 S
C276 C275 1.385 . S
C276 C277 1.389 . S
C277 C276 1.389 . S
C277 C278 1.387 . S
C278 H263 0.930 . S
C278 C273 1.390 . S
C278 C277 1.387 . S
H279 C291 0.930 . S
H280 C293 0.930 . S
H281 C294 0.930 . S
H282 C298 0.959 . S
H283 C298 0.959 . S
H284 C298 0.961 . S
H285 C299 0.960 . S
H286 C299 0.961 . S
H287 C299 0.959 . S
H288 C302 0.929 . S
H289 C303 0.931 . S
H290 C305 0.930 . S
C291 H279 0.930 . S
C291 C292 1.399 . S
C291 C296 1.399 . S
C292 C291 1.399 . S
C292 C293 1.376 . S
C293 H280 0.930 . S
C293 C292 1.376 . S
C293 C294 1.388 . S
C294 H281 0.930 . S
C294 C293 1.388 . S
C294 C295 1.390 . S
C295 C294 1.390 . S
C295 C296 1.394 . S
C295 C301 1.465 . S
C296 C291 1.399 . S
C296 C295 1.394 . S
C296 C297 1.516 . S
C297 C296 1.516 . S
C297 C298 1.502 . S
C297 C299 1.561 . S
C297 C300 1.526 . S
C298 H282 0.959 . S
C298 H283 0.959 . S
C298 H284 0.961 . S
C298 C297 1.502 . S
C299 H285 0.960 . S
C299 H286 0.961 . S
C299 H287 0.959 . S
C299 C297 1.561 . S
C300 C297 1.526 . S
C300 C301 1.396 . S
C300 C305 1.390 . S
C301 C295 1.465 . S
C301 C300 1.396 . S
C301 C302 1.399 . S
C302 H288 0.929 . S
C302 C301 1.399 . S
C302 C303 1.385 . S
C303 H289 0.931 . S
C303 C302 1.385 . S
C303 C304 1.389 . S
C304 C303 1.389 . S
C304 C305 1.387 . S
C305 H290 0.930 . S
C305 C300 1.390 . S
C305 C304 1.387 . S
H306 C318 0.930 . S
H307 C320 0.930 . S
H308 C321 0.930 . S
H309 C325 0.959 . S
H310 C325 0.959 . S
H311 C325 0.961 . S
H312 C326 0.960 . S
H313 C326 0.961 . S
H314 C326 0.959 . S
H315 C329 0.929 . S
H316 C330 0.931 . S
H317 C332 0.930 . S
C318 H306 0.930 . S
C318 C319 1.399 . S
C318 C323 1.399 . S
C319 C318 1.399 . S
C319 C320 1.376 . S
C320 H307 0.930 . S
C320 C319 1.376 . S
C320 C321 1.388 . S
C321 H308 0.930 . S
C321 C320 1.388 . S
C321 C322 1.390 . S
C322 C321 1.390 . S
C322 C323 1.394 . S
C322 C328 1.465 . S
C323 C318 1.399 . S
C323 C322 1.394 . S
C323 C324 1.516 . S
C324 C323 1.516 . S
C324 C325 1.502 . S
C324 C326 1.561 . S
C324 C327 1.526 . S
C325 H309 0.959 . S
C325 H310 0.959 . S
C325 H311 0.961 . S
C325 C324 1.502 . S
C326 H312 0.960 . S
C326 H313 0.961 . S
C326 H314 0.959 . S
C326 C324 1.561 . S
C327 C324 1.526 . S
C327 C328 1.396 . S
C327 C332 1.390 . S
C328 C322 1.465 . S
C328 C327 1.396 . S
C328 C329 1.399 . S
C329 H315 0.929 . S
C329 C328 1.399 . S
C329 C330 1.385 . S
C330 H316 0.931 . S
C330 C329 1.385 . S
C330 C331 1.389 . S
C331 C330 1.389 . S
C331 C332 1.387 . S
C332 H317 0.930 . S
C332 C327 1.390 . S
C332 C331 1.387 . S
H333 C345 0.930 . S
H334 C347 0.930 . S
H335 C348 0.930 . S
H336 C352 0.959 . S
H337 C352 0.959 . S
H338 C352 0.961 . S
H339 C353 0.960 . S
H340 C353 0.961 . S
H341 C353 0.959 . S
H342 C356 0.929 . S
H343 C357 0.931 . S
H344 C359 0.930 . S
C345 H333 0.930 . S
C345 C346 1.399 . S
C345 C350 1.399 . S
C346 C345 1.399 . S
C346 C347 1.376 . S
C347 H334 0.930 . S
C347 C346 1.376 . S
C347 C348 1.388 . S
C348 H335 0.930 . S
C348 C347 1.388 . S
C348 C349 1.390 . S
C349 C348 1.390 . S
C349 C350 1.394 . S
C349 C355 1.465 . S
C350 C345 1.399 . S
C350 C349 1.394 . S
C350 C351 1.516 . S
C351 C350 1.516 . S
C351 C352 1.502 . S
C351 C353 1.561 . S
C351 C354 1.526 . S
C352 H336 0.959 . S
C352 H337 0.959 . S
C352 H338 0.961 . S
C352 C351 1.502 . S
C353 H339 0.960 . S
C353 H340 0.961 . S
C353 H341 0.959 . S
C353 C351 1.561 . S
C354 C351 1.526 . S
C354 C355 1.396 . S
C354 C359 1.390 . S
C355 C349 1.465 . S
C355 C354 1.396 . S
C355 C356 1.399 . S
C356 H342 0.929 . S
C356 C355 1.399 . S
C356 C357 1.385 . S
C357 H343 0.931 . S
C357 C356 1.385 . S
C357 C358 1.389 . S
C358 C357 1.389 . S
C358 C359 1.387 . S
C359 H344 0.930 . S
C359 C354 1.390 . S
C359 C358 1.387 . S
H360 C372 0.930 . S
H361 C374 0.930 . S
H362 C375 0.930 . S
H363 C379 0.959 . S
H364 C379 0.959 . S
H365 C379 0.961 . S
H366 C380 0.960 . S
H367 C380 0.961 . S
H368 C380 0.959 . S
H369 C383 0.929 . S
H370 C384 0.931 . S
H371 C386 0.930 . S
C372 H360 0.930 . S
C372 C373 1.399 . S
C372 C377 1.399 . S
C373 C372 1.399 . S
C373 C374 1.376 . S
C374 H361 0.930 . S
C374 C373 1.376 . S
C374 C375 1.388 . S
C375 H362 0.930 . S
C375 C374 1.388 . S
C375 C376 1.390 . S
C376 C375 1.390 . S
C376 C377 1.394 . S
C376 C382 1.465 . S
C377 C372 1.399 . S
C377 C376 1.394 . S
C377 C378 1.516 . S
C378 C377 1.516 . S
C378 C379 1.502 . S
C378 C380 1.561 . S
C378 C381 1.526 . S
C379 H363 0.959 . S
C379 H364 0.959 . S
C379 H365 0.961 . S
C379 C378 1.502 . S
C380 H366 0.960 . S
C380 H367 0.961 . S
C380 H368 0.959 . S
C380 C378 1.561 . S
C381 C378 1.526 . S
C381 C382 1.396 . S
C381 C386 1.390 . S
C382 C376 1.465 . S
C382 C381 1.396 . S
C382 C383 1.399 . S
C383 H369 0.929 . S
C383 C382 1.399 . S
C383 C384 1.385 . S
C384 H370 0.931 . S
C384 C383 1.385 . S
C384 C385 1.389 . S
C385 C384 1.389 . S
C385 C386 1.387 . S
C386 H371 0.930 . S
C386 C381 1.390 . S
C386 C385 1.387 . S
H387 C399 0.930 . S
H388 C401 0.930 . S
H389 C402 0.930 . S
H390 C406 0.959 . S
H391 C406 0.959 . S
H392 C406 0.961 . S
H393 C407 0.960 . S
H394 C407 0.961 . S
H395 C407 0.959 . S
H396 C410 0.929 . S
H397 C411 0.931 . S
H398 C413 0.930 . S
C399 H387 0.930 . S
C399 C400 1.399 . S
C399 C404 1.399 . S
C400 C399 1.399 . S
C400 C401 1.376 . S
C401 H388 0.930 . S
C401 C400 1.376 . S
C401 C402 1.388 . S
C402 H389 0.930 . S
C402 C401 1.388 . S
C402 C403 1.390 . S
C403 C402 1.390 . S
C403 C404 1.394 . S
C403 C409 1.465 . S
C404 C399 1.399 . S
C404 C403 1.394 . S
C404 C405 1.516 . S
C405 C404 1.516 . S
C405 C406 1.502 . S
C405 C407 1.561 . S
C405 C408 1.526 . S
C406 H390 0.959 . S
C406 H391 0.959 . S
C406 H392 0.961 . S
C406 C405 1.502 . S
C407 H393 0.960 . S
C407 H394 0.961 . S
C407 H395 0.959 . S
C407 C405 1.561 . S
C408 C405 1.526 . S
C408 C409 1.396 . S
C408 C413 1.390 . S
C409 C403 1.465 . S
C409 C408 1.396 . S
C409 C410 1.399 . S
C410 H396 0.929 . S
C410 C409 1.399 . S
C410 C411 1.385 . S
C411 H397 0.931 . S
C411 C410 1.385 . S
C411 C412 1.389 . S
C412 C411 1.389 . S
C412 C413 1.387 . S
C413 H398 0.930 . S
C413 C408 1.390 . S
C413 C412 1.387 . S
H414 C426 0.930 . S
H415 C428 0.930 . S
H416 C429 0.930 . S
H417 C433 0.959 . S
H418 C433 0.959 . S
H419 C433 0.961 . S
H420 C434 0.960 . S
H421 C434 0.961 . S
H422 C434 0.959 . S
H423 C437 0.929 . S
H424 C438 0.931 . S
H425 C440 0.930 . S
C426 H414 0.930 . S
C426 C427 1.399 . S
C426 C431 1.399 . S
C427 C426 1.399 . S
C427 C428 1.376 . S
C428 H415 0.930 . S
C428 C427 1.376 . S
C428 C429 1.388 . S
C429 H416 0.930 . S
C429 C428 1.388 . S
C429 C430 1.390 . S
C430 C429 1.390 . S
C430 C431 1.394 . S
C430 C436 1.465 . S
C431 C426 1.399 . S
C431 C430 1.394 . S
C431 C432 1.516 . S
C432 C431 1.516 . S
C432 C433 1.502 . S
C432 C434 1.561 . S
C432 C435 1.526 . S
C433 H417 0.959 . S
C433 H418 0.959 . S
C433 H419 0.961 . S
C433 C432 1.502 . S
C434 H420 0.960 . S
C434 H421 0.961 . S
C434 H422 0.959 . S
C434 C432 1.561 . S
C435 C432 1.526 . S
C435 C436 1.396 . S
C435 C440 1.390 . S
C436 C430 1.465 . S
C436 C435 1.396 . S
C436 C437 1.399 . S
C437 H423 0.929 . S
C437 C436 1.399 . S
C437 C438 1.385 . S
C438 H424 0.931 . S
C438 C437 1.385 . S
C438 C439 1.389 . S
C439 C438 1.389 . S
C439 C440 1.387 . S
C440 H425 0.930 . S
C440 C435 1.390 . S
C440 C439 1.387 . S
H441 C453 0.930 . S
H442 C455 0.930 . S
H443 C456 0.930 . S
H444 C460 0.959 . S
H445 C460 0.959 . S
H446 C460 0.961 . S
H447 C461 0.960 . S
H448 C461 0.961 . S
H449 C461 0.959 . S
H450 C464 0.929 . S
H451 C465 0.931 . S
H452 C467 0.930 . S
C453 H441 0.930 . S
C453 C454 1.399 . S
C453 C458 1.399 . S
C454 C453 1.399 . S
C454 C455 1.376 . S
C455 H442 0.930 . S
C455 C454 1.376 . S
C455 C456 1.388 . S
C456 H443 0.930 . S
C456 C455 1.388 . S
C456 C457 1.390 . S
C457 C456 1.390 . S
C457 C458 1.394 . S
C457 C463 1.465 . S
C458 C453 1.399 . S
C458 C457 1.394 . S
C458 C459 1.516 . S
C459 C458 1.516 . S
C459 C460 1.502 . S
C459 C461 1.561 . S
C459 C462 1.526 . S
C460 H444 0.959 . S
C460 H445 0.959 . S
C460 H446 0.961 . S
C460 C459 1.502 . S
C461 H447 0.960 . S
C461 H448 0.961 . S
C461 H449 0.959 . S
C461 C459 1.561 . S
C462 C459 1.526 . S
C462 C463 1.396 . S
C462 C467 1.390 . S
C463 C457 1.465 . S
C463 C462 1.396 . S
C463 C464 1.399 . S
C464 H450 0.929 . S
C464 C463 1.399 . S
C464 C465 1.385 . S
C465 H451 0.931 . S
C465 C464 1.385 . S
C465 C466 1.389 . S
C466 C465 1.389 . S
C466 C467 1.387 . S
C467 H452 0.930 . S
C467 C462 1.390 . S
C467 C466 1.387 . S
H468 C480 0.930 . S
H469 C482 0.930 . S
H470 C483 0.930 . S
H471 C487 0.959 . S
H472 C487 0.959 . S
H473 C487 0.961 . S
H474 C488 0.960 . S
H475 C488 0.961 . S
H476 C488 0.959 . S
H477 C491 0.929 . S
H478 C492 0.931 . S
H479 C494 0.930 . S
C480 H468 0.930 . S
C480 C481 1.399 . S
C480 C485 1.399 . S
C481 C480 1.399 . S
C481 C482 1.376 . S
C482 H469 0.930 . S
C482 C481 1.376 . S
C482 C483 1.388 . S
C483 H470 0.930 . S
C483 C482 1.388 . S
C483 C484 1.390 . S
C484 C483 1.390 . S
C484 C485 1.394 . S
C484 C490 1.465 . S
C485 C480 1.399 . S
C485 C484 1.394 . S
C485 C486 1.516 . S
C486 C485 1.516 . S
C486 C487 1.502 . S
C486 C488 1.561 . S
C486 C489 1.526 . S
C487 H471 0.959 . S
C487 H472 0.959 . S
C487 H473 0.961 . S
C487 C486 1.502 . S
C488 H474 0.960 . S
C488 H475 0.961 . S
C488 H476 0.959 . S
C488 C486 1.561 . S
C489 C486 1.526 . S
C489 C490 1.396 . S
C489 C494 1.390 . S
C490 C484 1.465 . S
C490 C489 1.396 . S
C490 C491 1.399 . S
C491 H477 0.929 . S
C491 C490 1.399 . S
C491 C492 1.385 . S
C492 H478 0.931 . S
C492 C491 1.385 . S
C492 C493 1.389 . S
C493 C492 1.389 . S
C493 C494 1.387 . S
C494 H479 0.930 . S
C494 C489 1.390 . S
C494 C493 1.387 . S
H495 C507 0.930 . S
H496 C509 0.930 . S
H497 C510 0.930 . S
H498 C514 0.959 . S
H499 C514 0.959 . S
H500 C514 0.961 . S
H501 C515 0.960 . S
H502 C515 0.961 . S
H503 C515 0.959 . S
H504 C518 0.929 . S
H505 C519 0.931 . S
H506 C521 0.930 . S
C507 H495 0.930 . S
C507 C508 1.399 . S
C507 C512 1.399 . S
C508 C507 1.399 . S
C508 C509 1.376 . S
C509 H496 0.930 . S
C509 C508 1.376 . S
C509 C510 1.388 . S
C510 H497 0.930 . S
C510 C509 1.388 . S
C510 C511 1.390 . S
C511 C510 1.390 . S
C511 C512 1.394 . S
C511 C517 1.465 . S
C512 C507 1.399 . S
C512 C511 1.394 . S
C512 C513 1.516 . S
C513 C512 1.516 . S
C513 C514 1.502 . S
C513 C515 1.561 . S
C513 C516 1.526 . S
C514 H498 0.959 . S
C514 H499 0.959 . S
C514 H500 0.961 . S
C514 C513 1.502 . S
C515 H501 0.960 . S
C515 H502 0.961 . S
C515 H503 0.959 . S
C515 C513 1.561 . S
C516 C513 1.526 . S
C516 C517 1.396 . S
C516 C521 1.390 . S
C517 C511 1.465 . S
C517 C516 1.396 . S
C517 C518 1.399 . S
C518 H504 0.929 . S
C518 C517 1.399 . S
C518 C519 1.385 . S
C519 H505 0.931 . S
C519 C518 1.385 . S
C519 C520 1.389 . S
C520 C519 1.389 . S
C520 C521 1.387 . S
C521 H506 0.930 . S
C521 C516 1.390 . S
C521 C520 1.387 . S
H522 C534 0.930 1_655 S
H523 C536 0.930 . S
H524 C537 0.930 . S
H525 C541 0.961 . S
H526 C541 0.965 . S
H527 C541 0.955 1_554 S
H528 C542 0.960 . S
H529 C542 0.961 1_556 S
H530 C542 0.959 . S
H531 C545 0.929 . S
H532 C546 0.931 . S
H533 C548 0.930 . S
C534 H522 0.930 1_455 S
C534 C535 1.399 . S
C534 C539 1.399 . S
C535 C534 1.399 . S
C535 C536 1.376 . S
C536 H523 0.930 . S
C536 C535 1.376 . S
C536 C537 1.388 . S
C537 H524 0.930 . S
C537 C536 1.388 . S
C537 C538 1.390 . S
C538 C537 1.390 . S
C538 C539 1.394 . S
C538 C544 1.465 1_554 S
C539 C534 1.399 . S
C539 C538 1.394 . S
C539 C540 1.516 . S
C540 C539 1.516 . S
C540 C541 1.501 1_454 S
C540 C542 1.561 . S
C540 C543 1.526 1_554 S
C541 H525 0.961 . S
C541 H526 0.965 . S
C541 H527 0.955 1_556 S
C541 C540 1.501 1_656 S
C542 H528 0.960 . S
C542 H529 0.961 1_554 S
C542 H530 0.959 . S
C542 C540 1.561 . S
C543 C540 1.526 1_556 S
C543 C544 1.396 . S
C543 C548 1.390 . S
C544 C538 1.465 1_556 S
C544 C543 1.396 . S
C544 C545 1.399 . S
C545 H531 0.929 . S
C545 C544 1.399 . S
C545 C546 1.385 . S
C546 H532 0.931 . S
C546 C545 1.385 . S
C546 C547 1.389 . S
C547 C546 1.389 . S
C547 C548 1.387 . S
C548 H533 0.930 . S
C548 C543 1.390 . S
C548 C547 1.387 . S
H549 C561 0.930 . S
H550 C563 0.930 . S
H551 C564 0.930 . S
H552 C568 0.959 . S
H553 C568 0.959 . S
H554 C568 0.961 . S
H555 C569 0.960 . S
H556 C569 0.961 . S
H557 C569 0.959 . S
H558 C572 0.929 . S
H559 C573 0.931 . S
H560 C575 0.930 . S
C561 H549 0.930 . S
C561 C562 1.399 1_565 S
C561 C566 1.399 1_565 S
C562 C561 1.399 1_545 S
C562 C563 1.376 . S
C563 H550 0.930 . S
C563 C562 1.376 . S
C563 C564 1.388 . S
C564 H551 0.930 . S
C564 C563 1.388 . S
C564 C565 1.390 . S
C565 C564 1.390 . S
C565 C566 1.394 . S
C565 C571 1.465 . S
C566 C561 1.399 1_545 S
C566 C565 1.394 . S
C566 C567 1.516 1_545 S
C567 C566 1.516 1_565 S
C567 C568 1.502 . S
C567 C569 1.561 . S
C567 C570 1.526 . S
C568 H552 0.959 . S
C568 H553 0.959 . S
C568 H554 0.961 . S
C568 C567 1.502 . S
C569 H555 0.960 . S
C569 H556 0.961 . S
C569 H557 0.959 . S
C569 C567 1.561 . S
C570 C567 1.526 . S
C570 C571 1.396 1_565 S
C570 C575 1.390 . S
C571 C565 1.465 . S
C571 C570 1.396 1_545 S
C571 C572 1.399 . S
C572 H558 0.929 . S
C572 C571 1.399 . S
C572 C573 1.385 . S
C573 H559 0.931 . S
C573 C572 1.385 . S
C573 C574 1.389 . S
C574 C573 1.389 . S
C574 C575 1.387 1_545 S
C575 H560 0.930 . S
C575 C570 1.390 . S
C575 C574 1.387 1_565 S
H576 C588 0.930 . S
H577 C590 0.930 . S
H578 C591 0.930 . S
H579 C595 0.959 . S
H580 C595 0.959 . S
H581 C595 0.961 . S
H582 C596 0.960 . S
H583 C596 0.961 . S
H584 C596 0.959 . S
H585 C599 0.929 . S
H586 C600 0.931 . S
H587 C602 0.930 . S
C588 H576 0.930 . S
C588 C589 1.399 . S
C588 C593 1.399 . S
C589 C588 1.399 . S
C589 C590 1.376 . S
C590 H577 0.930 . S
C590 C589 1.376 . S
C590 C591 1.388 . S
C591 H578 0.930 . S
C591 C590 1.388 . S
C591 C592 1.390 . S
C592 C591 1.390 . S
C592 C593 1.394 . S
C592 C598 1.465 . S
C593 C588 1.399 . S
C593 C592 1.394 . S
C593 C594 1.516 . S
C594 C593 1.516 . S
C594 C595 1.502 . S
C594 C596 1.561 . S
C594 C597 1.526 . S
C595 H579 0.959 . S
C595 H580 0.959 . S
C595 H581 0.961 . S
C595 C594 1.502 . S
C596 H582 0.960 . S
C596 H583 0.961 . S
C596 H584 0.959 . S
C596 C594 1.561 . S
C597 C594 1.526 . S
C597 C598 1.396 . S
C597 C602 1.390 . S
C598 C592 1.465 . S
C598 C597 1.396 . S
C598 C599 1.399 . S
C599 H585 0.929 . S
C599 C598 1.399 . S
C599 C600 1.385 . S
C600 H586 0.931 . S
C600 C599 1.385 . S
C600 C601 1.389 . S
C601 C600 1.389 . S
C601 C602 1.387 . S
C602 H587 0.930 . S
C602 C597 1.390 . S
C602 C601 1.387 . S
H603 C615 0.930 . S
H604 C617 0.930 . S
H605 C618 0.930 . S
H606 C622 0.959 . S
H607 C622 0.959 . S
H608 C622 0.961 . S
H609 C623 0.960 . S
H610 C623 0.961 . S
H611 C623 0.959 . S
H612 C626 0.929 . S
H613 C627 0.931 . S
H614 C629 0.930 . S
C615 H603 0.930 . S
C615 C616 1.399 . S
C615 C620 1.399 . S
C616 C615 1.399 . S
C616 C617 1.376 1_545 S
C617 H604 0.930 . S
C617 C616 1.376 1_565 S
C617 C618 1.388 . S
C618 H605 0.930 . S
C618 C617 1.388 . S
C618 C619 1.390 . S
C619 C618 1.390 . S
C619 C620 1.394 1_565 S
C619 C625 1.465 . S
C620 C615 1.399 . S
C620 C619 1.394 1_545 S
C620 C621 1.516 . S
C621 C620 1.516 . S
C621 C622 1.502 . S
C621 C623 1.561 . S
C621 C624 1.526 . S
C622 H606 0.959 . S
C622 H607 0.959 . S
C622 H608 0.961 . S
C622 C621 1.502 . S
C623 H609 0.960 . S
C623 H610 0.961 . S
C623 H611 0.959 . S
C623 C621 1.561 . S
C624 C621 1.526 . S
C624 C625 1.396 1_545 S
C624 C629 1.390 . S
C625 C619 1.465 . S
C625 C624 1.396 1_565 S
C625 C626 1.399 . S
C626 H612 0.929 . S
C626 C625 1.399 . S
C626 C627 1.385 . S
C627 H613 0.931 . S
C627 C626 1.385 . S
C627 C628 1.389 1_565 S
C628 C627 1.389 1_545 S
C628 C629 1.387 . S
C629 H614 0.930 . S
C629 C624 1.390 . S
C629 C628 1.387 . S
H630 C642 0.930 . S
H631 C644 0.930 . S
H632 C645 0.930 . S
H633 C649 0.959 . S
H634 C649 0.959 1_554 S
H635 C649 0.961 . S
H636 C650 0.960 . S
H637 C650 0.961 . S
H638 C650 0.959 . S
H639 C653 0.929 1_556 S
H640 C654 0.931 . S
H641 C656 0.930 . S
C642 H630 0.930 . S
C642 C643 1.399 . S
C642 C647 1.399 . S
C643 C642 1.399 . S
C643 C644 1.376 . S
C644 H631 0.930 . S
C644 C643 1.376 . S
C644 C645 1.388 . S
C645 H632 0.930 . S
C645 C644 1.388 . S
C645 C646 1.390 . S
C646 C645 1.390 . S
C646 C647 1.394 . S
C646 C652 1.465 . S
C647 C642 1.399 . S
C647 C646 1.394 . S
C647 C648 1.516 . S
C648 C647 1.516 . S
C648 C649 1.502 . S
C648 C650 1.561 . S
C648 C651 1.526 1_556 S
C649 H633 0.959 . S
C649 H634 0.959 1_556 S
C649 H635 0.961 . S
C649 C648 1.502 . S
C650 H636 0.960 . S
C650 H637 0.961 . S
C650 H638 0.959 . S
C650 C648 1.561 . S
C651 C648 1.526 1_554 S
C651 C652 1.396 1_554 S
C651 C656 1.390 . S
C652 C646 1.465 . S
C652 C651 1.396 1_556 S
C652 C653 1.399 1_556 S
C653 H639 0.929 1_554 S
C653 C652 1.399 1_554 S
C653 C654 1.385 . S
C654 H640 0.931 . S
C654 C653 1.385 . S
C654 C655 1.389 . S
C655 C654 1.389 . S
C655 C656 1.387 . S
C656 H641 0.930 . S
C656 C651 1.390 . S
C656 C655 1.387 . S
H657 C669 0.930 . S
H658 C671 0.930 . S
H659 C672 0.930 . S
H660 C676 0.959 . S
H661 C676 0.959 . S
H662 C676 0.961 . S
H663 C677 0.960 . S
H664 C677 0.961 . S
H665 C677 0.959 . S
H666 C680 0.929 . S
H667 C681 0.931 . S
H668 C683 0.930 . S
C669 H657 0.930 . S
C669 C670 1.399 1_455 S
C669 C674 1.399 . S
C670 C669 1.399 1_655 S
C670 C671 1.376 . S
C671 H658 0.930 . S
C671 C670 1.376 . S
C671 C672 1.388 . S
C672 H659 0.930 . S
C672 C671 1.388 . S
C672 C673 1.390 . S
C673 C672 1.390 . S
C673 C674 1.394 1_655 S
C673 C679 1.465 . S
C674 C669 1.399 . S
C674 C673 1.394 1_455 S
C674 C675 1.516 . S
C675 C674 1.516 . S
C675 C676 1.502 . S
C675 C677 1.561 . S
C675 C678 1.526 . S
C676 H660 0.959 . S
C676 H661 0.959 . S
C676 H662 0.961 . S
C676 C675 1.502 . S
C677 H663 0.960 . S
C677 H664 0.961 . S
C677 H665 0.959 . S
C677 C675 1.561 . S
C678 C675 1.526 . S
C678 C679 1.396 1_455 S
C678 C683 1.390 . S
C679 C673 1.465 . S
C679 C678 1.396 1_655 S
C679 C680 1.399 . S
C680 H666 0.929 . S
C680 C679 1.399 . S
C680 C681 1.385 . S
C681 H667 0.931 . S
C681 C680 1.385 . S
C681 C682 1.389 1_655 S
C682 C681 1.389 1_455 S
C682 C683 1.387 . S
C683 H668 0.930 . S
C683 C678 1.390 . S
C683 C682 1.387 . S
C211 C6 0.724 . S
C223 C189 0.703 . S
C238 C59 1.821 . S
C250 C167 1.788 . S
C265 C86 1.198 . S
C277 C180 1.183 . S
C292 C15 0.560 . S
C304 C193 0.314 . S
C331 C163 1.834 . S
C319 C50 1.994 . S
C358 C176 1.320 . S
C346 C95 1.347 . S
C373 C46 1.075 . S
C385 C141 1.067 . S
C400 C99 3.015 . S
C412 C154 2.992 1_655 S
C427 C10 2.034 . S
C439 C124 1.916 . S
C466 C137 1.341 . S
C454 C55 1.368 . S
C493 C150 2.867 . S
C481 C90 3.052 . S
C508 C19 1.826 . S
C520 C128 1.802 . S
C547 C155 1.751 . S
C535 C18 1.718 . S
C562 C49 1.481 . S
C574 C129 1.479 . S
C589 C98 1.516 . S
C601 C142 1.583 . S
C628 C181 1.537 . S
C616 C58 1.444 . S
C655 C194 1.317 . S
C643 C89 1.320 . S
C670 C9 1.446 1_655 S
C682 C168 1.463 . S
