# Generated by pormake.
# Topology nom, (4,4)-cn, num edge types: 1
# Building blocks:
#     Node 0, Type 0, BuildingBlock: MUDLON_clean_linker_0, # of connection points: 4
#     Node 1, Type 0, BuildingBlock: MUDLON_clean_linker_0, # of connection points: 4
#     Node 2, Type 0, BuildingBlock: MUDLON_clean_linker_0, # of connection points: 4
#     Node 3, Type 0, BuildingBlock: MUDLON_clean_linker_0, # of connection points: 4
#     Node 4, Type 0, BuildingBlock: MUDLON_clean_linker_0, # of connection points: 4
#     Node 5, Type 0, BuildingBlock: MUDLON_clean_linker_0, # of connection points: 4
#     Node 6, Type 1, BuildingBlock: AZAVOO_clean_sbu_0, # of connection points: 4
#     Node 7, Type 1, BuildingBlock: AZAVOO_clean_sbu_0, # of connection points: 4
#     Node 8, Type 1, BuildingBlock: AZAVOO_clean_sbu_0, # of connection points: 4
#     Node 9, Type 1, BuildingBlock: AZAVOO_clean_sbu_0, # of connection points: 4
#     Node 10, Type 1, BuildingBlock: AZAVOO_clean_sbu_0, # of connection points: 4
#     Node 11, Type 1, BuildingBlock: AZAVOO_clean_sbu_0, # of connection points: 4
#     Edge 12, Type (0, 1), BuildingBlock: XIVTED_clean_linker_0, # of connection points: 2
#     Edge 13, Type (0, 1), BuildingBlock: XIVTED_clean_linker_0, # of connection points: 2
#     Edge 14, Type (0, 1), BuildingBlock: XIVTED_clean_linker_0, # of connection points: 2
#     Edge 15, Type (0, 1), BuildingBlock: XIVTED_clean_linker_0, # of connection points: 2
#     Edge 16, Type (0, 1), BuildingBlock: XIVTED_clean_linker_0, # of connection points: 2
#     Edge 17, Type (0, 1), BuildingBlock: XIVTED_clean_linker_0, # of connection points: 2
#     Edge 18, Type (0, 1), BuildingBlock: XIVTED_clean_linker_0, # of connection points: 2
#     Edge 19, Type (0, 1), BuildingBlock: XIVTED_clean_linker_0, # of connection points: 2
#     Edge 20, Type (0, 1), BuildingBlock: XIVTED_clean_linker_0, # of connection points: 2
#     Edge 21, Type (0, 1), BuildingBlock: XIVTED_clean_linker_0, # of connection points: 2
#     Edge 22, Type (0, 1), BuildingBlock: XIVTED_clean_linker_0, # of connection points: 2
#     Edge 23, Type (0, 1), BuildingBlock: XIVTED_clean_linker_0, # of connection points: 2
#     Edge 24, Type (0, 1), BuildingBlock: XIVTED_clean_linker_0, # of connection points: 2
#     Edge 25, Type (0, 1), BuildingBlock: XIVTED_clean_linker_0, # of connection points: 2
#     Edge 26, Type (0, 1), BuildingBlock: XIVTED_clean_linker_0, # of connection points: 2
#     Edge 27, Type (0, 1), BuildingBlock: XIVTED_clean_linker_0, # of connection points: 2
#     Edge 28, Type (0, 1), BuildingBlock: XIVTED_clean_linker_0, # of connection points: 2
#     Edge 29, Type (0, 1), BuildingBlock: XIVTED_clean_linker_0, # of connection points: 2
#     Edge 30, Type (0, 1), BuildingBlock: XIVTED_clean_linker_0, # of connection points: 2
#     Edge 31, Type (0, 1), BuildingBlock: XIVTED_clean_linker_0, # of connection points: 2
#     Edge 32, Type (0, 1), BuildingBlock: XIVTED_clean_linker_0, # of connection points: 2
#     Edge 33, Type (0, 1), BuildingBlock: XIVTED_clean_linker_0, # of connection points: 2
#     Edge 34, Type (0, 1), BuildingBlock: XIVTED_clean_linker_0, # of connection points: 2
#     Edge 35, Type (0, 1), BuildingBlock: XIVTED_clean_linker_0, # of connection points: 2
# Relax obj value: 0.035
# Max RMSD: 0.157
# Mean RMSD: 0.120
data_MOF--net-nom--node1-AZAVOO_clean_sbu_0--node2-MUDLON_clean_linker_0--edge1-XIVTED_clean_linker_0
_symmetry_space_group_name_H-M    P1
_symmetry_Int_Tables_number       1
_symmetry_cell_setting            triclinic
loop_
_symmetry_equiv_pos_as_xyz
'x, y, z'
_cell_length_a     60.502657
_cell_length_b     61.619741
_cell_length_c     58.960134
_cell_angle_alpha  91.375459
_cell_angle_beta   90.78441
_cell_angle_gamma 120.33224
loop_
_atom_site_label
_atom_site_type_symbol
_atom_site_fract_x
_atom_site_fract_y
_atom_site_fract_z
_atom_type_partial_charge
H0 H 0.14068 0.52875 0.32091 0.0
N1 N 0.0991 0.52731 0.33648 0.0
H2 H 0.17468 0.56198 0.29928 0.0
H3 H 0.09795 0.56735 0.3183 0.0
H4 H 0.13187 0.6007 0.29693 0.0
H5 H 0.11404 0.57189 0.35983 0.0
H6 H 0.13363 0.58351 0.39764 0.0
H7 H 0.09997 0.49654 0.36682 0.0
H8 H 0.11759 0.50728 0.40564 0.0
H9 H 0.07233 0.48526 0.31167 0.0
H10 H 0.06561 0.54328 0.34755 0.0
H11 H 0.02679 0.46377 0.30098 0.0
H12 H 0.02006 0.5223 0.33648 0.0
H13 H 0.8839 0.38658 0.27352 0.0
H14 H 0.86211 0.38029 0.23661 0.0
H15 H 0.89445 0.46064 0.23282 0.0
H16 H 0.91629 0.46672 0.26971 0.0
H17 H 0.90008 0.46662 0.30571 0.0
H18 H 0.86434 0.46271 0.32723 0.0
H19 H 0.84738 0.38904 0.34784 0.0
H20 H 0.88231 0.39261 0.32478 0.0
H21 H 0.95042 0.44055 0.26926 0.0
H22 H 0.99602 0.46694 0.27751 0.0
H23 H 0.98028 0.48423 0.34463 0.0
N24 N 0.91139 0.42946 0.29744 0.0
H25 H 0.93485 0.45863 0.3364 0.0
C26 C 0.1168 0.54545 0.32116 0.0
C27 C 0.13848 0.54419 0.31532 0.0
C28 C 0.15793 0.56328 0.30318 0.0
C29 C 0.15604 0.58408 0.29661 0.0
C30 C 0.13378 0.58482 0.3016 0.0
C31 C 0.11433 0.56572 0.31384 0.0
C32 C 0.10614 0.53342 0.36024 0.0
C33 C 0.11467 0.55764 0.3697 0.0
C34 C 0.1257 0.56421 0.39159 0.0
C35 C 0.12781 0.54653 0.40477 0.0
C36 C 0.11724 0.52173 0.39583 0.0
C37 C 0.10678 0.51538 0.37375 0.0
C38 C 0.07228 0.51569 0.3304 0.0
C39 C 0.06096 0.49341 0.31707 0.0
C40 C 0.035 0.48132 0.31083 0.0
C41 C 0.01975 0.49138 0.31774 0.0
C42 C 0.0312 0.51393 0.33103 0.0
C43 C 0.05726 0.526 0.33731 0.0
C44 C 0.90164 0.42699 0.2744 0.0
C45 C 0.88661 0.40282 0.26451 0.0
C46 C 0.87419 0.3993 0.24344 0.0
C47 C 0.87643 0.41997 0.23185 0.0
C48 C 0.89205 0.44432 0.24149 0.0
C49 C 0.90462 0.44783 0.26253 0.0
C50 C 0.89343 0.42958 0.31324 0.0
C51 C 0.88869 0.44967 0.31487 0.0
C52 C 0.86839 0.4475 0.32754 0.0
C53 C 0.85263 0.42537 0.33912 0.0
C54 C 0.85866 0.40609 0.33871 0.0
C55 C 0.87874 0.40814 0.32575 0.0
C56 C 0.93839 0.4481 0.30159 0.0
C57 C 0.95652 0.45065 0.28552 0.0
C58 C 0.98279 0.46551 0.29038 0.0
C59 C 0.99186 0.47778 0.31173 0.0
C60 C 0.97398 0.47552 0.32783 0.0
C61 C 0.94769 0.46072 0.32296 0.0
H62 H 0.48964 0.88352 0.47326 0.0
N63 N 0.48721 0.92351 0.46182 0.0
H64 H 0.45755 0.84691 0.49277 0.0
H65 H 0.44593 0.92035 0.48379 0.0
H66 H 0.41421 0.8843 0.50412 0.0
H67 H 0.44091 0.9077 0.44033 0.0
H68 H 0.42842 0.8889 0.40222 0.0
H69 H 0.51835 0.92488 0.42989 0.0
H70 H 0.50665 0.90791 0.39093 0.0
H71 H 0.53312 0.95229 0.48086 0.0
H72 H 0.46608 0.95346 0.45731 0.0
H73 H 0.55429 0.99707 0.49086 0.0
H74 H 0.48643 0.99815 0.46848 0.0
H75 H 0.62667 0.13641 0.5215 0.0
H76 H 0.63412 0.15515 0.55997 0.0
H77 H 0.55239 0.12056 0.56776 0.0
H78 H 0.54517 0.10177 0.52929 0.0
H79 H 0.54745 0.12457 0.49625 0.0
H80 H 0.55176 0.15899 0.47368 0.0
H81 H 0.6184 0.16384 0.44252 0.0
H82 H 0.61493 0.13062 0.46661 0.0
H83 H 0.5812 0.07179 0.52352 0.0
H84 H 0.55537 0.0267 0.51656 0.0
H85 H 0.51911 0.03857 0.45831 0.0
N86 N 0.58207 0.1084 0.4994 0.0
H87 H 0.54362 0.08358 0.46618 0.0
C88 C 0.47037 0.9047 0.47712 0.0
C89 C 0.47349 0.88398 0.48044 0.0
C90 C 0.45509 0.86309 0.49164 0.0
C91 C 0.43313 0.86252 0.49995 0.0
C92 C 0.43065 0.88389 0.49761 0.0
C93 C 0.44902 0.90474 0.48621 0.0
C94 C 0.4805 0.91712 0.43809 0.0
C95 C 0.4554 0.90797 0.42961 0.0
C96 C 0.44833 0.89737 0.40762 0.0
C97 C 0.46637 0.8963 0.39349 0.0
C98 C 0.49199 0.90753 0.4015 0.0
C99 C 0.49886 0.91759 0.42365 0.0
C100 C 0.49807 0.94956 0.46865 0.0
C101 C 0.52283 0.96223 0.47829 0.0
C102 C 0.53477 0.98782 0.48415 0.0
C103 C 0.52201 0.00134 0.48077 0.0
C104 C 0.49695 0.98847 0.4712 0.0
C105 C 0.48514 0.96283 0.46504 0.0
C106 C 0.5855 0.11787 0.52257 0.0
C107 C 0.61043 0.13275 0.53164 0.0
C108 C 0.6146 0.14332 0.55359 0.0
C109 C 0.59382 0.13935 0.56684 0.0
C110 C 0.56876 0.12417 0.55783 0.0
C111 C 0.56461 0.11341 0.5359 0.0
C112 C 0.58134 0.12548 0.48348 0.0
C113 C 0.563 0.13307 0.4846 0.0
C114 C 0.56535 0.15265 0.47141 0.0
C115 C 0.58576 0.16469 0.45649 0.0
C116 C 0.60293 0.15569 0.45431 0.0
C117 C 0.60083 0.13646 0.46782 0.0
C118 C 0.56436 0.08158 0.49584 0.0
C119 C 0.5672 0.06477 0.50959 0.0
C120 C 0.55263 0.03885 0.50535 0.0
C121 C 0.5353 0.02884 0.48667 0.0
C122 C 0.532 0.0455 0.47304 0.0
C123 C 0.54628 0.07153 0.47755 0.0
H124 H 0.5056 0.63443 0.63333 0.0
N125 N 0.50867 0.59477 0.64504 0.0
H126 H 0.47104 0.63457 0.61166 0.0
H127 H 0.47056 0.5545 0.62011 0.0
H128 H 0.43648 0.55457 0.59774 0.0
H129 H 0.46179 0.56273 0.66264 0.0
H130 H 0.44796 0.56565 0.70037 0.0
H131 H 0.53788 0.62377 0.67992 0.0
H132 H 0.52471 0.62575 0.71859 0.0
H133 H 0.55167 0.61033 0.62293 0.0
H134 H 0.49116 0.54526 0.65417 0.0
H135 H 0.57318 0.58669 0.61388 0.0
H136 H 0.51244 0.5215 0.64514 0.0
H137 H 0.64376 0.51656 0.58788 0.0
H138 H 0.64664 0.50145 0.54985 0.0
H139 H 0.56417 0.4548 0.54548 0.0
H140 H 0.56149 0.47012 0.58343 0.0
H141 H 0.55843 0.45807 0.62122 0.0
H142 H 0.5566 0.42364 0.64248 0.0
H143 H 0.63807 0.46839 0.65686 0.0
H144 H 0.63978 0.50264 0.63524 0.0
H145 H 0.59222 0.53044 0.58278 0.0
H146 H 0.56779 0.55113 0.58983 0.0
H147 H 0.55272 0.52268 0.65742 0.0
N148 N 0.60192 0.50225 0.61166 0.0
H149 H 0.57693 0.5018 0.65061 0.0
C150 C 0.49077 0.5946 0.62847 0.0
C151 C 0.49088 0.61707 0.62512 0.0
C152 C 0.47112 0.61708 0.61262 0.0
C153 C 0.45078 0.59451 0.60309 0.0
C154 C 0.45159 0.57221 0.60518 0.0
C155 C 0.4713 0.5722 0.61782 0.0
C156 C 0.50083 0.59357 0.66823 0.0
C157 C 0.4757 0.57654 0.67469 0.0
C158 C 0.46787 0.57803 0.69654 0.0
C159 C 0.48508 0.59619 0.71264 0.0
C160 C 0.51068 0.612 0.70653 0.0
C161 C 0.51836 0.61078 0.68452 0.0
C162 C 0.52002 0.57974 0.63933 0.0
C163 C 0.54299 0.5909 0.6277 0.0
C164 C 0.55514 0.57734 0.62246 0.0
C165 C 0.5445 0.55224 0.62884 0.0
C166 C 0.52124 0.5409 0.64026 0.0
C167 C 0.50903 0.55447 0.64539 0.0
C168 C 0.60255 0.49447 0.58848 0.0
C169 C 0.62635 0.50331 0.57856 0.0
C170 C 0.62792 0.49468 0.55687 0.0
C171 C 0.60562 0.47686 0.54474 0.0
C172 C 0.58168 0.46826 0.55457 0.0
C173 C 0.58013 0.47703 0.57622 0.0
C174 C 0.59937 0.48298 0.62666 0.0
C175 C 0.57584 0.46055 0.6291 0.0
C176 C 0.57479 0.44095 0.64138 0.0
C177 C 0.59723 0.44327 0.65117 0.0
C178 C 0.62053 0.46596 0.64925 0.0
C179 C 0.62153 0.48559 0.63713 0.0
C180 C 0.58532 0.51273 0.61544 0.0
C181 C 0.58305 0.52777 0.59893 0.0
C182 C 0.56933 0.54003 0.60306 0.0
C183 C 0.55798 0.5382 0.62405 0.0
C184 C 0.56061 0.52381 0.64082 0.0
C185 C 0.57444 0.51163 0.63675 0.0
H186 H 0.13399 0.64273 0.81691 0.0
N187 N 0.08977 0.60529 0.8006 0.0
H188 H 0.1673 0.6395 0.83759 0.0
H189 H 0.08325 0.5627 0.82073 0.0
H190 H 0.11622 0.5593 0.84194 0.0
H191 H 0.09181 0.56626 0.77927 0.0
H192 H 0.10756 0.56612 0.7418 0.0
H193 H 0.10403 0.6407 0.77012 0.0
H194 H 0.12188 0.6416 0.73294 0.0
H195 H 0.06658 0.62531 0.82348 0.0
H196 H 0.0519 0.55664 0.78876 0.0
H197 H 0.02081 0.60586 0.83135 0.0
H198 H 0.00669 0.53749 0.79632 0.0
H199 H 0.87361 0.532 0.85715 0.0
H200 H 0.85806 0.51703 0.89498 0.0
H201 H 0.89936 0.47672 0.89494 0.0
H202 H 0.91456 0.49158 0.8571 0.0
H203 H 0.90728 0.48021 0.81812 0.0
H204 H 0.87699 0.44362 0.79489 0.0
H205 H 0.8282 0.47575 0.78779 0.0
H206 H 0.85936 0.51287 0.81023 0.0
H207 H 0.94197 0.54965 0.86106 0.0
H208 H 0.98747 0.57033 0.85391 0.0
H209 H 0.97058 0.54468 0.78375 0.0
N210 N 0.90198 0.52037 0.83118 0.0
H211 H 0.92509 0.52409 0.79054 0.0
C212 C 0.10624 0.60309 0.81713 0.0
C213 C 0.12977 0.62459 0.82293 0.0
C214 C 0.14876 0.62266 0.83482 0.0
C215 C 0.14456 0.59906 0.84124 0.0
C216 C 0.12023 0.5777 0.8369 0.0
C217 C 0.10124 0.57966 0.8249 0.0
C218 C 0.09633 0.60346 0.77746 0.0
C219 C 0.09741 0.58246 0.76905 0.0
C220 C 0.10693 0.58259 0.74764 0.0
C221 C 0.11641 0.60399 0.73436 0.0
C222 C 0.11449 0.62464 0.74249 0.0
C223 C 0.10443 0.62426 0.76379 0.0
C224 C 0.06284 0.59275 0.80533 0.0
C225 C 0.05356 0.60611 0.81759 0.0
C226 C 0.02751 0.59498 0.8221 0.0
C227 C 0.01023 0.57025 0.81425 0.0
C228 C 0.01955 0.55673 0.80224 0.0
C229 C 0.04558 0.56777 0.79793 0.0
C230 C 0.89511 0.51291 0.85428 0.0
C231 C 0.8795 0.52018 0.86548 0.0
C232 C 0.87077 0.51169 0.88711 0.0
C233 C 0.87746 0.49565 0.89798 0.0
C234 C 0.89359 0.48878 0.88692 0.0
C235 C 0.90231 0.49728 0.86528 0.0
C236 C 0.88559 0.49941 0.81585 0.0
C237 C 0.89022 0.47952 0.81135 0.0
C238 C 0.87277 0.45851 0.7981 0.0
C239 C 0.84999 0.45656 0.78952 0.0
C240 C 0.8457 0.47671 0.79371 0.0
C241 C 0.86337 0.4979 0.80668 0.0
C242 C 0.92938 0.53294 0.82693 0.0
C243 C 0.94773 0.54769 0.84419 0.0
C244 C 0.97392 0.55997 0.84007 0.0
C245 C 0.98251 0.55843 0.81845 0.0
C246 C 0.96445 0.54536 0.8008 0.0
C247 C 0.93828 0.53331 0.80484 0.0
H248 H 0.49467 0.13872 -0.00086 0.0
N249 N 0.50599 0.10746 0.9775 0.0
H250 H 0.52242 0.17357 0.02544 0.0
H251 H 0.5499 0.11409 -0.00045 0.0
H252 H 0.57827 0.14942 0.02381 0.0
H253 H 0.55438 0.12676 0.96094 0.0
H254 H 0.56882 0.1452 0.92465 0.0
H255 H 0.47869 0.11374 0.94521 0.0
H256 H 0.49368 0.13401 0.9088 0.0
H257 H 0.45945 0.06907 0.98449 0.0
H258 H 0.53638 0.08637 0.97072 0.0
H259 H 0.44552 0.02426 0.98393 0.0
H260 H 0.52359 0.0428 0.97248 0.0
H261 H 0.42115 0.90126 0.01193 0.0
H262 H 0.41003 0.88979 0.051 0.0
H263 H 0.48922 0.93887 0.07237 0.0
H264 H 0.50036 0.9495 0.03274 0.0
H265 H 0.4966 0.9119 0.98564 0.0
H266 H 0.48331 0.87389 0.96197 0.0
H267 H 0.41036 0.86843 0.94797 0.0
H268 H 0.42413 0.90692 0.97145 0.0
H269 H 0.43839 0.95159 0.01062 0.0
H270 H 0.44585 0.99317 0.0039 0.0
H271 H 0.50333 0.00403 0.95538 0.0
N272 N 0.46905 0.93281 0.99634 0.0
H273 H 0.49767 0.96317 0.96423 0.0
C274 C 0.52012 0.12388 0.9968 0.0
C275 C 0.51255 0.14055 0.00515 0.0
C276 C 0.52869 0.16072 0.01994 0.0
C277 C 0.55313 0.165 0.02635 0.0
C278 C 0.5597 0.14699 0.01949 0.0
C279 C 0.54332 0.12657 0.00513 0.0
C280 C 0.51521 0.11859 0.95588 0.0
C281 C 0.54071 0.12774 0.94972 0.0
C282 C 0.54914 0.13873 0.9289 0.0
C283 C 0.53253 0.14143 0.91385 0.0
C284 C 0.50693 0.13204 0.91988 0.0
C285 C 0.49838 0.12065 0.9407 0.0
C286 C 0.49905 0.08138 0.97839 0.0
C287 C 0.47344 0.06328 0.98187 0.0
C288 C 0.46557 0.03766 0.9816 0.0
C289 C 0.48336 0.0296 0.97821 0.0
C290 C 0.50904 0.0479 0.97465 0.0
C291 C 0.51667 0.07332 0.97429 0.0
C292 C 0.46179 0.92584 0.01938 0.0
C293 C 0.4362 0.90935 0.02491 0.0
C294 C 0.42978 0.90318 0.04739 0.0
C295 C 0.44873 0.91348 0.06484 0.0
C296 C 0.47422 0.93041 0.0593 0.0
C297 C 0.48064 0.93649 0.03674 0.0
C298 C 0.46136 0.91205 0.98035 0.0
C299 C 0.47793 0.9027 0.97713 0.0
C300 C 0.47031 0.88105 0.96362 0.0
C301 C 0.44575 0.86816 0.95322 0.0
C302 C 0.42929 0.87788 0.95598 0.0
C303 C 0.43713 0.89984 0.96929 0.0
C304 C 0.46819 0.95441 0.98849 0.0
C305 C 0.45261 0.96273 -0.00151 0.0
C306 C 0.45671 0.98669 0.99438 0.0
C307 C 0.47584 0.00257 0.9796 0.0
C308 C 0.48927 0.99296 0.9677 0.0
C309 C 0.48577 0.96935 0.9724 0.0
H310 H 0.49576 0.39859 0.13761 0.0
N311 N 0.49205 0.43796 0.15027 0.0
H312 H 0.53276 0.3987 0.12199 0.0
H313 H 0.53352 0.47909 0.13283 0.0
H314 H 0.57038 0.47945 0.116 0.0
H315 H 0.53183 0.47554 0.1757 0.0
H316 H 0.54447 0.47254 0.21409 0.0
H317 H 0.46582 0.40108 0.17842 0.0
H318 H 0.47962 0.3969 0.21639 0.0
H319 H 0.45036 0.41939 0.12365 0.0
H320 H 0.50592 0.48739 0.16008 0.0
H321 H 0.42617 0.43991 0.11287 0.0
H322 H 0.4817 0.50754 0.14984 0.0
H323 H 0.34944 0.50427 0.08562 0.0
H324 H 0.34693 0.51845 0.0477 0.0
H325 H 0.42885 0.5692 0.05053 0.0
H326 H 0.43115 0.55484 0.08834 0.0
H327 H 0.43547 0.56231 0.1282 0.0
H328 H 0.4396 0.5967 0.15251 0.0
H329 H 0.35703 0.55965 0.15552 0.0
H330 H 0.35327 0.52458 0.1322 0.0
H331 H 0.40542 0.49639 0.08224 0.0
H332 H 0.43138 0.4774 0.08994 0.0
H333 H 0.43628 0.49819 0.16093 0.0
N334 N 0.39068 0.52085 0.11275 0.0
H335 H 0.40995 0.51674 0.15369 0.0
C336 C 0.51175 0.43868 0.13632 0.0
C337 C 0.51175 0.4162 0.13236 0.0
C338 C 0.53301 0.41637 0.12335 0.0
C339 C 0.55482 0.43914 0.11777 0.0
C340 C 0.55419 0.46161 0.12049 0.0
C341 C 0.53292 0.46142 0.12983 0.0
C342 C 0.49749 0.43861 0.17424 0.0
C343 C 0.51952 0.4588 0.18478 0.0
C344 C 0.52709 0.45682 0.2067 0.0
C345 C 0.51342 0.43427 0.21827 0.0
C346 C 0.49055 0.41466 0.20819 0.0
C347 C 0.48264 0.41693 0.18642 0.0
C348 C 0.47971 0.45152 0.14295 0.0
C349 C 0.45742 0.43873 0.12919 0.0
C350 C 0.4437 0.45046 0.12302 0.0
C351 C 0.45198 0.4752 0.13074 0.0
C352 C 0.47474 0.48831 0.14395 0.0
C353 C 0.48862 0.4767 0.14984 0.0
C354 C 0.39034 0.52846 0.0898 0.0
C355 C 0.36683 0.51826 0.07791 0.0
C356 C 0.36548 0.52636 0.05628 0.0
C357 C 0.3877 0.54501 0.04617 0.0
C358 C 0.41136 0.55507 0.05801 0.0
C359 C 0.41271 0.54684 0.0796 0.0
C360 C 0.39395 0.5407 0.1285 0.0
C361 C 0.41827 0.56143 0.13434 0.0
C362 C 0.42058 0.58122 0.14816 0.0
C363 C 0.39865 0.58117 0.15593 0.0
C364 C 0.37439 0.56023 0.15028 0.0
C365 C 0.37214 0.54021 0.1368 0.0
C366 C 0.40712 0.51025 0.11699 0.0
C367 C 0.41254 0.4977 0.09945 0.0
C368 C 0.42718 0.48645 0.10384 0.0
C369 C 0.43643 0.48701 0.1259 0.0
C370 C 0.43013 0.4983 0.14361 0.0
C371 C 0.41518 0.50918 0.13933 0.0
Mg372 Mg 0.61855 0.36575 0.35901 0.0
O373 O 0.61835 0.39024 0.38913 0.0
O374 O 0.63782 0.4298 0.37742 0.0
Mg375 Mg 0.64961 0.43086 0.34079 0.0
C376 C 0.62656 0.4137 0.39265 0.0
C377 C 0.6203 0.32066 0.37692 0.0
O378 O 0.63681 0.32848 0.36054 0.0
O379 O 0.66119 0.38125 0.36541 0.0
O380 O 0.67923 0.42021 0.35255 0.0
O381 O 0.58116 0.36022 0.34574 0.0
O382 O 0.61915 0.39128 0.33656 0.0
C383 C 0.68093 0.40229 0.36123 0.0
C384 C 0.5946 0.38081 0.33505 0.0
O385 O 0.60859 0.33246 0.38142 0.0
Mg386 Mg 0.27564 0.64874 0.58549 0.0
O387 O 0.24801 0.62645 0.55543 0.0
O388 O 0.22511 0.58652 0.56602 0.0
Mg389 Mg 0.23599 0.58381 0.60267 0.0
C390 C 0.23091 0.60341 0.5514 0.0
C391 C 0.29558 0.69799 0.55761 0.0
O392 O 0.2731 0.69498 0.5625 0.0
O393 O 0.2996 0.63055 0.57824 0.0
O394 O 0.2757 0.59194 0.59132 0.0
O395 O 0.2469 0.6575 0.59962 0.0
O396 O 0.24953 0.6241 0.60794 0.0
C397 C 0.29625 0.60891 0.58259 0.0
C398 C 0.23785 0.6366 0.61013 0.0
O399 O 0.30116 0.68163 0.56362 0.0
Mg400 Mg 0.62929 0.27604 0.74967 0.0
O401 O 0.62509 0.24838 0.72097 0.0
O402 O 0.64328 0.22683 0.73319 0.0
Mg403 Mg 0.65711 0.23921 0.77007 0.0
C404 C 0.63163 0.23183 0.7178 0.0
C405 C 0.60399 0.30489 0.73072 0.0
O406 O 0.5918 0.29696 0.74975 0.0
O407 O 0.67193 0.30045 0.74366 0.0
O408 O 0.68804 0.27836 0.75897 0.0
O409 O 0.59187 0.24758 0.76385 0.0
O410 O 0.62941 0.25218 0.77357 0.0
C411 C 0.69096 0.29806 0.74951 0.0
C412 C 0.60498 0.2403 0.77571 0.0
O413 O 0.62028 0.2986 0.72527 0.0
Mg414 Mg 0.3751 0.64895 0.86044 0.0
O415 O 0.37635 0.62592 0.89017 0.0
O416 O 0.35858 0.5862 0.87661 0.0
Mg417 Mg 0.34753 0.58399 0.83908 0.0
C418 C 0.369 0.60271 0.89281 0.0
C419 C 0.39954 0.70353 0.87528 0.0
O420 O 0.40955 0.70336 0.85569 0.0
O421 O 0.33232 0.63187 0.86442 0.0
O422 O 0.31618 0.59314 0.849 0.0
O423 O 0.41341 0.65695 0.84952 0.0
O424 O 0.37697 0.62392 0.8373 0.0
C425 C 0.31327 0.61048 0.85828 0.0
C426 C 0.40167 0.63619 0.83741 0.0
O427 O 0.3836 0.68262 0.88356 0.0
Mg428 Mg 0.73102 0.3954 0.05517 0.0
O429 O 0.75729 0.39658 0.08467 0.0
O430 O 0.77725 0.37703 0.07101 0.0
Mg431 Mg 0.76508 0.36456 0.03395 0.0
C432 C 0.77299 0.38857 0.0871 0.0
C433 C 0.70854 0.42614 0.07861 0.0
O434 O 0.72702 0.44456 0.0677 0.0
O435 O 0.70367 0.35382 0.0596 0.0
O436 O 0.72425 0.33541 0.04494 0.0
O437 O 0.76215 0.43189 0.04297 0.0
O438 O 0.75582 0.39473 0.03159 0.0
C439 C 0.7046 0.33417 0.05407 0.0
C440 C 0.76929 0.41887 0.03078 0.0
O441 O 0.70692 0.40474 0.07832 0.0
Mg442 Mg 0.36132 0.75967 0.20847 0.0
O443 O 0.38447 0.78282 0.2402 0.0
O444 O 0.42566 0.80432 0.23068 0.0
Mg445 Mg 0.4286 0.79689 0.19304 0.0
C446 C 0.40813 0.79812 0.24516 0.0
C447 C 0.30468 0.72591 0.22116 0.0
O448 O 0.30186 0.73315 0.20108 0.0
O449 O 0.37681 0.73293 0.21176 0.0
O450 O 0.41672 0.75596 0.19967 0.0
O451 O 0.35557 0.79129 0.19816 0.0
O452 O 0.38844 0.78695 0.18869 0.0
C453 C 0.39832 0.7353 0.20656 0.0
C454 C 0.37755 0.80026 0.18871 0.0
O455 O 0.32715 0.7343 0.22948 0.0
H456 H 0.20689 0.60615 0.30822 0.0
H457 H 0.25394 0.70416 0.20846 0.0
H458 H 0.15491 0.61112 0.26065 0.0
H459 H 0.30417 0.70355 0.26085 0.0
H460 H 0.21734 0.67027 0.22714 0.0
H461 H 0.24275 0.64158 0.29058 0.0
C462 C 0.20304 0.6146 0.29392 0.0
C463 C 0.17787 0.60553 0.28577 0.0
C464 C 0.23636 0.67765 0.2346 0.0
C465 C 0.2189 0.64641 0.26563 0.0
C466 C 0.25727 0.69701 0.22396 0.0
C467 C 0.28219 0.70665 0.23306 0.0
C468 C 0.24041 0.66777 0.25441 0.0
C469 C 0.28534 0.69669 0.25319 0.0
C470 C 0.22352 0.63498 0.28397 0.0
C471 C 0.174 0.61758 0.26752 0.0
N472 N 0.26472 0.67772 0.26311 0.0
N473 N 0.19431 0.63735 0.25799 0.0
H474 H 0.54983 0.17561 0.43921 0.0
H475 H 0.65122 0.30067 0.38066 0.0
H476 H 0.6316 0.20613 0.44618 0.0
H477 H 0.57806 0.28939 0.40122 0.0
H478 H 0.64246 0.26262 0.39997 0.0
H479 H 0.55796 0.21404 0.4208 0.0
C480 C 0.56947 0.19029 0.43697 0.0
C481 C 0.59004 0.18738 0.44429 0.0
C482 C 0.62836 0.26852 0.40033 0.0
C483 C 0.59932 0.23117 0.42276 0.0
C484 C 0.6333 0.29018 0.38927 0.0
C485 C 0.61534 0.2982 0.38938 0.0
C486 C 0.60508 0.25446 0.41125 0.0
C487 C 0.59247 0.28391 0.40086 0.0
C488 C 0.57404 0.21219 0.42639 0.0
C489 C 0.61504 0.20704 0.44044 0.0
N490 N 0.58787 0.26256 0.4112 0.0
N491 N 0.61894 0.22797 0.42987 0.0
H492 H 0.44799 0.62957 0.57687 0.0
H493 H 0.29663 0.56533 0.58984 0.0
H494 H 0.40052 0.55823 0.6077 0.0
H495 H 0.3447 0.64123 0.56791 0.0
H496 H 0.33348 0.55935 0.58933 0.0
H497 H 0.40943 0.63103 0.5667 0.0
C498 C 0.42949 0.61409 0.5813 0.0
C499 C 0.42761 0.59389 0.59341 0.0
C500 C 0.33592 0.57724 0.58441 0.0
C501 C 0.3834 0.59539 0.58168 0.0
C502 C 0.31485 0.58068 0.58467 0.0
C503 C 0.31759 0.60397 0.57927 0.0
C504 C 0.36001 0.59724 0.57877 0.0
C505 C 0.34169 0.62303 0.57246 0.0
C506 C 0.40748 0.61491 0.57542 0.0
C507 C 0.40303 0.57412 0.59824 0.0
N508 N 0.36203 0.61934 0.57265 0.0
N509 N 0.38197 0.57551 0.59258 0.0
H510 H 0.81714 0.45087 0.75393 0.0
H511 H 0.73622 0.30143 0.76271 0.0
H512 H 0.83664 0.408 0.79849 0.0
H513 H 0.70575 0.34486 0.73341 0.0
H514 H 0.77796 0.33964 0.76724 0.0
H515 H 0.78084 0.4115 0.73857 0.0
C516 C 0.81396 0.43326 0.7604 0.0
C517 C 0.8299 0.4329 0.7778 0.0
C518 C 0.76221 0.34074 0.75955 0.0
C519 C 0.78867 0.3878 0.75993 0.0
C520 C 0.73834 0.3189 0.75687 0.0
C521 C 0.71723 0.31997 0.74809 0.0
C522 C 0.76506 0.36386 0.7534 0.0
C523 C 0.72135 0.34317 0.74057 0.0
C524 C 0.79332 0.4108 0.7515 0.0
C525 C 0.82515 0.40938 0.78502 0.0
N526 N 0.74473 0.36428 0.74369 0.0
N527 N 0.80488 0.38785 0.77618 0.0
H528 H 0.40045 0.82368 0.95619 0.0
H529 H 0.43772 0.75033 0.86489 0.0
H530 H 0.47193 0.85792 0.92137 0.0
H531 H 0.37638 0.71208 0.91151 0.0
H532 H 0.44792 0.79048 0.88285 0.0
H533 H 0.38841 0.78327 0.93701 0.0
C534 C 0.41345 0.82273 0.9443 0.0
C535 C 0.43724 0.84413 0.94037 0.0
C536 C 0.43226 0.77332 0.88921 0.0
C537 C 0.42373 0.79807 0.91859 0.0
C538 C 0.42639 0.75035 0.87895 0.0
C539 C 0.40619 0.72778 0.88674 0.0
C540 C 0.41771 0.77385 0.90731 0.0
C541 C 0.3922 0.72903 0.90503 0.0
C542 C 0.40669 0.79966 0.93354 0.0
C543 C 0.45352 0.84183 0.92503 0.0
N544 N 0.39817 0.75171 0.91467 0.0
N545 N 0.44646 0.81923 0.9147 0.0
H546 H 0.60522 0.47528 0.1276 0.0
H547 H 0.66046 0.38856 0.08828 0.0
H548 H 0.55892 0.40335 0.09226 0.0
H549 H 0.70744 0.46949 0.08778 0.0
H550 H 0.62355 0.39282 0.09739 0.0
H551 H 0.64351 0.47309 0.11899 0.0
C552 C 0.603 0.45918 0.11779 0.0
C553 C 0.57857 0.43937 0.11081 0.0
C554 C 0.64199 0.40963 0.0954 0.0
C555 C 0.62237 0.43647 0.10175 0.0
C556 C 0.66313 0.40725 0.09043 0.0
C557 C 0.68708 0.42872 0.08717 0.0
C558 C 0.64484 0.43364 0.09755 0.0
C559 C 0.6893 0.45245 0.09005 0.0
C560 C 0.62491 0.4579 0.1131 0.0
C561 C 0.57713 0.41881 0.09854 0.0
N562 N 0.66842 0.45431 0.09512 0.0
N563 N 0.59865 0.41778 0.09464 0.0
H564 H 0.38106 0.84245 0.49481 0.0
H565 H 0.34633 0.71383 0.55275 0.0
H566 H 0.43739 0.82881 0.52676 0.0
H567 H 0.2902 0.73612 0.54033 0.0
H568 H 0.37954 0.75421 0.53929 0.0
H569 H 0.34718 0.80244 0.50848 0.0
C570 C 0.38636 0.83127 0.50494 0.0
C571 C 0.41224 0.83912 0.50958 0.0
C572 C 0.35996 0.75026 0.53948 0.0
C573 C 0.37344 0.7929 0.52472 0.0
C574 C 0.34092 0.72713 0.54703 0.0
C575 C 0.31541 0.72158 0.54773 0.0
C576 C 0.35347 0.76796 0.53237 0.0
C577 C 0.30962 0.73962 0.54014 0.0
C578 C 0.36697 0.8083 0.51257 0.0
C579 C 0.4178 0.82343 0.52239 0.0
N580 N 0.32852 0.76202 0.53274 0.0
N581 N 0.3986 0.80104 0.52938 0.0
H582 H 0.56247 0.41139 0.68132 0.0
H583 H 0.63006 0.3289 0.69313 0.0
H584 H 0.63046 0.42591 0.64617 0.0
H585 H 0.57076 0.32227 0.7373 0.0
H586 H 0.62707 0.36137 0.67279 0.0
H587 H 0.56211 0.37578 0.69934 0.0
C588 C 0.57726 0.40702 0.67735 0.0
C589 C 0.59664 0.42172 0.66238 0.0
C590 C 0.61463 0.35275 0.68688 0.0
C591 C 0.59632 0.38109 0.68281 0.0
C592 C 0.61626 0.33412 0.69846 0.0
C593 C 0.60076 0.32296 0.71706 0.0
C594 C 0.59732 0.36025 0.69388 0.0
C595 C 0.58319 0.33047 0.72314 0.0
C596 C 0.5771 0.38678 0.68768 0.0
C597 C 0.61541 0.41534 0.65791 0.0
N598 N 0.58201 0.34873 0.71163 0.0
N599 N 0.61477 0.3955 0.66806 0.0
H600 H 0.1553 0.56191 0.83051 0.0
H601 H 0.29881 0.64156 0.87901 0.0
H602 H 0.18412 0.63082 0.87083 0.0
H603 H 0.26772 0.56944 0.84356 0.0
H604 H 0.25585 0.63577 0.87984 0.0
H605 H 0.19464 0.56173 0.83929 0.0
C606 C 0.16962 0.57673 0.84165 0.0
C607 C 0.16642 0.59657 0.84974 0.0
C608 C 0.25838 0.62109 0.87208 0.0
C609 C 0.212 0.59683 0.85935 0.0
C610 C 0.28295 0.6244 0.87155 0.0
C611 C 0.28701 0.60611 0.86092 0.0
C612 C 0.23769 0.59942 0.86177 0.0
C613 C 0.26561 0.58417 0.85176 0.0
C614 C 0.19225 0.57673 0.84649 0.0
C615 C 0.18594 0.61543 0.86381 0.0
N616 N 0.24195 0.58158 0.85218 0.0
N617 N 0.20802 0.61527 0.86792 0.0
H618 H 0.59341 0.17449 0.05584 0.0
H619 H 0.65517 0.32353 0.05798 0.0
H620 H 0.55856 0.21189 0.02217 0.0
H621 H 0.70098 0.28796 0.05531 0.0
H622 H 0.61645 0.28193 0.05687 0.0
H623 H 0.6298 0.21568 0.06733 0.0
C624 C 0.59314 0.19118 0.05099 0.0
C625 C 0.57286 0.18942 0.03751 0.0
C626 C 0.63502 0.28331 0.05685 0.0
C627 C 0.61416 0.23657 0.05143 0.0
C628 C 0.65713 0.307 0.05756 0.0
C629 C 0.68137 0.30922 0.05645 0.0
C630 C 0.63714 0.26169 0.05543 0.0
C631 C 0.68268 0.2871 0.05591 0.0
C632 C 0.6139 0.21467 0.05772 0.0
C633 C 0.57341 0.21194 0.03261 0.0
N634 N 0.66084 0.26421 0.05532 0.0
N635 N 0.59378 0.23452 0.03944 0.0
H636 H 0.36861 0.58272 0.19012 0.0
H637 H 0.44076 0.73288 0.19536 0.0
H638 H 0.43388 0.63098 0.15028 0.0
H639 H 0.36258 0.68636 0.2158 0.0
H640 H 0.44309 0.69511 0.18763 0.0
H641 H 0.37049 0.62017 0.2074 0.0
C642 C 0.3834 0.60109 0.18504 0.0
C643 C 0.40097 0.60354 0.16848 0.0
C644 C 0.42552 0.69319 0.19404 0.0
C645 C 0.40353 0.64639 0.18867 0.0
C646 C 0.42416 0.71476 0.19855 0.0
C647 C 0.40125 0.71283 0.20585 0.0
C648 C 0.40387 0.66944 0.19689 0.0
C649 C 0.38054 0.68876 0.20993 0.0
C650 C 0.38452 0.62243 0.19505 0.0
C651 C 0.42009 0.62794 0.16311 0.0
N652 N 0.38224 0.66795 0.20514 0.0
N653 N 0.42076 0.64834 0.17308 0.0
H654 H 0.84398 0.46031 0.36123 0.0
H655 H 0.69317 0.36568 0.36788 0.0
H656 H 0.80616 0.3816 0.34049 0.0
H657 H 0.72734 0.44608 0.3628 0.0
H658 H 0.73603 0.3709 0.36857 0.0
H659 H 0.80259 0.45459 0.37222 0.0
C660 C 0.82711 0.44179 0.35915 0.0
C661 C 0.82865 0.42152 0.34951 0.0
C662 C 0.73409 0.38739 0.36759 0.0
C663 C 0.78136 0.41484 0.36254 0.0
C664 C 0.70966 0.38446 0.36727 0.0
C665 C 0.70664 0.40545 0.3649 0.0
C666 C 0.75563 0.41148 0.36579 0.0
C667 C 0.72875 0.42934 0.36428 0.0
C668 C 0.80353 0.43856 0.36555 0.0
C669 C 0.80614 0.39781 0.34792 0.0
N670 N 0.75232 0.4317 0.36455 0.0
N671 N 0.78343 0.39519 0.35417 0.0
H672 H 0.15691 0.5285 0.4239 0.0
H673 H 0.22075 0.63224 0.52317 0.0
H674 H 0.13279 0.58278 0.43647 0.0
H675 H 0.2085 0.55735 0.5296 0.0
H676 H 0.195 0.61829 0.48757 0.0
H677 H 0.18181 0.54231 0.45946 0.0
C678 C 0.15646 0.54307 0.43415 0.0
C679 C 0.14237 0.55428 0.42699 0.0
C680 C 0.19803 0.605 0.49684 0.0
C681 C 0.17196 0.57088 0.46745 0.0
C682 C 0.21284 0.61296 0.517 0.0
C683 C 0.2167 0.59589 0.52934 0.0
C684 C 0.18759 0.58001 0.48877 0.0
C685 C 0.20587 0.57107 0.52067 0.0
C686 C 0.17096 0.55109 0.45439 0.0
C687 C 0.14354 0.57375 0.44092 0.0
N688 N 0.19195 0.56391 0.50084 0.0
N689 N 0.15822 0.58155 0.46038 0.0
H690 H 0.6274 0.14279 0.60027 0.0
H691 H 0.60164 0.23218 0.68261 0.0
H692 H 0.57092 0.16394 0.5854 0.0
H693 H 0.64722 0.19949 0.70243 0.0
H694 H 0.59154 0.2088 0.64626 0.0
H695 H 0.63623 0.16487 0.63723 0.0
C696 C 0.61686 0.15209 0.60481 0.0
C697 C 0.59844 0.15158 0.58974 0.0
C698 C 0.6037 0.20671 0.6586 0.0
C699 C 0.60843 0.17688 0.63199 0.0
C700 C 0.60956 0.22012 0.67934 0.0
C701 C 0.62535 0.21785 0.69565 0.0
C702 C 0.61383 0.19104 0.65401 0.0
C703 C 0.63495 0.20184 0.69043 0.0
C704 C 0.62182 0.16459 0.62594 0.0
C705 C 0.58512 0.16368 0.59659 0.0
N706 N 0.62911 0.18914 0.67005 0.0
N707 N 0.59048 0.17597 0.61716 0.0
H708 H 0.4475 0.5606 0.73915 0.0
H709 H 0.45286 0.6619 0.82952 0.0
H710 H 0.50107 0.64051 0.73699 0.0
H711 H 0.38357 0.59164 0.81284 0.0
H712 H 0.47569 0.65042 0.80234 0.0
H713 H 0.42874 0.5684 0.77263 0.0
C714 C 0.45547 0.57974 0.74569 0.0
C715 C 0.47577 0.59994 0.73487 0.0
C716 C 0.45555 0.63741 0.80486 0.0
C717 C 0.45473 0.60877 0.77358 0.0
C718 C 0.4425 0.64388 0.82041 0.0
C719 C 0.41617 0.62781 0.82331 0.0
C720 C 0.44226 0.6146 0.79225 0.0
C721 C 0.4038 0.60468 0.81105 0.0
C722 C 0.4448 0.58411 0.76489 0.0
C723 C 0.48569 0.62423 0.7447 0.0
N724 N 0.41693 0.5988 0.79595 0.0
N725 N 0.47499 0.62795 0.76339 0.0
H726 H 0.85898 0.44748 0.9118 0.0
H727 H 0.80084 0.46928 0.02509 0.0
H728 H 0.87075 0.51971 0.93475 0.0
H729 H 0.78632 0.39657 0.00049 0.0
H730 H 0.83164 0.48897 0.99518 0.0
H731 H 0.83751 0.42955 0.94703 0.0
C732 C 0.8574 0.45968 0.92439 0.0
C733 C 0.86651 0.48512 0.9202 0.0
C734 C 0.82194 0.46873 0.99648 0.0
C735 C 0.84156 0.46458 0.9605 0.0
C736 C 0.8044 0.45747 0.01361 0.0
C737 C 0.79078 0.43121 0.01516 0.0
C738 C 0.82583 0.45361 0.98071 0.0
C739 C 0.79627 0.41687 -0.00013 0.0
C740 C 0.84499 0.44937 0.94447 0.0
C741 C 0.86361 0.49991 0.93707 0.0
N742 N 0.81316 0.42824 0.98313 0.0
N743 N 0.85123 0.48938 0.95638 0.0
H744 H 0.47615 0.90274 0.09511 0.0
H745 H 0.42801 0.83633 0.1906 0.0
H746 H 0.40588 0.90432 0.08803 0.0
H747 H 0.35485 0.81953 0.16217 0.0
H748 H 0.44921 0.87194 0.16599 0.0
H749 H 0.46204 0.88237 0.13086 0.0
C750 C 0.45805 0.8995 0.10144 0.0
C751 C 0.44208 0.90502 0.08838 0.0
C752 C 0.42855 0.86043 0.16487 0.0
C753 C 0.42556 0.88156 0.12974 0.0
C754 C 0.41645 0.8402 0.17908 0.0
C755 C 0.38979 0.8246 0.17776 0.0
C756 C 0.41383 0.86457 0.14879 0.0
C757 C 0.37554 0.831 0.16338 0.0
C758 C 0.44993 0.88784 0.12206 0.0
C759 C 0.41857 0.89989 0.09731 0.0
N760 N 0.38779 0.85025 0.14905 0.0
N761 N 0.41084 0.88806 0.11725 0.0
H762 H 0.48878 0.40677 0.25566 0.0
H763 H 0.61823 0.42216 0.30917 0.0
H764 H 0.56403 0.45157 0.22825 0.0
H765 H 0.54333 0.36479 0.32951 0.0
H766 H 0.59826 0.43852 0.28426 0.0
H767 H 0.50814 0.39612 0.2871 0.0
C768 C 0.50933 0.41456 0.25629 0.0
C769 C 0.52471 0.43008 0.23913 0.0
C770 C 0.58613 0.42247 0.29428 0.0
C771 C 0.54691 0.4182 0.27516 0.0
C772 C 0.59756 0.41316 0.30865 0.0
C773 C 0.58244 0.39199 0.32142 0.0
C774 C 0.55932 0.41047 0.29245 0.0
C775 C 0.5557 0.38107 0.31984 0.0
C776 C 0.52034 0.40853 0.27429 0.0
C777 C 0.5513 0.43993 0.24114 0.0
N778 N 0.54493 0.39032 0.30544 0.0
N779 N 0.56145 0.43371 0.2587 0.0
H780 H 0.48521 0.86857 0.37315 0.0
H781 H 0.37872 0.8071 0.2745 0.0
H782 H 0.4284 0.8906 0.36311 0.0
H783 H 0.45449 0.81782 0.26743 0.0
H784 H 0.39279 0.83113 0.3108 0.0
H785 H 0.47076 0.84408 0.33751 0.0
C786 C 0.46994 0.86862 0.36341 0.0
C787 C 0.45822 0.88201 0.37126 0.0
C788 C 0.40624 0.82809 0.30128 0.0
C789 C 0.44095 0.85298 0.33073 0.0
C790 C 0.3982 0.81423 0.28072 0.0
C791 C 0.4155 0.81051 0.26796 0.0
C792 C 0.43157 0.83783 0.30928 0.0
C793 C 0.44059 0.82036 0.27669 0.0
C794 C 0.46156 0.85437 0.34314 0.0
C795 C 0.43787 0.88042 0.35804 0.0
N796 N 0.44785 0.83349 0.29687 0.0
N797 N 0.42978 0.86605 0.3385 0.0
H798 H 0.58 0.428 0.52828 0.0
H799 H 0.64569 0.46245 0.40755 0.0
H800 H 0.63553 0.50332 0.50972 0.0
H801 H 0.59946 0.38598 0.4288 0.0
H802 H 0.63985 0.47755 0.44416 0.0
H803 H 0.58436 0.41213 0.49112 0.0
C804 C 0.59296 0.44121 0.51631 0.0
C805 C 0.60746 0.46702 0.52209 0.0
C806 C 0.63098 0.45746 0.44087 0.0
C807 C 0.61267 0.449 0.47969 0.0
C808 C 0.63427 0.44877 0.4199 0.0
C809 C 0.62307 0.42285 0.41502 0.0
C810 C 0.61627 0.44016 0.45718 0.0
C811 C 0.60852 0.40612 0.43181 0.0
C812 C 0.59557 0.43212 0.49519 0.0
C813 C 0.62421 0.48325 0.50607 0.0
N814 N 0.6055 0.41507 0.45215 0.0
N815 N 0.62632 0.47398 0.48561 0.0
H816 H 0.11745 0.6274 0.69465 0.0
H817 H 0.21813 0.59652 0.63777 0.0
H818 H 0.14752 0.58452 0.72587 0.0
H819 H 0.20718 0.65706 0.61639 0.0
H820 H 0.18484 0.58539 0.66544 0.0
H821 H 0.14368 0.6326 0.66167 0.0
C822 C 0.12939 0.61897 0.69459 0.0
C823 C 0.13022 0.60554 0.71321 0.0
C824 C 0.18955 0.60098 0.65456 0.0
C825 C 0.15986 0.61105 0.67536 0.0
C826 C 0.20848 0.60727 0.63865 0.0
C827 C 0.21561 0.62789 0.62488 0.0
C828 C 0.1776 0.61537 0.65671 0.0
C829 C 0.20242 0.64114 0.62683 0.0
C830 C 0.14424 0.62185 0.6757 0.0
C831 C 0.14577 0.59465 0.71189 0.0
N832 N 0.18413 0.63476 0.6426 0.0
N833 N 0.15997 0.59772 0.69337 0.0
H834 H 0.57935 0.18277 0.90726 0.0
H835 H 0.62845 0.2228 0.80344 0.0
H836 H 0.50819 0.13109 0.87163 0.0
H837 H 0.55431 0.21362 0.78716 0.0
H838 H 0.61033 0.19636 0.83584 0.0
H839 H 0.59657 0.20337 0.87191 0.0
C840 C 0.56742 0.17546 0.89195 0.0
C841 C 0.54244 0.15473 0.89239 0.0
C842 C 0.59803 0.2001 0.82513 0.0
C843 C 0.56213 0.17854 0.85176 0.0
C844 C 0.60827 0.21498 0.80645 0.0
C845 C 0.59296 0.22078 0.79274 0.0
C846 C 0.57234 0.19106 0.83026 0.0
C847 C 0.56684 0.20984 0.79748 0.0
C848 C 0.57732 0.18726 0.87176 0.0
C849 C 0.52756 0.14696 0.87209 0.0
N850 N 0.55732 0.19561 0.81605 0.0
N851 N 0.53763 0.15898 0.85252 0.0
H852 H 0.41156 0.59364 0.03215 0.0
H853 H 0.35179 0.55454 0.90575 0.0
H854 H 0.36007 0.51709 0.00851 0.0
H855 H 0.39382 0.63166 0.9313 0.0
H856 H 0.35703 0.54079 0.94274 0.0
H857 H 0.40782 0.60815 0.99476 0.0
C858 C 0.39961 0.57988 0.01905 0.0
C859 C 0.38608 0.5541 0.02346 0.0
C860 C 0.36512 0.56073 0.9403 0.0
C861 C 0.38159 0.57058 0.98072 0.0
C862 C 0.36217 0.56865 0.91911 0.0
C863 C 0.37235 0.59435 0.91533 0.0
C864 C 0.37844 0.57859 0.95794 0.0
C865 C 0.38559 0.61166 0.93341 0.0
C866 C 0.39735 0.58819 -0.00224 0.0
C867 C 0.37061 0.53714 0.00595 0.0
N868 N 0.38828 0.60346 0.95393 0.0
N869 N 0.36883 0.54567 0.98537 0.0
H870 H 0.86987 0.38792 0.19603 0.0
H871 H 0.77533 0.41775 0.12432 0.0
H872 H 0.84956 0.44263 0.2183 0.0
H873 H 0.80372 0.37001 0.09982 0.0
H874 H 0.80072 0.42592 0.15956 0.0
H875 H 0.84422 0.38007 0.16124 0.0
C876 C 0.85998 0.39827 0.1936 0.0
C877 C 0.86186 0.41594 0.21013 0.0
C878 C 0.80134 0.41365 0.14644 0.0
C879 C 0.83241 0.40709 0.17022 0.0
C880 C 0.78678 0.4089 0.12635 0.0
C881 C 0.78737 0.39319 0.10899 0.0
C882 C 0.8165 0.40251 0.14926 0.0
C883 C 0.80266 0.38232 0.11261 0.0
C884 C 0.8454 0.39386 0.17368 0.0
C885 C 0.84887 0.42904 0.20591 0.0
N886 N 0.81654 0.38717 0.13228 0.0
N887 N 0.83461 0.42428 0.18642 0.0
loop_
_geom_bond_atom_site_label_1
_geom_bond_atom_site_label_2
_geom_bond_distance
_geom_bond_site_symmetry_2
_ccdc_geom_bond_type
H0 C27 0.929 . S
N1 C26 1.433 . S
N1 C32 1.435 . S
N1 C38 1.423 . S
H2 C28 0.930 . S
H3 C31 0.931 . S
H4 C30 0.929 . S
H5 C33 0.930 . S
H6 C34 0.932 . S
H7 C37 0.929 . S
H8 C36 0.931 . S
H9 C39 0.929 . S
H10 C43 0.932 . S
H11 C40 0.931 . S
H12 C42 0.929 . S
H13 C45 0.929 . S
H14 C46 0.930 . S
H15 C48 0.929 . S
H16 C49 0.931 . S
H17 C51 0.930 . S
H18 C52 0.932 . S
H19 C54 0.931 . S
H20 C55 0.929 . S
H21 C57 0.929 . S
H22 C58 0.931 . S
H23 C60 0.929 . S
N24 C44 1.433 . S
N24 C50 1.435 . S
N24 C56 1.423 . S
H25 C61 0.932 . S
C26 N1 1.433 . S
C26 C27 1.363 . S
C26 C31 1.370 . S
C27 H0 0.929 . S
C27 C26 1.363 . S
C27 C28 1.385 . S
C28 H2 0.930 . S
C28 C27 1.385 . S
C28 C29 1.357 . S
C29 C28 1.357 . S
C29 C30 1.406 . S
C30 H4 0.929 . S
C30 C29 1.406 . S
C30 C31 1.391 . S
C31 H3 0.931 . S
C31 C26 1.370 . S
C31 C30 1.391 . S
C32 N1 1.435 . S
C32 C33 1.358 . S
C32 C37 1.371 . S
C33 H5 0.930 . S
C33 C32 1.358 . S
C33 C34 1.405 . S
C34 H6 0.932 . S
C34 C33 1.405 . S
C34 C35 1.383 . S
C35 C34 1.383 . S
C35 C36 1.393 . S
C36 H8 0.931 . S
C36 C35 1.393 . S
C36 C37 1.382 . S
C37 H7 0.929 . S
C37 C32 1.371 . S
C37 C36 1.382 . S
C38 N1 1.423 . S
C38 C39 1.362 . S
C38 C43 1.388 . S
C39 H9 0.929 . S
C39 C38 1.362 . S
C39 C40 1.376 . S
C40 H11 0.931 . S
C40 C39 1.376 . S
C40 C41 1.396 . S
C41 C40 1.396 . S
C41 C42 1.348 . S
C41 C59 1.472 1_455 S
C42 H12 0.929 . S
C42 C41 1.348 . S
C42 C43 1.443 . S
C43 H10 0.932 . S
C43 C38 1.388 . S
C43 C42 1.443 . S
C44 N24 1.433 . S
C44 C45 1.363 . S
C44 C49 1.370 . S
C45 H13 0.929 . S
C45 C44 1.363 . S
C45 C46 1.385 . S
C46 H14 0.930 . S
C46 C45 1.385 . S
C46 C47 1.357 . S
C47 C46 1.357 . S
C47 C48 1.406 . S
C48 H15 0.929 . S
C48 C47 1.406 . S
C48 C49 1.391 . S
C49 H16 0.931 . S
C49 C44 1.370 . S
C49 C48 1.391 . S
C50 N24 1.435 . S
C50 C51 1.358 . S
C50 C55 1.371 . S
C51 H17 0.930 . S
C51 C50 1.358 . S
C51 C52 1.405 . S
C52 H18 0.932 . S
C52 C51 1.405 . S
C52 C53 1.383 . S
C53 C52 1.383 . S
C53 C54 1.393 . S
C54 H19 0.931 . S
C54 C53 1.393 . S
C54 C55 1.382 . S
C55 H20 0.929 . S
C55 C50 1.371 . S
C55 C54 1.382 . S
C56 N24 1.423 . S
C56 C57 1.362 . S
C56 C61 1.388 . S
C57 H21 0.929 . S
C57 C56 1.362 . S
C57 C58 1.376 . S
C58 H22 0.931 . S
C58 C57 1.376 . S
C58 C59 1.396 . S
C59 C41 1.472 1_655 S
C59 C58 1.396 . S
C59 C60 1.348 . S
C60 H23 0.929 . S
C60 C59 1.348 . S
C60 C61 1.443 . S
C61 H25 0.932 . S
C61 C56 1.388 . S
C61 C60 1.443 . S
H62 C89 0.929 . S
N63 C88 1.433 . S
N63 C94 1.435 . S
N63 C100 1.423 . S
H64 C90 0.930 . S
H65 C93 0.931 . S
H66 C92 0.929 . S
H67 C95 0.930 . S
H68 C96 0.932 . S
H69 C99 0.929 . S
H70 C98 0.931 . S
H71 C101 0.929 . S
H72 C105 0.932 . S
H73 C102 0.931 . S
H74 C104 0.929 1_545 S
H75 C107 0.929 . S
H76 C108 0.930 . S
H77 C110 0.929 . S
H78 C111 0.931 . S
H79 C113 0.930 . S
H80 C114 0.932 . S
H81 C116 0.931 . S
H82 C117 0.929 . S
H83 C119 0.929 . S
H84 C120 0.931 . S
H85 C122 0.929 . S
N86 C106 1.433 . S
N86 C112 1.435 . S
N86 C118 1.423 . S
H87 C123 0.932 . S
C88 N63 1.433 . S
C88 C89 1.363 . S
C88 C93 1.370 . S
C89 H62 0.929 . S
C89 C88 1.363 . S
C89 C90 1.385 . S
C90 H64 0.930 . S
C90 C89 1.385 . S
C90 C91 1.357 . S
C91 C90 1.357 . S
C91 C92 1.406 . S
C92 H66 0.929 . S
C92 C91 1.406 . S
C92 C93 1.391 . S
C93 H65 0.931 . S
C93 C88 1.370 . S
C93 C92 1.391 . S
C94 N63 1.435 . S
C94 C95 1.358 . S
C94 C99 1.371 . S
C95 H67 0.930 . S
C95 C94 1.358 . S
C95 C96 1.405 . S
C96 H68 0.932 . S
C96 C95 1.405 . S
C96 C97 1.383 . S
C97 C96 1.383 . S
C97 C98 1.393 . S
C98 H70 0.931 . S
C98 C97 1.393 . S
C98 C99 1.382 . S
C99 H69 0.929 . S
C99 C94 1.371 . S
C99 C98 1.382 . S
C100 N63 1.423 . S
C100 C101 1.362 . S
C100 C105 1.388 . S
C101 H71 0.929 . S
C101 C100 1.362 . S
C101 C102 1.376 . S
C102 H73 0.931 . S
C102 C101 1.376 . S
C102 C103 1.396 1_565 S
C103 C102 1.396 1_545 S
C103 C104 1.348 1_545 S
C103 C121 1.472 . S
C104 H74 0.929 1_565 S
C104 C103 1.348 1_565 S
C104 C105 1.443 . S
C105 H72 0.932 . S
C105 C100 1.388 . S
C105 C104 1.443 . S
C106 N86 1.433 . S
C106 C107 1.363 . S
C106 C111 1.370 . S
C107 H75 0.929 . S
C107 C106 1.363 . S
C107 C108 1.385 . S
C108 H76 0.930 . S
C108 C107 1.385 . S
C108 C109 1.357 . S
C109 C108 1.357 . S
C109 C110 1.406 . S
C110 H77 0.929 . S
C110 C109 1.406 . S
C110 C111 1.391 . S
C111 H78 0.931 . S
C111 C106 1.370 . S
C111 C110 1.391 . S
C112 N86 1.435 . S
C112 C113 1.358 . S
C112 C117 1.371 . S
C113 H79 0.930 . S
C113 C112 1.358 . S
C113 C114 1.405 . S
C114 H80 0.932 . S
C114 C113 1.405 . S
C114 C115 1.383 . S
C115 C114 1.383 . S
C115 C116 1.393 . S
C116 H81 0.931 . S
C116 C115 1.393 . S
C116 C117 1.382 . S
C117 H82 0.929 . S
C117 C112 1.371 . S
C117 C116 1.382 . S
C118 N86 1.423 . S
C118 C119 1.362 . S
C118 C123 1.388 . S
C119 H83 0.929 . S
C119 C118 1.362 . S
C119 C120 1.376 . S
C120 H84 0.931 . S
C120 C119 1.376 . S
C120 C121 1.396 . S
C121 C103 1.472 . S
C121 C120 1.396 . S
C121 C122 1.348 . S
C122 H85 0.929 . S
C122 C121 1.348 . S
C122 C123 1.443 . S
C123 H87 0.932 . S
C123 C118 1.388 . S
C123 C122 1.443 . S
H124 C151 0.929 . S
N125 C150 1.433 . S
N125 C156 1.435 . S
N125 C162 1.423 . S
H126 C152 0.930 . S
H127 C155 0.931 . S
H128 C154 0.929 . S
H129 C157 0.930 . S
H130 C158 0.932 . S
H131 C161 0.929 . S
H132 C160 0.931 . S
H133 C163 0.929 . S
H134 C167 0.932 . S
H135 C164 0.931 . S
H136 C166 0.929 . S
H137 C169 0.929 . S
H138 C170 0.930 . S
H139 C172 0.929 . S
H140 C173 0.931 . S
H141 C175 0.930 . S
H142 C176 0.932 . S
H143 C178 0.931 . S
H144 C179 0.929 . S
H145 C181 0.929 . S
H146 C182 0.931 . S
H147 C184 0.929 . S
N148 C168 1.433 . S
N148 C174 1.435 . S
N148 C180 1.423 . S
H149 C185 0.932 . S
C150 N125 1.433 . S
C150 C151 1.363 . S
C150 C155 1.370 . S
C151 H124 0.929 . S
C151 C150 1.363 . S
C151 C152 1.385 . S
C152 H126 0.930 . S
C152 C151 1.385 . S
C152 C153 1.357 . S
C153 C152 1.357 . S
C153 C154 1.406 . S
C154 H128 0.929 . S
C154 C153 1.406 . S
C154 C155 1.391 . S
C155 H127 0.931 . S
C155 C150 1.370 . S
C155 C154 1.391 . S
C156 N125 1.435 . S
C156 C157 1.358 . S
C156 C161 1.371 . S
C157 H129 0.930 . S
C157 C156 1.358 . S
C157 C158 1.405 . S
C158 H130 0.932 . S
C158 C157 1.405 . S
C158 C159 1.383 . S
C159 C158 1.383 . S
C159 C160 1.393 . S
C160 H132 0.931 . S
C160 C159 1.393 . S
C160 C161 1.382 . S
C161 H131 0.929 . S
C161 C156 1.371 . S
C161 C160 1.382 . S
C162 N125 1.423 . S
C162 C163 1.362 . S
C162 C167 1.388 . S
C163 H133 0.929 . S
C163 C162 1.362 . S
C163 C164 1.376 . S
C164 H135 0.931 . S
C164 C163 1.376 . S
C164 C165 1.396 . S
C165 C164 1.396 . S
C165 C166 1.348 . S
C165 C183 1.472 . S
C166 H136 0.929 . S
C166 C165 1.348 . S
C166 C167 1.443 . S
C167 H134 0.932 . S
C167 C162 1.388 . S
C167 C166 1.443 . S
C168 N148 1.433 . S
C168 C169 1.363 . S
C168 C173 1.370 . S
C169 H137 0.929 . S
C169 C168 1.363 . S
C169 C170 1.385 . S
C170 H138 0.930 . S
C170 C169 1.385 . S
C170 C171 1.357 . S
C171 C170 1.357 . S
C171 C172 1.406 . S
C172 H139 0.929 . S
C172 C171 1.406 . S
C172 C173 1.391 . S
C173 H140 0.931 . S
C173 C168 1.370 . S
C173 C172 1.391 . S
C174 N148 1.435 . S
C174 C175 1.358 . S
C174 C179 1.371 . S
C175 H141 0.930 . S
C175 C174 1.358 . S
C175 C176 1.405 . S
C176 H142 0.932 . S
C176 C175 1.405 . S
C176 C177 1.383 . S
C177 C176 1.383 . S
C177 C178 1.393 . S
C178 H143 0.931 . S
C178 C177 1.393 . S
C178 C179 1.382 . S
C179 H144 0.929 . S
C179 C174 1.371 . S
C179 C178 1.382 . S
C180 N148 1.423 . S
C180 C181 1.362 . S
C180 C185 1.388 . S
C181 H145 0.929 . S
C181 C180 1.362 . S
C181 C182 1.376 . S
C182 H146 0.931 . S
C182 C181 1.376 . S
C182 C183 1.396 . S
C183 C165 1.472 . S
C183 C182 1.396 . S
C183 C184 1.348 . S
C184 H147 0.929 . S
C184 C183 1.348 . S
C184 C185 1.443 . S
C185 H149 0.932 . S
C185 C180 1.388 . S
C185 C184 1.443 . S
H186 C213 0.929 . S
N187 C212 1.433 . S
N187 C218 1.435 . S
N187 C224 1.423 . S
H188 C214 0.930 . S
H189 C217 0.931 . S
H190 C216 0.929 . S
H191 C219 0.930 . S
H192 C220 0.932 . S
H193 C223 0.929 . S
H194 C222 0.931 . S
H195 C225 0.929 . S
H196 C229 0.932 . S
H197 C226 0.931 . S
H198 C228 0.929 . S
H199 C231 0.929 . S
H200 C232 0.930 . S
H201 C234 0.929 . S
H202 C235 0.931 . S
H203 C237 0.930 . S
H204 C238 0.932 . S
H205 C240 0.931 . S
H206 C241 0.929 . S
H207 C243 0.929 . S
H208 C244 0.931 . S
H209 C246 0.929 . S
N210 C230 1.433 . S
N210 C236 1.435 . S
N210 C242 1.423 . S
H211 C247 0.932 . S
C212 N187 1.433 . S
C212 C213 1.363 . S
C212 C217 1.370 . S
C213 H186 0.929 . S
C213 C212 1.363 . S
C213 C214 1.385 . S
C214 H188 0.930 . S
C214 C213 1.385 . S
C214 C215 1.357 . S
C215 C214 1.357 . S
C215 C216 1.406 . S
C216 H190 0.929 . S
C216 C215 1.406 . S
C216 C217 1.391 . S
C217 H189 0.931 . S
C217 C212 1.370 . S
C217 C216 1.391 . S
C218 N187 1.435 . S
C218 C219 1.358 . S
C218 C223 1.371 . S
C219 H191 0.930 . S
C219 C218 1.358 . S
C219 C220 1.405 . S
C220 H192 0.932 . S
C220 C219 1.405 . S
C220 C221 1.383 . S
C221 C220 1.383 . S
C221 C222 1.393 . S
C222 H194 0.931 . S
C222 C221 1.393 . S
C222 C223 1.382 . S
C223 H193 0.929 . S
C223 C218 1.371 . S
C223 C222 1.382 . S
C224 N187 1.423 . S
C224 C225 1.362 . S
C224 C229 1.388 . S
C225 H195 0.929 . S
C225 C224 1.362 . S
C225 C226 1.376 . S
C226 H197 0.931 . S
C226 C225 1.376 . S
C226 C227 1.396 . S
C227 C226 1.396 . S
C227 C228 1.348 . S
C227 C245 1.472 1_455 S
C228 H198 0.929 . S
C228 C227 1.348 . S
C228 C229 1.443 . S
C229 H196 0.932 . S
C229 C224 1.388 . S
C229 C228 1.443 . S
C230 N210 1.433 . S
C230 C231 1.363 . S
C230 C235 1.370 . S
C231 H199 0.929 . S
C231 C230 1.363 . S
C231 C232 1.385 . S
C232 H200 0.930 . S
C232 C231 1.385 . S
C232 C233 1.357 . S
C233 C232 1.357 . S
C233 C234 1.406 . S
C234 H201 0.929 . S
C234 C233 1.406 . S
C234 C235 1.391 . S
C235 H202 0.931 . S
C235 C230 1.370 . S
C235 C234 1.391 . S
C236 N210 1.435 . S
C236 C237 1.358 . S
C236 C241 1.371 . S
C237 H203 0.930 . S
C237 C236 1.358 . S
C237 C238 1.405 . S
C238 H204 0.932 . S
C238 C237 1.405 . S
C238 C239 1.383 . S
C239 C238 1.383 . S
C239 C240 1.393 . S
C240 H205 0.931 . S
C240 C239 1.393 . S
C240 C241 1.382 . S
C241 H206 0.929 . S
C241 C236 1.371 . S
C241 C240 1.382 . S
C242 N210 1.423 . S
C242 C243 1.362 . S
C242 C247 1.388 . S
C243 H207 0.929 . S
C243 C242 1.362 . S
C243 C244 1.376 . S
C244 H208 0.931 . S
C244 C243 1.376 . S
C244 C245 1.396 . S
C245 C227 1.472 1_655 S
C245 C244 1.396 . S
C245 C246 1.348 . S
C246 H209 0.929 . S
C246 C245 1.348 . S
C246 C247 1.443 . S
C247 H211 0.932 . S
C247 C242 1.388 . S
C247 C246 1.443 . S
H248 C275 0.929 . S
N249 C274 1.433 . S
N249 C280 1.435 . S
N249 C286 1.423 . S
H250 C276 0.930 . S
H251 C279 0.931 . S
H252 C278 0.929 . S
H253 C281 0.930 . S
H254 C282 0.932 . S
H255 C285 0.929 . S
H256 C284 0.931 . S
H257 C287 0.929 . S
H258 C291 0.932 . S
H259 C288 0.931 . S
H260 C290 0.929 . S
H261 C293 0.929 . S
H262 C294 0.930 . S
H263 C296 0.929 . S
H264 C297 0.931 . S
H265 C299 0.930 1_554 S
H266 C300 0.932 . S
H267 C302 0.931 . S
H268 C303 0.929 . S
H269 C305 0.929 . S
H270 C306 0.931 1_544 S
H271 C308 0.929 . S
N272 C292 1.433 . S
N272 C298 1.435 1_554 S
N272 C304 1.423 1_554 S
H273 C309 0.932 . S
C274 N249 1.433 . S
C274 C275 1.363 . S
C274 C279 1.370 . S
C275 H248 0.929 . S
C275 C274 1.363 . S
C275 C276 1.385 . S
C276 H250 0.930 . S
C276 C275 1.385 . S
C276 C277 1.357 1_556 S
C277 C276 1.357 1_554 S
C277 C278 1.406 . S
C278 H252 0.929 . S
C278 C277 1.406 . S
C278 C279 1.391 1_554 S
C279 H251 0.931 . S
C279 C274 1.370 . S
C279 C278 1.391 1_556 S
C280 N249 1.435 . S
C280 C281 1.358 . S
C280 C285 1.371 . S
C281 H253 0.930 . S
C281 C280 1.358 . S
C281 C282 1.405 . S
C282 H254 0.932 . S
C282 C281 1.405 . S
C282 C283 1.383 . S
C283 C282 1.383 . S
C283 C284 1.393 . S
C284 H256 0.931 . S
C284 C283 1.393 . S
C284 C285 1.382 . S
C285 H255 0.929 . S
C285 C280 1.371 . S
C285 C284 1.382 . S
C286 N249 1.423 . S
C286 C287 1.362 . S
C286 C291 1.388 . S
C287 H257 0.929 . S
C287 C286 1.362 . S
C287 C288 1.376 . S
C288 H259 0.931 . S
C288 C287 1.376 . S
C288 C289 1.396 . S
C289 C288 1.396 . S
C289 C290 1.348 . S
C289 C307 1.518 . S
C290 H260 0.929 . S
C290 C289 1.348 . S
C290 C291 1.443 . S
C291 H258 0.932 . S
C291 C286 1.388 . S
C291 C290 1.443 . S
C292 N272 1.433 . S
C292 C293 1.363 . S
C292 C297 1.370 . S
C293 H261 0.929 . S
C293 C292 1.363 . S
C293 C294 1.385 . S
C294 H262 0.930 . S
C294 C293 1.385 . S
C294 C295 1.357 . S
C295 C294 1.357 . S
C295 C296 1.406 . S
C296 H263 0.929 . S
C296 C295 1.406 . S
C296 C297 1.391 . S
C297 H264 0.931 . S
C297 C292 1.370 . S
C297 C296 1.391 . S
C298 N272 1.435 1_556 S
C298 C299 1.358 . S
C298 C303 1.371 . S
C299 H265 0.930 1_556 S
C299 C298 1.358 . S
C299 C300 1.405 . S
C300 H266 0.932 . S
C300 C299 1.405 . S
C300 C301 1.383 . S
C301 C300 1.383 . S
C301 C302 1.393 . S
C302 H267 0.931 . S
C302 C301 1.393 . S
C302 C303 1.382 . S
C303 H268 0.929 . S
C303 C298 1.371 . S
C303 C302 1.382 . S
C304 N272 1.423 1_556 S
C304 C305 1.362 1_556 S
C304 C309 1.388 . S
C305 H269 0.929 . S
C305 C304 1.362 1_554 S
C305 C306 1.376 1_554 S
C306 H270 0.931 1_566 S
C306 C305 1.376 1_556 S
C306 C307 1.397 1_565 S
C307 C289 1.518 . S
C307 C306 1.397 1_545 S
C307 C308 1.300 1_545 S
C308 H271 0.929 . S
C308 C307 1.300 1_565 S
C308 C309 1.443 . S
C309 H273 0.932 . S
C309 C304 1.388 . S
C309 C308 1.443 . S
H310 C337 0.929 . S
N311 C336 1.433 . S
N311 C342 1.435 . S
N311 C348 1.423 . S
H312 C338 0.930 . S
H313 C341 0.931 . S
H314 C340 0.929 . S
H315 C343 0.930 . S
H316 C344 0.932 . S
H317 C347 0.929 . S
H318 C346 0.931 . S
H319 C349 0.929 . S
H320 C353 0.932 . S
H321 C350 0.931 . S
H322 C352 0.929 . S
H323 C355 0.929 . S
H324 C356 0.930 . S
H325 C358 0.929 . S
H326 C359 0.931 . S
H327 C361 0.930 . S
H328 C362 0.932 . S
H329 C364 0.931 . S
H330 C365 0.929 . S
H331 C367 0.929 . S
H332 C368 0.931 . S
H333 C370 0.929 . S
N334 C354 1.433 . S
N334 C360 1.435 . S
N334 C366 1.423 . S
H335 C371 0.932 . S
C336 N311 1.433 . S
C336 C337 1.363 . S
C336 C341 1.370 . S
C337 H310 0.929 . S
C337 C336 1.363 . S
C337 C338 1.385 . S
C338 H312 0.930 . S
C338 C337 1.385 . S
C338 C339 1.357 . S
C339 C338 1.357 . S
C339 C340 1.406 . S
C340 H314 0.929 . S
C340 C339 1.406 . S
C340 C341 1.391 . S
C341 H313 0.931 . S
C341 C336 1.370 . S
C341 C340 1.391 . S
C342 N311 1.435 . S
C342 C343 1.358 . S
C342 C347 1.371 . S
C343 H315 0.930 . S
C343 C342 1.358 . S
C343 C344 1.405 . S
C344 H316 0.932 . S
C344 C343 1.405 . S
C344 C345 1.383 . S
C345 C344 1.383 . S
C345 C346 1.393 . S
C346 H318 0.931 . S
C346 C345 1.393 . S
C346 C347 1.382 . S
C347 H317 0.929 . S
C347 C342 1.371 . S
C347 C346 1.382 . S
C348 N311 1.423 . S
C348 C349 1.362 . S
C348 C353 1.388 . S
C349 H319 0.929 . S
C349 C348 1.362 . S
C349 C350 1.376 . S
C350 H321 0.931 . S
C350 C349 1.376 . S
C350 C351 1.396 . S
C351 C350 1.396 . S
C351 C352 1.348 . S
C351 C369 1.472 . S
C352 H322 0.929 . S
C352 C351 1.348 . S
C352 C353 1.443 . S
C353 H320 0.932 . S
C353 C348 1.388 . S
C353 C352 1.443 . S
C354 N334 1.433 . S
C354 C355 1.363 . S
C354 C359 1.370 . S
C355 H323 0.929 . S
C355 C354 1.363 . S
C355 C356 1.385 . S
C356 H324 0.930 . S
C356 C355 1.385 . S
C356 C357 1.357 . S
C357 C356 1.357 . S
C357 C358 1.406 . S
C358 H325 0.929 . S
C358 C357 1.406 . S
C358 C359 1.391 . S
C359 H326 0.931 . S
C359 C354 1.370 . S
C359 C358 1.391 . S
C360 N334 1.435 . S
C360 C361 1.358 . S
C360 C365 1.371 . S
C361 H327 0.930 . S
C361 C360 1.358 . S
C361 C362 1.405 . S
C362 H328 0.932 . S
C362 C361 1.405 . S
C362 C363 1.383 . S
C363 C362 1.383 . S
C363 C364 1.393 . S
C364 H329 0.931 . S
C364 C363 1.393 . S
C364 C365 1.382 . S
C365 H330 0.929 . S
C365 C360 1.371 . S
C365 C364 1.382 . S
C366 N334 1.423 . S
C366 C367 1.362 . S
C366 C371 1.388 . S
C367 H331 0.929 . S
C367 C366 1.362 . S
C367 C368 1.376 . S
C368 H332 0.931 . S
C368 C367 1.376 . S
C368 C369 1.396 . S
C369 C351 1.472 . S
C369 C368 1.396 . S
C369 C370 1.348 . S
C370 H333 0.929 . S
C370 C369 1.348 . S
C370 C371 1.443 . S
C371 H335 0.932 . S
C371 C366 1.388 . S
C371 C370 1.443 . S
Mg372 O373 2.028 . S
Mg372 O379 1.986 . S
Mg372 O381 2.114 . S
Mg372 O382 2.251 . S
Mg372 O385 2.010 . S
O373 Mg372 2.028 . S
O373 C376 1.250 . S
O374 Mg375 2.028 . S
O374 C376 1.248 . S
Mg375 O374 2.028 . S
Mg375 O380 2.032 . S
Mg375 O382 2.079 . S
C376 O373 1.250 . S
C376 O374 1.248 . S
C377 O378 1.264 . S
C377 O385 1.249 . S
O378 C377 1.264 . S
O379 Mg372 1.986 . S
O379 C383 1.246 . S
O380 Mg375 2.032 . S
O380 C383 1.259 . S
O381 Mg372 2.114 . S
O381 C384 1.252 . S
O382 Mg372 2.251 . S
O382 Mg375 2.079 . S
O382 C384 1.273 . S
C383 O379 1.246 . S
C383 O380 1.259 . S
C384 O381 1.252 . S
C384 O382 1.273 . S
O385 Mg372 2.010 . S
O385 C377 1.249 . S
Mg386 O387 2.028 . S
Mg386 O393 1.986 . S
Mg386 O395 2.114 . S
Mg386 O396 2.251 . S
Mg386 O399 2.010 . S
O387 Mg386 2.028 . S
O387 C390 1.250 . S
O388 Mg389 2.028 . S
O388 C390 1.248 . S
Mg389 O388 2.028 . S
Mg389 O394 2.032 . S
Mg389 O396 2.079 . S
C390 O387 1.250 . S
C390 O388 1.248 . S
C391 O392 1.264 . S
C391 O399 1.249 . S
O392 C391 1.264 . S
O393 Mg386 1.986 . S
O393 C397 1.246 . S
O394 Mg389 2.032 . S
O394 C397 1.259 . S
O395 Mg386 2.114 . S
O395 C398 1.252 . S
O396 Mg386 2.251 . S
O396 Mg389 2.079 . S
O396 C398 1.273 . S
C397 O393 1.246 . S
C397 O394 1.259 . S
C398 O395 1.252 . S
C398 O396 1.273 . S
O399 Mg386 2.010 . S
O399 C391 1.249 . S
Mg400 O401 2.028 . S
Mg400 O407 1.986 . S
Mg400 O409 2.114 . S
Mg400 O410 2.251 . S
Mg400 O413 2.010 . S
O401 Mg400 2.028 . S
O401 C404 1.250 . S
O402 Mg403 2.028 . S
O402 C404 1.248 . S
Mg403 O402 2.028 . S
Mg403 O408 2.032 . S
Mg403 O410 2.079 . S
C404 O401 1.250 . S
C404 O402 1.248 . S
C405 O406 1.264 . S
C405 O413 1.249 . S
O406 C405 1.264 . S
O407 Mg400 1.986 . S
O407 C411 1.246 . S
O408 Mg403 2.032 . S
O408 C411 1.259 . S
O409 Mg400 2.114 . S
O409 C412 1.252 . S
O410 Mg400 2.251 . S
O410 Mg403 2.079 . S
O410 C412 1.273 . S
C411 O407 1.246 . S
C411 O408 1.259 . S
C412 O409 1.252 . S
C412 O410 1.273 . S
O413 Mg400 2.010 . S
O413 C405 1.249 . S
Mg414 O415 2.028 . S
Mg414 O421 1.986 . S
Mg414 O423 2.114 . S
Mg414 O424 2.251 . S
Mg414 O427 2.010 . S
O415 Mg414 2.028 . S
O415 C418 1.250 . S
O416 Mg417 2.028 . S
O416 C418 1.248 . S
Mg417 O416 2.028 . S
Mg417 O422 2.032 . S
Mg417 O424 2.079 . S
C418 O415 1.250 . S
C418 O416 1.248 . S
C419 O420 1.264 . S
C419 O427 1.249 . S
O420 C419 1.264 . S
O421 Mg414 1.986 . S
O421 C425 1.246 . S
O422 Mg417 2.032 . S
O422 C425 1.259 . S
O423 Mg414 2.114 . S
O423 C426 1.252 . S
O424 Mg414 2.251 . S
O424 Mg417 2.079 . S
O424 C426 1.273 . S
C425 O421 1.246 . S
C425 O422 1.259 . S
C426 O423 1.252 . S
C426 O424 1.273 . S
O427 Mg414 2.010 . S
O427 C419 1.249 . S
Mg428 O429 2.028 . S
Mg428 O435 1.986 . S
Mg428 O437 2.114 . S
Mg428 O438 2.251 . S
Mg428 O441 2.010 . S
O429 Mg428 2.028 . S
O429 C432 1.250 . S
O430 Mg431 2.028 . S
O430 C432 1.248 . S
Mg431 O430 2.028 . S
Mg431 O436 2.032 . S
Mg431 O438 2.079 . S
C432 O429 1.250 . S
C432 O430 1.248 . S
C433 O434 1.264 . S
C433 O441 1.249 . S
O434 C433 1.264 . S
O435 Mg428 1.986 . S
O435 C439 1.246 . S
O436 Mg431 2.032 . S
O436 C439 1.259 . S
O437 Mg428 2.114 . S
O437 C440 1.252 . S
O438 Mg428 2.251 . S
O438 Mg431 2.079 . S
O438 C440 1.273 . S
C439 O435 1.246 . S
C439 O436 1.259 . S
C440 O437 1.252 . S
C440 O438 1.273 . S
O441 Mg428 2.010 . S
O441 C433 1.249 . S
Mg442 O443 2.028 . S
Mg442 O449 1.986 . S
Mg442 O451 2.114 . S
Mg442 O452 2.251 . S
Mg442 O455 2.010 . S
O443 Mg442 2.028 . S
O443 C446 1.250 . S
O444 Mg445 2.028 . S
O444 C446 1.248 . S
Mg445 O444 2.028 . S
Mg445 O450 2.032 . S
Mg445 O452 2.079 . S
C446 O443 1.250 . S
C446 O444 1.248 . S
C447 O448 1.264 . S
C447 O455 1.249 . S
O448 C447 1.264 . S
O449 Mg442 1.986 . S
O449 C453 1.246 . S
O450 Mg445 2.032 . S
O450 C453 1.259 . S
O451 Mg442 2.114 . S
O451 C454 1.252 . S
O452 Mg442 2.251 . S
O452 Mg445 2.079 . S
O452 C454 1.273 . S
C453 O449 1.246 . S
C453 O450 1.259 . S
C454 O451 1.252 . S
C454 O452 1.273 . S
O455 Mg442 2.010 . S
O455 C447 1.249 . S
H456 C462 0.930 . S
H457 C466 0.930 . S
H458 C471 0.929 . S
H459 C469 0.929 . S
H460 C464 0.929 . S
H461 C470 0.929 . S
C462 H456 0.930 . S
C462 C463 1.367 . S
C462 C470 1.378 . S
C463 C462 1.367 . S
C463 C471 1.433 . S
C464 H460 0.929 . S
C464 C466 1.378 . S
C464 C468 1.350 . S
C465 C468 1.463 . S
C465 C470 1.350 . S
C465 N473 1.427 . S
C466 H457 0.930 . S
C466 C464 1.378 . S
C466 C467 1.367 . S
C467 C466 1.367 . S
C467 C469 1.433 . S
C468 C464 1.350 . S
C468 C465 1.463 . S
C468 N472 1.427 . S
C469 H459 0.929 . S
C469 C467 1.433 . S
C469 N472 1.384 . S
C470 H461 0.929 . S
C470 C462 1.378 . S
C470 C465 1.350 . S
C471 H458 0.929 . S
C471 C463 1.433 . S
C471 N473 1.384 . S
N472 C468 1.427 . S
N472 C469 1.384 . S
N473 C465 1.427 . S
N473 C471 1.384 . S
H474 C480 0.930 . S
H475 C484 0.930 . S
H476 C489 0.929 . S
H477 C487 0.929 . S
H478 C482 0.929 . S
H479 C488 0.929 . S
C480 H474 0.930 . S
C480 C481 1.367 . S
C480 C488 1.378 . S
C481 C480 1.367 . S
C481 C489 1.433 . S
C482 H478 0.929 . S
C482 C484 1.378 . S
C482 C486 1.350 . S
C483 C486 1.463 . S
C483 C488 1.350 . S
C483 N491 1.427 . S
C484 H475 0.930 . S
C484 C482 1.378 . S
C484 C485 1.367 . S
C485 C484 1.367 . S
C485 C487 1.433 . S
C486 C482 1.350 . S
C486 C483 1.463 . S
C486 N490 1.427 . S
C487 H477 0.929 . S
C487 C485 1.433 . S
C487 N490 1.384 . S
C488 H479 0.929 . S
C488 C480 1.378 . S
C488 C483 1.350 . S
C489 H476 0.929 . S
C489 C481 1.433 . S
C489 N491 1.384 . S
N490 C486 1.427 . S
N490 C487 1.384 . S
N491 C483 1.427 . S
N491 C489 1.384 . S
H492 C498 0.930 . S
H493 C502 0.930 . S
H494 C507 0.929 . S
H495 C505 0.929 . S
H496 C500 0.929 . S
H497 C506 0.929 . S
C498 H492 0.930 . S
C498 C499 1.367 . S
C498 C506 1.378 . S
C499 C498 1.367 . S
C499 C507 1.433 . S
C500 H496 0.929 . S
C500 C502 1.378 . S
C500 C504 1.350 . S
C501 C504 1.463 . S
C501 C506 1.350 . S
C501 N509 1.427 . S
C502 H493 0.930 . S
C502 C500 1.378 . S
C502 C503 1.367 . S
C503 C502 1.367 . S
C503 C505 1.433 . S
C504 C500 1.350 . S
C504 C501 1.463 . S
C504 N508 1.427 . S
C505 H495 0.929 . S
C505 C503 1.433 . S
C505 N508 1.384 . S
C506 H497 0.929 . S
C506 C498 1.378 . S
C506 C501 1.350 . S
C507 H494 0.929 . S
C507 C499 1.433 . S
C507 N509 1.384 . S
N508 C504 1.427 . S
N508 C505 1.384 . S
N509 C501 1.427 . S
N509 C507 1.384 . S
H510 C516 0.930 . S
H511 C520 0.930 . S
H512 C525 0.929 . S
H513 C523 0.929 . S
H514 C518 0.929 . S
H515 C524 0.929 . S
C516 H510 0.930 . S
C516 C517 1.367 . S
C516 C524 1.378 . S
C517 C516 1.367 . S
C517 C525 1.433 . S
C518 H514 0.929 . S
C518 C520 1.378 . S
C518 C522 1.350 . S
C519 C522 1.463 . S
C519 C524 1.350 . S
C519 N527 1.427 . S
C520 H511 0.930 . S
C520 C518 1.378 . S
C520 C521 1.367 . S
C521 C520 1.367 . S
C521 C523 1.433 . S
C522 C518 1.350 . S
C522 C519 1.463 . S
C522 N526 1.427 . S
C523 H513 0.929 . S
C523 C521 1.433 . S
C523 N526 1.384 . S
C524 H515 0.929 . S
C524 C516 1.378 . S
C524 C519 1.350 . S
C525 H512 0.929 . S
C525 C517 1.433 . S
C525 N527 1.384 . S
N526 C522 1.427 . S
N526 C523 1.384 . S
N527 C519 1.427 . S
N527 C525 1.384 . S
H528 C534 0.930 . S
H529 C538 0.930 . S
H530 C543 0.929 . S
H531 C541 0.929 . S
H532 C536 0.929 . S
H533 C542 0.929 . S
C534 H528 0.930 . S
C534 C535 1.367 . S
C534 C542 1.378 . S
C535 C534 1.367 . S
C535 C543 1.433 . S
C536 H532 0.929 . S
C536 C538 1.378 . S
C536 C540 1.350 . S
C537 C540 1.463 . S
C537 C542 1.350 . S
C537 N545 1.427 . S
C538 H529 0.930 . S
C538 C536 1.378 . S
C538 C539 1.367 . S
C539 C538 1.367 . S
C539 C541 1.433 . S
C540 C536 1.350 . S
C540 C537 1.463 . S
C540 N544 1.427 . S
C541 H531 0.929 . S
C541 C539 1.433 . S
C541 N544 1.384 . S
C542 H533 0.929 . S
C542 C534 1.378 . S
C542 C537 1.350 . S
C543 H530 0.929 . S
C543 C535 1.433 . S
C543 N545 1.384 . S
N544 C540 1.427 . S
N544 C541 1.384 . S
N545 C537 1.427 . S
N545 C543 1.384 . S
H546 C552 0.930 . S
H547 C556 0.930 . S
H548 C561 0.929 . S
H549 C559 0.929 . S
H550 C554 0.929 . S
H551 C560 0.929 . S
C552 H546 0.930 . S
C552 C553 1.367 . S
C552 C560 1.378 . S
C553 C552 1.367 . S
C553 C561 1.433 . S
C554 H550 0.929 . S
C554 C556 1.378 . S
C554 C558 1.350 . S
C555 C558 1.463 . S
C555 C560 1.350 . S
C555 N563 1.427 . S
C556 H547 0.930 . S
C556 C554 1.378 . S
C556 C557 1.367 . S
C557 C556 1.367 . S
C557 C559 1.433 . S
C558 C554 1.350 . S
C558 C555 1.463 . S
C558 N562 1.427 . S
C559 H549 0.929 . S
C559 C557 1.433 . S
C559 N562 1.384 . S
C560 H551 0.929 . S
C560 C552 1.378 . S
C560 C555 1.350 . S
C561 H548 0.929 . S
C561 C553 1.433 . S
C561 N563 1.384 . S
N562 C558 1.427 . S
N562 C559 1.384 . S
N563 C555 1.427 . S
N563 C561 1.384 . S
H564 C570 0.930 . S
H565 C574 0.930 . S
H566 C579 0.929 . S
H567 C577 0.929 . S
H568 C572 0.929 . S
H569 C578 0.929 . S
C570 H564 0.930 . S
C570 C571 1.367 . S
C570 C578 1.378 . S
C571 C570 1.367 . S
C571 C579 1.433 . S
C572 H568 0.929 . S
C572 C574 1.378 . S
C572 C576 1.350 . S
C573 C576 1.463 . S
C573 C578 1.350 . S
C573 N581 1.427 . S
C574 H565 0.930 . S
C574 C572 1.378 . S
C574 C575 1.367 . S
C575 C574 1.367 . S
C575 C577 1.433 . S
C576 C572 1.350 . S
C576 C573 1.463 . S
C576 N580 1.427 . S
C577 H567 0.929 . S
C577 C575 1.433 . S
C577 N580 1.384 . S
C578 H569 0.929 . S
C578 C570 1.378 . S
C578 C573 1.350 . S
C579 H566 0.929 . S
C579 C571 1.433 . S
C579 N581 1.384 . S
N580 C576 1.427 . S
N580 C577 1.384 . S
N581 C573 1.427 . S
N581 C579 1.384 . S
H582 C588 0.930 . S
H583 C592 0.930 . S
H584 C597 0.929 . S
H585 C595 0.929 . S
H586 C590 0.929 . S
H587 C596 0.929 . S
C588 H582 0.930 . S
C588 C589 1.367 . S
C588 C596 1.378 . S
C589 C588 1.367 . S
C589 C597 1.433 . S
C590 H586 0.929 . S
C590 C592 1.378 . S
C590 C594 1.350 . S
C591 C594 1.463 . S
C591 C596 1.350 . S
C591 N599 1.427 . S
C592 H583 0.930 . S
C592 C590 1.378 . S
C592 C593 1.367 . S
C593 C592 1.367 . S
C593 C595 1.433 . S
C594 C590 1.350 . S
C594 C591 1.463 . S
C594 N598 1.427 . S
C595 H585 0.929 . S
C595 C593 1.433 . S
C595 N598 1.384 . S
C596 H587 0.929 . S
C596 C588 1.378 . S
C596 C591 1.350 . S
C597 H584 0.929 . S
C597 C589 1.433 . S
C597 N599 1.384 . S
N598 C594 1.427 . S
N598 C595 1.384 . S
N599 C591 1.427 . S
N599 C597 1.384 . S
H600 C606 0.930 . S
H601 C610 0.930 . S
H602 C615 0.929 . S
H603 C613 0.929 . S
H604 C608 0.929 . S
H605 C614 0.929 . S
C606 H600 0.930 . S
C606 C607 1.367 . S
C606 C614 1.378 . S
C607 C606 1.367 . S
C607 C615 1.433 . S
C608 H604 0.929 . S
C608 C610 1.378 . S
C608 C612 1.350 . S
C609 C612 1.463 . S
C609 C614 1.350 . S
C609 N617 1.427 . S
C610 H601 0.930 . S
C610 C608 1.378 . S
C610 C611 1.367 . S
C611 C610 1.367 . S
C611 C613 1.433 . S
C612 C608 1.350 . S
C612 C609 1.463 . S
C612 N616 1.427 . S
C613 H603 0.929 . S
C613 C611 1.433 . S
C613 N616 1.384 . S
C614 H605 0.929 . S
C614 C606 1.378 . S
C614 C609 1.350 . S
C615 H602 0.929 . S
C615 C607 1.433 . S
C615 N617 1.384 . S
N616 C612 1.427 . S
N616 C613 1.384 . S
N617 C609 1.427 . S
N617 C615 1.384 . S
H618 C624 0.930 . S
H619 C628 0.930 . S
H620 C633 0.929 1_556 S
H621 C631 0.929 . S
H622 C626 0.929 . S
H623 C632 0.929 . S
C624 H618 0.930 . S
C624 C625 1.367 . S
C624 C632 1.378 . S
C625 C624 1.367 . S
C625 C633 1.433 . S
C626 H622 0.929 . S
C626 C628 1.378 . S
C626 C630 1.350 . S
C627 C630 1.463 . S
C627 C632 1.350 . S
C627 N635 1.427 . S
C628 H619 0.930 . S
C628 C626 1.378 . S
C628 C629 1.367 . S
C629 C628 1.367 . S
C629 C631 1.433 . S
C630 C626 1.350 . S
C630 C627 1.463 . S
C630 N634 1.427 . S
C631 H621 0.929 . S
C631 C629 1.433 . S
C631 N634 1.384 . S
C632 H623 0.929 . S
C632 C624 1.378 . S
C632 C627 1.350 . S
C633 H620 0.929 1_554 S
C633 C625 1.433 . S
C633 N635 1.384 . S
N634 C630 1.427 . S
N634 C631 1.384 . S
N635 C627 1.427 . S
N635 C633 1.384 . S
H636 C642 0.930 . S
H637 C646 0.930 . S
H638 C651 0.929 . S
H639 C649 0.929 . S
H640 C644 0.929 . S
H641 C650 0.929 . S
C642 H636 0.930 . S
C642 C643 1.367 . S
C642 C650 1.378 . S
C643 C642 1.367 . S
C643 C651 1.433 . S
C644 H640 0.929 . S
C644 C646 1.378 . S
C644 C648 1.350 . S
C645 C648 1.463 . S
C645 C650 1.350 . S
C645 N653 1.427 . S
C646 H637 0.930 . S
C646 C644 1.378 . S
C646 C647 1.367 . S
C647 C646 1.367 . S
C647 C649 1.433 . S
C648 C644 1.350 . S
C648 C645 1.463 . S
C648 N652 1.427 . S
C649 H639 0.929 . S
C649 C647 1.433 . S
C649 N652 1.384 . S
C650 H641 0.929 . S
C650 C642 1.378 . S
C650 C645 1.350 . S
C651 H638 0.929 . S
C651 C643 1.433 . S
C651 N653 1.384 . S
N652 C648 1.427 . S
N652 C649 1.384 . S
N653 C645 1.427 . S
N653 C651 1.384 . S
H654 C660 0.930 . S
H655 C664 0.930 . S
H656 C669 0.929 . S
H657 C667 0.929 . S
H658 C662 0.929 . S
H659 C668 0.929 . S
C660 H654 0.930 . S
C660 C661 1.367 . S
C660 C668 1.378 . S
C661 C660 1.367 . S
C661 C669 1.433 . S
C662 H658 0.929 . S
C662 C664 1.378 . S
C662 C666 1.350 . S
C663 C666 1.463 . S
C663 C668 1.350 . S
C663 N671 1.427 . S
C664 H655 0.930 . S
C664 C662 1.378 . S
C664 C665 1.367 . S
C665 C664 1.367 . S
C665 C667 1.433 . S
C666 C662 1.350 . S
C666 C663 1.463 . S
C666 N670 1.427 . S
C667 H657 0.929 . S
C667 C665 1.433 . S
C667 N670 1.384 . S
C668 H659 0.929 . S
C668 C660 1.378 . S
C668 C663 1.350 . S
C669 H656 0.929 . S
C669 C661 1.433 . S
C669 N671 1.384 . S
N670 C666 1.427 . S
N670 C667 1.384 . S
N671 C663 1.427 . S
N671 C669 1.384 . S
H672 C678 0.930 . S
H673 C682 0.930 . S
H674 C687 0.929 . S
H675 C685 0.929 . S
H676 C680 0.929 . S
H677 C686 0.929 . S
C678 H672 0.930 . S
C678 C679 1.367 . S
C678 C686 1.378 . S
C679 C678 1.367 . S
C679 C687 1.433 . S
C680 H676 0.929 . S
C680 C682 1.378 . S
C680 C684 1.350 . S
C681 C684 1.463 . S
C681 C686 1.350 . S
C681 N689 1.427 . S
C682 H673 0.930 . S
C682 C680 1.378 . S
C682 C683 1.367 . S
C683 C682 1.367 . S
C683 C685 1.433 . S
C684 C680 1.350 . S
C684 C681 1.463 . S
C684 N688 1.427 . S
C685 H675 0.929 . S
C685 C683 1.433 . S
C685 N688 1.384 . S
C686 H677 0.929 . S
C686 C678 1.378 . S
C686 C681 1.350 . S
C687 H674 0.929 . S
C687 C679 1.433 . S
C687 N689 1.384 . S
N688 C684 1.427 . S
N688 C685 1.384 . S
N689 C681 1.427 . S
N689 C687 1.384 . S
H690 C696 0.930 . S
H691 C700 0.930 . S
H692 C705 0.929 . S
H693 C703 0.929 . S
H694 C698 0.929 . S
H695 C704 0.929 . S
C696 H690 0.930 . S
C696 C697 1.367 . S
C696 C704 1.378 . S
C697 C696 1.367 . S
C697 C705 1.433 . S
C698 H694 0.929 . S
C698 C700 1.378 . S
C698 C702 1.350 . S
C699 C702 1.463 . S
C699 C704 1.350 . S
C699 N707 1.427 . S
C700 H691 0.930 . S
C700 C698 1.378 . S
C700 C701 1.367 . S
C701 C700 1.367 . S
C701 C703 1.433 . S
C702 C698 1.350 . S
C702 C699 1.463 . S
C702 N706 1.427 . S
C703 H693 0.929 . S
C703 C701 1.433 . S
C703 N706 1.384 . S
C704 H695 0.929 . S
C704 C696 1.378 . S
C704 C699 1.350 . S
C705 H692 0.929 . S
C705 C697 1.433 . S
C705 N707 1.384 . S
N706 C702 1.427 . S
N706 C703 1.384 . S
N707 C699 1.427 . S
N707 C705 1.384 . S
H708 C714 0.930 . S
H709 C718 0.930 . S
H710 C723 0.929 . S
H711 C721 0.929 . S
H712 C716 0.929 . S
H713 C722 0.929 . S
C714 H708 0.930 . S
C714 C715 1.367 . S
C714 C722 1.378 . S
C715 C714 1.367 . S
C715 C723 1.433 . S
C716 H712 0.929 . S
C716 C718 1.378 . S
C716 C720 1.350 . S
C717 C720 1.463 . S
C717 C722 1.350 . S
C717 N725 1.427 . S
C718 H709 0.930 . S
C718 C716 1.378 . S
C718 C719 1.367 . S
C719 C718 1.367 . S
C719 C721 1.433 . S
C720 C716 1.350 . S
C720 C717 1.463 . S
C720 N724 1.427 . S
C721 H711 0.929 . S
C721 C719 1.433 . S
C721 N724 1.384 . S
C722 H713 0.929 . S
C722 C714 1.378 . S
C722 C717 1.350 . S
C723 H710 0.929 . S
C723 C715 1.433 . S
C723 N725 1.384 . S
N724 C720 1.427 . S
N724 C721 1.384 . S
N725 C717 1.427 . S
N725 C723 1.384 . S
H726 C732 0.930 . S
H727 C736 0.930 . S
H728 C741 0.929 . S
H729 C739 0.929 . S
H730 C734 0.929 . S
H731 C740 0.929 . S
C732 H726 0.930 . S
C732 C733 1.367 . S
C732 C740 1.378 . S
C733 C732 1.367 . S
C733 C741 1.433 . S
C734 H730 0.929 . S
C734 C736 1.378 . S
C734 C738 1.350 . S
C735 C738 1.463 . S
C735 C740 1.350 . S
C735 N743 1.427 . S
C736 H727 0.930 . S
C736 C734 1.378 . S
C736 C737 1.367 1_556 S
C737 C736 1.367 1_554 S
C737 C739 1.433 . S
C738 C734 1.350 . S
C738 C735 1.463 . S
C738 N742 1.427 . S
C739 H729 0.929 . S
C739 C737 1.433 . S
C739 N742 1.384 1_554 S
C740 H731 0.929 . S
C740 C732 1.378 . S
C740 C735 1.350 . S
C741 H728 0.929 . S
C741 C733 1.433 . S
C741 N743 1.384 . S
N742 C738 1.427 . S
N742 C739 1.384 1_556 S
N743 C735 1.427 . S
N743 C741 1.384 . S
H744 C750 0.930 . S
H745 C754 0.930 . S
H746 C759 0.929 . S
H747 C757 0.929 . S
H748 C752 0.929 . S
H749 C758 0.929 . S
C750 H744 0.930 . S
C750 C751 1.367 . S
C750 C758 1.378 . S
C751 C750 1.367 . S
C751 C759 1.433 . S
C752 H748 0.929 . S
C752 C754 1.378 . S
C752 C756 1.350 . S
C753 C756 1.463 . S
C753 C758 1.350 . S
C753 N761 1.427 . S
C754 H745 0.930 . S
C754 C752 1.378 . S
C754 C755 1.367 . S
C755 C754 1.367 . S
C755 C757 1.433 . S
C756 C752 1.350 . S
C756 C753 1.463 . S
C756 N760 1.427 . S
C757 H747 0.929 . S
C757 C755 1.433 . S
C757 N760 1.384 . S
C758 H749 0.929 . S
C758 C750 1.378 . S
C758 C753 1.350 . S
C759 H746 0.929 . S
C759 C751 1.433 . S
C759 N761 1.384 . S
N760 C756 1.427 . S
N760 C757 1.384 . S
N761 C753 1.427 . S
N761 C759 1.384 . S
H762 C768 0.930 . S
H763 C772 0.930 . S
H764 C777 0.929 . S
H765 C775 0.929 . S
H766 C770 0.929 . S
H767 C776 0.929 . S
C768 H762 0.930 . S
C768 C769 1.367 . S
C768 C776 1.378 . S
C769 C768 1.367 . S
C769 C777 1.433 . S
C770 H766 0.929 . S
C770 C772 1.378 . S
C770 C774 1.350 . S
C771 C774 1.463 . S
C771 C776 1.350 . S
C771 N779 1.427 . S
C772 H763 0.930 . S
C772 C770 1.378 . S
C772 C773 1.367 . S
C773 C772 1.367 . S
C773 C775 1.433 . S
C774 C770 1.350 . S
C774 C771 1.463 . S
C774 N778 1.427 . S
C775 H765 0.929 . S
C775 C773 1.433 . S
C775 N778 1.384 . S
C776 H767 0.929 . S
C776 C768 1.378 . S
C776 C771 1.350 . S
C777 H764 0.929 . S
C777 C769 1.433 . S
C777 N779 1.384 . S
N778 C774 1.427 . S
N778 C775 1.384 . S
N779 C771 1.427 . S
N779 C777 1.384 . S
H780 C786 0.930 . S
H781 C790 0.930 . S
H782 C795 0.929 . S
H783 C793 0.929 . S
H784 C788 0.929 . S
H785 C794 0.929 . S
C786 H780 0.930 . S
C786 C787 1.367 . S
C786 C794 1.378 . S
C787 C786 1.367 . S
C787 C795 1.433 . S
C788 H784 0.929 . S
C788 C790 1.378 . S
C788 C792 1.350 . S
C789 C792 1.463 . S
C789 C794 1.350 . S
C789 N797 1.427 . S
C790 H781 0.930 . S
C790 C788 1.378 . S
C790 C791 1.367 . S
C791 C790 1.367 . S
C791 C793 1.433 . S
C792 C788 1.350 . S
C792 C789 1.463 . S
C792 N796 1.427 . S
C793 H783 0.929 . S
C793 C791 1.433 . S
C793 N796 1.384 . S
C794 H785 0.929 . S
C794 C786 1.378 . S
C794 C789 1.350 . S
C795 H782 0.929 . S
C795 C787 1.433 . S
C795 N797 1.384 . S
N796 C792 1.427 . S
N796 C793 1.384 . S
N797 C789 1.427 . S
N797 C795 1.384 . S
H798 C804 0.930 . S
H799 C808 0.930 . S
H800 C813 0.929 . S
H801 C811 0.929 . S
H802 C806 0.929 . S
H803 C812 0.929 . S
C804 H798 0.930 . S
C804 C805 1.367 . S
C804 C812 1.378 . S
C805 C804 1.367 . S
C805 C813 1.433 . S
C806 H802 0.929 . S
C806 C808 1.378 . S
C806 C810 1.350 . S
C807 C810 1.463 . S
C807 C812 1.350 . S
C807 N815 1.427 . S
C808 H799 0.930 . S
C808 C806 1.378 . S
C808 C809 1.367 . S
C809 C808 1.367 . S
C809 C811 1.433 . S
C810 C806 1.350 . S
C810 C807 1.463 . S
C810 N814 1.427 . S
C811 H801 0.929 . S
C811 C809 1.433 . S
C811 N814 1.384 . S
C812 H803 0.929 . S
C812 C804 1.378 . S
C812 C807 1.350 . S
C813 H800 0.929 . S
C813 C805 1.433 . S
C813 N815 1.384 . S
N814 C810 1.427 . S
N814 C811 1.384 . S
N815 C807 1.427 . S
N815 C813 1.384 . S
H816 C822 0.930 . S
H817 C826 0.930 . S
H818 C831 0.929 . S
H819 C829 0.929 . S
H820 C824 0.929 . S
H821 C830 0.929 . S
C822 H816 0.930 . S
C822 C823 1.367 . S
C822 C830 1.378 . S
C823 C822 1.367 . S
C823 C831 1.433 . S
C824 H820 0.929 . S
C824 C826 1.378 . S
C824 C828 1.350 . S
C825 C828 1.463 . S
C825 C830 1.350 . S
C825 N833 1.427 . S
C826 H817 0.930 . S
C826 C824 1.378 . S
C826 C827 1.367 . S
C827 C826 1.367 . S
C827 C829 1.433 . S
C828 C824 1.350 . S
C828 C825 1.463 . S
C828 N832 1.427 . S
C829 H819 0.929 . S
C829 C827 1.433 . S
C829 N832 1.384 . S
C830 H821 0.929 . S
C830 C822 1.378 . S
C830 C825 1.350 . S
C831 H818 0.929 . S
C831 C823 1.433 . S
C831 N833 1.384 . S
N832 C828 1.427 . S
N832 C829 1.384 . S
N833 C825 1.427 . S
N833 C831 1.384 . S
H834 C840 0.930 . S
H835 C844 0.930 . S
H836 C849 0.929 . S
H837 C847 0.929 . S
H838 C842 0.929 . S
H839 C848 0.929 . S
C840 H834 0.930 . S
C840 C841 1.367 . S
C840 C848 1.378 . S
C841 C840 1.367 . S
C841 C849 1.433 . S
C842 H838 0.929 . S
C842 C844 1.378 . S
C842 C846 1.350 . S
C843 C846 1.463 . S
C843 C848 1.350 . S
C843 N851 1.427 . S
C844 H835 0.930 . S
C844 C842 1.378 . S
C844 C845 1.367 . S
C845 C844 1.367 . S
C845 C847 1.433 . S
C846 C842 1.350 . S
C846 C843 1.463 . S
C846 N850 1.427 . S
C847 H837 0.929 . S
C847 C845 1.433 . S
C847 N850 1.384 . S
C848 H839 0.929 . S
C848 C840 1.378 . S
C848 C843 1.350 . S
C849 H836 0.929 . S
C849 C841 1.433 . S
C849 N851 1.384 . S
N850 C846 1.427 . S
N850 C847 1.384 . S
N851 C843 1.427 . S
N851 C849 1.384 . S
H852 C858 0.930 . S
H853 C862 0.930 . S
H854 C867 0.929 . S
H855 C865 0.929 . S
H856 C860 0.929 . S
H857 C866 0.929 . S
C858 H852 0.930 . S
C858 C859 1.367 . S
C858 C866 1.378 . S
C859 C858 1.367 . S
C859 C867 1.433 . S
C860 H856 0.929 . S
C860 C862 1.378 . S
C860 C864 1.350 . S
C861 C864 1.463 . S
C861 C866 1.350 1_556 S
C861 N869 1.427 . S
C862 H853 0.930 . S
C862 C860 1.378 . S
C862 C863 1.367 . S
C863 C862 1.367 . S
C863 C865 1.433 . S
C864 C860 1.350 . S
C864 C861 1.463 . S
C864 N868 1.427 . S
C865 H855 0.929 . S
C865 C863 1.433 . S
C865 N868 1.384 . S
C866 H857 0.929 . S
C866 C858 1.378 . S
C866 C861 1.350 1_554 S
C867 H854 0.929 . S
C867 C859 1.433 . S
C867 N869 1.384 1_554 S
N868 C864 1.427 . S
N868 C865 1.384 . S
N869 C861 1.427 . S
N869 C867 1.384 1_556 S
H870 C876 0.930 . S
H871 C880 0.930 . S
H872 C885 0.929 . S
H873 C883 0.929 . S
H874 C878 0.929 . S
H875 C884 0.929 . S
C876 H870 0.930 . S
C876 C877 1.367 . S
C876 C884 1.378 . S
C877 C876 1.367 . S
C877 C885 1.433 . S
C878 H874 0.929 . S
C878 C880 1.378 . S
C878 C882 1.350 . S
C879 C882 1.463 . S
C879 C884 1.350 . S
C879 N887 1.427 . S
C880 H871 0.930 . S
C880 C878 1.378 . S
C880 C881 1.367 . S
C881 C880 1.367 . S
C881 C883 1.433 . S
C882 C878 1.350 . S
C882 C879 1.463 . S
C882 N886 1.427 . S
C883 H873 0.929 . S
C883 C881 1.433 . S
C883 N886 1.384 . S
C884 H875 0.929 . S
C884 C876 1.378 . S
C884 C879 1.350 . S
C885 H872 0.929 . S
C885 C877 1.433 . S
C885 N887 1.384 . S
N886 C882 1.427 . S
N886 C883 1.384 . S
N887 C879 1.427 . S
N887 C885 1.384 . S
C467 C447 1.328 . S
C463 C29 1.502 . S
C481 C115 1.519 . S
C485 C377 1.286 . S
C499 C153 1.476 . S
C503 C397 1.575 . S
C517 C239 1.407 . S
C521 C411 1.410 . S
C539 C419 1.263 . S
C535 C301 1.494 . S
C553 C339 1.733 . S
C557 C433 1.531 . S
C571 C91 1.530 . S
C575 C391 1.366 . S
C589 C177 1.455 . S
C593 C405 1.234 . S
C607 C215 1.414 . S
C611 C425 1.502 . S
C629 C439 1.831 . S
C625 C277 1.719 . S
C647 C453 1.502 . S
C643 C363 1.486 . S
C665 C383 1.461 . S
C661 C53 1.455 . S
C679 C35 1.496 . S
C683 C390 1.509 . S
C697 C109 1.361 . S
C701 C404 1.446 . S
C719 C426 1.414 . S
C715 C159 1.395 . S
C733 C233 1.576 . S
C737 C440 1.713 . S
C755 C454 1.497 . S
C751 C295 1.337 . S
C773 C384 1.288 . S
C769 C345 1.272 . S
C791 C446 1.389 . S
C787 C97 1.391 . S
C805 C171 1.342 . S
C809 C376 1.423 . S
C827 C398 1.524 . S
C823 C221 1.494 . S
C841 C283 1.321 . S
C845 C412 1.345 . S
C859 C357 1.412 . S
C863 C418 1.513 . S
C877 C47 1.593 . S
C881 C432 1.692 . S
