# Generated by pormake.
# Topology zzz, (3,6)-cn, num edge types: 1
# Building blocks:
#     Node 0, Type 0, BuildingBlock: KAKCAD_clean_linker_0, # of connection points: 3
#     Node 1, Type 0, BuildingBlock: KAKCAD_clean_linker_0, # of connection points: 3
#     Node 2, Type 0, BuildingBlock: KAKCAD_clean_linker_0, # of connection points: 3
#     Node 3, Type 0, BuildingBlock: KAKCAD_clean_linker_0, # of connection points: 3
#     Node 4, Type 0, BuildingBlock: KAKCAD_clean_linker_0, # of connection points: 3
#     Node 5, Type 0, BuildingBlock: KAKCAD_clean_linker_0, # of connection points: 3
#     Node 6, Type 0, BuildingBlock: KAKCAD_clean_linker_0, # of connection points: 3
#     Node 7, Type 0, BuildingBlock: KAKCAD_clean_linker_0, # of connection points: 3
#     Node 8, Type 1, BuildingBlock: GEDQOX_clean_sbu_0, # of connection points: 6
#     Node 9, Type 1, BuildingBlock: GEDQOX_clean_sbu_0, # of connection points: 6
#     Node 10, Type 1, BuildingBlock: GEDQOX_clean_sbu_0, # of connection points: 6
#     Node 11, Type 1, BuildingBlock: GEDQOX_clean_sbu_0, # of connection points: 6
#     Edge 12, Type (0, 1), BuildingBlock: XIVTED_clean_linker_0, # of connection points: 2
#     Edge 13, Type (0, 1), BuildingBlock: XIVTED_clean_linker_0, # of connection points: 2
#     Edge 14, Type (0, 1), BuildingBlock: XIVTED_clean_linker_0, # of connection points: 2
#     Edge 15, Type (0, 1), BuildingBlock: XIVTED_clean_linker_0, # of connection points: 2
#     Edge 16, Type (0, 1), BuildingBlock: XIVTED_clean_linker_0, # of connection points: 2
#     Edge 17, Type (0, 1), BuildingBlock: XIVTED_clean_linker_0, # of connection points: 2
#     Edge 18, Type (0, 1), BuildingBlock: XIVTED_clean_linker_0, # of connection points: 2
#     Edge 19, Type (0, 1), BuildingBlock: XIVTED_clean_linker_0, # of connection points: 2
#     Edge 20, Type (0, 1), BuildingBlock: XIVTED_clean_linker_0, # of connection points: 2
#     Edge 21, Type (0, 1), BuildingBlock: XIVTED_clean_linker_0, # of connection points: 2
#     Edge 22, Type (0, 1), BuildingBlock: XIVTED_clean_linker_0, # of connection points: 2
#     Edge 23, Type (0, 1), BuildingBlock: XIVTED_clean_linker_0, # of connection points: 2
#     Edge 24, Type (0, 1), BuildingBlock: XIVTED_clean_linker_0, # of connection points: 2
#     Edge 25, Type (0, 1), BuildingBlock: XIVTED_clean_linker_0, # of connection points: 2
#     Edge 26, Type (0, 1), BuildingBlock: XIVTED_clean_linker_0, # of connection points: 2
#     Edge 27, Type (0, 1), BuildingBlock: XIVTED_clean_linker_0, # of connection points: 2
#     Edge 28, Type (0, 1), BuildingBlock: XIVTED_clean_linker_0, # of connection points: 2
#     Edge 29, Type (0, 1), BuildingBlock: XIVTED_clean_linker_0, # of connection points: 2
#     Edge 30, Type (0, 1), BuildingBlock: XIVTED_clean_linker_0, # of connection points: 2
#     Edge 31, Type (0, 1), BuildingBlock: XIVTED_clean_linker_0, # of connection points: 2
#     Edge 32, Type (0, 1), BuildingBlock: XIVTED_clean_linker_0, # of connection points: 2
#     Edge 33, Type (0, 1), BuildingBlock: XIVTED_clean_linker_0, # of connection points: 2
#     Edge 34, Type (0, 1), BuildingBlock: XIVTED_clean_linker_0, # of connection points: 2
#     Edge 35, Type (0, 1), BuildingBlock: XIVTED_clean_linker_0, # of connection points: 2
# Relax obj value: 0.305
# Max RMSD: 0.263
# Mean RMSD: 0.197
data_MOF--net-zzz--node1-GEDQOX_clean_sbu_0--node2-KAKCAD_clean_linker_0--edge1-XIVTED_clean_linker_0
_symmetry_space_group_name_H-M    P1
_symmetry_Int_Tables_number       1
_symmetry_cell_setting            triclinic
loop_
_symmetry_equiv_pos_as_xyz
'x, y, z'
_cell_length_a     63.385577
_cell_length_b     58.043688
_cell_length_c     21.823438
_cell_angle_alpha  82.156312
_cell_angle_beta   91.404813
_cell_angle_gamma 102.52218
loop_
_atom_site_label
_atom_site_type_symbol
_atom_site_fract_x
_atom_site_fract_y
_atom_site_fract_z
_atom_type_partial_charge
C0 C 0.81734 0.4315 0.95061 0.0
C1 C 0.82883 0.41439 0.97703 0.0
C2 C 0.79973 0.43553 0.98151 0.0
C3 C 0.79339 0.42278 0.03978 0.0
C4 C 0.80374 0.4045 0.06421 0.0
C5 C 0.82115 0.40018 0.03286 0.0
C6 C 0.77828 0.43088 0.07832 0.0
C7 C 0.7586 0.43531 0.0545 0.0
C8 C 0.74548 0.4456 0.0889 0.0
C9 C 0.7525 0.45166 0.14756 0.0
C10 C 0.77221 0.44728 0.17191 0.0
C11 C 0.78482 0.43663 0.13717 0.0
C12 C 0.7808 0.45546 0.23104 0.0
C13 C 0.78073 0.47864 0.24291 0.0
C14 C 0.79117 0.441 0.27299 0.0
C15 C 0.80225 0.44992 0.32376 0.0
C16 C 0.80323 0.47355 0.33383 0.0
C17 C 0.72467 0.45037 0.06306 0.0
C18 C 0.72298 0.45912 1.00014 0.0
C19 C 0.70628 0.44602 0.10106 0.0
C20 C 0.68665 0.45018 0.07673 0.0
C21 C 0.68488 0.45872 0.01371 0.0
C22 C 0.70331 0.46324 0.97575 0.0
C23 C 0.79187 0.48761 0.29373 0.0
H24 H 0.82282 0.44304 0.9082 0.0
H25 H 0.79212 0.44986 0.96193 0.0
H26 H 0.79894 0.39425 0.10886 0.0
H27 H 0.82921 0.38644 0.05387 0.0
H28 H 0.75353 0.43066 0.00915 0.0
H29 H 0.80048 0.43414 0.15433 0.0
H30 H 0.74283 0.46017 0.17386 0.0
H31 H 0.77299 0.49027 0.21125 0.0
H32 H 0.79133 0.42298 0.26536 0.0
H33 H 0.81094 0.43863 0.35333 0.0
H34 H 0.73691 0.46298 0.96972 0.0
H35 H 0.70695 0.4391 0.14956 0.0
H36 H 0.79205 0.50577 0.30067 0.0
H37 H 0.7025 0.46967 0.92696 0.0
H38 H 0.67288 0.44688 0.10759 0.0
C39 C 0.96415 0.77454 0.05895 0.0
C40 C 0.95223 0.79246 0.05374 0.0
C41 C 0.95811 0.7542 0.10205 0.0
C42 C 0.94016 0.75156 0.14092 0.0
C43 C 0.92734 0.76864 0.13253 0.0
C44 C 0.93328 0.7889 0.08909 0.0
C45 C 0.93703 0.73319 0.19578 0.0
C46 C 0.93871 0.7099 0.19108 0.0
C47 C 0.93997 0.69367 0.24428 0.0
C48 C 0.93971 0.70104 0.30323 0.0
C49 C 0.93704 0.7242 0.3081 0.0
C50 C 0.93554 0.73995 0.2543 0.0
C51 C 0.93801 0.73395 0.36746 0.0
C52 C 0.92016 0.7421 0.3859 0.0
C53 C 0.95817 0.7415 0.39462 0.0
C54 C 0.96086 0.75864 0.4352 0.0
C55 C 0.94339 0.76846 0.44935 0.0
C56 C 0.94346 0.66999 0.23523 0.0
C57 C 0.92896 0.65603 0.19825 0.0
C58 C 0.96331 0.66386 0.2509 0.0
C59 C 0.96931 0.64526 0.22563 0.0
C60 C 0.95551 0.63256 0.18431 0.0
C61 C 0.93489 0.63746 0.17322 0.0
C62 C 0.92279 0.75909 0.42673 0.0
H63 H 0.9787 0.77679 0.03173 0.0
H64 H 0.96837 0.74137 0.1079 0.0
H65 H 0.91337 0.76691 0.1618 0.0
H66 H 0.92385 0.8025 0.08618 0.0
H67 H 0.94001 0.70468 0.14567 0.0
H68 H 0.9348 0.7582 0.25824 0.0
H69 H 0.94154 0.68897 0.34451 0.0
H70 H 0.90456 0.73688 0.3645 0.0
H71 H 0.97224 0.73581 0.38013 0.0
H72 H 0.97687 0.76525 0.45255 0.0
H73 H 0.91358 0.66053 0.1854 0.0
H74 H 0.97488 0.67463 0.27852 0.0
H75 H 0.90902 0.76632 0.43622 0.0
H76 H 0.92369 0.62766 0.14279 0.0
H77 H 0.98534 0.64199 0.23501 0.0
C78 C 0.72394 0.0881 0.93901 0.0
C79 C 0.70717 0.09717 0.96115 0.0
C80 C 0.73952 0.08109 0.97928 0.0
C81 C 0.73914 0.08369 0.04239 0.0
C82 C 0.7241 0.09572 0.06253 0.0
C83 C 0.70814 0.10212 0.02262 0.0
C84 C 0.75229 0.07123 0.08785 0.0
C85 C 0.77247 0.06758 0.07124 0.0
C86 C 0.78318 0.0525 0.11024 0.0
C87 C 0.77387 0.04159 0.16773 0.0
C88 C 0.75418 0.04588 0.18619 0.0
C89 C 0.74348 0.06049 0.14597 0.0
C90 C 0.74393 0.03451 0.24622 0.0
C91 C 0.73971 1.00966 0.2623 0.0
C92 C 0.73653 0.04844 0.28521 0.0
C93 C 0.72453 0.03774 0.33825 0.0
C94 C 0.71945 0.01283 0.35317 0.0
C95 C 0.80343 0.04721 0.08869 0.0
C96 C 0.80615 0.02363 0.09439 0.0
C97 C 0.81957 0.06553 0.0588 0.0
C98 C 0.83787 0.06035 0.03417 0.0
C99 C 0.84043 0.03672 0.03873 0.0
C100 C 0.82443 0.01843 0.06959 0.0
C101 C 0.72741 0.99888 0.31512 0.0
H102 H 0.72421 0.08483 0.89139 0.0
H103 H 0.7508 0.07205 0.96142 0.0
H104 H 0.72379 0.09891 0.1102 0.0
H105 H 0.69566 0.10922 0.04159 0.0
H106 H 0.77954 0.07574 0.02673 0.0
H107 H 0.72763 0.06236 0.15909 0.0
H108 H 0.78202 0.03001 0.19831 0.0
H109 H 0.74512 0.99855 0.23265 0.0
H110 H 0.73959 0.06764 0.27376 0.0
H111 H 0.71844 0.04896 0.36617 0.0
H112 H 0.79383 1.0091 0.11633 0.0
H113 H 0.81802 0.0839 0.05436 0.0
H114 H 0.72382 0.97965 0.3257 0.0
H115 H 0.82577 1.00001 0.07333 0.0
H116 H 0.85008 0.07491 0.01187 0.0
C117 C 0.56719 0.73763 0.54237 0.0
C118 C 0.58271 0.72603 0.57234 0.0
C119 C 0.57365 0.75865 0.50106 0.0
C120 C 0.5957 0.76841 0.48935 0.0
C121 C 0.61109 0.75806 0.52391 0.0
C122 C 0.60468 0.7371 0.56484 0.0
C123 C 0.60264 0.78487 0.43178 0.0
C124 C 0.59625 0.80676 0.41663 0.0
C125 C 0.60188 0.82059 0.35849 0.0
C126 C 0.61325 0.81174 0.31558 0.0
C127 C 0.61886 0.78959 0.32928 0.0
C128 C 0.61403 0.77668 0.38803 0.0
C129 C 0.62587 0.77773 0.27963 0.0
C130 C 0.6151 0.77835 0.22255 0.0
C131 C 0.64012 0.7622 0.29256 0.0
C132 C 0.6413 0.74549 0.25306 0.0
C133 C 0.62837 0.74421 0.19987 0.0
C134 C 0.59437 0.84308 0.33814 0.0
C135 C 0.57311 0.84491 0.34944 0.0
C136 C 0.60761 0.86162 0.29928 0.0
C137 C 0.59926 0.88014 0.2674 0.0
C138 C 0.5775 0.88124 0.27489 0.0
C139 C 0.56484 0.86389 0.31865 0.0
C140 C 0.61641 0.7618 0.18296 0.0
H141 H 0.55013 0.72953 0.54719 0.0
H142 H 0.56147 0.76607 0.47439 0.0
H143 H 0.6282 0.76522 0.51565 0.0
H144 H 0.617 0.72887 0.5882 0.0
H145 H 0.58695 0.81286 0.44967 0.0
H146 H 0.61749 0.75906 0.39819 0.0
H147 H 0.61664 0.82145 0.26962 0.0
H148 H 0.6039 0.78994 0.21106 0.0
H149 H 0.64903 0.76171 0.33554 0.0
H150 H 0.65098 0.73241 0.2666 0.0
H151 H 0.56244 0.83103 0.37927 0.0
H152 H 0.62426 0.86114 0.29063 0.0
H153 H 0.60616 0.76126 0.1425 0.0
H154 H 0.54826 0.86439 0.32781 0.0
H155 H 0.60976 0.89276 0.23432 0.0
C156 C 0.21102 0.63084 0.65855 0.0
C157 C 0.20335 0.61649 0.71421 0.0
C158 C 0.22772 0.62587 0.62543 0.0
C159 C 0.23741 0.60685 0.64804 0.0
C160 C 0.23146 0.59422 0.70667 0.0
C161 C 0.21452 0.59889 0.73932 0.0
C162 C 0.25032 0.5972 0.60636 0.0
C163 C 0.27021 0.59176 0.62482 0.0
C164 C 0.28099 0.5797 0.58797 0.0
C165 C 0.27113 0.57271 0.53268 0.0
C166 C 0.25071 0.57704 0.51563 0.0
C167 C 0.24086 0.59005 0.55151 0.0
C168 C 0.23821 0.56567 0.46524 0.0
C169 C 0.24713 0.56713 0.40612 0.0
C170 C 0.21674 0.55335 0.47672 0.0
C171 C 0.2041 0.54366 0.42967 0.0
C172 C 0.21255 0.54603 0.3697 0.0
C173 C 0.30156 0.57282 0.60985 0.0
C174 C 0.31647 0.58735 0.64483 0.0
C175 C 0.30611 0.55117 0.59798 0.0
C176 C 0.32495 0.54428 0.62029 0.0
C177 C 0.33959 0.55849 0.65667 0.0
C178 C 0.33508 0.58018 0.66847 0.0
C179 C 0.23435 0.5574 0.35858 0.0
H180 H 0.20326 0.64498 0.63859 0.0
H181 H 0.2322 0.63596 0.5804 0.0
H182 H 0.23856 0.57932 0.7248 0.0
H183 H 0.2091 0.58726 0.78162 0.0
H184 H 0.27679 0.5962 0.66904 0.0
H185 H 0.22502 0.59333 0.53868 0.0
H186 H 0.27882 0.56301 0.50412 0.0
H187 H 0.26369 0.57642 0.39623 0.0
H188 H 0.20962 0.55133 0.5223 0.0
H189 H 0.18756 0.53445 0.4402 0.0
H190 H 0.31379 0.60433 0.65427 0.0
H191 H 0.29497 0.53916 0.57236 0.0
H192 H 0.24129 0.55948 0.31277 0.0
H193 H 0.34572 0.59157 0.69676 0.0
H194 H 0.32796 0.52774 0.60866 0.0
C195 C 0.09218 0.24623 0.62768 0.0
C196 C 0.09864 0.22559 0.61558 0.0
C197 C 0.0967 0.267 0.58547 0.0
C198 C 0.10865 0.26805 0.53116 0.0
C199 C 0.118 0.24865 0.52439 0.0
C200 C 0.1127 0.22752 0.56524 0.0
C201 C 0.10798 0.28708 0.47799 0.0
C202 C 0.10432 0.30927 0.48773 0.0
C203 C 0.09697 0.32431 0.43973 0.0
C204 C 0.09572 0.31826 0.37911 0.0
C205 C 0.10125 0.29701 0.36758 0.0
C206 C 0.10699 0.28154 0.41723 0.0
C207 C 0.09844 0.28839 0.30635 0.0
C208 C 0.0779 0.28367 0.27934 0.0
C209 C 0.11511 0.27963 0.28267 0.0
C210 C 0.11088 0.26457 0.23706 0.0
C211 C 0.08985 0.25793 0.21387 0.0
C212 C 0.08804 0.34431 0.45635 0.0
C213 C 0.07446 0.34026 0.5084 0.0
C214 C 0.09347 0.36738 0.42352 0.0
C215 C 0.0861 0.38618 0.44418 0.0
C216 C 0.07306 0.38214 0.49769 0.0
C217 C 0.06726 0.35885 0.52904 0.0
C218 C 0.07364 0.26858 0.23344 0.0
H219 H 0.08235 0.24601 0.66769 0.0
H220 H 0.08926 0.28141 0.59362 0.0
H221 H 0.12821 0.24907 0.48503 0.0
H222 H 0.11843 0.21233 0.55417 0.0
H223 H 0.10581 0.31431 0.53388 0.0
H224 H 0.10893 0.26421 0.40844 0.0
H225 H 0.08973 0.32943 0.34185 0.0
H226 H 0.06473 0.29002 0.29716 0.0
H227 H 0.13107 0.28291 0.30306 0.0
H228 H 0.12379 0.25671 0.22372 0.0
H229 H 0.06963 0.3226 0.53415 0.0
H230 H 0.10386 0.37098 0.38314 0.0
H231 H 0.05736 0.26428 0.21568 0.0
H232 H 0.05761 0.35496 0.57094 0.0
H233 H 0.09071 0.40385 0.41851 0.0
C234 C 0.3229 0.92538 0.67293 0.0
C235 C 0.32878 0.93365 0.72997 0.0
C236 C 0.30751 0.93432 0.63558 0.0
C237 C 0.29736 0.95127 0.65516 0.0
C238 C 0.30169 0.95792 0.71434 0.0
C239 C 0.31734 0.9493 0.75129 0.0
C240 C 0.28449 0.96423 0.61128 0.0
C241 C 0.26368 0.96609 0.62672 0.0
C242 C 0.252 0.97959 0.58601 0.0
C243 C 0.26169 0.99175 0.5299 0.0
C244 C 0.28278 0.99041 0.51474 0.0
C245 C 0.29386 0.97628 0.55527 0.0
C246 C 0.29377 1.00388 0.45742 0.0
C247 C 0.28367 1.00266 0.3996 0.0
C248 C 0.31523 0.01663 0.46005 0.0
C249 C 0.32677 0.02686 0.40596 0.0
C250 C 0.31714 0.0246 0.34778 0.0
C251 C 0.22992 0.98122 0.60333 0.0
C252 C 0.21532 0.96085 0.6309 0.0
C253 C 0.22354 1.00316 0.59479 0.0
C254 C 0.20313 1.00475 0.61449 0.0
C255 C 0.18866 0.98441 0.64292 0.0
C256 C 0.19496 0.96243 0.65051 0.0
C257 C 0.29528 0.01285 0.34521 0.0
H258 H 0.33094 0.91287 0.65568 0.0
H259 H 0.30419 0.92876 0.59027 0.0
H260 H 0.29411 0.97108 0.7302 0.0
H261 H 0.32152 0.95633 0.7945 0.0
H262 H 0.25672 0.95721 0.67087 0.0
H263 H 0.31009 0.97505 0.5438 0.0
H264 H 0.25297 1.00241 0.49843 0.0
H265 H 0.26713 0.99294 0.3963 0.0
H266 H 0.32333 0.01811 0.5041 0.0
H267 H 0.3436 0.03555 0.40982 0.0
H268 H 0.21967 0.94364 0.63755 0.0
H269 H 0.2345 0.01921 0.57417 0.0
H270 H 0.28732 1.01105 0.30111 0.0
H271 H 0.18431 0.94645 0.67276 0.0
H272 H 0.19867 0.0219 0.60732 0.0
C273 C 0.43749 0.27889 0.0843 0.0
C274 C 0.45737 0.29488 0.0891 0.0
C275 C 0.43213 0.2579 0.12602 0.0
C276 C 0.44671 0.25243 0.17255 0.0
C277 C 0.46745 0.26716 0.17281 0.0
C278 C 0.47267 0.28829 0.13179 0.0
C279 C 0.43865 0.23642 0.22988 0.0
C280 C 0.44997 0.21948 0.25838 0.0
C281 C 0.44563 0.20957 0.32051 0.0
C282 C 0.43055 0.21743 0.35411 0.0
C283 C 0.4197 0.23493 0.32697 0.0
C284 C 0.42261 0.2427 0.26336 0.0
C285 C 0.41009 0.24895 0.36722 0.0
C286 C 0.40238 0.23899 0.42725 0.0
C287 C 0.41281 0.27378 0.35079 0.0
C288 C 0.41064 0.28833 0.3948 0.0
C289 C 0.40617 0.27858 0.45666 0.0
C290 C 0.45816 0.19288 0.35376 0.0
C291 C 0.45964 0.17174 0.33114 0.0
C292 C 0.46685 0.19699 0.41219 0.0
C293 C 0.47527 0.17964 0.44923 0.0
C294 C 0.47547 0.15784 0.42854 0.0
C295 C 0.46829 0.15433 0.36828 0.0
C296 C 0.40087 0.25372 0.47195 0.0
H297 H 0.4254 0.28355 0.05183 0.0
H298 H 0.41595 0.24698 0.12533 0.0
H299 H 0.47888 0.26359 0.20871 0.0
H300 H 0.48821 0.30021 0.13596 0.0
H301 H 0.46285 0.21509 0.23354 0.0
H302 H 0.4142 0.25596 0.24126 0.0
H303 H 0.42853 0.21098 0.40297 0.0
H304 H 0.39916 0.21994 0.44127 0.0
H305 H 0.41887 0.28258 0.30583 0.0
H306 H 0.41493 0.30745 0.3816 0.0
H307 H 0.45309 0.16816 0.28626 0.0
H308 H 0.4664 0.21336 0.43028 0.0
H309 H 0.39705 0.24578 0.51932 0.0
H310 H 0.46832 0.13768 0.35118 0.0
H311 H 0.48113 0.18304 0.49489 0.0
Nd312 Nd 0.00107 1.00542 0.76913 0.0
Nd313 Nd 0.02457 0.01681 0.88456 0.0
C314 C 0.97532 0.99426 0.67611 0.0
C315 C 0.96862 0.97117 0.65202 0.0
C316 C 0.96915 0.97012 0.58825 0.0
C317 C 0.96539 0.94807 0.56586 0.0
C318 C 0.961 0.92664 0.6069 0.0
C319 C 0.95996 0.9278 0.67065 0.0
C320 C 0.96383 0.94978 0.69294 0.0
C321 C 0.04106 0.99414 0.77625 0.0
C322 C 0.00356 0.96266 0.87717 0.0
C323 C 0.05138 0.03609 0.9678 0.0
C324 C 0.05535 0.05994 0.98768 0.0
C325 C 0.07473 0.06909 0.01677 0.0
C326 C 0.07826 0.09169 0.03604 0.0
C327 C 0.0624 0.10546 0.02667 0.0
C328 C 0.04314 0.09629 0.99664 0.0
C329 C 0.03968 0.07381 0.97726 0.0
C330 C 0.98074 1.01069 0.89514 0.0
C331 C 0.0217 0.06079 0.77767 0.0
O332 O 0.9681 0.99526 0.73127 0.0
O333 O 0.99576 1.00457 0.66839 0.0
O334 O 0.02394 0.9807 0.75643 0.0
O335 O 0.0368 0.01283 0.79139 0.0
O336 O 0.99053 0.97168 0.83749 0.0
O337 O 0.02143 0.97629 0.89559 0.0
O338 O 0.05737 0.03526 0.91144 0.0
O339 O 0.03234 0.02261 0.98155 0.0
O340 O 0.99287 1.00221 0.93714 0.0
O341 O 0.99173 0.02225 0.84885 0.0
O342 O 0.02423 0.05427 0.83701 0.0
O343 O 0.0141 0.04524 0.73954 0.0
H344 H 0.97301 0.98635 0.55587 0.0
H345 H 0.96612 0.9478 0.51644 0.0
H346 H 0.95695 0.9117 0.70362 0.0
H347 H 0.96368 0.94999 0.74245 0.0
H348 H 0.08704 0.05869 0.025 0.0
H349 H 0.09319 0.09816 0.05944 0.0
H350 H 0.03075 0.10656 0.98782 0.0
H351 H 0.02465 0.06718 0.95442 0.0
Nd352 Nd 0.52713 0.99275 0.81299 0.0
Nd353 Nd 0.50622 0.02963 0.87881 0.0
C354 C 0.54465 0.95946 0.77757 0.0
C355 C 0.56407 0.96111 0.74044 0.0
C356 C 0.56842 0.94095 0.71888 0.0
C357 C 0.58672 0.94298 0.68204 0.0
C358 C 0.60093 0.96522 0.66652 0.0
C359 C 0.59642 0.98532 0.6886 0.0
C360 C 0.57817 0.98327 0.72506 0.0
C361 C 0.51812 0.03107 0.73657 0.0
C362 C 0.55776 0.04207 0.84475 0.0
C363 C 0.48479 0.06174 0.90217 0.0
C364 C 0.46658 0.06055 0.94363 0.0
C365 C 0.45906 0.08107 0.95021 0.0
C366 C 0.44132 0.07961 0.9887 0.0
C367 C 0.4308 0.05754 0.0208 0.0
C368 C 0.43858 0.03708 0.01416 0.0
C369 C 0.45631 0.03859 0.976 0.0
C370 C 0.52027 0.99676 0.96544 0.0
C371 C 0.47588 0.97784 0.85839 0.0
O372 O 0.54821 0.96683 0.83188 0.0
O373 O 0.52879 0.96716 0.7476 0.0
O374 O 0.53409 0.0212 0.72737 0.0
O375 O 0.50683 0.01966 0.78226 0.0
O376 O 0.55664 0.01937 0.83989 0.0
O377 O 0.54048 0.05097 0.851 0.0
O378 O 0.4802 0.04926 0.85612 0.0
O379 O 0.50304 0.05942 0.92922 0.0
O380 O 0.51051 0.01265 0.98069 0.0
O381 O 0.5214 0.99903 0.90771 0.0
O382 O 0.47707 0.99894 0.87631 0.0
O383 O 0.49248 0.9713 0.83513 0.0
H384 H 0.55764 0.92371 0.73022 0.0
H385 H 0.5898 0.92715 0.66603 0.0
H386 H 0.60675 1.00278 0.67658 0.0
H387 H 0.57492 0.99908 0.74079 0.0
H388 H 0.4668 0.09815 0.92534 0.0
H389 H 0.43563 0.09565 0.99257 0.0
H390 H 0.43112 0.0199 0.03905 0.0
H391 H 0.46198 0.02256 0.97159 0.0
Nd392 Nd 0.50672 0.5189 0.89332 0.0
Nd393 Nd 0.51952 0.50008 0.77237 0.0
C394 C 0.4974 0.54444 0.97564 0.0
C395 C 0.51137 0.56564 0.99566 0.0
C396 C 0.50579 0.57571 0.04603 0.0
C397 C 0.52027 0.59487 0.06686 0.0
C398 C 0.54039 0.60418 0.03716 0.0
C399 C 0.54571 0.59415 0.9863 0.0
C400 C 0.53141 0.57494 0.96613 0.0
C401 C 0.54402 0.50213 0.89943 0.0
C402 C 0.53266 0.55688 0.77545 0.0
C403 C 0.53397 0.4741 0.701 0.0
C404 C 0.52036 0.45266 0.68077 0.0
C405 C 0.52832 0.43828 0.64444 0.0
C406 C 0.51448 0.41788 0.62702 0.0
C407 C 0.49259 0.41189 0.64553 0.0
C408 C 0.48495 0.42625 0.68257 0.0
C409 C 0.49868 0.44634 0.70002 0.0
C410 C 0.47746 0.50663 0.76375 0.0
C411 C 0.49017 0.46377 0.88442 0.0
O412 O 0.49092 0.54694 0.91817 0.0
O413 O 0.50441 0.52486 0.99073 0.0
O414 O 0.53068 0.4992 0.94522 0.0
O415 O 0.5382 0.51475 0.85306 0.0
O416 O 0.52158 0.55303 0.82791 0.0
O417 O 0.53611 0.53932 0.7468 0.0
O418 O 0.53754 0.47227 0.76075 0.0
O419 O 0.52827 0.49407 0.67902 0.0
O420 O 0.48693 0.49972 0.7199 0.0
O421 O 0.49041 0.50977 0.80742 0.0
O422 O 0.50534 0.46695 0.84165 0.0
O423 O 0.48452 0.48187 0.90563 0.0
H424 H 0.49047 0.56855 0.06971 0.0
H425 H 0.51579 0.6024 0.10611 0.0
H426 H 0.56122 0.60067 0.96326 0.0
H427 H 0.5363 0.56697 0.92834 0.0
H428 H 0.54506 0.44282 0.62957 0.0
H429 H 0.52073 0.40705 0.59828 0.0
H430 H 0.46832 0.42185 0.69856 0.0
H431 H 0.49229 0.45692 0.72901 0.0
Nd432 Nd 0.00608 0.52955 0.78302 0.0
Nd433 Nd 0.02833 0.49406 0.87439 0.0
C434 C 0.97888 0.55394 0.72616 0.0
C435 C 0.95891 0.54705 0.69129 0.0
C436 C 0.94648 0.56378 0.67071 0.0
C437 C 0.9276 0.55716 0.63681 0.0
C438 C 0.92086 0.53364 0.62326 0.0
C439 C 0.93337 0.51692 0.64461 0.0
C440 C 0.95223 0.52359 0.67816 0.0
C441 C 0.02768 0.50128 0.72882 0.0
C442 C 0.9778 0.47576 0.84196 0.0
C443 C 0.05543 0.46756 0.91844 0.0
C444 C 0.07347 0.47425 0.96058 0.0
C445 C 0.08588 0.45809 0.9862 0.0
C446 C 0.10223 0.46494 0.02887 0.0
C447 C 0.10616 0.48795 0.04646 0.0
C448 C 0.09401 0.50416 0.01906 0.0
C449 C 0.07783 0.49735 0.97687 0.0
C450 C 0.01447 0.52543 0.94053 0.0
C451 C 0.05451 0.54913 0.82475 0.0
O452 O 0.97779 0.54618 0.78543 0.0
O453 O 0.99657 0.55158 0.70036 0.0
O454 O 0.02745 0.52308 0.70581 0.0
O455 O 0.01604 0.49496 0.77667 0.0
O456 O 0.97836 0.49687 0.80917 0.0
O457 O 0.99503 0.46959 0.86904 0.0
O458 O 0.0576 0.48 0.86314 0.0
O459 O 0.03618 0.46523 0.94255 0.0
O460 O 0.02359 0.50856 0.9659 0.0
O461 O 0.01301 0.52454 0.88337 0.0
O462 O 0.0554 0.52659 0.84185 0.0
O463 O 0.03634 0.55576 0.80779 0.0
H464 H 0.9514 0.58196 0.68063 0.0
H465 H 0.91823 0.57039 0.62153 0.0
H466 H 0.92886 0.49879 0.6342 0.0
H467 H 0.96175 0.51048 0.69335 0.0
H468 H 0.0827 0.44017 0.97411 0.0
H469 H 0.11131 0.45207 0.04946 0.0
H470 H 0.09688 0.52213 0.03075 0.0
H471 H 0.06842 0.51008 0.9576 0.0
H472 H 0.17833 0.01931 0.70238 0.0
H473 H 0.05259 0.95693 0.73244 0.0
H474 H 0.14989 0.95308 0.63454 0.0
H475 H 0.07947 0.0251 0.79187 0.0
H476 H 0.08874 0.95411 0.70286 0.0
H477 H 0.14274 0.02113 0.73983 0.0
C478 C 0.1646 1.00522 0.69502 0.0
C479 C 0.16713 0.98602 0.66519 0.0
C480 C 0.0868 0.96966 0.72261 0.0
C481 C 0.12641 0.98782 0.70875 0.0
C482 C 0.06617 0.97123 0.73967 0.0
C483 C 0.06307 0.99135 0.76417 0.0
C484 C 0.10449 0.98836 0.73003 0.0
C485 C 0.0812 1.00932 0.77287 0.0
C486 C 0.14431 1.00618 0.71683 0.0
C487 C 0.14879 0.96807 0.65793 0.0
N488 N 0.10116 1.00748 0.75545 0.0
N489 N 0.12925 0.96943 0.67947 0.0
H490 H 0.50357 0.12946 0.40865 0.0
H491 H 0.48202 0.04966 0.73892 0.0
H492 H 0.46146 0.14209 0.54682 0.0
H493 H 0.53935 0.05461 0.63129 0.0
H494 H 0.47158 0.08031 0.66326 0.0
H495 H 0.51412 0.09828 0.48352 0.0
C496 C 0.49651 0.12559 0.45459 0.0
C497 C 0.48178 0.13847 0.47181 0.0
C498 C 0.48651 0.07479 0.65638 0.0
C499 C 0.49357 0.1029 0.55717 0.0
C500 C 0.49254 0.05741 0.69982 0.0
C501 C 0.51174 0.04989 0.69197 0.0
C502 C 0.4996 0.08443 0.60409 0.0
C503 C 0.52446 0.06004 0.63931 0.0
C504 C 0.50259 0.10794 0.49732 0.0
C505 C 0.4731 0.1328 0.53195 0.0
N506 N 0.51814 0.07674 0.5972 0.0
N507 N 0.47906 0.11541 0.57232 0.0
H508 H 0.37969 0.58622 0.67859 0.0
H509 H 0.44314 0.48492 0.7016 0.0
H510 H 0.34509 0.51274 0.69283 0.0
H511 H 0.46353 0.5418 0.8123 0.0
H512 H 0.40841 0.4968 0.68414 0.0
H513 H 0.41218 0.57261 0.71561 0.0
C514 C 0.37871 0.56729 0.69002 0.0
C515 C 0.35943 0.55067 0.68172 0.0
C516 C 0.4204 0.50649 0.71284 0.0
C517 C 0.3969 0.53514 0.72222 0.0
C518 C 0.44015 0.49978 0.72265 0.0
C519 C 0.456 0.51238 0.75859 0.0
C520 C 0.41683 0.52641 0.73746 0.0
C521 C 0.45152 0.53156 0.78478 0.0
C522 C 0.39735 0.55959 0.71095 0.0
C523 C 0.35957 0.52632 0.6964 0.0
N524 N 0.43241 0.53832 0.77277 0.0
N525 N 0.37807 0.5193 0.71497 0.0
H526 H 0.09567 0.42838 0.50113 0.0
H527 H 0.01753 0.45287 0.75067 0.0
H528 H 0.03439 0.38103 0.55309 0.0
H529 H 0.05557 0.5114 0.62998 0.0
H530 H 0.0284 0.42502 0.68962 0.0
H531 H 0.08514 0.45854 0.55553 0.0
C532 C 0.07993 0.42438 0.52312 0.0
C533 C 0.06606 0.40188 0.52321 0.0
C534 C 0.03439 0.44396 0.67653 0.0
C535 C 0.05433 0.43602 0.58692 0.0
C536 C 0.02832 0.45984 0.71156 0.0
C537 C 0.03558 0.48444 0.69502 0.0
C538 C 0.04815 0.4527 0.62526 0.0
C539 C 0.04955 0.49253 0.64393 0.0
C540 C 0.07403 0.44155 0.5545 0.0
C541 C 0.04594 0.39776 0.55318 0.0
N542 N 0.05549 0.47667 0.61084 0.0
N543 N 0.04084 0.41448 0.58445 0.0
H544 H 0.86089 0.0565 0.92829 0.0
H545 H 0.95527 0.98449 0.98838 0.0
H546 H 0.8641 1.00433 0.08747 0.0
H547 H 0.95525 0.03882 0.8324 0.0
H548 H 0.91976 0.98881 0.01867 0.0
H549 H 0.89361 0.04818 0.88709 0.0
C550 C 0.86848 0.04333 0.95466 0.0
C551 C 0.85978 0.03121 0.01173 0.0
C552 C 0.92738 0.99973 0.97757 0.0
C553 C 0.89706 0.0214 0.96434 0.0
C554 C 0.94766 0.99723 0.9602 0.0
C555 C 0.95826 1.01152 0.90825 0.0
C556 C 0.91762 0.01677 0.94298 0.0
C557 C 0.94761 0.02755 0.87298 0.0
C558 C 0.88707 0.03848 0.93085 0.0
C559 C 0.87006 0.01397 0.04312 0.0
N560 N 0.9279 0.02994 0.89137 0.0
N561 N 0.88818 1.00969 0.01916 0.0
H562 H 0.5351 0.87767 0.23568 0.0
H563 H 0.55595 0.97827 0.95528 0.0
H564 H 0.59766 0.92619 0.21817 0.0
H565 H 0.50224 0.9751 0.07584 0.0
H566 H 0.56978 0.95053 0.03386 0.0
H567 H 0.52064 0.90575 0.16173 0.0
C568 C 0.54586 0.89419 0.21735 0.0
C569 C 0.56787 0.89919 0.23376 0.0
C570 C 0.5549 0.95587 0.04261 0.0
C571 C 0.55136 0.93073 0.14615 0.0
C572 C 0.54695 0.97144 0.99786 0.0
C573 C 0.52797 0.97882 0.00941 0.0
C574 C 0.54336 0.94714 0.09804 0.0
C575 C 0.51698 0.96978 0.06552 0.0
C576 C 0.53753 0.91006 0.17446 0.0
C577 C 0.58083 0.92088 0.20618 0.0
N578 N 0.5247 0.95415 0.10766 0.0
N579 N 0.57247 0.93562 0.16309 0.0
H580 H 0.64441 0.43139 0.04076 0.0
H581 H 0.58107 0.51788 0.82875 0.0
H582 H 0.67733 0.49544 0.92773 0.0
H583 H 0.55292 0.46697 0.98346 0.0
H584 H 0.6157 0.50547 0.84882 0.0
H585 H 0.60989 0.43993 1.00451 0.0
C586 C 0.6444 0.44729 0.00839 0.0
C587 C 0.66385 0.46292 0.98813 0.0
C588 C 0.60184 0.49693 0.8779 0.0
C589 C 0.62425 0.47262 0.94556 0.0
C590 C 0.58214 0.50391 0.86631 0.0
C591 C 0.56429 0.49357 0.90498 0.0
C592 C 0.60343 0.47929 0.92782 0.0
C593 C 0.5664 0.47557 0.95302 0.0
C594 C 0.62467 0.45208 0.9874 0.0
C595 C 0.66277 0.48286 0.94458 0.0
N596 N 0.5856 0.46905 0.96315 0.0
N597 N 0.64328 0.48724 0.92504 0.0
H598 H 0.94932 0.62828 0.06141 0.0
H599 H 0.01755 0.52721 0.06383 0.0
H600 H 0.97989 0.59953 0.22436 0.0
H601 H 0.99209 0.56001 0.89732 0.0
H602 H 0.0029 0.55278 0.12352 0.0
H603 H 0.96339 0.60235 1.00136 0.0
C604 C 0.95878 0.61629 0.08482 0.0
C605 C 0.96328 0.61598 0.14831 0.0
C606 C 0.00049 0.55446 0.07395 0.0
C607 C 0.9798 0.58648 0.07922 0.0
C608 C 0.00885 0.53986 0.03979 0.0
C609 C 0.00594 0.54147 0.97556 0.0
C610 C 0.98903 0.57083 0.04377 0.0
C611 C 0.9946 0.55817 0.94679 0.0
C612 C 0.96698 0.60165 0.05026 0.0
C613 C 0.97609 0.60048 0.17558 0.0
N614 N 0.98649 0.5722 0.98116 0.0
N615 N 0.98386 0.58635 0.14092 0.0
H616 H 0.11514 0.18465 0.63786 0.0
H617 H 0.02043 0.1 0.83219 0.0
H618 H 0.05826 0.21143 0.67012 0.0
H619 H 0.0437 0.07797 0.67022 0.0
H620 H 0.03993 0.14109 0.79776 0.0
H621 H 0.09515 0.14455 0.67648 0.0
C622 C 0.09862 0.18236 0.65318 0.0
C623 C 0.08844 0.20178 0.64945 0.0
C624 C 0.04053 0.12719 0.76977 0.0
C625 C 0.06599 0.156 0.69599 0.0
C626 C 0.02937 0.10394 0.78897 0.0
C627 C 0.03025 0.08582 0.75326 0.0
C628 C 0.05323 0.13198 0.716 0.0
C629 C 0.04233 0.0916 0.69826 0.0
C630 C 0.08732 0.15944 0.67545 0.0
C631 C 0.06714 0.19741 0.67256 0.0
N632 N 0.05368 0.11421 0.68166 0.0
N633 N 0.05665 0.175 0.69491 0.0
H634 H 0.33696 0.92757 0.85555 0.0
H635 H 0.44091 0.97789 0.92885 0.0
H636 H 0.36657 0.92974 0.67799 0.0
H637 H 0.46156 0.94196 0.7881 0.0
H638 H 0.40368 0.95806 0.91251 0.0
H639 H 0.37244 0.92974 0.9039 0.0
C640 C 0.35081 0.92825 0.82676 0.0
C641 C 0.34875 0.92914 0.76223 0.0
C642 C 0.41633 0.95375 0.8867 0.0
C643 C 0.38937 0.93181 0.81721 0.0
C644 C 0.43765 0.96531 0.89561 0.0
C645 C 0.45431 0.96186 0.85902 0.0
C646 C 0.41163 0.9389 0.84023 0.0
C647 C 0.44919 0.94525 0.81701 0.0
C648 C 0.37107 0.92955 0.85443 0.0
C649 C 0.36719 0.9291 0.72776 0.0
N650 N 0.42821 0.93485 0.8076 0.0
N651 N 0.38673 0.9308 0.75557 0.0
H652 H 0.43233 0.27282 0.5555 0.0
H653 H 0.45192 0.41003 0.59997 0.0
H654 H 0.39466 0.32098 0.46457 0.0
H655 H 0.49854 0.36636 0.64776 0.0
H656 H 0.42648 0.37539 0.57017 0.0
H657 H 0.45131 0.30437 0.61292 0.0
C658 C 0.42748 0.28977 0.54934 0.0
C659 C 0.41204 0.29442 0.50485 0.0
C660 C 0.44222 0.37335 0.58748 0.0
C661 C 0.4341 0.33069 0.56894 0.0
C662 C 0.45675 0.39308 0.60446 0.0
C663 C 0.4774 0.39103 0.62602 0.0
C664 C 0.44833 0.35135 0.59229 0.0
C665 C 0.48288 0.36873 0.63052 0.0
C666 C 0.43857 0.30787 0.5814 0.0
C667 C 0.40662 0.3168 0.49808 0.0
N668 N 0.46842 0.34972 0.6137 0.0
N669 N 0.41787 0.33425 0.52911 0.0
H670 H 0.19009 0.60793 0.83654 0.0
H671 H 0.06551 0.59032 0.74386 0.0
H672 H 0.16726 0.62548 0.65143 0.0
H673 H 0.09033 0.54816 0.8954 0.0
H674 H 0.10199 0.61526 0.72575 0.0
H675 H 0.15269 0.59828 0.87356 0.0
C676 C 0.17735 0.61019 0.80378 0.0
C677 C 0.18194 0.61692 0.74034 0.0
C678 C 0.09928 0.60084 0.76377 0.0
C679 C 0.13919 0.60637 0.78284 0.0
C680 C 0.07851 0.5867 0.77423 0.0
C681 C 0.07507 0.56695 0.82046 0.0
C682 C 0.11651 0.59533 0.80046 0.0
C683 C 0.09243 0.56297 0.85853 0.0
C684 C 0.15602 0.60478 0.82509 0.0
C685 C 0.16471 0.62032 0.70065 0.0
N686 N 0.11246 0.57691 0.84735 0.0
N687 N 0.14409 0.61465 0.7224 0.0
H688 H 0.93044 0.81974 0.97458 0.0
H689 H 0.02696 0.93496 0.95111 0.0
H690 H 0.99347 0.81878 0.05288 0.0
H691 H 0.96625 0.93185 0.85475 0.0
H692 H 0.01564 0.8922 0.98748 0.0
H693 H 0.94403 0.86075 0.92704 0.0
C694 C 0.94721 0.82813 0.98113 0.0
C695 C 0.96085 0.81594 0.01766 0.0
C696 C 0.0049 0.90094 0.95807 0.0
C697 C 0.97649 0.86286 0.96429 0.0
C698 C 0.01131 0.92533 0.93761 0.0
C699 C 0.99752 0.93701 0.9001 0.0
C700 C 0.98455 0.88834 0.94104 0.0
C701 C 0.97746 0.92366 0.88361 0.0
C702 C 0.95499 0.85151 0.95406 0.0
C703 C 0.98248 0.82752 0.0245 0.0
N704 N 0.97158 0.90011 0.90437 0.0
N705 N 0.9896 0.85045 0.99858 0.0
H706 H 0.67917 0.12806 0.95771 0.0
H707 H 0.57074 0.08333 0.89709 0.0
H708 H 0.68867 0.06611 0.88156 0.0
H709 H 0.59424 0.03606 0.79245 0.0
H710 H 0.60796 0.10437 0.91098 0.0
H711 H 0.64269 0.12183 0.91531 0.0
C712 C 0.67372 0.1133 0.93166 0.0
C713 C 0.68704 0.09734 0.92454 0.0
C714 C 0.60508 0.08984 0.88359 0.0
C715 C 0.64509 0.08987 0.87634 0.0
C716 C 0.58374 0.07776 0.87585 0.0
C717 C 0.57949 0.05763 0.84481 0.0
C718 C 0.62215 0.0817 0.85959 0.0
C719 C 0.59683 0.05115 0.81802 0.0
C720 C 0.65276 0.10968 0.90757 0.0
C721 C 0.67927 0.07903 0.8885 0.0
N722 N 0.61735 0.06296 0.82668 0.0
N723 N 0.65883 0.07569 0.8666 0.0
H724 H 0.62344 0.7397 0.0761 0.0
H725 H 0.55278 0.60859 0.15642 0.0
H726 H 0.62057 0.69849 0.25715 0.0
H727 H 0.56431 0.64397 0.96941 0.0
H728 H 0.57949 0.6408 0.19301 0.0
H729 H 0.60493 0.70381 0.03362 0.0
C730 C 0.61941 0.72299 0.10658 0.0
C731 C 0.62332 0.72216 0.17034 0.0
C732 C 0.5763 0.64147 0.14389 0.0
C733 C 0.60183 0.68125 0.1225 0.0
C734 C 0.56088 0.62323 0.12316 0.0
C735 C 0.55622 0.62378 0.05997 0.0
C736 C 0.58696 0.66054 0.10117 0.0
C737 C 0.56748 0.6429 0.01858 0.0
C738 C 0.60878 0.70254 0.08241 0.0
C739 C 0.61795 0.70001 0.2077 0.0
N740 N 0.58221 0.66065 0.03997 0.0
N741 N 0.60712 0.68054 0.18342 0.0
H742 H 0.86516 0.40652 0.04027 0.0
H743 H 0.94184 0.47499 0.77001 0.0
H744 H 0.84182 0.42174 0.85465 0.0
H745 H 0.96532 0.43892 0.93522 0.0
H746 H 0.90533 0.45232 0.79577 0.0
H747 H 0.90165 0.41393 0.99963 0.0
C748 C 0.86751 0.41078 0.99073 0.0
C749 C 0.85024 0.41391 0.95108 0.0
C750 C 0.9185 0.44899 0.82583 0.0
C751 C 0.89242 0.42327 0.90447 0.0
C752 C 0.93936 0.46202 0.81127 0.0
C753 C 0.95658 0.45912 0.85111 0.0
C754 C 0.91476 0.43329 0.8813 0.0
C755 C 0.95248 0.44183 0.90345 0.0
C756 C 0.88851 0.4152 0.96757 0.0
C757 C 0.85464 0.41983 0.88735 0.0
N758 N 0.93189 0.42991 0.91773 0.0
N759 N 0.87534 0.4248 0.8662 0.0
H760 H 0.11447 0.24713 0.12342 0.0
H761 H 0.03307 0.12341 0.08542 0.0
H762 H 0.05319 0.22236 0.21887 0.0
H763 H 0.09903 0.14129 0.01972 0.0
H764 H 0.0386 0.16194 0.12346 0.0
H765 H 0.1074 0.21091 0.07379 0.0
C766 C 0.09946 0.23422 0.13369 0.0
C767 C 0.08448 0.23789 0.1759 0.0
C768 C 0.05186 0.15749 0.10057 0.0
C769 C 0.07625 0.19634 0.11871 0.0
C770 C 0.04868 0.13552 0.07853 0.0
C771 C 0.06562 0.12905 0.04932 0.0
C772 C 0.0721 0.17329 0.09319 0.0
C773 C 0.08559 0.1454 0.04256 0.0
C774 C 0.09544 0.21353 0.10522 0.0
C775 C 0.06514 0.22062 0.18624 0.0
N776 N 0.08828 0.16675 0.06428 0.0
N777 N 0.06167 0.2006 0.15821 0.0
H778 H 0.31663 1.00168 0.24584 0.0
H779 H 0.42519 0.0877 0.10279 0.0
H780 H 0.34857 0.06543 0.32 0.0
H781 H 0.39342 0.02316 0.03209 0.0
H782 H 0.39509 0.08251 0.17509 0.0
H783 H 0.34209 0.01213 0.15936 0.0
C784 C 0.32873 0.01813 0.24339 0.0
C785 C 0.33054 0.03259 0.29067 0.0
C786 C 0.39463 0.06958 0.14345 0.0
C787 C 0.36013 0.04441 0.19219 0.0
C788 C 0.41177 0.0726 0.10194 0.0
C789 C 0.41195 0.0557 0.06175 0.0
C790 C 0.37753 0.04953 0.14476 0.0
C791 C 0.39418 0.03637 0.06309 0.0
C792 C 0.34342 0.02398 0.19419 0.0
C793 C 0.3468 0.05352 0.28524 0.0
N794 N 0.37779 0.03374 0.10413 0.0
N795 N 0.36108 0.05868 0.23727 0.0
H796 H 0.45254 0.30942 0.96515 0.0
H797 H 0.47436 0.44795 1.00214 0.0
H798 H 0.46963 0.33627 0.13852 0.0
H799 H 0.48597 0.42323 0.83098 0.0
H800 H 0.46462 0.40638 0.05125 0.0
H801 H 0.45762 0.3507 0.91343 0.0
C802 C 0.45739 0.32401 0.99217 0.0
C803 C 0.461 0.3195 0.05593 0.0
C804 C 0.46909 0.41012 1.00276 0.0
C805 C 0.46625 0.36648 0.99776 0.0
C806 C 0.47445 0.43379 0.97463 0.0
C807 C 0.48107 0.43903 0.91252 0.0
C808 C 0.47002 0.39161 0.9682 0.0
C809 C 0.4811 0.41997 0.87912 0.0
C810 C 0.46026 0.34748 0.96279 0.0
C811 C 0.46709 0.339 0.08905 0.0
N812 N 0.4757 0.39711 0.90735 0.0
N813 N 0.46943 0.36162 0.05968 0.0
H814 H 0.22052 0.52115 0.27661 0.0
H815 H 0.10054 0.51138 0.1424 0.0
H816 H 0.17152 0.55191 0.34746 0.0
H817 H 0.14772 0.48071 0.06193 0.0
H818 H 0.1269 0.52556 0.2188 0.0
H819 H 0.19496 0.50603 0.19722 0.0
C820 C 0.20447 0.52482 0.27526 0.0
C821 C 0.19805 0.53757 0.31915 0.0
C822 C 0.13162 0.51574 0.18458 0.0
C823 C 0.16882 0.52028 0.22919 0.0
C824 C 0.11654 0.50769 0.14072 0.0
C825 C 0.12202 0.4951 0.09523 0.0
C826 C 0.15247 0.51121 0.1834 0.0
C827 C 0.14285 0.49035 0.0963 0.0
C828 C 0.18987 0.51608 0.23026 0.0
C829 C 0.17705 0.54176 0.31545 0.0
N830 N 0.15741 0.49854 0.13956 0.0
N831 N 0.16325 0.53311 0.27153 0.0
H832 H 0.91822 0.77967 0.53741 0.0
H833 H 0.98475 0.91471 0.51744 0.0
H834 H 0.97646 0.80775 0.42927 0.0
H835 H 0.93169 0.88494 0.64453 0.0
H836 H 0.98121 0.87577 0.48281 0.0
H837 H 0.92252 0.81795 0.57703 0.0
C838 C 0.93201 0.79379 0.52242 0.0
C839 C 0.94703 0.7904 0.48006 0.0
C840 C 0.97034 0.87772 0.51831 0.0
C841 C 0.95195 0.83437 0.52475 0.0
C842 C 0.97222 0.90004 0.53771 0.0
C843 C 0.95846 0.90317 0.58388 0.0
C844 C 0.95448 0.85831 0.54492 0.0
C845 C 0.94277 0.88333 0.60921 0.0
C846 C 0.93446 0.81564 0.54506 0.0
C847 C 0.96464 0.80935 0.46253 0.0
N848 N 0.94118 0.86179 0.5893 0.0
N849 N 0.96651 0.8305 0.48455 0.0
H850 H 0.72032 0.02552 0.46963 0.0
H851 H 0.60382 0.94447 0.56193 0.0
H852 H 0.68474 0.97511 0.35629 0.0
H853 H 0.64169 0.99212 0.67851 0.0
H854 H 0.63456 0.95232 0.49071 0.0
H855 H 0.69309 1.01059 0.55097 0.0
C856 C 0.70685 1.01115 0.46213 0.0
C857 C 0.7047 1.00169 0.40592 0.0
C858 C 0.63621 0.96089 0.53217 0.0
C859 C 0.67332 0.98456 0.49874 0.0
C860 C 0.61869 0.95631 0.57304 0.0
C861 C 0.62007 0.96786 0.62598 0.0
C862 C 0.65524 0.97717 0.54423 0.0
C863 C 0.63971 0.9832 0.63764 0.0
C864 C 0.69131 1.00259 0.50862 0.0
C865 C 0.68708 0.98285 0.39901 0.0
N866 N 0.65642 0.98753 0.59691 0.0
N867 N 0.67192 0.97509 0.44457 0.0
H868 H 0.60096 0.68818 0.56244 0.0
H869 H 0.52353 0.59706 0.81145 0.0
H870 H 0.54956 0.70746 0.65639 0.0
H871 H 0.56062 0.57428 0.67681 0.0
H872 H 0.5361 0.63823 0.76427 0.0
H873 H 0.58961 0.64723 0.61322 0.0
C874 C 0.58742 0.68386 0.59438 0.0
C875 C 0.57628 0.70136 0.60552 0.0
C876 C 0.54149 0.62424 0.74506 0.0
C877 C 0.56308 0.65433 0.66349 0.0
C878 C 0.53439 0.60066 0.77209 0.0
C879 C 0.54096 0.58203 0.748 0.0
C880 C 0.55549 0.62942 0.69386 0.0
C881 C 0.55505 0.58798 0.69686 0.0
C882 C 0.58084 0.66042 0.62291 0.0
C883 C 0.55857 0.69456 0.64636 0.0
N884 N 0.56188 0.61114 0.67162 0.0
N885 N 0.55258 0.67161 0.67407 0.0
H886 H 0.80959 0.45276 0.45191 0.0
H887 H 0.90742 0.55898 0.51979 0.0
H888 H 0.82986 0.51788 0.32689 0.0
H889 H 0.8897 0.49227 0.6401 0.0
H890 H 0.87652 0.54597 0.45424 0.0
H891 H 0.83637 0.46858 0.52659 0.0
C892 C 0.81957 0.47044 0.44027 0.0
C893 C 0.81753 0.48392 0.38275 0.0
C894 C 0.8793 0.53423 0.49518 0.0
C895 C 0.84822 0.50219 0.46822 0.0
C896 C 0.89688 0.54171 0.53288 0.0
C897 C 0.90127 0.52664 0.58538 0.0
C898 C 0.86596 0.51149 0.50998 0.0
C899 C 0.88717 0.50432 0.59952 0.0
C900 C 0.83482 0.47949 0.48303 0.0
C901 C 0.83067 0.5069 0.37076 0.0
N902 N 0.87023 0.49739 0.56192 0.0
N903 N 0.84555 0.51521 0.41286 0.0
loop_
_geom_bond_atom_site_label_1
_geom_bond_atom_site_label_2
_geom_bond_distance
_geom_bond_site_symmetry_2
_ccdc_geom_bond_type
C0 C1 1.386 . S
C0 C2 1.397 . S
C0 H24 0.931 . S
C1 C0 1.386 . S
C1 C5 1.397 . S
C2 C0 1.397 . S
C2 C3 1.384 . S
C2 H25 0.930 . S
C3 C2 1.384 . S
C3 C4 1.377 . S
C3 C6 1.481 1_556 S
C4 C3 1.377 . S
C4 C5 1.389 . S
C4 H26 0.929 1_556 S
C5 C1 1.397 . S
C5 C4 1.389 . S
C5 H27 0.931 . S
C6 C3 1.481 1_554 S
C6 C7 1.387 . S
C6 C11 1.390 . S
C7 C6 1.387 . S
C7 C8 1.401 . S
C7 H28 0.930 1_554 S
C8 C7 1.401 . S
C8 C9 1.376 . S
C8 C17 1.511 . S
C9 C8 1.376 . S
C9 C10 1.392 . S
C9 H30 0.931 . S
C10 C9 1.392 . S
C10 C11 1.361 . S
C10 C12 1.500 . S
C11 C6 1.390 . S
C11 C10 1.361 . S
C11 H29 0.931 . S
C12 C10 1.500 . S
C12 C13 1.371 . S
C12 C14 1.365 . S
C13 C12 1.371 . S
C13 C23 1.386 . S
C13 H31 0.931 . S
C14 C12 1.365 . S
C14 C15 1.409 . S
C14 H32 0.929 . S
C15 C14 1.409 . S
C15 C16 1.380 . S
C15 H33 0.930 . S
C16 C15 1.380 . S
C16 C23 1.357 . S
C17 C8 1.511 . S
C17 C18 1.341 1_554 S
C17 C19 1.371 . S
C18 C17 1.341 1_556 S
C18 C22 1.394 . S
C18 H34 0.930 . S
C19 C17 1.371 . S
C19 C20 1.392 . S
C19 H35 0.931 . S
C20 C19 1.392 . S
C20 C21 1.331 . S
C20 H38 0.932 . S
C21 C20 1.331 . S
C21 C22 1.336 1_554 S
C22 C18 1.394 . S
C22 C21 1.336 1_556 S
C22 H37 0.929 . S
C23 C13 1.386 . S
C23 C16 1.357 . S
C23 H36 0.928 . S
H24 C0 0.931 . S
H25 C2 0.930 . S
H26 C4 0.929 1_554 S
H27 C5 0.931 . S
H28 C7 0.930 1_556 S
H29 C11 0.931 . S
H30 C9 0.931 . S
H31 C13 0.931 . S
H32 C14 0.929 . S
H33 C15 0.930 . S
H34 C18 0.930 . S
H35 C19 0.931 . S
H36 C23 0.928 . S
H37 C22 0.929 . S
H38 C20 0.932 . S
C39 C40 1.386 . S
C39 C41 1.397 . S
C39 H63 0.931 . S
C40 C39 1.386 . S
C40 C44 1.397 . S
C41 C39 1.397 . S
C41 C42 1.384 . S
C41 H64 0.930 . S
C42 C41 1.384 . S
C42 C43 1.377 . S
C42 C45 1.481 1_556 S
C43 C42 1.377 . S
C43 C44 1.389 . S
C43 H65 0.929 1_556 S
C44 C40 1.397 . S
C44 C43 1.389 . S
C44 H66 0.931 . S
C45 C42 1.481 1_554 S
C45 C46 1.387 . S
C45 C50 1.390 . S
C46 C45 1.387 . S
C46 C47 1.401 . S
C46 H67 0.930 1_554 S
C47 C46 1.401 . S
C47 C48 1.376 . S
C47 C56 1.511 . S
C48 C47 1.376 . S
C48 C49 1.392 . S
C48 H69 0.931 . S
C49 C48 1.392 . S
C49 C50 1.361 . S
C49 C51 1.500 . S
C50 C45 1.390 . S
C50 C49 1.361 . S
C50 H68 0.931 . S
C51 C49 1.500 . S
C51 C52 1.371 . S
C51 C53 1.365 . S
C52 C51 1.371 . S
C52 C62 1.386 . S
C52 H70 0.931 . S
C53 C51 1.365 . S
C53 C54 1.409 . S
C53 H71 0.929 . S
C54 C53 1.409 . S
C54 C55 1.380 . S
C54 H72 0.930 . S
C55 C54 1.380 . S
C55 C62 1.357 . S
C56 C47 1.511 . S
C56 C57 1.340 1_554 S
C56 C58 1.371 . S
C57 C56 1.340 1_556 S
C57 C61 1.394 . S
C57 H73 0.931 . S
C58 C56 1.371 . S
C58 C59 1.392 . S
C58 H74 0.931 . S
C59 C58 1.392 . S
C59 C60 1.331 . S
C59 H77 0.932 . S
C60 C59 1.331 . S
C60 C61 1.336 1_554 S
C61 C57 1.394 . S
C61 C60 1.336 1_556 S
C61 H76 0.929 . S
C62 C52 1.386 . S
C62 C55 1.357 . S
C62 H75 0.928 . S
H63 C39 0.931 . S
H64 C41 0.930 . S
H65 C43 0.929 1_554 S
H66 C44 0.931 . S
H67 C46 0.930 1_556 S
H68 C50 0.931 . S
H69 C48 0.931 . S
H70 C52 0.931 . S
H71 C53 0.929 . S
H72 C54 0.930 . S
H73 C57 0.931 . S
H74 C58 0.931 . S
H75 C62 0.928 . S
H76 C61 0.929 . S
H77 C59 0.932 . S
C78 C79 1.397 . S
C78 C80 1.397 . S
C78 H102 0.931 . S
C79 C78 1.397 . S
C79 C83 1.387 1_565 S
C80 C78 1.397 . S
C80 C81 1.390 . S
C80 H103 0.930 . S
C81 C80 1.390 . S
C81 C82 1.371 1_565 S
C81 C84 1.479 . S
C82 C81 1.371 1_545 S
C82 C83 1.389 . S
C82 H104 0.929 . S
C83 C79 1.387 1_545 S
C83 C82 1.389 . S
C83 H105 0.931 . S
C84 C81 1.479 . S
C84 C85 1.397 . S
C84 C89 1.386 1_556 S
C85 C84 1.397 . S
C85 C86 1.401 . S
C85 H106 0.930 . S
C86 C85 1.401 . S
C86 C87 1.379 1_556 S
C86 C95 1.521 . S
C87 C86 1.379 1_554 S
C87 C88 1.381 . S
C87 H108 0.936 . S
C88 C87 1.381 . S
C88 C89 1.361 . S
C88 C90 1.494 1_565 S
C89 C84 1.386 1_554 S
C89 C88 1.361 . S
C89 H107 0.929 . S
C90 C88 1.494 1_545 S
C90 C91 1.362 1_545 S
C90 C92 1.379 . S
C91 C90 1.362 1_565 S
C91 C101 1.386 . S
C91 H109 0.931 . S
C92 C90 1.379 . S
C92 C93 1.409 . S
C92 H110 0.929 . S
C93 C92 1.409 . S
C93 C94 1.379 . S
C93 H111 0.930 . S
C94 C93 1.379 . S
C94 C101 1.359 1_545 S
C95 C86 1.521 . S
C95 C96 1.341 . S
C95 C97 1.371 1_566 S
C96 C95 1.341 . S
C96 C100 1.394 . S
C96 H112 0.930 . S
C97 C95 1.371 1_544 S
C97 C98 1.392 1_554 S
C97 H113 0.931 . S
C98 C97 1.392 1_556 S
C98 C99 1.316 1_545 S
C98 H116 0.932 1_556 S
C99 C98 1.316 1_565 S
C99 C100 1.344 . S
C100 C96 1.394 . S
C100 C99 1.344 . S
C100 H115 0.929 . S
C101 C91 1.386 . S
C101 C94 1.359 1_565 S
C101 H114 0.928 . S
H102 C78 0.931 . S
H103 C80 0.930 . S
H104 C82 0.929 . S
H105 C83 0.931 . S
H106 C85 0.930 . S
H107 C89 0.929 . S
H108 C87 0.936 . S
H109 C91 0.931 . S
H110 C92 0.929 . S
H111 C93 0.930 . S
H112 C96 0.930 . S
H113 C97 0.931 . S
H114 C101 0.928 . S
H115 C100 0.929 . S
H116 C98 0.932 1_554 S
C117 C118 1.386 . S
C117 C119 1.397 . S
C117 H141 0.931 . S
C118 C117 1.386 . S
C118 C122 1.397 . S
C119 C117 1.397 . S
C119 C120 1.384 . S
C119 H142 0.930 . S
C120 C119 1.384 . S
C120 C121 1.377 . S
C120 C123 1.481 . S
C121 C120 1.377 . S
C121 C122 1.389 . S
C121 H143 0.929 . S
C122 C118 1.397 . S
C122 C121 1.389 . S
C122 H144 0.931 . S
C123 C120 1.481 . S
C123 C124 1.387 . S
C123 C128 1.390 . S
C124 C123 1.387 . S
C124 C125 1.401 . S
C124 H145 0.930 . S
C125 C124 1.401 . S
C125 C126 1.376 . S
C125 C134 1.511 . S
C126 C125 1.376 . S
C126 C127 1.392 . S
C126 H147 0.931 . S
C127 C126 1.392 . S
C127 C128 1.361 . S
C127 C129 1.500 . S
C128 C123 1.390 . S
C128 C127 1.361 . S
C128 H146 0.931 . S
C129 C127 1.500 . S
C129 C130 1.371 . S
C129 C131 1.365 . S
C130 C129 1.371 . S
C130 C140 1.386 . S
C130 H148 0.931 . S
C131 C129 1.365 . S
C131 C132 1.409 . S
C131 H149 0.929 . S
C132 C131 1.409 . S
C132 C133 1.380 . S
C132 H150 0.930 . S
C133 C132 1.380 . S
C133 C140 1.357 . S
C134 C125 1.511 . S
C134 C135 1.341 . S
C134 C136 1.371 . S
C135 C134 1.341 . S
C135 C139 1.394 . S
C135 H151 0.930 . S
C136 C134 1.371 . S
C136 C137 1.392 . S
C136 H152 0.931 . S
C137 C136 1.392 . S
C137 C138 1.331 . S
C137 H155 0.932 . S
C138 C137 1.331 . S
C138 C139 1.336 . S
C139 C135 1.394 . S
C139 C138 1.336 . S
C139 H154 0.929 . S
C140 C130 1.386 . S
C140 C133 1.357 . S
C140 H153 0.928 . S
H141 C117 0.931 . S
H142 C119 0.930 . S
H143 C121 0.929 . S
H144 C122 0.931 . S
H145 C124 0.930 . S
H146 C128 0.931 . S
H147 C126 0.931 . S
H148 C130 0.931 . S
H149 C131 0.929 . S
H150 C132 0.930 . S
H151 C135 0.930 . S
H152 C136 0.931 . S
H153 C140 0.928 . S
H154 C139 0.929 . S
H155 C137 0.932 . S
C156 C157 1.386 . S
C156 C158 1.397 . S
C156 H180 0.931 . S
C157 C156 1.386 . S
C157 C161 1.397 . S
C158 C156 1.397 . S
C158 C159 1.384 . S
C158 H181 0.930 . S
C159 C158 1.384 . S
C159 C160 1.377 . S
C159 C162 1.481 . S
C160 C159 1.377 . S
C160 C161 1.389 . S
C160 H182 0.929 . S
C161 C157 1.397 . S
C161 C160 1.389 . S
C161 H183 0.931 . S
C162 C159 1.481 . S
C162 C163 1.387 . S
C162 C167 1.390 . S
C163 C162 1.387 . S
C163 C164 1.401 . S
C163 H184 0.930 . S
C164 C163 1.401 . S
C164 C165 1.376 . S
C164 C173 1.511 . S
C165 C164 1.376 . S
C165 C166 1.392 . S
C165 H186 0.931 . S
C166 C165 1.392 . S
C166 C167 1.361 . S
C166 C168 1.500 . S
C167 C162 1.390 . S
C167 C166 1.361 . S
C167 H185 0.931 . S
C168 C166 1.500 . S
C168 C169 1.371 . S
C168 C170 1.365 . S
C169 C168 1.371 . S
C169 C179 1.386 . S
C169 H187 0.931 . S
C170 C168 1.365 . S
C170 C171 1.409 . S
C170 H188 0.929 . S
C171 C170 1.409 . S
C171 C172 1.380 . S
C171 H189 0.930 . S
C172 C171 1.380 . S
C172 C179 1.357 . S
C173 C164 1.511 . S
C173 C174 1.341 . S
C173 C175 1.371 . S
C174 C173 1.341 . S
C174 C178 1.394 . S
C174 H190 0.930 . S
C175 C173 1.371 . S
C175 C176 1.392 . S
C175 H191 0.931 . S
C176 C175 1.392 . S
C176 C177 1.331 . S
C176 H194 0.932 . S
C177 C176 1.331 . S
C177 C178 1.336 . S
C178 C174 1.394 . S
C178 C177 1.336 . S
C178 H193 0.929 . S
C179 C169 1.386 . S
C179 C172 1.357 . S
C179 H192 0.928 . S
H180 C156 0.931 . S
H181 C158 0.930 . S
H182 C160 0.929 . S
H183 C161 0.931 . S
H184 C163 0.930 . S
H185 C167 0.931 . S
H186 C165 0.931 . S
H187 C169 0.931 . S
H188 C170 0.929 . S
H189 C171 0.930 . S
H190 C174 0.930 . S
H191 C175 0.931 . S
H192 C179 0.928 . S
H193 C178 0.929 . S
H194 C176 0.932 . S
C195 C196 1.386 . S
C195 C197 1.397 . S
C195 H219 0.931 . S
C196 C195 1.386 . S
C196 C200 1.397 . S
C197 C195 1.397 . S
C197 C198 1.384 . S
C197 H220 0.930 . S
C198 C197 1.384 . S
C198 C199 1.377 . S
C198 C201 1.481 . S
C199 C198 1.377 . S
C199 C200 1.389 . S
C199 H221 0.929 . S
C200 C196 1.397 . S
C200 C199 1.389 . S
C200 H222 0.931 . S
C201 C198 1.481 . S
C201 C202 1.387 . S
C201 C206 1.390 . S
C202 C201 1.387 . S
C202 C203 1.401 . S
C202 H223 0.930 . S
C203 C202 1.401 . S
C203 C204 1.376 . S
C203 C212 1.511 . S
C204 C203 1.376 . S
C204 C205 1.392 . S
C204 H225 0.931 . S
C205 C204 1.392 . S
C205 C206 1.361 . S
C205 C207 1.500 . S
C206 C201 1.390 . S
C206 C205 1.361 . S
C206 H224 0.931 . S
C207 C205 1.500 . S
C207 C208 1.371 . S
C207 C209 1.365 . S
C208 C207 1.371 . S
C208 C218 1.386 . S
C208 H226 0.931 . S
C209 C207 1.365 . S
C209 C210 1.409 . S
C209 H227 0.929 . S
C210 C209 1.409 . S
C210 C211 1.380 . S
C210 H228 0.930 . S
C211 C210 1.380 . S
C211 C218 1.357 . S
C212 C203 1.511 . S
C212 C213 1.341 . S
C212 C214 1.371 . S
C213 C212 1.341 . S
C213 C217 1.394 . S
C213 H229 0.930 . S
C214 C212 1.371 . S
C214 C215 1.392 . S
C214 H230 0.931 . S
C215 C214 1.392 . S
C215 C216 1.331 . S
C215 H233 0.932 . S
C216 C215 1.331 . S
C216 C217 1.336 . S
C217 C213 1.394 . S
C217 C216 1.336 . S
C217 H232 0.929 . S
C218 C208 1.386 . S
C218 C211 1.357 . S
C218 H231 0.928 . S
H219 C195 0.931 . S
H220 C197 0.930 . S
H221 C199 0.929 . S
H222 C200 0.931 . S
H223 C202 0.930 . S
H224 C206 0.931 . S
H225 C204 0.931 . S
H226 C208 0.931 . S
H227 C209 0.929 . S
H228 C210 0.930 . S
H229 C213 0.930 . S
H230 C214 0.931 . S
H231 C218 0.928 . S
H232 C217 0.929 . S
H233 C215 0.932 . S
C234 C235 1.387 . S
C234 C236 1.397 . S
C234 H258 0.931 . S
C235 C234 1.387 . S
C235 C239 1.396 1_565 S
C236 C234 1.397 . S
C236 C237 1.382 . S
C236 H259 0.930 . S
C237 C236 1.382 . S
C237 C238 1.379 1_565 S
C237 C240 1.481 . S
C238 C237 1.379 1_545 S
C238 C239 1.389 . S
C238 H260 0.929 . S
C239 C235 1.396 1_545 S
C239 C238 1.389 . S
C239 H261 0.931 . S
C240 C237 1.481 . S
C240 C241 1.382 . S
C240 C245 1.394 . S
C241 C240 1.382 . S
C241 C242 1.403 . S
C241 H262 0.930 . S
C242 C241 1.403 . S
C242 C243 1.373 . S
C242 C251 1.507 . S
C243 C242 1.373 . S
C243 C244 1.399 1_565 S
C243 H264 0.932 . S
C244 C243 1.399 1_545 S
C244 C245 1.361 1_545 S
C244 C246 1.507 . S
C245 C240 1.394 . S
C245 C244 1.361 1_565 S
C245 H263 0.933 . S
C246 C244 1.507 . S
C246 C247 1.357 1_545 S
C246 C248 1.373 . S
C247 C246 1.357 1_565 S
C247 C257 1.386 . S
C247 H265 0.931 . S
C248 C246 1.373 . S
C248 C249 1.409 . S
C248 H266 0.929 . S
C249 C248 1.409 . S
C249 C250 1.384 . S
C249 H267 0.930 . S
C250 C249 1.384 . S
C250 C257 1.355 1_545 S
C251 C242 1.507 . S
C251 C252 1.341 . S
C251 C253 1.371 1_565 S
C252 C251 1.341 . S
C252 C256 1.394 . S
C252 H268 0.930 . S
C253 C251 1.371 1_545 S
C253 C254 1.392 . S
C253 H269 0.931 . S
C254 C253 1.392 . S
C254 C255 1.329 1_545 S
C254 H272 0.932 . S
C255 C254 1.329 1_565 S
C255 C256 1.343 . S
C256 C252 1.394 . S
C256 C255 1.343 . S
C256 H271 0.929 . S
C257 C247 1.386 . S
C257 C250 1.355 1_565 S
C257 H270 0.928 . S
H258 C234 0.931 . S
H259 C236 0.930 . S
H260 C238 0.929 . S
H261 C239 0.931 . S
H262 C241 0.930 . S
H263 C245 0.933 . S
H264 C243 0.932 . S
H265 C247 0.931 . S
H266 C248 0.929 . S
H267 C249 0.930 . S
H268 C252 0.930 . S
H269 C253 0.931 . S
H270 C257 0.928 . S
H271 C256 0.929 . S
H272 C254 0.932 . S
C273 C274 1.386 . S
C273 C275 1.397 . S
C273 H297 0.931 . S
C274 C273 1.386 . S
C274 C278 1.397 . S
C275 C273 1.397 . S
C275 C276 1.384 . S
C275 H298 0.930 . S
C276 C275 1.384 . S
C276 C277 1.377 . S
C276 C279 1.481 . S
C277 C276 1.377 . S
C277 C278 1.389 . S
C277 H299 0.929 . S
C278 C274 1.397 . S
C278 C277 1.389 . S
C278 H300 0.931 . S
C279 C276 1.481 . S
C279 C280 1.387 . S
C279 C284 1.390 . S
C280 C279 1.387 . S
C280 C281 1.401 . S
C280 H301 0.930 . S
C281 C280 1.401 . S
C281 C282 1.376 . S
C281 C290 1.511 . S
C282 C281 1.376 . S
C282 C283 1.392 . S
C282 H303 0.931 . S
C283 C282 1.392 . S
C283 C284 1.361 . S
C283 C285 1.500 . S
C284 C279 1.390 . S
C284 C283 1.361 . S
C284 H302 0.931 . S
C285 C283 1.500 . S
C285 C286 1.371 . S
C285 C287 1.365 . S
C286 C285 1.371 . S
C286 C296 1.386 . S
C286 H304 0.931 . S
C287 C285 1.365 . S
C287 C288 1.409 . S
C287 H305 0.929 . S
C288 C287 1.409 . S
C288 C289 1.380 . S
C288 H306 0.930 . S
C289 C288 1.380 . S
C289 C296 1.357 . S
C290 C281 1.511 . S
C290 C291 1.341 . S
C290 C292 1.371 . S
C291 C290 1.341 . S
C291 C295 1.394 . S
C291 H307 0.930 . S
C292 C290 1.371 . S
C292 C293 1.392 . S
C292 H308 0.931 . S
C293 C292 1.392 . S
C293 C294 1.331 . S
C293 H311 0.932 . S
C294 C293 1.331 . S
C294 C295 1.336 . S
C295 C291 1.394 . S
C295 C294 1.336 . S
C295 H310 0.929 . S
C296 C286 1.386 . S
C296 C289 1.357 . S
C296 H309 0.928 . S
H297 C273 0.931 . S
H298 C275 0.930 . S
H299 C277 0.929 . S
H300 C278 0.931 . S
H301 C280 0.930 . S
H302 C284 0.931 . S
H303 C282 0.931 . S
H304 C286 0.931 . S
H305 C287 0.929 . S
H306 C288 0.930 . S
H307 C291 0.930 . S
H308 C292 0.931 . S
H309 C296 0.928 . S
H310 C295 0.929 . S
H311 C293 0.932 . S
Nd312 C314 2.836 1_455 S
Nd312 O332 2.500 1_455 S
Nd312 O333 2.492 . S
Nd312 O334 2.487 . S
Nd312 O335 2.682 1_565 S
Nd312 O336 2.410 . S
Nd312 O341 2.414 1_455 S
Nd312 O343 2.424 1_565 S
Nd313 C323 2.836 . S
Nd313 O335 2.414 . S
Nd313 O337 2.424 1_545 S
Nd313 O338 2.500 . S
Nd313 O339 2.492 . S
Nd313 O340 2.487 1_455 S
Nd313 O341 2.682 1_445 S
Nd313 O342 2.410 . S
C314 Nd312 2.836 1_655 S
C314 C315 1.498 . S
C314 O332 1.258 . S
C314 O333 1.239 1_655 S
C315 C314 1.498 . S
C315 C316 1.366 . S
C315 C320 1.407 . S
C316 C315 1.366 . S
C316 C317 1.392 . S
C316 H344 0.930 . S
C317 C316 1.392 . S
C317 C318 1.398 . S
C317 H345 0.929 . S
C318 C317 1.398 . S
C318 C319 1.352 . S
C319 C318 1.352 . S
C319 C320 1.384 . S
C319 H346 0.930 . S
C320 C315 1.407 . S
C320 C319 1.384 . S
C320 H347 0.929 1_655 S
C321 O334 1.241 . S
C321 O335 1.273 1_565 S
C322 O336 1.251 . S
C322 O337 1.268 . S
C323 Nd313 2.836 . S
C323 C324 1.498 1_556 S
C323 O338 1.258 . S
C323 O339 1.239 . S
C324 C323 1.498 1_554 S
C324 C325 1.368 . S
C324 C329 1.407 . S
C325 C324 1.368 . S
C325 C326 1.397 . S
C325 H348 0.924 1_554 S
C326 C325 1.397 . S
C326 C327 1.398 . S
C326 H349 0.929 . S
C327 C326 1.398 . S
C327 C328 1.352 . S
C328 C327 1.352 . S
C328 C329 1.384 . S
C328 H350 0.930 . S
C329 C324 1.407 . S
C329 C328 1.384 . S
C329 H351 0.929 . S
C330 O340 1.241 . S
C330 O341 1.273 1_545 S
C331 O342 1.251 . S
C331 O343 1.268 . S
O332 Nd312 2.500 1_655 S
O332 C314 1.258 . S
O333 Nd312 2.492 . S
O333 C314 1.239 1_455 S
O334 Nd312 2.487 . S
O334 C321 1.241 . S
O335 Nd312 2.682 1_545 S
O335 Nd313 2.414 . S
O335 C321 1.273 1_545 S
O336 Nd312 2.410 . S
O336 C322 1.251 . S
O337 Nd313 2.424 1_565 S
O337 C322 1.268 . S
O338 Nd313 2.500 . S
O338 C323 1.258 . S
O339 Nd313 2.492 . S
O339 C323 1.239 . S
O340 Nd313 2.487 1_655 S
O340 C330 1.241 . S
O341 Nd312 2.414 1_655 S
O341 Nd313 2.682 1_665 S
O341 C330 1.273 1_565 S
O342 Nd313 2.410 . S
O342 C331 1.251 . S
O343 Nd312 2.424 1_545 S
O343 C331 1.268 . S
H344 C316 0.930 . S
H345 C317 0.929 . S
H346 C319 0.930 . S
H347 C320 0.929 1_455 S
H348 C325 0.924 1_556 S
H349 C326 0.929 . S
H350 C328 0.930 . S
H351 C329 0.929 . S
Nd352 C354 2.836 . S
Nd352 O372 2.500 . S
Nd352 O373 2.492 . S
Nd352 O374 2.487 1_565 S
Nd352 O375 2.682 1_565 S
Nd352 O376 2.410 1_565 S
Nd352 O381 2.414 . S
Nd352 O383 2.424 . S
Nd353 C363 2.836 . S
Nd353 O375 2.414 . S
Nd353 O377 2.424 . S
Nd353 O378 2.500 . S
Nd353 O379 2.492 1_556 S
Nd353 O380 2.487 1_545 S
Nd353 O381 2.682 1_545 S
Nd353 O382 2.410 1_545 S
C354 Nd352 2.836 . S
C354 C355 1.498 . S
C354 O372 1.258 . S
C354 O373 1.239 . S
C355 C354 1.498 . S
C355 C356 1.366 . S
C355 C360 1.407 . S
C356 C355 1.366 . S
C356 C357 1.392 . S
C356 H384 0.930 . S
C357 C356 1.392 . S
C357 C358 1.398 . S
C357 H385 0.929 . S
C358 C357 1.398 . S
C358 C359 1.352 . S
C359 C358 1.352 . S
C359 C360 1.384 . S
C359 H386 0.930 . S
C360 C355 1.407 . S
C360 C359 1.384 . S
C360 H387 0.929 1_565 S
C361 O374 1.241 . S
C361 O375 1.273 . S
C362 O376 1.251 . S
C362 O377 1.268 . S
C363 Nd353 2.836 . S
C363 C364 1.498 1_556 S
C363 O378 1.258 . S
C363 O379 1.239 1_556 S
C364 C363 1.498 1_554 S
C364 C365 1.366 1_554 S
C364 C369 1.407 . S
C365 C364 1.366 1_556 S
C365 C366 1.392 1_556 S
C365 H388 0.930 . S
C366 C365 1.392 1_554 S
C366 C367 1.398 . S
C366 H389 0.929 . S
C367 C366 1.398 . S
C367 C368 1.352 . S
C368 C367 1.352 . S
C368 C369 1.384 . S
C368 H390 0.930 . S
C369 C364 1.407 . S
C369 C368 1.384 . S
C369 H391 0.929 1_545 S
C370 O380 1.241 . S
C370 O381 1.273 . S
C371 O382 1.251 . S
C371 O383 1.268 . S
O372 Nd352 2.500 . S
O372 C354 1.258 . S
O373 Nd352 2.492 . S
O373 C354 1.239 . S
O374 Nd352 2.487 1_545 S
O374 C361 1.241 . S
O375 Nd352 2.682 1_545 S
O375 Nd353 2.414 . S
O375 C361 1.273 . S
O376 Nd352 2.410 1_545 S
O376 C362 1.251 . S
O377 Nd353 2.424 . S
O377 C362 1.268 . S
O378 Nd353 2.500 . S
O378 C363 1.258 . S
O379 Nd353 2.492 1_554 S
O379 C363 1.239 1_554 S
O380 Nd353 2.487 1_565 S
O380 C370 1.241 . S
O381 Nd352 2.414 . S
O381 Nd353 2.682 1_565 S
O381 C370 1.273 . S
O382 Nd353 2.410 1_565 S
O382 C371 1.251 . S
O383 Nd352 2.424 . S
O383 C371 1.268 . S
H384 C356 0.930 . S
H385 C357 0.929 . S
H386 C359 0.930 . S
H387 C360 0.929 1_545 S
H388 C365 0.930 . S
H389 C366 0.929 . S
H390 C368 0.930 . S
H391 C369 0.929 1_565 S
Nd392 C394 2.836 . S
Nd392 O412 2.500 . S
Nd392 O413 2.492 . S
Nd392 O414 2.487 . S
Nd392 O415 2.682 . S
Nd392 O416 2.410 . S
Nd392 O421 2.414 . S
Nd392 O423 2.424 . S
Nd393 C403 2.836 . S
Nd393 O415 2.414 . S
Nd393 O417 2.424 . S
Nd393 O418 2.500 . S
Nd393 O419 2.492 . S
Nd393 O420 2.487 . S
Nd393 O421 2.682 . S
Nd393 O422 2.410 . S
C394 Nd392 2.836 . S
C394 C395 1.498 . S
C394 O412 1.258 . S
C394 O413 1.239 . S
C395 C394 1.498 . S
C395 C396 1.366 . S
C395 C400 1.407 1_556 S
C396 C395 1.366 . S
C396 C397 1.392 . S
C396 H424 0.930 . S
C397 C396 1.392 . S
C397 C398 1.404 . S
C397 H425 0.929 . S
C398 C397 1.404 . S
C398 C399 1.350 1_556 S
C399 C398 1.350 1_554 S
C399 C400 1.384 . S
C399 H426 0.930 . S
C400 C395 1.407 1_554 S
C400 C399 1.384 . S
C400 H427 0.929 . S
C401 O414 1.241 . S
C401 O415 1.273 . S
C402 O416 1.251 . S
C402 O417 1.268 . S
C403 Nd393 2.836 . S
C403 C404 1.498 . S
C403 O418 1.258 . S
C403 O419 1.239 . S
C404 C403 1.498 . S
C404 C405 1.366 . S
C404 C409 1.407 . S
C405 C404 1.366 . S
C405 C406 1.392 . S
C405 H428 0.930 . S
C406 C405 1.392 . S
C406 C407 1.398 . S
C406 H429 0.929 . S
C407 C406 1.398 . S
C407 C408 1.352 . S
C408 C407 1.352 . S
C408 C409 1.384 . S
C408 H430 0.930 . S
C409 C404 1.407 . S
C409 C408 1.384 . S
C409 H431 0.929 . S
C410 O420 1.241 . S
C410 O421 1.273 . S
C411 O422 1.251 . S
C411 O423 1.268 . S
O412 Nd392 2.500 . S
O412 C394 1.258 . S
O413 Nd392 2.492 . S
O413 C394 1.239 . S
O414 Nd392 2.487 . S
O414 C401 1.241 . S
O415 Nd392 2.682 . S
O415 Nd393 2.414 . S
O415 C401 1.273 . S
O416 Nd392 2.410 . S
O416 C402 1.251 . S
O417 Nd393 2.424 . S
O417 C402 1.268 . S
O418 Nd393 2.500 . S
O418 C403 1.258 . S
O419 Nd393 2.492 . S
O419 C403 1.239 . S
O420 Nd393 2.487 . S
O420 C410 1.241 . S
O421 Nd392 2.414 . S
O421 Nd393 2.682 . S
O421 C410 1.273 . S
O422 Nd393 2.410 . S
O422 C411 1.251 . S
O423 Nd392 2.424 . S
O423 C411 1.268 . S
H424 C396 0.930 . S
H425 C397 0.929 . S
H426 C399 0.930 . S
H427 C400 0.929 . S
H428 C405 0.930 . S
H429 C406 0.929 . S
H430 C408 0.930 . S
H431 C409 0.929 . S
Nd432 C434 2.836 1_455 S
Nd432 O452 2.500 1_455 S
Nd432 O453 2.492 1_455 S
Nd432 O454 2.487 . S
Nd432 O455 2.682 . S
Nd432 O456 2.410 1_455 S
Nd432 O461 2.414 . S
Nd432 O463 2.424 . S
Nd433 C443 2.836 . S
Nd433 O455 2.414 . S
Nd433 O457 2.424 1_455 S
Nd433 O458 2.500 . S
Nd433 O459 2.492 . S
Nd433 O460 2.487 . S
Nd433 O461 2.682 . S
Nd433 O462 2.410 . S
C434 Nd432 2.836 1_655 S
C434 C435 1.498 . S
C434 O452 1.258 . S
C434 O453 1.239 . S
C435 C434 1.498 . S
C435 C436 1.366 . S
C435 C440 1.407 . S
C436 C435 1.366 . S
C436 C437 1.392 . S
C436 H464 0.930 . S
C437 C436 1.392 . S
C437 C438 1.398 . S
C437 H465 0.929 . S
C438 C437 1.398 . S
C438 C439 1.352 . S
C439 C438 1.352 . S
C439 C440 1.384 . S
C439 H466 0.930 . S
C440 C435 1.407 . S
C440 C439 1.384 . S
C440 H467 0.929 . S
C441 O454 1.241 . S
C441 O455 1.273 . S
C442 O456 1.251 . S
C442 O457 1.268 . S
C443 Nd433 2.836 . S
C443 C444 1.498 1_556 S
C443 O458 1.258 . S
C443 O459 1.239 . S
C444 C443 1.498 1_554 S
C444 C445 1.366 . S
C444 C449 1.407 . S
C445 C444 1.366 . S
C445 C446 1.392 . S
C445 H468 0.930 1_554 S
C446 C445 1.392 . S
C446 C447 1.398 . S
C446 H469 0.929 . S
C447 C446 1.398 . S
C447 C448 1.352 . S
C448 C447 1.352 . S
C448 C449 1.384 . S
C448 H470 0.930 . S
C449 C444 1.407 . S
C449 C448 1.384 . S
C449 H471 0.929 . S
C450 O460 1.241 . S
C450 O461 1.273 . S
C451 O462 1.251 . S
C451 O463 1.268 . S
O452 Nd432 2.500 1_655 S
O452 C434 1.258 . S
O453 Nd432 2.492 1_655 S
O453 C434 1.239 . S
O454 Nd432 2.487 . S
O454 C441 1.241 . S
O455 Nd432 2.682 . S
O455 Nd433 2.414 . S
O455 C441 1.273 . S
O456 Nd432 2.410 1_655 S
O456 C442 1.251 . S
O457 Nd433 2.424 1_655 S
O457 C442 1.268 . S
O458 Nd433 2.500 . S
O458 C443 1.258 . S
O459 Nd433 2.492 . S
O459 C443 1.239 . S
O460 Nd433 2.487 . S
O460 C450 1.241 . S
O461 Nd432 2.414 . S
O461 Nd433 2.682 . S
O461 C450 1.273 . S
O462 Nd433 2.410 . S
O462 C451 1.251 . S
O463 Nd432 2.424 . S
O463 C451 1.268 . S
H464 C436 0.930 . S
H465 C437 0.929 . S
H466 C439 0.930 . S
H467 C440 0.929 . S
H468 C445 0.930 1_556 S
H469 C446 0.929 . S
H470 C448 0.930 . S
H471 C449 0.929 . S
H472 C478 0.930 . S
H473 C482 0.930 . S
H474 C487 0.929 . S
H475 C485 0.929 . S
H476 C480 0.929 . S
H477 C486 0.929 . S
C478 H472 0.930 . S
C478 C479 1.374 . S
C478 C486 1.378 . S
C479 C478 1.374 . S
C479 C487 1.429 1_545 S
C480 H476 0.929 . S
C480 C482 1.378 . S
C480 C484 1.350 . S
C481 C484 1.455 . S
C481 C486 1.334 1_565 S
C481 N489 1.454 . S
C482 H473 0.930 . S
C482 C480 1.378 . S
C482 C483 1.367 . S
C483 C482 1.367 . S
C483 C485 1.433 1_565 S
C484 C480 1.350 . S
C484 C481 1.455 . S
C484 N488 1.427 1_565 S
C485 H475 0.929 . S
C485 C483 1.433 1_545 S
C485 N488 1.384 . S
C486 H477 0.929 . S
C486 C478 1.378 . S
C486 C481 1.334 1_545 S
C487 H474 0.929 . S
C487 C479 1.429 1_565 S
C487 N489 1.384 . S
N488 C484 1.427 1_545 S
N488 C485 1.384 . S
N489 C481 1.454 . S
N489 C487 1.384 . S
H490 C496 0.930 . S
H491 C500 0.930 . S
H492 C505 0.929 . S
H493 C503 0.929 . S
H494 C498 0.929 . S
H495 C504 0.929 . S
C496 H490 0.930 . S
C496 C497 1.367 . S
C496 C504 1.378 . S
C497 C496 1.367 . S
C497 C505 1.433 . S
C498 H494 0.929 . S
C498 C500 1.378 . S
C498 C502 1.350 . S
C499 C502 1.463 . S
C499 C504 1.350 . S
C499 N507 1.427 . S
C500 H491 0.930 . S
C500 C498 1.378 . S
C500 C501 1.367 . S
C501 C500 1.367 . S
C501 C503 1.433 . S
C502 C498 1.350 . S
C502 C499 1.463 . S
C502 N506 1.427 . S
C503 H493 0.929 . S
C503 C501 1.433 . S
C503 N506 1.384 . S
C504 H495 0.929 . S
C504 C496 1.378 . S
C504 C499 1.350 . S
C505 H492 0.929 . S
C505 C497 1.433 . S
C505 N507 1.384 . S
N506 C502 1.427 . S
N506 C503 1.384 . S
N507 C499 1.427 . S
N507 C505 1.384 . S
H508 C514 0.930 . S
H509 C518 0.930 . S
H510 C523 0.929 . S
H511 C521 0.929 . S
H512 C516 0.929 . S
H513 C522 0.929 . S
C514 H508 0.930 . S
C514 C515 1.367 . S
C514 C522 1.378 . S
C515 C514 1.367 . S
C515 C523 1.433 . S
C516 H512 0.929 . S
C516 C518 1.378 . S
C516 C520 1.350 . S
C517 C520 1.463 . S
C517 C522 1.350 . S
C517 N525 1.427 . S
C518 H509 0.930 . S
C518 C516 1.378 . S
C518 C519 1.367 . S
C519 C518 1.367 . S
C519 C521 1.433 . S
C520 C516 1.350 . S
C520 C517 1.463 . S
C520 N524 1.427 . S
C521 H511 0.929 . S
C521 C519 1.433 . S
C521 N524 1.384 . S
C522 H513 0.929 . S
C522 C514 1.378 . S
C522 C517 1.350 . S
C523 H510 0.929 . S
C523 C515 1.433 . S
C523 N525 1.384 . S
N524 C520 1.427 . S
N524 C521 1.384 . S
N525 C517 1.427 . S
N525 C523 1.384 . S
H526 C532 0.930 . S
H527 C536 0.930 . S
H528 C541 0.929 . S
H529 C539 0.929 . S
H530 C534 0.929 . S
H531 C540 0.929 . S
C532 H526 0.930 . S
C532 C533 1.367 . S
C532 C540 1.378 . S
C533 C532 1.367 . S
C533 C541 1.433 . S
C534 H530 0.929 . S
C534 C536 1.378 . S
C534 C538 1.350 . S
C535 C538 1.463 . S
C535 C540 1.350 . S
C535 N543 1.427 . S
C536 H527 0.930 . S
C536 C534 1.378 . S
C536 C537 1.367 . S
C537 C536 1.367 . S
C537 C539 1.433 . S
C538 C534 1.350 . S
C538 C535 1.463 . S
C538 N542 1.427 . S
C539 H529 0.929 . S
C539 C537 1.433 . S
C539 N542 1.384 . S
C540 H531 0.929 . S
C540 C532 1.378 . S
C540 C535 1.350 . S
C541 H528 0.929 . S
C541 C533 1.433 . S
C541 N543 1.384 . S
N542 C538 1.427 . S
N542 C539 1.384 . S
N543 C535 1.427 . S
N543 C541 1.384 . S
H544 C550 0.930 . S
H545 C554 0.930 . S
H546 C559 0.929 . S
H547 C557 0.929 . S
H548 C552 0.929 . S
H549 C558 0.929 . S
C550 H544 0.930 . S
C550 C551 1.389 . S
C550 C558 1.378 . S
C551 C550 1.389 . S
C551 C559 1.404 1_545 S
C552 H548 0.929 . S
C552 C554 1.378 . S
C552 C556 1.350 1_565 S
C553 C556 1.463 . S
C553 C558 1.350 . S
C553 N561 1.427 1_545 S
C554 H545 0.930 . S
C554 C552 1.378 . S
C554 C555 1.367 1_565 S
C555 C554 1.367 1_545 S
C555 C557 1.433 . S
C556 C552 1.350 1_545 S
C556 C553 1.463 . S
C556 N560 1.427 . S
C557 H547 0.929 . S
C557 C555 1.433 . S
C557 N560 1.384 . S
C558 H549 0.929 . S
C558 C550 1.378 . S
C558 C553 1.350 . S
C559 H546 0.929 . S
C559 C551 1.404 1_565 S
C559 N561 1.384 . S
N560 C556 1.427 . S
N560 C557 1.384 . S
N561 C553 1.427 1_565 S
N561 C559 1.384 . S
H562 C568 0.930 . S
H563 C572 0.930 . S
H564 C577 0.929 . S
H565 C575 0.929 . S
H566 C570 0.931 . S
H567 C576 0.929 . S
C568 H562 0.930 . S
C568 C569 1.367 . S
C568 C576 1.378 . S
C569 C568 1.367 . S
C569 C577 1.433 . S
C570 H566 0.931 . S
C570 C572 1.378 1_554 S
C570 C574 1.350 . S
C571 C574 1.463 . S
C571 C576 1.350 . S
C571 N579 1.427 . S
C572 H563 0.930 . S
C572 C570 1.378 1_556 S
C572 C573 1.367 . S
C573 C572 1.367 . S
C573 C575 1.433 1_556 S
C574 C570 1.350 . S
C574 C571 1.463 . S
C574 N578 1.427 . S
C575 H565 0.929 . S
C575 C573 1.433 1_554 S
C575 N578 1.384 . S
C576 H567 0.929 . S
C576 C568 1.378 . S
C576 C571 1.350 . S
C577 H564 0.929 . S
C577 C569 1.433 . S
C577 N579 1.384 . S
N578 C574 1.427 . S
N578 C575 1.384 . S
N579 C571 1.427 . S
N579 C577 1.384 . S
H580 C586 0.930 . S
H581 C590 0.930 . S
H582 C595 0.929 . S
H583 C593 0.929 . S
H584 C588 0.929 . S
H585 C594 0.929 . S
C586 H580 0.930 . S
C586 C587 1.367 . S
C586 C594 1.378 . S
C587 C586 1.367 . S
C587 C595 1.433 . S
C588 H584 0.929 . S
C588 C590 1.378 . S
C588 C592 1.350 . S
C589 C592 1.463 . S
C589 C594 1.350 . S
C589 N597 1.427 . S
C590 H581 0.930 . S
C590 C588 1.378 . S
C590 C591 1.367 . S
C591 C590 1.367 . S
C591 C593 1.433 . S
C592 C588 1.350 . S
C592 C589 1.463 . S
C592 N596 1.427 . S
C593 H583 0.929 . S
C593 C591 1.433 . S
C593 N596 1.384 . S
C594 H585 0.929 . S
C594 C586 1.378 . S
C594 C589 1.350 . S
C595 H582 0.929 . S
C595 C587 1.433 . S
C595 N597 1.384 . S
N596 C592 1.427 . S
N596 C593 1.384 . S
N597 C589 1.427 . S
N597 C595 1.384 . S
H598 C604 0.930 . S
H599 C608 0.930 . S
H600 C613 0.929 . S
H601 C611 0.929 . S
H602 C606 0.929 1_554 S
H603 C612 0.929 . S
C604 H598 0.930 . S
C604 C605 1.367 . S
C604 C612 1.378 . S
C605 C604 1.367 . S
C605 C613 1.433 1_556 S
C606 H602 0.929 1_556 S
C606 C608 1.378 . S
C606 C610 1.350 . S
C607 C610 1.463 . S
C607 C612 1.350 . S
C607 N615 1.427 1_556 S
C608 H599 0.930 . S
C608 C606 1.378 . S
C608 C609 1.367 . S
C609 C608 1.367 . S
C609 C611 1.433 . S
C610 C606 1.350 . S
C610 C607 1.463 . S
C610 N614 1.427 . S
C611 H601 0.929 . S
C611 C609 1.433 . S
C611 N614 1.384 . S
C612 H603 0.929 . S
C612 C604 1.378 . S
C612 C607 1.350 . S
C613 H600 0.929 . S
C613 C605 1.433 1_554 S
C613 N615 1.384 . S
N614 C610 1.427 . S
N614 C611 1.384 . S
N615 C607 1.427 1_554 S
N615 C613 1.384 . S
H616 C622 0.930 . S
H617 C626 0.930 . S
H618 C631 0.929 . S
H619 C629 0.929 . S
H620 C624 0.929 . S
H621 C630 0.929 . S
C622 H616 0.930 . S
C622 C623 1.367 . S
C622 C630 1.378 . S
C623 C622 1.367 . S
C623 C631 1.433 . S
C624 H620 0.929 . S
C624 C626 1.378 . S
C624 C628 1.350 . S
C625 C628 1.463 . S
C625 C630 1.350 . S
C625 N633 1.427 . S
C626 H617 0.930 . S
C626 C624 1.378 . S
C626 C627 1.367 . S
C627 C626 1.367 . S
C627 C629 1.433 . S
C628 C624 1.350 . S
C628 C625 1.463 . S
C628 N632 1.427 . S
C629 H619 0.929 . S
C629 C627 1.433 . S
C629 N632 1.384 . S
C630 H621 0.929 . S
C630 C622 1.378 . S
C630 C625 1.350 . S
C631 H618 0.929 . S
C631 C623 1.433 . S
C631 N633 1.384 . S
N632 C628 1.427 . S
N632 C629 1.384 . S
N633 C625 1.427 . S
N633 C631 1.384 . S
H634 C640 0.930 . S
H635 C644 0.930 . S
H636 C649 0.929 . S
H637 C647 0.929 . S
H638 C642 0.929 . S
H639 C648 0.929 . S
C640 H634 0.930 . S
C640 C641 1.366 . S
C640 C648 1.378 . S
C641 C640 1.366 . S
C641 C649 1.435 1_545 S
C642 H638 0.929 . S
C642 C644 1.378 . S
C642 C646 1.350 . S
C643 C646 1.463 . S
C643 C648 1.350 1_565 S
C643 N651 1.427 . S
C644 H635 0.930 . S
C644 C642 1.378 . S
C644 C645 1.367 . S
C645 C644 1.367 . S
C645 C647 1.433 1_565 S
C646 C642 1.350 . S
C646 C643 1.463 . S
C646 N650 1.427 1_565 S
C647 H637 0.929 . S
C647 C645 1.433 1_545 S
C647 N650 1.384 . S
C648 H639 0.929 . S
C648 C640 1.378 . S
C648 C643 1.350 1_545 S
C649 H636 0.929 . S
C649 C641 1.435 1_565 S
C649 N651 1.384 . S
N650 C646 1.427 1_545 S
N650 C647 1.384 . S
N651 C643 1.427 . S
N651 C649 1.384 . S
H652 C658 0.930 . S
H653 C662 0.930 . S
H654 C667 0.929 . S
H655 C665 0.929 . S
H656 C660 0.929 . S
H657 C666 0.929 . S
C658 H652 0.930 . S
C658 C659 1.367 . S
C658 C666 1.378 . S
C659 C658 1.367 . S
C659 C667 1.433 . S
C660 H656 0.929 . S
C660 C662 1.378 . S
C660 C664 1.350 . S
C661 C664 1.463 . S
C661 C666 1.350 . S
C661 N669 1.427 . S
C662 H653 0.930 . S
C662 C660 1.378 . S
C662 C663 1.367 . S
C663 C662 1.367 . S
C663 C665 1.433 . S
C664 C660 1.350 . S
C664 C661 1.463 . S
C664 N668 1.427 . S
C665 H655 0.929 . S
C665 C663 1.433 . S
C665 N668 1.384 . S
C666 H657 0.929 . S
C666 C658 1.378 . S
C666 C661 1.350 . S
C667 H654 0.929 . S
C667 C659 1.433 . S
C667 N669 1.384 . S
N668 C664 1.427 . S
N668 C665 1.384 . S
N669 C661 1.427 . S
N669 C667 1.384 . S
H670 C676 0.930 . S
H671 C680 0.930 . S
H672 C685 0.929 . S
H673 C683 0.929 . S
H674 C678 0.929 . S
H675 C684 0.929 . S
C676 H670 0.930 . S
C676 C677 1.367 . S
C676 C684 1.378 . S
C677 C676 1.367 . S
C677 C685 1.433 . S
C678 H674 0.929 . S
C678 C680 1.378 . S
C678 C682 1.350 . S
C679 C682 1.463 . S
C679 C684 1.350 . S
C679 N687 1.427 . S
C680 H671 0.930 . S
C680 C678 1.378 . S
C680 C681 1.367 . S
C681 C680 1.367 . S
C681 C683 1.433 . S
C682 C678 1.350 . S
C682 C679 1.463 . S
C682 N686 1.427 . S
C683 H673 0.929 . S
C683 C681 1.433 . S
C683 N686 1.384 . S
C684 H675 0.929 . S
C684 C676 1.378 . S
C684 C679 1.350 . S
C685 H672 0.929 . S
C685 C677 1.433 . S
C685 N687 1.384 . S
N686 C682 1.427 . S
N686 C683 1.384 . S
N687 C679 1.427 . S
N687 C685 1.384 . S
H688 C694 0.930 . S
H689 C698 0.930 1_455 S
H690 C703 0.929 . S
H691 C701 0.929 . S
H692 C696 0.929 . S
H693 C702 0.929 . S
C694 H688 0.930 . S
C694 C695 1.367 . S
C694 C702 1.378 . S
C695 C694 1.367 . S
C695 C703 1.433 . S
C696 H692 0.929 . S
C696 C698 1.378 . S
C696 C700 1.350 . S
C697 C700 1.463 . S
C697 C702 1.350 . S
C697 N705 1.427 . S
C698 H689 0.930 1_655 S
C698 C696 1.378 . S
C698 C699 1.367 . S
C699 C698 1.367 . S
C699 C701 1.433 . S
C700 C696 1.350 . S
C700 C697 1.463 . S
C700 N704 1.427 . S
C701 H691 0.929 . S
C701 C699 1.433 . S
C701 N704 1.384 . S
C702 H693 0.929 . S
C702 C694 1.378 . S
C702 C697 1.350 . S
C703 H690 0.929 . S
C703 C695 1.433 . S
C703 N705 1.384 . S
N704 C700 1.427 . S
N704 C701 1.384 . S
N705 C697 1.427 . S
N705 C703 1.384 . S
H706 C712 0.930 . S
H707 C716 0.930 1_565 S
H708 C721 0.929 . S
H709 C719 0.929 . S
H710 C714 0.933 . S
H711 C720 0.929 . S
C712 H706 0.930 . S
C712 C713 1.391 . S
C712 C720 1.378 . S
C713 C712 1.391 . S
C713 C721 1.424 1_545 S
C714 H710 0.933 . S
C714 C716 1.375 1_565 S
C714 C718 1.348 1_565 S
C715 C718 1.463 . S
C715 C720 1.350 . S
C715 N723 1.427 1_545 S
C716 H707 0.930 1_545 S
C716 C714 1.375 1_545 S
C716 C717 1.367 . S
C717 C716 1.367 . S
C717 C719 1.433 . S
C718 C714 1.348 1_545 S
C718 C715 1.463 . S
C718 N722 1.427 . S
C719 H709 0.929 . S
C719 C717 1.433 . S
C719 N722 1.384 . S
C720 H711 0.929 . S
C720 C712 1.378 . S
C720 C715 1.350 . S
C721 H708 0.929 . S
C721 C713 1.424 1_565 S
C721 N723 1.384 . S
N722 C718 1.427 . S
N722 C719 1.384 . S
N723 C715 1.427 1_565 S
N723 C721 1.384 . S
H724 C730 0.930 . S
H725 C734 0.930 . S
H726 C739 0.929 . S
H727 C737 0.929 . S
H728 C732 0.929 . S
H729 C738 0.929 . S
C730 H724 0.930 . S
C730 C731 1.367 . S
C730 C738 1.378 . S
C731 C730 1.367 . S
C731 C739 1.433 . S
C732 H728 0.929 . S
C732 C734 1.378 . S
C732 C736 1.350 . S
C733 C736 1.463 . S
C733 C738 1.350 . S
C733 N741 1.427 . S
C734 H725 0.930 . S
C734 C732 1.378 . S
C734 C735 1.367 . S
C735 C734 1.367 . S
C735 C737 1.433 1_554 S
C736 C732 1.350 . S
C736 C733 1.463 . S
C736 N740 1.427 . S
C737 H727 0.929 . S
C737 C735 1.433 1_556 S
C737 N740 1.384 1_556 S
C738 H729 0.929 . S
C738 C730 1.378 . S
C738 C733 1.350 . S
C739 H726 0.929 . S
C739 C731 1.433 . S
C739 N741 1.384 . S
N740 C736 1.427 . S
N740 C737 1.384 1_554 S
N741 C733 1.427 . S
N741 C739 1.384 . S
H742 C748 0.930 . S
H743 C752 0.930 . S
H744 C757 0.929 . S
H745 C755 0.929 . S
H746 C750 0.929 . S
H747 C756 0.929 . S
C748 H742 0.930 . S
C748 C749 1.367 . S
C748 C756 1.378 . S
C749 C748 1.367 . S
C749 C757 1.433 . S
C750 H746 0.929 . S
C750 C752 1.378 . S
C750 C754 1.350 . S
C751 C754 1.463 . S
C751 C756 1.350 . S
C751 N759 1.427 . S
C752 H743 0.930 . S
C752 C750 1.378 . S
C752 C753 1.367 . S
C753 C752 1.367 . S
C753 C755 1.433 . S
C754 C750 1.350 . S
C754 C751 1.463 . S
C754 N758 1.427 . S
C755 H745 0.929 . S
C755 C753 1.433 . S
C755 N758 1.384 . S
C756 H747 0.929 . S
C756 C748 1.378 . S
C756 C751 1.350 . S
C757 H744 0.929 . S
C757 C749 1.433 . S
C757 N759 1.384 . S
N758 C754 1.427 . S
N758 C755 1.384 . S
N759 C751 1.427 . S
N759 C757 1.384 . S
H760 C766 0.930 . S
H761 C770 0.930 . S
H762 C775 0.929 . S
H763 C773 0.929 . S
H764 C768 0.929 . S
H765 C774 0.929 . S
C766 H760 0.930 . S
C766 C767 1.367 . S
C766 C774 1.378 . S
C767 C766 1.367 . S
C767 C775 1.433 . S
C768 H764 0.929 . S
C768 C770 1.378 . S
C768 C772 1.350 . S
C769 C772 1.463 . S
C769 C774 1.350 . S
C769 N777 1.427 . S
C770 H761 0.930 . S
C770 C768 1.378 . S
C770 C771 1.367 . S
C771 C770 1.367 . S
C771 C773 1.433 . S
C772 C768 1.350 . S
C772 C769 1.463 . S
C772 N776 1.427 . S
C773 H763 0.929 . S
C773 C771 1.433 . S
C773 N776 1.384 . S
C774 H765 0.929 . S
C774 C766 1.378 . S
C774 C769 1.350 . S
C775 H762 0.929 . S
C775 C767 1.433 . S
C775 N777 1.384 . S
N776 C772 1.427 . S
N776 C773 1.384 . S
N777 C769 1.427 . S
N777 C775 1.384 . S
H778 C784 0.930 . S
H779 C788 0.930 . S
H780 C793 0.929 . S
H781 C791 0.929 1_565 S
H782 C786 0.929 . S
H783 C792 0.929 . S
C784 H778 0.930 . S
C784 C785 1.367 1_565 S
C784 C792 1.378 . S
C785 C784 1.367 1_545 S
C785 C793 1.433 . S
C786 H782 0.929 . S
C786 C788 1.378 . S
C786 C790 1.350 . S
C787 C790 1.463 . S
C787 C792 1.350 1_545 S
C787 N795 1.427 . S
C788 H779 0.930 . S
C788 C786 1.378 . S
C788 C789 1.367 . S
C789 C788 1.367 . S
C789 C791 1.433 . S
C790 C786 1.350 . S
C790 C787 1.463 . S
C790 N794 1.420 1_545 S
C791 H781 0.929 1_545 S
C791 C789 1.433 . S
C791 N794 1.385 1_545 S
C792 H783 0.929 . S
C792 C784 1.378 . S
C792 C787 1.350 1_565 S
C793 H780 0.929 . S
C793 C785 1.433 . S
C793 N795 1.384 . S
N794 C790 1.420 1_565 S
N794 C791 1.385 1_565 S
N795 C787 1.427 . S
N795 C793 1.384 . S
H796 C802 0.930 . S
H797 C806 0.930 1_554 S
H798 C811 0.929 . S
H799 C809 0.929 . S
H800 C804 0.937 . S
H801 C810 0.929 . S
C802 H796 0.930 . S
C802 C803 1.367 1_556 S
C802 C810 1.378 . S
C803 C802 1.367 1_554 S
C803 C811 1.433 . S
C804 H800 0.937 . S
C804 C806 1.377 1_554 S
C804 C808 1.343 1_554 S
C805 C808 1.463 . S
C805 C810 1.350 . S
C805 N813 1.427 1_556 S
C806 H797 0.930 1_556 S
C806 C804 1.377 1_556 S
C806 C807 1.367 . S
C807 C806 1.367 . S
C807 C809 1.433 . S
C808 C804 1.343 1_556 S
C808 C805 1.463 . S
C808 N812 1.427 . S
C809 H799 0.929 . S
C809 C807 1.433 . S
C809 N812 1.384 . S
C810 H801 0.929 . S
C810 C802 1.378 . S
C810 C805 1.350 . S
C811 H798 0.929 . S
C811 C803 1.433 . S
C811 N813 1.384 . S
N812 C808 1.427 . S
N812 C809 1.384 . S
N813 C805 1.427 1_554 S
N813 C811 1.384 . S
H814 C820 0.930 . S
H815 C824 0.930 . S
H816 C829 0.929 . S
H817 C827 0.929 . S
H818 C822 0.929 . S
H819 C828 0.929 . S
C820 H814 0.930 . S
C820 C821 1.367 . S
C820 C828 1.378 . S
C821 C820 1.367 . S
C821 C829 1.433 . S
C822 H818 0.929 . S
C822 C824 1.378 . S
C822 C826 1.350 . S
C823 C826 1.463 . S
C823 C828 1.350 . S
C823 N831 1.427 . S
C824 H815 0.930 . S
C824 C822 1.378 . S
C824 C825 1.367 . S
C825 C824 1.367 . S
C825 C827 1.433 . S
C826 C822 1.350 . S
C826 C823 1.463 . S
C826 N830 1.427 . S
C827 H817 0.929 . S
C827 C825 1.433 . S
C827 N830 1.384 . S
C828 H819 0.929 . S
C828 C820 1.378 . S
C828 C823 1.350 . S
C829 H816 0.929 . S
C829 C821 1.433 . S
C829 N831 1.384 . S
N830 C826 1.427 . S
N830 C827 1.384 . S
N831 C823 1.427 . S
N831 C829 1.384 . S
H832 C838 0.930 . S
H833 C842 0.930 . S
H834 C847 0.929 . S
H835 C845 0.929 . S
H836 C840 0.929 . S
H837 C846 0.929 . S
C838 H832 0.930 . S
C838 C839 1.367 . S
C838 C846 1.378 . S
C839 C838 1.367 . S
C839 C847 1.433 . S
C840 H836 0.929 . S
C840 C842 1.378 . S
C840 C844 1.350 . S
C841 C844 1.463 . S
C841 C846 1.350 . S
C841 N849 1.427 . S
C842 H833 0.930 . S
C842 C840 1.378 . S
C842 C843 1.367 . S
C843 C842 1.367 . S
C843 C845 1.433 . S
C844 C840 1.350 . S
C844 C841 1.463 . S
C844 N848 1.427 . S
C845 H835 0.929 . S
C845 C843 1.433 . S
C845 N848 1.384 . S
C846 H837 0.929 . S
C846 C838 1.378 . S
C846 C841 1.350 . S
C847 H834 0.929 . S
C847 C839 1.433 . S
C847 N849 1.384 . S
N848 C844 1.427 . S
N848 C845 1.384 . S
N849 C841 1.427 . S
N849 C847 1.384 . S
H850 C856 0.930 . S
H851 C860 0.930 . S
H852 C865 0.929 . S
H853 C863 0.962 . S
H854 C858 0.929 . S
H855 C864 0.929 . S
C856 H850 0.930 . S
C856 C857 1.367 1_545 S
C856 C864 1.378 . S
C857 C856 1.367 1_565 S
C857 C865 1.433 . S
C858 H854 0.929 . S
C858 C860 1.378 . S
C858 C862 1.350 . S
C859 C862 1.463 . S
C859 C864 1.350 1_565 S
C859 N867 1.427 . S
C860 H851 0.930 . S
C860 C858 1.378 . S
C860 C861 1.367 . S
C861 C860 1.367 . S
C861 C863 1.403 1_565 S
C862 C858 1.350 . S
C862 C859 1.463 . S
C862 N866 1.427 1_565 S
C863 H853 0.962 . S
C863 C861 1.403 1_545 S
C863 N866 1.380 . S
C864 H855 0.929 . S
C864 C856 1.378 . S
C864 C859 1.350 1_545 S
C865 H852 0.929 . S
C865 C857 1.433 . S
C865 N867 1.384 . S
N866 C862 1.427 1_545 S
N866 C863 1.380 . S
N867 C859 1.427 . S
N867 C865 1.384 . S
H868 C874 0.930 . S
H869 C878 0.930 . S
H870 C883 0.929 . S
H871 C881 0.929 . S
H872 C876 0.929 . S
H873 C882 0.929 . S
C874 H868 0.930 . S
C874 C875 1.367 . S
C874 C882 1.378 . S
C875 C874 1.367 . S
C875 C883 1.433 . S
C876 H872 0.929 . S
C876 C878 1.378 . S
C876 C880 1.350 . S
C877 C880 1.463 . S
C877 C882 1.350 . S
C877 N885 1.427 . S
C878 H869 0.930 . S
C878 C876 1.378 . S
C878 C879 1.367 . S
C879 C878 1.367 . S
C879 C881 1.433 . S
C880 C876 1.350 . S
C880 C877 1.463 . S
C880 N884 1.427 . S
C881 H871 0.929 . S
C881 C879 1.433 . S
C881 N884 1.384 . S
C882 H873 0.929 . S
C882 C874 1.378 . S
C882 C877 1.350 . S
C883 H870 0.929 . S
C883 C875 1.433 . S
C883 N885 1.384 . S
N884 C880 1.427 . S
N884 C881 1.384 . S
N885 C877 1.427 . S
N885 C883 1.384 . S
H886 C892 0.930 . S
H887 C896 0.930 . S
H888 C901 0.929 . S
H889 C899 0.929 . S
H890 C894 0.929 . S
H891 C900 0.929 . S
C892 H886 0.930 . S
C892 C893 1.367 . S
C892 C900 1.378 . S
C893 C892 1.367 . S
C893 C901 1.433 . S
C894 H890 0.929 . S
C894 C896 1.378 . S
C894 C898 1.350 . S
C895 C898 1.463 . S
C895 C900 1.350 . S
C895 N903 1.427 . S
C896 H887 0.930 . S
C896 C894 1.378 . S
C896 C897 1.367 . S
C897 C896 1.367 . S
C897 C899 1.433 . S
C898 C894 1.350 . S
C898 C895 1.463 . S
C898 N902 1.427 . S
C899 H889 0.929 . S
C899 C897 1.433 . S
C899 N902 1.384 . S
C900 H891 0.929 . S
C900 C892 1.378 . S
C900 C895 1.350 . S
C901 H888 0.929 . S
C901 C893 1.433 . S
C901 N903 1.384 . S
N902 C898 1.427 . S
N902 C899 1.384 . S
N903 C895 1.427 . S
N903 C901 1.384 . S
C479 C255 0.940 1_545 S
C483 C321 0.930 . S
C501 C361 1.981 . S
C497 C294 2.005 . S
C519 C410 1.683 . S
C515 C177 1.694 . S
C537 C441 2.199 . S
C533 C216 2.195 . S
C555 C330 0.925 . S
C551 C99 0.959 1_545 S
C569 C138 1.980 . S
C573 C370 1.980 . S
C587 C21 1.677 1_556 S
C591 C401 1.685 . S
C605 C60 2.214 1_556 S
C609 C450 2.189 1_655 S
C627 C331 1.506 . S
C623 C196 1.279 . S
C645 C371 0.952 . S
C641 C235 0.880 1_545 S
C663 C407 0.617 . S
C659 C289 0.639 . S
C677 C157 1.397 . S
C681 C451 1.567 . S
C695 C40 1.301 . S
C699 C322 1.510 1_655 S
C717 C362 0.951 . S
C713 C79 0.894 1_545 S
C735 C398 0.620 1_554 S
C731 C133 0.651 . S
C749 C1 1.378 . S
C753 C442 1.566 . S
C767 C211 2.092 . S
C771 C327 2.210 . S
C785 C250 1.701 . S
C789 C367 1.734 . S
C807 C411 2.943 . S
C803 C274 2.647 . S
C825 C447 1.807 . S
C821 C172 1.732 . S
C839 C55 2.085 . S
C843 C318 2.218 . S
C861 C358 1.735 . S
C857 C94 1.700 1_565 S
C879 C402 2.941 . S
C875 C118 2.626 . S
C893 C16 1.734 . S
C897 C438 1.814 . S
