# Generated by pormake.
# Topology cml, (3,6)-cn, num edge types: 1
# Building blocks:
#     Node 0, Type 0, BuildingBlock: BETDAH_clean_linker_0, # of connection points: 3
#     Node 1, Type 0, BuildingBlock: BETDAH_clean_linker_0, # of connection points: 3
#     Node 2, Type 0, BuildingBlock: BETDAH_clean_linker_0, # of connection points: 3
#     Node 3, Type 0, BuildingBlock: BETDAH_clean_linker_0, # of connection points: 3
#     Node 4, Type 0, BuildingBlock: BETDAH_clean_linker_0, # of connection points: 3
#     Node 5, Type 0, BuildingBlock: BETDAH_clean_linker_0, # of connection points: 3
#     Node 6, Type 0, BuildingBlock: BETDAH_clean_linker_0, # of connection points: 3
#     Node 7, Type 0, BuildingBlock: BETDAH_clean_linker_0, # of connection points: 3
#     Node 8, Type 1, BuildingBlock: OJICUG_clean_sbu_0, # of connection points: 6
#     Node 9, Type 1, BuildingBlock: OJICUG_clean_sbu_0, # of connection points: 6
#     Node 10, Type 1, BuildingBlock: OJICUG_clean_sbu_0, # of connection points: 6
#     Node 11, Type 1, BuildingBlock: OJICUG_clean_sbu_0, # of connection points: 6
#     Edge 12, Type (0, 1), BuildingBlock: UVAHIK_clean_linker_0, # of connection points: 2
#     Edge 13, Type (0, 1), BuildingBlock: UVAHIK_clean_linker_0, # of connection points: 2
#     Edge 14, Type (0, 1), BuildingBlock: UVAHIK_clean_linker_0, # of connection points: 2
#     Edge 15, Type (0, 1), BuildingBlock: UVAHIK_clean_linker_0, # of connection points: 2
#     Edge 16, Type (0, 1), BuildingBlock: UVAHIK_clean_linker_0, # of connection points: 2
#     Edge 17, Type (0, 1), BuildingBlock: UVAHIK_clean_linker_0, # of connection points: 2
#     Edge 18, Type (0, 1), BuildingBlock: UVAHIK_clean_linker_0, # of connection points: 2
#     Edge 19, Type (0, 1), BuildingBlock: UVAHIK_clean_linker_0, # of connection points: 2
#     Edge 20, Type (0, 1), BuildingBlock: UVAHIK_clean_linker_0, # of connection points: 2
#     Edge 21, Type (0, 1), BuildingBlock: UVAHIK_clean_linker_0, # of connection points: 2
#     Edge 22, Type (0, 1), BuildingBlock: UVAHIK_clean_linker_0, # of connection points: 2
#     Edge 23, Type (0, 1), BuildingBlock: UVAHIK_clean_linker_0, # of connection points: 2
#     Edge 24, Type (0, 1), BuildingBlock: UVAHIK_clean_linker_0, # of connection points: 2
#     Edge 25, Type (0, 1), BuildingBlock: UVAHIK_clean_linker_0, # of connection points: 2
#     Edge 26, Type (0, 1), BuildingBlock: UVAHIK_clean_linker_0, # of connection points: 2
#     Edge 27, Type (0, 1), BuildingBlock: UVAHIK_clean_linker_0, # of connection points: 2
#     Edge 28, Type (0, 1), BuildingBlock: UVAHIK_clean_linker_0, # of connection points: 2
#     Edge 29, Type (0, 1), BuildingBlock: UVAHIK_clean_linker_0, # of connection points: 2
#     Edge 30, Type (0, 1), BuildingBlock: UVAHIK_clean_linker_0, # of connection points: 2
#     Edge 31, Type (0, 1), BuildingBlock: UVAHIK_clean_linker_0, # of connection points: 2
#     Edge 32, Type (0, 1), BuildingBlock: UVAHIK_clean_linker_0, # of connection points: 2
#     Edge 33, Type (0, 1), BuildingBlock: UVAHIK_clean_linker_0, # of connection points: 2
#     Edge 34, Type (0, 1), BuildingBlock: UVAHIK_clean_linker_0, # of connection points: 2
#     Edge 35, Type (0, 1), BuildingBlock: UVAHIK_clean_linker_0, # of connection points: 2
# Relax obj value: 0.007
# Max RMSD: 0.053
# Mean RMSD: 0.044
data_MOF--net-cml--node1-OJICUG_clean_sbu_0--node2-BETDAH_clean_linker_0--edge1-UVAHIK_clean_linker_0
_symmetry_space_group_name_H-M    P1
_symmetry_Int_Tables_number       1
_symmetry_cell_setting            triclinic
loop_
_symmetry_equiv_pos_as_xyz
'x, y, z'
_cell_length_a     52.063827
_cell_length_b     50.849047
_cell_length_c     45.587356
_cell_angle_alpha  89.358143
_cell_angle_beta   90.459294
_cell_angle_gamma 90.780008
loop_
_atom_site_label
_atom_site_type_symbol
_atom_site_fract_x
_atom_site_fract_y
_atom_site_fract_z
_atom_type_partial_charge
H0 H 0.31782 0.39619 0.05228 0.0
H1 H 0.26362 0.36447 0.98997 0.0
H2 H 0.27936 0.32265 0.07058 0.0
C3 C 0.30369 0.3813 0.0463 0.0
C4 C 0.29975 0.35957 0.06498 0.0
C5 C 0.29082 0.38325 0.0192 0.0
C6 C 0.27347 0.3632 0.01095 0.0
C7 C 0.2693 0.34134 0.02969 0.0
C8 C 0.28263 0.33958 0.05637 0.0
N9 N 0.25225 0.32047 0.02229 0.0
C10 C 0.23368 0.32201 0.0004 0.0
H11 H 0.67767 0.6096 0.54437 0.0
H12 H 0.74163 0.63186 0.49002 0.0
H13 H 0.73158 0.66856 0.57385 0.0
C14 C 0.69486 0.62148 0.54084 0.0
C15 C 0.70306 0.63916 0.56243 0.0
C16 C 0.70859 0.61883 0.51474 0.0
C17 C 0.73099 0.634 0.51016 0.0
C18 C 0.7391 0.65228 0.53147 0.0
C19 C 0.72502 0.65476 0.55736 0.0
N20 N 0.76122 0.66857 0.52789 0.0
C21 C 0.77798 0.66783 0.50437 0.0
H22 H 0.70349 0.42834 0.05553 0.0
H23 H 0.76378 0.41771 0.9928 0.0
H24 H 0.76662 0.37783 0.07653 0.0
C25 C 0.72159 0.41964 0.04953 0.0
C26 C 0.73359 0.40225 0.06916 0.0
C27 C 0.7323 0.42553 0.02204 0.0
C28 C 0.75513 0.41317 0.01384 0.0
C29 C 0.76758 0.39611 0.03372 0.0
C30 C 0.75682 0.39084 0.06126 0.0
N31 N 0.79186 0.38545 0.02753 0.0
C32 C 0.79744 0.37296 0.00149 0.0
H33 H 0.3125 0.57254 0.53537 0.0
H34 H 0.2947 0.65328 0.55169 0.0
H35 H 0.28945 0.62373 0.46422 0.0
C36 C 0.30583 0.59143 0.5275 0.0
C37 C 0.30149 0.59547 0.49725 0.0
C38 C 0.30329 0.612 0.54752 0.0
C39 C 0.29573 0.63674 0.53698 0.0
C40 C 0.29021 0.64088 0.5073 0.0
C41 C 0.29289 0.62021 0.48738 0.0
N42 N 0.28386 0.66669 0.49812 0.0
C43 C 0.26941 0.67259 0.47332 0.0
H44 H 0.83445 0.89763 0.0027 0.0
H45 H 0.80021 0.881 0.91872 0.0
H46 H 0.78895 0.82706 0.99059 0.0
C47 C 0.82213 0.88541 0.98908 0.0
C48 C 0.81193 0.8617 0.00053 0.0
C49 C 0.81799 0.89269 0.95964 0.0
C50 C 0.80357 0.87585 0.94155 0.0
C51 C 0.79283 0.85253 0.95268 0.0
C52 C 0.79684 0.84547 0.98222 0.0
N53 N 0.77933 0.83586 0.93311 0.0
C54 C 0.75659 0.82292 0.94027 0.0
H55 H 0.17114 0.096 0.50658 0.0
H56 H 0.20013 0.11598 0.4209 0.0
H57 H 0.2159 0.1669 0.49327 0.0
C58 C 0.18215 0.10889 0.49225 0.0
C59 C 0.19278 0.13235 0.50351 0.0
C60 C 0.18477 0.10244 0.4625 0.0
C61 C 0.19857 0.11983 0.44414 0.0
C62 C 0.21039 0.14253 0.45526 0.0
C63 C 0.2075 0.14882 0.48496 0.0
N64 N 0.22364 0.15945 0.43547 0.0
C65 C 0.24598 0.17331 0.44252 0.0
H66 H 0.19079 0.93844 0.01359 0.0
H67 H 0.24861 0.94022 0.94675 0.0
H68 H 0.25095 0.88131 0.01518 0.0
C69 C 0.20825 0.93079 0.00433 0.0
C70 C 0.22004 0.90905 0.01783 0.0
C71 C 0.2181 0.94203 0.97847 0.0
C72 C 0.24041 0.93152 0.96643 0.0
C73 C 0.25216 0.90955 0.97926 0.0
C74 C 0.24178 0.89808 0.00488 0.0
N75 N 0.27469 0.89996 0.96602 0.0
C76 C 0.28352 0.87442 0.96911 0.0
H77 H 0.83472 0.0685 0.49802 0.0
H78 H 0.78375 0.13398 0.48913 0.0
H79 H 0.78507 0.07485 0.42246 0.0
C80 C 0.81982 0.0787 0.48585 0.0
C81 C 0.81082 0.06851 0.45916 0.0
C82 C 0.81019 0.1023 0.49672 0.0
C83 C 0.79099 0.11562 0.48091 0.0
C84 C 0.78215 0.10574 0.45387 0.0
C85 C 0.79217 0.08237 0.4432 0.0
N86 N 0.76372 0.119 0.43633 0.0
C87 C 0.7487 0.13946 0.44596 0.0
Sc88 Sc 0.01326 0.79767 0.28576 0.0
Sc89 Sc 0.00758 0.86656 0.28924 0.0
Sc90 Sc 0.01247 0.82937 0.35429 0.0
O91 O 0.01109 0.83119 0.30974 0.0
C92 C 0.97856 0.77816 0.33882 0.0
C93 C 0.97129 0.83022 0.24955 0.0
C94 C 0.96877 0.87128 0.3431 0.0
C95 C 0.04837 0.83772 0.24893 0.0
C96 C 0.05502 0.78848 0.33674 0.0
C97 C 0.04458 0.88243 0.34204 0.0
O98 O 0.98442 0.77753 0.31182 0.0
O99 O 0.97778 0.85232 0.26028 0.0
O100 O 0.9785 0.8528 0.35842 0.0
O101 O 0.04223 0.81441 0.25695 0.0
O102 O 0.04663 0.80612 0.35362 0.0
O103 O 0.03696 0.8852 0.31567 0.0
O104 O 0.04408 0.78233 0.31266 0.0
O105 O 0.03705 0.85794 0.25827 0.0
O106 O 0.03665 0.8639 0.35868 0.0
O107 O 0.98277 0.80902 0.25611 0.0
O108 O 0.98829 0.79475 0.3565 0.0
O109 O 0.97785 0.87874 0.31849 0.0
Sc110 Sc 0.99519 0.19603 0.7879 0.0
Sc111 Sc -0.00034 0.12692 0.79101 0.0
Sc112 Sc 0.99528 0.16278 0.85633 0.0
O113 O 0.99672 0.16193 0.81176 0.0
C114 C 0.03095 0.21292 0.8414 0.0
C115 C 0.03638 0.16354 0.75187 0.0
C116 C 0.03778 0.1192 0.84575 0.0
C117 C 0.9593 0.15756 0.75033 0.0
C118 C 0.95458 0.20658 0.83881 0.0
C119 C 0.96127 0.11155 0.84283 0.0
O120 O 0.02395 0.21506 0.81472 0.0
O121 O 0.02922 0.14129 0.76205 0.0
O122 O 0.02748 0.13668 0.86142 0.0
O123 O 0.96628 0.18039 0.75861 0.0
O124 O 0.96303 0.18882 0.85606 0.0
O125 O 0.97064 0.10811 0.81754 0.0
O126 O 0.96463 0.21173 0.81402 0.0
O127 O 0.96981 0.13664 0.75982 0.0
O128 O 0.96838 0.13032 0.85932 0.0
O129 O 0.02566 0.18487 0.75883 0.0
O130 O 0.02184 0.19552 0.85882 0.0
O131 O 0.0297 0.11357 0.82013 0.0
Sc132 Sc 0.52009 0.32999 0.34512 0.0
Sc133 Sc 0.51859 0.39891 0.33888 0.0
Sc134 Sc 0.51613 0.3691 0.4088 0.0
O135 O 0.51831 0.36594 0.36433 0.0
C136 C 0.47879 0.31989 0.39568 0.0
C137 C 0.4825 0.36082 0.30147 0.0
C138 C 0.47765 0.41389 0.3874 0.0
C139 C 0.55961 0.36336 0.3064 0.0
C140 C 0.55559 0.32213 0.40198 0.0
C141 C 0.55503 0.41616 0.39191 0.0
O142 O 0.4889 0.31467 0.37115 0.0
O143 O 0.48981 0.38351 0.30968 0.0
O144 O 0.48535 0.39724 0.40644 0.0
O145 O 0.55169 0.34144 0.31688 0.0
O146 O 0.54654 0.34121 0.41625 0.0
O147 O 0.54738 0.41766 0.36543 0.0
O148 O 0.54769 0.31583 0.37653 0.0
O149 O 0.54905 0.38504 0.31216 0.0
O150 O 0.54527 0.40005 0.41045 0.0
O151 O 0.49218 0.33974 0.31162 0.0
O152 O 0.48669 0.33866 0.41185 0.0
O153 O 0.48819 0.41684 0.36256 0.0
Sc154 Sc 0.48744 0.65924 0.84358 0.0
Sc155 Sc 0.49502 0.59066 0.84215 0.0
Sc156 Sc 0.49224 0.62325 0.91003 0.0
O157 O 0.49159 0.6244 0.86528 0.0
C158 C 0.52642 0.67412 0.89578 0.0
C159 C 0.5289 0.63081 0.80395 0.0
C160 C 0.53476 0.5806 0.89432 0.0
C161 C 0.45231 0.62097 0.80502 0.0
C162 C 0.4496 0.66679 0.89731 0.0
C163 C 0.45733 0.57323 0.89421 0.0
O164 O 0.51577 0.67848 0.87099 0.0
O165 O 0.5228 0.60771 0.81257 0.0
O166 O 0.52398 0.59612 0.91197 0.0
O167 O 0.45848 0.64371 0.81421 0.0
O168 O 0.46095 0.65065 0.91437 0.0
O169 O 0.46741 0.57017 0.86916 0.0
O170 O 0.45667 0.67123 0.87113 0.0
O171 O 0.46395 0.60027 0.81296 0.0
O172 O 0.46407 0.59165 0.91147 0.0
O173 O 0.5178 0.65122 0.81314 0.0
O174 O 0.52035 0.65466 0.91223 0.0
O175 O 0.52658 0.57698 0.86837 0.0
C176 C 0.18785 0.31652 0.9903 0.0
C177 C 0.21268 0.32113 0.97985 0.0
C178 C 0.16755 0.31243 0.97069 0.0
C179 C 0.15571 0.28772 0.89665 0.0
H180 H 0.08542 0.30466 0.91576 0.0
C181 C 0.06775 0.2446 0.83397 0.0
C182 C 0.05049 0.23151 0.85291 0.0
C183 C 0.08687 0.26131 0.84528 0.0
C184 C 0.10498 0.29999 0.91003 0.0
H185 H 0.23623 0.32625 0.94131 0.0
H186 H 0.20052 0.31944 0.90656 0.0
H187 H 0.12078 0.3253 0.94287 0.0
H188 H 0.03913 0.22639 0.89833 0.0
H189 H 0.07224 0.25571 0.91792 0.0
H190 H 0.13974 0.2619 0.86426 0.0
C191 C 0.19668 0.31867 0.92987 0.0
C192 C 0.12521 0.3117 0.92558 0.0
C193 C 0.21704 0.3227 0.94962 0.0
C194 C 0.05224 0.23604 0.8832 0.0
C195 C 0.07103 0.25303 0.8944 0.0
C196 C 0.13545 0.27622 0.88088 0.0
C197 C 0.17178 0.31293 0.94023 0.0
C198 C 0.15077 0.30488 0.91988 0.0
C199 C 0.08869 0.26558 0.87561 0.0
C200 C 0.10992 0.28151 0.88821 0.0
H201 H 0.18429 0.3151 0.01366 0.0
H202 H 0.1488 0.30759 0.97951 0.0
H203 H 0.17511 0.28182 0.89183 0.0
H204 H 0.06687 0.24145 0.81052 0.0
H205 H 0.10032 0.27076 0.83038 0.0
C206 C 0.82343 0.67246 0.49205 0.0
C207 C 0.79787 0.67016 0.48269 0.0
C208 C 0.84284 0.67793 0.47186 0.0
C209 C 0.8526 0.70907 0.39939 0.0
H210 H 0.92233 0.68545 0.41247 0.0
C211 C 0.93951 0.74908 0.33233 0.0
C212 C 0.9591 0.75938 0.35045 0.0
C213 C 0.91985 0.73332 0.34429 0.0
C214 C 0.90291 0.69207 0.40844 0.0
H215 H 0.77211 0.67093 0.44527 0.0
H216 H 0.8062 0.68006 0.40947 0.0
H217 H 0.88729 0.66563 0.44064 0.0
H218 H 0.97407 0.76028 0.39497 0.0
H219 H 0.94017 0.73248 0.41561 0.0
H220 H 0.86848 0.73583 0.36747 0.0
C221 C 0.81133 0.67796 0.43244 0.0
C222 C 0.88285 0.68084 0.42465 0.0
C223 C 0.79186 0.67255 0.45278 0.0
C224 C 0.95919 0.75275 0.38046 0.0
C225 C 0.93988 0.73667 0.39226 0.0
C226 C 0.87268 0.72011 0.38293 0.0
C227 C 0.83704 0.68117 0.44182 0.0
C228 C 0.85756 0.68984 0.4211 0.0
C229 C 0.91978 0.72714 0.37443 0.0
C230 C 0.89813 0.71232 0.388 0.0
H231 H 0.82833 0.67093 0.51516 0.0
H232 H 0.86224 0.68075 0.48007 0.0
H233 H 0.83346 0.71669 0.39621 0.0
H234 H 0.93889 0.75395 0.30914 0.0
H235 H 0.90457 0.72617 0.33009 0.0
C236 C 0.81493 0.36763 0.95169 0.0
C237 C 0.80589 0.35661 0.97799 0.0
C238 C 0.82629 0.35162 0.93075 0.0
C239 C 0.83656 0.2813 0.91109 0.0
H240 H 0.9005 0.30841 0.87902 0.0
C241 C 0.91883 0.21532 0.8738 0.0
C242 C 0.93285 0.22274 0.84872 0.0
C243 C 0.89971 0.23154 0.88458 0.0
C244 C 0.88247 0.30067 0.88735 0.0
H245 H 0.80083 0.32073 0.00326 0.0
H246 H 0.82094 0.29278 0.96722 0.0
H247 H 0.87306 0.33741 0.90661 0.0
H248 H 0.93709 0.25274 0.81478 0.0
H249 H 0.9038 0.28115 0.83383 0.0
H250 H 0.8467 0.24421 0.8929 0.0
C251 C 0.8189 0.3135 0.9621 0.0
C252 C 0.86666 0.31733 0.90313 0.0
C253 C 0.8075 0.32947 0.98286 0.0
C254 C 0.92672 0.24642 0.83417 0.0
C255 C 0.90774 0.26277 0.84513 0.0
C256 C 0.85247 0.26461 0.89551 0.0
C257 C 0.8289 0.32441 0.93601 0.0
C258 C 0.84379 0.3077 0.9158 0.0
C259 C 0.89428 0.25566 0.87067 0.0
C260 C 0.87586 0.27398 0.88403 0.0
H261 H 0.8139 0.38864 0.94771 0.0
H262 H 0.8335 0.36062 0.91076 0.0
H263 H 0.81883 0.27335 0.92002 0.0
H264 H 0.92292 0.19718 0.8855 0.0
H265 H 0.88985 0.22564 0.90447 0.0
C266 C 0.24776 0.70948 0.4498 0.0
C267 C 0.25256 0.68251 0.45085 0.0
C268 C 0.229 0.71938 0.4309 0.0
C269 C 0.16937 0.69866 0.39366 0.0
H270 H 0.17352 0.76971 0.36202 0.0
C271 C 0.08493 0.75041 0.3332 0.0
C272 C 0.07894 0.77492 0.34521 0.0
C273 C 0.1076 0.7377 0.34133 0.0
C274 C 0.17217 0.7498 0.37064 0.0
H275 H 0.24262 0.64452 0.43287 0.0
H276 H 0.2099 0.66185 0.39896 0.0
H277 H 0.21185 0.74951 0.38293 0.0
H278 H 0.09221 0.80552 0.37472 0.0
H279 H 0.13188 0.78348 0.38852 0.0
H280 H 0.12953 0.69922 0.38145 0.0
C281 C 0.22035 0.67539 0.41298 0.0
C282 C 0.19405 0.73824 0.38269 0.0
C283 C 0.23913 0.66548 0.43212 0.0
C284 C 0.09619 0.78659 0.3652 0.0
C285 C 0.119 0.7741 0.37292 0.0
C286 C 0.14755 0.71014 0.38123 0.0
C287 C 0.21472 0.70243 0.4126 0.0
C288 C 0.19273 0.71287 0.39526 0.0
C289 C 0.12486 0.74953 0.36114 0.0
C290 C 0.14861 0.73609 0.37046 0.0
H291 H 0.25785 0.72282 0.46444 0.0
H292 H 0.22491 0.74018 0.43171 0.0
H293 H 0.16754 0.67922 0.4034 0.0
H294 H 0.07199 0.7409 0.31778 0.0
H295 H 0.11174 0.71874 0.33198 0.0
C296 C 0.711 0.82223 0.92742 0.0
C297 C 0.73158 0.81083 0.94257 0.0
C298 C 0.68728 0.80924 0.92606 0.0
C299 C 0.64712 0.75671 0.95876 0.0
H300 H 0.61937 0.75133 0.87982 0.0
C301 C 0.565 0.68409 0.92725 0.0
C302 C 0.54756 0.69192 0.90522 0.0
C303 C 0.58619 0.70002 0.93437 0.0
C304 C 0.62652 0.753 0.9021 0.0
H305 H 0.74392 0.77772 0.96904 0.0
H306 H 0.70208 0.75474 0.96685 0.0
H307 H 0.65843 0.77682 0.88837 0.0
H308 H 0.53795 0.72326 0.87453 0.0
H309 H 0.57441 0.75129 0.8875 0.0
H310 H 0.61507 0.73287 0.97249 0.0
C311 C 0.70421 0.77378 0.95618 0.0
C312 C 0.64898 0.76757 0.90697 0.0
C313 C 0.72807 0.7868 0.95739 0.0
C314 C 0.55121 0.71647 0.89133 0.0
C315 C 0.57221 0.73249 0.89866 0.0
C316 C 0.62443 0.74226 0.95393 0.0
C317 C 0.68379 0.78461 0.93986 0.0
C318 C 0.65955 0.76956 0.93531 0.0
C319 C 0.59027 0.72423 0.91982 0.0
C320 C 0.6139 0.7402 0.92549 0.0
H321 H 0.7135 0.8408 0.91581 0.0
H322 H 0.67179 0.81818 0.91365 0.0
H323 H 0.65481 0.75806 0.98085 0.0
H324 H 0.56281 0.66524 0.93831 0.0
H325 H 0.59984 0.69289 0.95055 0.0
C326 C 0.29134 0.17595 0.42928 0.0
C327 C 0.27059 0.18652 0.44427 0.0
C328 C 0.31453 0.18991 0.42734 0.0
C329 C 0.35373 0.24362 0.4586 0.0
H330 H 0.38117 0.24833 0.37985 0.0
C331 C 0.43926 0.31286 0.42641 0.0
C332 C 0.45633 0.30375 0.40515 0.0
C333 C 0.41702 0.29836 0.43344 0.0
C334 C 0.37408 0.24692 0.40209 0.0
H335 H 0.2575 0.21927 0.46977 0.0
H336 H 0.29844 0.2439 0.46662 0.0
H337 H 0.342 0.22314 0.38875 0.0
H338 H 0.46406 0.2716 0.37574 0.0
H339 H 0.42592 0.24612 0.38851 0.0
H340 H 0.38609 0.26726 0.47196 0.0
C341 C 0.29682 0.22477 0.45649 0.0
C342 C 0.35154 0.23252 0.40715 0.0
C343 C 0.27347 0.21079 0.45827 0.0
C344 C 0.45116 0.27941 0.39191 0.0
C345 C 0.42915 0.26484 0.39912 0.0
C346 C 0.37652 0.25793 0.45357 0.0
C347 C 0.31738 0.21472 0.44037 0.0
C348 C 0.34119 0.23052 0.43546 0.0
C349 C 0.41149 0.27434 0.41951 0.0
C350 C 0.38708 0.25958 0.42525 0.0
H351 H 0.28937 0.15724 0.41828 0.0
H352 H 0.33013 0.1815 0.41514 0.0
H353 H 0.34621 0.24235 0.48066 0.0
H354 H 0.44263 0.33159 0.43696 0.0
H355 H 0.40379 0.30639 0.44908 0.0
C356 C 0.28906 0.83344 0.94241 0.0
C357 C 0.29443 0.84862 0.96718 0.0
C358 C 0.30257 0.81038 0.93757 0.0
C359 C 0.34482 0.76032 0.97066 0.0
H360 H 0.37391 0.7589 0.89269 0.0
C361 C 0.42694 0.69017 0.93766 0.0
C362 C 0.42783 0.68212 0.90831 0.0
C363 C 0.40822 0.70784 0.94669 0.0
C364 C 0.36558 0.75854 0.91438 0.0
H365 H 0.31708 0.85165 0.007 0.0
H366 H 0.3408 0.81095 -0.00129 0.0
H367 H 0.3451 0.79391 0.90552 0.0
H368 H 0.40869 0.6845 0.866 0.0
H369 H 0.37551 0.71418 0.88189 0.0
H370 H 0.36533 0.72476 0.97944 0.0
C371 C 0.32606 0.81673 0.98312 0.0
C372 C 0.34909 0.77875 0.92176 0.0
C373 C 0.31258 0.83995 0.98786 0.0
C374 C 0.40873 0.69072 0.88866 0.0
C375 C 0.38982 0.70792 0.89775 0.0
C376 C 0.36117 0.7398 0.96315 0.0
C377 C 0.3217 0.80214 0.95746 0.0
C378 C 0.33853 0.77992 0.94993 0.0
C379 C 0.38981 0.71748 0.9266 0.0
C380 C 0.37177 0.73867 0.93487 0.0
H381 H 0.27515 0.83996 0.92616 0.0
H382 H 0.2986 0.79938 0.91779 0.0
H383 H 0.33689 0.76073 0.99254 0.0
H384 H 0.44149 0.6839 0.95325 0.0
H385 H 0.40895 0.71484 0.96902 0.0
C386 C 0.70438 0.15415 0.44741 0.0
C387 C 0.73041 0.15937 0.45265 0.0
C388 C 0.68637 0.17386 0.45089 0.0
C389 C 0.68088 0.24569 0.44875 0.0
H390 H 0.61059 0.22813 0.46966 0.0
C391 C 0.59391 0.31669 0.43525 0.0
C392 C 0.57577 0.30587 0.41563 0.0
C393 C 0.61359 0.3011 0.44691 0.0
C394 C 0.63022 0.23339 0.46416 0.0
H395 H 0.75853 0.18855 0.46626 0.0
H396 H 0.72683 0.22336 0.47288 0.0
H397 H 0.6444 0.19627 0.47891 0.0
H398 H 0.5634 0.27023 0.39361 0.0
H399 H 0.59719 0.243 0.41457 0.0
H400 H 0.6663 0.28271 0.43343 0.0
C401 C 0.72028 0.20413 0.46582 0.0
C402 C 0.64955 0.21514 0.46923 0.0
C403 C 0.73837 0.18428 0.46222 0.0
C404 C 0.57721 0.27913 0.40853 0.0
C405 C 0.5964 0.26351 0.42066 0.0
C406 C 0.66153 0.26413 0.44406 0.0
C407 C 0.69408 0.1992 0.45981 0.0
C408 C 0.6749 0.22059 0.46035 0.0
C409 C 0.61486 0.27437 0.43973 0.0
C410 C 0.63592 0.25766 0.45064 0.0
H411 H 0.69802 0.13502 0.43973 0.0
H412 H 0.66651 0.16945 0.44539 0.0
H413 H 0.70015 0.25051 0.44149 0.0
H414 H 0.59326 0.33729 0.44097 0.0
H415 H 0.62774 0.30984 0.46151 0.0
C416 C 0.30056 0.4309 0.01012 0.0
C417 C 0.29754 0.40535 -0.00092 0.0
C418 C 0.31247 0.45061 0.99338 0.0
C419 C 0.36117 0.4558 0.93626 0.0
H420 H 0.34921 0.53057 0.94325 0.0
C421 C 0.42924 0.53367 0.885 0.0
C422 C 0.4364 0.55481 0.90311 0.0
C423 C 0.40933 0.51646 0.89302 0.0
C424 C 0.35281 0.50975 0.94119 0.0
H425 H 0.30255 0.38095 0.96095 0.0
H426 H 0.32289 0.41562 0.9313 0.0
H427 H 0.31736 0.49901 0.9619 0.0
H428 H 0.42788 0.57449 0.94382 0.0
H429 H 0.39328 0.54424 0.95798 0.0
H430 H 0.39684 0.46648 0.91618 0.0
C431 C 0.31655 0.42025 0.95319 0.0
C432 C 0.33456 0.49167 0.95179 0.0
C433 C 0.30462 0.40048 0.97001 0.0
C434 C 0.42297 0.55842 0.92939 0.0
C435 C 0.40297 0.54121 0.93736 0.0
C436 C 0.37934 0.47385 0.92557 0.0
C437 C 0.32156 0.44522 0.96515 0.0
C438 C 0.33879 0.46447 0.95001 0.0
C439 C 0.39601 0.51999 0.91932 0.0
C440 C 0.37562 0.50101 0.92846 0.0
H441 H 0.29498 0.43526 0.03238 0.0
H442 H 0.31608 0.46953 0.00339 0.0
H443 H 0.36533 0.43504 0.935 0.0
H444 H 0.43903 0.53032 0.86449 0.0
H445 H 0.40426 0.50045 0.87853 0.0
C446 C 0.67376 0.60199 0.48217 0.0
C447 C 0.69898 0.59983 0.49287 0.0
C448 C 0.66249 0.58165 0.46612 0.0
C449 C 0.64543 0.53925 0.42391 0.0
H450 H 0.65118 0.47049 0.46092 0.0
C451 C 0.5889 0.45 0.38016 0.0
C452 C 0.57591 0.43446 0.40123 0.0
C453 C 0.60748 0.46847 0.38865 0.0
C454 C 0.6494 0.48956 0.45034 0.0
H455 H 0.73269 0.57542 0.49433 0.0
H456 H 0.71289 0.53949 0.46608 0.0
H457 H 0.67773 0.50711 0.47858 0.0
H458 H 0.57309 0.4256 0.44775 0.0
H459 H 0.60537 0.45823 0.46262 0.0
H460 H 0.61637 0.52212 0.39652 0.0
C461 C 0.70187 0.55696 0.47017 0.0
C462 C 0.66484 0.51045 0.46019 0.0
C463 C 0.71327 0.57755 0.48602 0.0
C464 C 0.58265 0.43726 0.43097 0.0
C465 C 0.60127 0.45586 0.43947 0.0
C466 C 0.63008 0.51839 0.41402 0.0
C467 C 0.67614 0.55857 0.46068 0.0
C468 C 0.66261 0.53565 0.44748 0.0
C469 C 0.61357 0.47198 0.41841 0.0
C470 C 0.63153 0.49342 0.42747 0.0
H471 H 0.66238 0.61898 0.48738 0.0
H472 H 0.64257 0.58341 0.45942 0.0
H473 H 0.6434 0.55839 0.41356 0.0
H474 H 0.58452 0.44817 0.357 0.0
H475 H 0.61692 0.48023 0.37184 0.0
C476 C 0.71287 0.43895 0.97353 0.0
C477 C 0.71927 0.44492 0.0027 0.0
C478 C 0.69677 0.45558 0.95723 0.0
C479 C 0.66658 0.52189 0.95726 0.0
H480 H 0.61036 0.48591 0.91759 0.0
C481 C 0.5697 0.5714 0.93136 0.0
C482 C 0.558 0.5662 0.90408 0.0
C483 C 0.5917 0.55786 0.94025 0.0
C484 C 0.62611 0.49631 0.9282 0.0
H485 H 0.7156 0.47381 0.03695 0.0
H486 H 0.68745 0.50249 0.00892 0.0
H487 H 0.64611 0.46062 0.9372 0.0
H488 H 0.56053 0.54271 0.86468 0.0
H489 H 0.59875 0.51919 0.88031 0.0
H490 H 0.64604 0.55749 0.94906 0.0
C491 C 0.69475 0.48517 -0.00162 0.0
C492 C 0.64669 0.48181 0.93933 0.0
C493 C 0.71072 0.46859 0.01459 0.0
C494 C 0.56892 0.54721 0.88591 0.0
C495 C 0.59081 0.53361 0.89486 0.0
C496 C 0.64592 0.53636 0.94625 0.0
C497 C 0.68696 0.47853 0.96979 0.0
C498 C 0.66695 0.49436 0.9545 0.0
C499 C 0.60243 0.53874 0.92214 0.0
C500 C 0.62524 0.52367 0.93205 0.0
H501 H 0.71922 0.42081 0.96387 0.0
H502 H 0.69142 0.45011 0.9351 0.0
H503 H 0.68207 0.53224 0.96839 0.0
H504 H 0.5619 0.58591 0.94588 0.0
H505 H 0.60005 0.56203 0.96157 0.0
C506 C 0.30748 0.54815 0.48354 0.0
C507 C 0.30975 0.57504 0.47626 0.0
C508 C 0.32118 0.52942 0.46811 0.0
C509 C 0.3807 0.52724 0.4249 0.0
H510 H 0.36403 0.45282 0.42065 0.0
C511 C 0.45039 0.45298 0.37643 0.0
C512 C 0.45559 0.43084 0.39419 0.0
C513 C 0.43002 0.46942 0.38287 0.0
C514 C 0.36888 0.47357 0.42177 0.0
H515 H 0.32588 0.60283 0.44468 0.0
H516 H 0.3483 0.57009 0.41673 0.0
H517 H 0.33106 0.48374 0.43539 0.0
H518 H 0.44291 0.40824 0.43218 0.0
H519 H 0.4071 0.43711 0.44334 0.0
H520 H 0.41845 0.51706 0.41126 0.0
C521 C 0.33697 0.56357 0.43532 0.0
C522 C 0.35005 0.4913 0.43023 0.0
C523 C 0.32366 0.58236 0.45108 0.0
C524 C 0.43954 0.42523 0.41819 0.0
C525 C 0.41892 0.44159 0.42444 0.0
C526 C 0.39933 0.50961 0.4161 0.0
C527 C 0.33707 0.53709 0.44463 0.0
C528 C 0.35584 0.51836 0.43233 0.0
C529 C 0.41419 0.46401 0.40702 0.0
C530 C 0.39374 0.48258 0.41484 0.0
H531 H 0.29635 0.5417 0.50232 0.0
H532 H 0.3206 0.50925 0.47596 0.0
H533 H 0.38622 0.54775 0.42696 0.0
H534 H 0.46229 0.4579 0.35773 0.0
H535 H 0.42668 0.48648 0.36897 0.0
C536 C 0.84042 0.91789 0.91948 0.0
C537 C 0.82946 0.91739 0.94757 0.0
C538 C 0.85152 0.94097 0.90825 0.0
C539 C 0.88164 0.0029 0.93116 0.0
H540 H 0.87173 0.02299 0.84957 0.0
C541 C 0.93074 0.09537 0.88165 0.0
C542 C 0.94212 0.09216 0.85405 0.0
C543 C 0.91405 0.07612 0.89302 0.0
C544 C 0.87481 0.01756 0.87235 0.0
H545 H 0.82118 0.94094 0.98566 0.0
H546 H 0.84094 0.98124 0.96611 0.0
H547 H 0.84816 0.98522 0.8697 0.0
H548 H 0.94425 0.06642 0.81647 0.0
H549 H 0.91558 0.03282 0.83647 0.0
H550 H 0.9088 0.03473 0.93367 0.0
C551 C 0.84103 0.96365 0.95292 0.0
C552 C 0.8613 0.99596 0.88387 0.0
C553 C 0.82979 0.94058 0.96412 0.0
C554 C 0.93585 0.06961 0.83778 0.0
C555 C 0.91924 0.05036 0.84918 0.0
C556 C 0.89525 0.02444 0.91961 0.0
C557 C 0.85205 0.96406 0.92488 0.0
C558 C 0.86486 0.98817 0.91327 0.0
C559 C 0.90839 0.05323 0.87708 0.0
C560 C 0.89228 0.03178 0.88995 0.0
H561 H 0.84092 0.90027 0.90637 0.0
H562 H 0.86028 0.94055 0.88678 0.0
H563 H 0.88498 0.99719 0.95382 0.0
H564 H 0.93498 0.11257 0.89471 0.0
H565 H 0.90571 0.07911 0.91439 0.0
C566 C 0.14881 0.06858 0.46136 0.0
C567 C 0.17246 0.0781 0.45039 0.0
C568 C 0.13727 0.04591 0.44989 0.0
C569 C 0.12822 0.00949 0.38441 0.0
H570 H 0.11433 0.94829 0.43351 0.0
C571 C 0.07924 0.91681 0.33633 0.0
C572 C 0.06229 0.90249 0.35443 0.0
C573 C 0.09496 0.93671 0.34797 0.0
C574 C 0.11763 0.96531 0.41951 0.0
H575 H 0.20247 0.07057 0.41878 0.0
H576 H 0.18139 0.03185 0.39779 0.0
H577 H 0.13657 0.98641 0.4542 0.0
H578 H 0.04841 0.89782 0.3989 0.0
H579 H 0.07463 0.93322 0.41892 0.0
H580 H 0.10812 0.98947 0.35014 0.0
C581 C 0.17217 0.04197 0.41556 0.0
C582 C 0.13059 0.98702 0.43139 0.0
C583 C 0.18407 0.06429 0.42747 0.0
C584 C 0.06151 0.90832 0.38444 0.0
C585 C 0.07675 0.9286 0.39596 0.0
C586 C 0.11472 0.98806 0.37267 0.0
C587 C 0.14874 0.03259 0.42675 0.0
C588 C 0.13591 0.00927 0.41394 0.0
C589 C 0.09366 0.94322 0.3779 0.0
C590 C 0.1091 0.96564 0.39007 0.0
H591 H 0.13885 0.07886 0.47843 0.0
H592 H 0.11902 0.03911 0.45861 0.0
H593 H 0.13198 0.02661 0.37065 0.0
H594 H 0.0804 0.91258 0.31314 0.0
H595 H 0.1081 0.94697 0.33341 0.0
C596 C 0.20042 0.96348 0.93287 0.0
C597 C 0.20422 0.96379 0.96343 0.0
C598 C 0.18515 0.98238 0.91904 0.0
C599 C 0.15482 0.04731 0.92883 0.0
H600 H 0.1055 0.02044 0.87207 0.0
C601 C 0.0671 0.10674 0.88767 0.0
C602 C 0.05963 0.10408 0.85811 0.0
C603 C 0.08668 0.09126 0.89962 0.0
C604 C 0.11939 0.0284 0.88752 0.0
H605 H 0.19603 0.98504 0.00319 0.0
H606 H 0.16905 0.01779 0.9791 0.0
H607 H 0.13662 0.99087 0.89419 0.0
H608 H 0.06773 0.08368 0.81768 0.0
H609 H 0.10197 0.05707 0.8384 0.0
H610 H 0.1373 0.08484 0.92232 0.0
C611 C 0.17796 0.003 0.96581 0.0
C612 C 0.13727 0.01142 0.90021 0.0
C613 C 0.19321 0.98406 0.97966 0.0
C614 C 0.07274 0.0861 0.84061 0.0
C615 C 0.09233 0.07072 0.85252 0.0
C616 C 0.13692 0.06435 0.91608 0.0
C617 C 0.17333 0.00207 0.93541 0.0
C618 C 0.15514 0.02061 0.9211 0.0
C619 C 0.0993 0.07281 0.88227 0.0
C620 C 0.11892 0.05506 0.89533 0.0
H621 H 0.20845 0.94804 0.91974 0.0
H622 H 0.18227 0.98134 0.89552 0.0
H623 H 0.16851 0.05506 0.94464 0.0
H624 H 0.05745 0.12035 0.90182 0.0
H625 H 0.09139 0.09321 0.92268 0.0
C626 C 0.82828 0.04211 0.41794 0.0
C627 C 0.82152 0.04385 0.44762 0.0
C628 C 0.83958 0.0194 0.40737 0.0
C629 C 0.87824 0.96377 0.43235 0.0
H630 H 0.86431 0.93796 0.35401 0.0
C631 C 0.93738 0.88035 0.38325 0.0
C632 C 0.94661 0.88569 0.35486 0.0
C633 C 0.91802 0.89566 0.39513 0.0
C634 C 0.86841 0.94495 0.37593 0.0
H635 H 0.82032 0.02279 0.48922 0.0
H636 H 0.84014 0.98306 0.47072 0.0
H637 H 0.83772 0.97253 0.374 0.0
H638 H 0.94179 0.9106 0.31621 0.0
H639 H 0.90846 0.93734 0.33703 0.0
H640 H 0.90942 0.93686 0.43398 0.0
C641 C 0.83701 0.99942 0.45575 0.0
C642 C 0.85322 0.96474 0.38736 0.0
C643 C 0.82572 0.02215 0.46634 0.0
C644 C 0.93529 0.90596 0.33821 0.0
C645 C 0.91596 0.9212 0.35005 0.0
C646 C 0.89345 0.94399 0.42093 0.0
C647 C 0.84434 0.99792 0.42622 0.0
C648 C 0.85836 0.97479 0.41542 0.0
C649 C 0.90744 0.91655 0.37883 0.0
C650 C 0.88909 0.93482 0.39233 0.0
H651 H 0.82559 0.05862 0.40307 0.0
H652 H 0.84541 0.01904 0.38462 0.0
H653 H 0.88289 0.97128 0.45391 0.0
H654 H 0.94554 0.86478 0.39663 0.0
H655 H 0.91162 0.89142 0.41725 0.0
C656 C 0.31806 0.37973 0.11047 0.0
C657 C 0.3145 0.3575 0.0928 0.0
C658 C 0.33423 0.37873 0.13494 0.0
C659 C 0.36765 0.33454 0.18667 0.0
H660 H 0.41633 0.39277 0.19166 0.0
C661 C 0.45563 0.33507 0.26556 0.0
C662 C 0.4618 0.35907 0.27914 0.0
C663 C 0.43651 0.33387 0.24388 0.0
C664 C 0.40267 0.37653 0.19085 0.0
H665 H 0.32426 0.3165 0.08755 0.0
H666 H 0.35254 0.31475 0.13056 0.0
H667 H 0.38416 0.39242 0.15276 0.0
H668 H 0.45206 0.40041 0.28127 0.0
H669 H 0.41864 0.39817 0.24398 0.0
H670 H 0.38628 0.31869 0.22491 0.0
C671 C 0.34268 0.33288 0.12548 0.0
C672 C 0.38424 0.37634 0.16855 0.0
C673 C 0.32649 0.33388 0.1009 0.0
C674 C 0.44807 0.38166 0.27103 0.0
C675 C 0.42894 0.38041 0.24954 0.0
C676 C 0.38609 0.33478 0.20915 0.0
C677 C 0.34717 0.35549 0.14229 0.0
C678 C 0.36647 0.35543 0.1663 0.0
C679 C 0.42315 0.35661 0.23545 0.0
C680 C 0.40371 0.35587 0.21153 0.0
H681 H 0.30867 0.39805 0.10505 0.0
H682 H 0.33696 0.39631 0.14787 0.0
H683 H 0.35409 0.31823 0.18548 0.0
H684 H 0.46584 0.3173 0.2713 0.0
H685 H 0.43263 0.31528 0.23325 0.0
C686 C 0.68201 0.66526 0.60185 0.0
C687 C 0.68872 0.64081 0.5903 0.0
C688 C 0.66717 0.66649 0.62726 0.0
C689 C 0.64637 0.62724 0.69183 0.0
H690 H 0.58691 0.67236 0.69045 0.0
C691 C 0.56182 0.61179 0.77068 0.0
C692 C 0.54955 0.63397 0.78188 0.0
C693 C 0.58073 0.61459 0.7493 0.0
C694 C 0.60367 0.65998 0.69142 0.0
H695 H 0.68606 0.59857 0.5968 0.0
H696 H 0.66013 0.60068 0.64091 0.0
H697 H 0.61705 0.67404 0.64972 0.0
H698 H 0.54798 0.6766 0.77956 0.0
H699 H 0.58118 0.68143 0.74237 0.0
H700 H 0.63286 0.61288 0.73328 0.0
C701 C 0.66631 0.61891 0.63048 0.0
C702 C 0.62093 0.66095 0.66808 0.0
C703 C 0.68093 0.61769 0.60505 0.0
C704 C 0.55693 0.65906 0.77138 0.0
C705 C 0.57588 0.66185 0.74995 0.0
C706 C 0.62917 0.62632 0.71518 0.0
C707 C 0.65904 0.6433 0.64173 0.0
C708 C 0.6422 0.64423 0.66779 0.0
C709 C 0.58792 0.63963 0.73858 0.0
C710 C 0.60736 0.64231 0.71499 0.0
H711 H 0.68767 0.68339 0.59084 0.0
H712 H 0.662 0.68557 0.63555 0.0
H713 H 0.66283 0.61444 0.69245 0.0
H714 H 0.55664 0.59215 0.77816 0.0
H715 H 0.58932 0.59702 0.74069 0.0
C716 C 0.7123 0.41649 0.115 0.0
C717 C 0.72139 0.39606 0.09764 0.0
C718 C 0.69767 0.4109 0.13982 0.0
C719 C 0.67675 0.35863 0.19201 0.0
H720 H 0.61727 0.40329 0.19808 0.0
C721 C 0.59043 0.34137 0.27228 0.0
C722 C 0.58158 0.36419 0.28594 0.0
C723 C 0.60953 0.34318 0.25079 0.0
C724 C 0.63389 0.39078 0.19685 0.0
H725 H 0.72351 0.35378 0.09329 0.0
H726 H 0.69747 0.34389 0.13668 0.0
H727 H 0.64729 0.41048 0.15828 0.0
H728 H 0.58719 0.40649 0.28918 0.0
H729 H 0.62021 0.40949 0.25212 0.0
H730 H 0.66282 0.33879 0.23074 0.0
C731 C 0.70189 0.36423 0.13123 0.0
C732 C 0.65117 0.39495 0.17409 0.0
C733 C 0.71676 0.36986 0.10642 0.0
C734 C 0.59312 0.38855 0.27875 0.0
C735 C 0.61206 0.39032 0.25745 0.0
C736 C 0.65928 0.35437 0.21489 0.0
C737 C 0.69156 0.38475 0.14767 0.0
C738 C 0.67304 0.37927 0.17164 0.0
C739 C 0.61999 0.36782 0.24268 0.0
C740 C 0.63793 0.37075 0.21775 0.0
H741 H 0.71598 0.43685 0.10894 0.0
H742 H 0.69059 0.42714 0.15247 0.0
H743 H 0.69341 0.34621 0.19066 0.0
H744 H 0.582 0.3223 0.27741 0.0
H745 H 0.61534 0.32552 0.23971 0.0
C746 C 0.29806 0.62215 0.60108 0.0
C747 C 0.31081 0.60852 0.57888 0.0
C748 C 0.30722 0.62148 0.62996 0.0
C749 C 0.34723 0.58577 0.68249 0.0
H750 H 0.37128 0.65414 0.70872 0.0
C751 C 0.42955 0.5964 0.7653 0.0
C752 C 0.43096 0.61833 0.78371 0.0
C753 C 0.41006 0.59417 0.74432 0.0
C754 C 0.36416 0.63493 0.7023 0.0
H755 H 0.34278 0.5827 0.57023 0.0
H756 H 0.35784 0.58066 0.62074 0.0
H757 H 0.34425 0.65102 0.66508 0.0
H758 H 0.41243 0.65461 0.79546 0.0
H759 H 0.37777 0.65032 0.75942 0.0
H760 H 0.36707 0.56951 0.7195 0.0
C761 C 0.34083 0.59192 0.6156 0.0
C762 C 0.34872 0.63319 0.67721 0.0
C763 C 0.33206 0.59302 0.58665 0.0
C764 C 0.41201 0.63765 0.78129 0.0
C765 C 0.39219 0.6352 0.76058 0.0
C766 C 0.36225 0.5875 0.70791 0.0
C767 C 0.32889 0.60665 0.6373 0.0
C768 C 0.34087 0.60856 0.66661 0.0
C769 C 0.39118 0.6136 0.74154 0.0
C770 C 0.37172 0.61204 0.71752 0.0
H771 H 0.28133 0.63384 0.59604 0.0
H772 H 0.29769 0.63292 0.64647 0.0
H773 H 0.34118 0.56657 0.67474 0.0
H774 H 0.44397 0.58126 0.7665 0.0
H775 H 0.41036 0.57757 0.72967 0.0
C776 C 0.82081 0.87154 0.05348 0.0
C777 C 0.81925 0.85316 0.0307 0.0
C778 C 0.83209 0.86483 0.08038 0.0
C779 C 0.88063 0.81968 0.10949 0.0
H780 H 0.86286 0.85074 0.18381 0.0
C781 C 0.94384 0.806 0.21286 0.0
C782 C 0.94978 0.82929 0.22802 0.0
C783 C 0.92445 0.80558 0.19146 0.0
C784 C 0.86805 0.84195 0.16319 0.0
H785 H 0.82671 0.81276 0.01905 0.0
H786 H 0.84575 0.80081 0.06631 0.0
H787 H 0.8337 0.85515 0.14185 0.0
H788 H 0.93929 0.87017 0.23314 0.0
H789 H 0.90569 0.8694 0.19574 0.0
H790 H 0.91522 0.80702 0.13059 0.0
C791 C 0.83876 0.82061 0.06313 0.0
C792 C 0.85137 0.84446 0.13916 0.0
C793 C 0.82754 0.82736 0.03616 0.0
C794 C 0.93535 0.85191 0.22185 0.0
C795 C 0.91591 0.85143 0.20056 0.0
C796 C 0.89723 0.81708 0.13353 0.0
C797 C 0.84196 0.83953 0.0852 0.0
C798 C 0.85773 0.83386 0.11183 0.0
C799 C 0.91047 0.82837 0.18485 0.0
C800 C 0.8914 0.82866 0.16046 0.0
H801 H 0.81425 0.89147 0.05009 0.0
H802 H 0.83433 0.87996 0.09676 0.0
H803 H 0.8864 0.81165 0.0887 0.0
H804 H 0.95445 0.78817 0.21712 0.0
H805 H 0.92053 0.78744 0.17992 0.0
C806 C 0.18458 0.12197 0.5567 0.0
C807 C 0.18605 0.14057 0.5337 0.0
C808 C 0.17356 0.12847 0.58347 0.0
C809 C 0.12569 0.17395 0.61188 0.0
H810 H 0.14376 0.14186 0.68666 0.0
C811 C 0.06385 0.18777 0.71501 0.0
C812 C 0.05773 0.16443 0.73045 0.0
C813 C 0.08298 0.18808 0.69362 0.0
C814 C 0.13847 0.15094 0.66591 0.0
H815 H 0.1787 0.18116 0.52158 0.0
H816 H 0.16022 0.19273 0.56858 0.0
H817 H 0.17235 0.13732 0.64485 0.0
H818 H 0.0677 0.12334 0.73614 0.0
H819 H 0.10084 0.12391 0.69883 0.0
H820 H 0.09158 0.18707 0.63272 0.0
C821 C 0.16703 0.17291 0.56568 0.0
C822 C 0.15484 0.14834 0.64195 0.0
C823 C 0.17796 0.16637 0.53885 0.0
C824 C 0.07176 0.14165 0.72461 0.0
C825 C 0.09096 0.14201 0.70337 0.0
C826 C 0.10942 0.17664 0.63585 0.0
C827 C 0.16386 0.15379 0.58795 0.0
C828 C 0.14838 0.15934 0.61446 0.0
C829 C 0.09655 0.16512 0.68733 0.0
C830 C 0.11533 0.1647 0.66296 0.0
H831 H 0.191 0.10203 0.5536 0.0
H832 H 0.17138 0.11318 0.60001 0.0
H833 H 0.11982 0.18231 0.59098 0.0
H834 H 0.05353 0.20571 0.71899 0.0
H835 H 0.08702 0.20625 0.68182 0.0
C836 C 0.20273 0.9153 0.068 0.0
C837 C 0.20902 0.89816 0.04532 0.0
C838 C 0.18851 0.9063 0.09193 0.0
C839 C 0.16397 0.84802 0.13239 0.0
H840 H 0.10743 0.89444 0.14857 0.0
C841 C 0.07863 0.82137 0.21043 0.0
C842 C 0.06954 0.84194 0.22777 0.0
C843 C 0.09751 0.82629 0.18922 0.0
C844 C 0.12328 0.88138 0.14466 0.0
H845 H 0.2069 0.8578 0.03071 0.0
H846 H 0.18169 0.84193 0.07279 0.0
H847 H 0.1379 0.90631 0.11057 0.0
H848 H 0.07436 0.88341 0.23761 0.0
H849 H 0.10728 0.89176 0.20129 0.0
H850 H 0.14905 0.82308 0.16677 0.0
C851 C 0.1879 0.86233 0.07201 0.0
C852 C 0.14077 0.8882 0.12285 0.0
C853 C 0.2023 0.87138 0.04798 0.0
C854 C 0.08049 0.86719 0.22428 0.0
C855 C 0.09936 0.87202 0.20335 0.0
C856 C 0.14639 0.84119 0.15446 0.0
C857 C 0.18011 0.87996 0.09368 0.0
C858 C 0.1615 0.87183 0.11668 0.0
C859 C 0.1077 0.85182 0.18508 0.0
C860 C 0.12603 0.85802 0.16106 0.0
H861 H 0.20807 0.93595 0.0667 0.0
H862 H 0.18335 0.92021 0.10865 0.0
H863 H 0.17976 0.83501 0.12806 0.0
H864 H 0.07065 0.80167 0.21265 0.0
H865 H 0.10349 0.81032 0.17543 0.0
C866 C 0.80574 0.11967 0.54772 0.0
C867 C 0.82134 0.11339 0.52388 0.0
C868 C 0.81687 0.1282 0.57409 0.0
C869 C 0.8496 0.12524 0.63096 0.0
H870 H 0.90576 0.17617 0.63012 0.0
C871 C 0.9289 0.1304 0.71977 0.0
C872 C 0.93852 0.15525 0.72804 0.0
C873 C 0.91054 0.12813 0.6974 0.0
C874 C 0.88987 0.16221 0.63086 0.0
H875 H 0.86047 0.11199 0.50825 0.0
H876 H 0.87985 0.12722 0.55399 0.0
H877 H 0.88106 0.16818 0.58534 0.0
H878 H 0.93546 0.19727 0.71997 0.0
H879 H 0.90355 0.1932 0.68081 0.0
H880 H 0.859 0.11865 0.67631 0.0
C881 C 0.85912 0.12548 0.55249 0.0
C882 C 0.87587 0.15751 0.60518 0.0
C883 C 0.84808 0.1166 0.52642 0.0
C884 C 0.92865 0.17781 0.71406 0.0
C885 C 0.9104 0.1755 0.69158 0.0
C886 C 0.86378 0.12977 0.65664 0.0
C887 C 0.84369 0.13106 0.5767 0.0
C888 C 0.85598 0.13859 0.60482 0.0
C889 C 0.90147 0.15063 0.68269 0.0
C890 C 0.88439 0.14793 0.65668 0.0
H891 H 0.78507 0.11723 0.54622 0.0
H892 H 0.80457 0.13245 0.59245 0.0
H893 H 0.83444 0.11044 0.63122 0.0
H894 H 0.93592 0.1126 0.73016 0.0
H895 H 0.90422 0.10867 0.69084 0.0
loop_
_geom_bond_atom_site_label_1
_geom_bond_atom_site_label_2
_geom_bond_distance
_geom_bond_site_symmetry_2
_ccdc_geom_bond_type
H0 C3 0.929 . S
H1 C6 0.929 . S
H2 C8 0.930 . S
C3 H0 0.929 . S
C3 C4 1.398 . S
C3 C5 1.396 1_554 S
C4 C3 1.398 . S
C4 C8 1.407 . S
C5 C3 1.396 1_556 S
C5 C6 1.394 . S
C6 H1 0.929 . S
C6 C5 1.394 . S
C6 C7 1.382 1_556 S
C7 C6 1.382 1_554 S
C7 C8 1.392 . S
C7 N9 1.420 1_554 S
C8 H2 0.930 . S
C8 C4 1.407 . S
C8 C7 1.392 . S
N9 C7 1.420 1_556 S
N9 C10 1.244 . S
C10 N9 1.244 . S
H11 C14 0.929 . S
H12 C17 0.929 . S
H13 C19 0.930 . S
C14 H11 0.929 . S
C14 C15 1.398 . S
C14 C16 1.396 . S
C15 C14 1.398 . S
C15 C19 1.407 . S
C16 C14 1.396 . S
C16 C17 1.394 . S
C17 H12 0.929 . S
C17 C16 1.394 . S
C17 C18 1.382 . S
C18 C17 1.382 . S
C18 C19 1.392 . S
C18 N20 1.420 . S
C19 H13 0.930 . S
C19 C15 1.407 . S
C19 C18 1.392 . S
N20 C18 1.420 . S
N20 C21 1.244 . S
C21 N20 1.244 . S
H22 C25 0.929 . S
H23 C28 0.929 . S
H24 C30 0.930 . S
C25 H22 0.929 . S
C25 C26 1.398 . S
C25 C27 1.396 1_554 S
C26 C25 1.398 . S
C26 C30 1.407 . S
C27 C25 1.396 1_556 S
C27 C28 1.394 . S
C28 H23 0.929 . S
C28 C27 1.394 . S
C28 C29 1.382 1_556 S
C29 C28 1.382 1_554 S
C29 C30 1.392 . S
C29 N31 1.420 . S
C30 H24 0.930 . S
C30 C26 1.407 . S
C30 C29 1.392 . S
N31 C29 1.420 . S
N31 C32 1.244 1_554 S
C32 N31 1.244 1_556 S
H33 C36 0.929 . S
H34 C39 0.929 . S
H35 C41 0.930 . S
C36 H33 0.929 . S
C36 C37 1.398 . S
C36 C38 1.396 . S
C37 C36 1.398 . S
C37 C41 1.407 . S
C38 C36 1.396 . S
C38 C39 1.394 . S
C39 H34 0.929 . S
C39 C38 1.394 . S
C39 C40 1.382 . S
C40 C39 1.382 . S
C40 C41 1.392 . S
C40 N42 1.420 . S
C41 H35 0.930 . S
C41 C37 1.407 . S
C41 C40 1.392 . S
N42 C40 1.420 . S
N42 C43 1.244 . S
C43 N42 1.244 . S
H44 C47 0.929 . S
H45 C50 0.929 . S
H46 C52 0.930 . S
C47 H44 0.929 . S
C47 C48 1.398 . S
C47 C49 1.396 1_554 S
C48 C47 1.398 . S
C48 C52 1.407 . S
C49 C47 1.396 1_556 S
C49 C50 1.394 . S
C50 H45 0.929 . S
C50 C49 1.394 . S
C50 C51 1.382 1_556 S
C51 C50 1.382 1_554 S
C51 C52 1.392 . S
C51 N53 1.420 1_554 S
C52 H46 0.930 . S
C52 C48 1.407 . S
C52 C51 1.392 . S
N53 C51 1.420 1_556 S
N53 C54 1.244 . S
C54 N53 1.244 . S
H55 C58 0.929 . S
H56 C61 0.929 . S
H57 C63 0.930 . S
C58 H55 0.929 . S
C58 C59 1.398 . S
C58 C60 1.396 . S
C59 C58 1.398 . S
C59 C63 1.407 . S
C60 C58 1.396 . S
C60 C61 1.394 . S
C61 H56 0.929 . S
C61 C60 1.394 . S
C61 C62 1.382 . S
C62 C61 1.382 . S
C62 C63 1.392 . S
C62 N64 1.420 . S
C63 H57 0.930 . S
C63 C59 1.407 . S
C63 C62 1.392 . S
N64 C62 1.420 . S
N64 C65 1.244 . S
C65 N64 1.244 . S
H66 C69 0.929 . S
H67 C72 0.929 . S
H68 C74 0.930 . S
C69 H66 0.929 . S
C69 C70 1.398 . S
C69 C71 1.396 1_554 S
C70 C69 1.398 . S
C70 C74 1.407 . S
C71 C69 1.396 1_556 S
C71 C72 1.394 . S
C72 H67 0.929 . S
C72 C71 1.394 . S
C72 C73 1.382 1_556 S
C73 C72 1.382 1_554 S
C73 C74 1.392 . S
C73 N75 1.420 . S
C74 H68 0.930 . S
C74 C70 1.407 . S
C74 C73 1.392 . S
N75 C73 1.420 . S
N75 C76 1.244 1_554 S
C76 N75 1.244 1_556 S
H77 C80 0.929 . S
H78 C83 0.929 . S
H79 C85 0.930 . S
C80 H77 0.929 . S
C80 C81 1.398 . S
C80 C82 1.396 . S
C81 C80 1.398 . S
C81 C85 1.407 . S
C82 C80 1.396 . S
C82 C83 1.394 . S
C83 H78 0.929 . S
C83 C82 1.394 . S
C83 C84 1.382 . S
C84 C83 1.382 . S
C84 C85 1.392 . S
C84 N86 1.420 . S
C85 H79 0.930 . S
C85 C81 1.407 . S
C85 C84 1.392 . S
N86 C84 1.420 . S
N86 C87 1.244 . S
C87 N86 1.244 . S
Sc88 O91 2.025 . S
Sc88 O98 2.105 1_455 S
Sc88 O101 2.105 . S
Sc88 O104 2.105 . S
Sc88 O107 2.105 1_455 S
Sc89 O91 2.025 . S
Sc89 O99 2.105 1_455 S
Sc89 O103 2.105 . S
Sc89 O105 2.105 . S
Sc89 O109 2.105 1_455 S
Sc90 O91 2.025 . S
Sc90 O100 2.105 1_455 S
Sc90 O102 2.105 . S
Sc90 O106 2.105 . S
Sc90 O108 2.105 1_455 S
O91 Sc88 2.025 . S
O91 Sc89 2.025 . S
O91 Sc90 2.025 . S
C92 O98 1.268 . S
C92 O108 1.268 . S
C93 O99 1.268 . S
C93 O107 1.268 . S
C94 O100 1.268 . S
C94 O109 1.268 . S
C95 O101 1.268 . S
C95 O105 1.268 . S
C96 O102 1.268 . S
C96 O104 1.268 . S
C97 O103 1.268 . S
C97 O106 1.268 . S
O98 Sc88 2.105 1_655 S
O98 C92 1.268 . S
O99 Sc89 2.105 1_655 S
O99 C93 1.268 . S
O100 Sc90 2.105 1_655 S
O100 C94 1.268 . S
O101 Sc88 2.105 . S
O101 C95 1.268 . S
O102 Sc90 2.105 . S
O102 C96 1.268 . S
O103 Sc89 2.105 . S
O103 C97 1.268 . S
O104 Sc88 2.105 . S
O104 C96 1.268 . S
O105 Sc89 2.105 . S
O105 C95 1.268 . S
O106 Sc90 2.105 . S
O106 C97 1.268 . S
O107 Sc88 2.105 1_655 S
O107 C93 1.268 . S
O108 Sc90 2.105 1_655 S
O108 C92 1.268 . S
O109 Sc89 2.105 1_655 S
O109 C94 1.268 . S
Sc110 O113 2.025 . S
Sc110 O120 2.105 . S
Sc110 O123 2.105 1_455 S
Sc110 O126 2.105 1_455 S
Sc110 O129 2.105 . S
Sc111 O113 2.025 . S
Sc111 O121 2.105 . S
Sc111 O125 2.105 1_455 S
Sc111 O127 2.105 1_455 S
Sc111 O131 2.105 . S
Sc112 O113 2.025 . S
Sc112 O122 2.105 . S
Sc112 O124 2.105 1_455 S
Sc112 O128 2.105 1_455 S
Sc112 O130 2.105 . S
O113 Sc110 2.025 . S
O113 Sc111 2.025 . S
O113 Sc112 2.025 . S
C114 O120 1.268 . S
C114 O130 1.268 . S
C115 O121 1.268 . S
C115 O129 1.268 . S
C116 O122 1.268 . S
C116 O131 1.268 . S
C117 O123 1.268 . S
C117 O127 1.268 . S
C118 O124 1.268 . S
C118 O126 1.268 . S
C119 O125 1.268 . S
C119 O128 1.268 . S
O120 Sc110 2.105 . S
O120 C114 1.268 . S
O121 Sc111 2.105 . S
O121 C115 1.268 . S
O122 Sc112 2.105 . S
O122 C116 1.268 . S
O123 Sc110 2.105 1_655 S
O123 C117 1.268 . S
O124 Sc112 2.105 1_655 S
O124 C118 1.268 . S
O125 Sc111 2.105 1_655 S
O125 C119 1.268 . S
O126 Sc110 2.105 1_655 S
O126 C118 1.268 . S
O127 Sc111 2.105 1_655 S
O127 C117 1.268 . S
O128 Sc112 2.105 1_655 S
O128 C119 1.268 . S
O129 Sc110 2.105 . S
O129 C115 1.268 . S
O130 Sc112 2.105 . S
O130 C114 1.268 . S
O131 Sc111 2.105 . S
O131 C116 1.268 . S
Sc132 O135 2.025 . S
Sc132 O142 2.105 . S
Sc132 O145 2.105 . S
Sc132 O148 2.105 . S
Sc132 O151 2.105 . S
Sc133 O135 2.025 . S
Sc133 O143 2.105 . S
Sc133 O147 2.105 . S
Sc133 O149 2.105 . S
Sc133 O153 2.105 . S
Sc134 O135 2.025 . S
Sc134 O144 2.105 . S
Sc134 O146 2.105 . S
Sc134 O150 2.105 . S
Sc134 O152 2.105 . S
O135 Sc132 2.025 . S
O135 Sc133 2.025 . S
O135 Sc134 2.025 . S
C136 O142 1.268 . S
C136 O152 1.268 . S
C137 O143 1.268 . S
C137 O151 1.268 . S
C138 O144 1.268 . S
C138 O153 1.268 . S
C139 O145 1.268 . S
C139 O149 1.268 . S
C140 O146 1.268 . S
C140 O148 1.268 . S
C141 O147 1.268 . S
C141 O150 1.268 . S
O142 Sc132 2.105 . S
O142 C136 1.268 . S
O143 Sc133 2.105 . S
O143 C137 1.268 . S
O144 Sc134 2.105 . S
O144 C138 1.268 . S
O145 Sc132 2.105 . S
O145 C139 1.268 . S
O146 Sc134 2.105 . S
O146 C140 1.268 . S
O147 Sc133 2.105 . S
O147 C141 1.268 . S
O148 Sc132 2.105 . S
O148 C140 1.268 . S
O149 Sc133 2.105 . S
O149 C139 1.268 . S
O150 Sc134 2.105 . S
O150 C141 1.268 . S
O151 Sc132 2.105 . S
O151 C137 1.268 . S
O152 Sc134 2.105 . S
O152 C136 1.268 . S
O153 Sc133 2.105 . S
O153 C138 1.268 . S
Sc154 O157 2.025 . S
Sc154 O164 2.105 . S
Sc154 O167 2.105 . S
Sc154 O170 2.105 . S
Sc154 O173 2.105 . S
Sc155 O157 2.025 . S
Sc155 O165 2.105 . S
Sc155 O169 2.105 . S
Sc155 O171 2.105 . S
Sc155 O175 2.105 . S
Sc156 O157 2.025 . S
Sc156 O166 2.105 . S
Sc156 O168 2.105 . S
Sc156 O172 2.105 . S
Sc156 O174 2.105 . S
O157 Sc154 2.025 . S
O157 Sc155 2.025 . S
O157 Sc156 2.025 . S
C158 O164 1.268 . S
C158 O174 1.268 . S
C159 O165 1.268 . S
C159 O173 1.268 . S
C160 O166 1.268 . S
C160 O175 1.268 . S
C161 O167 1.268 . S
C161 O171 1.268 . S
C162 O168 1.268 . S
C162 O170 1.268 . S
C163 O169 1.268 . S
C163 O172 1.268 . S
O164 Sc154 2.105 . S
O164 C158 1.268 . S
O165 Sc155 2.105 . S
O165 C159 1.268 . S
O166 Sc156 2.105 . S
O166 C160 1.268 . S
O167 Sc154 2.105 . S
O167 C161 1.268 . S
O168 Sc156 2.105 . S
O168 C162 1.268 . S
O169 Sc155 2.105 . S
O169 C163 1.268 . S
O170 Sc154 2.105 . S
O170 C162 1.268 . S
O171 Sc155 2.105 . S
O171 C161 1.268 . S
O172 Sc156 2.105 . S
O172 C163 1.268 . S
O173 Sc154 2.105 . S
O173 C159 1.268 . S
O174 Sc156 2.105 . S
O174 C158 1.268 . S
O175 Sc155 2.105 . S
O175 C160 1.268 . S
C176 C177 1.349 . S
C176 C178 1.327 . S
C176 H201 0.950 1_556 S
C177 C176 1.349 . S
C177 C193 1.349 . S
C178 C176 1.327 . S
C178 C197 1.429 . S
C178 H202 0.950 . S
C179 C196 1.574 . S
C179 C198 1.368 . S
C179 H203 0.949 . S
H180 C184 0.949 . S
C181 C182 1.349 . S
C181 C183 1.327 . S
C181 H204 0.950 . S
C182 C181 1.349 . S
C182 C194 1.349 . S
C183 C181 1.327 . S
C183 C199 1.429 . S
C183 H205 0.950 . S
C184 H180 0.949 . S
C184 C192 1.574 . S
C184 C200 1.368 . S
H185 C193 0.950 . S
H186 C191 0.950 . S
H187 C192 0.949 . S
H188 C194 0.950 . S
H189 C195 0.950 . S
H190 C196 0.949 . S
C191 H186 0.950 . S
C191 C193 1.327 . S
C191 C197 1.429 . S
C192 C184 1.574 . S
C192 H187 0.949 . S
C192 C198 1.368 . S
C193 C177 1.349 . S
C193 H185 0.950 . S
C193 C191 1.327 . S
C194 C182 1.349 . S
C194 H188 0.950 . S
C194 C195 1.327 . S
C195 H189 0.950 . S
C195 C194 1.327 . S
C195 C199 1.429 . S
C196 C179 1.574 . S
C196 H190 0.949 . S
C196 C200 1.368 . S
C197 C178 1.429 . S
C197 C191 1.429 . S
C197 C198 1.523 . S
C198 C179 1.368 . S
C198 C192 1.368 . S
C198 C197 1.523 . S
C199 C183 1.429 . S
C199 C195 1.429 . S
C199 C200 1.523 . S
C200 C184 1.368 . S
C200 C196 1.368 . S
C200 C199 1.523 . S
H201 C176 0.950 1_554 S
H202 C178 0.950 . S
H203 C179 0.949 . S
H204 C181 0.950 . S
H205 C183 0.950 . S
C206 C207 1.349 . S
C206 C208 1.327 . S
C206 H231 0.950 . S
C207 C206 1.349 . S
C207 C223 1.349 . S
C208 C206 1.327 . S
C208 C227 1.429 . S
C208 H232 0.950 . S
C209 C226 1.574 . S
C209 C228 1.368 . S
C209 H233 0.949 . S
H210 C214 0.949 . S
C211 C212 1.349 . S
C211 C213 1.327 . S
C211 H234 0.950 . S
C212 C211 1.349 . S
C212 C224 1.349 . S
C213 C211 1.327 . S
C213 C229 1.429 . S
C213 H235 0.950 . S
C214 H210 0.949 . S
C214 C222 1.574 . S
C214 C230 1.368 . S
H215 C223 0.950 . S
H216 C221 0.950 . S
H217 C222 0.949 . S
H218 C224 0.950 . S
H219 C225 0.950 . S
H220 C226 0.949 . S
C221 H216 0.950 . S
C221 C223 1.327 . S
C221 C227 1.429 . S
C222 C214 1.574 . S
C222 H217 0.949 . S
C222 C228 1.368 . S
C223 C207 1.349 . S
C223 H215 0.950 . S
C223 C221 1.327 . S
C224 C212 1.349 . S
C224 H218 0.950 . S
C224 C225 1.327 . S
C225 H219 0.950 . S
C225 C224 1.327 . S
C225 C229 1.429 . S
C226 C209 1.574 . S
C226 H220 0.949 . S
C226 C230 1.368 . S
C227 C208 1.429 . S
C227 C221 1.429 . S
C227 C228 1.523 . S
C228 C209 1.368 . S
C228 C222 1.368 . S
C228 C227 1.523 . S
C229 C213 1.429 . S
C229 C225 1.429 . S
C229 C230 1.523 . S
C230 C214 1.368 . S
C230 C226 1.368 . S
C230 C229 1.523 . S
H231 C206 0.950 . S
H232 C208 0.950 . S
H233 C209 0.949 . S
H234 C211 0.950 . S
H235 C213 0.950 . S
C236 C237 1.349 . S
C236 C238 1.327 . S
C236 H261 0.950 . S
C237 C236 1.349 . S
C237 C253 1.349 . S
C238 C236 1.327 . S
C238 C257 1.429 . S
C238 H262 0.950 . S
C239 C256 1.574 . S
C239 C258 1.368 . S
C239 H263 0.949 . S
H240 C244 0.949 . S
C241 C242 1.349 . S
C241 C243 1.327 . S
C241 H264 0.950 . S
C242 C241 1.349 . S
C242 C254 1.349 . S
C243 C241 1.327 . S
C243 C259 1.429 . S
C243 H265 0.950 . S
C244 H240 0.949 . S
C244 C252 1.574 . S
C244 C260 1.368 . S
H245 C253 0.950 . S
H246 C251 0.950 . S
H247 C252 0.949 . S
H248 C254 0.950 . S
H249 C255 0.950 . S
H250 C256 0.949 . S
C251 H246 0.950 . S
C251 C253 1.327 . S
C251 C257 1.429 . S
C252 C244 1.574 . S
C252 H247 0.949 . S
C252 C258 1.368 . S
C253 C237 1.349 . S
C253 H245 0.950 . S
C253 C251 1.327 . S
C254 C242 1.349 . S
C254 H248 0.950 . S
C254 C255 1.327 . S
C255 H249 0.950 . S
C255 C254 1.327 . S
C255 C259 1.429 . S
C256 C239 1.574 . S
C256 H250 0.949 . S
C256 C260 1.368 . S
C257 C238 1.429 . S
C257 C251 1.429 . S
C257 C258 1.523 . S
C258 C239 1.368 . S
C258 C252 1.368 . S
C258 C257 1.523 . S
C259 C243 1.429 . S
C259 C255 1.429 . S
C259 C260 1.523 . S
C260 C244 1.368 . S
C260 C256 1.368 . S
C260 C259 1.523 . S
H261 C236 0.950 . S
H262 C238 0.950 . S
H263 C239 0.949 . S
H264 C241 0.950 . S
H265 C243 0.950 . S
C266 C267 1.349 . S
C266 C268 1.327 . S
C266 H291 0.950 . S
C267 C266 1.349 . S
C267 C283 1.349 . S
C268 C266 1.327 . S
C268 C287 1.429 . S
C268 H292 0.950 . S
C269 C286 1.574 . S
C269 C288 1.368 . S
C269 H293 0.949 . S
H270 C274 0.949 . S
C271 C272 1.349 . S
C271 C273 1.327 . S
C271 H294 0.950 . S
C272 C271 1.349 . S
C272 C284 1.349 . S
C273 C271 1.327 . S
C273 C289 1.429 . S
C273 H295 0.950 . S
C274 H270 0.949 . S
C274 C282 1.574 . S
C274 C290 1.368 . S
H275 C283 0.950 . S
H276 C281 0.950 . S
H277 C282 0.949 . S
H278 C284 0.950 . S
H279 C285 0.950 . S
H280 C286 0.949 . S
C281 H276 0.950 . S
C281 C283 1.327 . S
C281 C287 1.429 . S
C282 C274 1.574 . S
C282 H277 0.949 . S
C282 C288 1.368 . S
C283 C267 1.349 . S
C283 H275 0.950 . S
C283 C281 1.327 . S
C284 C272 1.349 . S
C284 H278 0.950 . S
C284 C285 1.327 . S
C285 H279 0.950 . S
C285 C284 1.327 . S
C285 C289 1.429 . S
C286 C269 1.574 . S
C286 H280 0.949 . S
C286 C290 1.368 . S
C287 C268 1.429 . S
C287 C281 1.429 . S
C287 C288 1.523 . S
C288 C269 1.368 . S
C288 C282 1.368 . S
C288 C287 1.523 . S
C289 C273 1.429 . S
C289 C285 1.429 . S
C289 C290 1.523 . S
C290 C274 1.368 . S
C290 C286 1.368 . S
C290 C289 1.523 . S
H291 C266 0.950 . S
H292 C268 0.950 . S
H293 C269 0.949 . S
H294 C271 0.950 . S
H295 C273 0.950 . S
C296 C297 1.349 . S
C296 C298 1.327 . S
C296 H321 0.950 . S
C297 C296 1.349 . S
C297 C313 1.349 . S
C298 C296 1.327 . S
C298 C317 1.429 . S
C298 H322 0.950 . S
C299 C316 1.574 . S
C299 C318 1.368 . S
C299 H323 0.949 . S
H300 C304 0.949 . S
C301 C302 1.349 . S
C301 C303 1.327 . S
C301 H324 0.950 . S
C302 C301 1.349 . S
C302 C314 1.349 . S
C303 C301 1.327 . S
C303 C319 1.429 . S
C303 H325 0.950 . S
C304 H300 0.949 . S
C304 C312 1.574 . S
C304 C320 1.368 . S
H305 C313 0.950 1_554 S
H306 C311 0.950 . S
H307 C312 0.949 . S
H308 C314 0.950 . S
H309 C315 0.950 . S
H310 C316 0.949 . S
C311 H306 0.950 . S
C311 C313 1.327 . S
C311 C317 1.429 . S
C312 C304 1.574 . S
C312 H307 0.949 . S
C312 C318 1.368 . S
C313 C297 1.349 . S
C313 H305 0.950 1_556 S
C313 C311 1.327 . S
C314 C302 1.349 . S
C314 H308 0.950 . S
C314 C315 1.327 . S
C315 H309 0.950 . S
C315 C314 1.327 . S
C315 C319 1.429 . S
C316 C299 1.574 . S
C316 H310 0.949 . S
C316 C320 1.368 . S
C317 C298 1.429 . S
C317 C311 1.429 . S
C317 C318 1.523 . S
C318 C299 1.368 . S
C318 C312 1.368 . S
C318 C317 1.523 . S
C319 C303 1.429 . S
C319 C315 1.429 . S
C319 C320 1.523 . S
C320 C304 1.368 . S
C320 C316 1.368 . S
C320 C319 1.523 . S
H321 C296 0.950 . S
H322 C298 0.950 . S
H323 C299 0.949 . S
H324 C301 0.950 . S
H325 C303 0.950 . S
C326 C327 1.349 . S
C326 C328 1.327 . S
C326 H351 0.950 . S
C327 C326 1.349 . S
C327 C343 1.349 . S
C328 C326 1.327 . S
C328 C347 1.429 . S
C328 H352 0.950 . S
C329 C346 1.574 . S
C329 C348 1.368 . S
C329 H353 0.949 . S
H330 C334 0.949 . S
C331 C332 1.349 . S
C331 C333 1.327 . S
C331 H354 0.950 . S
C332 C331 1.349 . S
C332 C344 1.349 . S
C333 C331 1.327 . S
C333 C349 1.429 . S
C333 H355 0.950 . S
C334 H330 0.949 . S
C334 C342 1.574 . S
C334 C350 1.368 . S
H335 C343 0.950 . S
H336 C341 0.950 . S
H337 C342 0.949 . S
H338 C344 0.950 . S
H339 C345 0.950 . S
H340 C346 0.949 . S
C341 H336 0.950 . S
C341 C343 1.327 . S
C341 C347 1.429 . S
C342 C334 1.574 . S
C342 H337 0.949 . S
C342 C348 1.368 . S
C343 C327 1.349 . S
C343 H335 0.950 . S
C343 C341 1.327 . S
C344 C332 1.349 . S
C344 H338 0.950 . S
C344 C345 1.327 . S
C345 H339 0.950 . S
C345 C344 1.327 . S
C345 C349 1.429 . S
C346 C329 1.574 . S
C346 H340 0.949 . S
C346 C350 1.368 . S
C347 C328 1.429 . S
C347 C341 1.429 . S
C347 C348 1.523 . S
C348 C329 1.368 . S
C348 C342 1.368 . S
C348 C347 1.523 . S
C349 C333 1.429 . S
C349 C345 1.429 . S
C349 C350 1.523 . S
C350 C334 1.368 . S
C350 C346 1.368 . S
C350 C349 1.523 . S
H351 C326 0.950 . S
H352 C328 0.950 . S
H353 C329 0.949 . S
H354 C331 0.950 . S
H355 C333 0.950 . S
C356 C357 1.349 . S
C356 C358 1.327 . S
C356 H381 0.950 . S
C357 C356 1.349 . S
C357 C373 1.349 . S
C358 C356 1.327 . S
C358 C377 1.429 . S
C358 H382 0.950 . S
C359 C376 1.574 . S
C359 C378 1.368 . S
C359 H383 0.949 . S
H360 C364 0.949 . S
C361 C362 1.349 . S
C361 C363 1.327 . S
C361 H384 0.950 . S
C362 C361 1.349 . S
C362 C374 1.349 . S
C363 C361 1.327 . S
C363 C379 1.429 . S
C363 H385 0.950 . S
C364 H360 0.949 . S
C364 C372 1.574 . S
C364 C380 1.368 . S
H365 C373 0.950 . S
H366 C371 0.950 . S
H367 C372 0.949 . S
H368 C374 0.950 . S
H369 C375 0.950 . S
H370 C376 0.949 . S
C371 H366 0.950 . S
C371 C373 1.327 . S
C371 C377 1.429 . S
C372 C364 1.574 . S
C372 H367 0.949 . S
C372 C378 1.368 . S
C373 C357 1.349 . S
C373 H365 0.950 . S
C373 C371 1.327 . S
C374 C362 1.349 . S
C374 H368 0.950 . S
C374 C375 1.327 . S
C375 H369 0.950 . S
C375 C374 1.327 . S
C375 C379 1.429 . S
C376 C359 1.574 . S
C376 H370 0.949 . S
C376 C380 1.368 . S
C377 C358 1.429 . S
C377 C371 1.429 . S
C377 C378 1.523 . S
C378 C359 1.368 . S
C378 C372 1.368 . S
C378 C377 1.523 . S
C379 C363 1.429 . S
C379 C375 1.429 . S
C379 C380 1.523 . S
C380 C364 1.368 . S
C380 C376 1.368 . S
C380 C379 1.523 . S
H381 C356 0.950 . S
H382 C358 0.950 . S
H383 C359 0.949 . S
H384 C361 0.950 . S
H385 C363 0.950 . S
C386 C387 1.349 . S
C386 C388 1.327 . S
C386 H411 0.950 . S
C387 C386 1.349 . S
C387 C403 1.349 . S
C388 C386 1.327 . S
C388 C407 1.429 . S
C388 H412 0.950 . S
C389 C406 1.574 . S
C389 C408 1.368 . S
C389 H413 0.949 . S
H390 C394 0.949 . S
C391 C392 1.349 . S
C391 C393 1.327 . S
C391 H414 0.950 . S
C392 C391 1.349 . S
C392 C404 1.349 . S
C393 C391 1.327 . S
C393 C409 1.429 . S
C393 H415 0.950 . S
C394 H390 0.949 . S
C394 C402 1.574 . S
C394 C410 1.368 . S
H395 C403 0.950 . S
H396 C401 0.950 . S
H397 C402 0.949 . S
H398 C404 0.950 . S
H399 C405 0.950 . S
H400 C406 0.949 . S
C401 H396 0.950 . S
C401 C403 1.327 . S
C401 C407 1.429 . S
C402 C394 1.574 . S
C402 H397 0.949 . S
C402 C408 1.368 . S
C403 C387 1.349 . S
C403 H395 0.950 . S
C403 C401 1.327 . S
C404 C392 1.349 . S
C404 H398 0.950 . S
C404 C405 1.327 . S
C405 H399 0.950 . S
C405 C404 1.327 . S
C405 C409 1.429 . S
C406 C389 1.574 . S
C406 H400 0.949 . S
C406 C410 1.368 . S
C407 C388 1.429 . S
C407 C401 1.429 . S
C407 C408 1.523 . S
C408 C389 1.368 . S
C408 C402 1.368 . S
C408 C407 1.523 . S
C409 C393 1.429 . S
C409 C405 1.429 . S
C409 C410 1.523 . S
C410 C394 1.368 . S
C410 C406 1.368 . S
C410 C409 1.523 . S
H411 C386 0.950 . S
H412 C388 0.950 . S
H413 C389 0.949 . S
H414 C391 0.950 . S
H415 C393 0.950 . S
C416 C417 1.349 . S
C416 C418 1.327 . S
C416 H441 0.950 1_556 S
C417 C416 1.349 . S
C417 C433 1.349 . S
C418 C416 1.327 . S
C418 C437 1.429 . S
C418 H442 0.950 . S
C419 C436 1.574 . S
C419 C438 1.368 . S
C419 H443 0.949 . S
H420 C424 0.949 . S
C421 C422 1.349 . S
C421 C423 1.327 . S
C421 H444 0.950 . S
C422 C421 1.349 . S
C422 C434 1.349 . S
C423 C421 1.327 . S
C423 C439 1.429 . S
C423 H445 0.950 . S
C424 H420 0.949 . S
C424 C432 1.574 . S
C424 C440 1.368 . S
H425 C433 0.950 . S
H426 C431 0.950 . S
H427 C432 0.949 . S
H428 C434 0.950 . S
H429 C435 0.950 . S
H430 C436 0.949 . S
C431 H426 0.950 . S
C431 C433 1.327 . S
C431 C437 1.429 . S
C432 C424 1.574 . S
C432 H427 0.949 . S
C432 C438 1.368 . S
C433 C417 1.349 . S
C433 H425 0.950 . S
C433 C431 1.327 . S
C434 C422 1.349 . S
C434 H428 0.950 . S
C434 C435 1.327 . S
C435 H429 0.950 . S
C435 C434 1.327 . S
C435 C439 1.429 . S
C436 C419 1.574 . S
C436 H430 0.949 . S
C436 C440 1.368 . S
C437 C418 1.429 . S
C437 C431 1.429 . S
C437 C438 1.523 . S
C438 C419 1.368 . S
C438 C432 1.368 . S
C438 C437 1.523 . S
C439 C423 1.429 . S
C439 C435 1.429 . S
C439 C440 1.523 . S
C440 C424 1.368 . S
C440 C436 1.368 . S
C440 C439 1.523 . S
H441 C416 0.950 1_554 S
H442 C418 0.950 . S
H443 C419 0.949 . S
H444 C421 0.950 . S
H445 C423 0.950 . S
C446 C447 1.349 . S
C446 C448 1.327 . S
C446 H471 0.950 . S
C447 C446 1.349 . S
C447 C463 1.349 . S
C448 C446 1.327 . S
C448 C467 1.429 . S
C448 H472 0.950 . S
C449 C466 1.574 . S
C449 C468 1.368 . S
C449 H473 0.949 . S
H450 C454 0.949 . S
C451 C452 1.349 . S
C451 C453 1.327 . S
C451 H474 0.950 . S
C452 C451 1.349 . S
C452 C464 1.349 . S
C453 C451 1.327 . S
C453 C469 1.429 . S
C453 H475 0.950 . S
C454 H450 0.949 . S
C454 C462 1.574 . S
C454 C470 1.368 . S
H455 C463 0.950 . S
H456 C461 0.950 . S
H457 C462 0.949 . S
H458 C464 0.950 . S
H459 C465 0.950 . S
H460 C466 0.949 . S
C461 H456 0.950 . S
C461 C463 1.327 . S
C461 C467 1.429 . S
C462 C454 1.574 . S
C462 H457 0.949 . S
C462 C468 1.368 . S
C463 C447 1.349 . S
C463 H455 0.950 . S
C463 C461 1.327 . S
C464 C452 1.349 . S
C464 H458 0.950 . S
C464 C465 1.327 . S
C465 H459 0.950 . S
C465 C464 1.327 . S
C465 C469 1.429 . S
C466 C449 1.574 . S
C466 H460 0.949 . S
C466 C470 1.368 . S
C467 C448 1.429 . S
C467 C461 1.429 . S
C467 C468 1.523 . S
C468 C449 1.368 . S
C468 C462 1.368 . S
C468 C467 1.523 . S
C469 C453 1.429 . S
C469 C465 1.429 . S
C469 C470 1.523 . S
C470 C454 1.368 . S
C470 C466 1.368 . S
C470 C469 1.523 . S
H471 C446 0.950 . S
H472 C448 0.950 . S
H473 C449 0.949 . S
H474 C451 0.950 . S
H475 C453 0.950 . S
C476 C477 1.349 . S
C476 C478 1.327 . S
C476 H501 0.950 . S
C477 C476 1.349 . S
C477 C493 1.349 . S
C478 C476 1.327 . S
C478 C497 1.429 . S
C478 H502 0.950 . S
C479 C496 1.574 . S
C479 C498 1.368 . S
C479 H503 0.949 . S
H480 C484 0.949 . S
C481 C482 1.349 . S
C481 C483 1.327 . S
C481 H504 0.950 . S
C482 C481 1.349 . S
C482 C494 1.349 . S
C483 C481 1.327 . S
C483 C499 1.429 . S
C483 H505 0.950 . S
C484 H480 0.949 . S
C484 C492 1.574 . S
C484 C500 1.368 . S
H485 C493 0.950 . S
H486 C491 0.950 . S
H487 C492 0.949 . S
H488 C494 0.950 . S
H489 C495 0.950 . S
H490 C496 0.949 . S
C491 H486 0.950 . S
C491 C493 1.327 . S
C491 C497 1.429 . S
C492 C484 1.574 . S
C492 H487 0.949 . S
C492 C498 1.368 . S
C493 C477 1.349 . S
C493 H485 0.950 . S
C493 C491 1.327 . S
C494 C482 1.349 . S
C494 H488 0.950 . S
C494 C495 1.327 . S
C495 H489 0.950 . S
C495 C494 1.327 . S
C495 C499 1.429 . S
C496 C479 1.574 . S
C496 H490 0.949 . S
C496 C500 1.368 . S
C497 C478 1.429 . S
C497 C491 1.429 . S
C497 C498 1.523 . S
C498 C479 1.368 . S
C498 C492 1.368 . S
C498 C497 1.523 . S
C499 C483 1.429 . S
C499 C495 1.429 . S
C499 C500 1.523 . S
C500 C484 1.368 . S
C500 C496 1.368 . S
C500 C499 1.523 . S
H501 C476 0.950 . S
H502 C478 0.950 . S
H503 C479 0.949 . S
H504 C481 0.950 . S
H505 C483 0.950 . S
C506 C507 1.349 . S
C506 C508 1.327 . S
C506 H531 0.950 . S
C507 C506 1.349 . S
C507 C523 1.349 . S
C508 C506 1.327 . S
C508 C527 1.429 . S
C508 H532 0.950 . S
C509 C526 1.574 . S
C509 C528 1.368 . S
C509 H533 0.949 . S
H510 C514 0.949 . S
C511 C512 1.349 . S
C511 C513 1.327 . S
C511 H534 0.950 . S
C512 C511 1.349 . S
C512 C524 1.349 . S
C513 C511 1.327 . S
C513 C529 1.429 . S
C513 H535 0.950 . S
C514 H510 0.949 . S
C514 C522 1.574 . S
C514 C530 1.368 . S
H515 C523 0.950 . S
H516 C521 0.950 . S
H517 C522 0.949 . S
H518 C524 0.950 . S
H519 C525 0.950 . S
H520 C526 0.949 . S
C521 H516 0.950 . S
C521 C523 1.327 . S
C521 C527 1.429 . S
C522 C514 1.574 . S
C522 H517 0.949 . S
C522 C528 1.368 . S
C523 C507 1.349 . S
C523 H515 0.950 . S
C523 C521 1.327 . S
C524 C512 1.349 . S
C524 H518 0.950 . S
C524 C525 1.327 . S
C525 H519 0.950 . S
C525 C524 1.327 . S
C525 C529 1.429 . S
C526 C509 1.574 . S
C526 H520 0.949 . S
C526 C530 1.368 . S
C527 C508 1.429 . S
C527 C521 1.429 . S
C527 C528 1.523 . S
C528 C509 1.368 . S
C528 C522 1.368 . S
C528 C527 1.523 . S
C529 C513 1.429 . S
C529 C525 1.429 . S
C529 C530 1.523 . S
C530 C514 1.368 . S
C530 C526 1.368 . S
C530 C529 1.523 . S
H531 C506 0.950 . S
H532 C508 0.950 . S
H533 C509 0.949 . S
H534 C511 0.950 . S
H535 C513 0.950 . S
C536 C537 1.349 . S
C536 C538 1.327 . S
C536 H561 0.950 . S
C537 C536 1.349 . S
C537 C553 1.349 . S
C538 C536 1.327 . S
C538 C557 1.429 . S
C538 H562 0.950 . S
C539 C556 1.574 . S
C539 C558 1.368 1_545 S
C539 H563 0.949 . S
H540 C544 0.949 . S
C541 C542 1.349 . S
C541 C543 1.327 . S
C541 H564 0.950 . S
C542 C541 1.349 . S
C542 C554 1.349 . S
C543 C541 1.327 . S
C543 C559 1.429 . S
C543 H565 0.950 . S
C544 H540 0.949 . S
C544 C552 1.574 . S
C544 C560 1.368 1_565 S
H545 C553 0.950 1_554 S
H546 C551 0.950 . S
H547 C552 0.949 . S
H548 C554 0.950 . S
H549 C555 0.950 . S
H550 C556 0.949 . S
C551 H546 0.950 . S
C551 C553 1.327 . S
C551 C557 1.429 . S
C552 C544 1.574 . S
C552 H547 0.949 . S
C552 C558 1.368 . S
C553 C537 1.349 . S
C553 H545 0.950 1_556 S
C553 C551 1.327 . S
C554 C542 1.349 . S
C554 H548 0.950 . S
C554 C555 1.327 . S
C555 H549 0.950 . S
C555 C554 1.327 . S
C555 C559 1.429 . S
C556 C539 1.574 . S
C556 H550 0.949 . S
C556 C560 1.368 . S
C557 C538 1.429 . S
C557 C551 1.429 . S
C557 C558 1.523 . S
C558 C539 1.368 1_565 S
C558 C552 1.368 . S
C558 C557 1.523 . S
C559 C543 1.429 . S
C559 C555 1.429 . S
C559 C560 1.523 . S
C560 C544 1.368 1_545 S
C560 C556 1.368 . S
C560 C559 1.523 . S
H561 C536 0.950 . S
H562 C538 0.950 . S
H563 C539 0.949 . S
H564 C541 0.950 . S
H565 C543 0.950 . S
C566 C567 1.349 . S
C566 C568 1.327 . S
C566 H591 0.950 . S
C567 C566 1.349 . S
C567 C583 1.349 . S
C568 C566 1.327 . S
C568 C587 1.429 . S
C568 H592 0.950 . S
C569 C586 1.574 1_545 S
C569 C588 1.368 . S
C569 H593 0.949 . S
H570 C574 0.949 . S
C571 C572 1.349 . S
C571 C573 1.327 . S
C571 H594 0.950 . S
C572 C571 1.349 . S
C572 C584 1.349 . S
C573 C571 1.327 . S
C573 C589 1.429 . S
C573 H595 0.950 . S
C574 H570 0.949 . S
C574 C582 1.574 1_565 S
C574 C590 1.368 . S
H575 C583 0.950 . S
H576 C581 0.950 . S
H577 C582 0.949 . S
H578 C584 0.950 . S
H579 C585 0.950 . S
H580 C586 0.949 . S
C581 H576 0.950 . S
C581 C583 1.327 . S
C581 C587 1.429 . S
C582 C574 1.574 1_545 S
C582 H577 0.949 . S
C582 C588 1.368 . S
C583 C567 1.349 . S
C583 H575 0.950 . S
C583 C581 1.327 . S
C584 C572 1.349 . S
C584 H578 0.950 . S
C584 C585 1.327 . S
C585 H579 0.950 . S
C585 C584 1.327 . S
C585 C589 1.429 . S
C586 C569 1.574 1_565 S
C586 H580 0.949 . S
C586 C590 1.368 . S
C587 C568 1.429 . S
C587 C581 1.429 . S
C587 C588 1.523 . S
C588 C569 1.368 . S
C588 C582 1.368 . S
C588 C587 1.523 . S
C589 C573 1.429 . S
C589 C585 1.429 . S
C589 C590 1.523 . S
C590 C574 1.368 . S
C590 C586 1.368 . S
C590 C589 1.523 . S
H591 C566 0.950 . S
H592 C568 0.950 . S
H593 C569 0.949 . S
H594 C571 0.950 . S
H595 C573 0.950 . S
C596 C597 1.349 . S
C596 C598 1.327 . S
C596 H621 0.950 . S
C597 C596 1.349 . S
C597 C613 1.349 . S
C598 C596 1.327 . S
C598 C617 1.429 . S
C598 H622 0.950 . S
C599 C616 1.574 . S
C599 C618 1.368 1_545 S
C599 H623 0.949 . S
H600 C604 0.949 . S
C601 C602 1.349 . S
C601 C603 1.327 . S
C601 H624 0.950 . S
C602 C601 1.349 . S
C602 C614 1.349 . S
C603 C601 1.327 . S
C603 C619 1.429 . S
C603 H625 0.950 . S
C604 H600 0.949 . S
C604 C612 1.574 . S
C604 C620 1.368 1_565 S
H605 C613 0.950 . S
H606 C611 0.950 . S
H607 C612 0.949 . S
H608 C614 0.950 . S
H609 C615 0.950 . S
H610 C616 0.949 . S
C611 H606 0.950 . S
C611 C613 1.327 . S
C611 C617 1.429 . S
C612 C604 1.574 . S
C612 H607 0.949 . S
C612 C618 1.368 . S
C613 C597 1.349 . S
C613 H605 0.950 . S
C613 C611 1.327 . S
C614 C602 1.349 . S
C614 H608 0.950 . S
C614 C615 1.327 . S
C615 H609 0.950 . S
C615 C614 1.327 . S
C615 C619 1.429 . S
C616 C599 1.574 . S
C616 H610 0.949 . S
C616 C620 1.368 . S
C617 C598 1.429 . S
C617 C611 1.429 . S
C617 C618 1.523 . S
C618 C599 1.368 1_565 S
C618 C612 1.368 . S
C618 C617 1.523 . S
C619 C603 1.429 . S
C619 C615 1.429 . S
C619 C620 1.523 . S
C620 C604 1.368 1_545 S
C620 C616 1.368 . S
C620 C619 1.523 . S
H621 C596 0.950 . S
H622 C598 0.950 . S
H623 C599 0.949 . S
H624 C601 0.950 . S
H625 C603 0.950 . S
C626 C627 1.349 . S
C626 C628 1.327 . S
C626 H651 0.950 . S
C627 C626 1.349 . S
C627 C643 1.349 . S
C628 C626 1.327 . S
C628 C647 1.429 . S
C628 H652 0.950 . S
C629 C646 1.574 . S
C629 C648 1.368 1_565 S
C629 H653 0.949 . S
H630 C634 0.949 . S
C631 C632 1.349 . S
C631 C633 1.327 . S
C631 H654 0.950 . S
C632 C631 1.349 . S
C632 C644 1.349 . S
C633 C631 1.327 . S
C633 C649 1.429 . S
C633 H655 0.950 . S
C634 H630 0.949 . S
C634 C642 1.574 . S
C634 C650 1.368 1_545 S
H635 C643 0.950 . S
H636 C641 0.950 . S
H637 C642 0.949 . S
H638 C644 0.950 . S
H639 C645 0.950 . S
H640 C646 0.949 . S
C641 H636 0.950 . S
C641 C643 1.327 . S
C641 C647 1.429 . S
C642 C634 1.574 . S
C642 H637 0.949 . S
C642 C648 1.368 . S
C643 C627 1.349 . S
C643 H635 0.950 . S
C643 C641 1.327 . S
C644 C632 1.349 . S
C644 H638 0.950 . S
C644 C645 1.327 . S
C645 H639 0.950 . S
C645 C644 1.327 . S
C645 C649 1.429 . S
C646 C629 1.574 . S
C646 H640 0.949 . S
C646 C650 1.368 . S
C647 C628 1.429 . S
C647 C641 1.429 . S
C647 C648 1.523 . S
C648 C629 1.368 1_545 S
C648 C642 1.368 . S
C648 C647 1.523 . S
C649 C633 1.429 . S
C649 C645 1.429 . S
C649 C650 1.523 . S
C650 C634 1.368 1_565 S
C650 C646 1.368 . S
C650 C649 1.523 . S
H651 C626 0.950 . S
H652 C628 0.950 . S
H653 C629 0.949 . S
H654 C631 0.950 . S
H655 C633 0.950 . S
C656 C657 1.349 . S
C656 C658 1.327 . S
C656 H681 0.950 . S
C657 C656 1.349 . S
C657 C673 1.349 . S
C658 C656 1.327 . S
C658 C677 1.429 . S
C658 H682 0.950 . S
C659 C676 1.574 . S
C659 C678 1.368 . S
C659 H683 0.949 . S
H660 C664 0.949 . S
C661 C662 1.349 . S
C661 C663 1.327 . S
C661 H684 0.950 . S
C662 C661 1.349 . S
C662 C674 1.349 . S
C663 C661 1.327 . S
C663 C679 1.429 . S
C663 H685 0.950 . S
C664 H660 0.949 . S
C664 C672 1.574 . S
C664 C680 1.368 . S
H665 C673 0.950 . S
H666 C671 0.950 . S
H667 C672 0.949 . S
H668 C674 0.950 . S
H669 C675 0.950 . S
H670 C676 0.949 . S
C671 H666 0.950 . S
C671 C673 1.327 . S
C671 C677 1.429 . S
C672 C664 1.574 . S
C672 H667 0.949 . S
C672 C678 1.368 . S
C673 C657 1.349 . S
C673 H665 0.950 . S
C673 C671 1.327 . S
C674 C662 1.349 . S
C674 H668 0.950 . S
C674 C675 1.327 . S
C675 H669 0.950 . S
C675 C674 1.327 . S
C675 C679 1.429 . S
C676 C659 1.574 . S
C676 H670 0.949 . S
C676 C680 1.368 . S
C677 C658 1.429 . S
C677 C671 1.429 . S
C677 C678 1.523 . S
C678 C659 1.368 . S
C678 C672 1.368 . S
C678 C677 1.523 . S
C679 C663 1.429 . S
C679 C675 1.429 . S
C679 C680 1.523 . S
C680 C664 1.368 . S
C680 C676 1.368 . S
C680 C679 1.523 . S
H681 C656 0.950 . S
H682 C658 0.950 . S
H683 C659 0.949 . S
H684 C661 0.950 . S
H685 C663 0.950 . S
C686 C687 1.349 . S
C686 C688 1.327 . S
C686 H711 0.950 . S
C687 C686 1.349 . S
C687 C703 1.349 . S
C688 C686 1.327 . S
C688 C707 1.429 . S
C688 H712 0.950 . S
C689 C706 1.574 . S
C689 C708 1.368 . S
C689 H713 0.949 . S
H690 C694 0.949 . S
C691 C692 1.349 . S
C691 C693 1.327 . S
C691 H714 0.950 . S
C692 C691 1.349 . S
C692 C704 1.349 . S
C693 C691 1.327 . S
C693 C709 1.429 . S
C693 H715 0.950 . S
C694 H690 0.949 . S
C694 C702 1.574 . S
C694 C710 1.368 . S
H695 C703 0.950 . S
H696 C701 0.950 . S
H697 C702 0.949 . S
H698 C704 0.950 . S
H699 C705 0.950 . S
H700 C706 0.949 . S
C701 H696 0.950 . S
C701 C703 1.327 . S
C701 C707 1.429 . S
C702 C694 1.574 . S
C702 H697 0.949 . S
C702 C708 1.368 . S
C703 C687 1.349 . S
C703 H695 0.950 . S
C703 C701 1.327 . S
C704 C692 1.349 . S
C704 H698 0.950 . S
C704 C705 1.327 . S
C705 H699 0.950 . S
C705 C704 1.327 . S
C705 C709 1.429 . S
C706 C689 1.574 . S
C706 H700 0.949 . S
C706 C710 1.368 . S
C707 C688 1.429 . S
C707 C701 1.429 . S
C707 C708 1.523 . S
C708 C689 1.368 . S
C708 C702 1.368 . S
C708 C707 1.523 . S
C709 C693 1.429 . S
C709 C705 1.429 . S
C709 C710 1.523 . S
C710 C694 1.368 . S
C710 C706 1.368 . S
C710 C709 1.523 . S
H711 C686 0.950 . S
H712 C688 0.950 . S
H713 C689 0.949 . S
H714 C691 0.950 . S
H715 C693 0.950 . S
C716 C717 1.349 . S
C716 C718 1.327 . S
C716 H741 0.950 . S
C717 C716 1.349 . S
C717 C733 1.349 . S
C718 C716 1.327 . S
C718 C737 1.429 . S
C718 H742 0.950 . S
C719 C736 1.574 . S
C719 C738 1.368 . S
C719 H743 0.949 . S
H720 C724 0.949 . S
C721 C722 1.349 . S
C721 C723 1.327 . S
C721 H744 0.950 . S
C722 C721 1.349 . S
C722 C734 1.349 . S
C723 C721 1.327 . S
C723 C739 1.429 . S
C723 H745 0.950 . S
C724 H720 0.949 . S
C724 C732 1.574 . S
C724 C740 1.368 . S
H725 C733 0.950 . S
H726 C731 0.950 . S
H727 C732 0.949 . S
H728 C734 0.950 . S
H729 C735 0.950 . S
H730 C736 0.949 . S
C731 H726 0.950 . S
C731 C733 1.327 . S
C731 C737 1.429 . S
C732 C724 1.574 . S
C732 H727 0.949 . S
C732 C738 1.368 . S
C733 C717 1.349 . S
C733 H725 0.950 . S
C733 C731 1.327 . S
C734 C722 1.349 . S
C734 H728 0.950 . S
C734 C735 1.327 . S
C735 H729 0.950 . S
C735 C734 1.327 . S
C735 C739 1.429 . S
C736 C719 1.574 . S
C736 H730 0.949 . S
C736 C740 1.368 . S
C737 C718 1.429 . S
C737 C731 1.429 . S
C737 C738 1.523 . S
C738 C719 1.368 . S
C738 C732 1.368 . S
C738 C737 1.523 . S
C739 C723 1.429 . S
C739 C735 1.429 . S
C739 C740 1.523 . S
C740 C724 1.368 . S
C740 C736 1.368 . S
C740 C739 1.523 . S
H741 C716 0.950 . S
H742 C718 0.950 . S
H743 C719 0.949 . S
H744 C721 0.950 . S
H745 C723 0.950 . S
C746 C747 1.349 . S
C746 C748 1.327 . S
C746 H771 0.950 . S
C747 C746 1.349 . S
C747 C763 1.349 . S
C748 C746 1.327 . S
C748 C767 1.429 . S
C748 H772 0.950 . S
C749 C766 1.574 . S
C749 C768 1.368 . S
C749 H773 0.949 . S
H750 C754 0.949 . S
C751 C752 1.349 . S
C751 C753 1.327 . S
C751 H774 0.950 . S
C752 C751 1.349 . S
C752 C764 1.349 . S
C753 C751 1.327 . S
C753 C769 1.429 . S
C753 H775 0.950 . S
C754 H750 0.949 . S
C754 C762 1.574 . S
C754 C770 1.368 . S
H755 C763 0.950 . S
H756 C761 0.950 . S
H757 C762 0.949 . S
H758 C764 0.950 . S
H759 C765 0.950 . S
H760 C766 0.949 . S
C761 H756 0.950 . S
C761 C763 1.327 . S
C761 C767 1.429 . S
C762 C754 1.574 . S
C762 H757 0.949 . S
C762 C768 1.368 . S
C763 C747 1.349 . S
C763 H755 0.950 . S
C763 C761 1.327 . S
C764 C752 1.349 . S
C764 H758 0.950 . S
C764 C765 1.327 . S
C765 H759 0.950 . S
C765 C764 1.327 . S
C765 C769 1.429 . S
C766 C749 1.574 . S
C766 H760 0.949 . S
C766 C770 1.368 . S
C767 C748 1.429 . S
C767 C761 1.429 . S
C767 C768 1.523 . S
C768 C749 1.368 . S
C768 C762 1.368 . S
C768 C767 1.523 . S
C769 C753 1.429 . S
C769 C765 1.429 . S
C769 C770 1.523 . S
C770 C754 1.368 . S
C770 C766 1.368 . S
C770 C769 1.523 . S
H771 C746 0.950 . S
H772 C748 0.950 . S
H773 C749 0.949 . S
H774 C751 0.950 . S
H775 C753 0.950 . S
C776 C777 1.349 . S
C776 C778 1.327 . S
C776 H801 0.950 . S
C777 C776 1.349 . S
C777 C793 1.349 . S
C778 C776 1.327 . S
C778 C797 1.429 . S
C778 H802 0.950 . S
C779 C796 1.574 . S
C779 C798 1.368 . S
C779 H803 0.949 . S
H780 C784 0.949 . S
C781 C782 1.349 . S
C781 C783 1.327 . S
C781 H804 0.950 . S
C782 C781 1.349 . S
C782 C794 1.349 . S
C783 C781 1.327 . S
C783 C799 1.429 . S
C783 H805 0.950 . S
C784 H780 0.949 . S
C784 C792 1.574 . S
C784 C800 1.368 . S
H785 C793 0.950 . S
H786 C791 0.950 . S
H787 C792 0.949 . S
H788 C794 0.950 . S
H789 C795 0.950 . S
H790 C796 0.949 . S
C791 H786 0.950 . S
C791 C793 1.327 . S
C791 C797 1.429 . S
C792 C784 1.574 . S
C792 H787 0.949 . S
C792 C798 1.368 . S
C793 C777 1.349 . S
C793 H785 0.950 . S
C793 C791 1.327 . S
C794 C782 1.349 . S
C794 H788 0.950 . S
C794 C795 1.327 . S
C795 H789 0.950 . S
C795 C794 1.327 . S
C795 C799 1.429 . S
C796 C779 1.574 . S
C796 H790 0.949 . S
C796 C800 1.368 . S
C797 C778 1.429 . S
C797 C791 1.429 . S
C797 C798 1.523 . S
C798 C779 1.368 . S
C798 C792 1.368 . S
C798 C797 1.523 . S
C799 C783 1.429 . S
C799 C795 1.429 . S
C799 C800 1.523 . S
C800 C784 1.368 . S
C800 C796 1.368 . S
C800 C799 1.523 . S
H801 C776 0.950 . S
H802 C778 0.950 . S
H803 C779 0.949 . S
H804 C781 0.950 . S
H805 C783 0.950 . S
C806 C807 1.349 . S
C806 C808 1.327 . S
C806 H831 0.950 . S
C807 C806 1.349 . S
C807 C823 1.349 . S
C808 C806 1.327 . S
C808 C827 1.429 . S
C808 H832 0.950 . S
C809 C826 1.574 . S
C809 C828 1.368 . S
C809 H833 0.949 . S
H810 C814 0.949 . S
C811 C812 1.349 . S
C811 C813 1.327 . S
C811 H834 0.950 . S
C812 C811 1.349 . S
C812 C824 1.349 . S
C813 C811 1.327 . S
C813 C829 1.429 . S
C813 H835 0.950 . S
C814 H810 0.949 . S
C814 C822 1.574 . S
C814 C830 1.368 . S
H815 C823 0.950 . S
H816 C821 0.950 . S
H817 C822 0.949 . S
H818 C824 0.950 . S
H819 C825 0.950 . S
H820 C826 0.949 . S
C821 H816 0.950 . S
C821 C823 1.327 . S
C821 C827 1.429 . S
C822 C814 1.574 . S
C822 H817 0.949 . S
C822 C828 1.368 . S
C823 C807 1.349 . S
C823 H815 0.950 . S
C823 C821 1.327 . S
C824 C812 1.349 . S
C824 H818 0.950 . S
C824 C825 1.327 . S
C825 H819 0.950 . S
C825 C824 1.327 . S
C825 C829 1.429 . S
C826 C809 1.574 . S
C826 H820 0.949 . S
C826 C830 1.368 . S
C827 C808 1.429 . S
C827 C821 1.429 . S
C827 C828 1.523 . S
C828 C809 1.368 . S
C828 C822 1.368 . S
C828 C827 1.523 . S
C829 C813 1.429 . S
C829 C825 1.429 . S
C829 C830 1.523 . S
C830 C814 1.368 . S
C830 C826 1.368 . S
C830 C829 1.523 . S
H831 C806 0.950 . S
H832 C808 0.950 . S
H833 C809 0.949 . S
H834 C811 0.950 . S
H835 C813 0.950 . S
C836 C837 1.349 . S
C836 C838 1.327 . S
C836 H861 0.950 . S
C837 C836 1.349 . S
C837 C853 1.349 . S
C838 C836 1.327 . S
C838 C857 1.429 . S
C838 H862 0.950 . S
C839 C856 1.574 . S
C839 C858 1.368 . S
C839 H863 0.949 . S
H840 C844 0.949 . S
C841 C842 1.349 . S
C841 C843 1.327 . S
C841 H864 0.950 . S
C842 C841 1.349 . S
C842 C854 1.349 . S
C843 C841 1.327 . S
C843 C859 1.429 . S
C843 H865 0.950 . S
C844 H840 0.949 . S
C844 C852 1.574 . S
C844 C860 1.368 . S
H845 C853 0.950 . S
H846 C851 0.950 . S
H847 C852 0.949 . S
H848 C854 0.950 . S
H849 C855 0.950 . S
H850 C856 0.949 . S
C851 H846 0.950 . S
C851 C853 1.327 . S
C851 C857 1.429 . S
C852 C844 1.574 . S
C852 H847 0.949 . S
C852 C858 1.368 . S
C853 C837 1.349 . S
C853 H845 0.950 . S
C853 C851 1.327 . S
C854 C842 1.349 . S
C854 H848 0.950 . S
C854 C855 1.327 . S
C855 H849 0.950 . S
C855 C854 1.327 . S
C855 C859 1.429 . S
C856 C839 1.574 . S
C856 H850 0.949 . S
C856 C860 1.368 . S
C857 C838 1.429 . S
C857 C851 1.429 . S
C857 C858 1.523 . S
C858 C839 1.368 . S
C858 C852 1.368 . S
C858 C857 1.523 . S
C859 C843 1.429 . S
C859 C855 1.429 . S
C859 C860 1.523 . S
C860 C844 1.368 . S
C860 C856 1.368 . S
C860 C859 1.523 . S
H861 C836 0.950 . S
H862 C838 0.950 . S
H863 C839 0.949 . S
H864 C841 0.950 . S
H865 C843 0.950 . S
C866 C867 1.349 . S
C866 C868 1.327 . S
C866 H891 0.950 . S
C867 C866 1.349 . S
C867 C883 1.349 . S
C868 C866 1.327 . S
C868 C887 1.429 . S
C868 H892 0.950 . S
C869 C886 1.574 . S
C869 C888 1.368 . S
C869 H893 0.949 . S
H870 C874 0.949 . S
C871 C872 1.349 . S
C871 C873 1.327 . S
C871 H894 0.950 . S
C872 C871 1.349 . S
C872 C884 1.349 . S
C873 C871 1.327 . S
C873 C889 1.429 . S
C873 H895 0.950 . S
C874 H870 0.949 . S
C874 C882 1.574 . S
C874 C890 1.368 . S
H875 C883 0.950 . S
H876 C881 0.950 . S
H877 C882 0.949 . S
H878 C884 0.950 . S
H879 C885 0.950 . S
H880 C886 0.949 . S
C881 H876 0.950 . S
C881 C883 1.327 . S
C881 C887 1.429 . S
C882 C874 1.574 . S
C882 H877 0.949 . S
C882 C888 1.368 . S
C883 C867 1.349 . S
C883 H875 0.950 . S
C883 C881 1.327 . S
C884 C872 1.349 . S
C884 H878 0.950 . S
C884 C885 1.327 . S
C885 H879 0.950 . S
C885 C884 1.327 . S
C885 C889 1.429 . S
C886 C869 1.574 . S
C886 H880 0.949 . S
C886 C890 1.368 . S
C887 C868 1.429 . S
C887 C881 1.429 . S
C887 C888 1.523 . S
C888 C869 1.368 . S
C888 C882 1.368 . S
C888 C887 1.523 . S
C889 C873 1.429 . S
C889 C885 1.429 . S
C889 C890 1.523 . S
C890 C874 1.368 . S
C890 C886 1.368 . S
C890 C889 1.523 . S
H891 C866 0.950 . S
H892 C868 0.950 . S
H893 C869 0.949 . S
H894 C871 0.950 . S
H895 C873 0.950 . S
C177 C10 1.539 . S
C182 C114 1.521 . S
C212 C92 1.525 . S
C207 C21 1.542 . S
C242 C118 1.601 . S
C237 C32 1.617 . S
C272 C96 1.467 . S
C267 C43 1.485 . S
C302 C158 1.521 . S
C297 C54 1.539 . S
C332 C136 1.525 . S
C327 C65 1.542 . S
C357 C76 1.617 . S
C362 C162 1.601 . S
C392 C140 1.467 . S
C387 C87 1.485 . S
C417 C5 1.498 . S
C422 C163 1.515 . S
C452 C141 1.491 . S
C447 C16 1.475 . S
C477 C27 1.556 . S
C482 C160 1.572 . S
C507 C37 1.412 . S
C512 C138 1.414 . S
C542 C119 1.515 . S
C537 C49 1.498 . S
C567 C60 1.475 . S
C572 C97 1.491 . S
C602 C116 1.572 . S
C597 C71 1.556 . S
C632 C94 1.414 . S
C627 C81 1.412 . S
C662 C137 1.481 . S
C657 C4 1.483 . S
C692 C159 1.468 . S
C687 C15 1.466 . S
C717 C26 1.491 . S
C722 C139 1.479 . S
C752 C161 1.469 . S
C747 C38 1.455 . S
C782 C93 1.481 . S
C777 C48 1.483 . S
C807 C59 1.467 . S
C812 C115 1.468 . S
C837 C70 1.491 . S
C842 C95 1.479 . S
C867 C82 1.454 . S
C872 C117 1.469 . S
