# Generated by pormake.
# Topology anh, (6,3)-cn, num edge types: 1
# Building blocks:
#     Node 0, Type 0, BuildingBlock: CUWYAW_clean_sbu_0, # of connection points: 6
#     Node 1, Type 0, BuildingBlock: CUWYAW_clean_sbu_0, # of connection points: 6
#     Node 2, Type 0, BuildingBlock: CUWYAW_clean_sbu_0, # of connection points: 6
#     Node 3, Type 1, BuildingBlock: VETTIZ_charged_linker_0, # of connection points: 3
#     Node 4, Type 1, BuildingBlock: VETTIZ_charged_linker_0, # of connection points: 3
#     Node 5, Type 1, BuildingBlock: VETTIZ_charged_linker_0, # of connection points: 3
#     Node 6, Type 1, BuildingBlock: VETTIZ_charged_linker_0, # of connection points: 3
#     Node 7, Type 1, BuildingBlock: VETTIZ_charged_linker_0, # of connection points: 3
#     Node 8, Type 1, BuildingBlock: VETTIZ_charged_linker_0, # of connection points: 3
#     Edge 9, Type (0, 1), BuildingBlock: AJUNOK_clean_linker_0, # of connection points: 2
#     Edge 10, Type (0, 1), BuildingBlock: AJUNOK_clean_linker_0, # of connection points: 2
#     Edge 11, Type (0, 1), BuildingBlock: AJUNOK_clean_linker_0, # of connection points: 2
#     Edge 12, Type (0, 1), BuildingBlock: AJUNOK_clean_linker_0, # of connection points: 2
#     Edge 13, Type (0, 1), BuildingBlock: AJUNOK_clean_linker_0, # of connection points: 2
#     Edge 14, Type (0, 1), BuildingBlock: AJUNOK_clean_linker_0, # of connection points: 2
#     Edge 15, Type (0, 1), BuildingBlock: AJUNOK_clean_linker_0, # of connection points: 2
#     Edge 16, Type (0, 1), BuildingBlock: AJUNOK_clean_linker_0, # of connection points: 2
#     Edge 17, Type (0, 1), BuildingBlock: AJUNOK_clean_linker_0, # of connection points: 2
#     Edge 18, Type (0, 1), BuildingBlock: AJUNOK_clean_linker_0, # of connection points: 2
#     Edge 19, Type (0, 1), BuildingBlock: AJUNOK_clean_linker_0, # of connection points: 2
#     Edge 20, Type (0, 1), BuildingBlock: AJUNOK_clean_linker_0, # of connection points: 2
#     Edge 21, Type (0, 1), BuildingBlock: AJUNOK_clean_linker_0, # of connection points: 2
#     Edge 22, Type (0, 1), BuildingBlock: AJUNOK_clean_linker_0, # of connection points: 2
#     Edge 23, Type (0, 1), BuildingBlock: AJUNOK_clean_linker_0, # of connection points: 2
#     Edge 24, Type (0, 1), BuildingBlock: AJUNOK_clean_linker_0, # of connection points: 2
#     Edge 25, Type (0, 1), BuildingBlock: AJUNOK_clean_linker_0, # of connection points: 2
#     Edge 26, Type (0, 1), BuildingBlock: AJUNOK_clean_linker_0, # of connection points: 2
# Relax obj value: 0.310
# Max RMSD: 0.195
# Mean RMSD: 0.166
data_MOF--net-anh--node1-CUWYAW_clean_sbu_0--node2-VETTIZ_charged_linker_0--edge1-AJUNOK_clean_linker_0
_symmetry_space_group_name_H-M    P1
_symmetry_Int_Tables_number       1
_symmetry_cell_setting            triclinic
loop_
_symmetry_equiv_pos_as_xyz
'x, y, z'
_cell_length_a     29.454617
_cell_length_b     29.552644
_cell_length_c     52.700729
_cell_angle_alpha  90.181734
_cell_angle_beta   89.974136
_cell_angle_gamma 119.91922
loop_
_atom_site_label
_atom_site_type_symbol
_atom_site_fract_x
_atom_site_fract_y
_atom_site_fract_z
_atom_type_partial_charge
C0 C 1.01116 0.40691 0.16542 0.0
Eu1 Eu 1.08332 0.50358 0.16793 0.0
C2 C 0.95906 0.38979 0.1762 0.0
C3 C 0.9558 0.41401 0.19859 0.0
C4 C 0.90933 0.41229 0.20525 0.0
C5 C 0.86473 0.38596 0.18984 0.0
C6 C 0.86682 0.35851 0.16838 0.0
C7 C 0.91388 0.36087 0.16146 0.0
C8 C 0.10915 0.54723 0.21521 0.0
C9 C 1.00787 0.56274 0.16261 0.0
C10 C 0.20187 0.70672 0.16889 0.0
Eu11 Eu 0.13448 0.60874 0.1631 0.0
C12 C 0.25828 0.7377 0.16361 0.0
C13 C 0.27778 0.74547 0.13864 0.0
C14 C 0.33119 0.77782 0.13406 0.0
C15 C 0.36577 0.80227 0.15436 0.0
C16 C 0.34655 0.79161 0.17935 0.0
C17 C 0.29328 0.75982 0.1839 0.0
C18 C 0.10346 0.56061 0.11776 0.0
C19 C 0.21126 0.55221 0.15914 0.0
O20 O 1.02261 0.43854 0.14618 0.0
O21 O 1.0496 0.42359 0.18178 0.0
O22 O 0.11613 0.50989 0.20701 0.0
O23 O 1.0907 0.56254 0.19745 0.0
O24 O 1.00997 0.51831 0.16353 0.0
O25 O 1.05397 0.60661 0.16389 0.0
O26 O 0.18846 0.67289 0.18734 0.0
O27 O 0.1707 0.68837 0.14927 0.0
O28 O 0.09806 0.59988 0.1244 0.0
O29 O 0.12578 0.54927 0.13492 0.0
O30 O 0.20886 0.59636 0.16043 0.0
O31 O 0.16493 0.50791 0.16034 0.0
H32 H 0.99021 0.43779 0.21007 0.0
H33 H 0.90923 0.43402 0.22182 0.0
H34 H 0.83255 0.33637 0.1566 0.0
H35 H 0.91573 0.34269 0.14391 0.0
H36 H 0.25172 0.72817 0.12259 0.0
H37 H 0.34509 0.78609 0.11466 0.0
H38 H 0.37206 0.8111 0.19536 0.0
H39 H 0.27921 0.75406 0.20329 0.0
C40 C 0.52261 0.172 0.50162 0.0
Eu41 Eu 0.55637 0.10634 0.50327 0.0
C42 C 0.55574 0.22813 0.50735 0.0
C43 C 0.58049 0.24367 0.53115 0.0
C44 C 0.62607 0.29166 0.53397 0.0
C45 C 0.64763 0.32526 0.51317 0.0
C46 C 0.6195 0.31257 0.49025 0.0
C47 C 0.57386 0.26426 0.48735 0.0
C48 C 0.58232 0.08302 0.54944 0.0
C49 C 0.68918 0.18868 0.49655 0.0
C50 C 0.66592 1.00878 0.50137 0.0
Eu51 Eu 0.61675 1.06081 0.49711 0.0
C52 C 0.67186 0.96298 0.49705 0.0
C53 C 0.71963 0.9717 0.48708 0.0
C54 C 0.73364 0.93329 0.48869 0.0
C55 C 0.69976 0.88508 0.50008 0.0
C56 C 0.64954 0.8745 0.50769 0.0
C57 C 0.63575 0.9134 0.50636 0.0
C58 C 0.5922 0.0871 0.45225 0.0
C59 C 0.48274 0.97846 0.49557 0.0
O60 O 0.53658 0.15655 0.48131 0.0
O61 O 0.51252 0.14001 0.5206 0.0
O62 O 0.53556 0.07176 0.54274 0.0
O63 O 0.61357 0.10456 0.53106 0.0
O64 O 0.64069 0.18223 0.49482 0.0
O65 O 0.69052 0.14501 0.50087 0.0
O66 O 0.63245 1.00685 0.51832 0.0
O67 O 0.67173 1.03872 0.48208 0.0
O68 O 0.63862 0.09598 0.45794 0.0
O69 O 0.56071 0.06407 0.47007 0.0
O70 O 0.53088 0.98329 0.49628 0.0
O71 O 0.482 1.02329 0.49687 0.0
H72 H 0.56748 0.21713 0.54711 0.0
H73 H 0.64602 0.30132 0.55213 0.0
H74 H 0.63465 0.33806 0.47398 0.0
H75 H 0.55557 0.25328 0.46881 0.0
H76 H 0.74815 1.00986 0.47997 0.0
H77 H 0.77302 0.94346 0.48321 0.0
H78 H 0.62251 0.83752 0.5164 0.0
H79 H 0.5985 0.90579 0.51407 0.0
C80 C 0.8196 0.67321 0.83423 0.0
Eu81 Eu 0.72125 0.64462 0.83524 0.0
C82 C 0.83809 0.63495 0.83349 0.0
C83 C 0.84456 0.61459 0.85641 0.0
C84 C 0.84234 0.56638 0.85676 0.0
C85 C 0.83482 0.53823 0.83419 0.0
C86 C 0.83396 0.56081 0.81099 0.0
C87 C 0.83566 0.60891 0.81061 0.0
C88 C 0.66874 0.62399 0.88033 0.0
C89 C 0.66774 0.51143 0.82877 0.0
C90 C 0.51366 0.54521 0.82843 0.0
Eu91 Eu 0.61471 0.58584 0.82747 0.0
C92 C 0.47376 0.55973 0.82249 0.0
C93 C 0.44398 0.54111 0.80014 0.0
C94 C 0.39938 0.54555 0.79673 0.0
C95 C 0.38353 0.568 0.81578 0.0
C96 C 0.41615 0.59091 0.837 0.0
C97 C 0.46088 0.58688 0.84031 0.0
C98 C 0.66974 0.60626 0.78386 0.0
C99 C 0.66872 0.71982 0.82648 0.0
O100 O 0.7943 0.67424 0.8141 0.0
O101 O 0.79576 0.67354 0.8551 0.0
O102 O 0.70555 0.66972 0.87328 0.0
O103 O 0.65919 0.5909 0.86271 0.0
O104 O 0.71029 0.55921 0.82665 0.0
O105 O 0.62295 0.5112 0.83282 0.0
O106 O 0.54373 0.56732 0.84819 0.0
O107 O 0.53883 0.54004 0.80928 0.0
O108 O 0.63085 0.56074 0.78948 0.0
O109 O 0.67695 0.63865 0.80112 0.0
O110 O 0.62523 0.67221 0.82709 0.0
O111 O 0.71418 0.71995 0.82822 0.0
H112 H 0.84703 0.63377 0.87432 0.0
H113 H 0.84469 0.55018 0.87481 0.0
H114 H 0.82906 0.53998 0.79333 0.0
H115 H 0.83087 0.62351 0.79257 0.0
H116 H 0.45319 0.52019 0.78603 0.0
H117 H 0.375 0.52767 0.78019 0.0
H118 H 0.40464 0.60751 0.85234 0.0
H119 H 0.48314 0.60188 0.85769 0.0
C120 C 0.63128 0.31523 0.20095 0.0
C121 C 0.6641 0.35784 0.21645 0.0
C122 C 0.64782 0.35839 0.24161 0.0
C123 C 0.58657 0.26575 0.23836 0.0
C124 C 0.5957 0.26845 0.21252 0.0
C125 C 0.57662 0.21578 0.20071 0.0
H126 H 0.49177 0.96067 0.21405 0.0
C127 C 0.56127 0.21016 0.24579 0.0
C128 C 0.5553 0.18101 0.2237 0.0
H129 H 0.53572 1.05159 0.14503 0.0
H130 H 0.55027 0.1274 0.16876 0.0
H131 H 0.58829 1.0554 0.25017 0.0
H132 H 0.42467 0.99999 0.23656 0.0
H133 H 0.43698 1.02293 0.26802 0.0
H134 H 0.44537 0.96845 0.25903 0.0
H135 H 0.53639 0.99079 0.25759 0.0
H136 H 0.55514 1.04385 0.27936 0.0
C137 C 0.62449 0.21419 0.18895 0.0
C138 C 0.53265 0.20589 0.18162 0.0
C139 C 0.54798 0.1605 0.33887 0.0
C140 C 0.53289 0.11269 0.35092 0.0
C141 C 0.50839 0.06622 0.33659 0.0
C142 C 0.5029 0.0677 0.31029 0.0
C143 C 0.52272 0.11616 0.29818 0.0
C144 C 0.54239 0.16131 0.3125 0.0
C145 C 0.56096 0.20913 0.29625 0.0
C146 C 0.54995 0.18517 0.26983 0.0
C147 C 0.52908 0.13085 0.27117 0.0
C148 C 0.6204 0.2453 0.30125 0.0
C149 C 0.52697 0.23424 0.30226 0.0
C150 C 0.50686 0.99746 0.20415 0.0
C151 C 0.5141 1.00052 0.17766 0.0
C152 C 0.53072 1.04851 0.16544 0.0
C153 C 0.53869 0.09233 0.17927 0.0
C154 C 0.53123 0.08856 0.20572 0.0
C155 C 0.51583 1.04178 0.21773 0.0
C156 C 0.50924 1.04487 0.24589 0.0
C157 C 0.52366 0.10167 0.2488 0.0
C158 C 0.53663 0.12679 0.22523 0.0
C159 C 0.54903 1.03296 0.25916 0.0
C160 C 0.45124 1.00695 0.25294 0.0
H161 H 0.60182 0.31304 0.27266 0.0
H162 H 0.64129 0.31353 0.18136 0.0
H163 H 0.50792 0.22171 0.18899 0.0
H164 H 0.50516 0.1639 0.17832 0.0
H165 H 0.54933 0.22519 0.16319 0.0
H166 H 0.66185 0.24232 0.19847 0.0
H167 H 0.62876 0.22403 0.16845 0.0
H168 H 0.62298 0.1764 0.19143 0.0
H169 H 0.56592 0.19669 0.34957 0.0
H170 H 0.49601 1.02891 0.34556 0.0
H171 H 0.48544 1.03123 0.30026 0.0
H172 H 0.64003 0.222 0.30469 0.0
H173 H 0.62721 0.27032 0.31821 0.0
H174 H 0.6416 0.27037 0.28502 0.0
H175 H 0.48546 0.2037 0.30547 0.0
H176 H 0.52573 0.25804 0.28644 0.0
H177 H 0.54105 0.25875 0.31967 0.0
H178 H 0.67086 0.39185 0.25374 0.0
C179 C 0.60875 0.31211 0.25272 0.0
C180 C 0.82417 0.75682 0.5358 0.0
C181 C 0.81664 0.7972 0.54519 0.0
C182 C 0.83853 0.82007 0.56888 0.0
C183 C 0.86211 0.75406 0.576 0.0
C184 C 0.84837 0.73671 0.55143 0.0
C185 C 0.8598 0.69369 0.54516 0.0
H186 H 0.81775 0.47291 0.57716 0.0
C187 C 0.87527 0.71875 0.58929 0.0
C188 C 0.87945 0.68643 0.571 0.0
H189 H 0.87896 0.55096 0.50564 0.0
H190 H 0.9204 0.63564 0.52795 0.0
H191 H 0.92451 0.55522 0.60959 0.0
H192 H 0.77273 0.53993 0.60056 0.0
H193 H 0.79116 0.54372 0.63299 0.0
H194 H 0.7871 0.4924 0.61387 0.0
H195 H 0.87442 0.52238 0.63287 0.0
H196 H 0.91903 0.59187 0.63472 0.0
C197 C 0.9019 0.71291 0.524 0.0
C198 C 0.80808 0.64471 0.53707 0.0
C199 C 0.81369 0.68086 0.68055 0.0
C200 C 0.80608 0.64108 0.69749 0.0
C201 C 0.82398 0.60646 0.69061 0.0
C202 C 0.84681 0.6101 0.66674 0.0
C203 C 0.85032 0.64766 0.64939 0.0
C204 C 0.83614 0.68368 0.6568 0.0
C205 C 0.84456 0.72218 0.63622 0.0
C206 C 0.86681 0.7033 0.61516 0.0
C207 C 0.86743 0.65801 0.6227 0.0
C208 C 0.88423 0.77813 0.64556 0.0
C209 C 0.79022 0.71508 0.62926 0.0
C210 C 0.84061 0.50815 0.56627 0.0
C211 C 0.84244 0.506 0.53959 0.0
C212 C 0.87473 0.55213 0.52602 0.0
C213 C 0.89631 0.60054 0.53836 0.0
C214 C 0.88304 0.60162 0.56373 0.0
C215 C 0.86159 0.55701 0.5781 0.0
C216 C 0.85689 0.56846 0.60563 0.0
C217 C 0.87366 0.62641 0.60422 0.0
C218 C 0.88506 0.64378 0.57902 0.0
C219 C 0.89543 0.55885 0.62163 0.0
C220 C 0.79895 0.53444 0.61382 0.0
H221 H 0.87742 0.81677 0.60231 0.0
H222 H 0.80932 0.73959 0.51736 0.0
H223 H 0.77821 0.63275 0.55233 0.0
H224 H 0.81364 0.61119 0.53285 0.0
H225 H 0.79199 0.65232 0.51957 0.0
H226 H 0.9053 0.74719 0.51364 0.0
H227 H 0.89198 0.68256 0.50921 0.0
H228 H 0.94128 0.72484 0.53191 0.0
H229 H 0.80014 0.70786 0.68515 0.0
H230 H 0.81933 0.57595 0.70349 0.0
H231 H 0.85918 0.58251 0.6622 0.0
H232 H 0.90113 0.77829 0.66446 0.0
H233 H 0.8655 0.80261 0.64737 0.0
H234 H 0.91824 0.79788 0.63255 0.0
H235 H 0.76373 0.67489 0.62204 0.0
H236 H 0.79207 0.74269 0.61482 0.0
H237 H 0.77138 0.7216 0.64605 0.0
H238 H 0.83551 0.85292 0.57597 0.0
C239 C 0.86212 0.79907 0.5842 0.0
C240 C 0.13481 0.46045 0.85121 0.0
C241 C 0.18601 0.49812 0.8581 0.0
C242 C 0.19853 0.51045 0.88389 0.0
C243 C 0.10892 0.45012 0.89546 0.0
C244 C 0.09658 0.43768 0.87017 0.0
C245 C 1.0397 0.39771 0.86636 0.0
H246 H 0.82368 0.37743 0.89929 0.0
C247 C 1.06058 0.42174 0.91037 0.0
C248 C 1.01936 0.39143 0.89359 0.0
H249 H 0.86024 0.32315 0.83024 0.0
H250 H 0.92757 0.31422 0.85284 0.0
H251 H 0.84333 0.28649 0.93455 0.0
H252 H 0.92375 0.4523 0.9222 0.0
H253 H 0.92091 0.43686 0.95499 0.0
H254 H 0.86152 0.41474 0.93786 0.0
H255 H 0.83605 0.32956 0.95598 0.0
H256 H 0.88797 0.31444 0.9599 0.0
C257 C 1.03677 0.347 0.85654 0.0
C258 C 1.0146 0.42001 0.84788 0.0
C259 C 1.06607 0.46418 0.00382 0.0
C260 C 1.02703 0.4529 0.02192 0.0
C261 C 0.97393 0.4228 0.01486 0.0
C262 C 0.96006 0.40394 0.98991 0.0
C263 C 0.99976 0.41674 0.97185 0.0
C264 C 1.05164 0.44589 0.97904 0.0
C265 C 1.08853 0.45731 0.95726 0.0
C266 C 1.05025 0.42677 0.93616 0.0
C267 C 0.99841 0.40417 0.94465 0.0
C268 C 0.12471 0.43475 0.96347 0.0
C269 C 0.11787 0.51732 0.95259 0.0
C270 C 0.84485 0.36198 0.88908 0.0
C271 C 0.84105 0.3566 0.86239 0.0
C272 C 0.86603 0.33226 0.85031 0.0
C273 C 0.90566 0.32841 0.86304 0.0
C274 C 0.91832 0.34778 0.88782 0.0
C275 C 0.88392 0.35679 0.90163 0.0
C276 C 0.90147 0.37035 0.9289 0.0
C277 C 0.95656 0.37815 0.92718 0.0
C278 C 0.96683 0.36745 0.90247 0.0
C279 C 0.86537 0.32306 0.94582 0.0
C280 C 0.90197 0.42128 0.9365 0.0
H281 H 0.17278 0.49647 0.92187 0.0
H282 H 0.12489 0.44914 0.83153 0.0
H283 H 0.99466 0.43788 0.85834 0.0
H284 H 0.98641 0.38984 0.8347 0.0
H285 H 1.04387 0.45087 0.83532 0.0
H286 H 1.0648 0.33888 0.86695 0.0
H287 H 1.04665 0.35025 0.83603 0.0
H288 H 0.99777 0.31239 0.85946 0.0
H289 H 0.10712 0.48829 0.00867 0.0
H290 H 0.94336 0.41407 0.02864 0.0
H291 H 0.9192 0.38138 0.98532 0.0
H292 H 0.10185 0.39532 0.9721 0.0
H293 H 0.15575 0.46019 0.97718 0.0
H294 H 0.14342 0.42942 0.94643 0.0
H295 H 0.09885 0.53696 0.96237 0.0
H296 H 0.11802 0.52713 0.93231 0.0
H297 H 0.15891 0.53621 0.95957 0.0
H298 H 0.23838 0.53774 0.88966 0.0
C299 C 0.16045 0.48623 0.90259 0.0
C300 C 0.94134 0.44278 0.48789 0.0
C301 C 0.89819 0.39854 0.47396 0.0
C302 C 0.90558 0.40171 0.44747 0.0
C303 C 0.99028 0.48558 0.44856 0.0
C304 C 0.98717 0.48624 0.47467 0.0
C305 C 1.03781 0.53824 0.4841 0.0
H306 H 0.28307 0.76462 0.44019 0.0
C307 C 1.04007 0.5336 0.43904 0.0
C308 C 1.07065 0.56689 0.45955 0.0
H309 H 0.23867 0.74776 0.51866 0.0
H310 H 0.15591 0.6647 0.50844 0.0
H311 H 0.24678 0.64771 0.42717 0.0
H312 H 0.17352 0.74147 0.42237 0.0
H313 H 0.15166 0.70164 0.3954 0.0
H314 H 0.22092 0.74636 0.39958 0.0
H315 H 0.26486 0.69845 0.40413 0.0
H316 H 0.21437 0.63214 0.39784 0.0
C317 C 1.0704 0.52428 0.50174 0.0
C318 C 1.02094 0.57326 0.49794 0.0
C319 C 1.06498 0.54455 0.34229 0.0
C320 C 0.104 0.58056 0.32574 0.0
C321 C 0.14667 0.62511 0.33661 0.0
C322 C 0.15111 0.63301 0.36311 0.0
C323 C 0.11212 0.59644 0.37953 0.0
C324 C 1.06986 0.55338 0.36883 0.0
C325 C 1.032 0.51862 0.38879 0.0
C326 C 1.05796 0.54763 0.41344 0.0
C327 C 0.10528 0.59323 0.40799 0.0
C328 C 1.02989 0.46507 0.38713 0.0
C329 C 0.97906 0.5168 0.38396 0.0
C330 C 0.25689 0.74379 0.45572 0.0
C331 C 0.27118 0.76541 0.4805 0.0
C332 C 0.23172 0.73447 0.49915 0.0
C333 C 0.18305 0.68551 0.49326 0.0
C334 C 0.1702 0.66504 0.46801 0.0
C335 C 0.20813 0.69645 0.45014 0.0
C336 C 0.19032 0.67612 0.42393 0.0
C337 C 0.13742 0.62682 0.42801 0.0
C338 C 0.1223 0.61652 0.45415 0.0
C339 C 0.23111 0.66318 0.41242 0.0
C340 C 0.18406 0.71841 0.40935 0.0
H341 H 0.94892 0.43959 0.41507 0.0
H342 H 0.93913 0.44402 0.50835 0.0
H343 H 0.99711 0.58306 0.48515 0.0
H344 H 1.05574 0.61025 0.50417 0.0
H345 H 0.99695 0.55312 0.5149 0.0
H346 H 1.08229 0.49871 0.49169 0.0
H347 H 1.04736 0.50327 0.51878 0.0
H348 H 0.1064 0.56014 0.50805 0.0
H349 H 1.03119 0.51005 0.33478 0.0
H350 H 0.17762 0.65336 0.32458 0.0
H351 H 0.18549 0.66732 0.36971 0.0
H352 H 1.06767 0.46956 0.38026 0.0
H353 H 0.9988 0.43807 0.37385 0.0
H354 H 1.02401 0.44597 0.40582 0.0
H355 H 0.98521 0.55383 0.3754 0.0
H356 H 0.95716 0.51301 0.40162 0.0
H357 H 0.95378 0.48457 0.37077 0.0
H358 H 0.87649 0.37093 0.43557 0.0
C359 C 0.9493 0.443 0.43524 0.0
C360 C 0.66871 0.97321 0.81947 0.0
C361 C 0.66159 0.92618 0.80577 0.0
C362 C 0.6506 0.92621 0.77977 0.0
C363 C 0.65541 1.01288 0.78077 0.0
C364 C 0.66491 1.01607 0.80653 0.0
C365 C 0.6691 0.0693 0.81604 0.0
H366 H 0.6721 0.30695 0.77231 0.0
C367 C 0.65505 0.06171 0.77138 0.0
C368 C 0.66245 0.09702 0.79179 0.0
H369 H 0.6679 0.27332 0.85179 0.0
H370 H 0.66579 0.18978 0.84132 0.0
H371 H 0.7506 0.26817 0.75533 0.0
H372 H 0.58363 0.19817 0.75861 0.0
H373 H 0.59551 0.17473 0.73039 0.0
H374 H 0.62213 0.24403 0.7345 0.0
H375 H 0.71403 0.2836 0.73325 0.0
H376 H 0.72751 0.23115 0.72742 0.0
C377 C 0.72287 0.10424 0.82825 0.0
C378 C 0.62515 1.05725 0.83511 0.0
C379 C 0.6307 0.06922 0.67518 0.0
C380 C 0.63314 0.10788 0.65862 0.0
C381 C 0.64495 0.15641 0.66921 0.0
C382 C 0.65261 0.16581 0.69552 0.0
C383 C 0.64902 0.12652 0.71203 0.0
C384 C 0.63933 0.07967 0.70154 0.0
C385 C 0.6403 1.0437 0.72146 0.0
C386 C 0.65029 0.07559 0.7459 0.0
C387 C 0.65454 0.12399 0.74038 0.0
C388 C 0.68667 1.03461 0.71498 0.0
C389 C 0.58545 0.99372 0.72166 0.0
C390 C 0.67139 0.28307 0.78801 0.0
C391 C 0.67044 0.30044 0.81311 0.0
C392 C 0.66829 0.26382 0.83198 0.0
C393 C 0.66737 0.21465 0.82594 0.0
C394 C 0.66775 0.19839 0.80038 0.0
C395 C 0.66909 0.23388 0.78239 0.0
C396 C 0.66512 0.21296 0.75615 0.0
C397 C 0.6609 0.15981 0.76031 0.0
C398 C 0.66378 0.14834 0.78646 0.0
C399 C 0.7166 0.25087 0.74208 0.0
C400 C 0.61439 0.2074 0.74404 0.0
H401 H 0.63908 0.96164 0.74789 0.0
H402 H 0.67644 0.97634 0.83964 0.0
H403 H 0.58627 1.0318 0.82622 0.0
H404 H 0.62668 0.09378 0.84158 0.0
H405 H 0.6288 1.03677 0.85197 0.0
H406 H 0.75459 0.11265 0.81441 0.0
H407 H 0.72837 0.08476 0.84501 0.0
H408 H 0.72667 0.14196 0.83447 0.0
H409 H 0.62272 1.03173 0.66777 0.0
H410 H 0.64711 0.18697 0.65709 0.0
H411 H 0.66051 0.20349 0.70194 0.0
H412 H 0.71799 0.06801 0.70426 0.0
H413 H 0.67356 0.99906 0.70314 0.0
H414 H 0.70694 1.03181 0.73206 0.0
H415 H 0.55412 1.00304 0.71713 0.0
H416 H 0.57452 0.97498 0.74052 0.0
H417 H 0.58297 0.9648 0.70741 0.0
H418 H 0.64425 0.89318 0.76819 0.0
C419 C 0.64767 0.96744 0.7677 0.0
C420 C 0.75431 0.56144 0.15259 0.0
C421 C 0.79873 0.56245 0.13888 0.0
C422 C 0.79264 0.55996 0.1123 0.0
C423 C 0.70868 0.56074 0.11288 0.0
C424 C 0.7094 0.56058 0.13906 0.0
C425 C 0.65732 0.55951 0.14818 0.0
H426 H 0.43106 0.57821 0.1038 0.0
C427 C 0.66094 0.56274 0.10304 0.0
C428 C 0.62805 0.56154 0.12336 0.0
H429 H 0.44154 0.53729 0.18083 0.0
H430 H 0.52635 0.54104 0.17092 0.0
H431 H 0.55183 0.66151 0.09469 0.0
H432 H 0.45656 0.49673 0.08189 0.0
H433 H 0.49762 0.52042 0.05545 0.0
H434 H 0.45298 0.54404 0.06205 0.0
H435 H 0.50412 0.63454 0.06972 0.0
H436 H 0.57097 0.64958 0.06505 0.0
C437 C 0.67126 0.60709 0.16505 0.0
C438 C 0.62285 0.5087 0.16268 0.0
C439 C 0.65316 0.57847 0.00631 0.0
C440 C 0.62151 0.58846 0.9898 0.0
C441 C 0.58096 0.59442 0.00059 0.0
C442 C 0.57156 0.58971 0.02698 0.0
C443 C 0.60337 0.57949 0.04338 0.0
C444 C 0.64381 0.5749 0.0328 0.0
C445 C 0.67629 0.5683 0.0529 0.0
C446 C 0.64804 0.56783 0.0774 0.0
C447 C 0.60459 0.57356 0.07179 0.0
C448 C 0.73234 0.6167 0.05142 0.0
C449 C 0.67299 0.51484 0.04814 0.0
C450 C 0.45082 0.57051 0.11907 0.0
C451 C 0.42668 0.55811 0.14339 0.0
C452 C 0.45658 0.54725 0.1617 0.0
C453 C 0.50662 0.54961 0.15601 0.0
C454 C 0.52939 0.5619 0.13126 0.0
C455 C 0.49921 0.57082 0.11356 0.0
C456 C 0.52205 0.57753 0.08755 0.0
C457 C 0.57033 0.57175 0.0916 0.0
C458 C 0.57884 0.56417 0.11764 0.0
C459 C 0.5378 0.63342 0.07852 0.0
C460 C 0.48038 0.53286 0.07065 0.0
H461 H 0.75113 0.55731 0.07959 0.0
H462 H 0.75489 0.56224 0.17311 0.0
H463 H 0.61298 0.47435 0.1504 0.0
H464 H 0.58574 0.50653 0.16879 0.0
H465 H 0.64361 0.50633 0.17979 0.0
H466 H 0.69651 0.64376 0.15451 0.0
H467 H 0.69274 0.60655 0.18228 0.0
H468 H 0.6352 0.60729 0.17109 0.0
H469 H 0.68558 0.57502 -0.00115 0.0
H470 H 0.5562 0.60257 0.98849 0.0
H471 H 0.53969 0.59441 0.03356 0.0
H472 H 0.73192 0.65123 0.04333 0.0
H473 H 0.75845 0.60879 0.03928 0.0
H474 H 0.75066 0.63031 0.07029 0.0
H475 H 0.63414 0.48583 0.04021 0.0
H476 H 0.6764 0.49654 0.06578 0.0
H477 H 0.70332 0.51854 0.03445 0.0
H478 H 0.82215 0.55865 0.10053 0.0
C479 C 0.74983 0.55905 0.09978 0.0
C480 C 0.31125 0.59498 0.1438 0.0
C481 C 0.26612 0.553 0.15565 0.0
C482 C 0.36086 0.59608 0.14003 0.0
C483 C 0.37169 0.55635 0.14858 0.0
H484 H 0.30813 0.6277 0.13677 0.0
H485 H 0.39177 0.62951 0.13033 0.0
S486 S 0.26929 0.43685 0.18137 0.0
N487 N 0.23826 0.46946 0.17577 0.0
N488 N 0.32919 0.47273 0.17003 0.0
C489 C 0.32722 0.51455 0.16086 0.0
C490 C 0.27606 0.51262 0.16398 0.0
C491 C 0.79245 0.2573 0.50303 0.0
C492 C 0.74208 0.24439 0.49281 0.0
C493 C 0.84092 0.3069 0.49886 0.0
C494 C 0.84433 0.34886 0.48383 0.0
H495 H 0.79492 0.22817 0.5144 0.0
H496 H 0.87677 0.31135 0.50685 0.0
S497 S 0.72663 0.33719 0.45072 0.0
N498 N 0.7021 0.28087 0.46576 0.0
N499 N 0.78947 0.37022 0.45805 0.0
C500 C 0.79422 0.33616 0.47351 0.0
C501 C 0.74504 0.28608 0.47792 0.0
C502 C 0.7116 0.82464 0.8233 0.0
C503 C 0.66636 0.77315 0.82331 0.0
C504 C 0.71003 0.87293 0.81961 0.0
C505 C 0.66297 0.8752 0.81579 0.0
H506 H 0.74965 0.828 0.82574 0.0
H507 H 0.74699 0.9092 0.81891 0.0
S508 S 0.53199 0.75349 0.81342 0.0
N509 N 0.57191 0.73043 0.81879 0.0
N510 N 0.56921 0.81764 0.81178 0.0
C511 C 0.61759 0.82402 0.81577 0.0
C512 C 0.61912 0.77497 0.81961 0.0
C513 C 0.90462 0.52861 0.16975 0.0
C514 C 0.95436 0.56416 0.15858 0.0
C515 C 0.85643 0.53053 0.16557 0.0
C516 C 0.85255 0.56682 0.14903 0.0
H517 H 0.90272 0.49882 0.18225 0.0
H518 H 0.82126 0.50215 0.17509 0.0
S519 S 0.97034 0.67135 0.11568 0.0
N520 N 0.99462 0.63964 0.13111 0.0
N521 N 0.90731 0.64165 0.12259 0.0
C522 C 0.90242 0.60315 0.13832 0.0
C523 C 0.95145 0.60219 0.14314 0.0
C524 C 0.37877 0.91393 0.50062 0.0
C525 C 0.42924 0.92305 0.49251 0.0
C526 C 0.32985 0.86435 0.49775 0.0
C527 C 0.32576 0.81889 0.48571 0.0
H528 H 0.37675 0.94584 0.50963 0.0
H529 H 0.29423 0.86229 0.5046 0.0
S530 S 0.44406 0.8184 0.46025 0.0
N531 N 0.46918 0.87819 0.47181 0.0
N532 N 0.38033 0.78919 0.46551 0.0
C533 C 0.37583 0.82764 0.47732 0.0
C534 C 0.42578 0.87759 0.4809 0.0
C535 C 0.69972 0.44975 0.80679 0.0
C536 C 0.66967 0.45798 0.82574 0.0
C537 C 0.6997 0.40073 0.80309 0.0
C538 C 0.67098 0.35485 0.81842 0.0
H539 H 0.72312 0.48156 0.79399 0.0
H540 H 0.72356 0.39927 0.78784 0.0
S541 S 0.58622 0.35303 0.87171 0.0
N542 N 0.6098 0.4126 0.86028 0.0
N543 N 0.61149 0.32445 0.8543 0.0
C544 C 0.64163 0.36302 0.8378 0.0
C545 C 0.64048 0.41251 0.84109 0.0
C546 C 0.71466 0.83707 0.53465 0.0
C547 C 0.72136 0.85209 0.50901 0.0
C548 C 0.7445 0.81773 0.54575 0.0
C549 C 0.78255 0.81292 0.53177 0.0
H550 H 0.68856 0.84335 0.54676 0.0
H551 H 0.73881 0.80796 0.56574 0.0
S552 S 0.81008 0.8396 0.46311 0.0
N553 N 0.76406 0.85455 0.46909 0.0
N554 N 0.82187 0.81986 0.49034 0.0
C555 C 0.78726 0.82432 0.50571 0.0
C556 C 0.75632 0.84359 0.49427 0.0
C557 C 0.78873 0.44739 0.85098 0.0
C558 C 0.8278 0.48526 0.83535 0.0
C559 C 0.78826 0.40096 0.85679 0.0
C560 C 0.82798 0.39173 0.84785 0.0
H561 H 0.75998 0.455 0.85984 0.0
H562 H 0.75941 0.37437 0.87017 0.0
S563 S 0.93469 0.4765 0.80313 0.0
N564 N 0.90244 0.508 0.8082 0.0
N565 N 0.90369 0.42222 0.81975 0.0
C566 C 0.86413 0.42727 0.83007 0.0
C567 C 0.86375 0.47395 0.82381 0.0
C568 C 0.41911 0.89083 0.13733 0.0
C569 C 0.41767 0.84842 0.15005 0.0
C570 C 0.45662 0.94193 0.14371 0.0
C571 C 0.4938 0.95171 0.1628 0.0
H572 H 0.38687 0.88507 0.12525 0.0
H573 H 0.4517 0.97328 0.13617 0.0
S574 S 0.51861 0.85368 0.19366 0.0
N575 N 0.465 0.81887 0.17665 0.0
N576 N 0.53677 0.91549 0.1883 0.0
C577 C 0.49897 0.90972 0.17168 0.0
C578 C 0.46048 0.85767 0.16531 0.0
C579 C 0.74103 0.36606 0.52708 0.0
C580 C 0.70088 0.37132 0.51535 0.0
C581 C 0.78959 0.40977 0.53275 0.0
C582 C 0.79986 0.46015 0.52658 0.0
H583 H 0.73412 0.32797 0.53283 0.0
H584 H 0.81812 0.40445 0.54332 0.0
S585 S 0.70991 0.49467 0.49365 0.0
N586 N 0.67608 0.43049 0.49617 0.0
N587 N 0.76766 0.51268 0.50638 0.0
C588 C 0.76161 0.46557 0.51305 0.0
C589 C 0.71199 0.42112 0.50753 0.0
C590 C 0.28864 0.50326 0.81472 0.0
C591 C 0.3284 0.55582 0.81718 0.0
C592 C 0.2394 0.48556 0.8256 0.0
C593 C 0.22859 0.51988 0.83928 0.0
H594 H 0.2972 0.47435 0.80695 0.0
H595 H 0.21185 0.44396 0.82566 0.0
S596 S 0.31346 0.66334 0.84447 0.0
N597 N 0.34943 0.64378 0.82898 0.0
N598 N 0.2567 0.61013 0.84994 0.0
C599 C 0.26516 0.57352 0.83873 0.0
C600 C 0.31519 0.59164 0.82747 0.0
C601 C 0.80067 0.38205 0.22194 0.0
C602 C 0.81665 0.38774 0.19647 0.0
C603 C 0.75406 0.38021 0.22884 0.0
C604 C 0.72102 0.38365 0.21054 0.0
H605 H 0.82275 0.37585 0.2366 0.0
H606 H 0.74177 0.37087 0.24841 0.0
S607 S 0.75059 0.41026 0.14195 0.0
N608 N 0.79981 0.40458 0.15328 0.0
N609 N 0.71249 0.40257 0.16648 0.0
C610 C 0.73931 0.39487 0.18537 0.0
C611 C 0.78656 0.39582 0.17822 0.0
C612 C 1.04734 0.53834 0.07918 0.0
C613 C 1.0828 0.53086 0.09399 0.0
C614 C 1.02731 0.51092 0.0564 0.0
C615 C 1.04257 0.4756 0.04758 0.0
H616 H 1.03516 0.56578 0.08515 0.0
H617 H 1.00116 0.51871 0.04519 0.0
S618 S 0.13228 0.44014 0.07975 0.0
N619 N 0.13051 0.48383 0.09871 0.0
N620 N 1.09341 0.43296 0.05564 0.0
C621 C 1.07706 0.46693 0.06243 0.0
C622 C 0.09702 0.49437 0.08573 0.0
C623 C 0.52447 0.06945 0.41929 0.0
C624 C 0.57705 0.09735 0.42721 0.0
C625 C 0.50998 0.07585 0.3948 0.0
C626 C 0.54744 0.11112 0.37766 0.0
H627 H 0.49457 1.04125 0.43178 0.0
H628 H 0.46937 1.05243 0.38907 0.0
S629 S 0.68959 0.19635 0.39002 0.0
N630 N 0.66612 0.16355 0.41665 0.0
N631 N 0.63896 0.17578 0.37067 0.0
C632 C 0.59978 0.14077 0.38577 0.0
C633 C 0.61458 0.1338 0.41055 0.0
C634 C 0.69964 0.57459 0.74708 0.0
C635 C 0.7057 0.61639 0.76232 0.0
C636 C 0.73357 0.5827 0.72677 0.0
C637 C 0.77502 0.63292 0.72099 0.0
H638 H 0.6682 0.53524 0.75072 0.0
H639 H 0.72625 0.54955 0.71506 0.0
S640 S 0.80972 0.75505 0.75614 0.0
N641 N 0.75697 0.70968 0.77066 0.0
N642 N 0.82214 0.72459 0.7332 0.0
C643 C 0.7824 0.67485 0.73657 0.0
C644 C 0.7474 0.66668 0.75704 0.0
C645 C 0.64585 0.12638 0.58608 0.0
C646 C 0.59763 0.0858 0.57687 0.0
C647 C 0.6575 0.13272 0.61237 0.0
C648 C 0.62208 0.098 0.63057 0.0
H649 H 0.67398 0.15471 0.57301 0.0
H650 H 0.6944 0.16549 0.61854 0.0
S651 S 0.49166 0.98379 0.61628 0.0
N652 N 0.51492 1.00961 0.58819 0.0
N653 N 0.53734 1.0206 0.63708 0.0
C654 C 0.57464 1.05627 0.62145 0.0
C655 C 0.56233 1.05046 0.59482 0.0
C656 C 0.65421 0.65084 0.92364 0.0
C657 C 0.653 0.61177 0.90772 0.0
C658 C 0.64326 0.64263 0.94985 0.0
C659 C 0.63197 0.59541 0.96164 0.0
H660 H 0.66385 0.6884 0.91575 0.0
H661 H 0.64469 0.67404 0.96112 0.0
S662 S 0.62368 0.48016 0.92881 0.0
N663 N 0.63842 0.52333 0.90589 0.0
N664 N 0.61969 0.50861 0.95511 0.0
C665 C 0.63062 0.55592 0.946 0.0
C666 C 0.64054 0.56384 0.91913 0.0
C667 C 0.11134 0.60219 0.25317 0.0
C668 C 0.10488 0.55497 0.24324 0.0
C669 C 0.1106 0.61018 0.2797 0.0
C670 C 0.10209 0.57087 0.29746 0.0
H671 H 0.11833 0.63367 0.24041 0.0
H672 H 0.11677 0.64753 0.28638 0.0
S673 S 1.08113 0.43942 0.28144 0.0
N674 N 1.08852 0.46788 0.25366 0.0
N675 N 1.08654 0.48278 0.30281 0.0
C676 C 1.09442 0.52321 0.28767 0.0
C677 C 0.09599 0.51535 0.26084 0.0
loop_
_geom_bond_atom_site_label_1
_geom_bond_atom_site_label_2
_geom_bond_distance
_geom_bond_site_symmetry_2
_ccdc_geom_bond_type
C0 Eu1 2.835 . S
C0 C2 1.500 . S
C0 O20 1.257 . S
C0 O21 1.260 . S
Eu1 C0 2.835 . S
Eu1 O20 2.473 . S
Eu1 O21 2.480 . S
Eu1 O22 2.430 1_655 S
Eu1 O23 2.670 1_655 S
Eu1 O24 2.394 . S
Eu1 O29 2.355 1_655 S
Eu1 O31 2.374 1_655 S
C2 C0 1.500 . S
C2 C3 1.377 . S
C2 C7 1.377 . S
C3 C2 1.377 . S
C3 C4 1.395 . S
C3 H32 0.931 . S
C4 C3 1.395 . S
C4 C5 1.383 . S
C4 H33 0.931 . S
C5 C4 1.383 . S
C5 C6 1.394 . S
C6 C5 1.394 . S
C6 C7 1.378 . S
C6 H34 0.931 . S
C7 C2 1.377 . S
C7 C6 1.378 . S
C7 H35 0.931 . S
C8 O22 1.259 . S
C8 O23 1.270 . S
C9 O24 1.251 . S
C9 O25 1.251 . S
C10 Eu11 2.835 . S
C10 C12 1.500 . S
C10 O26 1.257 . S
C10 O27 1.260 . S
Eu11 C10 2.835 . S
Eu11 O23 2.355 . S
Eu11 O25 2.374 1_455 S
Eu11 O26 2.473 . S
Eu11 O27 2.480 . S
Eu11 O28 2.430 . S
Eu11 O29 2.670 . S
Eu11 O30 2.394 . S
C12 C10 1.500 . S
C12 C13 1.377 . S
C12 C17 1.377 . S
C13 C12 1.377 . S
C13 C14 1.395 . S
C13 H36 0.931 . S
C14 C13 1.395 . S
C14 C15 1.383 . S
C14 H37 0.931 . S
C15 C14 1.383 . S
C15 C16 1.394 . S
C16 C15 1.394 . S
C16 C17 1.378 . S
C16 H38 0.931 . S
C17 C12 1.377 . S
C17 C16 1.378 . S
C17 H39 0.931 . S
C18 O28 1.259 . S
C18 O29 1.270 . S
C19 O30 1.251 . S
C19 O31 1.251 . S
O20 C0 1.257 . S
O20 Eu1 2.473 . S
O21 C0 1.260 . S
O21 Eu1 2.480 . S
O22 Eu1 2.430 1_455 S
O22 C8 1.259 . S
O23 Eu1 2.670 1_455 S
O23 C8 1.270 . S
O23 Eu11 2.355 . S
O24 Eu1 2.394 . S
O24 C9 1.251 . S
O25 C9 1.251 . S
O25 Eu11 2.374 1_655 S
O26 C10 1.257 . S
O26 Eu11 2.473 . S
O27 C10 1.260 . S
O27 Eu11 2.480 . S
O28 Eu11 2.430 . S
O28 C18 1.259 . S
O29 Eu1 2.355 1_455 S
O29 Eu11 2.670 . S
O29 C18 1.270 . S
O30 Eu11 2.394 . S
O30 C19 1.251 . S
O31 Eu1 2.374 1_455 S
O31 C19 1.251 . S
H32 C3 0.931 . S
H33 C4 0.931 . S
H34 C6 0.931 . S
H35 C7 0.931 . S
H36 C13 0.931 . S
H37 C14 0.931 . S
H38 C16 0.931 . S
H39 C17 0.931 . S
C40 Eu41 2.835 . S
C40 C42 1.500 . S
C40 O60 1.257 . S
C40 O61 1.260 . S
Eu41 C40 2.835 . S
Eu41 O60 2.473 . S
Eu41 O61 2.480 . S
Eu41 O62 2.430 . S
Eu41 O63 2.670 . S
Eu41 O64 2.394 . S
Eu41 O69 2.355 . S
Eu41 O71 2.374 1_545 S
C42 C40 1.500 . S
C42 C43 1.377 . S
C42 C47 1.377 . S
C43 C42 1.377 . S
C43 C44 1.395 . S
C43 H72 0.931 . S
C44 C43 1.395 . S
C44 C45 1.383 . S
C44 H73 0.931 . S
C45 C44 1.383 . S
C45 C46 1.394 . S
C46 C45 1.394 . S
C46 C47 1.378 . S
C46 H74 0.931 . S
C47 C42 1.377 . S
C47 C46 1.378 . S
C47 H75 0.931 . S
C48 O62 1.259 . S
C48 O63 1.270 . S
C49 O64 1.251 . S
C49 O65 1.251 . S
C50 Eu51 2.835 . S
C50 C52 1.500 . S
C50 O66 1.257 . S
C50 O67 1.260 . S
Eu51 C50 2.835 . S
Eu51 O63 2.355 1_565 S
Eu51 O65 2.374 1_565 S
Eu51 O66 2.473 . S
Eu51 O67 2.480 . S
Eu51 O68 2.430 1_565 S
Eu51 O69 2.670 1_565 S
Eu51 O70 2.394 . S
C52 C50 1.500 . S
C52 C53 1.377 . S
C52 C57 1.377 . S
C53 C52 1.377 . S
C53 C54 1.395 . S
C53 H76 0.931 . S
C54 C53 1.395 . S
C54 C55 1.383 . S
C54 H77 0.931 . S
C55 C54 1.383 . S
C55 C56 1.394 . S
C56 C55 1.394 . S
C56 C57 1.378 . S
C56 H78 0.931 . S
C57 C52 1.377 . S
C57 C56 1.378 . S
C57 H79 0.931 . S
C58 O68 1.259 . S
C58 O69 1.270 . S
C59 O70 1.251 . S
C59 O71 1.251 . S
O60 C40 1.257 . S
O60 Eu41 2.473 . S
O61 C40 1.260 . S
O61 Eu41 2.480 . S
O62 Eu41 2.430 . S
O62 C48 1.259 . S
O63 Eu41 2.670 . S
O63 C48 1.270 . S
O63 Eu51 2.355 1_545 S
O64 Eu41 2.394 . S
O64 C49 1.251 . S
O65 C49 1.251 . S
O65 Eu51 2.374 1_545 S
O66 C50 1.257 . S
O66 Eu51 2.473 . S
O67 C50 1.260 . S
O67 Eu51 2.480 . S
O68 Eu51 2.430 1_545 S
O68 C58 1.259 . S
O69 Eu41 2.355 . S
O69 Eu51 2.670 1_545 S
O69 C58 1.270 . S
O70 Eu51 2.394 . S
O70 C59 1.251 . S
O71 Eu41 2.374 1_565 S
O71 C59 1.251 . S
H72 C43 0.931 . S
H73 C44 0.931 . S
H74 C46 0.931 . S
H75 C47 0.931 . S
H76 C53 0.931 . S
H77 C54 0.931 . S
H78 C56 0.931 . S
H79 C57 0.931 . S
C80 Eu81 2.835 . S
C80 C82 1.500 . S
C80 O100 1.257 . S
C80 O101 1.260 . S
Eu81 C80 2.835 . S
Eu81 O100 2.473 . S
Eu81 O101 2.480 . S
Eu81 O102 2.430 . S
Eu81 O103 2.670 . S
Eu81 O104 2.394 . S
Eu81 O109 2.355 . S
Eu81 O111 2.374 . S
C82 C80 1.500 . S
C82 C83 1.377 . S
C82 C87 1.377 . S
C83 C82 1.377 . S
C83 C84 1.395 . S
C83 H112 0.931 . S
C84 C83 1.395 . S
C84 C85 1.383 . S
C84 H113 0.931 . S
C85 C84 1.383 . S
C85 C86 1.394 . S
C86 C85 1.394 . S
C86 C87 1.378 . S
C86 H114 0.931 . S
C87 C82 1.377 . S
C87 C86 1.378 . S
C87 H115 0.931 . S
C88 O102 1.259 . S
C88 O103 1.270 . S
C89 O104 1.251 . S
C89 O105 1.251 . S
C90 Eu91 2.835 . S
C90 C92 1.500 . S
C90 O106 1.257 . S
C90 O107 1.260 . S
Eu91 C90 2.835 . S
Eu91 O103 2.355 . S
Eu91 O105 2.374 . S
Eu91 O106 2.473 . S
Eu91 O107 2.480 . S
Eu91 O108 2.430 . S
Eu91 O109 2.670 . S
Eu91 O110 2.394 . S
C92 C90 1.500 . S
C92 C93 1.377 . S
C92 C97 1.377 . S
C93 C92 1.377 . S
C93 C94 1.395 . S
C93 H116 0.931 . S
C94 C93 1.395 . S
C94 C95 1.383 . S
C94 H117 0.931 . S
C95 C94 1.383 . S
C95 C96 1.394 . S
C96 C95 1.394 . S
C96 C97 1.378 . S
C96 H118 0.931 . S
C97 C92 1.377 . S
C97 C96 1.378 . S
C97 H119 0.931 . S
C98 O108 1.259 . S
C98 O109 1.270 . S
C99 O110 1.251 . S
C99 O111 1.251 . S
O100 C80 1.257 . S
O100 Eu81 2.473 . S
O101 C80 1.260 . S
O101 Eu81 2.480 . S
O102 Eu81 2.430 . S
O102 C88 1.259 . S
O103 Eu81 2.670 . S
O103 C88 1.270 . S
O103 Eu91 2.355 . S
O104 Eu81 2.394 . S
O104 C89 1.251 . S
O105 C89 1.251 . S
O105 Eu91 2.374 . S
O106 C90 1.257 . S
O106 Eu91 2.473 . S
O107 C90 1.260 . S
O107 Eu91 2.480 . S
O108 Eu91 2.430 . S
O108 C98 1.259 . S
O109 Eu81 2.355 . S
O109 Eu91 2.670 . S
O109 C98 1.270 . S
O110 Eu91 2.394 . S
O110 C99 1.251 . S
O111 Eu81 2.374 . S
O111 C99 1.251 . S
H112 C83 0.931 . S
H113 C84 0.931 . S
H114 C86 0.931 . S
H115 C87 0.931 . S
H116 C93 0.931 . S
H117 C94 0.931 . S
H118 C96 0.931 . S
H119 C97 0.931 . S
C120 C121 1.391 . S
C120 C124 1.391 . S
C120 H162 0.948 . S
C121 C120 1.391 . S
C121 C122 1.391 . S
C122 C121 1.391 . S
C122 H178 0.947 . S
C122 C179 1.392 . S
C123 C124 1.391 . S
C123 C127 1.397 . S
C123 C179 1.419 . S
C124 C120 1.391 . S
C124 C123 1.391 . S
C124 C125 1.399 . S
C125 C124 1.399 . S
C125 C128 1.396 . S
C125 C137 1.453 . S
C125 C138 1.684 . S
H126 C150 0.948 . S
C127 C123 1.397 . S
C127 C128 1.394 . S
C127 C146 1.723 . S
C128 C125 1.396 . S
C128 C127 1.394 . S
C128 C158 1.723 . S
H129 C152 0.947 . S
H130 C153 0.948 1_545 S
H131 C159 0.982 . S
H132 C160 0.979 . S
H133 C160 0.980 . S
H134 C160 0.983 . S
H135 C159 0.979 . S
H136 C159 0.977 . S
C137 C125 1.453 . S
C137 H166 0.982 . S
C137 H167 0.979 . S
C137 H168 0.977 . S
C138 C125 1.684 . S
C138 H163 0.979 . S
C138 H164 0.980 . S
C138 H165 0.983 . S
C139 C140 1.391 . S
C139 C144 1.391 . S
C139 H169 0.948 . S
C140 C139 1.391 . S
C140 C141 1.391 . S
C141 C140 1.391 . S
C141 C142 1.392 . S
C141 H170 0.947 1_545 S
C142 C141 1.392 . S
C142 C143 1.419 . S
C142 H171 0.948 1_545 S
C143 C142 1.419 . S
C143 C144 1.391 . S
C143 C147 1.397 . S
C144 C139 1.391 . S
C144 C143 1.391 . S
C144 C145 1.399 . S
C145 C144 1.399 . S
C145 C146 1.396 . S
C145 C148 1.453 . S
C145 C149 1.684 . S
C146 C127 1.723 . S
C146 C145 1.396 . S
C146 C147 1.394 . S
C147 C143 1.397 . S
C147 C146 1.394 . S
C147 C157 1.723 . S
C148 C145 1.453 . S
C148 H172 0.982 . S
C148 H173 0.979 . S
C148 H174 0.977 . S
C149 C145 1.684 . S
C149 H175 0.979 . S
C149 H176 0.980 . S
C149 H177 0.983 . S
C150 H126 0.948 . S
C150 C151 1.391 . S
C150 C155 1.391 . S
C151 C150 1.391 . S
C151 C152 1.391 . S
C152 H129 0.947 . S
C152 C151 1.391 . S
C152 C153 1.392 . S
C153 H130 0.948 1_565 S
C153 C152 1.392 . S
C153 C154 1.419 . S
C154 C153 1.419 . S
C154 C155 1.391 . S
C154 C158 1.397 1_565 S
C155 C150 1.391 . S
C155 C154 1.391 . S
C155 C156 1.399 . S
C156 C155 1.399 . S
C156 C157 1.396 1_565 S
C156 C159 1.453 . S
C156 C160 1.684 . S
C157 C147 1.723 . S
C157 C156 1.396 1_545 S
C157 C158 1.394 . S
C158 C128 1.723 . S
C158 C154 1.397 1_545 S
C158 C157 1.394 . S
C159 H131 0.982 . S
C159 H135 0.979 . S
C159 H136 0.977 . S
C159 C156 1.453 . S
C160 H132 0.979 . S
C160 H133 0.980 . S
C160 H134 0.983 . S
C160 C156 1.684 . S
H161 C179 0.948 . S
H162 C120 0.948 . S
H163 C138 0.979 . S
H164 C138 0.980 . S
H165 C138 0.983 . S
H166 C137 0.982 . S
H167 C137 0.979 . S
H168 C137 0.977 . S
H169 C139 0.948 . S
H170 C141 0.947 1_565 S
H171 C142 0.948 1_565 S
H172 C148 0.982 . S
H173 C148 0.979 . S
H174 C148 0.977 . S
H175 C149 0.979 . S
H176 C149 0.980 . S
H177 C149 0.983 . S
H178 C122 0.947 . S
C179 C122 1.392 . S
C179 C123 1.419 . S
C179 H161 0.948 . S
C180 C181 1.391 . S
C180 C184 1.391 . S
C180 H222 0.948 . S
C181 C180 1.391 . S
C181 C182 1.391 . S
C182 C181 1.391 . S
C182 H238 0.947 . S
C182 C239 1.392 . S
C183 C184 1.391 . S
C183 C187 1.397 . S
C183 C239 1.419 . S
C184 C180 1.391 . S
C184 C183 1.391 . S
C184 C185 1.399 . S
C185 C184 1.399 . S
C185 C188 1.396 . S
C185 C197 1.453 . S
C185 C198 1.684 . S
H186 C210 0.948 . S
C187 C183 1.397 . S
C187 C188 1.394 . S
C187 C206 1.723 . S
C188 C185 1.396 . S
C188 C187 1.394 . S
C188 C218 1.723 . S
H189 C212 0.947 . S
H190 C213 0.948 . S
H191 C219 0.982 . S
H192 C220 0.979 . S
H193 C220 0.980 . S
H194 C220 0.983 . S
H195 C219 0.979 . S
H196 C219 0.977 . S
C197 C185 1.453 . S
C197 H226 0.982 . S
C197 H227 0.979 . S
C197 H228 0.977 . S
C198 C185 1.684 . S
C198 H223 0.979 . S
C198 H224 0.980 . S
C198 H225 0.983 . S
C199 C200 1.391 . S
C199 C204 1.391 . S
C199 H229 0.948 . S
C200 C199 1.391 . S
C200 C201 1.391 . S
C201 C200 1.391 . S
C201 C202 1.392 . S
C201 H230 0.947 . S
C202 C201 1.392 . S
C202 C203 1.419 . S
C202 H231 0.948 . S
C203 C202 1.419 . S
C203 C204 1.391 . S
C203 C207 1.397 . S
C204 C199 1.391 . S
C204 C203 1.391 . S
C204 C205 1.399 . S
C205 C204 1.399 . S
C205 C206 1.396 . S
C205 C208 1.453 . S
C205 C209 1.684 . S
C206 C187 1.723 . S
C206 C205 1.396 . S
C206 C207 1.394 . S
C207 C203 1.397 . S
C207 C206 1.394 . S
C207 C217 1.723 . S
C208 C205 1.453 . S
C208 H232 0.982 . S
C208 H233 0.979 . S
C208 H234 0.977 . S
C209 C205 1.684 . S
C209 H235 0.979 . S
C209 H236 0.980 . S
C209 H237 0.983 . S
C210 H186 0.948 . S
C210 C211 1.391 . S
C210 C215 1.391 . S
C211 C210 1.391 . S
C211 C212 1.391 . S
C212 H189 0.947 . S
C212 C211 1.391 . S
C212 C213 1.392 . S
C213 H190 0.948 . S
C213 C212 1.392 . S
C213 C214 1.419 . S
C214 C213 1.419 . S
C214 C215 1.391 . S
C214 C218 1.397 . S
C215 C210 1.391 . S
C215 C214 1.391 . S
C215 C216 1.399 . S
C216 C215 1.399 . S
C216 C217 1.396 . S
C216 C219 1.453 . S
C216 C220 1.684 . S
C217 C207 1.723 . S
C217 C216 1.396 . S
C217 C218 1.394 . S
C218 C188 1.723 . S
C218 C214 1.397 . S
C218 C217 1.394 . S
C219 H191 0.982 . S
C219 H195 0.979 . S
C219 H196 0.977 . S
C219 C216 1.453 . S
C220 H192 0.979 . S
C220 H193 0.980 . S
C220 H194 0.983 . S
C220 C216 1.684 . S
H221 C239 0.948 . S
H222 C180 0.948 . S
H223 C198 0.979 . S
H224 C198 0.980 . S
H225 C198 0.983 . S
H226 C197 0.982 . S
H227 C197 0.979 . S
H228 C197 0.977 . S
H229 C199 0.948 . S
H230 C201 0.947 . S
H231 C202 0.948 . S
H232 C208 0.982 . S
H233 C208 0.979 . S
H234 C208 0.977 . S
H235 C209 0.979 . S
H236 C209 0.980 . S
H237 C209 0.983 . S
H238 C182 0.947 . S
C239 C182 1.392 . S
C239 C183 1.419 . S
C239 H221 0.948 . S
C240 C241 1.391 . S
C240 C244 1.391 . S
C240 H282 0.948 . S
C241 C240 1.391 . S
C241 C242 1.391 . S
C242 C241 1.391 . S
C242 H298 0.947 . S
C242 C299 1.392 . S
C243 C244 1.391 . S
C243 C247 1.397 . S
C243 C299 1.419 . S
C244 C240 1.391 . S
C244 C243 1.391 . S
C244 C245 1.399 . S
C245 C244 1.399 . S
C245 C248 1.396 . S
C245 C257 1.453 . S
C245 C258 1.684 . S
H246 C270 0.948 . S
C247 C243 1.397 . S
C247 C248 1.394 . S
C247 C266 1.723 . S
C248 C245 1.396 . S
C248 C247 1.394 . S
C248 C278 1.723 1_455 S
H249 C272 0.947 . S
H250 C273 0.948 . S
H251 C279 0.982 . S
H252 C280 0.979 . S
H253 C280 0.980 . S
H254 C280 0.983 . S
H255 C279 0.979 . S
H256 C279 0.977 . S
C257 C245 1.453 . S
C257 H286 0.984 1_455 S
C257 H287 0.979 . S
C257 H288 0.977 1_455 S
C258 C245 1.684 . S
C258 H283 0.979 . S
C258 H284 0.980 . S
C258 H285 0.983 . S
C259 C260 1.391 . S
C259 C264 1.391 1_554 S
C259 H289 0.948 . S
C260 C259 1.391 . S
C260 C261 1.391 1_455 S
C261 C260 1.391 1_655 S
C261 C262 1.392 1_554 S
C261 H290 0.947 . S
C262 C261 1.392 1_556 S
C262 C263 1.419 . S
C262 H291 0.948 . S
C263 C262 1.419 . S
C263 C264 1.391 1_655 S
C263 C267 1.397 . S
C264 C259 1.391 1_556 S
C264 C263 1.391 1_455 S
C264 C265 1.399 . S
C265 C264 1.399 . S
C265 C266 1.396 . S
C265 C268 1.453 . S
C265 C269 1.684 . S
C266 C247 1.723 . S
C266 C265 1.396 . S
C266 C267 1.394 1_455 S
C267 C263 1.397 . S
C267 C266 1.394 1_655 S
C267 C277 1.723 . S
C268 C265 1.453 . S
C268 H292 0.982 . S
C268 H293 0.979 . S
C268 H294 0.977 . S
C269 C265 1.684 . S
C269 H295 0.979 . S
C269 H296 0.980 . S
C269 H297 0.983 . S
C270 H246 0.948 . S
C270 C271 1.391 . S
C270 C275 1.391 . S
C271 C270 1.391 . S
C271 C272 1.391 . S
C272 H249 0.947 . S
C272 C271 1.391 . S
C272 C273 1.392 . S
C273 H250 0.948 . S
C273 C272 1.392 . S
C273 C274 1.419 . S
C274 C273 1.419 . S
C274 C275 1.391 . S
C274 C278 1.397 . S
C275 C270 1.391 . S
C275 C274 1.391 . S
C275 C276 1.399 . S
C276 C275 1.399 . S
C276 C277 1.396 . S
C276 C279 1.453 . S
C276 C280 1.684 . S
C277 C267 1.723 . S
C277 C276 1.396 . S
C277 C278 1.394 . S
C278 C248 1.723 1_655 S
C278 C274 1.397 . S
C278 C277 1.394 . S
C279 H251 0.982 . S
C279 H255 0.979 . S
C279 H256 0.977 . S
C279 C276 1.453 . S
C280 H252 0.979 . S
C280 H253 0.980 . S
C280 H254 0.983 . S
C280 C276 1.684 . S
H281 C299 0.948 . S
H282 C240 0.948 . S
H283 C258 0.979 . S
H284 C258 0.980 . S
H285 C258 0.983 . S
H286 C257 0.984 1_655 S
H287 C257 0.979 . S
H288 C257 0.977 1_655 S
H289 C259 0.948 . S
H290 C261 0.947 . S
H291 C262 0.948 . S
H292 C268 0.982 . S
H293 C268 0.979 . S
H294 C268 0.977 . S
H295 C269 0.979 . S
H296 C269 0.980 . S
H297 C269 0.983 . S
H298 C242 0.947 . S
C299 C242 1.392 . S
C299 C243 1.419 . S
C299 H281 0.948 . S
C300 C301 1.391 . S
C300 C304 1.391 . S
C300 H342 0.948 . S
C301 C300 1.391 . S
C301 C302 1.391 . S
C302 C301 1.391 . S
C302 H358 0.947 . S
C302 C359 1.392 . S
C303 C304 1.391 . S
C303 C307 1.397 1_655 S
C303 C359 1.419 . S
C304 C300 1.391 . S
C304 C303 1.391 . S
C304 C305 1.399 1_655 S
C305 C304 1.399 1_455 S
C305 C308 1.396 . S
C305 C317 1.453 . S
C305 C318 1.684 . S
H306 C330 0.948 . S
C307 C303 1.397 1_455 S
C307 C308 1.394 . S
C307 C326 1.723 . S
C308 C305 1.396 . S
C308 C307 1.394 . S
C308 C338 1.723 . S
H309 C332 0.947 . S
H310 C333 0.948 . S
H311 C339 0.982 . S
H312 C340 0.979 . S
H313 C340 0.980 . S
H314 C340 0.983 . S
H315 C339 0.979 . S
H316 C339 0.977 . S
C317 C305 1.453 . S
C317 H346 0.982 . S
C317 H347 0.979 . S
C317 H348 0.977 . S
C318 C305 1.684 . S
C318 H343 0.979 1_455 S
C318 H344 0.980 . S
C318 H345 0.983 . S
C319 C320 1.391 . S
C319 C324 1.391 . S
C319 H349 0.948 1_455 S
C320 C319 1.391 . S
C320 C321 1.391 . S
C321 C320 1.391 . S
C321 C322 1.392 . S
C321 H350 0.947 . S
C322 C321 1.392 . S
C322 C323 1.419 . S
C322 H351 0.948 . S
C323 C322 1.419 . S
C323 C324 1.391 . S
C323 C327 1.397 . S
C324 C319 1.391 . S
C324 C323 1.391 . S
C324 C325 1.399 1_455 S
C325 C324 1.399 1_655 S
C325 C326 1.396 1_655 S
C325 C328 1.453 . S
C325 C329 1.684 . S
C326 C307 1.723 . S
C326 C325 1.396 1_455 S
C326 C327 1.394 . S
C327 C323 1.397 . S
C327 C326 1.394 . S
C327 C337 1.723 . S
C328 C325 1.453 . S
C328 H352 0.982 1_655 S
C328 H353 0.979 . S
C328 H354 0.977 . S
C329 C325 1.684 . S
C329 H355 0.979 . S
C329 H356 0.980 . S
C329 H357 0.983 . S
C330 H306 0.948 . S
C330 C331 1.391 . S
C330 C335 1.391 . S
C331 C330 1.391 . S
C331 C332 1.391 . S
C332 H309 0.947 . S
C332 C331 1.391 . S
C332 C333 1.392 . S
C333 H310 0.948 . S
C333 C332 1.392 . S
C333 C334 1.419 . S
C334 C333 1.419 . S
C334 C335 1.391 . S
C334 C338 1.397 . S
C335 C330 1.391 . S
C335 C334 1.391 . S
C335 C336 1.399 . S
C336 C335 1.399 . S
C336 C337 1.396 . S
C336 C339 1.453 . S
C336 C340 1.684 . S
C337 C327 1.723 . S
C337 C336 1.396 . S
C337 C338 1.394 . S
C338 C308 1.723 . S
C338 C334 1.397 . S
C338 C337 1.394 . S
C339 H311 0.982 . S
C339 H315 0.979 . S
C339 H316 0.977 . S
C339 C336 1.453 . S
C340 H312 0.979 . S
C340 H313 0.980 . S
C340 H314 0.983 . S
C340 C336 1.684 . S
H341 C359 0.948 . S
H342 C300 0.948 . S
H343 C318 0.979 1_655 S
H344 C318 0.980 . S
H345 C318 0.983 . S
H346 C317 0.982 . S
H347 C317 0.979 . S
H348 C317 0.977 . S
H349 C319 0.948 1_655 S
H350 C321 0.947 . S
H351 C322 0.948 . S
H352 C328 0.982 1_455 S
H353 C328 0.979 . S
H354 C328 0.977 . S
H355 C329 0.979 . S
H356 C329 0.980 . S
H357 C329 0.983 . S
H358 C302 0.947 . S
C359 C302 1.392 . S
C359 C303 1.419 . S
C359 H341 0.948 . S
C360 C361 1.391 . S
C360 C364 1.391 . S
C360 H402 0.948 . S
C361 C360 1.391 . S
C361 C362 1.391 . S
C362 C361 1.391 . S
C362 H418 0.947 . S
C362 C419 1.392 . S
C363 C364 1.391 . S
C363 C367 1.397 . S
C363 C419 1.419 . S
C364 C360 1.391 . S
C364 C363 1.391 . S
C364 C365 1.399 . S
C365 C364 1.399 . S
C365 C368 1.396 . S
C365 C377 1.453 . S
C365 C378 1.684 . S
H366 C390 0.948 . S
C367 C363 1.397 . S
C367 C368 1.394 . S
C367 C386 1.723 . S
C368 C365 1.396 . S
C368 C367 1.394 . S
C368 C398 1.723 1_565 S
H369 C392 0.947 . S
H370 C393 0.948 . S
H371 C399 0.982 . S
H372 C400 0.979 . S
H373 C400 0.980 . S
H374 C400 0.983 . S
H375 C399 0.979 . S
H376 C399 0.977 . S
C377 C365 1.453 . S
C377 H406 0.982 1_565 S
C377 H407 0.979 . S
C377 H408 0.977 1_565 S
C378 C365 1.684 . S
C378 H403 0.979 . S
C378 H404 0.980 . S
C378 H405 0.983 . S
C379 C380 1.391 1_565 S
C379 C384 1.391 . S
C379 H409 0.948 . S
C380 C379 1.391 1_545 S
C380 C381 1.391 . S
C381 C380 1.391 . S
C381 C382 1.392 . S
C381 H410 0.947 . S
C382 C381 1.392 . S
C382 C383 1.419 . S
C382 H411 0.948 . S
C383 C382 1.419 . S
C383 C384 1.391 1_545 S
C383 C387 1.397 . S
C384 C379 1.391 . S
C384 C383 1.391 1_565 S
C384 C385 1.399 . S
C385 C384 1.399 . S
C385 C386 1.396 . S
C385 C388 1.453 . S
C385 C389 1.684 . S
C386 C367 1.723 . S
C386 C385 1.396 . S
C386 C387 1.394 1_565 S
C387 C383 1.397 . S
C387 C386 1.394 1_545 S
C387 C397 1.723 . S
C388 C385 1.453 . S
C388 H412 0.982 . S
C388 H413 0.979 . S
C388 H414 0.977 . S
C389 C385 1.684 . S
C389 H415 0.979 . S
C389 H416 0.980 . S
C389 H417 0.983 . S
C390 H366 0.948 . S
C390 C391 1.391 . S
C390 C395 1.391 . S
C391 C390 1.391 . S
C391 C392 1.391 . S
C392 H369 0.947 . S
C392 C391 1.391 . S
C392 C393 1.392 . S
C393 H370 0.948 . S
C393 C392 1.392 . S
C393 C394 1.419 . S
C394 C393 1.419 . S
C394 C395 1.391 . S
C394 C398 1.397 . S
C395 C390 1.391 . S
C395 C394 1.391 . S
C395 C396 1.399 . S
C396 C395 1.399 . S
C396 C397 1.396 . S
C396 C399 1.453 . S
C396 C400 1.684 . S
C397 C387 1.723 . S
C397 C396 1.396 . S
C397 C398 1.394 . S
C398 C368 1.723 1_545 S
C398 C394 1.397 . S
C398 C397 1.394 . S
C399 H371 0.982 . S
C399 H375 0.979 . S
C399 H376 0.977 . S
C399 C396 1.453 . S
C400 H372 0.979 . S
C400 H373 0.980 . S
C400 H374 0.983 . S
C400 C396 1.684 . S
H401 C419 0.948 . S
H402 C360 0.948 . S
H403 C378 0.979 . S
H404 C378 0.980 . S
H405 C378 0.983 . S
H406 C377 0.982 1_545 S
H407 C377 0.979 . S
H408 C377 0.977 1_545 S
H409 C379 0.948 . S
H410 C381 0.947 . S
H411 C382 0.948 . S
H412 C388 0.982 . S
H413 C388 0.979 . S
H414 C388 0.977 . S
H415 C389 0.979 . S
H416 C389 0.980 . S
H417 C389 0.983 . S
H418 C362 0.947 . S
C419 C362 1.392 . S
C419 C363 1.419 . S
C419 H401 0.948 . S
C420 C421 1.391 . S
C420 C424 1.391 . S
C420 H462 0.948 . S
C421 C420 1.391 . S
C421 C422 1.391 . S
C422 C421 1.391 . S
C422 H478 0.947 . S
C422 C479 1.392 . S
C423 C424 1.391 . S
C423 C427 1.397 . S
C423 C479 1.419 . S
C424 C420 1.391 . S
C424 C423 1.391 . S
C424 C425 1.399 . S
C425 C424 1.399 . S
C425 C428 1.396 . S
C425 C437 1.453 . S
C425 C438 1.684 . S
H426 C450 0.948 . S
C427 C423 1.397 . S
C427 C428 1.394 . S
C427 C446 1.723 . S
C428 C425 1.396 . S
C428 C427 1.394 . S
C428 C458 1.723 . S
H429 C452 0.947 . S
H430 C453 0.948 . S
H431 C459 0.982 . S
H432 C460 0.979 . S
H433 C460 0.980 . S
H434 C460 0.983 . S
H435 C459 0.979 . S
H436 C459 0.977 . S
C437 C425 1.453 . S
C437 H466 0.982 . S
C437 H467 0.979 . S
C437 H468 0.977 . S
C438 C425 1.684 . S
C438 H463 0.979 . S
C438 H464 0.980 . S
C438 H465 0.983 . S
C439 C440 1.389 1_554 S
C439 C444 1.391 . S
C439 H469 0.948 . S
C440 C439 1.389 1_556 S
C440 C441 1.390 1_556 S
C441 C440 1.390 1_554 S
C441 C442 1.392 . S
C441 H470 0.958 . S
C442 C441 1.392 . S
C442 C443 1.419 . S
C442 H471 0.948 . S
C443 C442 1.419 . S
C443 C444 1.391 . S
C443 C447 1.397 . S
C444 C439 1.391 . S
C444 C443 1.391 . S
C444 C445 1.399 . S
C445 C444 1.399 . S
C445 C446 1.396 . S
C445 C448 1.453 . S
C445 C449 1.684 . S
C446 C427 1.723 . S
C446 C445 1.396 . S
C446 C447 1.394 . S
C447 C443 1.397 . S
C447 C446 1.394 . S
C447 C457 1.723 . S
C448 C445 1.453 . S
C448 H472 0.982 . S
C448 H473 0.979 . S
C448 H474 0.977 . S
C449 C445 1.684 . S
C449 H475 0.979 . S
C449 H476 0.980 . S
C449 H477 0.983 . S
C450 H426 0.948 . S
C450 C451 1.391 . S
C450 C455 1.391 . S
C451 C450 1.391 . S
C451 C452 1.391 . S
C452 H429 0.947 . S
C452 C451 1.391 . S
C452 C453 1.392 . S
C453 H430 0.948 . S
C453 C452 1.392 . S
C453 C454 1.419 . S
C454 C453 1.419 . S
C454 C455 1.391 . S
C454 C458 1.397 . S
C455 C450 1.391 . S
C455 C454 1.391 . S
C455 C456 1.399 . S
C456 C455 1.399 . S
C456 C457 1.396 . S
C456 C459 1.453 . S
C456 C460 1.684 . S
C457 C447 1.723 . S
C457 C456 1.396 . S
C457 C458 1.394 . S
C458 C428 1.723 . S
C458 C454 1.397 . S
C458 C457 1.394 . S
C459 H431 0.982 . S
C459 H435 0.979 . S
C459 H436 0.977 . S
C459 C456 1.453 . S
C460 H432 0.979 . S
C460 H433 0.980 . S
C460 H434 0.983 . S
C460 C456 1.684 . S
H461 C479 0.948 . S
H462 C420 0.948 . S
H463 C438 0.979 . S
H464 C438 0.980 . S
H465 C438 0.983 . S
H466 C437 0.982 . S
H467 C437 0.979 . S
H468 C437 0.977 . S
H469 C439 0.948 . S
H470 C441 0.958 . S
H471 C442 0.948 . S
H472 C448 0.982 . S
H473 C448 0.979 . S
H474 C448 0.977 . S
H475 C449 0.979 . S
H476 C449 0.980 . S
H477 C449 0.983 . S
H478 C422 0.947 . S
C479 C422 1.392 . S
C479 C423 1.419 . S
C479 H461 0.948 . S
C480 C481 1.369 . S
C480 C482 1.419 . S
C480 H484 0.930 . S
C481 C480 1.369 . S
C481 C490 1.429 . S
C482 C480 1.419 . S
C482 C483 1.363 . S
C482 H485 0.929 . S
C483 C482 1.363 . S
C483 C489 1.428 . S
H484 C480 0.930 . S
H485 C482 0.929 . S
S486 N487 1.613 . S
S486 N488 1.610 . S
N487 S486 1.613 . S
N487 C490 1.350 . S
N488 S486 1.610 . S
N488 C489 1.351 . S
C489 C483 1.428 . S
C489 N488 1.351 . S
C489 C490 1.434 . S
C490 C481 1.429 . S
C490 N487 1.350 . S
C490 C489 1.434 . S
C491 C492 1.369 . S
C491 C493 1.419 . S
C491 H495 0.930 . S
C492 C491 1.369 . S
C492 C501 1.429 . S
C493 C491 1.419 . S
C493 C494 1.363 . S
C493 H496 0.929 . S
C494 C493 1.363 . S
C494 C500 1.428 . S
H495 C491 0.930 . S
H496 C493 0.929 . S
S497 N498 1.613 . S
S497 N499 1.610 . S
N498 S497 1.613 . S
N498 C501 1.350 . S
N499 S497 1.610 . S
N499 C500 1.351 . S
C500 C494 1.428 . S
C500 N499 1.351 . S
C500 C501 1.434 . S
C501 C492 1.429 . S
C501 N498 1.350 . S
C501 C500 1.434 . S
C502 C503 1.369 . S
C502 C504 1.419 . S
C502 H506 0.930 . S
C503 C502 1.369 . S
C503 C512 1.429 . S
C504 C502 1.419 . S
C504 C505 1.363 . S
C504 H507 0.929 . S
C505 C504 1.363 . S
C505 C511 1.428 . S
H506 C502 0.930 . S
H507 C504 0.929 . S
S508 N509 1.613 . S
S508 N510 1.610 . S
N509 S508 1.613 . S
N509 C512 1.350 . S
N510 S508 1.610 . S
N510 C511 1.351 . S
C511 C505 1.428 . S
C511 N510 1.351 . S
C511 C512 1.434 . S
C512 C503 1.429 . S
C512 N509 1.350 . S
C512 C511 1.434 . S
C513 C514 1.369 . S
C513 C515 1.419 . S
C513 H517 0.930 . S
C514 C513 1.369 . S
C514 C523 1.429 . S
C515 C513 1.419 . S
C515 C516 1.363 . S
C515 H518 0.929 . S
C516 C515 1.363 . S
C516 C522 1.428 . S
H517 C513 0.930 . S
H518 C515 0.929 . S
S519 N520 1.613 . S
S519 N521 1.610 . S
N520 S519 1.613 . S
N520 C523 1.350 . S
N521 S519 1.610 . S
N521 C522 1.351 . S
C522 C516 1.428 . S
C522 N521 1.351 . S
C522 C523 1.434 . S
C523 C514 1.429 . S
C523 N520 1.350 . S
C523 C522 1.434 . S
C524 C525 1.369 . S
C524 C526 1.419 . S
C524 H528 0.930 . S
C525 C524 1.369 . S
C525 C534 1.429 . S
C526 C524 1.419 . S
C526 C527 1.363 . S
C526 H529 0.929 . S
C527 C526 1.363 . S
C527 C533 1.428 . S
H528 C524 0.930 . S
H529 C526 0.929 . S
S530 N531 1.613 . S
S530 N532 1.610 . S
N531 S530 1.613 . S
N531 C534 1.350 . S
N532 S530 1.610 . S
N532 C533 1.351 . S
C533 C527 1.428 . S
C533 N532 1.351 . S
C533 C534 1.434 . S
C534 C525 1.429 . S
C534 N531 1.350 . S
C534 C533 1.434 . S
C535 C536 1.369 . S
C535 C537 1.419 . S
C535 H539 0.930 . S
C536 C535 1.369 . S
C536 C545 1.429 . S
C537 C535 1.419 . S
C537 C538 1.363 . S
C537 H540 0.929 . S
C538 C537 1.363 . S
C538 C544 1.428 . S
H539 C535 0.930 . S
H540 C537 0.929 . S
S541 N542 1.613 . S
S541 N543 1.610 . S
N542 S541 1.613 . S
N542 C545 1.350 . S
N543 S541 1.610 . S
N543 C544 1.351 . S
C544 C538 1.428 . S
C544 N543 1.351 . S
C544 C545 1.434 . S
C545 C536 1.429 . S
C545 N542 1.350 . S
C545 C544 1.434 . S
C546 C547 1.369 . S
C546 C548 1.419 . S
C546 H550 0.930 . S
C547 C546 1.369 . S
C547 C556 1.429 . S
C548 C546 1.419 . S
C548 C549 1.363 . S
C548 H551 0.929 . S
C549 C548 1.363 . S
C549 C555 1.428 . S
H550 C546 0.930 . S
H551 C548 0.929 . S
S552 N553 1.613 . S
S552 N554 1.610 . S
N553 S552 1.613 . S
N553 C556 1.350 . S
N554 S552 1.610 . S
N554 C555 1.351 . S
C555 C549 1.428 . S
C555 N554 1.351 . S
C555 C556 1.434 . S
C556 C547 1.429 . S
C556 N553 1.350 . S
C556 C555 1.434 . S
C557 C558 1.369 . S
C557 C559 1.419 . S
C557 H561 0.930 . S
C558 C557 1.369 . S
C558 C567 1.429 . S
C559 C557 1.419 . S
C559 C560 1.363 . S
C559 H562 0.929 . S
C560 C559 1.363 . S
C560 C566 1.428 . S
H561 C557 0.930 . S
H562 C559 0.929 . S
S563 N564 1.613 . S
S563 N565 1.610 . S
N564 S563 1.613 . S
N564 C567 1.350 . S
N565 S563 1.610 . S
N565 C566 1.351 . S
C566 C560 1.428 . S
C566 N565 1.351 . S
C566 C567 1.434 . S
C567 C558 1.429 . S
C567 N564 1.350 . S
C567 C566 1.434 . S
C568 C569 1.369 . S
C568 C570 1.419 . S
C568 H572 0.930 . S
C569 C568 1.369 . S
C569 C578 1.429 . S
C570 C568 1.419 . S
C570 C571 1.363 . S
C570 H573 0.929 . S
C571 C570 1.363 . S
C571 C577 1.428 . S
H572 C568 0.930 . S
H573 C570 0.929 . S
S574 N575 1.613 . S
S574 N576 1.610 . S
N575 S574 1.613 . S
N575 C578 1.350 . S
N576 S574 1.610 . S
N576 C577 1.351 . S
C577 C571 1.428 . S
C577 N576 1.351 . S
C577 C578 1.434 . S
C578 C569 1.429 . S
C578 N575 1.350 . S
C578 C577 1.434 . S
C579 C580 1.369 . S
C579 C581 1.419 . S
C579 H583 0.930 . S
C580 C579 1.369 . S
C580 C589 1.429 . S
C581 C579 1.419 . S
C581 C582 1.363 . S
C581 H584 0.929 . S
C582 C581 1.363 . S
C582 C588 1.428 . S
H583 C579 0.930 . S
H584 C581 0.929 . S
S585 N586 1.613 . S
S585 N587 1.610 . S
N586 S585 1.613 . S
N586 C589 1.350 . S
N587 S585 1.610 . S
N587 C588 1.351 . S
C588 C582 1.428 . S
C588 N587 1.351 . S
C588 C589 1.434 . S
C589 C580 1.429 . S
C589 N586 1.350 . S
C589 C588 1.434 . S
C590 C591 1.369 . S
C590 C592 1.419 . S
C590 H594 0.930 . S
C591 C590 1.369 . S
C591 C600 1.429 . S
C592 C590 1.419 . S
C592 C593 1.363 . S
C592 H595 0.929 . S
C593 C592 1.363 . S
C593 C599 1.428 . S
H594 C590 0.930 . S
H595 C592 0.929 . S
S596 N597 1.613 . S
S596 N598 1.610 . S
N597 S596 1.613 . S
N597 C600 1.350 . S
N598 S596 1.610 . S
N598 C599 1.351 . S
C599 C593 1.428 . S
C599 N598 1.351 . S
C599 C600 1.434 . S
C600 C591 1.429 . S
C600 N597 1.350 . S
C600 C599 1.434 . S
C601 C602 1.369 . S
C601 C603 1.419 . S
C601 H605 0.930 . S
C602 C601 1.369 . S
C602 C611 1.429 . S
C603 C601 1.419 . S
C603 C604 1.363 . S
C603 H606 0.929 . S
C604 C603 1.363 . S
C604 C610 1.428 . S
H605 C601 0.930 . S
H606 C603 0.929 . S
S607 N608 1.613 . S
S607 N609 1.610 . S
N608 S607 1.613 . S
N608 C611 1.350 . S
N609 S607 1.610 . S
N609 C610 1.351 . S
C610 C604 1.428 . S
C610 N609 1.351 . S
C610 C611 1.434 . S
C611 C602 1.429 . S
C611 N608 1.350 . S
C611 C610 1.434 . S
C612 C613 1.369 . S
C612 C614 1.419 . S
C612 H616 0.930 . S
C613 C612 1.369 . S
C613 C622 1.429 1_455 S
C614 C612 1.419 . S
C614 C615 1.363 . S
C614 H617 0.929 . S
C615 C614 1.363 . S
C615 C621 1.428 1_455 S
H616 C612 0.930 . S
H617 C614 0.929 . S
S618 N619 1.613 . S
S618 N620 1.610 . S
N619 S618 1.613 . S
N619 C622 1.350 . S
N620 S618 1.610 . S
N620 C621 1.351 . S
C621 C615 1.428 1_655 S
C621 N620 1.351 . S
C621 C622 1.434 . S
C622 C613 1.429 1_655 S
C622 N619 1.350 . S
C622 C621 1.434 . S
C623 C624 1.369 . S
C623 C625 1.419 . S
C623 H627 0.930 1_545 S
C624 C623 1.369 . S
C624 C633 1.429 . S
C625 C623 1.419 . S
C625 C626 1.363 . S
C625 H628 0.929 1_545 S
C626 C625 1.363 . S
C626 C632 1.428 . S
H627 C623 0.930 1_565 S
H628 C625 0.929 1_565 S
S629 N630 1.613 . S
S629 N631 1.610 . S
N630 S629 1.613 . S
N630 C633 1.350 . S
N631 S629 1.610 . S
N631 C632 1.351 . S
C632 C626 1.428 . S
C632 N631 1.351 . S
C632 C633 1.434 . S
C633 C624 1.429 . S
C633 N630 1.350 . S
C633 C632 1.434 . S
C634 C635 1.369 . S
C634 C636 1.419 . S
C634 H638 0.930 . S
C635 C634 1.369 . S
C635 C644 1.429 . S
C636 C634 1.419 . S
C636 C637 1.363 . S
C636 H639 0.929 . S
C637 C636 1.363 . S
C637 C643 1.428 . S
H638 C634 0.930 . S
H639 C636 0.929 . S
S640 N641 1.613 . S
S640 N642 1.610 . S
N641 S640 1.613 . S
N641 C644 1.350 . S
N642 S640 1.610 . S
N642 C643 1.351 . S
C643 C637 1.428 . S
C643 N642 1.351 . S
C643 C644 1.434 . S
C644 C635 1.429 . S
C644 N641 1.350 . S
C644 C643 1.434 . S
C645 C646 1.369 . S
C645 C647 1.419 . S
C645 H649 0.930 . S
C646 C645 1.369 . S
C646 C655 1.429 1_545 S
C647 C645 1.419 . S
C647 C648 1.363 . S
C647 H650 0.929 . S
C648 C647 1.363 . S
C648 C654 1.428 1_545 S
H649 C645 0.930 . S
H650 C647 0.929 . S
S651 N652 1.613 . S
S651 N653 1.610 . S
N652 S651 1.613 . S
N652 C655 1.350 . S
N653 S651 1.610 . S
N653 C654 1.351 . S
C654 C648 1.428 1_565 S
C654 N653 1.351 . S
C654 C655 1.434 . S
C655 C646 1.429 1_565 S
C655 N652 1.350 . S
C655 C654 1.434 . S
C656 C657 1.369 . S
C656 C658 1.419 . S
C656 H660 0.930 . S
C657 C656 1.369 . S
C657 C666 1.429 . S
C658 C656 1.419 . S
C658 C659 1.363 . S
C658 H661 0.929 . S
C659 C658 1.363 . S
C659 C665 1.428 . S
H660 C656 0.930 . S
H661 C658 0.929 . S
S662 N663 1.613 . S
S662 N664 1.610 . S
N663 S662 1.613 . S
N663 C666 1.350 . S
N664 S662 1.610 . S
N664 C665 1.351 . S
C665 C659 1.428 . S
C665 N664 1.351 . S
C665 C666 1.434 . S
C666 C657 1.429 . S
C666 N663 1.350 . S
C666 C665 1.434 . S
C667 C668 1.369 . S
C667 C669 1.419 . S
C667 H671 0.930 . S
C668 C667 1.369 . S
C668 C677 1.429 . S
C669 C667 1.419 . S
C669 C670 1.363 . S
C669 H672 0.929 . S
C670 C669 1.363 . S
C670 C676 1.428 . S
H671 C667 0.930 . S
H672 C669 0.929 . S
S673 N674 1.613 1_655 S
S673 N675 1.610 1_655 S
N674 S673 1.613 1_455 S
N674 C677 1.350 . S
N675 S673 1.610 1_455 S
N675 C676 1.351 . S
C676 C670 1.428 . S
C676 N675 1.351 . S
C676 C677 1.434 . S
C677 C668 1.429 . S
C677 N674 1.350 . S
C677 C676 1.434 . S
C481 C19 3.092 . S
C483 C451 3.085 . S
C492 C49 3.160 . S
C494 C301 2.962 . S
C503 C99 3.091 . S
C505 C361 2.890 . S
C514 C9 3.159 . S
C516 C421 2.965 . S
C527 C331 3.083 . S
C525 C59 3.091 . S
C538 C391 3.152 . S
C536 C89 3.159 . S
C547 C55 0.642 . S
C549 C181 0.644 . S
C558 C85 0.677 . S
C560 C271 0.625 . S
C569 C15 0.623 . S
C571 C151 0.605 . S
C582 C211 0.626 . S
C580 C45 0.675 . S
C593 C241 0.631 . S
C591 C95 0.628 . S
C602 C5 0.666 . S
C604 C121 0.578 . S
C615 C260 1.008 . S
C613 C18 1.035 . S
C624 C58 1.032 . S
C626 C140 1.036 . S
C635 C98 1.034 . S
C637 C200 1.012 . S
C648 C380 1.793 . S
C646 C48 1.723 . S
C659 C440 1.792 . S
C657 C88 1.729 . S
C668 C8 1.722 . S
C670 C320 1.792 . S
