# Generated by pormake.
# Topology wbl, (4,4)-cn, num edge types: 1
# Building blocks:
#     Node 0, Type 0, BuildingBlock: NAWXER_clean_linker_0, # of connection points: 4
#     Node 1, Type 0, BuildingBlock: NAWXER_clean_linker_0, # of connection points: 4
#     Node 2, Type 0, BuildingBlock: NAWXER_clean_linker_0, # of connection points: 4
#     Node 3, Type 0, BuildingBlock: NAWXER_clean_linker_0, # of connection points: 4
#     Node 4, Type 0, BuildingBlock: NAWXER_clean_linker_0, # of connection points: 4
#     Node 5, Type 0, BuildingBlock: NAWXER_clean_linker_0, # of connection points: 4
#     Node 6, Type 0, BuildingBlock: NAWXER_clean_linker_0, # of connection points: 4
#     Node 7, Type 0, BuildingBlock: NAWXER_clean_linker_0, # of connection points: 4
#     Node 8, Type 1, BuildingBlock: KUFVIS_clean_sbu_0, # of connection points: 4
#     Node 9, Type 1, BuildingBlock: KUFVIS_clean_sbu_0, # of connection points: 4
#     Node 10, Type 1, BuildingBlock: KUFVIS_clean_sbu_0, # of connection points: 4
#     Node 11, Type 1, BuildingBlock: KUFVIS_clean_sbu_0, # of connection points: 4
#     Node 12, Type 1, BuildingBlock: KUFVIS_clean_sbu_0, # of connection points: 4
#     Node 13, Type 1, BuildingBlock: KUFVIS_clean_sbu_0, # of connection points: 4
#     Node 14, Type 1, BuildingBlock: KUFVIS_clean_sbu_0, # of connection points: 4
#     Node 15, Type 1, BuildingBlock: KUFVIS_clean_sbu_0, # of connection points: 4
#     Edge 16, Type (0, 1), BuildingBlock: TEMPAE_clean_linker_10, # of connection points: 2
#     Edge 17, Type (0, 1), BuildingBlock: TEMPAE_clean_linker_10, # of connection points: 2
#     Edge 18, Type (0, 1), BuildingBlock: TEMPAE_clean_linker_10, # of connection points: 2
#     Edge 19, Type (0, 1), BuildingBlock: TEMPAE_clean_linker_10, # of connection points: 2
#     Edge 20, Type (0, 1), BuildingBlock: TEMPAE_clean_linker_10, # of connection points: 2
#     Edge 21, Type (0, 1), BuildingBlock: TEMPAE_clean_linker_10, # of connection points: 2
#     Edge 22, Type (0, 1), BuildingBlock: TEMPAE_clean_linker_10, # of connection points: 2
#     Edge 23, Type (0, 1), BuildingBlock: TEMPAE_clean_linker_10, # of connection points: 2
#     Edge 24, Type (0, 1), BuildingBlock: TEMPAE_clean_linker_10, # of connection points: 2
#     Edge 25, Type (0, 1), BuildingBlock: TEMPAE_clean_linker_10, # of connection points: 2
#     Edge 26, Type (0, 1), BuildingBlock: TEMPAE_clean_linker_10, # of connection points: 2
#     Edge 27, Type (0, 1), BuildingBlock: TEMPAE_clean_linker_10, # of connection points: 2
#     Edge 28, Type (0, 1), BuildingBlock: TEMPAE_clean_linker_10, # of connection points: 2
#     Edge 29, Type (0, 1), BuildingBlock: TEMPAE_clean_linker_10, # of connection points: 2
#     Edge 30, Type (0, 1), BuildingBlock: TEMPAE_clean_linker_10, # of connection points: 2
#     Edge 31, Type (0, 1), BuildingBlock: TEMPAE_clean_linker_10, # of connection points: 2
#     Edge 32, Type (0, 1), BuildingBlock: TEMPAE_clean_linker_10, # of connection points: 2
#     Edge 33, Type (0, 1), BuildingBlock: TEMPAE_clean_linker_10, # of connection points: 2
#     Edge 34, Type (0, 1), BuildingBlock: TEMPAE_clean_linker_10, # of connection points: 2
#     Edge 35, Type (0, 1), BuildingBlock: TEMPAE_clean_linker_10, # of connection points: 2
#     Edge 36, Type (0, 1), BuildingBlock: TEMPAE_clean_linker_10, # of connection points: 2
#     Edge 37, Type (0, 1), BuildingBlock: TEMPAE_clean_linker_10, # of connection points: 2
#     Edge 38, Type (0, 1), BuildingBlock: TEMPAE_clean_linker_10, # of connection points: 2
#     Edge 39, Type (0, 1), BuildingBlock: TEMPAE_clean_linker_10, # of connection points: 2
#     Edge 40, Type (0, 1), BuildingBlock: TEMPAE_clean_linker_10, # of connection points: 2
#     Edge 41, Type (0, 1), BuildingBlock: TEMPAE_clean_linker_10, # of connection points: 2
#     Edge 42, Type (0, 1), BuildingBlock: TEMPAE_clean_linker_10, # of connection points: 2
#     Edge 43, Type (0, 1), BuildingBlock: TEMPAE_clean_linker_10, # of connection points: 2
#     Edge 44, Type (0, 1), BuildingBlock: TEMPAE_clean_linker_10, # of connection points: 2
#     Edge 45, Type (0, 1), BuildingBlock: TEMPAE_clean_linker_10, # of connection points: 2
#     Edge 46, Type (0, 1), BuildingBlock: TEMPAE_clean_linker_10, # of connection points: 2
#     Edge 47, Type (0, 1), BuildingBlock: TEMPAE_clean_linker_10, # of connection points: 2
# Relax obj value: 0.160
# Max RMSD: 0.159
# Mean RMSD: 0.140
data_MOF--net-wbl--node1-KUFVIS_clean_sbu_0--node2-NAWXER_clean_linker_0--edge1-TEMPAE_clean_linker_10
_symmetry_space_group_name_H-M    P1
_symmetry_Int_Tables_number       1
_symmetry_cell_setting            triclinic
loop_
_symmetry_equiv_pos_as_xyz
'x, y, z'
_cell_length_a     45.527435
_cell_length_b     45.527853
_cell_length_c     78.439929
_cell_angle_alpha  89.983318
_cell_angle_beta   90.700378
_cell_angle_gamma 90.039803
loop_
_atom_site_label
_atom_site_type_symbol
_atom_site_fract_x
_atom_site_fract_y
_atom_site_fract_z
_atom_type_partial_charge
C0 C 0.07635 0.9401 0.35099 0.0
C1 C 0.08985 0.94887 0.36636 0.0
C2 C 0.06346 0.96088 0.34015 0.0
C3 C 0.06387 0.99084 0.34447 0.0
C4 C 0.09133 0.97896 0.37032 0.0
C5 C 0.07822 0.99973 0.35954 0.0
C6 C 0.0461 0.01219 0.33453 0.0
C7 C 0.12069 0.98695 0.30299 0.0
C8 C 0.11368 0.96824 0.28931 0.0
C9 C 0.09874 0.00235 0.31136 0.0
C10 C 0.06917 0.9991 0.30641 0.0
C11 C 0.0843 0.9663 0.28365 0.0
C12 C 0.06217 0.98169 0.29215 0.0
C13 C 0.04591 0.01336 0.31654 0.0
C14 C 0.94685 0.10097 0.30356 0.0
C15 C 0.92895 0.08389 0.29272 0.0
C16 C 0.97247 0.08914 0.31077 0.0
C17 C 0.98024 0.05981 0.30755 0.0
C18 C 0.93797 0.05529 0.28852 0.0
C19 C 0.96341 0.04339 0.29586 0.0
C20 C 0.00429 0.0452 0.31717 0.0
C21 C 0.93732 0.07027 0.35783 0.0
C22 C 0.94911 0.08964 0.37012 0.0
C23 C 0.9556 0.05669 0.34597 0.0
C24 C 0.9859 0.06248 0.34613 0.0
C25 C 0.97932 0.09604 0.36981 0.0
C26 C 0.99753 0.08241 0.35803 0.0
C27 C 0.00617 0.04586 0.33518 0.0
H28 H 0.0749 0.91706 0.34765 0.0
H29 H 0.05192 0.95334 0.32882 0.0
H30 H 0.10126 0.9863 0.3822 0.0
H31 H 0.0785 0.02266 0.36322 0.0
H32 H 0.14323 0.98946 0.30735 0.0
H33 H 0.10486 0.01644 0.32195 0.0
H34 H 0.07835 0.95212 0.27307 0.0
H35 H 0.03954 0.97915 0.28798 0.0
H36 H 0.94068 0.12325 0.30676 0.0
H37 H 0.98562 0.10257 0.31933 0.0
H38 H 0.92456 0.04157 0.28026 0.0
H39 H 0.96909 0.02079 0.29309 0.0
H40 H 0.91423 0.06456 0.35787 0.0
H41 H 0.94627 0.04092 0.3371 0.0
H42 H 0.98903 0.11116 0.37894 0.0
H43 H 0.02088 0.08706 0.35839 0.0
N44 N 0.02674 0.02904 0.34313 0.0
N45 N 0.02451 0.0292 0.30847 0.0
C46 C 0.95104 0.42688 0.60467 0.0
C47 C 0.96368 0.41748 0.62016 0.0
C48 C 0.96841 0.44049 0.59233 0.0
C49 C 0.99878 0.44423 0.59515 0.0
C50 C 0.99407 0.42064 0.62277 0.0
C51 C 0.0114 0.43384 0.61042 0.0
C52 C 0.01716 0.46175 0.58342 0.0
C53 C 0.9857 0.38444 0.55447 0.0
C54 C 0.96652 0.39084 0.54082 0.0
C55 C 0.00239 0.40661 0.56211 0.0
C56 C -0.00021 0.43583 0.55652 0.0
C57 C 0.96508 0.41977 0.53458 0.0
C58 C 0.98164 0.44211 0.54238 0.0
C59 C 0.0161 0.45956 0.56545 0.0
C60 C 0.11128 0.54702 0.54592 0.0
C61 C 0.09544 0.56461 0.53432 0.0
C62 C 0.09728 0.52425 0.55462 0.0
C63 C 0.067 0.5194 0.55228 0.0
C64 C 0.0658 0.55797 0.53089 0.0
C65 C 0.05171 0.53555 0.5398 0.0
C66 C 0.05059 0.49909 0.56345 0.0
C67 C 0.09102 0.56812 0.59932 0.0
C68 C 0.10725 0.55579 0.61297 0.0
C69 C 0.07351 0.5503 0.58872 0.0
C70 C 0.07255 0.51975 0.59131 0.0
C71 C 0.10592 0.52521 0.61547 0.0
C72 C 0.08899 0.50751 0.60475 0.0
C73 C 0.05267 0.50016 0.58145 0.0
H74 H 0.9276 0.42488 0.60245 0.0
H75 H 0.95789 0.44906 0.58092 0.0
H76 H 0.00437 0.4133 0.63455 0.0
H77 H 0.0347 0.43652 0.61296 0.0
H78 H 0.98777 0.36221 0.55927 0.0
H79 H 0.01712 0.40093 0.57254 0.0
H80 H 0.95054 0.42524 0.52402 0.0
H81 H 0.97964 0.46441 0.53768 0.0
H82 H 0.13425 0.55147 0.54862 0.0
H83 H 0.10982 0.51136 0.56375 0.0
H84 H 0.05305 0.57127 0.52206 0.0
H85 H 0.02844 0.53194 0.53761 0.0
H86 H 0.09151 0.59154 0.59695 0.0
H87 H 0.06035 0.56046 0.57876 0.0
H88 H 0.11717 0.51481 0.6261 0.0
H89 H 0.08826 0.48409 0.60721 0.0
N90 N 0.03571 0.4816 0.59059 0.0
N91 N 0.03237 0.47876 0.55612 0.0
C92 C 0.57553 0.45796 0.84387 0.0
C93 C 0.59014 0.46579 0.85908 0.0
C94 C 0.56441 0.47964 0.83296 0.0
C95 C 0.56751 0.50949 0.83716 0.0
C96 C 0.59427 0.49567 0.8629 0.0
C97 C 0.58274 0.51733 0.85213 0.0
C98 C 0.55192 0.53222 0.82708 0.0
C99 C 0.62669 0.50138 0.79704 0.0
C100 C 0.61888 0.4842 0.78282 0.0
C101 C 0.60575 0.51844 0.80521 0.0
C102 C 0.57641 0.51843 0.79949 0.0
C103 C 0.58988 0.48543 0.77648 0.0
C104 C 0.56877 0.50249 0.78476 0.0
C105 C 0.55388 0.53456 0.8092 0.0
C106 C 0.46534 0.63238 0.79531 0.0
C107 C 0.44732 0.61799 0.78327 0.0
C108 C 0.48906 0.61766 0.80292 0.0
C109 C 0.49459 0.58811 0.79891 0.0
C110 C 0.45468 0.58937 0.77814 0.0
C111 C 0.47814 0.57459 0.78588 0.0
C112 C 0.51536 0.57014 0.80914 0.0
C113 C 0.44406 0.59901 0.84599 0.0
C114 C 0.45482 0.61216 0.86109 0.0
C115 C 0.46325 0.58534 0.83466 0.0
C116 C 0.4937 0.58544 0.83787 0.0
C117 C 0.48537 0.61227 0.86414 0.0
C118 C 0.50449 0.5992 0.85265 0.0
C119 C 0.51441 0.56868 0.82717 0.0
H120 H 0.57201 0.43506 0.84069 0.0
H121 H 0.55222 0.47306 0.82164 0.0
H122 H 0.60512 0.50225 0.87467 0.0
H123 H 0.58508 0.54022 0.85568 0.0
H124 H 0.64904 0.50144 0.80194 0.0
H125 H 0.61244 0.53136 0.81618 0.0
H126 H 0.58333 0.47247 0.7655 0.0
H127 H 0.54632 0.50244 0.78003 0.0
H128 H 0.46039 0.65458 0.79932 0.0
H129 H 0.50206 0.62883 0.81259 0.0
H130 H 0.44111 0.57764 0.76896 0.0
H131 H 0.48219 0.55191 0.78245 0.0
H132 H 0.42076 0.59863 0.8431 0.0
H133 H 0.45416 0.57404 0.82366 0.0
H134 H 0.49463 0.62131 0.87578 0.0
H135 H 0.52781 0.59912 0.85558 0.0
N136 N 0.53268 0.54967 0.83535 0.0
N137 N 0.53515 0.55304 0.80082 0.0
C138 C 0.47775 0.89681 0.0551 0.0
C139 C 0.45706 0.90143 0.04194 0.0
C140 C 0.49214 0.92052 0.06276 0.0
C141 C 0.4857 0.94943 0.05769 0.0
C142 C 0.45175 0.93023 0.03622 0.0
C143 C 0.46599 0.95406 0.04404 0.0
C144 C 0.49942 0.97467 0.06668 0.0
C145 C 0.44175 0.93279 0.10714 0.0
C146 C 0.45675 0.92453 0.12215 0.0
C147 C 0.4563 0.94863 0.09445 0.0
C148 C 0.4862 0.95587 0.09648 0.0
C149 C 0.48681 0.93088 0.12384 0.0
C150 C 0.50135 0.94639 0.11116 0.0
C151 C 0.50105 0.97639 0.08471 0.0
C152 C 0.55427 0.07444 0.11598 0.0
C153 C 0.58479 0.07476 0.11357 0.0
C154 C 0.5361 0.05768 0.10531 0.0
C155 C 0.54806 0.04162 0.09182 0.0
C156 C 0.59663 0.05962 0.09966 0.0
C157 C 0.57833 0.04336 0.08875 0.0
C158 C 0.52973 0.01991 0.08263 0.0
C159 C 0.56981 0.06563 0.03376 0.0
C160 C 0.55952 0.09402 0.0376 0.0
C161 C 0.55822 0.04099 0.04205 0.0
C162 C 0.53641 0.04449 0.05436 0.0
C163 C 0.53661 0.09704 0.04933 0.0
C164 C 0.5253 0.07259 0.05766 0.0
C165 C 0.52639 0.01951 0.06478 0.0
H166 H 0.48278 0.8748 0.05948 0.0
H167 H 0.50809 0.91623 0.07281 0.0
H168 H 0.43596 0.93438 0.02607 0.0
H169 H 0.46097 0.97613 0.03976 0.0
H170 H 0.4185 0.92832 0.10561 0.0
H171 H 0.44387 0.95633 0.08348 0.0
H172 H 0.49893 0.92447 0.13522 0.0
H173 H 0.52435 0.95175 0.11306 0.0
H174 H 0.54471 0.08563 0.12676 0.0
H175 H 0.51283 0.05638 0.10795 0.0
H176 H 0.62013 0.05944 0.09764 0.0
H177 H 0.58803 0.03074 0.07856 0.0
H178 H 0.58746 0.06256 0.0248 0.0
H179 H 0.56707 0.01942 0.03938 0.0
H180 H 0.52756 0.11844 0.05224 0.0
H181 H 0.50818 0.07567 0.06697 0.0
N182 N 0.51167 0.99671 0.05733 0.0
N183 N 0.5166 0.99868 0.0919 0.0
C184 C 0.02383 0.59448 0.88415 0.0
C185 C 0.05431 0.58963 0.88352 0.0
C186 C 0.00669 0.57993 0.89612 0.0
C187 C 0.01968 0.56068 0.90793 0.0
C188 C 0.06745 0.57112 0.89581 0.0
C189 C 0.05024 0.55669 0.90789 0.0
C190 C 0.00064 0.54246 0.91877 0.0
C191 C 0.06626 0.55765 0.96617 0.0
C192 C 0.07358 0.58667 0.9618 0.0
C193 C 0.04196 0.54388 0.95865 0.0
C194 C 0.02454 0.55879 0.94657 0.0
C195 C 0.055 0.60223 0.95057 0.0
C196 C 0.03048 0.58851 0.94316 0.0
C197 C 0.00201 0.54217 0.93677 0.0
C198 C 0.92292 0.43904 0.95332 0.0
C199 C 0.90248 0.45239 0.96415 0.0
C200 C 0.94426 0.45591 0.94518 0.0
C201 C 0.94512 0.4865 0.94747 0.0
C202 C 0.90481 0.48269 0.96736 0.0
C203 C 0.92599 0.49958 0.9591 0.0
C204 C 0.96458 0.50528 0.93714 0.0
C205 C 0.90268 0.4582 0.89986 0.0
C206 C 0.91836 0.44181 0.88777 0.0
C207 C 0.91721 0.47885 0.91023 0.0
C208 C 0.94765 0.48319 0.90873 0.0
C209 C 0.94871 0.44669 0.88622 0.0
C210 C 0.9631 0.46707 0.89656 0.0
C211 C 0.96413 0.50491 0.91912 0.0
H212 H 0.01307 0.60896 0.87507 0.0
H213 H 0.98311 0.58319 0.89591 0.0
H214 H 0.09079 0.5666 0.89556 0.0
H215 H 0.06062 0.5415 0.91672 0.0
H216 H 0.08025 0.54502 0.9747 0.0
H217 H 0.03775 0.52101 0.96157 0.0
H218 H 0.05984 0.62478 0.94719 0.0
H219 H 0.0168 0.60081 0.93432 0.0
H220 H 0.92195 0.41565 0.95083 0.0
H221 H 0.95938 0.44521 0.93663 0.0
H222 H 0.8893 0.49363 0.97557 0.0
H223 H 0.92648 0.5231 0.96117 0.0
H224 H 0.87927 0.45503 0.90132 0.0
H225 H 0.9047 0.49149 0.9193 0.0
H226 H 0.96137 0.43516 0.87673 0.0
H227 H 0.98652 0.47023 0.89503 0.0
N228 N 0.98198 0.52371 0.91072 0.0
N229 N 0.98364 0.52379 0.94529 0.0
C230 C 0.42088 0.55222 0.14962 0.0
C231 C 0.43182 0.56779 0.13559 0.0
C232 C 0.44017 0.53834 0.16105 0.0
C233 C 0.47063 0.53949 0.15846 0.0
C234 C 0.46232 0.56971 0.13335 0.0
C235 C 0.48154 0.55536 0.14457 0.0
C236 C 0.49098 0.5222 0.1693 0.0
C237 C 0.46377 0.59859 0.19984 0.0
C238 C 0.44949 0.59302 0.2153 0.0
C239 C 0.47748 0.57606 0.191 0.0
C240 C 0.4762 0.54694 0.19687 0.0
C241 C 0.44878 0.56395 0.22146 0.0
C242 C 0.46203 0.54113 0.21232 0.0
C243 C 0.49112 0.52319 0.1873 0.0
C244 C 0.5864 0.43476 0.20524 0.0
C245 C 0.57055 0.41535 0.21563 0.0
C246 C 0.57213 0.45789 0.19683 0.0
C247 C 0.5417 0.46174 0.19849 0.0
C248 C 0.54045 0.42047 0.21811 0.0
C249 C 0.5262 0.44353 0.20966 0.0
C250 C 0.52544 0.48347 0.18803 0.0
C251 C 0.56369 0.41827 0.14958 0.0
C252 C 0.57951 0.43194 0.13643 0.0
C253 C 0.54722 0.43506 0.16101 0.0
C254 C 0.54681 0.46584 0.1597 0.0
C255 C 0.57937 0.4628 0.13548 0.0
C256 C 0.56331 0.47946 0.14696 0.0
C257 C 0.52706 0.48433 0.17004 0.0
H258 H 0.39743 0.55036 0.15153 0.0
H259 H 0.43128 0.52584 0.17155 0.0
H260 H 0.47123 0.58126 0.1225 0.0
H261 H 0.50495 0.55634 0.1423 0.0
H262 H 0.46447 0.62047 0.19445 0.0
H263 H 0.48942 0.58166 0.1796 0.0
H264 H 0.43842 0.55885 0.23346 0.0
H265 H 0.46122 0.51897 0.21732 0.0
H266 H 0.60972 0.43171 0.20334 0.0
H267 H 0.58469 0.4722 0.18863 0.0
H268 H 0.52757 0.40583 0.22594 0.0
H269 H 0.50274 0.44627 0.21122 0.0
H270 H 0.56339 0.39459 0.1508 0.0
H271 H 0.5341 0.42392 0.17045 0.0
H272 H 0.59053 0.47425 0.12533 0.0
H273 H 0.56307 0.50314 0.14556 0.0
N274 N 0.50943 0.50338 0.16144 0.0
N275 N 0.50776 0.5032 0.19601 0.0
C276 C 0.41933 0.95273 0.40755 0.0
C277 C 0.40569 0.96081 0.39209 0.0
C278 C 0.43115 0.97414 0.41841 0.0
C279 C 0.42949 0.00401 0.414 0.0
C280 C 0.40311 0.99077 0.38801 0.0
C281 C 0.41514 0.01215 0.3988 0.0
C282 C 0.44564 0.02637 0.4241 0.0
C283 C 0.3713 0.9955 0.45452 0.0
C284 C 0.37943 0.97734 0.46826 0.0
C285 C 0.39211 0.01294 0.44646 0.0
C286 C 0.42163 0.01238 0.45182 0.0
C287 C 0.40866 0.97804 0.47429 0.0
C288 C 0.42962 0.99552 0.46613 0.0
C289 C 0.44405 0.02857 0.44201 0.0
C290 C 0.53236 0.12681 0.45555 0.0
C291 C 0.55064 0.11264 0.46755 0.0
C292 C 0.50875 0.11181 0.448 0.0
C293 C 0.50354 0.08219 0.45203 0.0
C294 C 0.54366 0.0839 0.47267 0.0
C295 C 0.52029 0.06884 0.46499 0.0
C296 C 0.48272 0.06407 0.44191 0.0
C297 C 0.5536 0.09321 0.40486 0.0
C298 C 0.54276 0.1063 0.38976 0.0
C299 C 0.5345 0.07946 0.41623 0.0
C300 C 0.50404 0.07942 0.41307 0.0
C301 C 0.5122 0.10621 0.38674 0.0
C302 C 0.49316 0.09306 0.39826 0.0
C303 C 0.48339 0.06268 0.42387 0.0
H304 H 0.42161 0.92979 0.41101 0.0
H305 H 0.44271 0.96723 0.42988 0.0
H306 H 0.3931 0.99762 0.37606 0.0
H307 H 0.41392 0.03503 0.39506 0.0
H308 H 0.3488 0.99602 0.44987 0.0
H309 H 0.38522 0.02647 0.43577 0.0
H310 H 0.4155 0.96433 0.4849 0.0
H311 H 0.45223 0.99499 0.47058 0.0
H312 H 0.53698 0.1491 0.45156 0.0
H313 H 0.49553 0.12285 0.43838 0.0
H314 H 0.55743 0.07232 0.4818 0.0
H315 H 0.5165 0.04611 0.46843 0.0
H316 H 0.57691 0.09298 0.40774 0.0
H317 H 0.54368 0.06824 0.42723 0.0
H318 H 0.50288 0.11521 0.3751 0.0
H319 H 0.46983 0.09288 0.39536 0.0
N320 N 0.46486 0.0438 0.41576 0.0
N321 N 0.463 0.04695 0.45031 0.0
C322 C 0.0508 0.92974 0.64803 0.0
C323 C 0.03852 0.91969 0.6326 0.0
C324 C 0.03313 0.94366 0.66007 0.0
C325 C 0.00279 0.94708 0.65702 0.0
C326 C 0.00816 0.9226 0.62973 0.0
C327 C 0.9905 0.93615 0.6418 0.0
C328 C 0.98419 0.96474 0.66854 0.0
C329 C 0.01427 0.88783 0.698 0.0
C330 C 0.03369 0.89403 0.71156 0.0
C331 C 0.99811 0.91024 0.69027 0.0
C332 C 0.00151 0.93949 0.69564 0.0
C333 C 0.0359 0.92301 0.71763 0.0
C334 C 0.01988 0.94561 0.70972 0.0
C335 C 0.98575 0.96337 0.68653 0.0
C336 C 0.89466 0.05336 0.70713 0.0
C337 C 0.91255 0.07447 0.71518 0.0
C338 C 0.90736 0.02919 0.69902 0.0
C339 C 0.93804 0.02587 0.69896 0.0
C340 C 0.94307 0.07005 0.71598 0.0
C341 C 0.95568 0.0458 0.70806 0.0
C342 C 0.95233 0.00367 0.68819 0.0
C343 C 0.90892 0.07 0.65193 0.0
C344 C 0.89224 0.05688 0.63872 0.0
C345 C 0.92714 0.05291 0.66251 0.0
C346 C 0.92833 0.02225 0.66043 0.0
C347 C 0.89376 0.02619 0.63672 0.0
C348 C 0.91135 0.00919 0.64748 0.0
C349 C 0.94897 0.00335 0.67025 0.0
H350 H 0.07421 0.92796 0.65044 0.0
H351 H 0.04341 0.95268 0.67144 0.0
H352 H 0.99812 0.91476 0.61798 0.0
H353 H 0.96724 0.93861 0.63908 0.0
H354 H 0.01165 0.86557 0.69334 0.0
H355 H 0.98318 0.9047 0.6799 0.0
H356 H 0.05065 0.9283 0.72813 0.0
H357 H 0.02248 0.96794 0.71426 0.0
H358 H 0.87108 0.05635 0.70637 0.0
H359 H 0.89339 0.01383 0.69216 0.0
H360 H 0.95725 0.08591 0.72228 0.0
H361 H 0.97938 0.04351 0.70822 0.0
H362 H 0.90833 0.0935 0.65395 0.0
H363 H 0.9408 0.0638 0.67196 0.0
H364 H 0.88219 0.01515 0.62643 0.0
H365 H 0.91219 0.98567 0.6454 0.0
N366 N 0.96536 0.98416 0.66122 0.0
N367 N 0.97042 0.98349 0.6957 0.0
Mn368 Mn 0.33485 0.66963 0.0035 0.0
Mn369 Mn 0.33938 0.59589 0.00125 0.0
C370 C 0.3382 0.64214 0.02836 0.0
C371 C 0.35794 0.71537 0.00381 0.0
C372 C 0.28289 0.63011 0.99489 0.0
O373 O 0.34574 0.66227 0.97869 0.0
O374 O 0.3538 0.61339 0.97971 0.0
C375 C 0.40394 0.58843 0.0001 0.0
N376 N 0.37771 0.58226 0.00744 0.0
C377 C 0.40045 0.54808 0.02691 0.0
C378 C 0.42766 0.55369 0.01937 0.0
C379 C 0.42944 0.57415 0.006 0.0
C380 C 0.37584 0.56308 0.02054 0.0
H381 H 0.40537 0.60418 0.98987 0.0
C382 C 0.35422 0.6382 0.97198 0.0
O383 O 0.33046 0.71267 0.99942 0.0
O384 O 0.37207 0.69145 0.00754 0.0
N385 N 0.3265 0.57622 0.02137 0.0
C386 C 0.29909 0.57518 0.02812 0.0
C387 C 0.29383 0.5569 0.04217 0.0
C388 C 0.31668 0.53962 0.04898 0.0
C389 C 0.34475 0.54119 0.04186 0.0
C390 C 0.3487 0.55989 0.02792 0.0
H391 H 0.28136 0.58809 0.02278 0.0
O392 O 0.32783 0.66867 0.02862 0.0
O393 O 0.34654 0.63262 0.01357 0.0
O394 O 0.29292 0.65546 0.99868 0.0
O395 O 0.29878 0.60701 0.99485 0.0
C396 C 0.369 0.52504 0.04809 0.0
C397 C 0.39686 0.5286 0.04069 0.0
H398 H 0.44737 0.54274 0.02389 0.0
H399 H 0.4504 0.57885 0.00024 0.0
H400 H 0.27216 0.55592 0.04766 0.0
H401 H 0.31248 0.5254 0.05975 0.0
H402 H 0.36652 0.50999 0.05866 0.0
H403 H 0.41545 0.51651 0.04582 0.0
Mn404 Mn 0.33922 0.83771 0.26039 0.0
Mn405 Mn 0.41278 0.83633 0.26578 0.0
C406 C 0.35998 0.84402 0.28724 0.0
C407 C 0.29516 0.86263 0.25554 0.0
C408 C 0.37646 0.78154 0.26133 0.0
O409 O 0.35328 0.8448 0.23629 0.0
O410 O 0.40201 0.84103 0.24122 0.0
C411 C 0.42495 0.89769 0.25544 0.0
N412 N 0.42718 0.8757 0.26717 0.0
C413 C 0.45703 0.90574 0.28573 0.0
C414 C 0.45516 0.92867 0.27383 0.0
C415 C 0.43892 0.92467 0.25866 0.0
C416 C 0.44247 0.87943 0.28188 0.0
H417 H 0.41271 0.89464 0.2437 0.0
C418 C 0.37979 0.84455 0.23122 0.0
O419 O 0.29742 0.83464 0.25263 0.0
O420 O 0.31874 0.87618 0.26062 0.0
N421 N 0.42664 0.83235 0.28878 0.0
C422 C 0.4246 0.80877 0.2994 0.0
C423 C 0.4389 0.80953 0.31535 0.0
C424 C 0.45546 0.83432 0.3201 0.0
C425 C 0.45711 0.85838 0.30899 0.0
C426 C 0.44231 0.8564 0.29329 0.0
H427 H 0.41216 0.78956 0.2957 0.0
O428 O 0.33336 0.83421 0.28547 0.0
O429 O 0.37397 0.84938 0.27321 0.0
O430 O 0.35198 0.79451 0.25874 0.0
O431 O 0.40038 0.79495 0.2648 0.0
C432 C 0.47277 0.88429 0.31289 0.0
C433 C 0.47256 0.90803 0.30132 0.0
H434 H 0.46596 0.94949 0.27625 0.0
H435 H 0.4373 0.94229 0.24943 0.0
H436 H 0.43738 0.79095 0.32391 0.0
H437 H 0.4667 0.83468 0.33235 0.0
H438 H 0.48483 0.88633 0.32481 0.0
H439 H 0.48424 0.92802 0.3046 0.0
Mn440 Mn 0.16388 0.82946 0.49772 0.0
Mn441 Mn 0.09015 0.82571 0.4936 0.0
C442 C 0.14175 0.83448 0.47113 0.0
C443 C 0.20669 0.85686 0.50192 0.0
C444 C 0.12861 0.77215 0.49887 0.0
O445 O 0.1504 0.83618 0.52207 0.0
O446 O 0.10139 0.83383 0.51768 0.0
C447 C 0.07558 0.88758 0.50139 0.0
N448 N 0.07416 0.86416 0.49062 0.0
C449 C 0.04286 0.89053 0.47102 0.0
C450 C 0.04388 0.91493 0.48192 0.0
C451 C 0.06045 0.91349 0.49713 0.0
C452 C 0.05854 0.8654 0.47588 0.0
H453 H 0.08808 0.88646 0.51317 0.0
C454 C 0.12401 0.83717 0.52737 0.0
O455 O 0.20616 0.82878 0.50489 0.0
O456 O 0.18219 0.86897 0.49715 0.0
N457 N 0.07619 0.81826 0.47093 0.0
C458 C 0.07921 0.79357 0.46131 0.0
C459 C 0.06496 0.79187 0.44535 0.0
C460 C 0.04745 0.81535 0.43961 0.0
C461 C 0.04472 0.84054 0.44974 0.0
C462 C 0.05959 0.84106 0.46546 0.0
H463 H 0.09235 0.77534 0.46579 0.0
O464 O 0.1689 0.8261 0.47255 0.0
O465 O 0.12822 0.83934 0.48536 0.0
O466 O 0.1532 0.78564 0.49946 0.0
O467 O 0.10408 0.78513 0.49647 0.0
C468 C 0.0279 0.8652 0.44487 0.0
C469 C 0.02714 0.89025 0.45544 0.0
H470 H 0.0322 0.93493 0.47869 0.0
H471 H 0.06142 0.93225 0.50559 0.0
H472 H 0.06727 0.77241 0.43757 0.0
H473 H 0.03634 0.81386 0.42735 0.0
H474 H 0.01558 0.8652 0.43298 0.0
H475 H 0.01456 0.90926 0.4514 0.0
Mn476 Mn 0.17772 0.67429 0.74647 0.0
Mn477 Mn 0.18443 0.60047 0.74666 0.0
C478 C 0.17857 0.64892 0.72085 0.0
C479 C 0.14905 0.71664 0.74725 0.0
C480 C 0.2354 0.64197 0.75338 0.0
O481 O 0.16735 0.66349 0.77088 0.0
O482 O 0.16984 0.61422 0.76904 0.0
C483 C 0.12193 0.58346 0.74966 0.0
N484 N 0.14789 0.58187 0.74127 0.0
C485 C 0.12877 0.54508 0.72213 0.0
C486 C 0.10181 0.54627 0.73057 0.0
C487 C 0.09833 0.56568 0.74432 0.0
C488 C 0.15135 0.56357 0.72789 0.0
H489 H 0.11934 0.59806 0.76039 0.0
C490 C 0.16457 0.63787 0.77729 0.0
O491 O 0.17654 0.71698 0.75184 0.0
O492 O 0.13804 0.69151 0.74267 0.0
N493 N 0.1981 0.58383 0.72585 0.0
C494 C 0.2249 0.58671 0.7185 0.0
C495 C 0.23175 0.56935 0.70431 0.0
C496 C 0.21115 0.54897 0.698 0.0
C497 C 0.18358 0.54664 0.70566 0.0
C498 C 0.178 0.56454 0.71975 0.0
H499 H 0.24103 0.60191 0.72354 0.0
O500 O 0.18527 0.67661 0.72154 0.0
O501 O 0.17133 0.63675 0.73525 0.0
O502 O 0.22125 0.66585 0.75126 0.0
O503 O 0.22347 0.61671 0.75218 0.0
C504 C 0.16145 0.52723 0.69993 0.0
C505 C 0.13402 0.52653 0.70811 0.0
H506 H 0.0836 0.5325 0.72653 0.0
H507 H 0.07758 0.56676 0.75088 0.0
H508 H 0.253 0.57137 0.69839 0.0
H509 H 0.21674 0.53527 0.68723 0.0
H510 H 0.16518 0.5129 0.68916 0.0
H511 H 0.11703 0.51186 0.70342 0.0
Mn512 Mn 0.81947 0.17294 0.5051 0.0
Mn513 Mn 0.81305 0.09908 0.50489 0.0
C514 C 0.81838 0.1475 0.53069 0.0
C515 C 0.84831 0.21527 0.50456 0.0
C516 C 0.76198 0.14032 0.49791 0.0
O517 O 0.83025 0.16222 0.48074 0.0
O518 O 0.82784 0.11293 0.48258 0.0
C519 C 0.87563 0.08236 0.50208 0.0
N520 N 0.84962 0.08067 0.51041 0.0
C521 C 0.86877 0.04413 0.52969 0.0
C522 C 0.89578 0.0454 0.52131 0.0
C523 C 0.89927 0.06474 0.50751 0.0
C524 C 0.84613 0.06243 0.52382 0.0
H525 H 0.87825 0.0969 0.49132 0.0
C526 C 0.83319 0.13661 0.47435 0.0
O527 O 0.82088 0.21574 0.49983 0.0
O528 O 0.85912 0.19007 0.50912 0.0
N529 N 0.79925 0.08241 0.52567 0.0
C530 C 0.77243 0.08526 0.533 0.0
C531 C 0.76564 0.0681 0.54729 0.0
C532 C 0.78631 0.04794 0.55373 0.0
C533 C 0.81387 0.04558 0.54607 0.0
C534 C 0.81942 0.0633 0.53189 0.0
H535 H 0.75628 0.10033 0.52788 0.0
O536 O 0.81156 0.17515 0.53 0.0
O537 O 0.82582 0.13542 0.51632 0.0
O538 O 0.77597 0.16432 0.50007 0.0
O539 O 0.77404 0.11514 0.49923 0.0
C540 C 0.83606 0.02634 0.55191 0.0
C541 C 0.86352 0.02569 0.54376 0.0
H542 H 0.91403 0.03178 0.52543 0.0
H543 H 0.92006 0.06589 0.501 0.0
H544 H 0.74439 0.07014 0.55321 0.0
H545 H 0.7808 0.03444 0.56461 0.0
H546 H 0.83234 0.01211 0.56273 0.0
H547 H 0.88055 0.01116 0.54854 0.0
Mn548 Mn 0.83267 0.33474 0.75519 0.0
Mn549 Mn 0.90564 0.32669 0.76142 0.0
C550 C 0.85268 0.33797 0.78244 0.0
C551 C 0.79139 0.36382 0.75006 0.0
C552 C 0.86467 0.2755 0.75535 0.0
O553 O 0.84838 0.34147 0.73138 0.0
O554 O 0.89655 0.33454 0.73695 0.0
C555 C 0.92402 0.38745 0.75325 0.0
N556 N 0.92365 0.36431 0.76425 0.0
C557 C 0.95611 0.38923 0.78389 0.0
C558 C 0.95693 0.41332 0.77276 0.0
C559 C 0.94067 0.41248 0.75742 0.0
C560 C 0.93891 0.36503 0.77913 0.0
H561 H 0.91181 0.38677 0.74137 0.0
C562 C 0.87508 0.34003 0.72671 0.0
O563 O 0.79116 0.33586 0.74679 0.0
O564 O 0.81588 0.37493 0.75568 0.0
N565 N 0.91798 0.31934 0.78441 0.0
C566 C 0.91318 0.29516 0.79422 0.0
C567 C 0.92728 0.29279 0.81017 0.0
C568 C 0.94639 0.31512 0.81577 0.0
C569 C 0.95068 0.33999 0.80554 0.0
C570 C 0.93602 0.34113 0.78977 0.0
H571 H 0.8988 0.27778 0.78986 0.0
O572 O 0.82534 0.33084 0.7801 0.0
O573 O 0.86778 0.34264 0.76871 0.0
O574 O 0.84133 0.29059 0.75316 0.0
O575 O 0.88961 0.2868 0.75894 0.0
C576 C 0.96888 0.36371 0.81036 0.0
C577 C 0.97146 0.38838 0.79959 0.0
H578 H 0.96982 0.43262 0.7759 0.0
H579 H 0.94113 0.43101 0.74878 0.0
H580 H 0.92368 0.27365 0.81807 0.0
H581 H 0.95754 0.31299 0.82797 0.0
H582 H 0.98079 0.36335 0.82239 0.0
H583 H 0.98511 0.40669 0.80357 0.0
Mn584 Mn 0.66165 0.34241 0.99011 0.0
Mn585 Mn 0.58815 0.35093 0.98824 0.0
C586 C 0.63832 0.35046 0.96406 0.0
C587 C 0.70847 0.36281 0.99306 0.0
C588 C 0.61812 0.29187 0.99341 0.0
O589 O 0.65124 0.35087 0.01485 0.0
O590 O 0.6028 0.36017 0.01161 0.0
C591 C 0.58421 0.4152 0.99352 0.0
N592 N 0.57787 0.39096 0.984 0.0
C593 C 0.54869 0.41936 0.96426 0.0
C594 C 0.55455 0.44459 0.97398 0.0
C595 C 0.57259 0.44253 0.9886 0.0
C596 C 0.56099 0.39278 0.96975 0.0
H597 H 0.59807 0.41368 0.00474 0.0
C598 C 0.62636 0.35865 0.02069 0.0
O599 O 0.70377 0.3352 0.99625 0.0
O600 O 0.68583 0.37857 0.98886 0.0
N601 N 0.57116 0.34308 0.9663 0.0
C602 C 0.56963 0.31717 0.95765 0.0
C603 C 0.5536 0.31574 0.94226 0.0
C604 C 0.53904 0.34083 0.93606 0.0
C605 C 0.54106 0.36728 0.94516 0.0
C606 C 0.55744 0.3674 0.96037 0.0
H607 H 0.58046 0.29774 0.96248 0.0
O608 O 0.66403 0.33823 0.96478 0.0
O609 O 0.62703 0.35755 0.97863 0.0
O610 O 0.64453 0.30097 0.99231 0.0
O611 O 0.59589 0.30889 0.99237 0.0
C612 C 0.52758 0.39356 0.93971 0.0
C613 C 0.53152 0.41962 0.9492 0.0
H614 H 0.54564 0.4657 0.97022 0.0
H615 H 0.57745 0.46194 0.99608 0.0
H616 H 0.55227 0.29529 0.93526 0.0
H617 H 0.52656 0.33958 0.92424 0.0
H618 H 0.51429 0.39404 0.92818 0.0
H619 H 0.52151 0.4398 0.94469 0.0
Mn620 Mn 0.66984 0.17073 0.24985 0.0
Mn621 Mn 0.66226 0.09702 0.25018 0.0
C622 C 0.66772 0.14516 0.2243 0.0
C623 C 0.64939 0.21766 0.24988 0.0
C624 C 0.71968 0.12832 0.25842 0.0
O625 O 0.65628 0.16237 0.27409 0.0
O626 O 0.64799 0.11368 0.27196 0.0
C627 C 0.59735 0.09282 0.25052 0.0
N628 N 0.62348 0.08565 0.24337 0.0
C629 C 0.59976 0.05302 0.2234 0.0
C630 C 0.57261 0.05968 0.23072 0.0
C631 C 0.57138 0.07987 0.24424 0.0
C632 C 0.62484 0.06678 0.23011 0.0
H633 H 0.59636 0.10831 0.2609 0.0
C634 C 0.64727 0.138 0.28016 0.0
O635 O 0.67612 0.21306 0.25519 0.0
O636 O 0.63431 0.19485 0.2451 0.0
N637 N 0.67474 0.07784 0.22983 0.0
C638 C 0.70225 0.07581 0.22331 0.0
C639 C 0.70707 0.05768 0.20914 0.0
C640 C 0.68367 0.04152 0.20201 0.0
C641 C 0.65551 0.04409 0.20889 0.0
C642 C 0.65201 0.06263 0.22294 0.0
H643 H 0.7204 0.08778 0.22895 0.0
O644 O 0.67931 0.17117 0.22508 0.0
O645 O 0.6574 0.1349 0.23852 0.0
O646 O 0.71055 0.15433 0.25559 0.0
O647 O 0.70319 0.10571 0.25718 0.0
C648 C 0.63075 0.02905 0.20236 0.0
C649 C 0.60287 0.03365 0.20954 0.0
H650 H 0.55254 0.04971 0.22592 0.0
H651 H 0.55049 0.08536 0.24984 0.0
H652 H 0.72883 0.05591 0.20384 0.0
H653 H 0.68755 0.02733 0.19118 0.0
H654 H 0.63283 0.01408 0.19172 0.0
H655 H 0.58391 0.02245 0.20417 0.0
C656 C 0.15678 0.93489 0.29222 0.0
C657 C 0.13713 0.95018 0.28159 0.0
C658 C 0.18065 0.91957 0.28552 0.0
C659 C 0.18508 0.91954 0.26768 0.0
C660 C 0.16468 0.93399 0.25678 0.0
C661 C 0.14081 0.94912 0.26388 0.0
C662 C 0.20168 0.90422 0.29761 0.0
C663 C 0.16869 0.93441 0.23771 0.0
C664 C 0.26531 0.90836 0.25766 0.0
C665 C 0.26647 0.8779 0.25512 0.0
C666 C 0.23851 0.92261 0.26047 0.0
C667 C 0.21224 0.90597 0.26084 0.0
C668 C 0.21301 0.87558 0.25702 0.0
C669 C 0.24017 0.86188 0.25417 0.0
C670 C 0.23864 0.95511 0.26431 0.0
C671 C 0.18548 0.85711 0.25721 0.0
H672 H 0.15365 0.93523 0.30591 0.0
H673 H 0.12565 0.96097 0.25563 0.0
H674 H 0.20431 0.8809 0.29384 0.0
H675 H 0.22364 0.91472 0.29698 0.0
H676 H 0.19418 0.90499 0.31103 0.0
H677 H 0.14936 0.94386 0.2309 0.0
H678 H 0.18832 0.94773 0.23458 0.0
H679 H 0.17258 0.91187 0.23287 0.0
H680 H 0.28552 0.92094 0.25823 0.0
H681 H 0.24089 0.83835 0.25214 0.0
H682 H 0.23412 0.95856 0.27804 0.0
H683 H 0.22111 0.96647 0.25692 0.0
H684 H 0.26007 0.96551 0.26137 0.0
H685 H 0.17847 0.85388 0.27058 0.0
H686 H 0.18896 0.83518 0.25137 0.0
H687 H 0.16727 0.86834 0.25032 0.0
C688 C 0.12113 0.61245 0.5385 0.0
C689 C 0.10847 0.59185 0.52735 0.0
C690 C 0.12867 0.64065 0.53282 0.0
C691 C 0.12382 0.64824 0.5155 0.0
C692 C 0.1132 0.62674 0.50392 0.0
C693 C 0.1053 0.59886 0.51003 0.0
C694 C 0.13947 0.663 0.54566 0.0
C695 C 0.10832 0.63376 0.48529 0.0
C696 C 0.1013 0.72704 0.50722 0.0
C697 C 0.12774 0.74006 0.50213 0.0
C698 C 0.09983 0.69721 0.51141 0.0
C699 C 0.12533 0.67961 0.51021 0.0
C700 C 0.15196 0.6923 0.50464 0.0
C701 C 0.15295 0.72252 0.50083 0.0
C702 C 0.07106 0.68471 0.51755 0.0
C703 C 0.1794 0.67404 0.50288 0.0
H704 H 0.12333 0.60717 0.55194 0.0
H705 H 0.09572 0.58285 0.50137 0.0
H706 H 0.15889 0.67491 0.54079 0.0
H707 H 0.12198 0.67949 0.54785 0.0
H708 H 0.14542 0.65276 0.55809 0.0
H709 H 0.10486 0.6136 0.47754 0.0
H710 H 0.08863 0.64792 0.48382 0.0
H711 H 0.12731 0.64606 0.48015 0.0
H712 H 0.08171 0.74038 0.5084 0.0
H713 H 0.17342 0.73237 0.49683 0.0
H714 H 0.07395 0.67568 0.53061 0.0
H715 H 0.06389 0.66638 0.50917 0.0
H716 H 0.05329 0.70142 0.51778 0.0
H717 H 0.18651 0.66574 0.51557 0.0
H718 H 0.19777 0.68672 0.49728 0.0
H719 H 0.17484 0.6546 0.49473 0.0
C720 C 0.40947 0.62862 0.76064 0.0
C721 C 0.41889 0.6309 0.77767 0.0
C722 C 0.38041 0.63529 0.7559 0.0
C723 C 0.3603 0.64412 0.76854 0.0
C724 C 0.37029 0.64853 0.78551 0.0
C725 C 0.39952 0.64193 0.78987 0.0
C726 C 0.37073 0.63071 0.73762 0.0
C727 C 0.34955 0.65777 0.79939 0.0
C728 C 0.28335 0.66936 0.75579 0.0
C729 C 0.26733 0.64315 0.75738 0.0
C730 C 0.31372 0.67014 0.75929 0.0
C731 C 0.32826 0.64418 0.76463 0.0
C732 C 0.31215 0.61778 0.76638 0.0
C733 C 0.28201 0.61757 0.76267 0.0
C734 C 0.33029 0.69861 0.75718 0.0
C735 C 0.32676 0.58963 0.77218 0.0
H736 H 0.42452 0.62041 0.75116 0.0
H737 H 0.4066 0.64345 0.80309 0.0
H738 H 0.35717 0.6105 0.7367 0.0
H739 H 0.35693 0.64932 0.73314 0.0
H740 H 0.3897 0.62834 0.72896 0.0
H741 H 0.36146 0.66433 0.81124 0.0
H742 H 0.33558 0.67635 0.79508 0.0
H743 H 0.33473 0.63918 0.80246 0.0
H744 H 0.27225 0.68921 0.75164 0.0
H745 H 0.2699 0.59721 0.76404 0.0
H746 H 0.34795 0.69575 0.7477 0.0
H747 H 0.34103 0.70489 0.76941 0.0
H748 H 0.31577 0.71687 0.75293 0.0
H749 H 0.34428 0.58343 0.76316 0.0
H750 H 0.31101 0.57107 0.77308 0.0
H751 H 0.33732 0.59287 0.78487 0.0
C752 C 0.43816 0.87233 0.01691 0.0
C753 C 0.44069 0.87614 0.0346 0.0
C754 C 0.42401 0.8475 0.01 0.0
C755 C 0.41187 0.82625 0.02107 0.0
C756 C 0.41362 0.83051 0.03894 0.0
C757 C 0.42811 0.85532 0.04547 0.0
C758 C 0.42277 0.84358 0.9909 0.0
C759 C 0.40067 0.80857 0.0512 0.0
C760 C 0.35513 0.77011 0.00645 0.0
C761 C 0.3721 0.74444 0.00586 0.0
C762 C 0.36798 0.79727 0.01068 0.0
C763 C 0.39853 0.79877 0.0142 0.0
C764 C 0.41598 0.7732 0.01266 0.0
C765 C 0.40253 0.74633 0.00861 0.0
C766 C 0.34861 0.82401 0.01226 0.0
C767 C 0.44868 0.77393 0.01611 0.0
H768 H 0.448 0.88835 0.00849 0.0
H769 H 0.42963 0.85846 0.05916 0.0
H770 H 0.43557 0.82386 0.98729 0.0
H771 H 0.39978 0.83989 0.98656 0.0
H772 H 0.43174 0.86288 0.98402 0.0
H773 H 0.40261 0.81589 0.06467 0.0
H774 H 0.37711 0.80488 0.0481 0.0
H775 H 0.41203 0.78715 0.04993 0.0
H776 H 0.33159 0.76879 0.00436 0.0
H777 H 0.41582 0.72661 0.00803 0.0
H778 H 0.35803 0.84278 0.00516 0.0
H779 H 0.34744 0.83061 0.02586 0.0
H780 H 0.32594 0.81989 0.00744 0.0
H781 H 0.45905 0.79195 0.0088 0.0
H782 H 0.45951 0.7529 0.01272 0.0
H783 H 0.45287 0.77833 0.02984 0.0
C784 C 0.12073 0.6128 0.95601 0.0
C785 C 0.10194 0.59941 0.96773 0.0
C786 C 0.14939 0.62103 0.96075 0.0
C787 C 0.15944 0.61587 0.97764 0.0
C788 C 0.14 0.60391 0.98977 0.0
C789 C 0.11151 0.59569 0.98465 0.0
C790 C 0.16947 0.63355 0.94739 0.0
C791 C 0.14978 0.59836 0.00795 0.0
C792 C 0.24055 0.60002 0.98416 0.0
C793 C 0.25125 0.62692 0.99041 0.0
C794 C 0.21079 0.59629 0.97993 0.0
C795 C 0.19104 0.61995 0.98209 0.0
C796 C 0.20156 0.64716 0.98841 0.0
C797 C 0.23158 0.65038 0.99245 0.0
C798 C 0.20049 0.56694 0.97312 0.0
C799 C 0.18108 0.6728 0.99098 0.0
H800 H 0.11356 0.61541 0.94286 0.0
H801 H 0.09693 0.58564 0.99379 0.0
H802 H 0.18057 0.65364 0.95223 0.0
H803 H 0.18684 0.61732 0.94443 0.0
H804 H 0.15749 0.63905 0.93539 0.0
H805 H 0.13117 0.59209 0.01624 0.0
H806 H 0.16619 0.58035 0.00825 0.0
H807 H 0.16057 0.61818 0.01336 0.0
H808 H 0.25547 0.58174 0.98248 0.0
H809 H 0.23955 0.67121 0.99732 0.0
H810 H 0.19015 0.56982 0.96035 0.0
H811 H 0.18358 0.55758 0.98162 0.0
H812 H 0.21872 0.55086 0.97203 0.0
H813 H 0.17024 0.67872 0.97871 0.0
H814 H 0.19268 0.69247 0.99606 0.0
H815 H 0.16349 0.6666 -4e-05 0.0
C816 C 0.40952 0.61418 0.23371 0.0
C817 C 0.43595 0.6178 0.22487 0.0
C818 C 0.39601 0.63809 0.24185 0.0
C819 C 0.40881 0.66636 0.24072 0.0
C820 C 0.4357 0.67001 0.2321 0.0
C821 C 0.44917 0.64567 0.22463 0.0
C822 C 0.36786 0.6332 0.25141 0.0
C823 C 0.45005 0.69982 0.23043 0.0
C824 C 0.36666 0.73776 0.24326 0.0
C825 C 0.37848 0.74969 0.25829 0.0
C826 C 0.37467 0.70949 0.23789 0.0
C827 C 0.39424 0.6926 0.2481 0.0
C828 C 0.4037 0.70349 0.26416 0.0
C829 C 0.39618 0.7322 0.26891 0.0
C830 C 0.36458 0.69903 0.22052 0.0
C831 C 0.42365 0.68578 0.27572 0.0
H832 H 0.39899 0.59284 0.23396 0.0
H833 H 0.47008 0.64865 0.21842 0.0
H834 H 0.36942 0.64322 0.26429 0.0
H835 H 0.34939 0.64404 0.24456 0.0
H836 H 0.3626 0.60949 0.25279 0.0
H837 H 0.47036 0.69906 0.22274 0.0
H838 H 0.43452 0.71552 0.22433 0.0
H839 H 0.45578 0.70861 0.24323 0.0
H840 H 0.35319 0.75143 0.23498 0.0
H841 H 0.40516 0.7414 0.2806 0.0
H842 H 0.35696 0.67592 0.22108 0.0
H843 H 0.38334 0.69985 0.21162 0.0
H844 H 0.34655 0.71282 0.2152 0.0
H845 H 0.41658 0.66246 0.27609 0.0
H846 H 0.42409 0.6946 0.28892 0.0
H847 H 0.44635 0.68636 0.27075 0.0
C848 C 0.35404 0.95489 0.49344 0.0
C849 C 0.35742 0.95715 0.47574 0.0
C850 C 0.33161 0.93745 0.50037 0.0
C851 C 0.3123 0.92191 0.4893 0.0
C852 C 0.31648 0.92321 0.47146 0.0
C853 C 0.33895 0.94077 0.46492 0.0
C854 C 0.32789 0.93653 0.51945 0.0
C855 C 0.29655 0.90683 0.45919 0.0
C856 C 0.26169 0.8598 0.50245 0.0
C857 C 0.23435 0.87398 0.50205 0.0
C858 C 0.28773 0.8755 0.49944 0.0
C859 C 0.28629 0.90603 0.49602 0.0
C860 C 0.25897 0.92073 0.49686 0.0
C861 C 0.23334 0.90453 0.49984 0.0
C862 C 0.31647 0.85906 0.49877 0.0
C863 C 0.25645 0.95329 0.49343 0.0
H864 H 0.36827 0.96755 0.50184 0.0
H865 H 0.34189 0.94197 0.45124 0.0
H866 H 0.30732 0.94803 0.52289 0.0
H867 H 0.32588 0.9135 0.52391 0.0
H868 H 0.34651 0.94716 0.52634 0.0
H869 H 0.3038 0.90882 0.44577 0.0
H870 H 0.29576 0.8832 0.46261 0.0
H871 H 0.27386 0.91553 0.46005 0.0
H872 H 0.26264 0.8362 0.5042 0.0
H873 H 0.21231 0.91569 0.49969 0.0
H874 H 0.33399 0.87123 0.50573 0.0
H875 H 0.32339 0.85704 0.4853 0.0
H876 H 0.31467 0.83665 0.50426 0.0
H877 H 0.27315 0.9656 0.50095 0.0
H878 H 0.23435 0.96196 0.49652 0.0
H879 H 0.26066 0.95762 0.47975 0.0
C880 C 0.0532 0.86511 0.73647 0.0
C881 C 0.05206 0.87019 0.71885 0.0
C882 C 0.06906 0.84119 0.74322 0.0
C883 C 0.08435 0.82229 0.73205 0.0
C884 C 0.08399 0.82799 0.71431 0.0
C885 C 0.06774 0.85177 0.70793 0.0
C886 C 0.06877 0.83564 0.76218 0.0
C887 C 0.10033 0.80865 0.70198 0.0
C888 C 0.14563 0.77145 0.74673 0.0
C889 C 0.13168 0.744 0.74587 0.0
C890 C 0.13014 0.79741 0.74309 0.0
C891 C 0.09995 0.79584 0.73865 0.0
C892 C 0.08538 0.76836 0.73877 0.0
C893 C 0.10147 0.74274 0.74229 0.0
C894 C 0.1465 0.82627 0.743 0.0
C895 C 0.05312 0.76581 0.73432 0.0
H896 H 0.04096 0.87929 0.74491 0.0
H897 H 0.06718 0.85596 0.69432 0.0
H898 H 0.05774 0.81439 0.76477 0.0
H899 H 0.09155 0.83393 0.76726 0.0
H900 H 0.05716 0.85325 0.76921 0.0
H901 H 0.09892 0.81692 0.68867 0.0
H902 H 0.12383 0.80717 0.7058 0.0
H903 H 0.09118 0.78606 0.70229 0.0
H904 H 0.16899 0.77258 0.74951 0.0
H905 H 0.0905 0.72161 0.74174 0.0
H906 H 0.13432 0.84315 0.75025 0.0
H907 H 0.14831 0.83428 0.72969 0.0
H908 H 0.16898 0.82423 0.74854 0.0
H909 H 0.04021 0.78196 0.74171 0.0
H910 H 0.04439 0.74345 0.73686 0.0
H911 H 0.04966 0.77086 0.72061 0.0
C912 C 0.64546 0.46389 0.75752 0.0
C913 C 0.64101 0.46447 0.77517 0.0
C914 C 0.66814 0.44692 0.75052 0.0
C915 C 0.68654 0.43012 0.76146 0.0
C916 C 0.68126 0.42973 0.77921 0.0
C917 C 0.6586 0.4469 0.78583 0.0
C918 C 0.67309 0.44782 0.73154 0.0
C919 C 0.70016 0.41192 0.79134 0.0
C920 C 0.73667 0.36824 0.7478 0.0
C921 C 0.76428 0.38171 0.74943 0.0
C922 C 0.71077 0.38427 0.75047 0.0
C923 C 0.71263 0.41441 0.7548 0.0
C924 C 0.74033 0.42856 0.7551 0.0
C925 C 0.76583 0.41202 0.75245 0.0
C926 C 0.68164 0.36843 0.74991 0.0
C927 C 0.74328 0.46073 0.75951 0.0
H928 H 0.63189 0.4775 0.74926 0.0
H929 H 0.65482 0.44687 0.79945 0.0
H930 H 0.69402 0.45938 0.72893 0.0
H931 H 0.6751 0.42525 0.72637 0.0
H932 H 0.65505 0.45934 0.72461 0.0
H933 H 0.69213 0.41278 0.80465 0.0
H934 H 0.70076 0.38863 0.78721 0.0
H935 H 0.72305 0.42031 0.7912 0.0
H936 H 0.73531 0.34483 0.74539 0.0
H937 H 0.78709 0.42264 0.75354 0.0
H938 H 0.66487 0.38164 0.74298 0.0
H939 H 0.67374 0.36521 0.76311 0.0
H940 H 0.68335 0.34657 0.74372 0.0
H941 H 0.72724 0.47399 0.75206 0.0
H942 H 0.76573 0.46922 0.75707 0.0
H943 H 0.73842 0.46396 0.77321 0.0
C944 C 0.57744 0.14582 0.03989 0.0
C945 C 0.57279 0.12068 0.02986 0.0
C946 C 0.58742 0.1721 0.0327 0.0
C947 C 0.59339 0.17326 0.01505 0.0
C948 C 0.59025 0.1476 0.00499 0.0
C949 C 0.57985 0.12159 0.0125 0.0
C950 C 0.59044 0.19895 0.04391 0.0
C951 C 0.59678 0.14792 0.98617 0.0
C952 C 0.58374 0.24934 0.99636 0.0
C953 C 0.61259 0.26028 0.99685 0.0
C954 C 0.57744 0.22053 0.00143 0.0
C955 C 0.60054 0.20203 0.00709 0.0
C956 C 0.62989 0.21229 0.00674 0.0
C957 C 0.63559 0.24133 0.00163 0.0
C958 C 0.54582 0.21044 0.00158 0.0
C959 C 0.65512 0.1931 0.01253 0.0
H960 H 0.57281 0.14509 0.05341 0.0
H961 H 0.57632 0.10229 0.00466 0.0
H962 H 0.61278 0.20843 0.04281 0.0
H963 H 0.57458 0.216 0.03963 0.0
H964 H 0.58633 0.19399 0.05754 0.0
H965 H 0.59658 0.1255 0.98059 0.0
H966 H 0.5801 0.16143 0.97936 0.0
H967 H 0.61853 0.1581 0.98389 0.0
H968 H 0.56581 0.26359 0.99247 0.0
H969 H 0.65797 0.24946 0.00197 0.0
H970 H 0.53882 0.20702 0.01494 0.0
H971 H 0.54347 0.18911 0.99487 0.0
H972 H 0.53075 0.22659 0.99547 0.0
H973 H 0.65414 0.18993 0.02654 0.0
H974 H 0.67677 0.20286 0.00941 0.0
H975 H 0.6535 0.17106 0.00655 0.0
C976 C 0.89035 0.09065 0.26998 0.0
C977 C 0.89981 0.0948 0.28688 0.0
C978 C 0.86171 0.09821 0.2648 0.0
C979 C 0.84201 0.10987 0.27688 0.0
C980 C 0.85174 0.11494 0.29383 0.0
C981 C 0.88057 0.10744 0.29861 0.0
C982 C 0.85225 0.0928 0.24655 0.0
C983 C 0.83132 0.12708 0.30712 0.0
C984 C 0.77147 0.14679 0.26167 0.0
C985 C 0.751 0.12387 0.26322 0.0
C986 C 0.80122 0.14255 0.26596 0.0
C987 C 0.81068 0.11484 0.27209 0.0
C988 C 0.79014 0.0917 0.27377 0.0
C989 C 0.76063 0.09644 0.26925 0.0
C990 C 0.82256 0.16765 0.26386 0.0
C991 C 0.79932 0.06189 0.28042 0.0
H992 H 0.90528 0.08111 0.26085 0.0
H993 H 0.88766 0.11032 0.31175 0.0
H994 H 0.83518 0.0754 0.24613 0.0
H995 H 0.84233 0.11296 0.24102 0.0
H996 H 0.87084 0.08585 0.23845 0.0
H997 H 0.84281 0.13151 0.31943 0.0
H998 H 0.82105 0.14774 0.30253 0.0
H999 H 0.81333 0.11116 0.30943 0.0
H1000 H 0.76432 0.16801 0.25694 0.0
H1001 H 0.74505 0.0786 0.27056 0.0
H1002 H 0.84033 0.16114 0.25507 0.0
H1003 H 0.83308 0.17299 0.27631 0.0
H1004 H 0.81176 0.18775 0.25878 0.0
H1005 H 0.81627 0.0523 0.27205 0.0
H1006 H 0.78058 0.04631 0.28112 0.0
H1007 H 0.80928 0.06413 0.29333 0.0
C1008 C 0.94614 0.36246 0.51591 0.0
C1009 C 0.94767 0.3673 0.53354 0.0
C1010 C 0.92972 0.33892 0.50914 0.0
C1011 C 0.91426 0.32012 0.5203 0.0
C1012 C 0.91503 0.32557 0.53807 0.0
C1013 C 0.93182 0.34899 0.54447 0.0
C1014 C 0.92959 0.33365 0.49015 0.0
C1015 C 0.89857 0.3063 0.5504 0.0
C1016 C 0.85221 0.27009 0.50553 0.0
C1017 C 0.8659 0.24251 0.50612 0.0
C1018 C 0.868 0.29583 0.50934 0.0
C1019 C 0.89823 0.29392 0.51367 0.0
C1020 C 0.9125 0.26631 0.5133 0.0
C1021 C 0.89613 0.24092 0.50962 0.0
C1022 C 0.85197 0.32484 0.50968 0.0
C1023 C 0.94478 0.26336 0.51763 0.0
H1024 H 0.95851 0.37653 0.50746 0.0
H1025 H 0.93264 0.35299 0.55809 0.0
H1026 H 0.94026 0.3123 0.48739 0.0
H1027 H 0.9067 0.3323 0.4852 0.0
H1028 H 0.94133 0.35121 0.48313 0.0
H1029 H 0.90029 0.31439 0.56374 0.0
H1030 H 0.875 0.30518 0.54668 0.0
H1031 H 0.90737 0.2836 0.54996 0.0
H1032 H 0.82884 0.27147 0.50283 0.0
H1033 H 0.90689 0.21969 0.50996 0.0
H1034 H 0.86421 0.34172 0.50245 0.0
H1035 H 0.85047 0.33265 0.52304 0.0
H1036 H 0.82938 0.32311 0.50426 0.0
H1037 H 0.9578 0.27944 0.51024 0.0
H1038 H 0.95321 0.24094 0.515 0.0
H1039 H 0.94844 0.26826 0.53135 0.0
C1040 C 0.59798 0.13771 0.46104 0.0
C1041 C 0.57885 0.12604 0.47318 0.0
C1042 C 0.62705 0.14499 0.46543 0.0
C1043 C 0.63714 0.14059 0.48239 0.0
C1044 C 0.61723 0.13109 0.49498 0.0
C1045 C 0.58833 0.12377 0.4902 0.0
C1046 C 0.64757 0.15494 0.4516 0.0
C1047 C 0.62702 0.12648 0.51324 0.0
C1048 C 0.71587 0.11542 0.48822 0.0
C1049 C 0.7301 0.14114 0.49373 0.0
C1050 C 0.68575 0.11517 0.48442 0.0
C1051 C 0.6692 0.14124 0.48628 0.0
C1052 C 0.68329 0.16736 0.4918 0.0
C1053 C 0.71366 0.16705 0.49539 0.0
C1054 C 0.67165 0.08686 0.47843 0.0
C1055 C 0.66625 0.19548 0.49403 0.0
H1056 H 0.59087 0.13926 0.44783 0.0
H1057 H 0.57347 0.11509 0.49966 0.0
H1058 H 0.6612 0.17371 0.45601 0.0
H1059 H 0.66272 0.13672 0.44839 0.0
H1060 H 0.63549 0.1615 0.43981 0.0
H1061 H 0.6081 0.12354 0.52189 0.0
H1062 H 0.64101 0.10657 0.51407 0.0
H1063 H 0.64041 0.14534 0.5178 0.0
H1064 H 0.7283 0.0953 0.48677 0.0
H1065 H 0.72442 0.187 0.4997 0.0
H1066 H 0.66103 0.09015 0.46577 0.0
H1067 H 0.65426 0.08013 0.48741 0.0
H1068 H 0.68774 0.06863 0.47741 0.0
H1069 H 0.65524 0.20165 0.48185 0.0
H1070 H 0.68048 0.21399 0.49826 0.0
H1071 H 0.64877 0.19221 0.50358 0.0
C1072 C 0.91156 0.12898 0.71565 0.0
C1073 C 0.90003 0.10234 0.72146 0.0
C1074 C 0.90119 0.15584 0.7218 0.0
C1075 C 0.87898 0.15607 0.73429 0.0
C1076 C 0.86666 0.12921 0.7399 0.0
C1077 C 0.87721 0.10255 0.73329 0.0
C1078 C 0.91463 0.18396 0.71526 0.0
C1079 C 0.84319 0.12861 0.75331 0.0
C1080 C 0.88447 0.22529 0.76057 0.0
C1081 C 0.86382 0.24345 0.75238 0.0
C1082 C 0.88785 0.19588 0.75575 0.0
C1083 C 0.87055 0.18449 0.74217 0.0
C1084 C 0.84826 0.20211 0.73465 0.0
C1085 C 0.84499 0.2314 0.73996 0.0
C1086 C 0.91149 0.1777 0.76435 0.0
C1087 C 0.8295 0.19084 0.72006 0.0
H1088 H 0.92888 0.12875 0.70628 0.0
H1089 H 0.86831 0.08187 0.73774 0.0
H1090 H 0.89716 0.19912 0.71068 0.0
H1091 H 0.92669 0.19521 0.72576 0.0
H1092 H 0.93014 0.18002 0.70468 0.0
H1093 H 0.83403 0.10622 0.75516 0.0
H1094 H 0.85256 0.13635 0.76563 0.0
H1095 H 0.82501 0.14375 0.7498 0.0
H1096 H 0.89887 0.2344 0.77033 0.0
H1097 H 0.82905 0.24539 0.73356 0.0
H1098 H 0.9301 0.17476 0.7555 0.0
H1099 H 0.90303 0.15554 0.76754 0.0
H1100 H 0.91998 0.18823 0.7762 0.0
H1101 H 0.84291 0.1898 0.70836 0.0
H1102 H 0.81028 0.20527 0.71749 0.0
H1103 H 0.82153 0.16829 0.72271 0.0
C1104 C 0.86813 0.43896 0.98775 0.0
C1105 C 0.87721 0.43546 0.97084 0.0
C1106 C 0.84232 0.4255 0.99356 0.0
C1107 C 0.82503 0.40852 0.98211 0.0
C1108 C 0.83472 0.40405 0.96522 0.0
C1109 C 0.86073 0.41747 0.95982 0.0
C1110 C 0.83295 0.43042 0.01172 0.0
C1111 C 0.8168 0.38635 0.95254 0.0
C1112 C 0.76323 0.35799 0.9961 0.0
C1113 C 0.73847 0.37538 0.99255 0.0
C1114 C 0.79175 0.36892 0.99355 0.0
C1115 C 0.79549 0.39776 0.98714 0.0
C1116 C 0.77059 0.41577 0.98424 0.0
C1117 C 0.74244 0.40442 0.98706 0.0
C1118 C 0.81779 0.34922 0.99702 0.0
C1119 C 0.77357 0.44661 0.97735 0.0
H1120 H 0.88098 0.45263 0.99635 0.0
H1121 H 0.86743 0.41501 0.94668 0.0
H1122 H 0.8131 0.44453 0.01186 0.0
H1123 H 0.82705 0.40924 0.01779 0.0
H1124 H 0.85042 0.44119 0.01952 0.0
H1125 H 0.82837 0.38328 0.94028 0.0
H1126 H 0.81157 0.36444 0.95789 0.0
H1127 H 0.79565 0.39767 0.94991 0.0
H1128 H 0.76034 0.33556 0.00041 0.0
H1129 H 0.72345 0.41805 0.98432 0.0
H1130 H 0.83463 0.36096 0.00478 0.0
H1131 H 0.82813 0.34308 0.9848 0.0
H1132 H 0.81146 0.32878 0.0038 0.0
H1133 H 0.78898 0.45954 0.98543 0.0
H1134 H 0.75218 0.45832 0.97671 0.0
H1135 H 0.78283 0.44583 0.96433 0.0
C1136 C 0.57866 0.37915 0.23942 0.0
C1137 C 0.5847 0.38857 0.22279 0.0
C1138 C 0.58979 0.3524 0.24567 0.0
C1139 C 0.60722 0.33462 0.23499 0.0
C1140 C 0.61412 0.34445 0.21839 0.0
C1141 C 0.6028 0.37129 0.2125 0.0
C1142 C 0.58218 0.34277 0.2635 0.0
C1143 C 0.63253 0.32608 0.20657 0.0
C1144 C 0.65461 0.27231 0.25215 0.0
C1145 C 0.63739 0.24772 0.24797 0.0
C1146 C 0.64461 0.30089 0.24862 0.0
C1147 C 0.61681 0.3049 0.24067 0.0
C1148 C 0.59888 0.28021 0.23706 0.0
C1149 C 0.60936 0.25193 0.24078 0.0
C1150 C 0.66426 0.3267 0.25277 0.0
C1151 C 0.56909 0.28355 0.22859 0.0
H1152 H 0.56494 0.39257 0.24749 0.0
H1153 H 0.6072 0.3782 0.19955 0.0
H1154 H 0.56815 0.32285 0.26289 0.0
H1155 H 0.60241 0.33684 0.27073 0.0
H1156 H 0.57031 0.36008 0.27062 0.0
H1157 H 0.63724 0.33759 0.19441 0.0
H1158 H 0.65369 0.32024 0.21286 0.0
H1159 H 0.6209 0.30525 0.20358 0.0
H1160 H 0.67627 0.26924 0.25776 0.0
H1161 H 0.59589 0.23305 0.23755 0.0
H1162 H 0.65199 0.34354 0.26001 0.0
H1163 H 0.67164 0.33715 0.24078 0.0
H1164 H 0.68397 0.32013 0.26034 0.0
H1165 H 0.55543 0.29927 0.23582 0.0
H1166 H 0.55712 0.26233 0.2276 0.0
H1167 H 0.57172 0.29263 0.21557 0.0
C1168 C 0.08033 0.90396 0.38366 0.0
C1169 C 0.09944 0.92673 0.37912 0.0
C1170 C 0.08697 0.88522 0.39735 0.0
C1171 C 0.11342 0.88932 0.40673 0.0
C1172 C 0.13378 0.91093 0.4014 0.0
C1173 C 0.12638 0.92963 0.38777 0.0
C1174 C 0.06438 0.86265 0.40228 0.0
C1175 C 0.16284 0.91515 0.41055 0.0
C1176 C 0.11765 0.8739 0.45417 0.0
C1177 C 0.13118 0.84632 0.45468 0.0
C1178 C 0.11045 0.88736 0.43861 0.0
C1179 C 0.11843 0.87362 0.42316 0.0
C1180 C 0.13229 0.84578 0.42358 0.0
C1181 C 0.13844 0.83239 0.43938 0.0
C1182 C 0.09488 0.91664 0.43873 0.0
C1183 C 0.14128 0.8306 0.40737 0.0
H1184 H 0.05934 0.90174 0.3771 0.0
H1185 H 0.14139 0.94695 0.3841 0.0
H1186 H 0.04716 0.87372 0.40978 0.0
H1187 H 0.05355 0.85321 0.39076 0.0
H1188 H 0.07376 0.84447 0.40999 0.0
H1189 H 0.17777 0.92993 0.40345 0.0
H1190 H 0.15908 0.92479 0.42333 0.0
H1191 H 0.17392 0.89368 0.41249 0.0
H1192 H 0.11348 0.8854 0.46598 0.0
H1193 H 0.14957 0.81136 0.43981 0.0
H1194 H 0.07447 0.91529 0.43088 0.0
H1195 H 0.10901 0.93375 0.43299 0.0
H1196 H 0.08909 0.92375 0.4518 0.0
H1197 H 0.12177 0.8272 0.39898 0.0
H1198 H 0.15179 0.80898 0.40986 0.0
H1199 H 0.1569 0.84468 0.40032 0.0
C1200 C 0.14936 0.56329 0.63345 0.0
C1201 C 0.12392 0.57435 0.62545 0.0
C1202 C 0.16179 0.57713 0.64776 0.0
C1203 C 0.14912 0.60336 0.65395 0.0
C1204 C 0.12586 0.61669 0.64461 0.0
C1205 C 0.11309 0.60174 0.63069 0.0
C1206 C 0.18697 0.56187 0.65672 0.0
C1207 C 0.11338 0.64601 0.64983 0.0
C1208 C 0.14737 0.61832 0.70154 0.0
C1209 C 0.17264 0.63533 0.70407 0.0
C1210 C 0.14004 0.60712 0.68539 0.0
C1211 C 0.1574 0.6147 0.67117 0.0
C1212 C 0.18227 0.63302 0.67352 0.0
C1213 C 0.1898 0.64283 0.69 0.0
C1214 C 0.1136 0.58726 0.68354 0.0
C1215 C 0.2006 0.64258 0.65861 0.0
H1216 H 0.15889 0.54288 0.62906 0.0
H1217 H 0.09372 0.61089 0.62456 0.0
H1218 H 0.20261 0.55296 0.64727 0.0
H1219 H 0.19923 0.5763 0.66565 0.0
H1220 H 0.17814 0.54294 0.66392 0.0
H1221 H 0.10064 0.65638 0.63926 0.0
H1222 H 0.09847 0.643 0.66076 0.0
H1223 H 0.13117 0.66123 0.65392 0.0
H1224 H 0.13297 0.61422 0.71216 0.0
H1225 H 0.20882 0.65687 0.69186 0.0
H1226 H 0.12023 0.56614 0.67765 0.0
H1227 H 0.09695 0.59742 0.67498 0.0
H1228 H 0.10306 0.58267 0.69595 0.0
H1229 H 0.21146 0.62321 0.65288 0.0
H1230 H 0.21779 0.65872 0.66238 0.0
H1231 H 0.18633 0.65253 0.6486 0.0
C1232 C 0.40811 0.60842 0.8778 0.0
C1233 C 0.43454 0.62319 0.87447 0.0
C1234 C 0.39153 0.61512 0.89226 0.0
C1235 C 0.40202 0.63647 0.90395 0.0
C1236 C 0.42738 0.65301 0.90003 0.0
C1237 C 0.44303 0.64651 0.8852 0.0
C1238 C 0.36406 0.59761 0.89571 0.0
C1239 C 0.43955 0.67575 0.91222 0.0
C1240 C 0.35634 0.65876 0.94227 0.0
C1241 C 0.36637 0.63867 0.95458 0.0
C1242 C 0.36743 0.65826 0.92559 0.0
C1243 C 0.38963 0.63779 0.92139 0.0
C1244 C 0.40022 0.61797 0.93394 0.0
C1245 C 0.38813 0.61834 0.95024 0.0
C1246 C 0.35496 0.67906 0.9124 0.0
C1247 C 0.4244 0.59626 0.93016 0.0
H1248 H 0.40117 0.59033 0.86974 0.0
H1249 H 0.4628 0.65881 0.88248 0.0
H1250 H 0.36888 0.58074 0.90556 0.0
H1251 H 0.34645 0.612 0.90066 0.0
H1252 H 0.35577 0.58628 0.88406 0.0
H1253 H 0.45681 0.68949 0.90627 0.0
H1254 H 0.42188 0.69031 0.91688 0.0
H1255 H 0.44932 0.6645 0.92349 0.0
H1256 H 0.33931 0.67433 0.94556 0.0
H1257 H 0.39606 0.60282 0.95969 0.0
H1258 H 0.34441 0.66632 0.90193 0.0
H1259 H 0.37278 0.69225 0.90665 0.0
H1260 H 0.33843 0.69424 0.91783 0.0
H1261 H 0.41689 0.58057 0.92021 0.0
H1262 H 0.43127 0.58353 0.94163 0.0
H1263 H 0.44389 0.60793 0.92516 0.0
C1264 C 0.44438 0.9236 0.15293 0.0
C1265 C 0.44094 0.91133 0.13666 0.0
C1266 C 0.431 0.91095 0.16713 0.0
C1267 C 0.41396 0.88514 0.16504 0.0
C1268 C 0.40973 0.87304 0.14855 0.0
C1269 C 0.42316 0.88644 0.13448 0.0
C1270 C 0.43577 0.92481 0.18445 0.0
C1271 C 0.39191 0.84543 0.14588 0.0
C1272 C 0.41235 0.84138 0.20596 0.0
C1273 C 0.38584 0.85071 0.21308 0.0
C1274 C 0.42072 0.85068 0.18969 0.0
C1275 C 0.40234 0.87017 0.18042 0.0
C1276 C 0.37471 0.87824 0.18708 0.0
C1277 C 0.36668 0.86823 0.20332 0.0
C1278 C 0.45014 0.84115 0.18294 0.0
C1279 C 0.35459 0.89914 0.17763 0.0
H1280 H 0.45773 0.94316 0.15456 0.0
H1281 H 0.42054 0.87696 0.12187 0.0
H1282 H 0.41435 0.92905 0.19058 0.0
H1283 H 0.44825 0.90953 0.19284 0.0
H1284 H 0.44808 0.94584 0.18371 0.0
H1285 H 0.38872 0.84019 0.13215 0.0
H1286 H 0.40321 0.82666 0.15215 0.0
H1287 H 0.37007 0.84764 0.15186 0.0
H1288 H 0.42707 0.82749 0.21335 0.0
H1289 H 0.34617 0.87555 0.20876 0.0
H1290 H 0.46556 0.86004 0.18323 0.0
H1291 H 0.44798 0.83386 0.16949 0.0
H1292 H 0.45993 0.82301 0.19059 0.0
H1293 H 0.3641 0.92158 0.17807 0.0
H1294 H 0.33234 0.89988 0.18327 0.0
H1295 H 0.35248 0.89281 0.16401 0.0
C1296 C 0.06008 0.60106 0.85255 0.0
C1297 C 0.07174 0.60169 0.86919 0.0
C1298 C 0.07672 0.61015 0.8386 0.0
C1299 C 0.10591 0.61999 0.84128 0.0
C1300 C 0.1176 0.62156 0.85807 0.0
C1301 C 0.10038 0.61234 0.87184 0.0
C1302 C 0.06343 0.60801 0.8209 0.0
C1303 C 0.14859 0.63204 0.86141 0.0
C1304 C 0.15393 0.60729 0.80295 0.0
C1305 C 0.153 0.63476 0.79481 0.0
C1306 C 0.14002 0.60268 0.81855 0.0
C1307 C 0.12469 0.62609 0.82628 0.0
C1308 C 0.12495 0.65429 0.81865 0.0
C1309 C 0.13916 0.65832 0.803 0.0
C1310 C 0.14042 0.57229 0.8263 0.0
C1311 C 0.10892 0.6798 0.82654 0.0
H1312 H 0.0382 0.59238 0.85031 0.0
H1313 H 0.10943 0.6132 0.88467 0.0
H1314 H 0.06567 0.62925 0.81411 0.0
H1315 H 0.07538 0.59122 0.81343 0.0
H1316 H 0.0398 0.6019 0.8211 0.0
H1317 H 0.15345 0.6346 0.87525 0.0
H1318 H 0.16437 0.61606 0.85604 0.0
H1319 H 0.15239 0.65338 0.85497 0.0
H1320 H 0.16486 0.58899 0.79687 0.0
H1321 H 0.13835 0.67964 0.79686 0.0
H1322 H 0.11797 0.56279 0.82577 0.0
H1323 H 0.14722 0.57335 0.83991 0.0
H1324 H 0.15551 0.55721 0.81954 0.0
H1325 H 0.08488 0.67611 0.82541 0.0
H1326 H 0.11428 0.70097 0.82026 0.0
H1327 H 0.11438 0.68152 0.84033 0.0
C1328 C 0.3914 0.56115 0.11428 0.0
C1329 C 0.41171 0.57972 0.12237 0.0
C1330 C 0.37548 0.57052 0.09986 0.0
C1331 C 0.37972 0.59939 0.09356 0.0
C1332 C 0.39831 0.61903 0.10267 0.0
C1333 C 0.41455 0.60878 0.11678 0.0
C1334 C 0.35534 0.54861 0.0913 0.0
C1335 C 0.4019 0.65058 0.09713 0.0
C1336 C 0.37565 0.61694 0.04636 0.0
C1337 C 0.34714 0.62803 0.04451 0.0
C1338 C 0.38591 0.60627 0.06209 0.0
C1339 C 0.36774 0.60819 0.07657 0.0
C1340 C 0.33893 0.6196 0.07482 0.0
C1341 C 0.32893 0.62935 0.05875 0.0
C1342 C 0.41642 0.59335 0.06328 0.0
C1343 C 0.31901 0.62205 0.08997 0.0
H1344 H 0.38908 0.53866 0.11864 0.0
H1345 H 0.42993 0.62329 0.12325 0.0
H1346 H 0.36832 0.5292 0.08735 0.0
H1347 H 0.33896 0.54069 0.10062 0.0
H1348 H 0.34343 0.55755 0.08009 0.0
H1349 H 0.41319 0.66405 0.10703 0.0
H1350 H 0.41501 0.65151 0.08531 0.0
H1351 H 0.38014 0.66052 0.09422 0.0
H1352 H 0.39027 0.61735 0.03557 0.0
H1353 H 0.30708 0.63858 0.05737 0.0
H1354 H 0.41537 0.57095 0.06884 0.0
H1355 H 0.43047 0.60686 0.07185 0.0
H1356 H 0.42716 0.5921 0.05067 0.0
H1357 H 0.31479 0.59987 0.09527 0.0
H1358 H 0.29762 0.6324 0.08661 0.0
H1359 H 0.32988 0.63522 0.10015 0.0
C1360 C 0.37007 0.94036 0.37054 0.0
C1361 C 0.3969 0.93821 0.3794 0.0
C1362 C 0.36345 0.92143 0.35689 0.0
C1363 C 0.38442 0.90027 0.3518 0.0
C1364 C 0.41073 0.89688 0.3614 0.0
C1365 C 0.41664 0.91589 0.37508 0.0
C1366 C 0.33463 0.92504 0.3474 0.0
C1367 C 0.43383 0.87485 0.35653 0.0
C1368 C 0.36149 0.84262 0.31906 0.0
C1369 C 0.3693 0.85644 0.30381 0.0
C1370 C 0.36673 0.85631 0.33488 0.0
C1371 C 0.38026 0.88432 0.33538 0.0
C1372 C 0.38865 0.89803 0.31998 0.0
C1373 C 0.38237 0.88425 0.30439 0.0
C1374 C 0.35693 0.84129 0.35099 0.0
C1375 C 0.40366 0.92763 0.31994 0.0
H1376 H 0.35458 0.95733 0.37402 0.0
H1377 H 0.43754 0.9143 0.38179 0.0
H1378 H 0.33866 0.93477 0.33467 0.0
H1379 H 0.32402 0.90336 0.34534 0.0
H1380 H 0.31918 0.93952 0.35432 0.0
H1381 H 0.4484 0.86926 0.36752 0.0
H1382 H 0.42396 0.85434 0.35145 0.0
H1383 H 0.44757 0.88463 0.34646 0.0
H1384 H 0.35066 0.82142 0.31857 0.0
H1385 H 0.38694 0.89565 0.2926 0.0
H1386 H 0.34006 0.85491 0.35734 0.0
H1387 H 0.37569 0.83904 0.36005 0.0
H1388 H 0.34755 0.81915 0.34848 0.0
H1389 H 0.38894 0.9445 0.32538 0.0
H1390 H 0.40986 0.93469 0.30691 0.0
H1391 H 0.42376 0.92684 0.32807 0.0
C1392 C 0.05436 0.91854 0.60237 0.0
C1393 C 0.05723 0.90759 0.61899 0.0
C1394 C 0.06994 0.90608 0.58892 0.0
C1395 C 0.08869 0.88184 0.59214 0.0
C1396 C 0.09269 0.87148 0.60904 0.0
C1397 C 0.07696 0.88462 0.62234 0.0
C1398 C 0.06529 0.91807 0.57112 0.0
C1399 C 0.11241 0.84565 0.61294 0.0
C1400 C 0.09272 0.83399 0.55302 0.0
C1401 C 0.11848 0.84421 0.54542 0.0
C1402 C 0.08404 0.84435 0.56898 0.0
C1403 C 0.10134 0.86581 0.57745 0.0
C1404 C 0.12847 0.87467 0.57041 0.0
C1405 C 0.13685 0.86359 0.55446 0.0
C1406 C 0.0552 0.83393 0.57614 0.0
C1407 C 0.14751 0.8975 0.57906 0.0
H1408 H 0.0395 0.93668 0.59986 0.0
H1409 H 0.07919 0.8762 0.63522 0.0
H1410 H 0.08673 0.92275 0.56512 0.0
H1411 H 0.05384 0.90144 0.56312 0.0
H1412 H 0.05199 0.93852 0.57103 0.0
H1413 H 0.11623 0.84282 0.62686 0.0
H1414 H 0.10216 0.82529 0.60785 0.0
H1415 H 0.13391 0.84827 0.60661 0.0
H1416 H 0.07869 0.81864 0.54616 0.0
H1417 H 0.15678 0.87155 0.5486 0.0
H1418 H 0.03878 0.85189 0.57523 0.0
H1419 H 0.05778 0.82814 0.58981 0.0
H1420 H 0.04637 0.81453 0.56917 0.0
H1421 H 0.13725 0.91944 0.57744 0.0
H1422 H 0.1699 0.89826 0.5736 0.0
H1423 H 0.14938 0.89315 0.59294 0.0
C1424 C 0.62626 0.44297 0.87943 0.0
C1425 C 0.59826 0.44316 0.87184 0.0
C1426 C 0.6328 0.424 0.89307 0.0
C1427 C 0.61048 0.40559 0.89963 0.0
C1428 C 0.5827 0.40455 0.89131 0.0
C1429 C 0.57702 0.42324 0.87745 0.0
C1430 C 0.66329 0.42445 0.90086 0.0
C1431 C 0.55803 0.3851 0.89722 0.0
C1432 C 0.63079 0.34727 0.93255 0.0
C1433 C 0.62783 0.36301 0.94777 0.0
C1434 C 0.62474 0.3606 0.91671 0.0
C1435 C 0.6154 0.39026 0.91619 0.0
C1436 C 0.61179 0.40595 0.9316 0.0
C1437 C 0.61882 0.39237 0.94715 0.0
C1438 C 0.62888 0.34325 0.90055 0.0
C1439 C 0.60093 0.43729 0.93165 0.0
H1440 H 0.64285 0.45807 0.87489 0.0
H1441 H 0.55531 0.42332 0.8716 0.0
H1442 H 0.66275 0.43535 0.91349 0.0
H1443 H 0.67138 0.40171 0.90288 0.0
H1444 H 0.67914 0.43643 0.89274 0.0
H1445 H 0.56458 0.36971 0.90749 0.0
H1446 H 0.53978 0.3991 0.90174 0.0
H1447 H 0.54931 0.37214 0.88628 0.0
H1448 H 0.63844 0.32473 0.93303 0.0
H1449 H 0.61804 0.40502 0.95882 0.0
H1450 H 0.64467 0.35472 0.89218 0.0
H1451 H 0.60768 0.34172 0.89347 0.0
H1452 H 0.63707 0.32067 0.9031 0.0
H1453 H 0.61668 0.45171 0.92496 0.0
H1454 H 0.59804 0.44594 0.94476 0.0
H1455 H 0.57961 0.4387 0.92467 0.0
C1456 C 0.60016 0.11613 0.13269 0.0
C1457 C 0.60416 0.08731 0.12697 0.0
C1458 C 0.61505 0.1264 0.1473 0.0
C1459 C 0.63335 0.10696 0.15674 0.0
C1460 C 0.63895 0.07848 0.15027 0.0
C1461 C 0.62437 0.06908 0.1354 0.0
C1462 C 0.61004 0.1576 0.15309 0.0
C1463 C 0.65834 0.05672 0.1595 0.0
C1464 C 0.67985 0.1355 0.19389 0.0
C1465 C 0.66036 0.13249 0.20748 0.0
C1466 C 0.67154 0.12718 0.17726 0.0
C1467 C 0.64326 0.11515 0.17427 0.0
C1468 C 0.6237 0.11175 0.18803 0.0
C1469 C 0.63221 0.12129 0.20435 0.0
C1470 C 0.69267 0.13189 0.16284 0.0
C1471 C 0.59358 0.09841 0.18549 0.0
H1472 H 0.58475 0.13033 0.12601 0.0
H1473 H 0.62738 0.04671 0.13101 0.0
H1474 H 0.59531 0.15769 0.16425 0.0
H1475 H 0.6311 0.16791 0.15713 0.0
H1476 H 0.59979 0.17123 0.14289 0.0
H1477 H 0.67091 0.04336 0.15026 0.0
H1478 H 0.67404 0.06726 0.16849 0.0
H1479 H 0.64421 0.04145 0.16672 0.0
H1480 H 0.70137 0.14501 0.19624 0.0
H1481 H 0.61651 0.12068 0.2146 0.0
H1482 H 0.68234 0.14607 0.15294 0.0
H1483 H 0.69785 0.11058 0.15673 0.0
H1484 H 0.71353 0.14227 0.16721 0.0
H1485 H 0.58027 0.1121 0.17663 0.0
H1486 H 0.58146 0.09633 0.19763 0.0
H1487 H 0.59563 0.07632 0.17962 0.0
C1488 C 0.90177 0.11088 0.38089 0.0
C1489 C 0.93058 0.1012 0.38409 0.0
C1490 C 0.88364 0.11989 0.39431 0.0
C1491 C 0.89458 0.11902 0.41128 0.0
C1492 C 0.92389 0.11007 0.4145 0.0
C1493 C 0.94147 0.10124 0.4009 0.0
C1494 C 0.85256 0.12945 0.39038 0.0
C1495 C 0.93638 0.10865 0.43242 0.0
C1496 C 0.85887 0.15727 0.44877 0.0
C1497 C 0.84526 0.13353 0.45694 0.0
C1498 C 0.87373 0.1533 0.43333 0.0
C1499 C 0.87495 0.12497 0.42591 0.0
C1500 C 0.85982 0.10135 0.43359 0.0
C1501 C 0.8452 0.10591 0.44897 0.0
C1502 C 0.88946 0.17905 0.42546 0.0
C1503 C 0.86046 0.0708 0.42608 0.0
H1504 H 0.89332 0.1112 0.36792 0.0
H1505 H 0.96351 0.09333 0.40353 0.0
H1506 H 0.83693 0.11321 0.39566 0.0
H1507 H 0.84794 0.15085 0.39655 0.0
H1508 H 0.84828 0.13152 0.37646 0.0
H1509 H 0.96013 0.10305 0.43266 0.0
H1510 H 0.9334 0.13002 0.43897 0.0
H1511 H 0.9244 0.09182 0.43985 0.0
H1512 H 0.859 0.17871 0.45478 0.0
H1513 H 0.83446 0.08746 0.45502 0.0
H1514 H 0.88463 0.18027 0.41158 0.0
H1515 H 0.91353 0.17607 0.42702 0.0
H1516 H 0.88323 0.20022 0.43145 0.0
H1517 H 0.85429 0.07142 0.41236 0.0
H1518 H 0.84539 0.05551 0.43271 0.0
H1519 H 0.88309 0.06185 0.42704 0.0
C1520 C 0.94822 0.41805 0.65046 0.0
C1521 C 0.94533 0.40595 0.63411 0.0
C1522 C 0.93292 0.40631 0.66425 0.0
C1523 C 0.91447 0.38161 0.66168 0.0
C1524 C 0.91062 0.36992 0.64506 0.0
C1525 C 0.92601 0.3824 0.63139 0.0
C1526 C 0.93736 0.41972 0.68172 0.0
C1527 C 0.8913 0.3435 0.64185 0.0
C1528 C 0.90876 0.33657 0.70198 0.0
C1529 C 0.88238 0.34688 0.70881 0.0
C1530 C 0.91839 0.34613 0.68601 0.0
C1531 C 0.90144 0.36687 0.67673 0.0
C1532 C 0.87393 0.37605 0.68308 0.0
C1533 C 0.86461 0.36578 0.69904 0.0
C1534 C 0.94764 0.33542 0.67959 0.0
C1535 C 0.8553 0.39823 0.6736 0.0
H1536 H 0.96283 0.43658 0.65249 0.0
H1537 H 0.92381 0.37306 0.61873 0.0
H1538 H 0.91583 0.42479 0.6875 0.0
H1539 H 0.94874 0.40379 0.69022 0.0
H1540 H 0.95061 0.4402 0.6813 0.0
H1541 H 0.88817 0.33903 0.62802 0.0
H1542 H 0.9014 0.32387 0.64791 0.0
H1543 H 0.86947 0.34667 0.6477 0.0
H1544 H 0.9224 0.32162 0.70936 0.0
H1545 H 0.84421 0.37385 0.70425 0.0
H1546 H 0.96386 0.3536 0.6802 0.0
H1547 H 0.94567 0.32845 0.66608 0.0
H1548 H 0.95632 0.31674 0.68724 0.0
H1549 H 0.86586 0.42016 0.67449 0.0
H1550 H 0.83284 0.39985 0.67891 0.0
H1551 H 0.85354 0.3925 0.65989 0.0
C1552 C 0.5544 0.14106 0.36579 0.0
C1553 C 0.56299 0.11765 0.37642 0.0
C1554 C 0.57033 0.1482 0.35115 0.0
C1555 C 0.59604 0.1322 0.3473 0.0
C1556 C 0.60644 0.11058 0.35885 0.0
C1557 C 0.58962 0.10327 0.37312 0.0
C1558 C 0.55823 0.17119 0.33909 0.0
C1559 C 0.63423 0.09357 0.35548 0.0
C1560 C 0.61243 0.11664 0.30098 0.0
C1561 C 0.63417 0.13747 0.29734 0.0
C1562 C 0.59952 0.11528 0.31705 0.0
C1563 C 0.60921 0.13462 0.33008 0.0
C1564 C 0.63134 0.1556 0.32659 0.0
C1565 C 0.64328 0.15709 0.31013 0.0
C1566 C 0.57546 0.09304 0.32006 0.0
C1567 C 0.64282 0.17596 0.34031 0.0
H1568 H 0.53443 0.15305 0.36847 0.0
H1569 H 0.59661 0.08509 0.38109 0.0
H1570 H 0.57581 0.18635 0.33494 0.0
H1571 H 0.54927 0.16024 0.3275 0.0
H1572 H 0.54039 0.18427 0.34493 0.0
H1573 H 0.64217 0.08167 0.36701 0.0
H1574 H 0.63 0.07724 0.34524 0.0
H1575 H 0.65189 0.10844 0.35105 0.0
H1576 H 0.60518 0.10148 0.29115 0.0
H1577 H 0.66027 0.17305 0.30741 0.0
H1578 H 0.55556 0.10417 0.32491 0.0
H1579 H 0.58269 0.07699 0.32989 0.0
H1580 H 0.56935 0.08078 0.3083 0.0
H1581 H 0.62452 0.18868 0.34589 0.0
H1582 H 0.65949 0.19157 0.33543 0.0
H1583 H 0.6529 0.16288 0.35079 0.0
C1584 C 0.84968 0.06304 0.61835 0.0
C1585 C 0.87504 0.07476 0.62613 0.0
C1586 C 0.83674 0.07636 0.60402 0.0
C1587 C 0.84878 0.10274 0.5976 0.0
C1588 C 0.87195 0.1167 0.6067 0.0
C1589 C 0.88526 0.10225 0.62062 0.0
C1590 C 0.81171 0.06045 0.59528 0.0
C1591 C 0.88378 0.14617 0.60122 0.0
C1592 C 0.84991 0.11728 0.54997 0.0
C1593 C 0.82445 0.13396 0.54746 0.0
C1594 C 0.85745 0.10622 0.56612 0.0
C1595 C 0.84006 0.11362 0.58035 0.0
C1596 C 0.81493 0.13155 0.57802 0.0
C1597 C 0.80721 0.14122 0.56153 0.0
C1598 C 0.88416 0.08676 0.56796 0.0
C1599 C 0.79657 0.14092 0.59295 0.0
H1600 H 0.84056 0.04256 0.62295 0.0
H1601 H 0.90459 0.11192 0.62653 0.0
H1602 H 0.79897 0.07454 0.58639 0.0
H1603 H 0.82078 0.04168 0.58806 0.0
H1604 H 0.79647 0.05125 0.60487 0.0
H1605 H 0.89658 0.15695 0.61162 0.0
H1606 H 0.89847 0.14327 0.59018 0.0
H1607 H 0.86563 0.16098 0.59719 0.0
H1608 H 0.86434 0.11338 0.53934 0.0
H1609 H 0.78803 0.155 0.55968 0.0
H1610 H 0.87787 0.06561 0.57396 0.0
H1611 H 0.90076 0.09726 0.57642 0.0
H1612 H 0.89464 0.0822 0.55554 0.0
H1613 H 0.78628 0.1214 0.59888 0.0
H1614 H 0.77895 0.15655 0.58915 0.0
H1615 H 0.81074 0.15143 0.60282 0.0
C1616 C 0.91779 0.39455 0.87153 0.0
C1617 C 0.90354 0.42068 0.87603 0.0
C1618 C 0.9076 0.37728 0.85793 0.0
C1619 C 0.88223 0.3861 0.84868 0.0
C1620 C 0.86584 0.41057 0.85441 0.0
C1621 C 0.87686 0.42782 0.86791 0.0
C1622 C 0.92585 0.35123 0.85277 0.0
C1623 C 0.83764 0.41969 0.84558 0.0
C1624 C 0.87868 0.37435 0.80083 0.0
C1625 C 0.86239 0.34838 0.79942 0.0
C1626 C 0.88603 0.3862 0.8168 0.0
C1627 C 0.87535 0.37268 0.83177 0.0
C1628 C 0.85805 0.3469 0.83043 0.0
C1629 C 0.85197 0.3349 0.81424 0.0
C1630 C 0.90502 0.41339 0.81764 0.0
C1631 C 0.84557 0.33238 0.84604 0.0
H1632 H 0.9379 0.38829 0.87813 0.0
H1633 H 0.86547 0.44779 0.87139 0.0
H1634 H 0.91316 0.33475 0.84536 0.0
H1635 H 0.94422 0.3592 0.84487 0.0
H1636 H 0.93563 0.34028 0.86415 0.0
H1637 H 0.82477 0.4352 0.85346 0.0
H1638 H 0.84275 0.43065 0.83334 0.0
H1639 H 0.82383 0.4002 0.84262 0.0
H1640 H 0.88515 0.38582 0.78938 0.0
H1641 H 0.83856 0.31529 0.81312 0.0
H1642 H 0.92469 0.40912 0.82577 0.0
H1643 H 0.89276 0.43171 0.82354 0.0
H1644 H 0.91232 0.42062 0.80485 0.0
H1645 H 0.86365 0.32513 0.85466 0.0
H1646 H 0.83169 0.31305 0.84279 0.0
H1647 H 0.83213 0.34841 0.85322 0.0
C1648 C 0.57972 0.38945 0.11596 0.0
C1649 C 0.59359 0.41458 0.12262 0.0
C1650 C 0.58925 0.37655 0.10074 0.0
C1651 C 0.61271 0.3895 0.09174 0.0
C1652 C 0.62838 0.41325 0.09911 0.0
C1653 C 0.6189 0.4252 0.11459 0.0
C1654 C 0.57254 0.3506 0.09358 0.0
C1655 C 0.65338 0.4279 0.08992 0.0
C1656 C 0.64184 0.35355 0.05141 0.0
C1657 C 0.62419 0.36695 0.03886 0.0
C1658 C 0.63837 0.36042 0.06877 0.0
C1659 C 0.61735 0.38173 0.07354 0.0
C1660 C 0.60009 0.39583 0.06083 0.0
C1661 C 0.60342 0.38795 0.04372 0.0
C1662 C 0.65655 0.34436 0.08201 0.0
C1663 C 0.57789 0.41921 0.06528 0.0
H1664 H 0.56017 0.38092 0.12196 0.0
H1665 H 0.63042 0.44398 0.1199 0.0
H1666 H 0.5577 0.35814 0.08314 0.0
H1667 H 0.58781 0.33421 0.08813 0.0
H1668 H 0.559 0.3397 0.10343 0.0
H1669 H 0.66601 0.44301 0.09838 0.0
H1670 H 0.66864 0.41135 0.08465 0.0
H1671 H 0.64442 0.4408 0.07903 0.0
H1672 H 0.65771 0.33708 0.0477 0.0
H1673 H 0.58979 0.39846 0.03409 0.0
H1674 H 0.64191 0.33109 0.0902 0.0
H1675 H 0.6682 0.3602 0.09043 0.0
H1676 H 0.67298 0.32952 0.07618 0.0
H1677 H 0.5604 0.4096 0.07327 0.0
H1678 H 0.56744 0.42915 0.05378 0.0
H1679 H 0.58864 0.43692 0.07281 0.0
loop_
_geom_bond_atom_site_label_1
_geom_bond_atom_site_label_2
_geom_bond_distance
_geom_bond_site_symmetry_2
_ccdc_geom_bond_type
C0 C1 1.384 . S
C0 C2 1.384 . S
C0 H28 0.931 . S
C1 C0 1.384 . S
C1 C4 1.382 . S
C2 C0 1.384 . S
C2 C3 1.381 . S
C2 H29 0.930 . S
C3 C2 1.381 . S
C3 C5 1.381 . S
C3 C6 1.487 . S
C4 C1 1.382 . S
C4 C5 1.387 . S
C4 H30 0.930 . S
C5 C3 1.381 . S
C5 C4 1.387 . S
C5 H31 0.931 1_565 S
C6 C3 1.487 . S
C6 C13 1.399 . S
C6 N44 1.343 1_565 S
C7 C8 1.384 . S
C7 C9 1.384 . S
C7 H32 0.931 . S
C8 C7 1.384 . S
C8 C11 1.382 . S
C9 C7 1.384 . S
C9 C10 1.381 . S
C9 H33 0.930 . S
C10 C9 1.381 . S
C10 C12 1.381 . S
C10 C13 1.487 . S
C11 C8 1.382 . S
C11 C12 1.387 . S
C11 H34 0.930 . S
C12 C10 1.381 . S
C12 C11 1.387 . S
C12 H35 0.931 . S
C13 C6 1.399 . S
C13 C10 1.487 . S
C13 N45 1.324 1_465 S
C14 C15 1.384 . S
C14 C16 1.384 . S
C14 H36 0.931 . S
C15 C14 1.384 . S
C15 C18 1.382 . S
C16 C14 1.384 . S
C16 C17 1.381 . S
C16 H37 0.930 . S
C17 C16 1.381 . S
C17 C19 1.381 . S
C17 C20 1.487 . S
C18 C15 1.382 . S
C18 C19 1.387 . S
C18 H38 0.930 . S
C19 C17 1.381 . S
C19 C18 1.387 . S
C19 H39 0.935 1_545 S
C20 C17 1.487 . S
C20 C27 1.399 . S
C20 N45 1.367 . S
C21 C22 1.384 . S
C21 C23 1.384 . S
C21 H40 0.931 . S
C22 C21 1.384 . S
C22 C25 1.382 . S
C23 C21 1.384 . S
C23 C24 1.381 . S
C23 H41 0.930 . S
C24 C23 1.381 . S
C24 C26 1.381 . S
C24 C27 1.487 . S
C25 C22 1.382 . S
C25 C26 1.387 . S
C25 H42 0.930 . S
C26 C24 1.381 . S
C26 C25 1.387 . S
C26 H43 0.931 . S
C27 C20 1.399 . S
C27 C24 1.487 . S
C27 N44 1.343 1_655 S
H28 C0 0.931 . S
H29 C2 0.930 . S
H30 C4 0.930 . S
H31 C5 0.931 1_545 S
H32 C7 0.931 . S
H33 C9 0.930 . S
H34 C11 0.930 . S
H35 C12 0.931 . S
H36 C14 0.931 . S
H37 C16 0.930 . S
H38 C18 0.930 . S
H39 C19 0.935 1_565 S
H40 C21 0.931 . S
H41 C23 0.930 . S
H42 C25 0.930 . S
H43 C26 0.931 . S
N44 C6 1.343 1_545 S
N44 C27 1.343 1_455 S
N45 C13 1.324 1_645 S
N45 C20 1.367 . S
C46 C47 1.384 . S
C46 C48 1.384 . S
C46 H74 0.931 . S
C47 C46 1.384 . S
C47 C50 1.382 . S
C48 C46 1.384 . S
C48 C49 1.381 . S
C48 H75 0.930 . S
C49 C48 1.381 . S
C49 C51 1.381 . S
C49 C52 1.487 . S
C50 C47 1.382 . S
C50 C51 1.387 . S
C50 H76 0.930 . S
C51 C49 1.381 . S
C51 C50 1.387 . S
C51 H77 0.931 1_655 S
C52 C49 1.487 . S
C52 C59 1.399 . S
C52 N90 1.343 1_655 S
C53 C54 1.384 . S
C53 C55 1.384 . S
C53 H78 0.931 . S
C54 C53 1.384 . S
C54 C57 1.382 . S
C55 C53 1.384 . S
C55 C56 1.381 . S
C55 H79 0.930 . S
C56 C55 1.381 . S
C56 C58 1.381 . S
C56 C59 1.487 . S
C57 C54 1.382 . S
C57 C58 1.387 . S
C57 H80 0.930 . S
C58 C56 1.381 . S
C58 C57 1.387 . S
C58 H81 0.931 . S
C59 C52 1.399 . S
C59 C56 1.487 . S
C59 N91 1.343 . S
C60 C61 1.384 . S
C60 C62 1.384 . S
C60 H82 0.931 . S
C61 C60 1.384 . S
C61 C64 1.382 . S
C62 C60 1.384 . S
C62 C63 1.381 . S
C62 H83 0.930 . S
C63 C62 1.381 . S
C63 C65 1.381 . S
C63 C66 1.487 . S
C64 C61 1.382 . S
C64 C65 1.387 . S
C64 H84 0.930 . S
C65 C63 1.381 . S
C65 C64 1.387 . S
C65 H85 0.931 1_455 S
C66 C63 1.487 . S
C66 C73 1.399 . S
C66 N91 1.343 1_455 S
C67 C68 1.384 . S
C67 C69 1.384 . S
C67 H86 0.931 . S
C68 C67 1.384 . S
C68 C71 1.382 . S
C69 C67 1.384 . S
C69 C70 1.381 . S
C69 H87 0.930 . S
C70 C69 1.381 . S
C70 C72 1.381 . S
C70 C73 1.487 . S
C71 C68 1.382 . S
C71 C72 1.387 . S
C71 H88 0.930 . S
C72 C70 1.381 . S
C72 C71 1.387 . S
C72 H89 0.931 . S
C73 C66 1.399 . S
C73 C70 1.487 . S
C73 N90 1.343 . S
H74 C46 0.931 . S
H75 C48 0.930 . S
H76 C50 0.930 . S
H77 C51 0.931 1_455 S
H78 C53 0.931 . S
H79 C55 0.930 . S
H80 C57 0.930 . S
H81 C58 0.931 . S
H82 C60 0.931 . S
H83 C62 0.930 . S
H84 C64 0.930 . S
H85 C65 0.931 1_655 S
H86 C67 0.931 . S
H87 C69 0.930 . S
H88 C71 0.930 . S
H89 C72 0.931 . S
N90 C52 1.343 1_455 S
N90 C73 1.343 . S
N91 C59 1.343 . S
N91 C66 1.343 1_655 S
C92 C93 1.384 . S
C92 C94 1.384 . S
C92 H120 0.931 . S
C93 C92 1.384 . S
C93 C96 1.382 . S
C94 C92 1.384 . S
C94 C95 1.381 . S
C94 H121 0.930 . S
C95 C94 1.381 . S
C95 C97 1.381 . S
C95 C98 1.487 . S
C96 C93 1.382 . S
C96 C97 1.387 . S
C96 H122 0.930 . S
C97 C95 1.381 . S
C97 C96 1.387 . S
C97 H123 0.931 . S
C98 C95 1.487 . S
C98 C105 1.399 . S
C98 N136 1.343 . S
C99 C100 1.384 . S
C99 C101 1.384 . S
C99 H124 0.931 . S
C100 C99 1.384 . S
C100 C103 1.382 . S
C101 C99 1.384 . S
C101 C102 1.381 . S
C101 H125 0.930 . S
C102 C101 1.381 . S
C102 C104 1.381 . S
C102 C105 1.487 . S
C103 C100 1.382 . S
C103 C104 1.387 . S
C103 H126 0.930 . S
C104 C102 1.381 . S
C104 C103 1.387 . S
C104 H127 0.931 . S
C105 C98 1.399 . S
C105 C102 1.487 . S
C105 N137 1.343 . S
C106 C107 1.384 . S
C106 C108 1.384 . S
C106 H128 0.931 . S
C107 C106 1.384 . S
C107 C110 1.382 . S
C108 C106 1.384 . S
C108 C109 1.381 . S
C108 H129 0.930 . S
C109 C108 1.381 . S
C109 C111 1.381 . S
C109 C112 1.487 . S
C110 C107 1.382 . S
C110 C111 1.387 . S
C110 H130 0.930 . S
C111 C109 1.381 . S
C111 C110 1.387 . S
C111 H131 0.931 . S
C112 C109 1.487 . S
C112 C119 1.399 . S
C112 N137 1.343 . S
C113 C114 1.384 . S
C113 C115 1.384 . S
C113 H132 0.931 . S
C114 C113 1.384 . S
C114 C117 1.382 . S
C115 C113 1.384 . S
C115 C116 1.381 . S
C115 H133 0.930 . S
C116 C115 1.381 . S
C116 C118 1.381 . S
C116 C119 1.487 . S
C117 C114 1.382 . S
C117 C118 1.387 . S
C117 H134 0.930 . S
C118 C116 1.381 . S
C118 C117 1.387 . S
C118 H135 0.931 . S
C119 C112 1.399 . S
C119 C116 1.487 . S
C119 N136 1.343 . S
H120 C92 0.931 . S
H121 C94 0.930 . S
H122 C96 0.930 . S
H123 C97 0.931 . S
H124 C99 0.931 . S
H125 C101 0.930 . S
H126 C103 0.930 . S
H127 C104 0.931 . S
H128 C106 0.931 . S
H129 C108 0.930 . S
H130 C110 0.930 . S
H131 C111 0.931 . S
H132 C113 0.931 . S
H133 C115 0.930 . S
H134 C117 0.930 . S
H135 C118 0.931 . S
N136 C98 1.343 . S
N136 C119 1.343 . S
N137 C105 1.343 . S
N137 C112 1.343 . S
C138 C139 1.384 . S
C138 C140 1.384 . S
C138 H166 0.931 . S
C139 C138 1.384 . S
C139 C142 1.382 . S
C140 C138 1.384 . S
C140 C141 1.381 . S
C140 H167 0.930 . S
C141 C140 1.381 . S
C141 C143 1.381 . S
C141 C144 1.487 . S
C142 C139 1.382 . S
C142 C143 1.387 . S
C142 H168 0.930 . S
C143 C141 1.381 . S
C143 C142 1.387 . S
C143 H169 0.926 1_565 S
C144 C141 1.487 . S
C144 C151 1.399 . S
C144 N182 1.343 1_565 S
C145 C146 1.384 . S
C145 C147 1.384 . S
C145 H170 0.931 . S
C146 C145 1.384 . S
C146 C149 1.382 . S
C147 C145 1.384 . S
C147 C148 1.381 . S
C147 H171 0.930 . S
C148 C147 1.381 . S
C148 C150 1.381 . S
C148 C151 1.487 . S
C149 C146 1.382 . S
C149 C150 1.387 . S
C149 H172 0.930 . S
C150 C148 1.381 . S
C150 C149 1.387 . S
C150 H173 0.931 . S
C151 C144 1.399 . S
C151 C148 1.487 . S
C151 N183 1.343 1_565 S
C152 C153 1.384 . S
C152 C154 1.384 . S
C152 H174 0.931 . S
C153 C152 1.384 . S
C153 C156 1.382 . S
C154 C152 1.384 . S
C154 C155 1.381 . S
C154 H175 0.930 . S
C155 C154 1.381 . S
C155 C157 1.381 . S
C155 C158 1.487 . S
C156 C153 1.382 . S
C156 C157 1.387 . S
C156 H176 0.930 . S
C157 C155 1.381 . S
C157 C156 1.387 . S
C157 H177 0.931 . S
C158 C155 1.487 . S
C158 C165 1.399 . S
C158 N183 1.343 . S
C159 C160 1.384 . S
C159 C161 1.384 . S
C159 H178 0.931 . S
C160 C159 1.384 . S
C160 C163 1.382 . S
C161 C159 1.384 . S
C161 C162 1.381 . S
C161 H179 0.930 . S
C162 C161 1.381 . S
C162 C164 1.381 . S
C162 C165 1.487 . S
C163 C160 1.382 . S
C163 C164 1.387 . S
C163 H180 0.930 . S
C164 C162 1.381 . S
C164 C163 1.387 . S
C164 H181 0.931 . S
C165 C158 1.399 . S
C165 C162 1.487 . S
C165 N182 1.343 . S
H166 C138 0.931 . S
H167 C140 0.930 . S
H168 C142 0.930 . S
H169 C143 0.926 1_545 S
H170 C145 0.931 . S
H171 C147 0.930 . S
H172 C149 0.930 . S
H173 C150 0.931 . S
H174 C152 0.931 . S
H175 C154 0.930 . S
H176 C156 0.930 . S
H177 C157 0.931 . S
H178 C159 0.931 . S
H179 C161 0.930 . S
H180 C163 0.930 . S
H181 C164 0.931 . S
N182 C144 1.343 1_545 S
N182 C165 1.343 . S
N183 C151 1.343 1_545 S
N183 C158 1.343 . S
C184 C185 1.384 . S
C184 C186 1.384 . S
C184 H212 0.931 . S
C185 C184 1.384 . S
C185 C188 1.382 . S
C186 C184 1.384 . S
C186 C187 1.381 . S
C186 H213 0.930 . S
C187 C186 1.381 . S
C187 C189 1.381 . S
C187 C190 1.487 . S
C188 C185 1.382 . S
C188 C189 1.387 . S
C188 H214 0.930 . S
C189 C187 1.381 . S
C189 C188 1.387 . S
C189 H215 0.931 . S
C190 C187 1.487 . S
C190 C197 1.399 . S
C190 N228 1.343 . S
C191 C192 1.384 . S
C191 C193 1.384 . S
C191 H216 0.931 . S
C192 C191 1.384 . S
C192 C195 1.382 . S
C193 C191 1.384 . S
C193 C194 1.381 . S
C193 H217 0.930 . S
C194 C193 1.381 . S
C194 C196 1.381 . S
C194 C197 1.487 . S
C195 C192 1.382 . S
C195 C196 1.387 . S
C195 H218 0.930 . S
C196 C194 1.381 . S
C196 C195 1.387 . S
C196 H219 0.931 . S
C197 C190 1.399 . S
C197 C194 1.487 . S
C197 N229 1.372 . S
C198 C199 1.384 . S
C198 C200 1.384 . S
C198 H220 0.931 . S
C199 C198 1.384 . S
C199 C202 1.382 . S
C200 C198 1.384 . S
C200 C201 1.381 . S
C200 H221 0.930 . S
C201 C200 1.381 . S
C201 C203 1.381 . S
C201 C204 1.487 . S
C202 C199 1.382 . S
C202 C203 1.387 . S
C202 H222 0.930 . S
C203 C201 1.381 . S
C203 C202 1.387 . S
C203 H223 0.931 . S
C204 C201 1.487 . S
C204 C211 1.399 . S
C204 N229 1.318 1_655 S
C205 C206 1.384 . S
C205 C207 1.384 . S
C205 H224 0.931 . S
C206 C205 1.384 . S
C206 C209 1.382 . S
C207 C205 1.384 . S
C207 C208 1.381 . S
C207 H225 0.930 . S
C208 C207 1.381 . S
C208 C210 1.381 . S
C208 C211 1.487 . S
C209 C206 1.382 . S
C209 C210 1.387 . S
C209 H226 0.930 . S
C210 C208 1.381 . S
C210 C209 1.387 . S
C210 H227 0.931 . S
C211 C204 1.399 . S
C211 C208 1.487 . S
C211 N228 1.343 1_655 S
H212 C184 0.931 . S
H213 C186 0.930 . S
H214 C188 0.930 . S
H215 C189 0.931 . S
H216 C191 0.931 . S
H217 C193 0.930 . S
H218 C195 0.930 . S
H219 C196 0.931 . S
H220 C198 0.931 . S
H221 C200 0.930 . S
H222 C202 0.930 . S
H223 C203 0.931 . S
H224 C205 0.931 . S
H225 C207 0.930 . S
H226 C209 0.930 . S
H227 C210 0.931 . S
N228 C190 1.343 . S
N228 C211 1.343 1_455 S
N229 C197 1.372 . S
N229 C204 1.318 1_455 S
C230 C231 1.384 . S
C230 C232 1.384 . S
C230 H258 0.931 . S
C231 C230 1.384 . S
C231 C234 1.382 . S
C232 C230 1.384 . S
C232 C233 1.381 . S
C232 H259 0.930 . S
C233 C232 1.381 . S
C233 C235 1.381 . S
C233 C236 1.487 . S
C234 C231 1.382 . S
C234 C235 1.387 . S
C234 H260 0.930 . S
C235 C233 1.381 . S
C235 C234 1.387 . S
C235 H261 0.931 . S
C236 C233 1.487 . S
C236 C243 1.399 . S
C236 N274 1.343 . S
C237 C238 1.384 . S
C237 C239 1.384 . S
C237 H262 0.931 . S
C238 C237 1.384 . S
C238 C241 1.382 . S
C239 C237 1.384 . S
C239 C240 1.381 . S
C239 H263 0.930 . S
C240 C239 1.381 . S
C240 C242 1.381 . S
C240 C243 1.487 . S
C241 C238 1.382 . S
C241 C242 1.387 . S
C241 H264 0.930 . S
C242 C240 1.381 . S
C242 C241 1.387 . S
C242 H265 0.931 . S
C243 C236 1.399 . S
C243 C240 1.487 . S
C243 N275 1.343 . S
C244 C245 1.384 . S
C244 C246 1.384 . S
C244 H266 0.931 . S
C245 C244 1.384 . S
C245 C248 1.382 . S
C246 C244 1.384 . S
C246 C247 1.381 . S
C246 H267 0.930 . S
C247 C246 1.381 . S
C247 C249 1.381 . S
C247 C250 1.487 . S
C248 C245 1.382 . S
C248 C249 1.387 . S
C248 H268 0.930 . S
C249 C247 1.381 . S
C249 C248 1.387 . S
C249 H269 0.931 . S
C250 C247 1.487 . S
C250 C257 1.399 . S
C250 N275 1.343 . S
C251 C252 1.384 . S
C251 C253 1.384 . S
C251 H270 0.931 . S
C252 C251 1.384 . S
C252 C255 1.382 . S
C253 C251 1.384 . S
C253 C254 1.381 . S
C253 H271 0.930 . S
C254 C253 1.381 . S
C254 C256 1.381 . S
C254 C257 1.487 . S
C255 C252 1.382 . S
C255 C256 1.387 . S
C255 H272 0.930 . S
C256 C254 1.381 . S
C256 C255 1.387 . S
C256 H273 0.931 . S
C257 C250 1.399 . S
C257 C254 1.487 . S
C257 N274 1.343 . S
H258 C230 0.931 . S
H259 C232 0.930 . S
H260 C234 0.930 . S
H261 C235 0.931 . S
H262 C237 0.931 . S
H263 C239 0.930 . S
H264 C241 0.930 . S
H265 C242 0.931 . S
H266 C244 0.931 . S
H267 C246 0.930 . S
H268 C248 0.930 . S
H269 C249 0.931 . S
H270 C251 0.931 . S
H271 C253 0.930 . S
H272 C255 0.930 . S
H273 C256 0.931 . S
N274 C236 1.343 . S
N274 C257 1.343 . S
N275 C243 1.343 . S
N275 C250 1.343 . S
C276 C277 1.384 . S
C276 C278 1.384 . S
C276 H304 0.931 . S
C277 C276 1.384 . S
C277 C280 1.382 . S
C278 C276 1.384 . S
C278 C279 1.381 . S
C278 H305 0.930 . S
C279 C278 1.381 . S
C279 C281 1.381 . S
C279 C282 1.487 . S
C280 C277 1.382 . S
C280 C281 1.387 . S
C280 H306 0.930 . S
C281 C279 1.381 . S
C281 C280 1.387 . S
C281 H307 0.931 1_565 S
C282 C279 1.487 . S
C282 C289 1.399 . S
C282 N320 1.343 1_565 S
C283 C284 1.384 . S
C283 C285 1.384 . S
C283 H308 0.931 . S
C284 C283 1.384 . S
C284 C287 1.382 . S
C285 C283 1.384 . S
C285 C286 1.381 . S
C285 H309 0.930 . S
C286 C285 1.381 . S
C286 C288 1.381 . S
C286 C289 1.487 . S
C287 C284 1.382 . S
C287 C288 1.387 . S
C287 H310 0.930 . S
C288 C286 1.381 . S
C288 C287 1.387 . S
C288 H311 0.931 . S
C289 C282 1.399 . S
C289 C286 1.487 . S
C289 N321 1.343 1_565 S
C290 C291 1.384 . S
C290 C292 1.384 . S
C290 H312 0.931 . S
C291 C290 1.384 . S
C291 C294 1.382 . S
C292 C290 1.384 . S
C292 C293 1.381 . S
C292 H313 0.930 . S
C293 C292 1.381 . S
C293 C295 1.381 . S
C293 C296 1.487 . S
C294 C291 1.382 . S
C294 C295 1.387 . S
C294 H314 0.930 . S
C295 C293 1.381 . S
C295 C294 1.387 . S
C295 H315 0.931 . S
C296 C293 1.487 . S
C296 C303 1.399 . S
C296 N321 1.343 . S
C297 C298 1.384 . S
C297 C299 1.384 . S
C297 H316 0.931 . S
C298 C297 1.384 . S
C298 C301 1.382 . S
C299 C297 1.384 . S
C299 C300 1.381 . S
C299 H317 0.930 . S
C300 C299 1.381 . S
C300 C302 1.381 . S
C300 C303 1.487 . S
C301 C298 1.382 . S
C301 C302 1.387 . S
C301 H318 0.930 . S
C302 C300 1.381 . S
C302 C301 1.387 . S
C302 H319 0.931 . S
C303 C296 1.399 . S
C303 C300 1.487 . S
C303 N320 1.343 . S
H304 C276 0.931 . S
H305 C278 0.930 . S
H306 C280 0.930 . S
H307 C281 0.931 1_545 S
H308 C283 0.931 . S
H309 C285 0.930 . S
H310 C287 0.930 . S
H311 C288 0.931 . S
H312 C290 0.931 . S
H313 C292 0.930 . S
H314 C294 0.930 . S
H315 C295 0.931 . S
H316 C297 0.931 . S
H317 C299 0.930 . S
H318 C301 0.930 . S
H319 C302 0.931 . S
N320 C282 1.343 1_545 S
N320 C303 1.343 . S
N321 C289 1.343 1_545 S
N321 C296 1.343 . S
C322 C323 1.384 . S
C322 C324 1.384 . S
C322 H350 0.931 . S
C323 C322 1.384 . S
C323 C326 1.382 . S
C324 C322 1.384 . S
C324 C325 1.381 . S
C324 H351 0.930 . S
C325 C324 1.381 . S
C325 C327 1.381 . S
C325 C328 1.487 . S
C326 C323 1.382 . S
C326 C327 1.387 . S
C326 H352 0.930 . S
C327 C325 1.381 . S
C327 C326 1.387 . S
C327 H353 0.896 1_455 S
C328 C325 1.487 . S
C328 C335 1.399 . S
C328 N366 1.346 1_565 S
C329 C330 1.384 . S
C329 C331 1.384 . S
C329 H354 0.931 . S
C330 C329 1.384 . S
C330 C333 1.382 . S
C331 C329 1.384 . S
C331 C332 1.381 . S
C331 H355 0.930 . S
C332 C331 1.381 . S
C332 C334 1.381 . S
C332 C335 1.487 . S
C333 C330 1.382 . S
C333 C334 1.387 . S
C333 H356 0.930 . S
C334 C332 1.381 . S
C334 C333 1.387 . S
C334 H357 0.931 . S
C335 C328 1.399 . S
C335 C332 1.487 . S
C335 N367 1.343 1_565 S
C336 C337 1.384 . S
C336 C338 1.384 . S
C336 H358 0.931 . S
C337 C336 1.384 . S
C337 C340 1.382 . S
C338 C336 1.384 . S
C338 C339 1.381 . S
C338 H359 0.930 . S
C339 C338 1.381 . S
C339 C341 1.381 . S
C339 C342 1.487 . S
C340 C337 1.382 . S
C340 C341 1.387 . S
C340 H360 0.930 . S
C341 C339 1.381 . S
C341 C340 1.387 . S
C341 H361 0.931 1_655 S
C342 C339 1.487 . S
C342 C349 1.399 . S
C342 N367 1.343 1_655 S
C343 C344 1.384 . S
C343 C345 1.384 . S
C343 H362 0.931 . S
C344 C343 1.384 . S
C344 C347 1.382 . S
C345 C343 1.384 . S
C345 C346 1.381 . S
C345 H363 0.930 . S
C346 C345 1.381 . S
C346 C348 1.381 . S
C346 C349 1.487 . S
C347 C344 1.382 . S
C347 C348 1.387 . S
C347 H364 0.930 . S
C348 C346 1.381 . S
C348 C347 1.387 . S
C348 H365 0.931 . S
C349 C342 1.399 . S
C349 C346 1.487 . S
C349 N366 1.341 1_655 S
H350 C322 0.931 . S
H351 C324 0.930 . S
H352 C326 0.930 . S
H353 C327 0.896 1_655 S
H354 C329 0.931 . S
H355 C331 0.930 . S
H356 C333 0.930 . S
H357 C334 0.931 . S
H358 C336 0.931 . S
H359 C338 0.930 . S
H360 C340 0.930 . S
H361 C341 0.931 1_455 S
H362 C343 0.931 . S
H363 C345 0.930 . S
H364 C347 0.930 . S
H365 C348 0.931 . S
N366 C328 1.346 1_545 S
N366 C349 1.341 1_455 S
N367 C335 1.343 1_545 S
N367 C342 1.343 1_455 S
Mn368 O373 2.095 1_554 S
Mn368 O383 2.162 . S
Mn368 O384 2.297 . S
Mn368 O392 2.385 . S
Mn368 O393 2.209 . S
Mn368 O394 2.094 1_554 S
Mn369 O374 2.121 . S
Mn369 N376 2.257 1_556 S
Mn369 N385 2.282 1_556 S
Mn369 O393 2.215 1_556 S
Mn369 O395 2.117 . S
C370 O392 1.234 . S
C370 O393 1.283 . S
C371 O383 1.281 . S
C371 O384 1.236 . S
C372 O394 1.240 . S
C372 O395 1.264 . S
O373 Mn368 2.095 1_556 S
O373 C382 1.250 . S
O374 Mn369 2.121 . S
O374 C382 1.258 . S
C375 N376 1.326 1_556 S
C375 C379 1.460 1_556 S
C375 H381 0.929 . S
N376 Mn369 2.257 1_554 S
N376 C375 1.326 1_554 S
N376 C380 1.362 . S
C377 C378 1.258 . S
C377 C380 1.431 . S
C377 C397 1.449 . S
C378 C377 1.258 . S
C378 C379 1.477 . S
C378 H398 0.931 . S
C379 C375 1.460 1_554 S
C379 C378 1.477 . S
C379 H399 0.930 1_554 S
C380 N376 1.362 . S
C380 C377 1.431 . S
C380 C390 1.476 . S
H381 C375 0.929 . S
C382 O373 1.250 . S
C382 O374 1.258 . S
O383 Mn368 2.162 . S
O383 C371 1.281 . S
O384 Mn368 2.297 . S
O384 C371 1.236 . S
N385 Mn369 2.282 1_554 S
N385 C386 1.328 . S
N385 C390 1.318 . S
C386 N385 1.328 . S
C386 C387 1.457 . S
C386 H391 0.929 . S
C387 C386 1.457 . S
C387 C388 1.291 . S
C387 H400 0.931 . S
C388 C387 1.291 . S
C388 C389 1.373 . S
C388 H401 0.929 . S
C389 C388 1.373 . S
C389 C390 1.396 . S
C389 C396 1.403 . S
C390 C380 1.476 . S
C390 N385 1.318 . S
C390 C389 1.396 . S
H391 C386 0.929 . S
O392 Mn368 2.385 . S
O392 C370 1.234 . S
O393 Mn368 2.209 . S
O393 Mn369 2.215 1_554 S
O393 C370 1.283 . S
O394 Mn368 2.094 1_556 S
O394 C372 1.240 . S
O395 Mn369 2.117 . S
O395 C372 1.264 . S
C396 C389 1.403 . S
C396 C397 1.399 . S
C396 H402 0.929 . S
C397 C377 1.449 . S
C397 C396 1.399 . S
C397 H403 0.930 . S
H398 C378 0.931 . S
H399 C379 0.930 1_556 S
H400 C387 0.931 . S
H401 C388 0.929 . S
H402 C396 0.929 . S
H403 C397 0.930 . S
Mn404 O409 2.095 . S
Mn404 O419 2.162 . S
Mn404 O420 2.297 . S
Mn404 O428 2.385 . S
Mn404 O429 2.209 . S
Mn404 O430 2.094 . S
Mn405 O410 2.121 . S
Mn405 N412 2.257 . S
Mn405 N421 2.282 . S
Mn405 O429 2.215 . S
Mn405 O431 2.117 . S
C406 O428 1.234 . S
C406 O429 1.283 . S
C407 O419 1.281 . S
C407 O420 1.236 . S
C408 O430 1.240 . S
C408 O431 1.264 . S
O409 Mn404 2.095 . S
O409 C418 1.250 . S
O410 Mn405 2.121 . S
O410 C418 1.258 . S
C411 N412 1.326 . S
C411 C415 1.460 . S
C411 H417 0.929 . S
N412 Mn405 2.257 . S
N412 C411 1.326 . S
N412 C416 1.362 . S
C413 C414 1.258 . S
C413 C416 1.431 . S
C413 C433 1.449 . S
C414 C413 1.258 . S
C414 C415 1.477 . S
C414 H434 0.931 . S
C415 C411 1.460 . S
C415 C414 1.477 . S
C415 H435 0.930 . S
C416 N412 1.362 . S
C416 C413 1.431 . S
C416 C426 1.476 . S
H417 C411 0.929 . S
C418 O409 1.250 . S
C418 O410 1.258 . S
O419 Mn404 2.162 . S
O419 C407 1.281 . S
O420 Mn404 2.297 . S
O420 C407 1.236 . S
N421 Mn405 2.282 . S
N421 C422 1.328 . S
N421 C426 1.318 . S
C422 N421 1.328 . S
C422 C423 1.457 . S
C422 H427 0.929 . S
C423 C422 1.457 . S
C423 C424 1.291 . S
C423 H436 0.931 . S
C424 C423 1.291 . S
C424 C425 1.373 . S
C424 H437 0.929 . S
C425 C424 1.373 . S
C425 C426 1.396 . S
C425 C432 1.403 . S
C426 C416 1.476 . S
C426 N421 1.318 . S
C426 C425 1.396 . S
H427 C422 0.929 . S
O428 Mn404 2.385 . S
O428 C406 1.234 . S
O429 Mn404 2.209 . S
O429 Mn405 2.215 . S
O429 C406 1.283 . S
O430 Mn404 2.094 . S
O430 C408 1.240 . S
O431 Mn405 2.117 . S
O431 C408 1.264 . S
C432 C425 1.403 . S
C432 C433 1.399 . S
C432 H438 0.929 . S
C433 C413 1.449 . S
C433 C432 1.399 . S
C433 H439 0.930 . S
H434 C414 0.931 . S
H435 C415 0.930 . S
H436 C423 0.931 . S
H437 C424 0.929 . S
H438 C432 0.929 . S
H439 C433 0.930 . S
Mn440 O445 2.095 . S
Mn440 O455 2.162 . S
Mn440 O456 2.297 . S
Mn440 O464 2.385 . S
Mn440 O465 2.209 . S
Mn440 O466 2.094 . S
Mn441 O446 2.121 . S
Mn441 N448 2.257 . S
Mn441 N457 2.282 . S
Mn441 O465 2.215 . S
Mn441 O467 2.117 . S
C442 O464 1.234 . S
C442 O465 1.283 . S
C443 O455 1.281 . S
C443 O456 1.236 . S
C444 O466 1.240 . S
C444 O467 1.264 . S
O445 Mn440 2.095 . S
O445 C454 1.250 . S
O446 Mn441 2.121 . S
O446 C454 1.258 . S
C447 N448 1.326 . S
C447 C451 1.460 . S
C447 H453 0.929 . S
N448 Mn441 2.257 . S
N448 C447 1.326 . S
N448 C452 1.362 . S
C449 C450 1.258 . S
C449 C452 1.431 . S
C449 C469 1.449 . S
C450 C449 1.258 . S
C450 C451 1.477 . S
C450 H470 0.931 . S
C451 C447 1.460 . S
C451 C450 1.477 . S
C451 H471 0.930 . S
C452 N448 1.362 . S
C452 C449 1.431 . S
C452 C462 1.476 . S
H453 C447 0.929 . S
C454 O445 1.250 . S
C454 O446 1.258 . S
O455 Mn440 2.162 . S
O455 C443 1.281 . S
O456 Mn440 2.297 . S
O456 C443 1.236 . S
N457 Mn441 2.282 . S
N457 C458 1.328 . S
N457 C462 1.318 . S
C458 N457 1.328 . S
C458 C459 1.457 . S
C458 H463 0.929 . S
C459 C458 1.457 . S
C459 C460 1.291 . S
C459 H472 0.931 . S
C460 C459 1.291 . S
C460 C461 1.373 . S
C460 H473 0.929 . S
C461 C460 1.373 . S
C461 C462 1.396 . S
C461 C468 1.403 . S
C462 C452 1.476 . S
C462 N457 1.318 . S
C462 C461 1.396 . S
H463 C458 0.929 . S
O464 Mn440 2.385 . S
O464 C442 1.234 . S
O465 Mn440 2.209 . S
O465 Mn441 2.215 . S
O465 C442 1.283 . S
O466 Mn440 2.094 . S
O466 C444 1.240 . S
O467 Mn441 2.117 . S
O467 C444 1.264 . S
C468 C461 1.403 . S
C468 C469 1.399 . S
C468 H474 0.929 . S
C469 C449 1.449 . S
C469 C468 1.399 . S
C469 H475 0.930 . S
H470 C450 0.931 . S
H471 C451 0.930 . S
H472 C459 0.931 . S
H473 C460 0.929 . S
H474 C468 0.929 . S
H475 C469 0.930 . S
Mn476 O481 2.095 . S
Mn476 O491 2.162 . S
Mn476 O492 2.297 . S
Mn476 O500 2.385 . S
Mn476 O501 2.209 . S
Mn476 O502 2.094 . S
Mn477 O482 2.121 . S
Mn477 N484 2.257 . S
Mn477 N493 2.282 . S
Mn477 O501 2.215 . S
Mn477 O503 2.117 . S
C478 O500 1.234 . S
C478 O501 1.283 . S
C479 O491 1.281 . S
C479 O492 1.236 . S
C480 O502 1.240 . S
C480 O503 1.264 . S
O481 Mn476 2.095 . S
O481 C490 1.250 . S
O482 Mn477 2.121 . S
O482 C490 1.258 . S
C483 N484 1.326 . S
C483 C487 1.460 . S
C483 H489 0.929 . S
N484 Mn477 2.257 . S
N484 C483 1.326 . S
N484 C488 1.362 . S
C485 C486 1.258 . S
C485 C488 1.431 . S
C485 C505 1.449 . S
C486 C485 1.258 . S
C486 C487 1.477 . S
C486 H506 0.931 . S
C487 C483 1.460 . S
C487 C486 1.477 . S
C487 H507 0.930 . S
C488 N484 1.362 . S
C488 C485 1.431 . S
C488 C498 1.476 . S
H489 C483 0.929 . S
C490 O481 1.250 . S
C490 O482 1.258 . S
O491 Mn476 2.162 . S
O491 C479 1.281 . S
O492 Mn476 2.297 . S
O492 C479 1.236 . S
N493 Mn477 2.282 . S
N493 C494 1.328 . S
N493 C498 1.318 . S
C494 N493 1.328 . S
C494 C495 1.457 . S
C494 H499 0.929 . S
C495 C494 1.457 . S
C495 C496 1.291 . S
C495 H508 0.931 . S
C496 C495 1.291 . S
C496 C497 1.373 . S
C496 H509 0.929 . S
C497 C496 1.373 . S
C497 C498 1.396 . S
C497 C504 1.403 . S
C498 C488 1.476 . S
C498 N493 1.318 . S
C498 C497 1.396 . S
H499 C494 0.929 . S
O500 Mn476 2.385 . S
O500 C478 1.234 . S
O501 Mn476 2.209 . S
O501 Mn477 2.215 . S
O501 C478 1.283 . S
O502 Mn476 2.094 . S
O502 C480 1.240 . S
O503 Mn477 2.117 . S
O503 C480 1.264 . S
C504 C497 1.403 . S
C504 C505 1.399 . S
C504 H510 0.929 . S
C505 C485 1.449 . S
C505 C504 1.399 . S
C505 H511 0.930 . S
H506 C486 0.931 . S
H507 C487 0.930 . S
H508 C495 0.931 . S
H509 C496 0.929 . S
H510 C504 0.929 . S
H511 C505 0.930 . S
Mn512 O517 2.095 . S
Mn512 O527 2.162 . S
Mn512 O528 2.297 . S
Mn512 O536 2.385 . S
Mn512 O537 2.209 . S
Mn512 O538 2.094 . S
Mn513 O518 2.121 . S
Mn513 N520 2.257 . S
Mn513 N529 2.282 . S
Mn513 O537 2.215 . S
Mn513 O539 2.117 . S
C514 O536 1.234 . S
C514 O537 1.283 . S
C515 O527 1.281 . S
C515 O528 1.236 . S
C516 O538 1.240 . S
C516 O539 1.264 . S
O517 Mn512 2.095 . S
O517 C526 1.250 . S
O518 Mn513 2.121 . S
O518 C526 1.258 . S
C519 N520 1.326 . S
C519 C523 1.460 . S
C519 H525 0.929 . S
N520 Mn513 2.257 . S
N520 C519 1.326 . S
N520 C524 1.362 . S
C521 C522 1.258 . S
C521 C524 1.431 . S
C521 C541 1.449 . S
C522 C521 1.258 . S
C522 C523 1.477 . S
C522 H542 0.931 . S
C523 C519 1.460 . S
C523 C522 1.477 . S
C523 H543 0.930 . S
C524 N520 1.362 . S
C524 C521 1.431 . S
C524 C534 1.476 . S
H525 C519 0.929 . S
C526 O517 1.250 . S
C526 O518 1.258 . S
O527 Mn512 2.162 . S
O527 C515 1.281 . S
O528 Mn512 2.297 . S
O528 C515 1.236 . S
N529 Mn513 2.282 . S
N529 C530 1.328 . S
N529 C534 1.318 . S
C530 N529 1.328 . S
C530 C531 1.457 . S
C530 H535 0.929 . S
C531 C530 1.457 . S
C531 C532 1.291 . S
C531 H544 0.931 . S
C532 C531 1.291 . S
C532 C533 1.373 . S
C532 H545 0.929 . S
C533 C532 1.373 . S
C533 C534 1.396 . S
C533 C540 1.403 . S
C534 C524 1.476 . S
C534 N529 1.318 . S
C534 C533 1.396 . S
H535 C530 0.929 . S
O536 Mn512 2.385 . S
O536 C514 1.234 . S
O537 Mn512 2.209 . S
O537 Mn513 2.215 . S
O537 C514 1.283 . S
O538 Mn512 2.094 . S
O538 C516 1.240 . S
O539 Mn513 2.117 . S
O539 C516 1.264 . S
C540 C533 1.403 . S
C540 C541 1.399 . S
C540 H546 0.929 . S
C541 C521 1.449 . S
C541 C540 1.399 . S
C541 H547 0.930 . S
H542 C522 0.931 . S
H543 C523 0.930 . S
H544 C531 0.931 . S
H545 C532 0.929 . S
H546 C540 0.929 . S
H547 C541 0.930 . S
Mn548 O553 2.095 . S
Mn548 O563 2.162 . S
Mn548 O564 2.297 . S
Mn548 O572 2.385 . S
Mn548 O573 2.209 . S
Mn548 O574 2.094 . S
Mn549 O554 2.121 . S
Mn549 N556 2.257 . S
Mn549 N565 2.282 . S
Mn549 O573 2.215 . S
Mn549 O575 2.117 . S
C550 O572 1.234 . S
C550 O573 1.283 . S
C551 O563 1.281 . S
C551 O564 1.236 . S
C552 O574 1.240 . S
C552 O575 1.264 . S
O553 Mn548 2.095 . S
O553 C562 1.250 . S
O554 Mn549 2.121 . S
O554 C562 1.258 . S
C555 N556 1.326 . S
C555 C559 1.460 . S
C555 H561 0.929 . S
N556 Mn549 2.257 . S
N556 C555 1.326 . S
N556 C560 1.362 . S
C557 C558 1.258 . S
C557 C560 1.431 . S
C557 C577 1.449 . S
C558 C557 1.258 . S
C558 C559 1.477 . S
C558 H578 0.931 . S
C559 C555 1.460 . S
C559 C558 1.477 . S
C559 H579 0.930 . S
C560 N556 1.362 . S
C560 C557 1.431 . S
C560 C570 1.476 . S
H561 C555 0.929 . S
C562 O553 1.250 . S
C562 O554 1.258 . S
O563 Mn548 2.162 . S
O563 C551 1.281 . S
O564 Mn548 2.297 . S
O564 C551 1.236 . S
N565 Mn549 2.282 . S
N565 C566 1.328 . S
N565 C570 1.318 . S
C566 N565 1.328 . S
C566 C567 1.457 . S
C566 H571 0.929 . S
C567 C566 1.457 . S
C567 C568 1.291 . S
C567 H580 0.931 . S
C568 C567 1.291 . S
C568 C569 1.373 . S
C568 H581 0.929 . S
C569 C568 1.373 . S
C569 C570 1.396 . S
C569 C576 1.403 . S
C570 C560 1.476 . S
C570 N565 1.318 . S
C570 C569 1.396 . S
H571 C566 0.929 . S
O572 Mn548 2.385 . S
O572 C550 1.234 . S
O573 Mn548 2.209 . S
O573 Mn549 2.215 . S
O573 C550 1.283 . S
O574 Mn548 2.094 . S
O574 C552 1.240 . S
O575 Mn549 2.117 . S
O575 C552 1.264 . S
C576 C569 1.403 . S
C576 C577 1.399 . S
C576 H582 0.929 . S
C577 C557 1.449 . S
C577 C576 1.399 . S
C577 H583 0.930 . S
H578 C558 0.931 . S
H579 C559 0.930 . S
H580 C567 0.931 . S
H581 C568 0.929 . S
H582 C576 0.929 . S
H583 C577 0.930 . S
Mn584 O589 2.095 . S
Mn584 O599 2.162 1_554 S
Mn584 O600 2.297 1_554 S
Mn584 O608 2.385 1_554 S
Mn584 O609 2.209 1_554 S
Mn584 O610 2.094 . S
Mn585 O590 2.121 . S
Mn585 N592 2.257 1_554 S
Mn585 N601 2.282 1_554 S
Mn585 O609 2.215 1_554 S
Mn585 O611 2.117 . S
C586 O608 1.234 . S
C586 O609 1.283 . S
C587 O599 1.281 . S
C587 O600 1.236 . S
C588 O610 1.240 . S
C588 O611 1.264 . S
O589 Mn584 2.095 . S
O589 C598 1.250 . S
O590 Mn585 2.121 . S
O590 C598 1.258 . S
C591 N592 1.326 1_554 S
C591 C595 1.460 . S
C591 H597 0.929 . S
N592 Mn585 2.257 1_556 S
N592 C591 1.326 1_556 S
N592 C596 1.362 . S
C593 C594 1.258 . S
C593 C596 1.431 . S
C593 C613 1.449 . S
C594 C593 1.258 . S
C594 C595 1.477 1_556 S
C594 H614 0.931 . S
C595 C591 1.460 . S
C595 C594 1.477 1_554 S
C595 H615 0.930 . S
C596 N592 1.362 . S
C596 C593 1.431 . S
C596 C606 1.476 . S
H597 C591 0.929 . S
C598 O589 1.250 . S
C598 O590 1.258 . S
O599 Mn584 2.162 1_556 S
O599 C587 1.281 . S
O600 Mn584 2.297 1_556 S
O600 C587 1.236 . S
N601 Mn585 2.282 1_556 S
N601 C602 1.328 . S
N601 C606 1.318 . S
C602 N601 1.328 . S
C602 C603 1.457 . S
C602 H607 0.929 . S
C603 C602 1.457 . S
C603 C604 1.291 . S
C603 H616 0.931 . S
C604 C603 1.291 . S
C604 C605 1.373 . S
C604 H617 0.929 . S
C605 C604 1.373 . S
C605 C606 1.396 . S
C605 C612 1.403 . S
C606 C596 1.476 . S
C606 N601 1.318 . S
C606 C605 1.396 . S
H607 C602 0.929 . S
O608 Mn584 2.385 1_556 S
O608 C586 1.234 . S
O609 Mn584 2.209 1_556 S
O609 Mn585 2.215 1_556 S
O609 C586 1.283 . S
O610 Mn584 2.094 . S
O610 C588 1.240 . S
O611 Mn585 2.117 . S
O611 C588 1.264 . S
C612 C605 1.403 . S
C612 C613 1.399 . S
C612 H618 0.929 . S
C613 C593 1.449 . S
C613 C612 1.399 . S
C613 H619 0.930 . S
H614 C594 0.931 . S
H615 C595 0.930 . S
H616 C603 0.931 . S
H617 C604 0.929 . S
H618 C612 0.929 . S
H619 C613 0.930 . S
Mn620 O625 2.095 . S
Mn620 O635 2.162 . S
Mn620 O636 2.297 . S
Mn620 O644 2.385 . S
Mn620 O645 2.209 . S
Mn620 O646 2.094 . S
Mn621 O626 2.121 . S
Mn621 N628 2.257 . S
Mn621 N637 2.282 . S
Mn621 O645 2.215 . S
Mn621 O647 2.117 . S
C622 O644 1.234 . S
C622 O645 1.283 . S
C623 O635 1.281 . S
C623 O636 1.236 . S
C624 O646 1.240 . S
C624 O647 1.264 . S
O625 Mn620 2.095 . S
O625 C634 1.250 . S
O626 Mn621 2.121 . S
O626 C634 1.258 . S
C627 N628 1.326 . S
C627 C631 1.460 . S
C627 H633 0.929 . S
N628 Mn621 2.257 . S
N628 C627 1.326 . S
N628 C632 1.362 . S
C629 C630 1.258 . S
C629 C632 1.431 . S
C629 C649 1.449 . S
C630 C629 1.258 . S
C630 C631 1.477 . S
C630 H650 0.931 . S
C631 C627 1.460 . S
C631 C630 1.477 . S
C631 H651 0.930 . S
C632 N628 1.362 . S
C632 C629 1.431 . S
C632 C642 1.476 . S
H633 C627 0.929 . S
C634 O625 1.250 . S
C634 O626 1.258 . S
O635 Mn620 2.162 . S
O635 C623 1.281 . S
O636 Mn620 2.297 . S
O636 C623 1.236 . S
N637 Mn621 2.282 . S
N637 C638 1.328 . S
N637 C642 1.318 . S
C638 N637 1.328 . S
C638 C639 1.457 . S
C638 H643 0.929 . S
C639 C638 1.457 . S
C639 C640 1.291 . S
C639 H652 0.931 . S
C640 C639 1.291 . S
C640 C641 1.373 . S
C640 H653 0.929 . S
C641 C640 1.373 . S
C641 C642 1.396 . S
C641 C648 1.403 . S
C642 C632 1.476 . S
C642 N637 1.318 . S
C642 C641 1.396 . S
H643 C638 0.929 . S
O644 Mn620 2.385 . S
O644 C622 1.234 . S
O645 Mn620 2.209 . S
O645 Mn621 2.215 . S
O645 C622 1.283 . S
O646 Mn620 2.094 . S
O646 C624 1.240 . S
O647 Mn621 2.117 . S
O647 C624 1.264 . S
C648 C641 1.403 . S
C648 C649 1.399 . S
C648 H654 0.929 . S
C649 C629 1.449 . S
C649 C648 1.399 . S
C649 H655 0.930 . S
H650 C630 0.931 . S
H651 C631 0.930 . S
H652 C639 0.931 . S
H653 C640 0.929 . S
H654 C648 0.929 . S
H655 C649 0.930 . S
C656 C657 1.391 . S
C656 C658 1.394 . S
C656 H672 0.931 . S
C657 C656 1.391 . S
C657 C661 1.376 . S
C658 C656 1.394 . S
C658 C659 1.369 . S
C658 C662 1.531 . S
C659 C658 1.369 . S
C659 C660 1.410 . S
C659 C667 1.503 . S
C660 C659 1.410 . S
C660 C661 1.392 . S
C660 C663 1.511 . S
C661 C657 1.376 . S
C661 C660 1.392 . S
C661 H673 0.929 . S
C662 C658 1.531 . S
C662 H674 0.960 . S
C662 H675 0.962 . S
C662 H676 0.960 . S
C663 C660 1.511 . S
C663 H677 0.961 . S
C663 H678 0.961 . S
C663 H679 0.961 . S
C664 C665 1.370 . S
C664 C666 1.363 . S
C664 H680 0.931 . S
C665 C664 1.370 . S
C665 C669 1.408 . S
C666 C664 1.363 . S
C666 C667 1.370 . S
C666 C670 1.524 . S
C667 C659 1.503 . S
C667 C666 1.370 . S
C667 C668 1.403 . S
C668 C667 1.403 . S
C668 C669 1.404 . S
C668 C671 1.539 . S
C669 C665 1.408 . S
C669 C668 1.404 . S
C669 H681 0.930 . S
C670 C666 1.524 . S
C670 H682 0.956 . S
C670 H683 0.961 . S
C670 H684 0.961 . S
C671 C668 1.539 . S
C671 H685 0.958 . S
C671 H686 0.961 . S
C671 H687 0.960 . S
H672 C656 0.931 . S
H673 C661 0.929 . S
H674 C662 0.960 . S
H675 C662 0.962 . S
H676 C662 0.960 . S
H677 C663 0.961 . S
H678 C663 0.961 . S
H679 C663 0.961 . S
H680 C664 0.931 . S
H681 C669 0.930 . S
H682 C670 0.956 . S
H683 C670 0.961 . S
H684 C670 0.961 . S
H685 C671 0.958 . S
H686 C671 0.961 . S
H687 C671 0.960 . S
C688 C689 1.391 . S
C688 C690 1.394 . S
C688 H704 0.931 . S
C689 C688 1.391 . S
C689 C693 1.376 . S
C690 C688 1.394 . S
C690 C691 1.369 . S
C690 C694 1.531 . S
C691 C690 1.369 . S
C691 C692 1.410 . S
C691 C699 1.503 . S
C692 C691 1.410 . S
C692 C693 1.392 . S
C692 C695 1.511 . S
C693 C689 1.376 . S
C693 C692 1.392 . S
C693 H705 0.929 . S
C694 C690 1.531 . S
C694 H706 0.960 . S
C694 H707 0.962 . S
C694 H708 0.960 . S
C695 C692 1.511 . S
C695 H709 0.961 . S
C695 H710 0.961 . S
C695 H711 0.961 . S
C696 C697 1.370 . S
C696 C698 1.363 . S
C696 H712 0.931 . S
C697 C696 1.370 . S
C697 C701 1.408 . S
C698 C696 1.363 . S
C698 C699 1.370 . S
C698 C702 1.524 . S
C699 C691 1.503 . S
C699 C698 1.370 . S
C699 C700 1.403 . S
C700 C699 1.403 . S
C700 C701 1.404 . S
C700 C703 1.539 . S
C701 C697 1.408 . S
C701 C700 1.404 . S
C701 H713 0.930 . S
C702 C698 1.524 . S
C702 H714 0.956 . S
C702 H715 0.961 . S
C702 H716 0.961 . S
C703 C700 1.539 . S
C703 H717 0.958 . S
C703 H718 0.961 . S
C703 H719 0.960 . S
H704 C688 0.931 . S
H705 C693 0.929 . S
H706 C694 0.960 . S
H707 C694 0.962 . S
H708 C694 0.960 . S
H709 C695 0.961 . S
H710 C695 0.961 . S
H711 C695 0.961 . S
H712 C696 0.931 . S
H713 C701 0.930 . S
H714 C702 0.956 . S
H715 C702 0.961 . S
H716 C702 0.961 . S
H717 C703 0.958 . S
H718 C703 0.961 . S
H719 C703 0.960 . S
C720 C721 1.391 . S
C720 C722 1.394 . S
C720 H736 0.931 . S
C721 C720 1.391 . S
C721 C725 1.376 . S
C722 C720 1.394 . S
C722 C723 1.369 . S
C722 C726 1.531 . S
C723 C722 1.369 . S
C723 C724 1.410 . S
C723 C731 1.503 . S
C724 C723 1.410 . S
C724 C725 1.392 . S
C724 C727 1.511 . S
C725 C721 1.376 . S
C725 C724 1.392 . S
C725 H737 0.929 . S
C726 C722 1.531 . S
C726 H738 0.960 . S
C726 H739 0.962 . S
C726 H740 0.960 . S
C727 C724 1.511 . S
C727 H741 0.961 . S
C727 H742 0.961 . S
C727 H743 0.961 . S
C728 C729 1.370 . S
C728 C730 1.363 . S
C728 H744 0.931 . S
C729 C728 1.370 . S
C729 C733 1.408 . S
C730 C728 1.363 . S
C730 C731 1.370 . S
C730 C734 1.524 . S
C731 C723 1.503 . S
C731 C730 1.370 . S
C731 C732 1.403 . S
C732 C731 1.403 . S
C732 C733 1.404 . S
C732 C735 1.539 . S
C733 C729 1.408 . S
C733 C732 1.404 . S
C733 H745 0.930 . S
C734 C730 1.524 . S
C734 H746 0.956 . S
C734 H747 0.961 . S
C734 H748 0.961 . S
C735 C732 1.539 . S
C735 H749 0.958 . S
C735 H750 0.961 . S
C735 H751 0.960 . S
H736 C720 0.931 . S
H737 C725 0.929 . S
H738 C726 0.960 . S
H739 C726 0.962 . S
H740 C726 0.960 . S
H741 C727 0.961 . S
H742 C727 0.961 . S
H743 C727 0.961 . S
H744 C728 0.931 . S
H745 C733 0.930 . S
H746 C734 0.956 . S
H747 C734 0.961 . S
H748 C734 0.961 . S
H749 C735 0.958 . S
H750 C735 0.961 . S
H751 C735 0.960 . S
C752 C753 1.391 . S
C752 C754 1.394 . S
C752 H768 0.931 . S
C753 C752 1.391 . S
C753 C757 1.376 . S
C754 C752 1.394 . S
C754 C755 1.369 . S
C754 C758 1.531 1_554 S
C755 C754 1.369 . S
C755 C756 1.410 . S
C755 C763 1.503 . S
C756 C755 1.410 . S
C756 C757 1.392 . S
C756 C759 1.511 . S
C757 C753 1.376 . S
C757 C756 1.392 . S
C757 H769 0.929 . S
C758 C754 1.531 1_556 S
C758 H770 0.960 . S
C758 H771 0.962 . S
C758 H772 0.960 . S
C759 C756 1.511 . S
C759 H773 0.961 . S
C759 H774 0.961 . S
C759 H775 0.961 . S
C760 C761 1.370 . S
C760 C762 1.363 . S
C760 H776 0.931 . S
C761 C760 1.370 . S
C761 C765 1.408 . S
C762 C760 1.363 . S
C762 C763 1.370 . S
C762 C766 1.524 . S
C763 C755 1.503 . S
C763 C762 1.370 . S
C763 C764 1.403 . S
C764 C763 1.403 . S
C764 C765 1.404 . S
C764 C767 1.539 . S
C765 C761 1.408 . S
C765 C764 1.404 . S
C765 H777 0.930 1_554 S
C766 C762 1.524 . S
C766 H778 0.956 . S
C766 H779 0.961 . S
C766 H780 0.961 . S
C767 C764 1.539 . S
C767 H781 0.958 1_554 S
C767 H782 0.961 . S
C767 H783 0.960 . S
H768 C752 0.931 . S
H769 C757 0.929 . S
H770 C758 0.960 . S
H771 C758 0.962 . S
H772 C758 0.960 . S
H773 C759 0.961 . S
H774 C759 0.961 . S
H775 C759 0.961 . S
H776 C760 0.931 . S
H777 C765 0.930 1_556 S
H778 C766 0.956 . S
H779 C766 0.961 . S
H780 C766 0.961 . S
H781 C767 0.958 1_556 S
H782 C767 0.961 . S
H783 C767 0.960 . S
C784 C785 1.391 . S
C784 C786 1.394 . S
C784 H800 0.931 . S
C785 C784 1.391 . S
C785 C789 1.376 . S
C786 C784 1.394 . S
C786 C787 1.369 . S
C786 C790 1.502 1_556 S
C787 C786 1.369 . S
C787 C788 1.410 . S
C787 C795 1.503 . S
C788 C787 1.410 . S
C788 C789 1.392 . S
C788 C791 1.511 . S
C789 C785 1.376 . S
C789 C788 1.392 . S
C789 H801 0.929 . S
C790 C786 1.502 1_554 S
C790 H802 0.984 . S
C790 H803 0.940 1_554 S
C790 H804 0.990 . S
C791 C788 1.511 . S
C791 H805 0.961 . S
C791 H806 0.961 . S
C791 H807 0.961 . S
C792 C793 1.370 . S
C792 C794 1.363 . S
C792 H808 0.931 . S
C793 C792 1.370 . S
C793 C797 1.408 1_556 S
C794 C792 1.363 . S
C794 C795 1.370 . S
C794 C798 1.524 . S
C795 C787 1.503 . S
C795 C794 1.370 . S
C795 C796 1.403 . S
C796 C795 1.403 . S
C796 C797 1.404 1_556 S
C796 C799 1.539 1_556 S
C797 C793 1.408 1_554 S
C797 C796 1.404 1_554 S
C797 H809 0.930 . S
C798 C794 1.524 . S
C798 H810 0.956 . S
C798 H811 0.961 . S
C798 H812 0.961 . S
C799 C796 1.539 1_554 S
C799 H813 0.958 . S
C799 H814 0.961 . S
C799 H815 0.960 . S
H800 C784 0.931 . S
H801 C789 0.929 . S
H802 C790 0.984 . S
H803 C790 0.940 1_556 S
H804 C790 0.990 . S
H805 C791 0.961 . S
H806 C791 0.961 . S
H807 C791 0.961 . S
H808 C792 0.931 . S
H809 C797 0.930 . S
H810 C798 0.956 . S
H811 C798 0.961 . S
H812 C798 0.961 . S
H813 C799 0.958 . S
H814 C799 0.961 . S
H815 C799 0.960 . S
C816 C817 1.391 . S
C816 C818 1.394 . S
C816 H832 0.931 . S
C817 C816 1.391 . S
C817 C821 1.376 . S
C818 C816 1.394 . S
C818 C819 1.369 . S
C818 C822 1.531 . S
C819 C818 1.369 . S
C819 C820 1.410 . S
C819 C827 1.503 . S
C820 C819 1.410 . S
C820 C821 1.392 . S
C820 C823 1.511 . S
C821 C817 1.376 . S
C821 C820 1.392 . S
C821 H833 0.929 . S
C822 C818 1.531 . S
C822 H834 0.960 . S
C822 H835 0.962 . S
C822 H836 0.960 . S
C823 C820 1.511 . S
C823 H837 0.961 . S
C823 H838 0.961 . S
C823 H839 0.961 . S
C824 C825 1.370 . S
C824 C826 1.363 . S
C824 H840 0.931 . S
C825 C824 1.370 . S
C825 C829 1.408 . S
C826 C824 1.363 . S
C826 C827 1.370 . S
C826 C830 1.524 . S
C827 C819 1.503 . S
C827 C826 1.370 . S
C827 C828 1.403 . S
C828 C827 1.403 . S
C828 C829 1.404 . S
C828 C831 1.539 . S
C829 C825 1.408 . S
C829 C828 1.404 . S
C829 H841 0.930 . S
C830 C826 1.524 . S
C830 H842 0.956 . S
C830 H843 0.961 . S
C830 H844 0.961 . S
C831 C828 1.539 . S
C831 H845 0.958 . S
C831 H846 0.961 . S
C831 H847 0.960 . S
H832 C816 0.931 . S
H833 C821 0.929 . S
H834 C822 0.960 . S
H835 C822 0.962 . S
H836 C822 0.960 . S
H837 C823 0.961 . S
H838 C823 0.961 . S
H839 C823 0.961 . S
H840 C824 0.931 . S
H841 C829 0.930 . S
H842 C830 0.956 . S
H843 C830 0.961 . S
H844 C830 0.961 . S
H845 C831 0.958 . S
H846 C831 0.961 . S
H847 C831 0.960 . S
C848 C849 1.391 . S
C848 C850 1.394 . S
C848 H864 0.931 . S
C849 C848 1.391 . S
C849 C853 1.376 . S
C850 C848 1.394 . S
C850 C851 1.369 . S
C850 C854 1.531 . S
C851 C850 1.369 . S
C851 C852 1.410 . S
C851 C859 1.503 . S
C852 C851 1.410 . S
C852 C853 1.392 . S
C852 C855 1.511 . S
C853 C849 1.376 . S
C853 C852 1.392 . S
C853 H865 0.929 . S
C854 C850 1.531 . S
C854 H866 0.960 . S
C854 H867 0.962 . S
C854 H868 0.960 . S
C855 C852 1.511 . S
C855 H869 0.961 . S
C855 H870 0.961 . S
C855 H871 0.961 . S
C856 C857 1.370 . S
C856 C858 1.363 . S
C856 H872 0.931 . S
C857 C856 1.370 . S
C857 C861 1.408 . S
C858 C856 1.363 . S
C858 C859 1.370 . S
C858 C862 1.524 . S
C859 C851 1.503 . S
C859 C858 1.370 . S
C859 C860 1.403 . S
C860 C859 1.403 . S
C860 C861 1.404 . S
C860 C863 1.539 . S
C861 C857 1.408 . S
C861 C860 1.404 . S
C861 H873 0.930 . S
C862 C858 1.524 . S
C862 H874 0.956 . S
C862 H875 0.961 . S
C862 H876 0.961 . S
C863 C860 1.539 . S
C863 H877 0.958 . S
C863 H878 0.961 . S
C863 H879 0.960 . S
H864 C848 0.931 . S
H865 C853 0.929 . S
H866 C854 0.960 . S
H867 C854 0.962 . S
H868 C854 0.960 . S
H869 C855 0.961 . S
H870 C855 0.961 . S
H871 C855 0.961 . S
H872 C856 0.931 . S
H873 C861 0.930 . S
H874 C862 0.956 . S
H875 C862 0.961 . S
H876 C862 0.961 . S
H877 C863 0.958 . S
H878 C863 0.961 . S
H879 C863 0.960 . S
C880 C881 1.391 . S
C880 C882 1.394 . S
C880 H896 0.931 . S
C881 C880 1.391 . S
C881 C885 1.376 . S
C882 C880 1.394 . S
C882 C883 1.369 . S
C882 C886 1.531 . S
C883 C882 1.369 . S
C883 C884 1.410 . S
C883 C891 1.503 . S
C884 C883 1.410 . S
C884 C885 1.392 . S
C884 C887 1.511 . S
C885 C881 1.376 . S
C885 C884 1.392 . S
C885 H897 0.929 . S
C886 C882 1.531 . S
C886 H898 0.960 . S
C886 H899 0.962 . S
C886 H900 0.960 . S
C887 C884 1.511 . S
C887 H901 0.961 . S
C887 H902 0.961 . S
C887 H903 0.961 . S
C888 C889 1.370 . S
C888 C890 1.363 . S
C888 H904 0.931 . S
C889 C888 1.370 . S
C889 C893 1.408 . S
C890 C888 1.363 . S
C890 C891 1.370 . S
C890 C894 1.524 . S
C891 C883 1.503 . S
C891 C890 1.370 . S
C891 C892 1.403 . S
C892 C891 1.403 . S
C892 C893 1.404 . S
C892 C895 1.539 . S
C893 C889 1.408 . S
C893 C892 1.404 . S
C893 H905 0.930 . S
C894 C890 1.524 . S
C894 H906 0.956 . S
C894 H907 0.961 . S
C894 H908 0.961 . S
C895 C892 1.539 . S
C895 H909 0.958 . S
C895 H910 0.961 . S
C895 H911 0.960 . S
H896 C880 0.931 . S
H897 C885 0.929 . S
H898 C886 0.960 . S
H899 C886 0.962 . S
H900 C886 0.960 . S
H901 C887 0.961 . S
H902 C887 0.961 . S
H903 C887 0.961 . S
H904 C888 0.931 . S
H905 C893 0.930 . S
H906 C894 0.956 . S
H907 C894 0.961 . S
H908 C894 0.961 . S
H909 C895 0.958 . S
H910 C895 0.961 . S
H911 C895 0.960 . S
C912 C913 1.391 . S
C912 C914 1.394 . S
C912 H928 0.931 . S
C913 C912 1.391 . S
C913 C917 1.376 . S
C914 C912 1.394 . S
C914 C915 1.369 . S
C914 C918 1.531 . S
C915 C914 1.369 . S
C915 C916 1.410 . S
C915 C923 1.503 . S
C916 C915 1.410 . S
C916 C917 1.392 . S
C916 C919 1.511 . S
C917 C913 1.376 . S
C917 C916 1.392 . S
C917 H929 0.929 . S
C918 C914 1.531 . S
C918 H930 0.960 . S
C918 H931 0.962 . S
C918 H932 0.960 . S
C919 C916 1.511 . S
C919 H933 0.961 . S
C919 H934 0.961 . S
C919 H935 0.961 . S
C920 C921 1.370 . S
C920 C922 1.363 . S
C920 H936 0.931 . S
C921 C920 1.370 . S
C921 C925 1.408 . S
C922 C920 1.363 . S
C922 C923 1.370 . S
C922 C926 1.524 . S
C923 C915 1.503 . S
C923 C922 1.370 . S
C923 C924 1.403 . S
C924 C923 1.403 . S
C924 C925 1.404 . S
C924 C927 1.539 . S
C925 C921 1.408 . S
C925 C924 1.404 . S
C925 H937 0.930 . S
C926 C922 1.524 . S
C926 H938 0.956 . S
C926 H939 0.961 . S
C926 H940 0.961 . S
C927 C924 1.539 . S
C927 H941 0.958 . S
C927 H942 0.961 . S
C927 H943 0.960 . S
H928 C912 0.931 . S
H929 C917 0.929 . S
H930 C918 0.960 . S
H931 C918 0.962 . S
H932 C918 0.960 . S
H933 C919 0.961 . S
H934 C919 0.961 . S
H935 C919 0.961 . S
H936 C920 0.931 . S
H937 C925 0.930 . S
H938 C926 0.956 . S
H939 C926 0.961 . S
H940 C926 0.961 . S
H941 C927 0.958 . S
H942 C927 0.961 . S
H943 C927 0.960 . S
C944 C945 1.391 . S
C944 C946 1.394 . S
C944 H960 0.931 . S
C945 C944 1.391 . S
C945 C949 1.376 . S
C946 C944 1.394 . S
C946 C947 1.369 . S
C946 C950 1.531 . S
C947 C946 1.369 . S
C947 C948 1.410 . S
C947 C955 1.503 . S
C948 C947 1.410 . S
C948 C949 1.392 . S
C948 C951 1.511 . S
C949 C945 1.376 . S
C949 C948 1.392 . S
C949 H961 0.929 . S
C950 C946 1.531 . S
C950 H962 0.960 . S
C950 H963 0.962 . S
C950 H964 0.960 . S
C951 C948 1.511 . S
C951 H965 0.961 . S
C951 H966 0.961 . S
C951 H967 0.961 . S
C952 C953 1.370 . S
C952 C954 1.363 . S
C952 H968 0.931 1_554 S
C953 C952 1.370 . S
C953 C957 1.408 . S
C954 C952 1.363 . S
C954 C955 1.370 . S
C954 C958 1.524 1_554 S
C955 C947 1.503 . S
C955 C954 1.370 . S
C955 C956 1.403 . S
C956 C955 1.403 . S
C956 C957 1.404 . S
C956 C959 1.539 . S
C957 C953 1.408 . S
C957 C956 1.404 . S
C957 H969 0.930 . S
C958 C954 1.524 1_556 S
C958 H970 0.956 . S
C958 H971 0.961 . S
C958 H972 0.961 . S
C959 C956 1.539 . S
C959 H973 0.958 . S
C959 H974 0.961 . S
C959 H975 0.960 . S
H960 C944 0.931 . S
H961 C949 0.929 . S
H962 C950 0.960 . S
H963 C950 0.962 . S
H964 C950 0.960 . S
H965 C951 0.961 . S
H966 C951 0.961 . S
H967 C951 0.961 . S
H968 C952 0.931 1_556 S
H969 C957 0.930 . S
H970 C958 0.956 . S
H971 C958 0.961 . S
H972 C958 0.961 . S
H973 C959 0.958 . S
H974 C959 0.961 . S
H975 C959 0.960 . S
C976 C977 1.391 . S
C976 C978 1.394 . S
C976 H992 0.931 . S
C977 C976 1.391 . S
C977 C981 1.376 . S
C978 C976 1.394 . S
C978 C979 1.369 . S
C978 C982 1.531 . S
C979 C978 1.369 . S
C979 C980 1.410 . S
C979 C987 1.503 . S
C980 C979 1.410 . S
C980 C981 1.392 . S
C980 C983 1.511 . S
C981 C977 1.376 . S
C981 C980 1.392 . S
C981 H993 0.929 . S
C982 C978 1.531 . S
C982 H994 0.960 . S
C982 H995 0.962 . S
C982 H996 0.960 . S
C983 C980 1.511 . S
C983 H997 0.961 . S
C983 H998 0.961 . S
C983 H999 0.961 . S
C984 C985 1.370 . S
C984 C986 1.363 . S
C984 H1000 0.931 . S
C985 C984 1.370 . S
C985 C989 1.408 . S
C986 C984 1.363 . S
C986 C987 1.370 . S
C986 C990 1.524 . S
C987 C979 1.503 . S
C987 C986 1.370 . S
C987 C988 1.403 . S
C988 C987 1.403 . S
C988 C989 1.404 . S
C988 C991 1.539 . S
C989 C985 1.408 . S
C989 C988 1.404 . S
C989 H1001 0.930 . S
C990 C986 1.524 . S
C990 H1002 0.956 . S
C990 H1003 0.961 . S
C990 H1004 0.961 . S
C991 C988 1.539 . S
C991 H1005 0.958 . S
C991 H1006 0.961 . S
C991 H1007 0.960 . S
H992 C976 0.931 . S
H993 C981 0.929 . S
H994 C982 0.960 . S
H995 C982 0.962 . S
H996 C982 0.960 . S
H997 C983 0.961 . S
H998 C983 0.961 . S
H999 C983 0.961 . S
H1000 C984 0.931 . S
H1001 C989 0.930 . S
H1002 C990 0.956 . S
H1003 C990 0.961 . S
H1004 C990 0.961 . S
H1005 C991 0.958 . S
H1006 C991 0.961 . S
H1007 C991 0.960 . S
C1008 C1009 1.391 . S
C1008 C1010 1.394 . S
C1008 H1024 0.931 . S
C1009 C1008 1.391 . S
C1009 C1013 1.376 . S
C1010 C1008 1.394 . S
C1010 C1011 1.369 . S
C1010 C1014 1.531 . S
C1011 C1010 1.369 . S
C1011 C1012 1.410 . S
C1011 C1019 1.503 . S
C1012 C1011 1.410 . S
C1012 C1013 1.392 . S
C1012 C1015 1.511 . S
C1013 C1009 1.376 . S
C1013 C1012 1.392 . S
C1013 H1025 0.929 . S
C1014 C1010 1.531 . S
C1014 H1026 0.960 . S
C1014 H1027 0.962 . S
C1014 H1028 0.960 . S
C1015 C1012 1.511 . S
C1015 H1029 0.961 . S
C1015 H1030 0.961 . S
C1015 H1031 0.961 . S
C1016 C1017 1.370 . S
C1016 C1018 1.363 . S
C1016 H1032 0.931 . S
C1017 C1016 1.370 . S
C1017 C1021 1.408 . S
C1018 C1016 1.363 . S
C1018 C1019 1.370 . S
C1018 C1022 1.524 . S
C1019 C1011 1.503 . S
C1019 C1018 1.370 . S
C1019 C1020 1.403 . S
C1020 C1019 1.403 . S
C1020 C1021 1.404 . S
C1020 C1023 1.539 . S
C1021 C1017 1.408 . S
C1021 C1020 1.404 . S
C1021 H1033 0.930 . S
C1022 C1018 1.524 . S
C1022 H1034 0.956 . S
C1022 H1035 0.961 . S
C1022 H1036 0.961 . S
C1023 C1020 1.539 . S
C1023 H1037 0.958 . S
C1023 H1038 0.961 . S
C1023 H1039 0.960 . S
H1024 C1008 0.931 . S
H1025 C1013 0.929 . S
H1026 C1014 0.960 . S
H1027 C1014 0.962 . S
H1028 C1014 0.960 . S
H1029 C1015 0.961 . S
H1030 C1015 0.961 . S
H1031 C1015 0.961 . S
H1032 C1016 0.931 . S
H1033 C1021 0.930 . S
H1034 C1022 0.956 . S
H1035 C1022 0.961 . S
H1036 C1022 0.961 . S
H1037 C1023 0.958 . S
H1038 C1023 0.961 . S
H1039 C1023 0.960 . S
C1040 C1041 1.391 . S
C1040 C1042 1.394 . S
C1040 H1056 0.931 . S
C1041 C1040 1.391 . S
C1041 C1045 1.376 . S
C1042 C1040 1.394 . S
C1042 C1043 1.369 . S
C1042 C1046 1.531 . S
C1043 C1042 1.369 . S
C1043 C1044 1.410 . S
C1043 C1051 1.503 . S
C1044 C1043 1.410 . S
C1044 C1045 1.392 . S
C1044 C1047 1.511 . S
C1045 C1041 1.376 . S
C1045 C1044 1.392 . S
C1045 H1057 0.929 . S
C1046 C1042 1.531 . S
C1046 H1058 0.960 . S
C1046 H1059 0.962 . S
C1046 H1060 0.960 . S
C1047 C1044 1.511 . S
C1047 H1061 0.961 . S
C1047 H1062 0.961 . S
C1047 H1063 0.961 . S
C1048 C1049 1.370 . S
C1048 C1050 1.363 . S
C1048 H1064 0.931 . S
C1049 C1048 1.370 . S
C1049 C1053 1.408 . S
C1050 C1048 1.363 . S
C1050 C1051 1.370 . S
C1050 C1054 1.524 . S
C1051 C1043 1.503 . S
C1051 C1050 1.370 . S
C1051 C1052 1.403 . S
C1052 C1051 1.403 . S
C1052 C1053 1.404 . S
C1052 C1055 1.539 . S
C1053 C1049 1.408 . S
C1053 C1052 1.404 . S
C1053 H1065 0.930 . S
C1054 C1050 1.524 . S
C1054 H1066 0.956 . S
C1054 H1067 0.961 . S
C1054 H1068 0.961 . S
C1055 C1052 1.539 . S
C1055 H1069 0.958 . S
C1055 H1070 0.961 . S
C1055 H1071 0.960 . S
H1056 C1040 0.931 . S
H1057 C1045 0.929 . S
H1058 C1046 0.960 . S
H1059 C1046 0.962 . S
H1060 C1046 0.960 . S
H1061 C1047 0.961 . S
H1062 C1047 0.961 . S
H1063 C1047 0.961 . S
H1064 C1048 0.931 . S
H1065 C1053 0.930 . S
H1066 C1054 0.956 . S
H1067 C1054 0.961 . S
H1068 C1054 0.961 . S
H1069 C1055 0.958 . S
H1070 C1055 0.961 . S
H1071 C1055 0.960 . S
C1072 C1073 1.391 . S
C1072 C1074 1.394 . S
C1072 H1088 0.931 . S
C1073 C1072 1.391 . S
C1073 C1077 1.376 . S
C1074 C1072 1.394 . S
C1074 C1075 1.369 . S
C1074 C1078 1.531 . S
C1075 C1074 1.369 . S
C1075 C1076 1.410 . S
C1075 C1083 1.503 . S
C1076 C1075 1.410 . S
C1076 C1077 1.392 . S
C1076 C1079 1.511 . S
C1077 C1073 1.376 . S
C1077 C1076 1.392 . S
C1077 H1089 0.929 . S
C1078 C1074 1.531 . S
C1078 H1090 0.960 . S
C1078 H1091 0.962 . S
C1078 H1092 0.960 . S
C1079 C1076 1.511 . S
C1079 H1093 0.961 . S
C1079 H1094 0.961 . S
C1079 H1095 0.961 . S
C1080 C1081 1.370 . S
C1080 C1082 1.363 . S
C1080 H1096 0.931 . S
C1081 C1080 1.370 . S
C1081 C1085 1.408 . S
C1082 C1080 1.363 . S
C1082 C1083 1.370 . S
C1082 C1086 1.524 . S
C1083 C1075 1.503 . S
C1083 C1082 1.370 . S
C1083 C1084 1.403 . S
C1084 C1083 1.403 . S
C1084 C1085 1.404 . S
C1084 C1087 1.539 . S
C1085 C1081 1.408 . S
C1085 C1084 1.404 . S
C1085 H1097 0.930 . S
C1086 C1082 1.524 . S
C1086 H1098 0.956 . S
C1086 H1099 0.961 . S
C1086 H1100 0.961 . S
C1087 C1084 1.539 . S
C1087 H1101 0.958 . S
C1087 H1102 0.961 . S
C1087 H1103 0.960 . S
H1088 C1072 0.931 . S
H1089 C1077 0.929 . S
H1090 C1078 0.960 . S
H1091 C1078 0.962 . S
H1092 C1078 0.960 . S
H1093 C1079 0.961 . S
H1094 C1079 0.961 . S
H1095 C1079 0.961 . S
H1096 C1080 0.931 . S
H1097 C1085 0.930 . S
H1098 C1086 0.956 . S
H1099 C1086 0.961 . S
H1100 C1086 0.961 . S
H1101 C1087 0.958 . S
H1102 C1087 0.961 . S
H1103 C1087 0.960 . S
C1104 C1105 1.391 . S
C1104 C1106 1.394 . S
C1104 H1120 0.931 . S
C1105 C1104 1.391 . S
C1105 C1109 1.376 . S
C1106 C1104 1.394 . S
C1106 C1107 1.369 . S
C1106 C1110 1.531 1_556 S
C1107 C1106 1.369 . S
C1107 C1108 1.410 . S
C1107 C1115 1.503 . S
C1108 C1107 1.410 . S
C1108 C1109 1.392 . S
C1108 C1111 1.511 . S
C1109 C1105 1.376 . S
C1109 C1108 1.392 . S
C1109 H1121 0.929 . S
C1110 C1106 1.531 1_554 S
C1110 H1122 0.960 . S
C1110 H1123 0.962 1_554 S
C1110 H1124 0.960 . S
C1111 C1108 1.511 . S
C1111 H1125 0.961 . S
C1111 H1126 0.961 . S
C1111 H1127 0.961 . S
C1112 C1113 1.370 . S
C1112 C1114 1.363 . S
C1112 H1128 0.931 . S
C1113 C1112 1.370 . S
C1113 C1117 1.408 1_556 S
C1114 C1112 1.363 . S
C1114 C1115 1.370 . S
C1114 C1118 1.524 . S
C1115 C1107 1.503 . S
C1115 C1114 1.370 . S
C1115 C1116 1.413 . S
C1116 C1115 1.413 . S
C1116 C1117 1.401 1_556 S
C1116 C1119 1.532 1_556 S
C1117 C1113 1.408 1_554 S
C1117 C1116 1.401 1_554 S
C1117 H1129 0.930 . S
C1118 C1114 1.524 . S
C1118 H1130 0.956 . S
C1118 H1131 0.961 . S
C1118 H1132 0.961 . S
C1119 C1116 1.532 1_554 S
C1119 H1133 0.958 . S
C1119 H1134 0.961 . S
C1119 H1135 0.960 . S
H1120 C1104 0.931 . S
H1121 C1109 0.929 . S
H1122 C1110 0.960 . S
H1123 C1110 0.962 1_556 S
H1124 C1110 0.960 . S
H1125 C1111 0.961 . S
H1126 C1111 0.961 . S
H1127 C1111 0.961 . S
H1128 C1112 0.931 . S
H1129 C1117 0.930 . S
H1130 C1118 0.956 . S
H1131 C1118 0.961 . S
H1132 C1118 0.961 . S
H1133 C1119 0.958 . S
H1134 C1119 0.961 . S
H1135 C1119 0.960 . S
C1136 C1137 1.391 . S
C1136 C1138 1.394 . S
C1136 H1152 0.931 . S
C1137 C1136 1.391 . S
C1137 C1141 1.376 . S
C1138 C1136 1.394 . S
C1138 C1139 1.369 . S
C1138 C1142 1.531 . S
C1139 C1138 1.369 . S
C1139 C1140 1.410 . S
C1139 C1147 1.503 . S
C1140 C1139 1.410 . S
C1140 C1141 1.392 . S
C1140 C1143 1.511 . S
C1141 C1137 1.376 . S
C1141 C1140 1.392 . S
C1141 H1153 0.929 . S
C1142 C1138 1.531 . S
C1142 H1154 0.960 . S
C1142 H1155 0.962 . S
C1142 H1156 0.960 . S
C1143 C1140 1.511 . S
C1143 H1157 0.961 . S
C1143 H1158 0.961 . S
C1143 H1159 0.961 . S
C1144 C1145 1.370 . S
C1144 C1146 1.363 . S
C1144 H1160 0.931 . S
C1145 C1144 1.370 . S
C1145 C1149 1.408 . S
C1146 C1144 1.363 . S
C1146 C1147 1.370 . S
C1146 C1150 1.524 . S
C1147 C1139 1.503 . S
C1147 C1146 1.370 . S
C1147 C1148 1.403 . S
C1148 C1147 1.403 . S
C1148 C1149 1.404 . S
C1148 C1151 1.539 . S
C1149 C1145 1.408 . S
C1149 C1148 1.404 . S
C1149 H1161 0.930 . S
C1150 C1146 1.524 . S
C1150 H1162 0.956 . S
C1150 H1163 0.961 . S
C1150 H1164 0.961 . S
C1151 C1148 1.539 . S
C1151 H1165 0.958 . S
C1151 H1166 0.961 . S
C1151 H1167 0.960 . S
H1152 C1136 0.931 . S
H1153 C1141 0.929 . S
H1154 C1142 0.960 . S
H1155 C1142 0.962 . S
H1156 C1142 0.960 . S
H1157 C1143 0.961 . S
H1158 C1143 0.961 . S
H1159 C1143 0.961 . S
H1160 C1144 0.931 . S
H1161 C1149 0.930 . S
H1162 C1150 0.956 . S
H1163 C1150 0.961 . S
H1164 C1150 0.961 . S
H1165 C1151 0.958 . S
H1166 C1151 0.961 . S
H1167 C1151 0.960 . S
C1168 C1169 1.391 . S
C1168 C1170 1.394 . S
C1168 H1184 0.931 . S
C1169 C1168 1.391 . S
C1169 C1173 1.376 . S
C1170 C1168 1.394 . S
C1170 C1171 1.369 . S
C1170 C1174 1.531 . S
C1171 C1170 1.369 . S
C1171 C1172 1.410 . S
C1171 C1179 1.503 . S
C1172 C1171 1.410 . S
C1172 C1173 1.392 . S
C1172 C1175 1.511 . S
C1173 C1169 1.376 . S
C1173 C1172 1.392 . S
C1173 H1185 0.929 . S
C1174 C1170 1.531 . S
C1174 H1186 0.960 . S
C1174 H1187 0.962 . S
C1174 H1188 0.960 . S
C1175 C1172 1.511 . S
C1175 H1189 0.961 . S
C1175 H1190 0.961 . S
C1175 H1191 0.961 . S
C1176 C1177 1.370 . S
C1176 C1178 1.363 . S
C1176 H1192 0.931 . S
C1177 C1176 1.370 . S
C1177 C1181 1.408 . S
C1178 C1176 1.363 . S
C1178 C1179 1.370 . S
C1178 C1182 1.524 . S
C1179 C1171 1.503 . S
C1179 C1178 1.370 . S
C1179 C1180 1.403 . S
C1180 C1179 1.403 . S
C1180 C1181 1.404 . S
C1180 C1183 1.539 . S
C1181 C1177 1.408 . S
C1181 C1180 1.404 . S
C1181 H1193 0.930 . S
C1182 C1178 1.524 . S
C1182 H1194 0.956 . S
C1182 H1195 0.961 . S
C1182 H1196 0.961 . S
C1183 C1180 1.539 . S
C1183 H1197 0.958 . S
C1183 H1198 0.961 . S
C1183 H1199 0.960 . S
H1184 C1168 0.931 . S
H1185 C1173 0.929 . S
H1186 C1174 0.960 . S
H1187 C1174 0.962 . S
H1188 C1174 0.960 . S
H1189 C1175 0.961 . S
H1190 C1175 0.961 . S
H1191 C1175 0.961 . S
H1192 C1176 0.931 . S
H1193 C1181 0.930 . S
H1194 C1182 0.956 . S
H1195 C1182 0.961 . S
H1196 C1182 0.961 . S
H1197 C1183 0.958 . S
H1198 C1183 0.961 . S
H1199 C1183 0.960 . S
C1200 C1201 1.391 . S
C1200 C1202 1.394 . S
C1200 H1216 0.931 . S
C1201 C1200 1.391 . S
C1201 C1205 1.376 . S
C1202 C1200 1.394 . S
C1202 C1203 1.369 . S
C1202 C1206 1.531 . S
C1203 C1202 1.369 . S
C1203 C1204 1.410 . S
C1203 C1211 1.503 . S
C1204 C1203 1.410 . S
C1204 C1205 1.392 . S
C1204 C1207 1.511 . S
C1205 C1201 1.376 . S
C1205 C1204 1.392 . S
C1205 H1217 0.929 . S
C1206 C1202 1.531 . S
C1206 H1218 0.960 . S
C1206 H1219 0.962 . S
C1206 H1220 0.960 . S
C1207 C1204 1.511 . S
C1207 H1221 0.961 . S
C1207 H1222 0.961 . S
C1207 H1223 0.961 . S
C1208 C1209 1.370 . S
C1208 C1210 1.363 . S
C1208 H1224 0.931 . S
C1209 C1208 1.370 . S
C1209 C1213 1.408 . S
C1210 C1208 1.363 . S
C1210 C1211 1.370 . S
C1210 C1214 1.524 . S
C1211 C1203 1.503 . S
C1211 C1210 1.370 . S
C1211 C1212 1.403 . S
C1212 C1211 1.403 . S
C1212 C1213 1.404 . S
C1212 C1215 1.539 . S
C1213 C1209 1.408 . S
C1213 C1212 1.404 . S
C1213 H1225 0.930 . S
C1214 C1210 1.524 . S
C1214 H1226 0.956 . S
C1214 H1227 0.961 . S
C1214 H1228 0.961 . S
C1215 C1212 1.539 . S
C1215 H1229 0.958 . S
C1215 H1230 0.961 . S
C1215 H1231 0.960 . S
H1216 C1200 0.931 . S
H1217 C1205 0.929 . S
H1218 C1206 0.960 . S
H1219 C1206 0.962 . S
H1220 C1206 0.960 . S
H1221 C1207 0.961 . S
H1222 C1207 0.961 . S
H1223 C1207 0.961 . S
H1224 C1208 0.931 . S
H1225 C1213 0.930 . S
H1226 C1214 0.956 . S
H1227 C1214 0.961 . S
H1228 C1214 0.961 . S
H1229 C1215 0.958 . S
H1230 C1215 0.961 . S
H1231 C1215 0.960 . S
C1232 C1233 1.391 . S
C1232 C1234 1.394 . S
C1232 H1248 0.931 . S
C1233 C1232 1.391 . S
C1233 C1237 1.376 . S
C1234 C1232 1.394 . S
C1234 C1235 1.369 . S
C1234 C1238 1.531 . S
C1235 C1234 1.369 . S
C1235 C1236 1.410 . S
C1235 C1243 1.503 . S
C1236 C1235 1.410 . S
C1236 C1237 1.392 . S
C1236 C1239 1.511 . S
C1237 C1233 1.376 . S
C1237 C1236 1.392 . S
C1237 H1249 0.929 . S
C1238 C1234 1.531 . S
C1238 H1250 0.960 . S
C1238 H1251 0.962 . S
C1238 H1252 0.960 . S
C1239 C1236 1.511 . S
C1239 H1253 0.961 . S
C1239 H1254 0.961 . S
C1239 H1255 0.961 . S
C1240 C1241 1.370 . S
C1240 C1242 1.363 . S
C1240 H1256 0.931 . S
C1241 C1240 1.370 . S
C1241 C1245 1.408 . S
C1242 C1240 1.363 . S
C1242 C1243 1.370 . S
C1242 C1246 1.524 . S
C1243 C1235 1.503 . S
C1243 C1242 1.370 . S
C1243 C1244 1.403 . S
C1244 C1243 1.403 . S
C1244 C1245 1.404 . S
C1244 C1247 1.539 . S
C1245 C1241 1.408 . S
C1245 C1244 1.404 . S
C1245 H1257 0.930 . S
C1246 C1242 1.524 . S
C1246 H1258 0.956 . S
C1246 H1259 0.961 . S
C1246 H1260 0.961 . S
C1247 C1244 1.539 . S
C1247 H1261 0.958 . S
C1247 H1262 0.961 . S
C1247 H1263 0.960 . S
H1248 C1232 0.931 . S
H1249 C1237 0.929 . S
H1250 C1238 0.960 . S
H1251 C1238 0.962 . S
H1252 C1238 0.960 . S
H1253 C1239 0.961 . S
H1254 C1239 0.961 . S
H1255 C1239 0.961 . S
H1256 C1240 0.931 . S
H1257 C1245 0.930 . S
H1258 C1246 0.956 . S
H1259 C1246 0.961 . S
H1260 C1246 0.961 . S
H1261 C1247 0.958 . S
H1262 C1247 0.961 . S
H1263 C1247 0.960 . S
C1264 C1265 1.391 . S
C1264 C1266 1.394 . S
C1264 H1280 0.931 . S
C1265 C1264 1.391 . S
C1265 C1269 1.376 . S
C1266 C1264 1.394 . S
C1266 C1267 1.369 . S
C1266 C1270 1.531 . S
C1267 C1266 1.369 . S
C1267 C1268 1.410 . S
C1267 C1275 1.503 . S
C1268 C1267 1.410 . S
C1268 C1269 1.392 . S
C1268 C1271 1.511 . S
C1269 C1265 1.376 . S
C1269 C1268 1.392 . S
C1269 H1281 0.929 . S
C1270 C1266 1.531 . S
C1270 H1282 0.960 . S
C1270 H1283 0.962 . S
C1270 H1284 0.960 . S
C1271 C1268 1.511 . S
C1271 H1285 0.961 . S
C1271 H1286 0.961 . S
C1271 H1287 0.961 . S
C1272 C1273 1.370 . S
C1272 C1274 1.363 . S
C1272 H1288 0.931 . S
C1273 C1272 1.370 . S
C1273 C1277 1.408 . S
C1274 C1272 1.363 . S
C1274 C1275 1.370 . S
C1274 C1278 1.524 . S
C1275 C1267 1.503 . S
C1275 C1274 1.370 . S
C1275 C1276 1.403 . S
C1276 C1275 1.403 . S
C1276 C1277 1.404 . S
C1276 C1279 1.539 . S
C1277 C1273 1.408 . S
C1277 C1276 1.404 . S
C1277 H1289 0.930 . S
C1278 C1274 1.524 . S
C1278 H1290 0.956 . S
C1278 H1291 0.961 . S
C1278 H1292 0.961 . S
C1279 C1276 1.539 . S
C1279 H1293 0.958 . S
C1279 H1294 0.961 . S
C1279 H1295 0.960 . S
H1280 C1264 0.931 . S
H1281 C1269 0.929 . S
H1282 C1270 0.960 . S
H1283 C1270 0.962 . S
H1284 C1270 0.960 . S
H1285 C1271 0.961 . S
H1286 C1271 0.961 . S
H1287 C1271 0.961 . S
H1288 C1272 0.931 . S
H1289 C1277 0.930 . S
H1290 C1278 0.956 . S
H1291 C1278 0.961 . S
H1292 C1278 0.961 . S
H1293 C1279 0.958 . S
H1294 C1279 0.961 . S
H1295 C1279 0.960 . S
C1296 C1297 1.391 . S
C1296 C1298 1.394 . S
C1296 H1312 0.931 . S
C1297 C1296 1.391 . S
C1297 C1301 1.376 . S
C1298 C1296 1.394 . S
C1298 C1299 1.369 . S
C1298 C1302 1.531 . S
C1299 C1298 1.369 . S
C1299 C1300 1.410 . S
C1299 C1307 1.503 . S
C1300 C1299 1.410 . S
C1300 C1301 1.392 . S
C1300 C1303 1.511 . S
C1301 C1297 1.376 . S
C1301 C1300 1.392 . S
C1301 H1313 0.929 . S
C1302 C1298 1.531 . S
C1302 H1314 0.960 . S
C1302 H1315 0.962 . S
C1302 H1316 0.960 . S
C1303 C1300 1.511 . S
C1303 H1317 0.961 . S
C1303 H1318 0.961 . S
C1303 H1319 0.961 . S
C1304 C1305 1.370 . S
C1304 C1306 1.363 . S
C1304 H1320 0.931 . S
C1305 C1304 1.370 . S
C1305 C1309 1.408 . S
C1306 C1304 1.363 . S
C1306 C1307 1.370 . S
C1306 C1310 1.524 . S
C1307 C1299 1.503 . S
C1307 C1306 1.370 . S
C1307 C1308 1.403 . S
C1308 C1307 1.403 . S
C1308 C1309 1.404 . S
C1308 C1311 1.539 . S
C1309 C1305 1.408 . S
C1309 C1308 1.404 . S
C1309 H1321 0.930 . S
C1310 C1306 1.524 . S
C1310 H1322 0.956 . S
C1310 H1323 0.961 . S
C1310 H1324 0.961 . S
C1311 C1308 1.539 . S
C1311 H1325 0.958 . S
C1311 H1326 0.961 . S
C1311 H1327 0.960 . S
H1312 C1296 0.931 . S
H1313 C1301 0.929 . S
H1314 C1302 0.960 . S
H1315 C1302 0.962 . S
H1316 C1302 0.960 . S
H1317 C1303 0.961 . S
H1318 C1303 0.961 . S
H1319 C1303 0.961 . S
H1320 C1304 0.931 . S
H1321 C1309 0.930 . S
H1322 C1310 0.956 . S
H1323 C1310 0.961 . S
H1324 C1310 0.961 . S
H1325 C1311 0.958 . S
H1326 C1311 0.961 . S
H1327 C1311 0.960 . S
C1328 C1329 1.391 . S
C1328 C1330 1.394 . S
C1328 H1344 0.931 . S
C1329 C1328 1.391 . S
C1329 C1333 1.376 . S
C1330 C1328 1.394 . S
C1330 C1331 1.369 . S
C1330 C1334 1.531 . S
C1331 C1330 1.369 . S
C1331 C1332 1.410 . S
C1331 C1339 1.503 . S
C1332 C1331 1.410 . S
C1332 C1333 1.392 . S
C1332 C1335 1.511 . S
C1333 C1329 1.376 . S
C1333 C1332 1.392 . S
C1333 H1345 0.929 . S
C1334 C1330 1.531 . S
C1334 H1346 0.960 . S
C1334 H1347 0.962 . S
C1334 H1348 0.960 . S
C1335 C1332 1.511 . S
C1335 H1349 0.961 . S
C1335 H1350 0.961 . S
C1335 H1351 0.961 . S
C1336 C1337 1.370 . S
C1336 C1338 1.363 . S
C1336 H1352 0.931 . S
C1337 C1336 1.370 . S
C1337 C1341 1.408 . S
C1338 C1336 1.363 . S
C1338 C1339 1.370 . S
C1338 C1342 1.524 . S
C1339 C1331 1.503 . S
C1339 C1338 1.370 . S
C1339 C1340 1.403 . S
C1340 C1339 1.403 . S
C1340 C1341 1.404 . S
C1340 C1343 1.539 . S
C1341 C1337 1.408 . S
C1341 C1340 1.404 . S
C1341 H1353 0.930 . S
C1342 C1338 1.524 . S
C1342 H1354 0.956 . S
C1342 H1355 0.961 . S
C1342 H1356 0.961 . S
C1343 C1340 1.539 . S
C1343 H1357 0.958 . S
C1343 H1358 0.961 . S
C1343 H1359 0.960 . S
H1344 C1328 0.931 . S
H1345 C1333 0.929 . S
H1346 C1334 0.960 . S
H1347 C1334 0.962 . S
H1348 C1334 0.960 . S
H1349 C1335 0.961 . S
H1350 C1335 0.961 . S
H1351 C1335 0.961 . S
H1352 C1336 0.931 . S
H1353 C1341 0.930 . S
H1354 C1342 0.956 . S
H1355 C1342 0.961 . S
H1356 C1342 0.961 . S
H1357 C1343 0.958 . S
H1358 C1343 0.961 . S
H1359 C1343 0.960 . S
C1360 C1361 1.391 . S
C1360 C1362 1.394 . S
C1360 H1376 0.931 . S
C1361 C1360 1.391 . S
C1361 C1365 1.376 . S
C1362 C1360 1.394 . S
C1362 C1363 1.369 . S
C1362 C1366 1.531 . S
C1363 C1362 1.369 . S
C1363 C1364 1.410 . S
C1363 C1371 1.503 . S
C1364 C1363 1.410 . S
C1364 C1365 1.392 . S
C1364 C1367 1.511 . S
C1365 C1361 1.376 . S
C1365 C1364 1.392 . S
C1365 H1377 0.929 . S
C1366 C1362 1.531 . S
C1366 H1378 0.960 . S
C1366 H1379 0.962 . S
C1366 H1380 0.960 . S
C1367 C1364 1.511 . S
C1367 H1381 0.961 . S
C1367 H1382 0.961 . S
C1367 H1383 0.961 . S
C1368 C1369 1.370 . S
C1368 C1370 1.363 . S
C1368 H1384 0.931 . S
C1369 C1368 1.370 . S
C1369 C1373 1.408 . S
C1370 C1368 1.363 . S
C1370 C1371 1.370 . S
C1370 C1374 1.524 . S
C1371 C1363 1.503 . S
C1371 C1370 1.370 . S
C1371 C1372 1.403 . S
C1372 C1371 1.403 . S
C1372 C1373 1.404 . S
C1372 C1375 1.539 . S
C1373 C1369 1.408 . S
C1373 C1372 1.404 . S
C1373 H1385 0.930 . S
C1374 C1370 1.524 . S
C1374 H1386 0.956 . S
C1374 H1387 0.961 . S
C1374 H1388 0.961 . S
C1375 C1372 1.539 . S
C1375 H1389 0.958 . S
C1375 H1390 0.961 . S
C1375 H1391 0.960 . S
H1376 C1360 0.931 . S
H1377 C1365 0.929 . S
H1378 C1366 0.960 . S
H1379 C1366 0.962 . S
H1380 C1366 0.960 . S
H1381 C1367 0.961 . S
H1382 C1367 0.961 . S
H1383 C1367 0.961 . S
H1384 C1368 0.931 . S
H1385 C1373 0.930 . S
H1386 C1374 0.956 . S
H1387 C1374 0.961 . S
H1388 C1374 0.961 . S
H1389 C1375 0.958 . S
H1390 C1375 0.961 . S
H1391 C1375 0.960 . S
C1392 C1393 1.391 . S
C1392 C1394 1.394 . S
C1392 H1408 0.931 . S
C1393 C1392 1.391 . S
C1393 C1397 1.376 . S
C1394 C1392 1.394 . S
C1394 C1395 1.369 . S
C1394 C1398 1.531 . S
C1395 C1394 1.369 . S
C1395 C1396 1.410 . S
C1395 C1403 1.503 . S
C1396 C1395 1.410 . S
C1396 C1397 1.392 . S
C1396 C1399 1.511 . S
C1397 C1393 1.376 . S
C1397 C1396 1.392 . S
C1397 H1409 0.929 . S
C1398 C1394 1.531 . S
C1398 H1410 0.960 . S
C1398 H1411 0.962 . S
C1398 H1412 0.960 . S
C1399 C1396 1.511 . S
C1399 H1413 0.961 . S
C1399 H1414 0.961 . S
C1399 H1415 0.961 . S
C1400 C1401 1.370 . S
C1400 C1402 1.363 . S
C1400 H1416 0.931 . S
C1401 C1400 1.370 . S
C1401 C1405 1.408 . S
C1402 C1400 1.363 . S
C1402 C1403 1.370 . S
C1402 C1406 1.524 . S
C1403 C1395 1.503 . S
C1403 C1402 1.370 . S
C1403 C1404 1.403 . S
C1404 C1403 1.403 . S
C1404 C1405 1.404 . S
C1404 C1407 1.539 . S
C1405 C1401 1.408 . S
C1405 C1404 1.404 . S
C1405 H1417 0.930 . S
C1406 C1402 1.524 . S
C1406 H1418 0.956 . S
C1406 H1419 0.961 . S
C1406 H1420 0.961 . S
C1407 C1404 1.539 . S
C1407 H1421 0.958 . S
C1407 H1422 0.961 . S
C1407 H1423 0.960 . S
H1408 C1392 0.931 . S
H1409 C1397 0.929 . S
H1410 C1398 0.960 . S
H1411 C1398 0.962 . S
H1412 C1398 0.960 . S
H1413 C1399 0.961 . S
H1414 C1399 0.961 . S
H1415 C1399 0.961 . S
H1416 C1400 0.931 . S
H1417 C1405 0.930 . S
H1418 C1406 0.956 . S
H1419 C1406 0.961 . S
H1420 C1406 0.961 . S
H1421 C1407 0.958 . S
H1422 C1407 0.961 . S
H1423 C1407 0.960 . S
C1424 C1425 1.391 . S
C1424 C1426 1.394 . S
C1424 H1440 0.931 . S
C1425 C1424 1.391 . S
C1425 C1429 1.376 . S
C1426 C1424 1.394 . S
C1426 C1427 1.369 . S
C1426 C1430 1.531 . S
C1427 C1426 1.369 . S
C1427 C1428 1.410 . S
C1427 C1435 1.503 . S
C1428 C1427 1.410 . S
C1428 C1429 1.392 . S
C1428 C1431 1.511 . S
C1429 C1425 1.376 . S
C1429 C1428 1.392 . S
C1429 H1441 0.929 . S
C1430 C1426 1.531 . S
C1430 H1442 0.960 . S
C1430 H1443 0.962 . S
C1430 H1444 0.960 . S
C1431 C1428 1.511 . S
C1431 H1445 0.961 . S
C1431 H1446 0.961 . S
C1431 H1447 0.961 . S
C1432 C1433 1.370 . S
C1432 C1434 1.363 . S
C1432 H1448 0.931 . S
C1433 C1432 1.370 . S
C1433 C1437 1.408 . S
C1434 C1432 1.363 . S
C1434 C1435 1.370 . S
C1434 C1438 1.524 . S
C1435 C1427 1.503 . S
C1435 C1434 1.370 . S
C1435 C1436 1.403 . S
C1436 C1435 1.403 . S
C1436 C1437 1.404 . S
C1436 C1439 1.539 . S
C1437 C1433 1.408 . S
C1437 C1436 1.404 . S
C1437 H1449 0.930 . S
C1438 C1434 1.524 . S
C1438 H1450 0.956 . S
C1438 H1451 0.961 . S
C1438 H1452 0.961 . S
C1439 C1436 1.539 . S
C1439 H1453 0.958 . S
C1439 H1454 0.961 . S
C1439 H1455 0.960 . S
H1440 C1424 0.931 . S
H1441 C1429 0.929 . S
H1442 C1430 0.960 . S
H1443 C1430 0.962 . S
H1444 C1430 0.960 . S
H1445 C1431 0.961 . S
H1446 C1431 0.961 . S
H1447 C1431 0.961 . S
H1448 C1432 0.931 . S
H1449 C1437 0.930 . S
H1450 C1438 0.956 . S
H1451 C1438 0.961 . S
H1452 C1438 0.961 . S
H1453 C1439 0.958 . S
H1454 C1439 0.961 . S
H1455 C1439 0.960 . S
C1456 C1457 1.391 . S
C1456 C1458 1.394 . S
C1456 H1472 0.931 . S
C1457 C1456 1.391 . S
C1457 C1461 1.376 . S
C1458 C1456 1.394 . S
C1458 C1459 1.369 . S
C1458 C1462 1.531 . S
C1459 C1458 1.369 . S
C1459 C1460 1.410 . S
C1459 C1467 1.503 . S
C1460 C1459 1.410 . S
C1460 C1461 1.392 . S
C1460 C1463 1.511 . S
C1461 C1457 1.376 . S
C1461 C1460 1.392 . S
C1461 H1473 0.929 . S
C1462 C1458 1.531 . S
C1462 H1474 0.960 . S
C1462 H1475 0.962 . S
C1462 H1476 0.960 . S
C1463 C1460 1.511 . S
C1463 H1477 0.961 . S
C1463 H1478 0.961 . S
C1463 H1479 0.961 . S
C1464 C1465 1.370 . S
C1464 C1466 1.363 . S
C1464 H1480 0.931 . S
C1465 C1464 1.370 . S
C1465 C1469 1.408 . S
C1466 C1464 1.363 . S
C1466 C1467 1.370 . S
C1466 C1470 1.524 . S
C1467 C1459 1.503 . S
C1467 C1466 1.370 . S
C1467 C1468 1.403 . S
C1468 C1467 1.403 . S
C1468 C1469 1.404 . S
C1468 C1471 1.539 . S
C1469 C1465 1.408 . S
C1469 C1468 1.404 . S
C1469 H1481 0.930 . S
C1470 C1466 1.524 . S
C1470 H1482 0.956 . S
C1470 H1483 0.961 . S
C1470 H1484 0.961 . S
C1471 C1468 1.539 . S
C1471 H1485 0.958 . S
C1471 H1486 0.961 . S
C1471 H1487 0.960 . S
H1472 C1456 0.931 . S
H1473 C1461 0.929 . S
H1474 C1462 0.960 . S
H1475 C1462 0.962 . S
H1476 C1462 0.960 . S
H1477 C1463 0.961 . S
H1478 C1463 0.961 . S
H1479 C1463 0.961 . S
H1480 C1464 0.931 . S
H1481 C1469 0.930 . S
H1482 C1470 0.956 . S
H1483 C1470 0.961 . S
H1484 C1470 0.961 . S
H1485 C1471 0.958 . S
H1486 C1471 0.961 . S
H1487 C1471 0.960 . S
C1488 C1489 1.391 . S
C1488 C1490 1.394 . S
C1488 H1504 0.931 . S
C1489 C1488 1.391 . S
C1489 C1493 1.376 . S
C1490 C1488 1.394 . S
C1490 C1491 1.369 . S
C1490 C1494 1.531 . S
C1491 C1490 1.369 . S
C1491 C1492 1.410 . S
C1491 C1499 1.503 . S
C1492 C1491 1.410 . S
C1492 C1493 1.392 . S
C1492 C1495 1.511 . S
C1493 C1489 1.376 . S
C1493 C1492 1.392 . S
C1493 H1505 0.929 . S
C1494 C1490 1.531 . S
C1494 H1506 0.960 . S
C1494 H1507 0.962 . S
C1494 H1508 0.960 . S
C1495 C1492 1.511 . S
C1495 H1509 0.961 . S
C1495 H1510 0.961 . S
C1495 H1511 0.961 . S
C1496 C1497 1.370 . S
C1496 C1498 1.363 . S
C1496 H1512 0.931 . S
C1497 C1496 1.370 . S
C1497 C1501 1.408 . S
C1498 C1496 1.363 . S
C1498 C1499 1.370 . S
C1498 C1502 1.524 . S
C1499 C1491 1.503 . S
C1499 C1498 1.370 . S
C1499 C1500 1.403 . S
C1500 C1499 1.403 . S
C1500 C1501 1.404 . S
C1500 C1503 1.539 . S
C1501 C1497 1.408 . S
C1501 C1500 1.404 . S
C1501 H1513 0.930 . S
C1502 C1498 1.524 . S
C1502 H1514 0.956 . S
C1502 H1515 0.961 . S
C1502 H1516 0.961 . S
C1503 C1500 1.539 . S
C1503 H1517 0.958 . S
C1503 H1518 0.961 . S
C1503 H1519 0.960 . S
H1504 C1488 0.931 . S
H1505 C1493 0.929 . S
H1506 C1494 0.960 . S
H1507 C1494 0.962 . S
H1508 C1494 0.960 . S
H1509 C1495 0.961 . S
H1510 C1495 0.961 . S
H1511 C1495 0.961 . S
H1512 C1496 0.931 . S
H1513 C1501 0.930 . S
H1514 C1502 0.956 . S
H1515 C1502 0.961 . S
H1516 C1502 0.961 . S
H1517 C1503 0.958 . S
H1518 C1503 0.961 . S
H1519 C1503 0.960 . S
C1520 C1521 1.391 . S
C1520 C1522 1.394 . S
C1520 H1536 0.931 . S
C1521 C1520 1.391 . S
C1521 C1525 1.376 . S
C1522 C1520 1.394 . S
C1522 C1523 1.369 . S
C1522 C1526 1.531 . S
C1523 C1522 1.369 . S
C1523 C1524 1.410 . S
C1523 C1531 1.503 . S
C1524 C1523 1.410 . S
C1524 C1525 1.392 . S
C1524 C1527 1.511 . S
C1525 C1521 1.376 . S
C1525 C1524 1.392 . S
C1525 H1537 0.929 . S
C1526 C1522 1.531 . S
C1526 H1538 0.960 . S
C1526 H1539 0.962 . S
C1526 H1540 0.960 . S
C1527 C1524 1.511 . S
C1527 H1541 0.961 . S
C1527 H1542 0.961 . S
C1527 H1543 0.961 . S
C1528 C1529 1.370 . S
C1528 C1530 1.363 . S
C1528 H1544 0.931 . S
C1529 C1528 1.370 . S
C1529 C1533 1.408 . S
C1530 C1528 1.363 . S
C1530 C1531 1.370 . S
C1530 C1534 1.524 . S
C1531 C1523 1.503 . S
C1531 C1530 1.370 . S
C1531 C1532 1.403 . S
C1532 C1531 1.403 . S
C1532 C1533 1.404 . S
C1532 C1535 1.539 . S
C1533 C1529 1.408 . S
C1533 C1532 1.404 . S
C1533 H1545 0.930 . S
C1534 C1530 1.524 . S
C1534 H1546 0.956 . S
C1534 H1547 0.961 . S
C1534 H1548 0.961 . S
C1535 C1532 1.539 . S
C1535 H1549 0.958 . S
C1535 H1550 0.961 . S
C1535 H1551 0.960 . S
H1536 C1520 0.931 . S
H1537 C1525 0.929 . S
H1538 C1526 0.960 . S
H1539 C1526 0.962 . S
H1540 C1526 0.960 . S
H1541 C1527 0.961 . S
H1542 C1527 0.961 . S
H1543 C1527 0.961 . S
H1544 C1528 0.931 . S
H1545 C1533 0.930 . S
H1546 C1534 0.956 . S
H1547 C1534 0.961 . S
H1548 C1534 0.961 . S
H1549 C1535 0.958 . S
H1550 C1535 0.961 . S
H1551 C1535 0.960 . S
C1552 C1553 1.391 . S
C1552 C1554 1.394 . S
C1552 H1568 0.931 . S
C1553 C1552 1.391 . S
C1553 C1557 1.376 . S
C1554 C1552 1.394 . S
C1554 C1555 1.369 . S
C1554 C1558 1.531 . S
C1555 C1554 1.369 . S
C1555 C1556 1.410 . S
C1555 C1563 1.503 . S
C1556 C1555 1.410 . S
C1556 C1557 1.392 . S
C1556 C1559 1.511 . S
C1557 C1553 1.376 . S
C1557 C1556 1.392 . S
C1557 H1569 0.929 . S
C1558 C1554 1.531 . S
C1558 H1570 0.960 . S
C1558 H1571 0.962 . S
C1558 H1572 0.960 . S
C1559 C1556 1.511 . S
C1559 H1573 0.961 . S
C1559 H1574 0.961 . S
C1559 H1575 0.961 . S
C1560 C1561 1.370 . S
C1560 C1562 1.363 . S
C1560 H1576 0.931 . S
C1561 C1560 1.370 . S
C1561 C1565 1.408 . S
C1562 C1560 1.363 . S
C1562 C1563 1.370 . S
C1562 C1566 1.524 . S
C1563 C1555 1.503 . S
C1563 C1562 1.370 . S
C1563 C1564 1.403 . S
C1564 C1563 1.403 . S
C1564 C1565 1.404 . S
C1564 C1567 1.539 . S
C1565 C1561 1.408 . S
C1565 C1564 1.404 . S
C1565 H1577 0.930 . S
C1566 C1562 1.524 . S
C1566 H1578 0.956 . S
C1566 H1579 0.961 . S
C1566 H1580 0.961 . S
C1567 C1564 1.539 . S
C1567 H1581 0.958 . S
C1567 H1582 0.961 . S
C1567 H1583 0.960 . S
H1568 C1552 0.931 . S
H1569 C1557 0.929 . S
H1570 C1558 0.960 . S
H1571 C1558 0.962 . S
H1572 C1558 0.960 . S
H1573 C1559 0.961 . S
H1574 C1559 0.961 . S
H1575 C1559 0.961 . S
H1576 C1560 0.931 . S
H1577 C1565 0.930 . S
H1578 C1566 0.956 . S
H1579 C1566 0.961 . S
H1580 C1566 0.961 . S
H1581 C1567 0.958 . S
H1582 C1567 0.961 . S
H1583 C1567 0.960 . S
C1584 C1585 1.391 . S
C1584 C1586 1.394 . S
C1584 H1600 0.931 . S
C1585 C1584 1.391 . S
C1585 C1589 1.376 . S
C1586 C1584 1.394 . S
C1586 C1587 1.369 . S
C1586 C1590 1.531 . S
C1587 C1586 1.369 . S
C1587 C1588 1.410 . S
C1587 C1595 1.503 . S
C1588 C1587 1.410 . S
C1588 C1589 1.392 . S
C1588 C1591 1.511 . S
C1589 C1585 1.376 . S
C1589 C1588 1.392 . S
C1589 H1601 0.929 . S
C1590 C1586 1.531 . S
C1590 H1602 0.960 . S
C1590 H1603 0.962 . S
C1590 H1604 0.960 . S
C1591 C1588 1.511 . S
C1591 H1605 0.961 . S
C1591 H1606 0.961 . S
C1591 H1607 0.961 . S
C1592 C1593 1.370 . S
C1592 C1594 1.363 . S
C1592 H1608 0.931 . S
C1593 C1592 1.370 . S
C1593 C1597 1.408 . S
C1594 C1592 1.363 . S
C1594 C1595 1.370 . S
C1594 C1598 1.524 . S
C1595 C1587 1.503 . S
C1595 C1594 1.370 . S
C1595 C1596 1.403 . S
C1596 C1595 1.403 . S
C1596 C1597 1.404 . S
C1596 C1599 1.539 . S
C1597 C1593 1.408 . S
C1597 C1596 1.404 . S
C1597 H1609 0.930 . S
C1598 C1594 1.524 . S
C1598 H1610 0.956 . S
C1598 H1611 0.961 . S
C1598 H1612 0.961 . S
C1599 C1596 1.539 . S
C1599 H1613 0.958 . S
C1599 H1614 0.961 . S
C1599 H1615 0.960 . S
H1600 C1584 0.931 . S
H1601 C1589 0.929 . S
H1602 C1590 0.960 . S
H1603 C1590 0.962 . S
H1604 C1590 0.960 . S
H1605 C1591 0.961 . S
H1606 C1591 0.961 . S
H1607 C1591 0.961 . S
H1608 C1592 0.931 . S
H1609 C1597 0.930 . S
H1610 C1598 0.956 . S
H1611 C1598 0.961 . S
H1612 C1598 0.961 . S
H1613 C1599 0.958 . S
H1614 C1599 0.961 . S
H1615 C1599 0.960 . S
C1616 C1617 1.391 . S
C1616 C1618 1.394 . S
C1616 H1632 0.931 . S
C1617 C1616 1.391 . S
C1617 C1621 1.376 . S
C1618 C1616 1.394 . S
C1618 C1619 1.369 . S
C1618 C1622 1.531 . S
C1619 C1618 1.369 . S
C1619 C1620 1.410 . S
C1619 C1627 1.503 . S
C1620 C1619 1.410 . S
C1620 C1621 1.392 . S
C1620 C1623 1.511 . S
C1621 C1617 1.376 . S
C1621 C1620 1.392 . S
C1621 H1633 0.929 . S
C1622 C1618 1.531 . S
C1622 H1634 0.960 . S
C1622 H1635 0.962 . S
C1622 H1636 0.960 . S
C1623 C1620 1.511 . S
C1623 H1637 0.961 . S
C1623 H1638 0.961 . S
C1623 H1639 0.961 . S
C1624 C1625 1.370 . S
C1624 C1626 1.363 . S
C1624 H1640 0.931 . S
C1625 C1624 1.370 . S
C1625 C1629 1.408 . S
C1626 C1624 1.363 . S
C1626 C1627 1.370 . S
C1626 C1630 1.524 . S
C1627 C1619 1.503 . S
C1627 C1626 1.370 . S
C1627 C1628 1.403 . S
C1628 C1627 1.403 . S
C1628 C1629 1.404 . S
C1628 C1631 1.539 . S
C1629 C1625 1.408 . S
C1629 C1628 1.404 . S
C1629 H1641 0.930 . S
C1630 C1626 1.524 . S
C1630 H1642 0.956 . S
C1630 H1643 0.961 . S
C1630 H1644 0.961 . S
C1631 C1628 1.539 . S
C1631 H1645 0.958 . S
C1631 H1646 0.961 . S
C1631 H1647 0.960 . S
H1632 C1616 0.931 . S
H1633 C1621 0.929 . S
H1634 C1622 0.960 . S
H1635 C1622 0.962 . S
H1636 C1622 0.960 . S
H1637 C1623 0.961 . S
H1638 C1623 0.961 . S
H1639 C1623 0.961 . S
H1640 C1624 0.931 . S
H1641 C1629 0.930 . S
H1642 C1630 0.956 . S
H1643 C1630 0.961 . S
H1644 C1630 0.961 . S
H1645 C1631 0.958 . S
H1646 C1631 0.961 . S
H1647 C1631 0.960 . S
C1648 C1649 1.391 . S
C1648 C1650 1.394 . S
C1648 H1664 0.931 . S
C1649 C1648 1.391 . S
C1649 C1653 1.376 . S
C1650 C1648 1.394 . S
C1650 C1651 1.369 . S
C1650 C1654 1.531 . S
C1651 C1650 1.369 . S
C1651 C1652 1.410 . S
C1651 C1659 1.503 . S
C1652 C1651 1.410 . S
C1652 C1653 1.392 . S
C1652 C1655 1.511 . S
C1653 C1649 1.376 . S
C1653 C1652 1.392 . S
C1653 H1665 0.929 . S
C1654 C1650 1.531 . S
C1654 H1666 0.960 . S
C1654 H1667 0.962 . S
C1654 H1668 0.960 . S
C1655 C1652 1.511 . S
C1655 H1669 0.961 . S
C1655 H1670 0.961 . S
C1655 H1671 0.961 . S
C1656 C1657 1.370 . S
C1656 C1658 1.363 . S
C1656 H1672 0.931 . S
C1657 C1656 1.370 . S
C1657 C1661 1.408 . S
C1658 C1656 1.363 . S
C1658 C1659 1.370 . S
C1658 C1662 1.524 . S
C1659 C1651 1.503 . S
C1659 C1658 1.370 . S
C1659 C1660 1.403 . S
C1660 C1659 1.403 . S
C1660 C1661 1.404 . S
C1660 C1663 1.539 . S
C1661 C1657 1.408 . S
C1661 C1660 1.404 . S
C1661 H1673 0.930 . S
C1662 C1658 1.524 . S
C1662 H1674 0.956 . S
C1662 H1675 0.961 . S
C1662 H1676 0.961 . S
C1663 C1660 1.539 . S
C1663 H1677 0.958 . S
C1663 H1678 0.961 . S
C1663 H1679 0.960 . S
H1664 C1648 0.931 . S
H1665 C1653 0.929 . S
H1666 C1654 0.960 . S
H1667 C1654 0.962 . S
H1668 C1654 0.960 . S
H1669 C1655 0.961 . S
H1670 C1655 0.961 . S
H1671 C1655 0.961 . S
H1672 C1656 0.931 . S
H1673 C1661 0.930 . S
H1674 C1662 0.956 . S
H1675 C1662 0.961 . S
H1676 C1662 0.961 . S
H1677 C1663 0.958 . S
H1678 C1663 0.961 . S
H1679 C1663 0.960 . S
C665 C407 1.306 . S
C657 C8 1.307 . S
C697 C444 1.300 . S
C689 C61 1.278 . S
C729 C480 1.303 . S
C721 C107 1.321 . S
C753 C139 1.303 . S
C761 C371 1.319 . S
C785 C192 1.321 . S
C793 C372 1.299 . S
C817 C238 1.316 . S
C825 C408 1.290 . S
C857 C443 1.304 . S
C849 C284 1.282 . S
C889 C479 1.327 . S
C881 C330 1.260 . S
C913 C100 1.290 . S
C921 C551 1.304 . S
C953 C588 1.292 . S
C945 C160 1.252 . S
C977 C15 1.326 . S
C985 C624 1.308 . S
C1017 C515 1.321 . S
C1009 C54 1.304 . S
C1041 C291 1.288 . S
C1049 C516 1.317 . S
C1073 C337 1.248 . S
C1081 C552 1.288 . S
C1113 C587 1.302 . S
C1105 C199 1.292 . S
C1137 C245 1.302 . S
C1145 C623 1.319 . S
C1177 C442 1.652 . S
C1169 C1 1.638 . S
C1209 C478 1.630 . S
C1201 C68 1.630 . S
C1233 C114 1.567 . S
C1241 C382 1.457 . S
C1265 C146 1.600 . S
C1273 C418 1.491 . S
C1297 C185 1.600 . S
C1305 C490 1.475 . S
C1337 C370 1.645 . S
C1329 C231 1.630 . S
C1369 C406 1.658 . S
C1361 C277 1.638 . S
C1401 C454 1.497 . S
C1393 C323 1.598 . S
C1433 C586 1.650 . S
C1425 C93 1.661 . S
C1465 C622 1.635 . S
C1457 C153 1.644 . S
C1489 C22 1.603 . S
C1497 C526 1.450 . S
C1529 C562 1.493 . S
C1521 C47 1.595 . S
C1561 C634 1.467 . S
C1553 C298 1.584 . S
C1585 C344 1.634 . S
C1593 C514 1.629 . S
C1625 C550 1.643 . S
C1617 C206 1.650 . S
C1657 C598 1.482 . S
C1649 C252 1.578 . S
