# Generated by pormake.
# Topology pyr, (3,6)-cn, num edge types: 1
# Building blocks:
#     Node 0, Type 0, BuildingBlock: BELTOD_clean_linker_0, # of connection points: 3
#     Node 1, Type 0, BuildingBlock: BELTOD_clean_linker_0, # of connection points: 3
#     Node 2, Type 0, BuildingBlock: BELTOD_clean_linker_0, # of connection points: 3
#     Node 3, Type 0, BuildingBlock: BELTOD_clean_linker_0, # of connection points: 3
#     Node 4, Type 0, BuildingBlock: BELTOD_clean_linker_0, # of connection points: 3
#     Node 5, Type 0, BuildingBlock: BELTOD_clean_linker_0, # of connection points: 3
#     Node 6, Type 0, BuildingBlock: BELTOD_clean_linker_0, # of connection points: 3
#     Node 7, Type 0, BuildingBlock: BELTOD_clean_linker_0, # of connection points: 3
#     Node 8, Type 1, BuildingBlock: FUNLAD_clean_sbu_0, # of connection points: 6
#     Node 9, Type 1, BuildingBlock: FUNLAD_clean_sbu_0, # of connection points: 6
#     Node 10, Type 1, BuildingBlock: FUNLAD_clean_sbu_0, # of connection points: 6
#     Node 11, Type 1, BuildingBlock: FUNLAD_clean_sbu_0, # of connection points: 6
#     Edge 12, Type (0, 1), BuildingBlock: XIVTED_clean_linker_0, # of connection points: 2
#     Edge 13, Type (0, 1), BuildingBlock: XIVTED_clean_linker_0, # of connection points: 2
#     Edge 14, Type (0, 1), BuildingBlock: XIVTED_clean_linker_0, # of connection points: 2
#     Edge 15, Type (0, 1), BuildingBlock: XIVTED_clean_linker_0, # of connection points: 2
#     Edge 16, Type (0, 1), BuildingBlock: XIVTED_clean_linker_0, # of connection points: 2
#     Edge 17, Type (0, 1), BuildingBlock: XIVTED_clean_linker_0, # of connection points: 2
#     Edge 18, Type (0, 1), BuildingBlock: XIVTED_clean_linker_0, # of connection points: 2
#     Edge 19, Type (0, 1), BuildingBlock: XIVTED_clean_linker_0, # of connection points: 2
#     Edge 20, Type (0, 1), BuildingBlock: XIVTED_clean_linker_0, # of connection points: 2
#     Edge 21, Type (0, 1), BuildingBlock: XIVTED_clean_linker_0, # of connection points: 2
#     Edge 22, Type (0, 1), BuildingBlock: XIVTED_clean_linker_0, # of connection points: 2
#     Edge 23, Type (0, 1), BuildingBlock: XIVTED_clean_linker_0, # of connection points: 2
#     Edge 24, Type (0, 1), BuildingBlock: XIVTED_clean_linker_0, # of connection points: 2
#     Edge 25, Type (0, 1), BuildingBlock: XIVTED_clean_linker_0, # of connection points: 2
#     Edge 26, Type (0, 1), BuildingBlock: XIVTED_clean_linker_0, # of connection points: 2
#     Edge 27, Type (0, 1), BuildingBlock: XIVTED_clean_linker_0, # of connection points: 2
#     Edge 28, Type (0, 1), BuildingBlock: XIVTED_clean_linker_0, # of connection points: 2
#     Edge 29, Type (0, 1), BuildingBlock: XIVTED_clean_linker_0, # of connection points: 2
#     Edge 30, Type (0, 1), BuildingBlock: XIVTED_clean_linker_0, # of connection points: 2
#     Edge 31, Type (0, 1), BuildingBlock: XIVTED_clean_linker_0, # of connection points: 2
#     Edge 32, Type (0, 1), BuildingBlock: XIVTED_clean_linker_0, # of connection points: 2
#     Edge 33, Type (0, 1), BuildingBlock: XIVTED_clean_linker_0, # of connection points: 2
#     Edge 34, Type (0, 1), BuildingBlock: XIVTED_clean_linker_0, # of connection points: 2
#     Edge 35, Type (0, 1), BuildingBlock: XIVTED_clean_linker_0, # of connection points: 2
# Relax obj value: 0.065
# Max RMSD: 0.068
# Mean RMSD: 0.035
data_MOF--net-pry--node1-FUNLAD_clean_sbu_0--node2-BELTOD_clean_linker_0--edge1-XIVTED_clean_linker_0
_symmetry_space_group_name_H-M    P1
_symmetry_Int_Tables_number       1
_symmetry_cell_setting            triclinic
loop_
_symmetry_equiv_pos_as_xyz
'x, y, z'
_cell_length_a     41.113922
_cell_length_b     44.13779
_cell_length_c     43.829981
_cell_angle_alpha  90.117787
_cell_angle_beta   90.422356
_cell_angle_gamma 85.738288
loop_
_atom_site_label
_atom_site_type_symbol
_atom_site_fract_x
_atom_site_fract_y
_atom_site_fract_z
_atom_type_partial_charge
P0 P 0.16301 0.18486 0.20114 0.0
H1 H 0.21344 0.20443 0.16145 0.0
H2 H 0.25583 0.17778 0.1312 0.0
H3 H 0.22101 0.09186 0.15865 0.0
H4 H 0.17688 0.11905 0.18671 0.0
H5 H 0.11897 0.23635 0.21974 0.0
H6 H 0.09259 0.27936 0.19199 0.0
H7 H 0.127 0.23921 0.107 0.0
H8 H 0.15139 0.19544 0.13486 0.0
H9 H 0.18597 0.13655 0.24285 0.0
H10 H 0.09322 0.18182 0.21753 0.0
O11 O 0.18548 0.20527 0.2241 0.0
H12 H 0.15955 0.10855 0.28251 0.0
H13 H 0.0667 0.15434 0.25786 0.0
C14 C 0.19213 0.16386 0.17671 0.0
C15 C 0.21467 0.17984 0.16061 0.0
C16 C 0.23931 0.16441 0.14359 0.0
C17 C 0.24271 0.13239 0.14283 0.0
C18 C 0.21938 0.11644 0.15839 0.0
C19 C 0.19417 0.13203 0.17488 0.0
C20 C 0.13743 0.21263 0.17957 0.0
C21 C 0.12009 0.23643 0.19506 0.0
C22 C 0.10542 0.26135 0.17907 0.0
C23 C 0.1082 0.26344 0.14709 0.0
C24 C 0.12411 0.23865 0.13151 0.0
C25 C 0.13838 0.21349 0.14755 0.0
C26 C 0.1416 0.1609 0.22665 0.0
C27 C 0.15976 0.13997 0.24532 0.0
C28 C 0.14462 0.12399 0.26813 0.0
C29 C 0.11097 0.12913 0.27341 0.0
C30 C 0.09269 0.14993 0.25449 0.0
C31 C 0.10784 0.16557 0.23126 0.0
P32 P 0.37817 0.88225 0.65759 0.0
H33 H 0.43632 0.8726 0.69634 0.0
H34 H 0.44885 0.88829 0.74848 0.0
H35 H 0.34928 0.92482 0.75915 0.0
H36 H 0.3366 0.90836 0.70741 0.0
H37 H 0.36551 0.85397 0.59923 0.0
H38 H 0.38143 0.80443 0.57715 0.0
H39 H 0.42729 0.77633 0.66262 0.0
H40 H 0.4097 0.82549 0.68492 0.0
H41 H 0.35219 0.9426 0.6381 0.0
H42 H 0.31481 0.85522 0.6529 0.0
O43 O 0.40456 0.90253 0.63925 0.0
H44 H 0.29847 0.96303 0.62071 0.0
H45 H 0.26057 0.87562 0.63602 0.0
C46 C 0.38536 0.88864 0.69794 0.0
C47 C 0.41688 0.88309 0.7102 0.0
C48 C 0.42409 0.89226 0.73999 0.0
C49 C 0.40009 0.90793 0.75796 0.0
C50 C 0.36837 0.913 0.74584 0.0
C51 C 0.36105 0.90334 0.71622 0.0
C52 C 0.38608 0.84358 0.64387 0.0
C53 C 0.37841 0.83693 0.61345 0.0
C54 C 0.38802 0.8086 0.60067 0.0
C55 C 0.40613 0.78618 0.61783 0.0
C56 C 0.41316 0.79273 0.64862 0.0
C57 C 0.40324 0.82109 0.66147 0.0
C58 C 0.33771 0.8972 0.64614 0.0
C59 C 0.33235 0.92779 0.63765 0.0
C60 C 0.30145 0.93954 0.62794 0.0
C61 C 0.27506 0.92098 0.62672 0.0
C62 C 0.28039 0.89046 0.63609 0.0
C63 C 0.31137 0.87875 0.64587 0.0
P64 P 0.64382 0.39958 0.93622 0.0
H65 H 0.69093 0.38501 0.98454 0.0
H66 H 0.73621 0.41208 1.00424 0.0
H67 H 0.70149 0.49163 0.95293 0.0
H68 H 0.65594 0.4645 0.9335 0.0
H69 H 0.58087 0.38085 0.91621 0.0
H70 H 0.54402 0.34829 0.94029 0.0
H71 H 0.59565 0.35606 0.02578 0.0
H72 H 0.63243 0.38956 1.00152 0.0
H73 H 0.6718 0.39669 0.87552 0.0
H74 H 0.58874 0.4428 0.91969 0.0
O75 O 0.6659 0.36756 0.92735 0.0
H76 H 0.65258 0.41687 0.82638 0.0
H77 H 0.56922 0.46329 0.87028 0.0
C78 C 0.67033 0.4226 0.95732 0.0
C79 C 0.69237 0.40863 0.97839 0.0
C80 C 0.71823 0.42416 0.98969 0.0
C81 C 0.72257 0.45383 0.97979 0.0
C82 C 0.6989 0.46862 0.96061 0.0
C83 C 0.67282 0.45313 0.94955 0.0
C84 C 0.60945 0.38787 0.95702 0.0
C85 C 0.58324 0.37722 0.94056 0.0
C86 C 0.56198 0.35846 0.95445 0.0
C87 C 0.5672 0.34929 0.98486 0.0
C88 C 0.59123 0.36266 1.00224 0.0
C89 C 0.61232 0.3818 0.98834 0.0
C90 C 0.63114 0.41757 0.90096 0.0
C91 C 0.64948 0.41132 0.87463 0.0
C92 C 0.63859 0.42306 0.84659 0.0
C93 C 0.60922 0.4414 0.8445 0.0
C94 C 0.59165 0.44879 0.87122 0.0
C95 C 0.60277 0.4372 0.89937 0.0
P96 P 0.89122 0.61887 0.45189 0.0
H97 H 0.95334 0.63991 0.43404 0.0
H98 H 0.98715 0.67461 0.45948 0.0
H99 H 0.93581 0.66221 0.54366 0.0
H100 H 0.90207 0.62661 0.51792 0.0
H101 H 0.8601 0.6164 0.39275 0.0
H102 H 0.87867 0.59673 0.34349 0.0
H103 H 0.9687 0.55991 0.38511 0.0
H104 H 0.94963 0.57967 0.43481 0.0
H105 H 0.84425 0.6351 0.49928 0.0
H106 H 0.87441 0.55533 0.44663 0.0
O107 O 0.87032 0.65119 0.44174 0.0
H108 H 0.79518 0.61163 0.51469 0.0
H109 H 0.825 0.53187 0.46168 0.0
C110 C 0.92504 0.63058 0.47398 0.0
C111 C 0.95058 0.64295 0.45842 0.0
C112 C 0.97007 0.66302 0.47313 0.0
C113 C 0.9637 0.6717 0.50347 0.0
C114 C 0.94096 0.65622 0.52012 0.0
C115 C 0.92161 0.63584 0.50537 0.0
C116 C 0.90401 0.60039 0.41705 0.0
C117 C 0.88372 0.60388 0.39136 0.0
C118 C 0.89426 0.59239 0.36327 0.0
C119 C 0.92529 0.57707 0.36044 0.0
C120 C 0.94489 0.57206 0.38663 0.0
C121 C 0.93406 0.58332 0.41493 0.0
C122 C 0.86281 0.59711 0.47162 0.0
C123 C 0.84098 0.61204 0.49203 0.0
C124 C 0.81286 0.5986 0.50079 0.0
C125 C 0.80606 0.57013 0.48896 0.0
C126 C 0.82949 0.55404 0.47076 0.0
C127 C 0.8578 0.56741 0.46225 0.0
P128 P 0.87769 0.87182 0.86819 0.0
H129 H 0.85162 0.87847 0.92957 0.0
H130 H 0.79786 0.89481 0.9497 0.0
H131 H 0.75985 0.90377 0.85777 0.0
H132 H 0.81383 0.88716 0.83776 0.0
H133 H 0.94018 0.83605 0.8629 0.0
H134 H 0.95956 0.78541 0.88107 0.0
H135 H 0.86185 0.76979 0.90936 0.0
H136 H 0.84259 0.82018 0.89087 0.0
H137 H 0.86401 0.93082 0.83989 0.0
H138 H 0.90438 0.84249 0.81141 0.0
O139 O 0.90266 0.8913 0.88954 0.0
H140 H 0.87594 0.95162 0.79006 0.0
H141 H 0.91759 0.86335 0.76167 0.0
C142 C 0.83695 0.88206 0.88217 0.0
C143 C 0.83169 0.88383 0.91372 0.0
C144 C 0.80085 0.89303 0.92522 0.0
C145 C 0.77451 0.90081 0.90538 0.0
C146 C 0.7797 0.89838 0.87369 0.0
C147 C 0.81057 0.88882 0.86221 0.0
C148 C 0.88989 0.83206 0.87531 0.0
C149 C 0.92275 0.82143 0.87229 0.0
C150 C 0.93384 0.79245 0.8828 0.0
C151 C 0.91235 0.77357 0.89701 0.0
C152 C 0.87918 0.78388 0.89898 0.0
C153 C 0.86807 0.81273 0.88815 0.0
C154 C 0.883 0.88502 0.82945 0.0
C155 C 0.87521 0.91579 0.82276 0.0
C156 C 0.88247 0.92777 0.79427 0.0
C157 C 0.89815 0.90937 0.77169 0.0
C158 C 0.90528 0.87827 0.77825 0.0
C159 C 0.89783 0.86625 0.80685 0.0
P160 P 0.65714 0.18988 0.33106 0.0
H161 H 0.67787 0.2289 0.3799 0.0
H162 H 0.65101 0.27164 0.40756 0.0
H163 H 0.56055 0.25719 0.36093 0.0
H164 H 0.58768 0.21413 0.3334 0.0
H165 H 0.71648 0.15402 0.31414 0.0
H166 H 0.75816 0.12397 0.3433 0.0
H167 H 0.7022 0.14069 0.42545 0.0
H168 H 0.66037 0.17066 0.39595 0.0
H169 H 0.61537 0.20778 0.27915 0.0
H170 H 0.64658 0.12431 0.32513 0.0
O171 O 0.67994 0.2101 0.30862 0.0
H172 H 0.59055 0.17901 0.23867 0.0
H173 H 0.62284 0.09524 0.28416 0.0
C174 C 0.63477 0.21779 0.35492 0.0
C175 C 0.65203 0.23437 0.37616 0.0
C176 C 0.6366 0.25893 0.39199 0.0
C177 C 0.60352 0.26798 0.38658 0.0
C178 C 0.5861 0.25105 0.36554 0.0
C179 C 0.60156 0.2262 0.34989 0.0
C180 C 0.68566 0.16516 0.35293 0.0
C181 C 0.71304 0.15105 0.33839 0.0
C182 C 0.7368 0.1337 0.3551 0.0
C183 C 0.73372 0.13011 0.38681 0.0
C184 C 0.7056 0.14342 0.40115 0.0
C185 C 0.68162 0.16054 0.3843 0.0
C186 C 0.63285 0.16835 0.30529 0.0
C187 C 0.61641 0.18325 0.28082 0.0
C188 C 0.60259 0.16666 0.2574 0.0
C189 C 0.60512 0.13464 0.25767 0.0
C190 C 0.62022 0.1198 0.28309 0.0
C191 C 0.63394 0.13649 0.30663 0.0
P192 P 0.43277 0.56361 0.04455 0.0
H193 H 0.39379 0.5216 0.01038 0.0
H194 H 0.33499 0.51666 0.00672 0.0
H195 H 0.31793 0.5942 0.06643 0.0
H196 H 0.37641 0.59862 0.07034 0.0
H197 H 0.49522 0.58995 0.04455 0.0
H198 H 0.50984 0.64206 0.03693 0.0
H199 H 0.4115 0.66747 0.0061 0.0
H200 H 0.39741 0.61536 0.01285 0.0
H201 H 0.45786 0.51577 0.08706 0.0
H202 H 0.42808 0.61157 0.0904 0.0
O203 O 0.45371 0.53473 0.02724 0.0
H204 H 0.46835 0.51619 0.14237 0.0
H205 H 0.43784 0.61189 0.14524 0.0
C206 C 0.38953 0.56033 0.04081 0.0
C207 C 0.37738 0.5375 0.02268 0.0
C208 C 0.34374 0.5348 0.02049 0.0
C209 C 0.32175 0.55496 0.03643 0.0
C210 C 0.33416 0.57794 0.05435 0.0
C211 C 0.36768 0.58055 0.05653 0.0
C212 C 0.44514 0.59891 0.02979 0.0
C213 C 0.47713 0.60657 0.03524 0.0
C214 C 0.48535 0.63641 0.03121 0.0
C215 C 0.46165 0.65901 0.02153 0.0
C216 C 0.43034 0.65061 0.01358 0.0
C217 C 0.42217 0.62075 0.01765 0.0
C218 C 0.44235 0.56363 0.08464 0.0
C219 C 0.45379 0.53686 0.09959 0.0
C220 C 0.45981 0.53713 0.13107 0.0
C221 C 0.45376 0.56407 0.14793 0.0
C222 C 0.44241 0.59079 0.13279 0.0
C223 C 0.43689 0.59059 0.10142 0.0
P224 P 0.14386 0.38704 0.57949 0.0
H225 H 0.14037 0.34887 0.52587 0.0
H226 H 0.09448 0.32483 0.5038 0.0
H227 H 0.02796 0.38517 0.55558 0.0
H228 H 0.07433 0.4089 0.5779 0.0
H229 H 0.19611 0.41513 0.60944 0.0
H230 H 0.23695 0.4479 0.59205 0.0
H231 H 0.19338 0.45011 0.50189 0.0
H232 H 0.15225 0.41664 0.51972 0.0
H233 H 0.12319 0.35345 0.63215 0.0
H234 H 0.12775 0.44721 0.60607 0.0
O235 O 0.16623 0.35432 0.5847 0.0
H236 H 0.10315 0.36952 0.68253 0.0
H237 H 0.10787 0.46343 0.6564 0.0
C238 C 0.11074 0.37976 0.55431 0.0
C239 C 0.11588 0.35772 0.53157 0.0
C240 C 0.08943 0.34411 0.51878 0.0
C241 C 0.05748 0.35248 0.52864 0.0
C242 C 0.05232 0.3777 0.54814 0.0
C243 C 0.07887 0.39129 0.56092 0.0
C244 C 0.17095 0.41392 0.56601 0.0
C245 C 0.1949 0.42313 0.58608 0.0
C246 C 0.21814 0.44207 0.57611 0.0
C247 C 0.21814 0.452 0.54567 0.0
C248 C 0.1939 0.44288 0.5255 0.0
C249 C 0.17037 0.42389 0.53565 0.0
C250 C 0.12793 0.39914 0.61589 0.0
C251 C 0.11993 0.37748 0.63733 0.0
C252 C 0.10823 0.38667 0.66595 0.0
C253 C 0.10433 0.4177 0.67341 0.0
C254 C 0.11124 0.43936 0.65139 0.0
C255 C 0.12266 0.43013 0.62271 0.0
C256 C 0.02071 0.03733 0.46301 0.0
N257 N 1.00003 0.08551 0.5435 0.0
C258 C 0.02687 0.09941 0.53479 0.0
C259 C 0.02615 0.13096 0.53399 0.0
C260 C 0.99765 0.14829 0.54245 0.0
C261 C 0.97146 0.13349 0.55423 0.0
C262 C 0.97312 0.10174 0.55442 0.0
Zn263 Zn 0.99693 0.04186 0.52956 0.0
C264 C 0.93289 0.03715 0.49585 0.0
N265 N 0.9891 0.95384 0.49322 0.0
C266 C 0.01532 0.9369 0.48198 0.0
C267 C 0.96135 0.94094 0.50099 0.0
C268 C 0.96009 0.90958 0.49998 0.0
C269 C 0.98752 0.89115 0.49044 0.0
C270 C 0.01498 0.9053 0.48023 0.0
Zn271 Zn 0.99294 0.99726 0.50735 0.0
O272 O 0.01599 0.0544 0.48621 0.0
C273 C 0.05709 1.00187 0.54075 0.0
O274 O 0.01378 0.00976 0.46475 0.0
H275 H 0.94091 0.9548 0.51016 0.0
H276 H 0.0479 0.08608 0.52604 0.0
H277 H 0.0372 0.94769 0.4761 0.0
O278 O 0.04527 0.02879 0.54624 0.0
O279 O 0.0403 0.98434 0.5251 0.0
H280 H 0.95197 0.09019 0.561 0.0
O281 O 0.97239 0.98507 0.5505 0.0
O282 O 0.9777 0.02903 0.57246 0.0
O283 O 0.94546 0.01074 0.48939 0.0
O284 O 0.94884 0.05427 0.51276 0.0
C285 C 0.96917 1.00195 0.57401 0.0
H286 H 0.04707 0.14169 0.52533 0.0
H287 H 0.94915 0.1462 0.56106 0.0
H288 H 0.9385 0.89995 0.50855 0.0
H289 H 0.03644 0.89211 0.47211 0.0
C290 C 0.56032 0.98621 0.99294 0.0
N291 N 0.51055 0.07232 0.98797 0.0
C292 C 0.54018 0.08263 0.99436 0.0
C293 C 0.54512 0.11325 0.99124 0.0
C294 C 0.51943 0.13362 0.9811 0.0
C295 C 0.48968 0.12203 0.97274 0.0
C296 C 0.48571 0.09108 0.97648 0.0
Zn297 Zn 0.50293 0.03021 1.00361 0.0
C298 C 0.47183 0.99103 0.9603 0.0
N299 N 0.48927 0.94429 0.04247 0.0
C300 C 0.51468 0.92581 0.05334 0.0
C301 C 0.45986 0.93341 0.03619 0.0
C302 C 0.45585 0.90246 0.03855 0.0
C303 C 0.48244 0.88245 0.04715 0.0
C304 C 0.51177 0.89457 0.05589 0.0
Zn305 Zn 0.49657 0.98667 0.02687 0.0
O306 O 0.54868 0.01275 0.9858 0.0
C307 C 0.52801 0.02633 0.0699 0.0
O308 O 0.54407 0.97031 0.01062 0.0
H309 H 0.44007 0.9484 0.02729 0.0
H310 H 0.55947 0.06743 1.00384 0.0
H311 H 0.53789 0.93494 0.05805 0.0
O312 O 0.52554 0.04199 0.04558 0.0
O313 O 0.51738 0.99995 0.06984 0.0
H314 H 0.46229 0.08236 0.97173 0.0
O315 O 0.44924 1.0038 0.04292 0.0
O316 O 0.4574 0.04738 0.02157 0.0
O317 O 0.47606 0.97395 0.98358 0.0
O318 O 0.48012 0.01819 0.96191 0.0
C319 C 0.43959 0.03135 0.03754 0.0
H320 H 0.5683 0.12102 0.99852 0.0
H321 H 0.46939 0.13681 0.96436 0.0
H322 H 0.43261 0.89412 0.03221 0.0
H323 H 0.53292 0.87993 0.06257 0.0
C324 C 0.52055 0.46667 0.48311 0.0
N325 N 0.51681 0.5049 0.57156 0.0
C326 C 0.50711 0.47881 0.58391 0.0
C327 C 0.51536 0.47122 0.61413 0.0
C328 C 0.53386 0.49065 0.63143 0.0
C329 C 0.5428 0.51766 0.61822 0.0
C330 C 0.53404 0.52434 0.58821 0.0
Zn331 Zn 0.50774 0.517 0.5274 0.0
C332 C 0.56871 0.53744 0.4996 0.0
N333 N 0.49219 0.54685 0.43595 0.0
C334 C 0.47222 0.52996 0.41915 0.0
C335 C 0.50776 0.56976 0.42311 0.0
C336 C 0.50405 0.57592 0.39195 0.0
C337 C 0.48365 0.55869 0.37422 0.0
C338 C 0.46732 0.53574 0.3882 0.0
Zn339 Zn 0.50035 0.53446 0.48027 0.0
O340 O 0.52092 0.47156 0.51175 0.0
C341 C 0.43963 0.51386 0.50879 0.0
O342 O 0.51246 0.4887 0.46525 0.0
H343 H 0.52358 0.58285 0.43688 0.0
H344 H 0.49341 0.46373 0.57021 0.0
H345 H 0.46062 0.51142 0.42955 0.0
O346 O 0.45874 0.50739 0.53112 0.0
O347 O 0.45064 0.52524 0.48473 0.0
H348 H 0.54145 0.54502 0.57808 0.0
O349 O 0.48809 0.58035 0.49595 0.0
O350 O 0.49423 0.56222 0.54227 0.0
O351 O 0.55036 0.54321 0.47658 0.0
O352 O 0.55672 0.52686 0.52354 0.0
C353 C 0.48702 0.58462 0.5247 0.0
H354 H 0.50812 0.4501 0.62356 0.0
H355 H 0.55656 0.53351 0.63096 0.0
H356 H 0.51698 0.59384 0.38179 0.0
H357 H 0.45178 0.52171 0.37509 0.0
C358 C 0.99876 0.5746 0.9918 0.0
N359 N 0.0029 0.53849 0.08117 0.0
C360 C 0.01309 0.56391 0.09477 0.0
C361 C 0.00568 0.57003 0.12543 0.0
C362 C 0.98751 0.54985 0.1418 0.0
C363 C 0.97763 0.52383 0.12712 0.0
C364 C 0.98558 0.5186 0.0968 0.0
Zn365 Zn 0.0132 0.52616 0.03737 0.0
C366 C 0.95377 0.50235 0.00777 0.0
N367 N 0.03177 0.4933 0.94783 0.0
C368 C 0.04771 0.51205 0.92954 0.0
C369 C 0.02249 0.46615 0.93751 0.0
C370 C 0.02936 0.45688 0.90762 0.0
C371 C 0.04577 0.47585 0.88821 0.0
C372 C 0.05481 0.50383 0.89952 0.0
Zn373 Zn 0.02185 0.50711 0.99116 0.0
O374 O 0.99836 0.57066 0.02057 0.0
C375 C 0.08136 0.53111 0.02018 0.0
O376 O 0.008 0.55225 0.97474 0.0
H377 H 0.00981 0.45164 0.9525 0.0
H378 H 0.02701 0.57929 0.08192 0.0
H379 H 0.05487 0.53353 0.93822 0.0
O380 O 0.06211 0.53799 0.04213 0.0
O381 O 0.07058 0.5182 0.99664 0.0
H382 H 0.97807 0.49828 0.08584 0.0
O383 O 0.03536 0.46194 0.00832 0.0
O384 O 0.02813 0.48173 0.05374 0.0
O385 O 0.97313 0.49636 0.9858 0.0
O386 O 0.96438 0.51425 0.0319 0.0
C387 C 0.03597 0.45875 0.03717 0.0
H388 H 0.01369 0.59039 0.13607 0.0
H389 H 0.9642 0.50736 0.13908 0.0
H390 H 0.02227 0.43496 0.89998 0.0
H391 H 0.06697 0.51944 0.88526 0.0
H392 H 0.1192 0.06929 0.29154 0.0
H393 H 0.02453 0.09717 0.44871 0.0
H394 H 0.06825 0.15482 0.3156 0.0
H395 H 0.04548 0.00717 0.41183 0.0
H396 H 0.04476 0.11868 0.40188 0.0
H397 H 0.09647 0.04613 0.33682 0.0
C398 C 0.10315 0.08318 0.30627 0.0
C399 C 0.09562 0.11409 0.29966 0.0
C400 C 0.04489 0.09422 0.40394 0.0
C401 C 0.06979 0.08774 0.35178 0.0
C402 C 0.03345 0.08185 0.43079 0.0
C403 C 0.03326 0.05021 0.43434 0.0
C404 C 0.05679 0.07495 0.38038 0.0
C405 C 0.04507 0.03166 0.41013 0.0
C406 C 0.0901 0.06991 0.33205 0.0
C407 C 0.0745 0.13089 0.31954 0.0
N408 N 0.05655 0.04427 0.38428 0.0
N409 N 0.06262 0.1176 0.34475 0.0
H410 H 0.38456 0.96496 0.78106 0.0
H411 H 0.46565 0.93146 0.94521 0.0
H412 H 0.43526 0.87904 0.80448 0.0
H413 H 0.44901 0.0222 0.90909 0.0
H414 H 0.44708 0.91109 0.89666 0.0
H415 H 0.40047 0.98539 0.83064 0.0
C416 C 0.39878 0.9503 0.79675 0.0
C417 C 0.40856 0.9202 0.78857 0.0
C418 C 0.44743 0.93546 0.89937 0.0
C419 C 0.42681 0.94348 0.84545 0.0
C420 C 0.45788 0.94716 0.92716 0.0
C421 C 0.45899 0.97867 0.93131 0.0
C422 C 0.43746 0.95533 0.87555 0.0
C423 C 0.44869 0.99779 0.90694 0.0
C424 C 0.40804 0.96206 0.82495 0.0
C425 C 0.42735 0.9024 0.80972 0.0
N426 N 0.43825 0.98585 0.88019 0.0
N427 N 0.4357 0.91424 0.83719 0.0
H428 H 0.54675 0.44058 0.82263 0.0
H429 H 0.59419 0.49555 0.65608 0.0
H430 H 0.64284 0.46443 0.79743 0.0
H431 H 0.49857 0.46809 0.67813 0.0
H432 H 0.61159 0.48561 0.70851 0.0
H433 H 0.52746 0.45287 0.77081 0.0
C434 C 0.56366 0.44878 0.80629 0.0
C435 C 0.59647 0.4514 0.81424 0.0
C436 C 0.58678 0.48172 0.70198 0.0
C437 C 0.57476 0.46502 0.75498 0.0
C438 C 0.57681 0.48748 0.67206 0.0
C439 C 0.54481 0.48285 0.66285 0.0
C440 C 0.56464 0.47121 0.72299 0.0
C441 C 0.52351 0.4718 0.68431 0.0
C442 C 0.55272 0.45553 0.77668 0.0
C443 C 0.61746 0.46173 0.79212 0.0
N444 N 0.53378 0.46645 0.7135 0.0
N445 N 0.60626 0.46807 0.7635 0.0
H446 H 0.98526 0.58559 0.33657 0.0
H447 H 0.9287 0.54353 0.16809 0.0
H448 H 0.89303 0.54996 0.31441 0.0
H449 H 0.02614 0.56792 0.18891 0.0
H450 H 0.91545 0.54699 0.22199 0.0
H451 H 1.00181 0.57863 0.28328 0.0
C452 C 0.96876 0.57577 0.3206 0.0
C453 C 0.93763 0.56856 0.32978 0.0
C454 C 0.93977 0.5516 0.2149 0.0
C455 C 0.95604 0.56121 0.26891 0.0
C456 C 0.94733 0.54966 0.1841 0.0
C457 C 0.97866 0.55519 0.1741 0.0
C458 C 0.96364 0.55928 0.23601 0.0
C459 C 1.00165 0.56363 0.19572 0.0
C460 C 0.97808 0.57209 0.29018 0.0
C461 C 0.91704 0.55626 0.30816 0.0
N462 N 0.99371 0.56533 0.22578 0.0
N463 N 0.92652 0.5532 0.2787 0.0
H464 H 0.24597 0.07625 0.11361 0.0
H465 H 0.42198 0.09177 0.04401 0.0
H466 H 0.30485 0.1507 0.13524 0.0
H467 H 0.38807 1.00351 0.06266 0.0
H468 H 0.3737 0.11543 0.06906 0.0
H469 H 0.29302 0.05057 0.08778 0.0
C470 C 0.26861 0.08728 0.11315 0.0
C471 C 0.27096 0.11605 0.12665 0.0
C472 C 0.37676 0.09089 0.06761 0.0
C473 C 0.32468 0.08689 0.0962 0.0
C474 C 0.40425 0.07732 0.05314 0.0
C475 C 0.40919 0.04554 0.05126 0.0
C476 C 0.35356 0.0727 0.07991 0.0
C477 C 0.38531 0.02807 0.0637 0.0
C478 C 0.29541 0.07257 0.0982 0.0
C479 C 0.30112 0.1291 0.1246 0.0
N480 N 0.35841 0.04188 0.07739 0.0
N481 N 0.32653 0.11458 0.10954 0.0
H482 H 0.24374 0.9776 0.6364 0.0
H483 H 0.08856 0.94568 0.53235 0.0
H484 H 0.2318 0.89267 0.59016 0.0
H485 H 0.09968 0.03147 0.57722 0.0
H486 H 0.14097 0.92618 0.55354 0.0
H487 H 0.19127 0.99781 0.61535 0.0
C488 C 0.23019 0.96318 0.62176 0.0
C489 C 0.24243 0.93331 0.61507 0.0
C490 C 0.13204 0.94929 0.55877 0.0
C491 C 0.18196 0.95639 0.59099 0.0
C492 C 0.10204 0.96052 0.54662 0.0
C493 C 0.08955 0.99035 0.55297 0.0
C494 C 0.14995 0.96792 0.57754 0.0
C495 C 0.10828 0.00838 0.57166 0.0
C496 C 0.20011 0.97474 0.60985 0.0
C497 C 0.22333 0.91565 0.59634 0.0
N498 N 0.13748 0.99688 0.5833 0.0
N499 N 0.19421 0.92745 0.58495 0.0
H500 H 0.76028 0.4809 0.93872 0.0
H501 H 0.90882 0.50089 0.05336 0.0
H502 H 0.75694 0.45582 0.0337 0.0
H503 H 0.91944 0.49173 0.95577 0.0
H504 H 0.85067 0.49311 0.04782 0.0
H505 H 0.81592 0.49533 0.94627 0.0
C506 C 0.77101 0.47908 0.96135 0.0
C507 C 0.75401 0.46715 0.98565 0.0
C508 C 0.8658 0.49282 0.02768 0.0
C509 C 0.81786 0.48306 0.99426 0.0
C510 C 0.89892 0.49724 0.03079 0.0
C511 C 0.91897 0.49679 0.00497 0.0
C512 C 0.85264 0.48843 0.99853 0.0
C513 C 0.90491 0.492 0.97628 0.0
C514 C 0.8029 0.48695 0.96553 0.0
C515 C 0.76934 0.46475 0.01435 0.0
N516 N 0.87255 0.48813 0.97382 0.0
N517 N 0.80053 0.47254 0.01787 0.0
H518 H 0.76828 0.54869 0.44367 0.0
H519 H 0.6111 0.53805 0.54767 0.0
H520 H 0.76769 0.56944 0.53994 0.0
H521 H 0.60655 0.54594 0.44952 0.0
H522 H 0.66987 0.5426 0.54588 0.0
H523 H 0.71062 0.53916 0.44638 0.0
C524 C 0.75618 0.5506 0.46554 0.0
C525 C 0.77277 0.5598 0.49167 0.0
C526 C 0.656 0.54339 0.52476 0.0
C527 C 0.70669 0.54955 0.49474 0.0
C528 C 0.62247 0.54081 0.52572 0.0
C529 C 0.60392 0.5417 0.49867 0.0
C530 C 0.67119 0.54652 0.49652 0.0
C531 C 0.61991 0.54532 0.47091 0.0
C532 C 0.72318 0.54555 0.46696 0.0
C533 C 0.75571 0.56253 0.51925 0.0
N534 N 0.65272 0.54746 0.47054 0.0
N535 N 0.72352 0.55749 0.52006 0.0
H536 H 0.1075 0.32254 0.16748 0.0
H537 H 0.04734 0.40191 0.0107 0.0
H538 H 0.08261 0.27029 0.08835 0.0
H539 H 0.0477 0.44788 0.09769 0.0
H540 H 0.06411 0.35382 0.03679 0.0
H541 H 0.08932 0.36885 0.14052 0.0
C542 C 0.09783 0.32059 0.14459 0.0
C543 C 0.09638 0.29203 0.13052 0.0
C544 C 0.06043 0.37448 0.05008 0.0
C545 C 0.07619 0.34582 0.09885 0.0
C546 C 0.05094 0.40195 0.0352 0.0
C547 C 0.04607 0.42909 0.05195 0.0
C548 C 0.06545 0.37421 0.08188 0.0
C549 C 0.05107 0.42765 0.08371 0.0
C550 C 0.08767 0.34726 0.12904 0.0
C551 C 0.08456 0.29159 0.10024 0.0
N552 N 0.06057 0.40085 0.09751 0.0
N553 N 0.07502 0.318 0.08544 0.0
H554 H 0.50466 0.33113 0.97899 0.0
H555 H 0.57403 0.16291 0.96781 0.0
H556 H 0.60118 0.30125 0.01128 0.0
H557 H 0.47384 0.18022 0.99604 0.0
H558 H 0.5824 0.21631 0.97592 0.0
H559 H 0.48993 0.27812 0.98044 0.0
C560 C 0.52236 0.31361 0.98728 0.0
C561 C 0.55425 0.32055 0.99483 0.0
C562 C 0.55861 0.20832 0.98039 0.0
C563 C 0.53797 0.26042 0.99554 0.0
C564 C 0.55376 0.17785 0.97574 0.0
C565 C 0.52332 0.1668 0.98174 0.0
C566 C 0.53272 0.22818 0.99045 0.0
C567 C 0.49768 0.18768 0.99094 0.0
C568 C 0.51399 0.28349 0.98796 0.0
C569 C 0.57629 0.29704 0.0054 0.0
N570 N 0.50292 0.21751 0.99496 0.0
N571 N 0.56798 0.26794 0.00474 0.0
H572 H 0.92515 0.71626 0.5308 0.0
H573 H 0.03941 0.85068 0.50604 0.0
H574 H 0.02313 0.69647 0.49771 0.0
H575 H 0.93675 0.85474 0.48291 0.0
H576 H 0.03779 0.7962 0.5163 0.0
H577 H 0.93423 0.77002 0.53132 0.0
C578 C 0.94906 0.72301 0.52478 0.0
C579 C 0.97331 0.70178 0.5138 0.0
C580 C 0.01575 0.80927 0.50905 0.0
C581 C 0.98336 0.76348 0.51361 0.0
C582 C 0.01663 0.84023 0.50278 0.0
C583 C 0.98806 0.85759 0.49376 0.0
C584 C 0.98601 0.79586 0.50696 0.0
C585 C 0.95921 0.8427 0.49055 0.0
C586 C 0.95397 0.75381 0.52461 0.0
C587 C 0.00365 0.71218 0.5059 0.0
N588 N 0.95888 0.81282 0.49744 0.0
N589 N 0.00772 0.74249 0.50549 0.0
H590 H 0.42713 0.77545 0.55875 0.0
H591 H 0.47698 0.59848 0.5849 0.0
H592 H 0.41333 0.72895 0.64375 0.0
H593 H 0.47217 0.63956 0.49555 0.0
H594 H 0.45759 0.6471 0.60716 0.0
H595 H 0.44669 0.72711 0.53571 0.0
C596 C 0.42788 0.75514 0.57261 0.0
C597 C 0.41826 0.75659 0.60341 0.0
C598 C 0.46076 0.64558 0.58268 0.0
C599 C 0.44154 0.70088 0.577 0.0
C600 C 0.47198 0.61775 0.56988 0.0
C601 C 0.47627 0.61475 0.53818 0.0
C602 C 0.45387 0.67095 0.56382 0.0
C603 C 0.46925 0.64071 0.52006 0.0
C604 C 0.43932 0.72749 0.55938 0.0
C605 C 0.42076 0.72932 0.62014 0.0
N606 N 0.45846 0.66768 0.53313 0.0
N607 N 0.43215 0.70275 0.60677 0.0
H608 H 0.8979 0.88401 0.7139 0.0
H609 H 0.96308 0.02963 0.63033 0.0
H610 H 0.92071 0.96572 0.76124 0.0
H611 H 0.94754 0.94546 0.58409 0.0
H612 H 0.9452 0.00746 0.67803 0.0
H613 H 0.91416 0.90665 0.66595 0.0
C614 C 0.90641 0.90663 0.71435 0.0
C615 C 0.90776 0.92287 0.74193 0.0
C616 C 0.94562 0.99385 0.65743 0.0
C617 C 0.92617 0.94922 0.68667 0.0
C618 C 0.95577 0.00656 0.63012 0.0
C619 C 0.9569 0.98946 0.60302 0.0
C620 C 0.93642 0.96377 0.65781 0.0
C621 C 0.94715 0.95958 0.60433 0.0
C622 C 0.91554 0.91965 0.68684 0.0
C623 C 0.91862 0.95237 0.74068 0.0
N624 N 0.9374 0.94775 0.63116 0.0
N625 N 0.92737 0.9645 0.71365 0.0
H626 H 0.57559 0.08009 0.25649 0.0
H627 H 0.5591 0.07864 0.0739 0.0
H628 H 0.60961 0.14857 0.1969 0.0
H629 H 0.52802 0.00592 0.12979 0.0
H630 H 0.5782 0.10358 0.1194 0.0
H631 H 0.55849 0.05193 0.21144 0.0
C632 C 0.57956 0.08923 0.23403 0.0
C633 C 0.59389 0.11704 0.23072 0.0
C634 C 0.56735 0.08212 0.12188 0.0
C635 C 0.5742 0.08482 0.17893 0.0
C636 C 0.5564 0.06774 0.09578 0.0
C637 C 0.54179 0.04004 0.09786 0.0
C638 C 0.56367 0.06898 0.1507 0.0
C639 C 0.53918 0.02718 0.12701 0.0
C640 C 0.56967 0.07314 0.2083 0.0
C641 C 0.59808 0.12769 0.20089 0.0
N642 N 0.54984 0.04182 0.1523 0.0
N643 N 0.58831 0.11167 0.17637 0.0
H644 H 0.4105 0.58653 0.19043 0.0
H645 H 0.53209 0.56007 0.3321 0.0
H646 H 0.50724 0.54271 0.18116 0.0
H647 H 0.42743 0.56722 0.34113 0.0
H648 H 0.52552 0.56264 0.27638 0.0
H649 H 0.41839 0.58803 0.24578 0.0
C650 C 0.43345 0.57731 0.20013 0.0
C651 C 0.45827 0.56443 0.18137 0.0
C652 C 0.50405 0.56382 0.29063 0.0
C653 C 0.46753 0.56628 0.24441 0.0
C654 C 0.50778 0.56263 0.3223 0.0
C655 C 0.48023 0.56341 0.34101 0.0
C656 C 0.47258 0.56627 0.2778 0.0
C657 C 0.44923 0.56639 0.32735 0.0
C658 C 0.43789 0.57809 0.23163 0.0
C659 C 0.48746 0.5526 0.19498 0.0
N660 N 0.44622 0.56777 0.29652 0.0
N661 N 0.49139 0.55394 0.22577 0.0
H662 H 0.13152 0.45955 0.7094 0.0
H663 H 0.0084 0.44553 0.84768 0.0
H664 H 0.05513 0.39759 0.7081 0.0
H665 H 0.10103 0.48516 0.85608 0.0
H666 H 0.02179 0.4315 0.79499 0.0
H667 H 0.1166 0.47399 0.76153 0.0
C668 C 0.1114 0.4492 0.72004 0.0
C669 C 0.09449 0.42738 0.7045 0.0
C670 C 0.03914 0.44324 0.80845 0.0
C671 C 0.07749 0.44355 0.76415 0.0
C672 C 0.03162 0.45111 0.83857 0.0
C673 C 0.05358 0.46665 0.85637 0.0
C674 C 0.06868 0.45118 0.79601 0.0
C675 C 0.08306 0.47373 0.84312 0.0
C676 C 0.10307 0.45725 0.74985 0.0
C677 C 0.06892 0.41433 0.71946 0.0
N678 N 0.08969 0.46603 0.81373 0.0
N679 N 0.06112 0.42267 0.7485 0.0
H680 H 0.74184 0.87915 0.95437 0.0
H681 H 0.59741 0.01146 0.94934 0.0
H682 H 0.73332 0.94854 0.88502 0.0
H683 H 0.59549 0.93247 0.00699 0.0
H684 H 0.64876 0.99024 0.92758 0.0
H685 H 0.68989 0.89962 0.97578 0.0
C686 C 0.72908 0.89871 0.94363 0.0
C687 C 0.74209 0.91213 0.91782 0.0
C688 C 0.63712 0.97752 0.94497 0.0
C689 C 0.68244 0.93578 0.94233 0.0
C690 C 0.6078 0.98968 0.95753 0.0
C691 C 0.59199 0.97377 0.9801 0.0
C692 C 0.65107 0.94927 0.95516 0.0
C693 C 0.60672 0.94557 0.98965 0.0
C694 C 0.69931 0.91031 0.95581 0.0
C695 C 0.72415 0.93724 0.90472 0.0
N696 N 0.63542 0.9343 0.97722 0.0
N697 N 0.69543 0.94832 0.9172 0.0
H698 H 0.76942 0.07681 0.37253 0.0
H699 H 0.89646 0.08966 0.51019 0.0
H700 H 0.75944 0.14616 0.44201 0.0
H701 H 0.89675 0.0115 0.45085 0.0
H702 H 0.84621 0.11049 0.48557 0.0
H703 H 0.81594 0.05248 0.40065 0.0
C704 C 0.77693 0.08689 0.39375 0.0
C705 C 0.76047 0.11368 0.40483 0.0
C706 C 0.85709 0.08868 0.47805 0.0
C707 C 0.81389 0.08588 0.4372 0.0
C708 C 0.88586 0.07674 0.49211 0.0
C709 C 0.90099 0.04876 0.48257 0.0
C710 C 0.84336 0.07276 0.45396 0.0
C711 C 0.88598 0.03311 0.45901 0.0
C712 C 0.80343 0.07289 0.40987 0.0
C713 C 0.77113 0.12543 0.43269 0.0
N714 N 0.85818 0.04543 0.44537 0.0
N715 N 0.79726 0.11163 0.44773 0.0
H716 H 0.27668 0.56161 0.08228 0.0
H717 H 0.1267 0.52389 0.97512 0.0
H718 H 0.2853 0.54205 0.986 0.0
H719 H 0.11571 0.55108 0.0694 0.0
H720 H 0.18485 0.53053 0.97891 0.0
H721 H 0.21784 0.5578 0.07827 0.0
C722 C 0.26619 0.55668 0.06024 0.0
C723 C 0.28601 0.55218 0.03441 0.0
C724 C 0.16976 0.53517 0.99877 0.0
C725 C 0.21864 0.54747 0.02976 0.0
C726 C 0.13649 0.53138 0.99664 0.0
C727 C 0.11629 0.53684 0.02204 0.0
C728 C 0.1831 0.54436 0.02655 0.0
C729 C 0.13038 0.54661 0.04926 0.0
C730 C 0.23259 0.55439 0.05801 0.0
C731 C 0.27109 0.54531 0.00659 0.0
N732 N 0.16298 0.54992 0.05084 0.0
N733 N 0.23833 0.54317 0.00502 0.0
H734 H 0.24573 0.49852 0.57505 0.0
H735 H 0.39642 0.50468 0.46249 0.0
H736 H 0.25271 0.44506 0.49244 0.0
H737 H 0.40357 0.51267 0.56043 0.0
H738 H 0.33834 0.49582 0.4676 0.0
H739 H 0.29801 0.5185 0.56327 0.0
C740 C 0.25802 0.49134 0.55419 0.0
C741 C 0.24527 0.46951 0.53507 0.0
C742 C 0.35271 0.49974 0.48785 0.0
C743 C 0.30473 0.49255 0.5214 0.0
C744 C 0.3857 0.50476 0.485 0.0
C745 C 0.40474 0.50906 0.51114 0.0
C746 C 0.33875 0.49984 0.51694 0.0
C747 C 0.3898 0.50904 0.53976 0.0
C748 C 0.28778 0.50275 0.54753 0.0
C749 C 0.26174 0.46171 0.50788 0.0
N750 N 0.35762 0.50458 0.5419 0.0
N751 N 0.29095 0.47295 0.502 0.0
H752 H 0.8966 0.75005 0.95252 0.0
H753 H 0.00564 0.59321 0.93266 0.0
H754 H 0.95673 0.7297 0.87381 0.0
H755 H 0.96575 0.62397 0.01906 0.0
H756 H 0.98497 0.64137 0.90959 0.0
H757 H 0.91811 0.70224 0.97581 0.0
C758 C 0.91413 0.73543 0.93999 0.0
C759 C 0.92474 0.74399 0.91104 0.0
C760 C 0.98083 0.63766 0.93362 0.0
C761 C 0.94972 0.68905 0.93781 0.0
C762 C 0.99261 0.61011 0.94685 0.0
C763 C 0.9875 0.60442 0.97794 0.0
C764 C 0.96337 0.65973 0.95142 0.0
C765 C 0.97042 0.62731 0.99508 0.0
C766 C 0.92662 0.70821 0.95345 0.0
C767 C 0.94797 0.72422 0.89621 0.0
N768 N 0.95882 0.6538 0.98158 0.0
N769 N 0.95951 0.69769 0.90966 0.0
H770 H 0.44327 0.70423 0.98059 0.0
H771 H 0.50722 0.83682 0.08535 0.0
H772 H 0.4945 0.68802 0.06602 0.0
H773 H 0.45411 0.85227 1.0008 0.0
H774 H 0.50507 0.782 0.07777 0.0
H775 H 0.44954 0.75855 0.98646 0.0
C776 C 0.45602 0.71208 1.00048 0.0
C777 C 0.46835 0.69154 0.02284 0.0
C778 C 0.49383 0.79744 0.06093 0.0
C779 C 0.47555 0.75368 0.0298 0.0
C780 C 0.49509 0.8287 0.06524 0.0
C781 C 0.48051 0.84918 0.04387 0.0
C782 C 0.47803 0.78662 0.03498 0.0
C783 C 0.46504 0.83739 0.01824 0.0
C784 C 0.45962 0.74309 1.00382 0.0
C785 C 0.48497 0.70296 0.04799 0.0
N786 N 0.46421 0.80694 0.01453 0.0
N787 N 0.48791 0.73327 0.05088 0.0
H788 H 0.01382 0.33542 0.5709 0.0
H789 H 0.0113 0.17677 0.48973 0.0
H790 H 0.04371 0.31874 0.47777 0.0
H791 H 0.97633 0.19457 0.581 0.0
H792 H 0.01171 0.23128 0.48105 0.0
H793 H 0.98668 0.28844 0.57033 0.0
C794 C 0.01372 0.32251 0.54988 0.0
C795 C 0.03195 0.3307 0.52457 0.0
C796 C 0.00354 0.2234 0.50288 0.0
C797 C 1.0018 0.27611 0.52427 0.0
C798 C 0.00359 0.19229 0.50792 0.0
C799 C 0.99463 0.18129 0.53641 0.0
C800 C 0.99492 0.24372 0.52665 0.0
C801 C 0.98386 0.20223 0.55888 0.0
C802 C 0.99847 0.29536 0.54974 0.0
C803 C 0.03085 0.31283 0.49812 0.0
N804 N 0.98489 0.23252 0.55372 0.0
N805 N 0.01679 0.28596 0.49891 0.0
H806 H 0.56167 0.31286 0.36146 0.0
H807 H 0.54832 0.41604 0.51285 0.0
H808 H 0.61031 0.28718 0.44608 0.0
H809 H 0.51531 0.44733 0.42389 0.0
H810 H 0.56642 0.36676 0.49031 0.0
H811 H 0.53944 0.35992 0.38553 0.0
C812 C 0.5674 0.31689 0.38521 0.0
C813 C 0.58802 0.29588 0.40167 0.0
C814 C 0.55512 0.38439 0.47575 0.0
C815 C 0.56277 0.35019 0.42944 0.0
C816 C 0.54468 0.41254 0.48864 0.0
C817 C 0.53032 0.43603 0.47028 0.0
C818 C 0.55098 0.37949 0.44428 0.0
C819 C 0.52635 0.43004 0.43899 0.0
C820 C 0.55488 0.34395 0.3989 0.0
C821 C 0.59487 0.30278 0.43232 0.0
N822 N 0.53658 0.40248 0.42705 0.0
N823 N 0.58233 0.32925 0.44516 0.0
loop_
_geom_bond_atom_site_label_1
_geom_bond_atom_site_label_2
_geom_bond_distance
_geom_bond_site_symmetry_2
_ccdc_geom_bond_type
P0 O11 1.490 . S
P0 C14 1.812 . S
P0 C20 1.803 . S
P0 C26 1.819 . S
H1 C15 0.941 . S
H2 C16 0.939 . S
H3 C18 0.940 . S
H4 C19 0.940 . S
H5 C21 0.939 . S
H6 C22 0.942 . S
H7 C24 0.940 . S
H8 C25 0.939 . S
H9 C27 0.941 . S
H10 C31 0.939 . S
O11 P0 1.490 . S
H12 C28 0.939 . S
H13 C30 0.940 . S
C14 P0 1.812 . S
C14 C15 1.389 . S
C14 C19 1.391 . S
C15 H1 0.941 . S
C15 C14 1.389 . S
C15 C16 1.397 . S
C16 H2 0.939 . S
C16 C15 1.397 . S
C16 C17 1.378 . S
C17 C16 1.378 . S
C17 C18 1.378 . S
C18 H3 0.940 . S
C18 C17 1.378 . S
C18 C19 1.396 . S
C19 H4 0.940 . S
C19 C14 1.391 . S
C19 C18 1.396 . S
C20 P0 1.803 . S
C20 C21 1.378 . S
C20 C25 1.400 . S
C21 H5 0.939 . S
C21 C20 1.378 . S
C21 C22 1.361 . S
C22 H6 0.942 . S
C22 C21 1.361 . S
C22 C23 1.369 . S
C23 C22 1.369 . S
C23 C24 1.404 . S
C24 H7 0.940 . S
C24 C23 1.404 . S
C24 C25 1.389 . S
C25 H8 0.939 . S
C25 C20 1.400 . S
C25 C24 1.389 . S
C26 P0 1.819 . S
C26 C27 1.391 . S
C26 C31 1.391 . S
C27 H9 0.941 . S
C27 C26 1.391 . S
C27 C28 1.396 . S
C28 H12 0.939 . S
C28 C27 1.396 . S
C28 C29 1.397 . S
C29 C28 1.397 . S
C29 C30 1.385 . S
C30 H13 0.940 . S
C30 C29 1.385 . S
C30 C31 1.388 . S
C31 H10 0.939 . S
C31 C26 1.391 . S
C31 C30 1.388 . S
P32 O43 1.490 . S
P32 C46 1.812 . S
P32 C52 1.803 . S
P32 C58 1.819 . S
H33 C47 0.941 . S
H34 C48 0.939 . S
H35 C50 0.940 . S
H36 C51 0.940 . S
H37 C53 0.939 . S
H38 C54 0.942 . S
H39 C56 0.940 . S
H40 C57 0.939 . S
H41 C59 0.941 . S
H42 C63 0.939 . S
O43 P32 1.490 . S
H44 C60 0.939 . S
H45 C62 0.940 . S
C46 P32 1.812 . S
C46 C47 1.389 . S
C46 C51 1.391 . S
C47 H33 0.941 . S
C47 C46 1.389 . S
C47 C48 1.397 . S
C48 H34 0.939 . S
C48 C47 1.397 . S
C48 C49 1.378 . S
C49 C48 1.378 . S
C49 C50 1.378 . S
C50 H35 0.940 . S
C50 C49 1.378 . S
C50 C51 1.396 . S
C51 H36 0.940 . S
C51 C46 1.391 . S
C51 C50 1.396 . S
C52 P32 1.803 . S
C52 C53 1.378 . S
C52 C57 1.400 . S
C53 H37 0.939 . S
C53 C52 1.378 . S
C53 C54 1.361 . S
C54 H38 0.942 . S
C54 C53 1.361 . S
C54 C55 1.369 . S
C55 C54 1.369 . S
C55 C56 1.404 . S
C56 H39 0.940 . S
C56 C55 1.404 . S
C56 C57 1.389 . S
C57 H40 0.939 . S
C57 C52 1.400 . S
C57 C56 1.389 . S
C58 P32 1.819 . S
C58 C59 1.391 . S
C58 C63 1.391 . S
C59 H41 0.941 . S
C59 C58 1.391 . S
C59 C60 1.396 . S
C60 H44 0.939 . S
C60 C59 1.396 . S
C60 C61 1.397 . S
C61 C60 1.397 . S
C61 C62 1.385 . S
C62 H45 0.940 . S
C62 C61 1.385 . S
C62 C63 1.388 . S
C63 H42 0.939 . S
C63 C58 1.391 . S
C63 C62 1.388 . S
P64 O75 1.490 . S
P64 C78 1.812 . S
P64 C84 1.803 . S
P64 C90 1.819 . S
H65 C79 0.941 . S
H66 C80 0.939 . S
H67 C82 0.940 . S
H68 C83 0.940 . S
H69 C85 0.939 . S
H70 C86 0.942 . S
H71 C88 0.940 . S
H72 C89 0.939 . S
H73 C91 0.941 . S
H74 C95 0.939 . S
O75 P64 1.490 . S
H76 C92 0.939 . S
H77 C94 0.940 . S
C78 P64 1.812 . S
C78 C79 1.389 . S
C78 C83 1.391 . S
C79 H65 0.941 . S
C79 C78 1.389 . S
C79 C80 1.397 . S
C80 H66 0.939 . S
C80 C79 1.397 . S
C80 C81 1.378 . S
C81 C80 1.378 . S
C81 C82 1.378 . S
C82 H67 0.940 . S
C82 C81 1.378 . S
C82 C83 1.396 . S
C83 H68 0.940 . S
C83 C78 1.391 . S
C83 C82 1.396 . S
C84 P64 1.803 . S
C84 C85 1.378 . S
C84 C89 1.400 . S
C85 H69 0.939 . S
C85 C84 1.378 . S
C85 C86 1.361 . S
C86 H70 0.942 . S
C86 C85 1.361 . S
C86 C87 1.369 . S
C87 C86 1.369 . S
C87 C88 1.404 . S
C88 H71 0.940 . S
C88 C87 1.404 . S
C88 C89 1.389 . S
C89 H72 0.939 . S
C89 C84 1.400 . S
C89 C88 1.389 . S
C90 P64 1.819 . S
C90 C91 1.391 . S
C90 C95 1.391 . S
C91 H73 0.941 . S
C91 C90 1.391 . S
C91 C92 1.396 . S
C92 H76 0.939 . S
C92 C91 1.396 . S
C92 C93 1.397 . S
C93 C92 1.397 . S
C93 C94 1.385 . S
C94 H77 0.940 . S
C94 C93 1.385 . S
C94 C95 1.388 . S
C95 H74 0.939 . S
C95 C90 1.391 . S
C95 C94 1.388 . S
P96 O107 1.490 . S
P96 C110 1.812 . S
P96 C116 1.803 . S
P96 C122 1.819 . S
H97 C111 0.941 . S
H98 C112 0.939 . S
H99 C114 0.940 . S
H100 C115 0.940 . S
H101 C117 0.939 . S
H102 C118 0.942 . S
H103 C120 0.940 . S
H104 C121 0.939 . S
H105 C123 0.941 . S
H106 C127 0.939 . S
O107 P96 1.490 . S
H108 C124 0.939 . S
H109 C126 0.940 . S
C110 P96 1.812 . S
C110 C111 1.389 . S
C110 C115 1.391 . S
C111 H97 0.941 . S
C111 C110 1.389 . S
C111 C112 1.397 . S
C112 H98 0.939 . S
C112 C111 1.397 . S
C112 C113 1.378 . S
C113 C112 1.378 . S
C113 C114 1.378 . S
C114 H99 0.940 . S
C114 C113 1.378 . S
C114 C115 1.396 . S
C115 H100 0.940 . S
C115 C110 1.391 . S
C115 C114 1.396 . S
C116 P96 1.803 . S
C116 C117 1.378 . S
C116 C121 1.400 . S
C117 H101 0.939 . S
C117 C116 1.378 . S
C117 C118 1.361 . S
C118 H102 0.942 . S
C118 C117 1.361 . S
C118 C119 1.369 . S
C119 C118 1.369 . S
C119 C120 1.404 . S
C120 H103 0.940 . S
C120 C119 1.404 . S
C120 C121 1.389 . S
C121 H104 0.939 . S
C121 C116 1.400 . S
C121 C120 1.389 . S
C122 P96 1.819 . S
C122 C123 1.391 . S
C122 C127 1.391 . S
C123 H105 0.941 . S
C123 C122 1.391 . S
C123 C124 1.396 . S
C124 H108 0.939 . S
C124 C123 1.396 . S
C124 C125 1.397 . S
C125 C124 1.397 . S
C125 C126 1.385 . S
C126 H109 0.940 . S
C126 C125 1.385 . S
C126 C127 1.388 . S
C127 H106 0.939 . S
C127 C122 1.391 . S
C127 C126 1.388 . S
P128 O139 1.490 . S
P128 C142 1.812 . S
P128 C148 1.803 . S
P128 C154 1.819 . S
H129 C143 0.941 . S
H130 C144 0.939 . S
H131 C146 0.940 . S
H132 C147 0.940 . S
H133 C149 0.939 . S
H134 C150 0.942 . S
H135 C152 0.940 . S
H136 C153 0.939 . S
H137 C155 0.941 . S
H138 C159 0.939 . S
O139 P128 1.490 . S
H140 C156 0.939 . S
H141 C158 0.940 . S
C142 P128 1.812 . S
C142 C143 1.389 . S
C142 C147 1.391 . S
C143 H129 0.941 . S
C143 C142 1.389 . S
C143 C144 1.397 . S
C144 H130 0.939 . S
C144 C143 1.397 . S
C144 C145 1.378 . S
C145 C144 1.378 . S
C145 C146 1.378 . S
C146 H131 0.940 . S
C146 C145 1.378 . S
C146 C147 1.396 . S
C147 H132 0.940 . S
C147 C142 1.391 . S
C147 C146 1.396 . S
C148 P128 1.803 . S
C148 C149 1.378 . S
C148 C153 1.400 . S
C149 H133 0.939 . S
C149 C148 1.378 . S
C149 C150 1.361 . S
C150 H134 0.942 . S
C150 C149 1.361 . S
C150 C151 1.369 . S
C151 C150 1.369 . S
C151 C152 1.404 . S
C152 H135 0.940 . S
C152 C151 1.404 . S
C152 C153 1.389 . S
C153 H136 0.939 . S
C153 C148 1.400 . S
C153 C152 1.389 . S
C154 P128 1.819 . S
C154 C155 1.391 . S
C154 C159 1.391 . S
C155 H137 0.941 . S
C155 C154 1.391 . S
C155 C156 1.396 . S
C156 H140 0.939 . S
C156 C155 1.396 . S
C156 C157 1.397 . S
C157 C156 1.397 . S
C157 C158 1.385 . S
C158 H141 0.940 . S
C158 C157 1.385 . S
C158 C159 1.388 . S
C159 H138 0.939 . S
C159 C154 1.391 . S
C159 C158 1.388 . S
P160 O171 1.490 . S
P160 C174 1.812 . S
P160 C180 1.803 . S
P160 C186 1.819 . S
H161 C175 0.941 . S
H162 C176 0.939 . S
H163 C178 0.940 . S
H164 C179 0.940 . S
H165 C181 0.939 . S
H166 C182 0.942 . S
H167 C184 0.940 . S
H168 C185 0.939 . S
H169 C187 0.941 . S
H170 C191 0.939 . S
O171 P160 1.490 . S
H172 C188 0.939 . S
H173 C190 0.940 . S
C174 P160 1.812 . S
C174 C175 1.389 . S
C174 C179 1.391 . S
C175 H161 0.941 . S
C175 C174 1.389 . S
C175 C176 1.397 . S
C176 H162 0.939 . S
C176 C175 1.397 . S
C176 C177 1.378 . S
C177 C176 1.378 . S
C177 C178 1.378 . S
C178 H163 0.940 . S
C178 C177 1.378 . S
C178 C179 1.396 . S
C179 H164 0.940 . S
C179 C174 1.391 . S
C179 C178 1.396 . S
C180 P160 1.803 . S
C180 C181 1.378 . S
C180 C185 1.400 . S
C181 H165 0.939 . S
C181 C180 1.378 . S
C181 C182 1.361 . S
C182 H166 0.942 . S
C182 C181 1.361 . S
C182 C183 1.369 . S
C183 C182 1.369 . S
C183 C184 1.404 . S
C184 H167 0.940 . S
C184 C183 1.404 . S
C184 C185 1.389 . S
C185 H168 0.939 . S
C185 C180 1.400 . S
C185 C184 1.389 . S
C186 P160 1.819 . S
C186 C187 1.391 . S
C186 C191 1.391 . S
C187 H169 0.941 . S
C187 C186 1.391 . S
C187 C188 1.396 . S
C188 H172 0.939 . S
C188 C187 1.396 . S
C188 C189 1.397 . S
C189 C188 1.397 . S
C189 C190 1.385 . S
C190 H173 0.940 . S
C190 C189 1.385 . S
C190 C191 1.388 . S
C191 H170 0.939 . S
C191 C186 1.391 . S
C191 C190 1.388 . S
P192 O203 1.490 . S
P192 C206 1.812 . S
P192 C212 1.803 . S
P192 C218 1.819 . S
H193 C207 0.941 . S
H194 C208 0.939 . S
H195 C210 0.940 . S
H196 C211 0.940 . S
H197 C213 0.939 . S
H198 C214 0.942 . S
H199 C216 0.940 . S
H200 C217 0.939 . S
H201 C219 0.941 . S
H202 C223 0.939 . S
O203 P192 1.490 . S
H204 C220 0.939 . S
H205 C222 0.940 . S
C206 P192 1.812 . S
C206 C207 1.389 . S
C206 C211 1.391 . S
C207 H193 0.941 . S
C207 C206 1.389 . S
C207 C208 1.397 . S
C208 H194 0.939 . S
C208 C207 1.397 . S
C208 C209 1.378 . S
C209 C208 1.378 . S
C209 C210 1.378 . S
C210 H195 0.940 . S
C210 C209 1.378 . S
C210 C211 1.396 . S
C211 H196 0.940 . S
C211 C206 1.391 . S
C211 C210 1.396 . S
C212 P192 1.803 . S
C212 C213 1.378 . S
C212 C217 1.400 . S
C213 H197 0.939 . S
C213 C212 1.378 . S
C213 C214 1.361 . S
C214 H198 0.942 . S
C214 C213 1.361 . S
C214 C215 1.369 . S
C215 C214 1.369 . S
C215 C216 1.404 . S
C216 H199 0.940 . S
C216 C215 1.404 . S
C216 C217 1.389 . S
C217 H200 0.939 . S
C217 C212 1.400 . S
C217 C216 1.389 . S
C218 P192 1.819 . S
C218 C219 1.391 . S
C218 C223 1.391 . S
C219 H201 0.941 . S
C219 C218 1.391 . S
C219 C220 1.396 . S
C220 H204 0.939 . S
C220 C219 1.396 . S
C220 C221 1.397 . S
C221 C220 1.397 . S
C221 C222 1.385 . S
C222 H205 0.940 . S
C222 C221 1.385 . S
C222 C223 1.388 . S
C223 H202 0.939 . S
C223 C218 1.391 . S
C223 C222 1.388 . S
P224 O235 1.490 . S
P224 C238 1.812 . S
P224 C244 1.803 . S
P224 C250 1.819 . S
H225 C239 0.941 . S
H226 C240 0.939 . S
H227 C242 0.940 . S
H228 C243 0.940 . S
H229 C245 0.939 . S
H230 C246 0.942 . S
H231 C248 0.940 . S
H232 C249 0.939 . S
H233 C251 0.941 . S
H234 C255 0.939 . S
O235 P224 1.490 . S
H236 C252 0.939 . S
H237 C254 0.940 . S
C238 P224 1.812 . S
C238 C239 1.389 . S
C238 C243 1.391 . S
C239 H225 0.941 . S
C239 C238 1.389 . S
C239 C240 1.397 . S
C240 H226 0.939 . S
C240 C239 1.397 . S
C240 C241 1.378 . S
C241 C240 1.378 . S
C241 C242 1.378 . S
C242 H227 0.940 . S
C242 C241 1.378 . S
C242 C243 1.396 . S
C243 H228 0.940 . S
C243 C238 1.391 . S
C243 C242 1.396 . S
C244 P224 1.803 . S
C244 C245 1.378 . S
C244 C249 1.400 . S
C245 H229 0.939 . S
C245 C244 1.378 . S
C245 C246 1.361 . S
C246 H230 0.942 . S
C246 C245 1.361 . S
C246 C247 1.369 . S
C247 C246 1.369 . S
C247 C248 1.404 . S
C248 H231 0.940 . S
C248 C247 1.404 . S
C248 C249 1.389 . S
C249 H232 0.939 . S
C249 C244 1.400 . S
C249 C248 1.389 . S
C250 P224 1.819 . S
C250 C251 1.391 . S
C250 C255 1.391 . S
C251 H233 0.941 . S
C251 C250 1.391 . S
C251 C252 1.396 . S
C252 H236 0.939 . S
C252 C251 1.396 . S
C252 C253 1.397 . S
C253 C252 1.397 . S
C253 C254 1.385 . S
C254 H237 0.940 . S
C254 C253 1.385 . S
C254 C255 1.388 . S
C255 H234 0.939 . S
C255 C250 1.391 . S
C255 C254 1.388 . S
C256 O272 1.251 . S
C256 O274 1.254 1_545 S
N257 C258 1.333 . S
N257 C262 1.307 . S
N257 Zn263 2.020 . S
C258 N257 1.333 . S
C258 C259 1.379 . S
C258 H276 0.952 . S
C259 C258 1.379 . S
C259 C260 1.390 . S
C259 H286 0.949 . S
C260 C259 1.390 . S
C260 C261 1.357 . S
C261 C260 1.357 . S
C261 C262 1.370 . S
C261 H287 0.950 . S
C262 N257 1.307 . S
C262 C261 1.370 . S
C262 H280 0.948 1_455 S
Zn263 N257 2.020 . S
Zn263 O272 2.039 . S
Zn263 O278 2.034 . S
Zn263 O282 2.025 1_455 S
Zn263 O284 2.024 1_455 S
C264 O283 1.246 . S
C264 O284 1.249 . S
N265 C266 1.307 . S
N265 C267 1.333 . S
N265 Zn271 2.020 . S
C266 N265 1.307 . S
C266 C270 1.370 . S
C266 H277 0.948 1_655 S
C267 N265 1.333 . S
C267 C268 1.379 . S
C267 H275 0.952 . S
C268 C267 1.379 . S
C268 C269 1.390 . S
C268 H288 0.949 . S
C269 C268 1.390 . S
C269 C270 1.357 . S
C270 C266 1.370 . S
C270 C269 1.357 . S
C270 H289 0.950 1_655 S
Zn271 N265 2.020 . S
Zn271 O274 2.025 1_655 S
Zn271 O279 2.024 1_655 S
Zn271 O281 2.039 . S
Zn271 O283 2.034 1_565 S
O272 C256 1.251 . S
O272 Zn263 2.039 . S
C273 O278 1.246 1_565 S
C273 O279 1.249 . S
O274 C256 1.254 1_565 S
O274 Zn271 2.025 1_455 S
H275 C267 0.952 . S
H276 C258 0.952 . S
H277 C266 0.948 1_455 S
O278 Zn263 2.034 . S
O278 C273 1.246 1_545 S
O279 Zn271 2.024 1_455 S
O279 C273 1.249 . S
H280 C262 0.948 1_655 S
O281 Zn271 2.039 . S
O281 C285 1.251 . S
O282 Zn263 2.025 1_655 S
O282 C285 1.254 1_545 S
O283 C264 1.246 . S
O283 Zn271 2.034 1_545 S
O284 Zn263 2.024 1_655 S
O284 C264 1.249 . S
C285 O281 1.251 . S
C285 O282 1.254 1_565 S
H286 C259 0.949 . S
H287 C261 0.950 . S
H288 C268 0.949 . S
H289 C270 0.950 1_455 S
C290 O306 1.251 1_565 S
C290 O308 1.254 1_556 S
N291 C292 1.333 . S
N291 C296 1.307 . S
N291 Zn297 2.020 . S
C292 N291 1.333 . S
C292 C293 1.379 . S
C292 H310 0.952 . S
C293 C292 1.379 . S
C293 C294 1.390 . S
C293 H320 0.949 . S
C294 C293 1.390 . S
C294 C295 1.357 . S
C295 C294 1.357 . S
C295 C296 1.370 . S
C295 H321 0.950 . S
C296 N291 1.307 . S
C296 C295 1.370 . S
C296 H314 0.948 . S
Zn297 N291 2.020 . S
Zn297 O306 2.039 . S
Zn297 O312 2.034 1_556 S
Zn297 O316 2.025 1_556 S
Zn297 O318 2.024 . S
C298 O317 1.255 . S
C298 O318 1.235 1_565 S
N299 C300 1.307 . S
N299 C301 1.333 . S
N299 Zn305 2.020 . S
C300 N299 1.307 . S
C300 C304 1.370 . S
C300 H311 0.948 . S
C301 N299 1.333 . S
C301 C302 1.379 . S
C301 H309 0.952 . S
C302 C301 1.379 . S
C302 C303 1.390 . S
C302 H322 0.949 . S
C303 C302 1.390 . S
C303 C304 1.357 . S
C304 C300 1.370 . S
C304 C303 1.357 . S
C304 H323 0.950 . S
Zn305 N299 2.020 . S
Zn305 O308 2.025 . S
Zn305 O313 2.024 . S
Zn305 O315 2.039 1_565 S
Zn305 O317 2.034 1_554 S
O306 C290 1.251 1_545 S
O306 Zn297 2.039 . S
C307 O312 1.246 . S
C307 O313 1.249 1_545 S
O308 C290 1.254 1_554 S
O308 Zn305 2.025 . S
H309 C301 0.952 . S
H310 C292 0.952 . S
H311 C300 0.948 . S
O312 Zn297 2.034 1_554 S
O312 C307 1.246 . S
O313 Zn305 2.024 . S
O313 C307 1.249 1_565 S
H314 C296 0.948 . S
O315 Zn305 2.039 1_545 S
O315 C319 1.251 . S
O316 Zn297 2.025 1_554 S
O316 C319 1.254 . S
O317 C298 1.255 . S
O317 Zn305 2.034 1_556 S
O318 Zn297 2.024 . S
O318 C298 1.235 1_545 S
C319 O315 1.251 . S
C319 O316 1.254 . S
H320 C293 0.949 . S
H321 C295 0.950 . S
H322 C302 0.949 . S
H323 C304 0.950 . S
C324 O340 1.251 . S
C324 O342 1.254 . S
N325 C326 1.333 . S
N325 C330 1.307 . S
N325 Zn331 2.020 . S
C326 N325 1.333 . S
C326 C327 1.379 . S
C326 H344 0.952 . S
C327 C326 1.379 . S
C327 C328 1.390 . S
C327 H354 0.949 . S
C328 C327 1.390 . S
C328 C329 1.357 . S
C329 C328 1.357 . S
C329 C330 1.370 . S
C329 H355 0.950 . S
C330 N325 1.307 . S
C330 C329 1.370 . S
C330 H348 0.948 . S
Zn331 N325 2.020 . S
Zn331 O340 2.039 . S
Zn331 O346 2.034 . S
Zn331 O350 2.025 . S
Zn331 O352 2.024 . S
C332 O351 1.246 . S
C332 O352 1.249 . S
N333 C334 1.307 . S
N333 C335 1.333 . S
N333 Zn339 2.020 . S
C334 N333 1.307 . S
C334 C338 1.370 . S
C334 H345 0.948 . S
C335 N333 1.333 . S
C335 C336 1.379 . S
C335 H343 0.952 . S
C336 C335 1.379 . S
C336 C337 1.390 . S
C336 H356 0.949 . S
C337 C336 1.390 . S
C337 C338 1.357 . S
C338 C334 1.370 . S
C338 C337 1.357 . S
C338 H357 0.950 . S
Zn339 N333 2.020 . S
Zn339 O342 2.025 . S
Zn339 O347 2.024 . S
Zn339 O349 2.039 . S
Zn339 O351 2.034 . S
O340 C324 1.251 . S
O340 Zn331 2.039 . S
C341 O346 1.246 . S
C341 O347 1.249 . S
O342 C324 1.254 . S
O342 Zn339 2.025 . S
H343 C335 0.952 . S
H344 C326 0.952 . S
H345 C334 0.948 . S
O346 Zn331 2.034 . S
O346 C341 1.246 . S
O347 Zn339 2.024 . S
O347 C341 1.249 . S
H348 C330 0.948 . S
O349 Zn339 2.039 . S
O349 C353 1.251 . S
O350 Zn331 2.025 . S
O350 C353 1.254 . S
O351 C332 1.246 . S
O351 Zn339 2.034 . S
O352 Zn331 2.024 . S
O352 C332 1.249 . S
C353 O349 1.251 . S
C353 O350 1.254 . S
H354 C327 0.949 . S
H355 C329 0.950 . S
H356 C336 0.949 . S
H357 C338 0.950 . S
C358 O374 1.251 1_556 S
C358 O376 1.254 . S
N359 C360 1.333 . S
N359 C364 1.307 . S
N359 Zn365 2.020 . S
C360 N359 1.333 . S
C360 C361 1.379 . S
C360 H378 0.952 . S
C361 C360 1.379 . S
C361 C362 1.390 . S
C361 H388 0.949 . S
C362 C361 1.390 . S
C362 C363 1.357 . S
C363 C362 1.357 . S
C363 C364 1.370 . S
C363 H389 0.950 . S
C364 N359 1.307 . S
C364 C363 1.370 . S
C364 H382 0.948 . S
Zn365 N359 2.020 . S
Zn365 O374 2.039 . S
Zn365 O380 2.034 1_655 S
Zn365 O384 2.025 1_655 S
Zn365 O386 2.024 . S
C366 O385 1.246 . S
C366 O386 1.249 1_556 S
N367 C368 1.307 . S
N367 C369 1.333 . S
N367 Zn373 2.020 . S
C368 N367 1.307 . S
C368 C372 1.370 . S
C368 H379 0.948 . S
C369 N367 1.333 . S
C369 C370 1.379 . S
C369 H377 0.952 . S
C370 C369 1.379 . S
C370 C371 1.390 . S
C370 H390 0.949 . S
C371 C370 1.390 . S
C371 C372 1.357 . S
C372 C368 1.370 . S
C372 C371 1.357 . S
C372 H391 0.950 . S
Zn373 N367 2.020 . S
Zn373 O376 2.025 1_455 S
Zn373 O381 2.024 . S
Zn373 O383 2.039 . S
Zn373 O385 2.034 1_455 S
O374 C358 1.251 1_554 S
O374 Zn365 2.039 . S
C375 O380 1.246 . S
C375 O381 1.249 1_554 S
O376 C358 1.254 . S
O376 Zn373 2.025 1_655 S
H377 C369 0.952 . S
H378 C360 0.952 . S
H379 C368 0.948 . S
O380 Zn365 2.034 1_455 S
O380 C375 1.246 . S
O381 Zn373 2.024 . S
O381 C375 1.249 1_556 S
H382 C364 0.948 . S
O383 Zn373 2.039 . S
O383 C387 1.251 1_556 S
O384 Zn365 2.025 1_455 S
O384 C387 1.254 . S
O385 C366 1.246 . S
O385 Zn373 2.034 1_655 S
O386 Zn365 2.024 . S
O386 C366 1.249 1_554 S
C387 O383 1.251 1_554 S
C387 O384 1.254 . S
H388 C361 0.949 . S
H389 C363 0.950 . S
H390 C370 0.949 . S
H391 C372 0.950 . S
H392 C398 0.930 . S
H393 C402 0.930 1_655 S
H394 C407 0.929 . S
H395 C405 0.929 . S
H396 C400 0.929 . S
H397 C406 0.929 . S
C398 H392 0.930 . S
C398 C399 1.367 . S
C398 C406 1.378 . S
C399 C398 1.367 . S
C399 C407 1.433 . S
C400 H396 0.929 . S
C400 C402 1.378 . S
C400 C404 1.350 . S
C401 C404 1.463 . S
C401 C406 1.350 . S
C401 N409 1.427 . S
C402 H393 0.930 1_455 S
C402 C400 1.378 . S
C402 C403 1.367 . S
C403 C402 1.367 . S
C403 C405 1.433 . S
C404 C400 1.350 . S
C404 C401 1.463 . S
C404 N408 1.427 . S
C405 H395 0.929 . S
C405 C403 1.433 . S
C405 N408 1.384 . S
C406 H397 0.929 . S
C406 C398 1.378 . S
C406 C401 1.350 . S
C407 H394 0.929 . S
C407 C399 1.433 . S
C407 N409 1.384 . S
N408 C404 1.427 . S
N408 C405 1.384 . S
N409 C401 1.427 . S
N409 C407 1.384 . S
H410 C416 0.930 . S
H411 C420 0.930 . S
H412 C425 0.929 . S
H413 C423 0.929 . S
H414 C418 0.929 . S
H415 C424 0.929 . S
C416 H410 0.930 . S
C416 C417 1.367 . S
C416 C424 1.378 . S
C417 C416 1.367 . S
C417 C425 1.433 . S
C418 H414 0.929 . S
C418 C420 1.378 . S
C418 C422 1.350 . S
C419 C422 1.463 . S
C419 C424 1.350 . S
C419 N427 1.427 . S
C420 H411 0.930 . S
C420 C418 1.378 . S
C420 C421 1.367 . S
C421 C420 1.367 . S
C421 C423 1.433 1_565 S
C422 C418 1.350 . S
C422 C419 1.463 . S
C422 N426 1.427 . S
C423 H413 0.929 . S
C423 C421 1.433 1_545 S
C423 N426 1.384 1_545 S
C424 H415 0.929 . S
C424 C416 1.378 . S
C424 C419 1.350 . S
C425 H412 0.929 . S
C425 C417 1.433 . S
C425 N427 1.384 . S
N426 C422 1.427 . S
N426 C423 1.384 1_565 S
N427 C419 1.427 . S
N427 C425 1.384 . S
H428 C434 0.930 . S
H429 C438 0.930 . S
H430 C443 0.929 . S
H431 C441 0.929 . S
H432 C436 0.929 . S
H433 C442 0.929 . S
C434 H428 0.930 . S
C434 C435 1.367 . S
C434 C442 1.378 . S
C435 C434 1.367 . S
C435 C443 1.433 . S
C436 H432 0.929 . S
C436 C438 1.378 . S
C436 C440 1.350 . S
C437 C440 1.463 . S
C437 C442 1.350 . S
C437 N445 1.427 . S
C438 H429 0.930 . S
C438 C436 1.378 . S
C438 C439 1.367 . S
C439 C438 1.367 . S
C439 C441 1.433 . S
C440 C436 1.350 . S
C440 C437 1.463 . S
C440 N444 1.427 . S
C441 H431 0.929 . S
C441 C439 1.433 . S
C441 N444 1.384 . S
C442 H433 0.929 . S
C442 C434 1.378 . S
C442 C437 1.350 . S
C443 H430 0.929 . S
C443 C435 1.433 . S
C443 N445 1.384 . S
N444 C440 1.427 . S
N444 C441 1.384 . S
N445 C437 1.427 . S
N445 C443 1.384 . S
H446 C452 0.930 . S
H447 C456 0.930 . S
H448 C461 0.929 . S
H449 C459 0.929 . S
H450 C454 0.929 . S
H451 C460 0.929 . S
C452 H446 0.930 . S
C452 C453 1.367 . S
C452 C460 1.378 . S
C453 C452 1.367 . S
C453 C461 1.433 . S
C454 H450 0.929 . S
C454 C456 1.378 . S
C454 C458 1.350 . S
C455 C458 1.463 . S
C455 C460 1.350 . S
C455 N463 1.427 . S
C456 H447 0.930 . S
C456 C454 1.378 . S
C456 C457 1.367 . S
C457 C456 1.367 . S
C457 C459 1.433 . S
C458 C454 1.350 . S
C458 C455 1.463 . S
C458 N462 1.427 . S
C459 H449 0.929 . S
C459 C457 1.433 . S
C459 N462 1.384 . S
C460 H451 0.929 . S
C460 C452 1.378 . S
C460 C455 1.350 . S
C461 H448 0.929 . S
C461 C453 1.433 . S
C461 N463 1.384 . S
N462 C458 1.427 . S
N462 C459 1.384 . S
N463 C455 1.427 . S
N463 C461 1.384 . S
H464 C470 0.930 . S
H465 C474 0.930 . S
H466 C479 0.929 . S
H467 C477 0.929 . S
H468 C472 0.929 . S
H469 C478 0.929 . S
C470 H464 0.930 . S
C470 C471 1.367 . S
C470 C478 1.378 . S
C471 C470 1.367 . S
C471 C479 1.433 . S
C472 H468 0.929 . S
C472 C474 1.378 . S
C472 C476 1.350 . S
C473 C476 1.463 . S
C473 C478 1.350 . S
C473 N481 1.427 . S
C474 H465 0.930 . S
C474 C472 1.378 . S
C474 C475 1.367 . S
C475 C474 1.367 . S
C475 C477 1.433 . S
C476 C472 1.350 . S
C476 C473 1.463 . S
C476 N480 1.427 . S
C477 H467 0.929 . S
C477 C475 1.433 . S
C477 N480 1.384 . S
C478 H469 0.929 . S
C478 C470 1.378 . S
C478 C473 1.350 . S
C479 H466 0.929 . S
C479 C471 1.433 . S
C479 N481 1.384 . S
N480 C476 1.427 . S
N480 C477 1.384 . S
N481 C473 1.427 . S
N481 C479 1.384 . S
H482 C488 0.930 . S
H483 C492 0.930 . S
H484 C497 0.929 . S
H485 C495 0.950 . S
H486 C490 0.929 . S
H487 C496 0.929 . S
C488 H482 0.930 . S
C488 C489 1.367 . S
C488 C496 1.378 . S
C489 C488 1.367 . S
C489 C497 1.433 . S
C490 H486 0.929 . S
C490 C492 1.378 . S
C490 C494 1.350 . S
C491 C494 1.463 . S
C491 C496 1.350 . S
C491 N499 1.427 . S
C492 H483 0.930 . S
C492 C490 1.378 . S
C492 C493 1.367 . S
C493 C492 1.367 . S
C493 C495 1.416 1_565 S
C494 C490 1.350 . S
C494 C491 1.463 . S
C494 N498 1.427 . S
C495 H485 0.950 . S
C495 C493 1.416 1_545 S
C495 N498 1.379 1_545 S
C496 H487 0.929 . S
C496 C488 1.378 . S
C496 C491 1.350 . S
C497 H484 0.929 . S
C497 C489 1.433 . S
C497 N499 1.384 . S
N498 C494 1.427 . S
N498 C495 1.379 1_565 S
N499 C491 1.427 . S
N499 C497 1.384 . S
H500 C506 0.930 . S
H501 C510 0.930 1_554 S
H502 C515 0.929 . S
H503 C513 0.929 . S
H504 C508 0.929 1_554 S
H505 C514 0.929 . S
C506 H500 0.930 . S
C506 C507 1.367 . S
C506 C514 1.378 . S
C507 C506 1.367 . S
C507 C515 1.433 . S
C508 H504 0.929 1_556 S
C508 C510 1.378 . S
C508 C512 1.350 . S
C509 C512 1.463 . S
C509 C514 1.350 . S
C509 N517 1.427 . S
C510 H501 0.930 1_556 S
C510 C508 1.378 . S
C510 C511 1.367 . S
C511 C510 1.367 . S
C511 C513 1.433 . S
C512 C508 1.350 . S
C512 C509 1.463 . S
C512 N516 1.427 . S
C513 H503 0.929 . S
C513 C511 1.433 . S
C513 N516 1.384 . S
C514 H505 0.929 . S
C514 C506 1.378 . S
C514 C509 1.350 . S
C515 H502 0.929 . S
C515 C507 1.433 . S
C515 N517 1.384 . S
N516 C512 1.427 . S
N516 C513 1.384 . S
N517 C509 1.427 . S
N517 C515 1.384 . S
H518 C524 0.930 . S
H519 C528 0.930 . S
H520 C533 0.929 . S
H521 C531 0.929 . S
H522 C526 0.929 . S
H523 C532 0.929 . S
C524 H518 0.930 . S
C524 C525 1.367 . S
C524 C532 1.378 . S
C525 C524 1.367 . S
C525 C533 1.433 . S
C526 H522 0.929 . S
C526 C528 1.378 . S
C526 C530 1.350 . S
C527 C530 1.463 . S
C527 C532 1.350 . S
C527 N535 1.427 . S
C528 H519 0.930 . S
C528 C526 1.378 . S
C528 C529 1.367 . S
C529 C528 1.367 . S
C529 C531 1.433 . S
C530 C526 1.350 . S
C530 C527 1.463 . S
C530 N534 1.427 . S
C531 H521 0.929 . S
C531 C529 1.433 . S
C531 N534 1.384 . S
C532 H523 0.929 . S
C532 C524 1.378 . S
C532 C527 1.350 . S
C533 H520 0.929 . S
C533 C525 1.433 . S
C533 N535 1.384 . S
N534 C530 1.427 . S
N534 C531 1.384 . S
N535 C527 1.427 . S
N535 C533 1.384 . S
H536 C542 0.930 . S
H537 C546 0.930 1_655 S
H538 C551 0.929 . S
H539 C549 0.929 . S
H540 C544 0.929 . S
H541 C550 0.929 . S
C542 H536 0.930 . S
C542 C543 1.367 . S
C542 C550 1.378 . S
C543 C542 1.367 . S
C543 C551 1.433 . S
C544 H540 0.929 . S
C544 C546 1.378 . S
C544 C548 1.350 . S
C545 C548 1.463 . S
C545 C550 1.350 . S
C545 N553 1.427 . S
C546 H537 0.930 1_455 S
C546 C544 1.378 . S
C546 C547 1.367 . S
C547 C546 1.367 . S
C547 C549 1.433 . S
C548 C544 1.350 . S
C548 C545 1.463 . S
C548 N552 1.427 . S
C549 H539 0.929 . S
C549 C547 1.433 . S
C549 N552 1.384 . S
C550 H541 0.929 . S
C550 C542 1.378 . S
C550 C545 1.350 . S
C551 H538 0.929 . S
C551 C543 1.433 . S
C551 N553 1.384 . S
N552 C548 1.427 . S
N552 C549 1.384 . S
N553 C545 1.427 . S
N553 C551 1.384 . S
H554 C560 0.930 . S
H555 C564 0.930 . S
H556 C569 0.929 . S
H557 C567 0.929 . S
H558 C562 0.929 . S
H559 C568 0.929 . S
C560 H554 0.930 . S
C560 C561 1.367 . S
C560 C568 1.378 . S
C561 C560 1.367 . S
C561 C569 1.433 . S
C562 H558 0.929 . S
C562 C564 1.378 . S
C562 C566 1.350 . S
C563 C566 1.463 . S
C563 C568 1.350 . S
C563 N571 1.427 . S
C564 H555 0.930 . S
C564 C562 1.378 . S
C564 C565 1.367 . S
C565 C564 1.367 . S
C565 C567 1.433 . S
C566 C562 1.350 . S
C566 C563 1.463 . S
C566 N570 1.427 . S
C567 H557 0.929 . S
C567 C565 1.433 . S
C567 N570 1.384 . S
C568 H559 0.929 . S
C568 C560 1.378 . S
C568 C563 1.350 . S
C569 H556 0.929 . S
C569 C561 1.433 . S
C569 N571 1.384 . S
N570 C566 1.427 . S
N570 C567 1.384 . S
N571 C563 1.427 . S
N571 C569 1.384 . S
H572 C578 0.930 . S
H573 C582 0.930 1_455 S
H574 C587 0.929 . S
H575 C585 0.929 . S
H576 C580 0.929 . S
H577 C586 0.929 . S
C578 H572 0.930 . S
C578 C579 1.367 . S
C578 C586 1.378 . S
C579 C578 1.367 . S
C579 C587 1.433 . S
C580 H576 0.929 . S
C580 C582 1.378 . S
C580 C584 1.350 . S
C581 C584 1.463 . S
C581 C586 1.350 . S
C581 N589 1.427 . S
C582 H573 0.930 1_655 S
C582 C580 1.378 . S
C582 C583 1.367 . S
C583 C582 1.367 . S
C583 C585 1.433 . S
C584 C580 1.350 . S
C584 C581 1.463 . S
C584 N588 1.427 . S
C585 H575 0.929 . S
C585 C583 1.433 . S
C585 N588 1.384 . S
C586 H577 0.929 . S
C586 C578 1.378 . S
C586 C581 1.350 . S
C587 H574 0.929 . S
C587 C579 1.433 . S
C587 N589 1.384 . S
N588 C584 1.427 . S
N588 C585 1.384 . S
N589 C581 1.427 . S
N589 C587 1.384 . S
H590 C596 0.930 . S
H591 C600 0.930 . S
H592 C605 0.929 . S
H593 C603 0.929 . S
H594 C598 0.929 . S
H595 C604 0.929 . S
C596 H590 0.930 . S
C596 C597 1.367 . S
C596 C604 1.378 . S
C597 C596 1.367 . S
C597 C605 1.433 . S
C598 H594 0.929 . S
C598 C600 1.378 . S
C598 C602 1.350 . S
C599 C602 1.463 . S
C599 C604 1.350 . S
C599 N607 1.427 . S
C600 H591 0.930 . S
C600 C598 1.378 . S
C600 C601 1.367 . S
C601 C600 1.367 . S
C601 C603 1.433 . S
C602 C598 1.350 . S
C602 C599 1.463 . S
C602 N606 1.427 . S
C603 H593 0.929 . S
C603 C601 1.433 . S
C603 N606 1.384 . S
C604 H595 0.929 . S
C604 C596 1.378 . S
C604 C599 1.350 . S
C605 H592 0.929 . S
C605 C597 1.433 . S
C605 N607 1.384 . S
N606 C602 1.427 . S
N606 C603 1.384 . S
N607 C599 1.427 . S
N607 C605 1.384 . S
H608 C614 0.930 . S
H609 C618 0.938 1_545 S
H610 C623 0.929 . S
H611 C621 0.929 . S
H612 C616 0.929 . S
H613 C622 0.929 . S
C614 H608 0.930 . S
C614 C615 1.367 . S
C614 C622 1.378 . S
C615 C614 1.367 . S
C615 C623 1.433 . S
C616 H612 0.929 . S
C616 C618 1.378 . S
C616 C620 1.350 . S
C617 C620 1.463 . S
C617 C622 1.350 . S
C617 N625 1.427 . S
C618 H609 0.938 1_565 S
C618 C616 1.378 . S
C618 C619 1.367 . S
C619 C618 1.367 . S
C619 C621 1.433 . S
C620 C616 1.350 . S
C620 C617 1.463 . S
C620 N624 1.427 . S
C621 H611 0.929 . S
C621 C619 1.433 . S
C621 N624 1.384 . S
C622 H613 0.929 . S
C622 C614 1.378 . S
C622 C617 1.350 . S
C623 H610 0.929 . S
C623 C615 1.433 . S
C623 N625 1.384 . S
N624 C620 1.427 . S
N624 C621 1.384 . S
N625 C617 1.427 . S
N625 C623 1.384 . S
H626 C632 0.930 . S
H627 C636 0.930 . S
H628 C641 0.929 . S
H629 C639 0.929 . S
H630 C634 0.929 . S
H631 C640 0.929 . S
C632 H626 0.930 . S
C632 C633 1.367 . S
C632 C640 1.378 . S
C633 C632 1.367 . S
C633 C641 1.433 . S
C634 H630 0.929 . S
C634 C636 1.378 . S
C634 C638 1.350 . S
C635 C638 1.463 . S
C635 C640 1.350 . S
C635 N643 1.427 . S
C636 H627 0.930 . S
C636 C634 1.378 . S
C636 C637 1.367 . S
C637 C636 1.367 . S
C637 C639 1.433 . S
C638 C634 1.350 . S
C638 C635 1.463 . S
C638 N642 1.427 . S
C639 H629 0.929 . S
C639 C637 1.433 . S
C639 N642 1.384 . S
C640 H631 0.929 . S
C640 C632 1.378 . S
C640 C635 1.350 . S
C641 H628 0.929 . S
C641 C633 1.433 . S
C641 N643 1.384 . S
N642 C638 1.427 . S
N642 C639 1.384 . S
N643 C635 1.427 . S
N643 C641 1.384 . S
H644 C650 0.930 . S
H645 C654 0.930 . S
H646 C659 0.929 . S
H647 C657 0.929 . S
H648 C652 0.929 . S
H649 C658 0.929 . S
C650 H644 0.930 . S
C650 C651 1.367 . S
C650 C658 1.378 . S
C651 C650 1.367 . S
C651 C659 1.433 . S
C652 H648 0.929 . S
C652 C654 1.378 . S
C652 C656 1.350 . S
C653 C656 1.463 . S
C653 C658 1.350 . S
C653 N661 1.427 . S
C654 H645 0.930 . S
C654 C652 1.378 . S
C654 C655 1.367 . S
C655 C654 1.367 . S
C655 C657 1.433 . S
C656 C652 1.350 . S
C656 C653 1.463 . S
C656 N660 1.427 . S
C657 H647 0.929 . S
C657 C655 1.433 . S
C657 N660 1.384 . S
C658 H649 0.929 . S
C658 C650 1.378 . S
C658 C653 1.350 . S
C659 H646 0.929 . S
C659 C651 1.433 . S
C659 N661 1.384 . S
N660 C656 1.427 . S
N660 C657 1.384 . S
N661 C653 1.427 . S
N661 C659 1.384 . S
H662 C668 0.930 . S
H663 C672 0.930 . S
H664 C677 0.929 . S
H665 C675 0.929 . S
H666 C670 0.929 . S
H667 C676 0.929 . S
C668 H662 0.930 . S
C668 C669 1.367 . S
C668 C676 1.378 . S
C669 C668 1.367 . S
C669 C677 1.433 . S
C670 H666 0.929 . S
C670 C672 1.378 . S
C670 C674 1.350 . S
C671 C674 1.463 . S
C671 C676 1.350 . S
C671 N679 1.427 . S
C672 H663 0.930 . S
C672 C670 1.378 . S
C672 C673 1.367 . S
C673 C672 1.367 . S
C673 C675 1.433 . S
C674 C670 1.350 . S
C674 C671 1.463 . S
C674 N678 1.427 . S
C675 H665 0.929 . S
C675 C673 1.433 . S
C675 N678 1.384 . S
C676 H667 0.929 . S
C676 C668 1.378 . S
C676 C671 1.350 . S
C677 H664 0.929 . S
C677 C669 1.433 . S
C677 N679 1.384 . S
N678 C674 1.427 . S
N678 C675 1.384 . S
N679 C671 1.427 . S
N679 C677 1.384 . S
H680 C686 0.930 . S
H681 C690 0.930 1_545 S
H682 C695 0.929 . S
H683 C693 0.929 1_554 S
H684 C688 0.929 1_545 S
H685 C694 0.929 . S
C686 H680 0.930 . S
C686 C687 1.367 . S
C686 C694 1.378 . S
C687 C686 1.367 . S
C687 C695 1.433 . S
C688 H684 0.929 1_565 S
C688 C690 1.378 . S
C688 C692 1.350 . S
C689 C692 1.463 . S
C689 C694 1.350 . S
C689 N697 1.427 . S
C690 H681 0.930 1_565 S
C690 C688 1.378 . S
C690 C691 1.367 . S
C691 C690 1.367 . S
C691 C693 1.433 . S
C692 C688 1.350 . S
C692 C689 1.463 . S
C692 N696 1.427 . S
C693 H683 0.929 1_556 S
C693 C691 1.433 . S
C693 N696 1.384 . S
C694 H685 0.929 . S
C694 C686 1.378 . S
C694 C689 1.350 . S
C695 H682 0.929 . S
C695 C687 1.433 . S
C695 N697 1.384 . S
N696 C692 1.427 . S
N696 C693 1.384 . S
N697 C689 1.427 . S
N697 C695 1.384 . S
H698 C704 0.930 . S
H699 C708 0.930 . S
H700 C713 0.929 . S
H701 C711 0.929 . S
H702 C706 0.929 . S
H703 C712 0.929 . S
C704 H698 0.930 . S
C704 C705 1.367 . S
C704 C712 1.378 . S
C705 C704 1.367 . S
C705 C713 1.433 . S
C706 H702 0.929 . S
C706 C708 1.378 . S
C706 C710 1.350 . S
C707 C710 1.463 . S
C707 C712 1.350 . S
C707 N715 1.427 . S
C708 H699 0.930 . S
C708 C706 1.378 . S
C708 C709 1.367 . S
C709 C708 1.367 . S
C709 C711 1.433 . S
C710 C706 1.350 . S
C710 C707 1.463 . S
C710 N714 1.427 . S
C711 H701 0.929 . S
C711 C709 1.433 . S
C711 N714 1.384 . S
C712 H703 0.929 . S
C712 C704 1.378 . S
C712 C707 1.350 . S
C713 H700 0.929 . S
C713 C705 1.433 . S
C713 N715 1.384 . S
N714 C710 1.427 . S
N714 C711 1.384 . S
N715 C707 1.427 . S
N715 C713 1.384 . S
H716 C722 0.930 . S
H717 C726 0.930 . S
H718 C731 0.929 . S
H719 C729 0.929 . S
H720 C724 0.929 . S
H721 C730 0.929 . S
C722 H716 0.930 . S
C722 C723 1.367 . S
C722 C730 1.378 . S
C723 C722 1.367 . S
C723 C731 1.433 . S
C724 H720 0.929 . S
C724 C726 1.378 . S
C724 C728 1.350 . S
C725 C728 1.463 . S
C725 C730 1.350 . S
C725 N733 1.427 . S
C726 H717 0.930 . S
C726 C724 1.378 . S
C726 C727 1.367 . S
C727 C726 1.367 . S
C727 C729 1.433 . S
C728 C724 1.350 . S
C728 C725 1.463 . S
C728 N732 1.427 . S
C729 H719 0.929 . S
C729 C727 1.433 . S
C729 N732 1.384 . S
C730 H721 0.929 . S
C730 C722 1.378 . S
C730 C725 1.350 . S
C731 H718 0.929 . S
C731 C723 1.433 . S
C731 N733 1.384 . S
N732 C728 1.427 . S
N732 C729 1.384 . S
N733 C725 1.427 . S
N733 C731 1.384 . S
H734 C740 0.930 . S
H735 C744 0.930 . S
H736 C749 0.929 . S
H737 C747 0.929 . S
H738 C742 0.929 . S
H739 C748 0.929 . S
C740 H734 0.930 . S
C740 C741 1.367 . S
C740 C748 1.378 . S
C741 C740 1.367 . S
C741 C749 1.433 . S
C742 H738 0.929 . S
C742 C744 1.378 . S
C742 C746 1.350 . S
C743 C746 1.463 . S
C743 C748 1.350 . S
C743 N751 1.427 . S
C744 H735 0.930 . S
C744 C742 1.378 . S
C744 C745 1.367 . S
C745 C744 1.367 . S
C745 C747 1.433 . S
C746 C742 1.350 . S
C746 C743 1.463 . S
C746 N750 1.427 . S
C747 H737 0.929 . S
C747 C745 1.433 . S
C747 N750 1.384 . S
C748 H739 0.929 . S
C748 C740 1.378 . S
C748 C743 1.350 . S
C749 H736 0.929 . S
C749 C741 1.433 . S
C749 N751 1.384 . S
N750 C746 1.427 . S
N750 C747 1.384 . S
N751 C743 1.427 . S
N751 C749 1.384 . S
H752 C758 0.930 . S
H753 C762 0.930 . S
H754 C767 0.929 . S
H755 C765 0.929 1_554 S
H756 C760 0.929 . S
H757 C766 0.929 . S
C758 H752 0.930 . S
C758 C759 1.367 . S
C758 C766 1.378 . S
C759 C758 1.367 . S
C759 C767 1.433 . S
C760 H756 0.929 . S
C760 C762 1.378 . S
C760 C764 1.350 . S
C761 C764 1.463 . S
C761 C766 1.350 . S
C761 N769 1.427 . S
C762 H753 0.930 . S
C762 C760 1.378 . S
C762 C763 1.367 . S
C763 C762 1.367 . S
C763 C765 1.433 . S
C764 C760 1.350 . S
C764 C761 1.463 . S
C764 N768 1.427 . S
C765 H755 0.929 1_556 S
C765 C763 1.433 . S
C765 N768 1.384 . S
C766 H757 0.929 . S
C766 C758 1.378 . S
C766 C761 1.350 . S
C767 H754 0.929 . S
C767 C759 1.433 . S
C767 N769 1.384 . S
N768 C764 1.427 . S
N768 C765 1.384 . S
N769 C761 1.427 . S
N769 C767 1.384 . S
H770 C776 0.930 . S
H771 C780 0.930 . S
H772 C785 0.929 . S
H773 C783 0.929 . S
H774 C778 0.929 . S
H775 C784 0.929 . S
C776 H770 0.930 . S
C776 C777 1.367 . S
C776 C784 1.378 . S
C777 C776 1.367 . S
C777 C785 1.433 . S
C778 H774 0.929 . S
C778 C780 1.378 . S
C778 C782 1.350 . S
C779 C782 1.463 . S
C779 C784 1.350 . S
C779 N787 1.427 . S
C780 H771 0.930 . S
C780 C778 1.378 . S
C780 C781 1.367 . S
C781 C780 1.367 . S
C781 C783 1.433 . S
C782 C778 1.350 . S
C782 C779 1.463 . S
C782 N786 1.427 . S
C783 H773 0.929 . S
C783 C781 1.433 . S
C783 N786 1.384 . S
C784 H775 0.929 . S
C784 C776 1.378 . S
C784 C779 1.350 . S
C785 H772 0.929 . S
C785 C777 1.433 . S
C785 N787 1.384 . S
N786 C782 1.427 . S
N786 C783 1.384 . S
N787 C779 1.427 . S
N787 C785 1.384 . S
H788 C794 0.930 . S
H789 C798 0.930 . S
H790 C803 0.929 . S
H791 C801 0.929 . S
H792 C796 0.929 . S
H793 C802 0.929 . S
C794 H788 0.930 . S
C794 C795 1.367 . S
C794 C802 1.378 . S
C795 C794 1.367 . S
C795 C803 1.433 . S
C796 H792 0.929 . S
C796 C798 1.378 . S
C796 C800 1.350 . S
C797 C800 1.463 . S
C797 C802 1.350 . S
C797 N805 1.427 . S
C798 H789 0.930 . S
C798 C796 1.378 . S
C798 C799 1.367 . S
C799 C798 1.367 . S
C799 C801 1.433 . S
C800 C796 1.350 . S
C800 C797 1.463 . S
C800 N804 1.427 . S
C801 H791 0.929 . S
C801 C799 1.433 . S
C801 N804 1.384 . S
C802 H793 0.929 . S
C802 C794 1.378 . S
C802 C797 1.350 . S
C803 H790 0.929 . S
C803 C795 1.433 . S
C803 N805 1.384 . S
N804 C800 1.427 . S
N804 C801 1.384 . S
N805 C797 1.427 . S
N805 C803 1.384 . S
H806 C812 0.930 . S
H807 C816 0.930 . S
H808 C821 0.929 . S
H809 C819 0.929 . S
H810 C814 0.929 . S
H811 C820 0.929 . S
C812 H806 0.930 . S
C812 C813 1.367 . S
C812 C820 1.378 . S
C813 C812 1.367 . S
C813 C821 1.433 . S
C814 H810 0.929 . S
C814 C816 1.378 . S
C814 C818 1.350 . S
C815 C818 1.463 . S
C815 C820 1.350 . S
C815 N823 1.427 . S
C816 H807 0.930 . S
C816 C814 1.378 . S
C816 C817 1.367 . S
C817 C816 1.367 . S
C817 C819 1.433 . S
C818 C814 1.350 . S
C818 C815 1.463 . S
C818 N822 1.427 . S
C819 H809 0.929 . S
C819 C817 1.433 . S
C819 N822 1.384 . S
C820 H811 0.929 . S
C820 C812 1.378 . S
C820 C815 1.350 . S
C821 H808 0.929 . S
C821 C813 1.433 . S
C821 N823 1.384 . S
N822 C818 1.427 . S
N822 C819 1.384 . S
N823 C815 1.427 . S
N823 C821 1.384 . S
C399 C29 2.268 . S
C403 C256 2.372 . S
C417 C49 2.244 . S
C421 C298 2.253 . S
C439 C328 1.007 . S
C435 C93 0.952 . S
C453 C119 0.950 . S
C457 C362 0.999 . S
C475 C319 1.847 . S
C471 C17 1.763 . S
C493 C273 1.885 . S
C489 C61 1.882 . S
C511 C366 1.317 . S
C507 C81 1.226 . S
C529 C332 1.435 . S
C525 C125 1.316 . S
C543 C23 2.079 . S
C547 C387 2.181 . S
C565 C294 1.105 . S
C561 C87 1.062 . S
C579 C113 1.093 . S
C583 C269 1.171 . S
C597 C55 2.169 . S
C601 C353 2.170 . S
C619 C285 2.306 . S
C615 C157 2.299 . S
C633 C189 2.195 . S
C637 C307 2.297 . S
C651 C221 0.997 . S
C655 C337 0.986 . S
C669 C253 0.985 . S
C673 C371 1.047 . S
C687 C145 1.883 . S
C691 C290 1.890 . S
C709 C264 1.810 . S
C705 C183 1.720 . S
C727 C375 1.361 . S
C723 C209 1.367 . S
C745 C341 1.374 . S
C741 C247 1.275 . S
C759 C151 2.198 . S
C763 C358 2.201 . S
C781 C303 1.121 . S
C777 C215 1.129 . S
C799 C260 1.146 . S
C795 C241 1.081 . S
C813 C177 2.122 . S
C817 C324 2.213 . S
