# Generated by pormake.
# Topology zzz, (3,6)-cn, num edge types: 1
# Building blocks:
#     Node 0, Type 0, BuildingBlock: QEWDON_clean_linker_0, # of connection points: 3
#     Node 1, Type 0, BuildingBlock: QEWDON_clean_linker_0, # of connection points: 3
#     Node 2, Type 0, BuildingBlock: QEWDON_clean_linker_0, # of connection points: 3
#     Node 3, Type 0, BuildingBlock: QEWDON_clean_linker_0, # of connection points: 3
#     Node 4, Type 0, BuildingBlock: QEWDON_clean_linker_0, # of connection points: 3
#     Node 5, Type 0, BuildingBlock: QEWDON_clean_linker_0, # of connection points: 3
#     Node 6, Type 0, BuildingBlock: QEWDON_clean_linker_0, # of connection points: 3
#     Node 7, Type 0, BuildingBlock: QEWDON_clean_linker_0, # of connection points: 3
#     Node 8, Type 1, BuildingBlock: CUKXOW_clean_sbu_0, # of connection points: 6
#     Node 9, Type 1, BuildingBlock: CUKXOW_clean_sbu_0, # of connection points: 6
#     Node 10, Type 1, BuildingBlock: CUKXOW_clean_sbu_0, # of connection points: 6
#     Node 11, Type 1, BuildingBlock: CUKXOW_clean_sbu_0, # of connection points: 6
#     Edge 12, Type (0, 1), BuildingBlock: XUDNAN_clean_linker_2, # of connection points: 2
#     Edge 13, Type (0, 1), BuildingBlock: XUDNAN_clean_linker_2, # of connection points: 2
#     Edge 14, Type (0, 1), BuildingBlock: XUDNAN_clean_linker_2, # of connection points: 2
#     Edge 15, Type (0, 1), BuildingBlock: XUDNAN_clean_linker_2, # of connection points: 2
#     Edge 16, Type (0, 1), BuildingBlock: XUDNAN_clean_linker_2, # of connection points: 2
#     Edge 17, Type (0, 1), BuildingBlock: XUDNAN_clean_linker_2, # of connection points: 2
#     Edge 18, Type (0, 1), BuildingBlock: XUDNAN_clean_linker_2, # of connection points: 2
#     Edge 19, Type (0, 1), BuildingBlock: XUDNAN_clean_linker_2, # of connection points: 2
#     Edge 20, Type (0, 1), BuildingBlock: XUDNAN_clean_linker_2, # of connection points: 2
#     Edge 21, Type (0, 1), BuildingBlock: XUDNAN_clean_linker_2, # of connection points: 2
#     Edge 22, Type (0, 1), BuildingBlock: XUDNAN_clean_linker_2, # of connection points: 2
#     Edge 23, Type (0, 1), BuildingBlock: XUDNAN_clean_linker_2, # of connection points: 2
#     Edge 24, Type (0, 1), BuildingBlock: XUDNAN_clean_linker_2, # of connection points: 2
#     Edge 25, Type (0, 1), BuildingBlock: XUDNAN_clean_linker_2, # of connection points: 2
#     Edge 26, Type (0, 1), BuildingBlock: XUDNAN_clean_linker_2, # of connection points: 2
#     Edge 27, Type (0, 1), BuildingBlock: XUDNAN_clean_linker_2, # of connection points: 2
#     Edge 28, Type (0, 1), BuildingBlock: XUDNAN_clean_linker_2, # of connection points: 2
#     Edge 29, Type (0, 1), BuildingBlock: XUDNAN_clean_linker_2, # of connection points: 2
#     Edge 30, Type (0, 1), BuildingBlock: XUDNAN_clean_linker_2, # of connection points: 2
#     Edge 31, Type (0, 1), BuildingBlock: XUDNAN_clean_linker_2, # of connection points: 2
#     Edge 32, Type (0, 1), BuildingBlock: XUDNAN_clean_linker_2, # of connection points: 2
#     Edge 33, Type (0, 1), BuildingBlock: XUDNAN_clean_linker_2, # of connection points: 2
#     Edge 34, Type (0, 1), BuildingBlock: XUDNAN_clean_linker_2, # of connection points: 2
#     Edge 35, Type (0, 1), BuildingBlock: XUDNAN_clean_linker_2, # of connection points: 2
# Relax obj value: 0.025
# Max RMSD: 0.091
# Mean RMSD: 0.034
data_MOF--net-zzz--node1-CUKXOW_clean_sbu_0--node2-QEWDON_clean_linker_0--edge1-XUDNAN_clean_linker_2
_symmetry_space_group_name_H-M    P1
_symmetry_Int_Tables_number       1
_symmetry_cell_setting            triclinic
loop_
_symmetry_equiv_pos_as_xyz
'x, y, z'
_cell_length_a     54.091197
_cell_length_b     56.394219
_cell_length_c     15.495062
_cell_angle_alpha  93.645223
_cell_angle_beta   86.766075
_cell_angle_gamma 93.231294
loop_
_atom_site_label
_atom_site_type_symbol
_atom_site_fract_x
_atom_site_fract_y
_atom_site_fract_z
_atom_type_partial_charge
H0 H 0.77571 0.52046 0.92487 0.0
C1 C 0.78371 0.52011 0.98729 0.0
C2 C 0.80756 0.51167 0.99161 0.0
C3 C 0.77098 0.52958 0.06264 0.0
H4 H 0.83722 0.50715 0.07527 0.0
C5 C 0.8184 0.51261 0.07172 0.0
C6 C 0.80651 0.5226 0.14643 0.0
C7 C 0.78253 0.53052 0.14253 0.0
C8 C 0.74698 0.5409 0.05625 0.0
H9 H 0.77338 0.53834 0.20068 0.0
C10 C 0.72813 0.5301 0.00531 0.0
C11 C 0.70579 0.54144 -0.00213 0.0
C12 C 0.7432 0.56321 0.09939 0.0
H13 H 0.75747 0.57221 0.1376 0.0
C14 C 0.72118 0.57446 0.0923 0.0
H15 H 0.73084 0.51294 0.97157 0.0
C16 C 0.70261 0.56371 0.04211 0.0
H17 H 0.68553 0.5727 0.03916 0.0
H18 H 0.7185 0.59161 0.12593 0.0
H19 H 0.97926 0.79349 0.95469 0.0
C20 C 0.98939 0.80071 0.00963 0.0
C21 C 0.99777 0.82481 0.01441 0.0
C22 C 0.99283 0.78643 0.07933 0.0
H23 H 0.01712 0.8526 0.08936 0.0
C24 C 0.01068 0.83398 0.08576 0.0
C25 C 0.01404 0.82015 0.15514 0.0
C26 C 0.00481 0.79646 0.15265 0.0
C27 C 0.982 0.76174 0.08074 0.0
H28 H 0.00674 0.78593 0.20782 0.0
C29 C 0.99001 0.7437 0.02011 0.0
C30 C 0.98103 0.71987 0.02784 0.0
C31 C 0.96446 0.75591 0.14739 0.0
H32 H 0.95807 0.76952 0.19465 0.0
C33 C 0.9551 0.73253 0.15394 0.0
H34 H 0.00385 0.74806 0.96945 0.0
C35 C 0.96336 0.71461 0.095 0.0
H36 H 0.95573 0.6966 0.10157 0.0
H37 H 0.9415 0.72825 0.20533 0.0
H38 H 0.73217 0.97494 0.95393 0.0
C39 C 0.72251 0.97932 0.01554 0.0
C40 C 0.69771 0.98561 0.01728 0.0
C41 C 0.73438 0.97796 0.09393 0.0
H42 H 0.66531 0.99416 0.09776 0.0
C43 C 0.6847 0.99003 0.09658 0.0
C44 C 0.69601 0.98848 0.17441 0.0
C45 C 0.72094 0.98303 0.17329 0.0
C46 C 0.76023 0.97009 0.09437 0.0
H47 H 0.7296 0.98223 0.23434 0.0
C48 C 0.77895 0.97785 0.03369 0.0
C49 C 0.80352 0.97118 0.03882 0.0
C50 C 0.76639 0.95486 0.15761 0.0
H51 H 0.7524 0.94798 0.2036 0.0
C52 C 0.79066 0.94816 0.16219 0.0
H53 H 0.77468 0.98961 0.98454 0.0
C54 C 0.80917 0.9564 0.10373 0.0
H55 H 0.82792 0.95096 0.10841 0.0
H56 H 0.79514 0.93652 0.21134 0.0
H57 H 0.55824 0.72075 0.00216 0.0
C58 C 0.54988 0.71556 0.06381 0.0
C59 C 0.53986 0.6922 0.07186 0.0
C60 C 0.55039 0.73173 0.13738 0.0
H61 H 0.52088 0.66785 0.15781 0.0
C62 C 0.52907 0.68574 0.1516 0.0
C63 C 0.5295 0.70143 0.22467 0.0
C64 C 0.54043 0.72435 0.21817 0.0
C65 C 0.56256 0.75585 0.13207 0.0
H66 H 0.54113 0.73637 0.27554 0.0
C67 C 0.55572 0.77151 0.07129 0.0
C68 C 0.56628 0.79497 0.0712 0.0
C69 C 0.58057 0.76362 0.19094 0.0
H70 H 0.58626 0.75184 0.23787 0.0
C71 C 0.59147 0.78659 0.18971 0.0
H72 H 0.54152 0.76576 0.02672 0.0
C73 C 0.58434 0.80221 0.13066 0.0
H74 H 0.59309 0.81998 0.13116 0.0
H75 H 0.6054 0.79236 0.23511 0.0
H76 H 0.23439 0.53392 0.40041 0.0
C77 C 0.22433 0.52549 0.34717 0.0
C78 C 0.19853 0.52185 0.35721 0.0
C79 C 0.23693 0.51889 0.26771 0.0
H80 H 0.16511 0.50976 0.29527 0.0
C81 C 0.18519 0.51188 0.28796 0.0
C82 C 0.19708 0.50603 0.20782 0.0
C83 C 0.22297 0.50941 0.19762 0.0
C84 C 0.26444 0.52272 0.25717 0.0
H85 H 0.2321 0.50446 0.13559 0.0
C86 C 0.27984 0.51885 0.32517 0.0
C87 C 0.30582 0.5228 0.31522 0.0
C88 C 0.27548 0.53059 0.179 0.0
H89 H 0.26428 0.53424 0.12611 0.0
C90 C 0.30114 0.53427 0.16845 0.0
H91 H 0.27162 0.51283 0.38584 0.0
C92 C 0.31622 0.53038 0.23566 0.0
H93 H 0.3361 0.53308 0.22479 0.0
H94 H 0.3094 0.54023 0.10779 0.0
H95 H 0.9786 0.22535 0.53495 0.0
C96 C 0.98644 0.22065 0.47059 0.0
C97 C 0.99457 0.19776 0.45144 0.0
C98 C 0.98696 0.23702 0.40537 0.0
H99 H 0.00953 0.17331 0.35431 0.0
C100 C 0.00409 0.19144 0.36828 0.0
C101 C 0.00505 0.20731 0.30202 0.0
C102 C 0.99635 0.23032 0.32088 0.0
C103 C 0.97435 0.25955 0.4244 0.0
H104 H 0.99586 0.24249 0.2697 0.0
C105 C 0.98725 0.28196 0.42159 0.0
C106 C 0.97503 0.30275 0.44966 0.0
C107 C 0.94914 0.25831 0.45213 0.0
H108 H 0.93889 0.24127 0.45459 0.0
C109 C 0.937 0.27892 0.47801 0.0
H110 H 0.00675 0.28314 0.40112 0.0
C111 C 0.94989 0.301 0.47757 0.0
H112 H 0.94021 0.31682 0.49892 0.0
H113 H 0.9176 0.27775 0.49953 0.0
H114 H 0.2957 0.02015 0.4554 0.0
C115 C 0.30578 0.02108 0.39329 0.0
C116 C 0.33159 0.02658 0.3907 0.0
C117 C 0.29339 0.01526 0.31615 0.0
H118 H 0.36478 0.0287 0.30655 0.0
C119 C 0.34476 0.02601 0.3101 0.0
C120 C 0.33297 0.02025 0.23335 0.0
C121 C 0.30723 0.01594 0.23609 0.0
C122 C 0.26688 0.00589 0.31855 0.0
H123 H 0.29831 0.01192 0.17567 0.0
C124 C 0.24933 0.01338 0.38456 0.0
C125 C 0.22473 1.00345 0.3868 0.0
C126 C 0.25922 0.98827 0.25543 0.0
H127 H 0.27212 0.98109 0.206 0.0
C128 C 0.23481 0.97913 0.2557 0.0
H129 H 0.25478 0.02661 0.43453 0.0
C130 C 0.21766 0.98671 0.32027 0.0
H131 H 0.19877 0.97934 0.31798 0.0
H132 H 0.2292 0.96587 0.206 0.0
H133 H 0.51107 0.28743 0.39436 0.0
C134 C 0.50329 0.29518 0.34039 0.0
C135 C 0.49982 0.31971 0.34403 0.0
C136 C 0.49804 0.28106 0.26448 0.0
H137 H 0.48874 0.349 0.27676 0.0
C138 C 0.49051 0.3299 0.27356 0.0
C139 C 0.48456 0.31619 0.1985 0.0
C140 C 0.48828 0.29168 0.19455 0.0
C141 C 0.50494 0.25585 0.25374 0.0
H142 H 0.48403 0.28089 0.13633 0.0
C143 C 0.49884 0.23965 0.31839 0.0
C144 C 0.50548 0.21574 0.30589 0.0
C145 C 0.51805 0.24798 0.17729 0.0
H146 H 0.52336 0.2601 0.12714 0.0
C147 C 0.5249 0.22453 0.16515 0.0
H148 H 0.4885 0.24552 0.37704 0.0
C149 C 0.51874 0.20854 0.22874 0.0
H150 H 0.52479 0.19056 0.21789 0.0
H151 H 0.53519 0.21876 0.10634 0.0
Tb152 Tb 0.01548 0.99487 0.65102 0.0
C153 C 0.06795 0.01628 0.71458 0.0
Tb154 Tb 0.01809 0.02987 0.8192 0.0
O155 O 0.99905 0.02259 0.58017 0.0
O156 O 0.02106 0.03114 0.68386 0.0
O157 O 0.05534 0.99943 0.6682 0.0
C158 C 0.01598 0.0723 0.90406 0.0
O159 O 0.05725 0.03146 0.77296 0.0
C160 C 0.01388 0.98404 0.8437 0.0
C161 C 0.96658 0.00599 0.76135 0.0
O162 O 0.03118 0.0561 0.92044 0.0
O163 O 1.0019 0.06413 0.84278 0.0
O164 O 0.00793 1.00018 0.90441 0.0
O165 O 0.02412 0.99438 0.78111 0.0
O166 O 0.97836 0.02449 0.80122 0.0
O167 O 0.9779 0.99034 0.70749 0.0
C168 C 0.02094 0.95676 0.54317 0.0
O169 O 0.00587 0.9578 0.61135 0.0
O170 O 0.03235 0.97744 0.53392 0.0
C171 C 0.0073 0.03971 0.63322 0.0
Tb172 Tb 0.51161 0.03038 0.6759 0.0
C173 C 0.55222 1.00067 0.57562 0.0
Tb174 Tb 0.51438 0.97645 0.71455 0.0
O175 O 0.54767 0.03991 0.73029 0.0
O176 O 0.52691 0.01003 0.7684 0.0
O177 O 0.53852 0.01944 0.57457 0.0
C178 C 0.5251 0.93416 0.76759 0.0
O179 O 0.54718 0.98289 0.62742 0.0
C180 C 0.47778 0.98495 0.61878 0.0
C181 C 0.47277 0.00737 0.81054 0.0
O182 O 0.52458 0.93954 0.68745 0.0
O183 O 0.51985 0.95269 0.81811 0.0
O184 O 0.47979 0.96525 0.65611 0.0
O185 O 0.49842 0.99661 0.62352 0.0
O186 O 0.48614 0.98829 0.8137 0.0
O187 O 0.47863 0.02469 0.75811 0.0
C188 C 0.49979 0.07279 0.62827 0.0
O189 O 0.50505 0.06804 0.70593 0.0
O190 O 0.50109 0.0536 0.57745 0.0
C191 C 0.548 0.02076 0.77234 0.0
Tb192 Tb 0.50598 0.5245 0.62538 0.0
C193 C 0.44844 0.51012 0.66734 0.0
Tb194 Tb 0.49024 0.49052 0.77528 0.0
O195 O 0.52148 0.4943 0.54437 0.0
O196 O 0.49355 0.48925 0.63948 0.0
O197 O 0.46545 0.52488 0.63046 0.0
C198 C 0.48235 0.44873 0.8446 0.0
O199 O 0.45391 0.49418 0.72266 0.0
C200 C 0.50009 0.53556 0.82154 0.0
C201 C 0.54674 0.50597 0.73633 0.0
O202 O 0.46999 0.46754 0.86857 0.0
O203 O 0.499 0.45389 0.78438 0.0
O204 O 0.50138 0.51861 0.8744 0.0
O205 O 0.49108 0.52678 0.75341 0.0
O206 O 0.53051 0.48897 0.76179 0.0
O207 O 0.54045 0.52385 0.69177 0.0
C208 C 0.51025 0.56367 0.53761 0.0
O209 O 0.52223 0.56027 0.60561 0.0
O210 O 0.49665 0.54465 0.51699 0.0
C211 C 0.50812 0.47854 0.58727 0.0
Tb212 Tb 0.98984 0.5248 0.58628 0.0
C213 C 0.00678 0.47137 0.59147 0.0
Tb214 Tb 0.02111 0.51126 0.73757 0.0
O215 O 0.0218 0.54257 0.5205 0.0
O216 O 0.02608 0.51498 0.60297 0.0
O217 O 0.99345 0.48663 0.55437 0.0
C218 C 0.05886 0.50482 0.83671 0.0
O219 O 0.0206 0.47759 0.65845 0.0
C220 C 0.97259 0.50862 0.76416 0.0
C221 C 0.00748 0.5656 0.72233 0.0
O222 O 0.0371 0.49389 0.84216 0.0
O223 O 0.05921 0.51993 0.77671 0.0
O224 O 0.98709 0.49625 0.80565 0.0
O225 O 0.98579 0.52282 0.72067 0.0
O226 O 0.02118 0.55046 0.75945 0.0
O227 O 0.99172 0.55881 0.66127 0.0
C228 C 0.94726 0.52411 0.50727 0.0
O229 O 0.9671 0.53717 0.48614 0.0
O230 O 0.95183 0.51132 0.57038 0.0
C231 C 0.0374 0.53128 0.56211 0.0
H232 H 0.1899 0.97385 0.46555 0.0
H233 H 0.21692 0.04779 0.46764 0.0
H234 H 0.18252 0.05854 0.5726 0.0
H235 H 0.12829 0.98521 0.45507 0.0
H236 H 0.11662 0.96128 0.52034 0.0
H237 H 0.14577 0.95908 0.45965 0.0
H238 H 0.16739 0.95208 0.6004 0.0
H239 H 0.1382 0.95432 0.6617 0.0
H240 H 0.16462 0.97333 0.69194 0.0
H241 H 0.1418 0.06157 0.66447 0.0
H242 H 0.09854 0.05688 0.72545 0.0
H243 H 0.098 0.9813 0.65384 0.0
C244 C 0.18883 0.99232 0.48854 0.0
C245 C 0.20613 0.00998 0.45787 0.0
C246 C 0.20412 0.03386 0.49083 0.0
C247 C 0.18457 0.04014 0.55036 0.0
C248 C 0.1673 0.02231 0.57659 0.0
C249 C 0.16937 0.99886 0.54654 0.0
C250 C 0.14718 0.98335 0.57607 0.0
C251 C 0.13368 0.97156 0.49817 0.0
C252 C 0.15482 0.96467 0.63612 0.0
C253 C 0.13181 1.0018 0.62525 0.0
C254 C 0.14384 0.02411 0.62677 0.0
C255 C 0.13241 0.04412 0.66458 0.0
C256 C 0.10788 0.04129 0.69941 0.0
C257 C 0.09499 0.01872 0.6945 0.0
C258 C 0.10743 0.99875 0.6589 0.0
H259 H 0.49066 0.16854 0.28029 0.0
H260 H 0.50712 0.22291 0.48299 0.0
H261 H 0.50206 0.19247 0.59146 0.0
H262 H 0.44636 0.13059 0.41081 0.0
H263 H 0.45794 0.10358 0.35923 0.0
H264 H 0.45854 0.13014 0.30002 0.0
H265 H 0.50581 0.12727 0.26651 0.0
H266 H 0.50537 0.10079 0.32546 0.0
H267 H 0.52597 0.12591 0.35464 0.0
H268 H 0.5002 0.15533 0.67505 0.0
H269 H 0.50229 0.11481 0.72581 0.0
H270 H 0.48892 0.08474 0.46708 0.0
C271 C 0.49291 0.17417 0.34763 0.0
C272 C 0.49933 0.19819 0.37294 0.0
C273 C 0.50186 0.20474 0.46195 0.0
C274 C 0.4991 0.18753 0.52405 0.0
C275 C 0.49363 0.16389 0.49625 0.0
C276 C 0.49041 0.15724 0.41009 0.0
C277 C 0.48692 0.13046 0.3955 0.0
C278 C 0.46089 0.12328 0.36456 0.0
C279 C 0.50723 0.12054 0.3318 0.0
C280 C 0.48969 0.12297 0.48632 0.0
C281 C 0.49305 0.1425 0.54392 0.0
C282 C 0.49727 0.13995 0.63071 0.0
C283 C 0.49845 0.11688 0.65893 0.0
C284 C 0.49573 0.09673 0.60029 0.0
C285 C 0.49089 0.09986 0.51335 0.0
H286 H 0.34728 0.54979 0.36263 0.0
H287 H 0.3021 0.4868 0.42857 0.0
H288 H 0.33143 0.47898 0.53894 0.0
H289 H 0.40453 0.52447 0.3719 0.0
H290 H 0.42031 0.55118 0.4158 0.0
H291 H 0.39417 0.55325 0.35041 0.0
H292 H 0.37232 0.57861 0.47452 0.0
H293 H 0.39845 0.57652 0.54035 0.0
H294 H 0.36775 0.56719 0.58063 0.0
H295 H 0.36822 0.47612 0.63328 0.0
H296 H 0.409 0.47808 0.69897 0.0
H297 H 0.42982 0.54257 0.5677 0.0
C298 C 0.3434 0.53439 0.40048 0.0
C299 C 0.3223 0.51892 0.38664 0.0
C300 C 0.3179 0.49914 0.43857 0.0
C301 C 0.33453 0.49449 0.5013 0.0
C302 C 0.35542 0.50987 0.51181 0.0
C303 C 0.3598 0.52947 0.46284 0.0
C304 C 0.38435 0.54239 0.48201 0.0
C305 C 0.40187 0.54283 0.40018 0.0
C306 C 0.38047 0.56768 0.52176 0.0
C307 C 0.39347 0.52667 0.54777 0.0
C308 C 0.37646 0.50816 0.56517 0.0
C309 C 0.38153 0.49072 0.6208 0.0
C310 C 0.40475 0.49201 0.65804 0.0
C311 C 0.42269 0.5105 0.63889 0.0
C312 C 0.41658 0.52824 0.58434 0.0
H313 H 0.98668 0.33077 0.59242 0.0
H314 H 0.99016 0.32878 0.31232 0.0
H315 H 1.00276 0.37181 0.31744 0.0
H316 H 0.96027 0.38429 0.62987 0.0
H317 H 0.97736 0.39468 0.72272 0.0
H318 H 0.97245 0.36328 0.69723 0.0
H319 H 0.0198 0.35811 0.69197 0.0
H320 H 0.02489 0.38952 0.71884 0.0
H321 H 0.0401 0.37605 0.62299 0.0
H322 H 0.00726 0.41596 0.35455 0.0
H323 H 0.00854 0.4572 0.41989 0.0
H324 H 0.0052 0.43019 0.67615 0.0
C325 C 0.99106 0.33929 0.53233 0.0
C326 C 0.9879 0.32658 0.45187 0.0
C327 C 0.99302 0.33824 0.37431 0.0
C328 C 1.00003 0.36265 0.37679 0.0
C329 C 1.00221 0.37493 0.45739 0.0
C330 C 0.99844 0.36351 0.53379 0.0
C331 C 1.00049 0.38098 0.61193 0.0
C332 C 0.9762 0.38079 0.66872 0.0
C333 C 0.02264 0.37586 0.66453 0.0
C334 C 0.005 0.40416 0.56777 0.0
C335 C 0.00589 0.40029 0.47859 0.0
C336 C 0.00728 0.41915 0.42415 0.0
C337 C 0.00784 0.44248 0.46176 0.0
C338 C 0.00736 0.44677 0.5528 0.0
C339 C 0.00624 0.42735 0.60627 0.0
H340 H 0.84629 0.99629 0.07755 0.0
H341 H 0.80647 0.96325 0.86276 0.0
H342 H 0.8433 0.97103 0.76363 0.0
H343 H 0.88098 0.04293 0.95283 0.0
H344 H 0.90826 0.04129 0.01341 0.0
H345 H 0.87796 0.03519 0.06419 0.0
H346 H 0.89152 0.99409 0.10444 0.0
H347 H 0.92172 0.99996 0.05318 0.0
H348 H 0.90341 0.97359 0.02019 0.0
H349 H 0.88672 0.97719 0.69387 0.0
H350 H 0.93138 0.98535 0.65568 0.0
H351 H 0.9415 0.01676 0.91481 0.0
C352 C 0.84519 0.99126 0.00918 0.0
C353 C 0.82365 0.9793 0.97724 0.0
C354 C 0.82279 0.9727 0.88783 0.0
C355 C 0.84362 0.97695 0.83139 0.0
C356 C 0.86491 0.98821 0.86543 0.0
C357 C 0.86561 0.99572 0.95202 0.0
C358 C 0.89091 0.00661 0.97339 0.0
C359 C 0.88943 0.03308 0.00267 0.0
C360 C 0.90256 0.99273 0.04182 0.0
C361 C 0.90462 1.00344 0.88599 0.0
C362 C 0.8894 0.99271 0.82447 0.0
C363 C 0.89863 0.98611 0.74099 0.0
C364 C 0.92401 0.99069 0.71998 0.0
C365 C 0.93972 1.00204 0.78186 0.0
C366 C 0.92977 0.00863 0.86552 0.0
H367 H 0.55552 0.84146 0.10914 0.0
H368 H 0.5593 0.7875 0.89712 0.0
H369 H 0.54849 0.8171 0.79587 0.0
H370 H 0.50369 0.87139 0.03577 0.0
H371 H 0.51588 0.90053 0.07171 0.0
H372 H 0.5231 0.87485 0.12704 0.0
H373 H 0.57004 0.88578 0.10182 0.0
H374 H 0.56296 0.91142 0.04612 0.0
H375 H 0.58273 0.88962 0.99319 0.0
H376 H 0.53952 0.85346 0.71682 0.0
H377 H 0.53067 0.89293 0.66789 0.0
H378 H 0.53216 0.92263 0.93274 0.0
C379 C 0.55409 0.83585 0.04137 0.0
C380 C 0.55838 0.8122 0.01081 0.0
C381 C 0.55593 0.80548 0.92194 0.0
C382 C 0.54993 0.8222 0.86399 0.0
C383 C 0.54622 0.84548 0.89616 0.0
C384 C 0.54799 0.85223 0.98297 0.0
C385 C 0.54322 0.87832 0.00134 0.0
C386 C 0.5201 0.88144 0.06258 0.0
C387 C 0.5661 0.89209 0.03775 0.0
C388 C 0.53876 0.88533 0.9111 0.0
C389 C 0.54062 0.86618 0.85121 0.0
C390 C 0.53783 0.86852 0.76329 0.0
C391 C 0.53288 0.89098 0.73607 0.0
C392 C 0.53065 0.91071 0.79665 0.0
C393 C 0.53363 0.90779 0.88515 0.0
H394 H 0.67643 0.56249 0.88897 0.0
H395 H 0.68829 0.49477 0.99389 0.0
H396 H 0.65109 0.47707 0.92374 0.0
H397 H 0.61291 0.56078 0.92549 0.0
H398 H 0.60618 0.57421 0.82741 0.0
H399 H 0.63561 0.58076 0.87448 0.0
H400 H 0.65838 0.5669 0.73025 0.0
H401 H 0.62893 0.56058 0.68237 0.0
H402 H 0.6509 0.53768 0.68149 0.0
H403 H 0.60991 0.46821 0.85794 0.0
H404 H 0.56856 0.46845 0.79903 0.0
H405 H 0.5832 0.54213 0.73741 0.0
C406 C 0.67143 0.54383 0.89612 0.0
C407 C 0.68532 0.53 0.94691 0.0
C408 C 0.67818 0.50564 0.95437 0.0
C409 C 0.65701 0.49545 0.91496 0.0
C410 C 0.64335 0.50979 0.86741 0.0
C411 C 0.65044 0.53339 0.85701 0.0
C412 C 0.63167 0.54537 0.80775 0.0
C413 C 0.62096 0.56653 0.86211 0.0
C414 C 0.64316 0.55308 0.72026 0.0
C415 C 0.61233 0.52512 0.79538 0.0
C416 C 0.61961 0.50465 0.82915 0.0
C417 C 0.6042 0.48403 0.83016 0.0
C418 C 0.58066 0.48439 0.79679 0.0
C419 C 0.57261 0.50528 0.76308 0.0
C420 C 0.58891 0.52577 0.7613 0.0
H421 H 0.99414 0.67562 0.06686 0.0
H422 H 0.98704 0.71961 0.8508 0.0
H423 H 0.99717 0.68555 0.74882 0.0
H424 H 0.04524 0.64044 0.96702 0.0
H425 H 0.03298 0.61351 0.014 0.0
H426 H 0.02781 0.64199 0.06969 0.0
H427 H 0.98042 0.63201 0.07493 0.0
H428 H 0.98542 0.60358 0.01919 0.0
H429 H 0.96541 0.62381 0.97559 0.0
H430 H 1.0026 0.64558 0.67119 0.0
H431 H 0.00534 0.60317 0.6229 0.0
H432 H 0.01052 0.58519 0.88892 0.0
C433 C 0.99502 0.67817 -0.00195 0.0
C434 C 0.98977 0.70029 0.96668 0.0
C435 C 0.99125 0.70294 0.87627 0.0
C436 C 0.9969 0.68366 0.81793 0.0
C437 C 1.00138 0.66195 0.85108 0.0
C438 C 1.00082 0.65919 0.93909 0.0
C439 C 0.00511 0.6337 0.95796 0.0
C440 C 0.02922 0.63234 0.00495 0.0
C441 C 0.98276 0.62263 0.00996 0.0
C442 C 0.00744 0.62235 0.86677 0.0
C443 C 0.00529 0.639 0.80611 0.0
C444 C 0.00479 0.6325 0.71798 0.0
C445 C 0.00627 0.60838 0.69121 0.0
C446 C 0.00845 0.59103 0.75213 0.0
C447 C 0.00948 0.59819 0.8409 0.0
H448 H 0.96629 0.15689 0.43731 0.0
H449 H 0.01875 0.19613 0.60047 0.0
H450 H 0.02372 0.15985 0.67865 0.0
H451 H 0.9392 0.11435 0.60476 0.0
H452 H 0.93707 0.09034 0.52256 0.0
H453 H 0.93316 0.12047 0.49533 0.0
H454 H 0.9679 0.11602 0.3743 0.0
H455 H 0.97254 0.08623 0.40244 0.0
H456 H 0.99819 0.10808 0.40171 0.0
H457 H 0.03045 0.11835 0.7124 0.0
H458 H 0.03431 0.07519 0.71583 0.0
H459 H 0.97607 0.0623 0.53483 0.0
C460 C 0.97783 0.15802 0.49251 0.0
C461 C 0.99188 0.17918 0.51437 0.0
C462 C 0.00749 0.18012 0.58458 0.0
C463 C 0.0105 0.15958 0.62868 0.0
C464 C 0.9975 0.13853 0.60197 0.0
C465 C 0.981 0.13772 0.53681 0.0
C466 C 0.97158 0.11244 0.51328 0.0
C467 C 0.94359 0.10921 0.53534 0.0
C468 C 0.97795 0.10529 0.41729 0.0
C469 C 0.98625 0.09897 0.57243 0.0
C470 C 1.00096 0.11439 0.62335 0.0
C471 C 0.01831 0.10616 0.67555 0.0
C472 C 0.02034 0.08159 0.67704 0.0
C473 C 0.00476 0.06545 0.62829 0.0
C474 C 0.98764 0.07427 0.57476 0.0
H475 H 0.37407 0.05436 0.42104 0.0
H476 H 0.32316 1.00163 0.53683 0.0
H477 H 0.35476 0.99299 0.63537 0.0
H478 H 0.41906 0.01923 0.38914 0.0
H479 H 0.44521 0.03968 0.40962 0.0
H480 H 0.41697 0.0506 0.37629 0.0
H481 H 0.41434 0.07962 0.51209 0.0
H482 H 0.44306 0.06925 0.54538 0.0
H483 H 0.41587 0.06847 0.6181 0.0
H484 H 0.3931 0.98005 0.68276 0.0
H485 H 0.43497 0.96664 0.69035 0.0
H486 H 0.46436 0.02405 0.53433 0.0
C487 C 0.36927 0.04167 0.46962 0.0
C488 C 0.34615 0.02844 0.46996 0.0
C489 C 0.34046 0.01226 0.53521 0.0
C490 C 0.3585 0.00708 0.59143 0.0
C491 C 0.38212 0.01817 0.58156 0.0
C492 C 0.38752 0.03555 0.52339 0.0
C493 C 0.41539 0.04088 0.51173 0.0
C494 C 0.42467 0.03736 0.41607 0.0
C495 C 0.42258 0.06606 0.54908 0.0
C496 C 0.42479 0.02222 0.56602 0.0
C497 C 0.40518 0.00996 0.60782 0.0
C498 C 0.40861 0.98998 0.65268 0.0
C499 C 0.43256 0.98232 0.65542 0.0
C500 C 0.45306 0.99452 0.61359 0.0
C501 C 0.44916 0.01489 0.56897 0.0
H502 H 0.53748 0.35327 0.35222 0.0
H503 H 0.47315 0.32441 0.49662 0.0
H504 H 0.4718 0.36172 0.5889 0.0
H505 H 0.56431 0.39328 0.54243 0.0
H506 H 0.57401 0.41593 0.46881 0.0
H507 H 0.5743 0.38493 0.43227 0.0
H508 H 0.54696 0.39343 0.30724 0.0
H509 H 0.54556 0.42414 0.3449 0.0
H510 H 0.5173 0.40604 0.33207 0.0
H511 H 0.46928 0.40437 0.62994 0.0
H512 H 0.47193 0.44797 0.64756 0.0
H513 H 0.53988 0.45022 0.48513 0.0
C514 C 0.52426 0.35431 0.40734 0.0
C515 C 0.50576 0.33591 0.41919 0.0
C516 C 0.48786 0.33808 0.48865 0.0
C517 C 0.48681 0.35933 0.54051 0.0
C518 C 0.50407 0.37795 0.52253 0.0
C519 C 0.52308 0.37541 0.45974 0.0
C520 C 0.53733 0.39902 0.44639 0.0
C521 C 0.56408 0.39824 0.47416 0.0
C522 C 0.53673 0.40605 0.35209 0.0
C523 C 0.52244 0.41548 0.50757 0.0
C524 C 0.50334 0.40286 0.55055 0.0
C525 C 0.48489 0.41429 0.60039 0.0
C526 C 0.48657 0.43912 0.60982 0.0
C527 C 0.50679 0.4524 0.57122 0.0
C528 C 0.52477 0.44043 0.51816 0.0
H529 H 0.17277 0.49558 0.4751 0.0
H530 H 0.18973 0.56767 0.40319 0.0
H531 H 0.1518 0.58054 0.48404 0.0
H532 H 0.11706 0.49095 0.43373 0.0
H533 H 0.10305 0.47475 0.52217 0.0
H534 H 0.13537 0.47251 0.49331 0.0
H535 H 0.14697 0.48665 0.64885 0.0
H536 H 0.1144 0.4881 0.67978 0.0
H537 H 0.13513 0.5138 0.69835 0.0
H538 H 0.10716 0.58208 0.51946 0.0
H539 H 0.0618 0.5737 0.53188 0.0
H540 H 0.07313 0.50112 0.58972 0.0
C541 C 0.16933 0.51435 0.48261 0.0
C542 C 0.18416 0.53077 0.43482 0.0
C543 C 0.17884 0.55505 0.44156 0.0
C544 C 0.15722 0.56244 0.48697 0.0
C545 C 0.14157 0.54539 0.52685 0.0
C546 C 0.14787 0.52194 0.52853 0.0
C547 C 0.12614 0.50638 0.56262 0.0
C548 C 0.12006 0.48493 0.4991 0.0
C549 C 0.13096 0.49825 0.65274 0.0
C550 C 0.10594 0.52399 0.56872 0.0
C551 C 0.11533 0.54656 0.55032 0.0
C552 C 0.09973 0.56479 0.53772 0.0
C553 C 0.07402 0.55982 0.54369 0.0
C554 C 0.06424 0.53686 0.56235 0.0
C555 C 0.08034 0.51896 0.5773 0.0
H556 H 0.96895 0.86214 0.04351 0.0
H557 H 0.01737 0.8276 0.84876 0.0
H558 H 0.02177 0.86461 0.77016 0.0
H559 H 0.94141 0.90587 0.89745 0.0
H560 H 0.94218 0.92871 0.98421 0.0
H561 H 0.93649 0.89795 0.00824 0.0
H562 H 0.97307 0.90212 0.10974 0.0
H563 H 0.97957 0.93252 0.08403 0.0
H564 H 1.00351 0.91147 0.06697 0.0
H565 H 0.02922 0.90709 0.73491 0.0
H566 H 0.03583 0.95073 0.73618 0.0
H567 H 0.98338 0.95853 0.95675 0.0
C568 C 0.97914 0.86202 0.98125 0.0
C569 C 0.99234 0.84196 0.95065 0.0
C570 C 0.00655 0.84256 0.87149 0.0
C571 C 0.00932 0.86362 0.82713 0.0
C572 C 0.99766 0.88375 0.86294 0.0
C573 C 0.98236 0.88297 0.93738 0.0
C574 C 0.97514 0.9077 0.97037 0.0
C575 C 0.94714 0.9102 0.96469 0.0
C576 C 0.98333 0.91379 0.06321 0.0
C577 C 0.98986 0.92268 0.90584 0.0
C578 C 1.00235 0.9085 0.8435 0.0
C579 C 0.01892 0.91829 0.78174 0.0
C580 C 0.02257 0.94311 0.78307 0.0
C581 C 0.0097 0.95795 0.84541 0.0
C582 C 0.99317 0.94758 0.90765 0.0
H583 H 0.68363 0.02419 0.94115 0.0
H584 H 0.67712 0.9473 0.9295 0.0
H585 H 0.63928 0.94784 0.84781 0.0
H586 H 0.62575 0.034 0.98952 0.0
H587 H 0.6218 0.05889 0.92504 0.0
H588 H 0.65209 0.0532 0.95812 0.0
H589 H 0.66957 0.05072 0.79897 0.0
H590 H 0.63954 0.05749 0.76501 0.0
H591 H 0.65412 0.03119 0.71991 0.0
H592 H 0.59726 0.95696 0.80727 0.0
H593 H 0.55775 0.97391 0.78065 0.0
H594 H 0.59137 0.04501 0.81159 0.0
C595 C 0.67516 0.00753 0.91566 0.0
C596 C 0.68349 0.98568 0.93911 0.0
C597 C 0.67138 0.96411 0.90936 0.0
C598 C 0.64973 0.96431 0.86384 0.0
C599 C 0.64085 0.98623 0.84734 0.0
C600 C 0.65367 0.00749 0.86933 0.0
C601 C 0.6387 0.0286 0.85322 0.0
C602 C 0.63434 0.04459 0.93644 0.0
C603 C 0.65123 0.04284 0.7799 0.0
C604 C 0.61482 0.0159 0.82521 0.0
C605 C 0.61653 0.9915 0.82167 0.0
C606 C 0.596 0.97605 0.80717 0.0
C607 C 0.57338 0.98579 0.79381 0.0
C608 C 0.57133 0.01063 0.79421 0.0
C609 C 0.59243 0.02586 0.8099 0.0
H610 H 0.5584 0.64902 0.07915 0.0
H611 H 0.52168 0.69229 0.9097 0.0
H612 H 0.512 0.65633 0.81423 0.0
H613 H 0.58069 0.60255 0.91341 0.0
H614 H 0.57348 0.57911 0.98632 0.0
H615 H 0.58317 0.60852 0.02826 0.0
H616 H 0.54355 0.61011 0.1287 0.0
H617 H 0.53336 0.58085 0.08806 0.0
H618 H 0.51364 0.6054 0.08288 0.0
H619 H 0.49948 0.61493 0.75488 0.0
H620 H 0.48706 0.57229 0.73158 0.0
H621 H 0.52993 0.55601 0.94628 0.0
C622 C 0.54929 0.65104 0.01974 0.0
C623 C 0.54096 0.67336 0.00094 0.0
C624 C 0.52861 0.6754 0.92404 0.0
C625 C 0.52288 0.65503 0.87009 0.0
C626 C 0.52972 0.63294 0.89435 0.0
C627 C 0.54295 0.63093 0.967 0.0
C628 C 0.54505 0.60518 0.98671 0.0
C629 C 0.57223 0.59843 0.97813 0.0
C630 C 0.53319 0.60011 0.07688 0.0
C631 C 0.53023 0.59286 0.91549 0.0
C632 C 0.52187 0.60913 0.86202 0.0
C633 C 0.50638 0.60206 0.79526 0.0
C634 C 0.49939 0.57782 0.78266 0.0
C635 C 0.5078 0.56092 0.83663 0.0
C636 C 0.52341 0.56857 0.90378 0.0
H637 H 0.83827 0.47492 0.96141 0.0
H638 H 0.8154 0.5384 0.85142 0.0
H639 H 0.85402 0.54009 0.75981 0.0
H640 H 0.89412 0.49539 -0.00154 0.0
H641 H 0.91097 0.46889 0.97412 0.0
H642 H 0.8786 0.46641 0.00661 0.0
H643 H 0.86883 0.44091 0.86671 0.0
H644 H 0.90144 0.44232 0.83477 0.0
H645 H 0.87924 0.45153 0.76281 0.0
H646 H 0.89856 0.54294 0.72028 0.0
H647 H 0.94397 0.54206 0.70989 0.0
H648 H 0.93978 0.47669 0.84421 0.0
C649 C 0.84082 0.4883 0.91411 0.0
C650 C 0.82388 0.50651 0.91334 0.0
C651 C 0.82789 0.52406 0.85213 0.0
C652 C 0.84997 0.52529 0.80043 0.0
C653 C 0.86759 0.50864 0.81004 0.0
C654 C 0.86299 0.48998 0.86339 0.0
C655 C 0.88635 0.47685 0.8731 0.0
C656 C 0.89288 0.47692 0.96871 0.0
C657 C 0.88381 0.45139 0.83185 0.0
C658 C 0.90511 0.49202 0.82177 0.0
C659 C 0.89378 0.51008 0.78524 0.0
C660 C 0.90749 0.52829 0.74518 0.0
C661 C 0.93332 0.5277 0.7401 0.0
C662 C 0.94531 0.50884 0.77359 0.0
C663 C 0.93101 0.49088 0.81566 0.0
H664 H 0.043 0.17885 0.25023 0.0
H665 H 0.9802 0.21171 0.15493 0.0
H666 H 0.98126 0.18359 0.02628 0.0
H667 H 0.0731 0.15637 0.03326 0.0
H668 H 0.07997 0.12903 0.07898 0.0
H669 H 0.08 0.15642 0.14576 0.0
H670 H 0.04851 0.13643 0.25426 0.0
H671 H 0.04765 0.10928 0.18708 0.0
H672 H 0.01934 0.12386 0.21703 0.0
H673 H 0.98268 0.14687 0.92802 0.0
H674 H 0.98556 0.106 0.86349 0.0
H675 H 0.04466 0.09416 0.03119 0.0
C676 C 0.03021 0.18083 0.20016 0.0
C677 C 0.01152 0.19752 0.2126 0.0
C678 C 0.99494 0.19942 0.14629 0.0
C679 C 0.99528 0.1833 0.07328 0.0
C680 C 0.01233 0.16548 0.06765 0.0
C681 C 0.02977 0.16436 0.12887 0.0
C682 C 0.04302 0.14125 0.11714 0.0
C683 C 0.07067 0.14606 0.09227 0.0
C684 C 0.03939 0.12687 0.19869 0.0
C685 C 0.02955 0.129 0.04228 0.0
C686 C 0.01234 0.14354 0.01342 0.0
C687 C 0.99639 0.13555 0.94908 0.0
C688 C 0.99804 0.11221 0.91338 0.0
C689 C 0.01528 0.09691 0.94272 0.0
C690 C 0.0314 0.10553 0.00739 0.0
H691 H 0.37349 0.99366 0.20695 0.0
H692 H 0.32754 0.03958 0.0781 0.0
H693 H 0.35706 0.0381 0.94984 0.0
H694 H 0.42998 0.0202 0.14189 0.0
H695 H 0.4465 0.99324 0.12726 0.0
H696 H 0.42015 0.99491 0.20319 0.0
H697 H 0.39902 0.95775 0.12541 0.0
H698 H 0.42546 0.95575 0.04961 0.0
H699 H 0.39486 0.9574 0.0107 0.0
H700 H 0.39389 0.03634 0.84714 0.0
H701 H 0.43422 0.03236 0.76922 0.0
H702 H 0.45661 0.98649 0.96255 0.0
C703 C 0.36944 1.00306 0.15098 0.0
C704 C 0.34836 0.01684 0.152 0.0
C705 C 0.34352 0.02883 0.07795 0.0
C706 C 0.3602 0.02811 0.00522 0.0
C707 C 0.38131 0.01507 0.00771 0.0
C708 C 0.38582 1.00247 0.07814 0.0
C709 C 0.41069 0.99118 0.06693 0.0
C710 C 0.42783 1.00044 0.13908 0.0
C711 C 0.40729 0.9639 0.0629 0.0
C712 C 0.41991 1.00003 0.98009 0.0
C713 C 0.40256 0.01368 0.94722 0.0
C714 C 0.40741 0.02536 0.87146 0.0
C715 C 0.43055 0.02309 0.82808 0.0
C716 C 0.44861 0.00897 0.85961 0.0
C717 C 0.44307 0.99708 0.93629 0.0
H718 H 0.45461 0.35395 0.19673 0.0
H719 H 0.49977 0.30722 0.0284 0.0
H720 H 0.49689 0.33366 0.90964 0.0
H721 H 0.41703 0.37772 0.0235 0.0
H722 H 0.41865 0.40714 0.07635 0.0
H723 H 0.41782 0.38135 0.13977 0.0
H724 H 0.45824 0.39757 0.20962 0.0
H725 H 0.45953 0.42312 0.14564 0.0
H726 H 0.48546 0.40426 0.14108 0.0
H727 H 0.49801 0.36859 0.82276 0.0
H728 H 0.50094 0.40871 0.7692 0.0
H729 H 0.45618 0.43465 0.99277 0.0
C730 C 0.46326 0.34889 0.13406 0.0
C731 C 0.47744 0.32844 0.12209 0.0
C732 C 0.48843 0.32246 0.03908 0.0
C733 C 0.48701 0.3375 0.97118 0.0
C734 C 0.47442 0.35837 0.98715 0.0
C735 C 0.46242 0.36397 0.06623 0.0
C736 C 0.45352 0.3891 0.07097 0.0
C737 C 0.42506 0.3888 0.07803 0.0
C738 C 0.46488 0.4044 0.14624 0.0
C739 C 0.46362 0.39724 0.98397 0.0
C740 C 0.47517 0.37902 0.93619 0.0
C741 C 0.48837 0.38276 0.85823 0.0
C742 C 0.48999 0.40569 0.82851 0.0
C743 C 0.47839 0.42465 0.87617 0.0
C744 C 0.46469 0.42031 0.95422 0.0
H745 H 0.18636 0.53062 0.06962 0.0
H746 H 0.17042 0.46408 0.19131 0.0
H747 H 0.13535 0.45471 0.09716 0.0
H748 H 0.12666 0.54556 0.06323 0.0
H749 H 0.129 0.55864 0.95975 0.0
H750 H 0.15602 0.55817 0.02202 0.0
H751 H 0.17974 0.53594 0.89391 0.0
H752 H 0.15299 0.53731 0.8305 0.0
H753 H 0.1658 0.50905 0.84416 0.0
H754 H 0.09807 0.45605 0.01176 0.0
H755 H 0.06291 0.46593 0.92827 0.0
H756 H 0.10275 0.5313 0.85692 0.0
C757 C 0.17624 0.51355 0.07281 0.0
C758 C 0.18141 0.49768 0.13565 0.0
C759 C 0.16706 0.47605 0.14177 0.0
C760 C 0.14706 0.4707 0.08895 0.0
C761 C 0.14169 0.48715 0.03013 0.0
C762 C 0.15611 0.50795 0.02037 0.0
C763 C 0.14477 0.52365 0.95863 0.0
C764 C 0.13876 0.54793 0.00364 0.0
C765 C 0.16184 0.52665 0.87693 0.0
C766 C 0.12129 0.50886 0.93803 0.0
C767 C 0.11999 0.48783 0.97974 0.0
C768 C 0.09914 0.47218 0.97713 0.0
C769 C 0.07918 0.47803 0.93014 0.0
C770 C 0.0802 0.49928 0.88596 0.0
C771 C 0.10164 0.51479 0.88935 0.0
H772 H 0.98923 0.83151 0.30709 0.0
H773 H 0.06091 0.83888 0.17028 0.0
H774 H 0.07293 0.87253 0.27164 0.0
H775 H 0.9785 0.88809 0.32625 0.0
H776 H 0.96352 0.8899 0.43319 0.0
H777 H 0.96278 0.86209 0.36997 0.0
H778 H 0.98259 0.84129 0.49116 0.0
H779 H 0.98259 0.86886 0.55684 0.0
H780 H 0.01101 0.85385 0.53459 0.0
H781 H 0.07262 0.91096 0.3581 0.0
H782 H 0.06273 0.94825 0.44246 0.0
H783 H 0.99166 0.91594 0.52777 0.0
C784 C 0.00803 0.8392 0.30271 0.0
C785 C 0.02444 0.83237 0.23279 0.0
C786 C 0.04845 0.84356 0.22519 0.0
C787 C 0.05531 0.86279 0.28202 0.0
C788 C 0.03802 0.87036 0.34651 0.0
C789 C 0.0151 0.85848 0.35905 0.0
C790 C 0.9987 0.87213 0.42507 0.0
C791 C 0.97447 0.87842 0.38623 0.0
C792 C 0.99342 0.8582 0.50678 0.0
C793 C 0.01535 0.89414 0.44338 0.0
C794 C 0.03801 0.89269 0.39796 0.0
C795 C 0.05528 0.912 0.39623 0.0
C796 C 0.0494 0.93318 0.4433 0.0
C797 C 0.02653 0.93477 0.49155 0.0
C798 C 0.00943 0.91496 0.49222 0.0
H799 H 0.65804 0.9591 0.23078 0.0
H800 H 0.69864 0.02563 0.29547 0.0
H801 H 0.66713 0.03479 0.41374 0.0
H802 H 0.59968 0.97985 0.25589 0.0
H803 H 0.58464 0.95407 0.3032 0.0
H804 H 0.61203 0.95096 0.23295 0.0
H805 H 0.63388 0.9314 0.35269 0.0
H806 H 0.60634 0.93398 0.423 0.0
H807 H 0.63573 0.94649 0.45843 0.0
H808 H 0.62809 0.03941 0.5068 0.0
H809 H 0.58654 0.0372 0.58193 0.0
H810 H 0.57225 0.96647 0.463 0.0
C811 C 0.66067 0.97516 0.2722 0.0
C812 C 0.68076 0.99158 0.25569 0.0
C813 C 0.68352 0.01273 0.30886 0.0
C814 C 0.66568 0.01807 0.37555 0.0
C815 C 0.64553 1.00187 0.38838 0.0
C816 C 0.64322 0.98057 0.33946 0.0
C817 C 0.6191 0.96688 0.36277 0.0
C818 C 0.60292 0.96271 0.28402 0.0
C819 C 0.62407 0.94329 0.40156 0.0
C820 C 0.60775 0.98415 0.43039 0.0
C821 C 0.62329 0.00425 0.444 0.0
C822 C 0.616 0.02359 0.49792 0.0
C823 C 0.59234 0.02228 0.53949 0.0
C824 C 0.5764 1.0017 0.52765 0.0
C825 C 0.58429 0.98229 0.47331 0.0
H826 H 0.55689 0.68569 0.34748 0.0
H827 H 0.48158 0.69251 0.27661 0.0
H828 H 0.46721 0.66008 0.36964 0.0
H829 H 0.55693 0.62838 0.32727 0.0
H830 H 0.57472 0.62231 0.41756 0.0
H831 H 0.57869 0.65074 0.37129 0.0
H832 H 0.56796 0.67261 0.51939 0.0
H833 H 0.56502 0.64427 0.56779 0.0
H834 H 0.53983 0.66402 0.58022 0.0
H835 H 0.46348 0.62028 0.42779 0.0
H836 H 0.46881 0.58026 0.4781 0.0
H837 H 0.54604 0.5995 0.52082 0.0
C838 C 0.53718 0.68152 0.35729 0.0
C839 C 0.52018 0.69187 0.30715 0.0
C840 C 0.49465 0.68521 0.31688 0.0
C841 C 0.48641 0.66662 0.3688 0.0
C842 C 0.50393 0.65525 0.41159 0.0
C843 C 0.5287 0.663 0.40934 0.0
C844 C 0.54417 0.64576 0.45141 0.0
C845 C 0.56482 0.63625 0.38806 0.0
C846 C 0.55487 0.65736 0.53467 0.0
C847 C 0.5246 0.62637 0.47168 0.0
C848 C 0.5015 0.63225 0.44845 0.0
C849 C 0.48123 0.61584 0.4494 0.0
C850 C 0.48451 0.59307 0.47668 0.0
C851 C 0.50778 0.58705 0.50346 0.0
C852 C 0.52799 0.60395 0.50179 0.0
H853 H 0.85065 0.54717 0.15841 0.0
H854 H 0.79577 0.50559 0.30715 0.0
H855 H 0.82516 0.50473 0.42428 0.0
H856 H 0.90007 0.51553 0.19882 0.0
H857 H 0.92261 0.54029 0.20498 0.0
H858 H 0.89596 0.54176 0.14161 0.0
H859 H 0.88371 0.58056 0.22815 0.0
H860 H 0.91066 0.57955 0.29089 0.0
H861 H 0.88031 0.58116 0.34467 0.0
H862 H 0.86277 0.50298 0.51214 0.0
H863 H 0.90429 0.50294 0.57026 0.0
H864 H 0.93478 0.54579 0.36302 0.0
C865 C 0.84456 0.53862 0.21715 0.0
C866 C 0.82098 0.5266 0.22469 0.0
C867 C 0.81364 0.51519 0.30126 0.0
C868 C 0.83027 0.51453 0.36756 0.0
C869 C 0.85392 0.52557 0.35605 0.0
C870 C 0.86089 0.53774 0.28323 0.0
C871 C 0.888 0.54616 0.28209 0.0
C872 C 0.9025 0.53528 0.20217 0.0
C873 C 0.89083 0.57348 0.28677 0.0
C874 C 0.89552 0.53627 0.36457 0.0
C875 C 0.87557 0.52457 0.40655 0.0
C876 C 0.87835 0.51249 0.48072 0.0
C877 C 0.90204 0.51249 0.51296 0.0
C878 C 0.92264 0.52454 0.47135 0.0
C879 C 0.91927 0.53669 0.39656 0.0
loop_
_geom_bond_atom_site_label_1
_geom_bond_atom_site_label_2
_geom_bond_distance
_geom_bond_site_symmetry_2
_ccdc_geom_bond_type
H0 C1 0.949 1_556 S
C1 H0 0.949 1_554 S
C1 C2 1.395 . S
C1 C3 1.391 . S
C2 C1 1.395 . S
C2 C5 1.390 . S
C3 C1 1.391 . S
C3 C7 1.387 . S
C3 C8 1.491 . S
H4 C5 0.950 . S
C5 C2 1.390 . S
C5 H4 0.950 . S
C5 C6 1.378 . S
C6 C5 1.378 . S
C6 C7 1.409 . S
C7 C3 1.387 . S
C7 C6 1.409 . S
C7 H9 0.951 . S
C8 C3 1.491 . S
C8 C10 1.382 . S
C8 C12 1.404 . S
H9 C7 0.951 . S
C10 C8 1.382 . S
C10 C11 1.390 . S
C10 H15 0.949 1_554 S
C11 C10 1.390 . S
C11 C16 1.399 . S
C12 C8 1.404 . S
C12 H13 0.950 . S
C12 C14 1.375 . S
H13 C12 0.950 . S
C14 C12 1.375 . S
C14 C16 1.382 . S
C14 H18 0.950 . S
H15 C10 0.949 1_556 S
C16 C11 1.399 . S
C16 C14 1.382 . S
C16 H17 0.952 . S
H17 C16 0.952 . S
H18 C14 0.950 . S
H19 C20 0.949 . S
C20 H19 0.949 . S
C20 C21 1.395 . S
C20 C22 1.391 1_556 S
C21 C20 1.395 . S
C21 C24 1.390 1_556 S
C22 C20 1.391 1_554 S
C22 C26 1.387 . S
C22 C27 1.491 . S
H23 C24 0.950 . S
C24 C21 1.390 1_554 S
C24 H23 0.950 . S
C24 C25 1.378 . S
C25 C24 1.378 . S
C25 C26 1.409 . S
C26 C22 1.387 . S
C26 C25 1.409 . S
C26 H28 0.951 . S
C27 C22 1.491 . S
C27 C29 1.382 1_554 S
C27 C31 1.404 . S
H28 C26 0.951 . S
C29 C27 1.382 1_556 S
C29 C30 1.390 . S
C29 H34 0.949 . S
C30 C29 1.390 . S
C30 C35 1.399 1_556 S
C31 C27 1.404 . S
C31 H32 0.950 . S
C31 C33 1.375 . S
H32 C31 0.950 . S
C33 C31 1.375 . S
C33 C35 1.382 . S
C33 H37 0.950 . S
H34 C29 0.949 . S
C35 C30 1.399 1_554 S
C35 C33 1.382 . S
C35 H36 0.952 . S
H36 C35 0.952 . S
H37 C33 0.950 . S
H38 C39 0.949 1_556 S
C39 H38 0.949 1_554 S
C39 C40 1.395 . S
C39 C41 1.391 . S
C40 C39 1.395 . S
C40 C43 1.390 . S
C41 C39 1.391 . S
C41 C45 1.387 . S
C41 C46 1.491 . S
H42 C43 0.950 . S
C43 C40 1.390 . S
C43 H42 0.950 . S
C43 C44 1.378 . S
C44 C43 1.378 . S
C44 C45 1.409 . S
C45 C41 1.387 . S
C45 C44 1.409 . S
C45 H47 0.951 . S
C46 C41 1.491 . S
C46 C48 1.382 . S
C46 C50 1.404 . S
H47 C45 0.951 . S
C48 C46 1.382 . S
C48 C49 1.390 . S
C48 H53 0.949 1_554 S
C49 C48 1.390 . S
C49 C54 1.399 . S
C50 C46 1.404 . S
C50 H51 0.950 . S
C50 C52 1.375 . S
H51 C50 0.950 . S
C52 C50 1.375 . S
C52 C54 1.382 . S
C52 H56 0.950 . S
H53 C48 0.949 1_556 S
C54 C49 1.399 . S
C54 C52 1.382 . S
C54 H55 0.952 . S
H55 C54 0.952 . S
H56 C52 0.950 . S
H57 C58 0.949 1_556 S
C58 H57 0.949 1_554 S
C58 C59 1.395 . S
C58 C60 1.391 . S
C59 C58 1.395 . S
C59 C62 1.390 . S
C60 C58 1.391 . S
C60 C64 1.387 . S
C60 C65 1.491 . S
H61 C62 0.950 . S
C62 C59 1.390 . S
C62 H61 0.950 . S
C62 C63 1.378 . S
C63 C62 1.378 . S
C63 C64 1.409 . S
C64 C60 1.387 . S
C64 C63 1.409 . S
C64 H66 0.951 . S
C65 C60 1.491 . S
C65 C67 1.382 . S
C65 C69 1.404 . S
H66 C64 0.951 . S
C67 C65 1.382 . S
C67 C68 1.390 . S
C67 H72 0.949 . S
C68 C67 1.390 . S
C68 C73 1.399 . S
C69 C65 1.404 . S
C69 H70 0.950 . S
C69 C71 1.375 . S
H70 C69 0.950 . S
C71 C69 1.375 . S
C71 C73 1.382 . S
C71 H75 0.950 . S
H72 C67 0.949 . S
C73 C68 1.399 . S
C73 C71 1.382 . S
C73 H74 0.952 . S
H74 C73 0.952 . S
H75 C71 0.950 . S
H76 C77 0.949 . S
C77 H76 0.949 . S
C77 C78 1.395 . S
C77 C79 1.391 . S
C78 C77 1.395 . S
C78 C81 1.390 . S
C79 C77 1.391 . S
C79 C83 1.387 . S
C79 C84 1.491 . S
H80 C81 0.950 . S
C81 C78 1.390 . S
C81 H80 0.950 . S
C81 C82 1.378 . S
C82 C81 1.378 . S
C82 C83 1.409 . S
C83 C79 1.387 . S
C83 C82 1.409 . S
C83 H85 0.951 . S
C84 C79 1.491 . S
C84 C86 1.382 . S
C84 C88 1.404 . S
H85 C83 0.951 . S
C86 C84 1.382 . S
C86 C87 1.390 . S
C86 H91 0.949 . S
C87 C86 1.390 . S
C87 C92 1.399 . S
C88 C84 1.404 . S
C88 H89 0.950 . S
C88 C90 1.375 . S
H89 C88 0.950 . S
C90 C88 1.375 . S
C90 C92 1.382 . S
C90 H94 0.950 . S
H91 C86 0.949 . S
C92 C87 1.399 . S
C92 C90 1.382 . S
C92 H93 0.952 . S
H93 C92 0.952 . S
H94 C90 0.950 . S
H95 C96 0.949 . S
C96 H95 0.949 . S
C96 C97 1.395 . S
C96 C98 1.391 . S
C97 C96 1.395 . S
C97 C100 1.390 . S
C98 C96 1.391 . S
C98 C102 1.387 . S
C98 C103 1.491 . S
H99 C100 0.950 . S
C100 C97 1.390 . S
C100 H99 0.950 . S
C100 C101 1.378 . S
C101 C100 1.378 . S
C101 C102 1.409 . S
C102 C98 1.387 . S
C102 C101 1.409 . S
C102 H104 0.951 . S
C103 C98 1.491 . S
C103 C105 1.382 . S
C103 C107 1.404 . S
H104 C102 0.951 . S
C105 C103 1.382 . S
C105 C106 1.390 . S
C105 H110 0.949 . S
C106 C105 1.390 . S
C106 C111 1.399 . S
C107 C103 1.404 . S
C107 H108 0.950 . S
C107 C109 1.375 . S
H108 C107 0.950 . S
C109 C107 1.375 . S
C109 C111 1.382 . S
C109 H113 0.950 1_455 S
H110 C105 0.949 . S
C111 C106 1.399 . S
C111 C109 1.382 . S
C111 H112 0.952 . S
H112 C111 0.952 . S
H113 C109 0.950 1_655 S
H114 C115 0.949 . S
C115 H114 0.949 . S
C115 C116 1.395 . S
C115 C117 1.391 . S
C116 C115 1.395 . S
C116 C119 1.390 . S
C117 C115 1.391 . S
C117 C121 1.387 . S
C117 C122 1.491 . S
H118 C119 0.950 . S
C119 C116 1.390 . S
C119 H118 0.950 . S
C119 C120 1.378 . S
C120 C119 1.378 . S
C120 C121 1.409 . S
C121 C117 1.387 . S
C121 C120 1.409 . S
C121 H123 0.951 . S
C122 C117 1.491 . S
C122 C124 1.382 . S
C122 C126 1.404 . S
H123 C121 0.951 . S
C124 C122 1.382 . S
C124 C125 1.390 . S
C124 H129 0.949 . S
C125 C124 1.390 . S
C125 C130 1.399 . S
C126 C122 1.404 . S
C126 H127 0.950 . S
C126 C128 1.375 . S
H127 C126 0.950 . S
C128 C126 1.375 . S
C128 C130 1.382 . S
C128 H132 0.950 . S
H129 C124 0.949 . S
C130 C125 1.399 . S
C130 C128 1.382 . S
C130 H131 0.952 . S
H131 C130 0.952 . S
H132 C128 0.950 . S
H133 C134 0.949 . S
C134 H133 0.949 . S
C134 C135 1.395 . S
C134 C136 1.391 . S
C135 C134 1.395 . S
C135 C138 1.390 . S
C136 C134 1.391 . S
C136 C140 1.387 . S
C136 C141 1.491 . S
H137 C138 0.950 . S
C138 C135 1.390 . S
C138 H137 0.950 . S
C138 C139 1.378 . S
C139 C138 1.378 . S
C139 C140 1.409 . S
C140 C136 1.387 . S
C140 C139 1.409 . S
C140 H142 0.951 . S
C141 C136 1.491 . S
C141 C143 1.382 . S
C141 C145 1.404 . S
H142 C140 0.951 . S
C143 C141 1.382 . S
C143 C144 1.390 . S
C143 H148 0.949 . S
C144 C143 1.390 . S
C144 C149 1.399 . S
C145 C141 1.404 . S
C145 H146 0.950 . S
C145 C147 1.375 . S
H146 C145 0.950 . S
C147 C145 1.375 . S
C147 C149 1.382 . S
C147 H151 0.950 . S
H148 C143 0.949 . S
C149 C144 1.399 . S
C149 C147 1.382 . S
C149 H150 0.952 . S
H150 C149 0.952 . S
H151 C147 0.950 . S
Tb152 O155 2.453 1_565 S
Tb152 O156 2.596 1_665 S
Tb152 O157 2.374 1_665 S
Tb152 O165 2.343 1_655 S
Tb152 O167 2.353 1_565 S
Tb152 O169 2.427 . S
Tb152 O170 2.513 1_655 S
C153 O157 1.251 . S
C153 O159 1.263 . S
Tb154 O156 2.343 . S
Tb154 O159 2.353 . S
Tb154 O162 2.427 . S
Tb154 O163 2.513 1_455 S
Tb154 O164 2.453 1_545 S
Tb154 O165 2.596 1_545 S
Tb154 O166 2.374 1_455 S
O155 Tb152 2.453 1_545 S
O155 C171 1.245 1_655 S
O156 Tb152 2.596 1_445 S
O156 Tb154 2.343 . S
O156 C171 1.259 . S
O157 Tb152 2.374 1_445 S
O157 C153 1.251 . S
C158 O162 1.275 . S
C158 O163 1.246 1_455 S
O159 C153 1.263 . S
O159 Tb154 2.353 . S
C160 O164 1.245 . S
C160 O165 1.259 . S
C161 O166 1.250 . S
C161 O167 1.263 . S
O162 Tb154 2.427 . S
O162 C158 1.275 . S
O163 Tb154 2.513 1_655 S
O163 C158 1.246 1_655 S
O164 Tb154 2.453 1_565 S
O164 C160 1.245 . S
O165 Tb152 2.343 1_455 S
O165 Tb154 2.596 1_565 S
O165 C160 1.259 . S
O166 Tb154 2.374 1_655 S
O166 C161 1.250 . S
O167 Tb152 2.353 1_545 S
O167 C161 1.263 . S
C168 O169 1.275 . S
C168 O170 1.246 1_655 S
O169 Tb152 2.427 . S
O169 C168 1.275 . S
O170 Tb152 2.513 1_455 S
O170 C168 1.246 1_455 S
C171 O155 1.245 1_455 S
C171 O156 1.259 . S
Tb172 O175 2.453 . S
Tb172 O176 2.596 1_545 S
Tb172 O177 2.374 . S
Tb172 O185 2.343 . S
Tb172 O187 2.353 . S
Tb172 O189 2.427 . S
Tb172 O190 2.513 . S
C173 O177 1.251 1_565 S
C173 O179 1.263 . S
Tb174 O176 2.343 . S
Tb174 O179 2.353 . S
Tb174 O182 2.427 . S
Tb174 O183 2.513 . S
Tb174 O184 2.453 . S
Tb174 O185 2.596 1_565 S
Tb174 O186 2.374 . S
O175 Tb172 2.453 . S
O175 C191 1.245 . S
O176 Tb172 2.596 1_565 S
O176 Tb174 2.343 . S
O176 C191 1.259 1_565 S
O177 Tb172 2.374 . S
O177 C173 1.251 1_545 S
C178 O182 1.275 . S
C178 O183 1.246 . S
O179 C173 1.263 . S
O179 Tb174 2.353 . S
C180 O184 1.245 1_545 S
C180 O185 1.259 . S
C181 O186 1.250 1_545 S
C181 O187 1.263 . S
O182 Tb174 2.427 . S
O182 C178 1.275 . S
O183 Tb174 2.513 . S
O183 C178 1.246 . S
O184 Tb174 2.453 . S
O184 C180 1.245 1_565 S
O185 Tb172 2.343 . S
O185 Tb174 2.596 1_545 S
O185 C180 1.259 . S
O186 Tb174 2.374 . S
O186 C181 1.250 1_565 S
O187 Tb172 2.353 . S
O187 C181 1.263 . S
C188 O189 1.275 . S
C188 O190 1.246 . S
O189 Tb172 2.427 . S
O189 C188 1.275 . S
O190 Tb172 2.513 . S
O190 C188 1.246 . S
C191 O175 1.245 . S
C191 O176 1.259 1_545 S
Tb192 O195 2.453 . S
Tb192 O196 2.596 . S
Tb192 O197 2.374 . S
Tb192 O205 2.343 . S
Tb192 O207 2.353 . S
Tb192 O209 2.427 . S
Tb192 O210 2.513 . S
C193 O197 1.251 . S
C193 O199 1.263 . S
Tb194 O196 2.343 . S
Tb194 O199 2.353 . S
Tb194 O202 2.427 . S
Tb194 O203 2.513 . S
Tb194 O204 2.453 . S
Tb194 O205 2.596 . S
Tb194 O206 2.374 . S
O195 Tb192 2.453 . S
O195 C211 1.245 . S
O196 Tb192 2.596 . S
O196 Tb194 2.343 . S
O196 C211 1.259 . S
O197 Tb192 2.374 . S
O197 C193 1.251 . S
C198 O202 1.275 . S
C198 O203 1.246 . S
O199 C193 1.263 . S
O199 Tb194 2.353 . S
C200 O204 1.245 . S
C200 O205 1.259 . S
C201 O206 1.250 . S
C201 O207 1.263 . S
O202 Tb194 2.427 . S
O202 C198 1.275 . S
O203 Tb194 2.513 . S
O203 C198 1.246 . S
O204 Tb194 2.453 . S
O204 C200 1.245 . S
O205 Tb192 2.343 . S
O205 Tb194 2.596 . S
O205 C200 1.259 . S
O206 Tb194 2.374 . S
O206 C201 1.250 . S
O207 Tb192 2.353 . S
O207 C201 1.263 . S
C208 O209 1.275 . S
C208 O210 1.246 . S
O209 Tb192 2.427 . S
O209 C208 1.275 . S
O210 Tb192 2.513 . S
O210 C208 1.246 . S
C211 O195 1.245 . S
C211 O196 1.259 . S
Tb212 O215 2.453 1_655 S
Tb212 O216 2.596 1_655 S
Tb212 O217 2.372 1_655 S
Tb212 O225 2.343 . S
Tb212 O227 2.353 1_655 S
Tb212 O229 2.427 . S
Tb212 O230 2.513 . S
C213 O217 1.257 . S
C213 O219 1.263 . S
Tb214 O216 2.343 . S
Tb214 O219 2.353 . S
Tb214 O222 2.427 . S
Tb214 O223 2.513 . S
Tb214 O224 2.453 1_455 S
Tb214 O225 2.596 1_455 S
Tb214 O226 2.374 . S
O215 Tb212 2.453 1_455 S
O215 C231 1.245 . S
O216 Tb212 2.596 1_455 S
O216 Tb214 2.343 . S
O216 C231 1.259 . S
O217 Tb212 2.372 1_455 S
O217 C213 1.257 . S
C218 O222 1.275 . S
C218 O223 1.246 . S
O219 C213 1.263 . S
O219 Tb214 2.353 . S
C220 O224 1.245 . S
C220 O225 1.259 . S
C221 O226 1.250 . S
C221 O227 1.263 . S
O222 Tb214 2.427 . S
O222 C218 1.275 . S
O223 Tb214 2.513 . S
O223 C218 1.246 . S
O224 Tb214 2.453 1_655 S
O224 C220 1.245 . S
O225 Tb212 2.343 . S
O225 Tb214 2.596 1_655 S
O225 C220 1.259 . S
O226 Tb214 2.374 . S
O226 C221 1.250 . S
O227 Tb212 2.353 1_455 S
O227 C221 1.263 . S
C228 O229 1.275 . S
C228 O230 1.246 . S
O229 Tb212 2.427 . S
O229 C228 1.275 . S
O230 Tb212 2.513 . S
O230 C228 1.246 . S
C231 O215 1.245 . S
C231 O216 1.259 . S
H232 C244 0.930 . S
H233 C246 0.930 . S
H234 C247 0.930 . S
H235 C251 0.959 . S
H236 C251 0.959 . S
H237 C251 0.961 . S
H238 C252 0.960 . S
H239 C252 0.961 . S
H240 C252 0.959 . S
H241 C255 0.929 . S
H242 C256 0.931 . S
H243 C258 0.947 . S
C244 H232 0.930 . S
C244 C245 1.399 . S
C244 C249 1.399 . S
C245 C244 1.399 . S
C245 C246 1.376 . S
C246 H233 0.930 . S
C246 C245 1.376 . S
C246 C247 1.388 . S
C247 H234 0.930 . S
C247 C246 1.388 . S
C247 C248 1.390 . S
C248 C247 1.390 . S
C248 C249 1.394 . S
C248 C254 1.465 . S
C249 C244 1.399 . S
C249 C248 1.394 . S
C249 C250 1.516 . S
C250 C249 1.516 . S
C250 C251 1.502 . S
C250 C252 1.561 1_545 S
C250 C253 1.526 . S
C251 H235 0.959 . S
C251 H236 0.959 . S
C251 H237 0.961 . S
C251 C250 1.502 . S
C252 H238 0.960 . S
C252 H239 0.961 . S
C252 H240 0.959 . S
C252 C250 1.561 1_565 S
C253 C250 1.526 . S
C253 C254 1.396 . S
C253 C258 1.390 . S
C254 C248 1.465 . S
C254 C253 1.396 . S
C254 C255 1.399 . S
C255 H241 0.929 . S
C255 C254 1.399 . S
C255 C256 1.385 . S
C256 H242 0.931 . S
C256 C255 1.385 . S
C256 C257 1.389 . S
C257 C256 1.389 . S
C257 C258 1.387 . S
C258 H243 0.947 . S
C258 C253 1.390 . S
C258 C257 1.387 . S
H259 C271 0.930 . S
H260 C273 0.930 . S
H261 C274 0.930 . S
H262 C278 0.959 . S
H263 C278 0.959 . S
H264 C278 0.961 . S
H265 C279 0.960 . S
H266 C279 0.961 . S
H267 C279 0.959 . S
H268 C282 0.929 . S
H269 C283 0.931 . S
H270 C285 0.930 . S
C271 H259 0.930 . S
C271 C272 1.399 . S
C271 C276 1.399 . S
C272 C271 1.399 . S
C272 C273 1.376 . S
C273 H260 0.930 . S
C273 C272 1.376 . S
C273 C274 1.388 . S
C274 H261 0.930 . S
C274 C273 1.388 . S
C274 C275 1.390 . S
C275 C274 1.390 . S
C275 C276 1.394 . S
C275 C281 1.465 . S
C276 C271 1.399 . S
C276 C275 1.394 . S
C276 C277 1.516 . S
C277 C276 1.516 . S
C277 C278 1.502 . S
C277 C279 1.561 . S
C277 C280 1.526 . S
C278 H262 0.959 . S
C278 H263 0.959 . S
C278 H264 0.961 . S
C278 C277 1.502 . S
C279 H265 0.960 . S
C279 H266 0.961 . S
C279 H267 0.959 . S
C279 C277 1.561 . S
C280 C277 1.526 . S
C280 C281 1.396 . S
C280 C285 1.390 . S
C281 C275 1.465 . S
C281 C280 1.396 . S
C281 C282 1.399 . S
C282 H268 0.929 . S
C282 C281 1.399 . S
C282 C283 1.385 . S
C283 H269 0.931 . S
C283 C282 1.385 . S
C283 C284 1.389 . S
C284 C283 1.389 . S
C284 C285 1.387 . S
C285 H270 0.930 . S
C285 C280 1.390 . S
C285 C284 1.387 . S
H286 C298 0.930 . S
H287 C300 0.930 . S
H288 C301 0.930 . S
H289 C305 0.959 . S
H290 C305 0.959 . S
H291 C305 0.961 . S
H292 C306 0.960 . S
H293 C306 0.961 . S
H294 C306 0.959 . S
H295 C309 0.929 . S
H296 C310 0.931 . S
H297 C312 0.930 . S
C298 H286 0.930 . S
C298 C299 1.399 . S
C298 C303 1.399 . S
C299 C298 1.399 . S
C299 C300 1.376 . S
C300 H287 0.930 . S
C300 C299 1.376 . S
C300 C301 1.388 . S
C301 H288 0.930 . S
C301 C300 1.388 . S
C301 C302 1.390 . S
C302 C301 1.390 . S
C302 C303 1.394 . S
C302 C308 1.465 . S
C303 C298 1.399 . S
C303 C302 1.394 . S
C303 C304 1.516 . S
C304 C303 1.516 . S
C304 C305 1.502 . S
C304 C306 1.561 . S
C304 C307 1.526 . S
C305 H289 0.959 . S
C305 H290 0.959 . S
C305 H291 0.961 . S
C305 C304 1.502 . S
C306 H292 0.960 . S
C306 H293 0.961 . S
C306 H294 0.959 . S
C306 C304 1.561 . S
C307 C304 1.526 . S
C307 C308 1.396 . S
C307 C312 1.390 . S
C308 C302 1.465 . S
C308 C307 1.396 . S
C308 C309 1.399 . S
C309 H295 0.929 . S
C309 C308 1.399 . S
C309 C310 1.385 . S
C310 H296 0.931 . S
C310 C309 1.385 . S
C310 C311 1.389 . S
C311 C310 1.389 . S
C311 C312 1.387 . S
C312 H297 0.930 . S
C312 C307 1.390 . S
C312 C311 1.387 . S
H313 C325 0.930 . S
H314 C327 0.930 . S
H315 C328 0.930 . S
H316 C332 0.959 . S
H317 C332 0.959 . S
H318 C332 0.961 . S
H319 C333 0.960 . S
H320 C333 0.961 . S
H321 C333 0.959 . S
H322 C336 0.929 . S
H323 C337 0.931 . S
H324 C339 0.930 1_655 S
C325 H313 0.930 . S
C325 C326 1.399 . S
C325 C330 1.399 . S
C326 C325 1.399 . S
C326 C327 1.376 . S
C327 H314 0.930 . S
C327 C326 1.376 . S
C327 C328 1.388 . S
C328 H315 0.930 . S
C328 C327 1.388 . S
C328 C329 1.390 . S
C329 C328 1.390 . S
C329 C330 1.394 . S
C329 C335 1.465 . S
C330 C325 1.399 . S
C330 C329 1.394 . S
C330 C331 1.516 . S
C331 C330 1.516 . S
C331 C332 1.502 1_455 S
C331 C333 1.561 . S
C331 C334 1.526 . S
C332 H316 0.959 . S
C332 H317 0.959 . S
C332 H318 0.961 . S
C332 C331 1.502 1_655 S
C333 H319 0.960 . S
C333 H320 0.961 . S
C333 H321 0.959 . S
C333 C331 1.561 . S
C334 C331 1.526 . S
C334 C335 1.396 . S
C334 C339 1.390 . S
C335 C329 1.465 . S
C335 C334 1.396 . S
C335 C336 1.399 . S
C336 H322 0.929 . S
C336 C335 1.399 . S
C336 C337 1.385 . S
C337 H323 0.931 . S
C337 C336 1.385 . S
C337 C338 1.389 . S
C338 C337 1.389 . S
C338 C339 1.387 . S
C339 H324 0.930 1_455 S
C339 C334 1.390 . S
C339 C338 1.387 . S
H340 C352 0.930 . S
H341 C354 0.930 . S
H342 C355 0.930 . S
H343 C359 0.959 . S
H344 C359 0.959 . S
H345 C359 0.961 . S
H346 C360 0.960 . S
H347 C360 0.961 . S
H348 C360 0.943 1_565 S
H349 C363 0.929 . S
H350 C364 0.931 . S
H351 C366 0.930 . S
C352 H340 0.930 . S
C352 C353 1.399 . S
C352 C357 1.399 . S
C353 C352 1.399 . S
C353 C354 1.376 . S
C354 H341 0.930 . S
C354 C353 1.376 . S
C354 C355 1.388 . S
C355 H342 0.930 . S
C355 C354 1.388 . S
C355 C356 1.390 . S
C356 C355 1.390 . S
C356 C357 1.394 . S
C356 C362 1.465 . S
C357 C352 1.399 . S
C357 C356 1.394 . S
C357 C358 1.516 1_565 S
C358 C357 1.516 1_545 S
C358 C359 1.502 . S
C358 C360 1.561 1_556 S
C358 C361 1.526 1_545 S
C359 H343 0.959 . S
C359 H344 0.959 . S
C359 H345 0.961 . S
C359 C358 1.502 . S
C360 H346 0.960 . S
C360 H347 0.961 . S
C360 H348 0.943 1_545 S
C360 C358 1.561 1_554 S
C361 C358 1.526 1_565 S
C361 C362 1.396 . S
C361 C366 1.390 1_565 S
C362 C356 1.465 . S
C362 C361 1.396 . S
C362 C363 1.399 . S
C363 H349 0.929 . S
C363 C362 1.399 . S
C363 C364 1.385 . S
C364 H350 0.931 . S
C364 C363 1.385 . S
C364 C365 1.389 . S
C365 C364 1.389 . S
C365 C366 1.387 1_565 S
C366 H351 0.930 . S
C366 C361 1.390 1_545 S
C366 C365 1.387 1_545 S
H367 C379 0.930 . S
H368 C381 0.930 . S
H369 C382 0.930 . S
H370 C386 0.959 1_556 S
H371 C386 0.959 . S
H372 C386 0.961 . S
H373 C387 0.960 . S
H374 C387 0.961 . S
H375 C387 0.959 . S
H376 C390 0.929 . S
H377 C391 0.931 . S
H378 C393 0.930 . S
C379 H367 0.930 . S
C379 C380 1.399 1_554 S
C379 C384 1.399 1_554 S
C380 C379 1.399 1_556 S
C380 C381 1.376 . S
C381 H368 0.930 . S
C381 C380 1.376 . S
C381 C382 1.388 . S
C382 H369 0.930 . S
C382 C381 1.388 . S
C382 C383 1.390 . S
C383 C382 1.390 . S
C383 C384 1.394 . S
C383 C389 1.465 . S
C384 C379 1.399 1_556 S
C384 C383 1.394 . S
C384 C385 1.516 . S
C385 C384 1.516 . S
C385 C386 1.502 1_556 S
C385 C387 1.561 1_556 S
C385 C388 1.526 . S
C386 H370 0.959 1_554 S
C386 H371 0.959 . S
C386 H372 0.961 . S
C386 C385 1.502 1_554 S
C387 H373 0.960 . S
C387 H374 0.961 . S
C387 H375 0.959 . S
C387 C385 1.561 1_554 S
C388 C385 1.526 . S
C388 C389 1.396 . S
C388 C393 1.390 . S
C389 C383 1.465 . S
C389 C388 1.396 . S
C389 C390 1.399 . S
C390 H376 0.929 . S
C390 C389 1.399 . S
C390 C391 1.385 . S
C391 H377 0.931 . S
C391 C390 1.385 . S
C391 C392 1.389 . S
C392 C391 1.389 . S
C392 C393 1.387 . S
C393 H378 0.930 . S
C393 C388 1.390 . S
C393 C392 1.387 . S
H394 C406 0.930 . S
H395 C408 0.930 . S
H396 C409 0.930 . S
H397 C413 0.959 . S
H398 C413 0.959 . S
H399 C413 0.961 . S
H400 C414 0.960 . S
H401 C414 0.961 . S
H402 C414 0.959 . S
H403 C417 0.929 . S
H404 C418 0.931 . S
H405 C420 0.930 . S
C406 H394 0.930 . S
C406 C407 1.399 . S
C406 C411 1.399 . S
C407 C406 1.399 . S
C407 C408 1.376 . S
C408 H395 0.930 . S
C408 C407 1.376 . S
C408 C409 1.388 . S
C409 H396 0.930 . S
C409 C408 1.388 . S
C409 C410 1.390 . S
C410 C409 1.390 . S
C410 C411 1.394 . S
C410 C416 1.465 . S
C411 C406 1.399 . S
C411 C410 1.394 . S
C411 C412 1.516 . S
C412 C411 1.516 . S
C412 C413 1.502 . S
C412 C414 1.561 . S
C412 C415 1.526 . S
C413 H397 0.959 . S
C413 H398 0.959 . S
C413 H399 0.961 . S
C413 C412 1.502 . S
C414 H400 0.960 . S
C414 H401 0.961 . S
C414 H402 0.959 . S
C414 C412 1.561 . S
C415 C412 1.526 . S
C415 C416 1.396 . S
C415 C420 1.390 . S
C416 C410 1.465 . S
C416 C415 1.396 . S
C416 C417 1.399 . S
C417 H403 0.929 . S
C417 C416 1.399 . S
C417 C418 1.385 . S
C418 H404 0.931 . S
C418 C417 1.385 . S
C418 C419 1.389 . S
C419 C418 1.389 . S
C419 C420 1.387 . S
C420 H405 0.930 . S
C420 C415 1.390 . S
C420 C419 1.387 . S
H421 C433 0.930 1_554 S
H422 C435 0.930 . S
H423 C436 0.930 . S
H424 C440 0.959 1_456 S
H425 C440 0.959 . S
H426 C440 0.961 . S
H427 C441 0.960 1_554 S
H428 C441 0.961 . S
H429 C441 0.959 . S
H430 C444 0.929 . S
H431 C445 0.931 1_455 S
H432 C447 0.930 . S
C433 H421 0.930 1_556 S
C433 C434 1.399 . S
C433 C438 1.399 . S
C434 C433 1.399 . S
C434 C435 1.376 . S
C435 H422 0.930 . S
C435 C434 1.376 . S
C435 C436 1.388 . S
C436 H423 0.930 . S
C436 C435 1.388 . S
C436 C437 1.390 . S
C437 C436 1.390 . S
C437 C438 1.394 . S
C437 C443 1.465 . S
C438 C433 1.399 . S
C438 C437 1.394 . S
C438 C439 1.516 . S
C439 C438 1.516 . S
C439 C440 1.502 1_556 S
C439 C441 1.561 . S
C439 C442 1.526 . S
C440 H424 0.959 1_654 S
C440 H425 0.959 . S
C440 H426 0.961 . S
C440 C439 1.502 1_554 S
C441 H427 0.960 1_556 S
C441 H428 0.961 . S
C441 H429 0.959 . S
C441 C439 1.561 . S
C442 C439 1.526 . S
C442 C443 1.396 . S
C442 C447 1.390 . S
C443 C437 1.465 . S
C443 C442 1.396 . S
C443 C444 1.399 . S
C444 H430 0.929 . S
C444 C443 1.399 . S
C444 C445 1.385 . S
C445 H431 0.931 1_655 S
C445 C444 1.385 . S
C445 C446 1.389 . S
C446 C445 1.389 . S
C446 C447 1.387 . S
C447 H432 0.930 . S
C447 C442 1.390 . S
C447 C446 1.387 . S
H448 C460 0.930 . S
H449 C462 0.930 . S
H450 C463 0.930 . S
H451 C467 0.959 . S
H452 C467 0.959 . S
H453 C467 0.961 . S
H454 C468 0.960 . S
H455 C468 0.961 . S
H456 C468 0.959 . S
H457 C471 0.929 . S
H458 C472 0.931 . S
H459 C474 0.930 . S
C460 H448 0.930 . S
C460 C461 1.399 . S
C460 C465 1.399 . S
C461 C460 1.399 . S
C461 C462 1.376 . S
C462 H449 0.930 . S
C462 C461 1.376 . S
C462 C463 1.388 . S
C463 H450 0.930 . S
C463 C462 1.388 . S
C463 C464 1.390 . S
C464 C463 1.390 . S
C464 C465 1.394 . S
C464 C470 1.465 . S
C465 C460 1.399 . S
C465 C464 1.394 . S
C465 C466 1.516 . S
C466 C465 1.516 . S
C466 C467 1.502 . S
C466 C468 1.561 1_455 S
C466 C469 1.526 . S
C467 H451 0.959 . S
C467 H452 0.959 . S
C467 H453 0.961 . S
C467 C466 1.502 . S
C468 H454 0.960 . S
C468 H455 0.961 . S
C468 H456 0.959 . S
C468 C466 1.561 1_655 S
C469 C466 1.526 . S
C469 C470 1.396 . S
C469 C474 1.390 . S
C470 C464 1.465 . S
C470 C469 1.396 . S
C470 C471 1.399 . S
C471 H457 0.929 . S
C471 C470 1.399 . S
C471 C472 1.385 . S
C472 H458 0.931 . S
C472 C471 1.385 . S
C472 C473 1.389 . S
C473 C472 1.389 . S
C473 C474 1.387 . S
C474 H459 0.930 . S
C474 C469 1.390 . S
C474 C473 1.387 . S
H475 C487 0.930 . S
H476 C489 0.930 . S
H477 C490 0.930 . S
H478 C494 0.959 . S
H479 C494 0.959 . S
H480 C494 0.961 . S
H481 C495 0.960 . S
H482 C495 0.961 . S
H483 C495 0.959 . S
H484 C498 0.929 . S
H485 C499 0.931 . S
H486 C501 0.930 . S
C487 H475 0.930 . S
C487 C488 1.399 . S
C487 C492 1.399 . S
C488 C487 1.399 . S
C488 C489 1.376 . S
C489 H476 0.930 . S
C489 C488 1.376 . S
C489 C490 1.388 . S
C490 H477 0.930 . S
C490 C489 1.388 . S
C490 C491 1.390 . S
C491 C490 1.390 . S
C491 C492 1.394 . S
C491 C497 1.465 . S
C492 C487 1.399 . S
C492 C491 1.394 . S
C492 C493 1.516 . S
C493 C492 1.516 . S
C493 C494 1.502 . S
C493 C495 1.561 . S
C493 C496 1.526 . S
C494 H478 0.959 . S
C494 H479 0.959 . S
C494 H480 0.961 . S
C494 C493 1.502 . S
C495 H481 0.960 . S
C495 H482 0.961 . S
C495 H483 0.959 . S
C495 C493 1.561 . S
C496 C493 1.526 . S
C496 C497 1.396 . S
C496 C501 1.390 . S
C497 C491 1.465 . S
C497 C496 1.396 . S
C497 C498 1.399 . S
C498 H484 0.929 . S
C498 C497 1.399 . S
C498 C499 1.385 . S
C499 H485 0.931 . S
C499 C498 1.385 . S
C499 C500 1.389 . S
C500 C499 1.389 . S
C500 C501 1.387 . S
C501 H486 0.930 . S
C501 C496 1.390 . S
C501 C500 1.387 . S
H502 C514 0.930 . S
H503 C516 0.930 . S
H504 C517 0.930 . S
H505 C521 0.959 . S
H506 C521 0.959 . S
H507 C521 0.961 . S
H508 C522 0.960 . S
H509 C522 0.961 . S
H510 C522 0.959 . S
H511 C525 0.929 . S
H512 C526 0.931 . S
H513 C528 0.930 . S
C514 H502 0.930 . S
C514 C515 1.399 . S
C514 C519 1.399 . S
C515 C514 1.399 . S
C515 C516 1.376 . S
C516 H503 0.930 . S
C516 C515 1.376 . S
C516 C517 1.388 . S
C517 H504 0.930 . S
C517 C516 1.388 . S
C517 C518 1.390 . S
C518 C517 1.390 . S
C518 C519 1.394 . S
C518 C524 1.465 . S
C519 C514 1.399 . S
C519 C518 1.394 . S
C519 C520 1.516 . S
C520 C519 1.516 . S
C520 C521 1.502 . S
C520 C522 1.561 . S
C520 C523 1.526 . S
C521 H505 0.959 . S
C521 H506 0.959 . S
C521 H507 0.961 . S
C521 C520 1.502 . S
C522 H508 0.960 . S
C522 H509 0.961 . S
C522 H510 0.959 . S
C522 C520 1.561 . S
C523 C520 1.526 . S
C523 C524 1.396 . S
C523 C528 1.390 . S
C524 C518 1.465 . S
C524 C523 1.396 . S
C524 C525 1.399 . S
C525 H511 0.929 . S
C525 C524 1.399 . S
C525 C526 1.385 . S
C526 H512 0.931 . S
C526 C525 1.385 . S
C526 C527 1.389 . S
C527 C526 1.389 . S
C527 C528 1.387 . S
C528 H513 0.930 . S
C528 C523 1.390 . S
C528 C527 1.387 . S
H529 C541 0.930 . S
H530 C543 0.930 . S
H531 C544 0.930 . S
H532 C548 0.959 . S
H533 C548 0.959 . S
H534 C548 0.961 . S
H535 C549 0.960 . S
H536 C549 0.961 . S
H537 C549 0.959 . S
H538 C552 0.929 . S
H539 C553 0.931 . S
H540 C555 0.930 . S
C541 H529 0.930 . S
C541 C542 1.399 . S
C541 C546 1.399 . S
C542 C541 1.399 . S
C542 C543 1.376 . S
C543 H530 0.930 . S
C543 C542 1.376 . S
C543 C544 1.388 . S
C544 H531 0.930 . S
C544 C543 1.388 . S
C544 C545 1.390 . S
C545 C544 1.390 . S
C545 C546 1.394 . S
C545 C551 1.465 . S
C546 C541 1.399 . S
C546 C545 1.394 . S
C546 C547 1.516 . S
C547 C546 1.516 . S
C547 C548 1.502 . S
C547 C549 1.561 . S
C547 C550 1.526 . S
C548 H532 0.959 . S
C548 H533 0.959 . S
C548 H534 0.961 . S
C548 C547 1.502 . S
C549 H535 0.960 . S
C549 H536 0.961 . S
C549 H537 0.959 . S
C549 C547 1.561 . S
C550 C547 1.526 . S
C550 C551 1.396 . S
C550 C555 1.390 . S
C551 C545 1.465 . S
C551 C550 1.396 . S
C551 C552 1.399 . S
C552 H538 0.929 . S
C552 C551 1.399 . S
C552 C553 1.385 . S
C553 H539 0.931 . S
C553 C552 1.385 . S
C553 C554 1.389 . S
C554 C553 1.389 . S
C554 C555 1.387 . S
C555 H540 0.930 . S
C555 C550 1.390 . S
C555 C554 1.387 . S
H556 C568 0.930 . S
H557 C570 0.930 . S
H558 C571 0.921 1_455 S
H559 C575 0.959 . S
H560 C575 0.959 . S
H561 C575 0.961 1_554 S
H562 C576 0.960 . S
H563 C576 0.961 . S
H564 C576 0.959 1_456 S
H565 C579 0.929 . S
H566 C580 0.931 . S
H567 C582 0.930 . S
C568 H556 0.930 . S
C568 C569 1.399 . S
C568 C573 1.399 . S
C569 C568 1.399 . S
C569 C570 1.376 . S
C570 H557 0.930 . S
C570 C569 1.376 . S
C570 C571 1.388 . S
C571 H558 0.921 1_655 S
C571 C570 1.388 . S
C571 C572 1.390 . S
C572 C571 1.390 . S
C572 C573 1.394 . S
C572 C578 1.465 . S
C573 C568 1.399 . S
C573 C572 1.394 . S
C573 C574 1.516 . S
C574 C573 1.516 . S
C574 C575 1.502 . S
C574 C576 1.561 1_556 S
C574 C577 1.526 . S
C575 H559 0.959 . S
C575 H560 0.959 . S
C575 H561 0.961 1_556 S
C575 C574 1.502 . S
C576 H562 0.960 . S
C576 H563 0.961 . S
C576 H564 0.959 1_654 S
C576 C574 1.561 1_554 S
C577 C574 1.526 . S
C577 C578 1.396 . S
C577 C582 1.390 . S
C578 C572 1.465 . S
C578 C577 1.396 . S
C578 C579 1.399 1_655 S
C579 H565 0.929 . S
C579 C578 1.399 1_455 S
C579 C580 1.385 . S
C580 H566 0.931 . S
C580 C579 1.385 . S
C580 C581 1.389 1_455 S
C581 C580 1.389 1_655 S
C581 C582 1.387 . S
C582 H567 0.930 . S
C582 C577 1.390 . S
C582 C581 1.387 . S
H583 C595 0.930 . S
H584 C597 0.930 . S
H585 C598 0.930 . S
H586 C602 0.959 . S
H587 C602 0.959 . S
H588 C602 0.961 . S
H589 C603 0.960 . S
H590 C603 0.961 . S
H591 C603 0.959 1_565 S
H592 C606 0.929 . S
H593 C607 0.931 . S
H594 C609 0.930 . S
C595 H583 0.930 . S
C595 C596 1.399 . S
C595 C600 1.399 . S
C596 C595 1.399 . S
C596 C597 1.376 . S
C597 H584 0.930 . S
C597 C596 1.376 . S
C597 C598 1.388 . S
C598 H585 0.930 . S
C598 C597 1.388 . S
C598 C599 1.390 . S
C599 C598 1.390 . S
C599 C600 1.394 . S
C599 C605 1.465 . S
C600 C595 1.399 . S
C600 C599 1.394 . S
C600 C601 1.516 1_565 S
C601 C600 1.516 1_545 S
C601 C602 1.502 . S
C601 C603 1.561 . S
C601 C604 1.526 1_545 S
C602 H586 0.959 . S
C602 H587 0.959 . S
C602 H588 0.961 . S
C602 C601 1.502 . S
C603 H589 0.960 . S
C603 H590 0.961 . S
C603 H591 0.959 1_545 S
C603 C601 1.561 . S
C604 C601 1.526 1_565 S
C604 C605 1.396 . S
C604 C609 1.390 1_565 S
C605 C599 1.465 . S
C605 C604 1.396 . S
C605 C606 1.399 . S
C606 H592 0.929 . S
C606 C605 1.399 . S
C606 C607 1.385 . S
C607 H593 0.931 . S
C607 C606 1.385 . S
C607 C608 1.389 . S
C608 C607 1.389 . S
C608 C609 1.387 1_565 S
C609 H594 0.930 . S
C609 C604 1.390 1_545 S
C609 C608 1.387 1_545 S
H610 C622 0.930 . S
H611 C624 0.930 . S
H612 C625 0.930 . S
H613 C629 0.959 1_556 S
H614 C629 0.959 . S
H615 C629 0.961 . S
H616 C630 0.960 . S
H617 C630 0.961 . S
H618 C630 0.959 . S
H619 C633 0.929 . S
H620 C634 0.931 . S
H621 C636 0.930 . S
C622 H610 0.930 . S
C622 C623 1.399 1_554 S
C622 C627 1.399 1_554 S
C623 C622 1.399 1_556 S
C623 C624 1.376 . S
C624 H611 0.930 . S
C624 C623 1.376 . S
C624 C625 1.388 . S
C625 H612 0.930 . S
C625 C624 1.388 . S
C625 C626 1.390 . S
C626 C625 1.390 . S
C626 C627 1.394 . S
C626 C632 1.465 . S
C627 C622 1.399 1_556 S
C627 C626 1.394 . S
C627 C628 1.516 . S
C628 C627 1.516 . S
C628 C629 1.502 1_556 S
C628 C630 1.561 1_556 S
C628 C631 1.526 . S
C629 H613 0.959 1_554 S
C629 H614 0.959 . S
C629 H615 0.961 . S
C629 C628 1.502 1_554 S
C630 H616 0.960 . S
C630 H617 0.961 . S
C630 H618 0.959 . S
C630 C628 1.561 1_554 S
C631 C628 1.526 . S
C631 C632 1.396 . S
C631 C636 1.390 . S
C632 C626 1.465 . S
C632 C631 1.396 . S
C632 C633 1.399 . S
C633 H619 0.929 . S
C633 C632 1.399 . S
C633 C634 1.385 . S
C634 H620 0.931 . S
C634 C633 1.385 . S
C634 C635 1.389 . S
C635 C634 1.389 . S
C635 C636 1.387 . S
C636 H621 0.930 . S
C636 C631 1.390 . S
C636 C635 1.387 . S
H637 C649 0.930 1_554 S
H638 C651 0.930 . S
H639 C652 0.930 . S
H640 C656 0.959 . S
H641 C656 0.959 . S
H642 C656 0.961 . S
H643 C657 0.960 . S
H644 C657 0.961 . S
H645 C657 0.959 . S
H646 C660 0.929 . S
H647 C661 0.931 . S
H648 C663 0.930 . S
C649 H637 0.930 1_556 S
C649 C650 1.399 . S
C649 C654 1.399 . S
C650 C649 1.399 . S
C650 C651 1.376 . S
C651 H638 0.930 . S
C651 C650 1.376 . S
C651 C652 1.388 . S
C652 H639 0.930 . S
C652 C651 1.388 . S
C652 C653 1.390 . S
C653 C652 1.390 . S
C653 C654 1.394 . S
C653 C659 1.465 . S
C654 C649 1.399 . S
C654 C653 1.394 . S
C654 C655 1.516 . S
C655 C654 1.516 . S
C655 C656 1.502 1_556 S
C655 C657 1.561 . S
C655 C658 1.526 . S
C656 H640 0.959 . S
C656 H641 0.959 . S
C656 H642 0.961 . S
C656 C655 1.502 1_554 S
C657 H643 0.960 . S
C657 H644 0.961 . S
C657 H645 0.959 . S
C657 C655 1.561 . S
C658 C655 1.526 . S
C658 C659 1.396 . S
C658 C663 1.390 . S
C659 C653 1.465 . S
C659 C658 1.396 . S
C659 C660 1.399 . S
C660 H646 0.929 . S
C660 C659 1.399 . S
C660 C661 1.385 . S
C661 H647 0.931 . S
C661 C660 1.385 . S
C661 C662 1.389 . S
C662 C661 1.389 . S
C662 C663 1.387 . S
C663 H648 0.930 . S
C663 C658 1.390 . S
C663 C662 1.387 . S
H664 C676 0.930 . S
H665 C678 0.930 . S
H666 C679 0.930 . S
H667 C683 0.959 . S
H668 C683 0.959 . S
H669 C683 0.961 . S
H670 C684 0.960 . S
H671 C684 0.961 . S
H672 C684 0.959 1_554 S
H673 C687 0.929 . S
H674 C688 0.931 . S
H675 C690 0.930 . S
C676 H664 0.930 . S
C676 C677 1.399 . S
C676 C681 1.399 . S
C677 C676 1.399 . S
C677 C678 1.376 . S
C678 H665 0.930 . S
C678 C677 1.376 . S
C678 C679 1.388 . S
C679 H666 0.930 . S
C679 C678 1.388 . S
C679 C680 1.390 . S
C680 C679 1.390 . S
C680 C681 1.394 . S
C680 C686 1.465 . S
C681 C676 1.399 . S
C681 C680 1.394 . S
C681 C682 1.516 1_554 S
C682 C681 1.516 1_556 S
C682 C683 1.502 . S
C682 C684 1.561 . S
C682 C685 1.526 . S
C683 H667 0.959 . S
C683 H668 0.959 . S
C683 H669 0.961 . S
C683 C682 1.502 . S
C684 H670 0.960 . S
C684 H671 0.961 . S
C684 H672 0.959 1_556 S
C684 C682 1.561 . S
C685 C682 1.526 . S
C685 C686 1.396 1_556 S
C685 C690 1.390 . S
C686 C680 1.465 . S
C686 C685 1.396 1_554 S
C686 C687 1.399 . S
C687 H673 0.929 . S
C687 C686 1.399 . S
C687 C688 1.385 . S
C688 H674 0.931 . S
C688 C687 1.385 . S
C688 C689 1.389 1_554 S
C689 C688 1.389 1_556 S
C689 C690 1.387 . S
C690 H675 0.930 . S
C690 C685 1.390 . S
C690 C689 1.387 . S
H691 C703 0.930 . S
H692 C705 0.930 . S
H693 C706 0.930 1_556 S
H694 C710 0.959 . S
H695 C710 0.959 . S
H696 C710 0.961 . S
H697 C711 0.960 . S
H698 C711 0.961 . S
H699 C711 0.959 . S
H700 C714 0.929 . S
H701 C715 0.931 . S
H702 C717 0.932 . S
C703 H691 0.930 . S
C703 C704 1.399 . S
C703 C708 1.399 . S
C704 C703 1.399 . S
C704 C705 1.376 . S
C705 H692 0.930 . S
C705 C704 1.376 . S
C705 C706 1.388 . S
C706 H693 0.930 1_554 S
C706 C705 1.388 . S
C706 C707 1.390 . S
C707 C706 1.390 . S
C707 C708 1.394 . S
C707 C713 1.465 1_554 S
C708 C703 1.399 . S
C708 C707 1.394 . S
C708 C709 1.516 . S
C709 C708 1.516 . S
C709 C710 1.502 . S
C709 C711 1.561 1_545 S
C709 C712 1.526 . S
C710 H694 0.959 . S
C710 H695 0.959 . S
C710 H696 0.961 . S
C710 C709 1.502 . S
C711 H697 0.960 . S
C711 H698 0.961 . S
C711 H699 0.959 . S
C711 C709 1.561 1_565 S
C712 C709 1.526 . S
C712 C713 1.396 1_554 S
C712 C717 1.390 1_554 S
C713 C707 1.465 1_556 S
C713 C712 1.396 1_556 S
C713 C714 1.399 . S
C714 H700 0.929 . S
C714 C713 1.399 . S
C714 C715 1.385 . S
C715 H701 0.931 . S
C715 C714 1.385 . S
C715 C716 1.389 . S
C716 C715 1.389 . S
C716 C717 1.387 . S
C717 H702 0.932 . S
C717 C712 1.390 1_556 S
C717 C716 1.387 . S
H718 C730 0.930 . S
H719 C732 0.930 . S
H720 C733 0.930 . S
H721 C737 0.959 1_556 S
H722 C737 0.959 . S
H723 C737 0.961 . S
H724 C738 0.960 . S
H725 C738 0.961 . S
H726 C738 0.959 . S
H727 C741 0.929 . S
H728 C742 0.931 . S
H729 C744 0.930 . S
C730 H718 0.930 . S
C730 C731 1.399 . S
C730 C735 1.399 . S
C731 C730 1.399 . S
C731 C732 1.376 . S
C732 H719 0.930 . S
C732 C731 1.376 . S
C732 C733 1.388 . S
C733 H720 0.930 . S
C733 C732 1.388 . S
C733 C734 1.390 . S
C734 C733 1.390 . S
C734 C735 1.394 . S
C734 C740 1.465 1_554 S
C735 C730 1.399 . S
C735 C734 1.394 . S
C735 C736 1.516 . S
C736 C735 1.516 . S
C736 C737 1.502 . S
C736 C738 1.561 . S
C736 C739 1.526 . S
C737 H721 0.959 1_554 S
C737 H722 0.959 . S
C737 H723 0.961 . S
C737 C736 1.502 . S
C738 H724 0.960 . S
C738 H725 0.961 . S
C738 H726 0.959 . S
C738 C736 1.561 . S
C739 C736 1.526 . S
C739 C740 1.396 1_554 S
C739 C744 1.390 1_554 S
C740 C734 1.465 1_556 S
C740 C739 1.396 1_556 S
C740 C741 1.399 . S
C741 H727 0.929 . S
C741 C740 1.399 . S
C741 C742 1.385 . S
C742 H728 0.931 . S
C742 C741 1.385 . S
C742 C743 1.389 . S
C743 C742 1.389 . S
C743 C744 1.387 . S
C744 H729 0.930 . S
C744 C739 1.390 1_556 S
C744 C743 1.387 . S
H745 C757 0.930 . S
H746 C759 0.930 . S
H747 C760 0.930 1_556 S
H748 C764 0.959 . S
H749 C764 0.959 . S
H750 C764 0.961 . S
H751 C765 0.960 . S
H752 C765 0.961 . S
H753 C765 0.959 . S
H754 C768 0.929 . S
H755 C769 0.931 . S
H756 C771 0.930 1_554 S
C757 H745 0.930 . S
C757 C758 1.399 . S
C757 C762 1.399 . S
C758 C757 1.399 . S
C758 C759 1.376 . S
C759 H746 0.930 . S
C759 C758 1.376 . S
C759 C760 1.388 . S
C760 H747 0.930 1_554 S
C760 C759 1.388 . S
C760 C761 1.390 . S
C761 C760 1.390 . S
C761 C762 1.394 . S
C761 C767 1.465 1_554 S
C762 C757 1.399 . S
C762 C761 1.394 . S
C762 C763 1.516 . S
C763 C762 1.516 . S
C763 C764 1.502 . S
C763 C765 1.561 . S
C763 C766 1.526 . S
C764 H748 0.959 . S
C764 H749 0.959 . S
C764 H750 0.961 . S
C764 C763 1.502 . S
C765 H751 0.960 . S
C765 H752 0.961 . S
C765 H753 0.959 . S
C765 C763 1.561 . S
C766 C763 1.526 . S
C766 C767 1.396 1_554 S
C766 C771 1.390 1_554 S
C767 C761 1.465 1_556 S
C767 C766 1.396 1_556 S
C767 C768 1.399 . S
C768 H754 0.929 . S
C768 C767 1.399 . S
C768 C769 1.385 . S
C769 H755 0.931 . S
C769 C768 1.385 . S
C769 C770 1.389 . S
C770 C769 1.389 . S
C770 C771 1.387 . S
C771 H756 0.930 1_556 S
C771 C766 1.390 1_556 S
C771 C770 1.387 . S
H772 C784 0.930 . S
H773 C786 0.930 . S
H774 C787 0.930 . S
H775 C791 0.959 . S
H776 C791 0.959 . S
H777 C791 0.961 . S
H778 C792 0.960 . S
H779 C792 0.961 . S
H780 C792 0.959 1_455 S
H781 C795 0.929 1_455 S
H782 C796 0.931 1_455 S
H783 C798 0.930 . S
C784 H772 0.930 . S
C784 C785 1.399 . S
C784 C789 1.399 . S
C785 C784 1.399 . S
C785 C786 1.376 . S
C786 H773 0.930 . S
C786 C785 1.376 . S
C786 C787 1.388 . S
C787 H774 0.930 . S
C787 C786 1.388 . S
C787 C788 1.390 . S
C788 C787 1.390 . S
C788 C789 1.394 . S
C788 C794 1.465 . S
C789 C784 1.399 . S
C789 C788 1.394 . S
C789 C790 1.516 . S
C790 C789 1.516 . S
C790 C791 1.502 . S
C790 C792 1.561 . S
C790 C793 1.526 . S
C791 H775 0.959 . S
C791 H776 0.959 . S
C791 H777 0.961 . S
C791 C790 1.502 . S
C792 H778 0.960 . S
C792 H779 0.961 . S
C792 H780 0.959 1_655 S
C792 C790 1.561 . S
C793 C790 1.526 . S
C793 C794 1.396 . S
C793 C798 1.390 . S
C794 C788 1.465 . S
C794 C793 1.396 . S
C794 C795 1.399 . S
C795 H781 0.929 1_655 S
C795 C794 1.399 . S
C795 C796 1.385 . S
C796 H782 0.931 1_655 S
C796 C795 1.385 . S
C796 C797 1.389 . S
C797 C796 1.389 . S
C797 C798 1.387 . S
C798 H783 0.930 . S
C798 C793 1.390 . S
C798 C797 1.387 . S
H799 C811 0.930 . S
H800 C813 0.930 . S
H801 C814 0.930 1_545 S
H802 C818 0.959 . S
H803 C818 0.959 . S
H804 C818 0.961 . S
H805 C819 0.960 . S
H806 C819 0.961 . S
H807 C819 0.959 . S
H808 C822 0.929 . S
H809 C823 0.931 . S
H810 C825 0.930 . S
C811 H799 0.930 . S
C811 C812 1.399 . S
C811 C816 1.399 . S
C812 C811 1.399 . S
C812 C813 1.376 . S
C813 H800 0.930 . S
C813 C812 1.376 . S
C813 C814 1.388 . S
C814 H801 0.930 1_565 S
C814 C813 1.388 . S
C814 C815 1.390 . S
C815 C814 1.390 . S
C815 C816 1.394 . S
C815 C821 1.465 . S
C816 C811 1.399 . S
C816 C815 1.394 . S
C816 C817 1.516 . S
C817 C816 1.516 . S
C817 C818 1.502 . S
C817 C819 1.561 . S
C817 C820 1.526 . S
C818 H802 0.959 . S
C818 H803 0.959 . S
C818 H804 0.961 . S
C818 C817 1.502 . S
C819 H805 0.960 . S
C819 H806 0.961 . S
C819 H807 0.959 . S
C819 C817 1.561 . S
C820 C817 1.526 . S
C820 C821 1.396 . S
C820 C825 1.390 . S
C821 C815 1.465 . S
C821 C820 1.396 . S
C821 C822 1.399 1_565 S
C822 H808 0.929 . S
C822 C821 1.399 1_545 S
C822 C823 1.385 . S
C823 H809 0.931 . S
C823 C822 1.385 . S
C823 C824 1.389 1_545 S
C824 C823 1.389 1_565 S
C824 C825 1.387 . S
C825 H810 0.930 . S
C825 C820 1.390 . S
C825 C824 1.387 . S
H826 C838 0.930 . S
H827 C840 0.930 . S
H828 C841 0.930 . S
H829 C845 0.959 . S
H830 C845 0.959 . S
H831 C845 0.961 . S
H832 C846 0.960 . S
H833 C846 0.961 . S
H834 C846 0.959 . S
H835 C849 0.929 . S
H836 C850 0.931 . S
H837 C852 0.930 . S
C838 H826 0.930 . S
C838 C839 1.399 . S
C838 C843 1.399 . S
C839 C838 1.399 . S
C839 C840 1.376 . S
C840 H827 0.930 . S
C840 C839 1.376 . S
C840 C841 1.388 . S
C841 H828 0.930 . S
C841 C840 1.388 . S
C841 C842 1.390 . S
C842 C841 1.390 . S
C842 C843 1.394 . S
C842 C848 1.465 . S
C843 C838 1.399 . S
C843 C842 1.394 . S
C843 C844 1.516 . S
C844 C843 1.516 . S
C844 C845 1.502 . S
C844 C846 1.561 . S
C844 C847 1.526 . S
C845 H829 0.959 . S
C845 H830 0.959 . S
C845 H831 0.961 . S
C845 C844 1.502 . S
C846 H832 0.960 . S
C846 H833 0.961 . S
C846 H834 0.959 . S
C846 C844 1.561 . S
C847 C844 1.526 . S
C847 C848 1.396 . S
C847 C852 1.390 . S
C848 C842 1.465 . S
C848 C847 1.396 . S
C848 C849 1.399 . S
C849 H835 0.929 . S
C849 C848 1.399 . S
C849 C850 1.385 . S
C850 H836 0.931 . S
C850 C849 1.385 . S
C850 C851 1.389 . S
C851 C850 1.389 . S
C851 C852 1.387 . S
C852 H837 0.930 . S
C852 C847 1.390 . S
C852 C851 1.387 . S
H853 C865 0.930 . S
H854 C867 0.930 . S
H855 C868 0.930 . S
H856 C872 0.959 . S
H857 C872 0.959 . S
H858 C872 0.961 . S
H859 C873 0.960 . S
H860 C873 0.961 . S
H861 C873 0.959 . S
H862 C876 0.929 . S
H863 C877 0.931 . S
H864 C879 0.930 . S
C865 H853 0.930 . S
C865 C866 1.399 . S
C865 C870 1.399 . S
C866 C865 1.399 . S
C866 C867 1.376 . S
C867 H854 0.930 . S
C867 C866 1.376 . S
C867 C868 1.388 . S
C868 H855 0.930 . S
C868 C867 1.388 . S
C868 C869 1.390 . S
C869 C868 1.390 . S
C869 C870 1.394 . S
C869 C875 1.465 . S
C870 C865 1.399 . S
C870 C869 1.394 . S
C870 C871 1.516 . S
C871 C870 1.516 . S
C871 C872 1.502 . S
C871 C873 1.561 . S
C871 C874 1.526 . S
C872 H856 0.959 . S
C872 H857 0.959 . S
C872 H858 0.961 . S
C872 C871 1.502 . S
C873 H859 0.960 . S
C873 H860 0.961 . S
C873 H861 0.959 . S
C873 C871 1.561 . S
C874 C871 1.526 . S
C874 C875 1.396 . S
C874 C879 1.390 . S
C875 C869 1.465 . S
C875 C874 1.396 . S
C875 C876 1.399 . S
C876 H862 0.929 . S
C876 C875 1.399 . S
C876 C877 1.385 . S
C877 H863 0.931 . S
C877 C876 1.385 . S
C877 C878 1.389 . S
C878 C877 1.389 . S
C878 C879 1.387 . S
C879 H864 0.930 . S
C879 C874 1.390 . S
C879 C878 1.387 . S
C245 C125 1.545 . S
C257 C153 1.658 . S
C284 C188 1.588 . S
C272 C144 1.463 . S
C311 C193 1.396 . S
C299 C87 1.337 . S
C338 C213 1.498 . S
C326 C106 1.372 . S
C365 C161 1.661 1_565 S
C353 C49 1.574 1_556 S
C380 C68 1.561 1_556 S
C392 C178 1.601 . S
C407 C11 1.378 1_556 S
C419 C201 1.371 . S
C434 C30 1.453 . S
C446 C221 1.491 1_655 S
C473 C171 1.324 . S
C461 C97 1.254 . S
C500 C180 1.106 . S
C488 C116 1.142 . S
C527 C211 1.368 . S
C515 C135 1.314 . S
C542 C78 0.995 . S
C554 C231 1.022 . S
C569 C21 1.334 . S
C581 C160 1.376 1_655 S
C608 C191 1.153 1_565 S
C596 C40 1.118 1_556 S
C635 C200 1.426 . S
C623 C59 1.385 1_556 S
C650 C2 1.116 1_556 S
C662 C220 1.119 . S
C677 C101 1.412 . S
C689 C158 1.421 . S
C704 C120 1.503 . S
C716 C181 1.524 . S
C743 C198 1.560 . S
C731 C139 1.501 . S
C770 C218 1.607 . S
C758 C82 1.600 . S
C785 C25 1.418 . S
C797 C168 1.424 . S
C824 C173 1.522 . S
C812 C44 1.499 . S
C851 C208 1.529 . S
C839 C63 1.481 . S
C866 C6 1.600 . S
C878 C228 1.610 . S
