# Generated by pormake.
# Topology ssa, (4,4)-cn, num edge types: 1
# Building blocks:
#     Node 0, Type 0, BuildingBlock: KOZSID_clean_sbu_0, # of connection points: 4
#     Node 1, Type 0, BuildingBlock: KOZSID_clean_sbu_0, # of connection points: 4
#     Node 2, Type 0, BuildingBlock: KOZSID_clean_sbu_0, # of connection points: 4
#     Node 3, Type 0, BuildingBlock: KOZSID_clean_sbu_0, # of connection points: 4
#     Node 4, Type 0, BuildingBlock: KOZSID_clean_sbu_0, # of connection points: 4
#     Node 5, Type 0, BuildingBlock: KOZSID_clean_sbu_0, # of connection points: 4
#     Node 6, Type 1, BuildingBlock: MIFKUJ_clean_linker_1, # of connection points: 4
#     Node 7, Type 1, BuildingBlock: MIFKUJ_clean_linker_1, # of connection points: 4
#     Node 8, Type 1, BuildingBlock: MIFKUJ_clean_linker_1, # of connection points: 4
#     Node 9, Type 1, BuildingBlock: MIFKUJ_clean_linker_1, # of connection points: 4
#     Node 10, Type 1, BuildingBlock: MIFKUJ_clean_linker_1, # of connection points: 4
#     Node 11, Type 1, BuildingBlock: MIFKUJ_clean_linker_1, # of connection points: 4
#     Edge 12, Type (0, 1), BuildingBlock: CIFDUS_clean_linker_0, # of connection points: 2
#     Edge 13, Type (0, 1), BuildingBlock: CIFDUS_clean_linker_0, # of connection points: 2
#     Edge 14, Type (0, 1), BuildingBlock: CIFDUS_clean_linker_0, # of connection points: 2
#     Edge 15, Type (0, 1), BuildingBlock: CIFDUS_clean_linker_0, # of connection points: 2
#     Edge 16, Type (0, 1), BuildingBlock: CIFDUS_clean_linker_0, # of connection points: 2
#     Edge 17, Type (0, 1), BuildingBlock: CIFDUS_clean_linker_0, # of connection points: 2
#     Edge 18, Type (0, 1), BuildingBlock: CIFDUS_clean_linker_0, # of connection points: 2
#     Edge 19, Type (0, 1), BuildingBlock: CIFDUS_clean_linker_0, # of connection points: 2
#     Edge 20, Type (0, 1), BuildingBlock: CIFDUS_clean_linker_0, # of connection points: 2
#     Edge 21, Type (0, 1), BuildingBlock: CIFDUS_clean_linker_0, # of connection points: 2
#     Edge 22, Type (0, 1), BuildingBlock: CIFDUS_clean_linker_0, # of connection points: 2
#     Edge 23, Type (0, 1), BuildingBlock: CIFDUS_clean_linker_0, # of connection points: 2
#     Edge 24, Type (0, 1), BuildingBlock: CIFDUS_clean_linker_0, # of connection points: 2
#     Edge 25, Type (0, 1), BuildingBlock: CIFDUS_clean_linker_0, # of connection points: 2
#     Edge 26, Type (0, 1), BuildingBlock: CIFDUS_clean_linker_0, # of connection points: 2
#     Edge 27, Type (0, 1), BuildingBlock: CIFDUS_clean_linker_0, # of connection points: 2
#     Edge 28, Type (0, 1), BuildingBlock: CIFDUS_clean_linker_0, # of connection points: 2
#     Edge 29, Type (0, 1), BuildingBlock: CIFDUS_clean_linker_0, # of connection points: 2
#     Edge 30, Type (0, 1), BuildingBlock: CIFDUS_clean_linker_0, # of connection points: 2
#     Edge 31, Type (0, 1), BuildingBlock: CIFDUS_clean_linker_0, # of connection points: 2
#     Edge 32, Type (0, 1), BuildingBlock: CIFDUS_clean_linker_0, # of connection points: 2
#     Edge 33, Type (0, 1), BuildingBlock: CIFDUS_clean_linker_0, # of connection points: 2
#     Edge 34, Type (0, 1), BuildingBlock: CIFDUS_clean_linker_0, # of connection points: 2
#     Edge 35, Type (0, 1), BuildingBlock: CIFDUS_clean_linker_0, # of connection points: 2
# Relax obj value: 0.005
# Max RMSD: 0.023
# Mean RMSD: 0.012
data_MOF--net-ssa--node1-KOZSID_clean_sbu_0--node2-MIFKUJ_clean_linker_1--edge1-CIFDUS_clean_linker_0
_symmetry_space_group_name_H-M    P1
_symmetry_Int_Tables_number       1
_symmetry_cell_setting            triclinic
loop_
_symmetry_equiv_pos_as_xyz
'x, y, z'
_cell_length_a     58.954456
_cell_length_b     60.368848
_cell_length_c     38.440338
_cell_angle_alpha  87.475071
_cell_angle_beta   89.97838
_cell_angle_gamma 122.39126
loop_
_atom_site_label
_atom_site_type_symbol
_atom_site_fract_x
_atom_site_fract_y
_atom_site_fract_z
_atom_type_partial_charge
C0 C 0.95647 0.51072 0.98988 0.0
C1 C 0.93227 0.50289 0.00678 0.0
C2 C 0.93084 0.48896 0.03648 0.0
C3 C 0.95401 0.48886 0.03599 0.0
N4 N 0.97046 0.50232 0.00804 0.0
Co5 Co 0.00506 0.50513 0.99543 0.0
N6 N 0.00094 0.48135 0.03638 0.0
C7 C 0.98055 0.46974 0.06043 0.0
C8 C 0.98316 0.45447 0.08551 0.0
C9 C 0.0068 0.45665 0.07727 0.0
C10 C 0.01738 0.47335 0.04762 0.0
N11 N 0.03958 0.50788 0.98264 0.0
C12 C 0.05255 0.49763 0.99917 0.0
C13 C 0.07674 0.5055 0.98217 0.0
C14 C 0.07908 0.5211 0.95391 0.0
C15 C 0.05644 0.52207 0.9553 0.0
N16 N 0.00913 0.52884 0.95446 0.0
C17 C 0.02996 0.54131 0.93112 0.0
C18 C 0.02676 0.55578 0.90538 0.0
C19 C 0.00216 0.55191 0.91225 0.0
C20 C 0.99169 0.5351 0.94179 0.0
N21 N 0.02529 0.53605 0.02474 0.0
C22 C 0.05533 0.57862 0.06771 0.0
C23 C 0.06487 0.57873 0.03445 0.0
C24 C 0.04955 0.55758 0.01348 0.0
C25 C 0.03028 0.55714 0.0789 0.0
C26 C 0.01582 0.53618 0.05729 0.0
N27 N 0.98488 0.47436 0.96623 0.0
C28 C 0.97928 0.4538 0.91157 0.0
C29 C 0.95393 0.43243 0.92249 0.0
C30 C 0.94484 0.4322 0.95623 0.0
C31 C 0.96062 0.45295 0.97756 0.0
C32 C 0.99417 0.47442 0.93353 0.0
H33 H 0.95249 0.45147 0.0029 0.0
H34 H 0.01299 0.49037 0.9233 0.0
H35 H 0.05795 0.5591 0.98839 0.0
H36 H 0.99721 0.52019 0.06777 0.0
C37 C 0.9595 0.47399 0.05924 0.0
C38 C 0.96452 0.52451 0.95559 0.0
C39 C 0.0434 0.48148 0.03173 0.0
C40 C 0.05114 0.53727 0.93239 0.0
H41 H 0.91669 0.50598 0.9981 0.0
H42 H 0.91427 0.47897 0.05531 0.0
H43 H 0.96964 0.44332 0.1074 0.0
H44 H 0.01543 0.44724 0.09169 0.0
H45 H 0.09157 0.50102 0.98971 0.0
H46 H 0.09567 0.53111 0.93511 0.0
H47 H 0.04027 0.56701 0.88351 0.0
H48 H 0.99262 0.55991 0.89672 0.0
H49 H 0.08407 0.59517 0.02453 0.0
H50 H 0.02216 0.55617 0.10461 0.0
H51 H 0.9877 0.45481 0.88608 0.0
H52 H 0.92528 0.41644 0.9661 0.0
C53 C 0.54278 0.02057 0.55425 0.0
C54 C 0.54404 0.01166 0.5877 0.0
C55 C 0.52066 0.98801 0.59395 0.0
C56 C 0.50635 0.98386 0.56429 0.0
N57 N 0.51935 0.00325 0.53914 0.0
Co58 Co 0.50481 0.00626 0.49312 0.0
N59 N 0.46875 0.97368 0.50485 0.0
C60 C 0.46125 0.95844 0.53471 0.0
C61 C 0.43534 0.93719 0.53508 0.0
C62 C 0.42574 0.93878 0.50341 0.0
C63 C 0.4465 0.96095 0.48546 0.0
N64 N 0.49038 0.00925 0.44703 0.0
C65 C 0.46609 0.99304 0.43307 0.0
C66 C 0.46466 0.00189 0.39969 0.0
C67 C 0.48894 0.02439 0.39216 0.0
C68 C 0.50379 0.02796 0.42118 0.0
N69 N 0.54075 0.03899 0.4816 0.0
C70 C 0.54849 0.05402 0.45152 0.0
C71 C 0.57421 0.07555 0.45156 0.0
C72 C 0.58325 0.07459 0.4839 0.0
C73 C 0.56235 0.05253 0.50184 0.0
N74 N 0.51677 0.98449 0.47193 0.0
C75 C 0.5303 0.95198 0.43909 0.0
C76 C 0.53807 0.97665 0.42429 0.0
C77 C 0.53108 0.99237 0.4409 0.0
C78 C 0.51623 0.94409 0.47105 0.0
C79 C 0.50998 0.96062 0.48706 0.0
N80 N 0.49288 0.02796 0.51417 0.0
C81 C 0.49134 0.06724 0.5127 0.0
C82 C 0.47924 0.06072 0.54597 0.0
C83 C 0.4735 0.03715 0.56266 0.0
C84 C 0.48041 0.0212 0.54643 0.0
C85 C 0.49784 0.05069 0.49739 0.0
H86 H 0.47572 0.00365 0.56066 0.0
H87 H 0.50728 0.05694 0.47218 0.0
H88 H 0.53713 0.0106 0.4277 0.0
H89 H 0.49939 0.95348 0.51145 0.0
C90 C 0.47947 0.96381 0.56113 0.0
C91 C 0.56339 0.04628 0.5387 0.0
C92 C 0.44433 0.96853 0.44969 0.0
C93 C 0.53061 0.04818 0.42447 0.0
H94 H 0.55965 0.02152 0.60637 0.0
H95 H 0.51424 0.97597 0.618 0.0
H96 H 0.42488 0.92205 0.55563 0.0
H97 H 0.40586 0.92494 0.4943 0.0
H98 H 0.44796 0.99276 0.38231 0.0
H99 H 0.49521 0.03643 0.36812 0.0
H100 H 0.58481 0.09059 0.43094 0.0
H101 H 0.60275 0.08894 0.49358 0.0
H102 H 0.54888 0.98356 0.39941 0.0
H103 H 0.51012 0.92525 0.48376 0.0
H104 H 0.49645 0.08538 0.49873 0.0
H105 H 0.46368 0.03093 0.58818 0.0
C106 C 0.54374 0.53134 0.94503 0.0
C107 C 0.5489 0.54446 0.91258 0.0
C108 C 0.52605 0.54353 0.90364 0.0
C109 C 0.50821 0.52984 0.93084 0.0
N110 N 0.51836 0.52216 0.95689 0.0
Co111 Co 0.49865 0.50028 1.00021 0.0
N112 N 0.46478 0.49821 0.98629 0.0
C113 C 0.46067 0.50824 0.95653 0.0
C114 C 0.43564 0.50454 0.95502 0.0
C115 C 0.42321 0.49194 0.98605 0.0
C116 C 0.44154 0.48882 0.00475 0.0
N117 N 0.47886 0.47835 0.04347 0.0
C118 C 0.4543 0.4711 0.05659 0.0
C119 C 0.44877 0.45739 0.0886 0.0
C120 C 0.47072 0.4562 0.09617 0.0
C121 C 0.48839 0.4693 0.06859 0.0
N122 N 0.5326 0.50258 0.01441 0.0
C123 C 0.53634 0.49193 0.04387 0.0
C124 C 0.56184 0.49698 0.0466 0.0
C125 C 0.57514 0.51145 0.01689 0.0
C126 C 0.55681 0.5142 0.99756 0.0
N127 N 0.50959 0.53255 0.02503 0.0
C128 C 0.52388 0.57788 0.06114 0.0
C129 C 0.52765 0.55845 0.07565 0.0
C130 C 0.52013 0.53605 0.05755 0.0
C131 C 0.51297 0.57414 0.02795 0.0
C132 C 0.50638 0.55175 0.01039 0.0
N133 N 0.48785 0.46795 0.97513 0.0
C134 C 0.48927 0.42893 0.96929 0.0
C135 C 0.47905 0.42577 0.93592 0.0
C136 C 0.47202 0.44318 0.92311 0.0
C137 C 0.47671 0.46407 0.94289 0.0
C138 C 0.49303 0.44971 0.98852 0.0
H139 H 0.47176 0.4771 0.93103 0.0
H140 H 0.50069 0.45085 0.01384 0.0
H141 H 0.52294 0.52178 0.0705 0.0
H142 H 0.49845 0.55027 0.98509 0.0
C143 C 0.48147 0.52285 0.93184 0.0
C144 C 0.56305 0.52692 0.96267 0.0
C145 C 0.43666 0.47856 0.04083 0.0
C146 C 0.51517 0.47641 0.0678 0.0
H147 H 0.56704 0.55326 0.89651 0.0
H148 H 0.52262 0.55131 0.87971 0.0
H149 H 0.42778 0.51116 0.93442 0.0
H150 H 0.40327 0.48649 0.99453 0.0
H151 H 0.43122 0.4499 0.10548 0.0
H152 H 0.47399 0.44805 0.11987 0.0
H153 H 0.56968 0.49051 0.06739 0.0
H154 H 0.59586 0.51872 0.00991 0.0
H155 H 0.53649 0.56039 0.10089 0.0
H156 H 0.50907 0.58817 0.01554 0.0
H157 H 0.49454 0.41552 0.98042 0.0
H158 H 0.46396 0.44136 0.89733 0.0
C159 C 0.95504 0.446 0.51474 0.0
C160 C 0.93177 0.42765 0.4986 0.0
C161 C 0.92978 0.44013 0.4694 0.0
C162 C 0.95195 0.4652 0.46928 0.0
N163 N 0.96829 0.46931 0.49624 0.0
Co164 Co 0.00252 0.50282 0.50651 0.0
N165 N 0.99793 0.52213 0.46612 0.0
C166 C 0.97685 0.51262 0.44469 0.0
C167 C 0.98001 0.53025 0.41843 0.0
C168 C 0.00479 0.55214 0.42292 0.0
C169 C 0.01532 0.54658 0.45185 0.0
N170 N 0.03716 0.5362 0.51615 0.0
C171 C 0.05091 0.55907 0.49666 0.0
C172 C 0.07509 0.57697 0.51141 0.0
C173 C 0.07708 0.56469 0.54084 0.0
C174 C 0.05407 0.54013 0.54233 0.0
N175 N 0.00675 0.48362 0.54743 0.0
C176 C 0.02708 0.49358 0.57009 0.0
C177 C 0.02331 0.47636 0.59726 0.0
C178 C 0.99883 0.45427 0.59216 0.0
C179 C 0.98911 0.45925 0.56189 0.0
N180 N 0.02282 0.49347 0.47565 0.0
C181 C 0.05553 0.48744 0.42896 0.0
C182 C 0.06328 0.49402 0.46307 0.0
C183 C 0.04651 0.49647 0.48602 0.0
C184 C 0.03065 0.48261 0.41888 0.0
C185 C 0.01473 0.48585 0.44247 0.0
N186 N 0.9823 0.51232 0.53743 0.0
C187 C 0.97842 0.52947 0.59129 0.0
C188 C 0.95215 0.52224 0.58417 0.0
C189 C 0.94154 0.51062 0.55263 0.0
C190 C 0.95693 0.50616 0.5297 0.0
C191 C 0.99288 0.52422 0.56797 0.0
H192 H 0.94765 0.49729 0.50617 0.0
H193 H 0.01247 0.52973 0.57557 0.0
H194 H 0.05349 0.50149 0.51172 0.0
H195 H 0.99638 0.48283 0.43296 0.0
C196 C 0.95639 0.48604 0.44675 0.0
C197 C 0.96226 0.44115 0.5492 0.0
C198 C 0.04276 0.56401 0.46295 0.0
C199 C 0.04846 0.51979 0.56665 0.0
H200 H 0.91716 0.40767 0.50786 0.0
H201 H 0.91345 0.43226 0.45137 0.0
H202 H 0.96659 0.52702 0.39731 0.0
H203 H 0.01442 0.56972 0.40591 0.0
H204 H 0.09009 0.59657 0.50126 0.0
H205 H 0.09374 0.5724 0.55832 0.0
H206 H 0.03629 0.47985 0.619 0.0
H207 H 0.98894 0.43688 0.60949 0.0
H208 H 0.08236 0.49756 0.47186 0.0
H209 H 0.024 0.47734 0.39255 0.0
H210 H 0.98794 0.53913 0.61486 0.0
H211 H 0.92121 0.50437 0.54582 0.0
C212 C 0.46604 0.99761 0.07253 0.0
C213 C 0.46665 0.00887 0.10353 0.0
C214 C 0.49119 0.03167 0.10432 0.0
C215 C 0.5042 0.03299 0.07402 0.0
N216 N 0.48933 0.01256 0.05361 0.0
Co217 Co 0.50105 0.0058 0.00834 0.0
N218 N 0.53789 0.03834 0.01088 0.0
C219 C 0.54729 0.05555 0.03655 0.0
C220 C 0.57344 0.07587 0.03125 0.0
C221 C 0.58116 0.07167 1.00006 0.0
C222 C 0.55906 0.04904 0.98794 0.0
N223 N 0.51281 0.99893 0.96319 0.0
C224 C 0.53615 0.01372 0.94431 0.0
C225 C 0.53538 0.00233 0.91334 0.0
C226 C 0.51085 0.97955 0.91271 0.0
C227 C 0.49795 0.97837 0.94299 0.0
N228 N 0.46416 0.97337 0.00566 0.0
C229 C 0.45463 0.95636 0.97979 0.0
C230 C 0.42852 0.93596 0.98518 0.0
C231 C 0.42098 0.93992 0.01666 0.0
C232 C 0.44312 0.96251 0.02876 0.0
N233 N 0.48882 0.02659 0.98252 0.0
C234 C 0.47197 0.05659 0.94585 0.0
C235 C 0.46506 0.032 0.93493 0.0
C236 C 0.47375 0.01754 0.95336 0.0
C237 C 0.48743 0.06582 0.9755 0.0
C238 C 0.4954 0.0506 0.99334 0.0
N239 N 0.51314 0.98499 0.03436 0.0
C240 C 0.51093 0.94414 0.04572 0.0
C241 C 0.52596 0.95363 0.0757 0.0
C242 C 0.5354 0.97947 0.08368 0.0
C243 C 0.52873 0.99458 0.06298 0.0
C244 C 0.50502 0.96011 0.02543 0.0
H245 H 0.53609 0.01381 0.07111 0.0
H246 H 0.49338 0.95171 0.00305 0.0
H247 H 0.46807 0.99914 0.94342 0.0
H248 H 0.50708 0.05884 0.01566 0.0
C249 C 0.53088 0.05228 0.06507 0.0
C250 C 0.44352 0.97208 0.06305 0.0
C251 C 0.55891 0.03918 0.95386 0.0
C252 C 0.47116 0.95937 0.95165 0.0
H253 H 0.45125 0.00114 0.12391 0.0
H254 H 0.49895 0.04525 0.12503 0.0
H255 H 0.58538 0.09198 0.04788 0.0
H256 H 0.60073 0.08411 0.98741 0.0
H257 H 0.55057 0.0099 0.89272 0.0
H258 H 0.50299 0.96595 0.89202 0.0
H259 H 0.4166 0.91981 0.96859 0.0
H260 H 0.40155 0.92728 0.02962 0.0
H261 H 0.45287 0.02378 0.91235 0.0
H262 H 0.49384 0.08497 0.98472 0.0
H263 H 0.50302 0.92423 0.03837 0.0
H264 H 0.54774 0.98805 0.10605 0.0
C265 C 0.51058 0.55453 0.49318 0.0
C266 C 0.50598 0.57083 0.51222 0.0
C267 C 0.49256 0.55682 0.54214 0.0
C268 C 0.48992 0.53297 0.53976 0.0
N269 N 0.50122 0.53102 0.51038 0.0
Co270 Co 0.50232 0.50003 0.4965 0.0
N271 N 0.47906 0.47804 0.53789 0.0
C272 C 0.46791 0.48528 0.56212 0.0
C273 C 0.45376 0.46641 0.58812 0.0
C274 C 0.45628 0.446 0.58037 0.0
C275 C 0.47184 0.45359 0.54982 0.0
N276 N 0.50416 0.46928 0.48323 0.0
C277 C 0.49505 0.44592 0.50077 0.0
C278 C 0.50162 0.4304 0.48322 0.0
C279 C 0.51607 0.44477 0.45402 0.0
C280 C 0.5174 0.46809 0.45535 0.0
N281 N 0.52473 0.52175 0.45436 0.0
C282 C 0.53493 0.51421 0.42924 0.0
C283 C 0.54751 0.53247 0.40213 0.0
C284 C 0.54474 0.55273 0.40995 0.0
C285 C 0.53077 0.54571 0.44174 0.0
N286 N 0.53509 0.51215 0.5242 0.0
C287 C 0.57945 0.52275 0.56481 0.0
C288 C 0.58044 0.52186 0.52858 0.0
C289 C 0.55822 0.51636 0.50906 0.0
C290 C 0.55634 0.51973 0.58004 0.0
C291 C 0.5348 0.51492 0.55938 0.0
N292 N 0.46963 0.48781 0.46883 0.0
C293 C 0.44619 0.47213 0.4151 0.0
C294 C 0.42484 0.47385 0.42724 0.0
C295 C 0.42608 0.482 0.46111 0.0
C296 C 0.44853 0.48902 0.48115 0.0
C297 C 0.46797 0.47884 0.43624 0.0
H298 H 0.44853 0.49567 0.50637 0.0
H299 H 0.48346 0.47706 0.42532 0.0
H300 H 0.56018 0.51512 0.48185 0.0
H301 H 0.51789 0.51286 0.5727 0.0
C302 C 0.47422 0.5111 0.56237 0.0
C303 C 0.52228 0.56161 0.45797 0.0
C304 C 0.4813 0.43806 0.53482 0.0
C305 C 0.53129 0.48934 0.43119 0.0
H306 H 0.51103 0.59048 0.50467 0.0
H307 H 0.48462 0.56289 0.56246 0.0
H308 H 0.44402 0.46786 0.61101 0.0
H309 H 0.44846 0.4281 0.59641 0.0
H310 H 0.49693 0.41093 0.49115 0.0
H311 H 0.525 0.43911 0.43451 0.0
H312 H 0.55681 0.53088 0.37888 0.0
H313 H 0.55163 0.57029 0.39351 0.0
H314 H 0.59815 0.52501 0.51513 0.0
H315 H 0.55432 0.52019 0.60795 0.0
H316 H 0.4466 0.4663 0.38899 0.0
H317 H 0.40988 0.48314 0.47224 0.0
H318 H 0.16588 0.42385 0.16408 0.0
H319 H 0.13224 0.4292 0.13431 0.0
H320 H 0.17159 0.50874 0.16799 0.0
H321 H 0.20403 0.5026 0.19895 0.0
H322 H 0.22594 0.45633 0.15956 0.0
H323 H 0.1513 0.42796 0.23769 0.0
H324 H 0.11714 0.42985 0.27069 0.0
H325 H 0.17965 0.49437 0.32655 0.0
H326 H 0.21354 0.49389 0.29124 0.0
H327 H 0.28681 0.50388 0.27025 0.0
H328 H 0.32197 0.509 0.30861 0.0
H329 H 0.29106 0.426 0.30426 0.0
H330 H 0.25699 0.42165 0.26373 0.0
H331 H 0.22707 0.46127 0.2881 0.0
H332 H 0.30108 0.49374 0.2057 0.0
H333 H 0.33644 0.49228 0.17548 0.0
H334 H 0.2764 0.42078 0.1287 0.0
H335 H 0.24121 0.4213 0.16148 0.0
C336 C 0.18723 0.46275 0.18391 0.0
C337 C 0.16724 0.44245 0.16476 0.0
C338 C 0.14808 0.44561 0.14768 0.0
C339 C 0.1489 0.46934 0.14898 0.0
C340 C 0.16974 0.48994 0.16714 0.0
C341 C 0.18854 0.4866 0.18458 0.0
C342 C 0.20607 0.45892 0.20485 0.0
C343 C 0.22594 0.45693 0.18772 0.0
C344 C 0.20611 0.45997 0.24156 0.0
C345 C 0.1851 0.46106 0.26145 0.0
C346 C 0.15766 0.44298 0.25637 0.0
C347 C 0.13808 0.44379 0.27579 0.0
C348 C 0.14549 0.46229 0.30141 0.0
C349 C 0.17302 0.4802 0.3066 0.0
C350 C 0.19254 0.47972 0.28669 0.0
C351 C 0.26953 0.46246 0.26408 0.0
C352 C 0.28791 0.4869 0.27726 0.0
C353 C 0.3078 0.48967 0.29957 0.0
C354 C 0.30925 0.46784 0.31016 0.0
C355 C 0.29087 0.44334 0.29646 0.0
C356 C 0.27127 0.44074 0.27341 0.0
C357 C 0.24737 0.45968 0.2428 0.0
C358 C 0.22679 0.46029 0.25996 0.0
C359 C 0.24687 0.45758 0.20626 0.0
C360 C 0.26845 0.45721 0.18677 0.0
C361 C 0.29552 0.47736 0.18969 0.0
C362 C 0.31577 0.47677 0.17172 0.0
C363 C 0.30943 0.45637 0.14955 0.0
C364 C 0.2822 0.43652 0.14604 0.0
C365 C 0.26197 0.43692 0.16451 0.0
H366 H 0.6924 0.20112 0.76363 0.0
H367 H 0.65337 0.16839 0.79851 0.0
H368 H 0.69853 0.13528 0.83745 0.0
H369 H 0.73634 0.16634 0.7989 0.0
H370 H 0.75959 0.22539 0.80444 0.0
H371 H 0.69406 0.19706 0.7052 0.0
H372 H 0.65935 0.16137 0.67287 0.0
H373 H 0.714 0.13616 0.65112 0.0
H374 H 0.74737 0.17022 0.68728 0.0
H375 H 0.81948 0.24608 0.67336 0.0
H376 H 0.85694 0.28255 0.63963 0.0
H377 H 0.84563 0.33722 0.69427 0.0
H378 H 0.80695 0.30054 0.72587 0.0
H379 H 0.76871 0.228 0.67584 0.0
H380 H 0.83935 0.26745 0.75824 0.0
H381 H 0.87347 0.30172 0.7942 0.0
H382 H 0.81173 0.30606 0.84753 0.0
H383 H 0.77782 0.27308 0.81039 0.0
C384 C 0.71679 0.18539 0.77743 0.0
C385 C 0.69339 0.186 0.77839 0.0
C386 C 0.67129 0.16762 0.7993 0.0
C387 C 0.67255 0.14901 0.82127 0.0
C388 C 0.69631 0.14872 0.82045 0.0
C389 C 0.71811 0.16662 0.79857 0.0
C390 C 0.7409 0.20629 0.75761 0.0
C391 C 0.76165 0.22626 0.77628 0.0
C392 C 0.74361 0.20673 0.72104 0.0
C393 C 0.72284 0.18558 0.70004 0.0
C394 C 0.69814 0.1832 0.69464 0.0
C395 C 0.6785 0.16308 0.67514 0.0
C396 C 0.68354 0.14549 0.65914 0.0
C397 C 0.70884 0.14864 0.66367 0.0
C398 C 0.72816 0.16834 0.68408 0.0
C399 C 0.81053 0.2705 0.70251 0.0
C400 C 0.82495 0.26592 0.67786 0.0
C401 C 0.84664 0.28689 0.65887 0.0
C402 C 0.85457 0.31298 0.66427 0.0
C403 C 0.84 0.31746 0.68898 0.0
C404 C 0.81804 0.29646 0.70751 0.0
C405 C 0.78741 0.2481 0.72253 0.0
C406 C 0.76691 0.22751 0.704 0.0
C407 C 0.78491 0.24727 0.75938 0.0
C408 C 0.80594 0.26784 0.78116 0.0
C409 C 0.83315 0.27608 0.77718 0.0
C410 C 0.85261 0.2955 0.7978 0.0
C411 C 0.84504 0.30634 0.82345 0.0
C412 C 0.81791 0.29784 0.82791 0.0
C413 C 0.79858 0.27895 0.80678 0.0
H414 H 0.58231 0.82454 0.32821 0.0
H415 H 0.57461 0.8537 0.36165 0.0
H416 H 0.50006 0.82635 0.30902 0.0
H417 H 0.50772 0.79708 0.27601 0.0
H418 H 0.55051 0.77049 0.32774 0.0
H419 H 0.5809 0.84429 0.24564 0.0
H420 H 0.57845 0.87652 0.20741 0.0
H421 H 0.51461 0.81354 0.15152 0.0
H422 H 0.51629 0.78139 0.1904 0.0
H423 H 0.51778 0.72341 0.19488 0.0
H424 H 0.51522 0.68822 0.16263 0.0
H425 H 0.58019 0.69393 0.22167 0.0
H426 H 0.58399 0.73045 0.2527 0.0
H427 H 0.55238 0.77139 0.19878 0.0
H428 H 0.51481 0.69796 0.28242 0.0
H429 H 0.5143 0.66293 0.31717 0.0
H430 H 0.58438 0.72092 0.37077 0.0
H431 H 0.58575 0.75575 0.33419 0.0
C432 C 0.54571 0.80881 0.29942 0.0
C433 C 0.56437 0.82493 0.32382 0.0
C434 C 0.56002 0.84166 0.34275 0.0
C435 C 0.53671 0.84229 0.33798 0.0
C436 C 0.51808 0.82613 0.31349 0.0
C437 C 0.52254 0.80957 0.2944 0.0
C438 C 0.54981 0.79036 0.28025 0.0
C439 C 0.55128 0.77087 0.2995 0.0
C440 C 0.55018 0.79051 0.24343 0.0
C441 C 0.54862 0.81036 0.22114 0.0
C442 C 0.56606 0.83739 0.22556 0.0
C443 C 0.56478 0.85577 0.20363 0.0
C444 C 0.54647 0.84741 0.17647 0.0
C445 C 0.52913 0.82044 0.172 0.0
C446 C 0.53008 0.80211 0.19424 0.0
C447 C 0.55091 0.72953 0.2266 0.0
C448 C 0.53182 0.71748 0.20065 0.0
C449 C 0.53028 0.69732 0.18227 0.0
C450 C 0.54745 0.68845 0.18985 0.0
C451 C 0.56664 0.70043 0.21561 0.0
C452 C 0.56868 0.72114 0.23344 0.0
C453 C 0.5518 0.75074 0.24615 0.0
C454 C 0.55161 0.77097 0.22702 0.0
C455 C 0.55173 0.75077 0.28304 0.0
C456 C 0.55065 0.72946 0.30521 0.0
C457 C 0.53026 0.7031 0.30136 0.0
C458 C 0.5298 0.68309 0.32163 0.0
C459 C 0.54934 0.68903 0.34681 0.0
C460 C 0.56932 0.71554 0.3512 0.0
C461 C 0.56998 0.73552 0.33057 0.0
H462 H 0.71659 0.50584 0.72356 0.0
H463 H 0.6809 0.50419 0.68961 0.0
H464 H 0.70373 0.58059 0.72415 0.0
H465 H 0.73844 0.58119 0.75977 0.0
H466 H 0.77172 0.54396 0.71748 0.0
H467 H 0.70046 0.50457 0.79793 0.0
H468 H 0.66174 0.49773 0.83057 0.0
H469 H 0.71355 0.56771 0.88606 0.0
H470 H 0.75226 0.57534 0.85143 0.0
H471 H 0.83342 0.58508 0.83715 0.0
H472 H 0.86846 0.58468 0.87048 0.0
H473 H 0.83752 0.50505 0.8417 0.0
H474 H 0.80352 0.50634 0.80695 0.0
H475 H 0.77484 0.54679 0.84621 0.0
H476 H 0.84888 0.57607 0.7618 0.0
H477 H 0.88048 0.57347 0.72319 0.0
H478 H 0.81406 0.50734 0.67509 0.0
H479 H 0.78259 0.50889 0.71471 0.0
C480 C 0.73011 0.54364 0.74406 0.0
C481 C 0.71378 0.52216 0.72387 0.0
C482 C 0.69351 0.52139 0.70424 0.0
C483 C 0.68954 0.54243 0.70363 0.0
C484 C 0.70591 0.56389 0.72421 0.0
C485 C 0.72589 0.56438 0.74443 0.0
C486 C 0.75198 0.54447 0.76407 0.0
C487 C 0.7724 0.54437 0.74567 0.0
C488 C 0.75253 0.54491 0.80079 0.0
C489 C 0.72923 0.54081 0.82162 0.0
C490 C 0.70349 0.51876 0.81664 0.0
C491 C 0.68135 0.51462 0.83582 0.0
C492 C 0.68445 0.53211 0.86111 0.0
C493 C 0.71035 0.55404 0.86646 0.0
C494 C 0.73254 0.55832 0.84691 0.0
C495 C 0.81602 0.54581 0.81951 0.0
C496 C 0.83435 0.56762 0.83796 0.0
C497 C 0.85426 0.56724 0.85722 0.0
C498 C 0.85591 0.54478 0.85904 0.0
C499 C 0.83732 0.52289 0.84049 0.0
C500 C 0.81769 0.52348 0.82078 0.0
C501 C 0.79479 0.54623 0.79953 0.0
C502 C 0.77442 0.54665 0.81801 0.0
C503 C 0.79351 0.54459 0.76287 0.0
C504 C 0.81327 0.54252 0.74148 0.0
C505 C 0.8411 0.56055 0.74366 0.0
C506 C 0.85914 0.55923 0.72145 0.0
C507 C 0.84953 0.54034 0.69618 0.0
C508 C 0.82183 0.52221 0.69422 0.0
C509 C 0.80391 0.52314 0.71684 0.0
H510 H 0.26154 0.83131 0.19695 0.0
H511 H 0.3008 0.86436 0.16182 0.0
H512 H 0.35076 0.84514 0.22139 0.0
H513 H 0.31124 0.81121 0.25498 0.0
H514 H 0.23924 0.77902 0.20277 0.0
H515 H 0.28219 0.8503 0.28223 0.0
H516 H 0.32125 0.88273 0.31382 0.0
H517 H 0.32271 0.81992 0.37002 0.0
H518 H 0.28457 0.78777 0.33734 0.0
H519 H 0.21674 0.72333 0.33611 0.0
H520 H 0.1793 0.68695 0.37032 0.0
H521 H 0.12365 0.69989 0.31395 0.0
H522 H 0.16131 0.73668 0.28025 0.0
H523 H 0.23471 0.77419 0.33195 0.0
H524 H 0.20622 0.70708 0.25158 0.0
H525 H 0.17638 0.6708 0.21516 0.0
H526 H 0.15242 0.7195 0.16264 0.0
H527 H 0.18256 0.75593 0.19908 0.0
C528 C 0.28347 0.81901 0.2289 0.0
C529 C 0.28097 0.83424 0.20239 0.0
C530 C 0.3035 0.85332 0.18256 0.0
C531 C 0.32902 0.85753 0.18884 0.0
C532 C 0.33142 0.84227 0.21555 0.0
C533 C 0.30886 0.82306 0.23512 0.0
C534 C 0.25938 0.79822 0.2492 0.0
C535 C 0.23798 0.77833 0.231 0.0
C536 C 0.25827 0.7967 0.28613 0.0
C537 C 0.28062 0.81657 0.30704 0.0
C538 C 0.291 0.84354 0.30128 0.0
C539 C 0.3132 0.86206 0.3196 0.0
C540 C 0.32531 0.85396 0.34427 0.0
C541 C 0.31426 0.8269 0.35074 0.0
C542 C 0.29222 0.80845 0.33233 0.0
C543 C 0.19182 0.73265 0.30555 0.0
C544 C 0.19648 0.71835 0.33114 0.0
C545 C 0.17505 0.69743 0.35046 0.0
C546 C 0.14852 0.6905 0.34474 0.0
C547 C 0.14389 0.70488 0.3191 0.0
C548 C 0.16535 0.72575 0.29965 0.0
C549 C 0.21474 0.75506 0.28547 0.0
C550 C 0.23579 0.77525 0.3037 0.0
C551 C 0.21602 0.75648 0.24866 0.0
C552 C 0.19647 0.73413 0.22814 0.0
C553 C 0.19432 0.70986 0.2325 0.0
C554 C 0.17741 0.68923 0.21157 0.0
C555 C 0.16217 0.6924 0.18606 0.0
C556 C 0.16383 0.7165 0.18227 0.0
C557 C 0.18107 0.73731 0.20293 0.0
H558 H 0.47659 0.27295 0.80808 0.0
H559 H 0.4775 0.30564 0.8434 0.0
H560 H 0.41618 0.30455 0.78026 0.0
H561 H 0.41346 0.26966 0.7472 0.0
H562 H 0.44183 0.22558 0.80054 0.0
H563 H 0.4819 0.30251 0.72024 0.0
H564 H 0.48347 0.33771 0.68436 0.0
H565 H 0.41599 0.27986 0.62684 0.0
H566 H 0.41346 0.24496 0.66434 0.0
H567 H 0.41723 0.17723 0.6676 0.0
H568 H 0.42388 0.1459 0.63808 0.0
H569 H 0.49621 0.17157 0.69553 0.0
H570 H 0.48917 0.20243 0.72519 0.0
H571 H 0.4492 0.23145 0.67156 0.0
H572 H 0.41352 0.15473 0.74803 0.0
H573 H 0.41579 0.12021 0.78075 0.0
H574 H 0.4779 0.17867 0.8437 0.0
H575 H 0.47651 0.21323 0.81011 0.0
C576 C 0.44518 0.2689 0.77456 0.0
C577 C 0.46308 0.27949 0.802 0.0
C578 C 0.46389 0.29865 0.82194 0.0
C579 C 0.44724 0.3083 0.81457 0.0
C580 C 0.42919 0.29758 0.78709 0.0
C581 C 0.4279 0.27784 0.76767 0.0
C582 C 0.44467 0.24826 0.75399 0.0
C583 C 0.44373 0.22711 0.77233 0.0
C584 C 0.44602 0.24948 0.71702 0.0
C585 C 0.44726 0.2711 0.69541 0.0
C586 C 0.46717 0.29746 0.70029 0.0
C587 C 0.46826 0.31756 0.67937 0.0
C588 C 0.44983 0.31169 0.65262 0.0
C589 C 0.43017 0.28521 0.64756 0.0
C590 C 0.42887 0.26517 0.66878 0.0
C591 C 0.4525 0.1919 0.6989 0.0
C592 C 0.43459 0.17617 0.67361 0.0
C593 C 0.43846 0.15832 0.65673 0.0
C594 C 0.46046 0.15603 0.66465 0.0
C595 C 0.47875 0.17238 0.68933 0.0
C596 C 0.47484 0.19015 0.70619 0.0
C597 C 0.44768 0.20978 0.71832 0.0
C598 C 0.44723 0.23005 0.69977 0.0
C599 C 0.4453 0.20795 0.7551 0.0
C600 C 0.44513 0.18666 0.77624 0.0
C601 C 0.4278 0.16016 0.76865 0.0
C602 C 0.42901 0.14046 0.78738 0.0
C603 C 0.44701 0.14689 0.81463 0.0
C604 C 0.4637 0.17325 0.82295 0.0
C605 C 0.46287 0.19296 0.80382 0.0
H606 H 0.0665 0.49863 0.09366 0.0
H607 H 0.06053 0.44999 0.0111 0.0
H608 H 0.09258 0.44169 0.03999 0.0
H609 H 0.1236 0.4499 0.08764 0.0
H610 H 0.12671 0.49603 0.17245 0.0
H611 H 0.09472 0.50387 0.14366 0.0
C612 C 0.07214 0.48607 0.08226 0.0
C613 C 0.06158 0.47516 0.05024 0.0
C614 C 0.09021 0.48115 0.09924 0.0
C615 C 0.06874 0.45876 0.03563 0.0
C616 C 0.08701 0.45404 0.05213 0.0
C617 C 0.11703 0.46134 0.10017 0.0
C618 C 0.12807 0.47269 0.132 0.0
C619 C 0.09807 0.46534 0.08383 0.0
C620 C 0.1193 0.48764 0.14751 0.0
C621 C 0.10076 0.49198 0.13122 0.0
H622 H 0.60328 0.04597 0.57437 0.0
H623 H 0.57016 0.09332 0.55081 0.0
H624 H 0.60504 0.12869 0.5844 0.0
H625 H 0.64495 0.14608 0.61978 0.0
H626 H 0.67453 0.09635 0.64995 0.0
H627 H 0.64126 0.06217 0.61415 0.0
C628 C 0.60352 0.06389 0.57715 0.0
C629 C 0.58412 0.06704 0.56053 0.0
C630 C 0.62311 0.08378 0.59738 0.0
C631 C 0.5849 0.09053 0.56357 0.0
C632 C 0.6048 0.11069 0.58274 0.0
C633 C 0.64395 0.12765 0.61932 0.0
C634 C 0.66264 0.1242 0.6377 0.0
C635 C 0.62398 0.10751 0.59982 0.0
C636 C 0.66107 0.10015 0.6356 0.0
C637 C 0.64178 0.08034 0.61534 0.0
H638 H 0.52166 0.58178 0.13177 0.0
H639 H 0.5423 0.62794 0.0344 0.0
H640 H 0.55123 0.6659 0.06555 0.0
H641 H 0.55241 0.68603 0.12043 0.0
H642 H 0.53589 0.6413 0.21786 0.0
H643 H 0.52703 0.60296 0.18673 0.0
C644 C 0.52865 0.6002 0.11721 0.0
C645 C 0.53089 0.6016 0.08052 0.0
C646 C 0.53467 0.62234 0.13537 0.0
C647 C 0.53956 0.62579 0.06246 0.0
C648 C 0.54498 0.64771 0.08029 0.0
C649 C 0.54708 0.6679 0.13471 0.0
C650 C 0.54468 0.66628 0.17122 0.0
C651 C 0.54239 0.64615 0.11669 0.0
C652 C 0.53796 0.64288 0.18969 0.0
C653 C 0.53277 0.62099 0.17191 0.0
H654 H 0.915 0.53523 0.57078 0.0
H655 H 0.95235 0.51815 0.65554 0.0
H656 H 0.92563 0.52445 0.69752 0.0
H657 H 0.89004 0.5329 0.71047 0.0
H658 H 0.84995 0.54591 0.62584 0.0
H659 H 0.87898 0.5427 0.58353 0.0
C660 C 0.91715 0.53257 0.59839 0.0
C661 C 0.93585 0.52631 0.60975 0.0
C662 C 0.90111 0.53543 0.62251 0.0
C663 C 0.93858 0.52349 0.64582 0.0
C664 C 0.92311 0.52686 0.66997 0.0
C665 C 0.88793 0.53524 0.68274 0.0
C666 C 0.86812 0.53973 0.67109 0.0
C667 C 0.9042 0.53268 0.65863 0.0
C668 C 0.86516 0.54242 0.6352 0.0
C669 C 0.8817 0.54057 0.61109 0.0
H670 H 0.43362 0.92651 0.09315 0.0
H671 H 0.40463 0.97856 0.08953 0.0
H672 H 0.36703 0.94815 0.12943 0.0
H673 H 0.34191 0.90614 0.16388 0.0
H674 H 0.36976 0.85295 0.16418 0.0
H675 H 0.40848 0.8845 0.12745 0.0
C676 C 0.4191 0.93115 0.10143 0.0
C677 C 0.4218 0.95466 0.08896 0.0
C678 C 0.3974 0.91339 0.12368 0.0
C679 C 0.40292 0.96061 0.09933 0.0
C680 C 0.38145 0.9432 0.12192 0.0
C681 C 0.35633 0.90135 0.15573 0.0
C682 C 0.35287 0.87716 0.16694 0.0
C683 C 0.37834 0.9194 0.134 0.0
C684 C 0.37207 0.87154 0.15651 0.0
C685 C 0.39415 0.8895 0.13525 0.0
H686 H 0.43662 0.39129 0.55534 0.0
H687 H 0.52289 0.43603 0.56083 0.0
H688 H 0.52101 0.40056 0.59696 0.0
H689 H 0.49468 0.35725 0.62759 0.0
H690 H 0.40798 0.31413 0.62621 0.0
H691 H 0.41013 0.34846 0.58781 0.0
C692 C 0.45491 0.39316 0.56465 0.0
C693 C 0.47982 0.41609 0.55586 0.0
C694 C 0.45358 0.37305 0.5861 0.0
C695 C 0.50353 0.41843 0.56752 0.0
C696 C 0.50243 0.39825 0.58819 0.0
C697 C 0.47621 0.35546 0.61934 0.0
C698 C 0.45122 0.333 0.62981 0.0
C699 C 0.47754 0.37557 0.59789 0.0
C700 C 0.42754 0.33092 0.61816 0.0
C701 C 0.42871 0.35064 0.59634 0.0
H702 H 0.49612 0.90016 0.4283 0.0
H703 H 0.57781 0.96469 0.40822 0.0
H704 H 0.5872 0.9364 0.37572 0.0
H705 H 0.57186 0.89352 0.35184 0.0
H706 H 0.48989 0.82927 0.37107 0.0
H707 H 0.48092 0.85721 0.40496 0.0
C708 C 0.51605 0.90792 0.41713 0.0
C709 C 0.53626 0.93444 0.42073 0.0
C710 C 0.5212 0.89163 0.39813 0.0
C711 C 0.56187 0.94437 0.40562 0.0
C712 C 0.56727 0.9282 0.3871 0.0
C713 C 0.55211 0.88561 0.36371 0.0
C714 C 0.53156 0.85937 0.35889 0.0
C715 C 0.54704 0.90184 0.38301 0.0
C716 C 0.50596 0.84949 0.37404 0.0
C717 C 0.50085 0.86541 0.39357 0.0
H718 H 0.57479 0.49184 0.94275 0.0
H719 H 0.60665 0.57484 0.94143 0.0
H720 H 0.6473 0.58402 0.90998 0.0
H721 H 0.67317 0.56807 0.88196 0.0
H722 H 0.64207 0.4849 0.8871 0.0
H723 H 0.60172 0.47612 0.91783 0.0
C724 C 0.59074 0.5119 0.93556 0.0
C725 C 0.58781 0.53266 0.94383 0.0
C726 C 0.61409 0.51695 0.91815 0.0
C727 C 0.60852 0.55862 0.93481 0.0
C728 C 0.6317 0.56382 0.91699 0.0
C729 C 0.65776 0.54806 0.89021 0.0
C730 C 0.66063 0.52719 0.88176 0.0
C731 C 0.63468 0.54311 0.90844 0.0
C732 C 0.64023 0.50134 0.89244 0.0
C733 C 0.61717 0.49627 0.91026 0.0
H734 H 0.04872 0.61054 0.4427 0.0
H735 H 0.08289 0.5637 0.42943 0.0
H736 H 0.11849 0.59848 0.39089 0.0
H737 H 0.14018 0.64249 0.36194 0.0
H738 H 0.1061 0.68955 0.37521 0.0
H739 H 0.06984 0.65429 0.4122 0.0
C740 C 0.0639 0.60803 0.43102 0.0
C741 C 0.06336 0.58479 0.43848 0.0
C742 C 0.08418 0.62806 0.40891 0.0
C743 C 0.0831 0.58156 0.42373 0.0
C744 C 0.10336 0.60138 0.4018 0.0
C745 C 0.12487 0.64505 0.37305 0.0
C746 C 0.1259 0.66863 0.36596 0.0
C747 C 0.1042 0.62478 0.39439 0.0
C748 C 0.10564 0.6715 0.38003 0.0
C749 C 0.085 0.65142 0.40135 0.0
H750 H 0.46891 0.06176 0.87535 0.0
H751 H 0.45649 0.08809 0.97211 0.0
H752 H 0.44701 0.11782 0.93999 0.0
H753 H 0.44424 0.13784 0.88445 0.0
H754 H 0.45455 0.11025 0.7878 0.0
H755 H 0.46212 0.07891 0.81989 0.0
C756 C 0.46363 0.07359 0.88951 0.0
C757 C 0.46382 0.07289 0.92617 0.0
C758 C 0.45779 0.0904 0.87089 0.0
C759 C 0.45719 0.08866 0.94392 0.0
C760 C 0.45157 0.10556 0.92559 0.0
C761 C 0.448 0.12482 0.87053 0.0
C762 C 0.44906 0.12636 0.83397 0.0
C763 C 0.45224 0.10689 0.8891 0.0
C764 C 0.45358 0.10925 0.81602 0.0
C765 C 0.45803 0.09147 0.83433 0.0
H766 H 0.39639 0.49767 0.42487 0.0
H767 H 0.40187 0.43704 0.37748 0.0
H768 H 0.36721 0.43021 0.33691 0.0
H769 H 0.33631 0.44238 0.31362 0.0
H770 H 0.32763 0.49961 0.36554 0.0
H771 H 0.36248 0.50659 0.40558 0.0
C772 C 0.38971 0.48253 0.40625 0.0
C773 C 0.40211 0.46813 0.40425 0.0
C774 C 0.36927 0.47819 0.38347 0.0
C775 C 0.39329 0.44895 0.37928 0.0
C776 C 0.37326 0.44485 0.35614 0.0
C777 C 0.34165 0.45607 0.334 0.0
C778 C 0.32952 0.47075 0.33589 0.0
C779 C 0.36127 0.45953 0.35778 0.0
C780 C 0.33708 0.48858 0.36249 0.0
C781 C 0.35689 0.49244 0.38575 0.0
H782 H 0.91837 0.38015 0.93958 0.0
H783 H 0.95042 0.43633 0.85139 0.0
H784 H 0.9214 0.40185 0.81278 0.0
H785 H 0.88485 0.35605 0.80417 0.0
H786 H 0.84966 0.30128 0.89299 0.0
H787 H 0.8815 0.33496 0.93133 0.0
C788 C 0.91889 0.38506 0.91201 0.0
C789 C 0.93677 0.41102 0.89869 0.0
C790 C 0.90139 0.36532 0.88999 0.0
C791 C 0.93738 0.41657 0.86258 0.0
C792 C 0.92054 0.39686 0.84039 0.0
C793 C 0.88444 0.35158 0.8319 0.0
C794 C 0.86525 0.32636 0.84593 0.0
C795 C 0.90228 0.37124 0.85383 0.0
C796 C 0.86444 0.32065 0.88184 0.0
C797 C 0.88257 0.33987 0.90367 0.0
H798 H 0.94035 0.5514 0.96719 0.0
H799 H 0.94512 0.5018 0.89426 0.0
H800 H 0.91281 0.50446 0.85705 0.0
H801 H 0.88304 0.52062 0.84573 0.0
H802 H 0.87535 0.56714 0.92157 0.0
H803 H 0.90908 0.56616 0.95692 0.0
C804 C 0.93405 0.54103 0.94327 0.0
C805 C 0.94473 0.5262 0.93351 0.0
C806 C 0.91508 0.5422 0.92249 0.0
C807 C 0.93693 0.51319 0.90224 0.0
C808 C 0.91849 0.5147 0.88105 0.0
C809 C 0.88839 0.53027 0.87019 0.0
C810 C 0.87657 0.54404 0.88067 0.0
C811 C 0.90731 0.52903 0.89103 0.0
C812 C 0.88438 0.55683 0.91225 0.0
C813 C 0.90355 0.55611 0.93276 0.0
H814 H 0.43434 0.92403 0.42187 0.0
H815 H 0.40161 0.97228 0.4329 0.0
H816 H 0.36179 0.94125 0.40083 0.0
H817 H 0.33603 0.89983 0.37084 0.0
H818 H 0.36961 0.85213 0.35903 0.0
H819 H 0.40917 0.88325 0.39051 0.0
C820 C 0.41844 0.92765 0.41702 0.0
C821 C 0.42064 0.9502 0.42942 0.0
C822 C 0.39576 0.90977 0.3987 0.0
C823 C 0.40012 0.95495 0.42332 0.0
C824 C 0.37745 0.93724 0.4051 0.0
C825 C 0.35211 0.89638 0.37482 0.0
C826 C 0.34967 0.87351 0.36275 0.0
C827 C 0.375 0.91451 0.39275 0.0
C828 C 0.37065 0.86926 0.36856 0.0
C829 C 0.39341 0.88715 0.38637 0.0
H830 H 0.43513 0.388 0.90322 0.0
H831 H 0.51895 0.41815 0.9193 0.0
H832 H 0.51686 0.38541 0.88187 0.0
H833 H 0.49145 0.34873 0.84437 0.0
H834 H 0.40637 0.31542 0.83268 0.0
H835 H 0.40894 0.34939 0.8676 0.0
C836 C 0.45286 0.38729 0.89845 0.0
C837 C 0.47714 0.40534 0.91392 0.0
C838 C 0.45137 0.36807 0.87743 0.0
C839 C 0.5 0.40425 0.90784 0.0
C840 C 0.49883 0.38564 0.88635 0.0
C841 C 0.47326 0.34844 0.84984 0.0
C842 C 0.44874 0.32927 0.83568 0.0
C843 C 0.47461 0.36742 0.87108 0.0
C844 C 0.42569 0.33004 0.8425 0.0
C845 C 0.42705 0.34936 0.86284 0.0
H846 H 0.04978 0.44512 0.39858 0.0
H847 H 0.10261 0.52898 0.40339 0.0
H848 H 0.13442 0.52891 0.36245 0.0
H849 H 0.14741 0.50491 0.32641 0.0
H850 H 0.09668 0.42031 0.32593 0.0
H851 H 0.06352 0.42081 0.36319 0.0
C852 C 0.06825 0.4633 0.39041 0.0
C853 C 0.07405 0.48702 0.40367 0.0
C854 C 0.08668 0.46298 0.36756 0.0
C855 C 0.09798 0.51054 0.39337 0.0
C856 C 0.11607 0.51048 0.37002 0.0
C857 C 0.12931 0.48648 0.33473 0.0
C858 C 0.12475 0.46262 0.32324 0.0
C859 C 0.11073 0.48678 0.3572 0.0
C860 C 0.10069 0.43907 0.33374 0.0
C861 C 0.08176 0.43928 0.35539 0.0
H862 H 0.57251 0.08681 0.92655 0.0
H863 H 0.59507 0.02981 0.9245 0.0
H864 H 0.63128 0.05801 0.88172 0.0
H865 H 0.65629 0.09887 0.84514 0.0
H866 H 0.63721 0.15836 0.85408 0.0
H867 H 0.59965 0.12901 0.89334 0.0
C868 C 0.58545 0.08068 0.91667 0.0
C869 C 0.58099 0.05621 0.92801 0.0
C870 C 0.60671 0.09735 0.89318 0.0
C871 C 0.59795 0.04844 0.91553 0.0
C872 C 0.61866 0.06458 0.89126 0.0
C873 C 0.64428 0.10571 0.85595 0.0
C874 C 0.64967 0.13088 0.84588 0.0
C875 C 0.62326 0.08913 0.87994 0.0
C876 C 0.63331 0.13892 0.86012 0.0
C877 C 0.61189 0.12223 0.88306 0.0
H878 H 0.56633 0.60811 0.43495 0.0
H879 H 0.47981 0.56392 0.43668 0.0
H880 H 0.48038 0.59982 0.40349 0.0
H881 H 0.50555 0.64347 0.37375 0.0
H882 H 0.59228 0.68647 0.36828 0.0
H883 H 0.59162 0.65149 0.40344 0.0
C884 C 0.5477 0.60642 0.42775 0.0
C885 C 0.52307 0.58353 0.43774 0.0
C886 C 0.54823 0.6269 0.40819 0.0
C887 C 0.49894 0.58146 0.42894 0.0
C888 C 0.49929 0.60191 0.41001 0.0
C889 C 0.52434 0.64511 0.3798 0.0
C890 C 0.54891 0.66768 0.36831 0.0
C891 C 0.52383 0.62466 0.39933 0.0
C892 C 0.57304 0.66958 0.37718 0.0
C893 C 0.57271 0.64948 0.39709 0.0
H894 H 0.48526 0.07262 0.61429 0.0
H895 H 0.45985 0.0894 0.5167 0.0
H896 H 0.45185 0.12024 0.54464 0.0
H897 H 0.45287 0.14312 0.59655 0.0
H898 H 0.47658 0.1249 0.69454 0.0
H899 H 0.48432 0.09393 0.66664 0.0
C900 C 0.47759 0.08271 0.59918 0.0
C901 C 0.47325 0.07867 0.56337 0.0
C902 C 0.47285 0.1003 0.61545 0.0
C903 C 0.46377 0.09236 0.54417 0.0
C904 C 0.45904 0.10992 0.56017 0.0
C905 C 0.45942 0.13215 0.61192 0.0
C906 C 0.4643 0.13654 0.64758 0.0
C907 C 0.46363 0.11415 0.59576 0.0
C908 C 0.47313 0.12234 0.66693 0.0
C909 C 0.4774 0.10447 0.65104 0.0
H910 H 0.39019 0.4363 0.06866 0.0
H911 H 0.43579 0.52086 0.05912 0.0
H912 H 0.40034 0.52162 0.09123 0.0
H913 H 0.35617 0.4982 0.12087 0.0
H914 H 0.31168 0.41355 0.13408 0.0
H915 H 0.34671 0.41283 0.10135 0.0
C916 C 0.39239 0.45483 0.07412 0.0
C917 C 0.41553 0.4785 0.06202 0.0
C918 C 0.37207 0.45508 0.09291 0.0
C919 C 0.41812 0.50244 0.06851 0.0
C920 C 0.39789 0.50286 0.08677 0.0
C921 C 0.35422 0.47956 0.11718 0.0
C922 C 0.3311 0.45597 0.12999 0.0
C923 C 0.37475 0.47929 0.09904 0.0
C924 C 0.3289 0.43203 0.12407 0.0
C925 C 0.34906 0.43159 0.10557 0.0
H926 H 0.95867 0.39654 0.57476 0.0
H927 H 0.91799 0.43822 0.57487 0.0
H928 H 0.8809 0.40225 0.61026 0.0
H929 H 0.85961 0.35856 0.63945 0.0
H930 H 0.90164 0.31792 0.64291 0.0
H931 H 0.9385 0.35373 0.60759 0.0
C932 C 0.94182 0.39778 0.58307 0.0
C933 C 0.94097 0.4199 0.57265 0.0
C934 C 0.92076 0.37717 0.6037 0.0
C935 C 0.91894 0.4213 0.58289 0.0
C936 C 0.8978 0.40079 0.60301 0.0
C937 C 0.87699 0.35764 0.6331 0.0
C938 C 0.8776 0.33535 0.64382 0.0
C939 C 0.89844 0.37857 0.61343 0.0
C940 C 0.90022 0.33448 0.63453 0.0
C941 C 0.92148 0.35508 0.61453 0.0
H942 H 0.53652 0.91673 0.05752 0.0
H943 H 0.52652 0.95192 0.14693 0.0
H944 H 0.534 0.92359 0.18571 0.0
H945 H 0.5413 0.88734 0.19458 0.0
H946 H 0.54821 0.85008 0.10562 0.0
H947 H 0.54359 0.88038 0.06634 0.0
C948 C 0.53575 0.91808 0.08548 0.0
C949 C 0.53105 0.93656 0.09914 0.0
C950 C 0.5394 0.90126 0.10777 0.0
C951 C 0.53058 0.93827 0.13552 0.0
C952 C 0.53464 0.92191 0.15782 0.0
C953 C 0.54206 0.8861 0.16658 0.0
C954 C 0.54511 0.86665 0.15289 0.0
C955 C 0.53889 0.90322 0.14426 0.0
C956 C 0.54572 0.86489 0.11663 0.0
C957 C 0.54312 0.88219 0.09422 0.0
H958 H 0.59756 0.54762 0.62621 0.0
H959 H 0.61167 0.50381 0.55264 0.0
H960 H 0.64778 0.50775 0.58765 0.0
H961 H 0.67473 0.52254 0.63947 0.0
H962 H 0.65743 0.56162 0.71689 0.0
H963 H 0.62327 0.56058 0.67991 0.0
C964 C 0.60825 0.53863 0.61792 0.0
C965 C 0.60183 0.52564 0.58643 0.0
C966 C 0.62851 0.54011 0.63888 0.0
C967 C 0.61643 0.51456 0.57611 0.0
C968 C 0.63698 0.51653 0.59636 0.0
C969 C 0.66326 0.53048 0.6487 0.0
C970 C 0.66873 0.54204 0.68114 0.0
C971 C 0.64307 0.52909 0.62786 0.0
C972 C 0.65404 0.5529 0.6919 0.0
C973 C 0.6343 0.55213 0.67086 0.0
H974 H 0.10784 0.60037 0.08241 0.0
H975 H 0.03929 0.60561 0.10504 0.0
H976 H 0.06635 0.64171 0.14319 0.0
H977 H 0.10969 0.67174 0.17033 0.0
H978 H 0.17754 0.66502 0.14916 0.0
H979 H 0.15068 0.62963 0.1102 0.0
C980 C 0.09892 0.60957 0.09554 0.0
C981 C 0.0717 0.6005 0.0908 0.0
C982 C 0.11447 0.63 0.11774 0.0
C983 C 0.06021 0.61223 0.10842 0.0
C984 C 0.07568 0.6329 0.13012 0.0
C985 C 0.11854 0.66255 0.15703 0.0
C986 C 0.14552 0.67093 0.16255 0.0
C987 C 0.10285 0.64194 0.13501 0.0
C988 C 0.15674 0.65872 0.1455 0.0
C989 C 0.14143 0.63857 0.12315 0.0
loop_
_geom_bond_atom_site_label_1
_geom_bond_atom_site_label_2
_geom_bond_distance
_geom_bond_site_symmetry_2
_ccdc_geom_bond_type
C0 C1 1.443 1_556 S
C0 N4 1.376 1_556 S
C0 C38 1.389 . S
C1 C0 1.443 1_554 S
C1 C2 1.340 . S
C1 H41 0.951 1_554 S
C2 C1 1.340 . S
C2 C3 1.439 . S
C2 H42 0.950 . S
C3 C2 1.439 . S
C3 N4 1.374 . S
C3 C37 1.395 . S
N4 C0 1.376 1_554 S
N4 C3 1.374 . S
N4 Co5 1.996 1_655 S
Co5 N4 1.996 1_455 S
Co5 N6 2.014 1_455 S
Co5 N11 2.020 1_554 S
Co5 N16 1.975 1_554 S
Co5 N21 2.295 . S
Co5 N27 2.270 1_454 S
N6 Co5 2.014 1_655 S
N6 C7 1.376 . S
N6 C10 1.383 1_655 S
C7 N6 1.376 . S
C7 C8 1.446 . S
C7 C37 1.391 . S
C8 C7 1.446 . S
C8 C9 1.339 1_655 S
C8 H43 0.949 . S
C9 C8 1.339 1_455 S
C9 C10 1.439 . S
C9 H44 0.950 . S
C10 N6 1.383 1_455 S
C10 C9 1.439 . S
C10 C39 1.392 . S
N11 Co5 2.020 1_556 S
N11 C12 1.376 1_556 S
N11 C15 1.374 . S
C12 N11 1.376 1_554 S
C12 C13 1.443 1_554 S
C12 C39 1.389 . S
C13 C12 1.443 1_556 S
C13 C14 1.340 . S
C13 H45 0.951 1_556 S
C14 C13 1.340 . S
C14 C15 1.439 . S
C14 H46 0.950 . S
C15 N11 1.374 . S
C15 C14 1.439 . S
C15 C40 1.395 . S
N16 Co5 1.975 1_556 S
N16 C17 1.376 . S
N16 C20 1.383 1_455 S
C17 N16 1.376 . S
C17 C18 1.446 . S
C17 C40 1.391 . S
C18 C17 1.446 . S
C18 C19 1.339 1_455 S
C18 H47 0.949 . S
C19 C18 1.339 1_655 S
C19 C20 1.439 . S
C19 H48 0.950 . S
C20 N16 1.383 1_655 S
C20 C19 1.439 . S
C20 C38 1.392 . S
N21 Co5 2.295 . S
N21 C24 1.332 . S
N21 C26 1.332 . S
C22 C23 1.386 . S
C22 C25 1.388 . S
C23 C22 1.386 . S
C23 C24 1.382 . S
C23 H49 0.950 . S
C24 N21 1.332 . S
C24 C23 1.382 . S
C24 H35 0.952 1_554 S
C25 C22 1.388 . S
C25 C26 1.382 . S
C25 H50 0.950 . S
C26 N21 1.332 . S
C26 C25 1.382 . S
C26 H36 0.948 . S
N27 Co5 2.270 1_656 S
N27 C31 1.332 . S
N27 C32 1.332 . S
C28 C29 1.388 . S
C28 C32 1.382 . S
C28 H51 0.950 . S
C29 C28 1.388 . S
C29 C30 1.386 . S
C30 C29 1.386 . S
C30 C31 1.382 . S
C30 H52 0.950 . S
C31 N27 1.332 . S
C31 C30 1.382 . S
C31 H33 0.952 1_556 S
C32 N27 1.332 . S
C32 C28 1.382 . S
C32 H34 0.948 . S
H33 C31 0.952 1_554 S
H34 C32 0.948 . S
H35 C24 0.952 1_556 S
H36 C26 0.948 . S
C37 C3 1.395 . S
C37 C7 1.391 . S
C38 C0 1.389 . S
C38 C20 1.392 . S
C39 C10 1.392 . S
C39 C12 1.389 . S
C40 C15 1.395 . S
C40 C17 1.391 . S
H41 C1 0.951 1_556 S
H42 C2 0.950 . S
H43 C8 0.949 . S
H44 C9 0.950 . S
H45 C13 0.951 1_554 S
H46 C14 0.950 . S
H47 C18 0.949 . S
H48 C19 0.950 . S
H49 C23 0.950 . S
H50 C25 0.950 . S
H51 C28 0.950 . S
H52 C30 0.950 . S
C53 C54 1.443 . S
C53 N57 1.375 1_545 S
C53 C91 1.389 . S
C54 C53 1.443 . S
C54 C55 1.340 1_545 S
C54 H94 0.951 . S
C55 C54 1.340 1_565 S
C55 C56 1.439 . S
C55 H95 0.950 . S
C56 C55 1.439 . S
C56 N57 1.376 . S
C56 C90 1.395 . S
N57 C53 1.375 1_565 S
N57 C56 1.376 . S
N57 Co58 2.007 1_565 S
Co58 N57 2.007 1_545 S
Co58 N59 1.995 1_545 S
Co58 N64 2.008 . S
Co58 N69 1.995 . S
Co58 N74 2.282 1_545 S
Co58 N80 2.282 . S
N59 Co58 1.995 1_565 S
N59 C60 1.376 . S
N59 C63 1.383 . S
C60 N59 1.376 . S
C60 C61 1.446 . S
C60 C90 1.391 . S
C61 C60 1.446 . S
C61 C62 1.339 . S
C61 H96 0.949 . S
C62 C61 1.339 . S
C62 C63 1.439 . S
C62 H97 0.950 . S
C63 N59 1.383 . S
C63 C62 1.439 . S
C63 C92 1.392 . S
N64 Co58 2.008 . S
N64 C65 1.376 1_545 S
N64 C68 1.374 . S
C65 N64 1.376 1_565 S
C65 C66 1.443 . S
C65 C92 1.389 . S
C66 C65 1.443 . S
C66 C67 1.340 1_565 S
C66 H98 0.951 . S
C67 C66 1.340 1_545 S
C67 C68 1.439 . S
C67 H99 0.950 . S
C68 N64 1.374 . S
C68 C67 1.439 . S
C68 C93 1.395 . S
N69 Co58 1.995 . S
N69 C70 1.376 . S
N69 C73 1.383 . S
C70 N69 1.376 . S
C70 C71 1.446 . S
C70 C93 1.391 . S
C71 C70 1.446 . S
C71 C72 1.339 . S
C71 H100 0.949 . S
C72 C71 1.339 . S
C72 C73 1.439 . S
C72 H101 0.950 . S
C73 N69 1.383 . S
C73 C72 1.439 . S
C73 C91 1.392 . S
N74 Co58 2.282 1_565 S
N74 C77 1.332 . S
N74 C79 1.332 . S
C75 C76 1.386 . S
C75 C78 1.388 . S
C76 C75 1.386 . S
C76 C77 1.382 . S
C76 H102 0.950 . S
C77 N74 1.332 . S
C77 C76 1.382 . S
C77 H88 0.952 1_565 S
C78 C75 1.388 . S
C78 C79 1.382 . S
C78 H103 0.950 . S
C79 N74 1.332 . S
C79 C78 1.382 . S
C79 H89 0.948 . S
N80 Co58 2.282 . S
N80 C84 1.332 . S
N80 C85 1.332 . S
C81 C82 1.388 . S
C81 C85 1.382 . S
C81 H104 0.950 . S
C82 C81 1.388 . S
C82 C83 1.386 . S
C83 C82 1.386 . S
C83 C84 1.382 . S
C83 H105 0.950 . S
C84 N80 1.332 . S
C84 C83 1.382 . S
C84 H86 0.925 1_545 S
C85 N80 1.332 . S
C85 C81 1.382 . S
C85 H87 0.948 . S
H86 C84 0.925 1_565 S
H87 C85 0.948 . S
H88 C77 0.952 1_545 S
H89 C79 0.948 . S
C90 C56 1.395 . S
C90 C60 1.391 . S
C91 C53 1.389 . S
C91 C73 1.392 . S
C92 C63 1.392 . S
C92 C65 1.389 . S
C93 C68 1.395 . S
C93 C70 1.391 . S
H94 C54 0.951 . S
H95 C55 0.950 . S
H96 C61 0.949 . S
H97 C62 0.950 . S
H98 C66 0.951 . S
H99 C67 0.950 . S
H100 C71 0.949 . S
H101 C72 0.950 . S
H102 C76 0.950 . S
H103 C78 0.950 . S
H104 C81 0.950 . S
H105 C83 0.950 . S
C106 C107 1.443 . S
C106 N110 1.376 . S
C106 C144 1.389 . S
C107 C106 1.443 . S
C107 C108 1.340 . S
C107 H147 0.951 . S
C108 C107 1.340 . S
C108 C109 1.439 . S
C108 H148 0.950 . S
C109 C108 1.439 . S
C109 N110 1.374 . S
C109 C143 1.395 . S
N110 C106 1.376 . S
N110 C109 1.374 . S
N110 Co111 1.992 1_556 S
Co111 N110 1.992 1_554 S
Co111 N112 1.990 1_554 S
Co111 N117 2.024 . S
Co111 N122 1.999 . S
Co111 N127 2.292 . S
Co111 N133 2.273 1_554 S
N112 Co111 1.990 1_556 S
N112 C113 1.376 . S
N112 C116 1.383 1_556 S
C113 N112 1.376 . S
C113 C114 1.446 . S
C113 C143 1.391 . S
C114 C113 1.446 . S
C114 C115 1.339 . S
C114 H149 0.949 . S
C115 C114 1.339 . S
C115 C116 1.439 1_556 S
C115 H150 0.950 1_556 S
C116 N112 1.383 1_554 S
C116 C115 1.439 1_554 S
C116 C145 1.392 . S
N117 Co111 2.024 . S
N117 C118 1.376 . S
N117 C121 1.374 . S
C118 N117 1.376 . S
C118 C119 1.443 . S
C118 C145 1.389 . S
C119 C118 1.443 . S
C119 C120 1.340 . S
C119 H151 0.951 . S
C120 C119 1.340 . S
C120 C121 1.439 . S
C120 H152 0.950 . S
C121 N117 1.374 . S
C121 C120 1.439 . S
C121 C146 1.395 . S
N122 Co111 1.999 . S
N122 C123 1.376 . S
N122 C126 1.383 1_554 S
C123 N122 1.376 . S
C123 C124 1.446 . S
C123 C146 1.391 . S
C124 C123 1.446 . S
C124 C125 1.339 . S
C124 H153 0.949 . S
C125 C124 1.339 . S
C125 C126 1.439 1_554 S
C125 H154 0.947 1_554 S
C126 N122 1.383 1_556 S
C126 C125 1.439 1_556 S
C126 C144 1.392 . S
N127 Co111 2.292 . S
N127 C130 1.332 . S
N127 C132 1.332 . S
C128 C129 1.386 . S
C128 C131 1.388 . S
C129 C128 1.386 . S
C129 C130 1.382 . S
C129 H155 0.950 . S
C130 N127 1.332 . S
C130 C129 1.382 . S
C130 H141 0.952 . S
C131 C128 1.388 . S
C131 C132 1.382 . S
C131 H156 0.950 . S
C132 N127 1.332 . S
C132 C131 1.382 . S
C132 H142 0.948 1_554 S
N133 Co111 2.273 1_556 S
N133 C137 1.332 . S
N133 C138 1.332 . S
C134 C135 1.388 . S
C134 C138 1.382 . S
C134 H157 0.950 . S
C135 C134 1.388 . S
C135 C136 1.386 . S
C136 C135 1.386 . S
C136 C137 1.382 . S
C136 H158 0.950 . S
C137 N133 1.332 . S
C137 C136 1.382 . S
C137 H139 0.952 . S
C138 N133 1.332 . S
C138 C134 1.382 . S
C138 H140 0.948 1_556 S
H139 C137 0.952 . S
H140 C138 0.948 1_554 S
H141 C130 0.952 . S
H142 C132 0.948 1_556 S
C143 C109 1.395 . S
C143 C113 1.391 . S
C144 C106 1.389 . S
C144 C126 1.392 . S
C145 C116 1.392 . S
C145 C118 1.389 . S
C146 C121 1.395 . S
C146 C123 1.391 . S
H147 C107 0.951 . S
H148 C108 0.950 . S
H149 C114 0.949 . S
H150 C115 0.950 1_554 S
H151 C119 0.951 . S
H152 C120 0.950 . S
H153 C124 0.949 . S
H154 C125 0.947 1_556 S
H155 C129 0.950 . S
H156 C131 0.950 . S
H157 C134 0.950 . S
H158 C136 0.950 . S
C159 C160 1.443 . S
C159 N163 1.376 . S
C159 C197 1.389 . S
C160 C159 1.443 . S
C160 C161 1.340 . S
C160 H200 0.951 . S
C161 C160 1.340 . S
C161 C162 1.439 . S
C161 H201 0.950 . S
C162 C161 1.439 . S
C162 N163 1.374 . S
C162 C196 1.395 . S
N163 C159 1.376 . S
N163 C162 1.374 . S
N163 Co164 1.998 1_655 S
Co164 N163 1.998 1_455 S
Co164 N165 1.989 1_455 S
Co164 N170 2.018 . S
Co164 N175 2.001 . S
Co164 N180 2.295 . S
Co164 N186 2.270 1_455 S
N165 Co164 1.989 1_655 S
N165 C166 1.376 . S
N165 C169 1.383 1_655 S
C166 N165 1.376 . S
C166 C167 1.446 . S
C166 C196 1.391 . S
C167 C166 1.446 . S
C167 C168 1.339 1_655 S
C167 H202 0.949 . S
C168 C167 1.339 1_455 S
C168 C169 1.439 . S
C168 H203 0.950 . S
C169 N165 1.383 1_455 S
C169 C168 1.439 . S
C169 C198 1.392 . S
N170 Co164 2.018 . S
N170 C171 1.376 . S
N170 C174 1.374 . S
C171 N170 1.376 . S
C171 C172 1.443 . S
C171 C198 1.389 . S
C172 C171 1.443 . S
C172 C173 1.340 . S
C172 H204 0.951 . S
C173 C172 1.340 . S
C173 C174 1.439 . S
C173 H205 0.950 . S
C174 N170 1.374 . S
C174 C173 1.439 . S
C174 C199 1.395 . S
N175 Co164 2.001 . S
N175 C176 1.376 . S
N175 C179 1.383 1_455 S
C176 N175 1.376 . S
C176 C177 1.446 . S
C176 C199 1.391 . S
C177 C176 1.446 . S
C177 C178 1.339 1_455 S
C177 H206 0.949 . S
C178 C177 1.339 1_655 S
C178 C179 1.439 . S
C178 H207 0.950 . S
C179 N175 1.383 1_655 S
C179 C178 1.439 . S
C179 C197 1.392 . S
N180 Co164 2.295 . S
N180 C183 1.332 . S
N180 C185 1.332 . S
C181 C182 1.386 . S
C181 C184 1.388 . S
C182 C181 1.386 . S
C182 C183 1.382 . S
C182 H208 0.950 . S
C183 N180 1.332 . S
C183 C182 1.382 . S
C183 H194 0.952 . S
C184 C181 1.388 . S
C184 C185 1.382 . S
C184 H209 0.950 . S
C185 N180 1.332 . S
C185 C184 1.382 . S
C185 H195 0.948 . S
N186 Co164 2.270 1_655 S
N186 C190 1.332 . S
N186 C191 1.332 . S
C187 C188 1.388 . S
C187 C191 1.382 . S
C187 H210 0.950 . S
C188 C187 1.388 . S
C188 C189 1.386 . S
C189 C188 1.386 . S
C189 C190 1.382 . S
C189 H211 0.950 . S
C190 N186 1.332 . S
C190 C189 1.382 . S
C190 H192 0.952 . S
C191 N186 1.332 . S
C191 C187 1.382 . S
C191 H193 0.948 . S
H192 C190 0.952 . S
H193 C191 0.948 . S
H194 C183 0.952 . S
H195 C185 0.948 . S
C196 C162 1.395 . S
C196 C166 1.391 . S
C197 C159 1.389 . S
C197 C179 1.392 . S
C198 C169 1.392 . S
C198 C171 1.389 . S
C199 C174 1.395 . S
C199 C176 1.391 . S
H200 C160 0.951 . S
H201 C161 0.950 . S
H202 C167 0.949 . S
H203 C168 0.950 . S
H204 C172 0.951 . S
H205 C173 0.950 . S
H206 C177 0.949 . S
H207 C178 0.950 . S
H208 C182 0.950 . S
H209 C184 0.950 . S
H210 C187 0.950 . S
H211 C189 0.950 . S
C212 C213 1.443 . S
C212 N216 1.376 1_565 S
C212 C250 1.389 . S
C213 C212 1.443 . S
C213 C214 1.340 1_565 S
C213 H253 0.951 . S
C214 C213 1.340 1_545 S
C214 C215 1.439 . S
C214 H254 0.950 . S
C215 C214 1.439 . S
C215 N216 1.374 . S
C215 C249 1.395 . S
N216 C212 1.376 1_545 S
N216 C215 1.374 . S
N216 Co217 2.027 . S
Co217 N216 2.027 . S
Co217 N218 1.999 . S
Co217 N223 1.995 1_554 S
Co217 N228 1.991 1_544 S
Co217 N233 2.274 1_554 S
Co217 N239 2.291 1_545 S
N218 Co217 1.999 . S
N218 C219 1.376 . S
N218 C222 1.383 1_554 S
C219 N218 1.376 . S
C219 C220 1.446 . S
C219 C249 1.391 . S
C220 C219 1.446 . S
C220 C221 1.339 1_554 S
C220 H255 0.949 . S
C221 C220 1.339 1_556 S
C221 C222 1.439 . S
C221 H256 0.950 . S
C222 N218 1.383 1_556 S
C222 C221 1.439 . S
C222 C251 1.392 . S
N223 Co217 1.995 1_556 S
N223 C224 1.383 . S
N223 C227 1.364 1_545 S
C224 N223 1.383 . S
C224 C225 1.443 . S
C224 C251 1.389 . S
C225 C224 1.443 . S
C225 C226 1.340 1_545 S
C225 H257 0.951 . S
C226 C225 1.340 1_565 S
C226 C227 1.439 . S
C226 H258 0.950 . S
C227 N223 1.364 1_565 S
C227 C226 1.439 . S
C227 C252 1.395 . S
N228 Co217 1.991 1_566 S
N228 C229 1.376 . S
N228 C232 1.383 1_556 S
C229 N228 1.376 . S
C229 C230 1.446 . S
C229 C252 1.391 . S
C230 C229 1.446 . S
C230 C231 1.339 1_556 S
C230 H259 0.949 . S
C231 C230 1.339 1_554 S
C231 C232 1.439 . S
C231 H260 0.950 . S
C232 N228 1.383 1_554 S
C232 C231 1.439 . S
C232 C250 1.392 . S
N233 Co217 2.274 1_556 S
N233 C236 1.332 . S
N233 C238 1.332 . S
C234 C235 1.386 . S
C234 C237 1.388 . S
C235 C234 1.386 . S
C235 C236 1.382 . S
C235 H261 0.950 . S
C236 N233 1.332 . S
C236 C235 1.382 . S
C236 H247 0.954 . S
C237 C234 1.388 . S
C237 C238 1.382 . S
C237 H262 0.950 . S
C238 N233 1.332 . S
C238 C237 1.382 . S
C238 H248 0.948 . S
N239 Co217 2.291 1_565 S
N239 C243 1.332 . S
N239 C244 1.332 . S
C240 C241 1.388 . S
C240 C244 1.382 . S
C240 H263 0.950 . S
C241 C240 1.388 . S
C241 C242 1.386 . S
C242 C241 1.386 . S
C242 C243 1.382 . S
C242 H264 0.950 . S
C243 N239 1.332 . S
C243 C242 1.382 . S
C243 H245 0.952 1_565 S
C244 N239 1.332 . S
C244 C240 1.382 . S
C244 H246 0.948 . S
H245 C243 0.952 1_545 S
H246 C244 0.948 . S
H247 C236 0.954 . S
H248 C238 0.948 . S
C249 C215 1.395 . S
C249 C219 1.391 . S
C250 C212 1.389 . S
C250 C232 1.392 . S
C251 C222 1.392 . S
C251 C224 1.389 . S
C252 C227 1.395 . S
C252 C229 1.391 . S
H253 C213 0.951 . S
H254 C214 0.950 . S
H255 C220 0.949 . S
H256 C221 0.950 . S
H257 C225 0.951 . S
H258 C226 0.950 . S
H259 C230 0.949 . S
H260 C231 0.950 . S
H261 C235 0.950 . S
H262 C237 0.950 . S
H263 C240 0.950 . S
H264 C242 0.950 . S
C265 C266 1.443 . S
C265 N269 1.376 . S
C265 C303 1.389 . S
C266 C265 1.443 . S
C266 C267 1.340 . S
C266 H306 0.951 . S
C267 C266 1.340 . S
C267 C268 1.439 . S
C267 H307 0.950 . S
C268 C267 1.439 . S
C268 N269 1.374 . S
C268 C302 1.395 . S
N269 C265 1.376 . S
N269 C268 1.374 . S
N269 Co270 2.008 . S
Co270 N269 2.008 . S
Co270 N271 1.995 . S
Co270 N276 2.008 . S
Co270 N281 1.995 . S
Co270 N286 2.282 . S
Co270 N292 2.282 . S
N271 Co270 1.995 . S
N271 C272 1.376 . S
N271 C275 1.383 . S
C272 N271 1.376 . S
C272 C273 1.446 . S
C272 C302 1.391 . S
C273 C272 1.446 . S
C273 C274 1.339 . S
C273 H308 0.949 . S
C274 C273 1.339 . S
C274 C275 1.439 . S
C274 H309 0.950 . S
C275 N271 1.383 . S
C275 C274 1.439 . S
C275 C304 1.392 . S
N276 Co270 2.008 . S
N276 C277 1.376 . S
N276 C280 1.374 . S
C277 N276 1.376 . S
C277 C278 1.443 . S
C277 C304 1.389 . S
C278 C277 1.443 . S
C278 C279 1.340 . S
C278 H310 0.951 . S
C279 C278 1.340 . S
C279 C280 1.439 . S
C279 H311 0.950 . S
C280 N276 1.374 . S
C280 C279 1.439 . S
C280 C305 1.395 . S
N281 Co270 1.995 . S
N281 C282 1.376 . S
N281 C285 1.383 . S
C282 N281 1.376 . S
C282 C283 1.446 . S
C282 C305 1.391 . S
C283 C282 1.446 . S
C283 C284 1.339 . S
C283 H312 0.949 . S
C284 C283 1.339 . S
C284 C285 1.439 . S
C284 H313 0.950 . S
C285 N281 1.383 . S
C285 C284 1.439 . S
C285 C303 1.392 . S
N286 Co270 2.282 . S
N286 C289 1.332 . S
N286 C291 1.332 . S
C287 C288 1.386 . S
C287 C290 1.388 . S
C288 C287 1.386 . S
C288 C289 1.382 . S
C288 H314 0.950 . S
C289 N286 1.332 . S
C289 C288 1.382 . S
C289 H300 0.952 . S
C290 C287 1.388 . S
C290 C291 1.382 . S
C290 H315 0.950 . S
C291 N286 1.332 . S
C291 C290 1.382 . S
C291 H301 0.948 . S
N292 Co270 2.282 . S
N292 C296 1.332 . S
N292 C297 1.332 . S
C293 C294 1.388 . S
C293 C297 1.382 . S
C293 H316 0.950 . S
C294 C293 1.388 . S
C294 C295 1.386 . S
C295 C294 1.386 . S
C295 C296 1.382 . S
C295 H317 0.950 . S
C296 N292 1.332 . S
C296 C295 1.382 . S
C296 H298 0.952 . S
C297 N292 1.332 . S
C297 C293 1.382 . S
C297 H299 0.948 . S
H298 C296 0.952 . S
H299 C297 0.948 . S
H300 C289 0.952 . S
H301 C291 0.948 . S
C302 C268 1.395 . S
C302 C272 1.391 . S
C303 C265 1.389 . S
C303 C285 1.392 . S
C304 C275 1.392 . S
C304 C277 1.389 . S
C305 C280 1.395 . S
C305 C282 1.391 . S
H306 C266 0.951 . S
H307 C267 0.950 . S
H308 C273 0.949 . S
H309 C274 0.950 . S
H310 C278 0.951 . S
H311 C279 0.950 . S
H312 C283 0.949 . S
H313 C284 0.950 . S
H314 C288 0.950 . S
H315 C290 0.950 . S
H316 C293 0.950 . S
H317 C295 0.950 . S
H318 C337 0.949 . S
H319 C338 0.950 . S
H320 C340 0.950 . S
H321 C341 0.950 . S
H322 C343 0.950 . S
H323 C346 0.950 . S
H324 C347 0.950 . S
H325 C349 0.951 . S
H326 C350 0.949 . S
H327 C352 0.949 . S
H328 C353 0.950 . S
H329 C355 0.950 . S
H330 C356 0.950 . S
H331 C358 0.950 . S
H332 C361 0.950 . S
H333 C362 0.950 . S
H334 C364 0.951 . S
H335 C365 0.949 . S
C336 C337 1.376 . S
C336 C341 1.386 . S
C336 C342 1.483 . S
C337 H318 0.949 . S
C337 C336 1.376 . S
C337 C338 1.397 . S
C338 H319 0.950 . S
C338 C337 1.397 . S
C338 C339 1.391 . S
C339 C338 1.391 . S
C339 C340 1.405 . S
C340 H320 0.950 . S
C340 C339 1.405 . S
C340 C341 1.367 . S
C341 H321 0.950 . S
C341 C336 1.386 . S
C341 C340 1.367 . S
C342 C336 1.483 . S
C342 C343 1.382 . S
C342 C344 1.403 . S
C343 H322 0.950 . S
C343 C342 1.382 . S
C343 C359 1.411 . S
C344 C342 1.403 . S
C344 C345 1.489 . S
C344 C358 1.411 . S
C345 C344 1.489 . S
C345 C346 1.383 . S
C345 C350 1.382 . S
C346 H323 0.950 . S
C346 C345 1.383 . S
C346 C347 1.395 . S
C347 H324 0.950 . S
C347 C346 1.395 . S
C347 C348 1.288 . S
C348 C347 1.288 . S
C348 C349 1.392 . S
C349 H325 0.951 . S
C349 C348 1.392 . S
C349 C350 1.392 . S
C350 H326 0.949 . S
C350 C345 1.382 . S
C350 C349 1.392 . S
C351 C352 1.376 . S
C351 C356 1.386 . S
C351 C357 1.483 . S
C352 H327 0.949 . S
C352 C351 1.376 . S
C352 C353 1.397 . S
C353 H328 0.950 . S
C353 C352 1.397 . S
C353 C354 1.391 . S
C354 C353 1.391 . S
C354 C355 1.405 . S
C355 H329 0.950 . S
C355 C354 1.405 . S
C355 C356 1.367 . S
C356 H330 0.950 . S
C356 C351 1.386 . S
C356 C355 1.367 . S
C357 C351 1.483 . S
C357 C358 1.382 . S
C357 C359 1.403 . S
C358 H331 0.950 . S
C358 C344 1.411 . S
C358 C357 1.382 . S
C359 C343 1.411 . S
C359 C357 1.403 . S
C359 C360 1.489 . S
C360 C359 1.489 . S
C360 C361 1.383 . S
C360 C365 1.382 . S
C361 H332 0.950 . S
C361 C360 1.383 . S
C361 C362 1.395 . S
C362 H333 0.950 . S
C362 C361 1.395 . S
C362 C363 1.288 . S
C363 C362 1.288 . S
C363 C364 1.392 . S
C364 H334 0.951 . S
C364 C363 1.392 . S
C364 C365 1.392 . S
C365 H335 0.949 . S
C365 C360 1.382 . S
C365 C364 1.392 . S
H366 C385 0.949 . S
H367 C386 0.950 . S
H368 C388 0.950 . S
H369 C389 0.950 . S
H370 C391 0.950 . S
H371 C394 0.950 . S
H372 C395 0.950 . S
H373 C397 0.951 . S
H374 C398 0.949 . S
H375 C400 0.949 . S
H376 C401 0.950 . S
H377 C403 0.950 . S
H378 C404 0.950 . S
H379 C406 0.950 . S
H380 C409 0.950 . S
H381 C410 0.950 . S
H382 C412 0.951 . S
H383 C413 0.949 . S
C384 C385 1.376 . S
C384 C389 1.386 . S
C384 C390 1.483 . S
C385 H366 0.949 . S
C385 C384 1.376 . S
C385 C386 1.397 . S
C386 H367 0.950 . S
C386 C385 1.397 . S
C386 C387 1.391 . S
C387 C386 1.391 . S
C387 C388 1.405 . S
C388 H368 0.950 . S
C388 C387 1.405 . S
C388 C389 1.367 . S
C389 H369 0.950 . S
C389 C384 1.386 . S
C389 C388 1.367 . S
C390 C384 1.483 . S
C390 C391 1.382 . S
C390 C392 1.403 . S
C391 H370 0.950 . S
C391 C390 1.382 . S
C391 C407 1.411 . S
C392 C390 1.403 . S
C392 C393 1.489 . S
C392 C406 1.411 . S
C393 C392 1.489 . S
C393 C394 1.383 . S
C393 C398 1.382 . S
C394 H371 0.950 . S
C394 C393 1.383 . S
C394 C395 1.395 . S
C395 H372 0.950 . S
C395 C394 1.395 . S
C395 C396 1.288 . S
C396 C395 1.288 . S
C396 C397 1.392 . S
C397 H373 0.951 . S
C397 C396 1.392 . S
C397 C398 1.392 . S
C398 H374 0.949 . S
C398 C393 1.382 . S
C398 C397 1.392 . S
C399 C400 1.376 . S
C399 C404 1.386 . S
C399 C405 1.483 . S
C400 H375 0.949 . S
C400 C399 1.376 . S
C400 C401 1.397 . S
C401 H376 0.950 . S
C401 C400 1.397 . S
C401 C402 1.391 . S
C402 C401 1.391 . S
C402 C403 1.405 . S
C403 H377 0.950 . S
C403 C402 1.405 . S
C403 C404 1.367 . S
C404 H378 0.950 . S
C404 C399 1.386 . S
C404 C403 1.367 . S
C405 C399 1.483 . S
C405 C406 1.382 . S
C405 C407 1.403 . S
C406 H379 0.950 . S
C406 C392 1.411 . S
C406 C405 1.382 . S
C407 C391 1.411 . S
C407 C405 1.403 . S
C407 C408 1.489 . S
C408 C407 1.489 . S
C408 C409 1.383 . S
C408 C413 1.382 . S
C409 H380 0.950 . S
C409 C408 1.383 . S
C409 C410 1.395 . S
C410 H381 0.950 . S
C410 C409 1.395 . S
C410 C411 1.288 . S
C411 C410 1.288 . S
C411 C412 1.392 . S
C412 H382 0.951 . S
C412 C411 1.392 . S
C412 C413 1.392 . S
C413 H383 0.949 . S
C413 C408 1.382 . S
C413 C412 1.392 . S
H414 C433 0.949 . S
H415 C434 0.950 . S
H416 C436 0.950 . S
H417 C437 0.950 . S
H418 C439 0.950 . S
H419 C442 0.950 . S
H420 C443 0.950 . S
H421 C445 0.951 . S
H422 C446 0.949 . S
H423 C448 0.949 . S
H424 C449 0.950 . S
H425 C451 0.950 . S
H426 C452 0.950 . S
H427 C454 0.950 . S
H428 C457 0.950 . S
H429 C458 0.950 . S
H430 C460 0.951 . S
H431 C461 0.949 . S
C432 C433 1.376 . S
C432 C437 1.386 . S
C432 C438 1.483 . S
C433 H414 0.949 . S
C433 C432 1.376 . S
C433 C434 1.397 . S
C434 H415 0.950 . S
C434 C433 1.397 . S
C434 C435 1.391 . S
C435 C434 1.391 . S
C435 C436 1.405 . S
C436 H416 0.950 . S
C436 C435 1.405 . S
C436 C437 1.367 . S
C437 H417 0.950 . S
C437 C432 1.386 . S
C437 C436 1.367 . S
C438 C432 1.483 . S
C438 C439 1.382 . S
C438 C440 1.403 . S
C439 H418 0.950 . S
C439 C438 1.382 . S
C439 C455 1.411 . S
C440 C438 1.403 . S
C440 C441 1.489 . S
C440 C454 1.411 . S
C441 C440 1.489 . S
C441 C442 1.383 . S
C441 C446 1.382 . S
C442 H419 0.950 . S
C442 C441 1.383 . S
C442 C443 1.395 . S
C443 H420 0.950 . S
C443 C442 1.395 . S
C443 C444 1.288 . S
C444 C443 1.288 . S
C444 C445 1.392 . S
C445 H421 0.951 . S
C445 C444 1.392 . S
C445 C446 1.392 . S
C446 H422 0.949 . S
C446 C441 1.382 . S
C446 C445 1.392 . S
C447 C448 1.376 . S
C447 C452 1.386 . S
C447 C453 1.483 . S
C448 H423 0.949 . S
C448 C447 1.376 . S
C448 C449 1.397 . S
C449 H424 0.950 . S
C449 C448 1.397 . S
C449 C450 1.391 . S
C450 C449 1.391 . S
C450 C451 1.405 . S
C451 H425 0.950 . S
C451 C450 1.405 . S
C451 C452 1.367 . S
C452 H426 0.950 . S
C452 C447 1.386 . S
C452 C451 1.367 . S
C453 C447 1.483 . S
C453 C454 1.382 . S
C453 C455 1.403 . S
C454 H427 0.950 . S
C454 C440 1.411 . S
C454 C453 1.382 . S
C455 C439 1.411 . S
C455 C453 1.403 . S
C455 C456 1.489 . S
C456 C455 1.489 . S
C456 C457 1.383 . S
C456 C461 1.382 . S
C457 H428 0.950 . S
C457 C456 1.383 . S
C457 C458 1.395 . S
C458 H429 0.950 . S
C458 C457 1.395 . S
C458 C459 1.288 . S
C459 C458 1.288 . S
C459 C460 1.392 . S
C460 H430 0.951 . S
C460 C459 1.392 . S
C460 C461 1.392 . S
C461 H431 0.949 . S
C461 C456 1.382 . S
C461 C460 1.392 . S
H462 C481 0.949 . S
H463 C482 0.950 . S
H464 C484 0.950 . S
H465 C485 0.950 . S
H466 C487 0.950 . S
H467 C490 0.950 . S
H468 C491 0.950 . S
H469 C493 0.951 . S
H470 C494 0.949 . S
H471 C496 0.949 . S
H472 C497 0.950 . S
H473 C499 0.950 . S
H474 C500 0.950 . S
H475 C502 0.950 . S
H476 C505 0.950 . S
H477 C506 0.950 . S
H478 C508 0.951 . S
H479 C509 0.949 . S
C480 C481 1.376 . S
C480 C485 1.386 . S
C480 C486 1.483 . S
C481 H462 0.949 . S
C481 C480 1.376 . S
C481 C482 1.397 . S
C482 H463 0.950 . S
C482 C481 1.397 . S
C482 C483 1.391 . S
C483 C482 1.391 . S
C483 C484 1.405 . S
C484 H464 0.950 . S
C484 C483 1.405 . S
C484 C485 1.367 . S
C485 H465 0.950 . S
C485 C480 1.386 . S
C485 C484 1.367 . S
C486 C480 1.483 . S
C486 C487 1.382 . S
C486 C488 1.403 . S
C487 H466 0.950 . S
C487 C486 1.382 . S
C487 C503 1.411 . S
C488 C486 1.403 . S
C488 C489 1.489 . S
C488 C502 1.411 . S
C489 C488 1.489 . S
C489 C490 1.383 . S
C489 C494 1.382 . S
C490 H467 0.950 . S
C490 C489 1.383 . S
C490 C491 1.395 . S
C491 H468 0.950 . S
C491 C490 1.395 . S
C491 C492 1.288 . S
C492 C491 1.288 . S
C492 C493 1.392 . S
C493 H469 0.951 . S
C493 C492 1.392 . S
C493 C494 1.392 . S
C494 H470 0.949 . S
C494 C489 1.382 . S
C494 C493 1.392 . S
C495 C496 1.376 . S
C495 C500 1.386 . S
C495 C501 1.483 . S
C496 H471 0.949 . S
C496 C495 1.376 . S
C496 C497 1.397 . S
C497 H472 0.950 . S
C497 C496 1.397 . S
C497 C498 1.391 . S
C498 C497 1.391 . S
C498 C499 1.405 . S
C499 H473 0.950 . S
C499 C498 1.405 . S
C499 C500 1.367 . S
C500 H474 0.950 . S
C500 C495 1.386 . S
C500 C499 1.367 . S
C501 C495 1.483 . S
C501 C502 1.382 . S
C501 C503 1.403 . S
C502 H475 0.950 . S
C502 C488 1.411 . S
C502 C501 1.382 . S
C503 C487 1.411 . S
C503 C501 1.403 . S
C503 C504 1.489 . S
C504 C503 1.489 . S
C504 C505 1.383 . S
C504 C509 1.382 . S
C505 H476 0.950 . S
C505 C504 1.383 . S
C505 C506 1.395 . S
C506 H477 0.950 . S
C506 C505 1.395 . S
C506 C507 1.288 . S
C507 C506 1.288 . S
C507 C508 1.392 . S
C508 H478 0.951 . S
C508 C507 1.392 . S
C508 C509 1.392 . S
C509 H479 0.949 . S
C509 C504 1.382 . S
C509 C508 1.392 . S
H510 C529 0.949 . S
H511 C530 0.950 . S
H512 C532 0.950 . S
H513 C533 0.950 . S
H514 C535 0.950 . S
H515 C538 0.950 . S
H516 C539 0.950 . S
H517 C541 0.951 . S
H518 C542 0.949 . S
H519 C544 0.949 . S
H520 C545 0.950 . S
H521 C547 0.950 . S
H522 C548 0.950 . S
H523 C550 0.950 . S
H524 C553 0.950 . S
H525 C554 0.950 . S
H526 C556 0.951 . S
H527 C557 0.949 . S
C528 C529 1.376 . S
C528 C533 1.386 . S
C528 C534 1.483 . S
C529 H510 0.949 . S
C529 C528 1.376 . S
C529 C530 1.397 . S
C530 H511 0.950 . S
C530 C529 1.397 . S
C530 C531 1.391 . S
C531 C530 1.391 . S
C531 C532 1.405 . S
C532 H512 0.950 . S
C532 C531 1.405 . S
C532 C533 1.367 . S
C533 H513 0.950 . S
C533 C528 1.386 . S
C533 C532 1.367 . S
C534 C528 1.483 . S
C534 C535 1.382 . S
C534 C536 1.403 . S
C535 H514 0.950 . S
C535 C534 1.382 . S
C535 C551 1.411 . S
C536 C534 1.403 . S
C536 C537 1.489 . S
C536 C550 1.411 . S
C537 C536 1.489 . S
C537 C538 1.383 . S
C537 C542 1.382 . S
C538 H515 0.950 . S
C538 C537 1.383 . S
C538 C539 1.395 . S
C539 H516 0.950 . S
C539 C538 1.395 . S
C539 C540 1.288 . S
C540 C539 1.288 . S
C540 C541 1.392 . S
C541 H517 0.951 . S
C541 C540 1.392 . S
C541 C542 1.392 . S
C542 H518 0.949 . S
C542 C537 1.382 . S
C542 C541 1.392 . S
C543 C544 1.376 . S
C543 C548 1.386 . S
C543 C549 1.483 . S
C544 H519 0.949 . S
C544 C543 1.376 . S
C544 C545 1.397 . S
C545 H520 0.950 . S
C545 C544 1.397 . S
C545 C546 1.391 . S
C546 C545 1.391 . S
C546 C547 1.405 . S
C547 H521 0.950 . S
C547 C546 1.405 . S
C547 C548 1.367 . S
C548 H522 0.950 . S
C548 C543 1.386 . S
C548 C547 1.367 . S
C549 C543 1.483 . S
C549 C550 1.382 . S
C549 C551 1.403 . S
C550 H523 0.950 . S
C550 C536 1.411 . S
C550 C549 1.382 . S
C551 C535 1.411 . S
C551 C549 1.403 . S
C551 C552 1.489 . S
C552 C551 1.489 . S
C552 C553 1.383 . S
C552 C557 1.382 . S
C553 H524 0.950 . S
C553 C552 1.383 . S
C553 C554 1.395 . S
C554 H525 0.950 . S
C554 C553 1.395 . S
C554 C555 1.288 . S
C555 C554 1.288 . S
C555 C556 1.392 . S
C556 H526 0.951 . S
C556 C555 1.392 . S
C556 C557 1.392 . S
C557 H527 0.949 . S
C557 C552 1.382 . S
C557 C556 1.392 . S
H558 C577 0.949 . S
H559 C578 0.950 . S
H560 C580 0.950 . S
H561 C581 0.950 . S
H562 C583 0.950 . S
H563 C586 0.950 . S
H564 C587 0.950 . S
H565 C589 0.951 . S
H566 C590 0.949 . S
H567 C592 0.949 . S
H568 C593 0.950 . S
H569 C595 0.950 . S
H570 C596 0.950 . S
H571 C598 0.950 . S
H572 C601 0.950 . S
H573 C602 0.950 . S
H574 C604 0.951 . S
H575 C605 0.949 . S
C576 C577 1.376 . S
C576 C581 1.386 . S
C576 C582 1.483 . S
C577 H558 0.949 . S
C577 C576 1.376 . S
C577 C578 1.397 . S
C578 H559 0.950 . S
C578 C577 1.397 . S
C578 C579 1.391 . S
C579 C578 1.391 . S
C579 C580 1.405 . S
C580 H560 0.950 . S
C580 C579 1.405 . S
C580 C581 1.367 . S
C581 H561 0.950 . S
C581 C576 1.386 . S
C581 C580 1.367 . S
C582 C576 1.483 . S
C582 C583 1.382 . S
C582 C584 1.403 . S
C583 H562 0.950 . S
C583 C582 1.382 . S
C583 C599 1.411 . S
C584 C582 1.403 . S
C584 C585 1.489 . S
C584 C598 1.411 . S
C585 C584 1.489 . S
C585 C586 1.383 . S
C585 C590 1.382 . S
C586 H563 0.950 . S
C586 C585 1.383 . S
C586 C587 1.395 . S
C587 H564 0.950 . S
C587 C586 1.395 . S
C587 C588 1.288 . S
C588 C587 1.288 . S
C588 C589 1.392 . S
C589 H565 0.951 . S
C589 C588 1.392 . S
C589 C590 1.392 . S
C590 H566 0.949 . S
C590 C585 1.382 . S
C590 C589 1.392 . S
C591 C592 1.376 . S
C591 C596 1.386 . S
C591 C597 1.483 . S
C592 H567 0.949 . S
C592 C591 1.376 . S
C592 C593 1.397 . S
C593 H568 0.950 . S
C593 C592 1.397 . S
C593 C594 1.391 . S
C594 C593 1.391 . S
C594 C595 1.405 . S
C595 H569 0.950 . S
C595 C594 1.405 . S
C595 C596 1.367 . S
C596 H570 0.950 . S
C596 C591 1.386 . S
C596 C595 1.367 . S
C597 C591 1.483 . S
C597 C598 1.382 . S
C597 C599 1.403 . S
C598 H571 0.950 . S
C598 C584 1.411 . S
C598 C597 1.382 . S
C599 C583 1.411 . S
C599 C597 1.403 . S
C599 C600 1.489 . S
C600 C599 1.489 . S
C600 C601 1.383 . S
C600 C605 1.382 . S
C601 H572 0.950 . S
C601 C600 1.383 . S
C601 C602 1.395 . S
C602 H573 0.950 . S
C602 C601 1.395 . S
C602 C603 1.288 . S
C603 C602 1.288 . S
C603 C604 1.392 . S
C604 H574 0.951 . S
C604 C603 1.392 . S
C604 C605 1.392 . S
C605 H575 0.949 . S
C605 C600 1.382 . S
C605 C604 1.392 . S
H606 C612 0.930 . S
H607 C615 0.930 . S
H608 C616 0.930 . S
H609 C617 0.930 . S
H610 C620 0.930 . S
H611 C621 0.930 . S
C612 H606 0.930 . S
C612 C613 1.355 . S
C612 C614 1.415 . S
C613 C612 1.355 . S
C613 C615 1.419 . S
C614 C612 1.415 . S
C614 C619 1.425 . S
C614 C621 1.409 . S
C615 H607 0.930 . S
C615 C613 1.419 . S
C615 C616 1.362 . S
C616 H608 0.930 . S
C616 C615 1.362 . S
C616 C619 1.409 . S
C617 H609 0.930 . S
C617 C618 1.355 . S
C617 C619 1.415 . S
C618 C617 1.355 . S
C618 C620 1.419 . S
C619 C614 1.425 . S
C619 C616 1.409 . S
C619 C617 1.415 . S
C620 H610 0.930 . S
C620 C618 1.419 . S
C620 C621 1.362 . S
C621 H611 0.930 . S
C621 C614 1.409 . S
C621 C620 1.362 . S
H622 C628 0.930 . S
H623 C631 0.930 . S
H624 C632 0.930 . S
H625 C633 0.930 . S
H626 C636 0.930 . S
H627 C637 0.930 . S
C628 H622 0.930 . S
C628 C629 1.355 . S
C628 C630 1.415 . S
C629 C628 1.355 . S
C629 C631 1.419 . S
C630 C628 1.415 . S
C630 C635 1.425 . S
C630 C637 1.409 . S
C631 H623 0.930 . S
C631 C629 1.419 . S
C631 C632 1.362 . S
C632 H624 0.930 . S
C632 C631 1.362 . S
C632 C635 1.409 . S
C633 H625 0.930 . S
C633 C634 1.355 . S
C633 C635 1.415 . S
C634 C633 1.355 . S
C634 C636 1.419 . S
C635 C630 1.425 . S
C635 C632 1.409 . S
C635 C633 1.415 . S
C636 H626 0.930 . S
C636 C634 1.419 . S
C636 C637 1.362 . S
C637 H627 0.930 . S
C637 C630 1.409 . S
C637 C636 1.362 . S
H638 C644 0.930 . S
H639 C647 0.930 . S
H640 C648 0.930 . S
H641 C649 0.930 . S
H642 C652 0.930 . S
H643 C653 0.930 . S
C644 H638 0.930 . S
C644 C645 1.355 . S
C644 C646 1.415 . S
C645 C644 1.355 . S
C645 C647 1.419 . S
C646 C644 1.415 . S
C646 C651 1.425 . S
C646 C653 1.409 . S
C647 H639 0.930 . S
C647 C645 1.419 . S
C647 C648 1.362 . S
C648 H640 0.930 . S
C648 C647 1.362 . S
C648 C651 1.409 . S
C649 H641 0.930 . S
C649 C650 1.355 . S
C649 C651 1.415 . S
C650 C649 1.355 . S
C650 C652 1.419 . S
C651 C646 1.425 . S
C651 C648 1.409 . S
C651 C649 1.415 . S
C652 H642 0.930 . S
C652 C650 1.419 . S
C652 C653 1.362 . S
C653 H643 0.930 . S
C653 C646 1.409 . S
C653 C652 1.362 . S
H654 C660 0.930 . S
H655 C663 0.930 . S
H656 C664 0.930 . S
H657 C665 0.930 . S
H658 C668 0.930 . S
H659 C669 0.930 . S
C660 H654 0.930 . S
C660 C661 1.355 . S
C660 C662 1.415 . S
C661 C660 1.355 . S
C661 C663 1.419 . S
C662 C660 1.415 . S
C662 C667 1.425 . S
C662 C669 1.409 . S
C663 H655 0.930 . S
C663 C661 1.419 . S
C663 C664 1.362 . S
C664 H656 0.930 . S
C664 C663 1.362 . S
C664 C667 1.409 . S
C665 H657 0.930 . S
C665 C666 1.355 . S
C665 C667 1.415 . S
C666 C665 1.355 . S
C666 C668 1.419 . S
C667 C662 1.425 . S
C667 C664 1.409 . S
C667 C665 1.415 . S
C668 H658 0.930 . S
C668 C666 1.419 . S
C668 C669 1.362 . S
C669 H659 0.930 . S
C669 C662 1.409 . S
C669 C668 1.362 . S
H670 C676 0.930 . S
H671 C679 0.930 . S
H672 C680 0.930 . S
H673 C681 0.930 . S
H674 C684 0.930 . S
H675 C685 0.930 . S
C676 H670 0.930 . S
C676 C677 1.355 . S
C676 C678 1.415 . S
C677 C676 1.355 . S
C677 C679 1.419 . S
C678 C676 1.415 . S
C678 C683 1.425 . S
C678 C685 1.409 . S
C679 H671 0.930 . S
C679 C677 1.419 . S
C679 C680 1.362 . S
C680 H672 0.930 . S
C680 C679 1.362 . S
C680 C683 1.409 . S
C681 H673 0.930 . S
C681 C682 1.355 . S
C681 C683 1.415 . S
C682 C681 1.355 . S
C682 C684 1.419 . S
C683 C678 1.425 . S
C683 C680 1.409 . S
C683 C681 1.415 . S
C684 H674 0.930 . S
C684 C682 1.419 . S
C684 C685 1.362 . S
C685 H675 0.930 . S
C685 C678 1.409 . S
C685 C684 1.362 . S
H686 C692 0.930 . S
H687 C695 0.930 . S
H688 C696 0.930 . S
H689 C697 0.930 . S
H690 C700 0.930 . S
H691 C701 0.930 . S
C692 H686 0.930 . S
C692 C693 1.355 . S
C692 C694 1.415 . S
C693 C692 1.355 . S
C693 C695 1.419 . S
C694 C692 1.415 . S
C694 C699 1.425 . S
C694 C701 1.409 . S
C695 H687 0.930 . S
C695 C693 1.419 . S
C695 C696 1.362 . S
C696 H688 0.930 . S
C696 C695 1.362 . S
C696 C699 1.409 . S
C697 H689 0.930 . S
C697 C698 1.355 . S
C697 C699 1.415 . S
C698 C697 1.355 . S
C698 C700 1.419 . S
C699 C694 1.425 . S
C699 C696 1.409 . S
C699 C697 1.415 . S
C700 H690 0.930 . S
C700 C698 1.419 . S
C700 C701 1.362 . S
C701 H691 0.930 . S
C701 C694 1.409 . S
C701 C700 1.362 . S
H702 C708 0.930 . S
H703 C711 0.930 . S
H704 C712 0.930 . S
H705 C713 0.930 . S
H706 C716 0.930 . S
H707 C717 0.930 . S
C708 H702 0.930 . S
C708 C709 1.355 . S
C708 C710 1.415 . S
C709 C708 1.355 . S
C709 C711 1.419 . S
C710 C708 1.415 . S
C710 C715 1.425 . S
C710 C717 1.409 . S
C711 H703 0.930 . S
C711 C709 1.419 . S
C711 C712 1.362 . S
C712 H704 0.930 . S
C712 C711 1.362 . S
C712 C715 1.409 . S
C713 H705 0.930 . S
C713 C714 1.355 . S
C713 C715 1.415 . S
C714 C713 1.355 . S
C714 C716 1.419 . S
C715 C710 1.425 . S
C715 C712 1.409 . S
C715 C713 1.415 . S
C716 H706 0.930 . S
C716 C714 1.419 . S
C716 C717 1.362 . S
C717 H707 0.930 . S
C717 C710 1.409 . S
C717 C716 1.362 . S
H718 C724 0.930 . S
H719 C727 0.930 . S
H720 C728 0.930 . S
H721 C729 0.930 . S
H722 C732 0.930 . S
H723 C733 0.930 . S
C724 H718 0.930 . S
C724 C725 1.355 . S
C724 C726 1.415 . S
C725 C724 1.355 . S
C725 C727 1.419 . S
C726 C724 1.415 . S
C726 C731 1.425 . S
C726 C733 1.409 . S
C727 H719 0.930 . S
C727 C725 1.419 . S
C727 C728 1.362 . S
C728 H720 0.930 . S
C728 C727 1.362 . S
C728 C731 1.409 . S
C729 H721 0.930 . S
C729 C730 1.355 . S
C729 C731 1.415 . S
C730 C729 1.355 . S
C730 C732 1.419 . S
C731 C726 1.425 . S
C731 C728 1.409 . S
C731 C729 1.415 . S
C732 H722 0.930 . S
C732 C730 1.419 . S
C732 C733 1.362 . S
C733 H723 0.930 . S
C733 C726 1.409 . S
C733 C732 1.362 . S
H734 C740 0.930 . S
H735 C743 0.930 . S
H736 C744 0.930 . S
H737 C745 0.930 . S
H738 C748 0.930 . S
H739 C749 0.930 . S
C740 H734 0.930 . S
C740 C741 1.355 . S
C740 C742 1.415 . S
C741 C740 1.355 . S
C741 C743 1.419 . S
C742 C740 1.415 . S
C742 C747 1.425 . S
C742 C749 1.409 . S
C743 H735 0.930 . S
C743 C741 1.419 . S
C743 C744 1.362 . S
C744 H736 0.930 . S
C744 C743 1.362 . S
C744 C747 1.409 . S
C745 H737 0.930 . S
C745 C746 1.355 . S
C745 C747 1.415 . S
C746 C745 1.355 . S
C746 C748 1.419 . S
C747 C742 1.425 . S
C747 C744 1.409 . S
C747 C745 1.415 . S
C748 H738 0.930 . S
C748 C746 1.419 . S
C748 C749 1.362 . S
C749 H739 0.930 . S
C749 C742 1.409 . S
C749 C748 1.362 . S
H750 C756 0.930 . S
H751 C759 0.930 . S
H752 C760 0.930 . S
H753 C761 0.930 . S
H754 C764 0.930 . S
H755 C765 0.930 . S
C756 H750 0.930 . S
C756 C757 1.355 . S
C756 C758 1.415 . S
C757 C756 1.355 . S
C757 C759 1.419 . S
C758 C756 1.415 . S
C758 C763 1.425 . S
C758 C765 1.409 . S
C759 H751 0.930 . S
C759 C757 1.419 . S
C759 C760 1.362 . S
C760 H752 0.930 . S
C760 C759 1.362 . S
C760 C763 1.409 . S
C761 H753 0.930 . S
C761 C762 1.355 . S
C761 C763 1.415 . S
C762 C761 1.355 . S
C762 C764 1.419 . S
C763 C758 1.425 . S
C763 C760 1.409 . S
C763 C761 1.415 . S
C764 H754 0.930 . S
C764 C762 1.419 . S
C764 C765 1.362 . S
C765 H755 0.930 . S
C765 C758 1.409 . S
C765 C764 1.362 . S
H766 C772 0.930 . S
H767 C775 0.930 . S
H768 C776 0.930 . S
H769 C777 0.930 . S
H770 C780 0.930 . S
H771 C781 0.930 . S
C772 H766 0.930 . S
C772 C773 1.355 . S
C772 C774 1.415 . S
C773 C772 1.355 . S
C773 C775 1.419 . S
C774 C772 1.415 . S
C774 C779 1.425 . S
C774 C781 1.409 . S
C775 H767 0.930 . S
C775 C773 1.419 . S
C775 C776 1.362 . S
C776 H768 0.930 . S
C776 C775 1.362 . S
C776 C779 1.409 . S
C777 H769 0.930 . S
C777 C778 1.355 . S
C777 C779 1.415 . S
C778 C777 1.355 . S
C778 C780 1.419 . S
C779 C774 1.425 . S
C779 C776 1.409 . S
C779 C777 1.415 . S
C780 H770 0.930 . S
C780 C778 1.419 . S
C780 C781 1.362 . S
C781 H771 0.930 . S
C781 C774 1.409 . S
C781 C780 1.362 . S
H782 C788 0.930 . S
H783 C791 0.930 . S
H784 C792 0.930 . S
H785 C793 0.930 . S
H786 C796 0.930 . S
H787 C797 0.930 . S
C788 H782 0.930 . S
C788 C789 1.355 . S
C788 C790 1.415 . S
C789 C788 1.355 . S
C789 C791 1.419 . S
C790 C788 1.415 . S
C790 C795 1.425 . S
C790 C797 1.409 . S
C791 H783 0.930 . S
C791 C789 1.419 . S
C791 C792 1.362 . S
C792 H784 0.930 . S
C792 C791 1.362 . S
C792 C795 1.409 . S
C793 H785 0.930 . S
C793 C794 1.355 . S
C793 C795 1.415 . S
C794 C793 1.355 . S
C794 C796 1.419 . S
C795 C790 1.425 . S
C795 C792 1.409 . S
C795 C793 1.415 . S
C796 H786 0.930 . S
C796 C794 1.419 . S
C796 C797 1.362 . S
C797 H787 0.930 . S
C797 C790 1.409 . S
C797 C796 1.362 . S
H798 C804 0.930 . S
H799 C807 0.930 . S
H800 C808 0.930 . S
H801 C809 0.930 . S
H802 C812 0.930 . S
H803 C813 0.930 . S
C804 H798 0.930 . S
C804 C805 1.355 . S
C804 C806 1.415 . S
C805 C804 1.355 . S
C805 C807 1.419 . S
C806 C804 1.415 . S
C806 C811 1.425 . S
C806 C813 1.409 . S
C807 H799 0.930 . S
C807 C805 1.419 . S
C807 C808 1.362 . S
C808 H800 0.930 . S
C808 C807 1.362 . S
C808 C811 1.409 . S
C809 H801 0.930 . S
C809 C810 1.355 . S
C809 C811 1.415 . S
C810 C809 1.355 . S
C810 C812 1.419 . S
C811 C806 1.425 . S
C811 C808 1.409 . S
C811 C809 1.415 . S
C812 H802 0.930 . S
C812 C810 1.419 . S
C812 C813 1.362 . S
C813 H803 0.930 . S
C813 C806 1.409 . S
C813 C812 1.362 . S
H814 C820 0.930 . S
H815 C823 0.930 . S
H816 C824 0.930 . S
H817 C825 0.930 . S
H818 C828 0.930 . S
H819 C829 0.930 . S
C820 H814 0.930 . S
C820 C821 1.355 . S
C820 C822 1.415 . S
C821 C820 1.355 . S
C821 C823 1.419 . S
C822 C820 1.415 . S
C822 C827 1.425 . S
C822 C829 1.409 . S
C823 H815 0.930 . S
C823 C821 1.419 . S
C823 C824 1.362 . S
C824 H816 0.930 . S
C824 C823 1.362 . S
C824 C827 1.409 . S
C825 H817 0.930 . S
C825 C826 1.355 . S
C825 C827 1.415 . S
C826 C825 1.355 . S
C826 C828 1.419 . S
C827 C822 1.425 . S
C827 C824 1.409 . S
C827 C825 1.415 . S
C828 H818 0.930 . S
C828 C826 1.419 . S
C828 C829 1.362 . S
C829 H819 0.930 . S
C829 C822 1.409 . S
C829 C828 1.362 . S
H830 C836 0.930 . S
H831 C839 0.930 . S
H832 C840 0.930 . S
H833 C841 0.930 . S
H834 C844 0.930 . S
H835 C845 0.930 . S
C836 H830 0.930 . S
C836 C837 1.355 . S
C836 C838 1.415 . S
C837 C836 1.355 . S
C837 C839 1.419 . S
C838 C836 1.415 . S
C838 C843 1.425 . S
C838 C845 1.409 . S
C839 H831 0.930 . S
C839 C837 1.419 . S
C839 C840 1.362 . S
C840 H832 0.930 . S
C840 C839 1.362 . S
C840 C843 1.409 . S
C841 H833 0.930 . S
C841 C842 1.355 . S
C841 C843 1.415 . S
C842 C841 1.355 . S
C842 C844 1.419 . S
C843 C838 1.425 . S
C843 C840 1.409 . S
C843 C841 1.415 . S
C844 H834 0.930 . S
C844 C842 1.419 . S
C844 C845 1.362 . S
C845 H835 0.930 . S
C845 C838 1.409 . S
C845 C844 1.362 . S
H846 C852 0.930 . S
H847 C855 0.930 . S
H848 C856 0.930 . S
H849 C857 0.930 . S
H850 C860 0.930 . S
H851 C861 0.930 . S
C852 H846 0.930 . S
C852 C853 1.355 . S
C852 C854 1.415 . S
C853 C852 1.355 . S
C853 C855 1.419 . S
C854 C852 1.415 . S
C854 C859 1.425 . S
C854 C861 1.409 . S
C855 H847 0.930 . S
C855 C853 1.419 . S
C855 C856 1.362 . S
C856 H848 0.930 . S
C856 C855 1.362 . S
C856 C859 1.409 . S
C857 H849 0.930 . S
C857 C858 1.355 . S
C857 C859 1.415 . S
C858 C857 1.355 . S
C858 C860 1.419 . S
C859 C854 1.425 . S
C859 C856 1.409 . S
C859 C857 1.415 . S
C860 H850 0.930 . S
C860 C858 1.419 . S
C860 C861 1.362 . S
C861 H851 0.930 . S
C861 C854 1.409 . S
C861 C860 1.362 . S
H862 C868 0.930 . S
H863 C871 0.930 . S
H864 C872 0.930 . S
H865 C873 0.930 . S
H866 C876 0.930 . S
H867 C877 0.930 . S
C868 H862 0.930 . S
C868 C869 1.355 . S
C868 C870 1.415 . S
C869 C868 1.355 . S
C869 C871 1.419 . S
C870 C868 1.415 . S
C870 C875 1.425 . S
C870 C877 1.409 . S
C871 H863 0.930 . S
C871 C869 1.419 . S
C871 C872 1.362 . S
C872 H864 0.930 . S
C872 C871 1.362 . S
C872 C875 1.409 . S
C873 H865 0.930 . S
C873 C874 1.355 . S
C873 C875 1.415 . S
C874 C873 1.355 . S
C874 C876 1.419 . S
C875 C870 1.425 . S
C875 C872 1.409 . S
C875 C873 1.415 . S
C876 H866 0.930 . S
C876 C874 1.419 . S
C876 C877 1.362 . S
C877 H867 0.930 . S
C877 C870 1.409 . S
C877 C876 1.362 . S
H878 C884 0.930 . S
H879 C887 0.930 . S
H880 C888 0.930 . S
H881 C889 0.930 . S
H882 C892 0.930 . S
H883 C893 0.930 . S
C884 H878 0.930 . S
C884 C885 1.355 . S
C884 C886 1.415 . S
C885 C884 1.355 . S
C885 C887 1.419 . S
C886 C884 1.415 . S
C886 C891 1.425 . S
C886 C893 1.409 . S
C887 H879 0.930 . S
C887 C885 1.419 . S
C887 C888 1.362 . S
C888 H880 0.930 . S
C888 C887 1.362 . S
C888 C891 1.409 . S
C889 H881 0.930 . S
C889 C890 1.355 . S
C889 C891 1.415 . S
C890 C889 1.355 . S
C890 C892 1.419 . S
C891 C886 1.425 . S
C891 C888 1.409 . S
C891 C889 1.415 . S
C892 H882 0.930 . S
C892 C890 1.419 . S
C892 C893 1.362 . S
C893 H883 0.930 . S
C893 C886 1.409 . S
C893 C892 1.362 . S
H894 C900 0.930 . S
H895 C903 0.930 . S
H896 C904 0.930 . S
H897 C905 0.930 . S
H898 C908 0.930 . S
H899 C909 0.930 . S
C900 H894 0.930 . S
C900 C901 1.355 . S
C900 C902 1.415 . S
C901 C900 1.355 . S
C901 C903 1.419 . S
C902 C900 1.415 . S
C902 C907 1.425 . S
C902 C909 1.409 . S
C903 H895 0.930 . S
C903 C901 1.419 . S
C903 C904 1.362 . S
C904 H896 0.930 . S
C904 C903 1.362 . S
C904 C907 1.409 . S
C905 H897 0.930 . S
C905 C906 1.355 . S
C905 C907 1.415 . S
C906 C905 1.355 . S
C906 C908 1.419 . S
C907 C902 1.425 . S
C907 C904 1.409 . S
C907 C905 1.415 . S
C908 H898 0.930 . S
C908 C906 1.419 . S
C908 C909 1.362 . S
C909 H899 0.930 . S
C909 C902 1.409 . S
C909 C908 1.362 . S
H910 C916 0.930 . S
H911 C919 0.930 . S
H912 C920 0.930 . S
H913 C921 0.930 . S
H914 C924 0.930 . S
H915 C925 0.930 . S
C916 H910 0.930 . S
C916 C917 1.355 . S
C916 C918 1.415 . S
C917 C916 1.355 . S
C917 C919 1.419 . S
C918 C916 1.415 . S
C918 C923 1.425 . S
C918 C925 1.409 . S
C919 H911 0.930 . S
C919 C917 1.419 . S
C919 C920 1.362 . S
C920 H912 0.930 . S
C920 C919 1.362 . S
C920 C923 1.409 . S
C921 H913 0.930 . S
C921 C922 1.355 . S
C921 C923 1.415 . S
C922 C921 1.355 . S
C922 C924 1.419 . S
C923 C918 1.425 . S
C923 C920 1.409 . S
C923 C921 1.415 . S
C924 H914 0.930 . S
C924 C922 1.419 . S
C924 C925 1.362 . S
C925 H915 0.930 . S
C925 C918 1.409 . S
C925 C924 1.362 . S
H926 C932 0.930 . S
H927 C935 0.930 . S
H928 C936 0.930 . S
H929 C937 0.930 . S
H930 C940 0.930 . S
H931 C941 0.930 . S
C932 H926 0.930 . S
C932 C933 1.355 . S
C932 C934 1.415 . S
C933 C932 1.355 . S
C933 C935 1.419 . S
C934 C932 1.415 . S
C934 C939 1.425 . S
C934 C941 1.409 . S
C935 H927 0.930 . S
C935 C933 1.419 . S
C935 C936 1.362 . S
C936 H928 0.930 . S
C936 C935 1.362 . S
C936 C939 1.409 . S
C937 H929 0.930 . S
C937 C938 1.355 . S
C937 C939 1.415 . S
C938 C937 1.355 . S
C938 C940 1.419 . S
C939 C934 1.425 . S
C939 C936 1.409 . S
C939 C937 1.415 . S
C940 H930 0.930 . S
C940 C938 1.419 . S
C940 C941 1.362 . S
C941 H931 0.930 . S
C941 C934 1.409 . S
C941 C940 1.362 . S
H942 C948 0.930 . S
H943 C951 0.930 . S
H944 C952 0.930 . S
H945 C953 0.930 . S
H946 C956 0.930 . S
H947 C957 0.930 . S
C948 H942 0.930 . S
C948 C949 1.355 . S
C948 C950 1.415 . S
C949 C948 1.355 . S
C949 C951 1.419 . S
C950 C948 1.415 . S
C950 C955 1.425 . S
C950 C957 1.409 . S
C951 H943 0.930 . S
C951 C949 1.419 . S
C951 C952 1.362 . S
C952 H944 0.930 . S
C952 C951 1.362 . S
C952 C955 1.409 . S
C953 H945 0.930 . S
C953 C954 1.355 . S
C953 C955 1.415 . S
C954 C953 1.355 . S
C954 C956 1.419 . S
C955 C950 1.425 . S
C955 C952 1.409 . S
C955 C953 1.415 . S
C956 H946 0.930 . S
C956 C954 1.419 . S
C956 C957 1.362 . S
C957 H947 0.930 . S
C957 C950 1.409 . S
C957 C956 1.362 . S
H958 C964 0.930 . S
H959 C967 0.930 . S
H960 C968 0.930 . S
H961 C969 0.930 . S
H962 C972 0.930 . S
H963 C973 0.930 . S
C964 H958 0.930 . S
C964 C965 1.355 . S
C964 C966 1.415 . S
C965 C964 1.355 . S
C965 C967 1.419 . S
C966 C964 1.415 . S
C966 C971 1.425 . S
C966 C973 1.409 . S
C967 H959 0.930 . S
C967 C965 1.419 . S
C967 C968 1.362 . S
C968 H960 0.930 . S
C968 C967 1.362 . S
C968 C971 1.409 . S
C969 H961 0.930 . S
C969 C970 1.355 . S
C969 C971 1.415 . S
C970 C969 1.355 . S
C970 C972 1.419 . S
C971 C966 1.425 . S
C971 C968 1.409 . S
C971 C969 1.415 . S
C972 H962 0.930 . S
C972 C970 1.419 . S
C972 C973 1.362 . S
C973 H963 0.930 . S
C973 C966 1.409 . S
C973 C972 1.362 . S
H974 C980 0.930 . S
H975 C983 0.930 . S
H976 C984 0.930 . S
H977 C985 0.930 . S
H978 C988 0.930 . S
H979 C989 0.930 . S
C980 H974 0.930 . S
C980 C981 1.355 . S
C980 C982 1.415 . S
C981 C980 1.355 . S
C981 C983 1.419 . S
C982 C980 1.415 . S
C982 C987 1.425 . S
C982 C989 1.409 . S
C983 H975 0.930 . S
C983 C981 1.419 . S
C983 C984 1.362 . S
C984 H976 0.930 . S
C984 C983 1.362 . S
C984 C987 1.409 . S
C985 H977 0.930 . S
C985 C986 1.355 . S
C985 C987 1.415 . S
C986 C985 1.355 . S
C986 C988 1.419 . S
C987 C982 1.425 . S
C987 C984 1.409 . S
C987 C985 1.415 . S
C988 H978 0.930 . S
C988 C986 1.419 . S
C988 C989 1.362 . S
C989 H979 0.930 . S
C989 C982 1.409 . S
C989 C988 1.362 . S
C613 C39 1.777 . S
C618 C339 1.758 . S
C629 C91 1.728 . S
C634 C396 1.729 . S
C650 C450 1.545 . S
C645 C128 1.592 . S
C666 C507 1.485 . S
C661 C188 1.538 . S
C682 C531 1.620 . S
C677 C250 1.631 . S
C698 C588 1.752 . S
C693 C304 1.754 . S
C709 C75 1.651 . S
C714 C435 1.622 . S
C725 C144 1.747 . S
C730 C492 1.748 . S
C746 C546 1.690 . S
C741 C198 1.710 . S
C762 C603 1.495 . S
C757 C234 1.561 . S
C773 C294 1.521 . S
C778 C354 1.483 . S
C794 C411 1.518 . S
C789 C29 1.557 . S
C810 C498 1.774 . S
C805 C38 1.785 . S
C821 C92 1.707 . S
C826 C540 1.645 . S
C842 C579 1.595 . S
C837 C135 1.613 . S
C853 C181 1.558 . S
C858 C348 1.530 . S
C869 C251 1.637 . S
C874 C387 1.611 . S
C885 C303 1.747 . S
C890 C459 1.745 . S
C901 C82 1.652 . S
C906 C594 1.620 . S
C922 C363 1.753 . S
C917 C145 1.757 . S
C933 C197 1.712 . S
C938 C402 1.704 . S
C949 C241 1.581 . S
C954 C444 1.535 . S
C965 C287 1.541 . S
C970 C483 1.516 . S
C981 C22 1.544 . S
C986 C555 1.546 . S
