# Generated by pormake.
# Topology pto, (3,4)-cn, num edge types: 1
# Building blocks:
#     Node 0, Type 0, BuildingBlock: OLANEW_clean_sbu_2, # of connection points: 3
#     Node 1, Type 0, BuildingBlock: OLANEW_clean_sbu_2, # of connection points: 3
#     Node 2, Type 0, BuildingBlock: OLANEW_clean_sbu_2, # of connection points: 3
#     Node 3, Type 0, BuildingBlock: OLANEW_clean_sbu_2, # of connection points: 3
#     Node 4, Type 0, BuildingBlock: OLANEW_clean_sbu_2, # of connection points: 3
#     Node 5, Type 0, BuildingBlock: OLANEW_clean_sbu_2, # of connection points: 3
#     Node 6, Type 0, BuildingBlock: OLANEW_clean_sbu_2, # of connection points: 3
#     Node 7, Type 0, BuildingBlock: OLANEW_clean_sbu_2, # of connection points: 3
#     Node 8, Type 1, BuildingBlock: AZAVOO_clean_linker_0, # of connection points: 4
#     Node 9, Type 1, BuildingBlock: AZAVOO_clean_linker_0, # of connection points: 4
#     Node 10, Type 1, BuildingBlock: AZAVOO_clean_linker_0, # of connection points: 4
#     Node 11, Type 1, BuildingBlock: AZAVOO_clean_linker_0, # of connection points: 4
#     Node 12, Type 1, BuildingBlock: AZAVOO_clean_linker_0, # of connection points: 4
#     Node 13, Type 1, BuildingBlock: AZAVOO_clean_linker_0, # of connection points: 4
#     Edge 14, Type (0, 1), BuildingBlock: ZUJKAS_clean_linker_0, # of connection points: 2
#     Edge 15, Type (0, 1), BuildingBlock: ZUJKAS_clean_linker_0, # of connection points: 2
#     Edge 16, Type (0, 1), BuildingBlock: ZUJKAS_clean_linker_0, # of connection points: 2
#     Edge 17, Type (0, 1), BuildingBlock: ZUJKAS_clean_linker_0, # of connection points: 2
#     Edge 18, Type (0, 1), BuildingBlock: ZUJKAS_clean_linker_0, # of connection points: 2
#     Edge 19, Type (0, 1), BuildingBlock: ZUJKAS_clean_linker_0, # of connection points: 2
#     Edge 20, Type (0, 1), BuildingBlock: ZUJKAS_clean_linker_0, # of connection points: 2
#     Edge 21, Type (0, 1), BuildingBlock: ZUJKAS_clean_linker_0, # of connection points: 2
#     Edge 22, Type (0, 1), BuildingBlock: ZUJKAS_clean_linker_0, # of connection points: 2
#     Edge 23, Type (0, 1), BuildingBlock: ZUJKAS_clean_linker_0, # of connection points: 2
#     Edge 24, Type (0, 1), BuildingBlock: ZUJKAS_clean_linker_0, # of connection points: 2
#     Edge 25, Type (0, 1), BuildingBlock: ZUJKAS_clean_linker_0, # of connection points: 2
#     Edge 26, Type (0, 1), BuildingBlock: ZUJKAS_clean_linker_0, # of connection points: 2
#     Edge 27, Type (0, 1), BuildingBlock: ZUJKAS_clean_linker_0, # of connection points: 2
#     Edge 28, Type (0, 1), BuildingBlock: ZUJKAS_clean_linker_0, # of connection points: 2
#     Edge 29, Type (0, 1), BuildingBlock: ZUJKAS_clean_linker_0, # of connection points: 2
#     Edge 30, Type (0, 1), BuildingBlock: ZUJKAS_clean_linker_0, # of connection points: 2
#     Edge 31, Type (0, 1), BuildingBlock: ZUJKAS_clean_linker_0, # of connection points: 2
#     Edge 32, Type (0, 1), BuildingBlock: ZUJKAS_clean_linker_0, # of connection points: 2
#     Edge 33, Type (0, 1), BuildingBlock: ZUJKAS_clean_linker_0, # of connection points: 2
#     Edge 34, Type (0, 1), BuildingBlock: ZUJKAS_clean_linker_0, # of connection points: 2
#     Edge 35, Type (0, 1), BuildingBlock: ZUJKAS_clean_linker_0, # of connection points: 2
#     Edge 36, Type (0, 1), BuildingBlock: ZUJKAS_clean_linker_0, # of connection points: 2
#     Edge 37, Type (0, 1), BuildingBlock: ZUJKAS_clean_linker_0, # of connection points: 2
# Relax obj value: 0.067
# Max RMSD: 0.230
# Mean RMSD: 0.142
data_MOF--net-pto--node1-OLANEW_clean_sbu_2--node2-AZAVOO_clean_linker_0--edge1-ZUJKAS_clean_linker_0
_symmetry_space_group_name_H-M    P1
_symmetry_Int_Tables_number       1
_symmetry_cell_setting            triclinic
loop_
_symmetry_equiv_pos_as_xyz
'x, y, z'
_cell_length_a     61.32601
_cell_length_b     63.600685
_cell_length_c     63.199384
_cell_angle_alpha  93.200381
_cell_angle_beta   90.219903
_cell_angle_gamma 105.98232
loop_
_atom_site_label
_atom_site_type_symbol
_atom_site_fract_x
_atom_site_fract_y
_atom_site_fract_z
_atom_type_partial_charge
O0 O 0.35217 0.43864 0.27883 0.0
Cd1 Cd 0.32546 0.43869 0.30736 0.0
O2 O 0.34713 0.46748 0.264 0.0
Cd3 Cd 0.32035 0.47184 0.28492 0.0
O4 O 0.28878 0.48089 0.28935 0.0
C5 C 0.27582 0.47752 0.27304 0.0
O6 O 0.28192 0.46839 0.25572 0.0
C7 C 0.35696 0.45235 0.2645 0.0
C8 C 0.3286 0.40766 0.3359 0.0
O9 O 0.31504 0.40241 0.31979 0.0
O10 O 0.34043 0.42767 0.33869 0.0
O11 O 0.30025 0.96844 0.84604 0.0
Cd12 Cd 0.27469 0.98052 0.82275 0.0
O13 O 0.27956 0.93489 0.8387 0.0
Cd14 Cd 0.26593 0.89938 0.84045 0.0
O15 O 0.24439 0.86577 0.8353 0.0
C16 C 0.22634 0.85964 0.84582 0.0
O17 O 0.22163 0.87343 0.86015 0.0
C18 C 0.29624 0.94809 0.84879 0.0
C19 C 0.29463 0.00087 0.78686 0.0
O20 O 0.29459 0.01193 0.80445 0.0
O21 O 0.28565 0.9801 0.78637 0.0
O22 O 0.79857 0.8383 0.28951 0.0
Cd23 Cd 0.79996 0.82477 0.2527 0.0
O24 O 0.76811 0.8122 0.29674 0.0
Cd25 Cd 0.76132 0.80128 0.26348 0.0
O26 O 0.74134 0.80449 0.23583 0.0
C27 C 0.73045 0.81874 0.23873 0.0
O28 O 0.73253 0.82979 0.25717 0.0
C29 C 0.78409 0.82893 0.3028 0.0
C30 C 0.82991 0.79887 0.24862 0.0
O31 O 0.83675 0.8196 0.24666 0.0
O32 O 0.80888 0.79042 0.25238 0.0
O33 O 0.79327 0.25403 0.81651 0.0
Cd34 Cd 0.76426 0.22205 0.82786 0.0
O35 O 0.81372 0.25816 0.8459 0.0
Cd36 Cd 0.78596 0.2354 0.86118 0.0
O37 O 0.75257 0.23674 0.87178 0.0
C38 C 0.74628 0.25211 0.86387 0.0
O39 O 0.75961 0.26428 0.85035 0.0
C40 C 0.81106 0.26391 0.82732 0.0
C41 C 0.75048 0.19026 0.79479 0.0
O42 O 0.73969 0.20464 0.79869 0.0
O43 O 0.76768 0.19087 0.80663 0.0
O44 O 0.7576 0.7712 0.66556 0.0
Cd45 Cd 0.75782 0.73551 0.67763 0.0
O46 O 0.75164 0.78236 0.69787 0.0
Cd47 Cd 0.74178 0.80366 0.72214 0.0
O48 O 0.72733 0.81876 0.74838 0.0
C49 C 0.7072 0.82027 0.74648 0.0
O50 O 0.696 0.81336 0.72851 0.0
C51 C 0.75407 0.78602 0.67832 0.0
C52 C 0.79686 0.73486 0.69993 0.0
O53 O 0.79577 0.73256 0.67964 0.0
O54 O 0.77963 0.73798 0.70968 0.0
O55 O 0.70763 0.31375 0.29082 0.0
Cd56 Cd 0.66932 0.28887 0.29153 0.0
O57 O 0.70695 0.33057 0.32209 0.0
Cd58 Cd 0.67044 0.3163 0.32311 0.0
O59 O 0.64135 0.31932 0.30495 0.0
C60 C 0.64502 0.33782 0.29693 0.0
O61 O 0.6644 0.3526 0.30139 0.0
C62 C 0.71767 0.32753 0.30553 0.0
C63 C 0.66821 0.25463 0.31754 0.0
O64 O 0.67427 0.25376 0.29821 0.0
O65 O 0.66242 0.27158 0.32453 0.0
O66 O 0.29489 0.41675 0.82223 0.0
Cd67 Cd 0.27213 0.40705 0.78953 0.0
O68 O 0.31992 0.44393 0.80832 0.0
Cd69 Cd 0.3078 0.43088 0.77653 0.0
O70 O 0.30665 0.40413 0.75302 0.0
C71 C 0.32012 0.3928 0.75712 0.0
O72 O 0.33309 0.39826 0.77428 0.0
C73 C 0.31221 0.43328 0.82439 0.0
C74 C 0.24441 0.43498 0.78734 0.0
O75 O 0.23713 0.41614 0.79501 0.0
O76 O 0.26462 0.44041 0.78027 0.0
O77 O 0.35819 0.89468 0.28097 0.0
Cd78 Cd 0.3307 0.88958 0.30957 0.0
O79 O 0.33357 0.87065 0.26009 0.0
Cd80 Cd 0.3055 0.86152 0.2819 0.0
O81 O 0.2718 0.84039 0.28804 0.0
C82 C 0.27001 0.82093 0.29309 0.0
O83 O 0.28857 0.81486 0.296 0.0
C84 C 0.35307 0.88414 0.26311 0.0
C85 C 0.34026 0.92357 0.34112 0.0
O86 O 0.34704 0.90641 0.34308 0.0
O87 O 0.32925 0.92475 0.32415 0.0
H88 H 0.00373 0.43619 0.26917 0.0
H89 H 0.85144 0.57615 0.21288 0.0
H90 H 0.0297 0.55412 0.28444 0.0
H91 H 0.06604 0.54582 0.28854 0.0
H92 H 0.08395 0.56632 0.22533 0.0
H93 H 0.04718 0.57409 0.22122 0.0
H94 H 0.98446 0.52118 0.28048 0.0
H95 H 0.99003 0.48461 0.2817 0.0
H96 H 0.01699 0.49002 0.21848 0.0
H97 H 0.01108 0.52647 0.21739 0.0
H98 H 0.94479 0.54348 0.2801 0.0
H99 H 0.91349 0.5112 0.2861 0.0
H100 H 0.92322 0.48307 0.22422 0.0
H101 H 0.95454 0.51575 0.21823 0.0
H102 H 0.94496 0.59049 0.27264 0.0
H103 H 0.90694 0.59508 0.26802 0.0
H104 H 0.90193 0.56268 0.20545 0.0
H105 H 0.9401 0.55847 0.21018 0.0
H106 H 0.99232 0.6225 0.27693 0.0
H107 H 0.98003 0.65597 0.27633 0.0
H108 H 0.96074 0.64078 0.21018 0.0
H109 H 0.97372 0.60776 0.21081 0.0
H110 H 0.03392 0.6017 0.28494 0.0
H111 H 0.06656 0.63364 0.29165 0.0
H112 H 0.06177 0.65141 0.22713 0.0
H113 H 0.02905 0.61922 0.22051 0.0
O114 O 0.00162 0.45065 0.26834 0.0
O115 O 0.0155 0.45432 0.23587 0.0
O116 O 0.86994 0.59114 0.24738 0.0
O117 O 0.86648 0.57451 0.21514 0.0
C118 C 0.01276 0.56727 0.24935 0.0
C119 C 0.99385 0.54857 0.24801 0.0
C120 C 0.97176 0.55101 0.2462 0.0
C121 C 0.96864 0.57199 0.24427 0.0
C122 C 0.9876 0.59073 0.24521 0.0
C123 C 0.00963 0.58841 0.24842 0.0
C124 C 0.03579 0.56454 0.25248 0.0
C125 C 0.04157 0.55697 0.27156 0.0
C126 C 0.06239 0.55239 0.27391 0.0
C127 C 0.07785 0.55533 0.25723 0.0
C128 C 0.07228 0.56362 0.23836 0.0
C129 C 0.05141 0.56822 0.23603 0.0
C130 C 0.99722 0.52637 0.24879 0.0
C131 C 0.99143 0.51436 0.26687 0.0
C132 C 0.9947 0.49352 0.26755 0.0
C133 C 0.00393 0.48437 0.25018 0.0
C134 C 0.00982 0.49656 0.23212 0.0
C135 C 0.00648 0.51737 0.23145 0.0
C136 C 0.95185 0.53193 0.24873 0.0
C137 C 0.94001 0.53044 0.26775 0.0
C138 C 0.92231 0.51192 0.27123 0.0
C139 C 0.91609 0.49453 0.25571 0.0
C140 C 0.92763 0.49627 0.23642 0.0
C141 C 0.94548 0.51483 0.23298 0.0
C142 C 0.94533 0.5743 0.24168 0.0
C143 C 0.93565 0.58449 0.25792 0.0
C144 C 0.91392 0.58703 0.25526 0.0
C145 C 0.9014 0.57928 0.23633 0.0
C146 C 0.9111 0.56887 0.2202 0.0
C147 C 0.93287 0.56639 0.22287 0.0
C148 C 0.98389 0.61272 0.24392 0.0
C149 C 0.98604 0.62676 0.26218 0.0
C150 C 0.97877 0.64572 0.26186 0.0
C151 C 0.96916 0.65091 0.24327 0.0
C152 C 0.96823 0.6374 0.2247 0.0
C153 C 0.97556 0.61848 0.22503 0.0
C154 C 0.02924 0.60806 0.2522 0.0
C155 C 0.04001 0.61242 0.27221 0.0
C156 C 0.05865 0.63063 0.276 0.0
C157 C 0.06679 0.64497 0.25988 0.0
C158 C 0.05576 0.64074 0.2399 0.0
C159 C 0.03716 0.62237 0.23607 0.0
C160 C 0.0074 0.46223 0.25095 0.0
C161 C 0.87835 0.58204 0.23338 0.0
H162 H 0.03827 0.44822 0.81383 0.0
H163 H 0.85039 0.54852 0.75504 0.0
H164 H 0.04385 0.56394 0.82545 0.0
H165 H 0.08127 0.55714 0.82491 0.0
H166 H 0.08768 0.57264 0.75914 0.0
H167 H 0.05021 0.57937 0.75982 0.0
H168 H 0.00035 0.5231 0.82287 0.0
H169 H 0.01387 0.49048 0.82505 0.0
H170 H 0.03966 0.49893 0.76157 0.0
H171 H 0.0257 0.53131 0.75949 0.0
H172 H 0.95209 0.52969 0.81845 0.0
H173 H 0.92859 0.49175 0.81943 0.0
H174 H 0.94995 0.47773 0.75637 0.0
H175 H 0.97315 0.51578 0.75546 0.0
H176 H 0.94551 0.57956 0.81419 0.0
H177 H 0.90513 0.57678 0.80977 0.0
H178 H 0.90525 0.54534 0.74731 0.0
H179 H 0.94569 0.54847 0.75185 0.0
H180 H 0.98699 0.62043 0.81583 0.0
H181 H 0.97024 0.65065 0.81043 0.0
H182 H 0.95535 0.62716 0.74497 0.0
H183 H 0.97279 0.59775 0.75037 0.0
H184 H 0.0334 0.60841 0.8268 0.0
H185 H 0.06124 0.64418 0.83241 0.0
H186 H 0.05605 0.65523 0.76595 0.0
H187 H 0.02827 0.61917 0.76046 0.0
O188 O 0.03295 0.46109 0.81259 0.0
O189 O 0.04619 0.46636 0.78003 0.0
O190 O 0.86721 0.56611 0.78939 0.0
O191 O 0.86634 0.5498 0.75721 0.0
C192 C 0.01984 0.57042 0.79129 0.0
C193 C 0.00406 0.54948 0.78988 0.0
C194 C 0.98069 0.54746 0.78749 0.0
C195 C 0.97311 0.56636 0.78595 0.0
C196 C 0.98898 0.58734 0.78696 0.0
C197 C 0.0123 0.58938 0.79019 0.0
C198 C 0.04437 0.57206 0.79265 0.0
C199 C 0.05371 0.56661 0.81116 0.0
C200 C 0.07505 0.56273 0.81082 0.0
C201 C 0.08722 0.56414 0.7919 0.0
C202 C 0.07852 0.57124 0.77385 0.0
C203 C 0.05727 0.57528 0.77426 0.0
C204 C 0.01209 0.52954 0.79105 0.0
C205 C 0.00882 0.5178 0.80943 0.0
C206 C 0.01661 0.49921 0.81064 0.0
C207 C 0.02788 0.49211 0.79349 0.0
C208 C 0.03107 0.50396 0.77506 0.0
C209 C 0.02316 0.52247 0.77384 0.0
C210 C 0.96429 0.5254 0.78691 0.0
C211 C 0.95134 0.5185 0.80473 0.0
C212 C 0.93812 0.49682 0.80532 0.0
C213 C 0.93761 0.48174 0.78804 0.0
C214 C 0.94989 0.489 0.76985 0.0
C215 C 0.96317 0.51067 0.76932 0.0
C216 C 0.94849 0.56419 0.78336 0.0
C217 C 0.93677 0.5721 0.79957 0.0
C218 C 0.91372 0.57047 0.79701 0.0
C219 C 0.90195 0.56083 0.77818 0.0
C220 C 0.91377 0.55284 0.76201 0.0
C221 C 0.93685 0.55453 0.76458 0.0
C222 C 0.98105 0.60693 0.78349 0.0
C223 C 0.98051 0.62216 0.80025 0.0
C224 C 0.97077 0.63927 0.79717 0.0
C225 C 0.9614 0.64134 0.77727 0.0
C226 C 0.96272 0.62636 0.7604 0.0
C227 C 0.97252 0.60941 0.76347 0.0
C228 C 0.02883 0.61128 0.79326 0.0
C229 C 0.03826 0.61859 0.81347 0.0
C230 C 0.05404 0.63906 0.81666 0.0
C231 C 0.06077 0.65255 0.79963 0.0
C232 C 0.05131 0.64512 0.77933 0.0
C233 C 0.03538 0.62465 0.77618 0.0
C234 C 0.03625 0.47244 0.79488 0.0
C235 C 0.87747 0.55911 0.77535 0.0
H236 H 0.33988 0.1376 0.39835 0.0
H237 H 0.37373 0.32221 0.57256 0.0
H238 H 0.32195 0.12656 0.51527 0.0
H239 H 0.32272 0.09175 0.49717 0.0
H240 H 0.39519 0.10808 0.5081 0.0
H241 H 0.39418 0.14287 0.5265 0.0
H242 H 0.32311 0.16562 0.48507 0.0
H243 H 0.32348 0.15362 0.44761 0.0
H244 H 0.39461 0.15694 0.45412 0.0
H245 H 0.39402 0.16916 0.49149 0.0
H246 H 0.32049 0.21047 0.51074 0.0
H247 H 0.31792 0.23796 0.48601 0.0
H248 H 0.38725 0.24448 0.46792 0.0
H249 H 0.3897 0.21695 0.4929 0.0
H250 H 0.32081 0.21559 0.55762 0.0
H251 H 0.32008 0.25257 0.56984 0.0
H252 H 0.39001 0.27748 0.55174 0.0
H253 H 0.39061 0.24033 0.53994 0.0
H254 H 0.31918 0.17575 0.58127 0.0
H255 H 0.31221 0.19478 0.61424 0.0
H256 H 0.38184 0.23459 0.61569 0.0
H257 H 0.38869 0.21528 0.58293 0.0
H258 H 0.32245 0.13012 0.55834 0.0
H259 H 0.31936 0.10555 0.58729 0.0
H260 H 0.38643 0.14193 0.61 0.0
H261 H 0.38938 0.16641 0.58088 0.0
O262 O 0.34014 0.14251 0.41314 0.0
O263 O 0.37666 0.14438 0.41736 0.0
O264 O 0.33767 0.29375 0.57703 0.0
O265 O 0.3735 0.30744 0.56774 0.0
C266 C 0.35799 0.15973 0.52927 0.0
C267 C 0.35809 0.17496 0.51374 0.0
C268 C 0.35707 0.19632 0.51988 0.0
C269 C 0.35656 0.20266 0.54158 0.0
C270 C 0.35658 0.18751 0.55713 0.0
C271 C 0.35714 0.16595 0.55101 0.0
C272 C 0.35798 0.1371 0.5223 0.0
C273 C 0.33786 0.12229 0.51435 0.0
C274 C 0.33835 0.10245 0.50401 0.0
C275 C 0.35904 0.09727 0.50117 0.0
C276 C 0.37904 0.11174 0.50999 0.0
C277 C 0.37848 0.13147 0.52063 0.0
C278 C 0.35853 0.16822 0.49092 0.0
C279 C 0.33876 0.16385 0.47831 0.0
C280 C 0.33902 0.15695 0.45696 0.0
C281 C 0.35907 0.15428 0.44787 0.0
C282 C 0.37888 0.1588 0.46061 0.0
C283 C 0.3786 0.16576 0.48194 0.0
C284 C 0.35531 0.21183 0.50368 0.0
C285 C 0.3351 0.2178 0.50139 0.0
C286 C 0.3337 0.23355 0.48735 0.0
C287 C 0.35245 0.2435 0.47517 0.0
C288 C 0.3725 0.237 0.47702 0.0
C289 C 0.37394 0.22133 0.49125 0.0
C290 C 0.35581 0.22529 0.54806 0.0
C291 C 0.33596 0.22905 0.55638 0.0
C292 C 0.33558 0.2502 0.56329 0.0
C293 C 0.35502 0.26799 0.56181 0.0
C294 C 0.37477 0.26416 0.55315 0.0
C295 C 0.37515 0.24298 0.54634 0.0
C296 C 0.35439 0.19424 0.5797 0.0
C297 C 0.33313 0.18797 0.58919 0.0
C298 C 0.32912 0.19902 0.60786 0.0
C299 C 0.34638 0.2164 0.61734 0.0
C300 C 0.36824 0.22121 0.60883 0.0
C301 C 0.3722 0.2102 0.59013 0.0
C302 C 0.35621 0.14993 0.56741 0.0
C303 C 0.33665 0.13249 0.5693 0.0
C304 C 0.33492 0.11849 0.58586 0.0
C305 C 0.35265 0.12181 0.60095 0.0
C306 C 0.37241 0.13908 0.59875 0.0
C307 C 0.37418 0.15299 0.58209 0.0
C308 C 0.35925 0.14678 0.42523 0.0
C309 C 0.35478 0.29046 0.56933 0.0
H310 H 0.49943 0.92018 0.88266 0.0
H311 H 0.6555 0.81791 0.00643 0.0
H312 H 0.51307 0.92258 0.99524 0.0
H313 H 0.47809 0.92926 0.98246 0.0
H314 H 0.44106 0.86316 0.99575 0.0
H315 H 0.47637 0.8565 0.00803 0.0
H316 H 0.5483 0.91535 0.96113 0.0
H317 H 0.533 0.92291 0.92743 0.0
H318 H 0.47842 0.86323 0.92988 0.0
H319 H 0.49412 0.85571 0.96336 0.0
H320 H 0.59258 0.90046 0.97543 0.0
H321 H 0.61366 0.89624 0.94333 0.0
H322 H 0.55954 0.83935 0.92233 0.0
H323 H 0.53864 0.84374 0.95442 0.0
H324 H 0.60038 0.89413 0.0235 0.0
H325 H 0.63511 0.88257 0.02658 0.0
H326 H 0.60088 0.81992 0.99514 0.0
H327 H 0.5662 0.83162 0.9924 0.0
H328 H 0.56856 0.90078 0.05747 0.0
H329 H 0.5887 0.8923 0.08799 0.0
H330 H 0.5653 0.82337 0.06868 0.0
H331 H 0.54567 0.83211 0.03803 0.0
H332 H 0.52333 0.91676 0.04387 0.0
H333 H 0.50314 0.92097 0.07655 0.0
H334 H 0.48313 0.85068 0.08083 0.0
H335 H 0.50307 0.84665 0.04799 0.0
O336 O 0.50537 0.91673 0.89583 0.0
O337 O 0.47745 0.88608 0.89804 0.0
O338 O 0.65882 0.85537 0.02151 0.0
O339 O 0.64203 0.82293 0.00536 0.0
C340 C 0.51899 0.8832 0.00422 0.0
C341 C 0.53108 0.88097 0.98556 0.0
C342 C 0.55145 0.87483 0.98675 0.0
C343 C 0.55957 0.87054 0.00651 0.0
C344 C 0.54732 0.87241 0.0251 0.0
C345 C 0.52714 0.87897 0.02402 0.0
C346 C 0.49726 0.88903 0.00243 0.0
C347 C 0.49727 0.90979 0.99603 0.0
C348 C 0.47723 0.91356 0.98873 0.0
C349 C 0.45683 0.89662 0.98779 0.0
C350 C 0.45658 0.87641 0.99593 0.0
C351 C 0.47666 0.87265 0.00322 0.0
C352 C 0.52227 0.88504 0.96469 0.0
C353 C 0.53315 0.90386 0.95425 0.0
C354 C 0.52432 0.90817 0.93506 0.0
C355 C 0.50443 0.89371 0.926 0.0
C356 C 0.49373 0.87473 0.93643 0.0
C357 C 0.50264 0.8704 0.95556 0.0
C358 C 0.56409 0.87244 0.96719 0.0
C359 C 0.58534 0.8871 0.96387 0.0
C360 C 0.59735 0.88462 0.9456 0.0
C361 C 0.58823 0.86749 0.93029 0.0
C362 C 0.56687 0.85289 0.93367 0.0
C363 C 0.55494 0.85532 0.95199 0.0
C364 C 0.58081 0.8637 0.00775 0.0
C365 C 0.60044 0.87792 0.01731 0.0
C366 C 0.62024 0.87127 0.01903 0.0
C367 C 0.62077 0.8503 0.01111 0.0
C368 C 0.60107 0.83617 0.0014 0.0
C369 C 0.58126 0.84282 0.99975 0.0
C370 C 0.55577 0.86706 0.04556 0.0
C371 C 0.56739 0.88383 0.06016 0.0
C372 C 0.57887 0.87894 0.07756 0.0
C373 C 0.57884 0.85717 0.08061 0.0
C374 C 0.56603 0.84032 0.06655 0.0
C375 C 0.55463 0.84524 0.04918 0.0
C376 C 0.51462 0.88141 0.0436 0.0
C377 C 0.51451 0.9023 0.05187 0.0
C378 C 0.50313 0.90467 0.07059 0.0
C379 C 0.49158 0.88615 0.08128 0.0
C380 C 0.49168 0.86523 0.07285 0.0
C381 C 0.50313 0.8629 0.05418 0.0
C382 C 0.49488 0.89852 0.90579 0.0
C383 C 0.64172 0.84311 0.01301 0.0
H384 H 0.69285 0.99922 0.37513 0.0
H385 H 0.70846 0.16639 0.55841 0.0
H386 H 0.69088 0.97662 0.48335 0.0
H387 H 0.70359 0.9475 0.46474 0.0
H388 H 0.77076 0.97483 0.49234 0.0
H389 H 0.75809 0.00437 0.51016 0.0
H390 H 0.67662 0.01696 0.46464 0.0
H391 H 0.67661 0.00866 0.42636 0.0
H392 H 0.74917 0.01812 0.42954 0.0
H393 H 0.74897 0.02666 0.46776 0.0
H394 H 0.66903 0.05855 0.49544 0.0
H395 H 0.66182 0.08536 0.47213 0.0
H396 H 0.72955 0.09603 0.44763 0.0
H397 H 0.73701 0.07031 0.47205 0.0
H398 H 0.67196 0.05749 0.54382 0.0
H399 H 0.66604 0.09201 0.55813 0.0
H400 H 0.73085 0.12724 0.53381 0.0
H401 H 0.73667 0.09257 0.51981 0.0
H402 H 0.68055 0.02117 0.56572 0.0
H403 H 0.6813 0.03348 0.60336 0.0
H404 H 0.74821 0.07727 0.59604 0.0
H405 H 0.74725 0.06497 0.55858 0.0
H406 H 0.68774 0.97705 0.53449 0.0
H407 H 0.69289 0.94941 0.55795 0.0
H408 H 0.75803 0.99234 0.57873 0.0
H409 H 0.75259 0.02 0.55528 0.0
O410 O 0.69326 0.00265 0.39026 0.0
O411 O 0.73054 0.00759 0.39278 0.0
O412 O 0.67726 0.13361 0.56525 0.0
O413 O 0.71039 0.15251 0.55296 0.0
C414 C 0.71708 0.01233 0.50638 0.0
C415 C 0.71264 0.02721 0.49223 0.0
C416 C 0.70812 0.04675 0.50023 0.0
C417 C 0.70841 0.05155 0.52235 0.0
C418 C 0.71265 0.03658 0.53644 0.0
C419 C 0.71663 0.01683 0.52849 0.0
C420 C 0.72362 0.99271 0.49793 0.0
C421 C 0.70824 0.97611 0.48558 0.0
C422 C 0.71552 0.9594 0.47509 0.0
C423 C 0.73827 0.95894 0.47691 0.0
C424 C 0.75324 0.97491 0.49033 0.0
C425 C 0.74599 0.99168 0.50069 0.0
C426 C 0.71278 0.02235 0.46896 0.0
C427 C 0.6925 0.0173 0.45701 0.0
C428 C 0.69254 0.01253 0.43517 0.0
C429 C 0.71289 0.01269 0.42489 0.0
C430 C 0.7332 0.01782 0.43695 0.0
C431 C 0.73314 0.02266 0.45879 0.0
C432 C 0.70354 0.06249 0.48546 0.0
C433 C 0.68233 0.06681 0.48512 0.0
C434 C 0.67818 0.08198 0.4716 0.0
C435 C 0.69509 0.0929 0.45791 0.0
C436 C 0.71625 0.08826 0.45816 0.0
C437 C 0.72048 0.07335 0.47192 0.0
C438 C 0.70475 0.07255 0.53083 0.0
C439 C 0.68489 0.07268 0.54169 0.0
C440 C 0.68154 0.09242 0.54979 0.0
C441 C 0.69799 0.1124 0.54711 0.0
C442 C 0.71785 0.11216 0.53615 0.0
C443 C 0.7212 0.0924 0.52811 0.0
C444 C 0.71385 0.04222 0.55954 0.0
C445 C 0.69545 0.03319 0.5724 0.0
C446 C 0.69586 0.04029 0.59378 0.0
C447 C 0.71482 0.05629 0.60259 0.0
C448 C 0.7335 0.06472 0.58975 0.0
C449 C 0.73296 0.05781 0.56838 0.0
C450 C 0.71976 0.00051 0.54325 0.0
C451 C 0.70308 0.98048 0.54417 0.0
C452 C 0.70611 0.9647 0.55749 0.0
C453 C 0.72591 0.96866 0.57014 0.0
C454 C 0.74248 0.9889 0.56937 0.0
C455 C 0.73944 0.00468 0.55598 0.0
C456 C 0.71286 0.00751 0.40169 0.0
C457 C 0.6945 0.13341 0.55568 0.0
H458 H 0.51959 0.4123 0.88027 0.0
H459 H 0.633 0.31051 0.04222 0.0
H460 H 0.51972 0.43409 0.99279 0.0
H461 H 0.48891 0.44638 0.97763 0.0
H462 H 0.44008 0.38994 0.00077 0.0
H463 H 0.47107 0.37739 0.01517 0.0
H464 H 0.55511 0.41408 0.96659 0.0
H465 H 0.54632 0.41775 0.9294 0.0
H466 H 0.48154 0.36961 0.93492 0.0
H467 H 0.49068 0.36591 0.972 0.0
H468 H 0.59001 0.39334 0.98828 0.0
H469 H 0.61091 0.3743 0.96468 0.0
H470 H 0.5493 0.32247 0.95113 0.0
H471 H 0.52863 0.34149 0.97499 0.0
H472 H 0.59194 0.39731 0.04012 0.0
H473 H 0.62267 0.38153 0.0493 0.0
H474 H 0.58209 0.31778 0.02502 0.0
H475 H 0.55141 0.33372 0.01619 0.0
H476 H 0.55584 0.41511 0.06895 0.0
H477 H 0.56219 0.40994 0.10634 0.0
H478 H 0.53773 0.33975 0.09393 0.0
H479 H 0.53059 0.34518 0.05684 0.0
H480 H 0.52101 0.43416 0.04675 0.0
H481 H 0.50091 0.44436 0.07743 0.0
H482 H 0.46937 0.37579 0.08617 0.0
H483 H 0.48975 0.36584 0.05577 0.0
O484 O 0.52279 0.41047 0.89496 0.0
O485 O 0.48966 0.38571 0.89865 0.0
O486 O 0.64113 0.35021 0.05144 0.0
O487 O 0.62108 0.31714 0.03889 0.0
C488 C 0.51629 0.39544 0.01077 0.0
C489 C 0.52877 0.38795 0.99465 0.0
C490 C 0.54603 0.37831 9e-05 0.0
C491 C 0.55108 0.37643 0.02162 0.0
C492 C 0.53843 0.38364 0.03766 0.0
C493 C 0.5209 0.39296 0.03224 0.0
C494 C 0.49761 0.4048 0.00494 0.0
C495 C 0.50233 0.42463 0.9949 0.0
C496 C 0.4847 0.43168 0.98639 0.0
C497 C 0.46205 0.41904 0.98787 0.0
C498 C 0.45736 0.39988 0.99913 0.0
C499 C 0.475 0.39279 0.00753 0.0
C500 C 0.52351 0.3898 0.97198 0.0
C501 C 0.53909 0.40428 0.95969 0.0
C502 C 0.53399 0.40637 0.93847 0.0
C503 C 0.5132 0.39401 0.92919 0.0
C504 C 0.49768 0.37941 0.94157 0.0
C505 C 0.50284 0.37728 0.96276 0.0
C506 C 0.55787 0.36874 0.98334 0.0
C507 C 0.58099 0.37809 0.97988 0.0
C508 C 0.59284 0.36723 0.96637 0.0
C509 C 0.58174 0.34682 0.95619 0.0
C510 C 0.55832 0.33804 0.95896 0.0
C511 C 0.54647 0.34895 0.9724 0.0
C512 C 0.56953 0.36667 0.0274 0.0
C513 C 0.58972 0.37993 0.03687 0.0
C514 C 0.60724 0.37088 0.04206 0.0
C515 C 0.60486 0.34839 0.03784 0.0
C516 C 0.58451 0.33515 0.02844 0.0
C517 C 0.56698 0.34421 0.02333 0.0
C518 C 0.54287 0.38052 0.06021 0.0
C519 C 0.55179 0.39865 0.07439 0.0
C520 C 0.55551 0.39564 0.09568 0.0
C521 C 0.55046 0.37442 0.10313 0.0
C522 C 0.54148 0.35631 0.08881 0.0
C523 C 0.53765 0.35935 0.06757 0.0
C524 C 0.50689 0.39929 0.04918 0.0
C525 C 0.50952 0.42141 0.05518 0.0
C526 C 0.49803 0.42718 0.07266 0.0
C527 C 0.48376 0.41086 0.08437 0.0
C528 C 0.48059 0.38873 0.07776 0.0
C529 C 0.49206 0.38301 0.06033 0.0
C530 C 0.50776 0.39641 0.9067 0.0
C531 C 0.62349 0.33872 0.04317 0.0
H532 H 0.24505 0.47259 0.24059 0.0
H533 H 0.21164 0.48634 0.23962 0.0
H534 H 0.22555 0.51257 0.30418 0.0
H535 H 0.25928 0.49907 0.30527 0.0
H536 H 0.17336 0.47718 0.26563 0.0
H537 H 0.22054 0.56559 0.27183 0.0
H538 H 0.2342 0.54434 0.26542 0.0
H539 H 0.22688 0.54956 0.29232 0.0
C540 C 0.24103 0.48125 0.25463 0.0
C541 C 0.25492 0.48486 0.27298 0.0
C542 C 0.22191 0.48908 0.25403 0.0
C543 C 0.21635 0.50075 0.2717 0.0
C544 C 0.22983 0.50396 0.29024 0.0
H545 H 0.10698 0.56229 0.29149 0.0
H546 H 0.14047 0.54884 0.2955 0.0
C547 C 0.249 0.49611 0.29087 0.0
C548 C 0.19637 0.50946 0.2706 0.0
H549 H 0.1805 0.55693 0.27168 0.0
C550 C 0.1749 0.49461 0.26696 0.0
C551 C 0.19848 0.53221 0.27237 0.0
C552 C 0.22126 0.54892 0.27553 0.0
C553 C 0.1554 0.5019 0.26512 0.0
C554 C 0.15754 0.52465 0.2666 0.0
C555 C 0.17897 0.5395 0.27052 0.0
C556 C 0.13773 0.53334 0.26389 0.0
C557 C 0.13264 0.48516 0.26188 0.0
C558 C 0.12545 0.52949 0.24462 0.0
C559 C 0.10629 0.53705 0.2423 0.0
C560 C 0.09913 0.54872 0.2592 0.0
C561 C 0.11188 0.55309 0.27829 0.0
C562 C 0.13106 0.54552 0.28058 0.0
H563 H 0.13316 0.46874 0.26663 0.0
H564 H 0.11935 0.49023 0.27108 0.0
H565 H 0.12768 0.48365 0.24485 0.0
H566 H 0.13058 0.52046 0.23142 0.0
H567 H 0.09674 0.53325 0.22747 0.0
H568 H 0.22891 0.82863 0.81474 0.0
H569 H 0.2009 0.79355 0.80577 0.0
H570 H 0.15939 0.80599 0.8573 0.0
H571 H 0.18704 0.84122 0.86616 0.0
H572 H 0.18435 0.7575 0.82946 0.0
H573 H 0.115 0.79293 0.80707 0.0
H574 H 0.14407 0.80925 0.81058 0.0
H575 H 0.12651 0.80191 0.83323 0.0
C576 C 0.21383 0.8239 0.82419 0.0
C577 C 0.21012 0.83782 0.84107 0.0
C578 C 0.19785 0.80385 0.81903 0.0
C579 C 0.17785 0.79738 0.83059 0.0
C580 C 0.17443 0.81092 0.84783 0.0
H581 H 0.06267 0.68343 0.83192 0.0
H582 H 0.09158 0.71842 0.83859 0.0
C583 C 0.19034 0.831 0.85295 0.0
C584 C 0.16065 0.77636 0.82477 0.0
H585 H 0.10487 0.75436 0.81054 0.0
C586 C 0.16702 0.75681 0.82516 0.0
C587 C 0.13807 0.77553 0.81908 0.0
C588 C 0.13051 0.79603 0.81724 0.0
C589 C 0.15122 0.73638 0.8206 0.0
C590 C 0.12857 0.73556 0.81531 0.0
C591 C 0.12226 0.7551 0.81468 0.0
C592 C 0.11102 0.71452 0.81089 0.0
C593 C 0.15869 0.71578 0.82202 0.0
C594 C 0.11222 0.70094 0.79291 0.0
C595 C 0.09572 0.68093 0.78904 0.0
C596 C 0.07777 0.67419 0.80313 0.0
C597 C 0.07646 0.68804 0.82094 0.0
C598 C 0.09288 0.70807 0.82472 0.0
H599 H 0.17544 0.71901 0.83023 0.0
H600 H 0.14601 0.70335 0.83056 0.0
H601 H 0.16009 0.70873 0.80579 0.0
H602 H 0.12596 0.70579 0.78191 0.0
H603 H 0.09725 0.67055 0.77527 0.0
H604 H 0.82039 0.75463 0.25197 0.0
H605 H 0.84688 0.73208 0.24993 0.0
H606 H 0.90183 0.78921 0.239 0.0
H607 H 0.8755 0.812 0.24123 0.0
H608 H 0.87511 0.72596 0.21638 0.0
H609 H 0.92477 0.76255 0.28967 0.0
H610 H 0.89744 0.76655 0.28364 0.0
H611 H 0.92228 0.78165 0.2705 0.0
C612 C 0.83811 0.76243 0.24914 0.0
C613 C 0.84586 0.78514 0.24687 0.0
C614 C 0.85321 0.74951 0.24795 0.0
C615 C 0.87634 0.75903 0.24458 0.0
C616 C 0.8841 0.78162 0.24197 0.0
H617 H 0.97069 0.68075 0.21311 0.0
H618 H 0.94977 0.70848 0.21264 0.0
C619 C 0.86901 0.79458 0.24315 0.0
C620 C 0.89221 0.74518 0.24375 0.0
H621 H 0.93724 0.73572 0.26969 0.0
C622 C 0.88878 0.72814 0.22795 0.0
C623 C 0.90989 0.74801 0.259 0.0
C624 C 0.9138 0.76554 0.27679 0.0
C625 C 0.90245 0.71368 0.22707 0.0
C626 C 0.92019 0.71657 0.24226 0.0
C627 C 0.92375 0.73372 0.25796 0.0
C628 C 0.93419 0.70099 0.24298 0.0
C629 C 0.8973 0.695 0.21036 0.0
C630 C 0.93291 0.68813 0.26048 0.0
C631 C 0.94481 0.67233 0.26081 0.0
C632 C 0.95835 0.66916 0.24366 0.0
C633 C 0.96018 0.68259 0.22643 0.0
C634 C 0.94825 0.69842 0.22613 0.0
H635 H 0.88037 0.69249 0.2027 0.0
H636 H 0.91027 0.69862 0.19788 0.0
H637 H 0.89791 0.67951 0.21731 0.0
H638 H 0.92213 0.68986 0.27364 0.0
H639 H 0.94272 0.66206 0.27417 0.0
H640 H 0.84762 0.29199 0.84827 0.0
H641 H 0.87056 0.32724 0.83699 0.0
H642 H 0.8344 0.31555 0.77692 0.0
H643 H 0.811 0.2804 0.7882 0.0
H644 H 0.89866 0.34024 0.80275 0.0
H645 H 0.82322 0.37267 0.80062 0.0
H646 H 0.82264 0.34731 0.81234 0.0
H647 H 0.82104 0.34829 0.78403 0.0
C648 C 0.8447 0.29674 0.83254 0.0
C649 C 0.82725 0.2835 0.81925 0.0
C650 C 0.85785 0.31691 0.82613 0.0
C651 C 0.85383 0.3242 0.80632 0.0
C652 C 0.8374 0.31044 0.79248 0.0
H653 H 0.91005 0.45428 0.75791 0.0
H654 H 0.89049 0.41525 0.76025 0.0
C655 C 0.82415 0.2903 0.79891 0.0
C656 C 0.86604 0.34666 0.80078 0.0
H657 H 0.85818 0.39651 0.79155 0.0
C658 C 0.88982 0.35252 0.80017 0.0
C659 C 0.85443 0.36264 0.79745 0.0
C660 C 0.82894 0.35755 0.7988 0.0
C661 C 0.90233 0.37402 0.79653 0.0
C662 C 0.89073 0.39006 0.79369 0.0
C663 C 0.86696 0.3841 0.7937 0.0
C664 C 0.90298 0.41342 0.79196 0.0
C665 C 0.92785 0.37943 0.79582 0.0
C666 C 0.91615 0.42529 0.80913 0.0
C667 C 0.92722 0.4475 0.80788 0.0
C668 C 0.92529 0.45827 0.78943 0.0
C669 C 0.91198 0.44636 0.77226 0.0
C670 C 0.90079 0.42412 0.77358 0.0
H671 H 0.93367 0.36451 0.79263 0.0
H672 H 0.93459 0.39115 0.78347 0.0
H673 H 0.93516 0.38718 0.81138 0.0
H674 H 0.91772 0.41739 0.82359 0.0
H675 H 0.93755 0.45618 0.82127 0.0
H676 H 0.30907 0.36342 0.33202 0.0
H677 H 0.31363 0.33588 0.35584 0.0
H678 H 0.35757 0.38655 0.39686 0.0
H679 H 0.35351 0.41419 0.37288 0.0
H680 H 0.37467 0.35151 0.38939 0.0
H681 H 0.2848 0.32329 0.41307 0.0
H682 H 0.28838 0.32172 0.38491 0.0
H683 H 0.29584 0.348 0.39931 0.0
C684 C 0.31961 0.36874 0.34617 0.0
C685 C 0.33084 0.39102 0.35061 0.0
C686 C 0.3221 0.35297 0.35982 0.0
C687 C 0.33564 0.3592 0.37831 0.0
C688 C 0.34696 0.38141 0.38273 0.0
H689 H 0.33503 0.27802 0.48406 0.0
H690 H 0.33199 0.3064 0.46058 0.0
C691 C 0.34458 0.39718 0.36903 0.0
C692 C 0.33839 0.34251 0.3928 0.0
H693 H 0.30892 0.30189 0.42324 0.0
C694 C 0.36031 0.3407 0.39687 0.0
C695 C 0.31967 0.32862 0.40274 0.0
C696 C 0.29587 0.3306 0.39998 0.0
C697 C 0.36399 0.32518 0.4104 0.0
C698 C 0.34518 0.31079 0.41975 0.0
C699 C 0.3233 0.31279 0.41588 0.0
C700 C 0.34777 0.29384 0.43401 0.0
C701 C 0.38802 0.32466 0.41488 0.0
C702 C 0.35758 0.27729 0.42684 0.0
C703 C 0.3594 0.26107 0.44026 0.0
C704 C 0.35114 0.26095 0.46099 0.0
C705 C 0.3413 0.27753 0.46809 0.0
C706 C 0.33963 0.2938 0.45472 0.0
H707 H 0.40051 0.34032 0.41134 0.0
H708 H 0.39036 0.32139 0.43169 0.0
H709 H 0.39182 0.31137 0.4047 0.0
H710 H 0.3635 0.2767 0.41075 0.0
H711 H 0.3668 0.24834 0.43429 0.0
H712 H 0.30549 0.90814 0.84869 0.0
H713 H 0.32921 0.89629 0.87418 0.0
H714 H 0.344 0.95959 0.90793 0.0
H715 H 0.31981 0.97129 0.88295 0.0
H716 H 0.37539 0.9155 0.88285 0.0
H717 H 0.32534 0.91735 0.95546 0.0
H718 H 0.31365 0.91734 0.92918 0.0
H719 H 0.33137 0.94226 0.94182 0.0
C720 C 0.31325 0.91931 0.86186 0.0
C721 C 0.31033 0.94048 0.86408 0.0
C722 C 0.327 0.9126 0.87629 0.0
C723 C 0.33797 0.9269 0.89321 0.0
C724 C 0.33525 0.94809 0.89531 0.0
H725 H 0.43996 0.93243 0.98903 0.0
H726 H 0.40993 0.93828 0.96634 0.0
C727 C 0.32158 0.95482 0.8809 0.0
C728 C 0.35334 0.92023 0.90799 0.0
H729 H 0.36324 0.9151 0.96043 0.0
C730 C 0.37262 0.91515 0.89978 0.0
C731 C 0.34969 0.91988 0.93008 0.0
C732 C 0.32878 0.9243 0.93968 0.0
C733 C 0.38877 0.91044 0.91315 0.0
C734 C 0.38531 0.91042 0.93528 0.0
C735 C 0.36585 0.91516 0.94347 0.0
C736 C 0.40209 0.90612 0.95018 0.0
C737 C 0.40982 0.90628 0.90354 0.0
C738 C 0.40713 0.88588 0.94903 0.0
C739 C 0.42432 0.88253 0.96187 0.0
C740 C 0.43671 0.89933 0.97623 0.0
C741 C 0.43091 0.91927 0.97798 0.0
C742 C 0.4137 0.92259 0.96511 0.0
H743 H 0.41241 0.91189 0.88717 0.0
H744 H 0.42513 0.91469 0.91335 0.0
H745 H 0.40815 0.88843 0.90284 0.0
H746 H 0.39811 0.87283 0.93784 0.0
H747 H 0.42852 0.86708 0.9599 0.0
H748 H 0.75263 0.8163 0.33352 0.0
H749 H 0.74952 0.83657 0.36684 0.0
H750 H 0.81271 0.88424 0.35489 0.0
H751 H 0.81583 0.86431 0.32133 0.0
H752 H 0.77759 0.85203 0.40379 0.0
H753 H 0.76563 0.9196 0.35689 0.0
H754 H 0.76455 0.89289 0.34496 0.0
H755 H 0.79142 0.91215 0.35189 0.0
C756 C 0.76609 0.83089 0.33811 0.0
C757 C 0.78429 0.8389 0.32457 0.0
C758 C 0.76428 0.84243 0.3572 0.0
C759 C 0.78064 0.86211 0.36308 0.0
C760 C 0.79968 0.86928 0.3504 0.0
H761 H 0.77816 0.96694 0.45575 0.0
H762 H 0.7905 0.94231 0.43054 0.0
C763 C 0.80147 0.85783 0.33126 0.0
C764 C 0.77668 0.87607 0.38137 0.0
H765 H 0.76599 0.92509 0.394 0.0
C766 C 0.77515 0.86805 0.40172 0.0
C767 C 0.7733 0.89687 0.37853 0.0
C768 C 0.77359 0.90588 0.35689 0.0
C769 C 0.77055 0.88045 0.4194 0.0
C770 C 0.76711 0.9012 0.41651 0.0
C771 C 0.7688 0.90923 0.39618 0.0
C772 C 0.76106 0.9148 0.43409 0.0
C773 C 0.76963 0.87137 0.44102 0.0
C774 C 0.74052 0.90739 0.44467 0.0
C775 C 0.73346 0.92141 0.45926 0.0
C776 C 0.74677 0.94313 0.46341 0.0
C777 C 0.76766 0.95022 0.45323 0.0
C778 C 0.7747 0.93621 0.4387 0.0
H779 H 0.77853 0.85836 0.44144 0.0
H780 H 0.77733 0.88451 0.45333 0.0
H781 H 0.75165 0.86408 0.44509 0.0
H782 H 0.72952 0.89106 0.44104 0.0
H783 H 0.71736 0.9154 0.46694 0.0
H784 H 0.7148 0.23097 0.8919 0.0
H785 H 0.68188 0.24211 0.90512 0.0
H786 H 0.6983 0.29708 0.86537 0.0
H787 H 0.7307 0.28585 0.85177 0.0
H788 H 0.6833 0.28013 0.92697 0.0
H789 H 0.63109 0.27377 0.85413 0.0
H790 H 0.65416 0.26133 0.85557 0.0
H791 H 0.65968 0.28996 0.85076 0.0
C792 C 0.71115 0.24521 0.88573 0.0
C793 C 0.72536 0.25753 0.87079 0.0
C794 C 0.69235 0.25155 0.89329 0.0
C795 C 0.68742 0.27022 0.88597 0.0
C796 C 0.70139 0.28228 0.87082 0.0
H797 H 0.61464 0.36145 0.92714 0.0
H798 H 0.63853 0.34078 0.90956 0.0
C799 C 0.72006 0.27593 0.8632 0.0
C800 C 0.66903 0.27836 0.8955 0.0
H801 H 0.62349 0.29683 0.8832 0.0
C802 C 0.66998 0.28341 0.91746 0.0
C803 C 0.65168 0.28268 0.88304 0.0
C804 C 0.64893 0.27643 0.8596 0.0
C805 C 0.65466 0.29353 0.92715 0.0
C806 C 0.63792 0.29859 0.91455 0.0
C807 C 0.6365 0.29302 0.89273 0.0
C808 C 0.62229 0.3104 0.92382 0.0
C809 C 0.65694 0.29949 0.95066 0.0
C810 C 0.60508 0.29996 0.93727 0.0
C811 C 0.59145 0.31167 0.94729 0.0
C812 C 0.59488 0.33404 0.94404 0.0
C813 C 0.61177 0.34429 0.93007 0.0
C814 C 0.6253 0.33251 0.91995 0.0
H815 H 0.6727 0.29714 0.95762 0.0
H816 H 0.6569 0.31683 0.95388 0.0
H817 H 0.64221 0.28906 0.95879 0.0
H818 H 0.60253 0.28287 0.94036 0.0
H819 H 0.57876 0.30341 0.95816 0.0
H820 H 0.31556 0.04439 0.78312 0.0
H821 H 0.32811 0.06295 0.75061 0.0
H822 H 0.30715 0.00108 0.7143 0.0
H823 H 0.29445 0.98234 0.7467 0.0
H824 H 0.35994 0.05536 0.71885 0.0
H825 H 0.2719 0.04052 0.68712 0.0
H826 H 0.27799 0.03776 0.71464 0.0
H827 H 0.27966 0.01677 0.695 0.0
C828 C 0.31375 0.03468 0.76825 0.0
C829 C 0.30384 0.0119 0.76748 0.0
C830 C 0.32096 0.04532 0.7497 0.0
C831 C 0.31827 0.03341 0.73006 0.0
C832 C 0.30907 0.01059 0.72929 0.0
H833 H 0.33522 0.07728 0.60136 0.0
H834 H 0.32869 0.05492 0.63226 0.0
C835 C 0.30191 0.99991 0.74783 0.0
C836 C 0.32442 0.045 0.71034 0.0
H837 H 0.30158 0.05837 0.6654 0.0
C838 C 0.34723 0.056 0.70711 0.0
C839 C 0.30776 0.04573 0.69507 0.0
C840 C 0.28291 0.03473 0.69809 0.0
C841 C 0.35388 0.06769 0.6889 0.0
C842 C 0.33716 0.06876 0.67381 0.0
C843 C 0.31438 0.0575 0.67695 0.0
C844 C 0.34269 0.08208 0.655 0.0
C845 C 0.37876 0.07851 0.68589 0.0
C846 C 0.35269 0.10478 0.65752 0.0
C847 C 0.35646 0.11756 0.63991 0.0
C848 C 0.35004 0.10795 0.61944 0.0
C849 C 0.34019 0.08519 0.61694 0.0
C850 C 0.33653 0.07239 0.63456 0.0
H851 H 0.3896 0.07069 0.69504 0.0
H852 H 0.38324 0.07782 0.66891 0.0
H853 H 0.38272 0.09597 0.69167 0.0
H854 H 0.35701 0.11272 0.67318 0.0
H855 H 0.36369 0.1351 0.64241 0.0
H856 H 0.72172 0.79874 0.19878 0.0
H857 H 0.69613 0.80527 0.17156 0.0
H858 H 0.67902 0.85363 0.21388 0.0
H859 H 0.70466 0.84749 0.24097 0.0
H860 H 0.64936 0.80051 0.17413 0.0
H861 H 0.69634 0.88628 0.15987 0.0
H862 H 0.70891 0.8683 0.17371 0.0
H863 H 0.69017 0.88163 0.18724 0.0
C864 C 0.71262 0.81086 0.20223 0.0
C865 C 0.71532 0.82267 0.222 0.0
C866 C 0.69799 0.81455 0.18668 0.0
C867 C 0.68597 0.83017 0.19061 0.0
C868 C 0.68852 0.84184 0.21036 0.0
H869 H 0.58605 0.87479 0.12156 0.0
H870 H 0.61152 0.86758 0.1485 0.0
C871 C 0.70311 0.8382 0.22587 0.0
C872 C 0.67019 0.83386 0.17434 0.0
H873 H 0.65913 0.87322 0.14479 0.0
C874 C 0.65156 0.81635 0.16759 0.0
C875 C 0.67309 0.85458 0.16592 0.0
C876 C 0.69331 0.87374 0.17188 0.0
C877 C 0.63547 0.81913 0.15293 0.0
C878 C 0.6383 0.83989 0.14462 0.0
C879 C 0.65696 0.85737 0.15131 0.0
C880 C 0.62237 0.8437 0.12859 0.0
C881 C 0.61532 0.79998 0.14677 0.0
C882 C 0.62022 0.83279 0.10848 0.0
C883 C 0.60583 0.83695 0.09306 0.0
C884 C 0.59332 0.85216 0.09745 0.0
C885 C 0.59553 0.86308 0.11765 0.0
C886 C 0.60999 0.85892 0.13306 0.0
H887 H 0.61265 0.787 0.15832 0.0
H888 H 0.59961 0.80533 0.14557 0.0
H889 H 0.61824 0.79269 0.13104 0.0
H890 H 0.63003 0.82136 0.10456 0.0
H891 H 0.60497 0.82866 0.07752 0.0
H892 H 0.77358 0.16205 0.7788 0.0
H893 H 0.76338 0.13641 0.74774 0.0
H894 H 0.70148 0.15499 0.73948 0.0
H895 H 0.71186 0.18115 0.77018 0.0
H896 H 0.72707 0.10094 0.73834 0.0
H897 H 0.73004 0.16575 0.68212 0.0
H898 H 0.74063 0.17195 0.70906 0.0
H899 H 0.71067 0.16541 0.70339 0.0
C900 C 0.75777 0.16066 0.7704 0.0
C901 C 0.74364 0.1738 0.7768 0.0
C902 C 0.75195 0.14596 0.75269 0.0
C903 C 0.73188 0.14409 0.74108 0.0
C904 C 0.71732 0.15658 0.7479 0.0
H905 H 0.68114 0.06998 0.62212 0.0
H906 H 0.68285 0.08895 0.6572 0.0
C907 C 0.72323 0.17144 0.7655 0.0
C908 C 0.72657 0.12941 0.72159 0.0
H909 H 0.71813 0.12913 0.66813 0.0
C910 C 0.72505 0.10709 0.72299 0.0
C911 C 0.724 0.13749 0.70157 0.0
C912 C 0.72662 0.16148 0.69883 0.0
C913 C 0.72111 0.09264 0.70488 0.0
C914 C 0.71875 0.10079 0.68492 0.0
C915 C 0.71981 0.12297 0.68354 0.0
C916 C 0.71657 0.08697 0.66501 0.0
C917 C 0.71953 0.06879 0.70717 0.0
C918 C 0.7349 0.07945 0.65795 0.0
C919 C 0.73401 0.06872 0.63795 0.0
C920 C 0.71474 0.0653 0.6247 0.0
C921 C 0.69608 0.07216 0.63212 0.0
C922 C 0.69707 0.08306 0.65207 0.0
H923 H 0.71636 0.06414 0.7238 0.0
H924 H 0.70578 0.05814 0.69677 0.0
H925 H 0.73576 0.06562 0.7023 0.0
H926 H 0.75023 0.08262 0.6676 0.0
H927 H 0.74859 0.06352 0.63264 0.0
H928 H 0.36858 0.47695 0.23004 0.0
H929 H 0.39224 0.47092 0.20058 0.0
H930 H 0.40547 0.41669 0.23128 0.0
H931 H 0.38151 0.42232 0.2607 0.0
H932 H 0.43768 0.47029 0.19886 0.0
H933 H 0.37909 0.38935 0.1733 0.0
H934 H 0.37112 0.40825 0.19205 0.0
H935 H 0.38863 0.39165 0.20045 0.0
C936 C 0.37661 0.4638 0.23062 0.0
C937 C 0.37295 0.44996 0.24764 0.0
C938 C 0.39015 0.46041 0.21377 0.0
C939 C 0.40024 0.44313 0.21359 0.0
C940 C 0.39741 0.42984 0.23093 0.0
H941 H 0.47944 0.39127 0.12206 0.0
H942 H 0.46013 0.40007 0.1537 0.0
C943 C 0.38381 0.43316 0.24778 0.0
C944 C 0.4132 0.43868 0.19498 0.0
H945 H 0.41388 0.40007 0.15544 0.0
C946 C 0.43249 0.45497 0.18933 0.0
C947 C 0.40626 0.4187 0.18254 0.0
C948 C 0.38503 0.40104 0.18722 0.0
C949 C 0.4453 0.45165 0.17172 0.0
C950 C 0.4384 0.43164 0.15937 0.0
C951 C 0.41913 0.41537 0.16502 0.0
C952 C 0.45089 0.42714 0.14047 0.0
C953 C 0.46629 0.46938 0.16667 0.0
C954 C 0.45197 0.43941 0.12254 0.0
C955 C 0.46283 0.43431 0.10434 0.0
C956 C 0.47266 0.41676 0.10377 0.0
C957 C 0.4717 0.40465 0.12187 0.0
C958 C 0.46083 0.40974 0.14 0.0
H959 H 0.47213 0.48147 0.18031 0.0
H960 H 0.48032 0.46224 0.16206 0.0
H961 H 0.46249 0.47825 0.15311 0.0
H962 H 0.44401 0.45265 0.12247 0.0
H963 H 0.46308 0.44377 0.09058 0.0
H964 H 0.80167 0.73241 0.74271 0.0
H965 H 0.8329 0.7239 0.76151 0.0
H966 H 0.86816 0.72306 0.70271 0.0
H967 H 0.83711 0.73155 0.6838 0.0
H968 H 0.84519 0.68486 0.75097 0.0
H969 H 0.9185 0.75809 0.745 0.0
H970 H 0.88945 0.7589 0.74178 0.0
H971 H 0.90342 0.74846 0.72035 0.0
C972 C 0.81627 0.73085 0.73384 0.0
C973 C 0.81687 0.73253 0.71174 0.0
C974 C 0.83409 0.72601 0.74462 0.0
C975 C 0.85292 0.72311 0.73353 0.0
C976 C 0.85398 0.72566 0.71163 0.0
H977 H 0.96145 0.66563 0.74278 0.0
H978 H 0.93584 0.6878 0.73542 0.0
C979 C 0.83613 0.73034 0.70082 0.0
C980 C 0.8701 0.71475 0.74421 0.0
H981 H 0.92704 0.72488 0.75339 0.0
C982 C 0.86305 0.69373 0.75189 0.0
C983 C 0.89335 0.72637 0.74522 0.0
C984 C 0.90167 0.7493 0.73783 0.0
C985 C 0.87878 0.68347 0.75951 0.0
C986 C 0.90216 0.69484 0.76001 0.0
C987 C 0.90912 0.71622 0.75305 0.0
C988 C 0.91966 0.684 0.76588 0.0
C989 C 0.87027 0.66007 0.76576 0.0
C990 C 0.9197 0.67522 0.78577 0.0
C991 C 0.93404 0.66216 0.78988 0.0
C992 C 0.94882 0.65791 0.77426 0.0
C993 C 0.9499 0.66813 0.75496 0.0
C994 C 0.93542 0.68099 0.7508 0.0
H995 H 0.85265 0.65219 0.75988 0.0
H996 H 0.88137 0.6501 0.75952 0.0
H997 H 0.87033 0.65983 0.7833 0.0
H998 H 0.90802 0.67777 0.79781 0.0
H999 H 0.93269 0.65453 0.80489 0.0
H1000 H 0.74582 0.32436 0.27277 0.0
H1001 H 0.78201 0.35031 0.26506 0.0
H1002 H 0.77842 0.38823 0.323 0.0
H1003 H 0.74212 0.36244 0.33086 0.0
H1004 H 0.78444 0.41199 0.28555 0.0
H1005 H 0.84648 0.36322 0.2921 0.0
H1006 H 0.82147 0.35033 0.27624 0.0
H1007 H 0.81897 0.35568 0.30419 0.0
C1008 C 0.7529 0.33799 0.28409 0.0
C1009 C 0.74101 0.34138 0.3024 0.0
C1010 C 0.77365 0.35274 0.27969 0.0
C1011 C 0.78291 0.37108 0.29352 0.0
C1012 C 0.77154 0.3741 0.31218 0.0
H1013 H 0.90987 0.47194 0.29161 0.0
H1014 H 0.87781 0.44104 0.29982 0.0
C1015 C 0.75083 0.35932 0.31665 0.0
C1016 C 0.8033 0.38816 0.28758 0.0
H1017 H 0.85974 0.39794 0.27739 0.0
C1018 C 0.80093 0.40896 0.28381 0.0
C1019 C 0.82472 0.38408 0.28537 0.0
C1020 C 0.82823 0.36218 0.28983 0.0
C1021 C 0.81943 0.42581 0.27774 0.0
C1022 C 0.84078 0.42165 0.27519 0.0
C1023 C 0.84324 0.40093 0.27915 0.0
C1024 C 0.86092 0.43906 0.26937 0.0
C1025 C 0.81612 0.44807 0.27443 0.0
C1026 C 0.8622 0.44779 0.24936 0.0
C1027 C 0.88047 0.46547 0.24463 0.0
C1028 C 0.89765 0.4747 0.25991 0.0
C1029 C 0.89667 0.46537 0.27967 0.0
C1030 C 0.87849 0.44766 0.28432 0.0
H1031 H 0.7998 0.4497 0.28088 0.0
H1032 H 0.83021 0.46122 0.28208 0.0
H1033 H 0.81614 0.45061 0.25721 0.0
H1034 H 0.84885 0.44118 0.23756 0.0
H1035 H 0.88078 0.47236 0.22931 0.0
H1036 H 0.25749 0.47846 0.77954 0.0
H1037 H 0.23422 0.50415 0.78113 0.0
H1038 H 0.17575 0.45172 0.79575 0.0
H1039 H 0.19906 0.42612 0.79489 0.0
H1040 H 0.19815 0.50578 0.75855 0.0
H1041 H 0.17413 0.49665 0.84247 0.0
H1042 H 0.19598 0.48583 0.831 0.0
H1043 H 0.16653 0.47079 0.82756 0.0
C1044 C 0.23968 0.47241 0.78313 0.0
C1045 C 0.23013 0.4503 0.78725 0.0
C1046 C 0.22641 0.48712 0.78405 0.0
C1047 C 0.20336 0.47997 0.78904 0.0
C1048 C 0.19365 0.45776 0.79253 0.0
H1049 H 0.09521 0.53543 0.76158 0.0
H1050 H 0.12582 0.51777 0.76079 0.0
C1051 C 0.20695 0.4431 0.79185 0.0
C1052 C 0.1893 0.4956 0.79008 0.0
H1053 H 0.15183 0.51336 0.82119 0.0
C1054 C 0.18822 0.50763 0.77234 0.0
C1055 C 0.17676 0.49844 0.80826 0.0
C1056 C 0.17859 0.48742 0.82847 0.0
C1057 C 0.17417 0.5217 0.77194 0.0
C1058 C 0.16036 0.52327 0.78952 0.0
C1059 C 0.1622 0.51197 0.8076 0.0
C1060 C 0.14297 0.53549 0.78912 0.0
C1061 C 0.17434 0.53473 0.75268 0.0
C1062 C 0.14212 0.55106 0.80555 0.0
C1063 C 0.12439 0.56099 0.80619 0.0
C1064 C 0.10733 0.55559 0.79033 0.0
C1065 C 0.10846 0.54032 0.77371 0.0
C1066 C 0.12599 0.53025 0.77321 0.0
H1067 H 0.19087 0.5378 0.74457 0.0
H1068 H 0.161 0.52527 0.74122 0.0
H1069 H 0.171 0.55072 0.75691 0.0
H1070 H 0.15495 0.55523 0.81808 0.0
H1071 H 0.12385 0.57265 0.8192 0.0
H1072 H 0.26033 0.77829 0.30364 0.0
H1073 H 0.2239 0.75027 0.29963 0.0
H1074 H 0.19243 0.79832 0.27823 0.0
H1075 H 0.22879 0.82651 0.28212 0.0
H1076 H 0.1793 0.7493 0.31739 0.0
H1077 H 0.18137 0.749 0.2293 0.0
H1078 H 0.20634 0.76061 0.24583 0.0
H1079 H 0.18532 0.7752 0.24337 0.0
C1080 C 0.24563 0.78298 0.29828 0.0
C1081 C 0.24751 0.8046 0.29302 0.0
C1082 C 0.22484 0.76695 0.29602 0.0
C1083 C 0.20563 0.7722 0.28834 0.0
C1084 C 0.20719 0.79392 0.2839 0.0
H1085 H 0.07248 0.68707 0.2486 0.0
H1086 H 0.10536 0.71878 0.25624 0.0
C1087 C 0.22795 0.81001 0.28623 0.0
C1088 C 0.18423 0.75473 0.28423 0.0
H1089 H 0.14946 0.72535 0.24428 0.0
C1090 C 0.17269 0.74408 0.30143 0.0
C1091 C 0.1757 0.74807 0.26339 0.0
C1092 C 0.18783 0.75865 0.24434 0.0
C1093 C 0.15273 0.72687 0.29833 0.0
C1094 C 0.14447 0.71983 0.27744 0.0
C1095 C 0.15584 0.73077 0.26027 0.0
C1096 C 0.1245 0.70071 0.27297 0.0
C1097 C 0.14055 0.71657 0.31748 0.0
C1098 C 0.12457 0.67999 0.27948 0.0
C1099 C 0.10586 0.66192 0.27515 0.0
C1100 C 0.08681 0.66415 0.26401 0.0
C1101 C 0.08696 0.68483 0.25711 0.0
C1102 C 0.10567 0.70295 0.26155 0.0
H1103 H 0.14489 0.72785 0.33189 0.0
H1104 H 0.12187 0.71182 0.3149 0.0
H1105 H 0.14576 0.70161 0.32052 0.0
H1106 H 0.13919 0.67775 0.28775 0.0
H1107 H 0.10642 0.64611 0.2803 0.0
H1108 H 0.76512 0.82743 0.6978 0.0
H1109 H 0.7597 0.86077 0.68345 0.0
H1110 H 0.73283 0.82409 0.62519 0.0
H1111 H 0.73766 0.79075 0.63955 0.0
H1112 H 0.77839 0.88041 0.64502 0.0
H1113 H 0.68433 0.85559 0.64307 0.0
H1114 H 0.70078 0.84262 0.65906 0.0
H1115 H 0.69657 0.8353 0.63115 0.0
C1116 C 0.75756 0.82639 0.68214 0.0
C1117 C 0.75129 0.80639 0.66998 0.0
C1118 C 0.75472 0.84547 0.67389 0.0
C1119 C 0.74545 0.84475 0.65344 0.0
C1120 C 0.73957 0.82488 0.64117 0.0
H1121 H 0.71678 0.92477 0.56003 0.0
H1122 H 0.72198 0.89632 0.58235 0.0
C1123 C 0.7425 0.80589 0.64934 0.0
C1124 C 0.74248 0.86477 0.64442 0.0
H1125 H 0.70257 0.88549 0.62229 0.0
C1126 C 0.76182 0.88175 0.64033 0.0
C1127 C 0.72081 0.86641 0.63839 0.0
C1128 C 0.6994 0.84911 0.64331 0.0
C1129 C 0.76014 0.89985 0.62932 0.0
C1130 C 0.73852 0.90104 0.62256 0.0
C1131 C 0.71913 0.88445 0.62739 0.0
C1132 C 0.73568 0.91861 0.6093 0.0
C1133 C 0.78155 0.91701 0.62412 0.0
C1134 C 0.74155 0.94056 0.61713 0.0
C1135 C 0.73851 0.9569 0.60441 0.0
C1136 C 0.7294 0.95149 0.58371 0.0
C1137 C 0.72352 0.92944 0.57599 0.0
C1138 C 0.72658 0.91318 0.58869 0.0
H1139 H 0.79698 0.91154 0.6269 0.0
H1140 H 0.78111 0.92121 0.60733 0.0
H1141 H 0.78293 0.93213 0.63429 0.0
H1142 H 0.74823 0.94503 0.63314 0.0
H1143 H 0.74292 0.97369 0.6109 0.0
H1144 H 0.65026 0.37454 0.27512 0.0
H1145 H 0.62689 0.37995 0.24586 0.0
H1146 H 0.58053 0.3162 0.25322 0.0
H1147 H 0.60429 0.31037 0.28238 0.0
H1148 H 0.59388 0.32145 0.21309 0.0
H1149 H 0.56724 0.39408 0.24152 0.0
H1150 H 0.59738 0.39913 0.24407 0.0
H1151 H 0.57895 0.37841 0.25914 0.0
C1152 C 0.63489 0.36178 0.27081 0.0
C1153 C 0.62918 0.34198 0.28104 0.0
C1154 C 0.62141 0.365 0.25416 0.0
C1155 C 0.60174 0.34865 0.24757 0.0
C1156 C 0.59556 0.32911 0.25818 0.0
H1157 H 0.52432 0.34485 0.12917 0.0
H1158 H 0.5336 0.33768 0.16532 0.0
C1159 C 0.60914 0.32581 0.27482 0.0
C1160 C 0.58927 0.35112 0.22816 0.0
H1161 H 0.56728 0.38729 0.20335 0.0
C1162 C 0.58758 0.33559 0.21111 0.0
C1163 C 0.58107 0.36958 0.22559 0.0
C1164 C 0.58104 0.3861 0.24366 0.0
C1165 C 0.57915 0.33867 0.19121 0.0
C1166 C 0.57211 0.35771 0.18839 0.0
C1167 C 0.57285 0.37278 0.20561 0.0
C1168 C 0.56553 0.36294 0.16725 0.0
C1169 C 0.57886 0.32215 0.17304 0.0
C1170 C 0.58025 0.37978 0.15664 0.0
C1171 C 0.57515 0.38378 0.13596 0.0
C1172 C 0.55514 0.37108 0.12558 0.0
C1173 C 0.54007 0.35465 0.13657 0.0
C1174 C 0.54525 0.35061 0.15724 0.0
H1175 H 0.58751 0.30969 0.17725 0.0
H1176 H 0.56103 0.31357 0.16837 0.0
H1177 H 0.58723 0.33054 0.15906 0.0
H1178 H 0.59603 0.38939 0.16415 0.0
H1179 H 0.58725 0.39636 0.12789 0.0
H1180 H 0.34975 0.368 0.76011 0.0
H1181 H 0.35211 0.33672 0.73696 0.0
H1182 H 0.2953 0.34263 0.69964 0.0
H1183 H 0.2931 0.37434 0.7225 0.0
H1184 H 0.32081 0.29712 0.72818 0.0
H1185 H 0.34246 0.34205 0.65486 0.0
H1186 H 0.34344 0.3559 0.68069 0.0
H1187 H 0.31675 0.34461 0.66682 0.0
C1188 C 0.33779 0.36273 0.74693 0.0
C1189 C 0.32133 0.37377 0.74305 0.0
C1190 C 0.33914 0.34481 0.73374 0.0
C1191 C 0.3241 0.33754 0.71641 0.0
C1192 C 0.3074 0.34827 0.71266 0.0
H1193 H 0.31022 0.23339 0.61848 0.0
H1194 H 0.30344 0.26127 0.6438 0.0
C1195 C 0.3061 0.36632 0.7258 0.0
C1196 C 0.32593 0.31863 0.7024 0.0
H1197 H 0.33531 0.30348 0.65132 0.0
C1198 C 0.32401 0.2985 0.71138 0.0
C1199 C 0.33017 0.32051 0.6805 0.0
C1200 C 0.33355 0.34197 0.67014 0.0
C1201 C 0.32602 0.28013 0.69898 0.0
C1202 C 0.33022 0.28204 0.67712 0.0
C1203 C 0.33199 0.30209 0.66811 0.0
C1204 C 0.33319 0.26356 0.66324 0.0
C1205 C 0.32337 0.25875 0.70927 0.0
C1206 C 0.35208 0.25547 0.66594 0.0
C1207 C 0.35598 0.23947 0.65152 0.0
C1208 C 0.34101 0.23127 0.6342 0.0
C1209 C 0.3218 0.23903 0.6319 0.0
C1210 C 0.31799 0.25509 0.64624 0.0
H1211 H 0.31527 0.25867 0.72497 0.0
H1212 H 0.31306 0.24481 0.69898 0.0
H1213 H 0.34036 0.25616 0.71163 0.0
H1214 H 0.36418 0.26206 0.6788 0.0
H1215 H 0.37092 0.23382 0.65365 0.0
H1216 H 0.39613 0.91236 0.26246 0.0
H1217 H 0.42246 0.91745 0.23276 0.0
H1218 H 0.37344 0.86794 0.19482 0.0
H1219 H 0.34713 0.86293 0.224 0.0
H1220 H 0.44072 0.88635 0.2108 0.0
H1221 H 0.38904 0.9198 0.15685 0.0
H1222 H 0.38403 0.91841 0.18495 0.0
H1223 H 0.37318 0.89456 0.16727 0.0
C1224 C 0.39096 0.90263 0.24776 0.0
C1225 C 0.36944 0.88736 0.24558 0.0
C1226 C 0.40601 0.90556 0.23083 0.0
C1227 C 0.39969 0.89338 0.21147 0.0
C1228 C 0.37843 0.87789 0.20944 0.0
H1229 H 0.44945 0.86199 0.09217 0.0
H1230 H 0.42913 0.86588 0.12475 0.0
C1231 C 0.36345 0.87497 0.22623 0.0
C1232 C 0.41531 0.89619 0.19337 0.0
H1233 H 0.41774 0.90549 0.14063 0.0
C1234 C 0.43595 0.89092 0.19554 0.0
C1235 C 0.40903 0.90223 0.17351 0.0
C1236 C 0.38772 0.90929 0.17052 0.0
C1237 C 0.44987 0.89033 0.17802 0.0
C1238 C 0.443 0.89534 0.15797 0.0
C1239 C 0.42285 0.90149 0.15602 0.0
C1240 C 0.45575 0.89306 0.13854 0.0
C1241 C 0.47128 0.8834 0.18082 0.0
C1242 C 0.47737 0.90717 0.1355 0.0
C1243 C 0.48905 0.90497 0.1169 0.0
C1244 C 0.47927 0.8886 0.10106 0.0
C1245 C 0.45756 0.87456 0.10419 0.0
C1246 C 0.44588 0.87684 0.12272 0.0
H1247 H 0.47238 0.87684 0.1966 0.0
H1248 H 0.47222 0.87069 0.16834 0.0
H1249 H 0.48622 0.89773 0.17923 0.0
H1250 H 0.48514 0.91995 0.14745 0.0
H1251 H 0.50581 0.91594 0.115 0.0
H1252 H 0.68909 0.22214 0.311 0.0
H1253 H 0.69103 0.1939 0.33501 0.0
H1254 H 0.64926 0.21828 0.37948 0.0
H1255 H 0.64804 0.24716 0.35589 0.0
H1256 H 0.68385 0.21136 0.39932 0.0
H1257 H 0.6452 0.13799 0.34673 0.0
H1258 H 0.6692 0.15583 0.33476 0.0
H1259 H 0.64447 0.16509 0.34038 0.0
C1260 C 0.68015 0.22136 0.32581 0.0
C1261 C 0.66836 0.23682 0.33154 0.0
C1262 C 0.68113 0.20509 0.33946 0.0
C1263 C 0.6699 0.20365 0.35888 0.0
C1264 C 0.65796 0.21899 0.36454 0.0
H1265 H 0.65561 0.09148 0.43645 0.0
H1266 H 0.6484 0.11875 0.41374 0.0
C1267 C 0.65726 0.23547 0.35104 0.0
C1268 C 0.67167 0.18694 0.37379 0.0
H1269 H 0.66577 0.1323 0.37725 0.0
C1270 C 0.67966 0.19404 0.39455 0.0
C1271 C 0.66585 0.16429 0.36772 0.0
C1272 C 0.65547 0.15533 0.34625 0.0
C1273 C 0.68258 0.17922 0.4092 0.0
C1274 C 0.67814 0.15675 0.4027 0.0
C1275 C 0.66952 0.14956 0.38214 0.0
C1276 C 0.68245 0.14046 0.41691 0.0
C1277 C 0.69008 0.18781 0.43157 0.0
C1278 C 0.70404 0.14345 0.42608 0.0
C1279 C 0.70809 0.12814 0.43947 0.0
C1280 C 0.69075 0.10921 0.44362 0.0
C1281 C 0.66925 0.10604 0.434 0.0
C1282 C 0.66514 0.12153 0.42083 0.0
H1283 H 0.68544 0.20321 0.43574 0.0
H1284 H 0.68241 0.17563 0.44325 0.0
H1285 H 0.70882 0.19153 0.43296 0.0
H1286 H 0.71785 0.15763 0.42285 0.0
H1287 H 0.72479 0.1313 0.44673 0.0
H1288 H 0.34996 0.46717 0.8345 0.0
H1289 H 0.37409 0.47208 0.86631 0.0
H1290 H 0.3273 0.41636 0.89234 0.0
H1291 H 0.30288 0.41146 0.8608 0.0
H1292 H 0.34795 0.45199 0.92311 0.0
H1293 H 0.40993 0.42589 0.8709 0.0
H1294 H 0.40153 0.44938 0.86328 0.0
H1295 H 0.38107 0.42298 0.86244 0.0
C1296 C 0.34455 0.45621 0.84716 0.0
C1297 C 0.3247 0.43866 0.84494 0.0
C1298 C 0.35837 0.45906 0.86531 0.0
C1299 C 0.35263 0.44435 0.88145 0.0
C1300 C 0.33202 0.42784 0.88 0.0
H1301 H 0.42805 0.39079 0.96433 0.0
H1302 H 0.40073 0.3997 0.94078 0.0
C1303 C 0.31814 0.42502 0.86191 0.0
C1304 C 0.36919 0.44432 0.89849 0.0
H1305 H 0.41909 0.43196 0.90716 0.0
C1306 C 0.36366 0.44792 0.91968 0.0
C1307 C 0.38952 0.43872 0.89387 0.0
C1308 C 0.3959 0.43384 0.87143 0.0
C1309 C 0.37786 0.44569 0.93642 0.0
C1310 C 0.3979 0.4397 0.93173 0.0
C1311 C 0.40369 0.43665 0.91058 0.0
C1312 C 0.41229 0.43461 0.94835 0.0
C1313 C 0.37105 0.44885 0.95901 0.0
C1314 C 0.42755 0.45135 0.96063 0.0
C1315 C 0.44321 0.44631 0.97424 0.0
C1316 C 0.44377 0.42446 0.97571 0.0
C1317 C 0.42783 0.40773 0.9639 0.0
C1318 C 0.41229 0.41279 0.95032 0.0
H1319 H 0.3543 0.45237 0.96001 0.0
H1320 H 0.37033 0.43392 0.96762 0.0
H1321 H 0.38402 0.46266 0.96718 0.0
H1322 H 0.42787 0.46832 0.95911 0.0
H1323 H 0.4552 0.45952 0.98323 0.0
H1324 H 0.33441 0.96444 0.33903 0.0
H1325 H 0.34019 0.99325 0.3674 0.0
H1326 H 0.36043 0.95128 0.41027 0.0
H1327 H 0.35541 0.92264 0.38175 0.0
H1328 H 0.3188 0.99285 0.40376 0.0
H1329 H 0.41054 0.00685 0.42102 0.0
H1330 H 0.3966 0.99093 0.39781 0.0
H1331 H 0.39446 0.97886 0.42308 0.0
C1332 C 0.34032 0.96142 0.35443 0.0
C1333 C 0.34454 0.94129 0.35811 0.0
C1334 C 0.3436 0.9779 0.37065 0.0
C1335 C 0.35106 0.97459 0.39092 0.0
C1336 C 0.35524 0.95447 0.39465 0.0
H1337 H 0.33167 0.05533 0.50199 0.0
H1338 H 0.33044 0.02451 0.4765 0.0
C1339 C 0.35222 0.93805 0.37835 0.0
C1340 C 0.35331 0.99182 0.4083 0.0
H1341 H 0.39026 0.02387 0.44542 0.0
C1342 C 0.33446 0.99966 0.41283 0.0
C1343 C 0.37381 0.00088 0.42 0.0
C1344 C 0.39507 0.99412 0.41512 0.0
C1345 C 0.33549 0.01627 0.42869 0.0
C1346 C 0.35575 0.02483 0.44085 0.0
C1347 C 0.37465 0.01707 0.4363 0.0
C1348 C 0.35794 0.04262 0.45765 0.0
C1349 C 0.31505 0.02491 0.43177 0.0
C1350 C 0.37458 0.06265 0.45618 0.0
C1351 C 0.37554 0.08012 0.47092 0.0
C1352 C 0.35984 0.07789 0.48735 0.0
C1353 C 0.3438 0.05755 0.48932 0.0
C1354 C 0.34301 0.04 0.47472 0.0
H1355 H 0.30352 0.02097 0.41762 0.0
H1356 H 0.30532 0.01722 0.44543 0.0
H1357 H 0.32021 0.04295 0.43508 0.0
H1358 H 0.38632 0.06503 0.44319 0.0
H1359 H 0.38794 0.09568 0.46889 0.0
H1360 H 0.66362 0.82325 0.74828 0.0
H1361 H 0.64431 0.834 0.77909 0.0
H1362 H 0.70567 0.84557 0.81679 0.0
H1363 H 0.72522 0.83502 0.78604 0.0
H1364 H 0.6388 0.81296 0.81758 0.0
H1365 H 0.68498 0.90119 0.83 0.0
H1366 H 0.68585 0.88556 0.80541 0.0
H1367 H 0.70276 0.88297 0.82788 0.0
C1368 C 0.67311 0.82832 0.76305 0.0
C1369 C 0.69597 0.82825 0.7647 0.0
C1370 C 0.66203 0.83445 0.78063 0.0
C1371 C 0.67363 0.84079 0.80013 0.0
C1372 C 0.69654 0.84111 0.80178 0.0
H1373 H 0.63352 0.87064 0.92729 0.0
H1374 H 0.65421 0.86459 0.89549 0.0
C1375 C 0.70764 0.83495 0.78421 0.0
C1376 C 0.66132 0.84565 0.81907 0.0
H1377 H 0.65983 0.88559 0.857 0.0
C1378 C 0.64329 0.82888 0.82614 0.0
C1379 C 0.66737 0.86638 0.83025 0.0
C1380 C 0.68617 0.88515 0.82295 0.0
C1381 C 0.6313 0.83216 0.8443 0.0
C1382 C 0.63724 0.85293 0.85543 0.0
C1383 C 0.65531 0.86971 0.8484 0.0
C1384 C 0.62486 0.85747 0.87444 0.0
C1385 C 0.61275 0.81321 0.85171 0.0
C1386 C 0.60163 0.85591 0.87301 0.0
C1387 C 0.58978 0.85936 0.89111 0.0
C1388 C 0.60101 0.86463 0.91095 0.0
C1389 C 0.62443 0.86676 0.91222 0.0
C1390 C 0.63626 0.86324 0.8941 0.0
H1391 H 0.61429 0.79723 0.84484 0.0
H1392 H 0.61303 0.81293 0.86927 0.0
H1393 H 0.59603 0.81498 0.84664 0.0
H1394 H 0.59264 0.85196 0.85789 0.0
H1395 H 0.57185 0.85802 0.88956 0.0
loop_
_geom_bond_atom_site_label_1
_geom_bond_atom_site_label_2
_geom_bond_distance
_geom_bond_site_symmetry_2
_ccdc_geom_bond_type
O0 Cd1 2.300 . S
O0 C7 1.275 . S
Cd1 O0 2.300 . S
Cd1 O9 2.381 . S
Cd1 O10 2.378 . S
O2 Cd3 2.385 . S
O2 C7 1.255 . S
Cd3 O2 2.385 . S
Cd3 O4 2.317 . S
O4 Cd3 2.317 . S
O4 C5 1.232 . S
C5 O4 1.232 . S
C5 O6 1.218 . S
O6 C5 1.218 . S
C7 O0 1.275 . S
C7 O2 1.255 . S
C8 O9 1.258 . S
C8 O10 1.256 . S
O9 Cd1 2.381 . S
O9 C8 1.258 . S
O10 Cd1 2.378 . S
O10 C8 1.256 . S
O11 Cd12 2.300 . S
O11 C18 1.275 . S
Cd12 O11 2.300 . S
Cd12 O20 2.381 . S
Cd12 O21 2.378 . S
O13 Cd14 2.385 . S
O13 C18 1.255 . S
Cd14 O13 2.385 . S
Cd14 O15 2.317 . S
O15 Cd14 2.317 . S
O15 C16 1.232 . S
C16 O15 1.232 . S
C16 O17 1.218 . S
O17 C16 1.218 . S
C18 O11 1.275 . S
C18 O13 1.255 . S
C19 O20 1.258 . S
C19 O21 1.256 . S
O20 Cd12 2.381 . S
O20 C19 1.258 . S
O21 Cd12 2.378 . S
O21 C19 1.256 . S
O22 Cd23 2.300 . S
O22 C29 1.275 . S
Cd23 O22 2.300 . S
Cd23 O31 2.381 . S
Cd23 O32 2.378 . S
O24 Cd25 2.385 . S
O24 C29 1.255 . S
Cd25 O24 2.385 . S
Cd25 O26 2.317 . S
O26 Cd25 2.317 . S
O26 C27 1.232 . S
C27 O26 1.232 . S
C27 O28 1.218 . S
O28 C27 1.218 . S
C29 O22 1.275 . S
C29 O24 1.255 . S
C30 O31 1.258 . S
C30 O32 1.256 . S
O31 Cd23 2.381 . S
O31 C30 1.258 . S
O32 Cd23 2.378 . S
O32 C30 1.256 . S
O33 Cd34 2.300 . S
O33 C40 1.275 . S
Cd34 O33 2.300 . S
Cd34 O42 2.381 . S
Cd34 O43 2.378 . S
O35 Cd36 2.385 . S
O35 C40 1.255 . S
Cd36 O35 2.385 . S
Cd36 O37 2.317 . S
O37 Cd36 2.317 . S
O37 C38 1.232 . S
C38 O37 1.232 . S
C38 O39 1.218 . S
O39 C38 1.218 . S
C40 O33 1.275 . S
C40 O35 1.255 . S
C41 O42 1.258 . S
C41 O43 1.256 . S
O42 Cd34 2.381 . S
O42 C41 1.258 . S
O43 Cd34 2.378 . S
O43 C41 1.256 . S
O44 Cd45 2.300 . S
O44 C51 1.275 . S
Cd45 O44 2.300 . S
Cd45 O53 2.381 . S
Cd45 O54 2.378 . S
O46 Cd47 2.385 . S
O46 C51 1.255 . S
Cd47 O46 2.385 . S
Cd47 O48 2.317 . S
O48 Cd47 2.317 . S
O48 C49 1.232 . S
C49 O48 1.232 . S
C49 O50 1.218 . S
O50 C49 1.218 . S
C51 O44 1.275 . S
C51 O46 1.255 . S
C52 O53 1.258 . S
C52 O54 1.256 . S
O53 Cd45 2.381 . S
O53 C52 1.258 . S
O54 Cd45 2.378 . S
O54 C52 1.256 . S
O55 Cd56 2.300 . S
O55 C62 1.275 . S
Cd56 O55 2.300 . S
Cd56 O64 2.381 . S
Cd56 O65 2.378 . S
O57 Cd58 2.385 . S
O57 C62 1.255 . S
Cd58 O57 2.385 . S
Cd58 O59 2.317 . S
O59 Cd58 2.317 . S
O59 C60 1.232 . S
C60 O59 1.232 . S
C60 O61 1.218 . S
O61 C60 1.218 . S
C62 O55 1.275 . S
C62 O57 1.255 . S
C63 O64 1.258 . S
C63 O65 1.256 . S
O64 Cd56 2.381 . S
O64 C63 1.258 . S
O65 Cd56 2.378 . S
O65 C63 1.256 . S
O66 Cd67 2.300 . S
O66 C73 1.275 . S
Cd67 O66 2.300 . S
Cd67 O75 2.381 . S
Cd67 O76 2.378 . S
O68 Cd69 2.385 . S
O68 C73 1.255 . S
Cd69 O68 2.385 . S
Cd69 O70 2.317 . S
O70 Cd69 2.317 . S
O70 C71 1.232 . S
C71 O70 1.232 . S
C71 O72 1.218 . S
O72 C71 1.218 . S
C73 O66 1.275 . S
C73 O68 1.255 . S
C74 O75 1.258 . S
C74 O76 1.256 . S
O75 Cd67 2.381 . S
O75 C74 1.258 . S
O76 Cd67 2.378 . S
O76 C74 1.256 . S
O77 Cd78 2.300 . S
O77 C84 1.275 . S
Cd78 O77 2.300 . S
Cd78 O86 2.381 . S
Cd78 O87 2.378 . S
O79 Cd80 2.385 . S
O79 C84 1.255 . S
Cd80 O79 2.385 . S
Cd80 O81 2.317 . S
O81 Cd80 2.317 . S
O81 C82 1.232 . S
C82 O81 1.232 . S
C82 O83 1.218 . S
O83 C82 1.218 . S
C84 O77 1.275 . S
C84 O79 1.255 . S
C85 O86 1.258 . S
C85 O87 1.256 . S
O86 Cd78 2.381 . S
O86 C85 1.258 . S
O87 Cd78 2.378 . S
O87 C85 1.256 . S
H88 O114 0.856 . S
H89 O117 0.854 . S
H90 C125 0.930 . S
H91 C126 0.930 . S
H92 C128 0.930 . S
H93 C129 0.930 . S
H94 C131 0.931 . S
H95 C132 0.930 . S
H96 C134 0.930 . S
H97 C135 0.929 . S
H98 C137 0.930 . S
H99 C138 0.931 . S
H100 C140 0.930 . S
H101 C141 0.929 . S
H102 C143 0.931 . S
H103 C144 0.930 . S
H104 C146 0.930 . S
H105 C147 0.932 . S
H106 C149 0.930 1_455 S
H107 C150 0.929 . S
H108 C152 0.931 . S
H109 C153 0.930 . S
H110 C155 0.929 . S
H111 C156 0.931 . S
H112 C158 0.930 . S
H113 C159 0.929 . S
O114 H88 0.856 . S
O114 C160 1.300 . S
O115 C160 1.209 . S
O116 C161 1.199 . S
O117 H89 0.854 . S
O117 C161 1.297 . S
C118 C119 1.404 1_455 S
C118 C123 1.397 . S
C118 C124 1.492 . S
C119 C118 1.404 1_655 S
C119 C120 1.396 . S
C119 C130 1.492 1_655 S
C120 C119 1.396 . S
C120 C121 1.397 . S
C120 C136 1.509 . S
C121 C120 1.397 . S
C121 C122 1.412 . S
C121 C142 1.485 . S
C122 C121 1.412 . S
C122 C123 1.388 1_655 S
C122 C148 1.490 . S
C123 C118 1.397 . S
C123 C122 1.388 1_455 S
C123 C154 1.519 . S
C124 C118 1.492 . S
C124 C125 1.363 . S
C124 C129 1.390 . S
C125 H90 0.930 . S
C125 C124 1.363 . S
C125 C126 1.372 . S
C126 H91 0.930 . S
C126 C125 1.372 . S
C126 C127 1.383 . S
C127 C126 1.383 . S
C127 C128 1.395 . S
C128 H92 0.930 . S
C128 C127 1.395 . S
C128 C129 1.362 . S
C129 H93 0.930 . S
C129 C124 1.390 . S
C129 C128 1.362 . S
C130 C119 1.492 1_455 S
C130 C131 1.377 1_455 S
C130 C135 1.397 . S
C131 H94 0.931 . S
C131 C130 1.377 1_655 S
C131 C132 1.376 . S
C132 H95 0.930 . S
C132 C131 1.376 . S
C132 C133 1.376 1_655 S
C133 C132 1.376 1_455 S
C133 C134 1.378 . S
C133 C160 1.486 . S
C134 H96 0.930 . S
C134 C133 1.378 . S
C134 C135 1.376 . S
C135 H97 0.929 . S
C135 C130 1.397 . S
C135 C134 1.376 . S
C136 C120 1.509 . S
C136 C137 1.391 . S
C136 C141 1.386 . S
C137 H98 0.930 . S
C137 C136 1.391 . S
C137 C138 1.375 . S
C138 H99 0.931 . S
C138 C137 1.375 . S
C138 C139 1.375 . S
C139 C138 1.375 . S
C139 C140 1.361 . S
C140 H100 0.930 . S
C140 C139 1.361 . S
C140 C141 1.399 . S
C141 H101 0.929 . S
C141 C136 1.386 . S
C141 C140 1.399 . S
C142 C121 1.485 . S
C142 C143 1.394 . S
C142 C147 1.360 . S
C143 H102 0.931 . S
C143 C142 1.394 . S
C143 C144 1.372 . S
C144 H103 0.930 . S
C144 C143 1.372 . S
C144 C145 1.397 . S
C145 C144 1.397 . S
C145 C146 1.390 . S
C145 C161 1.476 . S
C146 H104 0.930 . S
C146 C145 1.390 . S
C146 C147 1.366 . S
C147 H105 0.932 . S
C147 C142 1.360 . S
C147 C146 1.366 . S
C148 C122 1.490 . S
C148 C149 1.380 . S
C148 C153 1.386 . S
C149 H106 0.930 1_655 S
C149 C148 1.380 . S
C149 C150 1.381 . S
C150 H107 0.929 . S
C150 C149 1.381 . S
C150 C151 1.371 . S
C151 C150 1.371 . S
C151 C152 1.380 . S
C152 H108 0.931 . S
C152 C151 1.380 . S
C152 C153 1.387 . S
C153 H109 0.930 . S
C153 C148 1.386 . S
C153 C152 1.387 . S
C154 C123 1.519 . S
C154 C155 1.377 . S
C154 C159 1.361 . S
C155 H110 0.929 . S
C155 C154 1.377 . S
C155 C156 1.386 . S
C156 H111 0.931 . S
C156 C155 1.386 . S
C156 C157 1.363 . S
C157 C156 1.363 . S
C157 C158 1.385 . S
C158 H112 0.930 . S
C158 C157 1.385 . S
C158 C159 1.396 . S
C159 H113 0.929 . S
C159 C154 1.361 . S
C159 C158 1.396 . S
C160 O114 1.300 . S
C160 O115 1.209 . S
C160 C133 1.486 . S
C161 O116 1.199 . S
C161 O117 1.297 . S
C161 C145 1.476 . S
H162 O188 0.856 . S
H163 O191 0.854 . S
H164 C199 0.930 . S
H165 C200 0.930 . S
H166 C202 0.930 . S
H167 C203 0.930 . S
H168 C205 0.931 . S
H169 C206 0.931 . S
H170 C208 0.930 . S
H171 C209 0.929 . S
H172 C211 0.930 . S
H173 C212 0.931 . S
H174 C214 0.930 . S
H175 C215 0.929 . S
H176 C217 0.931 . S
H177 C218 0.930 . S
H178 C220 0.930 . S
H179 C221 0.932 . S
H180 C223 0.930 . S
H181 C224 0.929 . S
H182 C226 0.931 . S
H183 C227 0.930 . S
H184 C229 0.929 . S
H185 C230 0.931 . S
H186 C232 0.930 . S
H187 C233 0.929 . S
O188 H162 0.856 . S
O188 C234 1.300 . S
O189 C234 1.209 . S
O190 C235 1.199 . S
O191 H163 0.854 . S
O191 C235 1.297 . S
C192 C193 1.404 1_455 S
C192 C197 1.397 . S
C192 C198 1.492 . S
C193 C192 1.404 1_655 S
C193 C194 1.396 . S
C193 C204 1.492 1_655 S
C194 C193 1.396 . S
C194 C195 1.397 . S
C194 C210 1.509 . S
C195 C194 1.397 . S
C195 C196 1.412 . S
C195 C216 1.485 . S
C196 C195 1.412 . S
C196 C197 1.388 1_655 S
C196 C222 1.490 . S
C197 C192 1.397 . S
C197 C196 1.388 1_455 S
C197 C228 1.519 . S
C198 C192 1.492 . S
C198 C199 1.363 . S
C198 C203 1.390 . S
C199 H164 0.930 . S
C199 C198 1.363 . S
C199 C200 1.372 . S
C200 H165 0.930 . S
C200 C199 1.372 . S
C200 C201 1.383 . S
C201 C200 1.383 . S
C201 C202 1.395 . S
C202 H166 0.930 . S
C202 C201 1.395 . S
C202 C203 1.362 . S
C203 H167 0.930 . S
C203 C198 1.390 . S
C203 C202 1.362 . S
C204 C193 1.492 1_455 S
C204 C205 1.377 1_455 S
C204 C209 1.397 . S
C205 H168 0.931 . S
C205 C204 1.377 1_655 S
C205 C206 1.376 1_655 S
C206 H169 0.931 . S
C206 C205 1.376 1_455 S
C206 C207 1.376 . S
C207 C206 1.376 . S
C207 C208 1.378 . S
C207 C234 1.486 . S
C208 H170 0.930 . S
C208 C207 1.378 . S
C208 C209 1.376 . S
C209 H171 0.929 . S
C209 C204 1.397 . S
C209 C208 1.376 . S
C210 C194 1.509 . S
C210 C211 1.391 . S
C210 C215 1.386 . S
C211 H172 0.930 . S
C211 C210 1.391 . S
C211 C212 1.375 . S
C212 H173 0.931 . S
C212 C211 1.375 . S
C212 C213 1.375 . S
C213 C212 1.375 . S
C213 C214 1.361 . S
C214 H174 0.930 . S
C214 C213 1.361 . S
C214 C215 1.399 . S
C215 H175 0.929 . S
C215 C210 1.386 . S
C215 C214 1.399 . S
C216 C195 1.485 . S
C216 C217 1.394 . S
C216 C221 1.360 . S
C217 H176 0.931 . S
C217 C216 1.394 . S
C217 C218 1.372 . S
C218 H177 0.930 . S
C218 C217 1.372 . S
C218 C219 1.397 . S
C219 C218 1.397 . S
C219 C220 1.390 . S
C219 C235 1.476 . S
C220 H178 0.930 . S
C220 C219 1.390 . S
C220 C221 1.366 . S
C221 H179 0.932 . S
C221 C216 1.360 . S
C221 C220 1.366 . S
C222 C196 1.490 . S
C222 C223 1.380 . S
C222 C227 1.386 . S
C223 H180 0.930 . S
C223 C222 1.380 . S
C223 C224 1.381 . S
C224 H181 0.929 . S
C224 C223 1.381 . S
C224 C225 1.371 . S
C225 C224 1.371 . S
C225 C226 1.380 . S
C226 H182 0.931 . S
C226 C225 1.380 . S
C226 C227 1.387 . S
C227 H183 0.930 . S
C227 C222 1.386 . S
C227 C226 1.387 . S
C228 C197 1.519 . S
C228 C229 1.377 . S
C228 C233 1.361 . S
C229 H184 0.929 . S
C229 C228 1.377 . S
C229 C230 1.386 . S
C230 H185 0.931 . S
C230 C229 1.386 . S
C230 C231 1.363 . S
C231 C230 1.363 . S
C231 C232 1.385 . S
C232 H186 0.930 . S
C232 C231 1.385 . S
C232 C233 1.396 . S
C233 H187 0.929 . S
C233 C228 1.361 . S
C233 C232 1.396 . S
C234 O188 1.300 . S
C234 O189 1.209 . S
C234 C207 1.486 . S
C235 O190 1.199 . S
C235 O191 1.297 . S
C235 C219 1.476 . S
H236 O262 0.856 . S
H237 O265 0.854 . S
H238 C273 0.930 . S
H239 C274 0.930 . S
H240 C276 0.930 . S
H241 C277 0.930 . S
H242 C279 0.931 . S
H243 C280 0.930 . S
H244 C282 0.930 . S
H245 C283 0.929 . S
H246 C285 0.930 . S
H247 C286 0.931 . S
H248 C288 0.930 . S
H249 C289 0.929 . S
H250 C291 0.931 . S
H251 C292 0.930 . S
H252 C294 0.930 . S
H253 C295 0.932 . S
H254 C297 0.930 . S
H255 C298 0.929 . S
H256 C300 0.931 . S
H257 C301 0.930 . S
H258 C303 0.929 . S
H259 C304 0.931 . S
H260 C306 0.930 . S
H261 C307 0.929 . S
O262 H236 0.856 . S
O262 C308 1.300 . S
O263 C308 1.209 . S
O264 C309 1.199 . S
O265 H237 0.854 . S
O265 C309 1.297 . S
C266 C267 1.404 . S
C266 C271 1.397 . S
C266 C272 1.492 . S
C267 C266 1.404 . S
C267 C268 1.396 . S
C267 C278 1.492 . S
C268 C267 1.396 . S
C268 C269 1.397 . S
C268 C284 1.509 . S
C269 C268 1.397 . S
C269 C270 1.412 . S
C269 C290 1.485 . S
C270 C269 1.412 . S
C270 C271 1.388 . S
C270 C296 1.490 . S
C271 C266 1.397 . S
C271 C270 1.388 . S
C271 C302 1.519 . S
C272 C266 1.492 . S
C272 C273 1.363 . S
C272 C277 1.390 . S
C273 H238 0.930 . S
C273 C272 1.363 . S
C273 C274 1.372 . S
C274 H239 0.930 . S
C274 C273 1.372 . S
C274 C275 1.383 . S
C275 C274 1.383 . S
C275 C276 1.395 . S
C276 H240 0.930 . S
C276 C275 1.395 . S
C276 C277 1.362 . S
C277 H241 0.930 . S
C277 C272 1.390 . S
C277 C276 1.362 . S
C278 C267 1.492 . S
C278 C279 1.377 . S
C278 C283 1.397 . S
C279 H242 0.931 . S
C279 C278 1.377 . S
C279 C280 1.376 . S
C280 H243 0.930 . S
C280 C279 1.376 . S
C280 C281 1.376 . S
C281 C280 1.376 . S
C281 C282 1.378 . S
C281 C308 1.486 . S
C282 H244 0.930 . S
C282 C281 1.378 . S
C282 C283 1.376 . S
C283 H245 0.929 . S
C283 C278 1.397 . S
C283 C282 1.376 . S
C284 C268 1.509 . S
C284 C285 1.391 . S
C284 C289 1.386 . S
C285 H246 0.930 . S
C285 C284 1.391 . S
C285 C286 1.375 . S
C286 H247 0.931 . S
C286 C285 1.375 . S
C286 C287 1.375 . S
C287 C286 1.375 . S
C287 C288 1.361 . S
C288 H248 0.930 . S
C288 C287 1.361 . S
C288 C289 1.399 . S
C289 H249 0.929 . S
C289 C284 1.386 . S
C289 C288 1.399 . S
C290 C269 1.485 . S
C290 C291 1.394 . S
C290 C295 1.360 . S
C291 H250 0.931 . S
C291 C290 1.394 . S
C291 C292 1.372 . S
C292 H251 0.930 . S
C292 C291 1.372 . S
C292 C293 1.397 . S
C293 C292 1.397 . S
C293 C294 1.390 . S
C293 C309 1.476 . S
C294 H252 0.930 . S
C294 C293 1.390 . S
C294 C295 1.366 . S
C295 H253 0.932 . S
C295 C290 1.360 . S
C295 C294 1.366 . S
C296 C270 1.490 . S
C296 C297 1.380 . S
C296 C301 1.386 . S
C297 H254 0.930 . S
C297 C296 1.380 . S
C297 C298 1.381 . S
C298 H255 0.929 . S
C298 C297 1.381 . S
C298 C299 1.371 . S
C299 C298 1.371 . S
C299 C300 1.380 . S
C300 H256 0.931 . S
C300 C299 1.380 . S
C300 C301 1.387 . S
C301 H257 0.930 . S
C301 C296 1.386 . S
C301 C300 1.387 . S
C302 C271 1.519 . S
C302 C303 1.377 . S
C302 C307 1.361 . S
C303 H258 0.929 . S
C303 C302 1.377 . S
C303 C304 1.386 . S
C304 H259 0.931 . S
C304 C303 1.386 . S
C304 C305 1.363 . S
C305 C304 1.363 . S
C305 C306 1.385 . S
C306 H260 0.930 . S
C306 C305 1.385 . S
C306 C307 1.396 . S
C307 H261 0.929 . S
C307 C302 1.361 . S
C307 C306 1.396 . S
C308 O262 1.300 . S
C308 O263 1.209 . S
C308 C281 1.486 . S
C309 O264 1.199 . S
C309 O265 1.297 . S
C309 C293 1.476 . S
H310 O336 0.856 . S
H311 O339 0.854 . S
H312 C347 0.930 1_556 S
H313 C348 0.930 . S
H314 C350 0.930 . S
H315 C351 0.930 . S
H316 C353 0.931 . S
H317 C354 0.930 . S
H318 C356 0.930 . S
H319 C357 0.929 . S
H320 C359 0.930 . S
H321 C360 0.931 . S
H322 C362 0.930 . S
H323 C363 0.929 . S
H324 C365 0.931 . S
H325 C366 0.930 . S
H326 C368 0.930 . S
H327 C369 0.932 . S
H328 C371 0.930 . S
H329 C372 0.929 . S
H330 C374 0.931 . S
H331 C375 0.930 . S
H332 C377 0.929 . S
H333 C378 0.931 . S
H334 C380 0.930 . S
H335 C381 0.929 . S
O336 H310 0.856 . S
O336 C382 1.300 . S
O337 C382 1.209 . S
O338 C383 1.199 . S
O339 H311 0.854 . S
O339 C383 1.297 . S
C340 C341 1.404 1_554 S
C340 C345 1.397 . S
C340 C346 1.492 . S
C341 C340 1.404 1_556 S
C341 C342 1.396 . S
C341 C352 1.492 . S
C342 C341 1.396 . S
C342 C343 1.397 1_556 S
C342 C358 1.509 . S
C343 C342 1.397 1_554 S
C343 C344 1.412 . S
C343 C364 1.485 . S
C344 C343 1.412 . S
C344 C345 1.388 . S
C344 C370 1.490 . S
C345 C340 1.397 . S
C345 C344 1.388 . S
C345 C376 1.519 . S
C346 C340 1.492 . S
C346 C347 1.363 . S
C346 C351 1.390 . S
C347 H312 0.930 1_554 S
C347 C346 1.363 . S
C347 C348 1.372 1_554 S
C348 H313 0.930 . S
C348 C347 1.372 1_556 S
C348 C349 1.383 1_556 S
C349 C348 1.383 1_554 S
C349 C350 1.395 . S
C350 H314 0.930 . S
C350 C349 1.395 . S
C350 C351 1.362 . S
C351 H315 0.930 . S
C351 C346 1.390 . S
C351 C350 1.362 . S
C352 C341 1.492 . S
C352 C353 1.377 . S
C352 C357 1.397 . S
C353 H316 0.931 . S
C353 C352 1.377 . S
C353 C354 1.376 . S
C354 H317 0.930 . S
C354 C353 1.376 . S
C354 C355 1.376 . S
C355 C354 1.376 . S
C355 C356 1.378 . S
C355 C382 1.486 . S
C356 H318 0.930 . S
C356 C355 1.378 . S
C356 C357 1.376 . S
C357 H319 0.929 . S
C357 C352 1.397 . S
C357 C356 1.376 . S
C358 C342 1.509 . S
C358 C359 1.391 . S
C358 C363 1.386 . S
C359 H320 0.930 . S
C359 C358 1.391 . S
C359 C360 1.375 . S
C360 H321 0.931 . S
C360 C359 1.375 . S
C360 C361 1.375 . S
C361 C360 1.375 . S
C361 C362 1.361 . S
C362 H322 0.930 . S
C362 C361 1.361 . S
C362 C363 1.399 . S
C363 H323 0.929 . S
C363 C358 1.386 . S
C363 C362 1.399 . S
C364 C343 1.485 . S
C364 C365 1.394 . S
C364 C369 1.360 . S
C365 H324 0.931 . S
C365 C364 1.394 . S
C365 C366 1.372 . S
C366 H325 0.930 . S
C366 C365 1.372 . S
C366 C367 1.397 . S
C367 C366 1.397 . S
C367 C368 1.390 . S
C367 C383 1.476 . S
C368 H326 0.930 . S
C368 C367 1.390 . S
C368 C369 1.366 . S
C369 H327 0.932 . S
C369 C364 1.360 . S
C369 C368 1.366 . S
C370 C344 1.490 . S
C370 C371 1.380 . S
C370 C375 1.386 . S
C371 H328 0.930 . S
C371 C370 1.380 . S
C371 C372 1.381 . S
C372 H329 0.929 . S
C372 C371 1.381 . S
C372 C373 1.371 . S
C373 C372 1.371 . S
C373 C374 1.380 . S
C374 H330 0.931 . S
C374 C373 1.380 . S
C374 C375 1.387 . S
C375 H331 0.930 . S
C375 C370 1.386 . S
C375 C374 1.387 . S
C376 C345 1.519 . S
C376 C377 1.377 . S
C376 C381 1.361 . S
C377 H332 0.929 . S
C377 C376 1.377 . S
C377 C378 1.386 . S
C378 H333 0.931 . S
C378 C377 1.386 . S
C378 C379 1.363 . S
C379 C378 1.363 . S
C379 C380 1.385 . S
C380 H334 0.930 . S
C380 C379 1.385 . S
C380 C381 1.396 . S
C381 H335 0.929 . S
C381 C376 1.361 . S
C381 C380 1.396 . S
C382 O336 1.300 . S
C382 O337 1.209 . S
C382 C355 1.486 . S
C383 O338 1.199 . S
C383 O339 1.297 . S
C383 C367 1.476 . S
H384 O410 0.856 . S
H385 O413 0.854 . S
H386 C421 0.930 . S
H387 C422 0.930 . S
H388 C424 0.930 . S
H389 C425 0.930 . S
H390 C427 0.931 . S
H391 C428 0.930 . S
H392 C430 0.930 . S
H393 C431 0.929 . S
H394 C433 0.930 . S
H395 C434 0.931 . S
H396 C436 0.930 . S
H397 C437 0.929 . S
H398 C439 0.931 . S
H399 C440 0.930 . S
H400 C442 0.930 . S
H401 C443 0.932 . S
H402 C445 0.930 . S
H403 C446 0.929 . S
H404 C448 0.931 . S
H405 C449 0.930 . S
H406 C451 0.929 . S
H407 C452 0.931 . S
H408 C454 0.930 . S
H409 C455 0.929 . S
O410 H384 0.856 . S
O410 C456 1.300 . S
O411 C456 1.209 . S
O412 C457 1.199 . S
O413 H385 0.854 . S
O413 C457 1.297 . S
C414 C415 1.404 . S
C414 C419 1.397 . S
C414 C420 1.492 1_545 S
C415 C414 1.404 . S
C415 C416 1.396 . S
C415 C426 1.492 . S
C416 C415 1.396 . S
C416 C417 1.397 . S
C416 C432 1.509 . S
C417 C416 1.397 . S
C417 C418 1.412 . S
C417 C438 1.485 . S
C418 C417 1.412 . S
C418 C419 1.388 . S
C418 C444 1.490 . S
C419 C414 1.397 . S
C419 C418 1.388 . S
C419 C450 1.519 1_545 S
C420 C414 1.492 1_565 S
C420 C421 1.363 . S
C420 C425 1.390 . S
C421 H386 0.930 . S
C421 C420 1.363 . S
C421 C422 1.372 . S
C422 H387 0.930 . S
C422 C421 1.372 . S
C422 C423 1.383 . S
C423 C422 1.383 . S
C423 C424 1.395 . S
C424 H388 0.930 . S
C424 C423 1.395 . S
C424 C425 1.362 . S
C425 H389 0.930 . S
C425 C420 1.390 . S
C425 C424 1.362 . S
C426 C415 1.492 . S
C426 C427 1.377 . S
C426 C431 1.397 . S
C427 H390 0.931 . S
C427 C426 1.377 . S
C427 C428 1.376 . S
C428 H391 0.930 . S
C428 C427 1.376 . S
C428 C429 1.376 . S
C429 C428 1.376 . S
C429 C430 1.378 . S
C429 C456 1.486 . S
C430 H392 0.930 . S
C430 C429 1.378 . S
C430 C431 1.376 . S
C431 H393 0.929 . S
C431 C426 1.397 . S
C431 C430 1.376 . S
C432 C416 1.509 . S
C432 C433 1.391 . S
C432 C437 1.386 . S
C433 H394 0.930 . S
C433 C432 1.391 . S
C433 C434 1.375 . S
C434 H395 0.931 . S
C434 C433 1.375 . S
C434 C435 1.375 . S
C435 C434 1.375 . S
C435 C436 1.361 . S
C436 H396 0.930 . S
C436 C435 1.361 . S
C436 C437 1.399 . S
C437 H397 0.929 . S
C437 C432 1.386 . S
C437 C436 1.399 . S
C438 C417 1.485 . S
C438 C439 1.394 . S
C438 C443 1.360 . S
C439 H398 0.931 . S
C439 C438 1.394 . S
C439 C440 1.372 . S
C440 H399 0.930 . S
C440 C439 1.372 . S
C440 C441 1.397 . S
C441 C440 1.397 . S
C441 C442 1.390 . S
C441 C457 1.476 . S
C442 H400 0.930 . S
C442 C441 1.390 . S
C442 C443 1.366 . S
C443 H401 0.932 . S
C443 C438 1.360 . S
C443 C442 1.366 . S
C444 C418 1.490 . S
C444 C445 1.380 . S
C444 C449 1.386 . S
C445 H402 0.930 . S
C445 C444 1.380 . S
C445 C446 1.381 . S
C446 H403 0.929 . S
C446 C445 1.381 . S
C446 C447 1.371 . S
C447 C446 1.371 . S
C447 C448 1.380 . S
C448 H404 0.931 . S
C448 C447 1.380 . S
C448 C449 1.387 . S
C449 H405 0.930 . S
C449 C444 1.386 . S
C449 C448 1.387 . S
C450 C419 1.519 1_565 S
C450 C451 1.377 . S
C450 C455 1.361 1_565 S
C451 H406 0.929 . S
C451 C450 1.377 . S
C451 C452 1.386 . S
C452 H407 0.931 . S
C452 C451 1.386 . S
C452 C453 1.363 . S
C453 C452 1.363 . S
C453 C454 1.385 . S
C454 H408 0.930 . S
C454 C453 1.385 . S
C454 C455 1.396 1_565 S
C455 H409 0.929 . S
C455 C450 1.361 1_545 S
C455 C454 1.396 1_545 S
C456 O410 1.300 . S
C456 O411 1.209 . S
C456 C429 1.486 . S
C457 O412 1.199 . S
C457 O413 1.297 . S
C457 C441 1.476 . S
H458 O484 0.856 . S
H459 O487 0.854 . S
H460 C495 0.930 . S
H461 C496 0.930 . S
H462 C498 0.930 . S
H463 C499 0.930 . S
H464 C501 0.931 . S
H465 C502 0.930 . S
H466 C504 0.930 . S
H467 C505 0.929 . S
H468 C507 0.930 . S
H469 C508 0.931 . S
H470 C510 0.930 . S
H471 C511 0.929 . S
H472 C513 0.931 . S
H473 C514 0.930 . S
H474 C516 0.930 . S
H475 C517 0.932 . S
H476 C519 0.930 . S
H477 C520 0.929 . S
H478 C522 0.931 . S
H479 C523 0.930 . S
H480 C525 0.929 . S
H481 C526 0.931 . S
H482 C528 0.930 . S
H483 C529 0.929 . S
O484 H458 0.856 . S
O484 C530 1.300 . S
O485 C530 1.209 . S
O486 C531 1.199 . S
O487 H459 0.854 . S
O487 C531 1.297 . S
C488 C489 1.404 1_554 S
C488 C493 1.397 . S
C488 C494 1.502 . S
C489 C488 1.404 1_556 S
C489 C490 1.397 1_556 S
C489 C500 1.492 . S
C490 C489 1.397 1_554 S
C490 C491 1.394 . S
C490 C506 1.511 1_554 S
C491 C490 1.394 . S
C491 C492 1.412 . S
C491 C512 1.485 . S
C492 C491 1.412 . S
C492 C493 1.388 . S
C492 C518 1.490 . S
C493 C488 1.397 . S
C493 C492 1.388 . S
C493 C524 1.519 . S
C494 C488 1.502 . S
C494 C495 1.351 1_554 S
C494 C499 1.393 . S
C495 H460 0.930 . S
C495 C494 1.351 1_556 S
C495 C496 1.372 . S
C496 H461 0.930 . S
C496 C495 1.372 . S
C496 C497 1.383 . S
C497 C496 1.383 . S
C497 C498 1.395 . S
C498 H462 0.930 . S
C498 C497 1.395 . S
C498 C499 1.362 1_556 S
C499 H463 0.930 . S
C499 C494 1.393 . S
C499 C498 1.362 1_554 S
C500 C489 1.492 . S
C500 C501 1.377 . S
C500 C505 1.397 . S
C501 H464 0.931 . S
C501 C500 1.377 . S
C501 C502 1.376 . S
C502 H465 0.930 . S
C502 C501 1.376 . S
C502 C503 1.376 . S
C503 C502 1.376 . S
C503 C504 1.378 . S
C503 C530 1.486 . S
C504 H466 0.930 . S
C504 C503 1.378 . S
C504 C505 1.376 . S
C505 H467 0.929 . S
C505 C500 1.397 . S
C505 C504 1.376 . S
C506 C490 1.511 1_556 S
C506 C507 1.391 . S
C506 C511 1.386 . S
C507 H468 0.930 . S
C507 C506 1.391 . S
C507 C508 1.375 . S
C508 H469 0.931 . S
C508 C507 1.375 . S
C508 C509 1.375 . S
C509 C508 1.375 . S
C509 C510 1.361 . S
C510 H470 0.930 . S
C510 C509 1.361 . S
C510 C511 1.399 . S
C511 H471 0.929 . S
C511 C506 1.386 . S
C511 C510 1.399 . S
C512 C491 1.485 . S
C512 C513 1.394 . S
C512 C517 1.360 . S
C513 H472 0.931 . S
C513 C512 1.394 . S
C513 C514 1.372 . S
C514 H473 0.930 . S
C514 C513 1.372 . S
C514 C515 1.397 . S
C515 C514 1.397 . S
C515 C516 1.390 . S
C515 C531 1.476 . S
C516 H474 0.930 . S
C516 C515 1.390 . S
C516 C517 1.366 . S
C517 H475 0.932 . S
C517 C512 1.360 . S
C517 C516 1.366 . S
C518 C492 1.490 . S
C518 C519 1.380 . S
C518 C523 1.386 . S
C519 H476 0.930 . S
C519 C518 1.380 . S
C519 C520 1.381 . S
C520 H477 0.929 . S
C520 C519 1.381 . S
C520 C521 1.371 . S
C521 C520 1.371 . S
C521 C522 1.380 . S
C522 H478 0.931 . S
C522 C521 1.380 . S
C522 C523 1.387 . S
C523 H479 0.930 . S
C523 C518 1.386 . S
C523 C522 1.387 . S
C524 C493 1.519 . S
C524 C525 1.377 . S
C524 C529 1.361 . S
C525 H480 0.929 . S
C525 C524 1.377 . S
C525 C526 1.386 . S
C526 H481 0.931 . S
C526 C525 1.386 . S
C526 C527 1.363 . S
C527 C526 1.363 . S
C527 C528 1.385 . S
C528 H482 0.930 . S
C528 C527 1.385 . S
C528 C529 1.396 . S
C529 H483 0.929 . S
C529 C524 1.361 . S
C529 C528 1.396 . S
C530 O484 1.300 . S
C530 O485 1.209 . S
C530 C503 1.486 . S
C531 O486 1.199 . S
C531 O487 1.297 . S
C531 C515 1.476 . S
H532 C540 0.929 . S
H533 C542 0.930 . S
H534 C544 0.930 . S
H535 C547 0.929 . S
H536 C550 0.930 . S
H537 C552 0.960 . S
H538 C552 0.960 . S
H539 C552 0.960 . S
C540 H532 0.929 . S
C540 C541 1.377 . S
C540 C542 1.384 . S
C541 C540 1.377 . S
C541 C547 1.390 . S
C542 H533 0.930 . S
C542 C540 1.384 . S
C542 C543 1.372 . S
C543 C542 1.372 . S
C543 C544 1.400 . S
C543 C548 1.490 . S
C544 H534 0.930 . S
C544 C543 1.400 . S
C544 C547 1.386 . S
H545 C561 0.930 . S
H546 C562 0.931 . S
C547 H535 0.929 . S
C547 C541 1.390 . S
C547 C544 1.386 . S
C548 C543 1.490 . S
C548 C550 1.395 . S
C548 C551 1.403 . S
H549 C555 0.930 . S
C550 H536 0.930 . S
C550 C548 1.395 . S
C550 C553 1.403 . S
C551 C548 1.403 . S
C551 C552 1.524 . S
C551 C555 1.400 . S
C552 H537 0.960 . S
C552 H538 0.960 . S
C552 H539 0.960 . S
C552 C551 1.524 . S
C553 C550 1.403 . S
C553 C554 1.392 . S
C553 C557 1.495 . S
C554 C553 1.392 . S
C554 C555 1.385 . S
C554 C556 1.478 . S
C555 H549 0.930 . S
C555 C551 1.400 . S
C555 C554 1.385 . S
C556 C554 1.478 . S
C556 C558 1.381 . S
C556 C562 1.383 . S
C557 C553 1.495 . S
C557 H563 0.959 . S
C557 H564 0.961 . S
C557 H565 0.960 . S
C558 C556 1.381 . S
C558 C559 1.394 . S
C558 H566 0.930 . S
C559 C558 1.394 . S
C559 C560 1.383 . S
C559 H567 0.929 . S
C560 C559 1.383 . S
C560 C561 1.377 . S
C561 H545 0.930 . S
C561 C560 1.377 . S
C561 C562 1.379 . S
C562 H546 0.931 . S
C562 C556 1.383 . S
C562 C561 1.379 . S
H563 C557 0.959 . S
H564 C557 0.961 . S
H565 C557 0.960 . S
H566 C558 0.930 . S
H567 C559 0.929 . S
H568 C576 0.929 . S
H569 C578 0.930 . S
H570 C580 0.930 . S
H571 C583 0.929 . S
H572 C586 0.930 . S
H573 C588 0.960 . S
H574 C588 0.960 . S
H575 C588 0.960 . S
C576 H568 0.929 . S
C576 C577 1.377 . S
C576 C578 1.384 . S
C577 C576 1.377 . S
C577 C583 1.390 . S
C578 H569 0.930 . S
C578 C576 1.384 . S
C578 C579 1.372 . S
C579 C578 1.372 . S
C579 C580 1.400 . S
C579 C584 1.490 . S
C580 H570 0.930 . S
C580 C579 1.400 . S
C580 C583 1.386 . S
H581 C597 0.930 . S
H582 C598 0.931 . S
C583 H571 0.929 . S
C583 C577 1.390 . S
C583 C580 1.386 . S
C584 C579 1.490 . S
C584 C586 1.395 . S
C584 C587 1.403 . S
H585 C591 0.930 . S
C586 H572 0.930 . S
C586 C584 1.395 . S
C586 C589 1.403 . S
C587 C584 1.403 . S
C587 C588 1.524 . S
C587 C591 1.400 . S
C588 H573 0.960 . S
C588 H574 0.960 . S
C588 H575 0.960 . S
C588 C587 1.524 . S
C589 C586 1.403 . S
C589 C590 1.392 . S
C589 C593 1.495 . S
C590 C589 1.392 . S
C590 C591 1.385 . S
C590 C592 1.478 . S
C591 H585 0.930 . S
C591 C587 1.400 . S
C591 C590 1.385 . S
C592 C590 1.478 . S
C592 C594 1.381 . S
C592 C598 1.383 . S
C593 C589 1.495 . S
C593 H599 0.959 . S
C593 H600 0.961 . S
C593 H601 0.960 . S
C594 C592 1.381 . S
C594 C595 1.394 . S
C594 H602 0.930 . S
C595 C594 1.394 . S
C595 C596 1.383 . S
C595 H603 0.929 . S
C596 C595 1.383 . S
C596 C597 1.377 . S
C597 H581 0.930 . S
C597 C596 1.377 . S
C597 C598 1.379 . S
C598 H582 0.931 . S
C598 C592 1.383 . S
C598 C597 1.379 . S
H599 C593 0.959 . S
H600 C593 0.961 . S
H601 C593 0.960 . S
H602 C594 0.930 . S
H603 C595 0.929 . S
H604 C612 0.929 . S
H605 C614 0.930 . S
H606 C616 0.930 . S
H607 C619 0.929 . S
H608 C622 0.930 . S
H609 C624 0.960 . S
H610 C624 0.960 . S
H611 C624 0.960 . S
C612 H604 0.929 . S
C612 C613 1.377 . S
C612 C614 1.384 . S
C613 C612 1.377 . S
C613 C619 1.390 . S
C614 H605 0.930 . S
C614 C612 1.384 . S
C614 C615 1.372 . S
C615 C614 1.372 . S
C615 C616 1.400 . S
C615 C620 1.490 . S
C616 H606 0.930 . S
C616 C615 1.400 . S
C616 C619 1.386 . S
H617 C633 0.930 . S
H618 C634 0.931 . S
C619 H607 0.929 . S
C619 C613 1.390 . S
C619 C616 1.386 . S
C620 C615 1.490 . S
C620 C622 1.395 . S
C620 C623 1.403 . S
H621 C627 0.930 . S
C622 H608 0.930 . S
C622 C620 1.395 . S
C622 C625 1.403 . S
C623 C620 1.403 . S
C623 C624 1.524 . S
C623 C627 1.400 . S
C624 H609 0.960 . S
C624 H610 0.960 . S
C624 H611 0.960 . S
C624 C623 1.524 . S
C625 C622 1.403 . S
C625 C626 1.392 . S
C625 C629 1.495 . S
C626 C625 1.392 . S
C626 C627 1.385 . S
C626 C628 1.478 . S
C627 H621 0.930 . S
C627 C623 1.400 . S
C627 C626 1.385 . S
C628 C626 1.478 . S
C628 C630 1.381 . S
C628 C634 1.383 . S
C629 C625 1.495 . S
C629 H635 0.959 . S
C629 H636 0.961 . S
C629 H637 0.960 . S
C630 C628 1.381 . S
C630 C631 1.394 . S
C630 H638 0.930 . S
C631 C630 1.394 . S
C631 C632 1.383 . S
C631 H639 0.929 . S
C632 C631 1.383 . S
C632 C633 1.377 . S
C633 H617 0.930 . S
C633 C632 1.377 . S
C633 C634 1.379 . S
C634 H618 0.931 . S
C634 C628 1.383 . S
C634 C633 1.379 . S
H635 C629 0.959 . S
H636 C629 0.961 . S
H637 C629 0.960 . S
H638 C630 0.930 . S
H639 C631 0.929 . S
H640 C648 0.929 . S
H641 C650 0.930 . S
H642 C652 0.930 . S
H643 C655 0.929 . S
H644 C658 0.930 . S
H645 C660 0.960 . S
H646 C660 0.960 . S
H647 C660 0.960 . S
C648 H640 0.929 . S
C648 C649 1.377 . S
C648 C650 1.384 . S
C649 C648 1.377 . S
C649 C655 1.390 . S
C650 H641 0.930 . S
C650 C648 1.384 . S
C650 C651 1.372 . S
C651 C650 1.372 . S
C651 C652 1.400 . S
C651 C656 1.490 . S
C652 H642 0.930 . S
C652 C651 1.400 . S
C652 C655 1.386 . S
H653 C669 0.930 . S
H654 C670 0.931 . S
C655 H643 0.929 . S
C655 C649 1.390 . S
C655 C652 1.386 . S
C656 C651 1.490 . S
C656 C658 1.395 . S
C656 C659 1.403 . S
H657 C663 0.930 . S
C658 H644 0.930 . S
C658 C656 1.395 . S
C658 C661 1.403 . S
C659 C656 1.403 . S
C659 C660 1.524 . S
C659 C663 1.400 . S
C660 H645 0.960 . S
C660 H646 0.960 . S
C660 H647 0.960 . S
C660 C659 1.524 . S
C661 C658 1.403 . S
C661 C662 1.392 . S
C661 C665 1.495 . S
C662 C661 1.392 . S
C662 C663 1.385 . S
C662 C664 1.478 . S
C663 H657 0.930 . S
C663 C659 1.400 . S
C663 C662 1.385 . S
C664 C662 1.478 . S
C664 C666 1.381 . S
C664 C670 1.383 . S
C665 C661 1.495 . S
C665 H671 0.959 . S
C665 H672 0.961 . S
C665 H673 0.960 . S
C666 C664 1.381 . S
C666 C667 1.394 . S
C666 H674 0.930 . S
C667 C666 1.394 . S
C667 C668 1.383 . S
C667 H675 0.929 . S
C668 C667 1.383 . S
C668 C669 1.377 . S
C669 H653 0.930 . S
C669 C668 1.377 . S
C669 C670 1.379 . S
C670 H654 0.931 . S
C670 C664 1.383 . S
C670 C669 1.379 . S
H671 C665 0.959 . S
H672 C665 0.961 . S
H673 C665 0.960 . S
H674 C666 0.930 . S
H675 C667 0.929 . S
H676 C684 0.929 . S
H677 C686 0.930 . S
H678 C688 0.930 . S
H679 C691 0.929 . S
H680 C694 0.930 . S
H681 C696 0.960 . S
H682 C696 0.960 . S
H683 C696 0.960 . S
C684 H676 0.929 . S
C684 C685 1.377 . S
C684 C686 1.384 . S
C685 C684 1.377 . S
C685 C691 1.390 . S
C686 H677 0.930 . S
C686 C684 1.384 . S
C686 C687 1.372 . S
C687 C686 1.372 . S
C687 C688 1.400 . S
C687 C692 1.490 . S
C688 H678 0.930 . S
C688 C687 1.400 . S
C688 C691 1.386 . S
H689 C705 0.930 . S
H690 C706 0.931 . S
C691 H679 0.929 . S
C691 C685 1.390 . S
C691 C688 1.386 . S
C692 C687 1.490 . S
C692 C694 1.395 . S
C692 C695 1.403 . S
H693 C699 0.930 . S
C694 H680 0.930 . S
C694 C692 1.395 . S
C694 C697 1.403 . S
C695 C692 1.403 . S
C695 C696 1.524 . S
C695 C699 1.400 . S
C696 H681 0.960 . S
C696 H682 0.960 . S
C696 H683 0.960 . S
C696 C695 1.524 . S
C697 C694 1.403 . S
C697 C698 1.392 . S
C697 C701 1.495 . S
C698 C697 1.392 . S
C698 C699 1.385 . S
C698 C700 1.478 . S
C699 H693 0.930 . S
C699 C695 1.400 . S
C699 C698 1.385 . S
C700 C698 1.478 . S
C700 C702 1.381 . S
C700 C706 1.383 . S
C701 C697 1.495 . S
C701 H707 0.959 . S
C701 H708 0.961 . S
C701 H709 0.960 . S
C702 C700 1.381 . S
C702 C703 1.394 . S
C702 H710 0.930 . S
C703 C702 1.394 . S
C703 C704 1.383 . S
C703 H711 0.929 . S
C704 C703 1.383 . S
C704 C705 1.377 . S
C705 H689 0.930 . S
C705 C704 1.377 . S
C705 C706 1.379 . S
C706 H690 0.931 . S
C706 C700 1.383 . S
C706 C705 1.379 . S
H707 C701 0.959 . S
H708 C701 0.961 . S
H709 C701 0.960 . S
H710 C702 0.930 . S
H711 C703 0.929 . S
H712 C720 0.929 . S
H713 C722 0.930 . S
H714 C724 0.930 . S
H715 C727 0.929 . S
H716 C730 0.930 . S
H717 C732 0.960 . S
H718 C732 0.960 . S
H719 C732 0.960 . S
C720 H712 0.929 . S
C720 C721 1.377 . S
C720 C722 1.384 . S
C721 C720 1.377 . S
C721 C727 1.390 . S
C722 H713 0.930 . S
C722 C720 1.384 . S
C722 C723 1.372 . S
C723 C722 1.372 . S
C723 C724 1.400 . S
C723 C728 1.490 . S
C724 H714 0.930 . S
C724 C723 1.400 . S
C724 C727 1.386 . S
H725 C741 0.937 . S
H726 C742 0.931 . S
C727 H715 0.929 . S
C727 C721 1.390 . S
C727 C724 1.386 . S
C728 C723 1.490 . S
C728 C730 1.395 . S
C728 C731 1.403 . S
H729 C735 0.930 . S
C730 H716 0.930 . S
C730 C728 1.395 . S
C730 C733 1.403 . S
C731 C728 1.403 . S
C731 C732 1.524 . S
C731 C735 1.400 . S
C732 H717 0.960 . S
C732 H718 0.960 . S
C732 H719 0.960 . S
C732 C731 1.524 . S
C733 C730 1.403 . S
C733 C734 1.392 . S
C733 C737 1.495 . S
C734 C733 1.392 . S
C734 C735 1.385 . S
C734 C736 1.478 . S
C735 H729 0.930 . S
C735 C731 1.400 . S
C735 C734 1.385 . S
C736 C734 1.478 . S
C736 C738 1.381 . S
C736 C742 1.383 . S
C737 C733 1.495 . S
C737 H743 0.959 . S
C737 H744 0.961 . S
C737 H745 0.960 . S
C738 C736 1.381 . S
C738 C739 1.394 . S
C738 H746 0.930 . S
C739 C738 1.394 . S
C739 C740 1.383 . S
C739 H747 0.929 . S
C740 C739 1.383 . S
C740 C741 1.377 . S
C741 H725 0.937 . S
C741 C740 1.377 . S
C741 C742 1.379 . S
C742 H726 0.931 . S
C742 C736 1.383 . S
C742 C741 1.379 . S
H743 C737 0.959 . S
H744 C737 0.961 . S
H745 C737 0.960 . S
H746 C738 0.930 . S
H747 C739 0.929 . S
H748 C756 0.929 . S
H749 C758 0.930 . S
H750 C760 0.930 . S
H751 C763 0.929 . S
H752 C766 0.930 . S
H753 C768 0.960 . S
H754 C768 0.960 . S
H755 C768 0.960 . S
C756 H748 0.929 . S
C756 C757 1.377 . S
C756 C758 1.384 . S
C757 C756 1.377 . S
C757 C763 1.390 . S
C758 H749 0.930 . S
C758 C756 1.384 . S
C758 C759 1.372 . S
C759 C758 1.372 . S
C759 C760 1.400 . S
C759 C764 1.490 . S
C760 H750 0.930 . S
C760 C759 1.400 . S
C760 C763 1.386 . S
H761 C777 0.930 . S
H762 C778 0.931 . S
C763 H751 0.929 . S
C763 C757 1.390 . S
C763 C760 1.386 . S
C764 C759 1.490 . S
C764 C766 1.395 . S
C764 C767 1.403 . S
H765 C771 0.930 . S
C766 H752 0.930 . S
C766 C764 1.395 . S
C766 C769 1.403 . S
C767 C764 1.403 . S
C767 C768 1.524 . S
C767 C771 1.400 . S
C768 H753 0.960 . S
C768 H754 0.960 . S
C768 H755 0.960 . S
C768 C767 1.524 . S
C769 C766 1.403 . S
C769 C770 1.392 . S
C769 C773 1.495 . S
C770 C769 1.392 . S
C770 C771 1.385 . S
C770 C772 1.478 . S
C771 H765 0.930 . S
C771 C767 1.400 . S
C771 C770 1.385 . S
C772 C770 1.478 . S
C772 C774 1.381 . S
C772 C778 1.383 . S
C773 C769 1.495 . S
C773 H779 0.959 . S
C773 H780 0.961 . S
C773 H781 0.960 . S
C774 C772 1.381 . S
C774 C775 1.394 . S
C774 H782 0.930 . S
C775 C774 1.394 . S
C775 C776 1.383 . S
C775 H783 0.929 . S
C776 C775 1.383 . S
C776 C777 1.377 . S
C777 H761 0.930 . S
C777 C776 1.377 . S
C777 C778 1.379 . S
C778 H762 0.931 . S
C778 C772 1.383 . S
C778 C777 1.379 . S
H779 C773 0.959 . S
H780 C773 0.961 . S
H781 C773 0.960 . S
H782 C774 0.930 . S
H783 C775 0.929 . S
H784 C792 0.929 . S
H785 C794 0.930 . S
H786 C796 0.930 . S
H787 C799 0.929 . S
H788 C802 0.930 . S
H789 C804 0.960 . S
H790 C804 0.960 . S
H791 C804 0.960 . S
C792 H784 0.929 . S
C792 C793 1.377 . S
C792 C794 1.384 . S
C793 C792 1.377 . S
C793 C799 1.390 . S
C794 H785 0.930 . S
C794 C792 1.384 . S
C794 C795 1.372 . S
C795 C794 1.372 . S
C795 C796 1.400 . S
C795 C800 1.490 . S
C796 H786 0.930 . S
C796 C795 1.400 . S
C796 C799 1.386 . S
H797 C813 0.930 . S
H798 C814 0.931 . S
C799 H787 0.929 . S
C799 C793 1.390 . S
C799 C796 1.386 . S
C800 C795 1.490 . S
C800 C802 1.395 . S
C800 C803 1.403 . S
H801 C807 0.930 . S
C802 H788 0.930 . S
C802 C800 1.395 . S
C802 C805 1.403 . S
C803 C800 1.403 . S
C803 C804 1.524 . S
C803 C807 1.400 . S
C804 H789 0.960 . S
C804 H790 0.960 . S
C804 H791 0.960 . S
C804 C803 1.524 . S
C805 C802 1.403 . S
C805 C806 1.392 . S
C805 C809 1.495 . S
C806 C805 1.392 . S
C806 C807 1.385 . S
C806 C808 1.478 . S
C807 H801 0.930 . S
C807 C803 1.400 . S
C807 C806 1.385 . S
C808 C806 1.478 . S
C808 C810 1.381 . S
C808 C814 1.383 . S
C809 C805 1.495 . S
C809 H815 0.959 . S
C809 H816 0.961 . S
C809 H817 0.960 . S
C810 C808 1.381 . S
C810 C811 1.394 . S
C810 H818 0.930 . S
C811 C810 1.394 . S
C811 C812 1.383 . S
C811 H819 0.929 . S
C812 C811 1.383 . S
C812 C813 1.377 . S
C813 H797 0.930 . S
C813 C812 1.377 . S
C813 C814 1.379 . S
C814 H798 0.931 . S
C814 C808 1.383 . S
C814 C813 1.379 . S
H815 C809 0.959 . S
H816 C809 0.961 . S
H817 C809 0.960 . S
H818 C810 0.930 . S
H819 C811 0.929 . S
H820 C828 0.929 . S
H821 C830 0.930 . S
H822 C832 0.928 1_565 S
H823 C835 0.929 . S
H824 C838 0.930 . S
H825 C840 0.960 . S
H826 C840 0.960 . S
H827 C840 0.960 . S
C828 H820 0.929 . S
C828 C829 1.377 1_545 S
C828 C830 1.384 . S
C829 C828 1.377 1_565 S
C829 C835 1.390 . S
C830 H821 0.930 . S
C830 C828 1.384 . S
C830 C831 1.372 . S
C831 C830 1.372 . S
C831 C832 1.400 . S
C831 C836 1.490 . S
C832 H822 0.928 1_545 S
C832 C831 1.400 . S
C832 C835 1.386 1_545 S
H833 C849 0.930 . S
H834 C850 0.931 . S
C835 H823 0.929 . S
C835 C829 1.390 . S
C835 C832 1.386 1_565 S
C836 C831 1.490 . S
C836 C838 1.395 . S
C836 C839 1.403 . S
H837 C843 0.930 . S
C838 H824 0.930 . S
C838 C836 1.395 . S
C838 C841 1.403 . S
C839 C836 1.403 . S
C839 C840 1.524 . S
C839 C843 1.400 . S
C840 H825 0.960 . S
C840 H826 0.960 . S
C840 H827 0.960 . S
C840 C839 1.524 . S
C841 C838 1.403 . S
C841 C842 1.392 . S
C841 C845 1.495 . S
C842 C841 1.392 . S
C842 C843 1.385 . S
C842 C844 1.478 . S
C843 H837 0.930 . S
C843 C839 1.400 . S
C843 C842 1.385 . S
C844 C842 1.478 . S
C844 C846 1.381 . S
C844 C850 1.383 . S
C845 C841 1.495 . S
C845 H851 0.959 . S
C845 H852 0.961 . S
C845 H853 0.960 . S
C846 C844 1.381 . S
C846 C847 1.394 . S
C846 H854 0.930 . S
C847 C846 1.394 . S
C847 C848 1.383 . S
C847 H855 0.929 . S
C848 C847 1.383 . S
C848 C849 1.377 . S
C849 H833 0.930 . S
C849 C848 1.377 . S
C849 C850 1.379 . S
C850 H834 0.931 . S
C850 C844 1.383 . S
C850 C849 1.379 . S
H851 C845 0.959 . S
H852 C845 0.961 . S
H853 C845 0.960 . S
H854 C846 0.930 . S
H855 C847 0.929 . S
H856 C864 0.929 . S
H857 C866 0.930 . S
H858 C868 0.930 . S
H859 C871 0.929 . S
H860 C874 0.930 . S
H861 C876 0.960 . S
H862 C876 0.960 . S
H863 C876 0.960 . S
C864 H856 0.929 . S
C864 C865 1.377 . S
C864 C866 1.384 . S
C865 C864 1.377 . S
C865 C871 1.390 . S
C866 H857 0.930 . S
C866 C864 1.384 . S
C866 C867 1.372 . S
C867 C866 1.372 . S
C867 C868 1.400 . S
C867 C872 1.490 . S
C868 H858 0.930 . S
C868 C867 1.400 . S
C868 C871 1.386 . S
H869 C885 0.930 . S
H870 C886 0.931 . S
C871 H859 0.929 . S
C871 C865 1.390 . S
C871 C868 1.386 . S
C872 C867 1.490 . S
C872 C874 1.395 . S
C872 C875 1.403 . S
H873 C879 0.930 . S
C874 H860 0.930 . S
C874 C872 1.395 . S
C874 C877 1.403 . S
C875 C872 1.403 . S
C875 C876 1.524 . S
C875 C879 1.400 . S
C876 H861 0.960 . S
C876 H862 0.960 . S
C876 H863 0.960 . S
C876 C875 1.524 . S
C877 C874 1.403 . S
C877 C878 1.392 . S
C877 C881 1.495 . S
C878 C877 1.392 . S
C878 C879 1.385 . S
C878 C880 1.478 . S
C879 H873 0.930 . S
C879 C875 1.400 . S
C879 C878 1.385 . S
C880 C878 1.478 . S
C880 C882 1.381 . S
C880 C886 1.383 . S
C881 C877 1.495 . S
C881 H887 0.959 . S
C881 H888 0.961 . S
C881 H889 0.960 . S
C882 C880 1.381 . S
C882 C883 1.394 . S
C882 H890 0.930 . S
C883 C882 1.394 . S
C883 C884 1.383 . S
C883 H891 0.929 . S
C884 C883 1.383 . S
C884 C885 1.377 . S
C885 H869 0.930 . S
C885 C884 1.377 . S
C885 C886 1.379 . S
C886 H870 0.931 . S
C886 C880 1.383 . S
C886 C885 1.379 . S
H887 C881 0.959 . S
H888 C881 0.961 . S
H889 C881 0.960 . S
H890 C882 0.930 . S
H891 C883 0.929 . S
H892 C900 0.929 . S
H893 C902 0.930 . S
H894 C904 0.930 . S
H895 C907 0.929 . S
H896 C910 0.930 . S
H897 C912 0.960 . S
H898 C912 0.960 . S
H899 C912 0.960 . S
C900 H892 0.929 . S
C900 C901 1.377 . S
C900 C902 1.384 . S
C901 C900 1.377 . S
C901 C907 1.390 . S
C902 H893 0.930 . S
C902 C900 1.384 . S
C902 C903 1.372 . S
C903 C902 1.372 . S
C903 C904 1.400 . S
C903 C908 1.490 . S
C904 H894 0.930 . S
C904 C903 1.400 . S
C904 C907 1.386 . S
H905 C921 0.930 . S
H906 C922 0.931 . S
C907 H895 0.929 . S
C907 C901 1.390 . S
C907 C904 1.386 . S
C908 C903 1.490 . S
C908 C910 1.395 . S
C908 C911 1.403 . S
H909 C915 0.930 . S
C910 H896 0.930 . S
C910 C908 1.395 . S
C910 C913 1.403 . S
C911 C908 1.403 . S
C911 C912 1.524 . S
C911 C915 1.400 . S
C912 H897 0.960 . S
C912 H898 0.960 . S
C912 H899 0.960 . S
C912 C911 1.524 . S
C913 C910 1.403 . S
C913 C914 1.392 . S
C913 C917 1.495 . S
C914 C913 1.392 . S
C914 C915 1.385 . S
C914 C916 1.478 . S
C915 H909 0.930 . S
C915 C911 1.400 . S
C915 C914 1.385 . S
C916 C914 1.478 . S
C916 C918 1.381 . S
C916 C922 1.383 . S
C917 C913 1.495 . S
C917 H923 0.959 . S
C917 H924 0.961 . S
C917 H925 0.960 . S
C918 C916 1.381 . S
C918 C919 1.394 . S
C918 H926 0.930 . S
C919 C918 1.394 . S
C919 C920 1.383 . S
C919 H927 0.929 . S
C920 C919 1.383 . S
C920 C921 1.377 . S
C921 H905 0.930 . S
C921 C920 1.377 . S
C921 C922 1.379 . S
C922 H906 0.931 . S
C922 C916 1.383 . S
C922 C921 1.379 . S
H923 C917 0.959 . S
H924 C917 0.961 . S
H925 C917 0.960 . S
H926 C918 0.930 . S
H927 C919 0.929 . S
H928 C936 0.929 . S
H929 C938 0.930 . S
H930 C940 0.930 . S
H931 C943 0.929 . S
H932 C946 0.930 . S
H933 C948 0.960 . S
H934 C948 0.960 . S
H935 C948 0.960 . S
C936 H928 0.929 . S
C936 C937 1.377 . S
C936 C938 1.384 . S
C937 C936 1.377 . S
C937 C943 1.390 . S
C938 H929 0.930 . S
C938 C936 1.384 . S
C938 C939 1.372 . S
C939 C938 1.372 . S
C939 C940 1.400 . S
C939 C944 1.490 . S
C940 H930 0.930 . S
C940 C939 1.400 . S
C940 C943 1.386 . S
H941 C957 0.930 . S
H942 C958 0.931 . S
C943 H931 0.929 . S
C943 C937 1.390 . S
C943 C940 1.386 . S
C944 C939 1.490 . S
C944 C946 1.395 . S
C944 C947 1.403 . S
H945 C951 0.930 . S
C946 H932 0.930 . S
C946 C944 1.395 . S
C946 C949 1.403 . S
C947 C944 1.403 . S
C947 C948 1.524 . S
C947 C951 1.400 . S
C948 H933 0.960 . S
C948 H934 0.960 . S
C948 H935 0.960 . S
C948 C947 1.524 . S
C949 C946 1.403 . S
C949 C950 1.392 . S
C949 C953 1.495 . S
C950 C949 1.392 . S
C950 C951 1.385 . S
C950 C952 1.478 . S
C951 H945 0.930 . S
C951 C947 1.400 . S
C951 C950 1.385 . S
C952 C950 1.478 . S
C952 C954 1.381 . S
C952 C958 1.383 . S
C953 C949 1.495 . S
C953 H959 0.959 . S
C953 H960 0.961 . S
C953 H961 0.960 . S
C954 C952 1.381 . S
C954 C955 1.394 . S
C954 H962 0.930 . S
C955 C954 1.394 . S
C955 C956 1.383 . S
C955 H963 0.929 . S
C956 C955 1.383 . S
C956 C957 1.377 . S
C957 H941 0.930 . S
C957 C956 1.377 . S
C957 C958 1.379 . S
C958 H942 0.931 . S
C958 C952 1.383 . S
C958 C957 1.379 . S
H959 C953 0.959 . S
H960 C953 0.961 . S
H961 C953 0.960 . S
H962 C954 0.930 . S
H963 C955 0.929 . S
H964 C972 0.929 . S
H965 C974 0.930 . S
H966 C976 0.930 . S
H967 C979 0.929 . S
H968 C982 0.930 . S
H969 C984 0.960 . S
H970 C984 0.960 . S
H971 C984 0.960 . S
C972 H964 0.929 . S
C972 C973 1.377 . S
C972 C974 1.384 . S
C973 C972 1.377 . S
C973 C979 1.390 . S
C974 H965 0.930 . S
C974 C972 1.384 . S
C974 C975 1.372 . S
C975 C974 1.372 . S
C975 C976 1.400 . S
C975 C980 1.490 . S
C976 H966 0.930 . S
C976 C975 1.400 . S
C976 C979 1.386 . S
H977 C993 0.930 . S
H978 C994 0.931 . S
C979 H967 0.929 . S
C979 C973 1.390 . S
C979 C976 1.386 . S
C980 C975 1.490 . S
C980 C982 1.395 . S
C980 C983 1.403 . S
H981 C987 0.930 . S
C982 H968 0.930 . S
C982 C980 1.395 . S
C982 C985 1.403 . S
C983 C980 1.403 . S
C983 C984 1.524 . S
C983 C987 1.400 . S
C984 H969 0.960 . S
C984 H970 0.960 . S
C984 H971 0.960 . S
C984 C983 1.524 . S
C985 C982 1.403 . S
C985 C986 1.392 . S
C985 C989 1.495 . S
C986 C985 1.392 . S
C986 C987 1.385 . S
C986 C988 1.478 . S
C987 H981 0.930 . S
C987 C983 1.400 . S
C987 C986 1.385 . S
C988 C986 1.478 . S
C988 C990 1.381 . S
C988 C994 1.383 . S
C989 C985 1.495 . S
C989 H995 0.959 . S
C989 H996 0.961 . S
C989 H997 0.960 . S
C990 C988 1.381 . S
C990 C991 1.394 . S
C990 H998 0.930 . S
C991 C990 1.394 . S
C991 C992 1.383 . S
C991 H999 0.929 . S
C992 C991 1.383 . S
C992 C993 1.377 . S
C993 H977 0.930 . S
C993 C992 1.377 . S
C993 C994 1.379 . S
C994 H978 0.931 . S
C994 C988 1.383 . S
C994 C993 1.379 . S
H995 C989 0.959 . S
H996 C989 0.961 . S
H997 C989 0.960 . S
H998 C990 0.930 . S
H999 C991 0.929 . S
H1000 C1008 0.929 . S
H1001 C1010 0.930 . S
H1002 C1012 0.930 . S
H1003 C1015 0.929 . S
H1004 C1018 0.930 . S
H1005 C1020 0.960 . S
H1006 C1020 0.960 . S
H1007 C1020 0.960 . S
C1008 H1000 0.929 . S
C1008 C1009 1.377 . S
C1008 C1010 1.384 . S
C1009 C1008 1.377 . S
C1009 C1015 1.390 . S
C1010 H1001 0.930 . S
C1010 C1008 1.384 . S
C1010 C1011 1.372 . S
C1011 C1010 1.372 . S
C1011 C1012 1.400 . S
C1011 C1016 1.490 . S
C1012 H1002 0.930 . S
C1012 C1011 1.400 . S
C1012 C1015 1.386 . S
H1013 C1029 0.930 . S
H1014 C1030 0.931 . S
C1015 H1003 0.929 . S
C1015 C1009 1.390 . S
C1015 C1012 1.386 . S
C1016 C1011 1.490 . S
C1016 C1018 1.395 . S
C1016 C1019 1.403 . S
H1017 C1023 0.930 . S
C1018 H1004 0.930 . S
C1018 C1016 1.395 . S
C1018 C1021 1.403 . S
C1019 C1016 1.403 . S
C1019 C1020 1.524 . S
C1019 C1023 1.400 . S
C1020 H1005 0.960 . S
C1020 H1006 0.960 . S
C1020 H1007 0.960 . S
C1020 C1019 1.524 . S
C1021 C1018 1.403 . S
C1021 C1022 1.392 . S
C1021 C1025 1.495 . S
C1022 C1021 1.392 . S
C1022 C1023 1.385 . S
C1022 C1024 1.478 . S
C1023 H1017 0.930 . S
C1023 C1019 1.400 . S
C1023 C1022 1.385 . S
C1024 C1022 1.478 . S
C1024 C1026 1.381 . S
C1024 C1030 1.383 . S
C1025 C1021 1.495 . S
C1025 H1031 0.959 . S
C1025 H1032 0.961 . S
C1025 H1033 0.960 . S
C1026 C1024 1.381 . S
C1026 C1027 1.394 . S
C1026 H1034 0.930 . S
C1027 C1026 1.394 . S
C1027 C1028 1.383 . S
C1027 H1035 0.929 . S
C1028 C1027 1.383 . S
C1028 C1029 1.377 . S
C1029 H1013 0.930 . S
C1029 C1028 1.377 . S
C1029 C1030 1.379 . S
C1030 H1014 0.931 . S
C1030 C1024 1.383 . S
C1030 C1029 1.379 . S
H1031 C1025 0.959 . S
H1032 C1025 0.961 . S
H1033 C1025 0.960 . S
H1034 C1026 0.930 . S
H1035 C1027 0.929 . S
H1036 C1044 0.929 . S
H1037 C1046 0.930 . S
H1038 C1048 0.930 . S
H1039 C1051 0.929 . S
H1040 C1054 0.930 . S
H1041 C1056 0.960 . S
H1042 C1056 0.960 . S
H1043 C1056 0.960 . S
C1044 H1036 0.929 . S
C1044 C1045 1.377 . S
C1044 C1046 1.384 . S
C1045 C1044 1.377 . S
C1045 C1051 1.390 . S
C1046 H1037 0.930 . S
C1046 C1044 1.384 . S
C1046 C1047 1.372 . S
C1047 C1046 1.372 . S
C1047 C1048 1.400 . S
C1047 C1052 1.490 . S
C1048 H1038 0.930 . S
C1048 C1047 1.400 . S
C1048 C1051 1.386 . S
H1049 C1065 0.930 . S
H1050 C1066 0.931 . S
C1051 H1039 0.929 . S
C1051 C1045 1.390 . S
C1051 C1048 1.386 . S
C1052 C1047 1.490 . S
C1052 C1054 1.395 . S
C1052 C1055 1.403 . S
H1053 C1059 0.930 . S
C1054 H1040 0.930 . S
C1054 C1052 1.395 . S
C1054 C1057 1.403 . S
C1055 C1052 1.403 . S
C1055 C1056 1.524 . S
C1055 C1059 1.400 . S
C1056 H1041 0.960 . S
C1056 H1042 0.960 . S
C1056 H1043 0.960 . S
C1056 C1055 1.524 . S
C1057 C1054 1.403 . S
C1057 C1058 1.392 . S
C1057 C1061 1.495 . S
C1058 C1057 1.392 . S
C1058 C1059 1.385 . S
C1058 C1060 1.478 . S
C1059 H1053 0.930 . S
C1059 C1055 1.400 . S
C1059 C1058 1.385 . S
C1060 C1058 1.478 . S
C1060 C1062 1.381 . S
C1060 C1066 1.383 . S
C1061 C1057 1.495 . S
C1061 H1067 0.959 . S
C1061 H1068 0.961 . S
C1061 H1069 0.960 . S
C1062 C1060 1.381 . S
C1062 C1063 1.394 . S
C1062 H1070 0.930 . S
C1063 C1062 1.394 . S
C1063 C1064 1.383 . S
C1063 H1071 0.929 . S
C1064 C1063 1.383 . S
C1064 C1065 1.377 . S
C1065 H1049 0.930 . S
C1065 C1064 1.377 . S
C1065 C1066 1.379 . S
C1066 H1050 0.931 . S
C1066 C1060 1.383 . S
C1066 C1065 1.379 . S
H1067 C1061 0.959 . S
H1068 C1061 0.961 . S
H1069 C1061 0.960 . S
H1070 C1062 0.930 . S
H1071 C1063 0.929 . S
H1072 C1080 0.929 . S
H1073 C1082 0.930 . S
H1074 C1084 0.930 . S
H1075 C1087 0.929 . S
H1076 C1090 0.930 . S
H1077 C1092 0.960 . S
H1078 C1092 0.960 . S
H1079 C1092 0.960 . S
C1080 H1072 0.929 . S
C1080 C1081 1.377 . S
C1080 C1082 1.384 . S
C1081 C1080 1.377 . S
C1081 C1087 1.390 . S
C1082 H1073 0.930 . S
C1082 C1080 1.384 . S
C1082 C1083 1.372 . S
C1083 C1082 1.372 . S
C1083 C1084 1.400 . S
C1083 C1088 1.490 . S
C1084 H1074 0.930 . S
C1084 C1083 1.400 . S
C1084 C1087 1.386 . S
H1085 C1101 0.930 . S
H1086 C1102 0.931 . S
C1087 H1075 0.929 . S
C1087 C1081 1.390 . S
C1087 C1084 1.386 . S
C1088 C1083 1.490 . S
C1088 C1090 1.395 . S
C1088 C1091 1.403 . S
H1089 C1095 0.930 . S
C1090 H1076 0.930 . S
C1090 C1088 1.395 . S
C1090 C1093 1.403 . S
C1091 C1088 1.403 . S
C1091 C1092 1.524 . S
C1091 C1095 1.400 . S
C1092 H1077 0.960 . S
C1092 H1078 0.960 . S
C1092 H1079 0.960 . S
C1092 C1091 1.524 . S
C1093 C1090 1.403 . S
C1093 C1094 1.392 . S
C1093 C1097 1.495 . S
C1094 C1093 1.392 . S
C1094 C1095 1.385 . S
C1094 C1096 1.478 . S
C1095 H1089 0.930 . S
C1095 C1091 1.400 . S
C1095 C1094 1.385 . S
C1096 C1094 1.478 . S
C1096 C1098 1.381 . S
C1096 C1102 1.383 . S
C1097 C1093 1.495 . S
C1097 H1103 0.959 . S
C1097 H1104 0.961 . S
C1097 H1105 0.960 . S
C1098 C1096 1.381 . S
C1098 C1099 1.394 . S
C1098 H1106 0.930 . S
C1099 C1098 1.394 . S
C1099 C1100 1.383 . S
C1099 H1107 0.929 . S
C1100 C1099 1.383 . S
C1100 C1101 1.377 . S
C1101 H1085 0.930 . S
C1101 C1100 1.377 . S
C1101 C1102 1.379 . S
C1102 H1086 0.931 . S
C1102 C1096 1.383 . S
C1102 C1101 1.379 . S
H1103 C1097 0.959 . S
H1104 C1097 0.961 . S
H1105 C1097 0.960 . S
H1106 C1098 0.930 . S
H1107 C1099 0.929 . S
H1108 C1116 0.929 . S
H1109 C1118 0.930 . S
H1110 C1120 0.930 . S
H1111 C1123 0.929 . S
H1112 C1126 0.930 . S
H1113 C1128 0.960 . S
H1114 C1128 0.960 . S
H1115 C1128 0.960 . S
C1116 H1108 0.929 . S
C1116 C1117 1.377 . S
C1116 C1118 1.384 . S
C1117 C1116 1.377 . S
C1117 C1123 1.390 . S
C1118 H1109 0.930 . S
C1118 C1116 1.384 . S
C1118 C1119 1.372 . S
C1119 C1118 1.372 . S
C1119 C1120 1.400 . S
C1119 C1124 1.490 . S
C1120 H1110 0.930 . S
C1120 C1119 1.400 . S
C1120 C1123 1.386 . S
H1121 C1137 0.930 . S
H1122 C1138 0.931 . S
C1123 H1111 0.929 . S
C1123 C1117 1.390 . S
C1123 C1120 1.386 . S
C1124 C1119 1.490 . S
C1124 C1126 1.395 . S
C1124 C1127 1.403 . S
H1125 C1131 0.930 . S
C1126 H1112 0.930 . S
C1126 C1124 1.395 . S
C1126 C1129 1.403 . S
C1127 C1124 1.403 . S
C1127 C1128 1.524 . S
C1127 C1131 1.400 . S
C1128 H1113 0.960 . S
C1128 H1114 0.960 . S
C1128 H1115 0.960 . S
C1128 C1127 1.524 . S
C1129 C1126 1.403 . S
C1129 C1130 1.392 . S
C1129 C1133 1.495 . S
C1130 C1129 1.392 . S
C1130 C1131 1.385 . S
C1130 C1132 1.478 . S
C1131 H1125 0.930 . S
C1131 C1127 1.400 . S
C1131 C1130 1.385 . S
C1132 C1130 1.478 . S
C1132 C1134 1.381 . S
C1132 C1138 1.383 . S
C1133 C1129 1.495 . S
C1133 H1139 0.959 . S
C1133 H1140 0.961 . S
C1133 H1141 0.960 . S
C1134 C1132 1.381 . S
C1134 C1135 1.394 . S
C1134 H1142 0.930 . S
C1135 C1134 1.394 . S
C1135 C1136 1.383 . S
C1135 H1143 0.929 . S
C1136 C1135 1.383 . S
C1136 C1137 1.377 . S
C1137 H1121 0.930 . S
C1137 C1136 1.377 . S
C1137 C1138 1.379 . S
C1138 H1122 0.931 . S
C1138 C1132 1.383 . S
C1138 C1137 1.379 . S
H1139 C1133 0.959 . S
H1140 C1133 0.961 . S
H1141 C1133 0.960 . S
H1142 C1134 0.930 . S
H1143 C1135 0.929 . S
H1144 C1152 0.929 . S
H1145 C1154 0.930 . S
H1146 C1156 0.930 . S
H1147 C1159 0.929 . S
H1148 C1162 0.930 . S
H1149 C1164 0.960 . S
H1150 C1164 0.960 . S
H1151 C1164 0.960 . S
C1152 H1144 0.929 . S
C1152 C1153 1.377 . S
C1152 C1154 1.384 . S
C1153 C1152 1.377 . S
C1153 C1159 1.390 . S
C1154 H1145 0.930 . S
C1154 C1152 1.384 . S
C1154 C1155 1.372 . S
C1155 C1154 1.372 . S
C1155 C1156 1.400 . S
C1155 C1160 1.490 . S
C1156 H1146 0.930 . S
C1156 C1155 1.400 . S
C1156 C1159 1.386 . S
H1157 C1173 0.930 . S
H1158 C1174 0.931 . S
C1159 H1147 0.929 . S
C1159 C1153 1.390 . S
C1159 C1156 1.386 . S
C1160 C1155 1.490 . S
C1160 C1162 1.395 . S
C1160 C1163 1.403 . S
H1161 C1167 0.930 . S
C1162 H1148 0.930 . S
C1162 C1160 1.395 . S
C1162 C1165 1.403 . S
C1163 C1160 1.403 . S
C1163 C1164 1.524 . S
C1163 C1167 1.400 . S
C1164 H1149 0.960 . S
C1164 H1150 0.960 . S
C1164 H1151 0.960 . S
C1164 C1163 1.524 . S
C1165 C1162 1.403 . S
C1165 C1166 1.392 . S
C1165 C1169 1.495 . S
C1166 C1165 1.392 . S
C1166 C1167 1.385 . S
C1166 C1168 1.478 . S
C1167 H1161 0.930 . S
C1167 C1163 1.400 . S
C1167 C1166 1.385 . S
C1168 C1166 1.478 . S
C1168 C1170 1.381 . S
C1168 C1174 1.383 . S
C1169 C1165 1.495 . S
C1169 H1175 0.959 . S
C1169 H1176 0.961 . S
C1169 H1177 0.960 . S
C1170 C1168 1.381 . S
C1170 C1171 1.394 . S
C1170 H1178 0.930 . S
C1171 C1170 1.394 . S
C1171 C1172 1.383 . S
C1171 H1179 0.929 . S
C1172 C1171 1.383 . S
C1172 C1173 1.377 . S
C1173 H1157 0.930 . S
C1173 C1172 1.377 . S
C1173 C1174 1.379 . S
C1174 H1158 0.931 . S
C1174 C1168 1.383 . S
C1174 C1173 1.379 . S
H1175 C1169 0.959 . S
H1176 C1169 0.961 . S
H1177 C1169 0.960 . S
H1178 C1170 0.930 . S
H1179 C1171 0.929 . S
H1180 C1188 0.929 . S
H1181 C1190 0.930 . S
H1182 C1192 0.930 . S
H1183 C1195 0.929 . S
H1184 C1198 0.930 . S
H1185 C1200 0.960 . S
H1186 C1200 0.960 . S
H1187 C1200 0.960 . S
C1188 H1180 0.929 . S
C1188 C1189 1.377 . S
C1188 C1190 1.384 . S
C1189 C1188 1.377 . S
C1189 C1195 1.390 . S
C1190 H1181 0.930 . S
C1190 C1188 1.384 . S
C1190 C1191 1.372 . S
C1191 C1190 1.372 . S
C1191 C1192 1.400 . S
C1191 C1196 1.490 . S
C1192 H1182 0.930 . S
C1192 C1191 1.400 . S
C1192 C1195 1.386 . S
H1193 C1209 0.930 . S
H1194 C1210 0.931 . S
C1195 H1183 0.929 . S
C1195 C1189 1.390 . S
C1195 C1192 1.386 . S
C1196 C1191 1.490 . S
C1196 C1198 1.395 . S
C1196 C1199 1.403 . S
H1197 C1203 0.930 . S
C1198 H1184 0.930 . S
C1198 C1196 1.395 . S
C1198 C1201 1.403 . S
C1199 C1196 1.403 . S
C1199 C1200 1.524 . S
C1199 C1203 1.400 . S
C1200 H1185 0.960 . S
C1200 H1186 0.960 . S
C1200 H1187 0.960 . S
C1200 C1199 1.524 . S
C1201 C1198 1.403 . S
C1201 C1202 1.392 . S
C1201 C1205 1.495 . S
C1202 C1201 1.392 . S
C1202 C1203 1.385 . S
C1202 C1204 1.478 . S
C1203 H1197 0.930 . S
C1203 C1199 1.400 . S
C1203 C1202 1.385 . S
C1204 C1202 1.478 . S
C1204 C1206 1.381 . S
C1204 C1210 1.383 . S
C1205 C1201 1.495 . S
C1205 H1211 0.959 . S
C1205 H1212 0.961 . S
C1205 H1213 0.960 . S
C1206 C1204 1.381 . S
C1206 C1207 1.394 . S
C1206 H1214 0.930 . S
C1207 C1206 1.394 . S
C1207 C1208 1.383 . S
C1207 H1215 0.929 . S
C1208 C1207 1.383 . S
C1208 C1209 1.377 . S
C1209 H1193 0.930 . S
C1209 C1208 1.377 . S
C1209 C1210 1.379 . S
C1210 H1194 0.931 . S
C1210 C1204 1.383 . S
C1210 C1209 1.379 . S
H1211 C1205 0.959 . S
H1212 C1205 0.961 . S
H1213 C1205 0.960 . S
H1214 C1206 0.930 . S
H1215 C1207 0.929 . S
H1216 C1224 0.929 . S
H1217 C1226 0.930 . S
H1218 C1228 0.930 . S
H1219 C1231 0.929 . S
H1220 C1234 0.930 . S
H1221 C1236 0.960 . S
H1222 C1236 0.960 . S
H1223 C1236 0.960 . S
C1224 H1216 0.929 . S
C1224 C1225 1.377 . S
C1224 C1226 1.384 . S
C1225 C1224 1.377 . S
C1225 C1231 1.390 . S
C1226 H1217 0.930 . S
C1226 C1224 1.384 . S
C1226 C1227 1.372 . S
C1227 C1226 1.372 . S
C1227 C1228 1.400 . S
C1227 C1232 1.490 . S
C1228 H1218 0.930 . S
C1228 C1227 1.400 . S
C1228 C1231 1.386 . S
H1229 C1245 0.930 . S
H1230 C1246 0.931 . S
C1231 H1219 0.929 . S
C1231 C1225 1.390 . S
C1231 C1228 1.386 . S
C1232 C1227 1.490 . S
C1232 C1234 1.395 . S
C1232 C1235 1.403 . S
H1233 C1239 0.930 . S
C1234 H1220 0.930 . S
C1234 C1232 1.395 . S
C1234 C1237 1.403 . S
C1235 C1232 1.403 . S
C1235 C1236 1.524 . S
C1235 C1239 1.400 . S
C1236 H1221 0.960 . S
C1236 H1222 0.960 . S
C1236 H1223 0.960 . S
C1236 C1235 1.524 . S
C1237 C1234 1.403 . S
C1237 C1238 1.392 . S
C1237 C1241 1.495 . S
C1238 C1237 1.392 . S
C1238 C1239 1.385 . S
C1238 C1240 1.478 . S
C1239 H1233 0.930 . S
C1239 C1235 1.400 . S
C1239 C1238 1.385 . S
C1240 C1238 1.478 . S
C1240 C1242 1.381 . S
C1240 C1246 1.383 . S
C1241 C1237 1.495 . S
C1241 H1247 0.959 . S
C1241 H1248 0.961 . S
C1241 H1249 0.960 . S
C1242 C1240 1.381 . S
C1242 C1243 1.394 . S
C1242 H1250 0.930 . S
C1243 C1242 1.394 . S
C1243 C1244 1.383 . S
C1243 H1251 0.929 . S
C1244 C1243 1.383 . S
C1244 C1245 1.377 . S
C1245 H1229 0.930 . S
C1245 C1244 1.377 . S
C1245 C1246 1.379 . S
C1246 H1230 0.931 . S
C1246 C1240 1.383 . S
C1246 C1245 1.379 . S
H1247 C1241 0.959 . S
H1248 C1241 0.961 . S
H1249 C1241 0.960 . S
H1250 C1242 0.930 . S
H1251 C1243 0.929 . S
H1252 C1260 0.929 . S
H1253 C1262 0.930 . S
H1254 C1264 0.930 . S
H1255 C1267 0.929 . S
H1256 C1270 0.930 . S
H1257 C1272 0.960 . S
H1258 C1272 0.960 . S
H1259 C1272 0.960 . S
C1260 H1252 0.929 . S
C1260 C1261 1.377 . S
C1260 C1262 1.384 . S
C1261 C1260 1.377 . S
C1261 C1267 1.390 . S
C1262 H1253 0.930 . S
C1262 C1260 1.384 . S
C1262 C1263 1.372 . S
C1263 C1262 1.372 . S
C1263 C1264 1.400 . S
C1263 C1268 1.490 . S
C1264 H1254 0.930 . S
C1264 C1263 1.400 . S
C1264 C1267 1.386 . S
H1265 C1281 0.930 . S
H1266 C1282 0.931 . S
C1267 H1255 0.929 . S
C1267 C1261 1.390 . S
C1267 C1264 1.386 . S
C1268 C1263 1.490 . S
C1268 C1270 1.395 . S
C1268 C1271 1.403 . S
H1269 C1275 0.930 . S
C1270 H1256 0.930 . S
C1270 C1268 1.395 . S
C1270 C1273 1.403 . S
C1271 C1268 1.403 . S
C1271 C1272 1.524 . S
C1271 C1275 1.400 . S
C1272 H1257 0.960 . S
C1272 H1258 0.960 . S
C1272 H1259 0.960 . S
C1272 C1271 1.524 . S
C1273 C1270 1.403 . S
C1273 C1274 1.392 . S
C1273 C1277 1.495 . S
C1274 C1273 1.392 . S
C1274 C1275 1.385 . S
C1274 C1276 1.478 . S
C1275 H1269 0.930 . S
C1275 C1271 1.400 . S
C1275 C1274 1.385 . S
C1276 C1274 1.478 . S
C1276 C1278 1.381 . S
C1276 C1282 1.383 . S
C1277 C1273 1.495 . S
C1277 H1283 0.959 . S
C1277 H1284 0.961 . S
C1277 H1285 0.960 . S
C1278 C1276 1.381 . S
C1278 C1279 1.394 . S
C1278 H1286 0.930 . S
C1279 C1278 1.394 . S
C1279 C1280 1.383 . S
C1279 H1287 0.929 . S
C1280 C1279 1.383 . S
C1280 C1281 1.377 . S
C1281 H1265 0.930 . S
C1281 C1280 1.377 . S
C1281 C1282 1.379 . S
C1282 H1266 0.931 . S
C1282 C1276 1.383 . S
C1282 C1281 1.379 . S
H1283 C1277 0.959 . S
H1284 C1277 0.961 . S
H1285 C1277 0.960 . S
H1286 C1278 0.930 . S
H1287 C1279 0.929 . S
H1288 C1296 0.929 . S
H1289 C1298 0.930 . S
H1290 C1300 0.930 . S
H1291 C1303 0.929 . S
H1292 C1306 0.930 . S
H1293 C1308 0.960 . S
H1294 C1308 0.960 . S
H1295 C1308 0.960 . S
C1296 H1288 0.929 . S
C1296 C1297 1.377 . S
C1296 C1298 1.384 . S
C1297 C1296 1.377 . S
C1297 C1303 1.390 . S
C1298 H1289 0.930 . S
C1298 C1296 1.384 . S
C1298 C1299 1.372 . S
C1299 C1298 1.372 . S
C1299 C1300 1.400 . S
C1299 C1304 1.490 . S
C1300 H1290 0.930 . S
C1300 C1299 1.400 . S
C1300 C1303 1.386 . S
H1301 C1317 0.930 . S
H1302 C1318 0.931 . S
C1303 H1291 0.929 . S
C1303 C1297 1.390 . S
C1303 C1300 1.386 . S
C1304 C1299 1.490 . S
C1304 C1306 1.395 . S
C1304 C1307 1.403 . S
H1305 C1311 0.930 . S
C1306 H1292 0.930 . S
C1306 C1304 1.395 . S
C1306 C1309 1.403 . S
C1307 C1304 1.403 . S
C1307 C1308 1.524 . S
C1307 C1311 1.400 . S
C1308 H1293 0.960 . S
C1308 H1294 0.960 . S
C1308 H1295 0.960 . S
C1308 C1307 1.524 . S
C1309 C1306 1.403 . S
C1309 C1310 1.392 . S
C1309 C1313 1.495 . S
C1310 C1309 1.392 . S
C1310 C1311 1.385 . S
C1310 C1312 1.478 . S
C1311 H1305 0.930 . S
C1311 C1307 1.400 . S
C1311 C1310 1.385 . S
C1312 C1310 1.478 . S
C1312 C1314 1.381 . S
C1312 C1318 1.383 . S
C1313 C1309 1.495 . S
C1313 H1319 0.959 . S
C1313 H1320 0.961 . S
C1313 H1321 0.960 . S
C1314 C1312 1.381 . S
C1314 C1315 1.394 . S
C1314 H1322 0.930 . S
C1315 C1314 1.394 . S
C1315 C1316 1.383 . S
C1315 H1323 0.929 . S
C1316 C1315 1.383 . S
C1316 C1317 1.377 . S
C1317 H1301 0.930 . S
C1317 C1316 1.377 . S
C1317 C1318 1.379 . S
C1318 H1302 0.931 . S
C1318 C1312 1.383 . S
C1318 C1317 1.379 . S
H1319 C1313 0.959 . S
H1320 C1313 0.961 . S
H1321 C1313 0.960 . S
H1322 C1314 0.930 . S
H1323 C1315 0.929 . S
H1324 C1332 0.929 . S
H1325 C1334 0.930 . S
H1326 C1336 0.930 . S
H1327 C1339 0.929 . S
H1328 C1342 0.930 . S
H1329 C1344 0.960 . S
H1330 C1344 0.960 . S
H1331 C1344 0.960 . S
C1332 H1324 0.929 . S
C1332 C1333 1.377 . S
C1332 C1334 1.384 . S
C1333 C1332 1.377 . S
C1333 C1339 1.390 . S
C1334 H1325 0.930 . S
C1334 C1332 1.384 . S
C1334 C1335 1.372 . S
C1335 C1334 1.372 . S
C1335 C1336 1.400 . S
C1335 C1340 1.490 . S
C1336 H1326 0.930 . S
C1336 C1335 1.400 . S
C1336 C1339 1.386 . S
H1337 C1353 0.930 . S
H1338 C1354 0.931 . S
C1339 H1327 0.929 . S
C1339 C1333 1.390 . S
C1339 C1336 1.386 . S
C1340 C1335 1.490 . S
C1340 C1342 1.395 1_565 S
C1340 C1343 1.403 . S
H1341 C1347 0.930 . S
C1342 H1328 0.930 . S
C1342 C1340 1.395 1_545 S
C1342 C1345 1.403 . S
C1343 C1340 1.403 . S
C1343 C1344 1.524 . S
C1343 C1347 1.400 1_565 S
C1344 H1329 0.960 . S
C1344 H1330 0.960 . S
C1344 H1331 0.960 . S
C1344 C1343 1.524 . S
C1345 C1342 1.403 . S
C1345 C1346 1.392 . S
C1345 C1349 1.495 . S
C1346 C1345 1.392 . S
C1346 C1347 1.385 . S
C1346 C1348 1.478 . S
C1347 H1341 0.930 . S
C1347 C1343 1.400 1_545 S
C1347 C1346 1.385 . S
C1348 C1346 1.478 . S
C1348 C1350 1.381 . S
C1348 C1354 1.383 . S
C1349 C1345 1.495 . S
C1349 H1355 0.959 . S
C1349 H1356 0.961 . S
C1349 H1357 0.960 . S
C1350 C1348 1.381 . S
C1350 C1351 1.394 . S
C1350 H1358 0.930 . S
C1351 C1350 1.394 . S
C1351 C1352 1.383 . S
C1351 H1359 0.929 . S
C1352 C1351 1.383 . S
C1352 C1353 1.377 . S
C1353 H1337 0.930 . S
C1353 C1352 1.377 . S
C1353 C1354 1.379 . S
C1354 H1338 0.931 . S
C1354 C1348 1.383 . S
C1354 C1353 1.379 . S
H1355 C1349 0.959 . S
H1356 C1349 0.961 . S
H1357 C1349 0.960 . S
H1358 C1350 0.930 . S
H1359 C1351 0.929 . S
H1360 C1368 0.929 . S
H1361 C1370 0.930 . S
H1362 C1372 0.930 . S
H1363 C1375 0.929 . S
H1364 C1378 0.930 . S
H1365 C1380 0.960 . S
H1366 C1380 0.960 . S
H1367 C1380 0.960 . S
C1368 H1360 0.929 . S
C1368 C1369 1.377 . S
C1368 C1370 1.384 . S
C1369 C1368 1.377 . S
C1369 C1375 1.390 . S
C1370 H1361 0.930 . S
C1370 C1368 1.384 . S
C1370 C1371 1.372 . S
C1371 C1370 1.372 . S
C1371 C1372 1.400 . S
C1371 C1376 1.490 . S
C1372 H1362 0.930 . S
C1372 C1371 1.400 . S
C1372 C1375 1.386 . S
H1373 C1389 0.930 . S
H1374 C1390 0.931 . S
C1375 H1363 0.929 . S
C1375 C1369 1.390 . S
C1375 C1372 1.386 . S
C1376 C1371 1.490 . S
C1376 C1378 1.395 . S
C1376 C1379 1.403 . S
H1377 C1383 0.930 . S
C1378 H1364 0.930 . S
C1378 C1376 1.395 . S
C1378 C1381 1.403 . S
C1379 C1376 1.403 . S
C1379 C1380 1.524 . S
C1379 C1383 1.400 . S
C1380 H1365 0.960 . S
C1380 H1366 0.960 . S
C1380 H1367 0.960 . S
C1380 C1379 1.524 . S
C1381 C1378 1.403 . S
C1381 C1382 1.392 . S
C1381 C1385 1.495 . S
C1382 C1381 1.392 . S
C1382 C1383 1.385 . S
C1382 C1384 1.478 . S
C1383 H1377 0.930 . S
C1383 C1379 1.400 . S
C1383 C1382 1.385 . S
C1384 C1382 1.478 . S
C1384 C1386 1.381 . S
C1384 C1390 1.383 . S
C1385 C1381 1.495 . S
C1385 H1391 0.959 . S
C1385 H1392 0.961 . S
C1385 H1393 0.960 . S
C1386 C1384 1.381 . S
C1386 C1387 1.394 . S
C1386 H1394 0.930 . S
C1387 C1386 1.394 . S
C1387 C1388 1.383 . S
C1387 H1395 0.929 . S
C1388 C1387 1.383 . S
C1388 C1389 1.377 . S
C1389 H1373 0.930 . S
C1389 C1388 1.377 . S
C1389 C1390 1.379 . S
C1390 H1374 0.931 . S
C1390 C1384 1.383 . S
C1390 C1389 1.379 . S
H1391 C1385 0.959 . S
H1392 C1385 0.961 . S
H1393 C1385 0.960 . S
H1394 C1386 0.930 . S
H1395 C1387 0.929 . S
C560 C127 1.588 . S
C541 C5 1.455 . S
C596 C231 2.171 . S
C577 C16 1.812 . S
C632 C151 1.512 . S
C613 C30 1.573 . S
C668 C213 1.406 . S
C649 C40 1.416 . S
C704 C287 1.559 . S
C685 C8 1.567 . S
C740 C349 1.765 1_556 S
C721 C18 1.780 . S
C757 C29 1.269 . S
C776 C423 1.249 . S
C812 C509 1.196 . S
C793 C38 1.157 . S
C848 C305 2.519 . S
C829 C19 2.511 . S
C865 C27 1.647 . S
C884 C373 1.835 . S
C920 C447 1.317 . S
C901 C41 1.359 . S
C956 C527 1.708 . S
C937 C7 1.657 . S
C973 C52 1.456 . S
C992 C225 1.422 . S
C1028 C139 1.671 . S
C1009 C62 1.730 . S
C1045 C74 1.141 . S
C1064 C201 1.117 . S
C1081 C82 1.735 . S
C1100 C157 2.020 . S
C1136 C453 1.777 . S
C1117 C51 1.738 . S
C1172 C521 1.090 . S
C1153 C60 1.022 . S
C1208 C299 1.695 . S
C1189 C71 1.532 . S
C1225 C84 2.355 . S
C1244 C379 2.441 . S
C1280 C435 1.115 . S
C1261 C63 1.128 . S
C1316 C497 0.947 . S
C1297 C73 0.910 . S
C1352 C275 1.855 . S
C1333 C85 1.913 . S
C1369 C49 1.226 . S
C1388 C361 1.411 . S
