# Generated by pormake.
# Topology anh, (6,3)-cn, num edge types: 1
# Building blocks:
#     Node 0, Type 0, BuildingBlock: MIFKUJ_clean_sbu_0, # of connection points: 6
#     Node 1, Type 0, BuildingBlock: MIFKUJ_clean_sbu_0, # of connection points: 6
#     Node 2, Type 0, BuildingBlock: MIFKUJ_clean_sbu_0, # of connection points: 6
#     Node 3, Type 1, BuildingBlock: QEWDON_clean_linker_0, # of connection points: 3
#     Node 4, Type 1, BuildingBlock: QEWDON_clean_linker_0, # of connection points: 3
#     Node 5, Type 1, BuildingBlock: QEWDON_clean_linker_0, # of connection points: 3
#     Node 6, Type 1, BuildingBlock: QEWDON_clean_linker_0, # of connection points: 3
#     Node 7, Type 1, BuildingBlock: QEWDON_clean_linker_0, # of connection points: 3
#     Node 8, Type 1, BuildingBlock: QEWDON_clean_linker_0, # of connection points: 3
#     Edge 9, Type (0, 1), BuildingBlock: FUNLAD_clean_linker_0, # of connection points: 2
#     Edge 10, Type (0, 1), BuildingBlock: FUNLAD_clean_linker_0, # of connection points: 2
#     Edge 11, Type (0, 1), BuildingBlock: FUNLAD_clean_linker_0, # of connection points: 2
#     Edge 12, Type (0, 1), BuildingBlock: FUNLAD_clean_linker_0, # of connection points: 2
#     Edge 13, Type (0, 1), BuildingBlock: FUNLAD_clean_linker_0, # of connection points: 2
#     Edge 14, Type (0, 1), BuildingBlock: FUNLAD_clean_linker_0, # of connection points: 2
#     Edge 15, Type (0, 1), BuildingBlock: FUNLAD_clean_linker_0, # of connection points: 2
#     Edge 16, Type (0, 1), BuildingBlock: FUNLAD_clean_linker_0, # of connection points: 2
#     Edge 17, Type (0, 1), BuildingBlock: FUNLAD_clean_linker_0, # of connection points: 2
#     Edge 18, Type (0, 1), BuildingBlock: FUNLAD_clean_linker_0, # of connection points: 2
#     Edge 19, Type (0, 1), BuildingBlock: FUNLAD_clean_linker_0, # of connection points: 2
#     Edge 20, Type (0, 1), BuildingBlock: FUNLAD_clean_linker_0, # of connection points: 2
#     Edge 21, Type (0, 1), BuildingBlock: FUNLAD_clean_linker_0, # of connection points: 2
#     Edge 22, Type (0, 1), BuildingBlock: FUNLAD_clean_linker_0, # of connection points: 2
#     Edge 23, Type (0, 1), BuildingBlock: FUNLAD_clean_linker_0, # of connection points: 2
#     Edge 24, Type (0, 1), BuildingBlock: FUNLAD_clean_linker_0, # of connection points: 2
#     Edge 25, Type (0, 1), BuildingBlock: FUNLAD_clean_linker_0, # of connection points: 2
#     Edge 26, Type (0, 1), BuildingBlock: FUNLAD_clean_linker_0, # of connection points: 2
# Relax obj value: 0.065
# Max RMSD: 0.126
# Mean RMSD: 0.116
data_MOF--net-anh--node1-MIFKUJ_clean_sbu_0--node2-QEWDON_clean_linker_0--edge1-FUNLAD_clean_linker_0
_symmetry_space_group_name_H-M    P1
_symmetry_Int_Tables_number       1
_symmetry_cell_setting            triclinic
loop_
_symmetry_equiv_pos_as_xyz
'x, y, z'
_cell_length_a     38.330156
_cell_length_b     38.236697
_cell_length_c     53.710005
_cell_angle_alpha  98.029462
_cell_angle_beta   94.918243
_cell_angle_gamma 120.35162
loop_
_atom_site_label
_atom_site_type_symbol
_atom_site_fract_x
_atom_site_fract_y
_atom_site_fract_z
_atom_type_partial_charge
Zn0 Zn 0.09055 0.59462 0.17476 0.0
Zn1 Zn 0.9607 0.50975 0.16179 0.0
C2 C 0.16759 0.60611 0.19037 0.0
O3 O 0.16467 0.62942 0.2095 0.0
C4 C 0.92749 0.56323 0.16139 0.0
O5 O 0.9529 0.57963 0.14568 0.0
O6 O 0.11369 0.65524 0.17614 0.0
O7 O 0.04296 0.56173 0.14351 0.0
O8 O 0.97664 0.51843 0.12758 0.0
C9 C 0.13032 0.67012 0.15767 0.0
O10 O 0.1302 0.6451 0.13819 0.0
O11 O 0.13755 0.5855 0.17167 0.0
C12 C 0.90364 0.43774 0.17749 0.0
O13 O 0.9097 0.46601 0.19718 0.0
O14 O 0.92577 0.44883 0.16048 0.0
O15 O 0.01398 0.54136 0.18477 0.0
O16 O 0.07303 0.58242 0.209 0.0
O17 O 0.92658 0.53412 0.17069 0.0
C18 C 0.0135 0.54138 0.12428 0.0
C19 C 0.03513 0.55614 0.20698 0.0
Zn20 Zn 0.55721 0.09999 0.50623 0.0
Zn21 Zn 0.52202 0.98454 0.49338 0.0
C22 C 0.63872 0.16438 0.52062 0.0
O23 O 0.62251 0.16566 0.54107 0.0
C24 C 0.44222 0.91422 0.46896 0.0
O25 O 0.46407 0.90987 0.45261 0.0
O26 O 0.54046 0.14156 0.50842 0.0
O27 O 0.51861 0.05593 0.47509 0.0
O28 O 0.54005 0.01367 0.46438 0.0
C29 C 0.54483 0.15683 0.48856 0.0
O30 O 0.55746 0.14293 0.46982 0.0
O31 O 0.61668 0.13461 0.50143 0.0
C32 C 0.53639 0.92634 0.50986 0.0
O33 O 0.51373 0.92918 0.52611 0.0
O34 O 0.54509 0.94842 0.49315 0.0
O35 O 0.53978 0.01756 0.52931 0.0
O36 O 0.55604 0.08275 0.54015 0.0
O37 O 0.45999 0.94554 0.48752 0.0
C38 C 0.5324 0.04066 0.45912 0.0
C39 C 0.55082 0.04969 0.5462 0.0
Zn40 Zn 0.59998 0.52139 0.82781 0.0
Zn41 Zn 0.51278 0.54392 0.82015 0.0
C42 C 0.59541 0.45444 0.84777 0.0
O43 O 0.62321 0.48646 0.86556 0.0
C44 C 0.52346 0.61872 0.81249 0.0
O45 O 0.49951 0.59122 0.79158 0.0
O46 O 0.65997 0.54422 0.82879 0.0
O47 O 0.58075 0.52625 0.79292 0.0
O48 O 0.52766 0.53442 0.78634 0.0
C49 C 0.66833 0.5254 0.8111 0.0
O50 O 0.63805 0.4944 0.79387 0.0
O51 O 0.57778 0.46086 0.82928 0.0
C52 C 0.43588 0.51758 0.83435 0.0
O53 O 0.45992 0.53397 0.85693 0.0
O54 O 0.45173 0.51736 0.81457 0.0
O55 O 0.52621 0.51837 0.84697 0.0
O56 O 0.59283 0.55089 0.8597 0.0
O57 O 0.53584 0.6064 0.83023 0.0
C58 C 0.55556 0.52995 0.7782 0.0
C59 C 0.55742 0.54034 0.86463 0.0
H60 H 0.51386 0.13685 0.23192 0.0
C61 C 0.48691 0.1064 0.22399 0.0
C62 C 0.4713 0.07727 0.23954 0.0
C63 C 0.46799 0.09591 0.19819 0.0
H64 H 0.42455 0.01549 0.24156 0.0
C65 C 0.43633 0.03797 0.22948 0.0
C66 C 0.41676 0.02734 0.20399 0.0
C67 C 0.43293 0.0563 0.18843 0.0
C68 C 0.48544 0.12515 0.18087 0.0
H69 H 0.41827 0.04777 0.16857 0.0
C70 C 0.52807 0.14779 0.18141 0.0
C71 C 0.54464 0.17271 0.16352 0.0
C72 C 0.45939 0.12862 0.16263 0.0
H73 H 0.42647 0.11203 0.16196 0.0
C74 C 0.47553 0.15335 0.14491 0.0
H75 H 0.54824 0.14553 0.19562 0.0
C76 C 0.51776 0.17497 0.14515 0.0
H77 H 0.52921 0.19308 0.13075 0.0
H78 H 0.45517 0.15545 0.13077 0.0
H79 H 0.54569 0.57528 0.54006 0.0
C80 C 0.55604 0.55419 0.53451 0.0
C81 C 0.57349 0.54294 0.55357 0.0
C82 C 0.55024 0.53682 0.50844 0.0
H83 H 0.59491 0.50237 0.56093 0.0
C84 C 0.58458 0.51371 0.54633 0.0
C85 C 0.57837 0.49575 0.52054 0.0
C86 C 0.56278 0.50868 0.50172 0.0
C87 C 0.52835 0.54543 0.48829 0.0
H88 H 0.55883 0.49533 0.48176 0.0
C89 C 0.53445 0.58514 0.49016 0.0
C90 C 0.51241 0.59303 0.47184 0.0
C91 C 0.50018 0.5136 0.46742 0.0
H92 H 0.49392 0.48231 0.46563 0.0
C93 C 0.47883 0.52152 0.44889 0.0
H94 H 0.55579 0.60984 0.5062 0.0
C95 C 0.4847 0.56098 0.4511 0.0
H96 H 0.4675 0.56643 0.43669 0.0
H97 H 0.45721 0.49683 0.43297 0.0
H98 H 0.11099 0.58175 0.89458 0.0
C99 C 0.08155 0.57769 0.88754 0.0
C100 C 0.05531 0.5753 0.90479 0.0
C101 C 0.07062 0.57682 0.86158 0.0
H102 H 0.99722 0.56899 0.90915 0.0
C103 C 0.01789 0.57161 0.89595 0.0
C104 C 0.00667 0.57108 0.87035 0.0
C105 C 0.03279 0.57298 0.85317 0.0
C106 C 0.09914 0.58138 0.84341 0.0
H107 H 0.02389 0.5722 0.83331 0.0
C108 C 0.12305 0.56322 0.84513 0.0
C109 C 0.15075 0.56825 0.8284 0.0
C110 C 0.10301 0.60437 0.82439 0.0
H111 H 0.08586 0.61964 0.82283 0.0
C112 C 0.12981 0.60871 0.8074 0.0
H113 H 0.11987 0.54475 0.85932 0.0
C114 C 0.15362 0.59085 0.80936 0.0
H115 H 0.17505 0.59567 0.79641 0.0
H116 H 0.13261 0.62656 0.79291 0.0
H117 H 0.97408 0.53491 0.44227 0.0
C118 C 0.00659 0.55781 0.44833 0.0
C119 C 0.03061 0.57312 0.42972 0.0
C120 C 0.02433 0.57243 0.47454 0.0
H121 H 0.09018 0.6167 0.42272 0.0
C122 C 0.0723 0.60391 0.43725 0.0
C123 C 0.09056 0.61989 0.46317 0.0
C124 C 0.06653 0.60362 0.48171 0.0
C125 C -0.00131 0.55621 0.49439 0.0
H126 H 0.08097 0.61507 0.5017 0.0
C127 C 0.96622 0.5143 0.49017 0.0
C128 C 0.94162 0.49958 0.50883 0.0
C129 C 0.00618 0.583 0.5177 0.0
H130 H 0.02998 0.61554 0.52146 0.0
C131 C 0.98257 0.56841 0.5364 0.0
H132 H 0.95985 0.49319 0.47235 0.0
C133 C 0.95065 0.52713 0.53209 0.0
H134 H 0.9331 0.51674 0.5471 0.0
H135 H 0.98889 0.58933 0.55429 0.0
H136 H 0.5521 0.00387 0.78532 0.0
C137 C 0.55542 0.03345 0.79264 0.0
C138 C 0.55148 0.0558 0.77509 0.0
C139 C 0.56126 0.04824 0.81925 0.0
H140 H 0.54956 0.10967 0.77023 0.0
C141 C 0.55298 0.09277 0.78393 0.0
C142 C 0.55892 0.10842 0.81005 0.0
C143 C 0.56449 0.08689 0.82765 0.0
C144 C 0.56078 0.02227 0.83807 0.0
H145 H 0.57005 0.09992 0.84782 0.0
C146 C 0.57256 0.99255 0.83307 0.0
C147 C 0.57015 0.96747 0.85072 0.0
C148 C 0.5464 0.02581 0.86105 0.0
H149 H 0.53509 0.04634 0.8654 0.0
C150 C 0.54493 0.00186 0.87868 0.0
H151 H 0.58389 0.98894 0.81572 0.0
C152 C 0.55664 0.97299 0.87363 0.0
H153 H 0.55376 0.95391 0.88738 0.0
H154 H 0.53372 0.00507 0.89616 0.0
H155 H 0.53283 0.6097 0.10978 0.0
C156 C 0.55752 0.60486 0.11571 0.0
C157 C 0.57397 0.59146 0.0969 0.0
C158 C 0.57384 0.61333 0.14191 0.0
H159 H 0.62097 0.57844 0.08964 0.0
C160 C 0.60751 0.58751 0.10426 0.0
C161 C 0.62549 0.59744 0.13003 0.0
C162 C 0.6076 0.60879 0.14881 0.0
C163 C 0.55803 0.63015 0.16187 0.0
H164 H 0.62112 0.61562 0.16874 0.0
C165 C 0.51611 0.61803 0.159 0.0
C166 C 0.50228 0.63602 0.17735 0.0
C167 C 0.58551 0.66009 0.18366 0.0
H168 H 0.61805 0.67136 0.18631 0.0
C169 C 0.57171 0.67697 0.20216 0.0
H170 H 0.49436 0.59522 0.14238 0.0
C171 C 0.53053 0.66514 0.19908 0.0
H172 H 0.52076 0.67889 0.21378 0.0
H173 H 0.59321 0.69982 0.21884 0.0
C174 C 0.21161 0.58443 0.169 0.0
C175 C 0.20634 0.60636 0.19013 0.0
C176 C 0.24947 0.58737 0.16827 0.0
C177 C 0.28278 0.61224 0.18877 0.0
C178 C 0.27698 0.63328 0.21007 0.0
C179 C 0.2393 0.63033 0.2108 0.0
C180 C 0.32477 0.61967 0.18825 0.0
C181 C 0.33392 0.59651 0.17196 0.0
C182 C 0.37703 0.60698 0.17202 0.0
C183 C 0.38507 0.57528 0.16497 0.0
C184 C 0.42563 0.5845 0.16603 0.0
C185 C 0.45889 0.6257 0.17399 0.0
H186 H 0.40533 0.6738 0.18317 0.0
C187 C 0.45059 0.65749 0.1798 0.0
C188 C 0.41027 0.64831 0.17876 0.0
H189 H 0.47542 0.68967 0.18525 0.0
H190 H 0.18681 0.56576 0.15274 0.0
H191 H 0.25267 0.5712 0.15128 0.0
H192 H 0.30199 0.65274 0.22613 0.0
H193 H 0.23635 0.64758 0.22742 0.0
H194 H 0.3495 0.64549 0.20255 0.0
H195 H 0.30951 0.56836 0.15907 0.0
H196 H 0.36 0.54323 0.15931 0.0
H197 H 0.43098 0.55932 0.16138 0.0
C198 C 0.69228 0.20766 0.49575 0.0
C199 C 0.67921 0.20052 0.51922 0.0
C200 C 0.7276 0.24528 0.49458 0.0
C201 C 0.75047 0.27631 0.51694 0.0
C202 C 0.73819 0.26818 0.54039 0.0
C203 C 0.70322 0.23085 0.54155 0.0
C204 C 0.78499 0.31876 0.51678 0.0
C205 C 0.80719 0.32933 0.498 0.0
C206 C 0.84061 0.37302 0.49939 0.0
C207 C 0.87623 0.3814 0.48957 0.0
C208 C 0.90887 0.42241 0.49214 0.0
C209 C 0.90625 0.45589 0.50431 0.0
H210 H 0.80967 0.40135 0.51737 0.0
C211 C 0.86965 0.44734 0.51293 0.0
C212 C 0.83732 0.40654 0.51052 0.0
H213 H 0.86593 0.47228 0.52164 0.0
H214 H 0.67424 0.18506 0.47816 0.0
H215 H 0.73566 0.25057 0.47607 0.0
H216 H 0.75513 0.29136 0.55793 0.0
H217 H 0.69424 0.22643 0.55998 0.0
H218 H 0.79314 0.34265 0.53362 0.0
H219 H 0.80244 0.30558 0.48208 0.0
H220 H 0.87935 0.35616 0.48062 0.0
H221 H 0.93656 0.42779 0.48528 0.0
C222 C 0.558 0.69323 0.83703 0.0
C223 C 0.53397 0.66239 0.81485 0.0
C224 C 0.5657 0.73372 0.83887 0.0
C225 C 0.54946 0.74407 0.8185 0.0
C226 C 0.52603 0.71324 0.79634 0.0
C227 C 0.51855 0.6732 0.79448 0.0
C228 C 0.5534 0.78527 0.81977 0.0
C229 C 0.5821 0.82084 0.83617 0.0
C230 C 0.58293 0.86073 0.83802 0.0
C231 C 0.60203 0.89049 0.86106 0.0
C232 C 0.59995 0.92631 0.86464 0.0
C233 C 0.57895 0.93359 0.84516 0.0
H234 H 0.5508 0.84834 0.79939 0.0
C235 C 0.56239 0.90539 0.82144 0.0
C236 C 0.56439 0.86941 0.81786 0.0
H237 H 0.54614 0.91008 0.806 0.0
H238 H 0.57025 0.68595 0.8531 0.0
H239 H 0.58325 0.75622 0.85652 0.0
H240 H 0.51297 0.72003 0.78036 0.0
H241 H 0.50001 0.65048 0.77702 0.0
H242 H 0.53072 0.78572 0.80649 0.0
H243 H 0.60461 0.82054 0.8497 0.0
H244 H 0.61725 0.88525 0.87678 0.0
H245 H 0.61373 0.94778 0.88302 0.0
C246 C 0.89411 0.60338 0.15323 0.0
C247 C 0.89669 0.57477 0.16583 0.0
C248 C 0.86186 0.61036 0.15485 0.0
C249 C 0.83121 0.58853 0.16893 0.0
C250 C 0.83547 0.56214 0.18295 0.0
C251 C 0.86778 0.55519 0.18137 0.0
C252 C 0.7939 0.59152 0.16871 0.0
C253 C 0.7782 0.60009 0.14865 0.0
C254 C 0.73972 0.60107 0.14623 0.0
C255 C 0.73274 0.61925 0.12697 0.0
C256 C 0.69617 0.61874 0.12231 0.0
C257 C 0.66516 0.59963 0.13663 0.0
H258 H 0.71294 0.56788 0.17597 0.0
C259 C 0.6723 0.58233 0.15646 0.0
C260 C 0.70921 0.58285 0.16119 0.0
H261 H 0.6489 0.5673 0.16776 0.0
H262 H 0.91634 0.61959 0.14152 0.0
H263 H 0.86092 0.63254 0.14476 0.0
H264 H 0.81283 0.54555 0.19436 0.0
H265 H 0.86926 0.53342 0.19167 0.0
H266 H 0.77808 0.58422 0.18478 0.0
H267 H 0.79396 0.60613 0.13247 0.0
H268 H 0.75559 0.63366 0.1152 0.0
H269 H 0.69208 0.6332 0.10727 0.0
C270 C 0.37753 0.87986 0.48747 0.0
C271 C 0.39873 0.8808 0.46719 0.0
C272 C 0.33769 0.84626 0.48648 0.0
C273 C 0.31815 0.81286 0.46509 0.0
C274 C 0.33901 0.81467 0.44457 0.0
C275 C 0.37875 0.84801 0.44562 0.0
C276 C 0.27638 0.77544 0.46297 0.0
C277 C 0.25541 0.76496 0.48237 0.0
C278 C 0.21431 0.72618 0.47882 0.0
C279 C 0.18556 0.72511 0.49377 0.0
C280 C 0.1458 0.68992 0.48954 0.0
C281 C 0.13416 0.65494 0.4704 0.0
H282 H 0.22517 0.689 0.44972 0.0
C283 C 0.16377 0.65515 0.45658 0.0
C284 C 0.20334 0.69021 0.46077 0.0
H285 H 0.1561 0.62831 0.44216 0.0
H286 H 0.39202 0.90469 0.50436 0.0
H287 H 0.32266 0.84682 0.50253 0.0
H288 H 0.32479 0.78972 0.42773 0.0
H289 H 0.39401 0.84774 0.4296 0.0
H290 H 0.26244 0.75499 0.44419 0.0
H291 H 0.26769 0.78536 0.50114 0.0
H292 H 0.19338 0.7521 0.50811 0.0
H293 H 0.1237 0.6908 0.50049 0.0
C294 C 0.56437 0.37911 0.82715 0.0
C295 C 0.58887 0.41267 0.84792 0.0
C296 C 0.56172 0.341 0.82641 0.0
C297 C 0.58336 0.33549 0.84658 0.0
C298 C 0.60718 0.36888 0.86749 0.0
C299 C 0.60978 0.40686 0.86823 0.0
C300 C 0.58419 0.29666 0.84581 0.0
C301 C 0.55463 0.25933 0.83148 0.0
C302 C 0.55581 0.2204 0.8286 0.0
C303 C 0.52379 0.18499 0.81135 0.0
C304 C 0.52433 0.14849 0.80618 0.0
C305 C 0.55687 0.1461 0.81819 0.0
H306 H 0.61303 0.24364 0.85508 0.0
C307 C 0.58815 0.18068 0.83632 0.0
C308 C 0.5878 0.21757 0.84144 0.0
H309 H 0.61364 0.1797 0.84583 0.0
H310 H 0.54821 0.38261 0.81105 0.0
H311 H 0.54392 0.31664 0.80955 0.0
H312 H 0.62437 0.36579 0.88324 0.0
H313 H 0.62903 0.43199 0.88455 0.0
H314 H 0.61022 0.29952 0.85764 0.0
H315 H 0.52792 0.25692 0.82074 0.0
H316 H 0.49854 0.18577 0.80127 0.0
H317 H 0.49947 0.12216 0.79234 0.0
C318 C 0.53169 0.86542 0.52459 0.0
C319 C 0.54737 0.89453 0.50903 0.0
C320 C 0.53721 0.83187 0.52133 0.0
C321 C 0.5585 0.82693 0.50245 0.0
C322 C 0.5769 0.85766 0.48829 0.0
C323 C 0.57115 0.89113 0.49141 0.0
C324 C 0.55955 0.78872 0.49612 0.0
C325 C 0.52626 0.75148 0.49571 0.0
C326 C 0.52412 0.71175 0.48779 0.0
C327 C 0.48527 0.67546 0.47942 0.0
C328 C 0.48156 0.63697 0.4732 0.0
C329 C 0.51671 0.63408 0.47549 0.0
H330 H 0.58984 0.73614 0.49642 0.0
C331 C 0.55569 0.67045 0.48334 0.0
C332 C 0.55942 0.70898 0.48952 0.0
H333 H 0.58328 0.669 0.48519 0.0
H334 H 0.5138 0.8676 0.53862 0.0
H335 H 0.52387 0.80923 0.53312 0.0
H336 H 0.59391 0.85466 0.47388 0.0
H337 H 0.58409 0.91347 0.47938 0.0
H338 H 0.58633 0.79105 0.48926 0.0
H339 H 0.49831 0.74974 0.50007 0.0
H340 H 0.45761 0.6768 0.47805 0.0
H341 H 0.45111 0.60935 0.46755 0.0
C342 C 0.74351 0.56929 0.82906 0.0
C343 C 0.7109 0.53539 0.81125 0.0
C344 C 0.7831 0.57619 0.83098 0.0
C345 C 0.79073 0.54893 0.81537 0.0
C346 C 0.75869 0.51664 0.79649 0.0
C347 C 0.71906 0.50981 0.79447 0.0
C348 C 0.83121 0.55236 0.81908 0.0
C349 C 0.85523 0.56647 0.84234 0.0
C350 C 0.8947 0.56822 0.84782 0.0
C351 C 0.92184 0.59422 0.8706 0.0
C352 C 0.95834 0.5955 0.8776 0.0
C353 C 0.96843 0.57042 0.86207 0.0
H354 H 0.88435 0.52209 0.81461 0.0
C355 C 0.94159 0.54462 0.83906 0.0
C356 C 0.90492 0.54339 0.832 0.0
H357 H 0.94839 0.5246 0.82689 0.0
H358 H 0.73834 0.59005 0.84188 0.0
H359 H 0.80748 0.60259 0.84497 0.0
H360 H 0.76393 0.4956 0.78397 0.0
H361 H 0.69461 0.48365 0.78035 0.0
H362 H 0.83996 0.54081 0.80266 0.0
H363 H 0.84542 0.57702 0.85862 0.0
H364 H 0.91471 0.6136 0.88316 0.0
H365 H 0.97873 0.61622 0.89524 0.0
C366 C 0.17723 0.7322 0.14081 0.0
C367 C 0.15374 0.71544 0.15946 0.0
C368 C 0.20354 0.77504 0.14411 0.0
C369 C 0.2069 0.80191 0.16618 0.0
C370 C 0.18128 0.78533 0.18388 0.0
C371 C 0.15511 0.74249 0.18065 0.0
C372 C 0.23824 0.84692 0.17221 0.0
C373 C 0.27504 0.86252 0.16481 0.0
C374 C 0.3096 0.90596 0.17446 0.0
C375 C 0.34121 0.92305 0.1603 0.0
C376 C 0.37578 0.9627 0.16967 0.0
C377 C 0.37961 0.98585 0.19359 0.0
H378 H 0.29048 0.91689 0.2103 0.0
C379 C 0.34799 0.96888 0.20775 0.0
C380 C 0.31338 0.92933 0.19835 0.0
H381 H 0.3501 0.98614 0.22619 0.0
H382 H 0.17635 0.71222 0.12403 0.0
H383 H 0.22161 0.78682 0.12954 0.0
H384 H 0.18289 0.80544 0.20087 0.0
H385 H 0.137 0.73057 0.1952 0.0
H386 H 0.23206 0.86696 0.18497 0.0
H387 H 0.28116 0.84242 0.15204 0.0
H388 H 0.33936 0.90549 0.14203 0.0
H389 H 0.39996 0.97484 0.1585 0.0
C390 C 0.5428 0.21755 0.5103 0.0
C391 C 0.54147 0.19322 0.4877 0.0
C392 C 0.54539 0.25513 0.50986 0.0
C393 C 0.54649 0.26877 0.48679 0.0
C394 C 0.5425 0.24321 0.46399 0.0
C395 C 0.54041 0.20586 0.46446 0.0
C396 C 0.55161 0.30946 0.48607 0.0
C397 C 0.57541 0.34267 0.50522 0.0
C398 C 0.57868 0.38305 0.50613 0.0
C399 C 0.61198 0.41859 0.52252 0.0
C400 C 0.61338 0.45618 0.5262 0.0
C401 C 0.5813 0.45867 0.51362 0.0
H402 H 0.52052 0.35922 0.48069 0.0
C403 C 0.5488 0.42348 0.49651 0.0
C404 C 0.54739 0.38605 0.49285 0.0
H405 H 0.52306 0.42411 0.48705 0.0
H406 H 0.54336 0.20836 0.52844 0.0
H407 H 0.54689 0.27361 0.52761 0.0
H408 H 0.5425 0.25285 0.44595 0.0
H409 H 0.5389 0.18736 0.4467 0.0
H410 H 0.537 0.3123 0.46888 0.0
H411 H 0.59326 0.34023 0.521 0.0
H412 H 0.63637 0.41699 0.53304 0.0
H413 H 0.63881 0.48291 0.53948 0.0
C414 C 0.37513 0.50613 0.85386 0.0
C415 C 0.39212 0.50449 0.8319 0.0
C416 C 0.3357 0.49974 0.85175 0.0
C417 C 0.3127 0.49198 0.8276 0.0
C418 C 0.32834 0.48691 0.8056 0.0
C419 C 0.36778 0.49326 0.8077 0.0
C420 C 0.27414 0.49246 0.82472 0.0
C421 C 0.26811 0.51703 0.84204 0.0
C422 C 0.2345 0.52543 0.83789 0.0
C423 C 0.22584 0.5434 0.8592 0.0
C424 C 0.19785 0.55625 0.85614 0.0
C425 C 0.17802 0.55163 0.8316 0.0
H426 H 0.22042 0.5073 0.79628 0.0
C427 C 0.18596 0.53288 0.81024 0.0
C428 C 0.21396 0.51996 0.81331 0.0
H429 H 0.17096 0.52875 0.79111 0.0
H430 H 0.39278 0.51378 0.87277 0.0
H431 H 0.32386 0.50202 0.86909 0.0
H432 H 0.31095 0.48031 0.78677 0.0
H433 H 0.37982 0.49118 0.79039 0.0
H434 H 0.25258 0.47559 0.8068 0.0
H435 H 0.29022 0.53409 0.85976 0.0
H436 H 0.24155 0.54846 0.87831 0.0
H437 H 0.19286 0.57115 0.87295 0.0
C438 C 0.84516 0.38113 0.19221 0.0
C439 C 0.86551 0.39654 0.17218 0.0
C440 C 0.80536 0.34627 0.18696 0.0
C441 C 0.78501 0.32648 0.16152 0.0
C442 C 0.80598 0.34088 0.14154 0.0
C443 C 0.84609 0.37529 0.1468 0.0
C444 C 0.74051 0.2947 0.15543 0.0
C445 C 0.7212 0.26879 0.17082 0.0
C446 C 0.67585 0.24314 0.16708 0.0
C447 C 0.65691 0.2038 0.17301 0.0
C448 C 0.61426 0.1804 0.1712 0.0
C449 C 0.58981 0.19648 0.16415 0.0
H450 H 0.66546 0.28986 0.15565 0.0
C451 C 0.60907 0.23606 0.15829 0.0
C452 C 0.65154 0.25901 0.15958 0.0
H453 H 0.59156 0.24998 0.1534 0.0
H454 H 0.85932 0.39712 0.21191 0.0
H455 H 0.78977 0.33662 0.20282 0.0
H456 H 0.79077 0.3264 0.1218 0.0
H457 H 0.86081 0.38677 0.13094 0.0
H458 H 0.72283 0.29359 0.13806 0.0
H459 H 0.73892 0.26672 0.18684 0.0
H460 H 0.67514 0.19112 0.179 0.0
H461 H 0.60055 0.14974 0.17538 0.0
C462 C 0.06069 0.56134 0.09224 0.0
C463 C 0.02117 0.54626 0.09812 0.0
C464 C 0.06751 0.56672 0.06747 0.0
C465 C 0.03487 0.55726 0.04824 0.0
C466 C 0.99547 0.54204 0.05417 0.0
C467 C 0.98859 0.53625 0.07873 0.0
C468 C 0.04078 0.56523 0.02225 0.0
C469 C 0.07054 0.5653 0.01056 0.0
C470 C 0.07309 0.57242 0.98415 0.0
C471 C 0.08195 0.54882 0.96629 0.0
C472 C 0.07852 0.55125 0.94046 0.0
C473 C 0.06646 0.57757 0.93232 0.0
H474 H 0.05897 0.62093 0.98974 0.0
C475 C 0.06102 0.60359 0.95062 0.0
C476 C 0.06438 0.60114 0.97624 0.0
H477 H 0.05271 0.62491 0.94493 0.0
H478 H 0.08627 0.56893 0.10676 0.0
H479 H 0.09844 0.57928 0.06366 0.0
H480 H 0.96985 0.53477 0.03975 0.0
H481 H 0.9578 0.52474 0.08264 0.0
H482 H 0.01802 0.56931 0.01173 0.0
H483 H 0.09101 0.55698 0.01953 0.0
H484 H 0.08931 0.5269 0.97205 0.0
H485 H 0.08306 0.531 0.92671 0.0
C486 C 0.51306 0.0682 0.42406 0.0
C487 C 0.53309 0.04881 0.43295 0.0
C488 C 0.51286 0.07481 0.3991 0.0
C489 C 0.53252 0.06192 0.38243 0.0
C490 C 0.55238 0.04246 0.39131 0.0
C491 C 0.55289 0.03617 0.41631 0.0
C492 C 0.52982 0.06481 0.35511 0.0
C493 C 0.52472 0.09355 0.34622 0.0
C494 C 0.5167 0.09325 0.31849 0.0
C495 C 0.5001 0.1165 0.31107 0.0
C496 C 0.48749 0.11333 0.28519 0.0
C497 C 0.49128 0.08682 0.26633 0.0
H498 H 0.53725 0.05184 0.30381 0.0
C499 C 0.50998 0.06545 0.27349 0.0
C500 C 0.52305 0.06897 0.29928 0.0
H501 H 0.51339 0.04507 0.2591 0.0
H502 H 0.49663 0.07738 0.43616 0.0
H503 H 0.49594 0.08856 0.39273 0.0
H504 H 0.56734 0.03178 0.37878 0.0
H505 H 0.56852 0.02106 0.42252 0.0
H506 H 0.5312 0.04142 0.34206 0.0
H507 H 0.52408 0.1171 0.35971 0.0
H508 H 0.49524 0.13583 0.32534 0.0
H509 H 0.47294 0.12994 0.27997 0.0
C510 C 0.53385 0.53759 0.73498 0.0
C511 C 0.56075 0.53241 0.75138 0.0
C512 C 0.5404 0.54312 0.71028 0.0
C513 C 0.57425 0.54389 0.70145 0.0
C514 C 0.60043 0.53754 0.71757 0.0
C515 C 0.5939 0.53201 0.74229 0.0
C516 C 0.58231 0.54935 0.67527 0.0
C517 C 0.56738 0.56657 0.66073 0.0
C518 C 0.57252 0.56735 0.63374 0.0
C519 C 0.54039 0.56199 0.61585 0.0
C520 C 0.54169 0.55658 0.58974 0.0
C521 C 0.57551 0.55702 0.58113 0.0
H522 H 0.63383 0.57703 0.63873 0.0
C523 C 0.60921 0.56603 0.59926 0.0
C524 C 0.60776 0.57113 0.62532 0.0
H525 H 0.63611 0.56755 0.59321 0.0
H526 H 0.50781 0.53774 0.74125 0.0
H527 H 0.51849 0.54623 0.69822 0.0
H528 H 0.62641 0.53739 0.71115 0.0
H529 H 0.61524 0.52809 0.75438 0.0
H530 H 0.60089 0.53797 0.6676 0.0
H531 H 0.54839 0.57771 0.66793 0.0
H532 H 0.51315 0.55955 0.62194 0.0
H533 H 0.51515 0.54953 0.57628 0.0
C534 C 0.55246 0.07406 0.5924 0.0
C535 C 0.55603 0.04739 0.57342 0.0
C536 C 0.55475 0.06973 0.61782 0.0
C537 C 0.56108 0.0389 0.62478 0.0
C538 C 0.5664 0.0135 0.60601 0.0
C539 C 0.56346 0.01737 0.58055 0.0
C540 C 0.56271 0.03303 0.65151 0.0
C541 C 0.53849 0.03784 0.66658 0.0
C542 C 0.53972 0.03438 0.69385 0.0
C543 C 0.50721 0.03155 0.70547 0.0
C544 C 0.50961 0.03492 0.73183 0.0
C545 C 0.54459 0.04114 0.74717 0.0
H546 H 0.59972 0.04084 0.701 0.0
C547 C 0.57601 0.04117 0.73555 0.0
C548 C 0.57372 0.03795 0.70906 0.0
H549 H 0.60355 0.04663 0.74713 0.0
H550 H 0.547 0.09765 0.58752 0.0
H551 H 0.55176 0.09067 0.63202 0.0
H552 H 0.57189 0.98995 0.61095 0.0
H553 H 0.56702 0.99678 0.56643 0.0
H554 H 0.58261 0.02251 0.65823 0.0
H555 H 0.51615 0.04463 0.65846 0.0
H556 H 0.48062 0.02868 0.6943 0.0
H557 H 0.48514 0.03509 0.74046 0.0
C558 C 0.58349 0.57469 0.91121 0.0
C559 C 0.55153 0.54398 0.89154 0.0
C560 C 0.57775 0.57713 0.93667 0.0
C561 C 0.54005 0.54856 0.94291 0.0
C562 C 0.5083 0.51784 0.92325 0.0
C563 C 0.51378 0.51581 0.89784 0.0
C564 C 0.53405 0.54787 0.96981 0.0
C565 C 0.55247 0.58223 0.98859 0.0
C566 C 0.55048 0.58106 0.01601 0.0
C567 C 0.55735 0.6163 0.033 0.0
C568 C 0.56161 0.61841 0.0594 0.0
C569 C 0.55977 0.58554 0.06928 0.0
H570 H 0.5419 0.51984 0.01359 0.0
C571 C 0.55095 0.5495 0.05228 0.0
C572 C 0.54626 0.54719 0.02592 0.0
H573 H 0.54974 0.52389 0.0595 0.0
H574 H 0.61294 0.59669 0.90694 0.0
H575 H 0.60327 0.60054 0.95146 0.0
H576 H 0.47918 0.49516 0.92758 0.0
H577 H 0.48866 0.49144 0.88319 0.0
H578 H 0.51319 0.51797 0.9741 0.0
H579 H 0.57002 0.61245 0.98379 0.0
H580 H 0.56093 0.64289 0.02589 0.0
H581 H 0.56899 0.64677 0.07215 0.0
C582 C 0.02427 0.5793 0.2495 0.0
C583 C 0.01653 0.54679 0.22977 0.0
C584 C 0.01183 0.57125 0.27279 0.0
C585 C 0.99204 0.53046 0.27687 0.0
C586 C 0.98289 0.49781 0.25664 0.0
C587 C 0.99467 0.50587 0.23314 0.0
C588 C 0.98667 0.52222 0.3029 0.0
C589 C 0.9829 0.54705 0.32144 0.0
C590 C 0.98941 0.54611 0.34893 0.0
C591 C 0.97179 0.5612 0.36592 0.0
C592 C 0.9829 0.56716 0.39237 0.0
C593 C 0.01251 0.55897 0.4022 0.0
H594 H 0.03259 0.52527 0.3465 0.0
C595 C 0.02902 0.54245 0.38529 0.0
C596 C 0.01745 0.53585 0.3589 0.0
H597 H 0.05225 0.53636 0.39254 0.0
H598 H 0.0412 0.61111 0.24719 0.0
H599 H 0.02027 0.59736 0.28802 0.0
H600 H 0.96805 0.4662 0.25936 0.0
H601 H 0.98882 0.48044 0.21815 0.0
H602 H 0.98846 0.49622 0.30731 0.0
H603 H 0.97712 0.57055 0.31659 0.0
H604 H 0.95054 0.56983 0.35874 0.0
H605 H 0.97026 0.58049 0.40514 0.0
loop_
_geom_bond_atom_site_label_1
_geom_bond_atom_site_label_2
_geom_bond_distance
_geom_bond_site_symmetry_2
_ccdc_geom_bond_type
Zn0 O6 1.969 . S
Zn0 O7 1.965 . S
Zn0 O11 2.024 . S
Zn0 O16 1.969 . S
Zn1 O8 1.969 . S
Zn1 O14 1.969 . S
Zn1 O15 1.965 1_655 S
Zn1 O17 2.024 . S
C2 O3 1.229 . S
C2 O11 1.058 . S
O3 C2 1.229 . S
C4 O5 1.229 . S
C4 O17 1.058 . S
O5 C4 1.229 . S
O6 Zn0 1.969 . S
O6 C9 1.267 . S
O7 Zn0 1.965 . S
O7 C18 1.260 . S
O8 Zn1 1.969 . S
O8 C18 1.258 1_655 S
C9 O6 1.267 . S
C9 O10 1.228 . S
O10 C9 1.228 . S
O11 Zn0 2.024 . S
O11 C2 1.058 . S
C12 O13 1.228 . S
C12 O14 1.267 . S
O13 C12 1.228 . S
O14 Zn1 1.969 . S
O14 C12 1.267 . S
O15 Zn1 1.965 1_455 S
O15 C19 1.260 . S
O16 Zn0 1.969 . S
O16 C19 1.258 . S
O17 Zn1 2.024 . S
O17 C4 1.058 . S
C18 O7 1.260 . S
C18 O8 1.258 1_455 S
C19 O15 1.260 . S
C19 O16 1.258 . S
Zn20 O26 1.969 . S
Zn20 O27 1.965 . S
Zn20 O31 2.024 . S
Zn20 O36 1.969 . S
Zn21 O28 1.969 1_565 S
Zn21 O34 1.969 . S
Zn21 O35 1.965 1_565 S
Zn21 O37 2.024 . S
C22 O23 1.229 . S
C22 O31 1.058 . S
O23 C22 1.229 . S
C24 O25 1.229 . S
C24 O37 1.058 . S
O25 C24 1.229 . S
O26 Zn20 1.969 . S
O26 C29 1.267 . S
O27 Zn20 1.965 . S
O27 C38 1.260 . S
O28 Zn21 1.969 1_545 S
O28 C38 1.258 . S
C29 O26 1.267 . S
C29 O30 1.228 . S
O30 C29 1.228 . S
O31 Zn20 2.024 . S
O31 C22 1.058 . S
C32 O33 1.228 . S
C32 O34 1.267 . S
O33 C32 1.228 . S
O34 Zn21 1.969 . S
O34 C32 1.267 . S
O35 Zn21 1.965 1_545 S
O35 C39 1.260 . S
O36 Zn20 1.969 . S
O36 C39 1.258 . S
O37 Zn21 2.024 . S
O37 C24 1.058 . S
C38 O27 1.260 . S
C38 O28 1.258 . S
C39 O35 1.260 . S
C39 O36 1.258 . S
Zn40 O46 1.969 . S
Zn40 O47 1.965 . S
Zn40 O51 2.024 . S
Zn40 O56 1.969 . S
Zn41 O48 1.969 . S
Zn41 O54 1.969 . S
Zn41 O55 1.965 . S
Zn41 O57 2.024 . S
C42 O43 1.229 . S
C42 O51 1.058 . S
O43 C42 1.229 . S
C44 O45 1.229 . S
C44 O57 1.058 . S
O45 C44 1.229 . S
O46 Zn40 1.969 . S
O46 C49 1.267 . S
O47 Zn40 1.965 . S
O47 C58 1.260 . S
O48 Zn41 1.969 . S
O48 C58 1.258 . S
C49 O46 1.267 . S
C49 O50 1.228 . S
O50 C49 1.228 . S
O51 Zn40 2.024 . S
O51 C42 1.058 . S
C52 O53 1.228 . S
C52 O54 1.267 . S
O53 C52 1.228 . S
O54 Zn41 1.969 . S
O54 C52 1.267 . S
O55 Zn41 1.965 . S
O55 C59 1.260 . S
O56 Zn40 1.969 . S
O56 C59 1.258 . S
O57 Zn41 2.024 . S
O57 C44 1.058 . S
C58 O47 1.260 . S
C58 O48 1.258 . S
C59 O55 1.260 . S
C59 O56 1.258 . S
H60 C61 0.949 . S
C61 H60 0.949 . S
C61 C62 1.395 . S
C61 C63 1.391 . S
C62 C61 1.395 . S
C62 C65 1.390 . S
C63 C61 1.391 . S
C63 C67 1.387 . S
C63 C68 1.491 . S
H64 C65 0.931 1_565 S
C65 C62 1.390 . S
C65 H64 0.931 1_545 S
C65 C66 1.378 . S
C66 C65 1.378 . S
C66 C67 1.409 . S
C67 C63 1.387 . S
C67 C66 1.409 . S
C67 H69 0.951 . S
C68 C63 1.491 . S
C68 C70 1.382 . S
C68 C72 1.404 . S
H69 C67 0.951 . S
C70 C68 1.382 . S
C70 C71 1.390 . S
C70 H75 0.949 . S
C71 C70 1.390 . S
C71 C76 1.399 . S
C72 C68 1.404 . S
C72 H73 0.950 . S
C72 C74 1.375 . S
H73 C72 0.950 . S
C74 C72 1.375 . S
C74 C76 1.382 . S
C74 H78 0.950 . S
H75 C70 0.949 . S
C76 C71 1.399 . S
C76 C74 1.382 . S
C76 H77 0.952 . S
H77 C76 0.952 . S
H78 C74 0.950 . S
H79 C80 0.949 . S
C80 H79 0.949 . S
C80 C81 1.395 . S
C80 C82 1.391 . S
C81 C80 1.395 . S
C81 C84 1.390 . S
C82 C80 1.391 . S
C82 C86 1.387 . S
C82 C87 1.491 . S
H83 C84 0.950 . S
C84 C81 1.390 . S
C84 H83 0.950 . S
C84 C85 1.378 . S
C85 C84 1.378 . S
C85 C86 1.409 . S
C86 C82 1.387 . S
C86 C85 1.409 . S
C86 H88 0.951 . S
C87 C82 1.491 . S
C87 C89 1.382 . S
C87 C91 1.404 . S
H88 C86 0.951 . S
C89 C87 1.382 . S
C89 C90 1.390 . S
C89 H94 0.949 . S
C90 C89 1.390 . S
C90 C95 1.399 . S
C91 C87 1.404 . S
C91 H92 0.950 . S
C91 C93 1.375 . S
H92 C91 0.950 . S
C93 C91 1.375 . S
C93 C95 1.382 . S
C93 H97 0.950 . S
H94 C89 0.949 . S
C95 C90 1.399 . S
C95 C93 1.382 . S
C95 H96 0.952 . S
H96 C95 0.952 . S
H97 C93 0.950 . S
H98 C99 0.949 . S
C99 H98 0.949 . S
C99 C100 1.395 . S
C99 C101 1.391 . S
C100 C99 1.395 . S
C100 C103 1.390 . S
C101 C99 1.391 . S
C101 C105 1.387 . S
C101 C106 1.491 . S
H102 C103 0.950 1_655 S
C103 C100 1.390 . S
C103 H102 0.950 1_455 S
C103 C104 1.378 . S
C104 C103 1.378 . S
C104 C105 1.409 . S
C105 C101 1.387 . S
C105 C104 1.409 . S
C105 H107 0.951 . S
C106 C101 1.491 . S
C106 C108 1.382 . S
C106 C110 1.404 . S
H107 C105 0.951 . S
C108 C106 1.382 . S
C108 C109 1.390 . S
C108 H113 0.949 . S
C109 C108 1.390 . S
C109 C114 1.399 . S
C110 C106 1.404 . S
C110 H111 0.950 . S
C110 C112 1.375 . S
H111 C110 0.950 . S
C112 C110 1.375 . S
C112 C114 1.382 . S
C112 H116 0.950 . S
H113 C108 0.949 . S
C114 C109 1.399 . S
C114 C112 1.382 . S
C114 H115 0.952 . S
H115 C114 0.952 . S
H116 C112 0.950 . S
H117 C118 0.949 1_655 S
C118 H117 0.949 1_455 S
C118 C119 1.395 . S
C118 C120 1.391 . S
C119 C118 1.395 . S
C119 C122 1.390 . S
C120 C118 1.391 . S
C120 C124 1.387 . S
C120 C125 1.491 1_455 S
H121 C122 0.950 . S
C122 C119 1.390 . S
C122 H121 0.950 . S
C122 C123 1.378 . S
C123 C122 1.378 . S
C123 C124 1.409 . S
C124 C120 1.387 . S
C124 C123 1.409 . S
C124 H126 0.951 . S
C125 C120 1.491 1_655 S
C125 C127 1.382 . S
C125 C129 1.404 . S
H126 C124 0.951 . S
C127 C125 1.382 . S
C127 C128 1.390 . S
C127 H132 0.949 . S
C128 C127 1.390 . S
C128 C133 1.399 . S
C129 C125 1.404 . S
C129 H130 0.950 1_655 S
C129 C131 1.375 . S
H130 C129 0.950 1_455 S
C131 C129 1.375 . S
C131 C133 1.382 . S
C131 H135 0.950 . S
H132 C127 0.949 . S
C133 C128 1.399 . S
C133 C131 1.382 . S
C133 H134 0.952 . S
H134 C133 0.952 . S
H135 C131 0.950 . S
H136 C137 0.949 . S
C137 H136 0.949 . S
C137 C138 1.395 . S
C137 C139 1.391 . S
C138 C137 1.395 . S
C138 C141 1.390 . S
C139 C137 1.391 . S
C139 C143 1.387 . S
C139 C144 1.491 . S
H140 C141 0.950 . S
C141 C138 1.390 . S
C141 H140 0.950 . S
C141 C142 1.378 . S
C142 C141 1.378 . S
C142 C143 1.409 . S
C143 C139 1.387 . S
C143 C142 1.409 . S
C143 H145 0.951 . S
C144 C139 1.491 . S
C144 C146 1.382 1_545 S
C144 C148 1.404 . S
H145 C143 0.951 . S
C146 C144 1.382 1_565 S
C146 C147 1.390 . S
C146 H151 0.949 . S
C147 C146 1.390 . S
C147 C152 1.399 . S
C148 C144 1.404 . S
C148 H149 0.950 . S
C148 C150 1.375 1_545 S
H149 C148 0.950 . S
C150 C148 1.375 1_565 S
C150 C152 1.382 . S
C150 H154 0.950 . S
H151 C146 0.949 . S
C152 C147 1.399 . S
C152 C150 1.382 . S
C152 H153 0.952 . S
H153 C152 0.952 . S
H154 C150 0.950 . S
H155 C156 0.949 . S
C156 H155 0.949 . S
C156 C157 1.395 . S
C156 C158 1.391 . S
C157 C156 1.395 . S
C157 C160 1.390 . S
C158 C156 1.391 . S
C158 C162 1.387 . S
C158 C163 1.491 . S
H159 C160 0.950 . S
C160 C157 1.390 . S
C160 H159 0.950 . S
C160 C161 1.378 . S
C161 C160 1.378 . S
C161 C162 1.409 . S
C162 C158 1.387 . S
C162 C161 1.409 . S
C162 H164 0.951 . S
C163 C158 1.491 . S
C163 C165 1.382 . S
C163 C167 1.404 . S
H164 C162 0.951 . S
C165 C163 1.382 . S
C165 C166 1.390 . S
C165 H170 0.949 . S
C166 C165 1.390 . S
C166 C171 1.399 . S
C167 C163 1.404 . S
C167 H168 0.950 . S
C167 C169 1.375 . S
H168 C167 0.950 . S
C169 C167 1.375 . S
C169 C171 1.382 . S
C169 H173 0.950 . S
H170 C165 0.949 . S
C171 C166 1.399 . S
C171 C169 1.382 . S
C171 H172 0.952 . S
H172 C171 0.952 . S
H173 C169 0.950 . S
C174 C175 1.386 . S
C174 C176 1.383 . S
C174 H190 0.951 . S
C175 C174 1.386 . S
C175 C179 1.383 . S
C176 C174 1.383 . S
C176 C177 1.402 . S
C176 H191 0.951 . S
C177 C176 1.402 . S
C177 C178 1.375 . S
C177 C180 1.481 . S
C178 C177 1.375 . S
C178 C179 1.367 . S
C178 H192 0.951 . S
C179 C175 1.383 . S
C179 C178 1.367 . S
C179 H193 0.950 . S
C180 C177 1.481 . S
C180 C181 1.297 . S
C180 H194 0.950 . S
C181 C180 1.297 . S
C181 C182 1.479 . S
C181 H195 0.950 . S
C182 C181 1.479 . S
C182 C183 1.375 . S
C182 C188 1.404 . S
C183 C182 1.375 . S
C183 C184 1.369 . S
C183 H196 0.950 . S
C184 C183 1.369 . S
C184 C185 1.392 . S
C184 H197 0.951 . S
C185 C184 1.392 . S
C185 C187 1.384 . S
H186 C188 0.949 . S
C187 C185 1.384 . S
C187 C188 1.385 . S
C187 H189 0.950 . S
C188 C182 1.404 . S
C188 H186 0.949 . S
C188 C187 1.385 . S
H189 C187 0.950 . S
H190 C174 0.951 . S
H191 C176 0.951 . S
H192 C178 0.951 . S
H193 C179 0.950 . S
H194 C180 0.950 . S
H195 C181 0.950 . S
H196 C183 0.950 . S
H197 C184 0.951 . S
C198 C199 1.386 . S
C198 C200 1.383 . S
C198 H214 0.951 . S
C199 C198 1.386 . S
C199 C203 1.383 . S
C200 C198 1.383 . S
C200 C201 1.402 . S
C200 H215 0.951 . S
C201 C200 1.402 . S
C201 C202 1.375 . S
C201 C204 1.481 . S
C202 C201 1.375 . S
C202 C203 1.367 . S
C202 H216 0.951 . S
C203 C199 1.383 . S
C203 C202 1.367 . S
C203 H217 0.950 . S
C204 C201 1.481 . S
C204 C205 1.297 . S
C204 H218 0.950 . S
C205 C204 1.297 . S
C205 C206 1.479 . S
C205 H219 0.950 . S
C206 C205 1.479 . S
C206 C207 1.375 . S
C206 C212 1.404 . S
C207 C206 1.375 . S
C207 C208 1.369 . S
C207 H220 0.950 . S
C208 C207 1.369 . S
C208 C209 1.392 . S
C208 H221 0.951 . S
C209 C208 1.392 . S
C209 C211 1.384 . S
H210 C212 0.949 . S
C211 C209 1.384 . S
C211 C212 1.385 . S
C211 H213 0.950 . S
C212 C206 1.404 . S
C212 H210 0.949 . S
C212 C211 1.385 . S
H213 C211 0.950 . S
H214 C198 0.951 . S
H215 C200 0.951 . S
H216 C202 0.951 . S
H217 C203 0.950 . S
H218 C204 0.950 . S
H219 C205 0.950 . S
H220 C207 0.950 . S
H221 C208 0.951 . S
C222 C223 1.386 . S
C222 C224 1.383 . S
C222 H238 0.951 . S
C223 C222 1.386 . S
C223 C227 1.383 . S
C224 C222 1.383 . S
C224 C225 1.402 . S
C224 H239 0.951 . S
C225 C224 1.402 . S
C225 C226 1.375 . S
C225 C228 1.481 . S
C226 C225 1.375 . S
C226 C227 1.367 . S
C226 H240 0.951 . S
C227 C223 1.383 . S
C227 C226 1.367 . S
C227 H241 0.950 . S
C228 C225 1.481 . S
C228 C229 1.297 . S
C228 H242 0.950 . S
C229 C228 1.297 . S
C229 C230 1.479 . S
C229 H243 0.950 . S
C230 C229 1.479 . S
C230 C231 1.375 . S
C230 C236 1.404 . S
C231 C230 1.375 . S
C231 C232 1.369 . S
C231 H244 0.950 . S
C232 C231 1.369 . S
C232 C233 1.392 . S
C232 H245 0.951 . S
C233 C232 1.392 . S
C233 C235 1.384 . S
H234 C236 0.949 . S
C235 C233 1.384 . S
C235 C236 1.385 . S
C235 H237 0.950 . S
C236 C230 1.404 . S
C236 H234 0.949 . S
C236 C235 1.385 . S
H237 C235 0.950 . S
H238 C222 0.951 . S
H239 C224 0.951 . S
H240 C226 0.951 . S
H241 C227 0.950 . S
H242 C228 0.950 . S
H243 C229 0.950 . S
H244 C231 0.950 . S
H245 C232 0.951 . S
C246 C247 1.386 . S
C246 C248 1.383 . S
C246 H262 0.951 . S
C247 C246 1.386 . S
C247 C251 1.383 . S
C248 C246 1.383 . S
C248 C249 1.402 . S
C248 H263 0.951 . S
C249 C248 1.402 . S
C249 C250 1.375 . S
C249 C252 1.481 . S
C250 C249 1.375 . S
C250 C251 1.367 . S
C250 H264 0.951 . S
C251 C247 1.383 . S
C251 C250 1.367 . S
C251 H265 0.950 . S
C252 C249 1.481 . S
C252 C253 1.297 . S
C252 H266 0.950 . S
C253 C252 1.297 . S
C253 C254 1.479 . S
C253 H267 0.950 . S
C254 C253 1.479 . S
C254 C255 1.375 . S
C254 C260 1.404 . S
C255 C254 1.375 . S
C255 C256 1.369 . S
C255 H268 0.950 . S
C256 C255 1.369 . S
C256 C257 1.392 . S
C256 H269 0.951 . S
C257 C256 1.392 . S
C257 C259 1.384 . S
H258 C260 0.949 . S
C259 C257 1.384 . S
C259 C260 1.385 . S
C259 H261 0.950 . S
C260 C254 1.404 . S
C260 H258 0.949 . S
C260 C259 1.385 . S
H261 C259 0.950 . S
H262 C246 0.951 . S
H263 C248 0.951 . S
H264 C250 0.951 . S
H265 C251 0.950 . S
H266 C252 0.950 . S
H267 C253 0.950 . S
H268 C255 0.950 . S
H269 C256 0.951 . S
C270 C271 1.386 . S
C270 C272 1.383 . S
C270 H286 0.951 . S
C271 C270 1.386 . S
C271 C275 1.383 . S
C272 C270 1.383 . S
C272 C273 1.402 . S
C272 H287 0.951 . S
C273 C272 1.402 . S
C273 C274 1.375 . S
C273 C276 1.481 . S
C274 C273 1.375 . S
C274 C275 1.367 . S
C274 H288 0.951 . S
C275 C271 1.383 . S
C275 C274 1.367 . S
C275 H289 0.950 . S
C276 C273 1.481 . S
C276 C277 1.297 . S
C276 H290 0.950 . S
C277 C276 1.297 . S
C277 C278 1.479 . S
C277 H291 0.950 . S
C278 C277 1.479 . S
C278 C279 1.375 . S
C278 C284 1.404 . S
C279 C278 1.375 . S
C279 C280 1.369 . S
C279 H292 0.950 . S
C280 C279 1.369 . S
C280 C281 1.392 . S
C280 H293 0.951 . S
C281 C280 1.392 . S
C281 C283 1.384 . S
H282 C284 0.949 . S
C283 C281 1.384 . S
C283 C284 1.385 . S
C283 H285 0.950 . S
C284 C278 1.404 . S
C284 H282 0.949 . S
C284 C283 1.385 . S
H285 C283 0.950 . S
H286 C270 0.951 . S
H287 C272 0.951 . S
H288 C274 0.951 . S
H289 C275 0.950 . S
H290 C276 0.950 . S
H291 C277 0.950 . S
H292 C279 0.950 . S
H293 C280 0.951 . S
C294 C295 1.386 . S
C294 C296 1.383 . S
C294 H310 0.951 . S
C295 C294 1.386 . S
C295 C299 1.383 . S
C296 C294 1.383 . S
C296 C297 1.402 . S
C296 H311 0.951 . S
C297 C296 1.402 . S
C297 C298 1.375 . S
C297 C300 1.481 . S
C298 C297 1.375 . S
C298 C299 1.367 . S
C298 H312 0.951 . S
C299 C295 1.383 . S
C299 C298 1.367 . S
C299 H313 0.950 . S
C300 C297 1.481 . S
C300 C301 1.297 . S
C300 H314 0.950 . S
C301 C300 1.297 . S
C301 C302 1.479 . S
C301 H315 0.950 . S
C302 C301 1.479 . S
C302 C303 1.375 . S
C302 C308 1.404 . S
C303 C302 1.375 . S
C303 C304 1.369 . S
C303 H316 0.950 . S
C304 C303 1.369 . S
C304 C305 1.392 . S
C304 H317 0.951 . S
C305 C304 1.392 . S
C305 C307 1.384 . S
H306 C308 0.949 . S
C307 C305 1.384 . S
C307 C308 1.385 . S
C307 H309 0.950 . S
C308 C302 1.404 . S
C308 H306 0.949 . S
C308 C307 1.385 . S
H309 C307 0.950 . S
H310 C294 0.951 . S
H311 C296 0.951 . S
H312 C298 0.951 . S
H313 C299 0.950 . S
H314 C300 0.950 . S
H315 C301 0.950 . S
H316 C303 0.950 . S
H317 C304 0.951 . S
C318 C319 1.386 . S
C318 C320 1.383 . S
C318 H334 0.951 . S
C319 C318 1.386 . S
C319 C323 1.383 . S
C320 C318 1.383 . S
C320 C321 1.402 . S
C320 H335 0.951 . S
C321 C320 1.402 . S
C321 C322 1.375 . S
C321 C324 1.481 . S
C322 C321 1.375 . S
C322 C323 1.367 . S
C322 H336 0.951 . S
C323 C319 1.383 . S
C323 C322 1.367 . S
C323 H337 0.950 . S
C324 C321 1.481 . S
C324 C325 1.297 . S
C324 H338 0.950 . S
C325 C324 1.297 . S
C325 C326 1.479 . S
C325 H339 0.950 . S
C326 C325 1.479 . S
C326 C327 1.375 . S
C326 C332 1.404 . S
C327 C326 1.375 . S
C327 C328 1.369 . S
C327 H340 0.950 . S
C328 C327 1.369 . S
C328 C329 1.392 . S
C328 H341 0.951 . S
C329 C328 1.392 . S
C329 C331 1.384 . S
H330 C332 0.949 . S
C331 C329 1.384 . S
C331 C332 1.385 . S
C331 H333 0.950 . S
C332 C326 1.404 . S
C332 H330 0.949 . S
C332 C331 1.385 . S
H333 C331 0.950 . S
H334 C318 0.951 . S
H335 C320 0.951 . S
H336 C322 0.951 . S
H337 C323 0.950 . S
H338 C324 0.950 . S
H339 C325 0.950 . S
H340 C327 0.950 . S
H341 C328 0.951 . S
C342 C343 1.386 . S
C342 C344 1.383 . S
C342 H358 0.951 . S
C343 C342 1.386 . S
C343 C347 1.383 . S
C344 C342 1.383 . S
C344 C345 1.402 . S
C344 H359 0.951 . S
C345 C344 1.402 . S
C345 C346 1.375 . S
C345 C348 1.481 . S
C346 C345 1.375 . S
C346 C347 1.367 . S
C346 H360 0.951 . S
C347 C343 1.383 . S
C347 C346 1.367 . S
C347 H361 0.950 . S
C348 C345 1.481 . S
C348 C349 1.297 . S
C348 H362 0.950 . S
C349 C348 1.297 . S
C349 C350 1.479 . S
C349 H363 0.950 . S
C350 C349 1.479 . S
C350 C351 1.375 . S
C350 C356 1.404 . S
C351 C350 1.375 . S
C351 C352 1.369 . S
C351 H364 0.950 . S
C352 C351 1.369 . S
C352 C353 1.392 . S
C352 H365 0.951 . S
C353 C352 1.392 . S
C353 C355 1.384 . S
H354 C356 0.949 . S
C355 C353 1.384 . S
C355 C356 1.385 . S
C355 H357 0.950 . S
C356 C350 1.404 . S
C356 H354 0.949 . S
C356 C355 1.385 . S
H357 C355 0.950 . S
H358 C342 0.951 . S
H359 C344 0.951 . S
H360 C346 0.951 . S
H361 C347 0.950 . S
H362 C348 0.950 . S
H363 C349 0.950 . S
H364 C351 0.950 . S
H365 C352 0.951 . S
C366 C367 1.386 . S
C366 C368 1.383 . S
C366 H382 0.951 . S
C367 C366 1.386 . S
C367 C371 1.383 . S
C368 C366 1.383 . S
C368 C369 1.402 . S
C368 H383 0.951 . S
C369 C368 1.402 . S
C369 C370 1.375 . S
C369 C372 1.481 . S
C370 C369 1.375 . S
C370 C371 1.367 . S
C370 H384 0.951 . S
C371 C367 1.383 . S
C371 C370 1.367 . S
C371 H385 0.950 . S
C372 C369 1.481 . S
C372 C373 1.297 . S
C372 H386 0.950 . S
C373 C372 1.297 . S
C373 C374 1.479 . S
C373 H387 0.950 . S
C374 C373 1.479 . S
C374 C375 1.375 . S
C374 C380 1.404 . S
C375 C374 1.375 . S
C375 C376 1.369 . S
C375 H388 0.950 . S
C376 C375 1.369 . S
C376 C377 1.392 . S
C376 H389 0.951 . S
C377 C376 1.392 . S
C377 C379 1.384 . S
H378 C380 0.949 . S
C379 C377 1.384 . S
C379 C380 1.385 . S
C379 H381 0.950 1_565 S
C380 C374 1.404 . S
C380 H378 0.949 . S
C380 C379 1.385 . S
H381 C379 0.950 1_545 S
H382 C366 0.951 . S
H383 C368 0.951 . S
H384 C370 0.951 . S
H385 C371 0.950 . S
H386 C372 0.950 . S
H387 C373 0.950 . S
H388 C375 0.950 . S
H389 C376 0.951 . S
C390 C391 1.386 . S
C390 C392 1.383 . S
C390 H406 0.951 . S
C391 C390 1.386 . S
C391 C395 1.383 . S
C392 C390 1.383 . S
C392 C393 1.402 . S
C392 H407 0.951 . S
C393 C392 1.402 . S
C393 C394 1.375 . S
C393 C396 1.481 . S
C394 C393 1.375 . S
C394 C395 1.367 . S
C394 H408 0.951 . S
C395 C391 1.383 . S
C395 C394 1.367 . S
C395 H409 0.950 . S
C396 C393 1.481 . S
C396 C397 1.297 . S
C396 H410 0.950 . S
C397 C396 1.297 . S
C397 C398 1.479 . S
C397 H411 0.950 . S
C398 C397 1.479 . S
C398 C399 1.375 . S
C398 C404 1.404 . S
C399 C398 1.375 . S
C399 C400 1.369 . S
C399 H412 0.950 . S
C400 C399 1.369 . S
C400 C401 1.392 . S
C400 H413 0.951 . S
C401 C400 1.392 . S
C401 C403 1.384 . S
H402 C404 0.949 . S
C403 C401 1.384 . S
C403 C404 1.385 . S
C403 H405 0.950 . S
C404 C398 1.404 . S
C404 H402 0.949 . S
C404 C403 1.385 . S
H405 C403 0.950 . S
H406 C390 0.951 . S
H407 C392 0.951 . S
H408 C394 0.951 . S
H409 C395 0.950 . S
H410 C396 0.950 . S
H411 C397 0.950 . S
H412 C399 0.950 . S
H413 C400 0.951 . S
C414 C415 1.386 . S
C414 C416 1.383 . S
C414 H430 0.951 . S
C415 C414 1.386 . S
C415 C419 1.383 . S
C416 C414 1.383 . S
C416 C417 1.402 . S
C416 H431 0.951 . S
C417 C416 1.402 . S
C417 C418 1.375 . S
C417 C420 1.481 . S
C418 C417 1.375 . S
C418 C419 1.367 . S
C418 H432 0.951 . S
C419 C415 1.383 . S
C419 C418 1.367 . S
C419 H433 0.950 . S
C420 C417 1.481 . S
C420 C421 1.297 . S
C420 H434 0.950 . S
C421 C420 1.297 . S
C421 C422 1.479 . S
C421 H435 0.950 . S
C422 C421 1.479 . S
C422 C423 1.375 . S
C422 C428 1.404 . S
C423 C422 1.375 . S
C423 C424 1.369 . S
C423 H436 0.950 . S
C424 C423 1.369 . S
C424 C425 1.392 . S
C424 H437 0.951 . S
C425 C424 1.392 . S
C425 C427 1.384 . S
H426 C428 0.949 . S
C427 C425 1.384 . S
C427 C428 1.385 . S
C427 H429 0.950 . S
C428 C422 1.404 . S
C428 H426 0.949 . S
C428 C427 1.385 . S
H429 C427 0.950 . S
H430 C414 0.951 . S
H431 C416 0.951 . S
H432 C418 0.951 . S
H433 C419 0.950 . S
H434 C420 0.950 . S
H435 C421 0.950 . S
H436 C423 0.950 . S
H437 C424 0.951 . S
C438 C439 1.386 . S
C438 C440 1.383 . S
C438 H454 0.951 . S
C439 C438 1.386 . S
C439 C443 1.383 . S
C440 C438 1.383 . S
C440 C441 1.402 . S
C440 H455 0.951 . S
C441 C440 1.402 . S
C441 C442 1.375 . S
C441 C444 1.481 . S
C442 C441 1.375 . S
C442 C443 1.367 . S
C442 H456 0.951 . S
C443 C439 1.383 . S
C443 C442 1.367 . S
C443 H457 0.950 . S
C444 C441 1.481 . S
C444 C445 1.297 . S
C444 H458 0.950 . S
C445 C444 1.297 . S
C445 C446 1.479 . S
C445 H459 0.950 . S
C446 C445 1.479 . S
C446 C447 1.375 . S
C446 C452 1.404 . S
C447 C446 1.375 . S
C447 C448 1.369 . S
C447 H460 0.950 . S
C448 C447 1.369 . S
C448 C449 1.392 . S
C448 H461 0.951 . S
C449 C448 1.392 . S
C449 C451 1.384 . S
H450 C452 0.949 . S
C451 C449 1.384 . S
C451 C452 1.385 . S
C451 H453 0.950 . S
C452 C446 1.404 . S
C452 H450 0.949 . S
C452 C451 1.385 . S
H453 C451 0.950 . S
H454 C438 0.951 . S
H455 C440 0.951 . S
H456 C442 0.951 . S
H457 C443 0.950 . S
H458 C444 0.950 . S
H459 C445 0.950 . S
H460 C447 0.950 . S
H461 C448 0.951 . S
C462 C463 1.386 . S
C462 C464 1.383 . S
C462 H478 0.951 . S
C463 C462 1.386 . S
C463 C467 1.383 1_455 S
C464 C462 1.383 . S
C464 C465 1.402 . S
C464 H479 0.951 . S
C465 C464 1.402 . S
C465 C466 1.375 1_455 S
C465 C468 1.481 . S
C466 C465 1.375 1_655 S
C466 C467 1.367 . S
C466 H480 0.951 . S
C467 C463 1.383 1_655 S
C467 C466 1.367 . S
C467 H481 0.950 . S
C468 C465 1.481 . S
C468 C469 1.297 . S
C468 H482 0.950 1_455 S
C469 C468 1.297 . S
C469 C470 1.479 1_554 S
C469 H483 0.950 . S
C470 C469 1.479 1_556 S
C470 C471 1.375 . S
C470 C476 1.404 . S
C471 C470 1.375 . S
C471 C472 1.369 . S
C471 H484 0.950 . S
C472 C471 1.369 . S
C472 C473 1.392 . S
C472 H485 0.951 . S
C473 C472 1.392 . S
C473 C475 1.384 . S
H474 C476 0.949 1_655 S
C475 C473 1.384 . S
C475 C476 1.385 . S
C475 H477 0.950 1_455 S
C476 C470 1.404 . S
C476 H474 0.949 1_455 S
C476 C475 1.385 . S
H477 C475 0.950 1_655 S
H478 C462 0.951 . S
H479 C464 0.951 . S
H480 C466 0.951 . S
H481 C467 0.950 . S
H482 C468 0.950 1_655 S
H483 C469 0.950 . S
H484 C471 0.950 . S
H485 C472 0.951 . S
C486 C487 1.386 . S
C486 C488 1.383 . S
C486 H502 0.951 . S
C487 C486 1.386 . S
C487 C491 1.383 . S
C488 C486 1.383 . S
C488 C489 1.402 . S
C488 H503 0.951 . S
C489 C488 1.402 . S
C489 C490 1.375 . S
C489 C492 1.481 . S
C490 C489 1.375 . S
C490 C491 1.367 . S
C490 H504 0.951 . S
C491 C487 1.383 . S
C491 C490 1.367 . S
C491 H505 0.950 . S
C492 C489 1.481 . S
C492 C493 1.297 . S
C492 H506 0.950 . S
C493 C492 1.297 . S
C493 C494 1.479 . S
C493 H507 0.950 . S
C494 C493 1.479 . S
C494 C495 1.375 . S
C494 C500 1.404 . S
C495 C494 1.375 . S
C495 C496 1.369 . S
C495 H508 0.950 . S
C496 C495 1.369 . S
C496 C497 1.392 . S
C496 H509 0.951 . S
C497 C496 1.392 . S
C497 C499 1.384 . S
H498 C500 0.949 . S
C499 C497 1.384 . S
C499 C500 1.385 . S
C499 H501 0.950 . S
C500 C494 1.404 . S
C500 H498 0.949 . S
C500 C499 1.385 . S
H501 C499 0.950 . S
H502 C486 0.951 . S
H503 C488 0.951 . S
H504 C490 0.951 . S
H505 C491 0.950 . S
H506 C492 0.950 . S
H507 C493 0.950 . S
H508 C495 0.950 . S
H509 C496 0.951 . S
C510 C511 1.386 . S
C510 C512 1.383 . S
C510 H526 0.951 . S
C511 C510 1.386 . S
C511 C515 1.383 . S
C512 C510 1.383 . S
C512 C513 1.402 . S
C512 H527 0.951 . S
C513 C512 1.402 . S
C513 C514 1.375 . S
C513 C516 1.481 . S
C514 C513 1.375 . S
C514 C515 1.367 . S
C514 H528 0.951 . S
C515 C511 1.383 . S
C515 C514 1.367 . S
C515 H529 0.950 . S
C516 C513 1.481 . S
C516 C517 1.297 . S
C516 H530 0.950 . S
C517 C516 1.297 . S
C517 C518 1.479 . S
C517 H531 0.950 . S
C518 C517 1.479 . S
C518 C519 1.375 . S
C518 C524 1.404 . S
C519 C518 1.375 . S
C519 C520 1.369 . S
C519 H532 0.950 . S
C520 C519 1.369 . S
C520 C521 1.392 . S
C520 H533 0.951 . S
C521 C520 1.392 . S
C521 C523 1.384 . S
H522 C524 0.949 . S
C523 C521 1.384 . S
C523 C524 1.385 . S
C523 H525 0.950 . S
C524 C518 1.404 . S
C524 H522 0.949 . S
C524 C523 1.385 . S
H525 C523 0.950 . S
H526 C510 0.951 . S
H527 C512 0.951 . S
H528 C514 0.951 . S
H529 C515 0.950 . S
H530 C516 0.950 . S
H531 C517 0.950 . S
H532 C519 0.950 . S
H533 C520 0.951 . S
C534 C535 1.386 . S
C534 C536 1.383 . S
C534 H550 0.951 . S
C535 C534 1.386 . S
C535 C539 1.383 . S
C536 C534 1.383 . S
C536 C537 1.402 . S
C536 H551 0.951 . S
C537 C536 1.402 . S
C537 C538 1.375 . S
C537 C540 1.481 . S
C538 C537 1.375 . S
C538 C539 1.367 . S
C538 H552 0.951 1_545 S
C539 C535 1.383 . S
C539 C538 1.367 . S
C539 H553 0.950 1_545 S
C540 C537 1.481 . S
C540 C541 1.297 . S
C540 H554 0.950 . S
C541 C540 1.297 . S
C541 C542 1.479 . S
C541 H555 0.950 . S
C542 C541 1.479 . S
C542 C543 1.375 . S
C542 C548 1.404 . S
C543 C542 1.375 . S
C543 C544 1.369 . S
C543 H556 0.950 . S
C544 C543 1.369 . S
C544 C545 1.392 . S
C544 H557 0.951 . S
C545 C544 1.392 . S
C545 C547 1.384 . S
H546 C548 0.949 1_565 S
C547 C545 1.384 . S
C547 C548 1.385 . S
C547 H549 0.952 1_545 S
C548 C542 1.404 . S
C548 H546 0.949 1_545 S
C548 C547 1.385 . S
H549 C547 0.952 1_565 S
H550 C534 0.951 . S
H551 C536 0.951 . S
H552 C538 0.951 1_565 S
H553 C539 0.950 1_565 S
H554 C540 0.950 . S
H555 C541 0.950 . S
H556 C543 0.950 . S
H557 C544 0.951 . S
C558 C559 1.386 . S
C558 C560 1.383 . S
C558 H574 0.951 . S
C559 C558 1.386 . S
C559 C563 1.383 . S
C560 C558 1.383 . S
C560 C561 1.402 . S
C560 H575 0.951 . S
C561 C560 1.402 . S
C561 C562 1.375 . S
C561 C564 1.481 . S
C562 C561 1.375 . S
C562 C563 1.367 . S
C562 H576 0.951 . S
C563 C559 1.383 . S
C563 C562 1.367 . S
C563 H577 0.950 . S
C564 C561 1.481 . S
C564 C565 1.297 . S
C564 H578 0.950 . S
C565 C564 1.297 . S
C565 C566 1.479 1_556 S
C565 H579 0.950 . S
C566 C565 1.479 1_554 S
C566 C567 1.375 . S
C566 C572 1.404 . S
C567 C566 1.375 . S
C567 C568 1.369 . S
C567 H580 0.950 . S
C568 C567 1.369 . S
C568 C569 1.392 . S
C568 H581 0.951 . S
C569 C568 1.392 . S
C569 C571 1.384 . S
H570 C572 0.949 . S
C571 C569 1.384 . S
C571 C572 1.385 . S
C571 H573 0.950 . S
C572 C566 1.404 . S
C572 H570 0.949 . S
C572 C571 1.385 . S
H573 C571 0.950 . S
H574 C558 0.951 . S
H575 C560 0.951 . S
H576 C562 0.951 . S
H577 C563 0.950 . S
H578 C564 0.950 . S
H579 C565 0.950 . S
H580 C567 0.950 . S
H581 C568 0.951 . S
C582 C583 1.386 . S
C582 C584 1.383 . S
C582 H598 0.951 . S
C583 C582 1.386 . S
C583 C587 1.383 . S
C584 C582 1.383 . S
C584 C585 1.402 . S
C584 H599 0.951 . S
C585 C584 1.402 . S
C585 C586 1.375 . S
C585 C588 1.481 . S
C586 C585 1.375 . S
C586 C587 1.367 . S
C586 H600 0.951 . S
C587 C583 1.383 . S
C587 C586 1.367 . S
C587 H601 0.950 . S
C588 C585 1.481 . S
C588 C589 1.297 . S
C588 H602 0.950 . S
C589 C588 1.297 . S
C589 C590 1.479 . S
C589 H603 0.950 1_455 S
C590 C589 1.479 . S
C590 C591 1.375 . S
C590 C596 1.404 . S
C591 C590 1.375 . S
C591 C592 1.369 . S
C591 H604 0.950 1_455 S
C592 C591 1.369 . S
C592 C593 1.392 . S
C592 H605 0.951 . S
C593 C592 1.392 . S
C593 C595 1.384 . S
H594 C596 0.949 . S
C595 C593 1.384 . S
C595 C596 1.385 . S
C595 H597 0.950 . S
C596 C590 1.404 . S
C596 H594 0.949 . S
C596 C595 1.385 . S
H597 C595 0.950 . S
H598 C582 0.951 . S
H599 C584 0.951 . S
H600 C586 0.951 . S
H601 C587 0.950 . S
H602 C588 0.950 . S
H603 C589 0.950 1_655 S
H604 C591 0.950 1_655 S
H605 C592 0.951 . S
C175 C2 1.444 . S
C185 C166 1.467 . S
C199 C22 1.435 . S
C209 C128 1.485 . S
C223 C44 1.479 . S
C233 C147 1.561 . S
C247 C4 1.381 . S
C257 C161 1.485 . S
C281 C123 1.469 . S
C271 C24 1.426 . S
C305 C142 1.463 . S
C295 C42 1.344 . S
C319 C32 1.500 . S
C329 C90 1.421 . S
C343 C49 1.074 . S
C353 C104 1.103 1_655 S
C367 C9 1.140 . S
C377 C66 1.137 1_565 S
C401 C85 1.161 . S
C391 C29 1.077 . S
C425 C109 1.293 . S
C415 C52 1.367 . S
C439 C12 1.340 . S
C449 C71 1.331 . S
C473 C100 1.545 . S
C463 C18 1.551 . S
C487 C38 1.523 . S
C497 C62 1.517 . S
C511 C58 1.496 . S
C521 C81 1.557 . S
C545 C138 1.527 . S
C535 C39 1.552 . S
C569 C157 1.576 . S
C559 C59 1.553 . S
C583 C19 1.539 . S
C593 C119 1.586 . S
