# Generated by pormake.
# Topology tsx, (6,3)-cn, num edge types: 1
# Building blocks:
#     Node 0, Type 0, BuildingBlock: MIDCAF_clean_sbu_0, # of connection points: 6
#     Node 1, Type 0, BuildingBlock: MIDCAF_clean_sbu_0, # of connection points: 6
#     Node 2, Type 1, BuildingBlock: QEWDON_clean_linker_0, # of connection points: 3
#     Node 3, Type 1, BuildingBlock: QEWDON_clean_linker_0, # of connection points: 3
#     Node 4, Type 1, BuildingBlock: QEWDON_clean_linker_0, # of connection points: 3
#     Node 5, Type 1, BuildingBlock: QEWDON_clean_linker_0, # of connection points: 3
#     Edge 6, Type (0, 1), BuildingBlock: XIVTED_clean_linker_0, # of connection points: 2
#     Edge 7, Type (0, 1), BuildingBlock: XIVTED_clean_linker_0, # of connection points: 2
#     Edge 8, Type (0, 1), BuildingBlock: XIVTED_clean_linker_0, # of connection points: 2
#     Edge 9, Type (0, 1), BuildingBlock: XIVTED_clean_linker_0, # of connection points: 2
#     Edge 10, Type (0, 1), BuildingBlock: XIVTED_clean_linker_0, # of connection points: 2
#     Edge 11, Type (0, 1), BuildingBlock: XIVTED_clean_linker_0, # of connection points: 2
#     Edge 12, Type (0, 1), BuildingBlock: XIVTED_clean_linker_0, # of connection points: 2
#     Edge 13, Type (0, 1), BuildingBlock: XIVTED_clean_linker_0, # of connection points: 2
#     Edge 14, Type (0, 1), BuildingBlock: XIVTED_clean_linker_0, # of connection points: 2
#     Edge 15, Type (0, 1), BuildingBlock: XIVTED_clean_linker_0, # of connection points: 2
#     Edge 16, Type (0, 1), BuildingBlock: XIVTED_clean_linker_0, # of connection points: 2
#     Edge 17, Type (0, 1), BuildingBlock: XIVTED_clean_linker_0, # of connection points: 2
# Relax obj value: 0.091
# Max RMSD: 0.153
# Mean RMSD: 0.150
data_MOF--net-tsx--node1-MIDCAF_clean_sbu_0--node2-QEWDON_clean_linker_0--edge1-XIVTED_clean_linker_0
_symmetry_space_group_name_H-M    P1
_symmetry_Int_Tables_number       1
_symmetry_cell_setting            triclinic
loop_
_symmetry_equiv_pos_as_xyz
'x, y, z'
_cell_length_a     21.251605
_cell_length_b     21.774214
_cell_length_c     35.462246
_cell_angle_alpha  90.276462
_cell_angle_beta   108.37271
_cell_angle_gamma 89.384976
loop_
_atom_site_label
_atom_site_type_symbol
_atom_site_fract_x
_atom_site_fract_y
_atom_site_fract_z
_atom_type_partial_charge
Zn0 Zn 0.95239 0.01914 0.94059 0.0
Zn1 Zn 0.15921 0.94555 0.05267 0.0
Zn2 Zn 0.061 0.99278 -0.00129 0.0
C3 C 0.17181 0.07826 0.04717 0.0
C4 C 0.17885 0.89954 0.98739 0.0
O5 O 0.97542 0.94598 0.00998 0.0
O6 O 0.88854 0.97136 0.95875 0.0
C7 C 1.00089 0.13055 0.97848 0.0
O8 O 0.11205 0.07644 0.0234 0.0
O9 O 0.20149 0.02896 0.06185 0.0
O10 O 0.19612 0.88501 0.0236 0.0
O11 O 0.13248 0.94028 0.97371 0.0
O12 O 0.95483 0.10902 0.94974 0.0
O13 O 0.04694 0.09486 0.00011 0.0
O14 O 0.07517 0.95958 0.943 0.0
O15 O 0.98119 0.98542 0.89692 0.0
C16 C 0.03843 0.96165 0.90641 0.0
O17 O 0.02881 0.9464 0.04574 0.0
O18 O 0.11982 0.91515 0.09201 0.0
C19 C 0.9128 0.9426 0.99098 0.0
C20 C 0.05776 0.92236 0.08015 0.0
Zn21 Zn 0.65507 0.47841 0.55742 0.0
Zn22 Zn 0.44079 0.49907 0.46151 0.0
Zn23 Zn 0.5475 0.49573 0.50822 0.0
C24 C 0.52679 0.48689 0.4187 0.0
C25 C 0.45642 0.61109 0.49614 0.0
O26 O 0.531 0.45581 0.56206 0.0
O27 O 0.62898 0.47342 0.60601 0.0
C28 C 0.65883 0.40023 0.49988 0.0
O29 O 0.55997 0.46283 0.45224 0.0
O30 O 0.473 0.51475 0.41548 0.0
O31 O 0.41036 0.57227 0.48583 0.0
O32 O 0.51651 0.5935 0.50101 0.0
O33 O 0.6822 0.40051 0.53726 0.0
O34 O 0.61187 0.43826 0.48227 0.0
O35 O 0.58536 0.58938 0.51807 0.0
O36 O 0.68898 0.55708 0.54213 0.0
C37 C 0.64783 0.59986 0.52774 0.0
O38 O 0.47778 0.44048 0.52944 0.0
O39 O 0.41045 0.41558 0.47036 0.0
C40 C 0.56945 0.45724 0.59833 0.0
C41 C 0.43054 0.40707 0.50743 0.0
H42 H 0.03081 0.07509 0.34759 0.0
C43 C 0.07155 0.04603 0.36447 0.0
C44 C 0.08707 0.99185 0.34727 0.0
C45 C 0.11011 0.06429 0.40288 0.0
H46 H 0.15527 0.91478 0.35644 0.0
C47 C 0.14139 0.95582 0.36944 0.0
C48 C 0.17927 0.97262 0.4081 0.0
C49 C 0.16319 0.02669 0.42476 0.0
C50 C 0.09875 0.12511 0.41879 0.0
H51 H 0.19301 0.04028 0.45442 0.0
C52 C 0.03467 0.14477 0.41742 0.0
C53 C 0.02446 0.20386 0.4309 0.0
C54 C 0.15242 0.16505 0.434 0.0
H55 H 0.20206 0.15144 0.43492 0.0
C56 C 0.14233 0.22364 0.44715 0.0
H57 H 0.99292 0.11442 0.40562 0.0
C58 C 0.07898 0.2429 0.44585 0.0
H59 H 0.07272 0.28826 0.45692 0.0
H60 H 0.18373 0.25436 0.45839 0.0
H61 H 0.03655 0.0718 0.63894 0.0
C62 C 1.00447 0.04052 0.61783 0.0
C63 C 0.99391 0.98079 0.62961 0.0
C64 C 0.96998 0.06198 0.57935 0.0
H65 H 0.9446 0.89493 0.60866 0.0
C66 C 0.95164 0.94198 0.60118 0.0
C67 C 0.91424 0.96393 0.56374 0.0
C68 C 0.92306 0.02407 0.55283 0.0
C69 C 0.98071 0.12514 0.56764 0.0
H70 H 0.89403 0.04106 0.5238 0.0
C71 C 0.04479 0.14464 0.57012 0.0
C72 C 0.0553 0.20465 0.55885 0.0
C73 C 0.92702 0.16624 0.55415 0.0
H74 H 0.87732 0.15221 0.55217 0.0
C75 C 0.93731 0.22617 0.54383 0.0
H76 H 0.08625 0.11295 0.58076 0.0
C77 C 1.00079 0.24527 0.54591 0.0
H78 H 0.00699 0.2916 0.53676 0.0
H79 H 0.89584 0.25786 0.53384 0.0
H80 H 0.57786 0.5799 0.86562 0.0
C81 C 0.61363 0.55082 0.88667 0.0
C82 C 0.6253 0.4903 0.87606 0.0
C83 C 0.65288 0.57691 0.92268 0.0
H84 H 0.68269 0.40747 0.89712 0.0
C85 C 0.67378 0.45472 0.90384 0.0
C86 C 0.71569 0.48074 0.93887 0.0
C87 C 0.70539 0.54205 0.94819 0.0
C88 C 0.64492 0.64345 0.92989 0.0
H89 H 0.73889 0.56291 0.97465 0.0
C90 C 0.58243 0.66883 0.92777 0.0
C91 C 0.5727 0.73335 0.92907 0.0
C92 C 0.69879 0.68262 0.93489 0.0
H93 H 0.74711 0.66434 0.93634 0.0
C94 C 0.6901 0.74596 0.9359 0.0
H95 H 0.54222 0.63753 0.92534 0.0
C96 C 0.62786 0.77117 0.93233 0.0
H97 H 0.62385 0.82063 0.93173 0.0
H98 H 0.73169 0.77591 0.93875 0.0
H99 H 0.58147 0.58165 0.13695 0.0
C100 C 0.55313 0.54111 0.12466 0.0
C101 C 0.55058 0.4923 0.14996 0.0
C102 C 0.51508 0.53994 0.08421 0.0
H103 H 0.5063 0.40489 0.15342 0.0
C104 C 0.51165 0.44114 0.13385 0.0
C105 C 0.47395 0.43868 0.09356 0.0
C106 C 0.4759 0.48822 0.06883 0.0
C107 C 0.50927 0.59596 0.05955 0.0
H108 H 0.44587 0.48707 0.03782 0.0
C109 C 0.56542 0.63084 0.06059 0.0
C110 C 0.55821 0.68708 0.03995 0.0
C111 C 0.446 0.61715 0.03688 0.0
H112 H 0.40189 0.59194 0.036 0.0
C113 C 0.43857 0.67241 0.01638 0.0
H114 H 0.61436 0.61474 0.07795 0.0
C115 C 0.4939 0.70736 0.01822 0.0
H116 H 0.48592 0.75027 0.00234 0.0
H117 H 0.38956 0.68873 -0.00061 0.0
H118 H 0.28969 0.09769 0.1041 0.0
H119 H 0.34254 0.44199 0.04748 0.0
H120 H 0.1422 0.18997 0.00813 0.0
H121 H 0.50034 0.31693 0.1083 0.0
H122 H 0.26404 0.35628 0.03502 0.0
H123 H 0.36143 0.18571 0.11147 0.0
C124 C 0.27197 0.13678 0.08473 0.0
C125 C 0.20985 0.13607 0.0552 0.0
C126 C 0.31601 0.34772 0.05067 0.0
C127 C 0.29278 0.23746 0.06333 0.0
C128 C 0.36088 0.39636 0.05747 0.0
C129 C 0.42798 0.38658 0.0793 0.0
C130 C 0.33856 0.2894 0.06617 0.0
C131 C 0.44892 0.32673 0.09194 0.0
C132 C 0.31334 0.18698 0.0888 0.0
C133 C 0.18959 0.18857 0.03134 0.0
N134 N 0.40434 0.28071 0.08559 0.0
N135 N 0.23119 0.23727 0.03579 0.0
H136 H 0.2328 0.96169 0.93848 0.0
H137 H 0.54497 0.84992 0.9535 0.0
H138 H 0.21908 0.781 0.98409 0.0
H139 H 0.44561 0.68221 0.902 0.0
H140 H 0.43991 0.89187 0.95413 0.0
H141 H 0.32326 0.92423 0.91462 0.0
C142 C 0.24709 0.91364 0.9421 0.0
C143 C 0.21848 0.87429 0.96317 0.0
C144 C 0.44121 0.8463 0.94199 0.0
C145 C 0.32206 0.83159 0.93669 0.0
C146 C 0.50178 0.82176 0.94128 0.0
C147 C 0.50642 0.76135 0.92754 0.0
C148 C 0.38421 0.81021 0.93 0.0
C149 C 0.44673 0.72796 0.91401 0.0
C150 C 0.29924 0.89257 0.92904 0.0
C151 C 0.23996 0.81272 0.96795 0.0
N152 N 0.38871 0.75226 0.91646 0.0
N153 N 0.29066 0.79326 0.95497 0.0
H154 H 0.93735 0.83353 0.03276 0.0
H155 H 0.5674 0.81216 0.04129 0.0
H156 H 0.78464 0.9692 0.98315 0.0
H157 H 0.72576 0.70022 0.03959 0.0
H158 H 0.65624 0.87491 0.03427 0.0
H159 H 0.85499 0.77034 0.05045 0.0
C160 C 0.88692 0.8504 0.02621 0.0
C161 C 0.86756 0.90647 0.00633 0.0
C162 C 0.66297 0.82551 0.036 0.0
C163 C 0.77414 0.83533 0.02668 0.0
C164 C 0.61192 0.78919 0.0397 0.0
C165 C 0.61691 0.72463 0.04061 0.0
C166 C 0.72147 0.79797 0.03429 0.0
C167 C 0.67607 0.6951 0.04018 0.0
C168 C 0.84003 0.81426 0.03603 0.0
C169 C 0.80153 0.92606 -0.00181 0.0
N170 N 0.72723 0.733 0.03735 0.0
N171 N 0.75738 0.89068 0.00843 0.0
H172 H 0.96346 0.17054 0.04064 0.0
H173 H 0.83983 0.49308 0.93432 0.0
H174 H 0.01119 0.2342 0.93829 0.0
H175 H 0.72614 0.38529 0.99057 0.0
H176 H 0.9308 0.41747 0.95574 0.0
H177 H 0.9062 0.26862 0.04262 0.0
C178 C 0.96487 0.20645 0.01988 0.0
C179 C 0.9928 0.19478 0.98958 0.0
C180 C 0.88674 0.41134 0.96441 0.0
C181 C 0.92638 0.30615 0.9911 0.0
C182 C 0.8352 0.45466 0.95253 0.0
C183 C 0.77593 0.44555 0.96113 0.0
C184 C 0.87907 0.35878 0.98528 0.0
C185 C 0.77147 0.3942 0.98384 0.0
C186 C 0.93131 0.26194 0.02063 0.0
C187 C 0.99112 0.24191 0.96246 0.0
N188 N 0.8222 0.35247 0.99494 0.0
N189 N 0.95791 0.29536 0.96362 0.0
H190 H 0.75208 0.61621 0.50137 0.0
H191 H 0.78203 0.97168 0.55271 0.0
H192 H 0.60229 0.7175 0.53465 0.0
H193 H 0.92937 0.86316 0.52207 0.0
H194 H 0.70335 0.88685 0.53145 0.0
H195 H 0.8048 0.71208 0.49452 0.0
C196 C 0.73007 0.659 0.50701 0.0
C197 C 0.67352 0.65908 0.51929 0.0
C198 C 0.75217 0.88226 0.52821 0.0
C199 C 0.73431 0.76956 0.51203 0.0
C200 C 0.7967 0.93086 0.53986 0.0
C201 C 0.8618 0.92409 0.5388 0.0
C202 C 0.77349 0.82666 0.51576 0.0
C203 C 0.87933 0.87005 0.52297 0.0
C204 C 0.76006 0.71384 0.50294 0.0
C205 C 0.64615 0.7157 0.52536 0.0
N206 N 0.83572 0.8231 0.51258 0.0
N207 N 0.67762 0.76888 0.52241 0.0
H208 H 0.69714 0.28083 0.51371 0.0
H209 H 0.96519 0.31398 0.40407 0.0
H210 H 0.70091 0.43398 0.43807 0.0
H211 H 0.93191 0.14333 0.45569 0.0
H212 H 0.86173 0.35479 0.41066 0.0
H213 H 0.77436 0.22492 0.48706 0.0
C214 C 0.7129 0.30188 0.49059 0.0
C215 C 0.69219 0.36165 0.4776 0.0
C216 C 0.87633 0.30806 0.41997 0.0
C217 C 0.7822 0.29912 0.44802 0.0
C218 C 0.93562 0.28489 0.41644 0.0
C219 C 0.95753 0.22551 0.42986 0.0
C220 C 0.83894 0.27192 0.43756 0.0
C221 C 0.91676 0.18935 0.44495 0.0
C222 C 0.75707 0.2701 0.47547 0.0
C223 C 0.71464 0.38743 0.44813 0.0
N224 N 0.85984 0.21346 0.44895 0.0
N225 N 0.75935 0.3564 0.43478 0.0
H226 H 0.38162 0.29641 0.47748 0.0
H227 H 0.14959 0.13912 0.53783 0.0
H228 H 0.39477 0.42036 0.57471 0.0
H229 H 0.17855 0.32013 0.57655 0.0
H230 H 0.25538 0.17441 0.53379 0.0
H231 H 0.30201 0.23502 0.49714 0.0
C232 C 0.36881 0.30971 0.50366 0.0
C233 C 0.39458 0.36339 0.52454 0.0
C234 C 0.22497 0.20581 0.54448 0.0
C235 C 0.30225 0.29419 0.54685 0.0
C236 C 0.16466 0.18553 0.54732 0.0
C237 C 0.12237 0.22507 0.55993 0.0
C238 C 0.24398 0.26651 0.55435 0.0
C239 C 0.14131 0.28567 0.57181 0.0
C240 C 0.32343 0.27453 0.515 0.0
C241 C 0.37626 0.37897 0.55806 0.0
N242 N 0.20221 0.3045 0.56895 0.0
N243 N 0.3298 0.34534 0.5676 0.0
H244 H 0.5011 0.70935 0.46456 0.0
H245 H 0.20357 0.92427 0.48239 0.0
H246 H 0.36685 0.6595 0.52825 0.0
H247 H 0.28282 0.93111 0.38458 0.0
H248 H 0.28827 0.84696 0.51463 0.0
H249 H 0.44683 0.81088 0.45113 0.0
C250 C 0.46184 0.72066 0.47692 0.0
C251 C 0.43803 0.67629 0.49736 0.0
C252 C 0.28775 0.86624 0.48643 0.0
C253 C 0.37571 0.79119 0.48192 0.0
C254 C 0.23968 0.91036 0.46815 0.0
C255 C 0.23581 0.93321 0.43059 0.0
C256 C 0.33261 0.84557 0.46719 0.0
C257 C 0.28364 0.91373 0.41329 0.0
C258 C 0.4305 0.77818 0.46893 0.0
C259 C 0.38629 0.6926 0.51219 0.0
N260 N 0.3298 0.87066 0.43158 0.0
N261 N 0.35643 0.74856 0.5039 0.0
H262 H 0.96516 0.99952 0.09319 0.0
H263 H 0.05414 0.8765 0.31536 0.0
H264 H 0.07477 0.83261 0.13582 0.0
H265 H 0.03765 0.06824 0.28266 0.0
H266 H 0.0171 0.84905 0.24488 0.0
H267 H 0.94479 0.01102 0.15726 0.0
C268 C 0.98216 0.96374 0.11531 0.0
C269 C 0.02255 0.91552 0.10961 0.0
C270 C 0.02023 0.89709 0.25329 0.0
C271 C 0.99994 0.92861 0.18259 0.0
C272 C 0.04193 0.91293 0.29349 0.0
C273 C 0.05106 0.97489 0.30519 0.0
C274 C 1.00658 0.94344 0.22445 0.0
C275 C 0.03187 0.01991 0.27532 0.0
C276 C 0.97123 0.97076 0.15199 0.0
C277 C 0.04398 0.87077 0.13934 0.0
N278 N 0.0115 0.00328 0.23634 0.0
N279 N 0.03335 0.87889 0.17485 0.0
H280 H 0.13593 0.01135 0.88197 0.0
H281 H 0.93547 0.902 0.66869 0.0
H282 H 0.99059 0.86793 0.85598 0.0
H283 H 0.10918 0.0153 0.68919 0.0
H284 H 0.96965 0.8767 0.73788 0.0
H285 H 0.14374 1.00086 0.81457 0.0
C286 C 0.10809 0.97567 0.86262 0.0
C287 C 0.06254 0.94036 0.87416 0.0
C288 C 1.00117 0.90639 0.72741 0.0
C289 C 0.06921 0.92959 0.79715 0.0
C290 C 0.98195 0.9206 0.68726 0.0
C291 C 0.0194 0.96099 0.67218 0.0
C292 C 0.05716 0.93425 0.75367 0.0
C293 C 0.07769 0.985 0.69917 0.0
C294 C 0.11195 0.97013 0.82406 0.0
C295 C 0.02627 0.89587 0.84798 0.0
N296 N 0.09412 0.97218 0.73873 0.0
N297 N 0.02958 0.89242 0.81048 0.0
H298 H 0.61261 0.36115 0.64744 0.0
H299 H 0.50334 0.52012 0.82031 0.0
H300 H 0.47992 0.51711 0.62666 0.0
H301 H 0.68023 0.4103 0.83444 0.0
H302 H 0.46811 0.49703 0.74896 0.0
H303 H 0.60612 0.35284 0.71477 0.0
C304 C 0.58013 0.39225 0.65674 0.0
C305 C 0.5468 0.43984 0.63181 0.0
C306 C 0.51383 0.47709 0.76816 0.0
C307 C 0.54147 0.43263 0.70922 0.0
C308 C 0.53447 0.4906 0.80892 0.0
C309 C 0.59563 0.46799 0.83413 0.0
C310 C 0.55395 0.43979 0.75258 0.0
C311 C 0.63234 0.42846 0.81723 0.0
C312 C 0.57693 0.38797 0.69525 0.0
C313 C 0.50601 0.4796 0.6452 0.0
N314 N 0.61115 0.41617 0.77776 0.0
N315 N 0.50556 0.47602 0.68348 0.0
H316 H 0.58416 0.39397 0.38737 0.0
H317 H 0.55158 0.59443 0.19558 0.0
H318 H 0.52851 0.58546 0.3738 0.0
H319 H 0.61027 0.40318 0.20497 0.0
H320 H 0.56859 0.59658 0.26651 0.0
H321 H 0.61574 0.39972 0.32633 0.0
C322 C 0.57994 0.43736 0.37193 0.0
C323 C 0.55338 0.48918 0.38517 0.0
C324 C 0.57883 0.55426 0.25329 0.0
C325 C 0.58844 0.49622 0.31577 0.0
C326 C 0.56991 0.55322 0.21265 0.0
C327 C 0.57804 0.49815 0.19394 0.0
C328 C 0.59497 0.49965 0.27539 0.0
C329 C 0.60144 0.44622 0.21796 0.0
C330 C 0.59769 0.44069 0.33714 0.0
C331 C 0.54798 0.54426 0.3641 0.0
N332 N 0.60762 0.44782 0.25729 0.0
N333 N 0.56482 0.54621 0.33035 0.0
loop_
_geom_bond_atom_site_label_1
_geom_bond_atom_site_label_2
_geom_bond_distance
_geom_bond_site_symmetry_2
_ccdc_geom_bond_type
Zn0 O6 1.920 1_545 S
Zn0 O12 1.898 . S
Zn0 O15 1.905 1_545 S
Zn1 O9 1.905 . S
Zn1 O10 1.898 1_545 S
Zn1 O18 1.920 1_545 S
Zn2 O5 2.080 1_444 S
Zn2 O8 2.114 . S
Zn2 O11 2.120 1_545 S
Zn2 O13 2.119 1_455 S
Zn2 O14 2.114 1_554 S
Zn2 O17 2.080 . S
C3 O8 1.166 . S
C3 O9 1.182 . S
C4 O10 1.167 . S
C4 O11 1.299 . S
O5 Zn2 2.080 1_666 S
O5 C19 1.305 . S
O6 Zn0 1.920 1_565 S
O6 C19 1.234 . S
C7 O12 1.167 . S
C7 O13 1.295 1_556 S
O8 Zn2 2.114 . S
O8 C3 1.166 . S
O9 Zn1 1.905 . S
O9 C3 1.182 . S
O10 Zn1 1.898 1_565 S
O10 C4 1.167 . S
O11 Zn2 2.120 1_565 S
O11 C4 1.299 . S
O12 Zn0 1.898 . S
O12 C7 1.167 . S
O13 Zn2 2.119 1_655 S
O13 C7 1.295 1_554 S
O14 Zn2 2.114 1_556 S
O14 C16 1.167 1_545 S
O15 Zn0 1.905 1_565 S
O15 C16 1.182 1_655 S
C16 O14 1.167 1_565 S
C16 O15 1.182 1_455 S
O17 Zn2 2.080 . S
O17 C20 1.305 1_545 S
O18 Zn1 1.920 1_565 S
O18 C20 1.234 . S
C19 O5 1.305 . S
C19 O6 1.234 . S
C20 O17 1.305 1_565 S
C20 O18 1.234 . S
Zn21 O27 1.920 . S
Zn21 O33 1.898 . S
Zn21 O36 1.905 . S
Zn22 O30 1.905 . S
Zn22 O31 1.898 . S
Zn22 O39 1.920 . S
Zn23 O26 2.080 . S
Zn23 O29 2.114 . S
Zn23 O32 2.120 . S
Zn23 O34 2.120 . S
Zn23 O35 2.114 . S
Zn23 O38 2.080 . S
C24 O29 1.166 . S
C24 O30 1.182 . S
C25 O31 1.167 . S
C25 O32 1.299 . S
O26 Zn23 2.080 . S
O26 C40 1.305 . S
O27 Zn21 1.920 . S
O27 C40 1.234 . S
C28 O33 1.167 . S
C28 O34 1.299 . S
O29 Zn23 2.114 . S
O29 C24 1.166 . S
O30 Zn22 1.905 . S
O30 C24 1.182 . S
O31 Zn22 1.898 . S
O31 C25 1.167 . S
O32 Zn23 2.120 . S
O32 C25 1.299 . S
O33 Zn21 1.898 . S
O33 C28 1.167 . S
O34 Zn23 2.120 . S
O34 C28 1.299 . S
O35 Zn23 2.114 . S
O35 C37 1.166 . S
O36 Zn21 1.905 . S
O36 C37 1.182 . S
C37 O35 1.166 . S
C37 O36 1.182 . S
O38 Zn23 2.080 . S
O38 C41 1.305 . S
O39 Zn22 1.920 . S
O39 C41 1.234 . S
C40 O26 1.305 . S
C40 O27 1.234 . S
C41 O38 1.305 . S
C41 O39 1.234 . S
H42 C43 0.949 . S
C43 H42 0.949 . S
C43 C44 1.395 . S
C43 C45 1.391 . S
C44 C43 1.395 . S
C44 C47 1.390 1_545 S
C45 C43 1.391 . S
C45 C49 1.387 . S
C45 C50 1.491 . S
H46 C47 0.950 . S
C47 C44 1.390 1_565 S
C47 H46 0.950 . S
C47 C48 1.378 . S
C48 C47 1.378 . S
C48 C49 1.409 1_565 S
C49 C45 1.387 . S
C49 C48 1.409 1_545 S
C49 H51 0.951 1_545 S
C50 C45 1.491 . S
C50 C52 1.382 . S
C50 C54 1.404 . S
H51 C49 0.951 1_565 S
C52 C50 1.382 . S
C52 C53 1.390 . S
C52 H57 0.949 . S
C53 C52 1.390 . S
C53 C58 1.399 . S
C54 C50 1.404 . S
C54 H55 0.950 . S
C54 C56 1.375 . S
H55 C54 0.950 . S
C56 C54 1.375 . S
C56 C58 1.382 . S
C56 H60 0.950 . S
H57 C52 0.949 . S
C58 C53 1.399 . S
C58 C56 1.382 . S
C58 H59 0.952 . S
H59 C58 0.952 . S
H60 C56 0.950 . S
H61 C62 0.949 . S
C62 H61 0.949 . S
C62 C63 1.395 1_455 S
C62 C64 1.391 1_455 S
C63 C62 1.395 1_655 S
C63 C66 1.390 1_545 S
C64 C62 1.391 1_655 S
C64 C68 1.387 1_545 S
C64 C69 1.491 1_655 S
H65 C66 0.950 . S
C66 C63 1.390 1_565 S
C66 H65 0.950 . S
C66 C67 1.378 . S
C67 C66 1.378 . S
C67 C68 1.409 . S
C68 C64 1.387 1_565 S
C68 C67 1.409 . S
C68 H70 0.951 . S
C69 C64 1.491 1_455 S
C69 C71 1.382 . S
C69 C73 1.404 1_455 S
H70 C68 0.951 . S
C71 C69 1.382 . S
C71 C72 1.390 . S
C71 H76 0.949 . S
C72 C71 1.390 . S
C72 C77 1.399 . S
C73 C69 1.404 1_655 S
C73 H74 0.950 . S
C73 C75 1.375 . S
H74 C73 0.950 . S
C75 C73 1.375 . S
C75 C77 1.382 1_655 S
C75 H79 0.950 . S
H76 C71 0.949 . S
C77 C72 1.399 . S
C77 C75 1.382 1_455 S
C77 H78 0.952 . S
H78 C77 0.952 . S
H79 C75 0.950 . S
H80 C81 0.949 . S
C81 H80 0.949 . S
C81 C82 1.395 . S
C81 C83 1.391 . S
C82 C81 1.395 . S
C82 C85 1.390 . S
C83 C81 1.391 . S
C83 C87 1.387 . S
C83 C88 1.491 . S
H84 C85 0.950 . S
C85 C82 1.390 . S
C85 H84 0.950 . S
C85 C86 1.378 . S
C86 C85 1.378 . S
C86 C87 1.409 . S
C87 C83 1.387 . S
C87 C86 1.409 . S
C87 H89 0.951 . S
C88 C83 1.491 . S
C88 C90 1.382 . S
C88 C92 1.404 1_556 S
H89 C87 0.951 . S
C90 C88 1.382 . S
C90 C91 1.390 . S
C90 H95 0.949 . S
C91 C90 1.390 . S
C91 C96 1.399 1_556 S
C92 C88 1.404 1_554 S
C92 H93 0.950 . S
C92 C94 1.375 . S
H93 C92 0.950 . S
C94 C92 1.375 . S
C94 C96 1.382 . S
C94 H98 0.950 . S
H95 C90 0.949 . S
C96 C91 1.399 1_554 S
C96 C94 1.382 . S
C96 H97 0.952 . S
H97 C96 0.952 . S
H98 C94 0.950 . S
H99 C100 0.949 . S
C100 H99 0.949 . S
C100 C101 1.395 . S
C100 C102 1.391 . S
C101 C100 1.395 . S
C101 C104 1.390 . S
C102 C100 1.391 . S
C102 C106 1.387 . S
C102 C107 1.491 . S
H103 C104 0.950 . S
C104 C101 1.390 . S
C104 H103 0.950 . S
C104 C105 1.378 . S
C105 C104 1.378 . S
C105 C106 1.409 . S
C106 C102 1.387 . S
C106 C105 1.409 . S
C106 H108 0.951 . S
C107 C102 1.491 . S
C107 C109 1.382 . S
C107 C111 1.404 . S
H108 C106 0.951 . S
C109 C107 1.382 . S
C109 C110 1.390 . S
C109 H114 0.949 . S
C110 C109 1.390 . S
C110 C115 1.399 1_554 S
C111 C107 1.404 . S
C111 H112 0.950 1_554 S
C111 C113 1.375 1_554 S
H112 C111 0.950 1_556 S
C113 C111 1.375 1_556 S
C113 C115 1.382 . S
C113 H117 0.950 . S
H114 C109 0.949 . S
C115 C110 1.399 1_556 S
C115 C113 1.382 . S
C115 H116 0.952 . S
H116 C115 0.952 . S
H117 C113 0.950 . S
H118 C124 0.930 . S
H119 C128 0.930 . S
H120 C133 0.929 . S
H121 C131 0.929 . S
H122 C126 0.929 1_556 S
H123 C132 0.929 . S
C124 H118 0.930 . S
C124 C125 1.367 . S
C124 C132 1.378 . S
C125 C124 1.367 . S
C125 C133 1.433 1_554 S
C126 H122 0.929 1_554 S
C126 C128 1.378 . S
C126 C130 1.350 . S
C127 C130 1.463 . S
C127 C132 1.350 . S
C127 N135 1.427 . S
C128 H119 0.930 . S
C128 C126 1.378 . S
C128 C129 1.367 . S
C129 C128 1.367 . S
C129 C131 1.433 . S
C130 C126 1.350 . S
C130 C127 1.463 . S
C130 N134 1.427 . S
C131 H121 0.929 . S
C131 C129 1.433 . S
C131 N134 1.384 . S
C132 H123 0.929 . S
C132 C124 1.378 . S
C132 C127 1.350 . S
C133 H120 0.929 . S
C133 C125 1.433 1_556 S
C133 N135 1.384 1_556 S
N134 C130 1.427 . S
N134 C131 1.384 . S
N135 C127 1.427 . S
N135 C133 1.384 1_554 S
H136 C142 0.930 . S
H137 C146 0.930 . S
H138 C151 0.929 . S
H139 C149 0.929 . S
H140 C144 0.929 . S
H141 C150 0.929 . S
C142 H136 0.930 . S
C142 C143 1.367 . S
C142 C150 1.378 . S
C143 C142 1.367 . S
C143 C151 1.433 1_556 S
C144 H140 0.929 . S
C144 C146 1.378 . S
C144 C148 1.350 1_554 S
C145 C148 1.463 . S
C145 C150 1.350 . S
C145 N153 1.427 1_556 S
C146 H137 0.930 . S
C146 C144 1.378 . S
C146 C147 1.367 1_554 S
C147 C146 1.367 1_556 S
C147 C149 1.433 . S
C148 C144 1.350 1_556 S
C148 C145 1.463 . S
C148 N152 1.427 . S
C149 H139 0.929 . S
C149 C147 1.433 . S
C149 N152 1.384 . S
C150 H141 0.929 . S
C150 C142 1.378 . S
C150 C145 1.350 . S
C151 H138 0.929 . S
C151 C143 1.433 1_554 S
C151 N153 1.384 . S
N152 C148 1.427 . S
N152 C149 1.384 . S
N153 C145 1.427 1_554 S
N153 C151 1.384 . S
H154 C160 0.930 . S
H155 C164 0.930 . S
H156 C169 0.929 . S
H157 C167 0.929 1_556 S
H158 C162 0.929 . S
H159 C168 0.929 . S
C160 H154 0.930 . S
C160 C161 1.367 1_556 S
C160 C168 1.378 . S
C161 C160 1.367 1_554 S
C161 C169 1.433 . S
C162 H158 0.929 . S
C162 C164 1.378 . S
C162 C166 1.350 . S
C163 C166 1.463 . S
C163 C168 1.350 1_554 S
C163 N171 1.427 . S
C164 H155 0.930 . S
C164 C162 1.378 . S
C164 C165 1.367 . S
C165 C164 1.367 . S
C165 C167 1.433 . S
C166 C162 1.350 . S
C166 C163 1.463 . S
C166 N170 1.427 . S
C167 H157 0.929 1_554 S
C167 C165 1.433 . S
C167 N170 1.384 . S
C168 H159 0.929 . S
C168 C160 1.378 . S
C168 C163 1.350 1_556 S
C169 H156 0.929 . S
C169 C161 1.433 . S
C169 N171 1.384 . S
N170 C166 1.427 . S
N170 C167 1.384 . S
N171 C163 1.427 . S
N171 C169 1.384 . S
H172 C178 0.930 . S
H173 C182 0.930 . S
H174 C187 0.929 . S
H175 C185 0.929 1_554 S
H176 C180 0.929 . S
H177 C186 0.929 . S
C178 H172 0.930 . S
C178 C179 1.367 1_554 S
C178 C186 1.378 . S
C179 C178 1.367 1_556 S
C179 C187 1.433 . S
C180 H176 0.929 . S
C180 C182 1.378 . S
C180 C184 1.350 . S
C181 C184 1.463 . S
C181 C186 1.350 1_556 S
C181 N189 1.427 . S
C182 H173 0.930 . S
C182 C180 1.378 . S
C182 C183 1.367 . S
C183 C182 1.367 . S
C183 C185 1.433 . S
C184 C180 1.350 . S
C184 C181 1.463 . S
C184 N188 1.427 . S
C185 H175 0.929 1_556 S
C185 C183 1.433 . S
C185 N188 1.384 . S
C186 H177 0.929 . S
C186 C178 1.378 . S
C186 C181 1.350 1_554 S
C187 H174 0.929 . S
C187 C179 1.433 . S
C187 N189 1.384 . S
N188 C184 1.427 . S
N188 C185 1.384 . S
N189 C181 1.427 . S
N189 C187 1.384 . S
H190 C196 0.930 . S
H191 C200 0.930 . S
H192 C205 0.929 . S
H193 C203 0.929 . S
H194 C198 0.929 . S
H195 C204 0.929 . S
C196 H190 0.930 . S
C196 C197 1.367 . S
C196 C204 1.378 . S
C197 C196 1.367 . S
C197 C205 1.433 . S
C198 H194 0.929 . S
C198 C200 1.378 . S
C198 C202 1.350 . S
C199 C202 1.463 . S
C199 C204 1.350 . S
C199 N207 1.427 . S
C200 H191 0.930 . S
C200 C198 1.378 . S
C200 C201 1.367 . S
C201 C200 1.367 . S
C201 C203 1.433 . S
C202 C198 1.350 . S
C202 C199 1.463 . S
C202 N206 1.427 . S
C203 H193 0.929 . S
C203 C201 1.433 . S
C203 N206 1.384 . S
C204 H195 0.929 . S
C204 C196 1.378 . S
C204 C199 1.350 . S
C205 H192 0.929 . S
C205 C197 1.433 . S
C205 N207 1.384 . S
N206 C202 1.427 . S
N206 C203 1.384 . S
N207 C199 1.427 . S
N207 C205 1.384 . S
H208 C214 0.930 . S
H209 C218 0.930 1_455 S
H210 C223 0.929 . S
H211 C221 0.929 . S
H212 C216 0.929 . S
H213 C222 0.929 . S
C214 H208 0.930 . S
C214 C215 1.367 . S
C214 C222 1.378 . S
C215 C214 1.367 . S
C215 C223 1.433 . S
C216 H212 0.929 . S
C216 C218 1.378 . S
C216 C220 1.350 . S
C217 C220 1.463 . S
C217 C222 1.350 . S
C217 N225 1.427 . S
C218 H209 0.930 1_655 S
C218 C216 1.378 . S
C218 C219 1.367 . S
C219 C218 1.367 . S
C219 C221 1.433 . S
C220 C216 1.350 . S
C220 C217 1.463 . S
C220 N224 1.427 . S
C221 H211 0.929 . S
C221 C219 1.433 . S
C221 N224 1.384 . S
C222 H213 0.929 . S
C222 C214 1.378 . S
C222 C217 1.350 . S
C223 H210 0.929 . S
C223 C215 1.433 . S
C223 N225 1.384 . S
N224 C220 1.427 . S
N224 C221 1.384 . S
N225 C217 1.427 . S
N225 C223 1.384 . S
H226 C232 0.930 . S
H227 C236 0.930 . S
H228 C241 0.929 . S
H229 C239 0.929 . S
H230 C234 0.929 . S
H231 C240 0.929 . S
C232 H226 0.930 . S
C232 C233 1.367 . S
C232 C240 1.378 . S
C233 C232 1.367 . S
C233 C241 1.433 . S
C234 H230 0.929 . S
C234 C236 1.378 . S
C234 C238 1.350 . S
C235 C238 1.463 . S
C235 C240 1.350 . S
C235 N243 1.427 . S
C236 H227 0.930 . S
C236 C234 1.378 . S
C236 C237 1.367 . S
C237 C236 1.367 . S
C237 C239 1.433 . S
C238 C234 1.350 . S
C238 C235 1.463 . S
C238 N242 1.427 . S
C239 H229 0.929 . S
C239 C237 1.433 . S
C239 N242 1.384 . S
C240 H231 0.929 . S
C240 C232 1.378 . S
C240 C235 1.350 . S
C241 H228 0.929 . S
C241 C233 1.433 . S
C241 N243 1.384 . S
N242 C238 1.427 . S
N242 C239 1.384 . S
N243 C235 1.427 . S
N243 C241 1.384 . S
H244 C250 0.930 . S
H245 C254 0.930 . S
H246 C259 0.929 . S
H247 C257 0.929 . S
H248 C252 0.929 . S
H249 C258 0.929 . S
C250 H244 0.930 . S
C250 C251 1.367 . S
C250 C258 1.378 . S
C251 C250 1.367 . S
C251 C259 1.433 . S
C252 H248 0.929 . S
C252 C254 1.378 . S
C252 C256 1.350 . S
C253 C256 1.463 . S
C253 C258 1.350 . S
C253 N261 1.427 . S
C254 H245 0.930 . S
C254 C252 1.378 . S
C254 C255 1.367 . S
C255 C254 1.367 . S
C255 C257 1.433 . S
C256 C252 1.350 . S
C256 C253 1.463 . S
C256 N260 1.427 . S
C257 H247 0.929 . S
C257 C255 1.433 . S
C257 N260 1.384 . S
C258 H249 0.929 . S
C258 C250 1.378 . S
C258 C253 1.350 . S
C259 H246 0.929 . S
C259 C251 1.433 . S
C259 N261 1.384 . S
N260 C256 1.427 . S
N260 C257 1.384 . S
N261 C253 1.427 . S
N261 C259 1.384 . S
H262 C268 0.930 . S
H263 C272 0.930 . S
H264 C277 0.929 . S
H265 C275 0.929 . S
H266 C270 0.929 . S
H267 C276 0.929 . S
C268 H262 0.930 . S
C268 C269 1.367 1_545 S
C268 C276 1.378 . S
C269 C268 1.367 1_565 S
C269 C277 1.433 . S
C270 H266 0.929 . S
C270 C272 1.378 . S
C270 C274 1.350 1_565 S
C271 C274 1.463 1_565 S
C271 C276 1.350 1_565 S
C271 N279 1.427 . S
C272 H263 0.930 . S
C272 C270 1.378 . S
C272 C273 1.367 1_565 S
C273 C272 1.367 1_545 S
C273 C275 1.433 . S
C274 C270 1.350 1_545 S
C274 C271 1.463 1_545 S
C274 N278 1.427 . S
C275 H265 0.929 . S
C275 C273 1.433 . S
C275 N278 1.384 . S
C276 H267 0.929 . S
C276 C268 1.378 . S
C276 C271 1.350 1_545 S
C277 H264 0.929 . S
C277 C269 1.433 . S
C277 N279 1.384 . S
N278 C274 1.427 . S
N278 C275 1.384 . S
N279 C271 1.427 . S
N279 C277 1.384 . S
H280 C286 0.930 . S
H281 C290 0.930 . S
H282 C295 0.929 . S
H283 C293 0.929 . S
H284 C288 0.929 . S
H285 C294 0.929 . S
C286 H280 0.930 . S
C286 C287 1.367 1_545 S
C286 C294 1.378 . S
C287 C286 1.367 1_565 S
C287 C295 1.433 1_455 S
C288 H284 0.929 . S
C288 C290 1.378 . S
C288 C292 1.356 1_565 S
C289 C292 1.465 1_465 S
C289 C294 1.350 1_565 S
C289 N297 1.427 1_455 S
C290 H281 0.930 . S
C290 C288 1.378 . S
C290 C291 1.367 1_565 S
C291 C290 1.367 1_545 S
C291 C293 1.433 1_655 S
C292 C288 1.356 1_545 S
C292 C289 1.465 1_645 S
C292 N296 1.419 1_655 S
C293 H283 0.929 . S
C293 C291 1.433 1_455 S
C293 N296 1.384 . S
C294 H285 0.929 . S
C294 C286 1.378 . S
C294 C289 1.350 1_545 S
C295 H282 0.929 . S
C295 C287 1.433 1_655 S
C295 N297 1.384 . S
N296 C292 1.419 1_455 S
N296 C293 1.384 . S
N297 C289 1.427 1_655 S
N297 C295 1.384 . S
H298 C304 0.930 . S
H299 C308 0.930 . S
H300 C313 0.929 . S
H301 C311 0.929 . S
H302 C306 0.929 . S
H303 C312 0.929 . S
C304 H298 0.930 . S
C304 C305 1.367 . S
C304 C312 1.378 . S
C305 C304 1.367 . S
C305 C313 1.433 . S
C306 H302 0.929 . S
C306 C308 1.378 . S
C306 C310 1.350 . S
C307 C310 1.463 . S
C307 C312 1.350 . S
C307 N315 1.427 . S
C308 H299 0.930 . S
C308 C306 1.378 . S
C308 C309 1.367 . S
C309 C308 1.367 . S
C309 C311 1.433 . S
C310 C306 1.350 . S
C310 C307 1.463 . S
C310 N314 1.427 . S
C311 H301 0.929 . S
C311 C309 1.433 . S
C311 N314 1.384 . S
C312 H303 0.929 . S
C312 C304 1.378 . S
C312 C307 1.350 . S
C313 H300 0.929 . S
C313 C305 1.433 . S
C313 N315 1.384 . S
N314 C310 1.427 . S
N314 C311 1.384 . S
N315 C307 1.427 . S
N315 C313 1.384 . S
H316 C322 0.930 . S
H317 C326 0.930 . S
H318 C331 0.929 . S
H319 C329 0.929 . S
H320 C324 0.929 . S
H321 C330 0.929 . S
C322 H316 0.930 . S
C322 C323 1.367 . S
C322 C330 1.378 . S
C323 C322 1.367 . S
C323 C331 1.433 . S
C324 H320 0.929 . S
C324 C326 1.378 . S
C324 C328 1.350 . S
C325 C328 1.463 . S
C325 C330 1.350 . S
C325 N333 1.427 . S
C326 H317 0.930 . S
C326 C324 1.378 . S
C326 C327 1.367 . S
C327 C326 1.367 . S
C327 C329 1.433 . S
C328 C324 1.350 . S
C328 C325 1.463 . S
C328 N332 1.427 . S
C329 H319 0.929 . S
C329 C327 1.433 . S
C329 N332 1.384 . S
C330 H321 0.929 . S
C330 C322 1.378 . S
C330 C325 1.350 . S
C331 H318 0.929 . S
C331 C323 1.433 . S
C331 N333 1.384 . S
N332 C328 1.427 . S
N332 C329 1.384 . S
N333 C325 1.427 . S
N333 C331 1.384 . S
C129 C105 1.396 . S
C125 C3 1.283 . S
C143 C4 1.436 1_556 S
C147 C91 1.500 . S
C161 C19 1.451 1_554 S
C165 C110 1.516 . S
C179 C7 1.302 . S
C183 C86 1.399 . S
C197 C37 1.298 . S
C201 C67 1.388 . S
C215 C28 1.436 . S
C219 C53 1.499 1_655 S
C237 C72 1.519 . S
C233 C41 1.447 . S
C255 C48 1.406 . S
C251 C25 1.300 . S
C269 C20 1.388 . S
C273 C44 1.509 . S
C287 C16 1.442 . S
C291 C63 1.551 . S
C309 C82 1.518 . S
C305 C40 1.391 . S
C323 C24 1.438 . S
C327 C101 1.559 . S
