# Generated by pormake.
# Topology pth, (4,4)-cn, num edge types: 1
# Building blocks:
#     Node 0, Type 0, BuildingBlock: QUQFOY_clean_sbu_3, # of connection points: 4
#     Node 1, Type 0, BuildingBlock: QUQFOY_clean_sbu_3, # of connection points: 4
#     Node 2, Type 0, BuildingBlock: QUQFOY_clean_sbu_3, # of connection points: 4
#     Node 3, Type 1, BuildingBlock: AZAVOO_clean_linker_0, # of connection points: 4
#     Node 4, Type 1, BuildingBlock: AZAVOO_clean_linker_0, # of connection points: 4
#     Node 5, Type 1, BuildingBlock: AZAVOO_clean_linker_0, # of connection points: 4
#     Edge 6, Type (0, 1), BuildingBlock: FUNLAD_clean_linker_0, # of connection points: 2
#     Edge 7, Type (0, 1), BuildingBlock: FUNLAD_clean_linker_0, # of connection points: 2
#     Edge 8, Type (0, 1), BuildingBlock: FUNLAD_clean_linker_0, # of connection points: 2
#     Edge 9, Type (0, 1), BuildingBlock: FUNLAD_clean_linker_0, # of connection points: 2
#     Edge 10, Type (0, 1), BuildingBlock: FUNLAD_clean_linker_0, # of connection points: 2
#     Edge 11, Type (0, 1), BuildingBlock: FUNLAD_clean_linker_0, # of connection points: 2
#     Edge 12, Type (0, 1), BuildingBlock: FUNLAD_clean_linker_0, # of connection points: 2
#     Edge 13, Type (0, 1), BuildingBlock: FUNLAD_clean_linker_0, # of connection points: 2
#     Edge 14, Type (0, 1), BuildingBlock: FUNLAD_clean_linker_0, # of connection points: 2
#     Edge 15, Type (0, 1), BuildingBlock: FUNLAD_clean_linker_0, # of connection points: 2
#     Edge 16, Type (0, 1), BuildingBlock: FUNLAD_clean_linker_0, # of connection points: 2
#     Edge 17, Type (0, 1), BuildingBlock: FUNLAD_clean_linker_0, # of connection points: 2
# Relax obj value: 0.103
# Max RMSD: 0.224
# Mean RMSD: 0.148
data_MOF--net-pth--node1-QUQFOY_clean_sbu_3--node2-AZAVOO_clean_linker_0--edge1-FUNLAD_clean_linker_0
_symmetry_space_group_name_H-M    P1
_symmetry_Int_Tables_number       1
_symmetry_cell_setting            triclinic
loop_
_symmetry_equiv_pos_as_xyz
'x, y, z'
_cell_length_a     29.964419
_cell_length_b     30.040234
_cell_length_c     82.671119
_cell_angle_alpha  92.350019
_cell_angle_beta   89.634358
_cell_angle_gamma 120.8338
loop_
_atom_site_label
_atom_site_type_symbol
_atom_site_fract_x
_atom_site_fract_y
_atom_site_fract_z
_atom_type_partial_charge
C0 C 0.98997 0.10456 0.10914 0.0
O1 O 0.96351 0.10833 0.09792 0.0
Cd2 Cd 0.97023 0.0907 0.06984 0.0
O3 O 0.02196 0.08954 0.10593 0.0
Cd4 Cd 0.0515 0.05864 0.0823 0.0
C5 C 0.10118 0.17135 0.06316 0.0
O6 O 0.96819 0.0104 0.06854 0.0
O7 O 0.03312 0.01878 0.05473 0.0
O8 O 0.04465 0.98811 0.09712 0.0
C9 C 0.98448 0.00023 0.05556 0.0
O10 O 0.05432 0.15945 0.06071 0.0
C11 C 0.09265 0.00306 0.09707 0.0
O12 O 0.11157 0.14286 0.07145 0.0
O13 O 0.12261 0.04474 0.09002 0.0
C14 C 0.12685 0.10948 0.41393 0.0
O15 O 0.14365 0.12784 0.40017 0.0
Cd16 Cd 0.08474 0.11352 0.37842 0.0
O17 O 0.07828 0.08524 0.41671 0.0
Cd18 Cd 0.99243 0.05801 0.40461 0.0
C19 C 0.01045 0.97914 0.37875 0.0
O20 O 0.02485 0.13586 0.38981 0.0
O21 O 0.94503 0.07733 0.38451 0.0
O22 O 0.97818 0.08177 0.43168 0.0
C23 C 0.98313 0.1223 0.3821 0.0
O24 O 0.04492 0.02047 0.37232 0.0
C25 C 0.93179 0.04421 0.43261 0.0
O26 O 0.98548 0.98112 0.391 0.0
O27 O 0.91333 0.01239 0.42046 0.0
C28 C 0.96586 0.124 0.72379 0.0
O29 O 0.97619 0.15629 0.73562 0.0
Cd30 Cd 0.03232 0.16761 0.75776 0.0
O31 O 0.98708 0.09649 0.72289 0.0
Cd32 Cd 0.05147 0.08628 0.73859 0.0
C33 C 0.97082 0.04213 0.77013 0.0
O34 O 0.11001 0.17782 0.74598 0.0
O35 O 0.12118 0.12373 0.75911 0.0
O36 O 0.08508 0.07667 0.71261 0.0
C37 C 0.13719 0.17043 0.75596 0.0
O38 O 0.9845 0.08934 0.77331 0.0
C39 C 0.09049 0.0393 0.71658 0.0
O40 O 0.98676 0.02934 0.75747 0.0
O41 O 0.07619 0.02262 0.73066 0.0
H42 H 0.01583 0.43961 0.1359 0.0
H43 H 0.15228 0.89538 0.26849 0.0
H44 H 0.92875 0.42841 0.23444 0.0
H45 H 0.90316 0.33926 0.22613 0.0
H46 H 0.06323 0.39041 0.21502 0.0
H47 H 0.08856 0.47877 0.22409 0.0
H48 H 0.96313 0.48333 0.20052 0.0
H49 H 0.96956 0.45536 0.17283 0.0
H50 H 0.13701 0.55229 0.17618 0.0
H51 H 0.13004 0.57944 0.20394 0.0
H52 H -0.00171 0.59976 0.19889 0.0
H53 H 0.0277 0.65791 0.17635 0.0
H54 H 0.18091 0.74642 0.19842 0.0
H55 H 0.15121 0.68728 0.22094 0.0
H56 H -0.00061 0.66543 0.23041 0.0
H57 H 0.02104 0.75466 0.23684 0.0
H58 H 0.15243 0.78025 0.26584 0.0
H59 H 0.13072 0.6912 0.25916 0.0
H60 H 0.95842 0.60295 0.26234 0.0
H61 H 0.95118 0.63876 0.28859 0.0
H62 H 0.08121 0.62991 0.30688 0.0
H63 H 0.08912 0.59561 0.28029 0.0
H64 H 0.9298 0.48109 0.26594 0.0
H65 H 0.90458 0.41302 0.28552 0.0
H66 H 0.05647 0.43002 0.28158 0.0
H67 H 0.08081 0.49704 0.262 0.0
O68 O 0.01421 0.45102 0.14689 0.0
O69 O 0.10013 0.5016 0.14921 0.0
O70 O 0.07525 0.84508 0.25051 0.0
O71 O 0.143 0.86005 0.26568 0.0
C72 C 0.02497 0.51451 0.23349 0.0
C73 C 0.042 0.55022 0.22105 0.0
C74 C 0.05505 0.60196 0.22461 0.0
C75 C 0.05004 0.61762 0.24053 0.0
C76 C 0.03229 0.58151 0.25292 0.0
C77 C 0.02087 0.53039 0.24945 0.0
C78 C 0.0104 0.45998 0.22972 0.0
C79 C 0.95833 0.42001 0.23052 0.0
C80 C 0.94378 0.36924 0.22568 0.0
C81 C 0.98107 0.35774 0.21981 0.0
C82 C 0.03359 0.39769 0.21968 0.0
C83 C 0.04812 0.44833 0.22466 0.0
C84 C 0.04611 0.53334 0.20422 0.0
C85 C 0.00116 0.49827 0.19526 0.0
C86 C 0.00495 0.48248 0.17944 0.0
C87 C 0.0538 0.50162 0.17228 0.0
C88 C 0.09879 0.53682 0.18132 0.0
C89 C 0.09494 0.55247 0.19716 0.0
C90 C 0.07269 0.63922 0.21147 0.0
C91 C 0.03824 0.63158 0.19883 0.0
C92 C 0.05519 0.66458 0.18594 0.0
C93 C 0.10678 0.70621 0.18556 0.0
C94 C 0.14099 0.71456 0.19844 0.0
C95 C 0.1241 0.68104 0.21127 0.0
C96 C 0.06353 0.67194 0.2443 0.0
C97 C 0.03299 0.69049 0.23807 0.0
C98 C 0.04537 0.7414 0.2418 0.0
C99 C 0.08848 0.7746 0.25187 0.0
C100 C 0.11898 0.75576 0.25807 0.0
C101 C 0.10664 0.7049 0.25429 0.0
C102 C 0.02453 0.59719 0.26942 0.0
C103 C 0.98488 0.60818 0.27209 0.0
C104 C 0.98053 0.62814 0.28715 0.0
C105 C 0.0157 0.63727 0.29983 0.0
C106 C 0.0539 0.62382 0.2973 0.0
C107 C 0.05832 0.604 0.28219 0.0
C108 C 0.00699 0.49362 0.26256 0.0
C109 C 0.95766 0.4704 0.26952 0.0
C110 C 0.94338 0.43164 0.28064 0.0
C111 C 0.9783 0.4157 0.28487 0.0
C112 C 0.02832 0.44064 0.27828 0.0
C113 C 0.04248 0.47919 0.26722 0.0
C114 C 0.05766 0.48488 0.15545 0.0
C115 C 0.10167 0.82863 0.25594 0.0
H116 H 0.57426 0.02178 0.46852 0.0
H117 H 0.23571 0.09255 0.5951 0.0
H118 H 0.5547 0.96348 0.55828 0.0
H119 H 0.63014 0.96614 0.54557 0.0
H120 H 0.71931 0.1323 0.5544 0.0
H121 H 0.64403 0.12914 0.56755 0.0
H122 H 0.47822 0.97348 0.53219 0.0
H123 H 0.50756 0.97862 0.50425 0.0
H124 H 0.62233 0.14088 0.51344 0.0
H125 H 0.59217 0.13524 0.54128 0.0
H126 H 0.37695 0.97452 0.5473 0.0
H127 H 0.32456 0.98232 0.52625 0.0
H128 H 0.44246 0.14391 0.52216 0.0
H129 H 0.49472 0.13548 0.54314 0.0
H130 H 0.36045 0.96281 0.5843 0.0
H131 H 0.28154 0.96348 0.59164 0.0
H132 H 0.36022 0.12777 0.58339 0.0
H133 H 0.43909 0.12665 0.57631 0.0
H134 H 0.43565 0.94997 0.60379 0.0
H135 H 0.38611 0.93308 0.62883 0.0
H136 H 0.43701 0.09597 0.63459 0.0
H137 H 0.4861 0.11239 0.60954 0.0
H138 H 0.54713 0.96317 0.59123 0.0
H139 H 0.60869 0.96621 0.61125 0.0
H140 H 0.64767 0.12138 0.62685 0.0
H141 H 0.58744 0.11851 0.60644 0.0
O142 O 0.56291 0.02072 0.47956 0.0
O143 O 0.62156 0.10387 0.48497 0.0
O144 O 0.22785 0.00682 0.59651 0.0
O145 O 0.26635 0.09116 0.59225 0.0
C146 C 0.54611 0.04576 0.56814 0.0
C147 C 0.51645 0.05008 0.55578 0.0
C148 C 0.47046 0.0498 0.55963 0.0
C149 C 0.45371 0.04453 0.57579 0.0
C150 C 0.48336 0.03995 0.58813 0.0
C151 C 0.52985 0.04111 0.58434 0.0
C152 C 0.5942 0.0461 0.56382 0.0
C153 C 0.59114 0.00012 0.55801 0.0
C154 C 0.6341 0.0017 0.55079 0.0
C155 C 0.68021 0.04944 0.54903 0.0
C156 C 0.68407 0.09509 0.55568 0.0
C157 C 0.64137 0.09334 0.56319 0.0
C158 C 0.53323 0.05392 0.53872 0.0
C159 C 0.5095 0.01011 0.52809 0.0
C160 C 0.52643 0.01317 0.51217 0.0
C161 C 0.56741 0.06014 0.50662 0.0
C162 C 0.59076 0.1041 0.51732 0.0
C163 C 0.57367 0.101 0.53322 0.0
C164 C 0.43944 0.05444 0.54669 0.0
C165 C 0.39134 0.01152 0.54183 0.0
C166 C 0.36148 0.01614 0.52988 0.0
C167 C 0.37938 0.06379 0.5226 0.0
C168 C 0.42795 0.10659 0.52742 0.0
C169 C 0.45772 0.10193 0.5394 0.0
C170 C 0.40544 0.04471 0.57984 0.0
C171 C 0.36056 -0.0011 0.58414 0.0
C172 C 0.31555 -0.00061 0.58829 0.0
C173 C 0.31459 0.04573 0.58811 0.0
C174 C 0.35963 0.09146 0.58367 0.0
C175 C 0.40467 0.09093 0.57958 0.0
C176 C 0.4642 0.03232 0.60491 0.0
C177 C 0.43734 0.98216 0.61076 0.0
C178 C 0.40886 0.97255 0.62495 0.0
C179 C 0.40753 0.01318 0.63354 0.0
C180 C 0.43776 0.06405 0.62828 0.0
C181 C 0.46574 0.07351 0.614 0.0
C182 C 0.56322 0.04074 0.59737 0.0
C183 C 0.56893 -0.00233 0.59903 0.0
C184 C 0.6038 -0.00062 0.61052 0.0
C185 C 0.63334 0.04421 0.62055 0.0
C186 C 0.62619 0.08666 0.61912 0.0
C187 C 0.5915 0.08495 0.6076 0.0
C188 C 0.58572 0.06312 0.48975 0.0
C189 C 0.26691 0.04651 0.59255 0.0
H190 H 0.55053 0.66474 0.01548 0.0
H191 H 0.2634 0.26437 0.87714 0.0
H192 H 0.56786 0.71193 0.92956 0.0
H193 H 0.64171 0.78281 0.94472 0.0
H194 H 0.73663 0.71829 0.93026 0.0
H195 H 0.66269 0.64806 0.91493 0.0
H196 H 0.47742 0.61899 0.94802 0.0
H197 H 0.49594 0.6406 0.97701 0.0
H198 H 0.62385 0.6129 0.97332 0.0
H199 H 0.6044 0.59067 0.94441 0.0
H200 H 0.38657 0.52534 0.9266 0.0
H201 H 0.32777 0.47301 0.94777 0.0
H202 H 0.44028 0.43337 0.96311 0.0
H203 H 0.49883 0.48576 0.94182 0.0
H204 H 0.38663 0.52155 0.88982 0.0
H205 H 0.31103 0.44091 0.87927 0.0
H206 H 0.38161 0.35503 0.89494 0.0
H207 H 0.45734 0.43612 0.90522 0.0
H208 H 0.46678 0.60897 0.87324 0.0
H209 H 0.43174 0.577 0.84571 0.0
H210 H 0.48922 0.47134 0.84616 0.0
H211 H 0.52358 0.50308 0.87371 0.0
H212 H 0.56062 0.70755 0.89241 0.0
H213 H 0.61979 0.77279 0.87388 0.0
H214 H 0.68337 0.6759 0.86054 0.0
H215 H 0.623 0.61036 0.87888 0.0
O216 O 0.54363 0.65567 0.00402 0.0
O217 O 0.60932 0.64151 0.00144 0.0
O218 O 0.25845 0.34286 0.87327 0.0
O219 O 0.29279 0.29683 0.88123 0.0
C220 C 0.56313 0.62669 0.91529 0.0
C221 C 0.52885 0.59122 0.92649 0.0
C222 C 0.48409 0.54491 0.92089 0.0
C223 C 0.47409 0.53379 0.9041 0.0
C224 C 0.5086 0.56942 0.89295 0.0
C225 C 0.55282 0.61602 0.89854 0.0
C226 C 0.61005 0.67486 0.92133 0.0
C227 C 0.60506 0.71406 0.92932 0.0
C228 C 0.64709 0.7542 0.93802 0.0
C229 C 0.69464 0.75556 0.93887 0.0
C230 C 0.70059 0.71842 0.92976 0.0
C231 C 0.65847 0.67828 0.92102 0.0
C232 C 0.53955 0.60326 0.94415 0.0
C233 C 0.5092 0.61731 0.95354 0.0
C234 C 0.51998 0.62978 0.97007 0.0
C235 C 0.56144 0.62856 0.97748 0.0
C236 C 0.59167 0.61428 0.968 0.0
C237 C 0.5807 0.60162 0.95149 0.0
C238 C 0.44682 0.50921 0.9327 0.0
C239 C 0.39808 0.50463 0.93437 0.0
C240 C 0.36464 0.4748 0.94646 0.0
C241 C 0.3796 0.44934 0.95713 0.0
C242 C 0.42806 0.45313 0.95518 0.0
C243 C 0.46133 0.48269 0.94301 0.0
C244 C 0.42752 0.48463 0.89818 0.0
C245 C 0.38575 0.48529 0.8909 0.0
C246 C 0.34258 0.43917 0.88492 0.0
C247 C 0.34032 0.3915 0.88624 0.0
C248 C 0.38212 0.39104 0.89371 0.0
C249 C 0.42535 0.43724 0.89963 0.0
C250 C 0.49727 0.55797 0.8754 0.0
C251 C 0.47303 0.57999 0.86719 0.0
C252 C 0.45303 0.5617 0.85154 0.0
C253 C 0.45777 0.52172 0.8439 0.0
C254 C 0.48561 0.50259 0.85173 0.0
C255 C 0.50499 0.52043 0.86745 0.0
C256 C 0.58771 0.65445 0.88694 0.0
C257 C 0.58725 0.70047 0.88542 0.0
C258 C 0.62128 0.73775 0.87491 0.0
C259 C 0.65653 0.72967 0.8658 0.0
C260 C 0.65634 0.68306 0.86725 0.0
C261 C 0.62212 0.6457 0.87774 0.0
C262 C 0.57306 0.64225 -0.00498 0.0
C263 C 0.29465 0.34241 0.87984 0.0
C264 C 0.9449 0.12946 0.12995 0.0
C265 C 0.98421 0.11872 0.12603 0.0
C266 C 0.94139 0.14627 0.14562 0.0
C267 C 0.97712 0.15262 0.15778 0.0
C268 C 0.01561 0.14067 0.15397 0.0
C269 C 0.01892 0.12348 0.13828 0.0
C270 C 0.97953 0.17818 0.17375 0.0
C271 C 0.93845 0.1786 0.18028 0.0
C272 C 0.94455 0.21769 0.19298 0.0
C273 C 0.91064 0.23683 0.19252 0.0
C274 C 0.9209 0.28072 0.20195 0.0
C275 C 0.96498 0.30593 0.21223 0.0
H276 H 0.01191 0.22507 0.20538 0.0
C277 C -0.00374 0.2839 0.21379 0.0
C278 C 0.98615 0.24012 0.20425 0.0
H279 H 0.02966 0.3016 0.22195 0.0
H280 H 0.9175 0.12614 0.12081 0.0
H281 H 0.91221 0.15669 0.14786 0.0
H282 H 0.04401 0.14588 0.16305 0.0
H283 H 0.04967 0.1155 0.13566 0.0
H284 H 0.01776 0.20143 0.17941 0.0
H285 H 0.90026 0.15496 0.17462 0.0
H286 H 0.87809 0.22001 0.18402 0.0
H287 H 0.89609 0.29671 0.20037 0.0
C288 C 0.92456 0.06639 0.46156 0.0
C289 C 0.90032 0.03932 0.44694 0.0
C290 C 0.89483 0.06494 0.47482 0.0
C291 C 0.84029 0.03685 0.47361 0.0
C292 C 0.81611 0.00931 0.45908 0.0
C293 C 0.84583 0.00996 0.44591 0.0
C294 C 0.80792 0.03924 0.48679 0.0
C295 C 0.82092 0.04377 0.50257 0.0
C296 C 0.78826 0.04842 0.51519 0.0
C297 C 0.7765 0.01955 0.52914 0.0
C298 C 0.74229 0.02075 0.5405 0.0
C299 C 0.72089 0.05216 0.53828 0.0
H300 H 0.77733 0.10439 0.50274 0.0
C301 C 0.7348 0.083 0.52474 0.0
C302 C 0.76798 0.08095 0.51325 0.0
H303 H 0.71831 0.10712 0.52271 0.0
H304 H 0.96654 0.08938 0.46267 0.0
H305 H 0.91463 0.08749 0.48575 0.0
H306 H 0.7741 0.98773 0.45785 0.0
H307 H 0.82616 0.98897 0.43475 0.0
H308 H 0.77137 0.03608 0.48338 0.0
H309 H 0.85436 0.0415 0.50631 0.0
H310 H 0.79214 0.99458 0.5309 0.0
H311 H 0.7319 -0.00338 0.55087 0.0
C312 C 0.9211 0.01568 0.79589 0.0
C313 C 0.93558 0.00175 0.78121 0.0
C314 C 0.88729 0.97769 0.80627 0.0
C315 C 0.86661 0.92469 0.8021 0.0
C316 C 0.88191 0.91089 0.78757 0.0
C317 C 0.91592 0.94891 0.77722 0.0
C318 C 0.82993 0.88276 0.81263 0.0
C319 C 0.8011 0.88918 0.82403 0.0
C320 C 0.76452 0.84723 0.83451 0.0
C321 C 0.75298 0.86097 0.84971 0.0
C322 C 0.71827 0.82287 0.85989 0.0
C323 C 0.69373 0.77007 0.85499 0.0
H324 H 0.74624 0.78232 0.81767 0.0
C325 C 0.70484 0.75627 0.83969 0.0
C326 C 0.73978 0.79441 0.82952 0.0
H327 H 0.68577 0.71601 0.83542 0.0
H328 H 0.93609 0.05605 0.79945 0.0
H329 H 0.87831 0.9904 0.81759 0.0
H330 H 0.86707 0.87044 0.78412 0.0
H331 H 0.92644 0.93681 0.76603 0.0
H332 H 0.82629 0.84506 0.8107 0.0
H333 H 0.80457 0.92671 0.82609 0.0
H334 H 0.77129 0.90137 0.8538 0.0
H335 H 0.7111 0.83482 0.87168 0.0
C336 C 0.07683 0.92215 0.10929 0.0
C337 C 0.11206 0.97335 0.1052 0.0
C338 C 0.09348 0.89447 0.11798 0.0
C339 C 0.1459 0.91739 0.12284 0.0
C340 C 0.18135 0.96846 0.11864 0.0
C341 C 0.16471 -0.00391 0.1097 0.0
C342 C 0.1624 0.89017 0.13369 0.0
C343 C 0.139 0.83808 0.13307 0.0
C344 C 0.1414 0.80714 0.14623 0.0
C345 C 0.11851 0.7534 0.14327 0.0
C346 C 0.10972 0.72084 0.15596 0.0
C347 C 0.12374 0.74136 0.17191 0.0
H348 H 0.17553 0.86902 0.16503 0.0
C349 C 0.14988 0.79536 0.1748 0.0
C350 C 0.15847 0.82804 0.16209 0.0
H351 H 0.16084 0.81211 0.18701 0.0
H352 H 0.03598 0.90364 0.10602 0.0
H353 H 0.06463 0.85585 0.12145 0.0
H354 H 0.22175 0.98718 0.12245 0.0
H355 H 0.19261 0.03568 0.10678 0.0
H356 H 0.19218 0.91348 0.14279 0.0
H357 H 0.11309 0.81638 0.12288 0.0
H358 H 0.10499 0.73618 0.13121 0.0
H359 H 0.09022 0.67934 0.15338 0.0
C360 C 0.14515 0.09711 0.4423 0.0
C361 C 0.16346 0.11454 0.42678 0.0
C362 C 0.17867 0.09869 0.45422 0.0
C363 C 0.23125 0.11723 0.45082 0.0
C364 C 0.25008 0.13669 0.43554 0.0
C365 C 0.21649 0.1352 0.42359 0.0
C366 C 0.2672 0.11667 0.46294 0.0
C367 C 0.25078 0.08088 0.4743 0.0
C368 C 0.28535 0.07833 0.48652 0.0
C369 C 0.26283 0.0508 0.50049 0.0
C370 C 0.29335 0.04628 0.51222 0.0
C371 C 0.34714 0.06893 0.51017 0.0
H372 H 0.35799 0.1209 0.4736 0.0
C373 C 0.3698 0.09627 0.49615 0.0
C374 C 0.33924 0.10081 0.4844 0.0
H375 H 0.41104 0.11331 0.49412 0.0
H376 H 0.10472 0.0818 0.44526 0.0
H377 H 0.16315 0.08546 0.46607 0.0
H378 H 0.29058 0.15185 0.43271 0.0
H379 H 0.2319 0.14928 0.41178 0.0
H380 H 0.30815 0.14554 0.46205 0.0
H381 H 0.20974 0.05175 0.47484 0.0
H382 H 0.22142 0.03291 0.5024 0.0
H383 H 0.27486 0.02546 0.52298 0.0
C384 C 0.20286 0.26487 0.76017 0.0
C385 C 0.17956 0.21399 0.76549 0.0
C386 C 0.24048 0.30655 0.76978 0.0
C387 C 0.25474 0.29793 0.78498 0.0
C388 C 0.23191 0.24707 0.79018 0.0
C389 C 0.19515 0.20537 0.78044 0.0
C390 C 0.28998 0.34126 0.79623 0.0
C391 C 0.33059 0.386 0.79142 0.0
C392 C 0.3643 0.42703 0.80354 0.0
C393 C 0.41837 0.44902 0.80316 0.0
C394 C 0.44965 0.482 0.81598 0.0
C395 C 0.42721 0.49439 0.82906 0.0
H396 H 0.30065 0.42557 0.8166 0.0
C397 C 0.3735 0.47514 0.82881 0.0
C398 C 0.34228 0.44155 0.8162 0.0
H399 H 0.3552 0.48369 0.83883 0.0
H400 H 0.19146 0.27251 0.74868 0.0
H401 H 0.25677 0.3455 0.7656 0.0
H402 H 0.24214 0.23963 0.8019 0.0
H403 H 0.17767 0.16659 0.78489 0.0
H404 H 0.28341 0.3352 0.80913 0.0
H405 H 0.34137 0.39089 0.77876 0.0
H406 H 0.436 0.4384 0.79343 0.0
H407 H 0.49103 0.49651 0.81594 0.0
C408 C 0.91146 0.07851 0.69888 0.0
C409 C 0.92871 0.11829 0.71102 0.0
C410 C 0.87584 0.07291 0.68697 0.0
C411 C 0.8568 0.10709 0.68697 0.0
C412 C 0.87473 0.1473 0.69892 0.0
C413 C 0.91 0.15267 0.71088 0.0
C414 C 0.81957 0.10314 0.67446 0.0
C415 C 0.78518 0.05828 0.66661 0.0
C416 C 0.74714 0.05506 0.65453 0.0
C417 C 0.69916 0.00868 0.65238 0.0
C418 C 0.66209 0.00495 0.64136 0.0
C419 C 0.67259 0.04748 0.63214 0.0
H420 H 0.79548 0.13284 0.64586 0.0
C421 C 0.72123 0.0934 0.63397 0.0
C422 C 0.75815 0.09715 0.64501 0.0
H423 H 0.73109 0.12634 0.62672 0.0
H424 H 0.92538 0.05157 0.69859 0.0
H425 H 0.86406 0.04239 0.67767 0.0
H426 H 0.86105 0.17444 0.69909 0.0
H427 H 0.9227 0.18395 0.71998 0.0
H428 H 0.81852 0.13808 0.6724 0.0
H429 H 0.78242 0.02226 0.66982 0.0
H430 H 0.68994 0.97555 0.65947 0.0
H431 H 0.62491 0.96909 0.64026 0.0
C432 C 0.96869 0.96771 0.02657 0.0
C433 C 0.94946 0.97447 0.04143 0.0
C434 C 0.93555 0.94512 0.01306 0.0
C435 C 0.8824 0.92863 0.01424 0.0
C436 C 0.86348 0.93566 0.0291 0.0
C437 C 0.89652 0.95812 0.04256 0.0
C438 C 0.84504 0.90409 0.00043 0.0
C439 C 0.85289 0.88155 0.98717 0.0
C440 C 0.8119 0.85212 0.97458 0.0
C441 C 0.82623 0.84643 0.95877 0.0
C442 C 0.78827 0.81637 0.94693 0.0
C443 C 0.7353 0.79128 0.95075 0.0
H444 H 0.746 0.82819 0.99053 0.0
C445 C 0.72104 0.79705 0.96656 0.0
C446 C 0.75879 0.82686 0.97835 0.0
H447 H 0.6806 0.77676 0.97002 0.0
H448 H 0.00948 0.98042 0.02531 0.0
H449 H 0.95212 0.94166 0.00177 0.0
H450 H 0.8228 0.92344 0.03036 0.0
H451 H 0.88054 0.963 0.05383 0.0
H452 H 0.80835 0.90291 0.00165 0.0
H453 H 0.88968 0.88334 0.98549 0.0
H454 H 0.86687 0.86498 0.95561 0.0
H455 H 0.80033 0.81239 0.93484 0.0
C456 C 0.03858 0.92711 0.3621 0.0
C457 C 0.00173 0.9286 0.37233 0.0
C458 C 0.03186 0.87987 0.35628 0.0
C459 C 0.98796 0.83287 0.36049 0.0
C460 C 0.95047 0.83415 0.37043 0.0
C461 C 0.95759 0.88163 0.37649 0.0
C462 C 0.9793 0.78279 0.35351 0.0
C463 C 0.01923 0.775 0.35081 0.0
C464 C 0.01635 0.73299 0.33991 0.0
C465 C 0.06316 0.73944 0.33392 0.0
C466 C 0.06295 0.70647 0.32151 0.0
C467 C 0.01578 0.66587 0.3149 0.0
H468 H 0.93216 0.68224 0.33882 0.0
C469 C 0.96893 0.65676 0.32177 0.0
C470 C 0.96912 0.68991 0.33418 0.0
H471 H 0.93199 0.62496 0.31718 0.0
H472 H 0.07298 0.96252 0.35863 0.0
H473 H 0.06059 0.88036 0.34815 0.0
H474 H 0.91589 0.79841 0.37359 0.0
H475 H 0.92839 0.88158 0.38429 0.0
H476 H 0.93997 0.75395 0.34969 0.0
H477 H 0.05761 0.80435 0.35541 0.0
H478 H 0.10017 0.772 0.33817 0.0
H479 H 0.09977 0.71487 0.31646 0.0
C480 C 0.13893 0.99265 0.71206 0.0
C481 C 0.11593 0.01906 0.70575 0.0
C482 C 0.1687 0.9793 0.70217 0.0
C483 C 0.17529 0.99155 0.68577 0.0
C484 C 0.14974 0.01511 0.67928 0.0
C485 C 0.12084 0.02935 0.68921 0.0
C486 C 0.21011 0.98222 0.67527 0.0
C487 C 0.25571 0.98939 0.6807 0.0
C488 C 0.2949 0.99027 0.6695 0.0
C489 C 0.34772 0.02659 0.67252 0.0
C490 C 0.38495 0.03286 0.66112 0.0
C491 C 0.37 0.00202 0.6467 0.0
H492 H 0.23998 0.92843 0.65299 0.0
C493 C 0.31755 0.96344 0.64417 0.0
C494 C 0.28029 0.95764 0.65545 0.0
H495 H 0.30493 0.93936 0.6331 0.0
H496 H 0.13564 0.98409 0.72476 0.0
H497 H 0.18699 0.96002 0.70741 0.0
H498 H 0.15393 0.02451 0.66664 0.0
H499 H 0.1032 0.04933 0.68401 0.0
H500 H 0.20114 0.97588 0.66236 0.0
H501 H 0.26734 0.00148 0.6933 0.0
H502 H 0.3599 0.05187 0.68334 0.0
H503 H 0.42521 0.06266 0.66338 0.0
C504 C 0.13254 0.24883 0.0463 0.0
C505 C 0.14339 0.21597 0.05491 0.0
C506 C 0.17008 0.28615 0.03653 0.0
C507 C 0.21916 0.29102 0.035 0.0
C508 C 0.23126 0.26081 0.04449 0.0
C509 C 0.19371 0.2235 0.05433 0.0
C510 C 0.25758 0.3255 0.02316 0.0
C511 C 0.24299 0.33582 0.00908 0.0
C512 C 0.27944 0.3655 -0.0039 0.0
C513 C 0.2591 0.36038 0.98042 0.0
C514 C 0.29159 0.38725 0.96775 0.0
C515 C 0.34524 0.42002 0.9705 0.0
H516 H 0.35037 0.40525 0.01085 0.0
C517 C 0.36573 0.42559 0.98619 0.0
C518 C 0.33319 0.39884 -0.00111 0.0
H519 H 0.40683 0.45149 0.98872 0.0
H520 H 0.09449 0.24477 0.04673 0.0
H521 H 0.16012 0.31039 0.02996 0.0
H522 H 0.26909 0.26442 0.04374 0.0
H523 H 0.20349 0.19912 0.06091 0.0
H524 H 0.29808 0.33819 0.02546 0.0
H525 H 0.20184 0.3187 0.00635 0.0
H526 H 0.21786 0.33516 0.97791 0.0
H527 H 0.27475 0.38199 0.95576 0.0
C528 C 0.93277 0.14445 0.36333 0.0
C529 C 0.98068 0.1555 0.36993 0.0
C530 C 0.93102 0.17565 0.35155 0.0
C531 C 0.97729 0.21808 0.34609 0.0
C532 C 0.02502 0.22877 0.35263 0.0
C533 C 0.02673 0.19815 0.36454 0.0
C534 C 0.97771 0.25067 0.3331 0.0
C535 C 0.93928 0.26041 0.33053 0.0
C536 C 0.9439 0.29627 0.31799 0.0
C537 C 0.92646 0.33105 0.32115 0.0
C538 C 0.93614 0.36916 0.31017 0.0
C539 C 0.96295 0.37255 0.29583 0.0
H540 H 0.97989 0.27007 0.30015 0.0
C541 C 0.97719 0.33542 0.29224 0.0
C542 C 0.96776 0.29767 0.30319 0.0
H543 H -0.0036 0.33603 0.28103 0.0
H544 H 0.8967 0.11166 0.36724 0.0
H545 H 0.89366 0.16571 0.34647 0.0
H546 H 0.06119 0.26104 0.34853 0.0
H547 H 0.06425 0.20741 0.36932 0.0
H548 H 0.01289 0.27024 0.32605 0.0
H549 H 0.90638 0.24572 0.33859 0.0
H550 H 0.90746 0.33024 0.33242 0.0
H551 H 0.92454 0.39717 0.31322 0.0
loop_
_geom_bond_atom_site_label_1
_geom_bond_atom_site_label_2
_geom_bond_distance
_geom_bond_site_symmetry_2
_ccdc_geom_bond_type
C0 O1 1.306 . S
C0 O3 1.160 . S
O1 C0 1.306 . S
O1 Cd2 2.227 1_455 S
Cd2 O1 2.227 1_655 S
Cd2 O6 2.271 . S
Cd2 O10 2.269 1_655 S
O3 C0 1.160 . S
O3 Cd4 2.203 . S
Cd4 O3 2.203 . S
Cd4 O6 2.411 1_455 S
Cd4 O7 2.333 1_545 S
Cd4 O8 2.352 1_545 S
Cd4 O12 2.277 . S
Cd4 O13 2.356 . S
C5 O10 1.209 . S
C5 O12 1.226 . S
O6 Cd2 2.271 . S
O6 Cd4 2.411 1_655 S
O6 C9 1.320 . S
O7 Cd4 2.333 1_565 S
O7 C9 1.214 1_465 S
O8 Cd4 2.352 1_565 S
O8 C11 1.258 . S
C9 O6 1.320 . S
C9 O7 1.214 1_645 S
O10 Cd2 2.269 1_455 S
O10 C5 1.209 . S
C11 O8 1.258 . S
C11 O13 1.282 1_565 S
O12 Cd4 2.277 . S
O12 C5 1.226 . S
O13 Cd4 2.356 . S
O13 C11 1.282 1_545 S
C14 O15 1.306 . S
C14 O17 1.160 . S
O15 C14 1.306 . S
O15 Cd16 2.228 . S
Cd16 O15 2.228 . S
Cd16 O20 2.273 . S
Cd16 O24 2.279 . S
O17 C14 1.160 . S
O17 Cd18 2.203 1_455 S
Cd18 O17 2.203 1_655 S
Cd18 O20 2.411 1_655 S
Cd18 O21 2.333 . S
Cd18 O22 2.352 . S
Cd18 O26 2.277 1_545 S
Cd18 O27 2.356 1_545 S
C19 O24 1.206 1_565 S
C19 O26 1.226 1_455 S
O20 Cd16 2.273 . S
O20 Cd18 2.411 1_455 S
O20 C23 1.320 . S
O21 Cd18 2.333 . S
O21 C23 1.214 1_655 S
O22 Cd18 2.352 . S
O22 C25 1.258 . S
C23 O20 1.320 . S
C23 O21 1.214 1_455 S
O24 Cd16 2.279 . S
O24 C19 1.206 1_545 S
C25 O22 1.258 . S
C25 O27 1.282 1_545 S
O26 Cd18 2.277 1_565 S
O26 C19 1.226 1_655 S
O27 Cd18 2.356 1_565 S
O27 C25 1.282 1_565 S
C28 O29 1.306 1_655 S
C28 O31 1.160 1_655 S
O29 C28 1.306 1_455 S
O29 Cd30 2.228 . S
Cd30 O29 2.228 . S
Cd30 O34 2.273 . S
Cd30 O38 2.277 . S
O31 C28 1.160 1_455 S
O31 Cd32 2.203 . S
Cd32 O31 2.203 . S
Cd32 O34 2.411 . S
Cd32 O35 2.333 . S
Cd32 O36 2.352 . S
Cd32 O40 2.277 . S
Cd32 O41 2.356 . S
C33 O38 1.217 1_655 S
C33 O40 1.211 1_655 S
O34 Cd30 2.273 . S
O34 Cd32 2.411 . S
O34 C37 1.320 . S
O35 Cd32 2.333 . S
O35 C37 1.214 . S
O36 Cd32 2.352 . S
O36 C39 1.258 . S
C37 O34 1.320 . S
C37 O35 1.214 . S
O38 Cd30 2.277 . S
O38 C33 1.217 1_455 S
C39 O36 1.258 . S
C39 O41 1.282 . S
O40 Cd32 2.277 . S
O40 C33 1.211 1_455 S
O41 Cd32 2.356 . S
O41 C39 1.282 . S
H42 O68 0.856 . S
H43 O71 0.854 . S
H44 C79 0.930 . S
H45 C80 0.930 . S
H46 C82 0.930 . S
H47 C83 0.930 . S
H48 C85 0.931 1_655 S
H49 C86 0.930 1_655 S
H50 C88 0.930 . S
H51 C89 0.929 . S
H52 C91 0.930 1_655 S
H53 C92 0.931 1_655 S
H54 C94 0.930 . S
H55 C95 0.929 . S
H56 C97 0.931 . S
H57 C98 0.928 1_655 S
H58 C100 0.930 . S
H59 C101 0.932 . S
H60 C103 0.930 . S
H61 C104 0.929 . S
H62 C106 0.931 . S
H63 C107 0.930 . S
H64 C109 0.929 . S
H65 C110 0.931 . S
H66 C112 0.930 . S
H67 C113 0.929 . S
O68 H42 0.856 . S
O68 C114 1.300 . S
O69 C114 1.209 . S
O70 C115 1.199 . S
O71 H43 0.854 . S
O71 C115 1.297 . S
C72 C73 1.404 . S
C72 C77 1.397 . S
C72 C78 1.492 . S
C73 C72 1.404 . S
C73 C74 1.396 . S
C73 C84 1.492 . S
C74 C73 1.396 . S
C74 C75 1.397 . S
C74 C90 1.509 . S
C75 C74 1.397 . S
C75 C76 1.412 . S
C75 C96 1.485 . S
C76 C75 1.412 . S
C76 C77 1.388 . S
C76 C102 1.490 . S
C77 C72 1.397 . S
C77 C76 1.388 . S
C77 C108 1.519 . S
C78 C72 1.492 . S
C78 C79 1.363 1_455 S
C78 C83 1.390 . S
C79 H44 0.930 . S
C79 C78 1.363 1_655 S
C79 C80 1.372 . S
C80 H45 0.930 . S
C80 C79 1.372 . S
C80 C81 1.383 1_655 S
C81 C80 1.383 1_455 S
C81 C82 1.395 . S
C82 H46 0.930 . S
C82 C81 1.395 . S
C82 C83 1.362 . S
C83 H47 0.930 . S
C83 C78 1.390 . S
C83 C82 1.362 . S
C84 C73 1.492 . S
C84 C85 1.377 . S
C84 C89 1.397 . S
C85 H48 0.931 1_455 S
C85 C84 1.377 . S
C85 C86 1.376 . S
C86 H49 0.930 1_455 S
C86 C85 1.376 . S
C86 C87 1.376 . S
C87 C86 1.376 . S
C87 C88 1.378 . S
C87 C114 1.486 . S
C88 H50 0.930 . S
C88 C87 1.378 . S
C88 C89 1.376 . S
C89 H51 0.929 . S
C89 C84 1.397 . S
C89 C88 1.376 . S
C90 C74 1.509 . S
C90 C91 1.391 . S
C90 C95 1.386 . S
C91 H52 0.930 1_455 S
C91 C90 1.391 . S
C91 C92 1.375 . S
C92 H53 0.931 1_455 S
C92 C91 1.375 . S
C92 C93 1.375 . S
C93 C92 1.375 . S
C93 C94 1.361 . S
C94 H54 0.930 . S
C94 C93 1.361 . S
C94 C95 1.399 . S
C95 H55 0.929 . S
C95 C90 1.386 . S
C95 C94 1.399 . S
C96 C75 1.485 . S
C96 C97 1.394 1_455 S
C96 C101 1.360 . S
C97 H56 0.931 . S
C97 C96 1.394 1_655 S
C97 C98 1.373 1_655 S
C98 H57 0.928 1_455 S
C98 C97 1.373 1_455 S
C98 C99 1.398 . S
C99 C98 1.398 . S
C99 C100 1.390 . S
C99 C115 1.476 . S
C100 H58 0.930 . S
C100 C99 1.390 . S
C100 C101 1.366 . S
C101 H59 0.932 . S
C101 C96 1.360 . S
C101 C100 1.366 . S
C102 C76 1.490 . S
C102 C103 1.380 1_455 S
C102 C107 1.386 . S
C103 H60 0.930 . S
C103 C102 1.380 1_655 S
C103 C104 1.381 . S
C104 H61 0.929 . S
C104 C103 1.381 . S
C104 C105 1.371 1_655 S
C105 C104 1.371 1_455 S
C105 C106 1.380 . S
C106 H62 0.931 . S
C106 C105 1.380 . S
C106 C107 1.387 . S
C107 H63 0.930 . S
C107 C102 1.386 . S
C107 C106 1.387 . S
C108 C77 1.519 . S
C108 C109 1.377 1_455 S
C108 C113 1.361 . S
C109 H64 0.929 . S
C109 C108 1.377 1_655 S
C109 C110 1.386 . S
C110 H65 0.931 . S
C110 C109 1.386 . S
C110 C111 1.363 1_655 S
C111 C110 1.363 1_455 S
C111 C112 1.385 . S
C112 H66 0.930 . S
C112 C111 1.385 . S
C112 C113 1.396 . S
C113 H67 0.929 . S
C113 C108 1.361 . S
C113 C112 1.396 . S
C114 O68 1.300 . S
C114 O69 1.209 . S
C114 C87 1.486 . S
C115 O70 1.199 . S
C115 O71 1.297 . S
C115 C99 1.476 . S
H116 O142 0.856 . S
H117 O145 0.854 . S
H118 C153 0.930 1_565 S
H119 C154 0.930 1_565 S
H120 C156 0.930 . S
H121 C157 0.930 . S
H122 C159 0.931 . S
H123 C160 0.930 . S
H124 C162 0.930 . S
H125 C163 0.929 . S
H126 C165 0.930 . S
H127 C166 0.931 . S
H128 C168 0.930 . S
H129 C169 0.929 . S
H130 C171 0.931 . S
H131 C172 0.930 . S
H132 C174 0.930 . S
H133 C175 0.932 . S
H134 C177 0.930 . S
H135 C178 0.929 1_565 S
H136 C180 0.931 . S
H137 C181 0.930 . S
H138 C183 0.929 . S
H139 C184 0.931 . S
H140 C186 0.930 . S
H141 C187 0.929 . S
O142 H116 0.856 . S
O142 C188 1.300 . S
O143 C188 1.209 . S
O144 C189 1.199 . S
O145 H117 0.854 . S
O145 C189 1.297 . S
C146 C147 1.404 . S
C146 C151 1.397 . S
C146 C152 1.492 . S
C147 C146 1.404 . S
C147 C148 1.396 . S
C147 C158 1.492 . S
C148 C147 1.396 . S
C148 C149 1.397 . S
C148 C164 1.509 . S
C149 C148 1.397 . S
C149 C150 1.412 . S
C149 C170 1.485 . S
C150 C149 1.412 . S
C150 C151 1.388 . S
C150 C176 1.490 . S
C151 C146 1.397 . S
C151 C150 1.388 . S
C151 C182 1.519 . S
C152 C146 1.492 . S
C152 C153 1.363 . S
C152 C157 1.390 . S
C153 H118 0.930 1_545 S
C153 C152 1.363 . S
C153 C154 1.372 . S
C154 H119 0.930 1_545 S
C154 C153 1.372 . S
C154 C155 1.383 . S
C155 C154 1.383 . S
C155 C156 1.395 . S
C156 H120 0.930 . S
C156 C155 1.395 . S
C156 C157 1.362 . S
C157 H121 0.930 . S
C157 C152 1.390 . S
C157 C156 1.362 . S
C158 C147 1.492 . S
C158 C159 1.377 . S
C158 C163 1.397 . S
C159 H122 0.931 . S
C159 C158 1.377 . S
C159 C160 1.376 . S
C160 H123 0.930 . S
C160 C159 1.376 . S
C160 C161 1.376 . S
C161 C160 1.376 . S
C161 C162 1.378 . S
C161 C188 1.486 . S
C162 H124 0.930 . S
C162 C161 1.378 . S
C162 C163 1.376 . S
C163 H125 0.929 . S
C163 C158 1.397 . S
C163 C162 1.376 . S
C164 C148 1.509 . S
C164 C165 1.391 . S
C164 C169 1.386 . S
C165 H126 0.930 . S
C165 C164 1.391 . S
C165 C166 1.375 . S
C166 H127 0.931 . S
C166 C165 1.375 . S
C166 C167 1.375 . S
C167 C166 1.375 . S
C167 C168 1.361 . S
C168 H128 0.930 . S
C168 C167 1.361 . S
C168 C169 1.399 . S
C169 H129 0.929 . S
C169 C164 1.386 . S
C169 C168 1.399 . S
C170 C149 1.485 . S
C170 C171 1.394 . S
C170 C175 1.360 . S
C171 H130 0.931 . S
C171 C170 1.394 . S
C171 C172 1.372 . S
C172 H131 0.930 . S
C172 C171 1.372 . S
C172 C173 1.397 . S
C173 C172 1.397 . S
C173 C174 1.390 . S
C173 C189 1.476 . S
C174 H132 0.930 . S
C174 C173 1.390 . S
C174 C175 1.366 . S
C175 H133 0.932 . S
C175 C170 1.360 . S
C175 C174 1.366 . S
C176 C150 1.490 . S
C176 C177 1.380 . S
C176 C181 1.386 . S
C177 H134 0.930 . S
C177 C176 1.380 . S
C177 C178 1.381 . S
C178 H135 0.929 1_545 S
C178 C177 1.381 . S
C178 C179 1.371 . S
C179 C178 1.371 . S
C179 C180 1.380 . S
C180 H136 0.931 . S
C180 C179 1.380 . S
C180 C181 1.387 . S
C181 H137 0.930 . S
C181 C176 1.386 . S
C181 C180 1.387 . S
C182 C151 1.519 . S
C182 C183 1.377 . S
C182 C187 1.361 . S
C183 H138 0.929 . S
C183 C182 1.377 . S
C183 C184 1.386 . S
C184 H139 0.931 . S
C184 C183 1.386 . S
C184 C185 1.363 . S
C185 C184 1.363 . S
C185 C186 1.385 . S
C186 H140 0.930 . S
C186 C185 1.385 . S
C186 C187 1.396 . S
C187 H141 0.929 . S
C187 C182 1.361 . S
C187 C186 1.396 . S
C188 O142 1.300 . S
C188 O143 1.209 . S
C188 C161 1.486 . S
C189 O144 1.199 . S
C189 O145 1.297 . S
C189 C173 1.476 . S
H190 O216 0.856 . S
H191 O219 0.854 . S
H192 C227 0.930 . S
H193 C228 0.930 . S
H194 C230 0.930 . S
H195 C231 0.930 . S
H196 C233 0.931 . S
H197 C234 0.930 . S
H198 C236 0.930 . S
H199 C237 0.929 . S
H200 C239 0.930 . S
H201 C240 0.931 . S
H202 C242 0.930 . S
H203 C243 0.929 . S
H204 C245 0.931 . S
H205 C246 0.930 . S
H206 C248 0.930 . S
H207 C249 0.932 . S
H208 C251 0.930 . S
H209 C252 0.929 . S
H210 C254 0.931 . S
H211 C255 0.930 . S
H212 C257 0.929 . S
H213 C258 0.931 . S
H214 C260 0.930 . S
H215 C261 0.929 . S
O216 H190 0.856 . S
O216 C262 1.300 . S
O217 C262 1.209 . S
O218 C263 1.199 . S
O219 H191 0.854 . S
O219 C263 1.297 . S
C220 C221 1.404 . S
C220 C225 1.397 . S
C220 C226 1.492 . S
C221 C220 1.404 . S
C221 C222 1.396 . S
C221 C232 1.492 . S
C222 C221 1.396 . S
C222 C223 1.397 . S
C222 C238 1.509 . S
C223 C222 1.397 . S
C223 C224 1.412 . S
C223 C244 1.485 . S
C224 C223 1.412 . S
C224 C225 1.388 . S
C224 C250 1.490 . S
C225 C220 1.397 . S
C225 C224 1.388 . S
C225 C256 1.519 . S
C226 C220 1.492 . S
C226 C227 1.363 . S
C226 C231 1.390 . S
C227 H192 0.930 . S
C227 C226 1.363 . S
C227 C228 1.372 . S
C228 H193 0.930 . S
C228 C227 1.372 . S
C228 C229 1.383 . S
C229 C228 1.383 . S
C229 C230 1.395 . S
C230 H194 0.930 . S
C230 C229 1.395 . S
C230 C231 1.362 . S
C231 H195 0.930 . S
C231 C226 1.390 . S
C231 C230 1.362 . S
C232 C221 1.492 . S
C232 C233 1.377 . S
C232 C237 1.397 . S
C233 H196 0.931 . S
C233 C232 1.377 . S
C233 C234 1.376 . S
C234 H197 0.930 . S
C234 C233 1.376 . S
C234 C235 1.376 . S
C235 C234 1.376 . S
C235 C236 1.378 . S
C235 C262 1.486 1_556 S
C236 H198 0.930 . S
C236 C235 1.378 . S
C236 C237 1.376 . S
C237 H199 0.929 . S
C237 C232 1.397 . S
C237 C236 1.376 . S
C238 C222 1.509 . S
C238 C239 1.391 . S
C238 C243 1.386 . S
C239 H200 0.930 . S
C239 C238 1.391 . S
C239 C240 1.375 . S
C240 H201 0.931 . S
C240 C239 1.375 . S
C240 C241 1.375 . S
C241 C240 1.375 . S
C241 C242 1.361 . S
C242 H202 0.930 . S
C242 C241 1.361 . S
C242 C243 1.399 . S
C243 H203 0.929 . S
C243 C238 1.386 . S
C243 C242 1.399 . S
C244 C223 1.485 . S
C244 C245 1.394 . S
C244 C249 1.360 . S
C245 H204 0.931 . S
C245 C244 1.394 . S
C245 C246 1.372 . S
C246 H205 0.930 . S
C246 C245 1.372 . S
C246 C247 1.397 . S
C247 C246 1.397 . S
C247 C248 1.390 . S
C247 C263 1.476 . S
C248 H206 0.930 . S
C248 C247 1.390 . S
C248 C249 1.366 . S
C249 H207 0.932 . S
C249 C244 1.360 . S
C249 C248 1.366 . S
C250 C224 1.490 . S
C250 C251 1.380 . S
C250 C255 1.386 . S
C251 H208 0.930 . S
C251 C250 1.380 . S
C251 C252 1.381 . S
C252 H209 0.929 . S
C252 C251 1.381 . S
C252 C253 1.371 . S
C253 C252 1.371 . S
C253 C254 1.380 . S
C254 H210 0.931 . S
C254 C253 1.380 . S
C254 C255 1.387 . S
C255 H211 0.930 . S
C255 C250 1.386 . S
C255 C254 1.387 . S
C256 C225 1.519 . S
C256 C257 1.377 . S
C256 C261 1.361 . S
C257 H212 0.929 . S
C257 C256 1.377 . S
C257 C258 1.386 . S
C258 H213 0.931 . S
C258 C257 1.386 . S
C258 C259 1.363 . S
C259 C258 1.363 . S
C259 C260 1.385 . S
C260 H214 0.930 . S
C260 C259 1.385 . S
C260 C261 1.396 . S
C261 H215 0.929 . S
C261 C256 1.361 . S
C261 C260 1.396 . S
C262 O216 1.300 . S
C262 O217 1.209 . S
C262 C235 1.486 1_554 S
C263 O218 1.199 . S
C263 O219 1.297 . S
C263 C247 1.476 . S
C264 C265 1.386 . S
C264 C266 1.383 . S
C264 H280 0.951 . S
C265 C264 1.386 . S
C265 C269 1.383 . S
C266 C264 1.383 . S
C266 C267 1.402 . S
C266 H281 0.951 . S
C267 C266 1.402 . S
C267 C268 1.375 . S
C267 C270 1.481 . S
C268 C267 1.375 . S
C268 C269 1.367 . S
C268 H282 0.951 . S
C269 C265 1.383 . S
C269 C268 1.367 . S
C269 H283 0.950 . S
C270 C267 1.481 . S
C270 C271 1.297 . S
C270 H284 0.950 . S
C271 C270 1.297 . S
C271 C272 1.479 . S
C271 H285 0.950 1_455 S
C272 C271 1.479 . S
C272 C273 1.375 1_455 S
C272 C278 1.404 . S
C273 C272 1.375 1_655 S
C273 C274 1.369 . S
C273 H286 0.950 . S
C274 C273 1.369 . S
C274 C275 1.392 1_655 S
C274 H287 0.951 . S
C275 C274 1.392 1_455 S
C275 C277 1.384 . S
H276 C278 0.949 . S
C277 C275 1.384 . S
C277 C278 1.385 . S
C277 H279 0.950 . S
C278 C272 1.404 . S
C278 H276 0.949 . S
C278 C277 1.385 . S
H279 C277 0.950 . S
H280 C264 0.951 . S
H281 C266 0.951 . S
H282 C268 0.951 . S
H283 C269 0.950 . S
H284 C270 0.950 . S
H285 C271 0.950 1_655 S
H286 C273 0.950 . S
H287 C274 0.951 . S
C288 C289 1.386 . S
C288 C290 1.383 . S
C288 H304 0.951 . S
C289 C288 1.386 . S
C289 C293 1.383 . S
C290 C288 1.383 . S
C290 C291 1.402 . S
C290 H305 0.951 . S
C291 C290 1.402 . S
C291 C292 1.375 . S
C291 C294 1.481 . S
C292 C291 1.375 . S
C292 C293 1.367 . S
C292 H306 0.951 . S
C293 C289 1.383 . S
C293 C292 1.367 . S
C293 H307 0.950 . S
C294 C291 1.481 . S
C294 C295 1.297 . S
C294 H308 0.950 . S
C295 C294 1.297 . S
C295 C296 1.479 . S
C295 H309 0.950 . S
C296 C295 1.479 . S
C296 C297 1.375 . S
C296 C302 1.404 . S
C297 C296 1.375 . S
C297 C298 1.369 . S
C297 H310 0.950 . S
C298 C297 1.369 . S
C298 C299 1.392 . S
C298 H311 0.951 . S
C299 C298 1.392 . S
C299 C301 1.384 . S
H300 C302 0.949 . S
C301 C299 1.384 . S
C301 C302 1.385 . S
C301 H303 0.950 . S
C302 C296 1.404 . S
C302 H300 0.949 . S
C302 C301 1.385 . S
H303 C301 0.950 . S
H304 C288 0.951 . S
H305 C290 0.951 . S
H306 C292 0.951 . S
H307 C293 0.950 . S
H308 C294 0.950 . S
H309 C295 0.950 . S
H310 C297 0.950 . S
H311 C298 0.951 . S
C312 C313 1.386 . S
C312 C314 1.383 . S
C312 H328 0.951 1_565 S
C313 C312 1.386 . S
C313 C317 1.383 . S
C314 C312 1.383 . S
C314 C315 1.402 . S
C314 H329 0.951 . S
C315 C314 1.402 . S
C315 C316 1.375 . S
C315 C318 1.481 . S
C316 C315 1.375 . S
C316 C317 1.367 . S
C316 H330 0.951 . S
C317 C313 1.383 . S
C317 C316 1.367 . S
C317 H331 0.950 . S
C318 C315 1.481 . S
C318 C319 1.297 . S
C318 H332 0.950 . S
C319 C318 1.297 . S
C319 C320 1.479 . S
C319 H333 0.950 . S
C320 C319 1.479 . S
C320 C321 1.375 . S
C320 C326 1.404 . S
C321 C320 1.375 . S
C321 C322 1.369 . S
C321 H334 0.950 . S
C322 C321 1.369 . S
C322 C323 1.392 . S
C322 H335 0.951 . S
C323 C322 1.392 . S
C323 C325 1.384 . S
H324 C326 0.949 . S
C325 C323 1.384 . S
C325 C326 1.385 . S
C325 H327 0.950 . S
C326 C320 1.404 . S
C326 H324 0.949 . S
C326 C325 1.385 . S
H327 C325 0.950 . S
H328 C312 0.951 1_545 S
H329 C314 0.951 . S
H330 C316 0.951 . S
H331 C317 0.950 . S
H332 C318 0.950 . S
H333 C319 0.950 . S
H334 C321 0.950 . S
H335 C322 0.951 . S
C336 C337 1.386 . S
C336 C338 1.383 . S
C336 H352 0.951 1_455 S
C337 C336 1.386 . S
C337 C341 1.383 . S
C338 C336 1.383 . S
C338 C339 1.402 . S
C338 H353 0.951 . S
C339 C338 1.402 . S
C339 C340 1.375 . S
C339 C342 1.481 . S
C340 C339 1.375 . S
C340 C341 1.367 . S
C340 H354 0.951 . S
C341 C337 1.383 . S
C341 C340 1.367 . S
C341 H355 0.950 1_565 S
C342 C339 1.481 . S
C342 C343 1.297 . S
C342 H356 0.950 . S
C343 C342 1.297 . S
C343 C344 1.479 . S
C343 H357 0.950 . S
C344 C343 1.479 . S
C344 C345 1.375 . S
C344 C350 1.404 . S
C345 C344 1.375 . S
C345 C346 1.369 . S
C345 H358 0.950 1_455 S
C346 C345 1.369 . S
C346 C347 1.392 . S
C346 H359 0.951 1_455 S
C347 C346 1.392 . S
C347 C349 1.384 . S
H348 C350 0.949 . S
C349 C347 1.384 . S
C349 C350 1.385 . S
C349 H351 0.950 . S
C350 C344 1.404 . S
C350 H348 0.949 . S
C350 C349 1.385 . S
H351 C349 0.950 . S
H352 C336 0.951 1_655 S
H353 C338 0.951 . S
H354 C340 0.951 . S
H355 C341 0.950 1_545 S
H356 C342 0.950 . S
H357 C343 0.950 . S
H358 C345 0.950 1_655 S
H359 C346 0.951 1_655 S
C360 C361 1.386 . S
C360 C362 1.383 . S
C360 H376 0.951 1_545 S
C361 C360 1.386 . S
C361 C365 1.383 . S
C362 C360 1.383 . S
C362 C363 1.402 . S
C362 H377 0.951 1_545 S
C363 C362 1.402 . S
C363 C364 1.375 . S
C363 C366 1.481 . S
C364 C363 1.375 . S
C364 C365 1.367 . S
C364 H378 0.951 . S
C365 C361 1.383 . S
C365 C364 1.367 . S
C365 H379 0.950 . S
C366 C363 1.481 . S
C366 C367 1.297 . S
C366 H380 0.950 . S
C367 C366 1.297 . S
C367 C368 1.479 . S
C367 H381 0.950 . S
C368 C367 1.479 . S
C368 C369 1.375 . S
C368 C374 1.404 . S
C369 C368 1.375 . S
C369 C370 1.369 . S
C369 H382 0.950 1_545 S
C370 C369 1.369 . S
C370 C371 1.392 . S
C370 H383 0.951 . S
C371 C370 1.392 . S
C371 C373 1.384 . S
H372 C374 0.949 . S
C373 C371 1.384 . S
C373 C374 1.385 . S
C373 H375 0.950 . S
C374 C368 1.404 . S
C374 H372 0.949 . S
C374 C373 1.385 . S
H375 C373 0.950 . S
H376 C360 0.951 1_565 S
H377 C362 0.951 1_565 S
H378 C364 0.951 . S
H379 C365 0.950 . S
H380 C366 0.950 . S
H381 C367 0.950 . S
H382 C369 0.950 1_565 S
H383 C370 0.951 . S
C384 C385 1.386 . S
C384 C386 1.383 . S
C384 H400 0.951 . S
C385 C384 1.386 . S
C385 C389 1.383 . S
C386 C384 1.383 . S
C386 C387 1.402 . S
C386 H401 0.951 . S
C387 C386 1.402 . S
C387 C388 1.375 . S
C387 C390 1.481 . S
C388 C387 1.375 . S
C388 C389 1.367 . S
C388 H402 0.951 . S
C389 C385 1.383 . S
C389 C388 1.367 . S
C389 H403 0.950 . S
C390 C387 1.481 . S
C390 C391 1.297 . S
C390 H404 0.950 . S
C391 C390 1.297 . S
C391 C392 1.479 . S
C391 H405 0.950 . S
C392 C391 1.479 . S
C392 C393 1.375 . S
C392 C398 1.404 . S
C393 C392 1.375 . S
C393 C394 1.369 . S
C393 H406 0.950 . S
C394 C393 1.369 . S
C394 C395 1.392 . S
C394 H407 0.951 . S
C395 C394 1.392 . S
C395 C397 1.384 . S
H396 C398 0.949 . S
C397 C395 1.384 . S
C397 C398 1.385 . S
C397 H399 0.950 . S
C398 C392 1.404 . S
C398 H396 0.949 . S
C398 C397 1.385 . S
H399 C397 0.950 . S
H400 C384 0.951 . S
H401 C386 0.951 . S
H402 C388 0.951 . S
H403 C389 0.950 . S
H404 C390 0.950 . S
H405 C391 0.950 . S
H406 C393 0.950 . S
H407 C394 0.951 . S
C408 C409 1.386 . S
C408 C410 1.383 . S
C408 H424 0.951 . S
C409 C408 1.386 . S
C409 C413 1.383 . S
C410 C408 1.383 . S
C410 C411 1.402 . S
C410 H425 0.951 . S
C411 C410 1.402 . S
C411 C412 1.375 . S
C411 C414 1.481 . S
C412 C411 1.375 . S
C412 C413 1.367 . S
C412 H426 0.951 . S
C413 C409 1.383 . S
C413 C412 1.367 . S
C413 H427 0.950 1_655 S
C414 C411 1.481 . S
C414 C415 1.297 . S
C414 H428 0.950 . S
C415 C414 1.297 . S
C415 C416 1.479 . S
C415 H429 0.950 . S
C416 C415 1.479 . S
C416 C417 1.375 . S
C416 C422 1.404 . S
C417 C416 1.375 . S
C417 C418 1.369 . S
C417 H430 0.950 . S
C418 C417 1.369 . S
C418 C419 1.392 . S
C418 H431 0.951 . S
C419 C418 1.392 . S
C419 C421 1.384 . S
H420 C422 0.949 . S
C421 C419 1.384 . S
C421 C422 1.385 . S
C421 H423 0.950 . S
C422 C416 1.404 . S
C422 H420 0.949 . S
C422 C421 1.385 . S
H423 C421 0.950 . S
H424 C408 0.951 . S
H425 C410 0.951 . S
H426 C412 0.951 . S
H427 C413 0.950 1_455 S
H428 C414 0.950 . S
H429 C415 0.950 . S
H430 C417 0.950 . S
H431 C418 0.951 . S
C432 C433 1.386 . S
C432 C434 1.383 . S
C432 H448 0.951 . S
C433 C432 1.386 . S
C433 C437 1.383 . S
C434 C432 1.383 . S
C434 C435 1.402 . S
C434 H449 0.951 . S
C435 C434 1.402 . S
C435 C436 1.375 . S
C435 C438 1.481 . S
C436 C435 1.375 . S
C436 C437 1.367 . S
C436 H450 0.951 . S
C437 C433 1.383 . S
C437 C436 1.367 . S
C437 H451 0.950 . S
C438 C435 1.481 . S
C438 C439 1.297 1_554 S
C438 H452 0.950 . S
C439 C438 1.297 1_556 S
C439 C440 1.479 . S
C439 H453 0.950 . S
C440 C439 1.479 . S
C440 C441 1.375 . S
C440 C446 1.404 . S
C441 C440 1.375 . S
C441 C442 1.369 . S
C441 H454 0.950 . S
C442 C441 1.369 . S
C442 C443 1.392 . S
C442 H455 0.951 . S
C443 C442 1.392 . S
C443 C445 1.384 . S
H444 C446 0.949 . S
C445 C443 1.384 . S
C445 C446 1.385 . S
C445 H447 0.950 . S
C446 C440 1.404 . S
C446 H444 0.949 . S
C446 C445 1.385 . S
H447 C445 0.950 . S
H448 C432 0.951 . S
H449 C434 0.951 . S
H450 C436 0.951 . S
H451 C437 0.950 . S
H452 C438 0.950 . S
H453 C439 0.950 . S
H454 C441 0.950 . S
H455 C442 0.951 . S
C456 C457 1.386 . S
C456 C458 1.383 . S
C456 H472 0.951 . S
C457 C456 1.386 . S
C457 C461 1.383 1_455 S
C458 C456 1.383 . S
C458 C459 1.402 . S
C458 H473 0.951 . S
C459 C458 1.402 . S
C459 C460 1.375 1_455 S
C459 C462 1.481 1_455 S
C460 C459 1.375 1_655 S
C460 C461 1.367 . S
C460 H474 0.951 . S
C461 C457 1.383 1_655 S
C461 C460 1.367 . S
C461 H475 0.950 . S
C462 C459 1.481 1_655 S
C462 C463 1.297 1_655 S
C462 H476 0.950 . S
C463 C462 1.297 1_455 S
C463 C464 1.479 . S
C463 H477 0.950 . S
C464 C463 1.479 . S
C464 C465 1.375 . S
C464 C470 1.404 1_455 S
C465 C464 1.375 . S
C465 C466 1.369 . S
C465 H478 0.950 . S
C466 C465 1.369 . S
C466 C467 1.392 . S
C466 H479 0.951 . S
C467 C466 1.392 . S
C467 C469 1.384 1_455 S
H468 C470 0.949 . S
C469 C467 1.384 1_655 S
C469 C470 1.385 . S
C469 H471 0.950 . S
C470 C464 1.404 1_655 S
C470 H468 0.949 . S
C470 C469 1.385 . S
H471 C469 0.950 . S
H472 C456 0.951 . S
H473 C458 0.951 . S
H474 C460 0.951 . S
H475 C461 0.950 . S
H476 C462 0.950 . S
H477 C463 0.950 . S
H478 C465 0.950 . S
H479 C466 0.951 . S
C480 C481 1.386 . S
C480 C482 1.383 . S
C480 H496 0.951 . S
C481 C480 1.386 . S
C481 C485 1.383 . S
C482 C480 1.383 . S
C482 C483 1.402 . S
C482 H497 0.951 . S
C483 C482 1.402 . S
C483 C484 1.375 . S
C483 C486 1.481 . S
C484 C483 1.375 . S
C484 C485 1.367 . S
C484 H498 0.951 . S
C485 C481 1.383 . S
C485 C484 1.367 . S
C485 H499 0.950 . S
C486 C483 1.481 . S
C486 C487 1.297 . S
C486 H500 0.950 . S
C487 C486 1.297 . S
C487 C488 1.479 . S
C487 H501 0.950 . S
C488 C487 1.479 . S
C488 C489 1.375 . S
C488 C494 1.404 . S
C489 C488 1.375 . S
C489 C490 1.369 . S
C489 H502 0.950 . S
C490 C489 1.369 . S
C490 C491 1.392 . S
C490 H503 0.951 . S
C491 C490 1.392 . S
C491 C493 1.384 . S
H492 C494 0.949 . S
C493 C491 1.384 . S
C493 C494 1.385 . S
C493 H495 0.950 . S
C494 C488 1.404 . S
C494 H492 0.949 . S
C494 C493 1.385 . S
H495 C493 0.950 . S
H496 C480 0.951 . S
H497 C482 0.951 . S
H498 C484 0.951 . S
H499 C485 0.950 . S
H500 C486 0.950 . S
H501 C487 0.950 . S
H502 C489 0.950 . S
H503 C490 0.951 . S
C504 C505 1.386 . S
C504 C506 1.383 . S
C504 H520 0.951 . S
C505 C504 1.386 . S
C505 C509 1.383 . S
C506 C504 1.383 . S
C506 C507 1.402 . S
C506 H521 0.951 . S
C507 C506 1.402 . S
C507 C508 1.375 . S
C507 C510 1.481 . S
C508 C507 1.375 . S
C508 C509 1.367 . S
C508 H522 0.951 . S
C509 C505 1.383 . S
C509 C508 1.367 . S
C509 H523 0.950 . S
C510 C507 1.481 . S
C510 C511 1.297 . S
C510 H524 0.950 . S
C511 C510 1.297 . S
C511 C512 1.479 . S
C511 H525 0.950 . S
C512 C511 1.479 . S
C512 C513 1.375 1_554 S
C512 C518 1.404 . S
C513 C512 1.375 1_556 S
C513 C514 1.369 . S
C513 H526 0.950 . S
C514 C513 1.369 . S
C514 C515 1.392 . S
C514 H527 0.951 . S
C515 C514 1.392 . S
C515 C517 1.384 . S
H516 C518 0.949 . S
C517 C515 1.384 . S
C517 C518 1.385 1_556 S
C517 H519 0.950 1_556 S
C518 C512 1.404 . S
C518 H516 0.949 . S
C518 C517 1.385 1_554 S
H519 C517 0.950 1_554 S
H520 C504 0.951 . S
H521 C506 0.951 . S
H522 C508 0.951 . S
H523 C509 0.950 . S
H524 C510 0.950 . S
H525 C511 0.950 . S
H526 C513 0.950 . S
H527 C514 0.951 . S
C528 C529 1.386 1_655 S
C528 C530 1.383 . S
C528 H544 0.951 . S
C529 C528 1.386 1_455 S
C529 C533 1.383 . S
C530 C528 1.383 . S
C530 C531 1.402 1_655 S
C530 H545 0.951 . S
C531 C530 1.402 1_455 S
C531 C532 1.375 . S
C531 C534 1.481 . S
C532 C531 1.375 . S
C532 C533 1.367 . S
C532 H546 0.951 . S
C533 C529 1.383 . S
C533 C532 1.367 . S
C533 H547 0.950 . S
C534 C531 1.481 . S
C534 C535 1.297 . S
C534 H548 0.950 . S
C535 C534 1.297 . S
C535 C536 1.479 . S
C535 H549 0.950 1_455 S
C536 C535 1.479 . S
C536 C537 1.375 1_455 S
C536 C542 1.404 . S
C537 C536 1.375 1_655 S
C537 C538 1.369 . S
C537 H550 0.950 . S
C538 C537 1.369 . S
C538 C539 1.392 1_655 S
C538 H551 0.951 . S
C539 C538 1.392 1_455 S
C539 C541 1.384 . S
H540 C542 0.949 . S
C541 C539 1.384 . S
C541 C542 1.385 . S
C541 H543 0.950 . S
C542 C536 1.404 . S
C542 H540 0.949 . S
C542 C541 1.385 . S
H543 C541 0.950 . S
H544 C528 0.951 . S
H545 C530 0.951 . S
H546 C532 0.951 . S
H547 C533 0.950 . S
H548 C534 0.950 . S
H549 C535 0.950 1_655 S
H550 C537 0.950 . S
H551 C538 0.951 . S
C275 C81 1.409 . S
C265 C0 1.458 . S
C289 C25 1.416 . S
C299 C155 1.340 . S
C313 C33 2.174 1_565 S
C323 C259 2.154 . S
C337 C11 0.728 . S
C347 C93 0.756 . S
C371 C167 0.737 . S
C361 C14 0.723 . S
C385 C37 1.520 . S
C395 C253 1.441 . S
C419 C185 2.159 . S
C409 C28 2.168 . S
C433 C9 1.537 1_565 S
C443 C229 1.383 . S
C467 C105 1.467 . S
C457 C19 1.548 . S
C491 C179 1.342 . S
C481 C39 1.443 . S
C515 C241 0.763 . S
C505 C5 0.774 . S
C529 C23 2.279 . S
C539 C111 2.263 . S
