# Generated by pormake.
# Topology zzz, (3,6)-cn, num edge types: 1
# Building blocks:
#     Node 0, Type 0, BuildingBlock: BETDAH_clean_linker_0, # of connection points: 3
#     Node 1, Type 0, BuildingBlock: BETDAH_clean_linker_0, # of connection points: 3
#     Node 2, Type 0, BuildingBlock: BETDAH_clean_linker_0, # of connection points: 3
#     Node 3, Type 0, BuildingBlock: BETDAH_clean_linker_0, # of connection points: 3
#     Node 4, Type 0, BuildingBlock: BETDAH_clean_linker_0, # of connection points: 3
#     Node 5, Type 0, BuildingBlock: BETDAH_clean_linker_0, # of connection points: 3
#     Node 6, Type 0, BuildingBlock: BETDAH_clean_linker_0, # of connection points: 3
#     Node 7, Type 0, BuildingBlock: BETDAH_clean_linker_0, # of connection points: 3
#     Node 8, Type 1, BuildingBlock: KUMBUR_clean_sbu_0, # of connection points: 6
#     Node 9, Type 1, BuildingBlock: KUMBUR_clean_sbu_0, # of connection points: 6
#     Node 10, Type 1, BuildingBlock: KUMBUR_clean_sbu_0, # of connection points: 6
#     Node 11, Type 1, BuildingBlock: KUMBUR_clean_sbu_0, # of connection points: 6
#     Edge 12, Type (0, 1), BuildingBlock: CIFDUS_clean_linker_0, # of connection points: 2
#     Edge 13, Type (0, 1), BuildingBlock: CIFDUS_clean_linker_0, # of connection points: 2
#     Edge 14, Type (0, 1), BuildingBlock: CIFDUS_clean_linker_0, # of connection points: 2
#     Edge 15, Type (0, 1), BuildingBlock: CIFDUS_clean_linker_0, # of connection points: 2
#     Edge 16, Type (0, 1), BuildingBlock: CIFDUS_clean_linker_0, # of connection points: 2
#     Edge 17, Type (0, 1), BuildingBlock: CIFDUS_clean_linker_0, # of connection points: 2
#     Edge 18, Type (0, 1), BuildingBlock: CIFDUS_clean_linker_0, # of connection points: 2
#     Edge 19, Type (0, 1), BuildingBlock: CIFDUS_clean_linker_0, # of connection points: 2
#     Edge 20, Type (0, 1), BuildingBlock: CIFDUS_clean_linker_0, # of connection points: 2
#     Edge 21, Type (0, 1), BuildingBlock: CIFDUS_clean_linker_0, # of connection points: 2
#     Edge 22, Type (0, 1), BuildingBlock: CIFDUS_clean_linker_0, # of connection points: 2
#     Edge 23, Type (0, 1), BuildingBlock: CIFDUS_clean_linker_0, # of connection points: 2
#     Edge 24, Type (0, 1), BuildingBlock: CIFDUS_clean_linker_0, # of connection points: 2
#     Edge 25, Type (0, 1), BuildingBlock: CIFDUS_clean_linker_0, # of connection points: 2
#     Edge 26, Type (0, 1), BuildingBlock: CIFDUS_clean_linker_0, # of connection points: 2
#     Edge 27, Type (0, 1), BuildingBlock: CIFDUS_clean_linker_0, # of connection points: 2
#     Edge 28, Type (0, 1), BuildingBlock: CIFDUS_clean_linker_0, # of connection points: 2
#     Edge 29, Type (0, 1), BuildingBlock: CIFDUS_clean_linker_0, # of connection points: 2
#     Edge 30, Type (0, 1), BuildingBlock: CIFDUS_clean_linker_0, # of connection points: 2
#     Edge 31, Type (0, 1), BuildingBlock: CIFDUS_clean_linker_0, # of connection points: 2
#     Edge 32, Type (0, 1), BuildingBlock: CIFDUS_clean_linker_0, # of connection points: 2
#     Edge 33, Type (0, 1), BuildingBlock: CIFDUS_clean_linker_0, # of connection points: 2
#     Edge 34, Type (0, 1), BuildingBlock: CIFDUS_clean_linker_0, # of connection points: 2
#     Edge 35, Type (0, 1), BuildingBlock: CIFDUS_clean_linker_0, # of connection points: 2
# Relax obj value: 0.197
# Max RMSD: 0.172
# Mean RMSD: 0.118
data_MOF--net-zzz--node1-KUMBUR_clean_sbu_0--node2-BETDAH_clean_linker_0--edge1-CIFDUS_clean_linker_0
_symmetry_space_group_name_H-M    P1
_symmetry_Int_Tables_number       1
_symmetry_cell_setting            triclinic
loop_
_symmetry_equiv_pos_as_xyz
'x, y, z'
_cell_length_a     44.020803
_cell_length_b     44.099437
_cell_length_c     13.036586
_cell_angle_alpha  91.132079
_cell_angle_beta   89.670863
_cell_angle_gamma 89.936559
loop_
_atom_site_label
_atom_site_type_symbol
_atom_site_fract_x
_atom_site_fract_y
_atom_site_fract_z
_atom_type_partial_charge
H0 H 0.84155 0.58209 0.26113 0.0
H1 H 0.75521 0.57041 0.11317 0.0
H2 H 0.77334 0.52708 0.40167 0.0
C3 C 0.81854 0.57332 0.26197 0.0
C4 C 0.81017 0.55463 0.34265 0.0
C5 C 0.79905 0.57907 0.1792 0.0
C6 C 0.76983 0.56642 0.17808 0.0
C7 C 0.75998 0.54772 0.25783 0.0
C8 C 0.78051 0.54164 0.3402 0.0
N9 N 0.73013 0.53434 0.25533 0.0
C10 C 0.70787 0.53797 0.17837 0.0
H11 H 0.98295 0.84045 0.24962 0.0
H12 H 0.98328 0.74591 0.15818 0.0
H13 H 0.03133 0.7759 0.4289 0.0
C14 C 0.98927 0.81717 0.26369 0.0
C15 C 1.00711 0.81165 0.35014 0.0
C16 C 0.98057 0.79377 0.19377 0.0
C17 C 0.98996 0.76389 0.21104 0.0
C18 C 1.00916 0.75708 0.29234 0.0
C19 C 1.01698 0.78099 0.36429 0.0
N20 N 0.02128 0.72676 0.30088 0.0
C21 C 0.01949 0.70238 0.22758 0.0
H22 H 0.7061 0.03533 0.22999 0.0
H23 H 0.79878 0.02476 0.13687 0.0
H24 H 0.77016 0.99435 0.43535 0.0
C25 C 0.72889 0.02809 0.24897 0.0
C26 C 0.73469 1.01525 0.34477 0.0
C27 C 0.75194 0.03163 0.17564 0.0
C28 C 0.78142 0.02181 0.19505 0.0
C29 C 0.78834 1.00786 0.28777 0.0
C30 C 0.76483 1.00469 0.36299 0.0
N31 N 0.81853 0.997 0.30636 0.0
C32 C 0.84293 0.99773 0.23562 0.0
H33 H 0.57795 0.71931 0.33864 0.0
H34 H 0.56944 0.80363 0.18245 0.0
H35 H 0.51643 0.78729 0.4559 0.0
C36 C 0.56911 0.74228 0.33683 0.0
C37 C 0.54707 0.75094 0.4093 0.0
C38 C 0.57685 0.76082 0.2542 0.0
C39 C 0.56387 0.78977 0.24761 0.0
C40 C 0.54263 0.80005 0.32154 0.0
C41 C 0.53381 0.78017 0.40141 0.0
N42 N 0.529 0.82951 0.31481 0.0
C43 C 0.53226 0.84941 0.23223 0.0
H44 H 0.2163 0.48804 0.1149 0.0
H45 H 0.30239 0.4976 0.26454 0.0
H46 H 0.29113 0.52688 0.95176 0.0
C47 C 0.24027 0.49355 0.11039 0.0
C48 C 0.25105 0.50669 0.02078 0.0
C49 C 0.25838 0.4904 0.19804 0.0
C50 C 0.28887 0.49946 0.19579 0.0
C51 C 0.30141 0.51205 0.10672 0.0
C52 C 0.28207 0.51626 0.01955 0.0
N53 N 0.33275 0.52148 0.10432 0.0
C54 C 0.35439 0.5188 0.18389 0.0
H55 H 0.03712 0.1961 0.1675 0.0
H56 H 0.04087 0.28648 0.29437 0.0
H57 H 0.03654 0.27236 0.9656 0.0
C58 C 0.03895 0.2203 0.15512 0.0
C59 C 0.03774 0.23097 0.0545 0.0
C60 C 0.03969 0.24024 0.24057 0.0
C61 C 0.04071 0.27161 0.2272 0.0
C62 C 0.04011 0.2839 0.12912 0.0
C63 C 0.03828 0.26329 0.0419 0.0
N64 N 0.03988 0.31652 0.11803 0.0
C65 C 0.04201 0.33889 0.19825 0.0
H66 H 0.34455 0.05837 0.13894 0.0
H67 H 0.25006 0.05922 0.22034 0.0
H68 H 0.2793 0.02018 0.92983 0.0
C69 C 0.32103 0.05482 0.11724 0.0
C70 C 0.31503 0.04011 0.02329 0.0
C71 C 0.29785 0.06094 0.1893 0.0
C72 C 0.26764 0.05474 0.16358 0.0
C73 C 0.26042 0.04013 0.07033 0.0
C74 C 0.28436 0.03276 0.99981 0.0
N75 N 0.2298 0.03063 0.0505 0.0
C76 C 0.20546 0.03339 0.12102 0.0
H77 H 0.47903 0.34678 0.07875 0.0
H78 H 0.48797 0.26075 0.22497 0.0
H79 H 0.51652 0.27119 0.90933 0.0
C80 C 0.48467 0.32282 0.07428 0.0
C81 C 0.49758 0.31145 0.98353 0.0
C82 C 0.48109 0.30481 0.16131 0.0
C83 C 0.4901 0.27429 0.15689 0.0
C84 C 0.50255 0.26161 0.06592 0.0
C85 C 0.50641 0.28049 0.97907 0.0
N86 N 0.51189 0.23042 0.06066 0.0
C87 C 0.51217 0.21024 0.1432 0.0
Tb88 Tb 0.05174 0.01788 0.79249 0.0
C89 C 0.98112 0.97967 0.44264 0.0
C90 C 0.99923 0.99066 0.2718 0.0
C91 C 0.97214 0.9437 0.30197 0.0
C92 C 0.99625 0.99849 0.37688 0.0
C93 C 0.96842 0.95219 0.40573 0.0
C94 C 0.98766 0.96286 0.23519 0.0
C95 C 0.94941 0.94357 0.57646 0.0
N96 N 0.97893 0.98824 0.54295 0.0
C97 C 0.96271 0.97083 0.60953 0.0
C98 C 0.95251 0.93404 0.4743 0.0
Tb99 Tb 1.00113 0.03366 0.58962 0.0
N100 N 1.00744 0.02489 0.41559 0.0
C101 C 0.01939 0.04593 0.35037 0.0
C102 C 1.01337 1.01117 0.20652 0.0
C103 C 0.02328 0.03905 0.24598 0.0
H104 H 0.96021 0.97734 0.68882 0.0
H105 H 0.03405 0.05522 0.19636 0.0
H106 H 0.99018 0.95623 0.15514 0.0
H107 H 0.93705 0.92975 0.63022 0.0
H108 H 0.02707 0.06765 0.38027 0.0
H109 H 0.9991 0.09612 0.06809 0.0
H110 H 1.01618 1.00596 0.12547 0.0
H111 H 0.1258 1.00792 0.73872 0.0
H112 H 1.00101 0.05308 0.95038 0.0
H113 H 0.17388 0.03527 0.76273 0.0
H114 H 0.96294 0.92249 0.2725 0.0
H115 H 0.04477 0.12743 0.09767 0.0
H116 H 0.09961 0.13697 0.06022 0.0
H117 H 0.94252 0.91273 0.4492 0.0
H118 H 0.14684 0.12143 0.97239 0.0
N119 N 0.04719 0.05931 0.90404 0.0
C120 C 0.02118 0.06621 0.95809 0.0
C121 C 0.04577 0.10834 0.04408 0.0
C122 C 0.07263 0.10083 0.99218 0.0
C123 C 0.01998 0.09083 0.0272 0.0
C124 C 0.07267 0.07579 0.92258 0.0
H125 H 0.17474 0.08364 0.86156 0.0
N126 N 0.09837 0.04206 0.81175 0.0
C127 C 0.15294 0.0449 0.79273 0.0
C128 C 0.09904 0.0672 0.87318 0.0
C129 C 0.12544 0.02971 0.77779 0.0
C130 C 0.15333 0.07211 0.84858 0.0
C131 C 0.12636 0.08316 0.89215 0.0
O132 O 0.08413 0.98972 0.85931 0.0
O133 O 0.02247 0.99764 0.67424 0.0
O134 O 0.97414 0.03022 0.73139 0.0
O135 O 1.00545 1.00745 0.85045 0.0
O136 O 0.06276 0.97641 0.70109 0.0
O137 O 0.04111 0.99751 0.93279 0.0
O138 O 0.98034 0.0677 0.50513 0.0
O139 O 0.0243 0.05294 0.72461 0.0
O140 O 0.07938 0.02819 0.65449 0.0
O141 O 0.04608 0.02736 0.51612 0.0
O142 O 0.02471 0.07797 0.59556 0.0
O143 O 0.95432 0.04259 0.61301 0.0
C144 C 0.0387 0.97475 0.64598 0.0
C145 C 0.06247 0.94846 0.93754 0.0
C146 C 0.03234 0.90269 0.91426 0.0
C147 C 0.0348 0.93432 0.91338 0.0
C148 C 0.05843 0.88531 0.9357 0.0
C149 C 0.08805 0.93085 0.95938 0.0
C150 C 0.08606 0.89936 0.95744 0.0
C151 C 0.97845 1.01731 0.82096 0.0
C152 C 0.06581 0.98131 0.93106 0.0
C153 C 0.12616 0.1088 0.95767 0.0
C154 C 0.09936 0.11752 1.00813 0.0
C155 C 0.0333 0.07821 0.6897 0.0
C156 C 0.94541 0.09556 0.60705 0.0
C157 C 0.96181 0.12215 0.58893 0.0
C158 C 0.95496 0.14948 0.64109 0.0
C159 C 0.93068 0.15019 0.71137 0.0
C160 C 0.92072 0.09681 0.67554 0.0
C161 C 0.91362 0.12393 0.7281 0.0
C162 C 0.07385 0.02821 0.55443 0.0
C163 C 0.95519 0.06666 0.55721 0.0
H164 H 1.01506 0.94783 0.89507 0.0
H165 H 0.05734 0.86085 0.94041 0.0
H166 H 0.10966 0.9415 0.97646 0.0
H167 H 0.10584 0.8858 0.9746 0.0
H168 H 0.97979 0.12176 0.53187 0.0
H169 H 0.92471 0.17099 0.75221 0.0
H170 H 0.90716 0.07679 0.68911 0.0
H171 H 0.89476 0.12463 0.78171 0.0
Tb172 Tb 0.53358 0.05688 0.7679 0.0
C173 C 0.56535 0.95065 0.52439 0.0
C174 C 0.59708 0.97308 0.39473 0.0
C175 C 0.60909 0.92291 0.45577 0.0
C176 C 0.57201 0.97474 0.46306 0.0
C177 C 0.5831 0.92392 0.51855 0.0
C178 C 0.61609 0.9475 0.39389 0.0
C179 C 0.54561 0.89949 0.62362 0.0
N180 N 0.53978 0.9523 0.58233 0.0
C181 C 0.52869 0.92632 0.62561 0.0
C182 C 0.57334 0.89848 0.57174 0.0
Tb183 Tb 0.51469 0.99863 0.59035 0.0
N184 N 0.55287 0.99897 0.46566 0.0
C185 C 0.55645 0.02096 0.39345 0.0
C186 C 0.60199 0.99684 0.32769 0.0
C187 C 0.58131 0.02063 0.32607 0.0
H188 H 0.50696 0.92662 0.66437 0.0
H189 H 0.58434 0.03873 0.27207 0.0
H190 H 0.63569 0.94614 0.34334 0.0
H191 H 0.53709 0.87956 0.66143 0.0
H192 H 0.54046 0.03892 0.3841 0.0
H193 H 0.53774 0.03139 0.17441 0.0
H194 H 0.62108 0.99657 0.27483 0.0
H195 H 0.4879 0.10783 0.65638 0.0
H196 H 0.5598 0.0413 1.00439 0.0
H197 H 0.43929 0.13246 0.68992 0.0
H198 H 0.62324 0.9028 0.45156 0.0
H199 H 0.48348 0.04185 0.20865 0.0
H200 H 0.43512 0.06649 0.15014 0.0
H201 H 0.5863 0.87757 0.56914 0.0
H202 H 0.40894 0.09649 0.02003 0.0
N203 N 0.51746 0.05369 0.93764 0.0
C204 C 0.53584 0.04543 0.01731 0.0
C205 C 0.49294 0.04593 0.13337 0.0
C206 C 0.47549 0.059 0.05682 0.0
C207 C 0.52358 0.04006 0.11443 0.0
C208 C 0.48872 0.06281 0.95903 0.0
H209 H 0.41119 0.12282 0.85074 0.0
N210 N 0.48796 0.08224 0.79405 0.0
C211 C 0.44848 0.117 0.74528 0.0
C212 C 0.47382 0.07872 0.88569 0.0
C213 C 0.47617 0.10228 0.72574 0.0
C214 C 0.43277 0.11166 0.83622 0.0
C215 C 0.44549 0.09245 0.90827 0.0
O216 O 0.54632 0.10105 0.72589 0.0
O217 O 0.55 0.02969 0.6375 0.0
O218 O 0.52697 0.97585 0.73482 0.0
O219 O 0.54097 1.01409 0.85004 0.0
O220 O 0.57797 0.03387 0.75938 0.0
O221 O 0.56425 0.08142 0.86067 0.0
O222 O 0.49236 0.96338 0.50848 0.0
O223 O 0.49601 0.03194 0.69984 0.0
O224 O 0.5309 0.07772 0.61613 0.0
O225 O 0.50554 0.04217 0.51456 0.0
O226 O 0.4827 0.98776 0.71348 0.0
O227 O 0.47614 1.00865 0.50201 0.0
C228 C 0.57647 0.02265 0.66754 0.0
C229 C 0.59807 0.10963 0.75788 0.0
C230 C 0.65196 0.09674 0.75045 0.0
C231 C 0.6227 0.09214 0.79005 0.0
C232 C 0.6568 0.11952 0.67874 0.0
C233 C 0.6031 0.13221 0.68517 0.0
C234 C 0.63234 0.13708 0.64591 0.0
C235 C 0.53655 0.98514 0.82627 0.0
C236 C 0.56706 0.10309 0.79553 0.0
C237 C 0.43111 0.08695 1.00253 0.0
C238 C 0.44596 0.06981 0.07636 0.0
C239 C 0.4777 1.01485 0.74807 0.0
C240 C 0.43963 0.97141 0.53433 0.0
C241 C 0.41448 0.99033 0.52132 0.0
C242 C 0.3879 0.98688 0.5807 0.0
C243 C 0.38664 0.96357 0.65253 0.0
C244 C 0.43741 0.94747 0.6038 0.0
C245 C 0.41115 0.94377 0.66284 0.0
C246 C 0.51593 0.07007 0.53184 0.0
C247 C 0.46918 0.98032 0.48934 0.0
H248 H 0.6193 0.0749 0.84711 0.0
H249 H 0.67933 0.1236 0.64822 0.0
H250 H 0.58442 0.14589 0.65823 0.0
H251 H 0.63604 0.1545 0.5899 0.0
H252 H 0.41599 1.00804 0.46505 0.0
H253 H 0.36669 0.96049 0.70014 0.0
H254 H 0.45632 0.93232 0.61575 0.0
H255 H 0.40996 0.92574 0.71786 0.0
Tb256 Tb 0.56292 0.52646 0.60432 0.0
C257 C 0.43664 0.49482 0.7624 0.0
C258 C 0.40095 0.5209 0.65516 0.0
C259 C 0.38675 0.47305 0.73108 0.0
C260 C 0.4299 0.51873 0.70047 0.0
C261 C 0.41491 0.47206 0.78101 0.0
C262 C 0.37977 0.49747 0.66817 0.0
C263 C 0.44906 0.4512 0.90565 0.0
N264 N 0.46386 0.49501 0.81008 0.0
C265 C 0.46973 0.47438 0.88502 0.0
C266 C 0.42172 0.44971 0.85209 0.0
Tb267 Tb 0.49726 0.53293 0.76719 0.0
N268 N 0.45096 0.54094 0.69058 0.0
C269 C 0.44318 0.5674 0.64398 0.0
C270 C 0.39379 0.54703 0.60134 0.0
C271 C 0.41482 0.5706 0.59739 0.0
H272 H 0.49099 0.47511 0.92608 0.0
H273 H 0.40926 0.59126 0.55814 0.0
H274 H 0.3576 0.49851 0.63267 0.0
H275 H 0.45429 0.43445 0.96255 0.0
H276 H 0.45872 0.58612 0.63982 0.0
H277 H 0.65321 0.46542 0.79367 0.0
H278 H 0.37187 0.54957 0.56514 0.0
H279 H 0.5682 0.58651 0.45374 0.0
H280 H 0.60413 0.4707 0.70975 0.0
H281 H 0.60432 0.62799 0.4227 0.0
H282 H 0.36986 0.45561 0.74329 0.0
H283 H 0.68942 0.50823 0.7973 0.0
H284 H 0.70264 0.56062 0.73927 0.0
H285 H 0.40566 0.43181 0.86844 0.0
H286 H 0.68949 0.60494 0.63634 0.0
N287 N 0.61 0.51741 0.67457 0.0
C288 C 0.61863 0.49019 0.7139 0.0
C289 C 0.66741 0.51095 0.76186 0.0
C290 C 0.65968 0.53781 0.71328 0.0
C291 C 0.64701 0.4868 0.76015 0.0
C292 C 0.63061 0.54019 0.66889 0.0
H293 H 0.65316 0.6299 0.51561 0.0
N294 N 0.596 0.56504 0.56471 0.0
C295 C 0.60995 0.61046 0.47639 0.0
C296 C 0.62337 0.56492 0.61147 0.0
C297 C 0.58958 0.58677 0.49394 0.0
C298 C 0.63741 0.61153 0.5293 0.0
C299 C 0.64469 0.58827 0.59638 0.0
O300 O 0.57552 0.52453 0.44891 0.0
O301 O 0.51325 0.52403 0.61261 0.0
O302 O 0.50188 0.48502 0.71682 0.0
O303 O 0.55377 0.48319 0.68511 0.0
O304 O 0.53157 0.5453 0.49062 0.0
O305 O 0.57085 0.48363 0.53501 0.0
O306 O 0.4869 0.5362 0.9242 0.0
O307 O 0.54653 0.5348 0.75732 0.0
O308 O 0.55996 0.57298 0.66694 0.0
O309 O 0.5081 0.57726 0.69375 0.0
O310 O 0.52893 0.51715 0.88642 0.0
O311 O 0.48445 0.57551 0.8291 0.0
C312 C 0.50631 0.53663 0.52929 0.0
C313 C 0.55028 0.48451 0.36693 0.0
C314 C 0.5051 0.4552 0.32179 0.0
C315 C 0.52707 0.46425 0.39375 0.0
C316 C 0.50566 0.46811 0.22371 0.0
C317 C 0.5507 0.49668 0.26816 0.0
C318 C 0.52827 0.48877 0.19751 0.0
C319 C 0.52778 0.46973 0.71075 0.0
C320 C 0.57238 0.49529 0.44387 0.0
C321 C 0.67293 0.58704 0.64573 0.0
C322 C 0.68041 0.56182 0.70429 0.0
C323 C 0.55407 0.52458 0.84374 0.0
C324 C 0.5067 0.58115 0.99403 0.0
C325 C 0.52407 0.60606 0.96244 0.0
C326 C 0.545 0.61997 0.02922 0.0
C327 C 0.54929 0.60764 0.12714 0.0
C328 C 0.51098 0.56967 0.09266 0.0
C329 C 0.53247 0.58261 0.15815 0.0
C330 C 0.53502 0.5897 0.67428 0.0
C331 C 0.48572 0.56561 0.92269 0.0
H332 H 0.52626 0.45512 0.47026 0.0
H333 H 0.48956 0.46122 0.16528 0.0
H334 H 0.56813 0.51268 0.24623 0.0
H335 H 0.52876 0.49821 0.12146 0.0
H336 H 0.52104 0.61495 0.88637 0.0
H337 H 0.56459 0.61811 0.18203 0.0
H338 H 0.49794 0.55042 0.11862 0.0
H339 H 0.53567 0.57359 0.234 0.0
Tb340 Tb 0.03627 0.54941 0.62189 0.0
C341 C 0.05242 0.4301 0.80694 0.0
C342 C 0.02971 0.39458 0.68741 0.0
C343 C 0.07459 0.37996 0.78186 0.0
C344 C 0.03074 0.42357 0.73517 0.0
C345 C 0.07361 0.40785 0.83571 0.0
C346 C 0.0527 0.37338 0.70705 0.0
C347 C 0.0877 0.44045 0.97836 0.0
N348 N 0.05026 0.45712 0.85735 0.0
C349 C 0.06642 0.46181 0.94618 0.0
C350 C 0.09185 0.41362 0.92138 0.0
Tb351 Tb 1.01612 0.49218 0.79462 0.0
N352 N 1.00833 0.44426 0.7229 0.0
C353 C 0.98203 0.43533 0.67521 0.0
C354 C 1.00451 0.38703 0.62762 0.0
C355 C 0.9801 0.40712 0.62452 0.0
H356 H 0.06383 0.48278 0.98912 0.0
H357 H 0.95959 0.40079 0.58405 0.0
H358 H 0.05264 0.35122 0.66963 0.0
H359 H 0.10107 0.44477 0.04644 0.0
H360 H 0.96205 0.44937 0.67623 0.0
H361 H 0.11099 0.60877 0.89887 0.0
H362 H 1.00283 0.36506 0.58934 0.0
H363 H 0.97801 0.57718 0.48504 0.0
H364 H 0.08744 0.56493 0.82299 0.0
H365 H 0.95467 0.62617 0.45358 0.0
H366 H 0.09112 0.36279 0.8011 0.0
H367 H 0.0929 0.65992 0.85819 0.0
H368 H 0.05569 0.69222 0.7695 0.0
H369 H 0.1083 0.39708 0.94639 0.0
H370 H 1.01216 0.69683 0.65448 0.0
N371 N 0.05886 0.58895 0.71824 0.0
C372 C 0.08086 0.58627 0.79247 0.0
C373 C 0.08326 0.64036 0.81873 0.0
C374 C 0.05937 0.64343 0.75013 0.0
C375 C 0.0937 0.61161 0.84107 0.0
C376 C 0.04735 0.61713 0.70084 0.0
H377 H 0.97425 0.67252 0.53892 0.0
N378 N 1.01027 0.59422 0.59496 0.0
C379 C 0.97344 0.62474 0.50656 0.0
C380 C 0.02223 0.61975 0.63823 0.0
C381 C 0.98685 0.59678 0.52594 0.0
C382 C 0.9846 0.65079 0.55451 0.0
C383 C 1.00939 0.64864 0.62027 0.0
O384 O 0.02202 0.54441 0.46931 0.0
O385 O 0.02325 0.50159 0.63611 0.0
O386 O 0.06689 0.49451 0.78255 0.0
O387 O 0.08118 0.53515 0.68005 0.0
O388 O 0.06009 0.50955 0.55087 0.0
O389 O 0.06066 0.57249 0.50852 0.0
O390 O 1.00421 0.47911 0.94433 0.0
O391 O 1.01665 0.54115 0.7707 0.0
O392 O 0.98571 0.54799 0.63795 0.0
O393 O 0.97867 0.49837 0.68196 0.0
O394 O 0.03148 0.52682 0.90798 0.0
O395 O 0.9702 0.49333 0.84086 0.0
C396 C 0.04255 0.48806 0.57919 0.0
C397 C 0.06174 0.54514 0.35078 0.0
C398 C 0.10253 0.51109 0.29595 0.0
C399 C 0.08934 0.53045 0.37009 0.0
C400 C 0.08871 0.50812 0.19919 0.0
C401 C 0.04843 0.54223 0.25392 0.0
C402 C 0.06195 0.52386 0.17837 0.0
C403 C 0.088 0.51254 0.74233 0.0
C404 C 0.04474 0.56014 0.43439 0.0
C405 C 0.02177 0.6746 0.66742 0.0
C406 C 0.04665 0.67199 0.73234 0.0
C407 C 0.02557 0.55077 0.85784 0.0
C408 C 0.96763 0.51283 0.01069 0.0
C409 C 0.95259 0.53906 0.97814 0.0
C410 C 0.94373 0.56187 0.04887 0.0
C411 C 0.95236 0.55906 0.15233 0.0
C412 C 0.9755 0.51032 0.11431 0.0
C413 C 0.96817 0.53352 0.18435 0.0
C414 C 0.96802 0.52378 0.64238 0.0
C415 C 0.97673 0.48892 0.93601 0.0
H416 H 0.09993 0.53306 0.44451 0.0
H417 H 0.09894 0.49419 0.13912 0.0
H418 H 0.02734 0.55375 0.23752 0.0
H419 H 0.05139 0.52161 0.10407 0.0
H420 H 0.94695 0.54142 0.89791 0.0
H421 H 0.94543 0.57564 0.21016 0.0
H422 H 0.9875 0.49053 0.14092 0.0
H423 H 0.97412 0.53136 0.26437 0.0
H424 H 0.19686 1.0052 0.30274 0.0
H425 H 0.15471 0.06695 0.09549 0.0
H426 H 0.11001 0.07102 0.20865 0.0
H427 H 0.08293 0.0573 0.36989 0.0
H428 H 0.12474 0.99372 0.57221 0.0
H429 H 0.16929 0.99056 0.46061 0.0
C430 C 0.1779 0.0196 0.28268 0.0
C431 C 0.17916 0.03588 0.19079 0.0
C432 C 0.15218 0.02175 0.34858 0.0
C433 C 0.15433 0.05431 0.16575 0.0
C434 C 0.12873 0.0566 0.23069 0.0
C435 C 0.10167 0.04262 0.38929 0.0
C436 C 0.10056 0.02642 0.48189 0.0
C437 C 0.12732 0.04044 0.32271 0.0
C438 C 0.12532 1.00756 0.50479 0.0
C439 C 0.15076 1.00536 0.43973 0.0
H440 H 0.48173 0.15675 0.16206 0.0
H441 H 0.54945 0.21319 0.30693 0.0
H442 H 0.5568 0.1752 0.43962 0.0
H443 H 0.54463 0.12531 0.5136 0.0
H444 H 0.47615 0.06916 0.37058 0.0
H445 H 0.46837 0.10749 0.23998 0.0
C446 C 0.49793 0.16078 0.22321 0.0
C447 C 0.51495 0.18791 0.22485 0.0
C448 C 0.50207 0.13867 0.29963 0.0
C449 C 0.53598 0.19265 0.30414 0.0
C450 C 0.54023 0.17083 0.37998 0.0
C451 C 0.52798 0.12134 0.4539 0.0
C452 C 0.5113 0.09388 0.45194 0.0
C453 C 0.52353 0.14364 0.37843 0.0
C454 C 0.4898 0.08956 0.37352 0.0
C455 C 0.48524 0.1116 0.29865 0.0
H456 H 0.39857 0.56083 0.21626 0.0
H457 H 0.3678 0.47389 0.31864 0.0
H458 H 0.41105 0.4712 0.43709 0.0
H459 H 0.45942 0.49332 0.50941 0.0
H460 H 0.4887 0.58069 0.40432 0.0
H461 H 0.44524 0.58314 0.28993 0.0
C462 C 0.4012 0.54134 0.26491 0.0
C463 C 0.3797 0.51766 0.25839 0.0
C464 C 0.4263 0.53994 0.33288 0.0
C465 C 0.38379 0.49254 0.32191 0.0
C466 C 0.40869 0.49097 0.38972 0.0
C467 C 0.45589 0.51314 0.46311 0.0
C468 C 0.47715 0.5373 0.46871 0.0
C469 C 0.43033 0.51449 0.39593 0.0
C470 C 0.47262 0.56209 0.40402 0.0
C471 C 0.44766 0.56351 0.33794 0.0
H472 H 1.00087 0.38336 0.25905 0.0
H473 H 0.09211 0.35219 0.31107 0.0
H474 H 0.10046 0.39451 0.43277 0.0
H475 H 0.08231 0.44164 0.52426 0.0
H476 H 0.9912 0.4729 0.47201 0.0
H477 H 0.98248 0.43017 0.35256 0.0
C478 C 0.02253 0.38567 0.29754 0.0
C479 C 0.0458 0.36412 0.27541 0.0
C480 C 0.02724 0.41043 0.3684 0.0
C481 C 0.0737 0.36801 0.32618 0.0
C482 C 0.07852 0.39241 0.39607 0.0
C483 C 0.06041 0.4389 0.48767 0.0
C484 C 0.03708 0.4603 0.51068 0.0
C485 C 0.05554 0.41392 0.41799 0.0
C486 C 1.00923 0.45653 0.4594 0.0
C487 C 1.00433 0.43206 0.38994 0.0
H488 H 0.85779 0.03779 0.08725 0.0
H489 H 0.88813 0.95591 0.22905 0.0
H490 H 0.93268 0.95398 0.11499 0.0
H491 H 0.96439 0.97663 0.97578 0.0
H492 H 0.93293 0.0583 0.83535 0.0
H493 H 0.88856 0.05966 0.94759 0.0
C494 C 0.87425 0.01961 0.09338 0.0
C495 C 0.86956 0.99702 0.16674 0.0
C496 C 0.90011 0.01879 0.02783 0.0
C497 C 0.89114 0.97361 0.17343 0.0
C498 C 0.91682 0.97261 0.10849 0.0
C499 C 0.94775 0.9946 0.96958 0.0
C500 C 0.95184 1.01696 0.89436 0.0
C501 C 0.92178 0.9952 0.03546 0.0
C502 C 0.93002 0.04023 0.88919 0.0
C503 C 0.90466 0.04122 0.95456 0.0
H504 H 0.56171 0.90387 0.21872 0.0
H505 H 0.50181 0.8431 0.05476 0.0
H506 H 0.49816 0.87911 0.9145 0.0
H507 H 0.5102 0.9288 0.84116 0.0
H508 H 0.57179 0.98904 1.00013 0.0
H509 H 0.57596 0.95303 0.13959 0.0
C510 C 0.5481 0.89846 0.15174 0.0
C511 C 0.53212 0.8707 0.14695 0.0
C512 C 0.5461 0.91946 0.07071 0.0
C513 C 0.51441 0.86417 0.06011 0.0
C514 C 0.51226 0.88484 0.97991 0.0
C515 C 0.52514 0.93389 0.90473 0.0
C516 C 0.54064 0.96196 0.90872 0.0
C517 C 0.52785 0.91265 0.98439 0.0
C518 C 0.55911 0.9681 0.99461 0.0
C519 C 0.56171 0.94728 0.07453 0.0
H520 H 0.66414 0.49579 0.1413 0.0
H521 H 0.69374 0.58429 0.05044 0.0
H522 H 0.65018 0.58798 0.93372 0.0
H523 H 0.60166 0.56651 0.86128 0.0
H524 H 0.57273 0.47817 0.95751 0.0
H525 H 0.61727 0.47403 0.06664 0.0
C526 C 0.66118 0.51582 0.09544 0.0
C527 C 0.68239 0.53971 0.10489 0.0
C528 C 0.63591 0.51779 0.02848 0.0
C529 C 0.67794 0.56552 0.04497 0.0
C530 C 0.65288 0.56765 0.97813 0.0
C531 C 0.6056 0.54604 0.90398 0.0
C532 C 0.58423 0.52204 0.89704 0.0
C533 C 0.63148 0.54397 0.96927 0.0
C534 C 0.58912 0.49648 0.95781 0.0
C535 C 0.6146 0.49419 0.02133 0.0
H536 H 0.9898 0.68288 0.0478 0.0
H537 H 0.0565 0.65603 0.26923 0.0
H538 H 0.06423 0.60799 0.17603 0.0
H539 H 0.05298 0.57312 0.03074 0.0
H540 H 0.98543 0.59749 0.81 0.0
H541 H 0.97744 0.6463 0.90129 0.0
C542 C 1.00604 0.66653 0.07555 0.0
C543 C 0.0227 0.67353 0.16635 0.0
C544 C 1.01044 0.63828 0.0206 0.0
C545 C 0.04346 0.65168 0.20026 0.0
C546 C 0.0479 0.624 0.14665 0.0
C547 C 0.03639 0.58901 1.00243 0.0
C548 C 0.02043 0.58149 0.91121 0.0
C549 C 0.03166 0.61698 0.05663 0.0
C550 C 0.99885 0.60265 0.87742 0.0
C551 C 0.99411 0.63065 0.93061 0.0
H552 H 0.99334 0.25461 0.367 0.0
H553 H 0.07312 0.1982 0.34142 0.0
H554 H 0.0571 0.17018 0.49292 0.0
H555 H 1.01549 0.15529 0.60532 0.0
H556 H 0.93159 0.20593 0.60709 0.0
H557 H 0.9547 0.24393 0.49784 0.0
C558 C 1.00763 0.23681 0.39693 0.0
C559 C 0.0342 0.22819 0.34368 0.0
C560 C 0.99739 0.21983 0.4799 0.0
C561 C 0.0525 0.20494 0.38153 0.0
C562 C 0.0433 0.18897 0.46771 0.0
C563 C 1.00248 0.17503 0.58371 0.0
C564 C 0.97157 0.17724 0.61126 0.0
C565 C 1.01501 0.1952 0.51372 0.0
C566 C 0.95531 0.20345 0.58604 0.0
C567 C 0.96838 0.22495 0.52209 0.0
H568 H 0.27696 0.02837 0.34659 0.0
H569 H 0.33917 0.10052 0.27532 0.0
H570 H 0.36989 0.08803 0.42424 0.0
H571 H 0.3867 0.0469 0.53348 0.0
H572 H 0.3281 0.96982 0.57973 0.0
H573 H 0.28779 0.99458 0.48647 0.0
C574 C 0.29635 0.04242 0.36652 0.0
C575 C 0.30647 0.06463 0.29838 0.0
C576 C 0.31503 0.03357 0.44692 0.0
C577 C 0.3314 0.08286 0.32577 0.0
C578 C 0.34914 0.07546 0.41013 0.0
C579 C 0.36486 0.03579 0.52517 0.0
C580 C 0.36096 1.00595 0.55941 0.0
C581 C 0.34255 0.04917 0.46493 0.0
C582 C 0.33208 0.99253 0.55263 0.0
C583 C 0.30901 1.00658 0.49819 0.0
H584 H 0.43385 0.3429 0.20273 0.0
H585 H 0.51273 0.30309 0.34003 0.0
H586 H 0.5216 0.3495 0.4392 0.0
H587 H 0.51953 0.40439 0.42518 0.0
H588 H 0.44572 0.44626 0.26331 0.0
H589 H 0.4224 0.39668 0.23479 0.0
C590 C 0.45197 0.34399 0.25881 0.0
C591 C 0.47369 0.32056 0.25971 0.0
C592 C 0.45882 0.37186 0.30659 0.0
C593 C 0.49628 0.32129 0.33532 0.0
C594 C 0.50177 0.34817 0.39044 0.0
C595 C 0.49759 0.40304 0.38801 0.0
C596 C 0.48511 0.42883 0.34202 0.0
C597 C 0.48523 0.37436 0.36728 0.0
C598 C 0.45642 0.42653 0.29567 0.0
C599 C 0.44307 0.39815 0.27942 0.0
H600 H 0.22327 0.44168 0.24281 0.0
H601 H 0.25588 0.52601 0.37076 0.0
H602 H 0.20554 0.53757 0.43924 0.0
H603 H 0.15148 0.53326 0.39859 0.0
H604 H 0.11789 0.45247 0.2454 0.0
H605 H 0.16885 0.43049 0.2462 0.0
C606 C 0.2196 0.46165 0.29133 0.0
C607 C 0.2423 0.48407 0.29527 0.0
C608 C 0.1898 0.46981 0.31857 0.0
C609 C 0.23823 0.50903 0.36249 0.0
C610 C 0.20914 0.51611 0.39902 0.0
C611 C 0.155 0.51038 0.36886 0.0
C612 C 0.13127 0.49499 0.31818 0.0
C613 C 0.18442 0.49829 0.3671 0.0
C614 C 0.13618 0.46527 0.28076 0.0
C615 C 0.16522 0.45256 0.28229 0.0
H616 H 0.93998 0.83908 0.14906 0.0
H617 H 0.99069 0.76627 1.00337 0.0
H618 H 1.00047 0.79721 0.85682 0.0
H619 H 1.01751 0.84869 0.82439 0.0
H620 H 0.97873 0.92334 0.99883 0.0
H621 H 0.94216 0.88965 0.07594 0.0
C622 C 0.95233 0.82973 0.08345 0.0
C623 C 0.96754 0.80185 0.09246 0.0
C624 C 0.96149 0.84909 1.00534 0.0
C625 C 0.98046 0.78858 1.00303 0.0
C626 C 0.98657 0.80655 0.91873 0.0
C627 C 1.00002 0.85775 0.87539 0.0
C628 C 1.00212 0.88789 0.9111 0.0
C629 C 0.98102 0.83774 0.92695 0.0
C630 C 0.97848 0.89991 0.97277 0.0
C631 C 0.95761 0.88047 0.01813 0.0
H632 H 0.7205 1.00633 0.021 0.0
H633 H 0.76614 0.08841 0.11529 0.0
H634 H 0.74357 0.11546 0.97168 0.0
H635 H 0.70312 0.11747 0.84179 0.0
H636 H 0.65558 0.03561 0.75649 0.0
H637 H 0.68728 1.00628 0.87074 0.0
C638 C 0.72609 0.02991 1.00774 0.0
C639 C 0.74449 0.04566 0.07778 0.0
C640 C 0.71262 0.04523 0.92678 0.0
C641 C 0.75186 0.07611 0.06142 0.0
C642 C 0.73887 0.09151 0.97989 0.0
C643 C 0.70065 0.09304 0.84542 0.0
C644 C 0.67708 0.07858 0.79156 0.0
C645 C 0.71812 0.07662 0.91496 0.0
C646 C 0.67373 0.047 0.79713 0.0
C647 C 0.69159 0.03034 0.86343 0.0
H648 H 0.55393 0.75593 0.06453 0.0
H649 H 0.63137 0.73042 0.24334 0.0
H650 H 0.63379 0.68148 0.15312 0.0
H651 H 0.60163 0.64138 0.07772 0.0
H652 H 0.519 0.66633 0.9232 0.0
H653 H 0.53145 0.71947 0.94457 0.0
C654 C 0.5725 0.74041 0.07915 0.0
C655 C 0.59136 0.74581 0.16399 0.0
C656 C 0.57193 0.71139 0.0335 0.0
C657 C 0.616 0.72617 0.18007 0.0
C658 C 0.61693 0.69788 0.12998 0.0
C659 C 0.58676 0.65847 0.04641 0.0
C660 C 0.55862 0.64983 1.00437 0.0
C661 C 0.59298 0.68925 0.06523 0.0
C662 C 0.54047 0.67209 0.9586 0.0
C663 C 0.54742 0.70274 0.9716 0.0
H664 H 0.83313 0.63064 0.16525 0.0
H665 H 0.79614 0.55763 0.98151 0.0
H666 H 0.84305 0.55406 0.88337 0.0
H667 H 0.89737 0.55446 0.91303 0.0
H668 H 0.93676 0.62109 0.11951 0.0
H669 H 0.88692 0.64435 0.14546 0.0
C670 C 0.83489 0.61518 0.09965 0.0
C671 C 0.81252 0.59267 0.08613 0.0
C672 C 0.86324 0.61088 0.052 0.0
C673 C 0.81378 0.57415 0.99727 0.0
C674 C 0.841 0.57163 0.94234 0.0
C675 C 0.89567 0.57502 0.95963 0.0
C676 C 0.92033 0.58463 0.02064 0.0
C677 C 0.86675 0.58709 0.97863 0.0
C678 C 0.91763 0.61207 0.07683 0.0
C679 C 0.8891 0.62541 0.09165 0.0
H680 H 0.07752 0.20187 0.91437 0.0
H681 H 0.98394 0.20357 0.01212 0.0
H682 H 0.97403 0.15713 0.91208 0.0
H683 H 0.99253 0.11301 0.80587 0.0
H684 H 0.08501 0.1126 0.69763 0.0
H685 H 0.09447 0.16077 0.78965 0.0
C686 C 0.0547 0.19272 0.9111 0.0
C687 C 0.03135 0.20722 0.97013 0.0
C688 C 0.04901 0.16544 0.85238 0.0
C689 C 1.00226 0.19384 0.96636 0.0
C690 C 0.99661 0.16685 0.90969 0.0
C691 C 1.01483 0.12336 0.80284 0.0
C692 C 0.03847 0.10799 0.74833 0.0
C693 C 0.01991 0.1519 0.85418 0.0
C694 C 0.06665 0.12297 0.74155 0.0
C695 C 0.07203 0.15082 0.79399 0.0
H696 H 0.3426 0.06116 0.84567 0.0
H697 H 0.35016 0.99297 0.07623 0.0
H698 H 0.40105 0.97972 0.01442 0.0
H699 H 0.4454 0.98984 0.90305 0.0
H700 H 0.43718 0.05441 0.66206 0.0
H701 H 0.38529 0.06688 0.7194 0.0
C702 C 0.35501 0.04276 0.88014 0.0
C703 C 0.34213 0.02777 0.96494 0.0
C704 C 0.38472 0.03518 0.84399 0.0
C705 C 0.3591 1.00449 1.00991 0.0
C706 C 0.38846 0.99713 0.97529 0.0
C707 C 0.43228 1.0068 0.8635 0.0
C708 C 0.44603 0.02274 0.78278 0.0
C709 C 0.40187 1.01279 0.89408 0.0
C710 C 0.42801 0.04331 0.72873 0.0
C711 C 0.39802 0.04997 0.76031 0.0
H712 H 0.54777 0.34575 0.94355 0.0
H713 H 0.4559 0.33039 0.84505 0.0
H714 H 0.45709 0.37733 0.74726 0.0
H715 H 0.48263 0.42594 0.70417 0.0
H716 H 0.5743 0.4411 0.80732 0.0
H717 H 0.57496 0.39163 0.88633 0.0
C718 C 0.52849 0.35201 0.89704 0.0
C719 C 0.50211 0.33382 0.89917 0.0
C720 C 0.52912 0.3796 0.84273 0.0
C721 C 0.47684 0.34322 0.8421 0.0
C722 C 0.47738 0.37042 0.78734 0.0
C723 C 0.50292 0.41823 0.74263 0.0
C724 C 0.52852 0.43761 0.74841 0.0
C725 C 0.50312 0.38932 0.78925 0.0
C726 C 0.55447 0.4269 0.79904 0.0
C727 C 0.55478 0.39847 0.84552 0.0
H728 H 0.21157 0.46546 0.93529 0.0
H729 H 0.23529 0.56002 0.92462 0.0
H730 H 0.18839 0.5703 0.82944 0.0
H731 H 0.13724 0.55312 0.76583 0.0
H732 H 0.11444 0.45834 0.78183 0.0
H733 H 0.1637 0.44765 0.85755 0.0
C734 C 0.20697 0.48828 0.90997 0.0
C735 C 0.22755 0.51185 0.93739 0.0
C736 C 0.17937 0.49416 0.85801 0.0
C737 C 0.22061 0.54122 0.90381 0.0
C738 C 0.19335 0.54717 0.85042 0.0
C739 C 0.14295 0.53009 0.78537 0.0
C740 C 0.1209 0.50672 0.77185 0.0
C741 C 0.17197 0.52399 0.82967 0.0
C742 C 0.12985 0.47703 0.79541 0.0
C743 C 0.15838 0.47082 0.83792 0.0
H744 H 0.03343 0.86731 0.30459 0.0
H745 H 0.99467 0.81876 0.557 0.0
H746 H 0.99758 0.86484 0.66501 0.0
H747 H 1.01247 0.91935 0.69234 0.0
H748 H 0.05437 0.96665 0.44317 0.0
H749 H 0.04977 0.92123 0.3327 0.0
C750 C 0.02628 0.86646 0.38418 0.0
C751 C 1.01431 0.83872 0.422 0.0
C752 C 0.0287 0.89323 0.44771 0.0
C753 C 1.00477 0.83894 0.52534 0.0
C754 C 1.00637 0.86557 0.58763 0.0
C755 C 0.02012 0.91993 0.61327 0.0
C756 C 0.03221 0.94752 0.57528 0.0
C757 C 1.0183 0.89296 0.55026 0.0
C758 C 0.04359 0.94672 0.47399 0.0
C759 C 0.04128 0.92039 0.41076 0.0
H760 H 0.68842 0.05614 0.38275 0.0
H761 H 0.72113 0.96917 0.48028 0.0
H762 H 0.67561 0.96349 0.58801 0.0
H763 H 0.6247 0.98246 0.64968 0.0
H764 H 0.59228 0.06842 0.54284 0.0
H765 H 0.6389 0.07491 0.44318 0.0
C766 C 0.68572 0.03569 0.42661 0.0
C767 C 0.70854 1.01293 0.42115 0.0
C768 C 0.65905 0.03222 0.48641 0.0
C769 C 0.70446 0.98723 0.48231 0.0
C770 C 0.67813 0.98384 0.54353 0.0
C771 C 0.62778 1.00241 0.60348 0.0
C772 C 0.60442 0.02453 0.60144 0.0
C773 C 0.65496 1.00597 0.54511 0.0
C774 C 0.60929 0.05065 0.5436 0.0
C775 C 0.63615 0.05448 0.48708 0.0
H776 H 0.58069 0.71977 0.54763 0.0
H777 H 0.4902 0.72596 0.42672 0.0
H778 H 0.47693 0.67757 0.50557 0.0
H779 H 0.49345 0.6298 0.59037 0.0
H780 H 0.58428 0.62505 0.71149 0.0
H781 H 0.59476 0.67607 0.65257 0.0
C782 C 0.55773 0.71105 0.54142 0.0
C783 C 0.53641 0.72689 0.48191 0.0
C784 C 0.55044 0.68289 0.58578 0.0
C785 C 0.50693 0.71479 0.4735 0.0
C786 C 0.49947 0.68677 0.51758 0.0
C787 C 0.51526 0.64021 0.60614 0.0
C788 C 0.53817 0.62308 0.65437 0.0
C789 C 0.52133 0.67005 0.5713 0.0
C790 C 0.5663 0.63723 0.67351 0.0
C791 C 0.57238 0.66658 0.63968 0.0
H792 H 0.84527 0.50384 0.38563 0.0
H793 H 0.8312 0.59707 0.47801 0.0
H794 H 0.87818 0.5965 0.57728 0.0
H795 H 0.92615 0.57083 0.62807 0.0
H796 H 0.93925 0.47691 0.54179 0.0
H797 H 0.89077 0.4765 0.45185 0.0
C798 C 0.85186 0.52368 0.43056 0.0
C799 C 0.83386 0.5503 0.42554 0.0
C800 C 0.87951 0.52332 0.48758 0.0
C801 C 0.84384 0.57603 0.4819 0.0
C802 C 0.87111 0.57585 0.53787 0.0
C803 C 0.91833 0.55018 0.59026 0.0
C804 C 0.93692 0.52392 0.5924 0.0
C805 C 0.88964 0.54987 0.53959 0.0
C806 C 0.92583 0.49746 0.54302 0.0
C807 C 0.89787 0.49722 0.4908 0.0
loop_
_geom_bond_atom_site_label_1
_geom_bond_atom_site_label_2
_geom_bond_distance
_geom_bond_site_symmetry_2
_ccdc_geom_bond_type
H0 C3 0.929 . S
H1 C6 0.929 . S
H2 C8 0.930 . S
C3 H0 0.929 . S
C3 C4 1.398 . S
C3 C5 1.396 . S
C4 C3 1.398 . S
C4 C8 1.407 . S
C5 C3 1.396 . S
C5 C6 1.394 . S
C6 H1 0.929 . S
C6 C5 1.394 . S
C6 C7 1.382 . S
C7 C6 1.382 . S
C7 C8 1.392 . S
C7 N9 1.420 . S
C8 H2 0.930 . S
C8 C4 1.407 . S
C8 C7 1.392 . S
N9 C7 1.420 . S
N9 C10 1.244 . S
C10 N9 1.244 . S
H11 C14 0.929 . S
H12 C17 0.929 . S
H13 C19 0.930 . S
C14 H11 0.929 . S
C14 C15 1.398 . S
C14 C16 1.396 . S
C15 C14 1.398 . S
C15 C19 1.407 . S
C16 C14 1.396 . S
C16 C17 1.394 . S
C17 H12 0.929 . S
C17 C16 1.394 . S
C17 C18 1.382 . S
C18 C17 1.382 . S
C18 C19 1.392 . S
C18 N20 1.420 . S
C19 H13 0.930 . S
C19 C15 1.407 . S
C19 C18 1.392 . S
N20 C18 1.420 . S
N20 C21 1.244 . S
C21 N20 1.244 . S
H22 C25 0.929 . S
H23 C28 0.929 . S
H24 C30 0.930 . S
C25 H22 0.929 . S
C25 C26 1.398 . S
C25 C27 1.396 . S
C26 C25 1.398 . S
C26 C30 1.407 . S
C27 C25 1.396 . S
C27 C28 1.394 . S
C28 H23 0.929 . S
C28 C27 1.394 . S
C28 C29 1.382 . S
C29 C28 1.382 . S
C29 C30 1.392 . S
C29 N31 1.420 . S
C30 H24 0.930 . S
C30 C26 1.407 . S
C30 C29 1.392 . S
N31 C29 1.420 . S
N31 C32 1.244 . S
C32 N31 1.244 . S
H33 C36 0.929 . S
H34 C39 0.929 . S
H35 C41 0.930 . S
C36 H33 0.929 . S
C36 C37 1.398 . S
C36 C38 1.396 . S
C37 C36 1.398 . S
C37 C41 1.407 . S
C38 C36 1.396 . S
C38 C39 1.394 . S
C39 H34 0.929 . S
C39 C38 1.394 . S
C39 C40 1.382 . S
C40 C39 1.382 . S
C40 C41 1.392 . S
C40 N42 1.420 . S
C41 H35 0.930 . S
C41 C37 1.407 . S
C41 C40 1.392 . S
N42 C40 1.420 . S
N42 C43 1.244 . S
C43 N42 1.244 . S
H44 C47 0.929 . S
H45 C50 0.929 . S
H46 C52 0.930 . S
C47 H44 0.929 . S
C47 C48 1.398 . S
C47 C49 1.396 1_556 S
C48 C47 1.398 . S
C48 C52 1.407 . S
C49 C47 1.396 1_554 S
C49 C50 1.394 . S
C50 H45 0.929 . S
C50 C49 1.394 . S
C50 C51 1.382 . S
C51 C50 1.382 . S
C51 C52 1.392 1_554 S
C51 N53 1.420 . S
C52 H46 0.930 . S
C52 C48 1.407 . S
C52 C51 1.392 1_556 S
N53 C51 1.420 . S
N53 C54 1.244 . S
C54 N53 1.244 . S
H55 C58 0.929 . S
H56 C61 0.929 . S
H57 C63 0.930 . S
C58 H55 0.929 . S
C58 C59 1.398 . S
C58 C60 1.396 1_556 S
C59 C58 1.398 . S
C59 C63 1.407 . S
C60 C58 1.396 1_554 S
C60 C61 1.394 . S
C61 H56 0.929 . S
C61 C60 1.394 . S
C61 C62 1.382 . S
C62 C61 1.382 . S
C62 C63 1.392 1_554 S
C62 N64 1.420 . S
C63 H57 0.930 . S
C63 C59 1.407 . S
C63 C62 1.392 1_556 S
N64 C62 1.420 . S
N64 C65 1.244 . S
C65 N64 1.244 . S
H66 C69 0.929 . S
H67 C72 0.929 . S
H68 C74 0.930 . S
C69 H66 0.929 . S
C69 C70 1.398 . S
C69 C71 1.396 1_556 S
C70 C69 1.398 . S
C70 C74 1.407 . S
C71 C69 1.396 1_554 S
C71 C72 1.394 . S
C72 H67 0.929 . S
C72 C71 1.394 . S
C72 C73 1.382 . S
C73 C72 1.382 . S
C73 C74 1.392 1_554 S
C73 N75 1.420 . S
C74 H68 0.930 . S
C74 C70 1.407 . S
C74 C73 1.392 1_556 S
N75 C73 1.420 . S
N75 C76 1.244 . S
C76 N75 1.244 . S
H77 C80 0.929 . S
H78 C83 0.929 . S
H79 C85 0.930 . S
C80 H77 0.929 . S
C80 C81 1.398 . S
C80 C82 1.396 1_556 S
C81 C80 1.398 . S
C81 C85 1.407 . S
C82 C80 1.396 1_554 S
C82 C83 1.394 . S
C83 H78 0.929 . S
C83 C82 1.394 . S
C83 C84 1.382 . S
C84 C83 1.382 . S
C84 C85 1.392 1_554 S
C84 N86 1.420 . S
C85 H79 0.930 . S
C85 C81 1.407 . S
C85 C84 1.392 1_556 S
N86 C84 1.420 . S
N86 C87 1.244 . S
C87 N86 1.244 . S
Tb88 N119 2.660 1_565 S
Tb88 N126 2.600 1_565 S
Tb88 O132 2.546 . S
Tb88 O133 2.610 1_455 S
Tb88 O135 2.320 1_455 S
Tb88 O136 2.552 . S
Tb88 O137 2.413 . S
Tb88 O139 2.362 1_565 S
Tb88 O140 2.421 . S
Tb88 C152 2.833 . S
C89 C92 1.432 1_545 S
C89 C93 1.414 1_545 S
C89 N96 1.359 . S
C90 C92 1.417 . S
C90 C94 1.432 . S
C90 C102 1.410 . S
C91 C93 1.444 . S
C91 C94 1.317 . S
C91 H114 0.929 . S
C92 C89 1.432 1_565 S
C92 C90 1.417 . S
C92 N100 1.360 . S
C93 C89 1.414 1_565 S
C93 C91 1.444 . S
C93 C98 1.385 1_565 S
C94 C90 1.432 . S
C94 C91 1.317 . S
C94 H106 0.930 . S
C95 C97 1.392 . S
C95 C98 1.370 . S
C95 H107 0.931 . S
N96 C89 1.359 . S
N96 C97 1.327 . S
N96 Tb99 2.600 . S
C97 C95 1.392 . S
C97 N96 1.327 . S
C97 H104 0.930 . S
C98 C93 1.385 1_545 S
C98 C95 1.370 . S
C98 H117 0.930 . S
Tb99 N96 2.600 . S
Tb99 N100 2.660 1_545 S
Tb99 O133 2.362 1_545 S
Tb99 O134 2.421 . S
Tb99 O138 2.546 . S
Tb99 O139 2.610 1_655 S
Tb99 O141 2.320 1_655 S
Tb99 O142 2.552 1_655 S
Tb99 O143 2.413 . S
Tb99 C163 2.833 . S
N100 C92 1.360 . S
N100 Tb99 2.660 1_565 S
N100 C101 1.305 1_655 S
C101 N100 1.305 1_455 S
C101 C103 1.407 . S
C101 H108 0.930 . S
C102 C90 1.410 . S
C102 C103 1.345 1_655 S
C102 H110 0.930 . S
C103 C101 1.407 . S
C103 C102 1.345 1_455 S
C103 H105 0.930 . S
H104 C97 0.930 . S
H105 C103 0.930 . S
H106 C94 0.930 . S
H107 C95 0.931 . S
H108 C101 0.930 . S
H109 C123 0.930 1_655 S
H110 C102 0.930 . S
H111 C129 0.930 . S
H112 C120 0.930 1_655 S
H113 C127 0.931 . S
H114 C91 0.929 . S
H115 C121 0.930 . S
H116 C154 0.930 . S
H117 C98 0.930 . S
H118 C153 0.929 . S
N119 Tb88 2.660 1_545 S
N119 C120 1.305 . S
N119 C124 1.360 . S
C120 H112 0.930 1_455 S
C120 N119 1.305 . S
C120 C123 1.407 1_556 S
C121 H115 0.930 . S
C121 C122 1.410 . S
C121 C123 1.345 . S
C122 C121 1.410 . S
C122 C124 1.417 1_554 S
C122 C154 1.432 . S
C123 H109 0.930 1_455 S
C123 C120 1.407 1_554 S
C123 C121 1.345 . S
C124 N119 1.360 . S
C124 C122 1.417 1_556 S
C124 C128 1.432 . S
H125 C130 0.930 . S
N126 Tb88 2.600 1_545 S
N126 C128 1.359 . S
N126 C129 1.327 1_545 S
C127 H113 0.931 . S
C127 C129 1.392 . S
C127 C130 1.370 1_565 S
C128 C124 1.432 . S
C128 N126 1.359 . S
C128 C131 1.414 . S
C129 H111 0.930 . S
C129 N126 1.327 1_565 S
C129 C127 1.392 . S
C130 H125 0.930 . S
C130 C127 1.370 1_545 S
C130 C131 1.385 . S
C131 C128 1.414 . S
C131 C130 1.385 . S
C131 C153 1.444 1_556 S
O132 Tb88 2.546 . S
O132 C152 1.251 . S
O133 Tb88 2.610 1_655 S
O133 Tb99 2.362 1_565 S
O133 C144 1.283 . S
O134 Tb99 2.421 . S
O134 C151 1.262 . S
O135 Tb88 2.320 1_655 S
O135 C151 1.260 1_565 S
O136 Tb88 2.552 . S
O136 C144 1.243 1_455 S
O137 Tb88 2.413 . S
O137 C152 1.256 . S
O138 Tb99 2.546 . S
O138 C163 1.251 . S
O139 Tb88 2.362 1_545 S
O139 Tb99 2.610 1_455 S
O139 C155 1.283 . S
O140 Tb88 2.421 . S
O140 C162 1.262 1_565 S
O141 Tb99 2.320 1_455 S
O141 C162 1.260 . S
O142 Tb99 2.552 1_455 S
O142 C155 1.243 . S
O143 Tb99 2.413 . S
O143 C163 1.256 . S
C144 O133 1.283 . S
C144 O136 1.243 1_655 S
C145 C147 1.382 1_556 S
C145 C149 1.393 . S
C145 C152 1.500 . S
C146 C147 1.400 . S
C146 C148 1.384 . S
C147 C145 1.382 1_554 S
C147 C146 1.400 . S
C147 H164 0.930 1_554 S
C148 C146 1.384 . S
C148 C150 1.392 . S
C148 H165 0.931 . S
C149 C145 1.393 . S
C149 C150 1.401 1_556 S
C149 H166 0.930 . S
C150 C148 1.392 . S
C150 C149 1.401 1_554 S
C150 H167 0.930 . S
C151 O134 1.262 . S
C151 O135 1.260 1_545 S
C152 Tb88 2.833 . S
C152 O132 1.251 . S
C152 O137 1.256 . S
C152 C145 1.500 . S
C153 H118 0.929 . S
C153 C131 1.444 1_554 S
C153 C154 1.317 . S
C154 H116 0.930 . S
C154 C122 1.432 . S
C154 C153 1.317 . S
C155 O139 1.283 . S
C155 O142 1.243 . S
C156 C157 1.382 . S
C156 C160 1.393 . S
C156 C163 1.500 . S
C157 C156 1.382 . S
C157 C158 1.400 . S
C157 H168 0.930 1_655 S
C158 C157 1.400 . S
C158 C159 1.384 . S
C159 C158 1.384 . S
C159 C161 1.392 . S
C159 H169 0.931 . S
C160 C156 1.393 . S
C160 C161 1.401 . S
C160 H170 0.930 . S
C161 C159 1.392 . S
C161 C160 1.401 . S
C161 H171 0.930 . S
C162 O140 1.262 1_545 S
C162 O141 1.260 . S
C163 Tb99 2.833 . S
C163 O138 1.251 . S
C163 O143 1.256 . S
C163 C156 1.500 . S
H164 C147 0.930 1_556 S
H165 C148 0.931 . S
H166 C149 0.930 . S
H167 C150 0.930 . S
H168 C157 0.930 1_455 S
H169 C159 0.931 . S
H170 C160 0.930 . S
H171 C161 0.930 . S
Tb172 N203 2.660 . S
Tb172 N210 2.600 . S
Tb172 O216 2.546 . S
Tb172 O217 2.610 1_545 S
Tb172 O219 2.320 1_545 S
Tb172 O220 2.552 . S
Tb172 O221 2.413 . S
Tb172 O223 2.362 . S
Tb172 O224 2.421 . S
Tb172 C236 2.833 . S
C173 C176 1.432 . S
C173 C177 1.414 . S
C173 N180 1.359 . S
C174 C176 1.417 . S
C174 C178 1.432 . S
C174 C186 1.410 . S
C175 C177 1.444 . S
C175 C178 1.317 . S
C175 H198 0.929 . S
C176 C173 1.432 . S
C176 C174 1.417 . S
C176 N184 1.360 . S
C177 C173 1.414 . S
C177 C175 1.444 . S
C177 C182 1.385 . S
C178 C174 1.432 . S
C178 C175 1.317 . S
C178 H190 0.930 . S
C179 C181 1.392 . S
C179 C182 1.370 . S
C179 H191 0.931 . S
N180 C173 1.359 . S
N180 C181 1.327 . S
N180 Tb183 2.600 . S
C181 C179 1.392 . S
C181 N180 1.327 . S
C181 H188 0.930 . S
C182 C177 1.385 . S
C182 C179 1.370 . S
C182 H201 0.930 . S
Tb183 N180 2.600 . S
Tb183 N184 2.660 . S
Tb183 O217 2.362 . S
Tb183 O218 2.421 . S
Tb183 O222 2.546 . S
Tb183 O223 2.610 1_565 S
Tb183 O225 2.320 1_565 S
Tb183 O226 2.552 1_565 S
Tb183 O227 2.413 . S
Tb183 C247 2.833 . S
N184 C176 1.360 . S
N184 Tb183 2.660 . S
N184 C185 1.305 1_565 S
C185 N184 1.305 1_545 S
C185 C187 1.407 . S
C185 H192 0.930 . S
C186 C174 1.410 . S
C186 C187 1.345 1_565 S
C186 H194 0.930 . S
C187 C185 1.407 . S
C187 C186 1.345 1_545 S
C187 H189 0.930 . S
H188 C181 0.930 . S
H189 C187 0.930 . S
H190 C178 0.930 . S
H191 C179 0.931 . S
H192 C185 0.930 . S
H193 C207 0.930 1_565 S
H194 C186 0.930 . S
H195 C213 0.930 . S
H196 C204 0.930 1_565 S
H197 C211 0.931 . S
H198 C175 0.929 . S
H199 C205 0.930 . S
H200 C238 0.930 . S
H201 C182 0.930 . S
H202 C237 0.929 . S
N203 Tb172 2.660 . S
N203 C204 1.305 . S
N203 C208 1.360 . S
C204 H196 0.930 1_545 S
C204 N203 1.305 . S
C204 C207 1.407 1_556 S
C205 H199 0.930 . S
C205 C206 1.410 . S
C205 C207 1.345 . S
C206 C205 1.410 . S
C206 C208 1.417 1_554 S
C206 C238 1.432 . S
C207 H193 0.930 1_545 S
C207 C204 1.407 1_554 S
C207 C205 1.345 . S
C208 N203 1.360 . S
C208 C206 1.417 1_556 S
C208 C212 1.432 . S
H209 C214 0.930 . S
N210 Tb172 2.600 . S
N210 C212 1.359 . S
N210 C213 1.327 . S
C211 H197 0.931 . S
C211 C213 1.392 . S
C211 C214 1.370 . S
C212 C208 1.432 . S
C212 N210 1.359 . S
C212 C215 1.414 . S
C213 H195 0.930 . S
C213 N210 1.327 . S
C213 C211 1.392 . S
C214 H209 0.930 . S
C214 C211 1.370 . S
C214 C215 1.385 . S
C215 C212 1.414 . S
C215 C214 1.385 . S
C215 C237 1.444 1_556 S
O216 Tb172 2.546 . S
O216 C236 1.251 . S
O217 Tb172 2.610 1_565 S
O217 Tb183 2.362 . S
O217 C228 1.283 . S
O218 Tb183 2.421 . S
O218 C235 1.262 . S
O219 Tb172 2.320 1_565 S
O219 C235 1.260 . S
O220 Tb172 2.552 . S
O220 C228 1.243 1_545 S
O221 Tb172 2.413 . S
O221 C236 1.256 . S
O222 Tb183 2.546 . S
O222 C247 1.251 . S
O223 Tb172 2.362 . S
O223 Tb183 2.610 1_545 S
O223 C239 1.283 . S
O224 Tb172 2.421 . S
O224 C246 1.262 . S
O225 Tb183 2.320 1_545 S
O225 C246 1.260 . S
O226 Tb183 2.552 1_545 S
O226 C239 1.243 . S
O227 Tb183 2.413 . S
O227 C247 1.256 . S
C228 O217 1.283 . S
C228 O220 1.243 1_565 S
C229 C231 1.382 1_556 S
C229 C233 1.393 . S
C229 C236 1.500 . S
C230 C231 1.400 . S
C230 C232 1.384 . S
C231 C229 1.382 1_554 S
C231 C230 1.400 . S
C231 H248 0.930 1_554 S
C232 C230 1.384 . S
C232 C234 1.392 . S
C232 H249 0.931 . S
C233 C229 1.393 . S
C233 C234 1.401 1_556 S
C233 H250 0.930 . S
C234 C232 1.392 . S
C234 C233 1.401 1_554 S
C234 H251 0.930 . S
C235 O218 1.262 . S
C235 O219 1.260 . S
C236 Tb172 2.833 . S
C236 O216 1.251 . S
C236 O221 1.256 . S
C236 C229 1.500 . S
C237 H202 0.929 . S
C237 C215 1.444 1_554 S
C237 C238 1.317 . S
C238 H200 0.930 . S
C238 C206 1.432 . S
C238 C237 1.317 . S
C239 O223 1.283 . S
C239 O226 1.243 . S
C240 C241 1.382 . S
C240 C244 1.393 . S
C240 C247 1.500 . S
C241 C240 1.382 . S
C241 C242 1.400 . S
C241 H252 0.930 1_565 S
C242 C241 1.400 . S
C242 C243 1.384 . S
C243 C242 1.384 . S
C243 C245 1.392 . S
C243 H253 0.931 . S
C244 C240 1.393 . S
C244 C245 1.401 . S
C244 H254 0.930 . S
C245 C243 1.392 . S
C245 C244 1.401 . S
C245 H255 0.930 . S
C246 O224 1.262 . S
C246 O225 1.260 . S
C247 Tb183 2.833 . S
C247 O222 1.251 . S
C247 O227 1.256 . S
C247 C240 1.500 . S
H248 C231 0.930 1_556 S
H249 C232 0.931 . S
H250 C233 0.930 . S
H251 C234 0.930 . S
H252 C241 0.930 1_545 S
H253 C243 0.931 . S
H254 C244 0.930 . S
H255 C245 0.930 . S
Tb256 N287 2.660 . S
Tb256 N294 2.600 . S
Tb256 O300 2.546 . S
Tb256 O301 2.610 . S
Tb256 O303 2.320 . S
Tb256 O304 2.552 . S
Tb256 O305 2.413 . S
Tb256 O307 2.362 . S
Tb256 O308 2.421 . S
Tb256 C320 2.833 . S
C257 C260 1.432 . S
C257 C261 1.414 . S
C257 N264 1.359 . S
C258 C260 1.417 . S
C258 C262 1.432 . S
C258 C270 1.410 . S
C259 C261 1.444 . S
C259 C262 1.317 . S
C259 H282 0.929 . S
C260 C257 1.432 . S
C260 C258 1.417 . S
C260 N268 1.360 . S
C261 C257 1.414 . S
C261 C259 1.444 . S
C261 C266 1.385 . S
C262 C258 1.432 . S
C262 C259 1.317 . S
C262 H274 0.930 . S
C263 C265 1.392 . S
C263 C266 1.370 . S
C263 H275 0.931 1_556 S
N264 C257 1.359 . S
N264 C265 1.327 . S
N264 Tb267 2.600 . S
C265 C263 1.392 . S
C265 N264 1.327 . S
C265 H272 0.930 . S
C266 C261 1.385 . S
C266 C263 1.370 . S
C266 H285 0.930 . S
Tb267 N264 2.600 . S
Tb267 N268 2.660 . S
Tb267 O301 2.362 . S
Tb267 O302 2.421 . S
Tb267 O306 2.546 . S
Tb267 O307 2.610 . S
Tb267 O309 2.320 . S
Tb267 O310 2.552 . S
Tb267 O311 2.413 . S
Tb267 C331 2.833 . S
N268 C260 1.360 . S
N268 Tb267 2.660 . S
N268 C269 1.305 . S
C269 N268 1.305 . S
C269 C271 1.407 . S
C269 H276 0.930 . S
C270 C258 1.410 . S
C270 C271 1.345 . S
C270 H278 0.930 . S
C271 C269 1.407 . S
C271 C270 1.345 . S
C271 H273 0.930 . S
H272 C265 0.930 . S
H273 C271 0.930 . S
H274 C262 0.930 . S
H275 C263 0.931 1_554 S
H276 C269 0.930 . S
H277 C291 0.930 . S
H278 C270 0.930 . S
H279 C297 0.930 . S
H280 C288 0.930 . S
H281 C295 0.931 . S
H282 C259 0.929 . S
H283 C289 0.930 . S
H284 C322 0.930 . S
H285 C266 0.930 . S
H286 C321 0.929 . S
N287 Tb256 2.660 . S
N287 C288 1.305 . S
N287 C292 1.360 . S
C288 H280 0.930 . S
C288 N287 1.305 . S
C288 C291 1.407 . S
C289 H283 0.930 . S
C289 C290 1.410 . S
C289 C291 1.345 . S
C290 C289 1.410 . S
C290 C292 1.417 . S
C290 C322 1.432 . S
C291 H277 0.930 . S
C291 C288 1.407 . S
C291 C289 1.345 . S
C292 N287 1.360 . S
C292 C290 1.417 . S
C292 C296 1.432 . S
H293 C298 0.930 . S
N294 Tb256 2.600 . S
N294 C296 1.359 . S
N294 C297 1.327 . S
C295 H281 0.931 . S
C295 C297 1.392 . S
C295 C298 1.370 . S
C296 C292 1.432 . S
C296 N294 1.359 . S
C296 C299 1.414 . S
C297 H279 0.930 . S
C297 N294 1.327 . S
C297 C295 1.392 . S
C298 H293 0.930 . S
C298 C295 1.370 . S
C298 C299 1.385 . S
C299 C296 1.414 . S
C299 C298 1.385 . S
C299 C321 1.444 . S
O300 Tb256 2.546 . S
O300 C320 1.251 . S
O301 Tb256 2.610 . S
O301 Tb267 2.362 . S
O301 C312 1.283 . S
O302 Tb267 2.421 . S
O302 C319 1.262 . S
O303 Tb256 2.320 . S
O303 C319 1.260 . S
O304 Tb256 2.552 . S
O304 C312 1.243 . S
O305 Tb256 2.413 . S
O305 C320 1.256 . S
O306 Tb267 2.546 . S
O306 C331 1.251 . S
O307 Tb256 2.362 . S
O307 Tb267 2.610 . S
O307 C323 1.283 . S
O308 Tb256 2.421 . S
O308 C330 1.262 . S
O309 Tb267 2.320 . S
O309 C330 1.260 . S
O310 Tb267 2.552 . S
O310 C323 1.243 . S
O311 Tb267 2.413 . S
O311 C331 1.256 . S
C312 O301 1.283 . S
C312 O304 1.243 . S
C313 C315 1.382 . S
C313 C317 1.393 . S
C313 C320 1.500 . S
C314 C315 1.400 . S
C314 C316 1.384 . S
C315 C313 1.382 . S
C315 C314 1.400 . S
C315 H332 0.930 . S
C316 C314 1.384 . S
C316 C318 1.392 . S
C316 H333 0.931 . S
C317 C313 1.393 . S
C317 C318 1.401 . S
C317 H334 0.930 . S
C318 C316 1.392 . S
C318 C317 1.401 . S
C318 H335 0.930 . S
C319 O302 1.262 . S
C319 O303 1.260 . S
C320 Tb256 2.833 . S
C320 O300 1.251 . S
C320 O305 1.256 . S
C320 C313 1.500 . S
C321 H286 0.929 . S
C321 C299 1.444 . S
C321 C322 1.317 . S
C322 H284 0.930 . S
C322 C290 1.432 . S
C322 C321 1.317 . S
C323 O307 1.283 . S
C323 O310 1.243 . S
C324 C325 1.382 . S
C324 C328 1.393 . S
C324 C331 1.500 1_554 S
C325 C324 1.382 . S
C325 C326 1.400 . S
C325 H336 0.930 1_554 S
C326 C325 1.400 . S
C326 C327 1.384 . S
C327 C326 1.384 . S
C327 C329 1.392 . S
C327 H337 0.931 . S
C328 C324 1.393 . S
C328 C329 1.401 . S
C328 H338 0.930 . S
C329 C327 1.392 . S
C329 C328 1.401 . S
C329 H339 0.930 . S
C330 O308 1.262 . S
C330 O309 1.260 . S
C331 Tb267 2.833 . S
C331 O306 1.251 . S
C331 O311 1.256 . S
C331 C324 1.500 1_556 S
H332 C315 0.930 . S
H333 C316 0.931 . S
H334 C317 0.930 . S
H335 C318 0.930 . S
H336 C325 0.930 1_556 S
H337 C327 0.931 . S
H338 C328 0.930 . S
H339 C329 0.930 . S
Tb340 N371 2.660 . S
Tb340 N378 2.600 . S
Tb340 O384 2.546 . S
Tb340 O385 2.610 . S
Tb340 O387 2.320 . S
Tb340 O388 2.552 . S
Tb340 O389 2.413 . S
Tb340 O391 2.362 . S
Tb340 O392 2.421 1_455 S
Tb340 C404 2.833 . S
C341 C344 1.432 . S
C341 C345 1.414 . S
C341 N348 1.359 . S
C342 C344 1.417 . S
C342 C346 1.432 . S
C342 C354 1.410 . S
C343 C345 1.444 . S
C343 C346 1.317 . S
C343 H366 0.929 . S
C344 C341 1.432 . S
C344 C342 1.417 . S
C344 N352 1.360 . S
C345 C341 1.414 . S
C345 C343 1.444 . S
C345 C350 1.385 1_655 S
C346 C342 1.432 . S
C346 C343 1.317 . S
C346 H358 0.930 . S
C347 C349 1.392 . S
C347 C350 1.370 . S
C347 H359 0.931 1_556 S
N348 C341 1.359 . S
N348 C349 1.327 1_655 S
N348 Tb351 2.600 . S
C349 C347 1.392 . S
C349 N348 1.327 1_455 S
C349 H356 0.930 . S
C350 C345 1.385 1_455 S
C350 C347 1.370 . S
C350 H369 0.930 . S
Tb351 N348 2.600 . S
Tb351 N352 2.660 . S
Tb351 O385 2.362 1_655 S
Tb351 O386 2.421 1_655 S
Tb351 O390 2.546 . S
Tb351 O391 2.610 1_655 S
Tb351 O393 2.320 . S
Tb351 O394 2.552 . S
Tb351 O395 2.413 . S
Tb351 C415 2.833 . S
N352 C344 1.360 . S
N352 Tb351 2.660 . S
N352 C353 1.305 . S
C353 N352 1.305 . S
C353 C355 1.407 . S
C353 H360 0.930 . S
C354 C342 1.410 . S
C354 C355 1.345 . S
C354 H362 0.930 . S
C355 C353 1.407 . S
C355 C354 1.345 . S
C355 H357 0.930 . S
H356 C349 0.930 . S
H357 C355 0.930 . S
H358 C346 0.930 . S
H359 C347 0.931 1_554 S
H360 C353 0.930 . S
H361 C375 0.930 . S
H362 C354 0.930 . S
H363 C381 0.930 . S
H364 C372 0.930 . S
H365 C379 0.931 . S
H366 C343 0.929 . S
H367 C373 0.930 . S
H368 C406 0.930 . S
H369 C350 0.930 . S
H370 C405 0.929 . S
N371 Tb340 2.660 . S
N371 C372 1.305 . S
N371 C376 1.360 . S
C372 H364 0.930 . S
C372 N371 1.305 . S
C372 C375 1.407 . S
C373 H367 0.930 . S
C373 C374 1.410 . S
C373 C375 1.345 . S
C374 C373 1.410 . S
C374 C376 1.417 . S
C374 C406 1.432 . S
C375 H361 0.930 . S
C375 C372 1.407 . S
C375 C373 1.345 . S
C376 N371 1.360 . S
C376 C374 1.417 . S
C376 C380 1.432 . S
H377 C382 0.930 . S
N378 Tb340 2.600 . S
N378 C380 1.359 . S
N378 C381 1.327 1_455 S
C379 H365 0.931 . S
C379 C381 1.392 . S
C379 C382 1.370 1_655 S
C380 C376 1.432 . S
C380 N378 1.359 . S
C380 C383 1.414 . S
C381 H363 0.930 . S
C381 N378 1.327 1_655 S
C381 C379 1.392 . S
C382 H377 0.930 . S
C382 C379 1.370 1_455 S
C382 C383 1.385 . S
C383 C380 1.414 . S
C383 C382 1.385 . S
C383 C405 1.444 . S
O384 Tb340 2.546 . S
O384 C404 1.251 . S
O385 Tb340 2.610 . S
O385 Tb351 2.362 1_455 S
O385 C396 1.283 . S
O386 Tb351 2.421 1_455 S
O386 C403 1.262 . S
O387 Tb340 2.320 . S
O387 C403 1.260 . S
O388 Tb340 2.552 . S
O388 C396 1.243 . S
O389 Tb340 2.413 . S
O389 C404 1.256 . S
O390 Tb351 2.546 . S
O390 C415 1.251 . S
O391 Tb340 2.362 . S
O391 Tb351 2.610 1_455 S
O391 C407 1.283 1_455 S
O392 Tb340 2.421 1_655 S
O392 C414 1.262 . S
O393 Tb351 2.320 . S
O393 C414 1.260 . S
O394 Tb351 2.552 . S
O394 C407 1.243 . S
O395 Tb351 2.413 . S
O395 C415 1.256 . S
C396 O385 1.283 . S
C396 O388 1.243 . S
C397 C399 1.382 . S
C397 C401 1.393 . S
C397 C404 1.500 . S
C398 C399 1.400 . S
C398 C400 1.384 . S
C399 C397 1.382 . S
C399 C398 1.400 . S
C399 H416 0.930 . S
C400 C398 1.384 . S
C400 C402 1.392 . S
C400 H417 0.931 . S
C401 C397 1.393 . S
C401 C402 1.401 . S
C401 H418 0.930 . S
C402 C400 1.392 . S
C402 C401 1.401 . S
C402 H419 0.930 . S
C403 O386 1.262 . S
C403 O387 1.260 . S
C404 Tb340 2.833 . S
C404 O384 1.251 . S
C404 O389 1.256 . S
C404 C397 1.500 . S
C405 H370 0.929 . S
C405 C383 1.444 . S
C405 C406 1.317 . S
C406 H368 0.930 . S
C406 C374 1.432 . S
C406 C405 1.317 . S
C407 O391 1.283 1_655 S
C407 O394 1.243 . S
C408 C409 1.382 . S
C408 C412 1.393 . S
C408 C415 1.500 1_554 S
C409 C408 1.382 . S
C409 C410 1.400 . S
C409 H420 0.930 1_554 S
C410 C409 1.400 . S
C410 C411 1.384 . S
C411 C410 1.384 . S
C411 C413 1.392 . S
C411 H421 0.931 . S
C412 C408 1.393 . S
C412 C413 1.401 . S
C412 H422 0.930 . S
C413 C411 1.392 . S
C413 C412 1.401 . S
C413 H423 0.930 . S
C414 O392 1.262 . S
C414 O393 1.260 . S
C415 Tb351 2.833 . S
C415 O390 1.251 . S
C415 O395 1.256 . S
C415 C408 1.500 1_556 S
H416 C399 0.930 . S
H417 C400 0.931 . S
H418 C401 0.930 . S
H419 C402 0.930 . S
H420 C409 0.930 1_556 S
H421 C411 0.931 . S
H422 C412 0.930 . S
H423 C413 0.930 . S
H424 C430 0.930 . S
H425 C433 0.930 . S
H426 C434 0.930 . S
H427 C435 0.930 . S
H428 C438 0.930 . S
H429 C439 0.930 . S
C430 H424 0.930 . S
C430 C431 1.355 . S
C430 C432 1.415 . S
C431 C430 1.355 . S
C431 C433 1.419 . S
C432 C430 1.415 . S
C432 C437 1.425 . S
C432 C439 1.409 . S
C433 H425 0.930 . S
C433 C431 1.419 . S
C433 C434 1.362 . S
C434 H426 0.930 . S
C434 C433 1.362 . S
C434 C437 1.409 . S
C435 H427 0.930 . S
C435 C436 1.355 . S
C435 C437 1.415 . S
C436 C435 1.355 . S
C436 C438 1.419 . S
C437 C432 1.425 . S
C437 C434 1.409 . S
C437 C435 1.415 . S
C438 H428 0.930 . S
C438 C436 1.419 . S
C438 C439 1.362 . S
C439 H429 0.930 . S
C439 C432 1.409 . S
C439 C438 1.362 . S
H440 C446 0.930 . S
H441 C449 0.930 . S
H442 C450 0.930 . S
H443 C451 0.930 . S
H444 C454 0.930 . S
H445 C455 0.930 . S
C446 H440 0.930 . S
C446 C447 1.355 . S
C446 C448 1.415 . S
C447 C446 1.355 . S
C447 C449 1.419 . S
C448 C446 1.415 . S
C448 C453 1.425 . S
C448 C455 1.409 . S
C449 H441 0.930 . S
C449 C447 1.419 . S
C449 C450 1.362 . S
C450 H442 0.930 . S
C450 C449 1.362 . S
C450 C453 1.409 . S
C451 H443 0.930 . S
C451 C452 1.355 . S
C451 C453 1.415 . S
C452 C451 1.355 . S
C452 C454 1.419 . S
C453 C448 1.425 . S
C453 C450 1.409 . S
C453 C451 1.415 . S
C454 H444 0.930 . S
C454 C452 1.419 . S
C454 C455 1.362 . S
C455 H445 0.930 . S
C455 C448 1.409 . S
C455 C454 1.362 . S
H456 C462 0.930 . S
H457 C465 0.930 . S
H458 C466 0.930 . S
H459 C467 0.930 . S
H460 C470 0.930 . S
H461 C471 0.930 . S
C462 H456 0.930 . S
C462 C463 1.355 . S
C462 C464 1.415 . S
C463 C462 1.355 . S
C463 C465 1.419 . S
C464 C462 1.415 . S
C464 C469 1.425 . S
C464 C471 1.409 . S
C465 H457 0.930 . S
C465 C463 1.419 . S
C465 C466 1.362 . S
C466 H458 0.930 . S
C466 C465 1.362 . S
C466 C469 1.409 . S
C467 H459 0.930 . S
C467 C468 1.355 . S
C467 C469 1.415 . S
C468 C467 1.355 . S
C468 C470 1.419 . S
C469 C464 1.425 . S
C469 C466 1.409 . S
C469 C467 1.415 . S
C470 H460 0.930 . S
C470 C468 1.419 . S
C470 C471 1.362 . S
C471 H461 0.930 . S
C471 C464 1.409 . S
C471 C470 1.362 . S
H472 C478 0.930 . S
H473 C481 0.930 . S
H474 C482 0.930 . S
H475 C483 0.930 . S
H476 C486 0.930 . S
H477 C487 0.930 . S
C478 H472 0.930 . S
C478 C479 1.355 . S
C478 C480 1.415 . S
C479 C478 1.355 . S
C479 C481 1.419 . S
C480 C478 1.415 . S
C480 C485 1.425 . S
C480 C487 1.409 . S
C481 H473 0.930 . S
C481 C479 1.419 . S
C481 C482 1.362 . S
C482 H474 0.930 . S
C482 C481 1.362 . S
C482 C485 1.409 . S
C483 H475 0.930 . S
C483 C484 1.355 . S
C483 C485 1.415 . S
C484 C483 1.355 . S
C484 C486 1.419 . S
C485 C480 1.425 . S
C485 C482 1.409 . S
C485 C483 1.415 . S
C486 H476 0.930 . S
C486 C484 1.419 . S
C486 C487 1.362 . S
C487 H477 0.930 . S
C487 C480 1.409 . S
C487 C486 1.362 . S
H488 C494 0.930 . S
H489 C497 0.930 . S
H490 C498 0.930 . S
H491 C499 0.930 . S
H492 C502 0.924 1_545 S
H493 C503 0.930 . S
C494 H488 0.930 . S
C494 C495 1.355 . S
C494 C496 1.415 . S
C495 C494 1.355 . S
C495 C497 1.419 . S
C496 C494 1.415 . S
C496 C501 1.425 . S
C496 C503 1.409 1_554 S
C497 H489 0.930 . S
C497 C495 1.419 . S
C497 C498 1.362 . S
C498 H490 0.930 . S
C498 C497 1.362 . S
C498 C501 1.409 . S
C499 H491 0.930 . S
C499 C500 1.355 . S
C499 C501 1.415 1_556 S
C500 C499 1.355 . S
C500 C502 1.419 . S
C501 C496 1.425 . S
C501 C498 1.409 . S
C501 C499 1.415 1_554 S
C502 H492 0.924 1_565 S
C502 C500 1.419 . S
C502 C503 1.362 . S
C503 H493 0.930 . S
C503 C496 1.409 1_556 S
C503 C502 1.362 . S
H504 C510 0.930 . S
H505 C513 0.930 . S
H506 C514 0.930 . S
H507 C515 0.930 . S
H508 C518 0.930 . S
H509 C519 0.930 . S
C510 H504 0.930 . S
C510 C511 1.355 . S
C510 C512 1.415 . S
C511 C510 1.355 . S
C511 C513 1.419 . S
C512 C510 1.415 . S
C512 C517 1.425 . S
C512 C519 1.409 . S
C513 H505 0.930 . S
C513 C511 1.419 . S
C513 C514 1.362 . S
C514 H506 0.930 . S
C514 C513 1.362 . S
C514 C517 1.409 . S
C515 H507 0.930 . S
C515 C516 1.355 . S
C515 C517 1.415 1_556 S
C516 C515 1.355 . S
C516 C518 1.419 . S
C517 C512 1.425 . S
C517 C514 1.409 . S
C517 C515 1.415 1_554 S
C518 H508 0.930 . S
C518 C516 1.419 . S
C518 C519 1.362 1_556 S
C519 H509 0.930 . S
C519 C512 1.409 . S
C519 C518 1.362 1_554 S
H520 C526 0.930 . S
H521 C529 0.930 . S
H522 C530 0.930 1_556 S
H523 C531 0.930 . S
H524 C534 0.930 . S
H525 C535 0.930 . S
C526 H520 0.930 . S
C526 C527 1.355 . S
C526 C528 1.415 . S
C527 C526 1.355 . S
C527 C529 1.419 . S
C528 C526 1.415 . S
C528 C533 1.425 . S
C528 C535 1.409 . S
C529 H521 0.930 . S
C529 C527 1.419 . S
C529 C530 1.362 . S
C530 H522 0.930 1_554 S
C530 C529 1.362 . S
C530 C533 1.409 . S
C531 H523 0.930 . S
C531 C532 1.355 . S
C531 C533 1.415 1_556 S
C532 C531 1.355 . S
C532 C534 1.419 . S
C533 C528 1.425 . S
C533 C530 1.409 . S
C533 C531 1.415 1_554 S
C534 H524 0.930 . S
C534 C532 1.419 . S
C534 C535 1.362 1_556 S
C535 H525 0.930 . S
C535 C528 1.409 . S
C535 C534 1.362 1_554 S
H536 C542 0.930 . S
H537 C545 0.930 . S
H538 C546 0.930 . S
H539 C547 0.930 1_554 S
H540 C550 0.930 . S
H541 C551 0.930 . S
C542 H536 0.930 . S
C542 C543 1.355 . S
C542 C544 1.415 . S
C543 C542 1.355 . S
C543 C545 1.419 . S
C544 C542 1.415 . S
C544 C549 1.425 . S
C544 C551 1.409 1_554 S
C545 H537 0.930 . S
C545 C543 1.419 . S
C545 C546 1.362 . S
C546 H538 0.930 . S
C546 C545 1.362 . S
C546 C549 1.409 . S
C547 H539 0.930 1_556 S
C547 C548 1.355 . S
C547 C549 1.415 1_556 S
C548 C547 1.355 . S
C548 C550 1.419 . S
C549 C544 1.425 . S
C549 C546 1.409 . S
C549 C547 1.415 1_554 S
C550 H540 0.930 . S
C550 C548 1.419 . S
C550 C551 1.362 . S
C551 H541 0.930 . S
C551 C544 1.409 1_556 S
C551 C550 1.362 . S
H552 C558 0.930 . S
H553 C561 0.930 . S
H554 C562 0.930 . S
H555 C563 0.930 . S
H556 C566 0.930 . S
H557 C567 0.930 . S
C558 H552 0.930 . S
C558 C559 1.355 . S
C558 C560 1.415 . S
C559 C558 1.355 . S
C559 C561 1.419 . S
C560 C558 1.415 . S
C560 C565 1.425 . S
C560 C567 1.409 1_455 S
C561 H553 0.930 . S
C561 C559 1.419 . S
C561 C562 1.362 . S
C562 H554 0.930 . S
C562 C561 1.362 . S
C562 C565 1.409 . S
C563 H555 0.930 . S
C563 C564 1.353 1_455 S
C563 C565 1.415 . S
C564 C563 1.353 1_655 S
C564 C566 1.420 . S
C565 C560 1.425 . S
C565 C562 1.409 . S
C565 C563 1.415 . S
C566 H556 0.930 . S
C566 C564 1.420 . S
C566 C567 1.362 . S
C567 H557 0.930 . S
C567 C560 1.409 1_655 S
C567 C566 1.362 . S
H568 C574 0.930 . S
H569 C577 0.930 . S
H570 C578 0.930 . S
H571 C579 0.930 . S
H572 C582 0.930 . S
H573 C583 0.930 . S
C574 H568 0.930 . S
C574 C575 1.355 . S
C574 C576 1.415 . S
C575 C574 1.355 . S
C575 C577 1.419 . S
C576 C574 1.415 . S
C576 C581 1.425 . S
C576 C583 1.409 1_545 S
C577 H569 0.930 . S
C577 C575 1.419 . S
C577 C578 1.362 . S
C578 H570 0.930 . S
C578 C577 1.362 . S
C578 C581 1.409 . S
C579 H571 0.930 . S
C579 C580 1.360 . S
C579 C581 1.415 . S
C580 C579 1.360 . S
C580 C582 1.415 1_545 S
C581 C576 1.425 . S
C581 C578 1.409 . S
C581 C579 1.415 . S
C582 H572 0.930 . S
C582 C580 1.415 1_565 S
C582 C583 1.362 . S
C583 H573 0.930 . S
C583 C576 1.409 1_565 S
C583 C582 1.362 . S
H584 C590 0.930 . S
H585 C593 0.930 . S
H586 C594 0.930 . S
H587 C595 0.930 . S
H588 C598 0.930 . S
H589 C599 0.930 . S
C590 H584 0.930 . S
C590 C591 1.355 . S
C590 C592 1.415 . S
C591 C590 1.355 . S
C591 C593 1.419 . S
C592 C590 1.415 . S
C592 C597 1.425 . S
C592 C599 1.409 . S
C593 H585 0.930 . S
C593 C591 1.419 . S
C593 C594 1.362 . S
C594 H586 0.930 . S
C594 C593 1.362 . S
C594 C597 1.409 . S
C595 H587 0.930 . S
C595 C596 1.355 . S
C595 C597 1.415 . S
C596 C595 1.355 . S
C596 C598 1.419 . S
C597 C592 1.425 . S
C597 C594 1.409 . S
C597 C595 1.415 . S
C598 H588 0.930 . S
C598 C596 1.419 . S
C598 C599 1.362 . S
C599 H589 0.930 . S
C599 C592 1.409 . S
C599 C598 1.362 . S
H600 C606 0.930 . S
H601 C609 0.930 1_556 S
H602 C610 0.930 . S
H603 C611 0.930 . S
H604 C614 0.930 . S
H605 C615 0.930 . S
C606 H600 0.930 . S
C606 C607 1.355 . S
C606 C608 1.415 . S
C607 C606 1.355 . S
C607 C609 1.419 . S
C608 C606 1.415 . S
C608 C613 1.425 . S
C608 C615 1.409 . S
C609 H601 0.930 1_554 S
C609 C607 1.419 . S
C609 C610 1.362 . S
C610 H602 0.930 . S
C610 C609 1.362 . S
C610 C613 1.409 . S
C611 H603 0.930 . S
C611 C612 1.355 . S
C611 C613 1.415 . S
C612 C611 1.355 . S
C612 C614 1.419 . S
C613 C608 1.425 . S
C613 C610 1.409 . S
C613 C611 1.415 . S
C614 H604 0.930 . S
C614 C612 1.419 . S
C614 C615 1.362 . S
C615 H605 0.930 . S
C615 C608 1.409 . S
C615 C614 1.362 . S
H616 C622 0.930 . S
H617 C625 0.930 . S
H618 C626 0.930 . S
H619 C627 0.930 . S
H620 C630 0.930 . S
H621 C631 0.930 . S
C622 H616 0.930 . S
C622 C623 1.355 . S
C622 C624 1.415 . S
C623 C622 1.355 . S
C623 C625 1.419 . S
C624 C622 1.415 . S
C624 C629 1.425 . S
C624 C631 1.409 . S
C625 H617 0.930 . S
C625 C623 1.419 . S
C625 C626 1.362 1_655 S
C626 H618 0.930 . S
C626 C625 1.362 1_455 S
C626 C629 1.409 1_455 S
C627 H619 0.930 . S
C627 C628 1.355 . S
C627 C629 1.415 1_455 S
C628 C627 1.355 . S
C628 C630 1.419 1_455 S
C629 C624 1.425 . S
C629 C626 1.409 1_655 S
C629 C627 1.415 1_655 S
C630 H620 0.930 . S
C630 C628 1.419 1_655 S
C630 C631 1.362 . S
C631 H621 0.930 . S
C631 C624 1.409 . S
C631 C630 1.362 . S
H632 C638 0.930 . S
H633 C641 0.930 . S
H634 C642 0.930 . S
H635 C643 0.930 . S
H636 C646 0.930 1_556 S
H637 C647 0.930 1_556 S
C638 H632 0.930 . S
C638 C639 1.355 . S
C638 C640 1.415 . S
C639 C638 1.355 . S
C639 C641 1.419 . S
C640 C638 1.415 . S
C640 C645 1.425 1_565 S
C640 C647 1.409 . S
C641 H633 0.930 . S
C641 C639 1.419 . S
C641 C642 1.362 1_565 S
C642 H634 0.930 . S
C642 C641 1.362 1_545 S
C642 C645 1.409 . S
C643 H635 0.930 . S
C643 C644 1.355 . S
C643 C645 1.415 . S
C644 C643 1.355 . S
C644 C646 1.419 1_545 S
C645 C640 1.425 1_545 S
C645 C642 1.409 . S
C645 C643 1.415 . S
C646 H636 0.930 1_554 S
C646 C644 1.419 1_565 S
C646 C647 1.362 . S
C647 H637 0.930 1_554 S
C647 C640 1.409 . S
C647 C646 1.362 . S
H648 C654 0.930 . S
H649 C657 0.930 . S
H650 C658 0.930 . S
H651 C659 0.930 . S
H652 C662 0.930 . S
H653 C663 0.930 . S
C654 H648 0.930 . S
C654 C655 1.355 . S
C654 C656 1.415 . S
C655 C654 1.355 . S
C655 C657 1.419 . S
C656 C654 1.415 . S
C656 C661 1.425 . S
C656 C663 1.409 . S
C657 H649 0.930 . S
C657 C655 1.419 . S
C657 C658 1.362 . S
C658 H650 0.930 . S
C658 C657 1.362 . S
C658 C661 1.409 . S
C659 H651 0.930 . S
C659 C660 1.355 . S
C659 C661 1.415 . S
C660 C659 1.355 . S
C660 C662 1.419 . S
C661 C656 1.425 . S
C661 C658 1.409 . S
C661 C659 1.415 . S
C662 H652 0.930 . S
C662 C660 1.419 . S
C662 C663 1.362 . S
C663 H653 0.930 . S
C663 C656 1.409 . S
C663 C662 1.362 . S
H664 C670 0.930 . S
H665 C673 0.930 . S
H666 C674 0.930 . S
H667 C675 0.930 . S
H668 C678 0.930 . S
H669 C679 0.930 . S
C670 H664 0.930 . S
C670 C671 1.355 . S
C670 C672 1.415 . S
C671 C670 1.355 . S
C671 C673 1.419 . S
C672 C670 1.415 . S
C672 C677 1.425 . S
C672 C679 1.409 . S
C673 H665 0.930 . S
C673 C671 1.419 . S
C673 C674 1.362 . S
C674 H666 0.930 . S
C674 C673 1.362 . S
C674 C677 1.409 . S
C675 H667 0.930 . S
C675 C676 1.355 . S
C675 C677 1.415 . S
C676 C675 1.355 . S
C676 C678 1.419 . S
C677 C672 1.425 . S
C677 C674 1.409 . S
C677 C675 1.415 . S
C678 H668 0.930 . S
C678 C676 1.419 . S
C678 C679 1.362 . S
C679 H669 0.930 . S
C679 C672 1.409 . S
C679 C678 1.362 . S
H680 C686 0.930 . S
H681 C689 0.930 . S
H682 C690 0.930 . S
H683 C691 0.930 . S
H684 C694 0.930 . S
H685 C695 0.930 . S
C686 H680 0.930 . S
C686 C687 1.355 . S
C686 C688 1.415 . S
C687 C686 1.355 . S
C687 C689 1.419 . S
C688 C686 1.415 . S
C688 C693 1.425 . S
C688 C695 1.409 . S
C689 H681 0.930 . S
C689 C687 1.419 . S
C689 C690 1.362 . S
C690 H682 0.930 . S
C690 C689 1.362 . S
C690 C693 1.409 . S
C691 H683 0.930 . S
C691 C692 1.355 . S
C691 C693 1.415 . S
C692 C691 1.355 . S
C692 C694 1.419 . S
C693 C688 1.425 . S
C693 C690 1.409 . S
C693 C691 1.415 . S
C694 H684 0.930 . S
C694 C692 1.419 . S
C694 C695 1.362 . S
C695 H685 0.930 . S
C695 C688 1.409 . S
C695 C694 1.362 . S
H696 C702 0.930 . S
H697 C705 0.930 . S
H698 C706 0.930 . S
H699 C707 0.930 . S
H700 C710 0.930 . S
H701 C711 0.930 . S
C702 H696 0.930 . S
C702 C703 1.355 . S
C702 C704 1.415 . S
C703 C702 1.355 . S
C703 C705 1.419 . S
C704 C702 1.415 . S
C704 C709 1.425 . S
C704 C711 1.409 . S
C705 H697 0.930 . S
C705 C703 1.419 . S
C705 C706 1.362 . S
C706 H698 0.930 . S
C706 C705 1.362 . S
C706 C709 1.409 . S
C707 H699 0.930 . S
C707 C708 1.355 . S
C707 C709 1.415 . S
C708 C707 1.355 . S
C708 C710 1.419 . S
C709 C704 1.425 . S
C709 C706 1.409 . S
C709 C707 1.415 . S
C710 H700 0.930 . S
C710 C708 1.419 . S
C710 C711 1.362 . S
C711 H701 0.930 . S
C711 C704 1.409 . S
C711 C710 1.362 . S
H712 C718 0.930 . S
H713 C721 0.930 . S
H714 C722 0.930 . S
H715 C723 0.930 . S
H716 C726 0.930 . S
H717 C727 0.930 . S
C718 H712 0.930 . S
C718 C719 1.355 . S
C718 C720 1.415 . S
C719 C718 1.355 . S
C719 C721 1.419 . S
C720 C718 1.415 . S
C720 C725 1.425 . S
C720 C727 1.409 . S
C721 H713 0.930 . S
C721 C719 1.419 . S
C721 C722 1.362 . S
C722 H714 0.930 . S
C722 C721 1.362 . S
C722 C725 1.409 . S
C723 H715 0.930 . S
C723 C724 1.355 . S
C723 C725 1.415 . S
C724 C723 1.355 . S
C724 C726 1.419 . S
C725 C720 1.425 . S
C725 C722 1.409 . S
C725 C723 1.415 . S
C726 H716 0.930 . S
C726 C724 1.419 . S
C726 C727 1.362 . S
C727 H717 0.930 . S
C727 C720 1.409 . S
C727 C726 1.362 . S
H728 C734 0.930 . S
H729 C737 0.930 . S
H730 C738 0.930 . S
H731 C739 0.930 . S
H732 C742 0.930 . S
H733 C743 0.930 . S
C734 H728 0.930 . S
C734 C735 1.355 . S
C734 C736 1.415 . S
C735 C734 1.355 . S
C735 C737 1.419 . S
C736 C734 1.415 . S
C736 C741 1.425 . S
C736 C743 1.409 . S
C737 H729 0.930 . S
C737 C735 1.419 . S
C737 C738 1.362 . S
C738 H730 0.930 . S
C738 C737 1.362 . S
C738 C741 1.409 . S
C739 H731 0.930 . S
C739 C740 1.355 . S
C739 C741 1.415 . S
C740 C739 1.355 . S
C740 C742 1.419 . S
C741 C736 1.425 . S
C741 C738 1.409 . S
C741 C739 1.415 . S
C742 H732 0.930 . S
C742 C740 1.419 . S
C742 C743 1.362 . S
C743 H733 0.930 . S
C743 C736 1.409 . S
C743 C742 1.362 . S
H744 C750 0.930 . S
H745 C753 0.930 . S
H746 C754 0.930 . S
H747 C755 0.930 . S
H748 C758 0.930 . S
H749 C759 0.930 . S
C750 H744 0.930 . S
C750 C751 1.355 . S
C750 C752 1.415 . S
C751 C750 1.355 . S
C751 C753 1.419 . S
C752 C750 1.415 . S
C752 C757 1.425 . S
C752 C759 1.409 . S
C753 H745 0.930 . S
C753 C751 1.419 . S
C753 C754 1.362 . S
C754 H746 0.930 . S
C754 C753 1.362 . S
C754 C757 1.409 . S
C755 H747 0.930 . S
C755 C756 1.355 . S
C755 C757 1.415 . S
C756 C755 1.355 . S
C756 C758 1.419 . S
C757 C752 1.425 . S
C757 C754 1.409 . S
C757 C755 1.415 . S
C758 H748 0.930 . S
C758 C756 1.419 . S
C758 C759 1.362 . S
C759 H749 0.930 . S
C759 C752 1.409 . S
C759 C758 1.362 . S
H760 C766 0.930 1_545 S
H761 C769 0.930 . S
H762 C770 0.930 . S
H763 C771 0.930 . S
H764 C774 0.930 . S
H765 C775 0.930 . S
C766 H760 0.930 1_565 S
C766 C767 1.355 . S
C766 C768 1.415 . S
C767 C766 1.355 . S
C767 C769 1.419 . S
C768 C766 1.415 . S
C768 C773 1.425 . S
C768 C775 1.409 1_565 S
C769 H761 0.930 . S
C769 C767 1.419 . S
C769 C770 1.362 . S
C770 H762 0.930 . S
C770 C769 1.362 . S
C770 C773 1.409 . S
C771 H763 0.930 . S
C771 C772 1.355 . S
C771 C773 1.415 . S
C772 C771 1.355 . S
C772 C774 1.419 1_565 S
C773 C768 1.425 . S
C773 C770 1.409 . S
C773 C771 1.415 . S
C774 H764 0.930 . S
C774 C772 1.419 1_545 S
C774 C775 1.362 . S
C775 H765 0.930 . S
C775 C768 1.409 1_545 S
C775 C774 1.362 . S
H776 C782 0.930 . S
H777 C785 0.930 . S
H778 C786 0.930 . S
H779 C787 0.930 . S
H780 C790 0.930 . S
H781 C791 0.930 . S
C782 H776 0.930 . S
C782 C783 1.355 . S
C782 C784 1.415 . S
C783 C782 1.355 . S
C783 C785 1.419 . S
C784 C782 1.415 . S
C784 C789 1.425 . S
C784 C791 1.409 . S
C785 H777 0.930 . S
C785 C783 1.419 . S
C785 C786 1.362 . S
C786 H778 0.930 . S
C786 C785 1.362 . S
C786 C789 1.409 . S
C787 H779 0.930 . S
C787 C788 1.355 . S
C787 C789 1.415 . S
C788 C787 1.355 . S
C788 C790 1.419 . S
C789 C784 1.425 . S
C789 C786 1.409 . S
C789 C787 1.415 . S
C790 H780 0.930 . S
C790 C788 1.419 . S
C790 C791 1.362 . S
C791 H781 0.930 . S
C791 C784 1.409 . S
C791 C790 1.362 . S
H792 C798 0.930 . S
H793 C801 0.930 . S
H794 C802 0.930 . S
H795 C803 0.930 . S
H796 C806 0.930 . S
H797 C807 0.930 . S
C798 H792 0.930 . S
C798 C799 1.355 . S
C798 C800 1.415 . S
C799 C798 1.355 . S
C799 C801 1.419 . S
C800 C798 1.415 . S
C800 C805 1.425 . S
C800 C807 1.409 . S
C801 H793 0.930 . S
C801 C799 1.419 . S
C801 C802 1.362 . S
C802 H794 0.930 . S
C802 C801 1.362 . S
C802 C805 1.409 . S
C803 H795 0.930 . S
C803 C804 1.355 . S
C803 C805 1.415 . S
C804 C803 1.355 . S
C804 C806 1.419 . S
C805 C800 1.425 . S
C805 C802 1.409 . S
C805 C803 1.415 . S
C806 H796 0.930 . S
C806 C804 1.419 . S
C806 C807 1.362 . S
C807 H797 0.930 . S
C807 C800 1.409 . S
C807 C806 1.362 . S
C431 C76 1.930 . S
C436 C162 2.015 . S
C452 C246 1.991 . S
C447 C87 1.866 . S
C468 C312 1.907 . S
C463 C54 1.950 . S
C484 C396 1.898 . S
C479 C65 1.943 . S
C500 C151 1.998 1_565 S
C495 C32 1.938 . S
C511 C43 1.888 . S
C516 C235 2.005 . S
C527 C10 1.979 . S
C532 C323 1.927 . S
C543 C21 2.025 . S
C548 C407 1.981 . S
C564 C158 0.691 . S
C559 C60 0.819 . S
C580 C242 0.648 1_545 S
C575 C71 0.790 . S
C596 C314 0.730 . S
C591 C82 0.615 . S
C607 C49 0.632 . S
C612 C398 0.777 . S
C623 C16 0.750 . S
C628 C146 0.774 . S
C644 C230 0.763 . S
C639 C27 0.627 . S
C660 C326 0.641 . S
C655 C38 0.777 . S
C671 C5 0.762 . S
C676 C410 0.668 . S
C687 C59 2.083 . S
C692 C155 2.154 . S
C703 C70 2.059 . S
C708 C239 2.119 . S
C724 C319 2.146 . S
C719 C81 1.886 . S
C740 C403 2.177 . S
C735 C48 1.997 . S
C751 C15 2.003 . S
C756 C144 2.087 . S
C772 C228 2.090 . S
C767 C26 2.039 . S
C788 C330 2.166 . S
C783 C37 1.892 . S
C799 C4 1.948 . S
C804 C414 2.153 . S
