# Generated by pormake.
# Topology dag, (6,3)-cn, num edge types: 1
# Building blocks:
#     Node 0, Type 0, BuildingBlock: MIDCAF_clean_sbu_0, # of connection points: 6
#     Node 1, Type 0, BuildingBlock: MIDCAF_clean_sbu_0, # of connection points: 6
#     Node 2, Type 0, BuildingBlock: MIDCAF_clean_sbu_0, # of connection points: 6
#     Node 3, Type 0, BuildingBlock: MIDCAF_clean_sbu_0, # of connection points: 6
#     Node 4, Type 1, BuildingBlock: KAKCAD_clean_linker_0, # of connection points: 3
#     Node 5, Type 1, BuildingBlock: KAKCAD_clean_linker_0, # of connection points: 3
#     Node 6, Type 1, BuildingBlock: KAKCAD_clean_linker_0, # of connection points: 3
#     Node 7, Type 1, BuildingBlock: KAKCAD_clean_linker_0, # of connection points: 3
#     Node 8, Type 1, BuildingBlock: KAKCAD_clean_linker_0, # of connection points: 3
#     Node 9, Type 1, BuildingBlock: KAKCAD_clean_linker_0, # of connection points: 3
#     Node 10, Type 1, BuildingBlock: KAKCAD_clean_linker_0, # of connection points: 3
#     Node 11, Type 1, BuildingBlock: KAKCAD_clean_linker_0, # of connection points: 3
#     Edge 12, Type (0, 1), BuildingBlock: AJUNOK_clean_linker_0, # of connection points: 2
#     Edge 13, Type (0, 1), BuildingBlock: AJUNOK_clean_linker_0, # of connection points: 2
#     Edge 14, Type (0, 1), BuildingBlock: AJUNOK_clean_linker_0, # of connection points: 2
#     Edge 15, Type (0, 1), BuildingBlock: AJUNOK_clean_linker_0, # of connection points: 2
#     Edge 16, Type (0, 1), BuildingBlock: AJUNOK_clean_linker_0, # of connection points: 2
#     Edge 17, Type (0, 1), BuildingBlock: AJUNOK_clean_linker_0, # of connection points: 2
#     Edge 18, Type (0, 1), BuildingBlock: AJUNOK_clean_linker_0, # of connection points: 2
#     Edge 19, Type (0, 1), BuildingBlock: AJUNOK_clean_linker_0, # of connection points: 2
#     Edge 20, Type (0, 1), BuildingBlock: AJUNOK_clean_linker_0, # of connection points: 2
#     Edge 21, Type (0, 1), BuildingBlock: AJUNOK_clean_linker_0, # of connection points: 2
#     Edge 22, Type (0, 1), BuildingBlock: AJUNOK_clean_linker_0, # of connection points: 2
#     Edge 23, Type (0, 1), BuildingBlock: AJUNOK_clean_linker_0, # of connection points: 2
#     Edge 24, Type (0, 1), BuildingBlock: AJUNOK_clean_linker_0, # of connection points: 2
#     Edge 25, Type (0, 1), BuildingBlock: AJUNOK_clean_linker_0, # of connection points: 2
#     Edge 26, Type (0, 1), BuildingBlock: AJUNOK_clean_linker_0, # of connection points: 2
#     Edge 27, Type (0, 1), BuildingBlock: AJUNOK_clean_linker_0, # of connection points: 2
#     Edge 28, Type (0, 1), BuildingBlock: AJUNOK_clean_linker_0, # of connection points: 2
#     Edge 29, Type (0, 1), BuildingBlock: AJUNOK_clean_linker_0, # of connection points: 2
#     Edge 30, Type (0, 1), BuildingBlock: AJUNOK_clean_linker_0, # of connection points: 2
#     Edge 31, Type (0, 1), BuildingBlock: AJUNOK_clean_linker_0, # of connection points: 2
#     Edge 32, Type (0, 1), BuildingBlock: AJUNOK_clean_linker_0, # of connection points: 2
#     Edge 33, Type (0, 1), BuildingBlock: AJUNOK_clean_linker_0, # of connection points: 2
#     Edge 34, Type (0, 1), BuildingBlock: AJUNOK_clean_linker_0, # of connection points: 2
#     Edge 35, Type (0, 1), BuildingBlock: AJUNOK_clean_linker_0, # of connection points: 2
# Relax obj value: 0.303
# Max RMSD: 0.192
# Mean RMSD: 0.180
data_MOF--net-dag--node1-MIDCAF_clean_sbu_0--node2-KAKCAD_clean_linker_0--edge1-AJUNOK_clean_linker_0
_symmetry_space_group_name_H-M    P1
_symmetry_Int_Tables_number       1
_symmetry_cell_setting            triclinic
loop_
_symmetry_equiv_pos_as_xyz
'x, y, z'
_cell_length_a     38.023125
_cell_length_b     39.046495
_cell_length_c     28.837446
_cell_angle_alpha  93.912124
_cell_angle_beta   90.197784
_cell_angle_gamma 90.103861
loop_
_atom_site_label
_atom_site_type_symbol
_atom_site_fract_x
_atom_site_fract_y
_atom_site_fract_z
_atom_type_partial_charge
Zn0 Zn 0.14976 0.80777 0.13402 0.0
Zn1 Zn 0.23683 0.8486 1.00264 0.0
Zn2 Zn 0.19388 0.82834 0.06994 0.0
C3 C 0.22007 0.90722 0.05648 0.0
C4 C 0.17476 0.82187 0.96025 0.0
O5 O 0.22183 0.7909 0.11234 0.0
O6 O 0.1815 0.77559 0.16216 0.0
C7 C 0.16173 0.87931 0.15015 0.0
O8 O 0.20182 0.88499 0.07724 0.0
O9 O 0.24024 0.89765 0.02347 0.0
O10 O 0.20336 0.83604 0.95002 0.0
O11 O 0.16759 0.81675 1.00283 0.0
O12 O 0.14371 0.85501 0.16465 0.0
O13 O 0.18258 0.87392 0.11538 0.0
O14 O 0.14396 0.80912 0.03802 0.0
O15 O 0.11175 0.78863 0.0936 0.0
C16 C 0.11571 0.79457 0.05154 0.0
O17 O 0.24203 0.79703 0.07262 0.0
O18 O 0.27535 0.81735 0.01787 0.0
C19 C 0.21235 0.7732 0.14639 0.0
C20 C 0.27092 0.7969 0.04945 0.0
Zn21 Zn 0.65354 0.68302 0.41677 0.0
Zn22 Zn 0.73305 0.66326 0.56193 0.0
Zn23 Zn 0.69419 0.67244 0.48404 0.0
C24 C 0.72453 0.59919 0.51332 0.0
C25 C 0.6668 0.68669 0.59071 0.0
O26 O 0.72474 0.70406 0.43661 0.0
O27 O 0.6897 0.69907 0.37523 0.0
C28 C 0.65961 0.61261 0.4191 0.0
O29 O 0.70598 0.61731 0.48672 0.0
O30 O 0.74066 0.61326 0.54796 0.0
O31 O 0.69576 0.67822 0.60815 0.0
O32 O 0.66279 0.68626 0.54628 0.0
O33 O 0.63821 0.63428 0.40482 0.0
O34 O 0.68479 0.62234 0.44692 0.0
O35 O 0.64337 0.69565 0.50758 0.0
O36 O 0.62018 0.71692 0.44545 0.0
C37 C 0.61952 0.71352 0.48858 0.0
O38 O 0.74116 0.70578 0.4803 0.0
O39 O 0.76979 0.69575 0.54517 0.0
C40 C 0.71873 0.70825 0.39334 0.0
C41 C 0.76747 0.7111 0.50816 0.0
Zn42 Zn 0.83852 0.17192 0.93354 0.0
Zn43 Zn 0.75189 0.15013 0.06124 0.0
Zn44 Zn 0.79646 0.16336 0.99472 0.0
C45 C 0.81611 0.17202 0.10363 0.0
C46 C 0.75996 0.08878 0.01222 0.0
O47 O 0.77041 0.1976 0.94551 0.0
O48 O 0.80609 0.1866 0.88628 0.0
C49 C 0.87121 0.20195 0.00617 0.0
O50 O 0.82424 0.17632 0.06103 0.0
O51 O 0.7862 0.16027 0.11321 0.0
O52 O 0.74028 0.10161 0.04391 0.0
O53 O 0.78209 0.10789 0.992 0.0
O54 O 0.87012 0.20675 0.96344 0.0
O55 O 0.84705 0.18392 0.02426 0.0
O56 O 0.80664 0.11336 0.95638 0.0
O57 O 0.85692 0.12465 0.92242 0.0
C58 C 0.83368 0.10331 0.93233 0.0
O59 O 0.75164 0.19906 0.98788 0.0
O60 O 0.71782 0.18541 0.04635 0.0
C61 C 0.77798 0.19965 0.90221 0.0
C62 C 0.72366 0.20356 0.01267 0.0
Zn63 Zn 0.33948 0.30687 0.64029 0.0
Zn64 Zn 0.2613 0.34744 0.50535 0.0
Zn65 Zn 0.3013 0.3292 0.57429 0.0
C66 C 0.32365 0.32113 0.46568 0.0
C67 C 0.27736 0.40742 0.55763 0.0
O68 O 0.27003 0.29213 0.61442 0.0
O69 O 0.30758 0.27424 0.66624 0.0
C70 C 0.37866 0.29345 0.56277 0.0
O71 O 0.33039 0.31741 0.5089 0.0
O72 O 0.29444 0.3333 0.45387 0.0
O73 O 0.25892 0.39675 0.52319 0.0
O74 O 0.29456 0.38601 0.58121 0.0
O75 O 0.37953 0.28759 0.60517 0.0
O76 O 0.35206 0.30886 0.54585 0.0
O77 O 0.31167 0.37495 0.62145 0.0
O78 O 0.34535 0.35265 0.67426 0.0
C79 C 0.33002 0.37835 0.65913 0.0
O80 O 0.2521 0.29823 0.57273 0.0
O81 O 0.22009 0.31889 0.5168 0.0
C82 C 0.27723 0.27353 0.64859 0.0
C83 C 0.2236 0.29837 0.54839 0.0
C84 C 0.95811 0.19424 0.24338 0.0
C85 C 0.93798 0.16712 0.22249 0.0
C86 C 0.99066 0.18773 0.2641 0.0
C87 C 0.00373 0.15399 0.26407 0.0
C88 C 0.98342 0.12706 0.24304 0.0
C89 C 0.95133 0.13358 0.22204 0.0
C90 C 0.03843 0.14639 0.28529 0.0
C91 C 0.04926 0.16307 0.32777 0.0
C92 C 0.08082 0.15372 0.34923 0.0
C93 C 0.10162 0.12756 0.32766 0.0
C94 C 0.09135 0.11076 0.28523 0.0
C95 C 0.06008 0.12074 0.26402 0.0
C96 C 0.1114 0.08076 0.2649 0.0
C97 C 0.11559 0.07532 0.21645 0.0
C98 C 0.12326 0.05545 0.29368 0.0
C99 C 0.13677 0.0245 0.27433 0.0
C100 C 0.13879 0.01841 0.226 0.0
C101 C 0.09279 0.17159 0.39366 0.0
C102 C 0.0918 0.20753 0.39949 0.0
C103 C 0.10786 0.1531 0.42894 0.0
C104 C 0.12332 0.17031 0.46802 0.0
C105 C 0.12397 0.20635 0.47266 0.0
C106 C 0.10739 0.22471 0.43836 0.0
C107 C 0.12906 0.04427 0.19714 0.0
H108 H 0.94861 0.22039 0.24385 0.0
H109 H 0.00579 0.20912 0.27954 0.0
H110 H 0.99219 0.10068 0.2429 0.0
H111 H 0.93707 0.11221 0.20496 0.0
H112 H 0.03261 0.18249 0.34497 0.0
H113 H 0.05199 0.10767 0.23138 0.0
H114 H 0.12616 0.1205 0.34366 0.0
H115 H 0.10717 0.09451 0.1934 0.0
H116 H 0.12006 0.05861 0.33103 0.0
H117 H 0.14372 0.00452 0.29699 0.0
H118 H 0.0808 0.2225 0.37271 0.0
H119 H 0.10855 0.12531 0.4257 0.0
H120 H 0.13019 0.03975 0.15968 0.0
H121 H 0.10834 0.25248 0.43995 0.0
H122 H 0.13589 0.15548 0.49379 0.0
C123 C 0.34992 0.53616 0.767 0.0
C124 C 0.3704 0.51383 0.73792 0.0
C125 C 0.36342 0.56793 0.78432 0.0
C126 C 0.39811 0.5777 0.77407 0.0
C127 C 0.41849 0.55504 0.74527 0.0
C128 C 0.40464 0.524 0.72683 0.0
C129 C 0.41345 0.61096 0.79348 0.0
C130 C 0.40367 0.62545 0.83757 0.0
C131 C 0.41899 0.65626 0.85619 0.0
C132 C 0.44553 0.6719 0.83093 0.0
C133 C 0.45537 0.65806 0.78674 0.0
C134 C 0.43874 0.62809 0.76807 0.0
C135 C 0.48404 0.67361 0.76024 0.0
C136 C 0.48053 0.67634 0.71208 0.0
C137 C 0.51646 0.6821 0.78172 0.0
C138 C 0.54551 0.69049 0.75497 0.0
C139 C 0.54252 0.69056 0.70643 0.0
C140 C 0.40533 0.67345 0.90014 0.0
C141 C 0.39475 0.6545 0.9376 0.0
C142 C 0.40014 0.70912 0.90325 0.0
C143 C 0.38347 0.72524 0.94169 0.0
C144 C 0.37139 0.70621 0.97813 0.0
C145 C 0.37785 0.67074 0.97624 0.0
C146 C 0.50951 0.68459 0.68544 0.0
H147 H 0.32375 0.52891 0.77731 0.0
H148 H 0.34658 0.5847 0.80577 0.0
H149 H 0.44557 0.5608 0.73735 0.0
H150 H 0.42113 0.50767 0.70418 0.0
H151 H 0.38381 0.613 0.85733 0.0
H152 H 0.44611 0.61782 0.73368 0.0
H153 H 0.45818 0.69517 0.84531 0.0
H154 H 0.4557 0.67058 0.69468 0.0
H155 H 0.52 0.68004 0.81871 0.0
H156 H 0.5708 0.69462 0.77187 0.0
H157 H 0.39887 0.62703 0.93665 0.0
H158 H 0.40729 0.7245 0.87486 0.0
H159 H 0.50654 0.68473 0.64807 0.0
H160 H 0.36914 0.6555 0.00404 0.0
H161 H 0.37835 0.75253 0.94162 0.0
C162 C 0.95585 0.77182 0.03282 0.0
C163 C 0.97245 0.79361 1.0026 0.0
C164 C 0.92118 0.77732 0.04672 0.0
C165 C 0.90244 0.80615 0.03351 0.0
C166 C 0.91784 0.82599 0.99973 0.0
C167 C 0.95184 0.81896 0.98331 0.0
C168 C 0.86828 0.81607 0.0569 0.0
C169 C 0.86075 0.80548 0.10161 0.0
C170 C 0.82878 0.81363 0.12399 0.0
C171 C 0.80505 0.83516 0.10247 0.0
C172 C 0.81339 0.84911 0.06011 0.0
C173 C 0.84415 0.83794 0.03665 0.0
C174 C 0.79302 0.87871 0.04365 0.0
C175 C 0.79203 0.88551 0.99619 0.0
C176 C 0.77894 0.90339 0.07636 0.0
C177 C 0.76689 0.93482 0.06256 0.0
C178 C 0.76918 0.94255 0.01599 0.0
C179 C 0.8205 0.79963 0.1698 0.0
C180 C 0.83278 0.76698 0.1801 0.0
C181 C 0.79971 0.81816 0.20321 0.0
C182 C 0.78966 0.80349 0.24416 0.0
C183 C 0.80056 0.7702 0.253 0.0
C184 C 0.82348 0.75279 0.22147 0.0
C185 C 0.7809 0.91748 0.98262 0.0
H186 H 0.96998 0.75149 0.04841 0.0
H187 H 0.90992 0.75953 0.06972 0.0
H188 H 0.9048 0.84804 0.98702 0.0
H189 H 0.96226 0.8346 0.95704 0.0
H190 H 0.88025 0.79161 0.12012 0.0
H191 H 0.84994 0.8476 1.00341 0.0
H192 H 0.78018 0.84158 0.11896 0.0
H193 H 0.80148 0.8669 0.96963 0.0
H194 H 0.77957 0.89975 0.11322 0.0
H195 H 0.75829 0.95413 0.08884 0.0
H196 H 0.8486 0.75159 0.15553 0.0
H197 H 0.7906 0.84378 0.19751 0.0
H198 H 0.78287 0.92316 0.94646 0.0
H199 H 0.8331 0.72743 0.22784 0.0
H200 H 0.77208 0.81764 0.2679 0.0
C201 C 0.5326 0.28445 0.57535 0.0
C202 C 0.52195 0.28803 0.52935 0.0
C203 C 0.56666 0.29278 0.58961 0.0
C204 C 0.59134 0.30437 0.558 0.0
C205 C 0.58092 0.30685 0.51131 0.0
C206 C 0.5463 0.2992 0.49725 0.0
C207 C 0.62677 0.31596 0.57498 0.0
C208 C 0.64276 0.30072 0.61245 0.0
C209 C 0.67367 0.3143 0.63291 0.0
C210 C 0.69032 0.34204 0.61349 0.0
C211 C 0.67502 0.35766 0.57568 0.0
C212 C 0.64309 0.3445 0.55705 0.0
C213 C 0.69014 0.38969 0.55849 0.0
C214 C 0.70575 0.41454 0.58974 0.0
C215 C 0.68652 0.39704 0.51148 0.0
C216 C 0.69632 0.42909 0.49684 0.0
C217 C 0.71088 0.45399 0.52859 0.0
C218 C 0.68716 0.30055 0.67622 0.0
C219 C 0.66412 0.29547 0.71328 0.0
C220 C 0.72273 0.29184 0.6806 0.0
C221 C 0.73472 0.27706 0.7205 0.0
C222 C 0.7115 0.27122 0.757 0.0
C223 C 0.67623 0.28107 0.75345 0.0
C224 C 0.71622 0.44622 0.57484 0.0
H225 H 0.51393 0.27687 0.60109 0.0
H226 H 0.57296 0.29155 0.62608 0.0
H227 H 0.59927 0.3153 0.48581 0.0
H228 H 0.53839 0.30253 0.46171 0.0
H229 H 0.63088 0.27844 0.62652 0.0
H230 H 0.62981 0.35778 0.53031 0.0
H231 H 0.71455 0.35208 0.62893 0.0
H232 H 0.70835 0.41037 0.62631 0.0
H233 H 0.67527 0.37836 0.48616 0.0
H234 H 0.6919 0.43471 0.461 0.0
H235 H 0.63662 0.3024 0.711 0.0
H236 H 0.741 0.29546 0.6526 0.0
H237 H 0.72681 0.46537 0.60009 0.0
H238 H 0.65784 0.27656 0.781 0.0
H239 H 0.76209 0.26961 0.72259 0.0
C240 C 0.63627 0.4671 0.30233 0.0
C241 C 0.63641 0.47193 0.35091 0.0
C242 C 0.62314 0.43672 0.28045 0.0
C243 C 0.61025 0.41039 0.30683 0.0
C244 C 0.61265 0.41456 0.35567 0.0
C245 C 0.62533 0.44521 0.37752 0.0
C246 C 0.59184 0.38017 0.28351 0.0
C247 C 0.60296 0.36606 0.2399 0.0
C248 C 0.58377 0.33963 0.21572 0.0
C249 C 0.55339 0.32674 0.23633 0.0
C250 C 0.54242 0.33989 0.28049 0.0
C251 C 0.56164 0.3667 0.30355 0.0
C252 C 0.50991 0.32719 0.3021 0.0
C253 C 0.47848 0.32365 0.27641 0.0
C254 C 0.50943 0.32132 0.34968 0.0
C255 C 0.47785 0.31417 0.37171 0.0
C256 C 0.44609 0.31303 0.34669 0.0
C257 C 0.5964 0.32484 0.16981 0.0
C258 C 0.61182 0.34585 0.13756 0.0
C259 C 0.59533 0.28921 0.15923 0.0
C260 C 0.61085 0.2748 0.11872 0.0
C261 C 0.62781 0.2956 0.08766 0.0
C262 C 0.62758 0.33134 0.09705 0.0
C263 C 0.44683 0.31669 0.29855 0.0
H264 H 0.64437 0.48766 0.28129 0.0
H265 H 0.62135 0.43474 0.24289 0.0
H266 H 0.60376 0.39455 0.3771 0.0
H267 H 0.62536 0.44854 0.41513 0.0
H268 H 0.62697 0.37538 0.22501 0.0
H269 H 0.55204 0.37809 0.33639 0.0
H270 H 0.53825 0.30647 0.21809 0.0
H271 H 0.47802 0.32806 0.23974 0.0
H272 H 0.53336 0.32339 0.37021 0.0
H273 H 0.47801 0.31141 0.40881 0.0
H274 H 0.61253 0.37347 0.14421 0.0
H275 H 0.58423 0.27219 0.18347 0.0
H276 H 0.42271 0.31552 0.27841 0.0
H277 H 0.64062 0.34794 0.07386 0.0
H278 H 0.61151 0.24708 0.11329 0.0
C279 C 0.02481 0.22164 0.98734 0.0
C280 C 0.01532 0.21929 0.03399 0.0
C281 C 0.0588 0.21384 0.97254 0.0
C282 C 0.08444 0.20394 0.00419 0.0
C283 C 0.07552 0.20395 0.05164 0.0
C284 C 0.0411 0.21122 0.06636 0.0
C285 C 0.11878 0.19021 0.9866 0.0
C286 C 0.13418 0.20264 0.94678 0.0
C287 C 0.16333 0.18623 0.92555 0.0
C288 C 0.17871 0.15835 0.94643 0.0
C289 C 0.16402 0.14564 0.98668 0.0
C290 C 0.13394 0.16172 0.00615 0.0
C291 C 0.17751 0.11359 0.00588 0.0
C292 C 0.18985 0.08634 0.97586 0.0
C293 C 0.17565 0.10886 0.05392 0.0
C294 C 0.18432 0.07725 0.07105 0.0
C295 C 0.19582 0.05014 0.04061 0.0
C296 C 0.176 0.19678 0.87987 0.0
C297 C 0.15189 0.20332 0.84433 0.0
C298 C 0.2121 0.1997 0.87103 0.0
C299 C 0.22383 0.20919 0.82785 0.0
C300 C 0.19977 0.21579 0.79231 0.0
C301 C 0.16364 0.21265 0.80099 0.0
C302 C 0.19913 0.05508 0.99314 0.0
H303 H 0.00524 0.22721 0.9615 0.0
H304 H 0.06413 0.21349 0.93567 0.0
H305 H 0.09476 0.19712 0.07717 0.0
H306 H 0.03432 0.20932 0.10255 0.0
H307 H 0.12302 0.22476 0.93146 0.0
H308 H 0.1209 0.1506 0.03488 0.0
H309 H 0.2014 0.14584 0.9303 0.0
H310 H 0.19097 0.08848 0.93868 0.0
H311 H 0.16687 0.12938 0.07827 0.0
H312 H 0.1816 0.07379 0.10783 0.0
H313 H 0.12387 0.20064 0.84978 0.0
H314 H 0.2313 0.19511 0.89773 0.0
H315 H 0.20762 0.0342 0.96911 0.0
H316 H 0.1445 0.21697 0.77413 0.0
H317 H 0.25186 0.21184 0.82246 0.0
C318 C 0.45341 0.72084 0.55951 0.0
C319 C 0.47642 0.73255 0.52607 0.0
C320 C 0.41896 0.71121 0.54711 0.0
C321 C 0.40731 0.71219 0.50072 0.0
C322 C 0.43 0.72593 0.46824 0.0
C323 C 0.46392 0.73623 0.48089 0.0
C324 C 0.3737 0.69546 0.4846 0.0
C325 C 0.35551 0.70707 0.44614 0.0
C326 C 0.32801 0.68777 0.42491 0.0
C327 C 0.31664 0.65788 0.44486 0.0
C328 C 0.33364 0.64618 0.48428 0.0
C329 C 0.36235 0.66504 0.50349 0.0
C330 C 0.32336 0.61295 0.50316 0.0
C331 C 0.32567 0.60821 0.55118 0.0
C332 C 0.31222 0.58518 0.47296 0.0
C333 C 0.30336 0.55381 0.49019 0.0
C334 C 0.30593 0.54919 0.53786 0.0
C335 C 0.31364 0.69725 0.37952 0.0
C336 C 0.30615 0.73164 0.37181 0.0
C337 C 0.30953 0.67214 0.34254 0.0
C338 C 0.29801 0.68118 0.29892 0.0
C339 C 0.29011 0.7155 0.29142 0.0
C340 C 0.2945 0.74065 0.32826 0.0
C341 C 0.31734 0.57646 0.56831 0.0
H342 H 0.46261 0.71754 0.59452 0.0
H343 H 0.40206 0.70151 0.57339 0.0
H344 H 0.42277 0.72647 0.43198 0.0
H345 H 0.48138 0.74427 0.45404 0.0
H346 H 0.36397 0.73029 0.43093 0.0
H347 H 0.37726 0.65476 0.53139 0.0
H348 H 0.29466 0.64362 0.42923 0.0
H349 H 0.33376 0.62905 0.5756 0.0
H350 H 0.311 0.58732 0.43576 0.0
H351 H 0.29497 0.53284 0.4661 0.0
H352 H 0.30898 0.75156 0.39961 0.0
H353 H 0.31589 0.64554 0.34707 0.0
H354 H 0.31943 0.5733 0.60525 0.0
H355 H 0.28813 0.76724 0.32368 0.0
H356 H 0.29534 0.66133 0.27101 0.0
C357 C 0.05321 0.82497 0.79316 0.0
C358 C 0.05347 0.81497 0.83903 0.0
C359 C 0.02138 0.83129 0.77087 0.0
C360 C 0.9894 0.82841 0.79451 0.0
C361 C 0.98963 0.81713 0.83976 0.0
C362 C 0.0214 0.81019 0.86168 0.0
C363 C 0.95632 0.84042 0.77389 0.0
C364 C 0.94574 0.82849 0.72898 0.0
C365 C 0.91492 0.84112 0.70915 0.0
C366 C 0.89503 0.8662 0.73457 0.0
C367 C 0.90552 0.8787 0.77936 0.0
C368 C 0.9361 0.86539 0.79878 0.0
C369 C 0.88595 0.90705 0.80487 0.0
C370 C 0.8728 0.93457 0.78098 0.0
C371 C 0.88271 0.90827 0.8536 0.0
C372 C 0.86896 0.93735 0.87801 0.0
C373 C 0.85785 0.96551 0.85409 0.0
C374 C 0.90216 0.82684 0.66312 0.0
C375 C 0.90067 0.79118 0.6535 0.0
C376 C 0.88873 0.8484 0.63014 0.0
C377 C 0.87236 0.83445 0.58953 0.0
C378 C 0.86868 0.79871 0.58153 0.0
C379 C 0.88403 0.7773 0.61334 0.0
C380 C 0.85874 0.96345 0.80538 0.0
H381 H 0.07768 0.82897 0.77516 0.0
H382 H 0.02187 0.8402 0.73612 0.0
H383 H 0.96526 0.8147 0.85864 0.0
H384 H 0.02098 0.80282 0.89718 0.0
H385 H 0.96141 0.80931 0.7096 0.0
H386 H 0.94522 0.87552 0.83265 0.0
H387 H 0.87087 0.87543 0.71981 0.0
H388 H 0.87514 0.93474 0.74358 0.0
H389 H 0.89179 0.88719 0.87303 0.0
H390 H 0.86819 0.93839 0.91564 0.0
H391 H 0.91052 0.77392 0.67837 0.0
H392 H 0.89008 0.87604 0.63637 0.0
H393 H 0.85055 0.98506 0.78633 0.0
H394 H 0.88132 0.74965 0.60874 0.0
H395 H 0.86153 0.85164 0.56527 0.0
C396 C 0.18449 0.93757 0.1773 0.0
C397 C 0.15613 0.91451 0.17056 0.0
C398 C 0.17897 0.97156 0.195 0.0
C399 C 0.14494 0.98328 0.20607 0.0
H400 H 0.21102 0.92927 0.1689 0.0
H401 H 0.2013 0.9887 0.20008 0.0
S402 S 0.06195 0.93391 0.19239 0.0
N403 N 0.09283 0.90634 0.17488 0.0
N404 N 0.08266 0.9701 0.20798 0.0
C405 C 0.11649 0.96067 0.19909 0.0
C406 C 0.12205 0.92622 0.18149 0.0
C407 C 0.6106 0.66306 0.61639 0.0
C408 C 0.63556 0.68956 0.62049 0.0
C409 C 0.58035 0.66416 0.64379 0.0
C410 C 0.57432 0.69152 0.67704 0.0
H411 H 0.61449 0.64126 0.59161 0.0
H412 H 0.5618 0.64307 0.63946 0.0
S413 S 0.6326 0.76674 0.7023 0.0
N414 N 0.65308 0.74361 0.66053 0.0
N415 N 0.59617 0.74556 0.71311 0.0
C416 C 0.5995 0.71795 0.68218 0.0
C417 C 0.63026 0.71695 0.65373 0.0
C418 C 0.79331 0.03425 1.00039 0.0
C419 C 0.76072 0.05113 1.00367 0.0
C420 C 0.79543 -0.00153 1.00002 0.0
C421 C 0.76507 0.97849 0.00463 0.0
H422 H 0.81752 0.04886 1.00146 0.0
H423 H 0.82117 0.98657 0.99955 0.0
S424 S 0.67341 0.00985 0.01347 0.0
N425 N 0.69728 0.04495 0.00959 0.0
N426 N 0.70153 0.97756 0.01133 0.0
C427 C 0.73227 0.99478 0.00688 0.0
C428 C 0.73003 0.03119 0.0061 0.0
C429 C 0.4285 0.31528 0.51828 0.0
C430 C 0.41102 0.28727 0.53598 0.0
C431 C 0.46474 0.31383 0.50951 0.0
C432 C 0.48418 0.28432 0.51824 0.0
H433 H 0.41499 0.33952 0.51593 0.0
H434 H 0.47815 0.33706 0.50093 0.0
S435 S 0.44864 0.20178 0.55363 0.0
N436 N 0.41419 0.22751 0.55376 0.0
N437 N 0.48228 0.22463 0.53671 0.0
C438 C 0.46598 0.25481 0.52974 0.0
C439 C 0.4293 0.25636 0.53894 0.0
C440 C 0.68228 0.556 0.38651 0.0
C441 C 0.65437 0.57605 0.40511 0.0
C442 C 0.67672 0.52172 0.37007 0.0
C443 C 0.64337 0.50643 0.37305 0.0
H444 H 0.70819 0.56718 0.38339 0.0
H445 H 0.6984 0.50723 0.35436 0.0
S446 S 0.56261 0.54745 0.42193 0.0
N447 N 0.59281 0.57794 0.42729 0.0
N448 N 0.58264 0.51331 0.39765 0.0
C449 C 0.61573 0.52588 0.39322 0.0
C450 C 0.62115 0.56083 0.40891 0.0
C451 C 0.9205 0.24234 0.02312 0.0
C452 C 0.90414 0.21098 0.03092 0.0
C453 C 0.95664 0.24688 0.03052 0.0
C454 C 0.97749 0.22008 0.04566 0.0
H455 H 0.90594 0.26229 0.00714 0.0
H456 H 0.96891 0.27014 0.01987 0.0
S457 S 0.94602 0.13518 0.07847 0.0
N458 N 0.91043 0.15439 0.06013 0.0
N459 N 0.97839 0.16313 0.07485 0.0
C460 C 0.96069 0.1902 0.05893 0.0
C461 C 0.92391 0.1855 0.0511 0.0
C462 C 0.31639 0.45849 0.57372 0.0
C463 C 0.28248 0.44488 0.56521 0.0
C464 C 0.32343 0.49339 0.56868 0.0
C465 C 0.29682 0.51544 0.55466 0.0
H466 H 0.33805 0.4417 0.5811 0.0
H467 H 0.35025 0.50258 0.57254 0.0
S468 S 0.20288 0.49368 0.53551 0.0
N469 N 0.22134 0.45716 0.54801 0.0
N470 N 0.23483 0.52247 0.53787 0.0
C471 C 0.26244 0.50275 0.54968 0.0
C472 C 0.25521 0.46748 0.55506 0.0
C473 C 0.13769 0.84504 0.89894 0.0
C474 C 0.14696 0.81712 0.92468 0.0
C475 C 0.10812 0.84351 0.86983 0.0
C476 C 0.08689 0.81395 0.86535 0.0
H477 H 0.15242 0.86885 0.90303 0.0
H478 H 0.10097 0.86614 0.85222 0.0
S479 S 0.10375 0.73185 0.91867 0.0
N480 N 0.13538 0.75769 0.93952 0.0
N481 N 0.07945 0.75481 0.88473 0.0
C482 C 0.09697 0.78521 0.88895 0.0
C483 C 0.12716 0.78678 0.91862 0.0
C484 C 0.81179 0.04883 0.89177 0.0
C485 C 0.83844 0.067 0.91683 0.0
C486 C 0.81761 0.01524 0.87282 0.0
C487 C 0.84991 -0.00128 0.87944 0.0
H488 H 0.78686 0.06109 0.8854 0.0
H489 H 0.79709 0.00238 0.85207 0.0
S490 S 0.92685 0.03464 0.94553 0.0
N491 N 0.89741 0.06574 0.9492 0.0
N492 N 0.90809 0.00241 0.91457 0.0
C493 C 0.87606 0.01618 0.90622 0.0
C494 C 0.87041 0.05045 0.92461 0.0
C495 C 0.37584 0.28893 0.43235 0.0
C496 C 0.35177 0.31608 0.43055 0.0
C497 C 0.40582 0.2872 0.4039 0.0
C498 C 0.41219 0.31218 0.37196 0.0
H499 H 0.37191 0.26937 0.45668 0.0
H500 H 0.42452 0.26667 0.40765 0.0
S501 S 0.35609 0.38745 0.35212 0.0
N502 N 0.33553 0.36768 0.393 0.0
N503 N 0.39133 0.36416 0.33916 0.0
C504 C 0.38732 0.33844 0.36821 0.0
C505 C 0.35713 0.34037 0.39743 0.0
C506 C 0.24219 0.96733 0.06092 0.0
C507 C 0.21394 0.94442 0.06514 0.0
C508 C 0.23633 0.00239 0.0566 0.0
C509 C 0.20206 0.01567 0.05682 0.0
H510 H 0.26887 0.95773 0.0581 0.0
H511 H 0.25855 0.01886 0.05044 0.0
S512 S 0.11922 0.96708 0.06809 0.0
N513 N 0.15044 0.93783 0.06963 0.0
N514 N 0.13969 0.00406 0.06369 0.0
C515 C 0.17375 0.99358 0.06386 0.0
C516 C 0.17962 0.95779 0.06749 0.0
C517 C 0.56736 0.6979 0.53316 0.0
C518 C 0.58728 0.7236 0.51381 0.0
C519 C 0.5318 0.70298 0.54377 0.0
C520 C 0.51484 0.73362 0.53392 0.0
H521 H 0.57809 0.6724 0.535 0.0
H522 H 0.51668 0.68132 0.55438 0.0
S523 S 0.55684 0.81068 0.49005 0.0
N524 N 0.58892 0.78224 0.49094 0.0
N525 N 0.52163 0.79171 0.50998 0.0
C526 C 0.53531 0.7607 0.51886 0.0
C527 C 0.57163 0.7556 0.50859 0.0
C528 C 0.37118 0.41875 0.70131 0.0
C529 C 0.33756 0.41257 0.68214 0.0
C530 C 0.38087 0.45121 0.72035 0.0
C531 C 0.35755 0.47917 0.72065 0.0
H532 H 0.39064 0.39848 0.70063 0.0
H533 H 0.40716 0.45441 0.73459 0.0
S534 S 0.26451 0.47522 0.68081 0.0
N535 N 0.2792 0.43566 0.67026 0.0
N536 N 0.2981 0.49773 0.70308 0.0
C537 C 0.32319 0.47303 0.7034 0.0
C538 C 0.31308 0.43953 0.68475 0.0
C539 C 0.065 0.76155 0.01784 0.0
C540 C 0.08444 0.79208 0.02166 0.0
C541 C 0.02969 0.7615 0.00404 0.0
C542 C 0.01172 0.79248 0.99765 0.0
H543 H 0.07662 0.73788 0.02807 0.0
H544 H 0.01573 0.73727 1.00254 0.0
S545 S 0.05399 0.87865 0.99598 0.0
N546 N 0.08612 0.85277 0.00946 0.0
N547 N 0.01876 0.85407 0.98911 0.0
C548 C 0.03224 0.82274 0.99677 0.0
C549 C 0.06881 0.82221 0.00796 0.0
C550 C 0.69116 0.54458 0.4994 0.0
C551 C 0.72348 0.56139 0.50793 0.0
C552 C 0.68797 0.50906 0.5024 0.0
C553 C 0.71681 0.48941 0.51551 0.0
H554 H 0.66762 0.55922 0.49369 0.0
H555 H 0.66224 0.49734 0.49768 0.0
S556 S 0.80762 0.52066 0.53869 0.0
N557 N 0.78539 0.55536 0.52693 0.0
N558 N 0.77907 0.48864 0.53427 0.0
C559 C 0.74955 0.50561 0.52246 0.0
C560 C 0.75293 0.54165 0.51851 0.0
C561 C 0.87059 0.19987 0.13856 0.0
C562 C 0.84334 0.17565 0.14059 0.0
C563 C 0.9005 0.19848 0.16718 0.0
C564 C 0.90368 0.17319 0.19947 0.0
H565 H 0.86941 0.21914 0.1134 0.0
H566 H 0.92203 0.21601 0.16203 0.0
S567 S 0.83552 0.10955 0.22669 0.0
N568 N 0.8189 0.12929 0.18282 0.0
N569 N 0.87403 0.12788 0.23803 0.0
C570 C 0.87474 0.15148 0.20548 0.0
C571 C 0.84471 0.15252 0.1759 0.0
C572 C 0.26936 0.76748 0.18798 0.0
C573 C 0.23754 0.75267 0.17179 0.0
C574 C 0.28763 0.75403 0.22509 0.0
C575 C 0.27488 0.72512 0.24659 0.0
H576 H 0.27853 0.79122 0.17477 0.0
H577 H 0.31087 0.76737 0.23863 0.0
S578 S 0.19549 0.67421 0.21166 0.0
N579 N 0.19632 0.70543 0.17585 0.0
N580 N 0.23047 0.68015 0.24532 0.0
C581 C 0.24484 0.70837 0.22765 0.0
C582 C 0.22623 0.72215 0.19023 0.0
C583 C 0.82885 0.72951 0.50085 0.0
C584 C 0.79314 0.73852 0.50244 0.0
C585 C 0.85451 0.75163 0.5211 0.0
C586 C 0.84507 0.78311 0.5445 0.0
H587 H 0.8365 0.70367 0.48898 0.0
H588 H 0.88129 0.74239 0.5229 0.0
S589 S 0.75559 0.82118 0.54852 0.0
N590 N 0.75032 0.78323 0.52044 0.0
N591 N 0.79805 0.82458 0.56022 0.0
C592 C 0.81004 0.79432 0.54027 0.0
C593 C 0.78412 0.77196 0.51871 0.0
C594 C 0.71101 0.26466 0.02935 0.0
C595 C 0.70014 0.23287 0.00836 0.0
C596 C 0.68648 0.2876 0.05021 0.0
C597 C 0.65044 0.27923 0.05063 0.0
H598 H 0.73876 0.26986 0.03503 0.0
H599 H 0.69627 0.30989 0.07073 0.0
S600 S 0.6084 0.20357 0.98862 0.0
N601 N 0.651 0.19741 0.98075 0.0
N602 N 0.60465 0.24082 0.01899 0.0
C603 C 0.63904 0.25003 0.02349 0.0
C604 C 0.66402 0.22672 1.0025 0.0
C605 C 0.26024 0.22254 0.68955 0.0
C606 C 0.25024 0.25384 0.67207 0.0
C607 C 0.24193 0.20899 0.72611 0.0
C608 C 0.21305 0.22638 0.74691 0.0
H609 H 0.28409 0.20979 0.67733 0.0
H610 H 0.25182 0.18581 0.74011 0.0
S611 S 0.17314 0.30658 0.70884 0.0
N612 N 0.20705 0.29957 0.67385 0.0
N613 N 0.17267 0.27447 0.74331 0.0
C614 C 0.20064 0.25594 0.72664 0.0
C615 C 0.21924 0.26958 0.68892 0.0
C616 C 0.76225 0.75299 0.37162 0.0
C617 C 0.74566 0.72108 0.36217 0.0
C618 C 0.78132 0.7684 0.33671 0.0
C619 C 0.78463 0.75213 0.29167 0.0
H620 H 0.75873 0.76694 0.40506 0.0
H621 H 0.79263 0.79362 0.34454 0.0
S622 S 0.7479 0.66697 0.25142 0.0
N623 N 0.73575 0.67267 0.30625 0.0
N624 N 0.77064 0.70158 0.2408 0.0
C625 C 0.76955 0.71939 0.28299 0.0
C626 C 0.75034 0.70389 0.31825 0.0
C627 C 0.75407 0.20206 0.8228 0.0
C628 C 0.75493 0.21622 0.86903 0.0
C629 C 0.73892 0.21969 0.78731 0.0
C630 C 0.72377 0.25213 0.79657 0.0
H631 H 0.76647 0.17758 0.81357 0.0
H632 H 0.73984 0.20819 0.75205 0.0
S633 S 0.71714 0.29981 0.91184 0.0
N634 N 0.73809 0.2641 0.92245 0.0
N635 N 0.70854 0.29711 0.85548 0.0
C636 C 0.72259 0.26591 0.84292 0.0
C637 C 0.7384 0.24794 0.87928 0.0
C638 C 0.20668 0.23762 0.53449 0.0
C639 C 0.19709 0.27112 0.55014 0.0
C640 C 0.18171 0.21489 0.51371 0.0
C641 C 0.14641 0.225 0.50847 0.0
H642 H 0.23418 0.23039 0.533 0.0
H643 H 0.19093 0.19078 0.49736 0.0
S644 S 0.10687 0.30642 0.55687 0.0
N645 N 0.14935 0.31085 0.56798 0.0
N646 N 0.102 0.2677 0.53076 0.0
C647 C 0.13583 0.25654 0.53047 0.0
C648 C 0.16133 0.27975 0.55095 0.0
C649 C 0.33309 0.77943 0.05189 0.0
C650 C 0.29748 0.76992 0.05319 0.0
C651 C 0.3584 0.75654 0.03318 0.0
C652 C 0.34875 0.72365 0.01437 0.0
H653 H 0.34079 0.80582 0.06065 0.0
H654 H 0.38494 0.76593 0.02881 0.0
S655 S 0.26012 0.68421 0.01962 0.0
N656 N 0.2549 0.72369 0.04292 0.0
N657 N 0.30224 0.68072 0.00626 0.0
C658 C 0.31414 0.71233 0.0216 0.0
C659 C 0.28846 0.73557 0.04145 0.0
loop_
_geom_bond_atom_site_label_1
_geom_bond_atom_site_label_2
_geom_bond_distance
_geom_bond_site_symmetry_2
_ccdc_geom_bond_type
Zn0 O6 1.920 . S
Zn0 O12 1.898 . S
Zn0 O15 1.905 . S
Zn1 O9 1.905 . S
Zn1 O10 1.898 . S
Zn1 O18 1.920 . S
Zn2 O5 2.080 . S
Zn2 O8 2.114 . S
Zn2 O11 2.120 1_554 S
Zn2 O13 2.120 . S
Zn2 O14 2.114 . S
Zn2 O17 2.080 . S
C3 O8 1.166 1_556 S
C3 O9 1.182 . S
C4 O10 1.167 . S
C4 O11 1.299 . S
O5 Zn2 2.080 . S
O5 C19 1.305 . S
O6 Zn0 1.920 . S
O6 C19 1.234 . S
C7 O12 1.167 . S
C7 O13 1.299 . S
O8 Zn2 2.114 . S
O8 C3 1.166 1_554 S
O9 Zn1 1.905 . S
O9 C3 1.182 . S
O10 Zn1 1.898 . S
O10 C4 1.167 . S
O11 Zn2 2.120 1_556 S
O11 C4 1.299 . S
O12 Zn0 1.898 . S
O12 C7 1.167 . S
O13 Zn2 2.120 . S
O13 C7 1.299 . S
O14 Zn2 2.114 . S
O14 C16 1.166 . S
O15 Zn0 1.905 . S
O15 C16 1.182 . S
C16 O14 1.166 . S
C16 O15 1.182 . S
O17 Zn2 2.080 . S
O17 C20 1.301 1_554 S
O18 Zn1 1.920 . S
O18 C20 1.239 . S
C19 O5 1.305 . S
C19 O6 1.234 . S
C20 O17 1.301 1_556 S
C20 O18 1.239 . S
Zn21 O27 1.920 . S
Zn21 O33 1.898 . S
Zn21 O36 1.905 . S
Zn22 O30 1.905 . S
Zn22 O31 1.898 . S
Zn22 O39 1.920 . S
Zn23 O26 2.080 . S
Zn23 O29 2.114 . S
Zn23 O32 2.120 . S
Zn23 O34 2.120 . S
Zn23 O35 2.114 . S
Zn23 O38 2.080 . S
C24 O29 1.166 . S
C24 O30 1.182 . S
C25 O31 1.167 . S
C25 O32 1.299 . S
O26 Zn23 2.080 . S
O26 C40 1.305 . S
O27 Zn21 1.920 . S
O27 C40 1.234 . S
C28 O33 1.167 . S
C28 O34 1.299 . S
O29 Zn23 2.114 . S
O29 C24 1.166 . S
O30 Zn22 1.905 . S
O30 C24 1.182 . S
O31 Zn22 1.898 . S
O31 C25 1.167 . S
O32 Zn23 2.120 . S
O32 C25 1.299 . S
O33 Zn21 1.898 . S
O33 C28 1.167 . S
O34 Zn23 2.120 . S
O34 C28 1.299 . S
O35 Zn23 2.114 . S
O35 C37 1.166 . S
O36 Zn21 1.905 . S
O36 C37 1.182 . S
C37 O35 1.166 . S
C37 O36 1.182 . S
O38 Zn23 2.080 . S
O38 C41 1.305 . S
O39 Zn22 1.920 . S
O39 C41 1.234 . S
C40 O26 1.305 . S
C40 O27 1.234 . S
C41 O38 1.305 . S
C41 O39 1.234 . S
Zn42 O48 1.920 . S
Zn42 O54 1.898 . S
Zn42 O57 1.905 . S
Zn43 O51 1.905 . S
Zn43 O52 1.898 . S
Zn43 O60 1.920 . S
Zn44 O47 2.080 1_554 S
Zn44 O50 2.114 . S
Zn44 O53 2.120 . S
Zn44 O55 2.120 1_554 S
Zn44 O56 2.114 1_554 S
Zn44 O59 2.080 . S
C45 O50 1.166 . S
C45 O51 1.182 . S
C46 O52 1.167 . S
C46 O53 1.299 . S
O47 Zn44 2.080 1_556 S
O47 C61 1.305 . S
O48 Zn42 1.920 . S
O48 C61 1.234 . S
C49 O54 1.167 . S
C49 O55 1.299 . S
O50 Zn44 2.114 . S
O50 C45 1.166 . S
O51 Zn43 1.905 . S
O51 C45 1.182 . S
O52 Zn43 1.898 . S
O52 C46 1.167 . S
O53 Zn44 2.120 . S
O53 C46 1.299 . S
O54 Zn42 1.898 . S
O54 C49 1.167 . S
O55 Zn44 2.120 1_556 S
O55 C49 1.299 . S
O56 Zn44 2.114 1_556 S
O56 C58 1.166 . S
O57 Zn42 1.905 . S
O57 C58 1.182 . S
C58 O56 1.166 . S
C58 O57 1.182 . S
O59 Zn44 2.080 . S
O59 C62 1.305 . S
O60 Zn43 1.920 . S
O60 C62 1.234 . S
C61 O47 1.305 . S
C61 O48 1.234 . S
C62 O59 1.305 . S
C62 O60 1.234 . S
Zn63 O69 1.920 . S
Zn63 O75 1.898 . S
Zn63 O78 1.905 . S
Zn64 O72 1.905 . S
Zn64 O73 1.898 . S
Zn64 O81 1.920 . S
Zn65 O68 2.080 . S
Zn65 O71 2.114 . S
Zn65 O74 2.120 . S
Zn65 O76 2.120 . S
Zn65 O77 2.114 . S
Zn65 O80 2.080 . S
C66 O71 1.166 . S
C66 O72 1.182 . S
C67 O73 1.167 . S
C67 O74 1.299 . S
O68 Zn65 2.080 . S
O68 C82 1.305 . S
O69 Zn63 1.920 . S
O69 C82 1.234 . S
C70 O75 1.167 . S
C70 O76 1.299 . S
O71 Zn65 2.114 . S
O71 C66 1.166 . S
O72 Zn64 1.905 . S
O72 C66 1.182 . S
O73 Zn64 1.898 . S
O73 C67 1.167 . S
O74 Zn65 2.120 . S
O74 C67 1.299 . S
O75 Zn63 1.898 . S
O75 C70 1.167 . S
O76 Zn65 2.120 . S
O76 C70 1.299 . S
O77 Zn65 2.114 . S
O77 C79 1.166 . S
O78 Zn63 1.905 . S
O78 C79 1.182 . S
C79 O77 1.166 . S
C79 O78 1.182 . S
O80 Zn65 2.080 . S
O80 C83 1.305 . S
O81 Zn64 1.920 . S
O81 C83 1.234 . S
C82 O68 1.305 . S
C82 O69 1.234 . S
C83 O80 1.305 . S
C83 O81 1.234 . S
C84 C85 1.386 1_455 S
C84 C86 1.397 . S
C84 H108 0.931 . S
C85 C84 1.386 1_655 S
C85 C89 1.397 1_655 S
C86 C84 1.397 . S
C86 C87 1.384 . S
C86 H109 0.930 . S
C87 C86 1.384 . S
C87 C88 1.377 . S
C87 C90 1.481 . S
C88 C87 1.377 . S
C88 C89 1.395 . S
C88 H110 0.929 . S
C89 C85 1.397 1_455 S
C89 C88 1.395 . S
C89 H111 0.925 1_455 S
C90 C87 1.481 . S
C90 C91 1.387 . S
C90 C95 1.390 . S
C91 C90 1.387 . S
C91 C92 1.401 . S
C91 H112 0.930 . S
C92 C91 1.401 . S
C92 C93 1.376 . S
C92 C101 1.511 . S
C93 C92 1.376 . S
C93 C94 1.392 . S
C93 H114 0.931 . S
C94 C93 1.392 . S
C94 C95 1.361 . S
C94 C96 1.500 . S
C95 C90 1.390 . S
C95 C94 1.361 . S
C95 H113 0.931 . S
C96 C94 1.500 . S
C96 C97 1.371 . S
C96 C98 1.365 . S
C97 C96 1.371 . S
C97 C107 1.408 . S
C97 H115 0.931 . S
C98 C96 1.365 . S
C98 C99 1.409 1_545 S
C98 H116 0.929 . S
C99 C98 1.409 1_565 S
C99 C100 1.380 . S
C99 H117 0.930 . S
C100 C99 1.380 . S
C100 C107 1.341 1_565 S
C101 C92 1.511 . S
C101 C102 1.341 . S
C101 C103 1.371 . S
C102 C101 1.341 . S
C102 C106 1.394 . S
C102 H118 0.930 . S
C103 C101 1.371 . S
C103 C104 1.392 . S
C103 H119 0.931 . S
C104 C103 1.392 . S
C104 C105 1.331 . S
C104 H122 0.932 . S
C105 C104 1.331 . S
C105 C106 1.336 . S
C106 C102 1.394 . S
C106 C105 1.336 . S
C106 H121 0.929 . S
C107 C97 1.408 . S
C107 C100 1.341 1_545 S
C107 H120 0.923 1_545 S
H108 C84 0.931 . S
H109 C86 0.930 . S
H110 C88 0.929 . S
H111 C89 0.925 1_655 S
H112 C91 0.930 . S
H113 C95 0.931 . S
H114 C93 0.931 . S
H115 C97 0.931 . S
H116 C98 0.929 . S
H117 C99 0.930 . S
H118 C102 0.930 . S
H119 C103 0.931 . S
H120 C107 0.923 1_565 S
H121 C106 0.929 . S
H122 C104 0.932 . S
C123 C124 1.386 . S
C123 C125 1.397 . S
C123 H147 0.931 . S
C124 C123 1.386 . S
C124 C128 1.397 . S
C125 C123 1.397 . S
C125 C126 1.384 . S
C125 H148 0.930 . S
C126 C125 1.384 . S
C126 C127 1.377 . S
C126 C129 1.481 . S
C127 C126 1.377 . S
C127 C128 1.389 . S
C127 H149 0.929 . S
C128 C124 1.397 . S
C128 C127 1.389 . S
C128 H150 0.931 . S
C129 C126 1.481 . S
C129 C130 1.387 . S
C129 C134 1.390 . S
C130 C129 1.387 . S
C130 C131 1.401 . S
C130 H151 0.930 . S
C131 C130 1.401 . S
C131 C132 1.376 . S
C131 C140 1.511 . S
C132 C131 1.376 . S
C132 C133 1.392 . S
C132 H153 0.931 . S
C133 C132 1.392 . S
C133 C134 1.361 . S
C133 C135 1.500 . S
C134 C129 1.390 . S
C134 C133 1.361 . S
C134 H152 0.931 . S
C135 C133 1.500 . S
C135 C136 1.371 . S
C135 C137 1.365 . S
C136 C135 1.371 . S
C136 C146 1.386 . S
C136 H154 0.931 . S
C137 C135 1.365 . S
C137 C138 1.409 . S
C137 H155 0.929 . S
C138 C137 1.409 . S
C138 C139 1.380 . S
C138 H156 0.930 . S
C139 C138 1.380 . S
C139 C146 1.357 . S
C140 C131 1.511 . S
C140 C141 1.341 . S
C140 C142 1.371 . S
C141 C140 1.341 . S
C141 C145 1.394 . S
C141 H157 0.930 . S
C142 C140 1.371 . S
C142 C143 1.392 . S
C142 H158 0.931 . S
C143 C142 1.392 . S
C143 C144 1.331 . S
C143 H161 0.932 . S
C144 C143 1.331 . S
C144 C145 1.336 . S
C145 C141 1.394 . S
C145 C144 1.336 . S
C145 H160 0.929 . S
C146 C136 1.386 . S
C146 C139 1.357 . S
C146 H159 0.928 . S
H147 C123 0.931 . S
H148 C125 0.930 . S
H149 C127 0.929 . S
H150 C128 0.931 . S
H151 C130 0.930 . S
H152 C134 0.931 . S
H153 C132 0.931 . S
H154 C136 0.931 . S
H155 C137 0.929 . S
H156 C138 0.930 . S
H157 C141 0.930 . S
H158 C142 0.931 . S
H159 C146 0.928 . S
H160 C145 0.929 . S
H161 C143 0.932 . S
C162 C163 1.386 . S
C162 C164 1.397 . S
C162 H186 0.931 . S
C163 C162 1.386 . S
C163 C167 1.397 . S
C164 C162 1.397 . S
C164 C165 1.384 . S
C164 H187 0.930 . S
C165 C164 1.384 . S
C165 C166 1.377 . S
C165 C168 1.481 . S
C166 C165 1.377 . S
C166 C167 1.389 . S
C166 H188 0.929 . S
C167 C163 1.397 . S
C167 C166 1.389 . S
C167 H189 0.931 . S
C168 C165 1.481 . S
C168 C169 1.387 . S
C168 C173 1.390 . S
C169 C168 1.387 . S
C169 C170 1.401 . S
C169 H190 0.930 . S
C170 C169 1.401 . S
C170 C171 1.376 . S
C170 C179 1.511 . S
C171 C170 1.376 . S
C171 C172 1.392 . S
C171 H192 0.931 . S
C172 C171 1.392 . S
C172 C173 1.361 . S
C172 C174 1.500 . S
C173 C168 1.390 . S
C173 C172 1.361 . S
C173 H191 0.931 . S
C174 C172 1.500 . S
C174 C175 1.371 . S
C174 C176 1.365 . S
C175 C174 1.371 . S
C175 C185 1.386 . S
C175 H193 0.931 . S
C176 C174 1.365 . S
C176 C177 1.409 . S
C176 H194 0.929 . S
C177 C176 1.409 . S
C177 C178 1.380 . S
C177 H195 0.914 1_565 S
C178 C177 1.380 . S
C178 C185 1.357 . S
C179 C170 1.511 . S
C179 C180 1.341 . S
C179 C181 1.371 . S
C180 C179 1.341 . S
C180 C184 1.394 . S
C180 H196 0.930 . S
C181 C179 1.371 . S
C181 C182 1.392 . S
C181 H197 0.931 . S
C182 C181 1.392 . S
C182 C183 1.331 . S
C182 H200 0.932 . S
C183 C182 1.331 . S
C183 C184 1.336 . S
C184 C180 1.394 . S
C184 C183 1.336 . S
C184 H199 0.929 . S
C185 C175 1.386 . S
C185 C178 1.357 . S
C185 H198 0.928 . S
H186 C162 0.931 . S
H187 C164 0.930 . S
H188 C166 0.929 . S
H189 C167 0.931 . S
H190 C169 0.930 . S
H191 C173 0.931 . S
H192 C171 0.931 . S
H193 C175 0.931 . S
H194 C176 0.929 . S
H195 C177 0.914 1_545 S
H196 C180 0.930 . S
H197 C181 0.931 . S
H198 C185 0.928 . S
H199 C184 0.929 . S
H200 C182 0.932 . S
C201 C202 1.386 . S
C201 C203 1.397 . S
C201 H225 0.931 . S
C202 C201 1.386 . S
C202 C206 1.397 . S
C203 C201 1.397 . S
C203 C204 1.384 . S
C203 H226 0.930 . S
C204 C203 1.384 . S
C204 C205 1.377 . S
C204 C207 1.481 . S
C205 C204 1.377 . S
C205 C206 1.389 . S
C205 H227 0.929 . S
C206 C202 1.397 . S
C206 C205 1.389 . S
C206 H228 0.931 . S
C207 C204 1.481 . S
C207 C208 1.387 . S
C207 C212 1.390 . S
C208 C207 1.387 . S
C208 C209 1.401 . S
C208 H229 0.930 . S
C209 C208 1.401 . S
C209 C210 1.376 . S
C209 C218 1.511 . S
C210 C209 1.376 . S
C210 C211 1.392 . S
C210 H231 0.931 . S
C211 C210 1.392 . S
C211 C212 1.361 . S
C211 C213 1.500 . S
C212 C207 1.390 . S
C212 C211 1.361 . S
C212 H230 0.931 . S
C213 C211 1.500 . S
C213 C214 1.371 . S
C213 C215 1.365 . S
C214 C213 1.371 . S
C214 C224 1.386 . S
C214 H232 0.931 . S
C215 C213 1.365 . S
C215 C216 1.409 . S
C215 H233 0.929 . S
C216 C215 1.409 . S
C216 C217 1.380 . S
C216 H234 0.930 . S
C217 C216 1.380 . S
C217 C224 1.357 . S
C218 C209 1.511 . S
C218 C219 1.341 . S
C218 C220 1.371 . S
C219 C218 1.341 . S
C219 C223 1.394 . S
C219 H235 0.930 . S
C220 C218 1.371 . S
C220 C221 1.392 . S
C220 H236 0.931 . S
C221 C220 1.392 . S
C221 C222 1.331 . S
C221 H239 0.932 . S
C222 C221 1.331 . S
C222 C223 1.336 . S
C223 C219 1.394 . S
C223 C222 1.336 . S
C223 H238 0.929 . S
C224 C214 1.386 . S
C224 C217 1.357 . S
C224 H237 0.928 . S
H225 C201 0.931 . S
H226 C203 0.930 . S
H227 C205 0.929 . S
H228 C206 0.931 . S
H229 C208 0.930 . S
H230 C212 0.931 . S
H231 C210 0.931 . S
H232 C214 0.931 . S
H233 C215 0.929 . S
H234 C216 0.930 . S
H235 C219 0.930 . S
H236 C220 0.931 . S
H237 C224 0.928 . S
H238 C223 0.929 . S
H239 C221 0.932 . S
C240 C241 1.386 . S
C240 C242 1.397 . S
C240 H264 0.931 . S
C241 C240 1.386 . S
C241 C245 1.397 . S
C242 C240 1.397 . S
C242 C243 1.384 . S
C242 H265 0.930 . S
C243 C242 1.384 . S
C243 C244 1.377 . S
C243 C246 1.481 . S
C244 C243 1.377 . S
C244 C245 1.389 . S
C244 H266 0.929 . S
C245 C241 1.397 . S
C245 C244 1.389 . S
C245 H267 0.931 . S
C246 C243 1.481 . S
C246 C247 1.387 . S
C246 C251 1.390 . S
C247 C246 1.387 . S
C247 C248 1.401 . S
C247 H268 0.930 . S
C248 C247 1.401 . S
C248 C249 1.376 . S
C248 C257 1.511 . S
C249 C248 1.376 . S
C249 C250 1.392 . S
C249 H270 0.931 . S
C250 C249 1.392 . S
C250 C251 1.361 . S
C250 C252 1.500 . S
C251 C246 1.390 . S
C251 C250 1.361 . S
C251 H269 0.931 . S
C252 C250 1.500 . S
C252 C253 1.371 . S
C252 C254 1.365 . S
C253 C252 1.371 . S
C253 C263 1.386 . S
C253 H271 0.931 . S
C254 C252 1.365 . S
C254 C255 1.409 . S
C254 H272 0.929 . S
C255 C254 1.409 . S
C255 C256 1.380 . S
C255 H273 0.930 . S
C256 C255 1.380 . S
C256 C263 1.357 . S
C257 C248 1.511 . S
C257 C258 1.341 . S
C257 C259 1.371 . S
C258 C257 1.341 . S
C258 C262 1.394 . S
C258 H274 0.930 . S
C259 C257 1.371 . S
C259 C260 1.392 . S
C259 H275 0.931 . S
C260 C259 1.392 . S
C260 C261 1.331 . S
C260 H278 0.932 . S
C261 C260 1.331 . S
C261 C262 1.336 . S
C262 C258 1.394 . S
C262 C261 1.336 . S
C262 H277 0.929 . S
C263 C253 1.386 . S
C263 C256 1.357 . S
C263 H276 0.928 . S
H264 C240 0.931 . S
H265 C242 0.930 . S
H266 C244 0.929 . S
H267 C245 0.931 . S
H268 C247 0.930 . S
H269 C251 0.931 . S
H270 C249 0.931 . S
H271 C253 0.931 . S
H272 C254 0.929 . S
H273 C255 0.930 . S
H274 C258 0.930 . S
H275 C259 0.931 . S
H276 C263 0.928 . S
H277 C262 0.929 . S
H278 C260 0.932 . S
C279 C280 1.386 . S
C279 C281 1.397 . S
C279 H303 0.931 . S
C280 C279 1.386 . S
C280 C284 1.393 1_556 S
C281 C279 1.397 . S
C281 C282 1.384 . S
C281 H304 0.930 . S
C282 C281 1.384 . S
C282 C283 1.377 . S
C282 C285 1.481 . S
C283 C282 1.377 . S
C283 C284 1.387 1_556 S
C283 H305 0.929 1_556 S
C284 C280 1.393 1_554 S
C284 C283 1.387 1_554 S
C284 H306 0.937 . S
C285 C282 1.481 . S
C285 C286 1.387 . S
C285 C290 1.390 . S
C286 C285 1.387 . S
C286 C287 1.401 . S
C286 H307 0.930 . S
C287 C286 1.401 . S
C287 C288 1.376 . S
C287 C296 1.511 . S
C288 C287 1.376 . S
C288 C289 1.392 . S
C288 H309 0.931 . S
C289 C288 1.392 . S
C289 C290 1.361 . S
C289 C291 1.500 . S
C290 C285 1.390 . S
C290 C289 1.361 . S
C290 H308 0.931 . S
C291 C289 1.500 . S
C291 C292 1.371 . S
C291 C293 1.365 . S
C292 C291 1.371 . S
C292 C302 1.386 . S
C292 H310 0.931 . S
C293 C291 1.365 . S
C293 C294 1.409 1_556 S
C293 H311 0.929 1_556 S
C294 C293 1.409 1_554 S
C294 C295 1.380 1_554 S
C294 H312 0.930 . S
C295 C294 1.380 1_556 S
C295 C302 1.357 . S
C296 C287 1.511 . S
C296 C297 1.341 . S
C296 C298 1.371 . S
C297 C296 1.341 . S
C297 C301 1.394 . S
C297 H313 0.930 . S
C298 C296 1.371 . S
C298 C299 1.392 . S
C298 H314 0.931 . S
C299 C298 1.392 . S
C299 C300 1.331 . S
C299 H317 0.932 . S
C300 C299 1.331 . S
C300 C301 1.336 . S
C301 C297 1.394 . S
C301 C300 1.336 . S
C301 H316 0.929 . S
C302 C292 1.386 . S
C302 C295 1.357 . S
C302 H315 0.928 . S
H303 C279 0.931 . S
H304 C281 0.930 . S
H305 C283 0.929 1_554 S
H306 C284 0.937 . S
H307 C286 0.930 . S
H308 C290 0.931 . S
H309 C288 0.931 . S
H310 C292 0.931 . S
H311 C293 0.929 1_554 S
H312 C294 0.930 . S
H313 C297 0.930 . S
H314 C298 0.931 . S
H315 C302 0.928 . S
H316 C301 0.929 . S
H317 C299 0.932 . S
C318 C319 1.386 . S
C318 C320 1.397 . S
C318 H342 0.931 . S
C319 C318 1.386 . S
C319 C323 1.397 . S
C320 C318 1.397 . S
C320 C321 1.384 . S
C320 H343 0.930 . S
C321 C320 1.384 . S
C321 C322 1.377 . S
C321 C324 1.481 . S
C322 C321 1.377 . S
C322 C323 1.389 . S
C322 H344 0.929 . S
C323 C319 1.397 . S
C323 C322 1.389 . S
C323 H345 0.931 . S
C324 C321 1.481 . S
C324 C325 1.387 . S
C324 C329 1.390 . S
C325 C324 1.387 . S
C325 C326 1.401 . S
C325 H346 0.930 . S
C326 C325 1.401 . S
C326 C327 1.376 . S
C326 C335 1.511 . S
C327 C326 1.376 . S
C327 C328 1.392 . S
C327 H348 0.931 . S
C328 C327 1.392 . S
C328 C329 1.361 . S
C328 C330 1.500 . S
C329 C324 1.390 . S
C329 C328 1.361 . S
C329 H347 0.931 . S
C330 C328 1.500 . S
C330 C331 1.371 . S
C330 C332 1.365 . S
C331 C330 1.371 . S
C331 C341 1.386 . S
C331 H349 0.931 . S
C332 C330 1.365 . S
C332 C333 1.409 . S
C332 H350 0.929 . S
C333 C332 1.409 . S
C333 C334 1.380 . S
C333 H351 0.930 . S
C334 C333 1.380 . S
C334 C341 1.357 . S
C335 C326 1.511 . S
C335 C336 1.341 . S
C335 C337 1.371 . S
C336 C335 1.341 . S
C336 C340 1.394 . S
C336 H352 0.930 . S
C337 C335 1.371 . S
C337 C338 1.392 . S
C337 H353 0.931 . S
C338 C337 1.392 . S
C338 C339 1.331 . S
C338 H356 0.932 . S
C339 C338 1.331 . S
C339 C340 1.336 . S
C340 C336 1.394 . S
C340 C339 1.336 . S
C340 H355 0.929 . S
C341 C331 1.386 . S
C341 C334 1.357 . S
C341 H354 0.928 . S
H342 C318 0.931 . S
H343 C320 0.930 . S
H344 C322 0.929 . S
H345 C323 0.931 . S
H346 C325 0.930 . S
H347 C329 0.931 . S
H348 C327 0.931 . S
H349 C331 0.931 . S
H350 C332 0.929 . S
H351 C333 0.930 . S
H352 C336 0.930 . S
H353 C337 0.931 . S
H354 C341 0.928 . S
H355 C340 0.929 . S
H356 C338 0.932 . S
C357 C358 1.386 . S
C357 C359 1.397 . S
C357 H381 0.931 . S
C358 C357 1.386 . S
C358 C362 1.397 . S
C359 C357 1.397 . S
C359 C360 1.384 1_455 S
C359 H382 0.930 . S
C360 C359 1.384 1_655 S
C360 C361 1.377 1_655 S
C360 C363 1.481 . S
C361 C360 1.377 1_455 S
C361 C362 1.389 . S
C361 H383 0.929 1_455 S
C362 C358 1.397 . S
C362 C361 1.389 . S
C362 H384 0.931 . S
C363 C360 1.481 . S
C363 C364 1.387 . S
C363 C368 1.390 . S
C364 C363 1.387 . S
C364 C365 1.401 . S
C364 H385 0.930 . S
C365 C364 1.401 . S
C365 C366 1.376 . S
C365 C374 1.511 . S
C366 C365 1.376 . S
C366 C367 1.392 . S
C366 H387 0.931 . S
C367 C366 1.392 . S
C367 C368 1.361 . S
C367 C369 1.500 . S
C368 C363 1.390 . S
C368 C367 1.361 . S
C368 H386 0.931 . S
C369 C367 1.500 . S
C369 C370 1.371 . S
C369 C371 1.365 . S
C370 C369 1.371 . S
C370 C380 1.386 . S
C370 H388 0.931 . S
C371 C369 1.365 . S
C371 C372 1.409 . S
C371 H389 0.929 . S
C372 C371 1.409 . S
C372 C373 1.380 . S
C372 H390 0.930 . S
C373 C372 1.380 . S
C373 C380 1.357 . S
C374 C365 1.511 . S
C374 C375 1.341 . S
C374 C376 1.371 . S
C375 C374 1.341 . S
C375 C379 1.394 . S
C375 H391 0.930 . S
C376 C374 1.371 . S
C376 C377 1.392 . S
C376 H392 0.931 . S
C377 C376 1.392 . S
C377 C378 1.331 . S
C377 H395 0.932 . S
C378 C377 1.331 . S
C378 C379 1.336 . S
C379 C375 1.394 . S
C379 C378 1.336 . S
C379 H394 0.929 . S
C380 C370 1.386 . S
C380 C373 1.357 . S
C380 H393 0.928 . S
H381 C357 0.931 . S
H382 C359 0.930 . S
H383 C361 0.929 1_655 S
H384 C362 0.931 . S
H385 C364 0.930 . S
H386 C368 0.931 . S
H387 C366 0.931 . S
H388 C370 0.931 . S
H389 C371 0.929 . S
H390 C372 0.930 . S
H391 C375 0.930 . S
H392 C376 0.931 . S
H393 C380 0.928 . S
H394 C379 0.929 . S
H395 C377 0.932 . S
C396 C397 1.369 . S
C396 C398 1.419 . S
C396 H400 0.930 . S
C397 C396 1.369 . S
C397 C406 1.429 . S
C398 C396 1.419 . S
C398 C399 1.363 . S
C398 H401 0.929 . S
C399 C398 1.363 . S
C399 C405 1.428 . S
H400 C396 0.930 . S
H401 C398 0.929 . S
S402 N403 1.613 . S
S402 N404 1.610 . S
N403 S402 1.613 . S
N403 C406 1.350 . S
N404 S402 1.610 . S
N404 C405 1.351 . S
C405 C399 1.428 . S
C405 N404 1.351 . S
C405 C406 1.434 . S
C406 C397 1.429 . S
C406 N403 1.350 . S
C406 C405 1.434 . S
C407 C408 1.369 . S
C407 C409 1.419 . S
C407 H411 0.930 . S
C408 C407 1.369 . S
C408 C417 1.429 . S
C409 C407 1.419 . S
C409 C410 1.363 . S
C409 H412 0.929 . S
C410 C409 1.363 . S
C410 C416 1.428 . S
H411 C407 0.930 . S
H412 C409 0.929 . S
S413 N414 1.613 . S
S413 N415 1.610 . S
N414 S413 1.613 . S
N414 C417 1.350 . S
N415 S413 1.610 . S
N415 C416 1.351 . S
C416 C410 1.428 . S
C416 N415 1.351 . S
C416 C417 1.434 . S
C417 C408 1.429 . S
C417 N414 1.350 . S
C417 C416 1.434 . S
C418 C419 1.369 . S
C418 C420 1.419 . S
C418 H422 0.930 . S
C419 C418 1.369 . S
C419 C428 1.429 . S
C420 C418 1.419 . S
C420 C421 1.363 . S
C420 H423 0.929 1_545 S
C421 C420 1.363 . S
C421 C427 1.428 . S
H422 C418 0.930 . S
H423 C420 0.929 1_565 S
S424 N425 1.613 . S
S424 N426 1.610 . S
N425 S424 1.613 . S
N425 C428 1.350 . S
N426 S424 1.610 . S
N426 C427 1.351 . S
C427 C421 1.428 . S
C427 N426 1.351 . S
C427 C428 1.434 . S
C428 C419 1.429 . S
C428 N425 1.350 . S
C428 C427 1.434 . S
C429 C430 1.369 . S
C429 C431 1.419 . S
C429 H433 0.930 . S
C430 C429 1.369 . S
C430 C439 1.429 . S
C431 C429 1.419 . S
C431 C432 1.363 . S
C431 H434 0.929 . S
C432 C431 1.363 . S
C432 C438 1.428 . S
H433 C429 0.930 . S
H434 C431 0.929 . S
S435 N436 1.613 . S
S435 N437 1.610 . S
N436 S435 1.613 . S
N436 C439 1.350 . S
N437 S435 1.610 . S
N437 C438 1.351 . S
C438 C432 1.428 . S
C438 N437 1.351 . S
C438 C439 1.434 . S
C439 C430 1.429 . S
C439 N436 1.350 . S
C439 C438 1.434 . S
C440 C441 1.369 . S
C440 C442 1.419 . S
C440 H444 0.930 . S
C441 C440 1.369 . S
C441 C450 1.429 . S
C442 C440 1.419 . S
C442 C443 1.363 . S
C442 H445 0.929 . S
C443 C442 1.363 . S
C443 C449 1.428 . S
H444 C440 0.930 . S
H445 C442 0.929 . S
S446 N447 1.613 . S
S446 N448 1.610 . S
N447 S446 1.613 . S
N447 C450 1.350 . S
N448 S446 1.610 . S
N448 C449 1.351 . S
C449 C443 1.428 . S
C449 N448 1.351 . S
C449 C450 1.434 . S
C450 C441 1.429 . S
C450 N447 1.350 . S
C450 C449 1.434 . S
C451 C452 1.369 . S
C451 C453 1.419 . S
C451 H455 0.930 . S
C452 C451 1.369 . S
C452 C461 1.429 . S
C453 C451 1.419 . S
C453 C454 1.363 1_655 S
C453 H456 0.929 . S
C454 C453 1.363 1_455 S
C454 C460 1.418 1_556 S
H455 C451 0.930 . S
H456 C453 0.929 . S
S457 N458 1.613 1_455 S
S457 N459 1.610 . S
N458 S457 1.613 1_655 S
N458 C461 1.350 1_554 S
N459 S457 1.610 . S
N459 C460 1.362 . S
C460 C454 1.418 1_554 S
C460 N459 1.362 . S
C460 C461 1.434 1_454 S
C461 C452 1.429 . S
C461 N458 1.350 1_556 S
C461 C460 1.434 1_656 S
C462 C463 1.369 . S
C462 C464 1.419 . S
C462 H466 0.930 . S
C463 C462 1.369 . S
C463 C472 1.429 . S
C464 C462 1.419 . S
C464 C465 1.363 . S
C464 H467 0.929 . S
C465 C464 1.363 . S
C465 C471 1.428 . S
H466 C462 0.930 . S
H467 C464 0.929 . S
S468 N469 1.613 . S
S468 N470 1.610 . S
N469 S468 1.613 . S
N469 C472 1.350 . S
N470 S468 1.610 . S
N470 C471 1.351 . S
C471 C465 1.428 . S
C471 N470 1.351 . S
C471 C472 1.434 . S
C472 C463 1.429 . S
C472 N469 1.350 . S
C472 C471 1.434 . S
C473 C474 1.369 . S
C473 C475 1.419 . S
C473 H477 0.930 . S
C474 C473 1.369 . S
C474 C483 1.429 . S
C475 C473 1.419 . S
C475 C476 1.363 . S
C475 H478 0.929 . S
C476 C475 1.363 . S
C476 C482 1.428 . S
H477 C473 0.930 . S
H478 C475 0.929 . S
S479 N480 1.613 . S
S479 N481 1.610 . S
N480 S479 1.613 . S
N480 C483 1.350 . S
N481 S479 1.610 . S
N481 C482 1.351 . S
C482 C476 1.428 . S
C482 N481 1.351 . S
C482 C483 1.434 . S
C483 C474 1.429 . S
C483 N480 1.350 . S
C483 C482 1.434 . S
C484 C485 1.369 . S
C484 C486 1.419 . S
C484 H488 0.930 . S
C485 C484 1.369 . S
C485 C494 1.429 . S
C486 C484 1.419 . S
C486 C487 1.363 . S
C486 H489 0.929 . S
C487 C486 1.363 . S
C487 C493 1.428 . S
H488 C484 0.930 . S
H489 C486 0.929 . S
S490 N491 1.613 . S
S490 N492 1.610 . S
N491 S490 1.613 . S
N491 C494 1.350 . S
N492 S490 1.610 . S
N492 C493 1.351 . S
C493 C487 1.428 . S
C493 N492 1.351 . S
C493 C494 1.434 . S
C494 C485 1.429 . S
C494 N491 1.350 . S
C494 C493 1.434 . S
C495 C496 1.369 . S
C495 C497 1.419 . S
C495 H499 0.930 . S
C496 C495 1.369 . S
C496 C505 1.429 . S
C497 C495 1.419 . S
C497 C498 1.363 . S
C497 H500 0.929 . S
C498 C497 1.363 . S
C498 C504 1.428 . S
H499 C495 0.930 . S
H500 C497 0.929 . S
S501 N502 1.613 . S
S501 N503 1.610 . S
N502 S501 1.613 . S
N502 C505 1.350 . S
N503 S501 1.610 . S
N503 C504 1.351 . S
C504 C498 1.428 . S
C504 N503 1.351 . S
C504 C505 1.434 . S
C505 C496 1.429 . S
C505 N502 1.350 . S
C505 C504 1.434 . S
C506 C507 1.370 1_554 S
C506 C508 1.442 . S
C506 H510 0.930 . S
C507 C506 1.370 1_556 S
C507 C516 1.428 . S
C508 C506 1.442 . S
C508 C509 1.343 1_564 S
C508 H511 0.926 1_565 S
C509 C508 1.343 1_546 S
C509 C515 1.428 . S
H510 C506 0.930 . S
H511 C508 0.926 1_545 S
S512 N513 1.613 1_545 S
S512 N514 1.610 . S
N513 S512 1.613 1_565 S
N513 C516 1.350 . S
N514 S512 1.610 . S
N514 C515 1.351 . S
C515 C509 1.428 . S
C515 N514 1.351 . S
C515 C516 1.434 1_545 S
C516 C507 1.428 . S
C516 N513 1.350 . S
C516 C515 1.434 1_565 S
C517 C518 1.369 . S
C517 C519 1.419 . S
C517 H521 0.930 . S
C518 C517 1.369 . S
C518 C527 1.429 . S
C519 C517 1.419 . S
C519 C520 1.363 . S
C519 H522 0.929 . S
C520 C519 1.363 . S
C520 C526 1.428 . S
H521 C517 0.930 . S
H522 C519 0.929 . S
S523 N524 1.613 . S
S523 N525 1.610 . S
N524 S523 1.613 . S
N524 C527 1.350 . S
N525 S523 1.610 . S
N525 C526 1.351 . S
C526 C520 1.428 . S
C526 N525 1.351 . S
C526 C527 1.434 . S
C527 C518 1.429 . S
C527 N524 1.350 . S
C527 C526 1.434 . S
C528 C529 1.369 . S
C528 C530 1.419 . S
C528 H532 0.930 . S
C529 C528 1.369 . S
C529 C538 1.429 . S
C530 C528 1.419 . S
C530 C531 1.363 . S
C530 H533 0.929 . S
C531 C530 1.363 . S
C531 C537 1.428 . S
H532 C528 0.930 . S
H533 C530 0.929 . S
S534 N535 1.613 . S
S534 N536 1.610 . S
N535 S534 1.613 . S
N535 C538 1.350 . S
N536 S534 1.610 . S
N536 C537 1.351 . S
C537 C531 1.428 . S
C537 N536 1.351 . S
C537 C538 1.434 . S
C538 C529 1.429 . S
C538 N535 1.350 . S
C538 C537 1.434 . S
C539 C540 1.369 . S
C539 C541 1.419 1_455 S
C539 H543 0.930 . S
C540 C539 1.369 . S
C540 C549 1.429 . S
C541 C539 1.419 1_655 S
C541 C542 1.363 . S
C541 H544 0.929 . S
C542 C541 1.363 . S
C542 C548 1.428 . S
H543 C539 0.930 . S
H544 C541 0.929 . S
S545 N546 1.613 1_655 S
S545 N547 1.610 . S
N546 S545 1.613 1_455 S
N546 C549 1.350 . S
N547 S545 1.610 . S
N547 C548 1.351 . S
C548 C542 1.428 . S
C548 N547 1.351 . S
C548 C549 1.434 1_655 S
C549 C540 1.429 . S
C549 N546 1.350 . S
C549 C548 1.434 1_455 S
C550 C551 1.369 . S
C550 C552 1.419 . S
C550 H554 0.930 . S
C551 C550 1.369 . S
C551 C560 1.429 . S
C552 C550 1.419 . S
C552 C553 1.363 . S
C552 H555 0.929 . S
C553 C552 1.363 . S
C553 C559 1.428 . S
H554 C550 0.930 . S
H555 C552 0.929 . S
S556 N557 1.613 . S
S556 N558 1.610 . S
N557 S556 1.613 . S
N557 C560 1.350 . S
N558 S556 1.610 . S
N558 C559 1.351 . S
C559 C553 1.428 . S
C559 N558 1.351 . S
C559 C560 1.434 . S
C560 C551 1.429 . S
C560 N557 1.350 . S
C560 C559 1.434 . S
C561 C562 1.369 . S
C561 C563 1.419 . S
C561 H565 0.930 . S
C562 C561 1.369 . S
C562 C571 1.429 . S
C563 C561 1.419 . S
C563 C564 1.363 . S
C563 H566 0.929 1_655 S
C564 C563 1.363 . S
C564 C570 1.428 . S
H565 C561 0.930 . S
H566 C563 0.929 1_455 S
S567 N568 1.613 . S
S567 N569 1.610 . S
N568 S567 1.613 . S
N568 C571 1.350 . S
N569 S567 1.610 . S
N569 C570 1.351 . S
C570 C564 1.428 . S
C570 N569 1.351 . S
C570 C571 1.434 . S
C571 C562 1.429 . S
C571 N568 1.350 . S
C571 C570 1.434 . S
C572 C573 1.369 . S
C572 C574 1.419 . S
C572 H576 0.930 . S
C573 C572 1.369 . S
C573 C582 1.429 . S
C574 C572 1.419 . S
C574 C575 1.363 . S
C574 H577 0.929 . S
C575 C574 1.363 . S
C575 C581 1.428 . S
H576 C572 0.930 . S
H577 C574 0.929 . S
S578 N579 1.613 . S
S578 N580 1.610 . S
N579 S578 1.613 . S
N579 C582 1.350 . S
N580 S578 1.610 . S
N580 C581 1.351 . S
C581 C575 1.428 . S
C581 N580 1.351 . S
C581 C582 1.434 . S
C582 C573 1.429 . S
C582 N579 1.350 . S
C582 C581 1.434 . S
C583 C584 1.369 . S
C583 C585 1.419 . S
C583 H587 0.930 . S
C584 C583 1.369 . S
C584 C593 1.429 . S
C585 C583 1.419 . S
C585 C586 1.363 . S
C585 H588 0.929 . S
C586 C585 1.363 . S
C586 C592 1.428 . S
H587 C583 0.930 . S
H588 C585 0.929 . S
S589 N590 1.613 . S
S589 N591 1.610 . S
N590 S589 1.613 . S
N590 C593 1.350 . S
N591 S589 1.610 . S
N591 C592 1.351 . S
C592 C586 1.428 . S
C592 N591 1.351 . S
C592 C593 1.434 . S
C593 C584 1.429 . S
C593 N590 1.350 . S
C593 C592 1.434 . S
C594 C595 1.369 . S
C594 C596 1.419 . S
C594 H598 0.930 . S
C595 C594 1.369 . S
C595 C604 1.429 . S
C596 C594 1.419 . S
C596 C597 1.363 . S
C596 H599 0.929 . S
C597 C596 1.363 . S
C597 C603 1.428 . S
H598 C594 0.930 . S
H599 C596 0.929 . S
S600 N601 1.613 1_556 S
S600 N602 1.610 1_556 S
N601 S600 1.613 1_554 S
N601 C604 1.350 . S
N602 S600 1.610 1_554 S
N602 C603 1.351 . S
C603 C597 1.428 . S
C603 N602 1.351 . S
C603 C604 1.434 . S
C604 C595 1.429 . S
C604 N601 1.350 . S
C604 C603 1.434 . S
C605 C606 1.369 . S
C605 C607 1.419 . S
C605 H609 0.930 . S
C606 C605 1.369 . S
C606 C615 1.429 . S
C607 C605 1.419 . S
C607 C608 1.363 . S
C607 H610 0.929 . S
C608 C607 1.363 . S
C608 C614 1.428 . S
H609 C605 0.930 . S
H610 C607 0.929 . S
S611 N612 1.613 . S
S611 N613 1.610 . S
N612 S611 1.613 . S
N612 C615 1.350 . S
N613 S611 1.610 . S
N613 C614 1.351 . S
C614 C608 1.428 . S
C614 N613 1.351 . S
C614 C615 1.434 . S
C615 C606 1.429 . S
C615 N612 1.350 . S
C615 C614 1.434 . S
C616 C617 1.369 . S
C616 C618 1.419 . S
C616 H620 0.930 . S
C617 C616 1.369 . S
C617 C626 1.429 . S
C618 C616 1.419 . S
C618 C619 1.363 . S
C618 H621 0.929 . S
C619 C618 1.363 . S
C619 C625 1.428 . S
H620 C616 0.930 . S
H621 C618 0.929 . S
S622 N623 1.613 . S
S622 N624 1.610 . S
N623 S622 1.613 . S
N623 C626 1.350 . S
N624 S622 1.610 . S
N624 C625 1.351 . S
C625 C619 1.428 . S
C625 N624 1.351 . S
C625 C626 1.434 . S
C626 C617 1.429 . S
C626 N623 1.350 . S
C626 C625 1.434 . S
C627 C628 1.369 . S
C627 C629 1.419 . S
C627 H631 0.930 . S
C628 C627 1.369 . S
C628 C637 1.429 . S
C629 C627 1.419 . S
C629 C630 1.363 . S
C629 H632 0.929 . S
C630 C629 1.363 . S
C630 C636 1.428 . S
H631 C627 0.930 . S
H632 C629 0.929 . S
S633 N634 1.613 . S
S633 N635 1.610 . S
N634 S633 1.613 . S
N634 C637 1.350 . S
N635 S633 1.610 . S
N635 C636 1.351 . S
C636 C630 1.428 . S
C636 N635 1.351 . S
C636 C637 1.434 . S
C637 C628 1.429 . S
C637 N634 1.350 . S
C637 C636 1.434 . S
C638 C639 1.369 . S
C638 C640 1.419 . S
C638 H642 0.930 . S
C639 C638 1.369 . S
C639 C648 1.429 . S
C640 C638 1.419 . S
C640 C641 1.363 . S
C640 H643 0.929 . S
C641 C640 1.363 . S
C641 C647 1.428 . S
H642 C638 0.930 . S
H643 C640 0.929 . S
S644 N645 1.613 . S
S644 N646 1.610 . S
N645 S644 1.613 . S
N645 C648 1.350 . S
N646 S644 1.610 . S
N646 C647 1.351 . S
C647 C641 1.428 . S
C647 N646 1.351 . S
C647 C648 1.434 . S
C648 C639 1.429 . S
C648 N645 1.350 . S
C648 C647 1.434 . S
C649 C650 1.369 . S
C649 C651 1.419 . S
C649 H653 0.930 . S
C650 C649 1.369 . S
C650 C659 1.429 1_554 S
C651 C649 1.419 . S
C651 C652 1.363 1_554 S
C651 H654 0.929 . S
C652 C651 1.363 1_556 S
C652 C658 1.428 . S
H653 C649 0.930 . S
H654 C651 0.929 . S
S655 N656 1.613 . S
S655 N657 1.610 . S
N656 S655 1.613 . S
N656 C659 1.350 . S
N657 S655 1.610 . S
N657 C658 1.351 . S
C658 C652 1.428 . S
C658 N657 1.351 . S
C658 C659 1.434 . S
C659 C650 1.429 1_556 S
C659 N656 1.350 . S
C659 C658 1.434 . S
C397 C7 1.021 . S
C399 C100 1.085 . S
C408 C25 1.237 . S
C410 C139 1.280 . S
C419 C46 1.451 . S
C421 C178 1.350 1_545 S
C432 C202 1.197 . S
C430 C70 1.285 . S
C443 C241 1.080 . S
C441 C28 0.991 . S
C452 C49 1.293 . S
C454 C280 1.196 . S
C463 C67 1.438 . S
C465 C334 1.341 . S
C474 C4 1.243 . S
C476 C358 1.278 . S
C485 C58 1.711 . S
C487 C373 1.863 1_545 S
C498 C256 1.704 . S
C496 C66 1.625 . S
C509 C295 2.009 . S
C507 C3 2.078 . S
C518 C37 1.836 . S
C520 C319 1.871 . S
C531 C124 1.863 . S
C529 C79 1.720 . S
C540 C16 1.841 . S
C542 C163 1.870 . S
C553 C217 2.002 . S
C551 C24 2.072 . S
C564 C85 1.713 . S
C562 C45 1.626 . S
C575 C339 1.638 . S
C573 C19 1.319 . S
C586 C378 1.432 . S
C584 C41 1.388 . S
C595 C62 1.236 . S
C597 C261 1.267 . S
C608 C300 1.473 . S
C606 C82 1.224 . S
C619 C183 1.644 . S
C617 C40 1.329 . S
C628 C61 1.214 . S
C630 C222 1.461 . S
C641 C105 1.262 . S
C639 C83 1.242 . S
C652 C144 1.424 . S
C650 C20 1.379 1_554 S
