# Generated by pormake.
# Topology llk, (3,12)-cn, num edge types: 1
# Building blocks:
#     Node 0, Type 0, BuildingBlock: MIDCAF_clean_linker_0, # of connection points: 3
#     Node 1, Type 0, BuildingBlock: MIDCAF_clean_linker_0, # of connection points: 3
#     Node 2, Type 0, BuildingBlock: MIDCAF_clean_linker_0, # of connection points: 3
#     Node 3, Type 0, BuildingBlock: MIDCAF_clean_linker_0, # of connection points: 3
#     Node 4, Type 0, BuildingBlock: MIDCAF_clean_linker_0, # of connection points: 3
#     Node 5, Type 0, BuildingBlock: MIDCAF_clean_linker_0, # of connection points: 3
#     Node 6, Type 0, BuildingBlock: MIDCAF_clean_linker_0, # of connection points: 3
#     Node 7, Type 0, BuildingBlock: MIDCAF_clean_linker_0, # of connection points: 3
#     Node 8, Type 0, BuildingBlock: MIDCAF_clean_linker_0, # of connection points: 3
#     Node 9, Type 0, BuildingBlock: MIDCAF_clean_linker_0, # of connection points: 3
#     Node 10, Type 0, BuildingBlock: MIDCAF_clean_linker_0, # of connection points: 3
#     Node 11, Type 0, BuildingBlock: MIDCAF_clean_linker_0, # of connection points: 3
#     Node 12, Type 0, BuildingBlock: MIDCAF_clean_linker_0, # of connection points: 3
#     Node 13, Type 0, BuildingBlock: MIDCAF_clean_linker_0, # of connection points: 3
#     Node 14, Type 0, BuildingBlock: MIDCAF_clean_linker_0, # of connection points: 3
#     Node 15, Type 0, BuildingBlock: MIDCAF_clean_linker_0, # of connection points: 3
#     Node 16, Type 0, BuildingBlock: MIDCAF_clean_linker_0, # of connection points: 3
#     Node 17, Type 0, BuildingBlock: MIDCAF_clean_linker_0, # of connection points: 3
#     Node 18, Type 0, BuildingBlock: MIDCAF_clean_linker_0, # of connection points: 3
#     Node 19, Type 0, BuildingBlock: MIDCAF_clean_linker_0, # of connection points: 3
#     Node 20, Type 0, BuildingBlock: MIDCAF_clean_linker_0, # of connection points: 3
#     Node 21, Type 0, BuildingBlock: MIDCAF_clean_linker_0, # of connection points: 3
#     Node 22, Type 0, BuildingBlock: MIDCAF_clean_linker_0, # of connection points: 3
#     Node 23, Type 0, BuildingBlock: MIDCAF_clean_linker_0, # of connection points: 3
#     Node 24, Type 1, BuildingBlock: EZIPEK_clean_sbu_0, # of connection points: 12
#     Node 25, Type 1, BuildingBlock: EZIPEK_clean_sbu_0, # of connection points: 12
#     Node 26, Type 1, BuildingBlock: EZIPEK_clean_sbu_0, # of connection points: 12
#     Node 27, Type 1, BuildingBlock: EZIPEK_clean_sbu_0, # of connection points: 12
#     Node 28, Type 1, BuildingBlock: EZIPEK_clean_sbu_0, # of connection points: 12
#     Node 29, Type 1, BuildingBlock: EZIPEK_clean_sbu_0, # of connection points: 12
#     Edge 30, Type (0, 1), BuildingBlock: UVAHIK_clean_linker_0, # of connection points: 2
#     Edge 31, Type (0, 1), BuildingBlock: UVAHIK_clean_linker_0, # of connection points: 2
#     Edge 32, Type (0, 1), BuildingBlock: UVAHIK_clean_linker_0, # of connection points: 2
#     Edge 33, Type (0, 1), BuildingBlock: UVAHIK_clean_linker_0, # of connection points: 2
#     Edge 34, Type (0, 1), BuildingBlock: UVAHIK_clean_linker_0, # of connection points: 2
#     Edge 35, Type (0, 1), BuildingBlock: UVAHIK_clean_linker_0, # of connection points: 2
#     Edge 36, Type (0, 1), BuildingBlock: UVAHIK_clean_linker_0, # of connection points: 2
#     Edge 37, Type (0, 1), BuildingBlock: UVAHIK_clean_linker_0, # of connection points: 2
#     Edge 38, Type (0, 1), BuildingBlock: UVAHIK_clean_linker_0, # of connection points: 2
#     Edge 39, Type (0, 1), BuildingBlock: UVAHIK_clean_linker_0, # of connection points: 2
#     Edge 40, Type (0, 1), BuildingBlock: UVAHIK_clean_linker_0, # of connection points: 2
#     Edge 41, Type (0, 1), BuildingBlock: UVAHIK_clean_linker_0, # of connection points: 2
#     Edge 42, Type (0, 1), BuildingBlock: UVAHIK_clean_linker_0, # of connection points: 2
#     Edge 43, Type (0, 1), BuildingBlock: UVAHIK_clean_linker_0, # of connection points: 2
#     Edge 44, Type (0, 1), BuildingBlock: UVAHIK_clean_linker_0, # of connection points: 2
#     Edge 45, Type (0, 1), BuildingBlock: UVAHIK_clean_linker_0, # of connection points: 2
#     Edge 46, Type (0, 1), BuildingBlock: UVAHIK_clean_linker_0, # of connection points: 2
#     Edge 47, Type (0, 1), BuildingBlock: UVAHIK_clean_linker_0, # of connection points: 2
#     Edge 48, Type (0, 1), BuildingBlock: UVAHIK_clean_linker_0, # of connection points: 2
#     Edge 49, Type (0, 1), BuildingBlock: UVAHIK_clean_linker_0, # of connection points: 2
#     Edge 50, Type (0, 1), BuildingBlock: UVAHIK_clean_linker_0, # of connection points: 2
#     Edge 51, Type (0, 1), BuildingBlock: UVAHIK_clean_linker_0, # of connection points: 2
#     Edge 52, Type (0, 1), BuildingBlock: UVAHIK_clean_linker_0, # of connection points: 2
#     Edge 53, Type (0, 1), BuildingBlock: UVAHIK_clean_linker_0, # of connection points: 2
#     Edge 54, Type (0, 1), BuildingBlock: UVAHIK_clean_linker_0, # of connection points: 2
#     Edge 55, Type (0, 1), BuildingBlock: UVAHIK_clean_linker_0, # of connection points: 2
#     Edge 56, Type (0, 1), BuildingBlock: UVAHIK_clean_linker_0, # of connection points: 2
#     Edge 57, Type (0, 1), BuildingBlock: UVAHIK_clean_linker_0, # of connection points: 2
#     Edge 58, Type (0, 1), BuildingBlock: UVAHIK_clean_linker_0, # of connection points: 2
#     Edge 59, Type (0, 1), BuildingBlock: UVAHIK_clean_linker_0, # of connection points: 2
#     Edge 60, Type (0, 1), BuildingBlock: UVAHIK_clean_linker_0, # of connection points: 2
#     Edge 61, Type (0, 1), BuildingBlock: UVAHIK_clean_linker_0, # of connection points: 2
#     Edge 62, Type (0, 1), BuildingBlock: UVAHIK_clean_linker_0, # of connection points: 2
#     Edge 63, Type (0, 1), BuildingBlock: UVAHIK_clean_linker_0, # of connection points: 2
#     Edge 64, Type (0, 1), BuildingBlock: UVAHIK_clean_linker_0, # of connection points: 2
#     Edge 65, Type (0, 1), BuildingBlock: UVAHIK_clean_linker_0, # of connection points: 2
#     Edge 66, Type (0, 1), BuildingBlock: UVAHIK_clean_linker_0, # of connection points: 2
#     Edge 67, Type (0, 1), BuildingBlock: UVAHIK_clean_linker_0, # of connection points: 2
#     Edge 68, Type (0, 1), BuildingBlock: UVAHIK_clean_linker_0, # of connection points: 2
#     Edge 69, Type (0, 1), BuildingBlock: UVAHIK_clean_linker_0, # of connection points: 2
#     Edge 70, Type (0, 1), BuildingBlock: UVAHIK_clean_linker_0, # of connection points: 2
#     Edge 71, Type (0, 1), BuildingBlock: UVAHIK_clean_linker_0, # of connection points: 2
#     Edge 72, Type (0, 1), BuildingBlock: UVAHIK_clean_linker_0, # of connection points: 2
#     Edge 73, Type (0, 1), BuildingBlock: UVAHIK_clean_linker_0, # of connection points: 2
#     Edge 74, Type (0, 1), BuildingBlock: UVAHIK_clean_linker_0, # of connection points: 2
#     Edge 75, Type (0, 1), BuildingBlock: UVAHIK_clean_linker_0, # of connection points: 2
#     Edge 76, Type (0, 1), BuildingBlock: UVAHIK_clean_linker_0, # of connection points: 2
#     Edge 77, Type (0, 1), BuildingBlock: UVAHIK_clean_linker_0, # of connection points: 2
#     Edge 78, Type (0, 1), BuildingBlock: UVAHIK_clean_linker_0, # of connection points: 2
#     Edge 79, Type (0, 1), BuildingBlock: UVAHIK_clean_linker_0, # of connection points: 2
#     Edge 80, Type (0, 1), BuildingBlock: UVAHIK_clean_linker_0, # of connection points: 2
#     Edge 81, Type (0, 1), BuildingBlock: UVAHIK_clean_linker_0, # of connection points: 2
#     Edge 82, Type (0, 1), BuildingBlock: UVAHIK_clean_linker_0, # of connection points: 2
#     Edge 83, Type (0, 1), BuildingBlock: UVAHIK_clean_linker_0, # of connection points: 2
#     Edge 84, Type (0, 1), BuildingBlock: UVAHIK_clean_linker_0, # of connection points: 2
#     Edge 85, Type (0, 1), BuildingBlock: UVAHIK_clean_linker_0, # of connection points: 2
#     Edge 86, Type (0, 1), BuildingBlock: UVAHIK_clean_linker_0, # of connection points: 2
#     Edge 87, Type (0, 1), BuildingBlock: UVAHIK_clean_linker_0, # of connection points: 2
#     Edge 88, Type (0, 1), BuildingBlock: UVAHIK_clean_linker_0, # of connection points: 2
#     Edge 89, Type (0, 1), BuildingBlock: UVAHIK_clean_linker_0, # of connection points: 2
#     Edge 90, Type (0, 1), BuildingBlock: UVAHIK_clean_linker_0, # of connection points: 2
#     Edge 91, Type (0, 1), BuildingBlock: UVAHIK_clean_linker_0, # of connection points: 2
#     Edge 92, Type (0, 1), BuildingBlock: UVAHIK_clean_linker_0, # of connection points: 2
#     Edge 93, Type (0, 1), BuildingBlock: UVAHIK_clean_linker_0, # of connection points: 2
#     Edge 94, Type (0, 1), BuildingBlock: UVAHIK_clean_linker_0, # of connection points: 2
#     Edge 95, Type (0, 1), BuildingBlock: UVAHIK_clean_linker_0, # of connection points: 2
#     Edge 96, Type (0, 1), BuildingBlock: UVAHIK_clean_linker_0, # of connection points: 2
#     Edge 97, Type (0, 1), BuildingBlock: UVAHIK_clean_linker_0, # of connection points: 2
#     Edge 98, Type (0, 1), BuildingBlock: UVAHIK_clean_linker_0, # of connection points: 2
#     Edge 99, Type (0, 1), BuildingBlock: UVAHIK_clean_linker_0, # of connection points: 2
#     Edge 100, Type (0, 1), BuildingBlock: UVAHIK_clean_linker_0, # of connection points: 2
#     Edge 101, Type (0, 1), BuildingBlock: UVAHIK_clean_linker_0, # of connection points: 2
# Relax obj value: 0.107
# Max RMSD: 0.161
# Mean RMSD: 0.134
data_MOF--net-llk--node1-EZIPEK_clean_sbu_0--node2-MIDCAF_clean_linker_0--edge1-UVAHIK_clean_linker_0
_symmetry_space_group_name_H-M    P1
_symmetry_Int_Tables_number       1
_symmetry_cell_setting            triclinic
loop_
_symmetry_equiv_pos_as_xyz
'x, y, z'
_cell_length_a     68.496598
_cell_length_b     68.505749
_cell_length_c     68.466509
_cell_angle_alpha  90.049457
_cell_angle_beta   90.0152
_cell_angle_gamma 89.999497
loop_
_atom_site_label
_atom_site_type_symbol
_atom_site_fract_x
_atom_site_fract_y
_atom_site_fract_z
_atom_type_partial_charge
C0 C 0.01751 0.28161 0.18749 0.0
C1 C 1.00031 0.28821 0.17831 0.0
C2 C 0.98239 0.27995 0.18406 0.0
C3 C 0.98147 0.26707 0.19987 0.0
H4 H 0.98312 0.19736 0.25046 0.0
H5 H 0.98613 0.16898 0.27212 0.0
H6 H 0.03478 0.19667 0.30126 0.0
H7 H 0.03169 0.2247 0.27962 0.0
H8 H 0.99165 0.26076 0.3026 0.0
H9 H 0.98573 0.28624 0.32645 0.0
H10 H 0.96847 0.32562 0.28028 0.0
H11 H 0.97491 0.30022 0.25621 0.0
H12 H 0.02983 0.26506 0.21111 0.0
H13 H 0.03157 0.2877 0.1836 0.0
H14 H 0.96889 0.28427 0.17706 0.0
H15 H 0.9673 0.26235 0.20509 0.0
N16 N 0.00247 0.23685 0.23616 0.0
N17 N 0.99539 0.24566 0.26865 0.0
N18 N 0.99034 0.26817 0.24364 0.0
C19 C 0.00161 0.2322 0.25553 0.0
C20 C 0.98964 0.26363 0.26285 0.0
C21 C 0.99671 0.25502 0.23027 0.0
C22 C 0.0074 0.21299 0.26321 0.0
C23 C 0.99498 0.19687 0.26091 0.0
C24 C 0.99653 0.18081 0.27354 0.0
C25 C 0.01056 0.18063 0.2886 0.0
C26 C 0.02393 0.19617 0.28976 0.0
C27 C 0.02225 0.21222 0.2773 0.0
C28 C 0.98398 0.27849 0.27744 0.0
C29 C 0.98639 0.27476 0.29748 0.0
C30 C 0.98285 0.28936 0.31122 0.0
C31 C 0.97671 0.30799 0.30526 0.0
C32 C 0.97349 0.31149 0.28529 0.0
C33 C 0.97712 0.2969 0.27152 0.0
C34 C 0.99847 0.26177 0.20997 0.0
C35 C 0.01658 0.2685 0.20318 0.0
C36 C 0.72703 0.01001 0.18115 0.0
C37 C 0.71525 0.99353 0.17755 0.0
C38 C 0.71847 0.97659 0.18866 0.0
C39 C 0.73162 0.97674 0.20425 0.0
H40 H 0.78613 0.03663 0.26883 0.0
H41 H 0.81363 0.03948 0.29131 0.0
H42 H 0.83145 0.98079 0.27665 0.0
H43 H 0.80405 0.97826 0.2538 0.0
H44 H 0.74455 0.00677 0.30102 0.0
H45 H 0.71962 0.00564 0.32624 0.0
H46 H 0.67855 0.9818 0.28465 0.0
H47 H 0.7033 0.98337 0.25923 0.0
H48 H 0.74784 0.02355 0.20043 0.0
H49 H 0.7249 0.02333 0.17291 0.0
H50 H 0.70998 0.96351 0.18603 0.0
H51 H 0.7325 0.96401 0.2136 0.0
N52 N 0.7681 1.00057 0.23369 0.0
N53 N 0.75943 0.00136 0.267 0.0
N54 N 0.73582 0.99403 0.24363 0.0
C55 C 0.77315 0.00315 0.25285 0.0
C56 C 0.74077 0.99677 0.26254 0.0
C57 C 0.7492 0.99596 0.22917 0.0
C58 C 0.7932 0.00737 0.25935 0.0
C59 C 0.79653 0.02474 0.2697 0.0
C60 C 0.81208 0.0262 0.28285 0.0
C61 C 0.8245 0.01019 0.28617 0.0
C62 C 0.82222 0.99343 0.27444 0.0
C63 C 0.80665 0.99202 0.26118 0.0
C64 C 0.7259 0.99525 0.27807 0.0
C65 C 0.73024 1.0012 0.29723 0.0
C66 C 0.71598 1.00046 0.31174 0.0
C67 C 0.69712 0.99367 0.30742 0.0
C68 C 0.69287 0.9874 0.28834 0.0
C69 C 0.7071 0.98822 0.2738 0.0
C70 C 0.74206 0.99373 0.20897 0.0
C71 C 0.74033 0.01012 0.19679 0.0
C72 C 0.97999 0.71596 0.19239 0.0
C73 C 0.99445 0.71698 0.17785 0.0
C74 C 0.0087 0.73179 0.17923 0.0
C75 C 0.00939 0.74416 0.19558 0.0
H76 H 0.03982 0.79019 0.26962 0.0
H77 H 0.03969 0.81807 0.29176 0.0
H78 H 0.97918 0.82884 0.27768 0.0
H79 H 0.97957 0.80099 0.25512 0.0
H80 H 0.02338 0.74464 0.29986 0.0
H81 H 0.02687 0.71981 0.32502 0.0
H82 H 0.00357 0.67648 0.28546 0.0
H83 H 1.00051 0.7011 0.26014 0.0
H84 H 0.97046 0.72585 0.22047 0.0
H85 H 0.96892 0.70469 0.19199 0.0
H86 H 0.01991 0.73315 0.16816 0.0
H87 H 0.02142 0.75432 0.19707 0.0
N88 N 0.00287 0.76815 0.23523 0.0
N89 N 0.01113 0.75911 0.26739 0.0
N90 N 0.0035 0.73506 0.24457 0.0
C91 C 0.00812 0.77321 0.25384 0.0
C92 C 0.00882 0.74004 0.26292 0.0
C93 C 1.00065 0.74883 0.23066 0.0
C94 C 0.00977 0.7936 0.26054 0.0
C95 C 0.02677 0.79909 0.27058 0.0
C96 C 0.02658 0.81486 0.28351 0.0
C97 C 0.00929 0.82538 0.28688 0.0
C98 C 0.99275 0.82105 0.27542 0.0
C99 C 0.99299 0.80523 0.26234 0.0
C100 C 0.01159 0.72489 0.27799 0.0
C101 C 0.01908 0.7298 0.29648 0.0
C102 C 0.02102 0.7156 0.31093 0.0
C103 C 0.01545 0.69621 0.30723 0.0
C104 C 0.00825 0.69124 0.28867 0.0
C105 C 0.00639 0.70541 0.27419 0.0
C106 C 0.99592 0.74184 0.21084 0.0
C107 C 0.98081 0.72816 0.20872 0.0
C108 C 0.27431 0.99358 0.18126 0.0
C109 C 0.286 0.01012 0.1777 0.0
C110 C 0.28278 0.02701 0.18893 0.0
C111 C 0.26974 0.02672 0.20461 0.0
H112 H 0.2165 0.96692 0.27085 0.0
H113 H 0.18879 0.9644 0.29308 0.0
H114 H 0.17012 0.0222 0.27619 0.0
H115 H 0.19774 0.02438 0.25355 0.0
H116 H 0.2585 0.9956 0.30122 0.0
H117 H 0.28382 0.99657 0.32607 0.0
H118 H 0.32428 0.02048 0.28398 0.0
H119 H 0.29913 0.01908 0.25893 0.0
H120 H 0.25373 0.97985 0.20061 0.0
H121 H 0.27645 0.98031 0.17293 0.0
H122 H 0.29121 0.04013 0.18633 0.0
H123 H 0.2689 0.0394 0.21406 0.0
N124 N 0.23377 0.00271 0.23434 0.0
N125 N 0.24303 0.00134 0.26747 0.0
N126 N 0.26627 0.00886 0.24382 0.0
C127 C 0.22904 0.99986 0.25355 0.0
C128 C 0.26163 0.00588 0.26277 0.0
C129 C 0.25262 0.00723 0.22957 0.0
C130 C 0.20905 0.99571 0.26029 0.0
C131 C 0.2059 0.97867 0.27121 0.0
C132 C 0.19023 0.9774 0.2842 0.0
C133 C 0.17749 0.99329 0.2868 0.0
C134 C 0.17962 0.00967 0.27454 0.0
C135 C 0.19532 0.01087 0.26141 0.0
C136 C 0.27679 0.00718 0.27805 0.0
C137 C 0.27275 1.00114 0.29725 0.0
C138 C 0.28725 0.00179 0.31153 0.0
C139 C 0.30605 0.00858 0.30697 0.0
C140 C 0.31001 0.01489 0.28786 0.0
C141 C 0.29555 0.01416 0.27354 0.0
C142 C 0.25943 0.00966 0.2093 0.0
C143 C 0.26113 0.99334 0.19699 0.0
C144 C 0.02297 0.71753 0.81041 0.0
C145 C 0.00827 0.7171 0.82474 0.0
C146 C 0.99293 0.73077 0.82346 0.0
C147 C 0.99148 0.74336 0.80735 0.0
H148 H 0.96118 0.78971 0.73212 0.0
H149 H 0.96172 0.81734 0.70974 0.0
H150 H 0.02198 0.82823 0.72474 0.0
H151 H 0.0212 0.80059 0.74754 0.0
H152 H 0.97572 0.74334 0.70389 0.0
H153 H 0.97233 0.71808 0.67911 0.0
H154 H 0.99581 0.67552 0.71932 0.0
H155 H 0.99876 0.70057 0.74426 0.0
H156 H 0.03202 0.72866 0.78263 0.0
H157 H 0.03489 0.70714 0.81075 0.0
H158 H 0.98149 0.73102 0.83437 0.0
H159 H 0.97867 0.75251 0.80586 0.0
N160 N 0.99815 0.76824 0.76744 0.0
N161 N 0.98877 0.75849 0.73579 0.0
N162 N 0.99647 0.73492 0.75904 0.0
C163 C 0.99246 0.77291 0.74887 0.0
C164 C 0.99079 0.7395 0.74071 0.0
C165 C 1.00001 0.74901 0.77248 0.0
C166 C 0.99109 0.79315 0.74166 0.0
C167 C 0.97427 0.79855 0.73127 0.0
C168 C 0.97469 0.81419 0.71822 0.0
C169 C 0.99204 0.82468 0.71506 0.0
C170 C 0.00839 0.82044 0.72682 0.0
C171 C 0.00792 0.80474 0.74003 0.0
C172 C 0.98763 0.72401 0.72603 0.0
C173 C 0.98004 0.72857 0.70751 0.0
C174 C 0.97816 0.71412 0.69327 0.0
C175 C 0.9839 0.69484 0.69723 0.0
C176 C 0.99103 0.69019 0.7159 0.0
C177 C 0.99282 0.7046 0.73016 0.0
C178 C 0.00531 0.74245 0.79226 0.0
C179 C 0.02143 0.72996 0.79432 0.0
C180 C 0.17925 0.99488 0.72842 0.0
C181 C 0.17615 0.01144 0.71661 0.0
C182 C 0.18767 0.02811 0.71991 0.0
C183 C 0.20319 0.02756 0.73314 0.0
H184 H 0.26736 0.96742 0.78844 0.0
H185 H 0.2898 0.96547 0.81605 0.0
H186 H 0.27526 0.02474 0.83194 0.0
H187 H 0.25242 0.02638 0.80443 0.0
H188 H 0.29879 0.99335 0.74515 0.0
H189 H 0.3238 0.99315 0.71997 0.0
H190 H 0.2824 0.01661 0.67853 0.0
H191 H 0.2572 0.01638 0.70353 0.0
H192 H 0.19808 0.98085 0.74927 0.0
H193 H 0.1707 0.98177 0.72622 0.0
H194 H 0.18543 0.04124 0.7114 0.0
H195 H 0.2129 0.04002 0.73404 0.0
N196 N 0.23222 0.00372 0.76953 0.0
N197 N 0.26524 1.00072 0.76032 0.0
N198 N 0.24182 0.00802 0.73676 0.0
C199 C 0.25131 1.00037 0.77437 0.0
C200 C 0.26065 0.00457 0.74152 0.0
C201 C 0.22757 0.00753 0.75048 0.0
C202 C 0.25797 0.99693 0.79452 0.0
C203 C 0.26826 0.97966 0.79844 0.0
C204 C 0.28138 0.9787 0.81404 0.0
C205 C 0.28471 0.99511 0.82594 0.0
C206 C 0.27303 0.01182 0.82311 0.0
C207 C 0.25979 0.01272 0.80748 0.0
C208 C 0.27597 0.00484 0.72636 0.0
C209 C 0.295 0.99851 0.73069 0.0
C210 C 0.30938 0.99848 0.71628 0.0
C211 C 0.30506 0.00486 0.69728 0.0
C212 C 0.28609 0.01133 0.69297 0.0
C213 C 0.27167 0.01128 0.70735 0.0
C214 C 0.20741 0.01045 0.74358 0.0
C215 C 0.19481 0.99439 0.74178 0.0
C216 C 0.97758 0.28847 0.8104 0.0
C217 C 0.99208 0.28765 0.82491 0.0
C218 C 0.00626 0.27276 0.82379 0.0
C219 C 0.00678 0.26001 0.80773 0.0
H220 H 0.96673 0.21 0.74084 0.0
H221 H 0.96407 0.18196 0.71872 0.0
H222 H 0.02677 0.1755 0.71965 0.0
H223 H 0.02927 0.20353 0.74161 0.0
H224 H 0.00483 0.25663 0.70098 0.0
H225 H 0.00867 0.28154 0.67603 0.0
H226 H 0.02232 0.32412 0.72064 0.0
H227 H 0.01781 0.29935 0.74567 0.0
H228 H 0.96782 0.27794 0.7826 0.0
H229 H 0.96658 0.29982 0.81059 0.0
H230 H 0.01751 0.27156 0.83484 0.0
H231 H 0.01872 0.24972 0.80642 0.0
N232 N 0.99625 0.23483 0.76841 0.0
N233 N 0.00526 0.2423 0.73604 0.0
N234 N 0.00255 0.26729 0.75902 0.0
C235 C 1.00026 0.22894 0.74976 0.0
C236 C 0.00648 0.26148 0.74056 0.0
C237 C 0.99754 0.25421 0.77298 0.0
C238 C 0.99817 0.20858 0.74323 0.0
C239 C 0.9798 0.20194 0.73705 0.0
C240 C 0.97834 0.18611 0.72414 0.0
C241 C 0.99523 0.17664 0.71725 0.0
C242 C 0.01347 0.18234 0.72478 0.0
C243 C 0.01492 0.19829 0.73749 0.0
C244 C 0.01081 0.27606 0.72532 0.0
C245 C 0.00885 0.27125 0.70546 0.0
C246 C 0.01115 0.28553 0.69113 0.0
C247 C 0.01566 0.30486 0.69635 0.0
C248 C 0.01844 0.30945 0.71616 0.0
C249 C 0.01594 0.29523 0.7305 0.0
C250 C 0.99316 0.26198 0.79256 0.0
C251 C 0.97821 0.27586 0.79436 0.0
C252 C 0.80878 0.02375 0.7157 0.0
C253 C 0.82295 0.00889 0.71507 0.0
C254 C 0.82165 0.9935 0.72866 0.0
C255 C 0.80573 0.99221 0.74146 0.0
H256 H 0.73937 0.03373 0.79117 0.0
H257 H 0.71737 0.03786 0.81915 0.0
H258 H 0.71665 0.97539 0.82753 0.0
H259 H 0.73842 0.97143 0.79954 0.0
H260 H 0.69992 0.99084 0.74543 0.0
H261 H 0.6755 0.9859 0.7202 0.0
H262 H 0.72106 0.97277 0.67851 0.0
H263 H 0.74559 0.9784 0.70362 0.0
H264 H 0.78131 0.03314 0.7274 0.0
H265 H 0.80915 0.03569 0.70536 0.0
H266 H 0.83243 0.98193 0.72873 0.0
H267 H 0.80425 0.97944 0.75066 0.0
N268 N 0.76633 0.00388 0.76764 0.0
N269 N 0.73461 0.9929 0.76013 0.0
N270 N 0.75797 0.9951 0.73544 0.0
C271 C 0.74779 0.99934 0.77343 0.0
C272 C 0.73957 0.99074 0.74112 0.0
C273 C 0.77139 0.00152 0.74849 0.0
C274 C 0.74085 0.0023 0.79353 0.0
C275 C 0.73519 0.02103 0.7996 0.0
C276 C 0.72237 0.02333 0.8154 0.0
C277 C 0.71512 0.00693 0.82544 0.0
C278 C 0.72209 0.98833 0.82025 0.0
C279 C 0.73465 0.98604 0.80431 0.0
C280 C 0.72472 0.98526 0.72647 0.0
C281 C 0.70475 0.98665 0.73095 0.0
C282 C 0.69071 0.98371 0.71649 0.0
C283 C 0.69633 0.9791 0.69728 0.0
C284 C 0.71627 0.97671 0.69307 0.0
C285 C 0.73032 0.97985 0.70748 0.0
C286 C 0.7909 0.00632 0.74095 0.0
C287 C 0.79287 0.02238 0.72841 0.0
C288 C 0.18775 0.28417 0.98095 0.0
C289 C 0.17503 0.28537 0.99702 0.0
C290 C 0.178 0.27259 0.01288 0.0
C291 C 0.19421 0.26004 0.01327 0.0
H292 H 0.25152 0.20064 0.97896 0.0
H293 H 0.27336 0.17224 0.97851 0.0
H294 H 0.29084 0.1851 0.03778 0.0
H295 H 0.26902 0.21313 0.0381 0.0
H296 H 0.30019 0.25727 0.00275 0.0
H297 H 0.32527 0.28235 0.00297 0.0
H298 H 0.28096 0.32662 0.01083 0.0
H299 H 0.25579 0.30159 0.00991 0.0
H300 H 0.21441 0.27245 0.96958 0.0
H301 H 0.1861 0.29388 0.96859 0.0
H302 H 0.16835 0.27297 0.0254 0.0
H303 H 0.19705 0.25153 0.0263 0.0
N304 N 0.23261 0.23408 0.00338 0.0
N305 N 0.26547 0.24327 0.00778 0.0
N306 N 0.24193 0.26717 0.00213 0.0
C307 C 0.25166 0.22914 0.00675 0.0
C308 C 0.26075 0.26228 0.00547 0.0
C309 C 0.22783 0.25333 1.00112 0.0
C310 C 0.25839 0.20882 0.00867 0.0
C311 C 0.25933 0.19674 0.99215 0.0
C312 C 0.27211 0.18072 0.99181 0.0
C313 C 0.28409 0.17653 0.00802 0.0
C314 C 0.28177 0.18772 0.02509 0.0
C315 C 0.26917 0.20375 0.02535 0.0
C316 C 0.276 0.27745 0.00625 0.0
C317 C 0.29579 0.27235 0.00459 0.0
C318 C 0.31019 0.28672 0.00482 0.0
C319 C 0.30512 0.30649 0.00692 0.0
C320 C 0.28533 0.31156 0.00885 0.0
C321 C 0.27091 0.2972 0.00842 0.0
C322 C 0.2077 0.26014 0.99786 0.0
C323 C 0.20395 0.2718 0.98144 0.0
C324 C 0.18331 0.7232 0.01203 0.0
C325 C 0.17803 0.71555 0.9937 0.0
C326 C 0.18789 0.72227 0.97698 0.0
C327 C 0.20365 0.73519 0.97872 0.0
H328 H 0.25239 0.8042 0.02112 0.0
H329 H 0.27395 0.83274 0.01947 0.0
H330 H 0.29712 0.81169 0.96466 0.0
H331 H 0.27548 0.7835 0.96639 0.0
H332 H 0.30041 0.74568 0.01807 0.0
H333 H 0.32549 0.72104 0.02307 0.0
H334 H 0.28357 0.67574 0.00984 0.0
H335 H 0.25836 0.70028 0.0055 0.0
H336 H 0.20407 0.7402 0.0282 0.0
H337 H 0.17616 0.71818 0.02521 0.0
H338 H 0.18406 0.71676 0.96265 0.0
H339 H 0.21199 0.73892 0.9658 0.0
N340 N 0.23555 0.76719 0.99593 0.0
N341 N 0.26807 0.75854 0.00303 0.0
N342 N 0.24355 0.73498 0.00495 0.0
C343 C 0.25476 0.7722 0.99777 0.0
C344 C 0.2626 0.73992 0.00668 0.0
C345 C 0.23 0.74841 0.99969 0.0
C346 C 0.26205 0.79195 0.99368 0.0
C347 C 0.26146 0.80626 0.00833 0.0
C348 C 0.27405 0.82238 0.00751 0.0
C349 C 0.28746 0.8244 0.99204 0.0
C350 C 0.28689 0.81076 0.97668 0.0
C351 C 0.27442 0.79464 0.97758 0.0
C352 C 0.27742 0.72496 0.01125 0.0
C353 C 0.2965 0.73045 0.0164 0.0
C354 C 0.31091 0.71633 0.01918 0.0
C355 C 0.30658 0.69643 0.01669 0.0
C356 C 0.28735 0.69092 0.01213 0.0
C357 C 0.2729 0.70502 0.00953 0.0
C358 C 0.20983 0.74155 0.9972 0.0
C359 C 0.19919 0.73592 0.01376 0.0
C360 C 0.82093 0.27901 0.00955 0.0
C361 C 0.82441 0.28873 0.99178 0.0
C362 C 0.81309 0.28363 0.97539 0.0
C363 C 0.79762 0.27038 0.97714 0.0
H364 H 0.74714 0.20137 0.02615 0.0
H365 H 0.72494 0.17341 0.02483 0.0
H366 H 0.71028 0.18812 0.96523 0.0
H367 H 0.73282 0.21568 0.96662 0.0
H368 H 0.7035 0.25689 0.01962 0.0
H369 H 0.67822 0.28136 0.02463 0.0
H370 H 0.71928 0.32682 0.00952 0.0
H371 H 0.74467 0.3025 0.00511 0.0
H372 H 0.8019 0.25994 0.02555 0.0
H373 H 0.82922 0.2827 0.0225 0.0
H374 H 0.81554 0.29067 0.96144 0.0
H375 H 0.78812 0.26798 0.96471 0.0
N376 N 0.76806 0.23568 0.99619 0.0
N377 N 0.73579 0.24394 0.00476 0.0
N378 N 0.75976 0.26811 0.00413 0.0
C379 C 0.74911 0.23034 0.99935 0.0
C380 C 0.74098 0.26284 0.00718 0.0
C381 C 0.77334 0.25474 0.99878 0.0
C382 C 0.74198 0.21033 0.99634 0.0
C383 C 0.73987 0.19797 0.01251 0.0
C384 C 0.72686 0.1822 0.01184 0.0
C385 C 0.71552 0.17866 0.99503 0.0
C386 C 0.71884 0.19023 0.97836 0.0
C387 C 0.73187 0.20596 0.97907 0.0
C388 C 0.72607 0.27772 0.01182 0.0
C389 C 0.70719 0.27212 0.01755 0.0
C390 C 0.69267 0.28613 0.02034 0.0
C391 C 0.69669 0.30602 0.01733 0.0
C392 C 0.71575 0.31165 0.01221 0.0
C393 C 0.7303 0.29766 0.00957 0.0
C394 C 0.79325 0.26191 0.99525 0.0
C395 C 0.80539 0.26584 0.01129 0.0
C396 C 0.72318 0.82102 0.01162 0.0
C397 C 0.71443 0.82571 0.99363 0.0
C398 C 0.72024 0.81534 0.97685 0.0
C399 C 0.73329 0.79966 0.9783 0.0
H400 H 0.80268 0.75075 0.02334 0.0
H401 H 0.83126 0.72923 0.02222 0.0
H402 H 0.81326 0.70869 0.9653 0.0
H403 H 0.78506 0.73036 0.96649 0.0
H404 H 0.74529 0.7034 0.01678 0.0
H405 H 0.72075 0.67811 0.02119 0.0
H406 H 0.67538 0.71969 0.00723 0.0
H407 H 0.69981 0.74511 0.00343 0.0
H408 H 0.74123 0.80082 0.02738 0.0
H409 H 0.7189 0.82856 0.02486 0.0
H410 H 0.71393 0.81872 0.96274 0.0
H411 H 0.73628 0.79094 0.96544 0.0
N412 N 0.76682 0.76871 0.99623 0.0
N413 N 0.7583 0.73606 0.0028 0.0
N414 N 0.73434 0.76024 0.00372 0.0
C415 C 0.77201 0.74956 0.9982 0.0
C416 C 0.73946 0.74126 0.00563 0.0
C417 C 0.74781 0.77399 0.99914 0.0
C418 C 0.79199 0.74248 0.99481 0.0
C419 C 0.80544 0.74229 0.01025 0.0
C420 C 0.82158 0.7297 0.00973 0.0
C421 C 0.82446 0.717 0.99378 0.0
C422 C 0.81169 0.71835 0.97773 0.0
C423 C 0.79557 0.73086 0.97832 0.0
C424 C 0.72452 0.72625 0.00963 0.0
C425 C 0.73007 0.70719 0.01479 0.0
C426 C 0.71601 0.69266 0.01724 0.0
C427 C 0.69612 0.69684 0.01442 0.0
C428 C 0.69055 0.71603 0.00977 0.0
C429 C 0.70459 0.7306 0.00749 0.0
C430 C 0.74079 0.7941 0.99653 0.0
C431 C 0.73609 0.80524 0.01308 0.0
C432 C 0.51274 0.78009 0.68446 0.0
C433 C 0.4942 0.78656 0.67851 0.0
C434 C 0.47758 0.77901 0.68795 0.0
C435 C 0.47956 0.76633 0.70389 0.0
H436 H 0.4638 0.72077 0.77458 0.0
H437 H 0.46014 0.69327 0.79699 0.0
H438 H 0.51656 0.67143 0.77911 0.0
H439 H 0.51982 0.69877 0.75638 0.0
H440 H 0.5058 0.75977 0.80324 0.0
H441 H 0.51073 0.78543 0.82716 0.0
H442 H 0.5273 0.82528 0.78115 0.0
H443 H 0.52183 0.79972 0.75703 0.0
H444 H 0.5292 0.76431 0.70592 0.0
H445 H 0.52582 0.78577 0.67763 0.0
H446 H 0.46311 0.78366 0.68361 0.0
H447 H 0.46663 0.76189 0.71184 0.0
N448 N 0.49538 0.73595 0.73675 0.0
N449 N 0.50305 0.74452 0.76918 0.0
N450 N 0.50673 0.76752 0.74436 0.0
C451 C 0.49695 0.73105 0.75602 0.0
C452 C 0.50799 0.76277 0.76349 0.0
C453 C 0.50048 0.75433 0.73096 0.0
C454 C 0.49189 0.71159 0.76351 0.0
C455 C 0.47495 0.70954 0.77481 0.0
C456 C 0.47304 0.69398 0.78789 0.0
C457 C 0.48822 0.68031 0.79016 0.0
C458 C 0.50452 0.68158 0.77768 0.0
C459 C 0.50637 0.69714 0.76453 0.0
C460 C 0.51321 0.77773 0.77817 0.0
C461 C 0.51072 0.77392 0.79818 0.0
C462 C 0.51366 0.78863 0.81196 0.0
C463 C 0.5193 0.80745 0.80606 0.0
C464 C 0.52262 0.81103 0.78613 0.0
C465 C 0.51957 0.79634 0.77232 0.0
C466 C 0.49816 0.76117 0.71074 0.0
C467 C 0.5147 0.76769 0.70056 0.0
C468 C 0.22806 0.50968 0.6815 0.0
C469 C 0.21666 0.49299 0.67762 0.0
C470 C 0.22034 0.47591 0.68838 0.0
C471 C 0.23353 0.47608 0.70393 0.0
H472 H 0.28627 0.53596 0.77011 0.0
H473 H 0.31375 0.53896 0.79259 0.0
H474 H 0.33304 0.48113 0.77642 0.0
H475 H 0.30565 0.47847 0.75356 0.0
H476 H 0.24509 0.50508 0.8012 0.0
H477 H 0.21988 0.50348 0.82612 0.0
H478 H 0.17947 0.47982 0.78378 0.0
H479 H 0.2045 0.48185 0.75868 0.0
H480 H 0.24856 0.52335 0.70101 0.0
H481 H 0.22557 0.52309 0.67353 0.0
H482 H 0.21215 0.46269 0.68551 0.0
H483 H 0.23473 0.4632 0.71304 0.0
N484 N 0.26929 0.50018 0.73397 0.0
N485 N 0.26034 0.50045 0.76721 0.0
N486 N 0.23704 0.49299 0.74356 0.0
C487 C 0.27414 0.50263 0.7532 0.0
C488 C 0.24179 0.4956 0.76254 0.0
C489 C 0.2505 0.49531 0.72924 0.0
C490 C 0.29407 0.50714 0.75989 0.0
C491 C 0.29697 0.52432 0.77066 0.0
C492 C 0.31251 0.52586 0.78381 0.0
C493 C 0.32536 0.5101 0.78669 0.0
C494 C 0.32348 0.49358 0.77456 0.0
C495 C 0.30791 0.4921 0.76129 0.0
C496 C 0.2268 0.49369 0.7779 0.0
C497 C 0.23087 0.49943 0.79719 0.0
C498 C 0.21645 0.49843 0.81152 0.0
C499 C 0.19769 0.49156 0.80689 0.0
C500 C 0.19371 0.48547 0.78771 0.0
C501 C 0.2081 0.48656 0.77335 0.0
C502 C 0.24354 0.49324 0.70897 0.0
C503 C 0.24139 0.5098 0.69711 0.0
C504 C 0.48273 0.2068 0.70108 0.0
C505 C 0.48986 0.2121 0.68256 0.0
C506 C 0.49925 0.23037 0.68063 0.0
C507 C 0.50272 0.24221 0.69708 0.0
H508 H 0.54174 0.29195 0.76967 0.0
H509 H 0.53863 0.31964 0.79179 0.0
H510 H 0.47643 0.3207 0.78172 0.0
H511 H 0.47967 0.29282 0.75928 0.0
H512 H 0.52498 0.24226 0.80276 0.0
H513 H 0.53034 0.21678 0.82677 0.0
H514 H 0.54027 0.1751 0.78035 0.0
H515 H 0.53404 0.20049 0.75629 0.0
H516 H 0.48158 0.21333 0.73156 0.0
H517 H 0.47569 0.19286 0.70343 0.0
H518 H 0.50466 0.23514 0.66657 0.0
H519 H 0.51121 0.25545 0.69544 0.0
N520 N 0.50441 0.2637 0.73842 0.0
N521 N 0.52081 0.25686 0.76792 0.0
N522 N 0.51391 0.23159 0.74623 0.0
C523 C 0.51239 0.26996 0.75567 0.0
C524 C 0.52166 0.23771 0.76331 0.0
C525 C 0.5054 0.24431 0.73368 0.0
C526 C 0.51096 0.2903 0.76273 0.0
C527 C 0.52751 0.29859 0.77157 0.0
C528 C 0.52568 0.31429 0.78443 0.0
C529 C 0.50723 0.32205 0.78887 0.0
C530 C 0.49084 0.31501 0.7786 0.0
C531 C 0.4927 0.29918 0.76561 0.0
C532 C 0.52873 0.22329 0.77764 0.0
C533 C 0.52869 0.22775 0.79767 0.0
C534 C 0.53187 0.21312 0.81146 0.0
C535 C 0.53544 0.1938 0.8055 0.0
C536 C 0.53705 0.18973 0.78544 0.0
C537 C 0.53358 0.20429 0.77164 0.0
C538 C 0.49684 0.23597 0.71569 0.0
C539 C 0.48615 0.21857 0.71734 0.0
C540 C 0.7743 0.49165 0.6807 0.0
C541 C 0.78586 0.50822 0.6768 0.0
C542 C 0.78242 0.52533 0.68761 0.0
C543 C 0.76927 0.52531 0.7032 0.0
H544 H 0.71611 0.46625 0.76966 0.0
H545 H 0.68873 0.46364 0.7923 0.0
H546 H 0.67013 0.52172 0.77631 0.0
H547 H 0.69742 0.52399 0.7533 0.0
H548 H 0.75791 0.49672 0.80052 0.0
H549 H 0.78321 0.49837 0.82535 0.0
H550 H 0.82361 0.52148 0.78277 0.0
H551 H 0.79849 0.51939 0.75774 0.0
H552 H 0.75373 0.4782 0.70026 0.0
H553 H 0.77661 0.47821 0.67269 0.0
H554 H 0.79075 0.53846 0.68475 0.0
H555 H 0.76825 0.53821 0.71233 0.0
N556 N 0.73337 0.5017 0.7334 0.0
N557 N 0.74251 0.50143 0.7666 0.0
N558 N 0.76577 0.50847 0.74281 0.0
C559 C 0.72859 0.49939 0.75267 0.0
C560 C 0.76109 0.50601 0.76182 0.0
C561 C 0.7522 0.50629 0.72856 0.0
C562 C 0.70864 0.49517 0.7595 0.0
C563 C 0.70557 0.47804 0.77029 0.0
C564 C 0.6901 0.47672 0.78353 0.0
C565 C 0.67747 0.49265 0.7865 0.0
C566 C 0.67952 0.50915 0.77438 0.0
C567 C 0.69503 0.51041 0.76102 0.0
C568 C 0.77619 0.50783 0.77711 0.0
C569 C 0.77215 0.50224 0.79643 0.0
C570 C 0.78662 0.50328 0.81071 0.0
C571 C 0.8054 0.51003 0.806 0.0
C572 C 0.80936 0.51593 0.78676 0.0
C573 C 0.79491 0.51481 0.77245 0.0
C574 C 0.75909 0.50827 0.70825 0.0
C575 C 0.76103 0.49168 0.69636 0.0
C576 C 0.51279 0.22258 0.32045 0.0
C577 C 0.4945 0.21486 0.3257 0.0
C578 C 0.47778 0.22146 0.31572 0.0
C579 C 0.4795 0.2344 0.29995 0.0
H580 H 0.46426 0.28269 0.23116 0.0
H581 H 0.46084 0.31003 0.20849 0.0
H582 H 0.51824 0.33048 0.22481 0.0
H583 H 0.52132 0.30327 0.24773 0.0
H584 H 0.50655 0.24338 0.20146 0.0
H585 H 0.51146 0.21802 0.17723 0.0
H586 H 0.52708 0.17733 0.22284 0.0
H587 H 0.52159 0.2026 0.24727 0.0
H588 H 0.52892 0.23964 0.29973 0.0
H589 H 0.52596 0.21767 0.32769 0.0
H590 H 0.46348 0.21588 0.3195 0.0
H591 H 0.46659 0.23807 0.29157 0.0
N592 N 0.49574 0.26649 0.26808 0.0
N593 N 0.50371 0.25821 0.23566 0.0
N594 N 0.50668 0.23482 0.26021 0.0
C595 C 0.49763 0.27161 0.24889 0.0
C596 C 0.50828 0.23981 0.24116 0.0
C597 C 0.50048 0.24794 0.2737 0.0
C598 C 0.49285 0.29119 0.24148 0.0
C599 C 0.4757 0.29361 0.23056 0.0
C600 C 0.47393 0.30906 0.21731 0.0
C601 C 0.48941 0.32228 0.21453 0.0
C602 C 0.50597 0.32068 0.22663 0.0
C603 C 0.5077 0.3052 0.23991 0.0
C604 C 0.51347 0.22499 0.22635 0.0
C605 C 0.51125 0.22911 0.20637 0.0
C606 C 0.51419 0.21457 0.19242 0.0
C607 C 0.51957 0.19561 0.19811 0.0
C608 C 0.52261 0.1917 0.21803 0.0
C609 C 0.51955 0.20622 0.23201 0.0
C610 C 0.49794 0.24086 0.29384 0.0
C611 C 0.5145 0.23528 0.30454 0.0
C612 C 0.68052 0.49382 0.22881 0.0
C613 C 0.67711 0.51045 0.21719 0.0
C614 C 0.68843 0.52724 0.22059 0.0
C615 C 0.70403 0.52678 0.23372 0.0
H616 H 0.76922 0.467 0.28814 0.0
H617 H 0.79181 0.46501 0.31561 0.0
H618 H 0.77698 0.52409 0.33198 0.0
H619 H 0.75398 0.52575 0.30461 0.0
H620 H 0.80012 0.49362 0.24473 0.0
H621 H 0.82497 0.49404 0.21938 0.0
H622 H 0.7831 0.51784 0.17861 0.0
H623 H 0.75807 0.51697 0.20377 0.0
H624 H 0.69967 0.47985 0.24941 0.0
H625 H 0.67213 0.48062 0.22654 0.0
H626 H 0.68596 0.54043 0.21222 0.0
H627 H 0.71357 0.53937 0.23468 0.0
N628 N 0.73364 0.50302 0.2697 0.0
N629 N 0.76664 0.50061 0.26026 0.0
N630 N 0.74296 0.50777 0.23692 0.0
C631 C 0.7528 0.49993 0.2744 0.0
C632 C 0.76187 0.50457 0.24153 0.0
C633 C 0.7288 0.50693 0.25072 0.0
C634 C 0.75965 0.4964 0.29448 0.0
C635 C 0.7701 0.47919 0.29821 0.0
C636 C 0.78331 0.47821 0.31374 0.0
C637 C 0.78659 0.49456 0.32574 0.0
C638 C 0.7748 0.5112 0.32307 0.0
C639 C 0.76146 0.51212 0.30752 0.0
C640 C 0.77708 0.50522 0.22627 0.0
C641 C 0.79619 0.49898 0.23038 0.0
C642 C 0.81048 0.49931 0.21588 0.0
C643 C 0.80599 0.50598 0.19701 0.0
C644 C 0.78693 0.51235 0.19294 0.0
C645 C 0.77261 0.51193 0.2074 0.0
C646 C 0.70855 0.50963 0.24396 0.0
C647 C 0.69616 0.49341 0.24208 0.0
C648 C 0.51024 0.77498 0.32268 0.0
C649 C 0.49377 0.78716 0.32467 0.0
C650 C 0.47798 0.78444 0.31181 0.0
C651 C 0.47943 0.77141 0.29617 0.0
H652 H 0.54016 0.71404 0.23304 0.0
H653 H 0.54054 0.68618 0.21087 0.0
H654 H 0.48077 0.67325 0.22622 0.0
H655 H 0.48066 0.70108 0.24881 0.0
H656 H 0.52076 0.75913 0.20323 0.0
H657 H 0.52234 0.78414 0.17808 0.0
H658 H 0.49895 0.82645 0.21867 0.0
H659 H 0.49781 0.80164 0.24398 0.0
H660 H 0.52519 0.75402 0.30469 0.0
H661 H 0.5227 0.77672 0.33225 0.0
H662 H 0.46492 0.79325 0.31314 0.0
H663 H 0.46776 0.77097 0.28548 0.0
N664 N 0.50354 0.73462 0.26843 0.0
N665 N 0.51028 0.74409 0.23605 0.0
N666 N 0.50279 0.76778 0.2593 0.0
C667 C 0.50826 0.72983 0.24962 0.0
C668 C 0.50752 0.76306 0.24073 0.0
C669 C 0.50092 0.75384 0.27321 0.0
C670 C 0.51046 0.70955 0.24277 0.0
C671 C 0.52741 0.70468 0.23234 0.0
C672 C 0.5275 0.68892 0.2194 0.0
C673 C 0.51053 0.67778 0.21638 0.0
C674 C 0.4941 0.68153 0.2282 0.0
C675 C 0.49406 0.69734 0.24129 0.0
C676 C 0.50911 0.77836 0.22562 0.0
C677 C 0.51602 0.77378 0.20684 0.0
C678 C 0.51685 0.78808 0.19238 0.0
C679 C 0.5107 0.80724 0.19637 0.0
C680 C 0.50404 0.81188 0.21522 0.0
C681 C 0.5033 0.79761 0.2297 0.0
C682 C 0.49655 0.76057 0.29317 0.0
C683 C 0.51162 0.76181 0.30701 0.0
C684 C 0.32229 0.50724 0.2287 0.0
C685 C 0.32544 0.49077 0.21676 0.0
C686 C 0.31387 0.4741 0.21982 0.0
C687 C 0.29826 0.47458 0.23293 0.0
H688 H 0.23378 0.53496 0.28777 0.0
H689 H 0.21158 0.53728 0.31554 0.0
H690 H 0.22695 0.47854 0.33252 0.0
H691 H 0.24956 0.47656 0.30486 0.0
H692 H 0.2025 0.50803 0.24506 0.0
H693 H 0.17745 0.50774 0.2199 0.0
H694 H 0.21875 0.48334 0.17889 0.0
H695 H 0.24399 0.48408 0.20386 0.0
H696 H 0.30335 0.52115 0.24955 0.0
H697 H 0.3309 0.52035 0.22669 0.0
H698 H 0.31615 0.46102 0.21121 0.0
H699 H 0.28854 0.46211 0.23365 0.0
N700 N 0.26923 0.49866 0.2694 0.0
N701 N 0.23613 0.50109 0.2603 0.0
N702 N 0.2595 0.49348 0.23678 0.0
C703 C 0.25014 0.5019 0.27426 0.0
C704 C 0.24066 0.49684 0.24156 0.0
C705 C 0.27383 0.49444 0.25042 0.0
C706 C 0.24357 0.5057 0.29439 0.0
C707 C 0.23311 0.52294 0.29803 0.0
C708 C 0.22013 0.5241 0.31373 0.0
C709 C 0.2171 0.50792 0.32599 0.0
C710 C 0.22894 0.4913 0.3234 0.0
C711 C 0.24206 0.49019 0.30768 0.0
C712 C 0.22528 0.49614 0.22646 0.0
C713 C 0.20626 0.50255 0.2307 0.0
C714 C 0.19185 0.50229 0.21631 0.0
C715 C 0.19613 0.49553 0.19742 0.0
C716 C 0.21509 0.48892 0.19323 0.0
C717 C 0.22953 0.48926 0.20759 0.0
C718 C 0.294 0.49162 0.24349 0.0
C719 C 0.30664 0.50767 0.24195 0.0
C720 C 0.68165 0.7768 0.49486 0.0
C721 C 0.67839 0.78704 0.5124 0.0
C722 C 0.69015 0.78268 0.52868 0.0
C723 C 0.70584 0.7697 0.52697 0.0
H724 H 0.75765 0.70175 0.47613 0.0
H725 H 0.77998 0.67389 0.47722 0.0
H726 H 0.79226 0.68647 0.53787 0.0
H727 H 0.76953 0.71389 0.53669 0.0
H728 H 0.79976 0.75703 0.48451 0.0
H729 H 0.82475 0.78183 0.47981 0.0
H730 H 0.78331 0.82662 0.49594 0.0
H731 H 0.75819 0.80197 0.50006 0.0
H732 H 0.70068 0.75756 0.47902 0.0
H733 H 0.673 0.77992 0.482 0.0
H734 H 0.68789 0.79011 0.54246 0.0
H735 H 0.71566 0.76788 0.53925 0.0
N736 N 0.73535 0.73475 0.5073 0.0
N737 N 0.76755 0.74346 0.49892 0.0
N738 N 0.74342 0.76744 0.50037 0.0
C739 C 0.75433 0.72963 0.50395 0.0
C740 C 0.76223 0.76239 0.4971 0.0
C741 C 0.72995 0.75383 0.50532 0.0
C742 C 0.76159 0.7096 0.50645 0.0
C743 C 0.76443 0.69789 0.48989 0.0
C744 C 0.77751 0.68219 0.49046 0.0
C745 C 0.78823 0.6781 0.50754 0.0
C746 C 0.78419 0.68901 0.52451 0.0
C747 C 0.77106 0.70466 0.52392 0.0
C748 C 0.777 0.77749 0.49279 0.0
C749 C 0.79592 0.77218 0.48689 0.0
C750 C 0.81028 0.78639 0.48428 0.0
C751 C 0.80607 0.80618 0.48764 0.0
C752 C 0.78699 0.81153 0.49298 0.0
C753 C 0.7726 0.79736 0.49545 0.0
C754 C 0.70997 0.76072 0.50903 0.0
C755 C 0.69739 0.76386 0.49317 0.0
C756 C 0.68125 0.22492 0.50958 0.0
C757 C 0.67766 0.21502 0.49192 0.0
C758 C 0.68903 0.21977 0.47547 0.0
C759 C 0.70463 0.23286 0.47708 0.0
H760 H 0.7541 0.30276 0.52476 0.0
H761 H 0.77603 0.33095 0.52337 0.0
H762 H 0.79272 0.3147 0.46469 0.0
H763 H 0.7705 0.28691 0.46614 0.0
H764 H 0.79895 0.24672 0.51901 0.0
H765 H 0.82424 0.22233 0.52427 0.0
H766 H 0.78322 0.17667 0.50953 0.0
H767 H 0.75781 0.20093 0.50488 0.0
H768 H 0.70048 0.244 0.52537 0.0
H769 H 0.67291 0.22149 0.52257 0.0
H770 H 0.68651 0.21257 0.46161 0.0
H771 H 0.71414 0.23502 0.46462 0.0
N772 N 0.73429 0.26769 0.49572 0.0
N773 N 0.76664 0.25948 0.50403 0.0
N774 N 0.74264 0.23533 0.50383 0.0
C775 C 0.75327 0.27303 0.49865 0.0
C776 C 0.76146 0.24061 0.50667 0.0
C777 C 0.72903 0.24866 0.4985 0.0
C778 C 0.76034 0.29301 0.49539 0.0
C779 C 0.76177 0.30586 0.51127 0.0
C780 C 0.77461 0.32176 0.51057 0.0
C781 C 0.78641 0.32495 0.49403 0.0
C782 C 0.78378 0.31286 0.4776 0.0
C783 C 0.77094 0.29699 0.47834 0.0
C784 C 0.77639 0.22579 0.51138 0.0
C785 C 0.79527 0.23146 0.51706 0.0
C786 C 0.8098 0.21749 0.52 0.0
C787 C 0.80579 0.19757 0.51718 0.0
C788 C 0.78675 0.19187 0.51208 0.0
C789 C 0.77218 0.20582 0.5093 0.0
C790 C 0.70909 0.24152 0.4951 0.0
C791 C 0.69693 0.23794 0.51118 0.0
C792 C 0.31233 0.78454 0.52293 0.0
C793 C 0.32519 0.78596 0.50697 0.0
C794 C 0.32252 0.77319 0.49103 0.0
C795 C 0.30646 0.76048 0.49041 0.0
H796 H 0.24971 0.70127 0.52499 0.0
H797 H 0.22851 0.67237 0.52613 0.0
H798 H 0.20964 0.68414 0.46707 0.0
H799 H 0.23079 0.71263 0.46606 0.0
H800 H 0.20055 0.75806 0.49778 0.0
H801 H 0.17578 0.78341 0.49632 0.0
H802 H 0.22076 0.82689 0.48799 0.0
H803 H 0.24561 0.80161 0.49015 0.0
H804 H 0.28566 0.77249 0.53394 0.0
H805 H 0.31376 0.79423 0.53535 0.0
H806 H 0.33228 0.77374 0.4786 0.0
H807 H 0.30383 0.75201 0.47729 0.0
N808 N 0.26785 0.73426 0.50051 0.0
N809 N 0.23527 0.74351 0.49446 0.0
N810 N 0.25885 0.76745 0.49985 0.0
C811 C 0.24889 0.72932 0.49665 0.0
C812 C 0.24011 0.76257 0.49606 0.0
C813 C 0.27275 0.75355 0.50203 0.0
C814 C 0.24205 0.70895 0.49534 0.0
C815 C 0.24168 0.69706 0.51201 0.0
C816 C 0.22928 0.68075 0.51275 0.0
C817 C 0.21715 0.67604 0.49677 0.0
C818 C 0.21884 0.68714 0.47959 0.0
C819 C 0.23104 0.70345 0.47895 0.0
C820 C 0.22505 0.77784 0.49418 0.0
C821 C 0.20516 0.77301 0.49554 0.0
C822 C 0.19095 0.78754 0.4946 0.0
C823 C 0.1963 0.80718 0.49207 0.0
C824 C 0.21618 0.81195 0.4903 0.0
C825 C 0.23041 0.79744 0.49145 0.0
C826 C 0.29282 0.76035 0.50568 0.0
C827 C 0.29627 0.77198 0.52221 0.0
C828 C 0.22468 0.32015 0.51102 0.0
C829 C 0.2162 0.3249 0.49291 0.0
C830 C 0.22228 0.31465 0.47616 0.0
C831 C 0.23529 0.29896 0.47774 0.0
H832 H 0.30291 0.24816 0.52461 0.0
H833 H 0.3311 0.22616 0.52373 0.0
H834 H 0.31526 0.20857 0.46521 0.0
H835 H 0.28744 0.23077 0.46616 0.0
H836 H 0.24604 0.20257 0.51635 0.0
H837 H 0.22124 0.1775 0.52053 0.0
H838 H 0.17638 0.21944 0.50599 0.0
H839 H 0.20106 0.24464 0.50244 0.0
H840 H 0.24247 0.29987 0.52694 0.0
H841 H 0.22018 0.32761 0.52422 0.0
H842 H 0.21617 0.31808 0.46198 0.0
H843 H 0.23846 0.29028 0.46489 0.0
N844 N 0.26832 0.26775 0.49614 0.0
N845 N 0.2595 0.23517 0.50268 0.0
N846 N 0.23567 0.25949 0.50311 0.0
C847 C 0.27335 0.24858 0.49826 0.0
C848 C 0.24064 0.24049 0.50515 0.0
C849 C 0.2493 0.27314 0.49872 0.0
C850 C 0.29335 0.24142 0.49529 0.0
C851 C 0.3061 0.24027 0.51127 0.0
C852 C 0.322 0.2274 0.51086 0.0
C853 C 0.32531 0.21535 0.4945 0.0
C854 C 0.31332 0.21771 0.47797 0.0
C855 C 0.29744 0.23053 0.47843 0.0
C856 C 0.22555 0.22559 0.50895 0.0
C857 C 0.23087 0.20649 0.51419 0.0
C858 C 0.21667 0.19208 0.5165 0.0
C859 C 0.19685 0.19643 0.51346 0.0
C860 C 0.19149 0.21565 0.5087 0.0
C861 C 0.20568 0.23009 0.50656 0.0
C862 C 0.24247 0.29329 0.49606 0.0
C863 C 0.23756 0.30437 0.51259 0.0
C864 C 0.00125 0.95491 0.54891 0.0
C865 C 0.99962 0.95517 0.4535 0.0
C866 C 0.00124 0.04906 0.54909 0.0
C867 C 0.00136 0.04926 0.45364 0.0
C868 C 0.9533 0.0496 0.50275 0.0
C869 C 0.95304 0.95495 0.50052 0.0
C870 C 0.048 0.04934 0.50224 0.0
C871 C 0.04772 0.95466 0.50039 0.0
C872 C 0.04731 0.00224 0.45328 0.0
C873 C 0.95319 0.00231 0.45384 0.0
C874 C 0.04795 0.00137 0.54876 0.0
C875 C 0.95382 0.00242 0.54932 0.0
Eu876 Eu 1.00043 0.96488 0.50124 0.0
O877 O 0.983 0.98484 0.48434 0.0
O878 O 0.01814 0.98453 0.51829 0.0
Eu879 Eu 0.96329 0.00226 0.50152 0.0
Eu880 Eu 0.03783 0.00202 0.50109 0.0
O881 O 0.98304 0.9846 0.5186 0.0
O882 O 0.01785 0.98466 0.48403 0.0
Eu883 Eu 1.00085 0.00198 0.53772 0.0
Eu884 Eu 1.00031 0.00221 0.46492 0.0
O885 O 0.98337 0.01951 0.51851 0.0
O886 O 0.98287 0.01984 0.48418 0.0
O887 O 0.01796 0.01959 0.48414 0.0
O888 O 0.01811 0.01948 0.5183 0.0
Eu889 Eu 1.00061 0.03941 0.50135 0.0
O890 O 1.00071 0.94852 0.53042 0.0
O891 O 1.00015 0.9487 0.47195 0.0
O892 O 1.00029 0.05551 0.53065 0.0
O893 O 0.00135 0.0557 0.47213 0.0
O894 O 0.94728 0.03107 0.50283 0.0
O895 O 0.94709 0.97351 0.50061 0.0
O896 O 0.05399 0.03081 0.50143 0.0
O897 O 0.05382 0.97316 0.50089 0.0
O898 O 0.02857 0.00228 0.44803 0.0
O899 O 0.97186 0.002 0.44839 0.0
O900 O 0.02928 0.00125 0.55423 0.0
O901 O 0.97257 0.0024 0.55453 0.0
O902 O 0.02947 0.05539 0.50242 0.0
O903 O 0.97182 0.05561 0.50182 0.0
O904 O 0.02917 0.94869 0.50034 0.0
O905 O 0.97156 0.94887 0.50099 0.0
O906 O 0.99961 0.97387 0.44815 0.0
O907 O 1.00074 0.03056 0.44831 0.0
O908 O 0.00129 0.9736 0.55435 0.0
O909 O 0.00185 0.03036 0.55445 0.0
O910 O 0.94726 0.00218 0.53088 0.0
O911 O 0.94684 0.00286 0.47234 0.0
O912 O 0.05429 0.00194 0.53026 0.0
O913 O 0.05387 0.00197 0.47172 0.0
C914 C 0.50079 0.95504 0.04815 0.0
C915 C 0.50179 0.04971 0.04875 0.0
C916 C 0.50178 0.95547 0.95338 0.0
C917 C 0.50229 0.05018 0.954 0.0
C918 C 0.54808 0.00219 0.95401 0.0
C919 C 0.54822 0.00306 0.04818 0.0
C920 C 0.45269 0.00356 0.95406 0.0
C921 C 0.45282 0.00177 0.0481 0.0
C922 C 0.4529 0.04975 1.00116 0.0
C923 C 0.54841 0.04943 1.0008 0.0
C924 C 0.45265 0.95572 1.00004 0.0
C925 C 0.54796 0.95529 0.00152 0.0
Eu926 Eu 0.50052 0.00244 0.03834 0.0
O927 O 0.51765 0.01992 0.0186 0.0
O928 O 0.4834 0.98508 0.01843 0.0
Eu929 Eu 0.53686 0.0024 1.00112 0.0
Eu930 Eu 0.46424 0.00272 1.00106 0.0
O931 O 0.51754 0.98491 0.01847 0.0
O932 O 0.48341 0.02017 0.01873 0.0
Eu933 Eu 0.50036 0.96531 1.00081 0.0
Eu934 Eu 0.50064 0.03992 0.0013 0.0
O935 O 0.51746 0.98521 0.98349 0.0
O936 O 0.51753 0.01995 0.98379 0.0
O937 O 0.48345 0.02031 0.98362 0.0
O938 O 0.48327 0.98517 0.98336 0.0
Eu939 Eu 0.50041 0.00278 0.96373 0.0
O940 O 0.50094 0.97356 0.05424 0.0
O941 O 0.50109 0.03116 0.05466 0.0
O942 O 0.50112 0.97402 0.94743 0.0
O943 O 0.50131 0.0317 0.94785 0.0
O944 O 0.55348 0.00151 0.9727 0.0
O945 O 0.55357 0.00335 0.02947 0.0
O946 O 0.44742 0.00367 0.97279 0.0
O947 O 0.44748 0.00175 0.02938 0.0
O948 O 0.47137 0.05625 1.00122 0.0
O949 O 0.52998 0.05598 1.00108 0.0
O950 O 0.47108 0.94919 1.00013 0.0
O951 O 0.52949 0.94894 1.00068 0.0
O952 O 0.47112 0.00293 0.94753 0.0
O953 O 0.52965 0.00312 0.94756 0.0
O954 O 0.47127 0.00235 0.05458 0.0
O955 O 0.52976 0.00233 0.05462 0.0
O956 O 0.50173 0.05583 0.03024 0.0
O957 O 0.50209 0.05612 0.97258 0.0
O958 O 0.50035 0.94909 0.02957 0.0
O959 O 0.50155 0.9494 0.9719 0.0
O960 O 0.55343 0.97395 0.00207 0.0
O961 O 0.55363 0.03069 1.00064 0.0
O962 O 0.44743 0.97446 1.00032 0.0
O963 O 0.44763 0.03103 0.00134 0.0
C964 C 1.00011 0.45484 0.04839 0.0
C965 C 1.00071 0.45455 0.95423 0.0
C966 C 0.00218 0.5502 0.04827 0.0
C967 C 0.00289 0.55009 0.95416 0.0
C968 C 0.9552 0.55106 1.00076 0.0
C969 C 0.9531 0.45575 1.00111 0.0
C970 C 0.04934 0.54885 0.00156 0.0
C971 C 0.04708 0.45352 0.00169 0.0
C972 C 0.04874 0.50058 0.95402 0.0
C973 C 0.95409 0.50381 0.9536 0.0
C974 C 0.04838 0.50134 0.04874 0.0
C975 C 0.95369 0.50348 0.04833 0.0
Eu976 Eu 1.00034 0.46609 0.00129 0.0
O977 O 0.98339 0.4856 0.98354 0.0
O978 O 0.01821 0.48494 0.01881 0.0
Eu979 Eu 0.96398 0.50318 1.00099 0.0
Eu980 Eu 0.03845 0.50145 0.00132 0.0
O981 O 0.98325 0.48574 0.0187 0.0
O982 O 0.01829 0.48487 0.9838 0.0
Eu983 Eu 1.00108 0.50248 0.03852 0.0
Eu984 Eu 0.00137 0.50232 0.96384 0.0
O985 O 0.98405 0.5199 0.01861 0.0
O986 O 0.98427 0.51982 0.98364 0.0
O987 O 0.01914 0.51905 0.98375 0.0
O988 O 0.01903 0.51908 0.01875 0.0
Eu989 Eu 0.00205 0.5387 1.00123 0.0
O990 O 0.99981 0.44946 0.02968 0.0
O991 O 1.00047 0.44932 0.97297 0.0
O992 O 0.00232 0.55546 0.02954 0.0
O993 O 0.00289 0.55533 0.9729 0.0
O994 O 0.94839 0.53273 1.00078 0.0
O995 O 0.94705 0.47433 1.00047 0.0
O996 O 0.05537 0.53027 1.00082 0.0
O997 O 0.054 0.47181 0.00153 0.0
O998 O 0.03025 0.50141 0.94789 0.0
O999 O 0.97262 0.5031 0.94762 0.0
O1000 O 0.02983 0.5017 0.0547 0.0
O1001 O 0.9722 0.50323 0.05443 0.0
O1002 O 0.03078 0.55467 0.00201 0.0
O1003 O 0.97403 0.55599 1.00093 0.0
O1004 O 0.02824 0.4487 0.00167 0.0
O1005 O 0.97167 0.45 0.00157 0.0
O1006 O 1.00082 0.47299 0.9477 0.0
O1007 O 0.00236 0.53163 0.94764 0.0
O1008 O 1.0007 0.47331 0.05481 0.0
O1009 O 0.00164 0.53176 0.05476 0.0
O1010 O 0.94775 0.5034 0.02975 0.0
O1011 O 0.94804 0.50399 0.97213 0.0
O1012 O 0.05446 0.50134 0.03021 0.0
O1013 O 0.05463 0.5004 0.9726 0.0
C1014 C 0.50126 0.45351 0.04923 0.0
C1015 C 0.50099 0.54763 0.04994 0.0
C1016 C 0.50063 0.4541 0.95381 0.0
C1017 C 0.50108 0.54831 0.95452 0.0
C1018 C 0.54851 0.50133 0.95404 0.0
C1019 C 0.54851 0.50055 0.04956 0.0
C1020 C 0.45438 0.50116 0.95407 0.0
C1021 C 0.4544 0.50071 0.04957 0.0
C1022 C 0.4539 0.54807 0.00337 0.0
C1023 C 0.54858 0.54848 0.00284 0.0
C1024 C 0.4543 0.45345 0.00148 0.0
C1025 C 0.54899 0.45378 0.00272 0.0
Eu1026 Eu 0.50145 0.50065 0.03823 0.0
O1027 O 0.51885 0.51834 0.01909 0.0
O1028 O 0.484 0.48323 0.01884 0.0
Eu1029 Eu 0.53872 0.50108 0.00181 0.0
Eu1030 Eu 0.46417 0.5008 0.00183 0.0
O1031 O 0.51896 0.48344 0.01877 0.0
O1032 O 0.48395 0.51816 0.01904 0.0
Eu1033 Eu 0.50159 0.46365 0.00159 0.0
Eu1034 Eu 0.50128 0.53817 0.00214 0.0
O1035 O 0.51906 0.48353 0.98448 0.0
O1036 O 0.51884 0.5186 0.98481 0.0
O1037 O 0.48388 0.51846 0.98478 0.0
O1038 O 0.48411 0.48355 0.98465 0.0
Eu1039 Eu 0.50145 0.50114 0.9654 0.0
O1040 O 0.50144 0.47217 0.05474 0.0
O1041 O 0.50108 0.52889 0.05517 0.0
O1042 O 0.50061 0.47282 0.94851 0.0
O1043 O 0.5014 0.52966 0.94897 0.0
O1044 O 0.55497 0.50091 0.97252 0.0
O1045 O 0.55496 0.50128 0.03109 0.0
O1046 O 0.44793 0.50143 0.97255 0.0
O1047 O 0.44794 0.5002 0.0311 0.0
O1048 O 0.4724 0.55418 0.00282 0.0
O1049 O 0.53 0.55439 0.0029 0.0
O1050 O 0.47284 0.44747 0.00177 0.0
O1051 O 0.53049 0.44766 0.00206 0.0
O1052 O 0.47308 0.50101 0.94872 0.0
O1053 O 0.5298 0.50146 0.94869 0.0
O1054 O 0.4731 0.50098 0.05492 0.0
O1055 O 0.52981 0.50017 0.05491 0.0
O1056 O 0.50126 0.55419 0.03152 0.0
O1057 O 0.50082 0.5546 0.97305 0.0
O1058 O 0.50112 0.44721 0.0307 0.0
O1059 O 0.50136 0.44759 0.97224 0.0
O1060 O 0.55491 0.47235 0.00273 0.0
O1061 O 0.5547 0.52998 0.00217 0.0
O1062 O 0.4482 0.47195 1.00121 0.0
O1063 O 0.44796 0.52951 0.00314 0.0
C1064 C 0.00223 0.45242 0.54829 0.0
C1065 C 0.99936 0.45365 0.45362 0.0
C1066 C 1.00061 0.54715 0.54959 0.0
C1067 C 0.00381 0.54823 0.45484 0.0
C1068 C 0.95461 0.54803 0.502 0.0
C1069 C 0.9535 0.45394 0.50066 0.0
C1070 C 0.05006 0.54679 0.50273 0.0
C1071 C 0.04875 0.45277 0.5016 0.0
C1072 C 0.0498 0.49945 0.45494 0.0
C1073 C 0.95437 0.50237 0.45423 0.0
C1074 C 0.04903 0.50073 0.54906 0.0
C1075 C 0.95358 0.4994 0.5483 0.0
Eu1076 Eu 0.00127 0.46317 0.50108 0.0
O1077 O 0.9846 0.48344 0.48381 0.0
O1078 O 0.01841 0.48253 0.51902 0.0
Eu1079 Eu 0.9654 0.50085 0.50135 0.0
Eu1080 Eu 0.03802 0.49991 0.50193 0.0
O1081 O 0.98423 0.48286 0.5188 0.0
O1082 O 0.01884 0.48282 0.4839 0.0
Eu1083 Eu 0.00138 0.49991 0.53895 0.0
Eu1084 Eu 0.00203 0.5008 0.46429 0.0
O1085 O 0.98473 0.51787 0.51919 0.0
O1086 O 0.98499 0.51832 0.48418 0.0
O1087 O 0.01913 0.51783 0.48452 0.0
O1088 O 0.01882 0.51744 0.51948 0.0
Eu1089 Eu 0.00219 0.5377 0.50209 0.0
O1090 O 0.00214 0.44667 0.52965 0.0
O1091 O 0.99953 0.44746 0.4721 0.0
O1092 O 0.00154 0.55339 0.53115 0.0
O1093 O 0.00317 0.55409 0.47343 0.0
O1094 O 0.94908 0.52938 0.50198 0.0
O1095 O 0.94841 0.47271 0.50039 0.0
O1096 O 0.05509 0.52801 0.50211 0.0
O1097 O 0.05431 0.47136 0.50293 0.0
O1098 O 0.0314 0.50018 0.44832 0.0
O1099 O 0.97286 0.5018 0.44786 0.0
O1100 O 0.03054 0.50019 0.55542 0.0
O1101 O 0.97198 0.49956 0.55493 0.0
O1102 O 0.03169 0.55352 0.50285 0.0
O1103 O 0.97314 0.55428 0.50201 0.0
O1104 O 0.03026 0.44659 0.50008 0.0
O1105 O 0.97187 0.44727 0.50114 0.0
O1106 O 1.00056 0.47221 0.44778 0.0
O1107 O 0.0035 0.52976 0.44862 0.0
O1108 O 0.00173 0.47086 0.55461 0.0
O1109 O 1.00042 0.52853 0.55536 0.0
O1110 O 0.94839 0.49983 0.52954 0.0
O1111 O 0.9489 0.50213 0.4729 0.0
O1112 O 0.05451 0.50068 0.53039 0.0
O1113 O 0.05498 0.4992 0.47371 0.0
C1114 C 0.50092 0.95298 0.54938 0.0
C1115 C 0.50207 0.95339 0.45523 0.0
C1116 C 0.50133 0.04824 0.55012 0.0
C1117 C 0.50189 0.04879 0.45586 0.0
C1118 C 0.45461 0.04862 0.50245 0.0
C1119 C 0.45445 0.9531 0.50196 0.0
C1120 C 0.54879 0.04839 0.50316 0.0
C1121 C 0.54854 0.95319 0.5027 0.0
C1122 C 0.54915 1.00064 0.4557 0.0
C1123 C 0.45446 0.00151 0.4549 0.0
C1124 C 0.54828 0.99935 0.55049 0.0
C1125 C 0.45364 1.001 0.54952 0.0
Eu1126 Eu 0.5015 0.9645 0.50235 0.0
O1127 O 0.48405 0.98377 0.4848 0.0
O1128 O 0.51868 0.98372 0.52012 0.0
Eu1129 Eu 0.46423 1.00086 0.5023 0.0
Eu1130 Eu 0.53872 1.00082 0.503 0.0
O1131 O 0.48381 0.98361 0.51985 0.0
O1132 O 0.51908 0.98388 0.48518 0.0
Eu1133 Eu 0.50104 1.00066 0.5399 0.0
Eu1134 Eu 0.50171 1.00104 0.46536 0.0
O1135 O 0.48391 0.01794 0.52001 0.0
O1136 O 0.48432 0.01808 0.48527 0.0
O1137 O 0.51911 0.01805 0.48541 0.0
O1138 O 0.51892 0.01792 0.52056 0.0
Eu1139 Eu 0.50171 0.03731 0.50296 0.0
O1140 O 0.50185 0.94767 0.53066 0.0
O1141 O 0.50209 0.94794 0.4739 0.0
O1142 O 0.50206 0.05386 0.5315 0.0
O1143 O 0.50233 0.05412 0.4746 0.0
O1144 O 0.44812 0.03017 0.50211 0.0
O1145 O 0.44797 0.97157 0.50209 0.0
O1146 O 0.55514 0.02991 0.50272 0.0
O1147 O 0.55496 0.97164 0.50339 0.0
O1148 O 0.53066 1.00116 0.44953 0.0
O1149 O 0.47303 0.00123 0.449 0.0
O1150 O 0.52967 0.99935 0.5563 0.0
O1151 O 0.47211 1.00103 0.55571 0.0
O1152 O 0.53013 0.05387 0.50346 0.0
O1153 O 0.47333 0.05392 0.50287 0.0
O1154 O 0.52986 0.9478 0.5021 0.0
O1155 O 0.47318 0.94784 0.50203 0.0
O1156 O 0.50168 0.97189 0.44889 0.0
O1157 O 0.50131 0.03035 0.44934 0.0
O1158 O 0.50002 0.97138 0.5559 0.0
O1159 O 0.50058 0.02974 0.55637 0.0
O1160 O 0.4478 1.00083 0.53092 0.0
O1161 O 0.44834 0.00142 0.4734 0.0
O1162 O 0.55451 1.00026 0.53203 0.0
O1163 O 0.55501 1.0003 0.4743 0.0
C1164 C 0.16332 0.18456 0.52225 0.0
C1165 C 0.18189 0.18082 0.51433 0.0
C1166 C 0.14887 0.17021 0.52187 0.0
C1167 C 0.14104 0.11749 0.51778 0.0
H1168 H 0.09011 0.13204 0.49777 0.0
C1169 C 0.08271 0.06014 0.49871 0.0
C1170 C 0.06324 0.06452 0.50346 0.0
C1171 C 0.09717 0.07438 0.50034 0.0
C1172 C 0.10415 0.12779 0.50365 0.0
H1173 H 0.19985 0.15901 0.49994 0.0
H1174 H 0.17472 0.13386 0.49969 0.0
H1175 H 0.11547 0.15678 0.50103 0.0
H1176 H 0.04372 0.08725 0.51382 0.0
H1177 H 0.069 0.11194 0.51702 0.0
H1178 H 0.12975 0.08855 0.52062 0.0
C1179 C 0.17143 0.14788 0.50625 0.0
C1180 C 0.11866 0.14195 0.50549 0.0
C1181 C 0.18583 0.16227 0.50647 0.0
C1182 C 0.05854 0.08344 0.50984 0.0
C1183 C 0.07303 0.09763 0.51162 0.0
C1184 C 0.12649 0.10334 0.5161 0.0
C1185 C 0.15277 0.1518 0.51374 0.0
C1186 C 0.13725 0.13691 0.51248 0.0
C1187 C 0.09251 0.09325 0.50692 0.0
C1188 C 0.10791 0.10832 0.50892 0.0
H1189 H 0.15993 0.1986 0.5287 0.0
H1190 H 0.13465 0.17349 0.52796 0.0
H1191 H 0.15522 0.11329 0.5234 0.0
H1192 H 0.0868 0.04574 0.4936 0.0
H1193 H 0.11199 0.07064 0.49627 0.0
C1194 C 0.84018 0.18697 0.51066 0.0
C1195 C 0.82162 0.18286 0.5184 0.0
C1196 C 0.85468 0.17269 0.51044 0.0
C1197 C 0.86063 0.11998 0.50901 0.0
H1198 H 0.9143 0.13095 0.52336 0.0
C1199 C 0.91933 0.05995 0.51111 0.0
C1200 C 0.93812 0.0648 0.50444 0.0
C1201 C 0.90517 0.07438 0.51346 0.0
C1202 C 0.89943 0.12773 0.51907 0.0
H1203 H 0.804 0.16076 0.5327 0.0
H1204 H 0.82931 0.13567 0.53198 0.0
H1205 H 0.88955 0.15632 0.52702 0.0
H1206 H 0.95667 0.08855 0.49467 0.0
H1207 H 0.93178 0.11366 0.49833 0.0
H1208 H 0.87047 0.0916 0.50061 0.0
C1209 C 0.83251 0.14994 0.52597 0.0
C1210 C 0.88527 0.14222 0.52125 0.0
C1211 C 0.81804 0.16428 0.52634 0.0
C1212 C 0.94237 0.08435 0.49997 0.0
C1213 C 0.92814 0.09876 0.50217 0.0
C1214 C 0.8748 0.10555 0.50667 0.0
C1215 C 0.85087 0.15397 0.51782 0.0
C1216 C 0.86577 0.13847 0.51622 0.0
C1217 C 0.90942 0.09395 0.50905 0.0
C1218 C 0.89436 0.10927 0.51164 0.0
H1219 H 0.84333 0.20102 0.50413 0.0
H1220 H 0.86866 0.17609 0.50387 0.0
H1221 H 0.84574 0.11683 0.50473 0.0
H1222 H 0.91562 0.04506 0.5149 0.0
H1223 H 0.89099 0.07022 0.51908 0.0
C1224 C 0.81784 0.8398 0.47909 0.0
C1225 C 0.8217 0.82111 0.48663 0.0
C1226 C 0.83217 0.85426 0.47955 0.0
C1227 C 0.88495 0.86222 0.48353 0.0
H1228 H 0.87023 0.91268 0.50464 0.0
C1229 C 0.94216 0.92025 0.50379 0.0
C1230 C 0.93779 0.93978 0.49929 0.0
C1231 C 0.92791 0.90582 0.50196 0.0
C1232 C 0.87453 0.89877 0.49847 0.0
H1233 H 0.84372 0.80292 0.50038 0.0
H1234 H 0.86882 0.82809 0.50081 0.0
H1235 H 0.84556 0.88731 0.50086 0.0
H1236 H 0.91504 0.95947 0.48931 0.0
H1237 H 0.89033 0.93424 0.48579 0.0
H1238 H 0.91386 0.87367 0.48095 0.0
C1239 C 0.85473 0.83147 0.49446 0.0
C1240 C 0.86041 0.88426 0.49632 0.0
C1241 C 0.84037 0.81705 0.49414 0.0
C1242 C 0.91884 0.94459 0.49307 0.0
C1243 C 0.90464 0.93013 0.4911 0.0
C1244 C 0.89905 0.87678 0.48553 0.0
C1245 C 0.85068 0.85027 0.48741 0.0
C1246 C 0.86551 0.86584 0.48893 0.0
C1247 C 0.90904 0.91058 0.49546 0.0
C1248 C 0.89401 0.89518 0.49313 0.0
H1249 H 0.80371 0.84328 0.47291 0.0
H1250 H 0.82879 0.86859 0.47379 0.0
H1251 H 0.8892 0.84818 0.47761 0.0
H1252 H 0.95657 0.91608 0.50879 0.0
H1253 H 0.93166 0.89095 0.50578 0.0
C1254 C 0.16317 0.81951 0.48252 0.0
C1255 C 0.18122 0.82268 0.49179 0.0
C1256 C 0.14871 0.83384 0.48294 0.0
C1257 C 0.14099 0.88618 0.48885 0.0
H1258 H 0.08873 0.87151 0.50496 0.0
C1259 C 0.08205 0.94352 0.50551 0.0
C1260 C 0.06288 0.93942 0.49953 0.0
C1261 C 0.09646 0.92919 0.50442 0.0
C1262 C 0.10316 0.8758 0.50016 0.0
H1263 H 0.1982 0.8434 0.50878 0.0
H1264 H 0.17307 0.86858 0.50905 0.0
H1265 H 0.11407 0.84662 0.50261 0.0
H1266 H 0.04377 0.91718 0.48748 0.0
H1267 H 0.06901 0.89232 0.48514 0.0
H1268 H 0.13012 0.91527 0.48607 0.0
C1269 C 0.17021 0.85501 0.50143 0.0
C1270 C 0.11765 0.86156 0.49887 0.0
C1271 C 0.1846 0.84062 0.5012 0.0
C1272 C 0.05838 0.92072 0.49241 0.0
C1273 C 0.07283 0.90645 0.49113 0.0
C1274 C 0.12646 0.9004 0.48995 0.0
C1275 C 0.15211 0.85167 0.49244 0.0
C1276 C 0.13669 0.86666 0.4933 0.0
C1277 C 0.09203 0.91052 0.49712 0.0
C1278 C 0.10741 0.89538 0.49571 0.0
H1279 H 0.16022 0.80599 0.47486 0.0
H1280 H 0.13492 0.83105 0.47571 0.0
H1281 H 0.15554 0.8904 0.48432 0.0
H1282 H 0.08592 0.95776 0.51123 0.0
H1283 H 0.11102 0.93269 0.50949 0.0
C1284 C 0.51294 0.16122 0.18757 0.0
C1285 C 0.52069 0.17977 0.1834 0.0
C1286 C 0.51228 0.14682 0.17317 0.0
C1287 C 0.50943 0.14151 0.12039 0.0
H1288 H 0.52328 0.08752 0.13025 0.0
C1289 C 0.51003 0.08365 0.05939 0.0
C1290 C 0.50343 0.0648 0.06408 0.0
C1291 C 0.51255 0.09763 0.07399 0.0
C1292 C 0.51911 0.10249 0.12735 0.0
H1293 H 0.53466 0.1974 0.16111 0.0
H1294 H 0.5332 0.17227 0.13585 0.0
H1295 H 0.52783 0.11186 0.15591 0.0
H1296 H 0.49384 0.046 0.08771 0.0
H1297 H 0.4978 0.07056 0.11311 0.0
H1298 H 0.5003 0.13219 0.09204 0.0
C1299 C 0.52749 0.16902 0.15024 0.0
C1300 C 0.52181 0.11641 0.142 0.0
C1301 C 0.5283 0.18338 0.16468 0.0
C1302 C 0.4991 0.06034 0.08363 0.0
C1303 C 0.50149 0.07438 0.09821 0.0
C1304 C 0.50658 0.12758 0.1058 0.0
C1305 C 0.51923 0.15072 0.15429 0.0
C1306 C 0.51699 0.13603 0.13864 0.0
C1307 C 0.50839 0.09313 0.09357 0.0
C1308 C 0.51138 0.10791 0.10911 0.0
H1309 H 0.50667 0.15805 0.20173 0.0
H1310 H 0.50565 0.13288 0.1766 0.0
H1311 H 0.50529 0.1565 0.11755 0.0
H1312 H 0.51369 0.08752 0.0445 0.0
H1313 H 0.51817 0.11184 0.06996 0.0
C1314 C 0.84031 0.51191 0.18591 0.0
C1315 C 0.8211 0.50612 0.18158 0.0
C1316 C 0.85461 0.51178 0.17143 0.0
C1317 C 0.86128 0.51338 0.11845 0.0
H1318 H 0.91184 0.49056 0.1298 0.0
C1319 C 0.91888 0.49988 0.05875 0.0
C1320 C 0.93842 0.50391 0.06352 0.0
C1321 C 0.90449 0.50021 0.07315 0.0
C1322 C 0.89788 0.4972 0.12649 0.0
H1323 H 0.80188 0.49549 0.15872 0.0
H1324 H 0.82686 0.4955 0.13336 0.0
H1325 H 0.8868 0.49128 0.15508 0.0
H1326 H 0.95814 0.51172 0.08712 0.0
H1327 H 0.93298 0.51258 0.11213 0.0
H1328 H 0.87238 0.51948 0.08992 0.0
C1329 C 0.83075 0.50029 0.14793 0.0
C1330 C 0.88356 0.49758 0.14094 0.0
C1331 C 0.81647 0.50033 0.16244 0.0
C1332 C 0.94326 0.50836 0.08297 0.0
C1333 C 0.92885 0.50879 0.09734 0.0
C1334 C 0.87564 0.5131 0.10402 0.0
C1335 C 0.84995 0.50595 0.15233 0.0
C1336 C 0.86514 0.50565 0.13704 0.0
C1337 C 0.90933 0.50467 0.09259 0.0
C1338 C 0.89408 0.50499 0.10789 0.0
H1339 H 0.84424 0.51676 0.20045 0.0
H1340 H 0.86926 0.51645 0.17511 0.0
H1341 H 0.84725 0.5199 0.11516 0.0
H1342 H 0.91467 0.49626 0.04393 0.0
H1343 H 0.88961 0.49669 0.0691 0.0
C1344 C 0.51643 0.8415 0.18496 0.0
C1345 C 0.51074 0.82222 0.18082 0.0
C1346 C 0.51568 0.85578 0.17048 0.0
C1347 C 0.51492 0.8627 0.11742 0.0
H1348 H 0.49125 0.91256 0.1301 0.0
C1349 C 0.49756 0.9202 0.05865 0.0
C1350 C 0.50151 0.93978 0.06334 0.0
C1351 C 0.49861 0.90577 0.07298 0.0
C1352 C 0.49811 0.8988 0.12639 0.0
H1353 H 0.49982 0.80282 0.15825 0.0
H1354 H 0.49877 0.82776 0.13289 0.0
H1355 H 0.49386 0.88747 0.15518 0.0
H1356 H 0.50982 0.95954 0.08676 0.0
H1357 H 0.51192 0.93433 0.11161 0.0
H1358 H 0.51934 0.87405 0.08868 0.0
C1359 C 0.50394 0.83173 0.14731 0.0
C1360 C 0.49959 0.88446 0.14075 0.0
C1361 C 0.50459 0.81747 0.16181 0.0
C1362 C 0.50649 0.94462 0.08267 0.0
C1363 C 0.50764 0.93018 0.09695 0.0
C1364 C 0.51354 0.87709 0.10308 0.0
C1365 C 0.50933 0.85104 0.15156 0.0
C1366 C 0.50799 0.86628 0.13638 0.0
C1367 C 0.50373 0.91061 0.09226 0.0
C1368 C 0.50511 0.89528 0.10742 0.0
H1369 H 0.52153 0.84553 0.19938 0.0
H1370 H 0.52018 0.87052 0.17405 0.0
H1371 H 0.52166 0.84887 0.11375 0.0
H1372 H 0.49354 0.91598 0.04394 0.0
H1373 H 0.49523 0.89085 0.06898 0.0
C1374 C 0.16166 0.49014 0.18645 0.0
C1375 C 0.18093 0.49561 0.18205 0.0
C1376 C 0.14728 0.49055 0.17203 0.0
C1377 C 0.14036 0.48932 0.11902 0.0
H1378 H 0.09027 0.51303 0.13065 0.0
C1379 C 0.08317 0.5045 0.05941 0.0
C1380 C 0.06354 0.50076 0.06405 0.0
C1381 C 0.0975 0.50383 0.07387 0.0
C1382 C 0.10409 0.50614 0.12726 0.0
H1383 H 0.20022 0.50598 0.15915 0.0
H1384 H 0.17512 0.50645 0.1339 0.0
H1385 H 0.11533 0.51159 0.15591 0.0
H1386 H 0.0436 0.49316 0.08751 0.0
H1387 H 0.06865 0.49171 0.11262 0.0
H1388 H 0.12912 0.4837 0.09044 0.0
C1389 C 0.17121 0.50168 0.14847 0.0
C1390 C 0.11842 0.50535 0.1417 0.0
C1391 C 0.18557 0.50137 0.16291 0.0
C1392 C 0.05855 0.49631 0.08345 0.0
C1393 C 0.0729 0.49553 0.09788 0.0
C1394 C 0.126 0.49001 0.10461 0.0
C1395 C 0.15194 0.49634 0.15292 0.0
C1396 C 0.13669 0.49697 0.13769 0.0
C1397 C 0.09251 0.4993 0.09324 0.0
C1398 C 0.10773 0.49848 0.10856 0.0
H1399 H 0.15771 0.48534 0.20099 0.0
H1400 H 0.13257 0.48613 0.17576 0.0
H1401 H 0.15426 0.48256 0.11565 0.0
H1402 H 0.0875 0.50813 0.04463 0.0
H1403 H 0.11245 0.5071 0.0699 0.0
C1404 C 0.52784 0.82011 0.83938 0.0
C1405 C 0.52043 0.8235 0.82054 0.0
C1406 C 0.52707 0.83471 0.85358 0.0
C1407 C 0.52179 0.88755 0.8609 0.0
H1408 H 0.50009 0.8727 0.91106 0.0
C1409 C 0.49933 0.94459 0.91854 0.0
C1410 C 0.50357 0.94031 0.93816 0.0
C1411 C 0.50172 0.93039 0.90411 0.0
C1412 C 0.50642 0.87705 0.89724 0.0
H1413 H 0.50679 0.84506 0.80174 0.0
H1414 H 0.50581 0.87064 0.82645 0.0
H1415 H 0.50493 0.84796 0.88595 0.0
H1416 H 0.51378 0.91777 0.95798 0.0
H1417 H 0.51825 0.89318 0.9328 0.0
H1418 H 0.52345 0.91661 0.8722 0.0
C1419 C 0.51228 0.85669 0.83016 0.0
C1420 C 0.50919 0.86288 0.88287 0.0
C1421 C 0.5129 0.84205 0.81601 0.0
C1422 C 0.51016 0.9215 0.94304 0.0
C1423 C 0.51268 0.90737 0.9286 0.0
C1424 C 0.51917 0.90171 0.87533 0.0
C1425 C 0.51903 0.85304 0.84917 0.0
C1426 C 0.51684 0.86801 0.86456 0.0
C1427 C 0.50853 0.91165 0.90897 0.0
C1428 C 0.51139 0.89663 0.89364 0.0
H1429 H 0.53403 0.80608 0.84324 0.0
H1430 H 0.53265 0.83164 0.86806 0.0
H1431 H 0.52787 0.89183 0.84694 0.0
H1432 H 0.4941 0.9589 0.91431 0.0
H1433 H 0.49808 0.93405 0.88916 0.0
C1434 C 0.18639 0.48552 0.84115 0.0
C1435 C 0.18217 0.49129 0.82192 0.0
C1436 C 0.1719 0.48598 0.85546 0.0
C1437 C 0.11885 0.48602 0.8623 0.0
H1438 H 0.13101 0.50965 0.91234 0.0
C1439 C 0.05959 0.50342 0.91925 0.0
C1440 C 0.06406 0.49955 0.9389 0.0
C1441 C 0.07405 0.50223 0.90496 0.0
C1442 C 0.12746 0.50279 0.89854 0.0
H1443 H 0.15949 0.50211 0.8026 0.0
H1444 H 0.13415 0.50267 0.82757 0.0
H1445 H 0.15627 0.50733 0.88737 0.0
H1446 H 0.08721 0.49125 0.95894 0.0
H1447 H 0.11231 0.48892 0.93397 0.0
H1448 H 0.09008 0.48135 0.87347 0.0
C1449 C 0.14861 0.49763 0.8315 0.0
C1450 C 0.14191 0.50148 0.88426 0.0
C1451 C 0.16311 0.49727 0.81722 0.0
C1452 C 0.08329 0.49449 0.94396 0.0
C1453 C 0.09772 0.49322 0.92966 0.0
C1454 C 0.10442 0.48724 0.87661 0.0
C1455 C 0.15292 0.49212 0.85076 0.0
C1456 C 0.13771 0.49313 0.866 0.0
C1457 C 0.09325 0.49707 0.91002 0.0
C1458 C 0.10857 0.49568 0.89486 0.0
H1459 H 0.20086 0.48056 0.84514 0.0
H1460 H 0.17551 0.48141 0.87016 0.0
H1461 H 0.11531 0.47931 0.8484 0.0
H1462 H 0.04496 0.5075 0.91486 0.0
H1463 H 0.07024 0.50558 0.88998 0.0
C1464 C 0.52569 0.16009 0.81562 0.0
C1465 C 0.53525 0.17772 0.82002 0.0
C1466 C 0.52326 0.14582 0.82989 0.0
C1467 C 0.53958 0.13014 0.87903 0.0
H1468 H 0.4887 0.10524 0.88016 0.0
C1469 C 0.51272 0.08361 0.94384 0.0
C1470 C 0.5048 0.06532 0.93891 0.0
C1471 C 0.51655 0.0974 0.92936 0.0
C1472 C 0.50301 0.11199 0.87992 0.0
H1473 H 0.55064 0.1937 0.84266 0.0
H1474 H 0.54576 0.16904 0.86781 0.0
H1475 H 0.49613 0.12881 0.85462 0.0
H1476 H 0.49421 0.04735 0.91502 0.0
H1477 H 0.50072 0.07159 0.88978 0.0
H1478 H 0.54621 0.1135 0.90466 0.0
C1479 C 0.54036 0.16617 0.85322 0.0
C1480 C 0.50733 0.1254 0.86526 0.0
C1481 C 0.54297 0.1804 0.83886 0.0
C1482 C 0.50036 0.06129 0.91928 0.0
C1483 C 0.504 0.07517 0.90484 0.0
C1484 C 0.53518 0.11684 0.89381 0.0
C1485 C 0.5301 0.14891 0.84898 0.0
C1486 C 0.5257 0.13456 0.86457 0.0
C1487 C 0.51234 0.09324 0.90974 0.0
C1488 C 0.51688 0.10761 0.89433 0.0
H1489 H 0.51932 0.15758 0.80136 0.0
H1490 H 0.51564 0.13251 0.82604 0.0
H1491 H 0.55393 0.13677 0.87878 0.0
H1492 H 0.51645 0.08713 0.95881 0.0
H1493 H 0.52283 0.11132 0.9335 0.0
C1494 C 0.83999 0.50444 0.81637 0.0
C1495 C 0.82093 0.51046 0.82102 0.0
C1496 C 0.85451 0.50428 0.83065 0.0
C1497 C 0.86128 0.50121 0.88344 0.0
H1498 H 0.91298 0.52152 0.87247 0.0
C1499 C 0.91959 0.50966 0.94323 0.0
C1500 C 0.93887 0.50462 0.93836 0.0
C1501 C 0.90523 0.51062 0.92884 0.0
C1502 C 0.89868 0.51558 0.87567 0.0
H1503 H 0.80226 0.52149 0.84412 0.0
H1504 H 0.82763 0.521 0.86913 0.0
H1505 H 0.88777 0.52297 0.84733 0.0
H1506 H 0.95816 0.49643 0.91454 0.0
H1507 H 0.93299 0.4978 0.88949 0.0
H1508 H 0.87217 0.49359 0.91167 0.0
C1509 C 0.83123 0.51623 0.85448 0.0
C1510 C 0.88427 0.51646 0.86131 0.0
C1511 C 0.81673 0.51648 0.84018 0.0
C1512 C 0.94347 0.5005 0.91878 0.0
C1513 C 0.92908 0.50136 0.9044 0.0
C1514 C 0.8757 0.50024 0.89777 0.0
C1515 C 0.85022 0.51005 0.84985 0.0
C1516 C 0.86544 0.5093 0.86508 0.0
C1517 C 0.90982 0.50646 0.90928 0.0
C1518 C 0.89455 0.50743 0.89404 0.0
H1519 H 0.8436 0.49941 0.80181 0.0
H1520 H 0.86898 0.49922 0.82677 0.0
H1521 H 0.84694 0.49533 0.88662 0.0
H1522 H 0.91557 0.5131 0.95814 0.0
H1523 H 0.89059 0.51488 0.933 0.0
C1524 C 0.66278 0.68462 0.02343 0.0
C1525 C 0.68132 0.68109 0.01536 0.0
C1526 C 0.64846 0.67014 0.0231 0.0
C1527 C 0.64105 0.61735 0.01871 0.0
H1528 H 0.58989 0.6316 0.99904 0.0
C1529 C 0.58318 0.55962 0.9993 0.0
C1530 C 0.56369 0.56378 0.00413 0.0
C1531 C 0.59752 0.57398 1.00103 0.0
C1532 C 0.604 0.62742 0.00482 0.0
H1533 H 0.69937 0.65949 1.00075 0.0
H1534 H 0.67447 0.63413 1.00057 0.0
H1535 H 0.61503 0.65655 0.00241 0.0
H1536 H 0.54398 0.58623 0.01478 0.0
H1537 H 0.56904 0.61111 0.01815 0.0
H1538 H 0.63004 0.58828 0.02133 0.0
C1539 C 0.6711 0.64808 0.00723 0.0
C1540 C 0.61838 0.64171 0.00673 0.0
C1541 C 0.68537 0.6626 0.0074 0.0
C1542 C 0.55883 0.5826 0.01071 0.0
C1543 C 0.57319 0.5969 0.0126 0.0
C1544 C 0.62662 0.60308 0.01696 0.0
C1545 C 0.65246 0.6518 0.01485 0.0
C1546 C 0.63705 0.63678 0.01359 0.0
C1547 C 0.5927 0.59275 0.0078 0.0
C1548 C 0.60797 0.60794 0.0099 0.0
H1549 H 0.6593 0.6986 0.02996 0.0
H1550 H 0.63424 0.67326 0.0293 0.0
H1551 H 0.65529 0.61323 0.02422 0.0
H1552 H 0.58738 0.5453 0.99405 0.0
H1553 H 0.61236 0.57041 0.99689 0.0
C1554 C 0.31864 0.66307 0.02592 0.0
C1555 C 0.32226 0.68154 0.01774 0.0
C1556 C 0.333 0.64863 0.02554 0.0
C1557 C 0.38568 0.64069 0.02071 0.0
H1558 H 0.37082 0.5898 1.00078 0.0
C1559 C 0.44282 0.58271 1.00017 0.0
C1560 C 0.43864 0.5632 0.00487 0.0
C1561 C 0.42854 0.59709 0.00217 0.0
C1562 C 0.37516 0.60383 0.00664 0.0
H1563 H 0.34391 0.69934 0.00292 0.0
H1564 H 0.36906 0.67425 0.00269 0.0
H1565 H 0.34609 0.6151 0.00461 0.0
H1566 H 0.4162 0.54348 0.01547 0.0
H1567 H 0.39145 0.56861 0.01932 0.0
H1568 H 0.4147 0.62945 0.02294 0.0
C1569 C 0.35514 0.67102 0.00946 0.0
C1570 C 0.36101 0.6183 0.00881 0.0
C1571 C 0.34074 0.68541 0.00967 0.0
C1572 C 0.41985 0.55835 0.01153 0.0
C1573 C 0.40562 0.57275 0.01368 0.0
C1574 C 0.39982 0.62618 0.0187 0.0
C1575 C 0.35131 0.65244 0.01715 0.0
C1576 C 0.36617 0.63689 0.01575 0.0
C1577 C 0.40982 0.59229 0.00907 0.0
C1578 C 0.39474 0.60762 0.01152 0.0
H1579 H 0.30468 0.65973 0.03253 0.0
H1580 H 0.3298 0.63446 0.03178 0.0
H1581 H 0.38997 0.65487 0.02627 0.0
H1582 H 0.45711 0.5869 0.99484 0.0
H1583 H 0.43213 0.61195 0.99814 0.0
C1584 C 0.33842 0.31857 0.01613 0.0
C1585 C 0.32041 0.32177 0.00681 0.0
C1586 C 0.35297 0.33279 0.01563 0.0
C1587 C 0.36076 0.38504 0.00983 0.0
H1588 H 0.4133 0.37039 0.99462 0.0
C1589 C 0.42013 0.44242 0.99525 0.0
C1590 C 0.43913 0.43822 0.00171 0.0
C1591 C 0.4057 0.42808 0.99574 0.0
C1592 C 0.39877 0.37467 0.99916 0.0
H1593 H 0.30362 0.34239 0.98955 0.0
H1594 H 0.32892 0.36741 0.98912 0.0
H1595 H 0.38787 0.34552 0.99627 0.0
H1596 H 0.4579 0.41581 0.01392 0.0
H1597 H 0.43259 0.39093 0.01521 0.0
H1598 H 0.37161 0.41408 0.01311 0.0
C1599 C 0.33167 0.35389 0.99684 0.0
C1600 C 0.38424 0.36045 1.00004 0.0
C1601 C 0.31719 0.3396 0.99717 0.0
C1602 C 0.44343 0.41942 0.00865 0.0
C1603 C 0.42894 0.40514 0.00932 0.0
C1604 C 0.37532 0.39923 0.00915 0.0
C1605 C 0.3497 0.35055 0.00598 0.0
C1606 C 0.36512 0.36554 0.00532 0.0
C1607 C 0.40991 0.40933 0.00288 0.0
C1608 C 0.39448 0.39422 0.00373 0.0
H1609 H 0.34123 0.30514 0.02398 0.0
H1610 H 0.3667 0.33001 0.02297 0.0
H1611 H 0.34613 0.38925 0.01416 0.0
H1612 H 0.41643 0.45673 0.98965 0.0
H1613 H 0.39128 0.43167 0.99033 0.0
C1614 C 0.66234 0.31655 0.01057 0.0
C1615 C 0.68088 0.32074 0.01835 0.0
C1616 C 0.64785 0.33084 0.01016 0.0
C1617 C 0.64186 0.38354 0.00831 0.0
H1618 H 0.58822 0.37266 0.0228 0.0
C1619 C 0.58311 0.44355 0.01062 0.0
C1620 C 0.56427 0.43866 0.00413 0.0
C1621 C 0.59733 0.42916 0.0128 0.0
C1622 C 0.60309 0.37585 0.01846 0.0
H1623 H 0.69846 0.343 0.0325 0.0
H1624 H 0.67317 0.36808 0.03144 0.0
H1625 H 0.61298 0.34733 0.02656 0.0
H1626 H 0.54571 0.41488 0.99439 0.0
H1627 H 0.57069 0.38983 0.99775 0.0
H1628 H 0.632 0.41187 0.9998 0.0
C1629 C 0.66999 0.35375 0.02555 0.0
C1630 C 0.61725 0.36138 0.02071 0.0
C1631 C 0.68445 0.33941 0.02611 0.0
C1632 C 0.56004 0.41911 0.99959 0.0
C1633 C 0.57432 0.40473 0.00162 0.0
C1634 C 0.62769 0.39796 0.00592 0.0
C1635 C 0.65165 0.34964 0.01737 0.0
C1636 C 0.63674 0.36511 0.01564 0.0
C1637 C 0.59308 0.40958 0.00839 0.0
C1638 C 0.60814 0.39426 0.01094 0.0
H1639 H 0.65921 0.30243 0.00417 0.0
H1640 H 0.63389 0.32737 0.00358 0.0
H1641 H 0.65675 0.38667 0.00401 0.0
H1642 H 0.5868 0.45845 0.01444 0.0
H1643 H 0.61155 0.43334 0.01832 0.0
C1644 C 0.97764 0.66058 0.686 0.0
C1645 C 0.98336 0.6798 0.68171 0.0
C1646 C 0.97846 0.64614 0.67165 0.0
C1647 C 0.98037 0.63844 0.61862 0.0
H1648 H 0.00537 0.58952 0.63233 0.0
C1649 C 0.00251 0.58192 0.56062 0.0
C1650 C 0.99907 0.56218 0.56497 0.0
C1651 C 1.00029 0.59619 0.57498 0.0
C1652 C 0.99813 0.603 0.62834 0.0
H1653 H 0.99425 0.699 0.65898 0.0
H1654 H 0.99542 0.67381 0.63388 0.0
H1655 H 1.00102 0.61464 0.6572 0.0
H1656 H 0.99059 0.54194 0.58788 0.0
H1657 H 0.9865 0.56688 0.61281 0.0
H1658 H 0.97739 0.62682 0.58979 0.0
C1659 C 0.99016 0.66998 0.6483 0.0
C1660 C 0.99564 0.61735 0.64257 0.0
C1661 C 0.98944 0.6844 0.66266 0.0
C1662 C 0.99353 0.557 0.58405 0.0
C1663 C 0.99123 0.57128 0.59837 0.0
C1664 C 0.98276 0.62405 0.60441 0.0
C1665 C 0.98491 0.65068 0.65273 0.0
C1666 C 0.98683 0.63523 0.63781 0.0
C1667 C 0.9945 0.59103 0.59397 0.0
C1668 C 0.99176 0.60622 0.6091 0.0
H1669 H 0.9726 0.65667 0.70047 0.0
H1670 H 0.97407 0.63141 0.67535 0.0
H1671 H 0.97332 0.65203 0.61465 0.0
H1672 H 0.00692 0.58642 0.54611 0.0
H1673 H 0.00323 0.61127 0.57124 0.0
C1674 C 0.33948 0.0104 0.6863 0.0
C1675 C 0.32028 0.00463 0.68195 0.0
C1676 C 0.35387 0.00996 0.6719 0.0
C1677 C 0.36077 0.01074 0.61894 0.0
H1678 H 0.41135 0.98826 0.6309 0.0
C1679 C 0.41884 0.99693 0.55979 0.0
C1680 C 0.43829 0.00127 0.56463 0.0
C1681 C 0.40436 0.9972 0.5741 0.0
C1682 C 0.39738 0.99479 0.62741 0.0
H1683 H 0.30113 0.9937 0.65917 0.0
H1684 H 0.32626 0.99317 0.63395 0.0
H1685 H 0.38614 0.98924 0.65603 0.0
H1686 H 0.45777 0.00956 0.58828 0.0
H1687 H 0.43245 0.01032 0.61313 0.0
H1688 H 0.37202 0.01649 0.5904 0.0
C1689 C 0.3301 0.99818 0.64847 0.0
C1690 C 0.38297 0.99533 0.64177 0.0
C1691 C 0.31573 0.99852 0.66288 0.0
C1692 C 0.44296 0.00595 0.58407 0.0
C1693 C 0.42846 0.00632 0.59835 0.0
C1694 C 0.37521 0.0103 0.6046 0.0
C1695 C 0.34929 0.00384 0.65287 0.0
C1696 C 0.36454 0.0033 0.63766 0.0
C1697 C 0.40902 0.00193 0.59351 0.0
C1698 C 0.39366 0.00232 0.60869 0.0
H1699 H 0.34336 0.01547 0.70078 0.0
H1700 H 0.36852 0.01464 0.67559 0.0
H1701 H 0.34675 0.01719 0.61548 0.0
H1702 H 0.41477 0.99311 0.54498 0.0
H1703 H 0.38955 0.99348 0.56999 0.0
C1704 C 0.00829 0.33885 0.68513 0.0
C1705 C 0.01637 0.32037 0.68128 0.0
C1706 C 0.00794 0.35317 0.67069 0.0
C1707 C 0.00705 0.35906 0.61796 0.0
H1708 H 0.0217 0.4126 0.6292 0.0
C1709 C 0.00996 0.41818 0.55824 0.0
C1710 C 0.00353 0.43701 0.56327 0.0
C1711 C 0.01202 0.40384 0.57254 0.0
C1712 C 0.01731 0.39777 0.6259 0.0
H1713 H 0.03091 0.30265 0.65937 0.0
H1714 H 0.0299 0.32765 0.63398 0.0
H1715 H 0.02498 0.38779 0.65451 0.0
H1716 H 0.99374 0.45541 0.58717 0.0
H1717 H 0.99686 0.43023 0.61201 0.0
H1718 H 0.99893 0.36903 0.58953 0.0
C1719 C 0.02379 0.33092 0.6482 0.0
C1720 C 0.01929 0.38358 0.64036 0.0
C1721 C 0.02431 0.31663 0.66271 0.0
C1722 C 0.9989 0.4411 0.58284 0.0
C1723 C 1.00079 0.4267 0.5971 0.0
C1724 C 0.00491 0.37328 0.60354 0.0
C1725 C 0.01549 0.34926 0.65205 0.0
C1726 C 0.01413 0.36413 0.63652 0.0
C1727 C 0.00752 0.40796 0.59214 0.0
C1728 C 0.00996 0.3928 0.60737 0.0
H1729 H 0.0017 0.3421 0.69914 0.0
H1730 H 0.00123 0.36712 0.67393 0.0
H1731 H 0.00271 0.3442 0.61474 0.0
H1732 H 0.01384 0.4146 0.54333 0.0
H1733 H 0.0175 0.38963 0.56827 0.0
C1734 C 0.68556 0.98644 0.66311 0.0
C1735 C 0.68153 0.97821 0.68148 0.0
C1736 C 0.67117 0.98717 0.64872 0.0
C1737 C 0.6185 0.98948 0.6432 0.0
H1738 H 0.62893 0.97666 0.58902 0.0
C1739 C 0.55828 0.99052 0.58447 0.0
C1740 C 0.56332 0.99742 0.56581 0.0
C1741 C 0.57263 0.9876 0.59862 0.0
C1742 C 0.62587 0.98054 0.60405 0.0
H1743 H 0.65944 0.96355 0.69883 0.0
H1744 H 0.63416 0.96521 0.67373 0.0
H1745 H 0.65432 0.97169 0.61352 0.0
H1746 H 0.58732 0.00715 0.54755 0.0
H1747 H 0.61227 0.00253 0.57242 0.0
H1748 H 0.59027 0.99881 0.63378 0.0
C1749 C 0.64847 0.97119 0.67061 0.0
C1750 C 0.64036 0.97759 0.61806 0.0
C1751 C 0.66292 0.97028 0.68496 0.0
C1752 C 0.58296 0.00167 0.56173 0.0
C1753 C 0.59729 0.99891 0.57595 0.0
C1754 C 0.60406 0.9926 0.62918 0.0
C1755 C 0.65242 0.97985 0.65246 0.0
C1756 C 0.63682 0.98208 0.63774 0.0
C1757 C 0.59231 0.99166 0.5945 0.0
C1758 C 0.6076 0.98822 0.60943 0.0
H1759 H 0.69961 0.99301 0.66005 0.0
H1760 H 0.67451 0.99414 0.63492 0.0
H1761 H 0.61552 0.99335 0.65826 0.0
H1762 H 0.54331 0.98691 0.58804 0.0
H1763 H 0.56833 0.98175 0.61267 0.0
C1764 C 0.96768 0.32039 0.33852 0.0
C1765 C 0.9751 0.324 0.31973 0.0
C1766 C 0.9684 0.33486 0.35286 0.0
C1767 C 0.97435 0.38754 0.36109 0.0
H1768 H 0.99738 0.37144 0.41027 0.0
C1769 C 1.0004 0.44311 0.41861 0.0
C1770 C 0.99678 0.43868 0.43832 0.0
C1771 C 0.99705 0.42918 0.40411 0.0
C1772 C 0.99067 0.37614 0.39675 0.0
H1773 H 0.9885 0.34584 0.30108 0.0
H1774 H 0.98942 0.37116 0.32605 0.0
H1775 H 0.99124 0.34723 0.38495 0.0
H1776 H 0.98669 0.41617 0.45823 0.0
H1777 H 0.98057 0.39206 0.43294 0.0
H1778 H 0.97368 0.41644 0.3729 0.0
C1779 C 0.983 0.35716 0.32963 0.0
C1780 C 0.98715 0.36227 0.38226 0.0
C1781 C 0.98241 0.34266 0.31532 0.0
C1782 C 0.98986 0.42 0.44322 0.0
C1783 C 0.98638 0.40614 0.42871 0.0
C1784 C 0.97772 0.40141 0.37565 0.0
C1785 C 0.97641 0.35323 0.34863 0.0
C1786 C 0.97906 0.36785 0.36427 0.0
C1787 C 0.98988 0.41059 0.40899 0.0
C1788 C 0.98603 0.39587 0.3936 0.0
H1789 H 0.96163 0.30627 0.34226 0.0
H1790 H 0.96295 0.33158 0.36734 0.0
H1791 H 0.96795 0.39217 0.34739 0.0
H1792 H 0.00584 0.45733 0.41435 0.0
H1793 H 1.00021 0.43294 0.38908 0.0
C1794 C 0.66269 0.99948 0.31816 0.0
C1795 C 0.68181 0.99356 0.32266 0.0
C1796 C 0.64835 0.99986 0.3326 0.0
C1797 C 0.64204 0.00365 0.38544 0.0
H1798 H 0.59042 0.98279 0.37505 0.0
C1799 C 0.58386 0.99557 0.44555 0.0
C1800 C 0.56449 1.00018 0.44058 0.0
C1801 C 0.59827 0.9947 0.43119 0.0
C1802 C 0.60469 0.98889 0.37808 0.0
H1803 H 0.7008 0.98301 0.34572 0.0
H1804 H 0.67574 0.98391 0.37103 0.0
H1805 H 0.61546 0.98115 0.34978 0.0
H1806 H 0.54516 0.00786 0.41663 0.0
H1807 H 0.57037 0.00665 0.39168 0.0
H1808 H 0.63126 0.01162 0.41363 0.0
C1809 C 0.67195 0.98841 0.35635 0.0
C1810 C 0.61901 0.9879 0.36365 0.0
C1811 C 0.68627 0.98793 0.34188 0.0
C1812 C 0.55989 0.00409 0.42096 0.0
C1813 C 0.57432 0.00332 0.40663 0.0
C1814 C 0.62769 0.00474 0.39984 0.0
C1815 C 0.65289 0.99443 0.35184 0.0
C1816 C 0.6378 0.99527 0.3672 0.0
C1817 C 0.59363 0.99851 0.41158 0.0
C1818 C 0.60887 0.99738 0.39631 0.0
H1819 H 0.65888 0.00423 0.30356 0.0
H1820 H 0.63381 0.00481 0.32881 0.0
H1821 H 0.65635 0.00968 0.38843 0.0
H1822 H 0.5879 0.99234 0.4605 0.0
H1823 H 0.61297 0.9907 0.43542 0.0
C1824 C 0.02253 0.6622 0.31861 0.0
C1825 C 0.01646 0.68133 0.32285 0.0
C1826 C 0.0223 0.64789 0.33307 0.0
C1827 C 0.02159 0.64049 0.38614 0.0
H1828 H 0.9974 0.59099 0.373 0.0
C1829 C 0.00196 0.58321 0.44443 0.0
C1830 C 0.00541 0.56353 0.43976 0.0
C1831 C 0.00381 0.59765 0.4302 0.0
C1832 C 0.00443 0.60463 0.37683 0.0
H1833 H 0.0056 0.70051 0.34564 0.0
H1834 H 0.00543 0.67553 0.37096 0.0
H1835 H 1.00057 0.61613 0.34807 0.0
H1836 H 0.01378 0.54362 0.41649 0.0
H1837 H 0.01726 0.56883 0.39182 0.0
H1838 H 0.02553 0.62897 0.41489 0.0
C1839 C 0.0105 0.67168 0.35647 0.0
C1840 C 0.00624 0.61901 0.36256 0.0
C1841 C 0.01063 0.68598 0.34198 0.0
C1842 C 0.01079 0.55861 0.42056 0.0
C1843 C 0.01274 0.57305 0.40638 0.0
C1844 C 0.01988 0.62606 0.4004 0.0
C1845 C 0.01609 0.65246 0.35207 0.0
C1846 C 0.01477 0.63708 0.3671 0.0
C1847 C 0.00926 0.59272 0.41104 0.0
C1848 C 0.01123 0.608 0.39591 0.0
H1849 H 0.02742 0.65827 0.30408 0.0
H1850 H 0.02695 0.63322 0.3294 0.0
H1851 H 0.0284 0.65425 0.38994 0.0
H1852 H 0.99769 0.58749 0.45906 0.0
H1853 H 1.00075 0.61265 0.43416 0.0
C1854 C 0.34065 0.00282 0.31726 0.0
C1855 C 0.32157 0.00871 0.32201 0.0
C1856 C 0.35516 0.00245 0.33154 0.0
C1857 C 0.36194 0.99855 0.38431 0.0
H1858 H 0.41352 0.01938 0.37374 0.0
C1859 C 0.41992 0.0069 0.44442 0.0
C1860 C 0.4393 0.00218 0.43959 0.0
C1861 C 0.40562 0.00781 0.42997 0.0
C1862 C 0.39926 0.01328 0.37682 0.0
H1863 H 0.30286 0.01927 0.34531 0.0
H1864 H 0.32823 0.01839 0.37031 0.0
H1865 H 0.38836 0.02097 0.34855 0.0
H1866 H 0.4588 0.99448 0.41579 0.0
H1867 H 0.43374 0.99576 0.39063 0.0
H1868 H 0.37282 0.99064 0.41247 0.0
C1869 C 0.33184 0.01389 0.35558 0.0
C1870 C 0.38487 0.01425 0.36243 0.0
C1871 C 0.31735 0.01436 0.34128 0.0
C1872 C 0.44404 0.9983 0.42 0.0
C1873 C 0.4297 0.99911 0.40556 0.0
C1874 C 0.37634 0.99749 0.39866 0.0
C1875 C 0.35085 0.00785 0.35084 0.0
C1876 C 0.36609 0.00692 0.36607 0.0
C1877 C 0.41036 0.00391 0.41039 0.0
C1878 C 0.39514 0.00488 0.39508 0.0
H1879 H 0.34427 0.99809 0.30261 0.0
H1880 H 0.36965 0.99751 0.32757 0.0
H1881 H 0.34764 0.99253 0.38737 0.0
H1882 H 0.41578 0.01016 0.45934 0.0
H1883 H 0.39091 0.01185 0.4341 0.0
C1884 C 0.02734 0.1582 0.31249 0.0
C1885 C 0.00999 0.16565 0.3044 0.0
C1886 C 0.0268 0.14587 0.32878 0.0
C1887 C 0.99531 0.13221 0.37065 0.0
H1888 H 0.02997 0.08766 0.37432 0.0
C1889 C 0.00177 0.08392 0.44065 0.0
C1890 C 0.00251 0.06365 0.43736 0.0
C1891 C 0.00307 0.09706 0.42494 0.0
C1892 C 0.02014 0.10002 0.37352 0.0
H1893 H 0.97844 0.16571 0.30709 0.0
H1894 H 0.9775 0.14389 0.33519 0.0
H1895 H 0.03104 0.10838 0.34546 0.0
H1896 H 0.0052 0.04147 0.41472 0.0
H1897 H 0.00728 0.06414 0.3878 0.0
H1898 H 0.98414 0.12352 0.39859 0.0
C1899 C 0.99155 0.14779 0.32908 0.0
C1900 C 0.02088 0.11202 0.35703 0.0
C1901 C 0.99208 0.16005 0.31274 0.0
C1902 C 0.00457 0.05693 0.41801 0.0
C1903 C 0.00594 0.06997 0.40245 0.0
C1904 C 0.99461 0.12022 0.38721 0.0
C1905 C 0.00891 0.14072 0.33747 0.0
C1906 C 0.00836 0.12818 0.35527 0.0
C1907 C 0.0053 0.0902 0.40565 0.0
C1908 C 0.00687 0.10383 0.38875 0.0
H1909 H 0.04138 0.16213 0.30638 0.0
H1910 H 0.04047 0.1408 0.33489 0.0
H1911 H 0.98565 0.1447 0.36992 0.0
H1912 H 1.0002 0.08965 0.45531 0.0
H1913 H 0.00262 0.11258 0.42792 0.0
C1914 C 0.83186 0.01774 0.32134 0.0
C1915 C 0.83808 0.01019 0.30324 0.0
C1916 C 0.84394 0.01689 0.33779 0.0
C1917 C 0.8954 0.01163 0.35299 0.0
H1918 H 0.8732 0.99693 0.40298 0.0
C1919 C 0.94455 0.99553 0.419 0.0
C1920 C 0.93873 0.00204 0.43761 0.0
C1921 C 0.93178 0.99628 0.40314 0.0
C1922 C 0.87961 0.00131 0.38921 0.0
H1923 H 0.86206 0.99591 0.28835 0.0
H1924 H 0.88321 0.9944 0.31714 0.0
H1925 H 0.85226 0.99885 0.37417 0.0
H1926 H 0.91455 0.01399 0.45416 0.0
H1927 H 0.89218 0.01561 0.42623 0.0
H1928 H 0.92267 0.01432 0.36793 0.0
C1929 C 0.86896 1.0011 0.31851 0.0
C1930 C 0.8676 0.00237 0.37266 0.0
C1931 C 0.8568 0.00185 0.30204 0.0
C1932 C 0.91951 0.00883 0.44004 0.0
C1933 C 0.90669 0.00972 0.42402 0.0
C1934 C 0.90737 0.01068 0.36952 0.0
C1935 C 0.86262 0.0085 0.33664 0.0
C1936 C 0.87536 0.00745 0.35431 0.0
C1937 C 0.91278 0.00371 0.40528 0.0
C1938 C 0.8997 0.00535 0.38786 0.0
H1939 H 0.81741 0.02396 0.32295 0.0
H1940 H 0.83864 0.02289 0.35143 0.0
H1941 H 0.90181 0.01594 0.33919 0.0
H1942 H 0.95911 0.98985 0.41658 0.0
H1943 H 0.93688 0.99098 0.38913 0.0
C1944 C 0.01619 0.83372 0.3219 0.0
C1945 C 0.00802 0.83906 0.30381 0.0
C1946 C 0.0146 0.84596 0.33817 0.0
C1947 C 0.00664 0.89711 0.35252 0.0
H1948 H 0.99419 0.87502 0.40317 0.0
C1949 C 0.99186 0.94649 0.41888 0.0
C1950 C 0.99901 0.94075 0.43727 0.0
C1951 C 0.99225 0.93369 0.40301 0.0
C1952 C 0.99793 0.88142 0.38921 0.0
H1953 H 0.99171 0.86155 0.28872 0.0
H1954 H 0.989 0.8831 0.3172 0.0
H1955 H 0.99618 0.8538 0.37458 0.0
H1956 H 0.01182 0.91679 0.45344 0.0
H1957 H 0.01289 0.89442 0.42553 0.0
H1958 H 0.00877 0.92465 0.36707 0.0
C1959 C 0.99673 0.86939 0.3187 0.0
C1960 C 0.99901 0.86925 0.37278 0.0
C1961 C 0.99818 0.85702 0.30242 0.0
C1962 C 0.00614 0.92164 0.4395 0.0
C1963 C 0.0067 0.90882 0.42348 0.0
C1964 C 0.0057 0.90926 0.36894 0.0
C1965 C 0.00486 0.86395 0.33681 0.0
C1966 C 0.00335 0.87695 0.35423 0.0
C1967 C 0.99998 0.91478 0.40494 0.0
C1968 C 0.00125 0.90162 0.38753 0.0
H1969 H 0.02356 0.81984 0.32363 0.0
H1970 H 0.02118 0.84139 0.3518 0.0
H1971 H 0.01034 0.90348 0.33853 0.0
H1972 H 0.98595 0.96098 0.41666 0.0
H1973 H 0.98643 0.93868 0.38918 0.0
C1974 C 0.16979 0.98677 0.32208 0.0
C1975 C 0.16367 0.9936 0.30368 0.0
C1976 C 0.15745 0.98784 0.33831 0.0
C1977 C 0.10569 0.99226 0.35266 0.0
H1978 H 0.12697 0.00878 0.40252 0.0
C1979 C 0.05561 0.00825 0.41819 0.0
C1980 C 0.06165 0.00242 0.43696 0.0
C1981 C 0.0684 0.00749 0.40234 0.0
C1982 C 0.12082 0.00389 0.38879 0.0
H1983 H 0.13959 0.00686 0.28802 0.0
H1984 H 0.11797 0.00875 0.31644 0.0
H1985 H 0.14823 0.00677 0.37398 0.0
H1986 H 0.08619 0.99158 0.45374 0.0
H1987 H 0.10857 0.98996 0.42589 0.0
H1988 H 0.07835 0.98916 0.3674 0.0
C1989 C 0.13236 0.00243 0.31822 0.0
C1990 C 0.13302 0.00278 0.37239 0.0
C1991 C 0.14478 0.00147 0.30195 0.0
C1992 C 0.08106 0.99623 0.43952 0.0
C1993 C 0.0939 0.99535 0.42353 0.0
C1994 C 0.09352 0.99328 0.36905 0.0
C1995 C 0.1386 0.99574 0.33664 0.0
C1996 C 0.12559 0.997 0.35409 0.0
C1997 C 0.08764 1.00075 0.40466 0.0
C1998 C 0.10087 0.99922 0.38734 0.0
H1999 H 0.18435 0.98094 0.32409 0.0
H2000 H 0.16269 0.98237 0.3522 0.0
H2001 H 0.09954 0.98744 0.3389 0.0
H2002 H 0.04089 0.01343 0.41565 0.0
H2003 H 0.06316 0.01228 0.38821 0.0
C2004 C 0.98563 0.83287 0.67993 0.0
C2005 C 0.99352 0.8383 0.69813 0.0
C2006 C 0.98725 0.84514 0.66371 0.0
C2007 C 0.99459 0.89644 0.64964 0.0
H2008 H 0.00754 0.87468 0.59894 0.0
C2009 C 0.00886 0.94623 0.58357 0.0
C2010 C 0.00191 0.94045 0.5651 0.0
C2011 C 0.00858 0.93338 0.59937 0.0
C2012 C 0.00366 0.88099 0.61291 0.0
H2013 H 0.00942 0.86096 0.71344 0.0
H2014 H 0.01219 0.88255 0.68503 0.0
H2015 H 0.00577 0.85335 0.62743 0.0
H2016 H 0.98957 0.91634 0.54875 0.0
H2017 H 0.98869 0.89387 0.57656 0.0
H2018 H 0.99208 0.92398 0.63521 0.0
C2019 C 0.00465 0.86875 0.68341 0.0
C2020 C 0.00271 0.86875 0.62928 0.0
C2021 C 0.00317 0.85635 0.69966 0.0
C2022 C 0.99509 0.92124 0.56275 0.0
C2023 C 0.99463 0.90836 0.57871 0.0
C2024 C 0.99539 0.90864 0.63328 0.0
C2025 C 0.99675 0.86325 0.66521 0.0
C2026 C 0.99818 0.87633 0.64786 0.0
C2027 C 0.00116 0.91436 0.59732 0.0
C2028 C 1.00002 0.90113 0.61467 0.0
H2029 H 0.9784 0.81893 0.6781 0.0
H2030 H 0.98085 0.84051 0.65 0.0
H2031 H 0.99073 0.90271 0.66365 0.0
H2032 H 0.01454 0.9608 0.5859 0.0
H2033 H 0.01424 0.93843 0.61325 0.0
C2034 C 0.14429 0.00161 0.70068 0.0
C2035 C 0.16267 0.01068 0.69949 0.0
C2036 C 0.13217 1.0004 0.68419 0.0
C2037 C 0.13341 0.00185 0.63005 0.0
H2038 H 0.07808 0.01252 0.63484 0.0
C2039 C 0.08154 0.00799 0.56267 0.0
C2040 C 0.06241 1.00092 0.56496 0.0
C2041 C 0.09431 0.00886 0.57872 0.0
C2042 C 0.09345 0.00922 0.63323 0.0
H2043 H 0.18284 0.02516 0.6798 0.0
H2044 H 0.1617 0.02326 0.65129 0.0
H2045 H 0.09888 0.0144 0.66361 0.0
H2046 H 0.04214 0.98821 0.58577 0.0
H2047 H 0.06431 0.98927 0.61328 0.0
H2048 H 0.12796 0.9965 0.59968 0.0
C2049 C 0.15662 0.01706 0.66493 0.0
C2050 C 0.10539 0.01033 0.64978 0.0
C2051 C 0.16864 0.01839 0.68139 0.0
C2052 C 0.05664 0.99409 0.58346 0.0
C2053 C 0.06936 0.9948 0.59936 0.0
C2054 C 0.12144 1.00063 0.61348 0.0
C2055 C 0.13824 0.00803 0.66608 0.0
C2056 C 0.12552 0.00664 0.64843 0.0
C2057 C 0.08826 0.00254 0.59737 0.0
C2058 C 0.10126 0.00422 0.61485 0.0
H2059 H 0.13925 0.99552 0.71437 0.0
H2060 H 0.11816 0.99321 0.68556 0.0
H2061 H 0.14883 0.99871 0.62852 0.0
H2062 H 0.08644 0.01341 0.54864 0.0
H2063 H 0.10873 0.01499 0.57663 0.0
C2064 C 0.98289 0.1671 0.68404 0.0
C2065 C 0.99418 0.16263 0.70061 0.0
C2066 C 0.98345 0.15517 0.66745 0.0
C2067 C 0.01428 0.11717 0.64356 0.0
H2068 H 0.96864 0.10986 0.61083 0.0
C2069 C 0.00985 0.05837 0.58334 0.0
C2070 C 0.00159 0.06353 0.56524 0.0
C2071 C 0.00935 0.07127 0.59914 0.0
C2072 C 0.98157 0.11196 0.6197 0.0
H2073 H 0.01437 0.14168 0.71295 0.0
H2074 H 0.01491 0.12047 0.68428 0.0
H2075 H 0.96621 0.12972 0.64035 0.0
H2076 H 0.9865 0.08647 0.54955 0.0
H2077 H 0.98541 0.10906 0.57741 0.0
H2078 H 0.02944 0.09895 0.62313 0.0
C2079 C 0.00602 0.13353 0.68384 0.0
C2080 C 0.98021 0.12336 0.63666 0.0
C2081 C 0.00561 0.1456 0.70037 0.0
C2082 C 0.99305 0.08209 0.56326 0.0
C2083 C 0.9923 0.09495 0.57924 0.0
C2084 C 0.01557 0.10562 0.62675 0.0
C2085 C 0.99519 0.13831 0.66699 0.0
C2086 C 0.99653 0.12608 0.6489 0.0
C2087 C 1.0004 0.08962 0.59738 0.0
C2088 C 0.99922 0.10281 0.61465 0.0
H2089 H 0.97421 0.18031 0.68358 0.0
H2090 H 0.97514 0.15957 0.65474 0.0
H2091 H 0.02731 0.11925 0.65227 0.0
H2092 H 0.01665 0.04424 0.58538 0.0
H2093 H 0.01558 0.06665 0.61293 0.0
C2094 C 0.84149 0.99089 0.68896 0.0
C2095 C 0.8376 0.00843 0.69894 0.0
C2096 C 0.85367 0.99066 0.67255 0.0
C2097 C 0.89222 0.01878 0.64725 0.0
H2098 H 0.87777 0.98679 0.60274 0.0
C2099 C 0.94619 0.00266 0.58513 0.0
C2100 C 0.93947 0.003 0.56568 0.0
C2101 C 0.93318 0.00377 0.60076 0.0
C2102 C 0.88192 0.99594 0.61496 0.0
H2103 H 0.84399 0.03941 0.69971 0.0
H2104 H 0.86517 0.03904 0.67104 0.0
H2105 H 0.8565 0.98797 0.63138 0.0
H2106 H 0.91349 0.00454 0.54762 0.0
H2107 H 0.89065 0.00647 0.57513 0.0
H2108 H 0.91753 0.02688 0.63084 0.0
C2109 C 0.85883 0.02542 0.67595 0.0
C2110 C 0.86986 0.99644 0.63149 0.0
C2111 C 0.84658 0.02566 0.69233 0.0
C2112 C 0.91922 0.00422 0.56236 0.0
C2113 C 0.90612 0.00527 0.57813 0.0
C2114 C 0.90429 0.01824 0.63078 0.0
C2115 C 0.86234 0.00795 0.6657 0.0
C2116 C 0.87493 0.00775 0.64791 0.0
C2117 C 0.913 0.00523 0.59753 0.0
C2118 C 0.89941 0.00666 0.6145 0.0
H2119 H 0.83461 0.97738 0.69343 0.0
H2120 H 0.85627 0.9769 0.66521 0.0
H2121 H 0.89667 0.02757 0.65963 0.0
H2122 H 0.96161 0.00159 0.58845 0.0
H2123 H 0.93899 0.00329 0.61547 0.0
C2124 C 0.32111 0.01702 0.16973 0.0
C2125 C 0.30296 0.0092 0.16404 0.0
C2126 C 0.33739 0.01568 0.1575 0.0
C2127 C 0.35188 0.00899 0.10612 0.0
H2128 H 0.40232 0.99553 0.1281 0.0
C2129 C 0.41811 0.99429 0.05662 0.0
C2130 C 0.43657 1.00114 0.0625 0.0
C2131 C 0.40224 0.99467 0.0694 0.0
C2132 C 0.38842 0.99956 0.12174 0.0
H2133 H 0.28782 0.99379 0.14092 0.0
H2134 H 0.31635 0.99148 0.11943 0.0
H2135 H 0.3737 0.99733 0.14928 0.0
H2136 H 0.45285 0.01337 0.08673 0.0
H2137 H 0.42494 0.01439 0.10908 0.0
H2138 H 0.36651 0.01155 0.07867 0.0
C2139 C 0.31787 0.99876 0.1334 0.0
C2140 C 0.37198 1.00053 0.13389 0.0
C2141 C 0.30155 0.99997 0.14574 0.0
C2142 C 0.43885 0.00793 0.08175 0.0
C2143 C 0.42284 0.00847 0.09456 0.0
C2144 C 0.36831 0.00814 0.094 0.0
C2145 C 0.33602 0.00653 0.13919 0.0
C2146 C 0.35349 0.00522 0.12622 0.0
C2147 C 0.40423 0.00207 0.08845 0.0
C2148 C 0.38682 0.00332 0.1016 0.0
H2149 H 0.32286 0.02391 0.18386 0.0
H2150 H 0.35107 0.02197 0.16236 0.0
H2151 H 0.33795 0.01297 0.09978 0.0
H2152 H 0.41583 0.98861 0.04202 0.0
H2153 H 0.38835 0.9891 0.06428 0.0
C2154 C 0.98614 0.31949 0.16528 0.0
C2155 C 1.00078 0.30507 0.16447 0.0
C2156 C 0.98693 0.33594 0.15325 0.0
C2157 C 0.00955 0.35493 0.10788 0.0
H2158 H 0.99181 0.4048 0.12806 0.0
C2159 C 0.99469 0.41972 0.05683 0.0
C2160 C 0.99996 0.43865 0.06286 0.0
C2161 C 0.99547 0.40402 0.06977 0.0
C2162 C 0.99702 0.39106 0.12223 0.0
H2163 H 0.02773 0.29681 0.15005 0.0
H2164 H 0.02934 0.32574 0.12931 0.0
H2165 H 0.99253 0.37638 0.14946 0.0
H2166 H 0.00989 0.45586 0.08752 0.0
H2167 H 0.01144 0.42826 0.11021 0.0
H2168 H 0.01439 0.36964 0.08078 0.0
C2169 C 0.01706 0.32414 0.13914 0.0
C2170 C 0.99719 0.37466 0.13445 0.0
C2171 C 0.01623 0.3076 0.15117 0.0
C2172 C 0.00566 0.44151 0.08239 0.0
C2173 C 0.00652 0.42568 0.0954 0.0
C2174 C 0.00942 0.37132 0.0957 0.0
C2175 C 0.00246 0.3386 0.1401 0.0
C2176 C 0.00323 0.3563 0.12737 0.0
C2177 C 0.00165 0.40667 0.08916 0.0
C2178 C 0.0029 0.38956 0.10262 0.0
H2179 H 0.9742 0.31834 0.17557 0.0
H2180 H 0.97526 0.34655 0.15423 0.0
H2181 H 0.01417 0.34107 0.10184 0.0
H2182 H 0.98993 0.41692 0.042 0.0
H2183 H 0.9911 0.38975 0.06454 0.0
C2184 C 0.6996 0.00388 0.1457 0.0
C2185 C 0.69824 0.99456 0.16394 0.0
C2186 C 0.68325 0.00516 0.1334 0.0
C2187 C 0.62913 0.00331 0.13397 0.0
H2188 H 0.63453 0.99287 0.07862 0.0
C2189 C 0.56219 0.99646 0.08174 0.0
C2190 C 0.56446 0.00354 0.06261 0.0
C2191 C 0.57822 0.99576 0.09455 0.0
C2192 C 0.63274 0.99612 0.09399 0.0
H2193 H 0.67839 0.97973 0.18369 0.0
H2194 H 0.65014 0.98177 0.16226 0.0
H2195 H 0.66312 0.99127 0.09968 0.0
H2196 H 0.58519 0.01635 0.04233 0.0
H2197 H 0.61268 0.01556 0.06457 0.0
H2198 H 0.59877 0.00833 0.12827 0.0
C2199 C 0.66379 0.98811 0.15742 0.0
C2200 C 0.6492 0.99516 0.10608 0.0
C2201 C 0.68011 0.9867 0.1696 0.0
C2202 C 0.58292 0.01047 0.05684 0.0
C2203 C 0.5988 0.00992 0.0696 0.0
C2204 C 0.61267 0.00438 0.12185 0.0
C2205 C 0.66511 0.99735 0.13916 0.0
C2206 C 0.64762 0.99873 0.12623 0.0
C2207 C 0.59682 0.00225 0.08853 0.0
C2208 C 0.61424 1.00084 0.10166 0.0
H2209 H 0.71332 0.01009 0.1409 0.0
H2210 H 0.68474 0.01252 0.11949 0.0
H2211 H 0.62742 0.00636 0.1494 0.0
H2212 H 0.54821 0.99094 0.08663 0.0
H2213 H 0.57613 0.98964 0.10897 0.0
C2214 C 0.01407 0.69279 0.15834 0.0
C2215 C 0.99587 0.7012 0.16285 0.0
C2216 C 0.01529 0.67637 0.14622 0.0
C2217 C 0.98564 0.63489 0.12773 0.0
H2218 H 0.02797 0.62936 0.0906 0.0
C2219 C 0.99817 0.56374 0.08251 0.0
C2220 C 0.00265 0.56654 0.06265 0.0
C2221 C 0.99795 0.57965 0.0955 0.0
C2222 C 0.016 0.63067 0.10085 0.0
H2223 H 0.96475 0.6993 0.15736 0.0
H2224 H 0.9669 0.67079 0.13605 0.0
H2225 H 0.02586 0.65867 0.1106 0.0
H2226 H 0.01083 0.58838 0.04111 0.0
H2227 H 0.01029 0.61569 0.06347 0.0
H2228 H 0.97554 0.60704 0.11756 0.0
C2229 C 0.98021 0.67666 0.14226 0.0
C2230 C 0.0149 0.64744 0.11248 0.0
C2231 C 0.97899 0.69308 0.1544 0.0
C2232 C 0.00721 0.58553 0.05624 0.0
C2233 C 0.00708 0.60129 0.06915 0.0
C2234 C 0.98677 0.61807 0.1161 0.0
C2235 C 0.99836 0.66789 0.13823 0.0
C2236 C 0.99962 0.64987 0.12598 0.0
C2237 C 0.00239 0.59864 0.08894 0.0
C2238 C 0.00186 0.61583 0.10236 0.0
H2239 H 0.02735 0.69837 0.16487 0.0
H2240 H 0.02949 0.66992 0.14365 0.0
H2241 H 0.97383 0.63611 0.13818 0.0
H2242 H 0.99457 0.54935 0.08796 0.0
H2243 H 0.99442 0.57707 0.11069 0.0
C2244 C 0.31984 0.9878 0.83349 0.0
C2245 C 0.30176 0.99552 0.83952 0.0
C2246 C 0.33627 0.98891 0.84556 0.0
C2247 C 0.35143 0.99511 0.8969 0.0
H2248 H 0.40147 0.00915 0.8744 0.0
C2249 C 0.41791 0.01084 0.94567 0.0
C2250 C 0.43638 0.00408 0.93972 0.0
C2251 C 0.40195 0.01023 0.93302 0.0
C2252 C 0.38769 0.00496 0.8809 0.0
H2253 H 0.28688 0.01041 0.86314 0.0
H2254 H 0.31564 0.01235 0.88432 0.0
H2255 H 0.37262 0.00715 0.85354 0.0
H2256 H 0.45257 0.99179 0.91547 0.0
H2257 H 0.4245 0.9904 0.89332 0.0
H2258 H 0.36641 0.99266 0.92418 0.0
C2259 C 0.31701 0.00532 0.87022 0.0
C2260 C 0.37111 0.00386 0.86893 0.0
C2261 C 0.30056 0.00432 0.85804 0.0
C2262 C 0.43858 0.99716 0.92051 0.0
C2263 C 0.42247 0.99641 0.90781 0.0
C2264 C 0.36799 0.99611 0.90883 0.0
C2265 C 0.33511 0.99773 0.86406 0.0
C2266 C 0.35275 0.99898 0.8768 0.0
C2267 C 0.40386 0.00268 0.91402 0.0
C2268 C 0.38635 1.00117 0.90104 0.0
H2269 H 0.32145 0.98123 0.81919 0.0
H2270 H 0.34989 0.98274 0.84042 0.0
H2271 H 0.33762 0.99098 0.90339 0.0
H2272 H 0.41569 0.0166 0.96025 0.0
H2273 H 0.38805 0.01571 0.9382 0.0
C2274 C 0.97671 0.3119 0.84806 0.0
C2275 C 0.99357 0.30362 0.83971 0.0
C2276 C 0.97802 0.32838 0.86012 0.0
C2277 C 0.01275 0.35726 0.8901 0.0
H2278 H 0.9739 0.3981 0.88464 0.0
C2279 C 0.00501 0.41912 0.94636 0.0
C2280 C 1.00096 0.4382 0.93988 0.0
C2281 C 0.00481 0.40337 0.93343 0.0
C2282 C 0.98498 0.38693 0.88621 0.0
H2283 H 0.02507 0.30623 0.83778 0.0
H2284 H 0.02735 0.33474 0.8589 0.0
H2285 H 0.97207 0.36906 0.86398 0.0
H2286 H 0.99365 0.45556 0.91444 0.0
H2287 H 0.99333 0.42786 0.89169 0.0
H2288 H 0.02578 0.37516 0.91216 0.0
C2289 C 0.01311 0.32839 0.85629 0.0
C2290 C 0.98378 0.37014 0.87455 0.0
C2291 C 0.01181 0.31194 0.84422 0.0
C2292 C 0.99686 0.4411 0.91995 0.0
C2293 C 0.99655 0.4252 0.90695 0.0
C2294 C 0.01391 0.374 0.90177 0.0
C2295 C 0.99622 0.33701 0.86419 0.0
C2296 C 0.99758 0.35501 0.87644 0.0
C2297 C 1.00053 0.40613 0.91357 0.0
C2298 C 0.99995 0.38898 0.90012 0.0
H2299 H 0.96244 0.30576 0.84509 0.0
H2300 H 0.96474 0.33436 0.86627 0.0
H2301 H 0.02356 0.3459 0.89207 0.0
H2302 H 0.00834 0.4162 0.96154 0.0
H2303 H 0.00766 0.38891 0.93913 0.0
C2304 C 0.68233 0.02026 0.83498 0.0
C2305 C 0.69876 0.00884 0.83964 0.0
C2306 C 0.66593 0.02042 0.84718 0.0
C2307 C 0.64951 0.01027 0.89739 0.0
H2308 H 0.59858 0.00277 0.87375 0.0
C2309 C 0.58232 0.9938 0.94469 0.0
C2310 C 0.56424 0.00206 0.93956 0.0
C2311 C 0.59825 0.99484 0.93204 0.0
C2312 C 0.61262 0.00517 0.88061 0.0
H2313 H 0.71105 0.98912 0.86108 0.0
H2314 H 0.6825 0.9896 0.88255 0.0
H2315 H 0.62753 0.00506 0.85305 0.0
H2316 H 0.54863 0.01758 0.91686 0.0
H2317 H 0.57668 0.01984 0.8948 0.0
H2318 H 0.63478 0.01072 0.92488 0.0
C2319 C 0.6823 0.99838 0.86941 0.0
C2320 C 0.62924 0.00644 0.86872 0.0
C2321 C 0.69862 0.99804 0.85709 0.0
C2322 C 0.56234 0.01098 0.92118 0.0
C2323 C 0.57844 0.01224 0.90854 0.0
C2324 C 0.63292 0.00921 0.90925 0.0
C2325 C 0.66565 0.00934 0.86444 0.0
C2326 C 0.64789 0.00881 0.877 0.0
C2327 C 0.59671 0.00442 0.91394 0.0
C2328 C 0.61424 0.00639 0.90107 0.0
H2329 H 0.68185 0.02854 0.82152 0.0
H2330 H 0.65341 0.02914 0.84304 0.0
H2331 H 0.66363 0.0124 0.9042 0.0
H2332 H 0.58423 0.98653 0.95861 0.0
H2333 H 0.61183 0.98812 0.93652 0.0
C2334 C 0.02523 0.69415 0.84806 0.0
C2335 C 0.00789 0.701 0.83944 0.0
C2336 C 0.02511 0.67761 0.86008 0.0
C2337 C 0.9959 0.63325 0.87118 0.0
H2338 H 0.02809 0.63136 0.91768 0.0
C2339 C 0.00404 0.56331 0.91952 0.0
C2340 C 0.00366 0.56649 0.93984 0.0
C2341 C 0.005 0.57917 0.9065 0.0
C2342 C 0.01895 0.63164 0.90477 0.0
H2343 H 0.97674 0.69578 0.83701 0.0
H2344 H 0.97646 0.66732 0.85834 0.0
H2345 H 0.02836 0.66047 0.89734 0.0
H2346 H 0.00372 0.58913 0.96218 0.0
H2347 H 0.00522 0.61623 0.93976 0.0
H2348 H 0.98614 0.60452 0.87898 0.0
C2349 C 0.99023 0.67458 0.85557 0.0
C2350 C 0.01926 0.6483 0.89298 0.0
C2351 C 0.99035 0.69113 0.84358 0.0
C2352 C 0.00412 0.58589 0.9467 0.0
C2353 C 0.00513 0.60158 0.93379 0.0
C2354 C 0.99562 0.61653 0.88298 0.0
C2355 C 0.00765 0.66744 0.86379 0.0
C2356 C 0.00761 0.64943 0.87611 0.0
C2357 C 0.00571 0.59851 0.91353 0.0
C2358 C 0.00696 0.61561 0.90007 0.0
H2359 H 0.03899 0.70142 0.84529 0.0
H2360 H 0.03884 0.67251 0.86605 0.0
H2361 H 0.98696 0.63347 0.85813 0.0
H2362 H 0.00369 0.54863 0.91367 0.0
H2363 H 0.00549 0.57628 0.89096 0.0
C2364 C 0.15789 0.31231 0.01525 0.0
C2365 C 0.16027 0.30139 0.998 0.0
C2366 C 0.14583 0.32882 0.01561 0.0
C2367 C 0.10551 0.35327 0.98896 0.0
H2368 H 0.12286 0.39919 0.01728 0.0
C2369 C 0.05394 0.41764 0.00364 0.0
C2370 C 0.06107 0.43683 0.00174 0.0
C2371 C 0.06652 0.40165 0.00308 0.0
C2372 C 0.11788 0.38656 0.00916 0.0
H2373 H 0.15121 0.29899 0.96775 0.0
H2374 H 0.13034 0.32782 0.9683 0.0
H2375 H 0.14344 0.37005 0.01648 0.0
H2376 H 0.08736 0.45407 0.99805 0.0
H2377 H 0.10948 0.42593 0.99698 0.0
H2378 H 0.08012 0.36978 0.9814 0.0
C2379 C 0.13774 0.32359 0.98162 0.0
C2380 C 0.12957 0.36975 0.00891 0.0
C2381 C 0.14982 0.30711 0.98126 0.0
C2382 C 0.08132 0.43955 0.99957 0.0
C2383 C 0.094 0.42341 0.99902 0.0
C2384 C 0.09385 0.37002 0.98924 0.0
C2385 C 0.13579 0.33484 0.99872 0.0
C2386 C 0.12347 0.35283 0.99889 0.0
C2387 C 0.08669 0.40424 1.00055 0.0
C2388 C 0.09978 0.38684 0.99948 0.0
H2389 H 0.1659 0.30853 0.02836 0.0
H2390 H 0.14446 0.33693 0.02912 0.0
H2391 H 0.10026 0.34052 0.98121 0.0
H2392 H 0.0385 0.4148 0.00556 0.0
H2393 H 0.06039 0.38717 0.00476 0.0
C2394 C 0.14664 0.69902 0.00344 0.0
C2395 C 0.16396 0.69901 0.99243 0.0
C2396 C 0.13441 0.68264 0.00358 0.0
C2397 C 0.13511 0.62941 0.99629 0.0
H2398 H 0.07894 0.6349 0.99258 0.0
C2399 C 0.08231 0.56265 0.9926 0.0
C2400 C 0.06406 0.56473 0.00175 0.0
C2401 C 0.09508 0.57864 0.99122 0.0
C2402 C 0.09458 0.63306 0.99393 0.0
H2403 H 0.18198 0.68174 0.97293 0.0
H2404 H 0.16061 0.65321 0.97314 0.0
H2405 H 0.09959 0.66372 0.99033 0.0
H2406 H 0.04545 0.58483 0.01767 0.0
H2407 H 0.06775 0.61223 0.01584 0.0
H2408 H 0.13011 0.59879 1.00029 0.0
C2409 C 0.1565 0.66589 0.98166 0.0
C2410 C 0.10641 0.64963 0.99256 0.0
C2411 C 0.16861 0.68234 0.98135 0.0
C2412 C 0.05925 0.58281 0.0102 0.0
C2413 C 0.07202 0.59862 0.00902 0.0
C2414 C 0.12324 0.61281 0.99785 0.0
C2415 C 0.13934 0.66578 0.9929 0.0
C2416 C 0.12681 0.64804 0.99382 0.0
C2417 C 0.08992 0.59695 0.99912 0.0
C2418 C 0.10279 0.61443 0.99685 0.0
H2419 H 0.14266 0.71164 0.01212 0.0
H2420 H 0.12135 0.68298 0.01248 0.0
H2421 H 0.15078 0.62771 0.99751 0.0
H2422 H 0.08639 0.54893 0.98588 0.0
H2423 H 0.1087 0.57679 0.98341 0.0
C2424 C 0.31231 0.16155 0.98984 0.0
C2425 C 0.30044 0.16217 0.00661 0.0
C2426 C 0.32903 0.14979 0.9893 0.0
C2427 C 0.35248 0.10733 0.01325 0.0
H2428 H 0.39967 0.12741 0.98921 0.0
C2429 C 0.41745 0.05734 0.99686 0.0
C2430 C 0.43648 0.06401 1.00091 0.0
C2431 C 0.40152 0.06997 0.99759 0.0
C2432 C 0.38667 0.12167 0.99613 0.0
H2433 H 0.29661 0.15036 0.03572 0.0
H2434 H 0.32579 0.12999 0.03484 0.0
H2435 H 0.37036 0.14778 0.9905 0.0
H2436 H 0.45359 0.08959 0.00832 0.0
H2437 H 0.42549 0.11184 0.00965 0.0
H2438 H 0.36874 0.08134 0.01909 0.0
C2439 C 0.32215 0.13854 0.02205 0.0
C2440 C 0.36978 0.13324 0.99666 0.0
C2441 C 0.30546 0.15032 0.02261 0.0
C2442 C 0.43917 0.08393 0.00515 0.0
C2443 C 0.42307 0.09668 0.00588 0.0
C2444 C 0.3693 0.09578 0.01268 0.0
C2445 C 0.33431 0.1383 0.00548 0.0
C2446 C 0.35242 0.12616 0.00511 0.0
C2447 C 0.40401 0.08973 0.00241 0.0
C2448 C 0.38656 0.1027 0.00394 0.0
H2449 H 0.30909 0.17067 0.97734 0.0
H2450 H 0.33787 0.14976 0.97618 0.0
H2451 H 0.33939 0.10131 0.01976 0.0
H2452 H 0.41469 0.04221 0.99317 0.0
H2453 H 0.38716 0.06419 0.99432 0.0
C2454 C 0.85627 0.30498 1.00068 0.0
C2455 C 0.83819 0.30558 0.99098 0.0
C2456 C 0.86842 0.32144 1.00113 0.0
C2457 C 0.86715 0.3752 0.99688 0.0
H2458 H 0.92301 0.37002 0.98976 0.0
C2459 C 0.91979 0.44215 0.99285 0.0
C2460 C 0.9384 0.4398 1.00117 0.0
C2461 C 0.90695 0.4262 0.99145 0.0
C2462 C 0.90747 0.37175 0.99206 0.0
H2463 H 0.8187 0.32409 0.97421 0.0
H2464 H 0.83994 0.35265 0.97484 0.0
H2465 H 0.90228 0.34127 0.9874 0.0
H2466 H 0.95762 0.41914 0.0156 0.0
H2467 H 0.93528 0.3918 0.01364 0.0
H2468 H 0.87238 0.40567 0.00182 0.0
C2469 C 0.84472 0.33947 0.98215 0.0
C2470 C 0.89557 0.35522 0.99064 0.0
C2471 C 0.83266 0.32299 0.98157 0.0
C2472 C 0.94354 0.42143 0.00876 0.0
C2473 C 0.93074 0.40565 0.00752 0.0
C2474 C 0.87908 0.39176 0.99842 0.0
C2475 C 0.86268 0.33896 0.99205 0.0
C2476 C 0.87527 0.3567 0.99313 0.0
C2477 C 0.91242 0.40764 0.99848 0.0
C2478 C 0.89944 0.39024 0.99619 0.0
H2479 H 0.86099 0.29181 0.00804 0.0
H2480 H 0.8821 0.32058 0.009 0.0
H2481 H 0.85157 0.37683 0.99908 0.0
H2482 H 0.91541 0.45609 0.98682 0.0
H2483 H 0.89299 0.4283 0.98433 0.0
C2484 C 0.69828 0.85736 0.00335 0.0
C2485 C 0.69781 0.83974 0.99282 0.0
C2486 C 0.68198 0.86972 0.0037 0.0
C2487 C 0.62847 0.86934 0.99781 0.0
H2488 H 0.63434 0.92529 0.99207 0.0
C2489 C 0.56189 0.92219 0.99319 0.0
C2490 C 0.56405 0.94076 0.00165 0.0
C2491 C 0.57788 0.9094 0.99197 0.0
C2492 C 0.6324 0.90973 0.994 0.0
H2493 H 0.67972 0.82127 0.9745 0.0
H2494 H 0.65137 0.84284 0.97507 0.0
H2495 H 0.66297 0.90433 0.99011 0.0
H2496 H 0.58446 0.96003 0.01639 0.0
H2497 H 0.61188 0.93773 0.01484 0.0
H2498 H 0.59795 0.87473 0.00207 0.0
C2499 C 0.66435 0.84711 0.98304 0.0
C2500 C 0.64887 0.8977 0.9928 0.0
C2501 C 0.6807 0.83487 0.98252 0.0
C2502 C 0.58232 0.94596 0.00948 0.0
C2503 C 0.59815 0.93317 0.00846 0.0
C2504 C 0.61198 0.8814 0.99919 0.0
C2505 C 0.66473 0.86462 0.99374 0.0
C2506 C 0.64713 0.87737 0.99474 0.0
C2507 C 0.59632 0.91485 0.99936 0.0
C2508 C 0.61373 0.90179 0.99742 0.0
H2509 H 0.71123 0.86154 0.01141 0.0
H2510 H 0.68271 0.88305 0.01219 0.0
H2511 H 0.62665 0.85374 0.99957 0.0
H2512 H 0.54804 0.91779 0.98693 0.0
H2513 H 0.5759 0.89548 0.98474 0.0
C2514 C 0.84185 0.69024 0.01198 0.0
C2515 C 0.83923 0.70099 0.99467 0.0
C2516 C 0.85419 0.67396 0.01241 0.0
C2517 C 0.89497 0.65008 0.986 0.0
H2518 H 0.87866 0.60426 0.01499 0.0
C2519 C 0.94789 0.58692 0.00176 0.0
C2520 C 0.94104 0.56758 1.00033 0.0
C2521 C 0.93505 0.6027 1.00081 0.0
C2522 C 0.88336 0.61686 0.00668 0.0
H2523 H 0.8481 0.70325 0.96435 0.0
H2524 H 0.86947 0.67477 0.96505 0.0
H2525 H 0.85741 0.63286 0.0137 0.0
H2526 H 0.91501 0.54986 0.99699 0.0
H2527 H 0.89249 0.57759 0.99525 0.0
H2528 H 0.92077 0.63405 0.97874 0.0
C2529 C 0.86204 0.67899 0.97835 0.0
C2530 C 0.87128 0.63337 0.00614 0.0
C2531 C 0.84966 0.69527 0.97791 0.0
C2532 C 0.92084 0.56451 0.99818 0.0
C2533 C 0.90791 0.58041 0.99724 0.0
C2534 C 0.90704 0.63362 0.98656 0.0
C2535 C 0.86428 0.66797 0.99555 0.0
C2536 C 0.87699 0.65025 0.99589 0.0
C2537 C 0.91492 0.59972 0.99838 0.0
C2538 C 0.90149 0.61684 0.99705 0.0
H2539 H 0.83386 0.694 0.0251 0.0
H2540 H 0.85577 0.66602 0.02599 0.0
H2541 H 0.89993 0.66282 0.97807 0.0
H2542 H 0.96329 0.59002 0.00361 0.0
H2543 H 0.94095 0.61731 0.00217 0.0
C2544 C 0.30972 0.84888 0.97588 0.0
C2545 C 0.3034 0.83922 0.99286 0.0
C2546 C 0.326 0.86123 0.97635 0.0
C2547 C 0.37075 0.87147 0.00512 0.0
H2548 H 0.37081 0.92009 0.97623 0.0
C2549 C 0.43962 0.92118 0.99762 0.0
C2550 C 0.43631 0.94138 0.99941 0.0
C2551 C 0.42385 0.90809 0.99652 0.0
C2552 C 0.37103 0.90659 0.98444 0.0
H2553 H 0.30931 0.83518 0.02373 0.0
H2554 H 0.33736 0.85703 0.02465 0.0
H2555 H 0.34207 0.89918 0.97533 0.0
H2556 H 0.41357 0.96344 0.00193 0.0
H2557 H 0.38655 0.94084 1.00017 0.0
H2558 H 0.39961 0.87917 0.01456 0.0
C2559 C 0.32986 0.85487 0.01089 0.0
C2560 C 0.35459 0.8945 0.98377 0.0
C2561 C 0.31355 0.84257 0.01042 0.0
C2562 C 0.41687 0.94806 1.00035 0.0
C2563 C 0.40124 0.93507 0.99922 0.0
C2564 C 0.38724 0.88357 0.00575 0.0
C2565 C 0.33644 0.86419 0.99382 0.0
C2566 C 0.35415 0.87686 0.99422 0.0
C2567 C 0.40447 0.91494 0.99712 0.0
C2568 C 0.3875 0.90139 0.99559 0.0
H2569 H 0.3022 0.8467 0.96213 0.0
H2570 H 0.3307 0.86807 0.9629 0.0
H2571 H 0.37103 0.85785 0.01313 0.0
H2572 H 0.45435 0.91547 0.99686 0.0
H2573 H 0.42684 0.89266 0.99484 0.0
C2574 C 0.69409 0.1532 0.97906 0.0
C2575 C 0.6989 0.16454 0.99551 0.0
C2576 C 0.67751 0.14121 0.97912 0.0
C2577 C 0.63001 0.13419 0.00452 0.0
H2578 H 0.632 0.08286 0.98078 0.0
C2579 C 0.56165 0.08373 0.99682 0.0
C2580 C 0.56476 0.06377 1.00051 0.0
C2581 C 0.57751 0.09671 0.99575 0.0
C2582 C 0.63119 0.09713 0.98756 0.0
H2583 H 0.68984 0.17208 0.02495 0.0
H2584 H 0.66139 0.15083 0.02523 0.0
H2585 H 0.66084 0.10361 0.98016 0.0
H2586 H 0.5871 0.04206 0.00667 0.0
H2587 H 0.6143 0.06449 0.005 0.0
H2588 H 0.60045 0.12743 0.01235 0.0
C2589 C 0.67028 0.15138 0.01216 0.0
C2590 C 0.6477 0.10913 0.98701 0.0
C2591 C 0.68683 0.16334 0.01211 0.0
C2592 C 0.58403 0.05724 0.0035 0.0
C2593 C 0.59975 0.07013 0.00245 0.0
C2594 C 0.61346 0.12217 0.00505 0.0
C2595 C 0.66528 0.14027 0.99562 0.0
C2596 C 0.64742 0.12775 0.99564 0.0
C2597 C 0.59679 0.08998 0.99834 0.0
C2598 C 0.61391 0.10338 0.99678 0.0
H2599 H 0.70307 0.15367 0.96605 0.0
H2600 H 0.67407 0.13298 0.96606 0.0
H2601 H 0.62915 0.14856 0.01106 0.0
H2602 H 0.54704 0.08928 0.99441 0.0
H2603 H 0.57471 0.11192 0.99249 0.0
C2604 C 0.4817 0.67243 0.82541 0.0
C2605 C 0.48804 0.66628 0.80683 0.0
C2606 C 0.48276 0.65992 0.84151 0.0
C2607 C 0.48688 0.60791 0.85536 0.0
H2608 H 0.50539 0.62865 0.90476 0.0
C2609 C 0.50604 0.55724 0.91943 0.0
C2610 C 0.50069 0.56291 0.93845 0.0
C2611 C 0.50457 0.57024 0.90382 0.0
C2612 C 0.49995 0.62266 0.89116 0.0
H2613 H 0.50017 0.64192 0.79067 0.0
H2614 H 0.50211 0.62008 0.81882 0.0
H2615 H 0.50234 0.65021 0.87655 0.0
H2616 H 0.48996 0.587 0.95596 0.0
H2617 H 0.48716 0.60977 0.92854 0.0
H2618 H 0.4844 0.58041 0.86991 0.0
C2619 C 0.4962 0.6346 0.82087 0.0
C2620 C 0.49822 0.63503 0.87496 0.0
C2621 C 0.49522 0.64716 0.80475 0.0
C2622 C 0.49427 0.58217 0.94152 0.0
C2623 C 0.4927 0.59522 0.92579 0.0
C2624 C 0.48855 0.59558 0.87156 0.0
C2625 C 0.49015 0.64089 0.8395 0.0
C2626 C 0.49175 0.62778 0.85682 0.0
C2627 C 0.49758 0.58931 0.90668 0.0
C2628 C 0.49525 0.60274 0.88965 0.0
H2629 H 0.4764 0.68715 0.82769 0.0
H2630 H 0.47776 0.66519 0.85556 0.0
H2631 H 0.48153 0.60191 0.84174 0.0
H2632 H 0.51135 0.54263 0.91649 0.0
H2633 H 0.50896 0.56529 0.88945 0.0
C2634 C 0.33264 0.51699 0.82201 0.0
C2635 C 0.33899 0.51004 0.80372 0.0
C2636 C 0.34479 0.51606 0.8384 0.0
C2637 C 0.3964 0.51176 0.85337 0.0
H2638 H 0.37467 0.49527 0.90301 0.0
C2639 C 0.44598 0.49521 0.919 0.0
C2640 C 0.43998 0.50107 0.93778 0.0
C2641 C 0.43323 0.4961 0.90314 0.0
C2642 C 0.38094 0.50016 0.88935 0.0
H2643 H 0.36329 0.49675 0.78842 0.0
H2644 H 0.38457 0.49511 0.81711 0.0
H2645 H 0.35364 0.49735 0.87428 0.0
H2646 H 0.41552 0.51204 0.95457 0.0
H2647 H 0.39317 0.51389 0.92667 0.0
H2648 H 0.42362 0.51477 0.86835 0.0
C2649 C 0.37015 0.50141 0.81868 0.0
C2650 C 0.36888 0.50131 0.87284 0.0
C2651 C 0.35792 0.50223 0.80226 0.0
C2652 C 0.42062 0.50738 0.94034 0.0
C2653 C 0.4078 0.5084 0.92433 0.0
C2654 C 0.40842 0.5107 0.86986 0.0
C2655 C 0.36368 0.5082 0.837 0.0
C2656 C 0.37648 0.50704 0.85461 0.0
C2657 C 0.41405 0.50301 0.90544 0.0
C2658 C 0.40092 0.50474 0.88807 0.0
H2659 H 0.31804 0.52278 0.82381 0.0
H2660 H 0.33938 0.5216 0.85219 0.0
H2661 H 0.40268 0.51656 0.83967 0.0
H2662 H 0.46067 0.48993 0.91645 0.0
H2663 H 0.43846 0.49129 0.889 0.0
C2664 C 0.49362 0.35267 0.80447 0.0
C2665 C 0.50508 0.33569 0.80571 0.0
C2666 C 0.49201 0.36533 0.82054 0.0
C2667 C 0.4971 0.3671 0.87432 0.0
H2668 H 0.50497 0.42258 0.86683 0.0
C2669 C 0.50673 0.42056 0.93969 0.0
C2670 C 0.49959 0.43967 0.9376 0.0
C2671 C 0.50656 0.40758 0.92379 0.0
C2672 C 0.50239 0.40718 0.86923 0.0
H2673 H 0.52322 0.31835 0.82503 0.0
H2674 H 0.52034 0.34027 0.85291 0.0
H2675 H 0.50538 0.40079 0.83871 0.0
H2676 H 0.4858 0.45978 0.91738 0.0
H2677 H 0.4849 0.43719 0.89014 0.0
H2678 H 0.49384 0.37342 0.90478 0.0
C2679 C 0.5127 0.34392 0.83954 0.0
C2680 C 0.50268 0.39468 0.85304 0.0
C2681 C 0.51452 0.33147 0.82347 0.0
C2682 C 0.49175 0.44528 0.91946 0.0
C2683 C 0.49134 0.4323 0.90372 0.0
C2684 C 0.49659 0.37963 0.89051 0.0
C2685 C 0.50152 0.36105 0.83828 0.0
C2686 C 0.50017 0.37447 0.85539 0.0
C2687 C 0.49901 0.41333 0.9055 0.0
C2688 C 0.49932 0.39987 0.88824 0.0
H2689 H 0.48615 0.35629 0.791 0.0
H2690 H 0.48318 0.37837 0.81916 0.0
H2691 H 0.49492 0.35161 0.8766 0.0
H2692 H 0.51294 0.41579 0.95344 0.0
H2693 H 0.5128 0.39319 0.92575 0.0
C2694 C 0.64503 0.50093 0.80216 0.0
C2695 C 0.66386 0.49286 0.80356 0.0
C2696 C 0.63281 0.50181 0.81859 0.0
C2697 C 0.63404 0.50143 0.87279 0.0
H2698 H 0.57912 0.48876 0.86807 0.0
C2699 C 0.58223 0.4951 0.9402 0.0
C2700 C 0.56291 0.50159 0.93775 0.0
C2701 C 0.59503 0.49419 0.92417 0.0
C2702 C 0.59437 0.49261 0.86966 0.0
H2703 H 0.68465 0.47975 0.82357 0.0
H2704 H 0.66333 0.48104 0.85196 0.0
H2705 H 0.60006 0.48702 0.83939 0.0
H2706 H 0.5423 0.51319 0.91661 0.0
H2707 H 0.5645 0.51201 0.88912 0.0
H2708 H 0.62831 0.50718 0.90304 0.0
C2709 C 0.65799 0.48673 0.8382 0.0
C2710 C 0.60639 0.49158 0.85316 0.0
C2711 C 0.67013 0.48574 0.82181 0.0
C2712 C 0.55695 0.50776 0.91906 0.0
C2713 C 0.5697 0.50698 0.90318 0.0
C2714 C 0.62198 0.50255 0.8893 0.0
C2715 C 0.6392 0.49483 0.83686 0.0
C2716 C 0.62638 0.49601 0.85447 0.0
C2717 C 0.58882 0.49988 0.90537 0.0
C2718 C 0.60194 0.49824 0.88796 0.0
H2719 H 0.63973 0.50654 0.78836 0.0
H2720 H 0.61848 0.5083 0.81705 0.0
H2721 H 0.64933 0.50516 0.87431 0.0
H2722 H 0.5873 0.4902 0.95436 0.0
H2723 H 0.60962 0.48855 0.92643 0.0
C2724 C 0.48232 0.33009 0.17933 0.0
C2725 C 0.4892 0.3362 0.19774 0.0
C2726 C 0.48329 0.34248 0.16313 0.0
C2727 C 0.48809 0.39435 0.14888 0.0
H2728 H 0.50515 0.37311 0.09919 0.0
C2729 C 0.50662 0.4446 0.08428 0.0
C2730 C 0.50096 0.43894 0.06534 0.0
C2731 C 0.50525 0.43166 0.09995 0.0
C2732 C 0.50011 0.37925 0.11287 0.0
H2733 H 0.50222 0.36039 0.21346 0.0
H2734 H 0.50398 0.38203 0.18514 0.0
H2735 H 0.50229 0.35171 0.12754 0.0
H2736 H 0.48979 0.41489 0.04805 0.0
H2737 H 0.48714 0.39222 0.07558 0.0
H2738 H 0.48577 0.42184 0.13429 0.0
C2739 C 0.49773 0.36763 0.1833 0.0
C2740 C 0.49849 0.36697 0.12916 0.0
C2741 C 0.49685 0.35517 0.19952 0.0
C2742 C 0.49434 0.41972 0.06241 0.0
C2743 C 0.49285 0.40672 0.07822 0.0
C2744 C 0.48963 0.4066 0.13261 0.0
C2745 C 0.49112 0.36137 0.16484 0.0
C2746 C 0.49257 0.37438 0.14741 0.0
C2747 C 0.49805 0.41263 0.09726 0.0
C2748 C 0.49581 0.39928 0.11439 0.0
H2749 H 0.47663 0.31548 0.17728 0.0
H2750 H 0.47788 0.33724 0.14921 0.0
H2751 H 0.48316 0.4005 0.1626 0.0
H2752 H 0.5121 0.45917 0.0871 0.0
H2753 H 0.50989 0.43662 0.11424 0.0
C2754 C 0.64527 0.50039 0.20135 0.0
C2755 C 0.66354 0.50968 0.20014 0.0
C2756 C 0.63307 0.49919 0.18492 0.0
C2757 C 0.63401 0.50109 0.1308 0.0
H2758 H 0.5786 0.51122 0.13588 0.0
C2759 C 0.58201 0.50738 0.06358 0.0
C2760 C 0.56292 0.50018 0.06582 0.0
C2761 C 0.59477 0.50822 0.07965 0.0
C2762 C 0.594 0.50806 0.13418 0.0
H2763 H 0.68342 0.52457 0.18046 0.0
H2764 H 0.66214 0.52267 0.15207 0.0
H2765 H 0.59949 0.51301 0.1646 0.0
H2766 H 0.5427 0.48722 0.08652 0.0
H2767 H 0.56486 0.48825 0.11407 0.0
H2768 H 0.6285 0.49596 0.1004 0.0
C2769 C 0.65721 0.5163 0.16567 0.0
C2770 C 0.60599 0.50913 0.15071 0.0
C2771 C 0.66931 0.51763 0.18207 0.0
C2772 C 0.55717 0.49321 0.08427 0.0
C2773 C 0.56988 0.4939 0.10019 0.0
C2774 C 0.62199 0.49991 0.11426 0.0
C2775 C 0.63895 0.50704 0.16684 0.0
C2776 C 0.62615 0.50566 0.14925 0.0
C2777 C 0.58875 0.50173 0.09825 0.0
C2778 C 0.60178 0.50332 0.11573 0.0
H2779 H 0.64038 0.49411 0.21501 0.0
H2780 H 0.61915 0.49182 0.1863 0.0
H2781 H 0.64945 0.49811 0.12918 0.0
H2782 H 0.5869 0.51291 0.0496 0.0
H2783 H 0.60915 0.51445 0.07759 0.0
C2784 C 0.50018 0.64576 0.20111 0.0
C2785 C 0.5094 0.66402 0.19951 0.0
C2786 C 0.49882 0.63331 0.18486 0.0
C2787 C 0.50006 0.63345 0.13074 0.0
H2788 H 0.51146 0.57835 0.13631 0.0
C2789 C 0.50721 0.58123 0.06391 0.0
C2790 C 0.50055 0.56197 0.06625 0.0
C2791 C 0.50783 0.59405 0.07993 0.0
C2792 C 0.50794 0.59365 0.13448 0.0
H2793 H 0.52393 0.68369 0.17936 0.0
H2794 H 0.52172 0.66202 0.15128 0.0
H2795 H 0.51298 0.5996 0.1648 0.0
H2796 H 0.48843 0.54143 0.08713 0.0
H2797 H 0.48905 0.5637 0.11462 0.0
H2798 H 0.49483 0.62751 0.10045 0.0
C2799 C 0.51555 0.65726 0.16504 0.0
C2800 C 0.50885 0.60584 0.15087 0.0
C2801 C 0.51704 0.66958 0.18125 0.0
C2802 C 0.49398 0.55605 0.0848 0.0
C2803 C 0.49443 0.56884 0.10067 0.0
C2804 C 0.49902 0.62123 0.11434 0.0
C2805 C 0.50642 0.63897 0.1666 0.0
C2806 C 0.50497 0.6259 0.14922 0.0
C2807 C 0.50166 0.58793 0.0986 0.0
C2808 C 0.50293 0.60114 0.11597 0.0
H2809 H 0.49412 0.64104 0.21493 0.0
H2810 H 0.49156 0.61937 0.18653 0.0
H2811 H 0.49676 0.64882 0.12898 0.0
H2812 H 0.51245 0.58624 0.04985 0.0
H2813 H 0.51363 0.60859 0.07776 0.0
C2814 C 0.33313 0.48409 0.18153 0.0
C2815 C 0.33904 0.49161 0.19975 0.0
C2816 C 0.34527 0.48543 0.16518 0.0
C2817 C 0.39664 0.4917 0.15047 0.0
H2818 H 0.37453 0.50613 0.10035 0.0
C2819 C 0.44588 0.50757 0.08441 0.0
C2820 C 0.44001 0.50101 0.06583 0.0
C2821 C 0.43313 0.50689 0.10029 0.0
C2822 C 0.38092 0.50183 0.11415 0.0
H2823 H 0.36247 0.50647 0.21495 0.0
H2824 H 0.38379 0.5088 0.18632 0.0
H2825 H 0.35348 0.50405 0.12905 0.0
H2826 H 0.41581 0.48899 0.04936 0.0
H2827 H 0.3935 0.48747 0.0773 0.0
H2828 H 0.42399 0.48919 0.13566 0.0
C2829 C 0.36973 0.50174 0.18479 0.0
C2830 C 0.36885 0.50069 0.13064 0.0
C2831 C 0.35747 0.50052 0.20117 0.0
C2832 C 0.42079 0.4942 0.06345 0.0
C2833 C 0.408 0.49337 0.07948 0.0
C2834 C 0.40868 0.49272 0.13399 0.0
C2835 C 0.36372 0.49429 0.16656 0.0
C2836 C 0.37658 0.49567 0.14903 0.0
C2837 C 0.41412 0.49947 0.09819 0.0
C2838 C 0.40103 0.49792 0.1156 0.0
H2839 H 0.31889 0.47745 0.17977 0.0
H2840 H 0.34024 0.47938 0.15146 0.0
H2841 H 0.40302 0.48746 0.16431 0.0
H2842 H 0.46045 0.51325 0.08679 0.0
H2843 H 0.43825 0.51224 0.11427 0.0
C2844 C 0.80165 0.49761 0.64509 0.0
C2845 C 0.80291 0.50714 0.66325 0.0
C2846 C 0.81803 0.49633 0.63284 0.0
C2847 C 0.87211 0.49838 0.63353 0.0
H2848 H 0.86691 0.50888 0.57819 0.0
C2849 C 0.93935 0.50553 0.58183 0.0
C2850 C 0.93722 0.49873 0.56256 0.0
C2851 C 0.92322 0.50608 0.59451 0.0
C2852 C 0.86865 0.5056 0.59355 0.0
H2853 H 0.8226 0.5223 0.68293 0.0
H2854 H 0.85094 0.52018 0.6616 0.0
H2855 H 0.83822 0.51033 0.59912 0.0
H2856 H 0.91664 0.48625 0.5419 0.0
H2857 H 0.88898 0.48672 0.56395 0.0
H2858 H 0.9025 0.49344 0.62796 0.0
C2859 C 0.83733 0.51373 0.65677 0.0
C2860 C 0.85214 0.50647 0.60557 0.0
C2861 C 0.82098 0.51516 0.6689 0.0
C2862 C 0.9188 0.49191 0.55653 0.0
C2863 C 0.90282 0.49229 0.56919 0.0
C2864 C 0.88863 0.49735 0.62148 0.0
C2865 C 0.83611 0.50429 0.63859 0.0
C2866 C 0.85365 0.50291 0.62572 0.0
C2867 C 0.90466 0.49969 0.58826 0.0
C2868 C 0.88714 0.50093 0.60129 0.0
H2869 H 0.78798 0.49126 0.64031 0.0
H2870 H 0.81662 0.48883 0.61898 0.0
H2871 H 0.87377 0.49533 0.64896 0.0
H2872 H 0.9533 0.51096 0.58692 0.0
H2873 H 0.92522 0.51201 0.60903 0.0
C2874 C 0.50374 0.8029 0.64698 0.0
C2875 C 0.49248 0.80278 0.66415 0.0
C2876 C 0.50355 0.81911 0.63454 0.0
C2877 C 0.49535 0.87205 0.63473 0.0
H2878 H 0.49173 0.86623 0.57855 0.0
C2879 C 0.4917 0.93876 0.58209 0.0
C2880 C 0.50071 0.93678 0.56376 0.0
C2881 C 0.49023 0.9227 0.59473 0.0
C2882 C 0.49306 0.86817 0.59419 0.0
H2883 H 0.47217 0.8196 0.68166 0.0
H2884 H 0.4719 0.84792 0.65996 0.0
H2885 H 0.48979 0.83748 0.59935 0.0
H2886 H 0.51617 0.91664 0.54479 0.0
H2887 H 0.51424 0.88908 0.56689 0.0
H2888 H 0.49915 0.90266 0.62961 0.0
C2889 C 0.48082 0.83544 0.65612 0.0
C2890 C 0.49185 0.85164 0.60611 0.0
C2891 C 0.4808 0.81913 0.66841 0.0
C2892 C 0.50883 0.91862 0.55867 0.0
C2893 C 0.50759 0.90271 0.57133 0.0
C2894 C 0.4968 0.8886 0.62278 0.0
C2895 C 0.49233 0.8357 0.63914 0.0
C2896 C 0.49305 0.85337 0.62651 0.0
C2897 C 0.49794 0.90436 0.58939 0.0
C2898 C 0.49582 0.88688 0.60231 0.0
H2899 H 0.51289 0.79053 0.64331 0.0
H2900 H 0.51267 0.81891 0.62161 0.0
H2901 H 0.49653 0.87384 0.6504 0.0
H2902 H 0.48522 0.95253 0.5864 0.0
H2903 H 0.48257 0.92454 0.60844 0.0
C2904 C 0.20062 0.50354 0.64605 0.0
C2905 C 0.19956 0.49389 0.66413 0.0
C2906 C 0.18417 0.50469 0.63387 0.0
C2907 C 0.13012 0.5018 0.63469 0.0
H2908 H 0.13543 0.49207 0.5792 0.0
C2909 C 0.06309 0.49428 0.58261 0.0
C2910 C 0.06521 0.50151 0.56352 0.0
C2911 C 0.07916 0.49379 0.59539 0.0
C2912 C 0.13366 0.49511 0.59462 0.0
H2913 H 0.18014 0.47836 0.68377 0.0
H2914 H 0.1517 0.4802 0.66254 0.0
H2915 H 0.16415 0.49076 0.6001 0.0
H2916 H 0.08564 0.5149 0.54332 0.0
H2917 H 0.11316 0.51451 0.56552 0.0
H2918 H 0.09964 0.50633 0.62919 0.0
C2919 C 0.1652 0.48688 0.65773 0.0
C2920 C 0.15019 0.49433 0.60661 0.0
C2921 C 0.18163 0.48559 0.66978 0.0
C2922 C 0.08351 0.50888 0.55779 0.0
C2923 C 0.09941 0.50855 0.57053 0.0
C2924 C 0.11358 0.50271 0.62266 0.0
C2925 C 0.16623 0.49644 0.63962 0.0
C2926 C 0.14865 0.49764 0.6268 0.0
C2927 C 0.09762 0.50067 0.58939 0.0
C2928 C 0.11511 0.49943 0.60243 0.0
H2929 H 0.21418 0.5101 0.64126 0.0
H2930 H 0.18543 0.5123 0.62007 0.0
H2931 H 0.12844 0.50463 0.65016 0.0
H2932 H 0.04923 0.48844 0.58747 0.0
H2933 H 0.07721 0.48751 0.60977 0.0
C2934 C 0.50506 0.19564 0.6532 0.0
C2935 C 0.48924 0.19756 0.66618 0.0
C2936 C 0.5059 0.18011 0.63988 0.0
C2937 C 0.47631 0.13874 0.61875 0.0
H2938 H 0.52758 0.11733 0.60795 0.0
C2939 C 0.48946 0.06314 0.58157 0.0
C2940 C 0.50118 0.06419 0.56476 0.0
C2941 C 0.48794 0.07925 0.59417 0.0
C2942 C 0.51317 0.12317 0.61085 0.0
H2943 H 0.46116 0.18516 0.67408 0.0
H2944 H 0.46312 0.15771 0.65189 0.0
H2945 H 0.52458 0.14619 0.62853 0.0
H2946 H 0.52105 0.08256 0.54836 0.0
H2947 H 0.51896 0.1103 0.57072 0.0
H2948 H 0.46503 0.11505 0.60154 0.0
C2949 C 0.47484 0.1683 0.65166 0.0
C2950 C 0.5114 0.13989 0.62249 0.0
C2951 C 0.47384 0.18401 0.6647 0.0
C2952 C 0.51186 0.08135 0.56119 0.0
C2953 C 0.51072 0.09721 0.57399 0.0
C2954 C 0.47808 0.12176 0.60744 0.0
C2955 C 0.49109 0.16581 0.63931 0.0
C2956 C 0.49294 0.14806 0.62656 0.0
C2957 C 0.49851 0.09647 0.59044 0.0
C2958 C 0.49654 0.11388 0.60328 0.0
H2959 H 0.5173 0.20562 0.65385 0.0
H2960 H 0.51841 0.17916 0.63029 0.0
H2961 H 0.46184 0.14463 0.62113 0.0
H2962 H 0.48094 0.05016 0.58458 0.0
H2963 H 0.47848 0.07829 0.60681 0.0
C2964 C 0.80248 0.50372 0.35785 0.0
C2965 C 0.80368 0.49495 0.3393 0.0
C2966 C 0.81895 0.5047 0.37001 0.0
C2967 C 0.87309 0.50311 0.36875 0.0
H2968 H 0.86826 0.49216 0.42404 0.0
C2969 C 0.94041 0.49619 0.42057 0.0
C2970 C 0.93819 0.50316 0.43976 0.0
C2971 C 0.92435 0.49555 0.4078 0.0
C2972 C 0.86988 0.49554 0.40867 0.0
H2973 H 0.82337 0.48072 0.31893 0.0
H2974 H 0.85182 0.48219 0.34016 0.0
H2975 H 0.8395 0.4905 0.40321 0.0
H2976 H 0.91753 0.51594 0.46015 0.0
H2977 H 0.88997 0.51523 0.43798 0.0
H2978 H 0.90347 0.5083 0.37425 0.0
C2979 C 0.8382 0.48835 0.34533 0.0
C2980 C 0.85333 0.49456 0.39672 0.0
C2981 C 0.82176 0.48726 0.33325 0.0
C2982 C 0.91976 0.51013 0.4456 0.0
C2983 C 0.90385 0.50963 0.43287 0.0
C2984 C 0.88965 0.5042 0.38074 0.0
C2985 C 0.83705 0.49713 0.36384 0.0
C2986 C 0.8547 0.49834 0.3766 0.0
C2987 C 0.90576 0.50198 0.41391 0.0
C2988 C 0.88827 0.50049 0.4009 0.0
H2989 H 0.78881 0.50978 0.36298 0.0
H2990 H 0.81757 0.51171 0.38413 0.0
H2991 H 0.87464 0.50634 0.35335 0.0
H2992 H 0.95437 0.49065 0.41562 0.0
H2993 H 0.92638 0.48947 0.39334 0.0
C2994 C 0.50176 0.80242 0.35738 0.0
C2995 C 0.49391 0.80406 0.33847 0.0
C2996 C 0.5026 0.81872 0.36979 0.0
C2997 C 0.50261 0.87287 0.36905 0.0
H2998 H 0.48925 0.86784 0.42379 0.0
C2999 C 0.49602 0.93985 0.42136 0.0
C3000 C 0.50237 0.93722 0.44071 0.0
C3001 C 0.49515 0.92393 0.40841 0.0
C3002 C 0.49329 0.8695 0.4086 0.0
H3003 H 0.48116 0.82433 0.31772 0.0
H3004 H 0.48237 0.85249 0.33936 0.0
H3005 H 0.48756 0.83935 0.40257 0.0
H3006 H 0.51374 0.91589 0.46125 0.0
H3007 H 0.51261 0.88859 0.4388 0.0
H3008 H 0.5085 0.90301 0.37511 0.0
C3009 C 0.48792 0.83866 0.34462 0.0
C3010 C 0.49229 0.85312 0.39642 0.0
C3011 C 0.48697 0.82239 0.33231 0.0
C3012 C 0.50843 0.91848 0.44657 0.0
C3013 C 0.50768 0.9027 0.43368 0.0
C3014 C 0.5037 0.88927 0.38127 0.0
C3015 C 0.49581 0.83708 0.3635 0.0
C3016 C 0.49696 0.85456 0.37649 0.0
C3017 C 0.50073 0.90507 0.41452 0.0
C3018 C 0.49914 0.8878 0.40124 0.0
H3019 H 0.50722 0.78854 0.36261 0.0
H3020 H 0.50892 0.81701 0.38419 0.0
H3021 H 0.50653 0.87447 0.35382 0.0
H3022 H 0.4912 0.95405 0.41637 0.0
H3023 H 0.48962 0.92631 0.3938 0.0
C3024 C 0.20161 0.49916 0.35837 0.0
C3025 C 0.20016 0.50762 0.33972 0.0
C3026 C 0.18525 0.4982 0.37067 0.0
C3027 C 0.13113 0.49904 0.36967 0.0
H3028 H 0.13601 0.51104 0.42476 0.0
C3029 C 0.06385 0.50576 0.42138 0.0
C3030 C 0.06614 0.49905 0.44064 0.0
C3031 C 0.07992 0.50656 0.40865 0.0
C3032 C 0.13438 0.50737 0.40946 0.0
H3033 H 0.18017 0.52135 0.31931 0.0
H3034 H 0.15192 0.51992 0.34077 0.0
H3035 H 0.16468 0.51274 0.4038 0.0
H3036 H 0.08702 0.48701 0.46126 0.0
H3037 H 0.11461 0.48798 0.43916 0.0
H3038 H 0.10086 0.49351 0.37534 0.0
C3039 C 0.16564 0.51398 0.34591 0.0
C3040 C 0.15087 0.50837 0.39743 0.0
C3041 C 0.18196 0.51505 0.3337 0.0
C3042 C 0.0847 0.49258 0.44664 0.0
C3043 C 0.10064 0.49324 0.43395 0.0
C3044 C 0.11464 0.49793 0.38173 0.0
C3045 C 0.16703 0.50549 0.36453 0.0
C3046 C 0.14948 0.50422 0.37738 0.0
C3047 C 0.0986 0.50054 0.41488 0.0
C3048 C 0.11604 0.50203 0.40182 0.0
H3049 H 0.21538 0.4933 0.36347 0.0
H3050 H 0.1868 0.49142 0.38487 0.0
H3051 H 0.12957 0.49551 0.35433 0.0
H3052 H 0.04979 0.51093 0.4163 0.0
H3053 H 0.07779 0.51238 0.39411 0.0
C3054 C 0.48241 0.18162 0.3354 0.0
C3055 C 0.49326 0.19846 0.33996 0.0
C3056 C 0.48273 0.16534 0.34776 0.0
C3057 C 0.49284 0.14984 0.39826 0.0
H3058 H 0.50174 0.09881 0.37536 0.0
C3059 C 0.5094 0.08332 0.44672 0.0
C3060 C 0.50183 0.06498 0.44143 0.0
C3061 C 0.50829 0.09917 0.43395 0.0
C3062 C 0.49895 0.11287 0.38202 0.0
H3063 H 0.51254 0.21156 0.36136 0.0
H3064 H 0.51286 0.18322 0.38313 0.0
H3065 H 0.49914 0.12743 0.35429 0.0
H3066 H 0.4874 0.04889 0.41832 0.0
H3067 H 0.48498 0.07674 0.39609 0.0
H3068 H 0.49224 0.13544 0.42592 0.0
C3069 C 0.50415 0.18261 0.36993 0.0
C3070 C 0.49751 0.12931 0.36992 0.0
C3071 C 0.50404 0.19881 0.35744 0.0
C3072 C 0.49347 0.06279 0.4228 0.0
C3073 C 0.49214 0.07879 0.41005 0.0
C3074 C 0.49405 0.13341 0.41034 0.0
C3075 C 0.49372 0.16558 0.3651 0.0
C3076 C 0.49461 0.14801 0.37791 0.0
C3077 C 0.49932 0.0973 0.41556 0.0
C3078 C 0.49734 0.11469 0.40245 0.0
H3079 H 0.47417 0.18076 0.32193 0.0
H3080 H 0.4744 0.15252 0.3437 0.0
H3081 H 0.4903 0.16399 0.40486 0.0
H3082 H 0.51622 0.0855 0.46084 0.0
H3083 H 0.51453 0.11295 0.43857 0.0
C3084 C 0.66992 0.82147 0.52181 0.0
C3085 C 0.66441 0.80372 0.51301 0.0
C3086 C 0.65763 0.83776 0.52109 0.0
C3087 C 0.60643 0.85267 0.51358 0.0
H3088 H 0.62883 0.90301 0.50054 0.0
C3089 C 0.5575 0.91846 0.49594 0.0
C3090 C 0.563 0.93702 0.50281 0.0
C3091 C 0.5703 0.90265 0.49713 0.0
C3092 C 0.62235 0.88914 0.50447 0.0
H3093 H 0.6414 0.78916 0.49689 0.0
H3094 H 0.61986 0.81762 0.49569 0.0
H3095 H 0.64994 0.87442 0.50323 0.0
H3096 H 0.58656 0.95357 0.51594 0.0
H3097 H 0.60892 0.92579 0.51836 0.0
H3098 H 0.57891 0.8673 0.51508 0.0
C3099 C 0.63373 0.81888 0.50319 0.0
C3100 C 0.63446 0.87273 0.50597 0.0
C3101 C 0.64611 0.8026 0.50377 0.0
C3102 C 0.58189 0.93949 0.51045 0.0
C3103 C 0.59472 0.92355 0.5118 0.0
C3104 C 0.59435 0.86908 0.51222 0.0
C3105 C 0.63944 0.83672 0.51166 0.0
C3106 C 0.62662 0.85427 0.51043 0.0
C3107 C 0.58896 0.90484 0.50539 0.0
C3108 C 0.60209 0.88753 0.50746 0.0
H3109 H 0.68404 0.82297 0.52878 0.0
H3110 H 0.6624 0.8512 0.52793 0.0
H3111 H 0.59996 0.83875 0.51736 0.0
H3112 H 0.54319 0.91604 0.48966 0.0
H3113 H 0.5655 0.88867 0.49152 0.0
C3114 C 0.64562 0.19922 0.50086 0.0
C3115 C 0.66377 0.19828 0.49132 0.0
C3116 C 0.63337 0.18285 0.50153 0.0
C3117 C 0.63445 0.12909 0.49862 0.0
H3118 H 0.57873 0.13413 0.49029 0.0
C3119 C 0.58211 0.06203 0.49524 0.0
C3120 C 0.5633 0.0645 0.50305 0.0
C3121 C 0.59488 0.078 0.49369 0.0
C3122 C 0.59422 0.13245 0.49294 0.0
H3123 H 0.68326 0.17931 0.47506 0.0
H3124 H 0.66184 0.1509 0.47609 0.0
H3125 H 0.59956 0.1628 0.48761 0.0
H3126 H 0.54358 0.08548 0.51633 0.0
H3127 H 0.56583 0.11289 0.51417 0.0
H3128 H 0.62909 0.09879 0.50427 0.0
C3129 C 0.65709 0.16427 0.48309 0.0
C3130 C 0.60617 0.14893 0.49133 0.0
C3131 C 0.66925 0.18065 0.48228 0.0
C3132 C 0.55785 0.08307 0.50994 0.0
C3133 C 0.5706 0.09889 0.50857 0.0
C3134 C 0.62247 0.1126 0.50038 0.0
C3135 C 0.63907 0.16511 0.49285 0.0
C3136 C 0.62641 0.14748 0.49422 0.0
C3137 C 0.58915 0.09672 0.50007 0.0
C3138 C 0.60215 0.11408 0.49768 0.0
H3139 H 0.64096 0.21257 0.50794 0.0
H3140 H 0.61962 0.18396 0.50927 0.0
H3141 H 0.64998 0.12751 0.50115 0.0
H3142 H 0.58673 0.04795 0.48973 0.0
H3143 H 0.60901 0.07577 0.48697 0.0
C3144 C 0.80922 0.65218 0.52332 0.0
C3145 C 0.80493 0.66408 0.50714 0.0
C3146 C 0.8258 0.6402 0.52337 0.0
C3147 C 0.87403 0.63381 0.49911 0.0
H3148 H 0.87104 0.58171 0.52086 0.0
C3149 C 0.94171 0.58239 0.5066 0.0
C3150 C 0.93847 0.56259 0.50219 0.0
C3151 C 0.92598 0.59552 0.50769 0.0
C3152 C 0.87213 0.5962 0.51464 0.0
H3153 H 0.81497 0.67266 0.47832 0.0
H3154 H 0.8434 0.6514 0.47818 0.0
H3155 H 0.84235 0.60264 0.5215 0.0
H3156 H 0.91606 0.54137 0.49468 0.0
H3157 H 0.88909 0.56406 0.49639 0.0
H3158 H 0.90372 0.62708 0.49176 0.0
C3159 C 0.83411 0.65151 0.49097 0.0
C3160 C 0.85571 0.6083 0.51522 0.0
C3161 C 0.81756 0.66348 0.49093 0.0
C3162 C 0.91922 0.55641 0.49844 0.0
C3163 C 0.90363 0.56944 0.49951 0.0
C3164 C 0.8905 0.62168 0.49854 0.0
C3165 C 0.83856 0.63982 0.50724 0.0
C3166 C 0.85634 0.62721 0.50728 0.0
C3167 C 0.9067 0.58911 0.50441 0.0
C3168 C 0.88968 0.60262 0.50607 0.0
H3169 H 0.79981 0.65219 0.53602 0.0
H3170 H 0.82882 0.63151 0.53622 0.0
H3171 H 0.87516 0.6484 0.49313 0.0
H3172 H 0.95632 0.58768 0.50959 0.0
H3173 H 0.92886 0.61058 0.51155 0.0
C3174 C 0.34216 0.81313 0.48897 0.0
C3175 C 0.33976 0.80216 0.50618 0.0
C3176 C 0.35416 0.82968 0.48872 0.0
C3177 C 0.39456 0.85392 0.51535 0.0
H3178 H 0.37751 0.89995 0.48709 0.0
C3179 C 0.44684 0.91739 0.49978 0.0
C3180 C 0.44011 0.93671 0.50193 0.0
C3181 C 0.43398 0.90164 0.5005 0.0
C3182 C 0.38239 0.88729 0.4952 0.0
H3183 H 0.34867 0.79978 0.53647 0.0
H3184 H 0.36948 0.82867 0.53608 0.0
H3185 H 0.35664 0.87099 0.48804 0.0
H3186 H 0.41421 0.95443 0.50614 0.0
H3187 H 0.39158 0.92666 0.50743 0.0
H3188 H 0.42019 0.87019 0.52269 0.0
C3189 C 0.36213 0.82444 0.52272 0.0
C3190 C 0.37055 0.87059 0.49554 0.0
C3191 C 0.35009 0.80792 0.52299 0.0
C3192 C 0.41994 0.93979 0.50443 0.0
C3193 C 0.40697 0.92388 0.50513 0.0
C3194 C 0.40639 0.87056 0.51496 0.0
C3195 C 0.36414 0.83569 0.50565 0.0
C3196 C 0.37655 0.85363 0.50552 0.0
C3197 C 0.41392 0.90458 0.50342 0.0
C3198 C 0.40058 0.8874 0.50472 0.0
H3199 H 0.33424 0.80933 0.47582 0.0
H3200 H 0.35557 0.83781 0.47523 0.0
H3201 H 0.39974 0.84114 0.52307 0.0
H3202 H 0.46218 0.91427 0.49757 0.0
H3203 H 0.43982 0.88706 0.49866 0.0
C3204 C 0.18257 0.33387 0.48139 0.0
C3205 C 0.19949 0.3388 0.49196 0.0
C3206 C 0.16608 0.34591 0.48187 0.0
C3207 C 0.14987 0.39614 0.4923 0.0
H3208 H 0.09916 0.37237 0.50073 0.0
C3209 C 0.08289 0.44316 0.50999 0.0
C3210 C 0.06479 0.4382 0.50164 0.0
C3211 C 0.09877 0.43049 0.50879 0.0
C3212 C 0.11314 0.37925 0.49809 0.0
H3213 H 0.21246 0.36054 0.51097 0.0
H3214 H 0.18368 0.38168 0.51169 0.0
H3215 H 0.12814 0.35177 0.49802 0.0
H3216 H 0.04907 0.41567 0.48595 0.0
H3217 H 0.07706 0.39352 0.48348 0.0
H3218 H 0.13502 0.42356 0.4921 0.0
C3219 C 0.18321 0.36846 0.50302 0.0
C3220 C 0.12978 0.36743 0.49658 0.0
C3221 C 0.19966 0.35631 0.50269 0.0
C3222 C 0.0628 0.4199 0.49257 0.0
C3223 C 0.07885 0.4072 0.49119 0.0
C3224 C 0.13326 0.40793 0.49366 0.0
C3225 C 0.16613 0.36327 0.49281 0.0
C3226 C 0.14836 0.37576 0.49383 0.0
C3227 C 0.09716 0.41251 0.49901 0.0
C3228 C 0.11468 0.39969 0.4968 0.0
H3229 H 0.18183 0.32035 0.47321 0.0
H3230 H 0.15324 0.34159 0.4737 0.0
H3231 H 0.16391 0.40299 0.48986 0.0
H3232 H 0.08488 0.457 0.5174 0.0
H3233 H 0.1124 0.43487 0.51551 0.0
C3234 C 0.3411 0.18741 0.51231 0.0
C3235 C 0.33962 0.19895 0.49538 0.0
C3236 C 0.35308 0.17087 0.51267 0.0
C3237 C 0.39494 0.14763 0.48765 0.0
H3238 H 0.37668 0.10088 0.51389 0.0
C3239 C 0.44674 0.08422 0.50501 0.0
C3240 C 0.44024 0.06493 0.5021 0.0
C3241 C 0.43384 0.09992 0.50383 0.0
C3242 C 0.38192 0.11374 0.50634 0.0
H3243 H 0.35004 0.20228 0.46567 0.0
H3244 H 0.37082 0.17335 0.46623 0.0
H3245 H 0.35564 0.12965 0.5123 0.0
H3246 H 0.41473 0.04716 0.49605 0.0
H3247 H 0.39207 0.0748 0.49395 0.0
H3248 H 0.42111 0.13173 0.48151 0.0
C3249 C 0.36277 0.17716 0.4793 0.0
C3250 C 0.36996 0.13033 0.50564 0.0
C3251 C 0.35075 0.1937 0.47893 0.0
C3252 C 0.42027 0.06178 0.49839 0.0
C3253 C 0.40728 0.07762 0.49722 0.0
C3254 C 0.40689 0.13109 0.48839 0.0
C3255 C 0.36393 0.16541 0.49611 0.0
C3256 C 0.3764 0.14755 0.49642 0.0
C3257 C 0.414 0.09691 0.49969 0.0
C3258 C 0.40064 0.114 0.49793 0.0
H3259 H 0.33253 0.19079 0.52517 0.0
H3260 H 0.35382 0.16235 0.52597 0.0
H3261 H 0.40045 0.16062 0.48054 0.0
H3262 H 0.46191 0.08736 0.50817 0.0
H3263 H 0.43947 0.1145 0.50628 0.0
C3264 C 0.81452 0.34089 0.51149 0.0
C3265 C 0.80286 0.33923 0.49463 0.0
C3266 C 0.83105 0.35288 0.51165 0.0
C3267 C 0.85419 0.39447 0.48611 0.0
H3268 H 0.90096 0.3765 0.51254 0.0
C3269 C 0.9178 0.44637 0.50287 0.0
C3270 C 0.93708 0.4397 0.50024 0.0
C3271 C 0.90204 0.43354 0.50174 0.0
C3272 C 0.88809 0.38166 0.50494 0.0
H3273 H 0.79934 0.34935 0.46484 0.0
H3274 H 0.82828 0.37014 0.46505 0.0
H3275 H 0.8722 0.35546 0.51117 0.0
H3276 H 0.95475 0.41403 0.49467 0.0
H3277 H 0.92701 0.3915 0.49263 0.0
H3278 H 0.87009 0.42056 0.47967 0.0
C3279 C 0.82455 0.36222 0.47822 0.0
C3280 C 0.87151 0.3697 0.50436 0.0
C3281 C 0.80801 0.35019 0.47804 0.0
C3282 C 0.94014 0.41968 0.49681 0.0
C3283 C 0.92424 0.40677 0.49567 0.0
C3284 C 0.87073 0.40642 0.48671 0.0
C3285 C 0.8364 0.36356 0.49496 0.0
C3286 C 0.85428 0.37603 0.49508 0.0
C3287 C 0.90497 0.41362 0.49791 0.0
C3288 C 0.88783 0.40028 0.49632 0.0
H3289 H 0.81124 0.33245 0.52444 0.0
H3290 H 0.83964 0.35377 0.5249 0.0
H3291 H 0.84118 0.39989 0.47894 0.0
H3292 H 0.91476 0.4616 0.50582 0.0
H3293 H 0.88747 0.43928 0.50401 0.0
C3294 C 0.18972 0.66017 0.51542 0.0
C3295 C 0.20134 0.66113 0.49849 0.0
C3296 C 0.17337 0.64791 0.51619 0.0
C3297 C 0.15055 0.60493 0.49223 0.0
H3298 H 0.10317 0.6241 0.51665 0.0
C3299 C 0.08564 0.55408 0.50691 0.0
C3300 C 0.06659 0.56092 0.50326 0.0
C3301 C 0.10159 0.56672 0.50659 0.0
C3302 C 0.11622 0.61859 0.50963 0.0
H3303 H 0.20518 0.64928 0.46937 0.0
H3304 H 0.17664 0.62808 0.47063 0.0
H3305 H 0.13216 0.64487 0.51556 0.0
H3306 H 0.0495 0.58679 0.49691 0.0
H3307 H 0.07759 0.60901 0.49621 0.0
H3308 H 0.13461 0.57884 0.48598 0.0
C3309 C 0.18018 0.63676 0.48337 0.0
C3310 C 0.13295 0.6304 0.50922 0.0
C3311 C 0.1965 0.64903 0.48259 0.0
C3312 C 0.06393 0.58099 0.49977 0.0
C3313 C 0.08003 0.59373 0.49942 0.0
C3314 C 0.13388 0.59316 0.49265 0.0
C3315 C 0.16822 0.63622 0.50008 0.0
C3316 C 0.15037 0.62369 0.50058 0.0
C3317 C 0.09911 0.58666 0.50257 0.0
C3318 C 0.11652 0.59974 0.50148 0.0
H3319 H 0.19282 0.66945 0.52786 0.0
H3320 H 0.16469 0.64767 0.52941 0.0
H3321 H 0.16369 0.59919 0.48557 0.0
H3322 H 0.08837 0.53881 0.51 0.0
H3323 H 0.11595 0.56081 0.50957 0.0
loop_
_geom_bond_atom_site_label_1
_geom_bond_atom_site_label_2
_geom_bond_distance
_geom_bond_site_symmetry_2
_ccdc_geom_bond_type
C0 C1 1.381 1_455 S
C0 H13 0.949 . S
C0 C35 1.382 . S
C1 C0 1.381 1_655 S
C1 C2 1.386 . S
C2 C1 1.386 . S
C2 C3 1.378 . S
C2 H14 0.952 . S
C3 C2 1.378 . S
C3 H15 0.950 . S
C3 C34 1.383 . S
H4 C23 0.947 . S
H5 C24 0.954 . S
H6 C26 0.953 . S
H7 C27 0.945 . S
H8 C29 0.951 1_455 S
H9 C30 0.958 . S
H10 C32 0.950 . S
H11 C33 0.948 . S
H12 C35 0.951 . S
H13 C0 0.949 . S
H14 C2 0.952 . S
H15 C3 0.950 . S
N16 C19 1.382 . S
N16 C21 1.363 . S
N17 C19 1.371 . S
N17 C20 1.372 . S
N18 C20 1.361 . S
N18 C21 1.377 . S
C19 N16 1.382 . S
C19 N17 1.371 . S
C19 C22 1.480 . S
C20 N17 1.372 . S
C20 N18 1.361 . S
C20 C28 1.457 . S
C21 N16 1.363 . S
C21 N18 1.377 . S
C21 C34 1.479 . S
C22 C19 1.480 . S
C22 C23 1.383 . S
C22 C27 1.385 . S
C23 H4 0.947 . S
C23 C22 1.383 . S
C23 C24 1.385 1_655 S
C24 H5 0.954 . S
C24 C23 1.385 1_455 S
C24 C25 1.381 1_455 S
C25 C24 1.381 1_655 S
C25 C26 1.377 . S
C26 H6 0.953 . S
C26 C25 1.377 . S
C26 C27 1.369 . S
C27 H7 0.945 . S
C27 C22 1.385 . S
C27 C26 1.369 . S
C28 C20 1.457 . S
C28 C29 1.374 . S
C28 C33 1.364 . S
C29 H8 0.951 1_655 S
C29 C28 1.374 . S
C29 C30 1.387 1_655 S
C30 H9 0.958 . S
C30 C29 1.387 1_455 S
C30 C31 1.382 1_455 S
C31 C30 1.382 1_655 S
C31 C32 1.372 . S
C32 H10 0.950 . S
C32 C31 1.372 . S
C32 C33 1.379 . S
C33 H11 0.948 . S
C33 C28 1.364 . S
C33 C32 1.379 . S
C34 C3 1.383 . S
C34 C21 1.479 . S
C34 C35 1.398 1_655 S
C35 C0 1.382 . S
C35 H12 0.951 . S
C35 C34 1.398 1_455 S
C36 C37 1.383 1_545 S
C36 H49 0.948 . S
C36 C71 1.382 1_545 S
C37 C36 1.383 1_565 S
C37 C38 1.378 . S
C38 C37 1.378 . S
C38 C39 1.378 . S
C38 H50 0.952 . S
C39 C38 1.378 . S
C39 H51 0.950 . S
C39 C70 1.383 . S
H40 C59 0.947 . S
H41 C60 0.952 . S
H42 C62 0.953 . S
H43 C63 0.945 . S
H44 C65 0.950 1_545 S
H45 C66 0.957 . S
H46 C68 0.950 . S
H47 C69 0.948 . S
H48 C71 0.952 1_545 S
H49 C36 0.948 . S
H50 C38 0.952 . S
H51 C39 0.950 . S
N52 C55 1.382 . S
N52 C57 1.363 . S
N53 C55 1.371 . S
N53 C56 1.372 . S
N54 C56 1.361 . S
N54 C57 1.377 . S
C55 N52 1.382 . S
C55 N53 1.371 . S
C55 C58 1.480 . S
C56 N53 1.372 . S
C56 N54 1.361 . S
C56 C64 1.457 . S
C57 N52 1.363 . S
C57 N54 1.377 . S
C57 C70 1.479 . S
C58 C55 1.480 . S
C58 C59 1.383 . S
C58 C63 1.385 . S
C59 H40 0.947 . S
C59 C58 1.383 . S
C59 C60 1.385 1_565 S
C60 H41 0.952 . S
C60 C59 1.385 1_545 S
C60 C61 1.381 1_545 S
C61 C60 1.381 1_565 S
C61 C62 1.377 . S
C62 H42 0.953 . S
C62 C61 1.377 . S
C62 C63 1.369 . S
C63 H43 0.945 . S
C63 C58 1.385 . S
C63 C62 1.369 . S
C64 C56 1.457 . S
C64 C65 1.375 . S
C64 C69 1.364 . S
C65 H44 0.950 1_565 S
C65 C64 1.375 . S
C65 C66 1.387 1_565 S
C66 H45 0.957 . S
C66 C65 1.387 1_545 S
C66 C67 1.383 1_545 S
C67 C66 1.383 1_565 S
C67 C68 1.372 . S
C68 H46 0.950 . S
C68 C67 1.372 . S
C68 C69 1.379 . S
C69 H47 0.948 . S
C69 C64 1.364 . S
C69 C68 1.379 . S
C70 C39 1.383 . S
C70 C57 1.479 . S
C70 C71 1.397 . S
C71 C36 1.382 1_565 S
C71 H48 0.952 1_565 S
C71 C70 1.397 . S
C72 C73 1.384 . S
C72 H85 0.947 1_455 S
C72 C107 1.382 . S
C73 C72 1.384 . S
C73 C74 1.378 . S
C74 C73 1.378 . S
C74 C75 1.378 . S
C74 H86 0.952 . S
C75 C74 1.378 . S
C75 H87 0.950 . S
C75 C106 1.383 . S
H76 C95 0.947 . S
H77 C96 0.946 . S
H78 C98 0.953 . S
H79 C99 0.945 . S
H80 C101 0.946 1_655 S
H81 C102 0.952 . S
H82 C104 0.950 . S
H83 C105 0.948 . S
H84 C107 0.949 1_655 S
H85 C72 0.947 1_655 S
H86 C74 0.952 . S
H87 C75 0.950 . S
N88 C91 1.382 . S
N88 C93 1.363 . S
N89 C91 1.371 . S
N89 C92 1.372 . S
N90 C92 1.361 . S
N90 C93 1.377 . S
C91 N88 1.382 . S
C91 N89 1.371 . S
C91 C94 1.480 . S
C92 N89 1.372 . S
C92 N90 1.361 . S
C92 C100 1.457 . S
C93 N88 1.363 . S
C93 N90 1.377 . S
C93 C106 1.479 . S
C94 C91 1.480 . S
C94 C95 1.383 . S
C94 C99 1.385 . S
C95 H76 0.947 . S
C95 C94 1.383 . S
C95 C96 1.388 1_455 S
C96 H77 0.946 . S
C96 C95 1.388 1_655 S
C96 C97 1.383 1_655 S
C97 C96 1.383 1_455 S
C97 C98 1.377 . S
C98 H78 0.953 . S
C98 C97 1.377 . S
C98 C99 1.369 . S
C99 H79 0.945 . S
C99 C94 1.385 . S
C99 C98 1.369 . S
C100 C92 1.457 . S
C100 C101 1.381 . S
C100 C105 1.364 . S
C101 H80 0.946 1_455 S
C101 C100 1.381 . S
C101 C102 1.387 1_455 S
C102 H81 0.952 . S
C102 C101 1.387 1_655 S
C102 C103 1.385 1_655 S
C103 C102 1.385 1_455 S
C103 C104 1.372 . S
C104 H82 0.950 . S
C104 C103 1.372 . S
C104 C105 1.379 . S
C105 H83 0.948 . S
C105 C100 1.364 . S
C105 C104 1.379 . S
C106 C75 1.383 . S
C106 C93 1.479 . S
C106 C107 1.401 . S
C107 C72 1.382 . S
C107 H84 0.949 1_455 S
C107 C106 1.401 . S
C108 C109 1.384 . S
C108 H121 0.947 1_545 S
C108 C143 1.382 . S
C109 C108 1.384 . S
C109 C110 1.378 . S
C110 C109 1.378 . S
C110 C111 1.378 . S
C110 H122 0.952 . S
C111 C110 1.378 . S
C111 H123 0.950 . S
C111 C142 1.383 . S
H112 C131 0.947 . S
H113 C132 0.948 . S
H114 C134 0.953 . S
H115 C135 0.945 . S
H116 C137 0.947 1_565 S
H117 C138 0.953 . S
H118 C140 0.950 . S
H119 C141 0.948 . S
H120 C143 0.950 1_565 S
H121 C108 0.947 1_565 S
H122 C110 0.952 . S
H123 C111 0.950 . S
N124 C127 1.382 . S
N124 C129 1.363 . S
N125 C127 1.371 . S
N125 C128 1.372 . S
N126 C128 1.361 . S
N126 C129 1.377 . S
C127 N124 1.382 . S
C127 N125 1.371 . S
C127 C130 1.480 . S
C128 N125 1.372 . S
C128 N126 1.361 . S
C128 C136 1.457 . S
C129 N124 1.363 . S
C129 N126 1.377 . S
C129 C142 1.479 . S
C130 C127 1.480 . S
C130 C131 1.383 . S
C130 C135 1.385 . S
C131 H112 0.947 . S
C131 C130 1.383 . S
C131 C132 1.387 1_545 S
C132 H113 0.948 . S
C132 C131 1.387 1_565 S
C132 C133 1.383 1_565 S
C133 C132 1.383 1_545 S
C133 C134 1.377 . S
C134 H114 0.953 . S
C134 C133 1.377 . S
C134 C135 1.369 . S
C135 H115 0.945 . S
C135 C130 1.385 . S
C135 C134 1.369 . S
C136 C128 1.457 . S
C136 C137 1.380 . S
C136 C141 1.364 . S
C137 H116 0.947 1_545 S
C137 C136 1.380 . S
C137 C138 1.387 1_545 S
C138 H117 0.953 . S
C138 C137 1.387 1_565 S
C138 C139 1.384 1_565 S
C139 C138 1.384 1_545 S
C139 C140 1.372 . S
C140 H118 0.950 . S
C140 C139 1.372 . S
C140 C141 1.379 . S
C141 H119 0.948 . S
C141 C136 1.364 . S
C141 C140 1.379 . S
C142 C111 1.383 . S
C142 C129 1.479 . S
C142 C143 1.400 . S
C143 C108 1.382 . S
C143 H120 0.950 1_545 S
C143 C142 1.400 . S
C144 C145 1.381 1_455 S
C144 H157 0.949 . S
C144 C179 1.382 . S
C145 C144 1.381 1_655 S
C145 C146 1.386 . S
C146 C145 1.386 . S
C146 C147 1.378 . S
C146 H158 0.952 . S
C147 C146 1.378 . S
C147 H159 0.950 . S
C147 C178 1.383 . S
H148 C167 0.947 . S
H149 C168 0.954 . S
H150 C170 0.953 . S
H151 C171 0.945 . S
H152 C173 0.951 1_455 S
H153 C174 0.958 . S
H154 C176 0.950 . S
H155 C177 0.948 . S
H156 C179 0.951 . S
H157 C144 0.949 . S
H158 C146 0.952 . S
H159 C147 0.950 . S
N160 C163 1.382 . S
N160 C165 1.363 . S
N161 C163 1.371 . S
N161 C164 1.372 . S
N162 C164 1.361 . S
N162 C165 1.377 . S
C163 N160 1.382 . S
C163 N161 1.371 . S
C163 C166 1.480 . S
C164 N161 1.372 . S
C164 N162 1.361 . S
C164 C172 1.457 . S
C165 N160 1.363 . S
C165 N162 1.377 . S
C165 C178 1.479 . S
C166 C163 1.480 . S
C166 C167 1.383 . S
C166 C171 1.385 . S
C167 H148 0.947 . S
C167 C166 1.383 . S
C167 C168 1.385 1_655 S
C168 H149 0.954 . S
C168 C167 1.385 1_455 S
C168 C169 1.381 1_455 S
C169 C168 1.381 1_655 S
C169 C170 1.377 . S
C170 H150 0.953 . S
C170 C169 1.377 . S
C170 C171 1.369 . S
C171 H151 0.945 . S
C171 C166 1.385 . S
C171 C170 1.369 . S
C172 C164 1.457 . S
C172 C173 1.374 . S
C172 C177 1.364 . S
C173 H152 0.951 1_655 S
C173 C172 1.374 . S
C173 C174 1.387 1_655 S
C174 H153 0.958 . S
C174 C173 1.387 1_455 S
C174 C175 1.382 1_455 S
C175 C174 1.382 1_655 S
C175 C176 1.372 . S
C176 H154 0.950 . S
C176 C175 1.372 . S
C176 C177 1.379 . S
C177 H155 0.948 . S
C177 C172 1.364 . S
C177 C176 1.379 . S
C178 C147 1.383 . S
C178 C165 1.479 . S
C178 C179 1.398 1_655 S
C179 C144 1.382 . S
C179 H156 0.951 . S
C179 C178 1.398 1_455 S
C180 C181 1.384 . S
C180 H193 0.947 1_545 S
C180 C215 1.382 . S
C181 C180 1.384 . S
C181 C182 1.378 . S
C182 C181 1.378 . S
C182 C183 1.378 . S
C182 H194 0.952 . S
C183 C182 1.378 . S
C183 H195 0.950 . S
C183 C214 1.383 . S
H184 C203 0.947 . S
H185 C204 0.948 . S
H186 C206 0.953 . S
H187 C207 0.945 . S
H188 C209 0.947 1_565 S
H189 C210 0.953 . S
H190 C212 0.950 . S
H191 C213 0.948 . S
H192 C215 0.950 1_565 S
H193 C180 0.947 1_565 S
H194 C182 0.952 . S
H195 C183 0.950 . S
N196 C199 1.382 . S
N196 C201 1.363 . S
N197 C199 1.371 . S
N197 C200 1.372 . S
N198 C200 1.361 . S
N198 C201 1.377 . S
C199 N196 1.382 . S
C199 N197 1.371 . S
C199 C202 1.480 . S
C200 N197 1.372 . S
C200 N198 1.361 . S
C200 C208 1.457 . S
C201 N196 1.363 . S
C201 N198 1.377 . S
C201 C214 1.479 . S
C202 C199 1.480 . S
C202 C203 1.383 . S
C202 C207 1.385 . S
C203 H184 0.947 . S
C203 C202 1.383 . S
C203 C204 1.387 1_545 S
C204 H185 0.948 . S
C204 C203 1.387 1_565 S
C204 C205 1.383 1_565 S
C205 C204 1.383 1_545 S
C205 C206 1.377 . S
C206 H186 0.953 . S
C206 C205 1.377 . S
C206 C207 1.369 . S
C207 H187 0.945 . S
C207 C202 1.385 . S
C207 C206 1.369 . S
C208 C200 1.457 . S
C208 C209 1.379 . S
C208 C213 1.364 . S
C209 H188 0.947 1_545 S
C209 C208 1.379 . S
C209 C210 1.387 1_545 S
C210 H189 0.953 . S
C210 C209 1.387 1_565 S
C210 C211 1.384 1_565 S
C211 C210 1.384 1_545 S
C211 C212 1.372 . S
C212 H190 0.950 . S
C212 C211 1.372 . S
C212 C213 1.379 . S
C213 H191 0.948 . S
C213 C208 1.364 . S
C213 C212 1.379 . S
C214 C183 1.383 . S
C214 C201 1.479 . S
C214 C215 1.400 . S
C215 C180 1.382 . S
C215 H192 0.950 1_545 S
C215 C214 1.400 . S
C216 C217 1.384 . S
C216 H229 0.947 1_455 S
C216 C251 1.382 . S
C217 C216 1.384 . S
C217 C218 1.378 . S
C218 C217 1.378 . S
C218 C219 1.378 . S
C218 H230 0.952 . S
C219 C218 1.378 . S
C219 H231 0.950 . S
C219 C250 1.383 . S
H220 C239 0.947 . S
H221 C240 0.947 . S
H222 C242 0.953 . S
H223 C243 0.945 . S
H224 C245 0.946 1_655 S
H225 C246 0.952 . S
H226 C248 0.950 . S
H227 C249 0.948 . S
H228 C251 0.949 1_655 S
H229 C216 0.947 1_655 S
H230 C218 0.952 . S
H231 C219 0.950 . S
N232 C235 1.382 . S
N232 C237 1.363 . S
N233 C235 1.371 . S
N233 C236 1.372 . S
N234 C236 1.361 . S
N234 C237 1.377 . S
C235 N232 1.382 . S
C235 N233 1.371 . S
C235 C238 1.480 . S
C236 N233 1.372 . S
C236 N234 1.361 . S
C236 C244 1.457 . S
C237 N232 1.363 . S
C237 N234 1.377 . S
C237 C250 1.479 . S
C238 C235 1.480 . S
C238 C239 1.383 . S
C238 C243 1.385 . S
C239 H220 0.947 . S
C239 C238 1.383 . S
C239 C240 1.388 1_455 S
C240 H221 0.947 . S
C240 C239 1.388 1_655 S
C240 C241 1.383 1_655 S
C241 C240 1.383 1_455 S
C241 C242 1.377 . S
C242 H222 0.953 . S
C242 C241 1.377 . S
C242 C243 1.369 . S
C243 H223 0.945 . S
C243 C238 1.385 . S
C243 C242 1.369 . S
C244 C236 1.457 . S
C244 C245 1.381 . S
C244 C249 1.364 . S
C245 H224 0.946 1_455 S
C245 C244 1.381 . S
C245 C246 1.387 1_455 S
C246 H225 0.952 . S
C246 C245 1.387 1_655 S
C246 C247 1.385 1_655 S
C247 C246 1.385 1_455 S
C247 C248 1.372 . S
C248 H226 0.950 . S
C248 C247 1.372 . S
C248 C249 1.379 . S
C249 H227 0.948 . S
C249 C244 1.364 . S
C249 C248 1.379 . S
C250 C219 1.383 . S
C250 C237 1.479 . S
C250 C251 1.401 . S
C251 C216 1.382 . S
C251 H228 0.949 1_455 S
C251 C250 1.401 . S
C252 C253 1.383 1_545 S
C252 H265 0.948 . S
C252 C287 1.382 1_545 S
C253 C252 1.383 1_565 S
C253 C254 1.378 . S
C254 C253 1.378 . S
C254 C255 1.378 . S
C254 H266 0.952 . S
C255 C254 1.378 . S
C255 H267 0.950 . S
C255 C286 1.383 . S
H256 C275 0.947 . S
H257 C276 0.952 . S
H258 C278 0.953 . S
H259 C279 0.945 . S
H260 C281 0.949 1_545 S
H261 C282 0.957 . S
H262 C284 0.950 . S
H263 C285 0.948 . S
H264 C287 0.952 1_545 S
H265 C252 0.948 . S
H266 C254 0.952 . S
H267 C255 0.950 . S
N268 C271 1.382 . S
N268 C273 1.363 . S
N269 C271 1.371 . S
N269 C272 1.372 . S
N270 C272 1.361 . S
N270 C273 1.377 . S
C271 N268 1.382 . S
C271 N269 1.371 . S
C271 C274 1.480 . S
C272 N269 1.372 . S
C272 N270 1.361 . S
C272 C280 1.457 . S
C273 N268 1.363 . S
C273 N270 1.377 . S
C273 C286 1.479 . S
C274 C271 1.480 . S
C274 C275 1.383 . S
C274 C279 1.385 . S
C275 H256 0.947 . S
C275 C274 1.383 . S
C275 C276 1.386 1_565 S
C276 H257 0.952 . S
C276 C275 1.386 1_545 S
C276 C277 1.381 1_545 S
C277 C276 1.381 1_565 S
C277 C278 1.377 . S
C278 H258 0.953 . S
C278 C277 1.377 . S
C278 C279 1.369 . S
C279 H259 0.945 . S
C279 C274 1.385 . S
C279 C278 1.369 . S
C280 C272 1.457 . S
C280 C281 1.375 . S
C280 C285 1.364 . S
C281 H260 0.949 1_565 S
C281 C280 1.375 . S
C281 C282 1.387 1_565 S
C282 H261 0.957 . S
C282 C281 1.387 1_545 S
C282 C283 1.383 1_545 S
C283 C282 1.383 1_565 S
C283 C284 1.372 . S
C284 H262 0.950 . S
C284 C283 1.372 . S
C284 C285 1.379 . S
C285 H263 0.948 . S
C285 C280 1.364 . S
C285 C284 1.379 . S
C286 C255 1.383 . S
C286 C273 1.479 . S
C286 C287 1.397 . S
C287 C252 1.382 1_565 S
C287 H264 0.952 1_565 S
C287 C286 1.397 . S
C288 C289 1.385 . S
C288 H301 0.944 1_554 S
C288 C323 1.382 . S
C289 C288 1.385 . S
C289 C290 1.378 . S
C290 C289 1.378 . S
C290 C291 1.378 . S
C290 H302 0.952 . S
C291 C290 1.378 . S
C291 H303 0.950 . S
C291 C322 1.383 . S
H292 C311 0.947 . S
H293 C312 0.946 1_556 S
H294 C314 0.953 . S
H295 C315 0.945 . S
H296 C317 0.945 1_556 S
H297 C318 0.949 . S
H298 C320 0.950 . S
H299 C321 0.948 . S
H300 C323 0.946 1_556 S
H301 C288 0.944 1_556 S
H302 C290 0.952 . S
H303 C291 0.950 . S
N304 C307 1.382 . S
N304 C309 1.363 . S
N305 C307 1.371 . S
N305 C308 1.372 . S
N306 C308 1.361 . S
N306 C309 1.377 . S
C307 N304 1.382 . S
C307 N305 1.371 . S
C307 C310 1.480 . S
C308 N305 1.372 . S
C308 N306 1.361 . S
C308 C316 1.457 . S
C309 N304 1.363 . S
C309 N306 1.377 . S
C309 C322 1.479 . S
C310 C307 1.480 . S
C310 C311 1.383 . S
C310 C315 1.385 . S
C311 H292 0.947 . S
C311 C310 1.383 . S
C311 C312 1.388 . S
C312 H293 0.946 1_554 S
C312 C311 1.388 . S
C312 C313 1.384 . S
C313 C312 1.384 . S
C313 C314 1.377 . S
C314 H294 0.953 . S
C314 C313 1.377 . S
C314 C315 1.369 . S
C315 H295 0.945 . S
C315 C310 1.385 . S
C315 C314 1.369 . S
C316 C308 1.457 . S
C316 C317 1.385 . S
C316 C321 1.364 . S
C317 H296 0.945 1_554 S
C317 C316 1.385 . S
C317 C318 1.387 1_554 S
C318 H297 0.949 . S
C318 C317 1.387 1_556 S
C318 C319 1.386 1_556 S
C319 C318 1.386 1_554 S
C319 C320 1.372 . S
C320 H298 0.950 . S
C320 C319 1.372 . S
C320 C321 1.379 . S
C321 H299 0.948 . S
C321 C316 1.364 . S
C321 C320 1.379 . S
C322 C291 1.383 . S
C322 C309 1.479 . S
C322 C323 1.403 . S
C323 C288 1.382 . S
C323 H300 0.946 1_554 S
C323 C322 1.403 . S
C324 C325 1.381 1_554 S
C324 H337 0.950 . S
C324 C359 1.382 . S
C325 C324 1.381 1_556 S
C325 C326 1.384 . S
C326 C325 1.384 . S
C326 C327 1.378 . S
C326 H338 0.952 . S
C327 C326 1.378 . S
C327 H339 0.950 . S
C327 C358 1.383 . S
H328 C347 0.947 . S
H329 C348 0.959 . S
H330 C350 0.953 . S
H331 C351 0.945 . S
H332 C353 0.951 . S
H333 C354 0.949 . S
H334 C356 0.950 . S
H335 C357 0.948 . S
H336 C359 0.953 . S
H337 C324 0.950 . S
H338 C326 0.952 . S
H339 C327 0.950 . S
N340 C343 1.382 . S
N340 C345 1.363 . S
N341 C343 1.371 . S
N341 C344 1.372 . S
N342 C344 1.361 . S
N342 C345 1.377 . S
C343 N340 1.382 . S
C343 N341 1.371 . S
C343 C346 1.480 . S
C344 N341 1.372 . S
C344 N342 1.361 . S
C344 C352 1.457 . S
C345 N340 1.363 . S
C345 N342 1.377 . S
C345 C358 1.479 . S
C346 C343 1.480 . S
C346 C347 1.383 . S
C346 C351 1.385 . S
C347 H328 0.947 . S
C347 C346 1.383 . S
C347 C348 1.384 1_556 S
C348 H329 0.959 . S
C348 C347 1.384 1_554 S
C348 C349 1.380 1_554 S
C349 C348 1.380 1_556 S
C349 C350 1.377 . S
C350 H330 0.953 . S
C350 C349 1.377 . S
C350 C351 1.369 . S
C351 H331 0.945 . S
C351 C346 1.385 . S
C351 C350 1.369 . S
C352 C344 1.457 . S
C352 C353 1.373 1_556 S
C352 C357 1.364 . S
C353 H332 0.951 . S
C353 C352 1.373 1_554 S
C353 C354 1.388 . S
C354 H333 0.949 . S
C354 C353 1.388 . S
C354 C355 1.381 1_554 S
C355 C354 1.381 1_556 S
C355 C356 1.383 . S
C356 H334 0.950 . S
C356 C355 1.383 . S
C356 C357 1.379 . S
C357 H335 0.948 . S
C357 C352 1.364 . S
C357 C356 1.379 . S
C358 C327 1.383 . S
C358 C345 1.479 . S
C358 C359 1.396 1_556 S
C359 C324 1.382 . S
C359 H336 0.953 . S
C359 C358 1.396 1_554 S
C360 C361 1.381 1_554 S
C360 H373 0.950 . S
C360 C395 1.382 . S
C361 C360 1.381 1_556 S
C361 C362 1.384 . S
C362 C361 1.384 . S
C362 C363 1.378 . S
C362 H374 0.952 . S
C363 C362 1.378 . S
C363 H375 0.950 . S
C363 C394 1.383 . S
H364 C383 0.947 . S
H365 C384 0.959 . S
H366 C386 0.953 . S
H367 C387 0.945 . S
H368 C389 0.951 . S
H369 C390 0.949 . S
H370 C392 0.950 . S
H371 C393 0.948 . S
H372 C395 0.953 . S
H373 C360 0.950 . S
H374 C362 0.952 . S
H375 C363 0.950 . S
N376 C379 1.382 . S
N376 C381 1.363 . S
N377 C379 1.371 . S
N377 C380 1.372 . S
N378 C380 1.361 . S
N378 C381 1.377 . S
C379 N376 1.382 . S
C379 N377 1.371 . S
C379 C382 1.480 . S
C380 N377 1.372 . S
C380 N378 1.361 . S
C380 C388 1.457 . S
C381 N376 1.363 . S
C381 N378 1.377 . S
C381 C394 1.479 . S
C382 C379 1.480 . S
C382 C383 1.383 . S
C382 C387 1.385 . S
C383 H364 0.947 . S
C383 C382 1.383 . S
C383 C384 1.384 1_556 S
C384 H365 0.959 . S
C384 C383 1.384 1_554 S
C384 C385 1.380 1_554 S
C385 C384 1.380 1_556 S
C385 C386 1.377 . S
C386 H366 0.953 . S
C386 C385 1.377 . S
C386 C387 1.369 . S
C387 H367 0.945 . S
C387 C382 1.385 . S
C387 C386 1.369 . S
C388 C380 1.457 . S
C388 C389 1.373 1_556 S
C388 C393 1.364 . S
C389 H368 0.951 . S
C389 C388 1.373 1_554 S
C389 C390 1.388 . S
C390 H369 0.949 . S
C390 C389 1.388 . S
C390 C391 1.381 1_554 S
C391 C390 1.381 1_556 S
C391 C392 1.383 . S
C392 H370 0.950 . S
C392 C391 1.383 . S
C392 C393 1.379 . S
C393 H371 0.948 . S
C393 C388 1.364 . S
C393 C392 1.379 . S
C394 C363 1.383 . S
C394 C381 1.479 . S
C394 C395 1.396 1_556 S
C395 C360 1.382 . S
C395 H372 0.953 . S
C395 C394 1.396 1_554 S
C396 C397 1.381 1_554 S
C396 H409 0.951 . S
C396 C431 1.382 . S
C397 C396 1.381 1_556 S
C397 C398 1.383 . S
C398 C397 1.383 . S
C398 C399 1.378 . S
C398 H410 0.952 . S
C399 C398 1.378 . S
C399 H411 0.950 . S
C399 C430 1.383 . S
H400 C419 0.947 . S
H401 C420 0.958 . S
H402 C422 0.953 . S
H403 C423 0.945 . S
H404 C425 0.951 . S
H405 C426 0.949 . S
H406 C428 0.950 . S
H407 C429 0.948 . S
H408 C431 0.953 . S
H409 C396 0.951 . S
H410 C398 0.952 . S
H411 C399 0.950 . S
N412 C415 1.382 . S
N412 C417 1.363 . S
N413 C415 1.371 . S
N413 C416 1.372 . S
N414 C416 1.361 . S
N414 C417 1.377 . S
C415 N412 1.382 . S
C415 N413 1.371 . S
C415 C418 1.480 . S
C416 N413 1.372 . S
C416 N414 1.361 . S
C416 C424 1.457 . S
C417 N412 1.363 . S
C417 N414 1.377 . S
C417 C430 1.479 . S
C418 C415 1.480 . S
C418 C419 1.383 . S
C418 C423 1.385 . S
C419 H400 0.947 . S
C419 C418 1.383 . S
C419 C420 1.384 1_556 S
C420 H401 0.958 . S
C420 C419 1.384 1_554 S
C420 C421 1.380 1_554 S
C421 C420 1.380 1_556 S
C421 C422 1.377 . S
C422 H402 0.953 . S
C422 C421 1.377 . S
C422 C423 1.369 . S
C423 H403 0.945 . S
C423 C418 1.385 . S
C423 C422 1.369 . S
C424 C416 1.457 . S
C424 C425 1.373 1_556 S
C424 C429 1.364 . S
C425 H404 0.951 . S
C425 C424 1.373 1_554 S
C425 C426 1.388 . S
C426 H405 0.949 . S
C426 C425 1.388 . S
C426 C427 1.381 1_554 S
C427 C426 1.381 1_556 S
C427 C428 1.383 . S
C428 H406 0.950 . S
C428 C427 1.383 . S
C428 C429 1.379 . S
C429 H407 0.948 . S
C429 C424 1.364 . S
C429 C428 1.379 . S
C430 C399 1.383 . S
C430 C417 1.479 . S
C430 C431 1.396 1_556 S
C431 C396 1.382 . S
C431 H408 0.953 . S
C431 C430 1.396 1_554 S
C432 C433 1.384 . S
C432 H445 0.947 . S
C432 C467 1.382 . S
C433 C432 1.384 . S
C433 C434 1.378 . S
C434 C433 1.378 . S
C434 C435 1.378 . S
C434 H446 0.952 . S
C435 C434 1.378 . S
C435 H447 0.950 . S
C435 C466 1.383 . S
H436 C455 0.947 . S
H437 C456 0.946 . S
H438 C458 0.953 . S
H439 C459 0.945 . S
H440 C461 0.952 . S
H441 C462 0.949 . S
H442 C464 0.950 . S
H443 C465 0.948 . S
H444 C467 0.951 . S
H445 C432 0.947 . S
H446 C434 0.952 . S
H447 C435 0.950 . S
N448 C451 1.382 . S
N448 C453 1.363 . S
N449 C451 1.371 . S
N449 C452 1.372 . S
N450 C452 1.361 . S
N450 C453 1.377 . S
C451 N448 1.382 . S
C451 N449 1.371 . S
C451 C454 1.480 . S
C452 N449 1.372 . S
C452 N450 1.361 . S
C452 C460 1.457 . S
C453 N448 1.363 . S
C453 N450 1.377 . S
C453 C466 1.479 . S
C454 C451 1.480 . S
C454 C455 1.383 . S
C454 C459 1.385 . S
C455 H436 0.947 . S
C455 C454 1.383 . S
C455 C456 1.388 . S
C456 H437 0.946 . S
C456 C455 1.388 . S
C456 C457 1.384 . S
C457 C456 1.384 . S
C457 C458 1.377 . S
C458 H438 0.953 . S
C458 C457 1.377 . S
C458 C459 1.369 . S
C459 H439 0.945 . S
C459 C454 1.385 . S
C459 C458 1.369 . S
C460 C452 1.457 . S
C460 C461 1.372 . S
C460 C465 1.364 . S
C461 H440 0.952 . S
C461 C460 1.372 . S
C461 C462 1.389 . S
C462 H441 0.949 . S
C462 C461 1.389 . S
C462 C463 1.387 . S
C463 C462 1.387 . S
C463 C464 1.372 . S
C464 H442 0.950 . S
C464 C463 1.372 . S
C464 C465 1.379 . S
C465 H443 0.948 . S
C465 C460 1.364 . S
C465 C464 1.379 . S
C466 C435 1.383 . S
C466 C453 1.479 . S
C466 C467 1.398 . S
C467 C432 1.382 . S
C467 H444 0.951 . S
C467 C466 1.398 . S
C468 C469 1.384 . S
C468 H481 0.947 . S
C468 C503 1.382 . S
C469 C468 1.384 . S
C469 C470 1.378 . S
C470 C469 1.378 . S
C470 C471 1.378 . S
C470 H482 0.952 . S
C471 C470 1.378 . S
C471 H483 0.950 . S
C471 C502 1.383 . S
H472 C491 0.947 . S
H473 C492 0.946 . S
H474 C494 0.953 . S
H475 C495 0.945 . S
H476 C497 0.952 . S
H477 C498 0.949 . S
H478 C500 0.950 . S
H479 C501 0.948 . S
H480 C503 0.951 . S
H481 C468 0.947 . S
H482 C470 0.952 . S
H483 C471 0.950 . S
N484 C487 1.382 . S
N484 C489 1.363 . S
N485 C487 1.371 . S
N485 C488 1.372 . S
N486 C488 1.361 . S
N486 C489 1.377 . S
C487 N484 1.382 . S
C487 N485 1.371 . S
C487 C490 1.480 . S
C488 N485 1.372 . S
C488 N486 1.361 . S
C488 C496 1.457 . S
C489 N484 1.363 . S
C489 N486 1.377 . S
C489 C502 1.479 . S
C490 C487 1.480 . S
C490 C491 1.383 . S
C490 C495 1.385 . S
C491 H472 0.947 . S
C491 C490 1.383 . S
C491 C492 1.388 . S
C492 H473 0.946 . S
C492 C491 1.388 . S
C492 C493 1.384 . S
C493 C492 1.384 . S
C493 C494 1.377 . S
C494 H474 0.953 . S
C494 C493 1.377 . S
C494 C495 1.369 . S
C495 H475 0.945 . S
C495 C490 1.385 . S
C495 C494 1.369 . S
C496 C488 1.457 . S
C496 C497 1.372 . S
C496 C501 1.364 . S
C497 H476 0.952 . S
C497 C496 1.372 . S
C497 C498 1.389 . S
C498 H477 0.949 . S
C498 C497 1.389 . S
C498 C499 1.387 . S
C499 C498 1.387 . S
C499 C500 1.372 . S
C500 H478 0.950 . S
C500 C499 1.372 . S
C500 C501 1.379 . S
C501 H479 0.948 . S
C501 C496 1.364 . S
C501 C500 1.379 . S
C502 C471 1.383 . S
C502 C489 1.479 . S
C502 C503 1.398 . S
C503 C468 1.382 . S
C503 H480 0.951 . S
C503 C502 1.398 . S
C504 C505 1.384 . S
C504 H517 0.947 . S
C504 C539 1.382 . S
C505 C504 1.384 . S
C505 C506 1.378 . S
C506 C505 1.378 . S
C506 C507 1.378 . S
C506 H518 0.952 . S
C507 C506 1.378 . S
C507 H519 0.950 . S
C507 C538 1.383 . S
H508 C527 0.947 . S
H509 C528 0.946 . S
H510 C530 0.953 . S
H511 C531 0.945 . S
H512 C533 0.952 . S
H513 C534 0.949 . S
H514 C536 0.950 . S
H515 C537 0.948 . S
H516 C539 0.951 . S
H517 C504 0.947 . S
H518 C506 0.952 . S
H519 C507 0.950 . S
N520 C523 1.382 . S
N520 C525 1.363 . S
N521 C523 1.371 . S
N521 C524 1.372 . S
N522 C524 1.361 . S
N522 C525 1.377 . S
C523 N520 1.382 . S
C523 N521 1.371 . S
C523 C526 1.480 . S
C524 N521 1.372 . S
C524 N522 1.361 . S
C524 C532 1.457 . S
C525 N520 1.363 . S
C525 N522 1.377 . S
C525 C538 1.479 . S
C526 C523 1.480 . S
C526 C527 1.383 . S
C526 C531 1.385 . S
C527 H508 0.947 . S
C527 C526 1.383 . S
C527 C528 1.388 . S
C528 H509 0.946 . S
C528 C527 1.388 . S
C528 C529 1.384 . S
C529 C528 1.384 . S
C529 C530 1.377 . S
C530 H510 0.953 . S
C530 C529 1.377 . S
C530 C531 1.369 . S
C531 H511 0.945 . S
C531 C526 1.385 . S
C531 C530 1.369 . S
C532 C524 1.457 . S
C532 C533 1.372 . S
C532 C537 1.364 . S
C533 H512 0.952 . S
C533 C532 1.372 . S
C533 C534 1.389 . S
C534 H513 0.949 . S
C534 C533 1.389 . S
C534 C535 1.387 . S
C535 C534 1.387 . S
C535 C536 1.372 . S
C536 H514 0.950 . S
C536 C535 1.372 . S
C536 C537 1.379 . S
C537 H515 0.948 . S
C537 C532 1.364 . S
C537 C536 1.379 . S
C538 C507 1.383 . S
C538 C525 1.479 . S
C538 C539 1.398 . S
C539 C504 1.382 . S
C539 H516 0.951 . S
C539 C538 1.398 . S
C540 C541 1.384 . S
C540 H553 0.947 . S
C540 C575 1.382 . S
C541 C540 1.384 . S
C541 C542 1.378 . S
C542 C541 1.378 . S
C542 C543 1.378 . S
C542 H554 0.952 . S
C543 C542 1.378 . S
C543 H555 0.950 . S
C543 C574 1.383 . S
H544 C563 0.947 . S
H545 C564 0.946 . S
H546 C566 0.953 . S
H547 C567 0.945 . S
H548 C569 0.952 . S
H549 C570 0.949 . S
H550 C572 0.950 . S
H551 C573 0.948 . S
H552 C575 0.951 . S
H553 C540 0.947 . S
H554 C542 0.952 . S
H555 C543 0.950 . S
N556 C559 1.382 . S
N556 C561 1.363 . S
N557 C559 1.371 . S
N557 C560 1.372 . S
N558 C560 1.361 . S
N558 C561 1.377 . S
C559 N556 1.382 . S
C559 N557 1.371 . S
C559 C562 1.480 . S
C560 N557 1.372 . S
C560 N558 1.361 . S
C560 C568 1.457 . S
C561 N556 1.363 . S
C561 N558 1.377 . S
C561 C574 1.479 . S
C562 C559 1.480 . S
C562 C563 1.383 . S
C562 C567 1.385 . S
C563 H544 0.947 . S
C563 C562 1.383 . S
C563 C564 1.388 . S
C564 H545 0.946 . S
C564 C563 1.388 . S
C564 C565 1.384 . S
C565 C564 1.384 . S
C565 C566 1.377 . S
C566 H546 0.953 . S
C566 C565 1.377 . S
C566 C567 1.369 . S
C567 H547 0.945 . S
C567 C562 1.385 . S
C567 C566 1.369 . S
C568 C560 1.457 . S
C568 C569 1.372 . S
C568 C573 1.364 . S
C569 H548 0.952 . S
C569 C568 1.372 . S
C569 C570 1.389 . S
C570 H549 0.949 . S
C570 C569 1.389 . S
C570 C571 1.387 . S
C571 C570 1.387 . S
C571 C572 1.372 . S
C572 H550 0.950 . S
C572 C571 1.372 . S
C572 C573 1.379 . S
C573 H551 0.948 . S
C573 C568 1.364 . S
C573 C572 1.379 . S
C574 C543 1.383 . S
C574 C561 1.479 . S
C574 C575 1.398 . S
C575 C540 1.382 . S
C575 H552 0.951 . S
C575 C574 1.398 . S
C576 C577 1.384 . S
C576 H589 0.947 . S
C576 C611 1.382 . S
C577 C576 1.384 . S
C577 C578 1.378 . S
C578 C577 1.378 . S
C578 C579 1.378 . S
C578 H590 0.952 . S
C579 C578 1.378 . S
C579 H591 0.950 . S
C579 C610 1.383 . S
H580 C599 0.947 . S
H581 C600 0.946 . S
H582 C602 0.953 . S
H583 C603 0.945 . S
H584 C605 0.952 . S
H585 C606 0.949 . S
H586 C608 0.950 . S
H587 C609 0.948 . S
H588 C611 0.951 . S
H589 C576 0.947 . S
H590 C578 0.952 . S
H591 C579 0.950 . S
N592 C595 1.382 . S
N592 C597 1.363 . S
N593 C595 1.371 . S
N593 C596 1.372 . S
N594 C596 1.361 . S
N594 C597 1.377 . S
C595 N592 1.382 . S
C595 N593 1.371 . S
C595 C598 1.480 . S
C596 N593 1.372 . S
C596 N594 1.361 . S
C596 C604 1.457 . S
C597 N592 1.363 . S
C597 N594 1.377 . S
C597 C610 1.479 . S
C598 C595 1.480 . S
C598 C599 1.383 . S
C598 C603 1.385 . S
C599 H580 0.947 . S
C599 C598 1.383 . S
C599 C600 1.388 . S
C600 H581 0.946 . S
C600 C599 1.388 . S
C600 C601 1.384 . S
C601 C600 1.384 . S
C601 C602 1.377 . S
C602 H582 0.953 . S
C602 C601 1.377 . S
C602 C603 1.369 . S
C603 H583 0.945 . S
C603 C598 1.385 . S
C603 C602 1.369 . S
C604 C596 1.457 . S
C604 C605 1.372 . S
C604 C609 1.364 . S
C605 H584 0.952 . S
C605 C604 1.372 . S
C605 C606 1.389 . S
C606 H585 0.949 . S
C606 C605 1.389 . S
C606 C607 1.387 . S
C607 C606 1.387 . S
C607 C608 1.372 . S
C608 H586 0.950 . S
C608 C607 1.372 . S
C608 C609 1.379 . S
C609 H587 0.948 . S
C609 C604 1.364 . S
C609 C608 1.379 . S
C610 C579 1.383 . S
C610 C597 1.479 . S
C610 C611 1.398 . S
C611 C576 1.382 . S
C611 H588 0.951 . S
C611 C610 1.398 . S
C612 C613 1.384 . S
C612 H625 0.947 . S
C612 C647 1.382 . S
C613 C612 1.384 . S
C613 C614 1.378 . S
C614 C613 1.378 . S
C614 C615 1.378 . S
C614 H626 0.952 . S
C615 C614 1.378 . S
C615 H627 0.950 . S
C615 C646 1.383 . S
H616 C635 0.947 . S
H617 C636 0.946 . S
H618 C638 0.953 . S
H619 C639 0.945 . S
H620 C641 0.952 . S
H621 C642 0.949 . S
H622 C644 0.950 . S
H623 C645 0.948 . S
H624 C647 0.951 . S
H625 C612 0.947 . S
H626 C614 0.952 . S
H627 C615 0.950 . S
N628 C631 1.382 . S
N628 C633 1.363 . S
N629 C631 1.371 . S
N629 C632 1.372 . S
N630 C632 1.361 . S
N630 C633 1.377 . S
C631 N628 1.382 . S
C631 N629 1.371 . S
C631 C634 1.480 . S
C632 N629 1.372 . S
C632 N630 1.361 . S
C632 C640 1.457 . S
C633 N628 1.363 . S
C633 N630 1.377 . S
C633 C646 1.479 . S
C634 C631 1.480 . S
C634 C635 1.383 . S
C634 C639 1.385 . S
C635 H616 0.947 . S
C635 C634 1.383 . S
C635 C636 1.388 . S
C636 H617 0.946 . S
C636 C635 1.388 . S
C636 C637 1.384 . S
C637 C636 1.384 . S
C637 C638 1.377 . S
C638 H618 0.953 . S
C638 C637 1.377 . S
C638 C639 1.369 . S
C639 H619 0.945 . S
C639 C634 1.385 . S
C639 C638 1.369 . S
C640 C632 1.457 . S
C640 C641 1.372 . S
C640 C645 1.364 . S
C641 H620 0.952 . S
C641 C640 1.372 . S
C641 C642 1.389 . S
C642 H621 0.949 . S
C642 C641 1.389 . S
C642 C643 1.387 . S
C643 C642 1.387 . S
C643 C644 1.372 . S
C644 H622 0.950 . S
C644 C643 1.372 . S
C644 C645 1.379 . S
C645 H623 0.948 . S
C645 C640 1.364 . S
C645 C644 1.379 . S
C646 C615 1.383 . S
C646 C633 1.479 . S
C646 C647 1.398 . S
C647 C612 1.382 . S
C647 H624 0.951 . S
C647 C646 1.398 . S
C648 C649 1.384 . S
C648 H661 0.947 . S
C648 C683 1.382 . S
C649 C648 1.384 . S
C649 C650 1.378 . S
C650 C649 1.378 . S
C650 C651 1.378 . S
C650 H662 0.952 . S
C651 C650 1.378 . S
C651 H663 0.950 . S
C651 C682 1.383 . S
H652 C671 0.947 . S
H653 C672 0.946 . S
H654 C674 0.953 . S
H655 C675 0.945 . S
H656 C677 0.952 . S
H657 C678 0.949 . S
H658 C680 0.950 . S
H659 C681 0.948 . S
H660 C683 0.951 . S
H661 C648 0.947 . S
H662 C650 0.952 . S
H663 C651 0.950 . S
N664 C667 1.382 . S
N664 C669 1.363 . S
N665 C667 1.371 . S
N665 C668 1.372 . S
N666 C668 1.361 . S
N666 C669 1.377 . S
C667 N664 1.382 . S
C667 N665 1.371 . S
C667 C670 1.480 . S
C668 N665 1.372 . S
C668 N666 1.361 . S
C668 C676 1.457 . S
C669 N664 1.363 . S
C669 N666 1.377 . S
C669 C682 1.479 . S
C670 C667 1.480 . S
C670 C671 1.383 . S
C670 C675 1.385 . S
C671 H652 0.947 . S
C671 C670 1.383 . S
C671 C672 1.388 . S
C672 H653 0.946 . S
C672 C671 1.388 . S
C672 C673 1.384 . S
C673 C672 1.384 . S
C673 C674 1.377 . S
C674 H654 0.953 . S
C674 C673 1.377 . S
C674 C675 1.369 . S
C675 H655 0.945 . S
C675 C670 1.385 . S
C675 C674 1.369 . S
C676 C668 1.457 . S
C676 C677 1.372 . S
C676 C681 1.364 . S
C677 H656 0.952 . S
C677 C676 1.372 . S
C677 C678 1.389 . S
C678 H657 0.949 . S
C678 C677 1.389 . S
C678 C679 1.387 . S
C679 C678 1.387 . S
C679 C680 1.372 . S
C680 H658 0.950 . S
C680 C679 1.372 . S
C680 C681 1.379 . S
C681 H659 0.948 . S
C681 C676 1.364 . S
C681 C680 1.379 . S
C682 C651 1.383 . S
C682 C669 1.479 . S
C682 C683 1.398 . S
C683 C648 1.382 . S
C683 H660 0.951 . S
C683 C682 1.398 . S
C684 C685 1.384 . S
C684 H697 0.947 . S
C684 C719 1.382 . S
C685 C684 1.384 . S
C685 C686 1.378 . S
C686 C685 1.378 . S
C686 C687 1.378 . S
C686 H698 0.952 . S
C687 C686 1.378 . S
C687 H699 0.950 . S
C687 C718 1.383 . S
H688 C707 0.947 . S
H689 C708 0.946 . S
H690 C710 0.953 . S
H691 C711 0.945 . S
H692 C713 0.952 . S
H693 C714 0.949 . S
H694 C716 0.950 . S
H695 C717 0.948 . S
H696 C719 0.951 . S
H697 C684 0.947 . S
H698 C686 0.952 . S
H699 C687 0.950 . S
N700 C703 1.382 . S
N700 C705 1.363 . S
N701 C703 1.371 . S
N701 C704 1.372 . S
N702 C704 1.361 . S
N702 C705 1.377 . S
C703 N700 1.382 . S
C703 N701 1.371 . S
C703 C706 1.480 . S
C704 N701 1.372 . S
C704 N702 1.361 . S
C704 C712 1.457 . S
C705 N700 1.363 . S
C705 N702 1.377 . S
C705 C718 1.479 . S
C706 C703 1.480 . S
C706 C707 1.383 . S
C706 C711 1.385 . S
C707 H688 0.947 . S
C707 C706 1.383 . S
C707 C708 1.388 . S
C708 H689 0.946 . S
C708 C707 1.388 . S
C708 C709 1.384 . S
C709 C708 1.384 . S
C709 C710 1.377 . S
C710 H690 0.953 . S
C710 C709 1.377 . S
C710 C711 1.369 . S
C711 H691 0.945 . S
C711 C706 1.385 . S
C711 C710 1.369 . S
C712 C704 1.457 . S
C712 C713 1.372 . S
C712 C717 1.364 . S
C713 H692 0.952 . S
C713 C712 1.372 . S
C713 C714 1.389 . S
C714 H693 0.949 . S
C714 C713 1.389 . S
C714 C715 1.387 . S
C715 C714 1.387 . S
C715 C716 1.372 . S
C716 H694 0.950 . S
C716 C715 1.372 . S
C716 C717 1.379 . S
C717 H695 0.948 . S
C717 C712 1.364 . S
C717 C716 1.379 . S
C718 C687 1.383 . S
C718 C705 1.479 . S
C718 C719 1.398 . S
C719 C684 1.382 . S
C719 H696 0.951 . S
C719 C718 1.398 . S
C720 C721 1.384 . S
C720 H733 0.947 . S
C720 C755 1.382 . S
C721 C720 1.384 . S
C721 C722 1.378 . S
C722 C721 1.378 . S
C722 C723 1.378 . S
C722 H734 0.952 . S
C723 C722 1.378 . S
C723 H735 0.950 . S
C723 C754 1.383 . S
H724 C743 0.947 . S
H725 C744 0.946 . S
H726 C746 0.953 . S
H727 C747 0.945 . S
H728 C749 0.952 . S
H729 C750 0.949 . S
H730 C752 0.950 . S
H731 C753 0.948 . S
H732 C755 0.951 . S
H733 C720 0.947 . S
H734 C722 0.952 . S
H735 C723 0.950 . S
N736 C739 1.382 . S
N736 C741 1.363 . S
N737 C739 1.371 . S
N737 C740 1.372 . S
N738 C740 1.361 . S
N738 C741 1.377 . S
C739 N736 1.382 . S
C739 N737 1.371 . S
C739 C742 1.480 . S
C740 N737 1.372 . S
C740 N738 1.361 . S
C740 C748 1.457 . S
C741 N736 1.363 . S
C741 N738 1.377 . S
C741 C754 1.479 . S
C742 C739 1.480 . S
C742 C743 1.383 . S
C742 C747 1.385 . S
C743 H724 0.947 . S
C743 C742 1.383 . S
C743 C744 1.388 . S
C744 H725 0.946 . S
C744 C743 1.388 . S
C744 C745 1.384 . S
C745 C744 1.384 . S
C745 C746 1.377 . S
C746 H726 0.953 . S
C746 C745 1.377 . S
C746 C747 1.369 . S
C747 H727 0.945 . S
C747 C742 1.385 . S
C747 C746 1.369 . S
C748 C740 1.457 . S
C748 C749 1.372 . S
C748 C753 1.364 . S
C749 H728 0.952 . S
C749 C748 1.372 . S
C749 C750 1.389 . S
C750 H729 0.949 . S
C750 C749 1.389 . S
C750 C751 1.387 . S
C751 C750 1.387 . S
C751 C752 1.372 . S
C752 H730 0.950 . S
C752 C751 1.372 . S
C752 C753 1.379 . S
C753 H731 0.948 . S
C753 C748 1.364 . S
C753 C752 1.379 . S
C754 C723 1.383 . S
C754 C741 1.479 . S
C754 C755 1.398 . S
C755 C720 1.382 . S
C755 H732 0.951 . S
C755 C754 1.398 . S
C756 C757 1.384 . S
C756 H769 0.947 . S
C756 C791 1.382 . S
C757 C756 1.384 . S
C757 C758 1.378 . S
C758 C757 1.378 . S
C758 C759 1.378 . S
C758 H770 0.952 . S
C759 C758 1.378 . S
C759 H771 0.950 . S
C759 C790 1.383 . S
H760 C779 0.947 . S
H761 C780 0.946 . S
H762 C782 0.953 . S
H763 C783 0.945 . S
H764 C785 0.952 . S
H765 C786 0.949 . S
H766 C788 0.950 . S
H767 C789 0.948 . S
H768 C791 0.951 . S
H769 C756 0.947 . S
H770 C758 0.952 . S
H771 C759 0.950 . S
N772 C775 1.382 . S
N772 C777 1.363 . S
N773 C775 1.371 . S
N773 C776 1.372 . S
N774 C776 1.361 . S
N774 C777 1.377 . S
C775 N772 1.382 . S
C775 N773 1.371 . S
C775 C778 1.480 . S
C776 N773 1.372 . S
C776 N774 1.361 . S
C776 C784 1.457 . S
C777 N772 1.363 . S
C777 N774 1.377 . S
C777 C790 1.479 . S
C778 C775 1.480 . S
C778 C779 1.383 . S
C778 C783 1.385 . S
C779 H760 0.947 . S
C779 C778 1.383 . S
C779 C780 1.388 . S
C780 H761 0.946 . S
C780 C779 1.388 . S
C780 C781 1.384 . S
C781 C780 1.384 . S
C781 C782 1.377 . S
C782 H762 0.953 . S
C782 C781 1.377 . S
C782 C783 1.369 . S
C783 H763 0.945 . S
C783 C778 1.385 . S
C783 C782 1.369 . S
C784 C776 1.457 . S
C784 C785 1.372 . S
C784 C789 1.364 . S
C785 H764 0.952 . S
C785 C784 1.372 . S
C785 C786 1.389 . S
C786 H765 0.949 . S
C786 C785 1.389 . S
C786 C787 1.387 . S
C787 C786 1.387 . S
C787 C788 1.372 . S
C788 H766 0.950 . S
C788 C787 1.372 . S
C788 C789 1.379 . S
C789 H767 0.948 . S
C789 C784 1.364 . S
C789 C788 1.379 . S
C790 C759 1.383 . S
C790 C777 1.479 . S
C790 C791 1.398 . S
C791 C756 1.382 . S
C791 H768 0.951 . S
C791 C790 1.398 . S
C792 C793 1.384 . S
C792 H805 0.947 . S
C792 C827 1.382 . S
C793 C792 1.384 . S
C793 C794 1.378 . S
C794 C793 1.378 . S
C794 C795 1.378 . S
C794 H806 0.952 . S
C795 C794 1.378 . S
C795 H807 0.950 . S
C795 C826 1.383 . S
H796 C815 0.947 . S
H797 C816 0.946 . S
H798 C818 0.953 . S
H799 C819 0.945 . S
H800 C821 0.952 . S
H801 C822 0.949 . S
H802 C824 0.950 . S
H803 C825 0.948 . S
H804 C827 0.951 . S
H805 C792 0.947 . S
H806 C794 0.952 . S
H807 C795 0.950 . S
N808 C811 1.382 . S
N808 C813 1.363 . S
N809 C811 1.371 . S
N809 C812 1.372 . S
N810 C812 1.361 . S
N810 C813 1.377 . S
C811 N808 1.382 . S
C811 N809 1.371 . S
C811 C814 1.480 . S
C812 N809 1.372 . S
C812 N810 1.361 . S
C812 C820 1.457 . S
C813 N808 1.363 . S
C813 N810 1.377 . S
C813 C826 1.479 . S
C814 C811 1.480 . S
C814 C815 1.383 . S
C814 C819 1.385 . S
C815 H796 0.947 . S
C815 C814 1.383 . S
C815 C816 1.388 . S
C816 H797 0.946 . S
C816 C815 1.388 . S
C816 C817 1.384 . S
C817 C816 1.384 . S
C817 C818 1.377 . S
C818 H798 0.953 . S
C818 C817 1.377 . S
C818 C819 1.369 . S
C819 H799 0.945 . S
C819 C814 1.385 . S
C819 C818 1.369 . S
C820 C812 1.457 . S
C820 C821 1.372 . S
C820 C825 1.364 . S
C821 H800 0.952 . S
C821 C820 1.372 . S
C821 C822 1.389 . S
C822 H801 0.949 . S
C822 C821 1.389 . S
C822 C823 1.387 . S
C823 C822 1.387 . S
C823 C824 1.372 . S
C824 H802 0.950 . S
C824 C823 1.372 . S
C824 C825 1.379 . S
C825 H803 0.948 . S
C825 C820 1.364 . S
C825 C824 1.379 . S
C826 C795 1.383 . S
C826 C813 1.479 . S
C826 C827 1.398 . S
C827 C792 1.382 . S
C827 H804 0.951 . S
C827 C826 1.398 . S
C828 C829 1.384 . S
C828 H841 0.947 . S
C828 C863 1.382 . S
C829 C828 1.384 . S
C829 C830 1.378 . S
C830 C829 1.378 . S
C830 C831 1.378 . S
C830 H842 0.952 . S
C831 C830 1.378 . S
C831 H843 0.950 . S
C831 C862 1.383 . S
H832 C851 0.947 . S
H833 C852 0.946 . S
H834 C854 0.953 . S
H835 C855 0.945 . S
H836 C857 0.952 . S
H837 C858 0.949 . S
H838 C860 0.950 . S
H839 C861 0.948 . S
H840 C863 0.951 . S
H841 C828 0.947 . S
H842 C830 0.952 . S
H843 C831 0.950 . S
N844 C847 1.382 . S
N844 C849 1.363 . S
N845 C847 1.371 . S
N845 C848 1.372 . S
N846 C848 1.361 . S
N846 C849 1.377 . S
C847 N844 1.382 . S
C847 N845 1.371 . S
C847 C850 1.480 . S
C848 N845 1.372 . S
C848 N846 1.361 . S
C848 C856 1.457 . S
C849 N844 1.363 . S
C849 N846 1.377 . S
C849 C862 1.479 . S
C850 C847 1.480 . S
C850 C851 1.383 . S
C850 C855 1.385 . S
C851 H832 0.947 . S
C851 C850 1.383 . S
C851 C852 1.388 . S
C852 H833 0.946 . S
C852 C851 1.388 . S
C852 C853 1.384 . S
C853 C852 1.384 . S
C853 C854 1.377 . S
C854 H834 0.953 . S
C854 C853 1.377 . S
C854 C855 1.369 . S
C855 H835 0.945 . S
C855 C850 1.385 . S
C855 C854 1.369 . S
C856 C848 1.457 . S
C856 C857 1.372 . S
C856 C861 1.364 . S
C857 H836 0.952 . S
C857 C856 1.372 . S
C857 C858 1.389 . S
C858 H837 0.949 . S
C858 C857 1.389 . S
C858 C859 1.387 . S
C859 C858 1.387 . S
C859 C860 1.372 . S
C860 H838 0.950 . S
C860 C859 1.372 . S
C860 C861 1.379 . S
C861 H839 0.948 . S
C861 C856 1.364 . S
C861 C860 1.379 . S
C862 C831 1.383 . S
C862 C849 1.479 . S
C862 C863 1.398 . S
C863 C828 1.382 . S
C863 H840 0.951 . S
C863 C862 1.398 . S
C864 O890 1.283 . S
C864 O908 1.283 . S
C865 O891 1.283 . S
C865 O906 1.283 . S
C866 O892 1.283 . S
C866 O909 1.283 . S
C867 O893 1.283 . S
C867 O907 1.283 . S
C868 O894 1.283 . S
C868 O903 1.283 . S
C869 O895 1.283 . S
C869 O905 1.283 . S
C870 O896 1.283 . S
C870 O902 1.283 . S
C871 O897 1.283 . S
C871 O904 1.283 . S
C872 O898 1.283 . S
C872 O913 1.283 . S
C873 O899 1.283 . S
C873 O911 1.283 . S
C874 O900 1.283 . S
C874 O912 1.283 . S
C875 O901 1.283 . S
C875 O910 1.283 . S
Eu876 O877 2.366 1_455 S
Eu876 O878 2.374 . S
Eu876 O881 2.366 1_455 S
Eu876 O882 2.374 . S
Eu876 O890 2.363 . S
Eu876 O891 2.363 . S
Eu876 O904 2.370 . S
Eu876 O905 2.356 1_455 S
O877 Eu876 2.366 1_655 S
O877 Eu879 2.368 1_565 S
O877 Eu884 2.364 1_665 S
O878 Eu876 2.374 . S
O878 Eu880 2.368 1_565 S
O878 Eu883 2.372 1_565 S
Eu879 O877 2.368 1_545 S
Eu879 O881 2.368 1_545 S
Eu879 O885 2.372 . S
Eu879 O886 2.372 . S
Eu879 O894 2.367 . S
Eu879 O895 2.359 1_545 S
Eu879 O910 2.363 . S
Eu879 O911 2.363 . S
Eu880 O878 2.368 1_545 S
Eu880 O882 2.368 1_545 S
Eu880 O887 2.373 . S
Eu880 O888 2.373 . S
Eu880 O896 2.367 . S
Eu880 O897 2.359 1_545 S
Eu880 O912 2.363 . S
Eu880 O913 2.363 . S
O881 Eu876 2.366 1_655 S
O881 Eu879 2.368 1_565 S
O881 Eu883 2.364 1_665 S
O882 Eu876 2.374 . S
O882 Eu880 2.368 1_565 S
O882 Eu884 2.372 1_565 S
Eu883 O878 2.372 1_545 S
Eu883 O881 2.364 1_445 S
Eu883 O885 2.369 1_455 S
Eu883 O888 2.376 . S
Eu883 O900 2.370 . S
Eu883 O901 2.356 1_455 S
Eu883 O908 2.359 1_545 S
Eu883 O909 2.367 . S
Eu884 O877 2.364 1_445 S
Eu884 O882 2.372 1_545 S
Eu884 O886 2.369 1_455 S
Eu884 O887 2.376 . S
Eu884 O898 2.370 . S
Eu884 O899 2.356 1_455 S
Eu884 O906 2.359 1_545 S
Eu884 O907 2.367 . S
O885 Eu879 2.372 . S
O885 Eu883 2.369 1_655 S
O885 Eu889 2.366 1_655 S
O886 Eu879 2.372 . S
O886 Eu884 2.369 1_655 S
O886 Eu889 2.366 1_655 S
O887 Eu880 2.373 . S
O887 Eu884 2.376 . S
O887 Eu889 2.374 . S
O888 Eu880 2.373 . S
O888 Eu883 2.376 . S
O888 Eu889 2.374 . S
Eu889 O885 2.366 1_455 S
Eu889 O886 2.366 1_455 S
Eu889 O887 2.374 . S
Eu889 O888 2.374 . S
Eu889 O892 2.363 . S
Eu889 O893 2.363 . S
Eu889 O902 2.369 . S
Eu889 O903 2.356 1_455 S
O890 C864 1.283 . S
O890 Eu876 2.363 . S
O891 C865 1.283 . S
O891 Eu876 2.363 . S
O892 C866 1.283 . S
O892 Eu889 2.363 . S
O893 C867 1.283 . S
O893 Eu889 2.363 . S
O894 C868 1.283 . S
O894 Eu879 2.367 . S
O895 C869 1.283 . S
O895 Eu879 2.359 1_565 S
O896 C870 1.283 . S
O896 Eu880 2.367 . S
O897 C871 1.283 . S
O897 Eu880 2.359 1_565 S
O898 C872 1.283 . S
O898 Eu884 2.370 . S
O899 C873 1.283 . S
O899 Eu884 2.356 1_655 S
O900 C874 1.283 . S
O900 Eu883 2.370 . S
O901 C875 1.283 . S
O901 Eu883 2.356 1_655 S
O902 C870 1.283 . S
O902 Eu889 2.369 . S
O903 C868 1.283 . S
O903 Eu889 2.356 1_655 S
O904 C871 1.283 . S
O904 Eu876 2.370 . S
O905 C869 1.283 . S
O905 Eu876 2.356 1_655 S
O906 C865 1.283 . S
O906 Eu884 2.359 1_565 S
O907 C867 1.283 . S
O907 Eu884 2.367 . S
O908 C864 1.283 . S
O908 Eu883 2.359 1_565 S
O909 C866 1.283 . S
O909 Eu883 2.367 . S
O910 C875 1.283 . S
O910 Eu879 2.363 . S
O911 C873 1.283 . S
O911 Eu879 2.363 . S
O912 C874 1.283 . S
O912 Eu880 2.363 . S
O913 C872 1.283 . S
O913 Eu880 2.363 . S
C914 O940 1.283 . S
C914 O958 1.283 . S
C915 O941 1.283 . S
C915 O956 1.283 . S
C916 O942 1.283 . S
C916 O959 1.283 . S
C917 O943 1.283 . S
C917 O957 1.283 . S
C918 O944 1.283 . S
C918 O953 1.283 . S
C919 O945 1.283 . S
C919 O955 1.283 . S
C920 O946 1.283 . S
C920 O952 1.283 . S
C921 O947 1.283 . S
C921 O954 1.283 . S
C922 O948 1.283 . S
C922 O963 1.283 . S
C923 O949 1.283 . S
C923 O961 1.283 . S
C924 O950 1.283 . S
C924 O962 1.283 . S
C925 O951 1.283 . S
C925 O960 1.283 . S
Eu926 O927 2.370 . S
Eu926 O928 2.370 1_545 S
Eu926 O931 2.370 1_545 S
Eu926 O932 2.370 . S
Eu926 O940 2.363 1_545 S
Eu926 O941 2.363 . S
Eu926 O954 2.363 . S
Eu926 O955 2.363 . S
O927 Eu926 2.370 . S
O927 Eu929 2.387 . S
O927 Eu934 2.387 . S
O928 Eu926 2.370 1_565 S
O928 Eu930 2.387 1_565 S
O928 Eu933 2.387 . S
Eu929 O927 2.387 . S
Eu929 O931 2.387 1_545 S
Eu929 O935 2.353 1_544 S
Eu929 O936 2.353 1_554 S
Eu929 O944 2.335 1_554 S
Eu929 O945 2.391 . S
Eu929 O960 2.363 1_545 S
Eu929 O961 2.363 . S
Eu930 O928 2.387 1_545 S
Eu930 O932 2.387 . S
Eu930 O937 2.353 1_554 S
Eu930 O938 2.353 1_544 S
Eu930 O946 2.335 1_554 S
Eu930 O947 2.391 . S
Eu930 O962 2.363 1_545 S
Eu930 O963 2.363 . S
O931 Eu926 2.370 1_565 S
O931 Eu929 2.387 1_565 S
O931 Eu933 2.387 . S
O932 Eu926 2.370 . S
O932 Eu930 2.387 . S
O932 Eu934 2.387 . S
Eu933 O928 2.387 . S
Eu933 O931 2.387 . S
Eu933 O935 2.353 1_554 S
Eu933 O938 2.353 1_554 S
Eu933 O950 2.363 . S
Eu933 O951 2.363 . S
Eu933 O958 2.391 . S
Eu933 O959 2.335 1_554 S
Eu934 O927 2.387 . S
Eu934 O932 2.387 . S
Eu934 O936 2.353 1_554 S
Eu934 O937 2.353 1_554 S
Eu934 O948 2.363 . S
Eu934 O949 2.363 . S
Eu934 O956 2.391 . S
Eu934 O957 2.335 1_554 S
O935 Eu929 2.353 1_566 S
O935 Eu933 2.353 1_556 S
O935 Eu939 2.370 1_565 S
O936 Eu929 2.353 1_556 S
O936 Eu934 2.353 1_556 S
O936 Eu939 2.370 . S
O937 Eu930 2.353 1_556 S
O937 Eu934 2.353 1_556 S
O937 Eu939 2.370 . S
O938 Eu930 2.353 1_566 S
O938 Eu933 2.353 1_556 S
O938 Eu939 2.370 1_565 S
Eu939 O935 2.370 1_545 S
Eu939 O936 2.370 . S
Eu939 O937 2.370 . S
Eu939 O938 2.370 1_545 S
Eu939 O942 2.363 1_545 S
Eu939 O943 2.363 . S
Eu939 O952 2.363 . S
Eu939 O953 2.363 . S
O940 C914 1.283 . S
O940 Eu926 2.363 1_565 S
O941 C915 1.283 . S
O941 Eu926 2.363 . S
O942 C916 1.283 . S
O942 Eu939 2.363 1_565 S
O943 C917 1.283 . S
O943 Eu939 2.363 . S
O944 C918 1.283 . S
O944 Eu929 2.335 1_556 S
O945 C919 1.283 . S
O945 Eu929 2.391 . S
O946 C920 1.283 . S
O946 Eu930 2.335 1_556 S
O947 C921 1.283 . S
O947 Eu930 2.391 . S
O948 C922 1.283 . S
O948 Eu934 2.363 . S
O949 C923 1.283 . S
O949 Eu934 2.363 . S
O950 C924 1.283 . S
O950 Eu933 2.363 . S
O951 C925 1.283 . S
O951 Eu933 2.363 . S
O952 C920 1.283 . S
O952 Eu939 2.363 . S
O953 C918 1.283 . S
O953 Eu939 2.363 . S
O954 C921 1.283 . S
O954 Eu926 2.363 . S
O955 C919 1.283 . S
O955 Eu926 2.363 . S
O956 C915 1.283 . S
O956 Eu934 2.391 . S
O957 C917 1.283 . S
O957 Eu934 2.335 1_556 S
O958 C914 1.283 . S
O958 Eu933 2.391 . S
O959 C916 1.283 . S
O959 Eu933 2.335 1_556 S
O960 C925 1.283 . S
O960 Eu929 2.363 1_565 S
O961 C923 1.283 . S
O961 Eu929 2.363 . S
O962 C924 1.283 . S
O962 Eu930 2.363 1_565 S
O963 C922 1.283 . S
O963 Eu930 2.363 . S
C964 O990 1.283 . S
C964 O1008 1.283 . S
C965 O991 1.283 . S
C965 O1006 1.283 . S
C966 O992 1.283 . S
C966 O1009 1.283 . S
C967 O993 1.283 . S
C967 O1007 1.283 . S
C968 O994 1.283 . S
C968 O1003 1.283 . S
C969 O995 1.283 . S
C969 O1005 1.283 . S
C970 O996 1.283 . S
C970 O1002 1.283 . S
C971 O997 1.283 . S
C971 O1004 1.283 . S
C972 O998 1.283 . S
C972 O1013 1.283 . S
C973 O999 1.283 . S
C973 O1011 1.283 . S
C974 O1000 1.283 . S
C974 O1012 1.283 . S
C975 O1001 1.283 . S
C975 O1010 1.283 . S
Eu976 O977 2.352 1_454 S
Eu976 O978 2.388 . S
Eu976 O981 2.375 1_455 S
Eu976 O982 2.365 1_554 S
Eu976 O990 2.383 . S
Eu976 O991 2.343 1_554 S
Eu976 O1004 2.374 . S
Eu976 O1005 2.352 1_455 S
O977 Eu976 2.352 1_656 S
O977 Eu979 2.359 1_556 S
O977 Eu984 2.364 1_655 S
O978 Eu976 2.388 . S
O978 Eu980 2.382 . S
O978 Eu983 2.377 . S
Eu979 O977 2.359 1_554 S
Eu979 O981 2.382 . S
Eu979 O985 2.382 . S
Eu979 O986 2.359 1_554 S
Eu979 O994 2.363 . S
Eu979 O995 2.363 . S
Eu979 O1010 2.383 . S
Eu979 O1011 2.343 1_554 S
Eu980 O978 2.382 . S
Eu980 O982 2.359 1_554 S
Eu980 O987 2.359 1_554 S
Eu980 O988 2.382 . S
Eu980 O996 2.363 . S
Eu980 O997 2.363 . S
Eu980 O1012 2.383 . S
Eu980 O1013 2.343 1_554 S
O981 Eu976 2.375 1_655 S
O981 Eu979 2.382 . S
O981 Eu983 2.364 1_655 S
O982 Eu976 2.365 1_556 S
O982 Eu980 2.359 1_556 S
O982 Eu984 2.377 . S
Eu983 O978 2.377 . S
Eu983 O981 2.364 1_455 S
Eu983 O985 2.364 1_455 S
Eu983 O988 2.377 . S
Eu983 O1000 2.374 . S
Eu983 O1001 2.352 1_455 S
Eu983 O1008 2.363 . S
Eu983 O1009 2.363 . S
Eu984 O977 2.364 1_455 S
Eu984 O982 2.377 . S
Eu984 O986 2.364 1_455 S
Eu984 O987 2.377 . S
Eu984 O998 2.374 . S
Eu984 O999 2.352 1_455 S
Eu984 O1006 2.363 . S
Eu984 O1007 2.363 . S
O985 Eu979 2.382 . S
O985 Eu983 2.364 1_655 S
O985 Eu989 2.375 1_655 S
O986 Eu979 2.359 1_556 S
O986 Eu984 2.364 1_655 S
O986 Eu989 2.352 1_656 S
O987 Eu980 2.359 1_556 S
O987 Eu984 2.377 . S
O987 Eu989 2.365 1_556 S
O988 Eu980 2.382 . S
O988 Eu983 2.377 . S
O988 Eu989 2.388 . S
Eu989 O985 2.375 1_455 S
Eu989 O986 2.352 1_454 S
Eu989 O987 2.365 1_554 S
Eu989 O988 2.388 . S
Eu989 O992 2.383 . S
Eu989 O993 2.343 1_554 S
Eu989 O1002 2.374 . S
Eu989 O1003 2.352 1_455 S
O990 C964 1.283 . S
O990 Eu976 2.383 . S
O991 C965 1.283 . S
O991 Eu976 2.343 1_556 S
O992 C966 1.283 . S
O992 Eu989 2.383 . S
O993 C967 1.283 . S
O993 Eu989 2.343 1_556 S
O994 C968 1.283 . S
O994 Eu979 2.363 . S
O995 C969 1.283 . S
O995 Eu979 2.363 . S
O996 C970 1.283 . S
O996 Eu980 2.363 . S
O997 C971 1.283 . S
O997 Eu980 2.363 . S
O998 C972 1.283 . S
O998 Eu984 2.374 . S
O999 C973 1.283 . S
O999 Eu984 2.352 1_655 S
O1000 C974 1.283 . S
O1000 Eu983 2.374 . S
O1001 C975 1.283 . S
O1001 Eu983 2.352 1_655 S
O1002 C970 1.283 . S
O1002 Eu989 2.374 . S
O1003 C968 1.283 . S
O1003 Eu989 2.352 1_655 S
O1004 C971 1.283 . S
O1004 Eu976 2.374 . S
O1005 C969 1.283 . S
O1005 Eu976 2.352 1_655 S
O1006 C965 1.283 . S
O1006 Eu984 2.363 . S
O1007 C967 1.283 . S
O1007 Eu984 2.363 . S
O1008 C964 1.283 . S
O1008 Eu983 2.363 . S
O1009 C966 1.283 . S
O1009 Eu983 2.363 . S
O1010 C975 1.283 . S
O1010 Eu979 2.383 . S
O1011 C973 1.283 . S
O1011 Eu979 2.343 1_556 S
O1012 C974 1.283 . S
O1012 Eu980 2.383 . S
O1013 C972 1.283 . S
O1013 Eu980 2.343 1_556 S
C1014 O1040 1.283 . S
C1014 O1058 1.283 . S
C1015 O1041 1.283 . S
C1015 O1056 1.283 . S
C1016 O1042 1.283 . S
C1016 O1059 1.283 . S
C1017 O1043 1.283 . S
C1017 O1057 1.283 . S
C1018 O1044 1.283 . S
C1018 O1053 1.283 . S
C1019 O1045 1.283 . S
C1019 O1055 1.283 . S
C1020 O1046 1.283 . S
C1020 O1052 1.283 . S
C1021 O1047 1.283 . S
C1021 O1054 1.283 . S
C1022 O1048 1.283 . S
C1022 O1063 1.283 . S
C1023 O1049 1.283 . S
C1023 O1061 1.283 . S
C1024 O1050 1.283 . S
C1024 O1062 1.283 . S
C1025 O1051 1.283 . S
C1025 O1060 1.283 . S
Eu1026 O1027 2.370 . S
Eu1026 O1028 2.370 . S
Eu1026 O1031 2.370 . S
Eu1026 O1032 2.370 . S
Eu1026 O1040 2.363 . S
Eu1026 O1041 2.363 . S
Eu1026 O1054 2.363 . S
Eu1026 O1055 2.363 . S
O1027 Eu1026 2.370 . S
O1027 Eu1029 2.385 . S
O1027 Eu1034 2.385 . S
O1028 Eu1026 2.370 . S
O1028 Eu1030 2.385 . S
O1028 Eu1033 2.385 . S
Eu1029 O1027 2.385 . S
Eu1029 O1031 2.385 . S
Eu1029 O1035 2.356 1_554 S
Eu1029 O1036 2.356 1_554 S
Eu1029 O1044 2.338 1_554 S
Eu1029 O1045 2.387 . S
Eu1029 O1060 2.363 . S
Eu1029 O1061 2.363 . S
Eu1030 O1028 2.385 . S
Eu1030 O1032 2.385 . S
Eu1030 O1037 2.356 1_554 S
Eu1030 O1038 2.356 1_554 S
Eu1030 O1046 2.338 1_554 S
Eu1030 O1047 2.387 . S
Eu1030 O1062 2.363 . S
Eu1030 O1063 2.363 . S
O1031 Eu1026 2.370 . S
O1031 Eu1029 2.385 . S
O1031 Eu1033 2.385 . S
O1032 Eu1026 2.370 . S
O1032 Eu1030 2.385 . S
O1032 Eu1034 2.385 . S
Eu1033 O1028 2.385 . S
Eu1033 O1031 2.385 . S
Eu1033 O1035 2.356 1_554 S
Eu1033 O1038 2.356 1_554 S
Eu1033 O1050 2.363 . S
Eu1033 O1051 2.363 . S
Eu1033 O1058 2.387 . S
Eu1033 O1059 2.338 1_554 S
Eu1034 O1027 2.385 . S
Eu1034 O1032 2.385 . S
Eu1034 O1036 2.356 1_554 S
Eu1034 O1037 2.356 1_554 S
Eu1034 O1048 2.363 . S
Eu1034 O1049 2.363 . S
Eu1034 O1056 2.387 . S
Eu1034 O1057 2.338 1_554 S
O1035 Eu1029 2.356 1_556 S
O1035 Eu1033 2.356 1_556 S
O1035 Eu1039 2.370 . S
O1036 Eu1029 2.356 1_556 S
O1036 Eu1034 2.356 1_556 S
O1036 Eu1039 2.370 . S
O1037 Eu1030 2.356 1_556 S
O1037 Eu1034 2.356 1_556 S
O1037 Eu1039 2.370 . S
O1038 Eu1030 2.356 1_556 S
O1038 Eu1033 2.356 1_556 S
O1038 Eu1039 2.370 . S
Eu1039 O1035 2.370 . S
Eu1039 O1036 2.370 . S
Eu1039 O1037 2.370 . S
Eu1039 O1038 2.370 . S
Eu1039 O1042 2.363 . S
Eu1039 O1043 2.363 . S
Eu1039 O1052 2.363 . S
Eu1039 O1053 2.363 . S
O1040 C1014 1.283 . S
O1040 Eu1026 2.363 . S
O1041 C1015 1.283 . S
O1041 Eu1026 2.363 . S
O1042 C1016 1.283 . S
O1042 Eu1039 2.363 . S
O1043 C1017 1.283 . S
O1043 Eu1039 2.363 . S
O1044 C1018 1.283 . S
O1044 Eu1029 2.338 1_556 S
O1045 C1019 1.283 . S
O1045 Eu1029 2.387 . S
O1046 C1020 1.283 . S
O1046 Eu1030 2.338 1_556 S
O1047 C1021 1.283 . S
O1047 Eu1030 2.387 . S
O1048 C1022 1.283 . S
O1048 Eu1034 2.363 . S
O1049 C1023 1.283 . S
O1049 Eu1034 2.363 . S
O1050 C1024 1.283 . S
O1050 Eu1033 2.363 . S
O1051 C1025 1.283 . S
O1051 Eu1033 2.363 . S
O1052 C1020 1.283 . S
O1052 Eu1039 2.363 . S
O1053 C1018 1.283 . S
O1053 Eu1039 2.363 . S
O1054 C1021 1.283 . S
O1054 Eu1026 2.363 . S
O1055 C1019 1.283 . S
O1055 Eu1026 2.363 . S
O1056 C1015 1.283 . S
O1056 Eu1034 2.387 . S
O1057 C1017 1.283 . S
O1057 Eu1034 2.338 1_556 S
O1058 C1014 1.283 . S
O1058 Eu1033 2.387 . S
O1059 C1016 1.283 . S
O1059 Eu1033 2.338 1_556 S
O1060 C1025 1.283 . S
O1060 Eu1029 2.363 . S
O1061 C1023 1.283 . S
O1061 Eu1029 2.363 . S
O1062 C1024 1.283 . S
O1062 Eu1030 2.363 . S
O1063 C1022 1.283 . S
O1063 Eu1030 2.363 . S
C1064 O1090 1.283 . S
C1064 O1108 1.283 . S
C1065 O1091 1.283 . S
C1065 O1106 1.283 . S
C1066 O1092 1.283 . S
C1066 O1109 1.283 . S
C1067 O1093 1.283 . S
C1067 O1107 1.283 . S
C1068 O1094 1.283 . S
C1068 O1103 1.283 . S
C1069 O1095 1.283 . S
C1069 O1105 1.283 . S
C1070 O1096 1.283 . S
C1070 O1102 1.283 . S
C1071 O1097 1.283 . S
C1071 O1104 1.283 . S
C1072 O1098 1.283 . S
C1072 O1113 1.283 . S
C1073 O1099 1.283 . S
C1073 O1111 1.283 . S
C1074 O1100 1.283 . S
C1074 O1112 1.283 . S
C1075 O1101 1.283 . S
C1075 O1110 1.283 . S
Eu1076 O1077 2.365 1_455 S
Eu1076 O1078 2.375 . S
Eu1076 O1081 2.365 1_455 S
Eu1076 O1082 2.375 . S
Eu1076 O1090 2.363 . S
Eu1076 O1091 2.363 . S
Eu1076 O1104 2.372 . S
Eu1076 O1105 2.354 1_455 S
O1077 Eu1076 2.365 1_655 S
O1077 Eu1079 2.370 . S
O1077 Eu1084 2.365 1_655 S
O1078 Eu1076 2.375 . S
O1078 Eu1080 2.370 . S
O1078 Eu1083 2.375 . S
Eu1079 O1077 2.370 . S
Eu1079 O1081 2.370 . S
Eu1079 O1085 2.370 . S
Eu1079 O1086 2.370 . S
Eu1079 O1094 2.363 . S
Eu1079 O1095 2.363 . S
Eu1079 O1110 2.363 . S
Eu1079 O1111 2.363 . S
Eu1080 O1078 2.370 . S
Eu1080 O1082 2.370 . S
Eu1080 O1087 2.370 . S
Eu1080 O1088 2.370 . S
Eu1080 O1096 2.363 . S
Eu1080 O1097 2.363 . S
Eu1080 O1112 2.363 . S
Eu1080 O1113 2.363 . S
O1081 Eu1076 2.365 1_655 S
O1081 Eu1079 2.370 . S
O1081 Eu1083 2.365 1_655 S
O1082 Eu1076 2.375 . S
O1082 Eu1080 2.370 . S
O1082 Eu1084 2.375 . S
Eu1083 O1078 2.375 . S
Eu1083 O1081 2.365 1_455 S
Eu1083 O1085 2.365 1_455 S
Eu1083 O1088 2.375 . S
Eu1083 O1100 2.372 . S
Eu1083 O1101 2.354 1_455 S
Eu1083 O1108 2.363 . S
Eu1083 O1109 2.363 . S
Eu1084 O1077 2.365 1_455 S
Eu1084 O1082 2.375 . S
Eu1084 O1086 2.365 1_455 S
Eu1084 O1087 2.375 . S
Eu1084 O1098 2.372 . S
Eu1084 O1099 2.354 1_455 S
Eu1084 O1106 2.363 . S
Eu1084 O1107 2.363 . S
O1085 Eu1079 2.370 . S
O1085 Eu1083 2.365 1_655 S
O1085 Eu1089 2.365 1_655 S
O1086 Eu1079 2.370 . S
O1086 Eu1084 2.365 1_655 S
O1086 Eu1089 2.365 1_655 S
O1087 Eu1080 2.370 . S
O1087 Eu1084 2.375 . S
O1087 Eu1089 2.376 . S
O1088 Eu1080 2.370 . S
O1088 Eu1083 2.375 . S
O1088 Eu1089 2.376 . S
Eu1089 O1085 2.365 1_455 S
Eu1089 O1086 2.365 1_455 S
Eu1089 O1087 2.376 . S
Eu1089 O1088 2.376 . S
Eu1089 O1092 2.363 . S
Eu1089 O1093 2.363 . S
Eu1089 O1102 2.372 . S
Eu1089 O1103 2.354 1_455 S
O1090 C1064 1.283 . S
O1090 Eu1076 2.363 . S
O1091 C1065 1.283 . S
O1091 Eu1076 2.363 . S
O1092 C1066 1.283 . S
O1092 Eu1089 2.363 . S
O1093 C1067 1.283 . S
O1093 Eu1089 2.363 . S
O1094 C1068 1.283 . S
O1094 Eu1079 2.363 . S
O1095 C1069 1.283 . S
O1095 Eu1079 2.363 . S
O1096 C1070 1.283 . S
O1096 Eu1080 2.363 . S
O1097 C1071 1.283 . S
O1097 Eu1080 2.363 . S
O1098 C1072 1.283 . S
O1098 Eu1084 2.372 . S
O1099 C1073 1.283 . S
O1099 Eu1084 2.354 1_655 S
O1100 C1074 1.283 . S
O1100 Eu1083 2.372 . S
O1101 C1075 1.283 . S
O1101 Eu1083 2.354 1_655 S
O1102 C1070 1.283 . S
O1102 Eu1089 2.372 . S
O1103 C1068 1.283 . S
O1103 Eu1089 2.354 1_655 S
O1104 C1071 1.283 . S
O1104 Eu1076 2.372 . S
O1105 C1069 1.283 . S
O1105 Eu1076 2.354 1_655 S
O1106 C1065 1.283 . S
O1106 Eu1084 2.363 . S
O1107 C1067 1.283 . S
O1107 Eu1084 2.363 . S
O1108 C1064 1.283 . S
O1108 Eu1083 2.363 . S
O1109 C1066 1.283 . S
O1109 Eu1083 2.363 . S
O1110 C1075 1.283 . S
O1110 Eu1079 2.363 . S
O1111 C1073 1.283 . S
O1111 Eu1079 2.363 . S
O1112 C1074 1.283 . S
O1112 Eu1080 2.363 . S
O1113 C1072 1.283 . S
O1113 Eu1080 2.363 . S
C1114 O1140 1.283 . S
C1114 O1158 1.283 . S
C1115 O1141 1.283 . S
C1115 O1156 1.283 . S
C1116 O1142 1.283 . S
C1116 O1159 1.283 . S
C1117 O1143 1.283 . S
C1117 O1157 1.283 . S
C1118 O1144 1.283 . S
C1118 O1153 1.283 . S
C1119 O1145 1.283 . S
C1119 O1155 1.283 . S
C1120 O1146 1.283 . S
C1120 O1152 1.283 . S
C1121 O1147 1.283 . S
C1121 O1154 1.283 . S
C1122 O1148 1.283 . S
C1122 O1163 1.283 . S
C1123 O1149 1.283 . S
C1123 O1161 1.283 . S
C1124 O1150 1.283 . S
C1124 O1162 1.283 . S
C1125 O1151 1.283 . S
C1125 O1160 1.283 . S
Eu1126 O1127 2.370 . S
Eu1126 O1128 2.370 . S
Eu1126 O1131 2.370 . S
Eu1126 O1132 2.370 . S
Eu1126 O1140 2.363 . S
Eu1126 O1141 2.363 . S
Eu1126 O1154 2.363 . S
Eu1126 O1155 2.363 . S
O1127 Eu1126 2.370 . S
O1127 Eu1129 2.369 1_565 S
O1127 Eu1134 2.369 1_565 S
O1128 Eu1126 2.370 . S
O1128 Eu1130 2.369 1_565 S
O1128 Eu1133 2.369 1_565 S
Eu1129 O1127 2.369 1_545 S
Eu1129 O1131 2.369 1_545 S
Eu1129 O1135 2.371 . S
Eu1129 O1136 2.371 . S
Eu1129 O1144 2.365 . S
Eu1129 O1145 2.361 1_545 S
Eu1129 O1160 2.363 . S
Eu1129 O1161 2.363 . S
Eu1130 O1128 2.369 1_545 S
Eu1130 O1132 2.369 1_545 S
Eu1130 O1137 2.371 . S
Eu1130 O1138 2.371 . S
Eu1130 O1146 2.365 . S
Eu1130 O1147 2.361 1_545 S
Eu1130 O1162 2.363 . S
Eu1130 O1163 2.363 . S
O1131 Eu1126 2.370 . S
O1131 Eu1129 2.369 1_565 S
O1131 Eu1133 2.369 1_565 S
O1132 Eu1126 2.370 . S
O1132 Eu1130 2.369 1_565 S
O1132 Eu1134 2.369 1_565 S
Eu1133 O1128 2.369 1_545 S
Eu1133 O1131 2.369 1_545 S
Eu1133 O1135 2.371 . S
Eu1133 O1138 2.371 . S
Eu1133 O1150 2.363 . S
Eu1133 O1151 2.363 . S
Eu1133 O1158 2.361 1_545 S
Eu1133 O1159 2.365 . S
Eu1134 O1127 2.369 1_545 S
Eu1134 O1132 2.369 1_545 S
Eu1134 O1136 2.371 . S
Eu1134 O1137 2.371 . S
Eu1134 O1148 2.363 . S
Eu1134 O1149 2.363 . S
Eu1134 O1156 2.361 1_545 S
Eu1134 O1157 2.365 . S
O1135 Eu1129 2.371 . S
O1135 Eu1133 2.371 . S
O1135 Eu1139 2.370 . S
O1136 Eu1129 2.371 . S
O1136 Eu1134 2.371 . S
O1136 Eu1139 2.370 . S
O1137 Eu1130 2.371 . S
O1137 Eu1134 2.371 . S
O1137 Eu1139 2.370 . S
O1138 Eu1130 2.371 . S
O1138 Eu1133 2.371 . S
O1138 Eu1139 2.370 . S
Eu1139 O1135 2.370 . S
Eu1139 O1136 2.370 . S
Eu1139 O1137 2.370 . S
Eu1139 O1138 2.370 . S
Eu1139 O1142 2.363 . S
Eu1139 O1143 2.363 . S
Eu1139 O1152 2.363 . S
Eu1139 O1153 2.363 . S
O1140 C1114 1.283 . S
O1140 Eu1126 2.363 . S
O1141 C1115 1.283 . S
O1141 Eu1126 2.363 . S
O1142 C1116 1.283 . S
O1142 Eu1139 2.363 . S
O1143 C1117 1.283 . S
O1143 Eu1139 2.363 . S
O1144 C1118 1.283 . S
O1144 Eu1129 2.365 . S
O1145 C1119 1.283 . S
O1145 Eu1129 2.361 1_565 S
O1146 C1120 1.283 . S
O1146 Eu1130 2.365 . S
O1147 C1121 1.283 . S
O1147 Eu1130 2.361 1_565 S
O1148 C1122 1.283 . S
O1148 Eu1134 2.363 . S
O1149 C1123 1.283 . S
O1149 Eu1134 2.363 . S
O1150 C1124 1.283 . S
O1150 Eu1133 2.363 . S
O1151 C1125 1.283 . S
O1151 Eu1133 2.363 . S
O1152 C1120 1.283 . S
O1152 Eu1139 2.363 . S
O1153 C1118 1.283 . S
O1153 Eu1139 2.363 . S
O1154 C1121 1.283 . S
O1154 Eu1126 2.363 . S
O1155 C1119 1.283 . S
O1155 Eu1126 2.363 . S
O1156 C1115 1.283 . S
O1156 Eu1134 2.361 1_565 S
O1157 C1117 1.283 . S
O1157 Eu1134 2.365 . S
O1158 C1114 1.283 . S
O1158 Eu1133 2.361 1_565 S
O1159 C1116 1.283 . S
O1159 Eu1133 2.365 . S
O1160 C1125 1.283 . S
O1160 Eu1129 2.363 . S
O1161 C1123 1.283 . S
O1161 Eu1129 2.363 . S
O1162 C1124 1.283 . S
O1162 Eu1130 2.363 . S
O1163 C1122 1.283 . S
O1163 Eu1130 2.363 . S
C1164 C1165 1.349 . S
C1164 C1166 1.327 . S
C1164 H1189 0.950 . S
C1165 C1164 1.349 . S
C1165 C1181 1.349 . S
C1166 C1164 1.327 . S
C1166 C1185 1.429 . S
C1166 H1190 0.950 . S
C1167 C1184 1.574 . S
C1167 C1186 1.368 . S
C1167 H1191 0.949 . S
H1168 C1172 0.949 . S
C1169 C1170 1.349 . S
C1169 C1171 1.327 . S
C1169 H1192 0.950 . S
C1170 C1169 1.349 . S
C1170 C1182 1.349 . S
C1171 C1169 1.327 . S
C1171 C1187 1.429 . S
C1171 H1193 0.950 . S
C1172 H1168 0.949 . S
C1172 C1180 1.574 . S
C1172 C1188 1.368 . S
H1173 C1181 0.950 . S
H1174 C1179 0.950 . S
H1175 C1180 0.949 . S
H1176 C1182 0.950 . S
H1177 C1183 0.950 . S
H1178 C1184 0.949 . S
C1179 H1174 0.950 . S
C1179 C1181 1.327 . S
C1179 C1185 1.429 . S
C1180 C1172 1.574 . S
C1180 H1175 0.949 . S
C1180 C1186 1.368 . S
C1181 C1165 1.349 . S
C1181 H1173 0.950 . S
C1181 C1179 1.327 . S
C1182 C1170 1.349 . S
C1182 H1176 0.950 . S
C1182 C1183 1.327 . S
C1183 H1177 0.950 . S
C1183 C1182 1.327 . S
C1183 C1187 1.429 . S
C1184 C1167 1.574 . S
C1184 H1178 0.949 . S
C1184 C1188 1.368 . S
C1185 C1166 1.429 . S
C1185 C1179 1.429 . S
C1185 C1186 1.523 . S
C1186 C1167 1.368 . S
C1186 C1180 1.368 . S
C1186 C1185 1.523 . S
C1187 C1171 1.429 . S
C1187 C1183 1.429 . S
C1187 C1188 1.523 . S
C1188 C1172 1.368 . S
C1188 C1184 1.368 . S
C1188 C1187 1.523 . S
H1189 C1164 0.950 . S
H1190 C1166 0.950 . S
H1191 C1167 0.949 . S
H1192 C1169 0.950 . S
H1193 C1171 0.950 . S
C1194 C1195 1.349 . S
C1194 C1196 1.327 . S
C1194 H1219 0.950 . S
C1195 C1194 1.349 . S
C1195 C1211 1.349 . S
C1196 C1194 1.327 . S
C1196 C1215 1.429 . S
C1196 H1220 0.950 . S
C1197 C1214 1.574 . S
C1197 C1216 1.368 . S
C1197 H1221 0.949 . S
H1198 C1202 0.949 . S
C1199 C1200 1.349 . S
C1199 C1201 1.327 . S
C1199 H1222 0.950 . S
C1200 C1199 1.349 . S
C1200 C1212 1.349 . S
C1201 C1199 1.327 . S
C1201 C1217 1.429 . S
C1201 H1223 0.950 . S
C1202 H1198 0.949 . S
C1202 C1210 1.574 . S
C1202 C1218 1.368 . S
H1203 C1211 0.950 . S
H1204 C1209 0.950 . S
H1205 C1210 0.949 . S
H1206 C1212 0.950 . S
H1207 C1213 0.950 . S
H1208 C1214 0.949 . S
C1209 H1204 0.950 . S
C1209 C1211 1.327 . S
C1209 C1215 1.429 . S
C1210 C1202 1.574 . S
C1210 H1205 0.949 . S
C1210 C1216 1.368 . S
C1211 C1195 1.349 . S
C1211 H1203 0.950 . S
C1211 C1209 1.327 . S
C1212 C1200 1.349 . S
C1212 H1206 0.950 . S
C1212 C1213 1.327 . S
C1213 H1207 0.950 . S
C1213 C1212 1.327 . S
C1213 C1217 1.429 . S
C1214 C1197 1.574 . S
C1214 H1208 0.949 . S
C1214 C1218 1.368 . S
C1215 C1196 1.429 . S
C1215 C1209 1.429 . S
C1215 C1216 1.523 . S
C1216 C1197 1.368 . S
C1216 C1210 1.368 . S
C1216 C1215 1.523 . S
C1217 C1201 1.429 . S
C1217 C1213 1.429 . S
C1217 C1218 1.523 . S
C1218 C1202 1.368 . S
C1218 C1214 1.368 . S
C1218 C1217 1.523 . S
H1219 C1194 0.950 . S
H1220 C1196 0.950 . S
H1221 C1197 0.949 . S
H1222 C1199 0.950 . S
H1223 C1201 0.950 . S
C1224 C1225 1.349 . S
C1224 C1226 1.327 . S
C1224 H1249 0.950 . S
C1225 C1224 1.349 . S
C1225 C1241 1.349 . S
C1226 C1224 1.327 . S
C1226 C1245 1.429 . S
C1226 H1250 0.950 . S
C1227 C1244 1.574 . S
C1227 C1246 1.368 . S
C1227 H1251 0.949 . S
H1228 C1232 0.949 . S
C1229 C1230 1.349 . S
C1229 C1231 1.327 . S
C1229 H1252 0.950 . S
C1230 C1229 1.349 . S
C1230 C1242 1.349 . S
C1231 C1229 1.327 . S
C1231 C1247 1.429 . S
C1231 H1253 0.950 . S
C1232 H1228 0.949 . S
C1232 C1240 1.574 . S
C1232 C1248 1.368 . S
H1233 C1241 0.950 . S
H1234 C1239 0.950 . S
H1235 C1240 0.949 . S
H1236 C1242 0.950 . S
H1237 C1243 0.950 . S
H1238 C1244 0.949 . S
C1239 H1234 0.950 . S
C1239 C1241 1.327 . S
C1239 C1245 1.429 . S
C1240 C1232 1.574 . S
C1240 H1235 0.949 . S
C1240 C1246 1.368 . S
C1241 C1225 1.349 . S
C1241 H1233 0.950 . S
C1241 C1239 1.327 . S
C1242 C1230 1.349 . S
C1242 H1236 0.950 . S
C1242 C1243 1.327 . S
C1243 H1237 0.950 . S
C1243 C1242 1.327 . S
C1243 C1247 1.429 . S
C1244 C1227 1.574 . S
C1244 H1238 0.949 . S
C1244 C1248 1.368 . S
C1245 C1226 1.429 . S
C1245 C1239 1.429 . S
C1245 C1246 1.523 . S
C1246 C1227 1.368 . S
C1246 C1240 1.368 . S
C1246 C1245 1.523 . S
C1247 C1231 1.429 . S
C1247 C1243 1.429 . S
C1247 C1248 1.523 . S
C1248 C1232 1.368 . S
C1248 C1244 1.368 . S
C1248 C1247 1.523 . S
H1249 C1224 0.950 . S
H1250 C1226 0.950 . S
H1251 C1227 0.949 . S
H1252 C1229 0.950 . S
H1253 C1231 0.950 . S
C1254 C1255 1.349 . S
C1254 C1256 1.327 . S
C1254 H1279 0.950 . S
C1255 C1254 1.349 . S
C1255 C1271 1.349 . S
C1256 C1254 1.327 . S
C1256 C1275 1.429 . S
C1256 H1280 0.950 . S
C1257 C1274 1.574 . S
C1257 C1276 1.368 . S
C1257 H1281 0.949 . S
H1258 C1262 0.949 . S
C1259 C1260 1.349 . S
C1259 C1261 1.327 . S
C1259 H1282 0.950 . S
C1260 C1259 1.349 . S
C1260 C1272 1.349 . S
C1261 C1259 1.327 . S
C1261 C1277 1.429 . S
C1261 H1283 0.950 . S
C1262 H1258 0.949 . S
C1262 C1270 1.574 . S
C1262 C1278 1.368 . S
H1263 C1271 0.950 . S
H1264 C1269 0.950 . S
H1265 C1270 0.949 . S
H1266 C1272 0.950 . S
H1267 C1273 0.950 . S
H1268 C1274 0.949 . S
C1269 H1264 0.950 . S
C1269 C1271 1.327 . S
C1269 C1275 1.429 . S
C1270 C1262 1.574 . S
C1270 H1265 0.949 . S
C1270 C1276 1.368 . S
C1271 C1255 1.349 . S
C1271 H1263 0.950 . S
C1271 C1269 1.327 . S
C1272 C1260 1.349 . S
C1272 H1266 0.950 . S
C1272 C1273 1.327 . S
C1273 H1267 0.950 . S
C1273 C1272 1.327 . S
C1273 C1277 1.429 . S
C1274 C1257 1.574 . S
C1274 H1268 0.949 . S
C1274 C1278 1.368 . S
C1275 C1256 1.429 . S
C1275 C1269 1.429 . S
C1275 C1276 1.523 . S
C1276 C1257 1.368 . S
C1276 C1270 1.368 . S
C1276 C1275 1.523 . S
C1277 C1261 1.429 . S
C1277 C1273 1.429 . S
C1277 C1278 1.523 . S
C1278 C1262 1.368 . S
C1278 C1274 1.368 . S
C1278 C1277 1.523 . S
H1279 C1254 0.950 . S
H1280 C1256 0.950 . S
H1281 C1257 0.949 . S
H1282 C1259 0.950 . S
H1283 C1261 0.950 . S
C1284 C1285 1.349 . S
C1284 C1286 1.327 . S
C1284 H1309 0.950 . S
C1285 C1284 1.349 . S
C1285 C1301 1.349 . S
C1286 C1284 1.327 . S
C1286 C1305 1.429 . S
C1286 H1310 0.950 . S
C1287 C1304 1.574 . S
C1287 C1306 1.368 . S
C1287 H1311 0.949 . S
H1288 C1292 0.949 . S
C1289 C1290 1.349 . S
C1289 C1291 1.327 . S
C1289 H1312 0.950 . S
C1290 C1289 1.349 . S
C1290 C1302 1.349 . S
C1291 C1289 1.327 . S
C1291 C1307 1.429 . S
C1291 H1313 0.950 . S
C1292 H1288 0.949 . S
C1292 C1300 1.574 . S
C1292 C1308 1.368 . S
H1293 C1301 0.950 . S
H1294 C1299 0.950 . S
H1295 C1300 0.949 . S
H1296 C1302 0.950 . S
H1297 C1303 0.950 . S
H1298 C1304 0.949 . S
C1299 H1294 0.950 . S
C1299 C1301 1.327 . S
C1299 C1305 1.429 . S
C1300 C1292 1.574 . S
C1300 H1295 0.949 . S
C1300 C1306 1.368 . S
C1301 C1285 1.349 . S
C1301 H1293 0.950 . S
C1301 C1299 1.327 . S
C1302 C1290 1.349 . S
C1302 H1296 0.950 . S
C1302 C1303 1.327 . S
C1303 H1297 0.950 . S
C1303 C1302 1.327 . S
C1303 C1307 1.429 . S
C1304 C1287 1.574 . S
C1304 H1298 0.949 . S
C1304 C1308 1.368 . S
C1305 C1286 1.429 . S
C1305 C1299 1.429 . S
C1305 C1306 1.523 . S
C1306 C1287 1.368 . S
C1306 C1300 1.368 . S
C1306 C1305 1.523 . S
C1307 C1291 1.429 . S
C1307 C1303 1.429 . S
C1307 C1308 1.523 . S
C1308 C1292 1.368 . S
C1308 C1304 1.368 . S
C1308 C1307 1.523 . S
H1309 C1284 0.950 . S
H1310 C1286 0.950 . S
H1311 C1287 0.949 . S
H1312 C1289 0.950 . S
H1313 C1291 0.950 . S
C1314 C1315 1.349 . S
C1314 C1316 1.327 . S
C1314 H1339 0.950 . S
C1315 C1314 1.349 . S
C1315 C1331 1.349 . S
C1316 C1314 1.327 . S
C1316 C1335 1.429 . S
C1316 H1340 0.950 . S
C1317 C1334 1.574 . S
C1317 C1336 1.368 . S
C1317 H1341 0.949 . S
H1318 C1322 0.949 . S
C1319 C1320 1.349 . S
C1319 C1321 1.327 . S
C1319 H1342 0.950 . S
C1320 C1319 1.349 . S
C1320 C1332 1.349 . S
C1321 C1319 1.327 . S
C1321 C1337 1.429 . S
C1321 H1343 0.950 . S
C1322 H1318 0.949 . S
C1322 C1330 1.574 . S
C1322 C1338 1.368 . S
H1323 C1331 0.950 . S
H1324 C1329 0.950 . S
H1325 C1330 0.949 . S
H1326 C1332 0.950 . S
H1327 C1333 0.950 . S
H1328 C1334 0.949 . S
C1329 H1324 0.950 . S
C1329 C1331 1.327 . S
C1329 C1335 1.429 . S
C1330 C1322 1.574 . S
C1330 H1325 0.949 . S
C1330 C1336 1.368 . S
C1331 C1315 1.349 . S
C1331 H1323 0.950 . S
C1331 C1329 1.327 . S
C1332 C1320 1.349 . S
C1332 H1326 0.950 . S
C1332 C1333 1.327 . S
C1333 H1327 0.950 . S
C1333 C1332 1.327 . S
C1333 C1337 1.429 . S
C1334 C1317 1.574 . S
C1334 H1328 0.949 . S
C1334 C1338 1.368 . S
C1335 C1316 1.429 . S
C1335 C1329 1.429 . S
C1335 C1336 1.523 . S
C1336 C1317 1.368 . S
C1336 C1330 1.368 . S
C1336 C1335 1.523 . S
C1337 C1321 1.429 . S
C1337 C1333 1.429 . S
C1337 C1338 1.523 . S
C1338 C1322 1.368 . S
C1338 C1334 1.368 . S
C1338 C1337 1.523 . S
H1339 C1314 0.950 . S
H1340 C1316 0.950 . S
H1341 C1317 0.949 . S
H1342 C1319 0.950 . S
H1343 C1321 0.950 . S
C1344 C1345 1.349 . S
C1344 C1346 1.327 . S
C1344 H1369 0.950 . S
C1345 C1344 1.349 . S
C1345 C1361 1.349 . S
C1346 C1344 1.327 . S
C1346 C1365 1.429 . S
C1346 H1370 0.950 . S
C1347 C1364 1.574 . S
C1347 C1366 1.368 . S
C1347 H1371 0.949 . S
H1348 C1352 0.949 . S
C1349 C1350 1.349 . S
C1349 C1351 1.327 . S
C1349 H1372 0.950 . S
C1350 C1349 1.349 . S
C1350 C1362 1.349 . S
C1351 C1349 1.327 . S
C1351 C1367 1.429 . S
C1351 H1373 0.950 . S
C1352 H1348 0.949 . S
C1352 C1360 1.574 . S
C1352 C1368 1.368 . S
H1353 C1361 0.950 . S
H1354 C1359 0.950 . S
H1355 C1360 0.949 . S
H1356 C1362 0.950 . S
H1357 C1363 0.950 . S
H1358 C1364 0.949 . S
C1359 H1354 0.950 . S
C1359 C1361 1.327 . S
C1359 C1365 1.429 . S
C1360 C1352 1.574 . S
C1360 H1355 0.949 . S
C1360 C1366 1.368 . S
C1361 C1345 1.349 . S
C1361 H1353 0.950 . S
C1361 C1359 1.327 . S
C1362 C1350 1.349 . S
C1362 H1356 0.950 . S
C1362 C1363 1.327 . S
C1363 H1357 0.950 . S
C1363 C1362 1.327 . S
C1363 C1367 1.429 . S
C1364 C1347 1.574 . S
C1364 H1358 0.949 . S
C1364 C1368 1.368 . S
C1365 C1346 1.429 . S
C1365 C1359 1.429 . S
C1365 C1366 1.523 . S
C1366 C1347 1.368 . S
C1366 C1360 1.368 . S
C1366 C1365 1.523 . S
C1367 C1351 1.429 . S
C1367 C1363 1.429 . S
C1367 C1368 1.523 . S
C1368 C1352 1.368 . S
C1368 C1364 1.368 . S
C1368 C1367 1.523 . S
H1369 C1344 0.950 . S
H1370 C1346 0.950 . S
H1371 C1347 0.949 . S
H1372 C1349 0.950 . S
H1373 C1351 0.950 . S
C1374 C1375 1.349 . S
C1374 C1376 1.327 . S
C1374 H1399 0.950 . S
C1375 C1374 1.349 . S
C1375 C1391 1.349 . S
C1376 C1374 1.327 . S
C1376 C1395 1.429 . S
C1376 H1400 0.950 . S
C1377 C1394 1.574 . S
C1377 C1396 1.368 . S
C1377 H1401 0.949 . S
H1378 C1382 0.949 . S
C1379 C1380 1.349 . S
C1379 C1381 1.327 . S
C1379 H1402 0.950 . S
C1380 C1379 1.349 . S
C1380 C1392 1.349 . S
C1381 C1379 1.327 . S
C1381 C1397 1.429 . S
C1381 H1403 0.950 . S
C1382 H1378 0.949 . S
C1382 C1390 1.574 . S
C1382 C1398 1.368 . S
H1383 C1391 0.950 . S
H1384 C1389 0.950 . S
H1385 C1390 0.949 . S
H1386 C1392 0.950 . S
H1387 C1393 0.950 . S
H1388 C1394 0.949 . S
C1389 H1384 0.950 . S
C1389 C1391 1.327 . S
C1389 C1395 1.429 . S
C1390 C1382 1.574 . S
C1390 H1385 0.949 . S
C1390 C1396 1.368 . S
C1391 C1375 1.349 . S
C1391 H1383 0.950 . S
C1391 C1389 1.327 . S
C1392 C1380 1.349 . S
C1392 H1386 0.950 . S
C1392 C1393 1.327 . S
C1393 H1387 0.950 . S
C1393 C1392 1.327 . S
C1393 C1397 1.429 . S
C1394 C1377 1.574 . S
C1394 H1388 0.949 . S
C1394 C1398 1.368 . S
C1395 C1376 1.429 . S
C1395 C1389 1.429 . S
C1395 C1396 1.523 . S
C1396 C1377 1.368 . S
C1396 C1390 1.368 . S
C1396 C1395 1.523 . S
C1397 C1381 1.429 . S
C1397 C1393 1.429 . S
C1397 C1398 1.523 . S
C1398 C1382 1.368 . S
C1398 C1394 1.368 . S
C1398 C1397 1.523 . S
H1399 C1374 0.950 . S
H1400 C1376 0.950 . S
H1401 C1377 0.949 . S
H1402 C1379 0.950 . S
H1403 C1381 0.950 . S
C1404 C1405 1.349 . S
C1404 C1406 1.327 . S
C1404 H1429 0.950 . S
C1405 C1404 1.349 . S
C1405 C1421 1.349 . S
C1406 C1404 1.327 . S
C1406 C1425 1.429 . S
C1406 H1430 0.950 . S
C1407 C1424 1.574 . S
C1407 C1426 1.368 . S
C1407 H1431 0.949 . S
H1408 C1412 0.949 . S
C1409 C1410 1.349 . S
C1409 C1411 1.327 . S
C1409 H1432 0.950 . S
C1410 C1409 1.349 . S
C1410 C1422 1.349 . S
C1411 C1409 1.327 . S
C1411 C1427 1.429 . S
C1411 H1433 0.950 . S
C1412 H1408 0.949 . S
C1412 C1420 1.574 . S
C1412 C1428 1.368 . S
H1413 C1421 0.950 . S
H1414 C1419 0.950 . S
H1415 C1420 0.949 . S
H1416 C1422 0.950 . S
H1417 C1423 0.950 . S
H1418 C1424 0.949 . S
C1419 H1414 0.950 . S
C1419 C1421 1.327 . S
C1419 C1425 1.429 . S
C1420 C1412 1.574 . S
C1420 H1415 0.949 . S
C1420 C1426 1.368 . S
C1421 C1405 1.349 . S
C1421 H1413 0.950 . S
C1421 C1419 1.327 . S
C1422 C1410 1.349 . S
C1422 H1416 0.950 . S
C1422 C1423 1.327 . S
C1423 H1417 0.950 . S
C1423 C1422 1.327 . S
C1423 C1427 1.429 . S
C1424 C1407 1.574 . S
C1424 H1418 0.949 . S
C1424 C1428 1.368 . S
C1425 C1406 1.429 . S
C1425 C1419 1.429 . S
C1425 C1426 1.523 . S
C1426 C1407 1.368 . S
C1426 C1420 1.368 . S
C1426 C1425 1.523 . S
C1427 C1411 1.429 . S
C1427 C1423 1.429 . S
C1427 C1428 1.523 . S
C1428 C1412 1.368 . S
C1428 C1424 1.368 . S
C1428 C1427 1.523 . S
H1429 C1404 0.950 . S
H1430 C1406 0.950 . S
H1431 C1407 0.949 . S
H1432 C1409 0.950 . S
H1433 C1411 0.950 . S
C1434 C1435 1.349 . S
C1434 C1436 1.327 . S
C1434 H1459 0.950 . S
C1435 C1434 1.349 . S
C1435 C1451 1.349 . S
C1436 C1434 1.327 . S
C1436 C1455 1.429 . S
C1436 H1460 0.950 . S
C1437 C1454 1.574 . S
C1437 C1456 1.368 . S
C1437 H1461 0.949 . S
H1438 C1442 0.949 . S
C1439 C1440 1.349 . S
C1439 C1441 1.327 . S
C1439 H1462 0.950 . S
C1440 C1439 1.349 . S
C1440 C1452 1.349 . S
C1441 C1439 1.327 . S
C1441 C1457 1.429 . S
C1441 H1463 0.950 . S
C1442 H1438 0.949 . S
C1442 C1450 1.574 . S
C1442 C1458 1.368 . S
H1443 C1451 0.950 . S
H1444 C1449 0.950 . S
H1445 C1450 0.949 . S
H1446 C1452 0.950 . S
H1447 C1453 0.950 . S
H1448 C1454 0.949 . S
C1449 H1444 0.950 . S
C1449 C1451 1.327 . S
C1449 C1455 1.429 . S
C1450 C1442 1.574 . S
C1450 H1445 0.949 . S
C1450 C1456 1.368 . S
C1451 C1435 1.349 . S
C1451 H1443 0.950 . S
C1451 C1449 1.327 . S
C1452 C1440 1.349 . S
C1452 H1446 0.950 . S
C1452 C1453 1.327 . S
C1453 H1447 0.950 . S
C1453 C1452 1.327 . S
C1453 C1457 1.429 . S
C1454 C1437 1.574 . S
C1454 H1448 0.949 . S
C1454 C1458 1.368 . S
C1455 C1436 1.429 . S
C1455 C1449 1.429 . S
C1455 C1456 1.523 . S
C1456 C1437 1.368 . S
C1456 C1450 1.368 . S
C1456 C1455 1.523 . S
C1457 C1441 1.429 . S
C1457 C1453 1.429 . S
C1457 C1458 1.523 . S
C1458 C1442 1.368 . S
C1458 C1454 1.368 . S
C1458 C1457 1.523 . S
H1459 C1434 0.950 . S
H1460 C1436 0.950 . S
H1461 C1437 0.949 . S
H1462 C1439 0.950 . S
H1463 C1441 0.950 . S
C1464 C1465 1.349 . S
C1464 C1466 1.327 . S
C1464 H1489 0.950 . S
C1465 C1464 1.349 . S
C1465 C1481 1.349 . S
C1466 C1464 1.327 . S
C1466 C1485 1.429 . S
C1466 H1490 0.950 . S
C1467 C1484 1.574 . S
C1467 C1486 1.368 . S
C1467 H1491 0.949 . S
H1468 C1472 0.949 . S
C1469 C1470 1.349 . S
C1469 C1471 1.327 . S
C1469 H1492 0.950 . S
C1470 C1469 1.349 . S
C1470 C1482 1.349 . S
C1471 C1469 1.327 . S
C1471 C1487 1.429 . S
C1471 H1493 0.950 . S
C1472 H1468 0.949 . S
C1472 C1480 1.574 . S
C1472 C1488 1.368 . S
H1473 C1481 0.950 . S
H1474 C1479 0.950 . S
H1475 C1480 0.949 . S
H1476 C1482 0.950 . S
H1477 C1483 0.950 . S
H1478 C1484 0.949 . S
C1479 H1474 0.950 . S
C1479 C1481 1.327 . S
C1479 C1485 1.429 . S
C1480 C1472 1.574 . S
C1480 H1475 0.949 . S
C1480 C1486 1.368 . S
C1481 C1465 1.349 . S
C1481 H1473 0.950 . S
C1481 C1479 1.327 . S
C1482 C1470 1.349 . S
C1482 H1476 0.950 . S
C1482 C1483 1.327 . S
C1483 H1477 0.950 . S
C1483 C1482 1.327 . S
C1483 C1487 1.429 . S
C1484 C1467 1.574 . S
C1484 H1478 0.949 . S
C1484 C1488 1.368 . S
C1485 C1466 1.429 . S
C1485 C1479 1.429 . S
C1485 C1486 1.523 . S
C1486 C1467 1.368 . S
C1486 C1480 1.368 . S
C1486 C1485 1.523 . S
C1487 C1471 1.429 . S
C1487 C1483 1.429 . S
C1487 C1488 1.523 . S
C1488 C1472 1.368 . S
C1488 C1484 1.368 . S
C1488 C1487 1.523 . S
H1489 C1464 0.950 . S
H1490 C1466 0.950 . S
H1491 C1467 0.949 . S
H1492 C1469 0.950 . S
H1493 C1471 0.950 . S
C1494 C1495 1.349 . S
C1494 C1496 1.327 . S
C1494 H1519 0.950 . S
C1495 C1494 1.349 . S
C1495 C1511 1.349 . S
C1496 C1494 1.327 . S
C1496 C1515 1.429 . S
C1496 H1520 0.950 . S
C1497 C1514 1.574 . S
C1497 C1516 1.368 . S
C1497 H1521 0.949 . S
H1498 C1502 0.949 . S
C1499 C1500 1.349 . S
C1499 C1501 1.327 . S
C1499 H1522 0.950 . S
C1500 C1499 1.349 . S
C1500 C1512 1.349 . S
C1501 C1499 1.327 . S
C1501 C1517 1.429 . S
C1501 H1523 0.950 . S
C1502 H1498 0.949 . S
C1502 C1510 1.574 . S
C1502 C1518 1.368 . S
H1503 C1511 0.950 . S
H1504 C1509 0.950 . S
H1505 C1510 0.949 . S
H1506 C1512 0.950 . S
H1507 C1513 0.950 . S
H1508 C1514 0.949 . S
C1509 H1504 0.950 . S
C1509 C1511 1.327 . S
C1509 C1515 1.429 . S
C1510 C1502 1.574 . S
C1510 H1505 0.949 . S
C1510 C1516 1.368 . S
C1511 C1495 1.349 . S
C1511 H1503 0.950 . S
C1511 C1509 1.327 . S
C1512 C1500 1.349 . S
C1512 H1506 0.950 . S
C1512 C1513 1.327 . S
C1513 H1507 0.950 . S
C1513 C1512 1.327 . S
C1513 C1517 1.429 . S
C1514 C1497 1.574 . S
C1514 H1508 0.949 . S
C1514 C1518 1.368 . S
C1515 C1496 1.429 . S
C1515 C1509 1.429 . S
C1515 C1516 1.523 . S
C1516 C1497 1.368 . S
C1516 C1510 1.368 . S
C1516 C1515 1.523 . S
C1517 C1501 1.429 . S
C1517 C1513 1.429 . S
C1517 C1518 1.523 . S
C1518 C1502 1.368 . S
C1518 C1514 1.368 . S
C1518 C1517 1.523 . S
H1519 C1494 0.950 . S
H1520 C1496 0.950 . S
H1521 C1497 0.949 . S
H1522 C1499 0.950 . S
H1523 C1501 0.950 . S
C1524 C1525 1.368 . S
C1524 C1526 1.327 . S
C1524 H1549 0.950 . S
C1525 C1524 1.368 . S
C1525 C1541 1.330 1_554 S
C1526 C1524 1.327 . S
C1526 C1545 1.447 . S
C1526 H1550 0.950 . S
C1527 C1544 1.574 . S
C1527 C1546 1.348 1_556 S
C1527 H1551 0.949 . S
H1528 C1532 0.949 . S
C1529 C1530 1.330 1_556 S
C1529 C1531 1.327 . S
C1529 H1552 0.950 . S
C1530 C1529 1.330 1_554 S
C1530 C1542 1.368 . S
C1531 C1529 1.327 . S
C1531 C1547 1.410 1_556 S
C1531 H1553 0.950 . S
C1532 H1528 0.949 . S
C1532 C1540 1.574 . S
C1532 C1548 1.388 . S
H1533 C1541 0.950 . S
H1534 C1539 0.950 . S
H1535 C1540 0.949 . S
H1536 C1542 0.950 . S
H1537 C1543 0.950 . S
H1538 C1544 0.949 . S
C1539 H1534 0.950 . S
C1539 C1541 1.327 . S
C1539 C1545 1.411 1_556 S
C1540 C1532 1.574 . S
C1540 H1535 0.949 . S
C1540 C1546 1.388 . S
C1541 C1525 1.330 1_556 S
C1541 H1533 0.950 . S
C1541 C1539 1.327 . S
C1542 C1530 1.368 . S
C1542 H1536 0.950 . S
C1542 C1543 1.327 . S
C1543 H1537 0.950 . S
C1543 C1542 1.327 . S
C1543 C1547 1.447 . S
C1544 C1527 1.574 . S
C1544 H1538 0.949 . S
C1544 C1548 1.348 1_556 S
C1545 C1526 1.447 . S
C1545 C1539 1.411 1_554 S
C1545 C1546 1.523 . S
C1546 C1527 1.348 1_554 S
C1546 C1540 1.388 . S
C1546 C1545 1.523 . S
C1547 C1531 1.410 1_554 S
C1547 C1543 1.447 . S
C1547 C1548 1.523 . S
C1548 C1532 1.388 . S
C1548 C1544 1.348 1_554 S
C1548 C1547 1.523 . S
H1549 C1524 0.950 . S
H1550 C1526 0.950 . S
H1551 C1527 0.949 . S
H1552 C1529 0.950 . S
H1553 C1531 0.950 . S
C1554 C1555 1.368 . S
C1554 C1556 1.327 . S
C1554 H1579 0.950 . S
C1555 C1554 1.368 . S
C1555 C1571 1.330 1_554 S
C1556 C1554 1.327 . S
C1556 C1575 1.447 . S
C1556 H1580 0.950 . S
C1557 C1574 1.574 . S
C1557 C1576 1.348 1_556 S
C1557 H1581 0.949 . S
H1558 C1562 0.949 . S
C1559 C1560 1.330 1_556 S
C1559 C1561 1.327 . S
C1559 H1582 0.950 . S
C1560 C1559 1.330 1_554 S
C1560 C1572 1.368 . S
C1561 C1559 1.327 . S
C1561 C1577 1.410 1_556 S
C1561 H1583 0.950 . S
C1562 H1558 0.949 . S
C1562 C1570 1.574 . S
C1562 C1578 1.388 . S
H1563 C1571 0.950 . S
H1564 C1569 0.950 . S
H1565 C1570 0.949 . S
H1566 C1572 0.950 . S
H1567 C1573 0.950 . S
H1568 C1574 0.949 . S
C1569 H1564 0.950 . S
C1569 C1571 1.327 . S
C1569 C1575 1.411 1_556 S
C1570 C1562 1.574 . S
C1570 H1565 0.949 . S
C1570 C1576 1.388 . S
C1571 C1555 1.330 1_556 S
C1571 H1563 0.950 . S
C1571 C1569 1.327 . S
C1572 C1560 1.368 . S
C1572 H1566 0.950 . S
C1572 C1573 1.327 . S
C1573 H1567 0.950 . S
C1573 C1572 1.327 . S
C1573 C1577 1.447 . S
C1574 C1557 1.574 . S
C1574 H1568 0.949 . S
C1574 C1578 1.348 1_556 S
C1575 C1556 1.447 . S
C1575 C1569 1.411 1_554 S
C1575 C1576 1.523 . S
C1576 C1557 1.348 1_554 S
C1576 C1570 1.388 . S
C1576 C1575 1.523 . S
C1577 C1561 1.410 1_554 S
C1577 C1573 1.447 . S
C1577 C1578 1.523 . S
C1578 C1562 1.388 . S
C1578 C1574 1.348 1_554 S
C1578 C1577 1.523 . S
H1579 C1554 0.950 . S
H1580 C1556 0.950 . S
H1581 C1557 0.949 . S
H1582 C1559 0.950 . S
H1583 C1561 0.950 . S
C1584 C1585 1.368 . S
C1584 C1586 1.327 . S
C1584 H1609 0.950 . S
C1585 C1584 1.368 . S
C1585 C1601 1.330 1_554 S
C1586 C1584 1.327 . S
C1586 C1605 1.447 . S
C1586 H1610 0.950 . S
C1587 C1604 1.574 . S
C1587 C1606 1.348 1_556 S
C1587 H1611 0.949 . S
H1588 C1592 0.949 . S
C1589 C1590 1.330 1_556 S
C1589 C1591 1.327 . S
C1589 H1612 0.950 . S
C1590 C1589 1.330 1_554 S
C1590 C1602 1.368 . S
C1591 C1589 1.327 . S
C1591 C1607 1.410 1_556 S
C1591 H1613 0.950 . S
C1592 H1588 0.949 . S
C1592 C1600 1.574 . S
C1592 C1608 1.389 . S
H1593 C1601 0.950 . S
H1594 C1599 0.950 . S
H1595 C1600 0.949 . S
H1596 C1602 0.950 . S
H1597 C1603 0.950 . S
H1598 C1604 0.949 . S
C1599 H1594 0.950 . S
C1599 C1601 1.327 . S
C1599 C1605 1.410 1_556 S
C1600 C1592 1.574 . S
C1600 H1595 0.949 . S
C1600 C1606 1.389 . S
C1601 C1585 1.330 1_556 S
C1601 H1593 0.950 . S
C1601 C1599 1.327 . S
C1602 C1590 1.368 . S
C1602 H1596 0.950 . S
C1602 C1603 1.327 . S
C1603 H1597 0.950 . S
C1603 C1602 1.327 . S
C1603 C1607 1.447 . S
C1604 C1587 1.574 . S
C1604 H1598 0.949 . S
C1604 C1608 1.348 1_556 S
C1605 C1586 1.447 . S
C1605 C1599 1.410 1_554 S
C1605 C1606 1.523 . S
C1606 C1587 1.348 1_554 S
C1606 C1600 1.389 . S
C1606 C1605 1.523 . S
C1607 C1591 1.410 1_554 S
C1607 C1603 1.447 . S
C1607 C1608 1.523 . S
C1608 C1592 1.389 . S
C1608 C1604 1.348 1_554 S
C1608 C1607 1.523 . S
H1609 C1584 0.950 . S
H1610 C1586 0.950 . S
H1611 C1587 0.949 . S
H1612 C1589 0.950 . S
H1613 C1591 0.950 . S
C1614 C1615 1.330 1_556 S
C1614 C1616 1.327 . S
C1614 H1639 0.950 . S
C1615 C1614 1.330 1_554 S
C1615 C1631 1.368 . S
C1616 C1614 1.327 . S
C1616 C1635 1.410 1_556 S
C1616 H1640 0.950 . S
C1617 C1634 1.574 . S
C1617 C1636 1.388 . S
C1617 H1641 0.949 . S
H1618 C1622 0.949 . S
C1619 C1620 1.368 . S
C1619 C1621 1.327 . S
C1619 H1642 0.950 . S
C1620 C1619 1.368 . S
C1620 C1632 1.330 1_554 S
C1621 C1619 1.327 . S
C1621 C1637 1.447 . S
C1621 H1643 0.950 . S
C1622 H1618 0.949 . S
C1622 C1630 1.574 . S
C1622 C1638 1.348 1_556 S
H1623 C1631 0.950 . S
H1624 C1629 0.950 . S
H1625 C1630 0.949 . S
H1626 C1632 0.950 . S
H1627 C1633 0.950 . S
H1628 C1634 0.949 . S
C1629 H1624 0.950 . S
C1629 C1631 1.327 . S
C1629 C1635 1.447 . S
C1630 C1622 1.574 . S
C1630 H1625 0.949 . S
C1630 C1636 1.348 1_556 S
C1631 C1615 1.368 . S
C1631 H1623 0.950 . S
C1631 C1629 1.327 . S
C1632 C1620 1.330 1_556 S
C1632 H1626 0.950 . S
C1632 C1633 1.327 . S
C1633 H1627 0.950 . S
C1633 C1632 1.327 . S
C1633 C1637 1.410 1_556 S
C1634 C1617 1.574 . S
C1634 H1628 0.949 . S
C1634 C1638 1.389 . S
C1635 C1616 1.410 1_554 S
C1635 C1629 1.447 . S
C1635 C1636 1.523 . S
C1636 C1617 1.388 . S
C1636 C1630 1.348 1_554 S
C1636 C1635 1.523 . S
C1637 C1621 1.447 . S
C1637 C1633 1.410 1_554 S
C1637 C1638 1.523 . S
C1638 C1622 1.348 1_554 S
C1638 C1634 1.389 . S
C1638 C1637 1.523 . S
H1639 C1614 0.950 . S
H1640 C1616 0.950 . S
H1641 C1617 0.949 . S
H1642 C1619 0.950 . S
H1643 C1621 0.950 . S
C1644 C1645 1.343 1_655 S
C1644 C1646 1.327 . S
C1644 H1669 0.950 . S
C1645 C1644 1.343 1_455 S
C1645 C1661 1.355 . S
C1646 C1644 1.327 . S
C1646 C1665 1.422 1_655 S
C1646 H1670 0.950 . S
C1647 C1664 1.574 . S
C1647 C1666 1.375 . S
C1647 H1671 0.949 . S
H1648 C1652 0.949 . S
C1649 C1650 1.355 . S
C1649 C1651 1.327 . S
C1649 H1672 0.950 . S
C1650 C1649 1.355 . S
C1650 C1662 1.343 1_455 S
C1651 C1649 1.327 . S
C1651 C1667 1.435 . S
C1651 H1673 0.950 . S
C1652 H1648 0.949 . S
C1652 C1660 1.574 . S
C1652 C1668 1.362 1_655 S
H1653 C1661 0.950 . S
H1654 C1659 0.950 . S
H1655 C1660 0.949 . S
H1656 C1662 0.950 . S
H1657 C1663 0.950 . S
H1658 C1664 0.949 . S
C1659 H1654 0.950 . S
C1659 C1661 1.327 . S
C1659 C1665 1.435 . S
C1660 C1652 1.574 . S
C1660 H1655 0.949 . S
C1660 C1666 1.362 1_655 S
C1661 C1645 1.355 . S
C1661 H1653 0.950 . S
C1661 C1659 1.327 . S
C1662 C1650 1.343 1_655 S
C1662 H1656 0.950 . S
C1662 C1663 1.327 . S
C1663 H1657 0.950 . S
C1663 C1662 1.327 . S
C1663 C1667 1.423 1_655 S
C1664 C1647 1.574 . S
C1664 H1658 0.949 . S
C1664 C1668 1.375 . S
C1665 C1646 1.422 1_455 S
C1665 C1659 1.435 . S
C1665 C1666 1.523 . S
C1666 C1647 1.375 . S
C1666 C1660 1.362 1_455 S
C1666 C1665 1.523 . S
C1667 C1651 1.435 . S
C1667 C1663 1.423 1_455 S
C1667 C1668 1.523 . S
C1668 C1652 1.362 1_455 S
C1668 C1664 1.375 . S
C1668 C1667 1.523 . S
H1669 C1644 0.950 . S
H1670 C1646 0.950 . S
H1671 C1647 0.949 . S
H1672 C1649 0.950 . S
H1673 C1651 0.950 . S
C1674 C1675 1.351 . S
C1674 C1676 1.327 . S
C1674 H1699 0.950 . S
C1675 C1674 1.351 . S
C1675 C1691 1.347 1_545 S
C1676 C1674 1.327 . S
C1676 C1695 1.430 . S
C1676 H1700 0.950 . S
C1677 C1694 1.574 . S
C1677 C1696 1.366 1_565 S
C1677 H1701 0.949 . S
H1678 C1682 0.949 . S
C1679 C1680 1.347 1_565 S
C1679 C1681 1.327 . S
C1679 H1702 0.950 . S
C1680 C1679 1.347 1_545 S
C1680 C1692 1.350 . S
C1681 C1679 1.327 . S
C1681 C1697 1.427 1_565 S
C1681 H1703 0.950 . S
C1682 H1678 0.949 . S
C1682 C1690 1.574 . S
C1682 C1698 1.370 . S
H1683 C1691 0.950 . S
H1684 C1689 0.950 . S
H1685 C1690 0.949 . S
H1686 C1692 0.950 . S
H1687 C1693 0.950 . S
H1688 C1694 0.949 . S
C1689 H1684 0.950 . S
C1689 C1691 1.327 . S
C1689 C1695 1.427 1_565 S
C1690 C1682 1.574 . S
C1690 H1685 0.949 . S
C1690 C1696 1.370 . S
C1691 C1675 1.347 1_565 S
C1691 H1683 0.950 . S
C1691 C1689 1.327 . S
C1692 C1680 1.350 . S
C1692 H1686 0.950 . S
C1692 C1693 1.327 . S
C1693 H1687 0.950 . S
C1693 C1692 1.327 . S
C1693 C1697 1.430 . S
C1694 C1677 1.574 . S
C1694 H1688 0.949 . S
C1694 C1698 1.367 1_565 S
C1695 C1676 1.430 . S
C1695 C1689 1.427 1_545 S
C1695 C1696 1.523 . S
C1696 C1677 1.366 1_545 S
C1696 C1690 1.370 . S
C1696 C1695 1.523 . S
C1697 C1681 1.427 1_545 S
C1697 C1693 1.430 . S
C1697 C1698 1.523 . S
C1698 C1682 1.370 . S
C1698 C1694 1.367 1_545 S
C1698 C1697 1.523 . S
H1699 C1674 0.950 . S
H1700 C1676 0.950 . S
H1701 C1677 0.949 . S
H1702 C1679 0.950 . S
H1703 C1681 0.950 . S
C1704 C1705 1.347 1_655 S
C1704 C1706 1.327 . S
C1704 H1729 0.950 . S
C1705 C1704 1.347 1_455 S
C1705 C1721 1.351 . S
C1706 C1704 1.327 . S
C1706 C1725 1.427 1_655 S
C1706 H1730 0.950 . S
C1707 C1724 1.574 . S
C1707 C1726 1.370 . S
C1707 H1731 0.949 . S
H1708 C1712 0.949 . S
C1709 C1710 1.351 . S
C1709 C1711 1.327 . S
C1709 H1732 0.950 . S
C1710 C1709 1.351 . S
C1710 C1722 1.347 1_455 S
C1711 C1709 1.327 . S
C1711 C1727 1.430 . S
C1711 H1733 0.950 . S
C1712 H1708 0.949 . S
C1712 C1720 1.574 . S
C1712 C1728 1.366 1_655 S
H1713 C1721 0.950 . S
H1714 C1719 0.950 . S
H1715 C1720 0.949 . S
H1716 C1722 0.950 . S
H1717 C1723 0.950 . S
H1718 C1724 0.949 . S
C1719 H1714 0.950 . S
C1719 C1721 1.327 . S
C1719 C1725 1.430 . S
C1720 C1712 1.574 . S
C1720 H1715 0.949 . S
C1720 C1726 1.366 1_655 S
C1721 C1705 1.351 . S
C1721 H1713 0.950 . S
C1721 C1719 1.327 . S
C1722 C1710 1.347 1_655 S
C1722 H1716 0.950 . S
C1722 C1723 1.327 . S
C1723 H1717 0.950 . S
C1723 C1722 1.327 . S
C1723 C1727 1.427 1_655 S
C1724 C1707 1.574 . S
C1724 H1718 0.949 . S
C1724 C1728 1.370 . S
C1725 C1706 1.427 1_455 S
C1725 C1719 1.430 . S
C1725 C1726 1.523 . S
C1726 C1707 1.370 . S
C1726 C1720 1.366 1_455 S
C1726 C1725 1.523 . S
C1727 C1711 1.430 . S
C1727 C1723 1.427 1_455 S
C1727 C1728 1.523 . S
C1728 C1712 1.366 1_455 S
C1728 C1724 1.370 . S
C1728 C1727 1.523 . S
H1729 C1704 0.950 . S
H1730 C1706 0.950 . S
H1731 C1707 0.949 . S
H1732 C1709 0.950 . S
H1733 C1711 0.950 . S
C1734 C1735 1.350 . S
C1734 C1736 1.327 . S
C1734 H1759 0.950 . S
C1735 C1734 1.350 . S
C1735 C1751 1.348 1_545 S
C1736 C1734 1.327 . S
C1736 C1755 1.430 . S
C1736 H1760 0.950 . S
C1737 C1754 1.574 . S
C1737 C1756 1.367 1_565 S
C1737 H1761 0.949 . S
H1738 C1742 0.949 . S
C1739 C1740 1.348 1_565 S
C1739 C1741 1.327 . S
C1739 H1762 0.950 . S
C1740 C1739 1.348 1_545 S
C1740 C1752 1.350 . S
C1741 C1739 1.327 . S
C1741 C1757 1.427 1_565 S
C1741 H1763 0.950 . S
C1742 H1738 0.949 . S
C1742 C1750 1.574 . S
C1742 C1758 1.370 . S
H1743 C1751 0.950 . S
H1744 C1749 0.950 . S
H1745 C1750 0.949 . S
H1746 C1752 0.950 . S
H1747 C1753 0.950 . S
H1748 C1754 0.949 . S
C1749 H1744 0.950 . S
C1749 C1751 1.327 . S
C1749 C1755 1.427 1_565 S
C1750 C1742 1.574 . S
C1750 H1745 0.949 . S
C1750 C1756 1.370 . S
C1751 C1735 1.348 1_565 S
C1751 H1743 0.950 . S
C1751 C1749 1.327 . S
C1752 C1740 1.350 . S
C1752 H1746 0.950 . S
C1752 C1753 1.327 . S
C1753 H1747 0.950 . S
C1753 C1752 1.327 . S
C1753 C1757 1.430 . S
C1754 C1737 1.574 . S
C1754 H1748 0.949 . S
C1754 C1758 1.367 1_565 S
C1755 C1736 1.430 . S
C1755 C1749 1.427 1_545 S
C1755 C1756 1.523 . S
C1756 C1737 1.367 1_545 S
C1756 C1750 1.370 . S
C1756 C1755 1.523 . S
C1757 C1741 1.427 1_545 S
C1757 C1753 1.430 . S
C1757 C1758 1.523 . S
C1758 C1742 1.370 . S
C1758 C1754 1.367 1_545 S
C1758 C1757 1.523 . S
H1759 C1734 0.950 . S
H1760 C1736 0.950 . S
H1761 C1737 0.949 . S
H1762 C1739 0.950 . S
H1763 C1741 0.950 . S
C1764 C1765 1.342 1_655 S
C1764 C1766 1.327 . S
C1764 H1789 0.950 . S
C1765 C1764 1.342 1_455 S
C1765 C1781 1.356 . S
C1766 C1764 1.327 . S
C1766 C1785 1.422 1_655 S
C1766 H1790 0.950 . S
C1767 C1784 1.574 . S
C1767 C1786 1.376 . S
C1767 H1791 0.949 . S
H1768 C1772 0.949 . S
C1769 C1770 1.357 . S
C1769 C1771 1.327 . S
C1769 H1792 0.950 . S
C1770 C1769 1.357 . S
C1770 C1782 1.341 1_455 S
C1771 C1769 1.327 . S
C1771 C1787 1.436 . S
C1771 H1793 0.950 . S
C1772 H1768 0.949 . S
C1772 C1780 1.574 . S
C1772 C1788 1.360 1_655 S
H1773 C1781 0.950 . S
H1774 C1779 0.950 . S
H1775 C1780 0.949 . S
H1776 C1782 0.950 . S
H1777 C1783 0.950 . S
H1778 C1784 0.949 . S
C1779 H1774 0.950 . S
C1779 C1781 1.327 . S
C1779 C1785 1.436 . S
C1780 C1772 1.574 . S
C1780 H1775 0.949 . S
C1780 C1786 1.361 1_655 S
C1781 C1765 1.356 . S
C1781 H1773 0.950 . S
C1781 C1779 1.327 . S
C1782 C1770 1.341 1_655 S
C1782 H1776 0.950 . S
C1782 C1783 1.327 . S
C1783 H1777 0.950 . S
C1783 C1782 1.327 . S
C1783 C1787 1.421 1_655 S
C1784 C1767 1.574 . S
C1784 H1778 0.949 . S
C1784 C1788 1.376 . S
C1785 C1766 1.422 1_455 S
C1785 C1779 1.436 . S
C1785 C1786 1.523 . S
C1786 C1767 1.376 . S
C1786 C1780 1.361 1_455 S
C1786 C1785 1.523 . S
C1787 C1771 1.436 . S
C1787 C1783 1.421 1_455 S
C1787 C1788 1.523 . S
C1788 C1772 1.360 1_455 S
C1788 C1784 1.376 . S
C1788 C1787 1.523 . S
H1789 C1764 0.950 . S
H1790 C1766 0.950 . S
H1791 C1767 0.949 . S
H1792 C1769 0.950 . S
H1793 C1771 0.950 . S
C1794 C1795 1.350 . S
C1794 C1796 1.327 . S
C1794 H1819 0.950 . S
C1795 C1794 1.350 . S
C1795 C1811 1.347 1_545 S
C1796 C1794 1.327 . S
C1796 C1815 1.430 . S
C1796 H1820 0.950 . S
C1797 C1814 1.574 . S
C1797 C1816 1.367 1_565 S
C1797 H1821 0.949 . S
H1798 C1802 0.949 . S
C1799 C1800 1.347 1_565 S
C1799 C1801 1.327 . S
C1799 H1822 0.950 . S
C1800 C1799 1.347 1_545 S
C1800 C1812 1.350 . S
C1801 C1799 1.327 . S
C1801 C1817 1.427 1_565 S
C1801 H1823 0.950 . S
C1802 H1798 0.949 . S
C1802 C1810 1.574 . S
C1802 C1818 1.370 . S
H1803 C1811 0.950 . S
H1804 C1809 0.950 . S
H1805 C1810 0.949 . S
H1806 C1812 0.950 . S
H1807 C1813 0.950 . S
H1808 C1814 0.949 . S
C1809 H1804 0.950 . S
C1809 C1811 1.327 . S
C1809 C1815 1.427 1_565 S
C1810 C1802 1.574 . S
C1810 H1805 0.949 . S
C1810 C1816 1.370 . S
C1811 C1795 1.347 1_565 S
C1811 H1803 0.950 . S
C1811 C1809 1.327 . S
C1812 C1800 1.350 . S
C1812 H1806 0.950 . S
C1812 C1813 1.327 . S
C1813 H1807 0.950 . S
C1813 C1812 1.327 . S
C1813 C1817 1.430 . S
C1814 C1797 1.574 . S
C1814 H1808 0.949 . S
C1814 C1818 1.367 1_565 S
C1815 C1796 1.430 . S
C1815 C1809 1.427 1_545 S
C1815 C1816 1.523 . S
C1816 C1797 1.367 1_545 S
C1816 C1810 1.370 . S
C1816 C1815 1.523 . S
C1817 C1801 1.427 1_545 S
C1817 C1813 1.430 . S
C1817 C1818 1.523 . S
C1818 C1802 1.370 . S
C1818 C1814 1.367 1_545 S
C1818 C1817 1.523 . S
H1819 C1794 0.950 . S
H1820 C1796 0.950 . S
H1821 C1797 0.949 . S
H1822 C1799 0.950 . S
H1823 C1801 0.950 . S
C1824 C1825 1.354 . S
C1824 C1826 1.327 . S
C1824 H1849 0.950 . S
C1825 C1824 1.354 . S
C1825 C1841 1.344 1_455 S
C1826 C1824 1.327 . S
C1826 C1845 1.434 . S
C1826 H1850 0.950 . S
C1827 C1844 1.574 . S
C1827 C1846 1.363 1_655 S
C1827 H1851 0.949 . S
H1828 C1832 0.949 . S
C1829 C1830 1.344 1_655 S
C1829 C1831 1.327 . S
C1829 H1852 0.950 . S
C1830 C1829 1.344 1_455 S
C1830 C1842 1.354 . S
C1831 C1829 1.327 . S
C1831 C1847 1.423 1_655 S
C1831 H1853 0.950 . S
C1832 H1828 0.949 . S
C1832 C1840 1.574 . S
C1832 C1848 1.374 . S
H1833 C1841 0.950 . S
H1834 C1839 0.950 . S
H1835 C1840 0.949 . S
H1836 C1842 0.950 . S
H1837 C1843 0.950 . S
H1838 C1844 0.949 . S
C1839 H1834 0.950 . S
C1839 C1841 1.327 . S
C1839 C1845 1.423 1_655 S
C1840 C1832 1.574 . S
C1840 H1835 0.949 . S
C1840 C1846 1.374 . S
C1841 C1825 1.344 1_655 S
C1841 H1833 0.950 . S
C1841 C1839 1.327 . S
C1842 C1830 1.354 . S
C1842 H1836 0.950 . S
C1842 C1843 1.327 . S
C1843 H1837 0.950 . S
C1843 C1842 1.327 . S
C1843 C1847 1.434 . S
C1844 C1827 1.574 . S
C1844 H1838 0.949 . S
C1844 C1848 1.363 1_655 S
C1845 C1826 1.434 . S
C1845 C1839 1.423 1_455 S
C1845 C1846 1.523 . S
C1846 C1827 1.363 1_455 S
C1846 C1840 1.374 . S
C1846 C1845 1.523 . S
C1847 C1831 1.423 1_455 S
C1847 C1843 1.434 . S
C1847 C1848 1.523 . S
C1848 C1832 1.374 . S
C1848 C1844 1.363 1_455 S
C1848 C1847 1.523 . S
H1849 C1824 0.950 . S
H1850 C1826 0.950 . S
H1851 C1827 0.949 . S
H1852 C1829 0.950 . S
H1853 C1831 0.950 . S
C1854 C1855 1.347 1_565 S
C1854 C1856 1.327 . S
C1854 H1879 0.950 . S
C1855 C1854 1.347 1_545 S
C1855 C1871 1.351 . S
C1856 C1854 1.327 . S
C1856 C1875 1.427 1_565 S
C1856 H1880 0.950 . S
C1857 C1874 1.574 . S
C1857 C1876 1.370 . S
C1857 H1881 0.949 . S
H1858 C1862 0.949 . S
C1859 C1860 1.350 . S
C1859 C1861 1.327 . S
C1859 H1882 0.950 . S
C1860 C1859 1.350 . S
C1860 C1872 1.347 1_545 S
C1861 C1859 1.327 . S
C1861 C1877 1.430 . S
C1861 H1883 0.950 . S
C1862 H1858 0.949 . S
C1862 C1870 1.574 . S
C1862 C1878 1.367 1_565 S
H1863 C1871 0.950 . S
H1864 C1869 0.950 . S
H1865 C1870 0.949 . S
H1866 C1872 0.950 . S
H1867 C1873 0.950 . S
H1868 C1874 0.949 . S
C1869 H1864 0.950 . S
C1869 C1871 1.327 . S
C1869 C1875 1.430 . S
C1870 C1862 1.574 . S
C1870 H1865 0.949 . S
C1870 C1876 1.366 1_565 S
C1871 C1855 1.351 . S
C1871 H1863 0.950 . S
C1871 C1869 1.327 . S
C1872 C1860 1.347 1_565 S
C1872 H1866 0.950 . S
C1872 C1873 1.327 . S
C1873 H1867 0.950 . S
C1873 C1872 1.327 . S
C1873 C1877 1.427 1_565 S
C1874 C1857 1.574 . S
C1874 H1868 0.949 . S
C1874 C1878 1.370 . S
C1875 C1856 1.427 1_545 S
C1875 C1869 1.430 . S
C1875 C1876 1.523 . S
C1876 C1857 1.370 . S
C1876 C1870 1.366 1_545 S
C1876 C1875 1.523 . S
C1877 C1861 1.430 . S
C1877 C1873 1.427 1_545 S
C1877 C1878 1.523 . S
C1878 C1862 1.367 1_545 S
C1878 C1874 1.370 . S
C1878 C1877 1.523 . S
H1879 C1854 0.950 . S
H1880 C1856 0.950 . S
H1881 C1857 0.949 . S
H1882 C1859 0.950 . S
H1883 C1861 0.950 . S
C1884 C1885 1.354 . S
C1884 C1886 1.327 . S
C1884 H1909 0.950 . S
C1885 C1884 1.354 . S
C1885 C1901 1.343 1_455 S
C1886 C1884 1.327 . S
C1886 C1905 1.434 . S
C1886 H1910 0.950 . S
C1887 C1904 1.574 . S
C1887 C1906 1.363 1_655 S
C1887 H1911 0.949 . S
H1888 C1892 0.949 . S
C1889 C1890 1.344 1_655 S
C1889 C1891 1.327 . S
C1889 H1912 0.950 . S
C1890 C1889 1.344 1_455 S
C1890 C1902 1.354 . S
C1891 C1889 1.327 . S
C1891 C1907 1.424 1_655 S
C1891 H1913 0.950 . S
C1892 H1888 0.949 . S
C1892 C1900 1.574 . S
C1892 C1908 1.374 . S
H1893 C1901 0.950 . S
H1894 C1899 0.950 . S
H1895 C1900 0.949 . S
H1896 C1902 0.950 . S
H1897 C1903 0.950 . S
H1898 C1904 0.949 . S
C1899 H1894 0.950 . S
C1899 C1901 1.327 . S
C1899 C1905 1.423 1_655 S
C1900 C1892 1.574 . S
C1900 H1895 0.949 . S
C1900 C1906 1.374 . S
C1901 C1885 1.343 1_655 S
C1901 H1893 0.950 . S
C1901 C1899 1.327 . S
C1902 C1890 1.354 . S
C1902 H1896 0.950 . S
C1902 C1903 1.327 . S
C1903 H1897 0.950 . S
C1903 C1902 1.327 . S
C1903 C1907 1.433 . S
C1904 C1887 1.574 . S
C1904 H1898 0.949 . S
C1904 C1908 1.363 1_655 S
C1905 C1886 1.434 . S
C1905 C1899 1.423 1_455 S
C1905 C1906 1.523 . S
C1906 C1887 1.363 1_455 S
C1906 C1900 1.374 . S
C1906 C1905 1.523 . S
C1907 C1891 1.424 1_455 S
C1907 C1903 1.433 . S
C1907 C1908 1.523 . S
C1908 C1892 1.374 . S
C1908 C1904 1.363 1_455 S
C1908 C1907 1.523 . S
H1909 C1884 0.950 . S
H1910 C1886 0.950 . S
H1911 C1887 0.949 . S
H1912 C1889 0.950 . S
H1913 C1891 0.950 . S
C1914 C1915 1.351 . S
C1914 C1916 1.327 . S
C1914 H1939 0.950 . S
C1915 C1914 1.351 . S
C1915 C1931 1.347 1_545 S
C1916 C1914 1.327 . S
C1916 C1935 1.431 . S
C1916 H1940 0.950 . S
C1917 C1934 1.574 . S
C1917 C1936 1.366 1_565 S
C1917 H1941 0.949 . S
H1918 C1922 0.949 . S
C1919 C1920 1.346 1_565 S
C1919 C1921 1.327 . S
C1919 H1942 0.950 . S
C1920 C1919 1.346 1_545 S
C1920 C1932 1.352 . S
C1921 C1919 1.327 . S
C1921 C1937 1.426 1_565 S
C1921 H1943 0.950 . S
C1922 H1918 0.949 . S
C1922 C1930 1.574 . S
C1922 C1938 1.371 . S
H1923 C1931 0.950 . S
H1924 C1929 0.950 . S
H1925 C1930 0.949 . S
H1926 C1932 0.950 . S
H1927 C1933 0.950 . S
H1928 C1934 0.949 . S
C1929 H1924 0.950 . S
C1929 C1931 1.327 . S
C1929 C1935 1.426 1_565 S
C1930 C1922 1.574 . S
C1930 H1925 0.949 . S
C1930 C1936 1.371 . S
C1931 C1915 1.347 1_565 S
C1931 H1923 0.950 . S
C1931 C1929 1.327 . S
C1932 C1920 1.352 . S
C1932 H1926 0.950 . S
C1932 C1933 1.327 . S
C1933 H1927 0.950 . S
C1933 C1932 1.327 . S
C1933 C1937 1.431 . S
C1934 C1917 1.574 . S
C1934 H1928 0.949 . S
C1934 C1938 1.366 1_565 S
C1935 C1916 1.431 . S
C1935 C1929 1.426 1_545 S
C1935 C1936 1.523 . S
C1936 C1917 1.366 1_545 S
C1936 C1930 1.371 . S
C1936 C1935 1.523 . S
C1937 C1921 1.426 1_545 S
C1937 C1933 1.431 . S
C1937 C1938 1.523 . S
C1938 C1922 1.371 . S
C1938 C1934 1.366 1_545 S
C1938 C1937 1.523 . S
H1939 C1914 0.950 . S
H1940 C1916 0.950 . S
H1941 C1917 0.949 . S
H1942 C1919 0.950 . S
H1943 C1921 0.950 . S
C1944 C1945 1.354 . S
C1944 C1946 1.327 . S
C1944 H1969 0.950 . S
C1945 C1944 1.354 . S
C1945 C1961 1.344 1_455 S
C1946 C1944 1.327 . S
C1946 C1965 1.433 . S
C1946 H1970 0.950 . S
C1947 C1964 1.574 . S
C1947 C1966 1.364 1_655 S
C1947 H1971 0.949 . S
H1948 C1952 0.949 . S
C1949 C1950 1.345 1_655 S
C1949 C1951 1.327 . S
C1949 H1972 0.950 . S
C1950 C1949 1.345 1_455 S
C1950 C1962 1.353 . S
C1951 C1949 1.327 . S
C1951 C1967 1.425 1_655 S
C1951 H1973 0.950 . S
C1952 H1948 0.949 . S
C1952 C1960 1.574 . S
C1952 C1968 1.373 . S
H1953 C1961 0.950 . S
H1954 C1959 0.950 . S
H1955 C1960 0.949 . S
H1956 C1962 0.950 . S
H1957 C1963 0.950 . S
H1958 C1964 0.949 . S
C1959 H1954 0.950 . S
C1959 C1961 1.327 . S
C1959 C1965 1.424 1_655 S
C1960 C1952 1.574 . S
C1960 H1955 0.949 . S
C1960 C1966 1.373 . S
C1961 C1945 1.344 1_655 S
C1961 H1953 0.950 . S
C1961 C1959 1.327 . S
C1962 C1950 1.353 . S
C1962 H1956 0.950 . S
C1962 C1963 1.327 . S
C1963 H1957 0.950 . S
C1963 C1962 1.327 . S
C1963 C1967 1.433 . S
C1964 C1947 1.574 . S
C1964 H1958 0.949 . S
C1964 C1968 1.364 1_655 S
C1965 C1946 1.433 . S
C1965 C1959 1.424 1_455 S
C1965 C1966 1.523 . S
C1966 C1947 1.364 1_455 S
C1966 C1960 1.373 . S
C1966 C1965 1.523 . S
C1967 C1951 1.425 1_455 S
C1967 C1963 1.433 . S
C1967 C1968 1.523 . S
C1968 C1952 1.373 . S
C1968 C1964 1.364 1_455 S
C1968 C1967 1.523 . S
H1969 C1944 0.950 . S
H1970 C1946 0.950 . S
H1971 C1947 0.949 . S
H1972 C1949 0.950 . S
H1973 C1951 0.950 . S
C1974 C1975 1.346 1_565 S
C1974 C1976 1.327 . S
C1974 H1999 0.950 . S
C1975 C1974 1.346 1_545 S
C1975 C1991 1.351 . S
C1976 C1974 1.327 . S
C1976 C1995 1.426 1_565 S
C1976 H2000 0.950 . S
C1977 C1994 1.574 . S
C1977 C1996 1.371 . S
C1977 H2001 0.949 . S
H1978 C1982 0.949 . S
C1979 C1980 1.352 . S
C1979 C1981 1.327 . S
C1979 H2002 0.950 . S
C1980 C1979 1.352 . S
C1980 C1992 1.346 1_545 S
C1981 C1979 1.327 . S
C1981 C1997 1.432 . S
C1981 H2003 0.950 . S
C1982 H1978 0.949 . S
C1982 C1990 1.574 . S
C1982 C1998 1.365 1_565 S
H1983 C1991 0.950 . S
H1984 C1989 0.950 . S
H1985 C1990 0.949 . S
H1986 C1992 0.950 . S
H1987 C1993 0.950 . S
H1988 C1994 0.949 . S
C1989 H1984 0.950 . S
C1989 C1991 1.327 . S
C1989 C1995 1.431 . S
C1990 C1982 1.574 . S
C1990 H1985 0.949 . S
C1990 C1996 1.365 1_565 S
C1991 C1975 1.351 . S
C1991 H1983 0.950 . S
C1991 C1989 1.327 . S
C1992 C1980 1.346 1_565 S
C1992 H1986 0.950 . S
C1992 C1993 1.327 . S
C1993 H1987 0.950 . S
C1993 C1992 1.327 . S
C1993 C1997 1.426 1_565 S
C1994 C1977 1.574 . S
C1994 H1988 0.949 . S
C1994 C1998 1.372 . S
C1995 C1976 1.426 1_545 S
C1995 C1989 1.431 . S
C1995 C1996 1.523 . S
C1996 C1977 1.371 . S
C1996 C1990 1.365 1_545 S
C1996 C1995 1.523 . S
C1997 C1981 1.432 . S
C1997 C1993 1.426 1_545 S
C1997 C1998 1.523 . S
C1998 C1982 1.365 1_545 S
C1998 C1994 1.372 . S
C1998 C1997 1.523 . S
H1999 C1974 0.950 . S
H2000 C1976 0.950 . S
H2001 C1977 0.949 . S
H2002 C1979 0.950 . S
H2003 C1981 0.950 . S
C2004 C2005 1.344 1_655 S
C2004 C2006 1.327 . S
C2004 H2029 0.950 . S
C2005 C2004 1.344 1_455 S
C2005 C2021 1.354 . S
C2006 C2004 1.327 . S
C2006 C2025 1.424 1_655 S
C2006 H2030 0.950 . S
C2007 C2024 1.574 . S
C2007 C2026 1.374 . S
C2007 H2031 0.949 . S
H2008 C2012 0.949 . S
C2009 C2010 1.353 . S
C2009 C2011 1.327 . S
C2009 H2032 0.950 . S
C2010 C2009 1.353 . S
C2010 C2022 1.345 1_455 S
C2011 C2009 1.327 . S
C2011 C2027 1.433 . S
C2011 H2033 0.950 . S
C2012 H2008 0.949 . S
C2012 C2020 1.574 . S
C2012 C2028 1.363 1_655 S
H2013 C2021 0.950 . S
H2014 C2019 0.950 . S
H2015 C2020 0.949 . S
H2016 C2022 0.950 . S
H2017 C2023 0.950 . S
H2018 C2024 0.949 . S
C2019 H2014 0.950 . S
C2019 C2021 1.327 . S
C2019 C2025 1.433 . S
C2020 C2012 1.574 . S
C2020 H2015 0.949 . S
C2020 C2026 1.363 1_655 S
C2021 C2005 1.354 . S
C2021 H2013 0.950 . S
C2021 C2019 1.327 . S
C2022 C2010 1.345 1_655 S
C2022 H2016 0.950 . S
C2022 C2023 1.327 . S
C2023 H2017 0.950 . S
C2023 C2022 1.327 . S
C2023 C2027 1.424 1_655 S
C2024 C2007 1.574 . S
C2024 H2018 0.949 . S
C2024 C2028 1.373 . S
C2025 C2006 1.424 1_455 S
C2025 C2019 1.433 . S
C2025 C2026 1.523 . S
C2026 C2007 1.374 . S
C2026 C2020 1.363 1_455 S
C2026 C2025 1.523 . S
C2027 C2011 1.433 . S
C2027 C2023 1.424 1_455 S
C2027 C2028 1.523 . S
C2028 C2012 1.363 1_455 S
C2028 C2024 1.373 . S
C2028 C2027 1.523 . S
H2029 C2004 0.950 . S
H2030 C2006 0.950 . S
H2031 C2007 0.949 . S
H2032 C2009 0.950 . S
H2033 C2011 0.950 . S
C2034 C2035 1.346 1_565 S
C2034 C2036 1.327 . S
C2034 H2059 0.950 . S
C2035 C2034 1.346 1_545 S
C2035 C2051 1.351 . S
C2036 C2034 1.327 . S
C2036 C2055 1.426 1_565 S
C2036 H2060 0.950 . S
C2037 C2054 1.574 . S
C2037 C2056 1.371 . S
C2037 H2061 0.949 . S
H2038 C2042 0.949 . S
C2039 C2040 1.352 . S
C2039 C2041 1.327 . S
C2039 H2062 0.950 . S
C2040 C2039 1.352 . S
C2040 C2052 1.346 1_545 S
C2041 C2039 1.327 . S
C2041 C2057 1.432 . S
C2041 H2063 0.950 . S
C2042 H2038 0.949 . S
C2042 C2050 1.574 . S
C2042 C2058 1.365 1_565 S
H2043 C2051 0.950 . S
H2044 C2049 0.950 . S
H2045 C2050 0.949 . S
H2046 C2052 0.950 . S
H2047 C2053 0.950 . S
H2048 C2054 0.949 . S
C2049 H2044 0.950 . S
C2049 C2051 1.327 . S
C2049 C2055 1.431 . S
C2050 C2042 1.574 . S
C2050 H2045 0.949 . S
C2050 C2056 1.365 1_565 S
C2051 C2035 1.351 . S
C2051 H2043 0.950 . S
C2051 C2049 1.327 . S
C2052 C2040 1.346 1_565 S
C2052 H2046 0.950 . S
C2052 C2053 1.327 . S
C2053 H2047 0.950 . S
C2053 C2052 1.327 . S
C2053 C2057 1.426 1_565 S
C2054 C2037 1.574 . S
C2054 H2048 0.949 . S
C2054 C2058 1.371 . S
C2055 C2036 1.426 1_545 S
C2055 C2049 1.431 . S
C2055 C2056 1.523 . S
C2056 C2037 1.371 . S
C2056 C2050 1.365 1_545 S
C2056 C2055 1.523 . S
C2057 C2041 1.432 . S
C2057 C2053 1.426 1_545 S
C2057 C2058 1.523 . S
C2058 C2042 1.365 1_545 S
C2058 C2054 1.371 . S
C2058 C2057 1.523 . S
H2059 C2034 0.950 . S
H2060 C2036 0.950 . S
H2061 C2037 0.949 . S
H2062 C2039 0.950 . S
H2063 C2041 0.950 . S
C2064 C2065 1.342 1_655 S
C2064 C2066 1.327 . S
C2064 H2089 0.950 . S
C2065 C2064 1.342 1_455 S
C2065 C2081 1.356 . S
C2066 C2064 1.327 . S
C2066 C2085 1.422 1_655 S
C2066 H2090 0.950 . S
C2067 C2084 1.574 . S
C2067 C2086 1.376 . S
C2067 H2091 0.949 . S
H2068 C2072 0.949 . S
C2069 C2070 1.355 . S
C2069 C2071 1.327 . S
C2069 H2092 0.950 . S
C2070 C2069 1.355 . S
C2070 C2082 1.343 1_455 S
C2071 C2069 1.327 . S
C2071 C2087 1.435 . S
C2071 H2093 0.950 . S
C2072 H2068 0.949 . S
C2072 C2080 1.574 . S
C2072 C2088 1.361 1_655 S
H2073 C2081 0.950 . S
H2074 C2079 0.950 . S
H2075 C2080 0.949 . S
H2076 C2082 0.950 . S
H2077 C2083 0.950 . S
H2078 C2084 0.949 . S
C2079 H2074 0.950 . S
C2079 C2081 1.327 . S
C2079 C2085 1.435 . S
C2080 C2072 1.574 . S
C2080 H2075 0.949 . S
C2080 C2086 1.361 1_655 S
C2081 C2065 1.356 . S
C2081 H2073 0.950 . S
C2081 C2079 1.327 . S
C2082 C2070 1.343 1_655 S
C2082 H2076 0.950 . S
C2082 C2083 1.327 . S
C2083 H2077 0.950 . S
C2083 C2082 1.327 . S
C2083 C2087 1.422 1_655 S
C2084 C2067 1.574 . S
C2084 H2078 0.949 . S
C2084 C2088 1.375 . S
C2085 C2066 1.422 1_455 S
C2085 C2079 1.435 . S
C2085 C2086 1.523 . S
C2086 C2067 1.376 . S
C2086 C2080 1.361 1_455 S
C2086 C2085 1.523 . S
C2087 C2071 1.435 . S
C2087 C2083 1.422 1_455 S
C2087 C2088 1.523 . S
C2088 C2072 1.361 1_455 S
C2088 C2084 1.375 . S
C2088 C2087 1.523 . S
H2089 C2064 0.950 . S
H2090 C2066 0.950 . S
H2091 C2067 0.949 . S
H2092 C2069 0.950 . S
H2093 C2071 0.950 . S
C2094 C2095 1.347 1_565 S
C2094 C2096 1.327 . S
C2094 H2119 0.950 . S
C2095 C2094 1.347 1_545 S
C2095 C2111 1.351 . S
C2096 C2094 1.327 . S
C2096 C2115 1.427 1_565 S
C2096 H2120 0.950 . S
C2097 C2114 1.574 . S
C2097 C2116 1.371 . S
C2097 H2121 0.949 . S
H2098 C2102 0.949 . S
C2099 C2100 1.352 . S
C2099 C2101 1.327 . S
C2099 H2122 0.950 . S
C2100 C2099 1.352 . S
C2100 C2112 1.346 1_545 S
C2101 C2099 1.327 . S
C2101 C2117 1.431 . S
C2101 H2123 0.950 . S
C2102 H2098 0.949 . S
C2102 C2110 1.574 . S
C2102 C2118 1.366 1_565 S
H2103 C2111 0.950 . S
H2104 C2109 0.950 . S
H2105 C2110 0.949 . S
H2106 C2112 0.950 . S
H2107 C2113 0.950 . S
H2108 C2114 0.949 . S
C2109 H2104 0.950 . S
C2109 C2111 1.327 . S
C2109 C2115 1.431 . S
C2110 C2102 1.574 . S
C2110 H2105 0.949 . S
C2110 C2116 1.366 1_565 S
C2111 C2095 1.351 . S
C2111 H2103 0.950 . S
C2111 C2109 1.327 . S
C2112 C2100 1.346 1_565 S
C2112 H2106 0.950 . S
C2112 C2113 1.327 . S
C2113 H2107 0.950 . S
C2113 C2112 1.327 . S
C2113 C2117 1.426 1_565 S
C2114 C2097 1.574 . S
C2114 H2108 0.949 . S
C2114 C2118 1.371 . S
C2115 C2096 1.427 1_545 S
C2115 C2109 1.431 . S
C2115 C2116 1.523 . S
C2116 C2097 1.371 . S
C2116 C2110 1.366 1_545 S
C2116 C2115 1.523 . S
C2117 C2101 1.431 . S
C2117 C2113 1.426 1_545 S
C2117 C2118 1.523 . S
C2118 C2102 1.366 1_545 S
C2118 C2114 1.371 . S
C2118 C2117 1.523 . S
H2119 C2094 0.950 . S
H2120 C2096 0.950 . S
H2121 C2097 0.949 . S
H2122 C2099 0.950 . S
H2123 C2101 0.950 . S
C2124 C2125 1.351 . S
C2124 C2126 1.327 . S
C2124 H2149 0.950 . S
C2125 C2124 1.351 . S
C2125 C2141 1.347 1_545 S
C2126 C2124 1.327 . S
C2126 C2145 1.430 . S
C2126 H2150 0.950 . S
C2127 C2144 1.574 . S
C2127 C2146 1.367 1_565 S
C2127 H2151 0.949 . S
H2128 C2132 0.949 . S
C2129 C2130 1.349 1_565 S
C2129 C2131 1.327 . S
C2129 H2152 0.950 . S
C2130 C2129 1.349 1_545 S
C2130 C2142 1.349 . S
C2131 C2129 1.327 . S
C2131 C2147 1.428 1_565 S
C2131 H2153 0.950 . S
C2132 H2128 0.949 . S
C2132 C2140 1.574 . S
C2132 C2148 1.369 . S
H2133 C2141 0.950 . S
H2134 C2139 0.950 . S
H2135 C2140 0.949 . S
H2136 C2142 0.950 . S
H2137 C2143 0.950 . S
H2138 C2144 0.949 . S
C2139 H2134 0.950 . S
C2139 C2141 1.327 . S
C2139 C2145 1.427 1_565 S
C2140 C2132 1.574 . S
C2140 H2135 0.949 . S
C2140 C2146 1.370 . S
C2141 C2125 1.347 1_565 S
C2141 H2133 0.950 . S
C2141 C2139 1.327 . S
C2142 C2130 1.349 . S
C2142 H2136 0.950 . S
C2142 C2143 1.327 . S
C2143 H2137 0.950 . S
C2143 C2142 1.327 . S
C2143 C2147 1.429 . S
C2144 C2127 1.574 . S
C2144 H2138 0.949 . S
C2144 C2148 1.367 1_565 S
C2145 C2126 1.430 . S
C2145 C2139 1.427 1_545 S
C2145 C2146 1.523 . S
C2146 C2127 1.367 1_545 S
C2146 C2140 1.370 . S
C2146 C2145 1.523 . S
C2147 C2131 1.428 1_545 S
C2147 C2143 1.429 . S
C2147 C2148 1.523 . S
C2148 C2132 1.369 . S
C2148 C2144 1.367 1_545 S
C2148 C2147 1.523 . S
H2149 C2124 0.950 . S
H2150 C2126 0.950 . S
H2151 C2127 0.949 . S
H2152 C2129 0.950 . S
H2153 C2131 0.950 . S
C2154 C2155 1.340 1_655 S
C2154 C2156 1.327 . S
C2154 H2179 0.950 . S
C2155 C2154 1.340 1_455 S
C2155 C2171 1.357 . S
C2156 C2154 1.327 . S
C2156 C2175 1.420 1_655 S
C2156 H2180 0.950 . S
C2157 C2174 1.574 . S
C2157 C2176 1.378 . S
C2157 H2181 0.949 . S
H2158 C2162 0.949 . S
C2159 C2160 1.359 . S
C2159 C2161 1.327 . S
C2159 H2182 0.950 . S
C2160 C2159 1.359 . S
C2160 C2172 1.339 1_455 S
C2161 C2159 1.327 . S
C2161 C2177 1.438 . S
C2161 H2183 0.950 . S
C2162 H2158 0.949 . S
C2162 C2170 1.574 . S
C2162 C2178 1.358 1_655 S
H2163 C2171 0.950 . S
H2164 C2169 0.950 . S
H2165 C2170 0.949 . S
H2166 C2172 0.950 . S
H2167 C2173 0.950 . S
H2168 C2174 0.949 . S
C2169 H2164 0.950 . S
C2169 C2171 1.327 . S
C2169 C2175 1.437 . S
C2170 C2162 1.574 . S
C2170 H2165 0.949 . S
C2170 C2176 1.359 1_655 S
C2171 C2155 1.357 . S
C2171 H2163 0.950 . S
C2171 C2169 1.327 . S
C2172 C2160 1.339 1_655 S
C2172 H2166 0.950 . S
C2172 C2173 1.327 . S
C2173 H2167 0.950 . S
C2173 C2172 1.327 . S
C2173 C2177 1.419 1_655 S
C2174 C2157 1.574 . S
C2174 H2168 0.949 . S
C2174 C2178 1.378 . S
C2175 C2156 1.420 1_455 S
C2175 C2169 1.437 . S
C2175 C2176 1.523 . S
C2176 C2157 1.378 . S
C2176 C2170 1.359 1_455 S
C2176 C2175 1.523 . S
C2177 C2161 1.438 . S
C2177 C2173 1.419 1_455 S
C2177 C2178 1.523 . S
C2178 C2162 1.358 1_455 S
C2178 C2174 1.378 . S
C2178 C2177 1.523 . S
H2179 C2154 0.950 . S
H2180 C2156 0.950 . S
H2181 C2157 0.949 . S
H2182 C2159 0.950 . S
H2183 C2161 0.950 . S
C2184 C2185 1.350 . S
C2184 C2186 1.327 . S
C2184 H2209 0.950 . S
C2185 C2184 1.350 . S
C2185 C2201 1.348 1_545 S
C2186 C2184 1.327 . S
C2186 C2205 1.429 . S
C2186 H2210 0.950 . S
C2187 C2204 1.574 . S
C2187 C2206 1.368 1_565 S
C2187 H2211 0.949 . S
H2188 C2192 0.949 . S
C2189 C2190 1.349 1_565 S
C2189 C2191 1.327 . S
C2189 H2212 0.950 . S
C2190 C2189 1.349 1_545 S
C2190 C2202 1.349 . S
C2191 C2189 1.327 . S
C2191 C2207 1.428 1_565 S
C2191 H2213 0.950 . S
C2192 H2188 0.949 . S
C2192 C2200 1.574 . S
C2192 C2208 1.369 . S
H2193 C2201 0.950 . S
H2194 C2199 0.950 . S
H2195 C2200 0.949 . S
H2196 C2202 0.950 . S
H2197 C2203 0.950 . S
H2198 C2204 0.949 . S
C2199 H2194 0.950 . S
C2199 C2201 1.327 . S
C2199 C2205 1.428 1_565 S
C2200 C2192 1.574 . S
C2200 H2195 0.949 . S
C2200 C2206 1.369 . S
C2201 C2185 1.348 1_565 S
C2201 H2193 0.950 . S
C2201 C2199 1.327 . S
C2202 C2190 1.349 . S
C2202 H2196 0.950 . S
C2202 C2203 1.327 . S
C2203 H2197 0.950 . S
C2203 C2202 1.327 . S
C2203 C2207 1.429 . S
C2204 C2187 1.574 . S
C2204 H2198 0.949 . S
C2204 C2208 1.368 1_565 S
C2205 C2186 1.429 . S
C2205 C2199 1.428 1_545 S
C2205 C2206 1.523 . S
C2206 C2187 1.368 1_545 S
C2206 C2200 1.369 . S
C2206 C2205 1.523 . S
C2207 C2191 1.428 1_545 S
C2207 C2203 1.429 . S
C2207 C2208 1.523 . S
C2208 C2192 1.369 . S
C2208 C2204 1.368 1_545 S
C2208 C2207 1.523 . S
H2209 C2184 0.950 . S
H2210 C2186 0.950 . S
H2211 C2187 0.949 . S
H2212 C2189 0.950 . S
H2213 C2191 0.950 . S
C2214 C2215 1.356 . S
C2214 C2216 1.327 . S
C2214 H2239 0.950 . S
C2215 C2214 1.356 . S
C2215 C2231 1.341 1_455 S
C2216 C2214 1.327 . S
C2216 C2235 1.436 . S
C2216 H2240 0.950 . S
C2217 C2234 1.574 . S
C2217 C2236 1.360 1_655 S
C2217 H2241 0.949 . S
H2218 C2222 0.949 . S
C2219 C2220 1.340 1_655 S
C2219 C2221 1.327 . S
C2219 H2242 0.950 . S
C2220 C2219 1.340 1_455 S
C2220 C2232 1.357 . S
C2221 C2219 1.327 . S
C2221 C2237 1.421 1_655 S
C2221 H2243 0.950 . S
C2222 H2218 0.949 . S
C2222 C2230 1.574 . S
C2222 C2238 1.377 . S
H2223 C2231 0.950 . S
H2224 C2229 0.950 . S
H2225 C2230 0.949 . S
H2226 C2232 0.950 . S
H2227 C2233 0.950 . S
H2228 C2234 0.949 . S
C2229 H2224 0.950 . S
C2229 C2231 1.327 . S
C2229 C2235 1.421 1_655 S
C2230 C2222 1.574 . S
C2230 H2225 0.949 . S
C2230 C2236 1.377 . S
C2231 C2215 1.341 1_655 S
C2231 H2223 0.950 . S
C2231 C2229 1.327 . S
C2232 C2220 1.357 . S
C2232 H2226 0.950 . S
C2232 C2233 1.327 . S
C2233 H2227 0.950 . S
C2233 C2232 1.327 . S
C2233 C2237 1.437 . S
C2234 C2217 1.574 . S
C2234 H2228 0.949 . S
C2234 C2238 1.360 1_655 S
C2235 C2216 1.436 . S
C2235 C2229 1.421 1_455 S
C2235 C2236 1.523 . S
C2236 C2217 1.360 1_455 S
C2236 C2230 1.377 . S
C2236 C2235 1.523 . S
C2237 C2221 1.421 1_455 S
C2237 C2233 1.437 . S
C2237 C2238 1.523 . S
C2238 C2222 1.377 . S
C2238 C2234 1.360 1_455 S
C2238 C2237 1.523 . S
H2239 C2214 0.950 . S
H2240 C2216 0.950 . S
H2241 C2217 0.949 . S
H2242 C2219 0.950 . S
H2243 C2221 0.950 . S
C2244 C2245 1.347 1_565 S
C2244 C2246 1.327 . S
C2244 H2269 0.950 . S
C2245 C2244 1.347 1_545 S
C2245 C2261 1.350 . S
C2246 C2244 1.327 . S
C2246 C2265 1.427 1_565 S
C2246 H2270 0.950 . S
C2247 C2264 1.574 . S
C2247 C2266 1.369 . S
C2247 H2271 0.949 . S
H2248 C2252 0.949 . S
C2249 C2250 1.349 . S
C2249 C2251 1.327 . S
C2249 H2272 0.950 . S
C2250 C2249 1.349 . S
C2250 C2262 1.349 1_545 S
C2251 C2249 1.327 . S
C2251 C2267 1.429 . S
C2251 H2273 0.950 . S
C2252 H2248 0.949 . S
C2252 C2260 1.574 . S
C2252 C2268 1.368 1_565 S
H2253 C2261 0.950 . S
H2254 C2259 0.950 . S
H2255 C2260 0.949 . S
H2256 C2262 0.950 . S
H2257 C2263 0.950 . S
H2258 C2264 0.949 . S
C2259 H2254 0.950 . S
C2259 C2261 1.327 . S
C2259 C2265 1.430 . S
C2260 C2252 1.574 . S
C2260 H2255 0.949 . S
C2260 C2266 1.367 1_565 S
C2261 C2245 1.350 . S
C2261 H2253 0.950 . S
C2261 C2259 1.327 . S
C2262 C2250 1.349 1_565 S
C2262 H2256 0.950 . S
C2262 C2263 1.327 . S
C2263 H2257 0.950 . S
C2263 C2262 1.327 . S
C2263 C2267 1.428 1_565 S
C2264 C2247 1.574 . S
C2264 H2258 0.949 . S
C2264 C2268 1.369 . S
C2265 C2246 1.427 1_545 S
C2265 C2259 1.430 . S
C2265 C2266 1.523 . S
C2266 C2247 1.369 . S
C2266 C2260 1.367 1_545 S
C2266 C2265 1.523 . S
C2267 C2251 1.429 . S
C2267 C2263 1.428 1_545 S
C2267 C2268 1.523 . S
C2268 C2252 1.368 1_545 S
C2268 C2264 1.369 . S
C2268 C2267 1.523 . S
H2269 C2244 0.950 . S
H2270 C2246 0.950 . S
H2271 C2247 0.949 . S
H2272 C2249 0.950 . S
H2273 C2251 0.950 . S
C2274 C2275 1.340 1_655 S
C2274 C2276 1.327 . S
C2274 H2299 0.950 . S
C2275 C2274 1.340 1_455 S
C2275 C2291 1.357 . S
C2276 C2274 1.327 . S
C2276 C2295 1.420 1_655 S
C2276 H2300 0.950 . S
C2277 C2294 1.574 . S
C2277 C2296 1.378 . S
C2277 H2301 0.949 . S
H2278 C2282 0.949 . S
C2279 C2280 1.359 . S
C2279 C2281 1.327 . S
C2279 H2302 0.950 . S
C2280 C2279 1.359 . S
C2280 C2292 1.339 1_455 S
C2281 C2279 1.327 . S
C2281 C2297 1.438 . S
C2281 H2303 0.950 . S
C2282 H2278 0.949 . S
C2282 C2290 1.574 . S
C2282 C2298 1.358 1_655 S
H2283 C2291 0.950 . S
H2284 C2289 0.950 . S
H2285 C2290 0.949 . S
H2286 C2292 0.950 . S
H2287 C2293 0.950 . S
H2288 C2294 0.949 . S
C2289 H2284 0.950 . S
C2289 C2291 1.327 . S
C2289 C2295 1.437 . S
C2290 C2282 1.574 . S
C2290 H2285 0.949 . S
C2290 C2296 1.359 1_655 S
C2291 C2275 1.357 . S
C2291 H2283 0.950 . S
C2291 C2289 1.327 . S
C2292 C2280 1.339 1_655 S
C2292 H2286 0.950 . S
C2292 C2293 1.327 . S
C2293 H2287 0.950 . S
C2293 C2292 1.327 . S
C2293 C2297 1.419 1_655 S
C2294 C2277 1.574 . S
C2294 H2288 0.949 . S
C2294 C2298 1.378 . S
C2295 C2276 1.420 1_455 S
C2295 C2289 1.437 . S
C2295 C2296 1.523 . S
C2296 C2277 1.378 . S
C2296 C2290 1.359 1_455 S
C2296 C2295 1.523 . S
C2297 C2281 1.438 . S
C2297 C2293 1.419 1_455 S
C2297 C2298 1.523 . S
C2298 C2282 1.358 1_455 S
C2298 C2294 1.378 . S
C2298 C2297 1.523 . S
H2299 C2274 0.950 . S
H2300 C2276 0.950 . S
H2301 C2277 0.949 . S
H2302 C2279 0.950 . S
H2303 C2281 0.950 . S
C2304 C2305 1.350 . S
C2304 C2306 1.327 . S
C2304 H2329 0.950 . S
C2305 C2304 1.350 . S
C2305 C2321 1.348 1_545 S
C2306 C2304 1.327 . S
C2306 C2325 1.429 . S
C2306 H2330 0.950 . S
C2307 C2324 1.574 . S
C2307 C2326 1.368 1_565 S
C2307 H2331 0.949 . S
H2308 C2312 0.949 . S
C2309 C2310 1.349 1_565 S
C2309 C2311 1.327 . S
C2309 H2332 0.950 . S
C2310 C2309 1.349 1_545 S
C2310 C2322 1.349 . S
C2311 C2309 1.327 . S
C2311 C2327 1.428 1_565 S
C2311 H2333 0.950 . S
C2312 H2308 0.949 . S
C2312 C2320 1.574 . S
C2312 C2328 1.369 . S
H2313 C2321 0.950 . S
H2314 C2319 0.950 . S
H2315 C2320 0.949 . S
H2316 C2322 0.950 . S
H2317 C2323 0.950 . S
H2318 C2324 0.949 . S
C2319 H2314 0.950 . S
C2319 C2321 1.327 . S
C2319 C2325 1.428 1_565 S
C2320 C2312 1.574 . S
C2320 H2315 0.949 . S
C2320 C2326 1.369 . S
C2321 C2305 1.348 1_565 S
C2321 H2313 0.950 . S
C2321 C2319 1.327 . S
C2322 C2310 1.349 . S
C2322 H2316 0.950 . S
C2322 C2323 1.327 . S
C2323 H2317 0.950 . S
C2323 C2322 1.327 . S
C2323 C2327 1.429 . S
C2324 C2307 1.574 . S
C2324 H2318 0.949 . S
C2324 C2328 1.368 1_565 S
C2325 C2306 1.429 . S
C2325 C2319 1.428 1_545 S
C2325 C2326 1.523 . S
C2326 C2307 1.368 1_545 S
C2326 C2320 1.369 . S
C2326 C2325 1.523 . S
C2327 C2311 1.428 1_545 S
C2327 C2323 1.429 . S
C2327 C2328 1.523 . S
C2328 C2312 1.369 . S
C2328 C2324 1.368 1_545 S
C2328 C2327 1.523 . S
H2329 C2304 0.950 . S
H2330 C2306 0.950 . S
H2331 C2307 0.949 . S
H2332 C2309 0.950 . S
H2333 C2311 0.950 . S
C2334 C2335 1.358 . S
C2334 C2336 1.327 . S
C2334 H2359 0.950 . S
C2335 C2334 1.358 . S
C2335 C2351 1.340 1_455 S
C2336 C2334 1.327 . S
C2336 C2355 1.437 . S
C2336 H2360 0.950 . S
C2337 C2354 1.574 . S
C2337 C2356 1.358 1_655 S
C2337 H2361 0.949 . S
H2338 C2342 0.949 . S
C2339 C2340 1.339 1_655 S
C2339 C2341 1.327 . S
C2339 H2362 0.950 . S
C2340 C2339 1.339 1_455 S
C2340 C2352 1.359 . S
C2341 C2339 1.327 . S
C2341 C2357 1.419 1_655 S
C2341 H2363 0.950 . S
C2342 H2338 0.949 . S
C2342 C2350 1.574 . S
C2342 C2358 1.378 . S
H2343 C2351 0.950 . S
H2344 C2349 0.950 . S
H2345 C2350 0.949 . S
H2346 C2352 0.950 . S
H2347 C2353 0.950 . S
H2348 C2354 0.949 . S
C2349 H2344 0.950 . S
C2349 C2351 1.327 . S
C2349 C2355 1.420 1_655 S
C2350 C2342 1.574 . S
C2350 H2345 0.949 . S
C2350 C2356 1.378 . S
C2351 C2335 1.340 1_655 S
C2351 H2343 0.950 . S
C2351 C2349 1.327 . S
C2352 C2340 1.359 . S
C2352 H2346 0.950 . S
C2352 C2353 1.327 . S
C2353 H2347 0.950 . S
C2353 C2352 1.327 . S
C2353 C2357 1.438 . S
C2354 C2337 1.574 . S
C2354 H2348 0.949 . S
C2354 C2358 1.358 1_655 S
C2355 C2336 1.437 . S
C2355 C2349 1.420 1_455 S
C2355 C2356 1.523 . S
C2356 C2337 1.358 1_455 S
C2356 C2350 1.378 . S
C2356 C2355 1.523 . S
C2357 C2341 1.419 1_455 S
C2357 C2353 1.438 . S
C2357 C2358 1.523 . S
C2358 C2342 1.378 . S
C2358 C2354 1.358 1_455 S
C2358 C2357 1.523 . S
H2359 C2334 0.950 . S
H2360 C2336 0.950 . S
H2361 C2337 0.949 . S
H2362 C2339 0.950 . S
H2363 C2341 0.950 . S
C2364 C2365 1.367 . S
C2364 C2366 1.327 . S
C2364 H2389 0.950 . S
C2365 C2364 1.367 . S
C2365 C2381 1.331 1_554 S
C2366 C2364 1.327 . S
C2366 C2385 1.445 . S
C2366 H2390 0.950 . S
C2367 C2384 1.574 . S
C2367 C2386 1.350 1_556 S
C2367 H2391 0.949 . S
H2368 C2372 0.949 . S
C2369 C2370 1.333 1_556 S
C2369 C2371 1.327 . S
C2369 H2392 0.950 . S
C2370 C2369 1.333 1_554 S
C2370 C2382 1.364 . S
C2371 C2369 1.327 . S
C2371 C2387 1.413 1_556 S
C2371 H2393 0.950 . S
C2372 H2368 0.949 . S
C2372 C2380 1.574 . S
C2372 C2388 1.386 . S
H2373 C2381 0.950 . S
H2374 C2379 0.950 . S
H2375 C2380 0.949 . S
H2376 C2382 0.950 . S
H2377 C2383 0.950 . S
H2378 C2384 0.949 . S
C2379 H2374 0.950 . S
C2379 C2381 1.327 . S
C2379 C2385 1.412 1_556 S
C2380 C2372 1.574 . S
C2380 H2375 0.949 . S
C2380 C2386 1.386 . S
C2381 C2365 1.331 1_556 S
C2381 H2373 0.950 . S
C2381 C2379 1.327 . S
C2382 C2370 1.364 . S
C2382 H2376 0.950 . S
C2382 C2383 1.327 . S
C2383 H2377 0.950 . S
C2383 C2382 1.327 . S
C2383 C2387 1.444 . S
C2384 C2367 1.574 . S
C2384 H2378 0.949 . S
C2384 C2388 1.351 1_556 S
C2385 C2366 1.445 . S
C2385 C2379 1.412 1_554 S
C2385 C2386 1.523 . S
C2386 C2367 1.350 1_554 S
C2386 C2380 1.386 . S
C2386 C2385 1.523 . S
C2387 C2371 1.413 1_554 S
C2387 C2383 1.444 . S
C2387 C2388 1.523 . S
C2388 C2372 1.386 . S
C2388 C2384 1.351 1_554 S
C2388 C2387 1.523 . S
H2389 C2364 0.950 . S
H2390 C2366 0.950 . S
H2391 C2367 0.949 . S
H2392 C2369 0.950 . S
H2393 C2371 0.950 . S
C2394 C2395 1.367 . S
C2394 C2396 1.327 . S
C2394 H2419 0.950 . S
C2395 C2394 1.367 . S
C2395 C2411 1.331 1_554 S
C2396 C2394 1.327 . S
C2396 C2415 1.445 . S
C2396 H2420 0.950 . S
C2397 C2414 1.574 . S
C2397 C2416 1.351 1_556 S
C2397 H2421 0.949 . S
H2398 C2402 0.949 . S
C2399 C2400 1.334 1_556 S
C2399 C2401 1.327 . S
C2399 H2422 0.950 . S
C2400 C2399 1.334 1_554 S
C2400 C2412 1.364 . S
C2401 C2399 1.327 . S
C2401 C2417 1.413 1_556 S
C2401 H2423 0.950 . S
C2402 H2398 0.949 . S
C2402 C2410 1.574 . S
C2402 C2418 1.386 . S
H2403 C2411 0.950 . S
H2404 C2409 0.950 . S
H2405 C2410 0.949 . S
H2406 C2412 0.950 . S
H2407 C2413 0.950 . S
H2408 C2414 0.949 . S
C2409 H2404 0.950 . S
C2409 C2411 1.327 . S
C2409 C2415 1.412 1_556 S
C2410 C2402 1.574 . S
C2410 H2405 0.949 . S
C2410 C2416 1.386 . S
C2411 C2395 1.331 1_556 S
C2411 H2403 0.950 . S
C2411 C2409 1.327 . S
C2412 C2400 1.364 . S
C2412 H2406 0.950 . S
C2412 C2413 1.327 . S
C2413 H2407 0.950 . S
C2413 C2412 1.327 . S
C2413 C2417 1.444 . S
C2414 C2397 1.574 . S
C2414 H2408 0.949 . S
C2414 C2418 1.351 1_556 S
C2415 C2396 1.445 . S
C2415 C2409 1.412 1_554 S
C2415 C2416 1.523 . S
C2416 C2397 1.351 1_554 S
C2416 C2410 1.386 . S
C2416 C2415 1.523 . S
C2417 C2401 1.413 1_554 S
C2417 C2413 1.444 . S
C2417 C2418 1.523 . S
C2418 C2402 1.386 . S
C2418 C2414 1.351 1_554 S
C2418 C2417 1.523 . S
H2419 C2394 0.950 . S
H2420 C2396 0.950 . S
H2421 C2397 0.949 . S
H2422 C2399 0.950 . S
H2423 C2401 0.950 . S
C2424 C2425 1.329 1_556 S
C2424 C2426 1.327 . S
C2424 H2449 0.950 . S
C2425 C2424 1.329 1_554 S
C2425 C2441 1.369 . S
C2426 C2424 1.327 . S
C2426 C2445 1.409 1_556 S
C2426 H2450 0.950 . S
C2427 C2444 1.574 . S
C2427 C2446 1.390 . S
C2427 H2451 0.949 . S
H2428 C2432 0.949 . S
C2429 C2430 1.371 . S
C2429 C2431 1.327 . S
C2429 H2452 0.950 . S
C2430 C2429 1.371 . S
C2430 C2442 1.327 1_554 S
C2431 C2429 1.327 . S
C2431 C2447 1.449 . S
C2431 H2453 0.950 . S
C2432 H2428 0.949 . S
C2432 C2440 1.574 . S
C2432 C2448 1.346 1_556 S
H2433 C2441 0.950 . S
H2434 C2439 0.950 . S
H2435 C2440 0.949 . S
H2436 C2442 0.950 . S
H2437 C2443 0.950 . S
H2438 C2444 0.949 . S
C2439 H2434 0.950 . S
C2439 C2441 1.327 . S
C2439 C2445 1.448 . S
C2440 C2432 1.574 . S
C2440 H2435 0.949 . S
C2440 C2446 1.347 1_556 S
C2441 C2425 1.369 . S
C2441 H2433 0.950 . S
C2441 C2439 1.327 . S
C2442 C2430 1.327 1_556 S
C2442 H2436 0.950 . S
C2442 C2443 1.327 . S
C2443 H2437 0.950 . S
C2443 C2442 1.327 . S
C2443 C2447 1.408 1_556 S
C2444 C2427 1.574 . S
C2444 H2438 0.949 . S
C2444 C2448 1.391 . S
C2445 C2426 1.409 1_554 S
C2445 C2439 1.448 . S
C2445 C2446 1.523 . S
C2446 C2427 1.390 . S
C2446 C2440 1.347 1_554 S
C2446 C2445 1.523 . S
C2447 C2431 1.449 . S
C2447 C2443 1.408 1_554 S
C2447 C2448 1.523 . S
C2448 C2432 1.346 1_554 S
C2448 C2444 1.391 . S
C2448 C2447 1.523 . S
H2449 C2424 0.950 . S
H2450 C2426 0.950 . S
H2451 C2427 0.949 . S
H2452 C2429 0.950 . S
H2453 C2431 0.950 . S
C2454 C2455 1.367 . S
C2454 C2456 1.327 . S
C2454 H2479 0.950 . S
C2455 C2454 1.367 . S
C2455 C2471 1.331 1_554 S
C2456 C2454 1.327 . S
C2456 C2475 1.445 . S
C2456 H2480 0.950 . S
C2457 C2474 1.574 . S
C2457 C2476 1.351 1_556 S
C2457 H2481 0.949 . S
H2458 C2462 0.949 . S
C2459 C2460 1.333 1_556 S
C2459 C2461 1.327 . S
C2459 H2482 0.950 . S
C2460 C2459 1.333 1_554 S
C2460 C2472 1.364 . S
C2461 C2459 1.327 . S
C2461 C2477 1.413 1_556 S
C2461 H2483 0.950 . S
C2462 H2458 0.949 . S
C2462 C2470 1.574 . S
C2462 C2478 1.386 . S
H2463 C2471 0.950 . S
H2464 C2469 0.950 . S
H2465 C2470 0.949 . S
H2466 C2472 0.950 . S
H2467 C2473 0.950 . S
H2468 C2474 0.949 . S
C2469 H2464 0.950 . S
C2469 C2471 1.327 . S
C2469 C2475 1.412 1_556 S
C2470 C2462 1.574 . S
C2470 H2465 0.949 . S
C2470 C2476 1.386 . S
C2471 C2455 1.331 1_556 S
C2471 H2463 0.950 . S
C2471 C2469 1.327 . S
C2472 C2460 1.364 . S
C2472 H2466 0.950 . S
C2472 C2473 1.327 . S
C2473 H2467 0.950 . S
C2473 C2472 1.327 . S
C2473 C2477 1.444 . S
C2474 C2457 1.574 . S
C2474 H2468 0.949 . S
C2474 C2478 1.351 1_556 S
C2475 C2456 1.445 . S
C2475 C2469 1.412 1_554 S
C2475 C2476 1.523 . S
C2476 C2457 1.351 1_554 S
C2476 C2470 1.386 . S
C2476 C2475 1.523 . S
C2477 C2461 1.413 1_554 S
C2477 C2473 1.444 . S
C2477 C2478 1.523 . S
C2478 C2462 1.386 . S
C2478 C2474 1.351 1_554 S
C2478 C2477 1.523 . S
H2479 C2454 0.950 . S
H2480 C2456 0.950 . S
H2481 C2457 0.949 . S
H2482 C2459 0.950 . S
H2483 C2461 0.950 . S
C2484 C2485 1.369 . S
C2484 C2486 1.327 . S
C2484 H2509 0.950 . S
C2485 C2484 1.369 . S
C2485 C2501 1.329 1_554 S
C2486 C2484 1.327 . S
C2486 C2505 1.448 . S
C2486 H2510 0.950 . S
C2487 C2504 1.574 . S
C2487 C2506 1.347 1_556 S
C2487 H2511 0.949 . S
H2488 C2492 0.949 . S
C2489 C2490 1.327 1_556 S
C2489 C2491 1.327 . S
C2489 H2512 0.950 . S
C2490 C2489 1.327 1_554 S
C2490 C2502 1.371 . S
C2491 C2489 1.327 . S
C2491 C2507 1.408 1_556 S
C2491 H2513 0.950 . S
C2492 H2488 0.949 . S
C2492 C2500 1.574 . S
C2492 C2508 1.391 . S
H2493 C2501 0.950 . S
H2494 C2499 0.950 . S
H2495 C2500 0.949 . S
H2496 C2502 0.950 . S
H2497 C2503 0.950 . S
H2498 C2504 0.949 . S
C2499 H2494 0.950 . S
C2499 C2501 1.327 . S
C2499 C2505 1.409 1_556 S
C2500 C2492 1.574 . S
C2500 H2495 0.949 . S
C2500 C2506 1.390 . S
C2501 C2485 1.329 1_556 S
C2501 H2493 0.950 . S
C2501 C2499 1.327 . S
C2502 C2490 1.371 . S
C2502 H2496 0.950 . S
C2502 C2503 1.327 . S
C2503 H2497 0.950 . S
C2503 C2502 1.327 . S
C2503 C2507 1.449 . S
C2504 C2487 1.574 . S
C2504 H2498 0.949 . S
C2504 C2508 1.346 1_556 S
C2505 C2486 1.448 . S
C2505 C2499 1.409 1_554 S
C2505 C2506 1.523 . S
C2506 C2487 1.347 1_554 S
C2506 C2500 1.390 . S
C2506 C2505 1.523 . S
C2507 C2491 1.408 1_554 S
C2507 C2503 1.449 . S
C2507 C2508 1.523 . S
C2508 C2492 1.391 . S
C2508 C2504 1.346 1_554 S
C2508 C2507 1.523 . S
H2509 C2484 0.950 . S
H2510 C2486 0.950 . S
H2511 C2487 0.949 . S
H2512 C2489 0.950 . S
H2513 C2491 0.950 . S
C2514 C2515 1.367 . S
C2514 C2516 1.327 . S
C2514 H2539 0.950 . S
C2515 C2514 1.367 . S
C2515 C2531 1.331 1_554 S
C2516 C2514 1.327 . S
C2516 C2535 1.445 . S
C2516 H2540 0.950 . S
C2517 C2534 1.574 . S
C2517 C2536 1.351 1_556 S
C2517 H2541 0.949 . S
H2518 C2522 0.949 . S
C2519 C2520 1.334 1_556 S
C2519 C2521 1.327 . S
C2519 H2542 0.950 . S
C2520 C2519 1.334 1_554 S
C2520 C2532 1.364 . S
C2521 C2519 1.327 . S
C2521 C2537 1.413 1_556 S
C2521 H2543 0.950 . S
C2522 H2518 0.949 . S
C2522 C2530 1.574 . S
C2522 C2538 1.386 . S
H2523 C2531 0.950 . S
H2524 C2529 0.950 . S
H2525 C2530 0.949 . S
H2526 C2532 0.950 . S
H2527 C2533 0.950 . S
H2528 C2534 0.949 . S
C2529 H2524 0.950 . S
C2529 C2531 1.327 . S
C2529 C2535 1.412 1_556 S
C2530 C2522 1.574 . S
C2530 H2525 0.949 . S
C2530 C2536 1.386 . S
C2531 C2515 1.331 1_556 S
C2531 H2523 0.950 . S
C2531 C2529 1.327 . S
C2532 C2520 1.364 . S
C2532 H2526 0.950 . S
C2532 C2533 1.327 . S
C2533 H2527 0.950 . S
C2533 C2532 1.327 . S
C2533 C2537 1.444 . S
C2534 C2517 1.574 . S
C2534 H2528 0.949 . S
C2534 C2538 1.351 1_556 S
C2535 C2516 1.445 . S
C2535 C2529 1.412 1_554 S
C2535 C2536 1.523 . S
C2536 C2517 1.351 1_554 S
C2536 C2530 1.386 . S
C2536 C2535 1.523 . S
C2537 C2521 1.413 1_554 S
C2537 C2533 1.444 . S
C2537 C2538 1.523 . S
C2538 C2522 1.386 . S
C2538 C2534 1.351 1_554 S
C2538 C2537 1.523 . S
H2539 C2514 0.950 . S
H2540 C2516 0.950 . S
H2541 C2517 0.949 . S
H2542 C2519 0.950 . S
H2543 C2521 0.950 . S
C2544 C2545 1.329 1_556 S
C2544 C2546 1.327 . S
C2544 H2569 0.950 . S
C2545 C2544 1.329 1_554 S
C2545 C2561 1.369 . S
C2546 C2544 1.327 . S
C2546 C2565 1.409 1_556 S
C2546 H2570 0.950 . S
C2547 C2564 1.574 . S
C2547 C2566 1.390 . S
C2547 H2571 0.949 . S
H2548 C2552 0.949 . S
C2549 C2550 1.371 . S
C2549 C2551 1.327 . S
C2549 H2572 0.950 . S
C2550 C2549 1.371 . S
C2550 C2562 1.327 1_554 S
C2551 C2549 1.327 . S
C2551 C2567 1.449 . S
C2551 H2573 0.950 . S
C2552 H2548 0.949 . S
C2552 C2560 1.574 . S
C2552 C2568 1.346 1_556 S
H2553 C2561 0.950 . S
H2554 C2559 0.950 . S
H2555 C2560 0.949 . S
H2556 C2562 0.950 . S
H2557 C2563 0.950 . S
H2558 C2564 0.949 . S
C2559 H2554 0.950 . S
C2559 C2561 1.327 . S
C2559 C2565 1.448 . S
C2560 C2552 1.574 . S
C2560 H2555 0.949 . S
C2560 C2566 1.347 1_556 S
C2561 C2545 1.369 . S
C2561 H2553 0.950 . S
C2561 C2559 1.327 . S
C2562 C2550 1.327 1_556 S
C2562 H2556 0.950 . S
C2562 C2563 1.327 . S
C2563 H2557 0.950 . S
C2563 C2562 1.327 . S
C2563 C2567 1.408 1_556 S
C2564 C2547 1.574 . S
C2564 H2558 0.949 . S
C2564 C2568 1.391 . S
C2565 C2546 1.409 1_554 S
C2565 C2559 1.448 . S
C2565 C2566 1.523 . S
C2566 C2547 1.390 . S
C2566 C2560 1.347 1_554 S
C2566 C2565 1.523 . S
C2567 C2551 1.449 . S
C2567 C2563 1.408 1_554 S
C2567 C2568 1.523 . S
C2568 C2552 1.346 1_554 S
C2568 C2564 1.391 . S
C2568 C2567 1.523 . S
H2569 C2544 0.950 . S
H2570 C2546 0.950 . S
H2571 C2547 0.949 . S
H2572 C2549 0.950 . S
H2573 C2551 0.950 . S
C2574 C2575 1.329 1_556 S
C2574 C2576 1.327 . S
C2574 H2599 0.950 . S
C2575 C2574 1.329 1_554 S
C2575 C2591 1.369 . S
C2576 C2574 1.327 . S
C2576 C2595 1.409 1_556 S
C2576 H2600 0.950 . S
C2577 C2594 1.574 . S
C2577 C2596 1.390 . S
C2577 H2601 0.949 . S
H2578 C2582 0.949 . S
C2579 C2580 1.371 . S
C2579 C2581 1.327 . S
C2579 H2602 0.950 . S
C2580 C2579 1.371 . S
C2580 C2592 1.327 1_554 S
C2581 C2579 1.327 . S
C2581 C2597 1.449 . S
C2581 H2603 0.950 . S
C2582 H2578 0.949 . S
C2582 C2590 1.574 . S
C2582 C2598 1.346 1_556 S
H2583 C2591 0.950 . S
H2584 C2589 0.950 . S
H2585 C2590 0.949 . S
H2586 C2592 0.950 . S
H2587 C2593 0.950 . S
H2588 C2594 0.949 . S
C2589 H2584 0.950 . S
C2589 C2591 1.327 . S
C2589 C2595 1.448 . S
C2590 C2582 1.574 . S
C2590 H2585 0.949 . S
C2590 C2596 1.347 1_556 S
C2591 C2575 1.369 . S
C2591 H2583 0.950 . S
C2591 C2589 1.327 . S
C2592 C2580 1.327 1_556 S
C2592 H2586 0.950 . S
C2592 C2593 1.327 . S
C2593 H2587 0.950 . S
C2593 C2592 1.327 . S
C2593 C2597 1.408 1_556 S
C2594 C2577 1.574 . S
C2594 H2588 0.949 . S
C2594 C2598 1.391 . S
C2595 C2576 1.409 1_554 S
C2595 C2589 1.448 . S
C2595 C2596 1.523 . S
C2596 C2577 1.390 . S
C2596 C2590 1.347 1_554 S
C2596 C2595 1.523 . S
C2597 C2581 1.449 . S
C2597 C2593 1.408 1_554 S
C2597 C2598 1.523 . S
C2598 C2582 1.346 1_554 S
C2598 C2594 1.391 . S
C2598 C2597 1.523 . S
H2599 C2574 0.950 . S
H2600 C2576 0.950 . S
H2601 C2577 0.949 . S
H2602 C2579 0.950 . S
H2603 C2581 0.950 . S
C2604 C2605 1.349 . S
C2604 C2606 1.327 . S
C2604 H2629 0.950 . S
C2605 C2604 1.349 . S
C2605 C2621 1.349 . S
C2606 C2604 1.327 . S
C2606 C2625 1.429 . S
C2606 H2630 0.950 . S
C2607 C2624 1.574 . S
C2607 C2626 1.368 . S
C2607 H2631 0.949 . S
H2608 C2612 0.949 . S
C2609 C2610 1.349 . S
C2609 C2611 1.327 . S
C2609 H2632 0.950 . S
C2610 C2609 1.349 . S
C2610 C2622 1.349 . S
C2611 C2609 1.327 . S
C2611 C2627 1.429 . S
C2611 H2633 0.950 . S
C2612 H2608 0.949 . S
C2612 C2620 1.574 . S
C2612 C2628 1.368 . S
H2613 C2621 0.950 . S
H2614 C2619 0.950 . S
H2615 C2620 0.949 . S
H2616 C2622 0.950 . S
H2617 C2623 0.950 . S
H2618 C2624 0.949 . S
C2619 H2614 0.950 . S
C2619 C2621 1.327 . S
C2619 C2625 1.429 . S
C2620 C2612 1.574 . S
C2620 H2615 0.949 . S
C2620 C2626 1.368 . S
C2621 C2605 1.349 . S
C2621 H2613 0.950 . S
C2621 C2619 1.327 . S
C2622 C2610 1.349 . S
C2622 H2616 0.950 . S
C2622 C2623 1.327 . S
C2623 H2617 0.950 . S
C2623 C2622 1.327 . S
C2623 C2627 1.429 . S
C2624 C2607 1.574 . S
C2624 H2618 0.949 . S
C2624 C2628 1.368 . S
C2625 C2606 1.429 . S
C2625 C2619 1.429 . S
C2625 C2626 1.523 . S
C2626 C2607 1.368 . S
C2626 C2620 1.368 . S
C2626 C2625 1.523 . S
C2627 C2611 1.429 . S
C2627 C2623 1.429 . S
C2627 C2628 1.523 . S
C2628 C2612 1.368 . S
C2628 C2624 1.368 . S
C2628 C2627 1.523 . S
H2629 C2604 0.950 . S
H2630 C2606 0.950 . S
H2631 C2607 0.949 . S
H2632 C2609 0.950 . S
H2633 C2611 0.950 . S
C2634 C2635 1.349 . S
C2634 C2636 1.327 . S
C2634 H2659 0.950 . S
C2635 C2634 1.349 . S
C2635 C2651 1.349 . S
C2636 C2634 1.327 . S
C2636 C2655 1.429 . S
C2636 H2660 0.950 . S
C2637 C2654 1.574 . S
C2637 C2656 1.368 . S
C2637 H2661 0.949 . S
H2638 C2642 0.949 . S
C2639 C2640 1.349 . S
C2639 C2641 1.327 . S
C2639 H2662 0.950 . S
C2640 C2639 1.349 . S
C2640 C2652 1.349 . S
C2641 C2639 1.327 . S
C2641 C2657 1.429 . S
C2641 H2663 0.950 . S
C2642 H2638 0.949 . S
C2642 C2650 1.574 . S
C2642 C2658 1.368 . S
H2643 C2651 0.950 . S
H2644 C2649 0.950 . S
H2645 C2650 0.949 . S
H2646 C2652 0.950 . S
H2647 C2653 0.950 . S
H2648 C2654 0.949 . S
C2649 H2644 0.950 . S
C2649 C2651 1.327 . S
C2649 C2655 1.429 . S
C2650 C2642 1.574 . S
C2650 H2645 0.949 . S
C2650 C2656 1.368 . S
C2651 C2635 1.349 . S
C2651 H2643 0.950 . S
C2651 C2649 1.327 . S
C2652 C2640 1.349 . S
C2652 H2646 0.950 . S
C2652 C2653 1.327 . S
C2653 H2647 0.950 . S
C2653 C2652 1.327 . S
C2653 C2657 1.429 . S
C2654 C2637 1.574 . S
C2654 H2648 0.949 . S
C2654 C2658 1.368 . S
C2655 C2636 1.429 . S
C2655 C2649 1.429 . S
C2655 C2656 1.523 . S
C2656 C2637 1.368 . S
C2656 C2650 1.368 . S
C2656 C2655 1.523 . S
C2657 C2641 1.429 . S
C2657 C2653 1.429 . S
C2657 C2658 1.523 . S
C2658 C2642 1.368 . S
C2658 C2654 1.368 . S
C2658 C2657 1.523 . S
H2659 C2634 0.950 . S
H2660 C2636 0.950 . S
H2661 C2637 0.949 . S
H2662 C2639 0.950 . S
H2663 C2641 0.950 . S
C2664 C2665 1.349 . S
C2664 C2666 1.327 . S
C2664 H2689 0.950 . S
C2665 C2664 1.349 . S
C2665 C2681 1.349 . S
C2666 C2664 1.327 . S
C2666 C2685 1.429 . S
C2666 H2690 0.950 . S
C2667 C2684 1.574 . S
C2667 C2686 1.368 . S
C2667 H2691 0.949 . S
H2668 C2672 0.949 . S
C2669 C2670 1.349 . S
C2669 C2671 1.327 . S
C2669 H2692 0.950 . S
C2670 C2669 1.349 . S
C2670 C2682 1.349 . S
C2671 C2669 1.327 . S
C2671 C2687 1.429 . S
C2671 H2693 0.950 . S
C2672 H2668 0.949 . S
C2672 C2680 1.574 . S
C2672 C2688 1.368 . S
H2673 C2681 0.950 . S
H2674 C2679 0.950 . S
H2675 C2680 0.949 . S
H2676 C2682 0.950 . S
H2677 C2683 0.950 . S
H2678 C2684 0.949 . S
C2679 H2674 0.950 . S
C2679 C2681 1.327 . S
C2679 C2685 1.429 . S
C2680 C2672 1.574 . S
C2680 H2675 0.949 . S
C2680 C2686 1.368 . S
C2681 C2665 1.349 . S
C2681 H2673 0.950 . S
C2681 C2679 1.327 . S
C2682 C2670 1.349 . S
C2682 H2676 0.950 . S
C2682 C2683 1.327 . S
C2683 H2677 0.950 . S
C2683 C2682 1.327 . S
C2683 C2687 1.429 . S
C2684 C2667 1.574 . S
C2684 H2678 0.949 . S
C2684 C2688 1.368 . S
C2685 C2666 1.429 . S
C2685 C2679 1.429 . S
C2685 C2686 1.523 . S
C2686 C2667 1.368 . S
C2686 C2680 1.368 . S
C2686 C2685 1.523 . S
C2687 C2671 1.429 . S
C2687 C2683 1.429 . S
C2687 C2688 1.523 . S
C2688 C2672 1.368 . S
C2688 C2684 1.368 . S
C2688 C2687 1.523 . S
H2689 C2664 0.950 . S
H2690 C2666 0.950 . S
H2691 C2667 0.949 . S
H2692 C2669 0.950 . S
H2693 C2671 0.950 . S
C2694 C2695 1.349 . S
C2694 C2696 1.327 . S
C2694 H2719 0.950 . S
C2695 C2694 1.349 . S
C2695 C2711 1.349 . S
C2696 C2694 1.327 . S
C2696 C2715 1.429 . S
C2696 H2720 0.950 . S
C2697 C2714 1.574 . S
C2697 C2716 1.368 . S
C2697 H2721 0.949 . S
H2698 C2702 0.949 . S
C2699 C2700 1.349 . S
C2699 C2701 1.327 . S
C2699 H2722 0.950 . S
C2700 C2699 1.349 . S
C2700 C2712 1.349 . S
C2701 C2699 1.327 . S
C2701 C2717 1.429 . S
C2701 H2723 0.950 . S
C2702 H2698 0.949 . S
C2702 C2710 1.574 . S
C2702 C2718 1.368 . S
H2703 C2711 0.950 . S
H2704 C2709 0.950 . S
H2705 C2710 0.949 . S
H2706 C2712 0.950 . S
H2707 C2713 0.950 . S
H2708 C2714 0.949 . S
C2709 H2704 0.950 . S
C2709 C2711 1.327 . S
C2709 C2715 1.429 . S
C2710 C2702 1.574 . S
C2710 H2705 0.949 . S
C2710 C2716 1.368 . S
C2711 C2695 1.349 . S
C2711 H2703 0.950 . S
C2711 C2709 1.327 . S
C2712 C2700 1.349 . S
C2712 H2706 0.950 . S
C2712 C2713 1.327 . S
C2713 H2707 0.950 . S
C2713 C2712 1.327 . S
C2713 C2717 1.429 . S
C2714 C2697 1.574 . S
C2714 H2708 0.949 . S
C2714 C2718 1.368 . S
C2715 C2696 1.429 . S
C2715 C2709 1.429 . S
C2715 C2716 1.523 . S
C2716 C2697 1.368 . S
C2716 C2710 1.368 . S
C2716 C2715 1.523 . S
C2717 C2701 1.429 . S
C2717 C2713 1.429 . S
C2717 C2718 1.523 . S
C2718 C2702 1.368 . S
C2718 C2714 1.368 . S
C2718 C2717 1.523 . S
H2719 C2694 0.950 . S
H2720 C2696 0.950 . S
H2721 C2697 0.949 . S
H2722 C2699 0.950 . S
H2723 C2701 0.950 . S
C2724 C2725 1.349 . S
C2724 C2726 1.327 . S
C2724 H2749 0.950 . S
C2725 C2724 1.349 . S
C2725 C2741 1.349 . S
C2726 C2724 1.327 . S
C2726 C2745 1.429 . S
C2726 H2750 0.950 . S
C2727 C2744 1.574 . S
C2727 C2746 1.368 . S
C2727 H2751 0.949 . S
H2728 C2732 0.949 . S
C2729 C2730 1.349 . S
C2729 C2731 1.327 . S
C2729 H2752 0.950 . S
C2730 C2729 1.349 . S
C2730 C2742 1.349 . S
C2731 C2729 1.327 . S
C2731 C2747 1.429 . S
C2731 H2753 0.950 . S
C2732 H2728 0.949 . S
C2732 C2740 1.574 . S
C2732 C2748 1.368 . S
H2733 C2741 0.950 . S
H2734 C2739 0.950 . S
H2735 C2740 0.949 . S
H2736 C2742 0.950 . S
H2737 C2743 0.950 . S
H2738 C2744 0.949 . S
C2739 H2734 0.950 . S
C2739 C2741 1.327 . S
C2739 C2745 1.429 . S
C2740 C2732 1.574 . S
C2740 H2735 0.949 . S
C2740 C2746 1.368 . S
C2741 C2725 1.349 . S
C2741 H2733 0.950 . S
C2741 C2739 1.327 . S
C2742 C2730 1.349 . S
C2742 H2736 0.950 . S
C2742 C2743 1.327 . S
C2743 H2737 0.950 . S
C2743 C2742 1.327 . S
C2743 C2747 1.429 . S
C2744 C2727 1.574 . S
C2744 H2738 0.949 . S
C2744 C2748 1.368 . S
C2745 C2726 1.429 . S
C2745 C2739 1.429 . S
C2745 C2746 1.523 . S
C2746 C2727 1.368 . S
C2746 C2740 1.368 . S
C2746 C2745 1.523 . S
C2747 C2731 1.429 . S
C2747 C2743 1.429 . S
C2747 C2748 1.523 . S
C2748 C2732 1.368 . S
C2748 C2744 1.368 . S
C2748 C2747 1.523 . S
H2749 C2724 0.950 . S
H2750 C2726 0.950 . S
H2751 C2727 0.949 . S
H2752 C2729 0.950 . S
H2753 C2731 0.950 . S
C2754 C2755 1.349 . S
C2754 C2756 1.327 . S
C2754 H2779 0.950 . S
C2755 C2754 1.349 . S
C2755 C2771 1.349 . S
C2756 C2754 1.327 . S
C2756 C2775 1.429 . S
C2756 H2780 0.950 . S
C2757 C2774 1.574 . S
C2757 C2776 1.368 . S
C2757 H2781 0.949 . S
H2758 C2762 0.949 . S
C2759 C2760 1.349 . S
C2759 C2761 1.327 . S
C2759 H2782 0.950 . S
C2760 C2759 1.349 . S
C2760 C2772 1.349 . S
C2761 C2759 1.327 . S
C2761 C2777 1.429 . S
C2761 H2783 0.950 . S
C2762 H2758 0.949 . S
C2762 C2770 1.574 . S
C2762 C2778 1.368 . S
H2763 C2771 0.950 . S
H2764 C2769 0.950 . S
H2765 C2770 0.949 . S
H2766 C2772 0.950 . S
H2767 C2773 0.950 . S
H2768 C2774 0.949 . S
C2769 H2764 0.950 . S
C2769 C2771 1.327 . S
C2769 C2775 1.429 . S
C2770 C2762 1.574 . S
C2770 H2765 0.949 . S
C2770 C2776 1.368 . S
C2771 C2755 1.349 . S
C2771 H2763 0.950 . S
C2771 C2769 1.327 . S
C2772 C2760 1.349 . S
C2772 H2766 0.950 . S
C2772 C2773 1.327 . S
C2773 H2767 0.950 . S
C2773 C2772 1.327 . S
C2773 C2777 1.429 . S
C2774 C2757 1.574 . S
C2774 H2768 0.949 . S
C2774 C2778 1.368 . S
C2775 C2756 1.429 . S
C2775 C2769 1.429 . S
C2775 C2776 1.523 . S
C2776 C2757 1.368 . S
C2776 C2770 1.368 . S
C2776 C2775 1.523 . S
C2777 C2761 1.429 . S
C2777 C2773 1.429 . S
C2777 C2778 1.523 . S
C2778 C2762 1.368 . S
C2778 C2774 1.368 . S
C2778 C2777 1.523 . S
H2779 C2754 0.950 . S
H2780 C2756 0.950 . S
H2781 C2757 0.949 . S
H2782 C2759 0.950 . S
H2783 C2761 0.950 . S
C2784 C2785 1.349 . S
C2784 C2786 1.327 . S
C2784 H2809 0.950 . S
C2785 C2784 1.349 . S
C2785 C2801 1.349 . S
C2786 C2784 1.327 . S
C2786 C2805 1.429 . S
C2786 H2810 0.950 . S
C2787 C2804 1.574 . S
C2787 C2806 1.368 . S
C2787 H2811 0.949 . S
H2788 C2792 0.949 . S
C2789 C2790 1.349 . S
C2789 C2791 1.327 . S
C2789 H2812 0.950 . S
C2790 C2789 1.349 . S
C2790 C2802 1.349 . S
C2791 C2789 1.327 . S
C2791 C2807 1.429 . S
C2791 H2813 0.950 . S
C2792 H2788 0.949 . S
C2792 C2800 1.574 . S
C2792 C2808 1.368 . S
H2793 C2801 0.950 . S
H2794 C2799 0.950 . S
H2795 C2800 0.949 . S
H2796 C2802 0.950 . S
H2797 C2803 0.950 . S
H2798 C2804 0.949 . S
C2799 H2794 0.950 . S
C2799 C2801 1.327 . S
C2799 C2805 1.429 . S
C2800 C2792 1.574 . S
C2800 H2795 0.949 . S
C2800 C2806 1.368 . S
C2801 C2785 1.349 . S
C2801 H2793 0.950 . S
C2801 C2799 1.327 . S
C2802 C2790 1.349 . S
C2802 H2796 0.950 . S
C2802 C2803 1.327 . S
C2803 H2797 0.950 . S
C2803 C2802 1.327 . S
C2803 C2807 1.429 . S
C2804 C2787 1.574 . S
C2804 H2798 0.949 . S
C2804 C2808 1.368 . S
C2805 C2786 1.429 . S
C2805 C2799 1.429 . S
C2805 C2806 1.523 . S
C2806 C2787 1.368 . S
C2806 C2800 1.368 . S
C2806 C2805 1.523 . S
C2807 C2791 1.429 . S
C2807 C2803 1.429 . S
C2807 C2808 1.523 . S
C2808 C2792 1.368 . S
C2808 C2804 1.368 . S
C2808 C2807 1.523 . S
H2809 C2784 0.950 . S
H2810 C2786 0.950 . S
H2811 C2787 0.949 . S
H2812 C2789 0.950 . S
H2813 C2791 0.950 . S
C2814 C2815 1.349 . S
C2814 C2816 1.327 . S
C2814 H2839 0.950 . S
C2815 C2814 1.349 . S
C2815 C2831 1.349 . S
C2816 C2814 1.327 . S
C2816 C2835 1.429 . S
C2816 H2840 0.950 . S
C2817 C2834 1.574 . S
C2817 C2836 1.368 . S
C2817 H2841 0.949 . S
H2818 C2822 0.949 . S
C2819 C2820 1.349 . S
C2819 C2821 1.327 . S
C2819 H2842 0.950 . S
C2820 C2819 1.349 . S
C2820 C2832 1.349 . S
C2821 C2819 1.327 . S
C2821 C2837 1.429 . S
C2821 H2843 0.950 . S
C2822 H2818 0.949 . S
C2822 C2830 1.574 . S
C2822 C2838 1.368 . S
H2823 C2831 0.950 . S
H2824 C2829 0.950 . S
H2825 C2830 0.949 . S
H2826 C2832 0.950 . S
H2827 C2833 0.950 . S
H2828 C2834 0.949 . S
C2829 H2824 0.950 . S
C2829 C2831 1.327 . S
C2829 C2835 1.429 . S
C2830 C2822 1.574 . S
C2830 H2825 0.949 . S
C2830 C2836 1.368 . S
C2831 C2815 1.349 . S
C2831 H2823 0.950 . S
C2831 C2829 1.327 . S
C2832 C2820 1.349 . S
C2832 H2826 0.950 . S
C2832 C2833 1.327 . S
C2833 H2827 0.950 . S
C2833 C2832 1.327 . S
C2833 C2837 1.429 . S
C2834 C2817 1.574 . S
C2834 H2828 0.949 . S
C2834 C2838 1.368 . S
C2835 C2816 1.429 . S
C2835 C2829 1.429 . S
C2835 C2836 1.523 . S
C2836 C2817 1.368 . S
C2836 C2830 1.368 . S
C2836 C2835 1.523 . S
C2837 C2821 1.429 . S
C2837 C2833 1.429 . S
C2837 C2838 1.523 . S
C2838 C2822 1.368 . S
C2838 C2834 1.368 . S
C2838 C2837 1.523 . S
H2839 C2814 0.950 . S
H2840 C2816 0.950 . S
H2841 C2817 0.949 . S
H2842 C2819 0.950 . S
H2843 C2821 0.950 . S
C2844 C2845 1.349 . S
C2844 C2846 1.327 . S
C2844 H2869 0.950 . S
C2845 C2844 1.349 . S
C2845 C2861 1.349 . S
C2846 C2844 1.327 . S
C2846 C2865 1.429 . S
C2846 H2870 0.950 . S
C2847 C2864 1.574 . S
C2847 C2866 1.368 . S
C2847 H2871 0.949 . S
H2848 C2852 0.949 . S
C2849 C2850 1.349 . S
C2849 C2851 1.327 . S
C2849 H2872 0.950 . S
C2850 C2849 1.349 . S
C2850 C2862 1.349 . S
C2851 C2849 1.327 . S
C2851 C2867 1.429 . S
C2851 H2873 0.950 . S
C2852 H2848 0.949 . S
C2852 C2860 1.574 . S
C2852 C2868 1.368 . S
H2853 C2861 0.950 . S
H2854 C2859 0.950 . S
H2855 C2860 0.949 . S
H2856 C2862 0.950 . S
H2857 C2863 0.950 . S
H2858 C2864 0.949 . S
C2859 H2854 0.950 . S
C2859 C2861 1.327 . S
C2859 C2865 1.429 . S
C2860 C2852 1.574 . S
C2860 H2855 0.949 . S
C2860 C2866 1.368 . S
C2861 C2845 1.349 . S
C2861 H2853 0.950 . S
C2861 C2859 1.327 . S
C2862 C2850 1.349 . S
C2862 H2856 0.950 . S
C2862 C2863 1.327 . S
C2863 H2857 0.950 . S
C2863 C2862 1.327 . S
C2863 C2867 1.429 . S
C2864 C2847 1.574 . S
C2864 H2858 0.949 . S
C2864 C2868 1.368 . S
C2865 C2846 1.429 . S
C2865 C2859 1.429 . S
C2865 C2866 1.523 . S
C2866 C2847 1.368 . S
C2866 C2860 1.368 . S
C2866 C2865 1.523 . S
C2867 C2851 1.429 . S
C2867 C2863 1.429 . S
C2867 C2868 1.523 . S
C2868 C2852 1.368 . S
C2868 C2864 1.368 . S
C2868 C2867 1.523 . S
H2869 C2844 0.950 . S
H2870 C2846 0.950 . S
H2871 C2847 0.949 . S
H2872 C2849 0.950 . S
H2873 C2851 0.950 . S
C2874 C2875 1.349 . S
C2874 C2876 1.327 . S
C2874 H2899 0.950 . S
C2875 C2874 1.349 . S
C2875 C2891 1.349 . S
C2876 C2874 1.327 . S
C2876 C2895 1.429 . S
C2876 H2900 0.950 . S
C2877 C2894 1.574 . S
C2877 C2896 1.368 . S
C2877 H2901 0.949 . S
H2878 C2882 0.949 . S
C2879 C2880 1.349 . S
C2879 C2881 1.327 . S
C2879 H2902 0.950 . S
C2880 C2879 1.349 . S
C2880 C2892 1.349 . S
C2881 C2879 1.327 . S
C2881 C2897 1.429 . S
C2881 H2903 0.950 . S
C2882 H2878 0.949 . S
C2882 C2890 1.574 . S
C2882 C2898 1.368 . S
H2883 C2891 0.950 . S
H2884 C2889 0.950 . S
H2885 C2890 0.949 . S
H2886 C2892 0.950 . S
H2887 C2893 0.950 . S
H2888 C2894 0.949 . S
C2889 H2884 0.950 . S
C2889 C2891 1.327 . S
C2889 C2895 1.429 . S
C2890 C2882 1.574 . S
C2890 H2885 0.949 . S
C2890 C2896 1.368 . S
C2891 C2875 1.349 . S
C2891 H2883 0.950 . S
C2891 C2889 1.327 . S
C2892 C2880 1.349 . S
C2892 H2886 0.950 . S
C2892 C2893 1.327 . S
C2893 H2887 0.950 . S
C2893 C2892 1.327 . S
C2893 C2897 1.429 . S
C2894 C2877 1.574 . S
C2894 H2888 0.949 . S
C2894 C2898 1.368 . S
C2895 C2876 1.429 . S
C2895 C2889 1.429 . S
C2895 C2896 1.523 . S
C2896 C2877 1.368 . S
C2896 C2890 1.368 . S
C2896 C2895 1.523 . S
C2897 C2881 1.429 . S
C2897 C2893 1.429 . S
C2897 C2898 1.523 . S
C2898 C2882 1.368 . S
C2898 C2894 1.368 . S
C2898 C2897 1.523 . S
H2899 C2874 0.950 . S
H2900 C2876 0.950 . S
H2901 C2877 0.949 . S
H2902 C2879 0.950 . S
H2903 C2881 0.950 . S
C2904 C2905 1.349 . S
C2904 C2906 1.327 . S
C2904 H2929 0.950 . S
C2905 C2904 1.349 . S
C2905 C2921 1.349 . S
C2906 C2904 1.327 . S
C2906 C2925 1.429 . S
C2906 H2930 0.950 . S
C2907 C2924 1.574 . S
C2907 C2926 1.368 . S
C2907 H2931 0.949 . S
H2908 C2912 0.949 . S
C2909 C2910 1.349 . S
C2909 C2911 1.327 . S
C2909 H2932 0.950 . S
C2910 C2909 1.349 . S
C2910 C2922 1.349 . S
C2911 C2909 1.327 . S
C2911 C2927 1.429 . S
C2911 H2933 0.950 . S
C2912 H2908 0.949 . S
C2912 C2920 1.574 . S
C2912 C2928 1.368 . S
H2913 C2921 0.950 . S
H2914 C2919 0.950 . S
H2915 C2920 0.949 . S
H2916 C2922 0.950 . S
H2917 C2923 0.950 . S
H2918 C2924 0.949 . S
C2919 H2914 0.950 . S
C2919 C2921 1.327 . S
C2919 C2925 1.429 . S
C2920 C2912 1.574 . S
C2920 H2915 0.949 . S
C2920 C2926 1.368 . S
C2921 C2905 1.349 . S
C2921 H2913 0.950 . S
C2921 C2919 1.327 . S
C2922 C2910 1.349 . S
C2922 H2916 0.950 . S
C2922 C2923 1.327 . S
C2923 H2917 0.950 . S
C2923 C2922 1.327 . S
C2923 C2927 1.429 . S
C2924 C2907 1.574 . S
C2924 H2918 0.949 . S
C2924 C2928 1.368 . S
C2925 C2906 1.429 . S
C2925 C2919 1.429 . S
C2925 C2926 1.523 . S
C2926 C2907 1.368 . S
C2926 C2920 1.368 . S
C2926 C2925 1.523 . S
C2927 C2911 1.429 . S
C2927 C2923 1.429 . S
C2927 C2928 1.523 . S
C2928 C2912 1.368 . S
C2928 C2924 1.368 . S
C2928 C2927 1.523 . S
H2929 C2904 0.950 . S
H2930 C2906 0.950 . S
H2931 C2907 0.949 . S
H2932 C2909 0.950 . S
H2933 C2911 0.950 . S
C2934 C2935 1.349 . S
C2934 C2936 1.327 . S
C2934 H2959 0.950 . S
C2935 C2934 1.349 . S
C2935 C2951 1.349 . S
C2936 C2934 1.327 . S
C2936 C2955 1.429 . S
C2936 H2960 0.950 . S
C2937 C2954 1.574 . S
C2937 C2956 1.368 . S
C2937 H2961 0.949 . S
H2938 C2942 0.949 . S
C2939 C2940 1.349 . S
C2939 C2941 1.327 . S
C2939 H2962 0.950 . S
C2940 C2939 1.349 . S
C2940 C2952 1.349 . S
C2941 C2939 1.327 . S
C2941 C2957 1.429 . S
C2941 H2963 0.950 . S
C2942 H2938 0.949 . S
C2942 C2950 1.574 . S
C2942 C2958 1.368 . S
H2943 C2951 0.950 . S
H2944 C2949 0.950 . S
H2945 C2950 0.949 . S
H2946 C2952 0.950 . S
H2947 C2953 0.950 . S
H2948 C2954 0.949 . S
C2949 H2944 0.950 . S
C2949 C2951 1.327 . S
C2949 C2955 1.429 . S
C2950 C2942 1.574 . S
C2950 H2945 0.949 . S
C2950 C2956 1.368 . S
C2951 C2935 1.349 . S
C2951 H2943 0.950 . S
C2951 C2949 1.327 . S
C2952 C2940 1.349 . S
C2952 H2946 0.950 . S
C2952 C2953 1.327 . S
C2953 H2947 0.950 . S
C2953 C2952 1.327 . S
C2953 C2957 1.429 . S
C2954 C2937 1.574 . S
C2954 H2948 0.949 . S
C2954 C2958 1.368 . S
C2955 C2936 1.429 . S
C2955 C2949 1.429 . S
C2955 C2956 1.523 . S
C2956 C2937 1.368 . S
C2956 C2950 1.368 . S
C2956 C2955 1.523 . S
C2957 C2941 1.429 . S
C2957 C2953 1.429 . S
C2957 C2958 1.523 . S
C2958 C2942 1.368 . S
C2958 C2954 1.368 . S
C2958 C2957 1.523 . S
H2959 C2934 0.950 . S
H2960 C2936 0.950 . S
H2961 C2937 0.949 . S
H2962 C2939 0.950 . S
H2963 C2941 0.950 . S
C2964 C2965 1.349 . S
C2964 C2966 1.327 . S
C2964 H2989 0.950 . S
C2965 C2964 1.349 . S
C2965 C2981 1.349 . S
C2966 C2964 1.327 . S
C2966 C2985 1.429 . S
C2966 H2990 0.950 . S
C2967 C2984 1.574 . S
C2967 C2986 1.368 . S
C2967 H2991 0.949 . S
H2968 C2972 0.949 . S
C2969 C2970 1.349 . S
C2969 C2971 1.327 . S
C2969 H2992 0.950 . S
C2970 C2969 1.349 . S
C2970 C2982 1.349 . S
C2971 C2969 1.327 . S
C2971 C2987 1.429 . S
C2971 H2993 0.950 . S
C2972 H2968 0.949 . S
C2972 C2980 1.574 . S
C2972 C2988 1.368 . S
H2973 C2981 0.950 . S
H2974 C2979 0.950 . S
H2975 C2980 0.949 . S
H2976 C2982 0.950 . S
H2977 C2983 0.950 . S
H2978 C2984 0.949 . S
C2979 H2974 0.950 . S
C2979 C2981 1.327 . S
C2979 C2985 1.429 . S
C2980 C2972 1.574 . S
C2980 H2975 0.949 . S
C2980 C2986 1.368 . S
C2981 C2965 1.349 . S
C2981 H2973 0.950 . S
C2981 C2979 1.327 . S
C2982 C2970 1.349 . S
C2982 H2976 0.950 . S
C2982 C2983 1.327 . S
C2983 H2977 0.950 . S
C2983 C2982 1.327 . S
C2983 C2987 1.429 . S
C2984 C2967 1.574 . S
C2984 H2978 0.949 . S
C2984 C2988 1.368 . S
C2985 C2966 1.429 . S
C2985 C2979 1.429 . S
C2985 C2986 1.523 . S
C2986 C2967 1.368 . S
C2986 C2980 1.368 . S
C2986 C2985 1.523 . S
C2987 C2971 1.429 . S
C2987 C2983 1.429 . S
C2987 C2988 1.523 . S
C2988 C2972 1.368 . S
C2988 C2984 1.368 . S
C2988 C2987 1.523 . S
H2989 C2964 0.950 . S
H2990 C2966 0.950 . S
H2991 C2967 0.949 . S
H2992 C2969 0.950 . S
H2993 C2971 0.950 . S
C2994 C2995 1.349 . S
C2994 C2996 1.327 . S
C2994 H3019 0.950 . S
C2995 C2994 1.349 . S
C2995 C3011 1.349 . S
C2996 C2994 1.327 . S
C2996 C3015 1.429 . S
C2996 H3020 0.950 . S
C2997 C3014 1.574 . S
C2997 C3016 1.368 . S
C2997 H3021 0.949 . S
H2998 C3002 0.949 . S
C2999 C3000 1.349 . S
C2999 C3001 1.327 . S
C2999 H3022 0.950 . S
C3000 C2999 1.349 . S
C3000 C3012 1.349 . S
C3001 C2999 1.327 . S
C3001 C3017 1.429 . S
C3001 H3023 0.950 . S
C3002 H2998 0.949 . S
C3002 C3010 1.574 . S
C3002 C3018 1.368 . S
H3003 C3011 0.950 . S
H3004 C3009 0.950 . S
H3005 C3010 0.949 . S
H3006 C3012 0.950 . S
H3007 C3013 0.950 . S
H3008 C3014 0.949 . S
C3009 H3004 0.950 . S
C3009 C3011 1.327 . S
C3009 C3015 1.429 . S
C3010 C3002 1.574 . S
C3010 H3005 0.949 . S
C3010 C3016 1.368 . S
C3011 C2995 1.349 . S
C3011 H3003 0.950 . S
C3011 C3009 1.327 . S
C3012 C3000 1.349 . S
C3012 H3006 0.950 . S
C3012 C3013 1.327 . S
C3013 H3007 0.950 . S
C3013 C3012 1.327 . S
C3013 C3017 1.429 . S
C3014 C2997 1.574 . S
C3014 H3008 0.949 . S
C3014 C3018 1.368 . S
C3015 C2996 1.429 . S
C3015 C3009 1.429 . S
C3015 C3016 1.523 . S
C3016 C2997 1.368 . S
C3016 C3010 1.368 . S
C3016 C3015 1.523 . S
C3017 C3001 1.429 . S
C3017 C3013 1.429 . S
C3017 C3018 1.523 . S
C3018 C3002 1.368 . S
C3018 C3014 1.368 . S
C3018 C3017 1.523 . S
H3019 C2994 0.950 . S
H3020 C2996 0.950 . S
H3021 C2997 0.949 . S
H3022 C2999 0.950 . S
H3023 C3001 0.950 . S
C3024 C3025 1.349 . S
C3024 C3026 1.327 . S
C3024 H3049 0.950 . S
C3025 C3024 1.349 . S
C3025 C3041 1.349 . S
C3026 C3024 1.327 . S
C3026 C3045 1.429 . S
C3026 H3050 0.950 . S
C3027 C3044 1.574 . S
C3027 C3046 1.368 . S
C3027 H3051 0.949 . S
H3028 C3032 0.949 . S
C3029 C3030 1.349 . S
C3029 C3031 1.327 . S
C3029 H3052 0.950 . S
C3030 C3029 1.349 . S
C3030 C3042 1.349 . S
C3031 C3029 1.327 . S
C3031 C3047 1.429 . S
C3031 H3053 0.950 . S
C3032 H3028 0.949 . S
C3032 C3040 1.574 . S
C3032 C3048 1.368 . S
H3033 C3041 0.950 . S
H3034 C3039 0.950 . S
H3035 C3040 0.949 . S
H3036 C3042 0.950 . S
H3037 C3043 0.950 . S
H3038 C3044 0.949 . S
C3039 H3034 0.950 . S
C3039 C3041 1.327 . S
C3039 C3045 1.429 . S
C3040 C3032 1.574 . S
C3040 H3035 0.949 . S
C3040 C3046 1.368 . S
C3041 C3025 1.349 . S
C3041 H3033 0.950 . S
C3041 C3039 1.327 . S
C3042 C3030 1.349 . S
C3042 H3036 0.950 . S
C3042 C3043 1.327 . S
C3043 H3037 0.950 . S
C3043 C3042 1.327 . S
C3043 C3047 1.429 . S
C3044 C3027 1.574 . S
C3044 H3038 0.949 . S
C3044 C3048 1.368 . S
C3045 C3026 1.429 . S
C3045 C3039 1.429 . S
C3045 C3046 1.523 . S
C3046 C3027 1.368 . S
C3046 C3040 1.368 . S
C3046 C3045 1.523 . S
C3047 C3031 1.429 . S
C3047 C3043 1.429 . S
C3047 C3048 1.523 . S
C3048 C3032 1.368 . S
C3048 C3044 1.368 . S
C3048 C3047 1.523 . S
H3049 C3024 0.950 . S
H3050 C3026 0.950 . S
H3051 C3027 0.949 . S
H3052 C3029 0.950 . S
H3053 C3031 0.950 . S
C3054 C3055 1.349 . S
C3054 C3056 1.327 . S
C3054 H3079 0.950 . S
C3055 C3054 1.349 . S
C3055 C3071 1.349 . S
C3056 C3054 1.327 . S
C3056 C3075 1.429 . S
C3056 H3080 0.950 . S
C3057 C3074 1.574 . S
C3057 C3076 1.368 . S
C3057 H3081 0.949 . S
H3058 C3062 0.949 . S
C3059 C3060 1.349 . S
C3059 C3061 1.327 . S
C3059 H3082 0.950 . S
C3060 C3059 1.349 . S
C3060 C3072 1.349 . S
C3061 C3059 1.327 . S
C3061 C3077 1.429 . S
C3061 H3083 0.950 . S
C3062 H3058 0.949 . S
C3062 C3070 1.574 . S
C3062 C3078 1.368 . S
H3063 C3071 0.950 . S
H3064 C3069 0.950 . S
H3065 C3070 0.949 . S
H3066 C3072 0.950 . S
H3067 C3073 0.950 . S
H3068 C3074 0.949 . S
C3069 H3064 0.950 . S
C3069 C3071 1.327 . S
C3069 C3075 1.429 . S
C3070 C3062 1.574 . S
C3070 H3065 0.949 . S
C3070 C3076 1.368 . S
C3071 C3055 1.349 . S
C3071 H3063 0.950 . S
C3071 C3069 1.327 . S
C3072 C3060 1.349 . S
C3072 H3066 0.950 . S
C3072 C3073 1.327 . S
C3073 H3067 0.950 . S
C3073 C3072 1.327 . S
C3073 C3077 1.429 . S
C3074 C3057 1.574 . S
C3074 H3068 0.949 . S
C3074 C3078 1.368 . S
C3075 C3056 1.429 . S
C3075 C3069 1.429 . S
C3075 C3076 1.523 . S
C3076 C3057 1.368 . S
C3076 C3070 1.368 . S
C3076 C3075 1.523 . S
C3077 C3061 1.429 . S
C3077 C3073 1.429 . S
C3077 C3078 1.523 . S
C3078 C3062 1.368 . S
C3078 C3074 1.368 . S
C3078 C3077 1.523 . S
H3079 C3054 0.950 . S
H3080 C3056 0.950 . S
H3081 C3057 0.949 . S
H3082 C3059 0.950 . S
H3083 C3061 0.950 . S
C3084 C3085 1.349 . S
C3084 C3086 1.327 . S
C3084 H3109 0.950 . S
C3085 C3084 1.349 . S
C3085 C3101 1.349 . S
C3086 C3084 1.327 . S
C3086 C3105 1.429 . S
C3086 H3110 0.950 . S
C3087 C3104 1.574 . S
C3087 C3106 1.368 . S
C3087 H3111 0.949 . S
H3088 C3092 0.949 . S
C3089 C3090 1.349 . S
C3089 C3091 1.327 . S
C3089 H3112 0.950 . S
C3090 C3089 1.349 . S
C3090 C3102 1.349 . S
C3091 C3089 1.327 . S
C3091 C3107 1.429 . S
C3091 H3113 0.950 . S
C3092 H3088 0.949 . S
C3092 C3100 1.574 . S
C3092 C3108 1.368 . S
H3093 C3101 0.950 . S
H3094 C3099 0.950 . S
H3095 C3100 0.949 . S
H3096 C3102 0.950 . S
H3097 C3103 0.950 . S
H3098 C3104 0.949 . S
C3099 H3094 0.950 . S
C3099 C3101 1.327 . S
C3099 C3105 1.429 . S
C3100 C3092 1.574 . S
C3100 H3095 0.949 . S
C3100 C3106 1.368 . S
C3101 C3085 1.349 . S
C3101 H3093 0.950 . S
C3101 C3099 1.327 . S
C3102 C3090 1.349 . S
C3102 H3096 0.950 . S
C3102 C3103 1.327 . S
C3103 H3097 0.950 . S
C3103 C3102 1.327 . S
C3103 C3107 1.429 . S
C3104 C3087 1.574 . S
C3104 H3098 0.949 . S
C3104 C3108 1.368 . S
C3105 C3086 1.429 . S
C3105 C3099 1.429 . S
C3105 C3106 1.523 . S
C3106 C3087 1.368 . S
C3106 C3100 1.368 . S
C3106 C3105 1.523 . S
C3107 C3091 1.429 . S
C3107 C3103 1.429 . S
C3107 C3108 1.523 . S
C3108 C3092 1.368 . S
C3108 C3104 1.368 . S
C3108 C3107 1.523 . S
H3109 C3084 0.950 . S
H3110 C3086 0.950 . S
H3111 C3087 0.949 . S
H3112 C3089 0.950 . S
H3113 C3091 0.950 . S
C3114 C3115 1.349 . S
C3114 C3116 1.327 . S
C3114 H3139 0.950 . S
C3115 C3114 1.349 . S
C3115 C3131 1.349 . S
C3116 C3114 1.327 . S
C3116 C3135 1.429 . S
C3116 H3140 0.950 . S
C3117 C3134 1.574 . S
C3117 C3136 1.368 . S
C3117 H3141 0.949 . S
H3118 C3122 0.949 . S
C3119 C3120 1.349 . S
C3119 C3121 1.327 . S
C3119 H3142 0.950 . S
C3120 C3119 1.349 . S
C3120 C3132 1.349 . S
C3121 C3119 1.327 . S
C3121 C3137 1.429 . S
C3121 H3143 0.950 . S
C3122 H3118 0.949 . S
C3122 C3130 1.574 . S
C3122 C3138 1.368 . S
H3123 C3131 0.950 . S
H3124 C3129 0.950 . S
H3125 C3130 0.949 . S
H3126 C3132 0.950 . S
H3127 C3133 0.950 . S
H3128 C3134 0.949 . S
C3129 H3124 0.950 . S
C3129 C3131 1.327 . S
C3129 C3135 1.429 . S
C3130 C3122 1.574 . S
C3130 H3125 0.949 . S
C3130 C3136 1.368 . S
C3131 C3115 1.349 . S
C3131 H3123 0.950 . S
C3131 C3129 1.327 . S
C3132 C3120 1.349 . S
C3132 H3126 0.950 . S
C3132 C3133 1.327 . S
C3133 H3127 0.950 . S
C3133 C3132 1.327 . S
C3133 C3137 1.429 . S
C3134 C3117 1.574 . S
C3134 H3128 0.949 . S
C3134 C3138 1.368 . S
C3135 C3116 1.429 . S
C3135 C3129 1.429 . S
C3135 C3136 1.523 . S
C3136 C3117 1.368 . S
C3136 C3130 1.368 . S
C3136 C3135 1.523 . S
C3137 C3121 1.429 . S
C3137 C3133 1.429 . S
C3137 C3138 1.523 . S
C3138 C3122 1.368 . S
C3138 C3134 1.368 . S
C3138 C3137 1.523 . S
H3139 C3114 0.950 . S
H3140 C3116 0.950 . S
H3141 C3117 0.949 . S
H3142 C3119 0.950 . S
H3143 C3121 0.950 . S
C3144 C3145 1.349 . S
C3144 C3146 1.327 . S
C3144 H3169 0.950 . S
C3145 C3144 1.349 . S
C3145 C3161 1.349 . S
C3146 C3144 1.327 . S
C3146 C3165 1.429 . S
C3146 H3170 0.950 . S
C3147 C3164 1.574 . S
C3147 C3166 1.368 . S
C3147 H3171 0.949 . S
H3148 C3152 0.949 . S
C3149 C3150 1.349 . S
C3149 C3151 1.327 . S
C3149 H3172 0.950 . S
C3150 C3149 1.349 . S
C3150 C3162 1.349 . S
C3151 C3149 1.327 . S
C3151 C3167 1.429 . S
C3151 H3173 0.950 . S
C3152 H3148 0.949 . S
C3152 C3160 1.574 . S
C3152 C3168 1.368 . S
H3153 C3161 0.950 . S
H3154 C3159 0.950 . S
H3155 C3160 0.949 . S
H3156 C3162 0.950 . S
H3157 C3163 0.950 . S
H3158 C3164 0.949 . S
C3159 H3154 0.950 . S
C3159 C3161 1.327 . S
C3159 C3165 1.429 . S
C3160 C3152 1.574 . S
C3160 H3155 0.949 . S
C3160 C3166 1.368 . S
C3161 C3145 1.349 . S
C3161 H3153 0.950 . S
C3161 C3159 1.327 . S
C3162 C3150 1.349 . S
C3162 H3156 0.950 . S
C3162 C3163 1.327 . S
C3163 H3157 0.950 . S
C3163 C3162 1.327 . S
C3163 C3167 1.429 . S
C3164 C3147 1.574 . S
C3164 H3158 0.949 . S
C3164 C3168 1.368 . S
C3165 C3146 1.429 . S
C3165 C3159 1.429 . S
C3165 C3166 1.523 . S
C3166 C3147 1.368 . S
C3166 C3160 1.368 . S
C3166 C3165 1.523 . S
C3167 C3151 1.429 . S
C3167 C3163 1.429 . S
C3167 C3168 1.523 . S
C3168 C3152 1.368 . S
C3168 C3164 1.368 . S
C3168 C3167 1.523 . S
H3169 C3144 0.950 . S
H3170 C3146 0.950 . S
H3171 C3147 0.949 . S
H3172 C3149 0.950 . S
H3173 C3151 0.950 . S
C3174 C3175 1.349 . S
C3174 C3176 1.327 . S
C3174 H3199 0.950 . S
C3175 C3174 1.349 . S
C3175 C3191 1.349 . S
C3176 C3174 1.327 . S
C3176 C3195 1.429 . S
C3176 H3200 0.950 . S
C3177 C3194 1.574 . S
C3177 C3196 1.368 . S
C3177 H3201 0.949 . S
H3178 C3182 0.949 . S
C3179 C3180 1.349 . S
C3179 C3181 1.327 . S
C3179 H3202 0.950 . S
C3180 C3179 1.349 . S
C3180 C3192 1.349 . S
C3181 C3179 1.327 . S
C3181 C3197 1.429 . S
C3181 H3203 0.950 . S
C3182 H3178 0.949 . S
C3182 C3190 1.574 . S
C3182 C3198 1.368 . S
H3183 C3191 0.950 . S
H3184 C3189 0.950 . S
H3185 C3190 0.949 . S
H3186 C3192 0.950 . S
H3187 C3193 0.950 . S
H3188 C3194 0.949 . S
C3189 H3184 0.950 . S
C3189 C3191 1.327 . S
C3189 C3195 1.429 . S
C3190 C3182 1.574 . S
C3190 H3185 0.949 . S
C3190 C3196 1.368 . S
C3191 C3175 1.349 . S
C3191 H3183 0.950 . S
C3191 C3189 1.327 . S
C3192 C3180 1.349 . S
C3192 H3186 0.950 . S
C3192 C3193 1.327 . S
C3193 H3187 0.950 . S
C3193 C3192 1.327 . S
C3193 C3197 1.429 . S
C3194 C3177 1.574 . S
C3194 H3188 0.949 . S
C3194 C3198 1.368 . S
C3195 C3176 1.429 . S
C3195 C3189 1.429 . S
C3195 C3196 1.523 . S
C3196 C3177 1.368 . S
C3196 C3190 1.368 . S
C3196 C3195 1.523 . S
C3197 C3181 1.429 . S
C3197 C3193 1.429 . S
C3197 C3198 1.523 . S
C3198 C3182 1.368 . S
C3198 C3194 1.368 . S
C3198 C3197 1.523 . S
H3199 C3174 0.950 . S
H3200 C3176 0.950 . S
H3201 C3177 0.949 . S
H3202 C3179 0.950 . S
H3203 C3181 0.950 . S
C3204 C3205 1.349 . S
C3204 C3206 1.327 . S
C3204 H3229 0.950 . S
C3205 C3204 1.349 . S
C3205 C3221 1.349 . S
C3206 C3204 1.327 . S
C3206 C3225 1.429 . S
C3206 H3230 0.950 . S
C3207 C3224 1.574 . S
C3207 C3226 1.368 . S
C3207 H3231 0.949 . S
H3208 C3212 0.949 . S
C3209 C3210 1.349 . S
C3209 C3211 1.327 . S
C3209 H3232 0.950 . S
C3210 C3209 1.349 . S
C3210 C3222 1.349 . S
C3211 C3209 1.327 . S
C3211 C3227 1.429 . S
C3211 H3233 0.950 . S
C3212 H3208 0.949 . S
C3212 C3220 1.574 . S
C3212 C3228 1.368 . S
H3213 C3221 0.950 . S
H3214 C3219 0.950 . S
H3215 C3220 0.949 . S
H3216 C3222 0.950 . S
H3217 C3223 0.950 . S
H3218 C3224 0.949 . S
C3219 H3214 0.950 . S
C3219 C3221 1.327 . S
C3219 C3225 1.429 . S
C3220 C3212 1.574 . S
C3220 H3215 0.949 . S
C3220 C3226 1.368 . S
C3221 C3205 1.349 . S
C3221 H3213 0.950 . S
C3221 C3219 1.327 . S
C3222 C3210 1.349 . S
C3222 H3216 0.950 . S
C3222 C3223 1.327 . S
C3223 H3217 0.950 . S
C3223 C3222 1.327 . S
C3223 C3227 1.429 . S
C3224 C3207 1.574 . S
C3224 H3218 0.949 . S
C3224 C3228 1.368 . S
C3225 C3206 1.429 . S
C3225 C3219 1.429 . S
C3225 C3226 1.523 . S
C3226 C3207 1.368 . S
C3226 C3220 1.368 . S
C3226 C3225 1.523 . S
C3227 C3211 1.429 . S
C3227 C3223 1.429 . S
C3227 C3228 1.523 . S
C3228 C3212 1.368 . S
C3228 C3224 1.368 . S
C3228 C3227 1.523 . S
H3229 C3204 0.950 . S
H3230 C3206 0.950 . S
H3231 C3207 0.949 . S
H3232 C3209 0.950 . S
H3233 C3211 0.950 . S
C3234 C3235 1.349 . S
C3234 C3236 1.327 . S
C3234 H3259 0.950 . S
C3235 C3234 1.349 . S
C3235 C3251 1.349 . S
C3236 C3234 1.327 . S
C3236 C3255 1.429 . S
C3236 H3260 0.950 . S
C3237 C3254 1.574 . S
C3237 C3256 1.368 . S
C3237 H3261 0.949 . S
H3238 C3242 0.949 . S
C3239 C3240 1.349 . S
C3239 C3241 1.327 . S
C3239 H3262 0.950 . S
C3240 C3239 1.349 . S
C3240 C3252 1.349 . S
C3241 C3239 1.327 . S
C3241 C3257 1.429 . S
C3241 H3263 0.950 . S
C3242 H3238 0.949 . S
C3242 C3250 1.574 . S
C3242 C3258 1.368 . S
H3243 C3251 0.950 . S
H3244 C3249 0.950 . S
H3245 C3250 0.949 . S
H3246 C3252 0.950 . S
H3247 C3253 0.950 . S
H3248 C3254 0.949 . S
C3249 H3244 0.950 . S
C3249 C3251 1.327 . S
C3249 C3255 1.429 . S
C3250 C3242 1.574 . S
C3250 H3245 0.949 . S
C3250 C3256 1.368 . S
C3251 C3235 1.349 . S
C3251 H3243 0.950 . S
C3251 C3249 1.327 . S
C3252 C3240 1.349 . S
C3252 H3246 0.950 . S
C3252 C3253 1.327 . S
C3253 H3247 0.950 . S
C3253 C3252 1.327 . S
C3253 C3257 1.429 . S
C3254 C3237 1.574 . S
C3254 H3248 0.949 . S
C3254 C3258 1.368 . S
C3255 C3236 1.429 . S
C3255 C3249 1.429 . S
C3255 C3256 1.523 . S
C3256 C3237 1.368 . S
C3256 C3250 1.368 . S
C3256 C3255 1.523 . S
C3257 C3241 1.429 . S
C3257 C3253 1.429 . S
C3257 C3258 1.523 . S
C3258 C3242 1.368 . S
C3258 C3254 1.368 . S
C3258 C3257 1.523 . S
H3259 C3234 0.950 . S
H3260 C3236 0.950 . S
H3261 C3237 0.949 . S
H3262 C3239 0.950 . S
H3263 C3241 0.950 . S
C3264 C3265 1.349 . S
C3264 C3266 1.327 . S
C3264 H3289 0.950 . S
C3265 C3264 1.349 . S
C3265 C3281 1.349 . S
C3266 C3264 1.327 . S
C3266 C3285 1.429 . S
C3266 H3290 0.950 . S
C3267 C3284 1.574 . S
C3267 C3286 1.368 . S
C3267 H3291 0.949 . S
H3268 C3272 0.949 . S
C3269 C3270 1.349 . S
C3269 C3271 1.327 . S
C3269 H3292 0.950 . S
C3270 C3269 1.349 . S
C3270 C3282 1.349 . S
C3271 C3269 1.327 . S
C3271 C3287 1.429 . S
C3271 H3293 0.950 . S
C3272 H3268 0.949 . S
C3272 C3280 1.574 . S
C3272 C3288 1.368 . S
H3273 C3281 0.950 . S
H3274 C3279 0.950 . S
H3275 C3280 0.949 . S
H3276 C3282 0.950 . S
H3277 C3283 0.950 . S
H3278 C3284 0.949 . S
C3279 H3274 0.950 . S
C3279 C3281 1.327 . S
C3279 C3285 1.429 . S
C3280 C3272 1.574 . S
C3280 H3275 0.949 . S
C3280 C3286 1.368 . S
C3281 C3265 1.349 . S
C3281 H3273 0.950 . S
C3281 C3279 1.327 . S
C3282 C3270 1.349 . S
C3282 H3276 0.950 . S
C3282 C3283 1.327 . S
C3283 H3277 0.950 . S
C3283 C3282 1.327 . S
C3283 C3287 1.429 . S
C3284 C3267 1.574 . S
C3284 H3278 0.949 . S
C3284 C3288 1.368 . S
C3285 C3266 1.429 . S
C3285 C3279 1.429 . S
C3285 C3286 1.523 . S
C3286 C3267 1.368 . S
C3286 C3280 1.368 . S
C3286 C3285 1.523 . S
C3287 C3271 1.429 . S
C3287 C3283 1.429 . S
C3287 C3288 1.523 . S
C3288 C3272 1.368 . S
C3288 C3284 1.368 . S
C3288 C3287 1.523 . S
H3289 C3264 0.950 . S
H3290 C3266 0.950 . S
H3291 C3267 0.949 . S
H3292 C3269 0.950 . S
H3293 C3271 0.950 . S
C3294 C3295 1.349 . S
C3294 C3296 1.327 . S
C3294 H3319 0.950 . S
C3295 C3294 1.349 . S
C3295 C3311 1.349 . S
C3296 C3294 1.327 . S
C3296 C3315 1.429 . S
C3296 H3320 0.950 . S
C3297 C3314 1.574 . S
C3297 C3316 1.368 . S
C3297 H3321 0.949 . S
H3298 C3302 0.949 . S
C3299 C3300 1.349 . S
C3299 C3301 1.327 . S
C3299 H3322 0.950 . S
C3300 C3299 1.349 . S
C3300 C3312 1.349 . S
C3301 C3299 1.327 . S
C3301 C3317 1.429 . S
C3301 H3323 0.950 . S
C3302 H3298 0.949 . S
C3302 C3310 1.574 . S
C3302 C3318 1.368 . S
H3303 C3311 0.950 . S
H3304 C3309 0.950 . S
H3305 C3310 0.949 . S
H3306 C3312 0.950 . S
H3307 C3313 0.950 . S
H3308 C3314 0.949 . S
C3309 H3304 0.950 . S
C3309 C3311 1.327 . S
C3309 C3315 1.429 . S
C3310 C3302 1.574 . S
C3310 H3305 0.949 . S
C3310 C3316 1.368 . S
C3311 C3295 1.349 . S
C3311 H3303 0.950 . S
C3311 C3309 1.327 . S
C3312 C3300 1.349 . S
C3312 H3306 0.950 . S
C3312 C3313 1.327 . S
C3313 H3307 0.950 . S
C3313 C3312 1.327 . S
C3313 C3317 1.429 . S
C3314 C3297 1.574 . S
C3314 H3308 0.949 . S
C3314 C3318 1.368 . S
C3315 C3296 1.429 . S
C3315 C3309 1.429 . S
C3315 C3316 1.523 . S
C3316 C3297 1.368 . S
C3316 C3310 1.368 . S
C3316 C3315 1.523 . S
C3317 C3301 1.429 . S
C3317 C3313 1.429 . S
C3317 C3318 1.523 . S
C3318 C3302 1.368 . S
C3318 C3314 1.368 . S
C3318 C3317 1.523 . S
H3319 C3294 0.950 . S
H3320 C3296 0.950 . S
H3321 C3297 0.949 . S
H3322 C3299 0.950 . S
H3323 C3301 0.950 . S
C1170 C870 0.942 . S
C1165 C859 0.940 . S
C1195 C787 0.939 . S
C1200 C868 0.941 . S
C1230 C869 0.942 . S
C1225 C751 0.940 . S
C1255 C823 0.941 . S
C1260 C871 0.943 . S
C1290 C915 0.941 . S
C1285 C607 0.939 . S
C1320 C975 0.942 . S
C1315 C643 0.941 . S
C1345 C679 0.938 . S
C1350 C914 0.940 . S
C1380 C974 0.941 . S
C1375 C715 0.939 . S
C1405 C463 0.941 . S
C1410 C916 0.942 . S
C1440 C972 0.939 . S
C1435 C499 0.937 . S
C1465 C535 0.942 . S
C1470 C917 0.943 . S
C1495 C571 0.938 . S
C1500 C973 0.940 . S
C1530 C1023 0.942 . S
C1525 C427 0.935 1_554 S
C1555 C355 0.934 1_554 S
C1560 C1022 0.940 . S
C1585 C319 0.943 . S
C1590 C1024 0.942 . S
C1620 C1025 0.943 . S
C1615 C391 0.936 1_554 S
C1645 C175 0.938 1_455 S
C1650 C1066 0.941 . S
C1675 C211 0.941 . S
C1680 C1125 0.942 . S
C1705 C247 0.939 . S
C1710 C1064 0.939 . S
C1735 C283 0.939 1_545 S
C1740 C1124 0.941 . S
C1770 C1065 0.942 . S
C1765 C31 0.939 1_455 S
C1800 C1122 0.939 . S
C1795 C67 0.937 1_545 S
C1825 C103 0.943 . S
C1830 C1067 0.943 . S
C1860 C1123 0.940 . S
C1855 C139 0.939 . S
C1890 C867 1.863 . S
C1885 C25 1.737 1_455 S
C1915 C61 1.734 1_545 S
C1920 C873 1.859 . S
C1945 C97 1.739 . S
C1950 C865 1.864 . S
C1975 C133 1.736 . S
C1980 C872 1.861 . S
C2005 C169 1.738 1_455 S
C2010 C864 1.863 . S
C2040 C874 1.862 . S
C2035 C181 1.782 . S
C2065 C241 1.738 . S
C2070 C866 1.863 . S
C2100 C875 1.861 . S
C2095 C253 1.781 1_545 S
C2130 C921 1.860 . S
C2125 C109 1.780 . S
C2155 C1 1.782 1_455 S
C2160 C964 1.863 . S
C2190 C919 1.860 . S
C2185 C37 1.780 1_545 S
C2220 C966 1.864 . S
C2215 C73 1.784 . S
C2245 C205 1.736 . S
C2250 C920 1.861 . S
C2280 C965 1.861 . S
C2275 C217 1.781 . S
C2310 C918 1.861 . S
C2305 C277 1.736 1_545 S
C2340 C967 1.861 . S
C2335 C145 1.779 1_455 S
C2370 C971 1.863 . S
C2365 C289 1.784 . S
C2395 C325 1.781 1_554 S
C2400 C970 1.862 . S
C2430 C922 1.864 . S
C2425 C313 1.741 . S
C2460 C969 1.863 . S
C2455 C361 1.782 1_554 S
C2485 C397 1.782 1_554 S
C2490 C925 1.864 . S
C2515 C421 1.736 1_554 S
C2520 C968 1.863 . S
C2550 C924 1.863 . S
C2545 C349 1.737 1_554 S
C2580 C923 1.864 . S
C2575 C385 1.738 1_554 S
C2610 C1017 1.863 . S
C2605 C457 1.738 . S
C2640 C1020 1.860 . S
C2635 C493 1.735 . S
C2665 C529 1.739 . S
C2670 C1016 1.864 . S
C2700 C1018 1.861 . S
C2695 C565 1.736 . S
C2730 C1014 1.863 . S
C2725 C601 1.738 . S
C2755 C613 1.782 . S
C2760 C1019 1.862 . S
C2785 C673 1.737 . S
C2790 C1015 1.862 . S
C2820 C1021 1.861 . S
C2815 C685 1.781 . S
C2850 C1075 1.860 . S
C2845 C541 1.780 . S
C2875 C433 1.783 . S
C2880 C1114 1.863 . S
C2910 C1074 1.860 . S
C2905 C469 1.780 . S
C2940 C1116 1.864 . S
C2935 C505 1.784 . S
C2970 C1073 1.861 . S
C2965 C637 1.736 . S
C2995 C649 1.781 . S
C3000 C1115 1.861 . S
C3030 C1072 1.861 . S
C3025 C709 1.736 . S
C3060 C1117 1.861 . S
C3055 C577 1.781 . S
C3090 C1121 1.863 . S
C3085 C721 1.783 . S
C3115 C757 1.782 . S
C3120 C1120 1.862 . S
C3150 C1068 1.864 . S
C3145 C745 1.739 . S
C3175 C793 1.783 . S
C3180 C1119 1.863 . S
C3210 C1071 1.864 . S
C3205 C829 1.784 . S
C3240 C1118 1.863 . S
C3235 C853 1.738 . S
C3270 C1069 1.863 . S
C3265 C781 1.738 . S
C3295 C817 1.739 . S
C3300 C1070 1.864 . S
