# Generated by pormake.
# Topology llj, (12,3)-cn, num edge types: 1
# Building blocks:
#     Node 0, Type 0, BuildingBlock: QEWDON_clean_sbu_0, # of connection points: 12
#     Node 1, Type 0, BuildingBlock: QEWDON_clean_sbu_0, # of connection points: 12
#     Node 2, Type 1, BuildingBlock: INOVEN_clean_linker_0, # of connection points: 3
#     Node 3, Type 1, BuildingBlock: INOVEN_clean_linker_0, # of connection points: 3
#     Node 4, Type 1, BuildingBlock: INOVEN_clean_linker_0, # of connection points: 3
#     Node 5, Type 1, BuildingBlock: INOVEN_clean_linker_0, # of connection points: 3
#     Node 6, Type 1, BuildingBlock: INOVEN_clean_linker_0, # of connection points: 3
#     Node 7, Type 1, BuildingBlock: INOVEN_clean_linker_0, # of connection points: 3
#     Node 8, Type 1, BuildingBlock: INOVEN_clean_linker_0, # of connection points: 3
#     Node 9, Type 1, BuildingBlock: INOVEN_clean_linker_0, # of connection points: 3
#     Edge 10, Type (0, 1), BuildingBlock: OJICUG_clean_linker_0, # of connection points: 2
#     Edge 11, Type (0, 1), BuildingBlock: OJICUG_clean_linker_0, # of connection points: 2
#     Edge 12, Type (0, 1), BuildingBlock: OJICUG_clean_linker_0, # of connection points: 2
#     Edge 13, Type (0, 1), BuildingBlock: OJICUG_clean_linker_0, # of connection points: 2
#     Edge 14, Type (0, 1), BuildingBlock: OJICUG_clean_linker_0, # of connection points: 2
#     Edge 15, Type (0, 1), BuildingBlock: OJICUG_clean_linker_0, # of connection points: 2
#     Edge 16, Type (0, 1), BuildingBlock: OJICUG_clean_linker_0, # of connection points: 2
#     Edge 17, Type (0, 1), BuildingBlock: OJICUG_clean_linker_0, # of connection points: 2
#     Edge 18, Type (0, 1), BuildingBlock: OJICUG_clean_linker_0, # of connection points: 2
#     Edge 19, Type (0, 1), BuildingBlock: OJICUG_clean_linker_0, # of connection points: 2
#     Edge 20, Type (0, 1), BuildingBlock: OJICUG_clean_linker_0, # of connection points: 2
#     Edge 21, Type (0, 1), BuildingBlock: OJICUG_clean_linker_0, # of connection points: 2
#     Edge 22, Type (0, 1), BuildingBlock: OJICUG_clean_linker_0, # of connection points: 2
#     Edge 23, Type (0, 1), BuildingBlock: OJICUG_clean_linker_0, # of connection points: 2
#     Edge 24, Type (0, 1), BuildingBlock: OJICUG_clean_linker_0, # of connection points: 2
#     Edge 25, Type (0, 1), BuildingBlock: OJICUG_clean_linker_0, # of connection points: 2
#     Edge 26, Type (0, 1), BuildingBlock: OJICUG_clean_linker_0, # of connection points: 2
#     Edge 27, Type (0, 1), BuildingBlock: OJICUG_clean_linker_0, # of connection points: 2
#     Edge 28, Type (0, 1), BuildingBlock: OJICUG_clean_linker_0, # of connection points: 2
#     Edge 29, Type (0, 1), BuildingBlock: OJICUG_clean_linker_0, # of connection points: 2
#     Edge 30, Type (0, 1), BuildingBlock: OJICUG_clean_linker_0, # of connection points: 2
#     Edge 31, Type (0, 1), BuildingBlock: OJICUG_clean_linker_0, # of connection points: 2
#     Edge 32, Type (0, 1), BuildingBlock: OJICUG_clean_linker_0, # of connection points: 2
#     Edge 33, Type (0, 1), BuildingBlock: OJICUG_clean_linker_0, # of connection points: 2
# Relax obj value: 0.009
# Max RMSD: 0.087
# Mean RMSD: 0.075
data_MOF--net-llj--node1-QEWDON_clean_sbu_0--node2-INOVEN_clean_linker_0--edge1-OJICUG_clean_linker_0
_symmetry_space_group_name_H-M    P1
_symmetry_Int_Tables_number       1
_symmetry_cell_setting            triclinic
loop_
_symmetry_equiv_pos_as_xyz
'x, y, z'
_cell_length_a     30.015838
_cell_length_b     30.040782
_cell_length_c     18.636815
_cell_angle_alpha  91.703083
_cell_angle_beta   91.411465
_cell_angle_gamma 89.561289
loop_
_atom_site_label
_atom_site_type_symbol
_atom_site_fract_x
_atom_site_fract_y
_atom_site_fract_z
_atom_type_partial_charge
Zn0 Zn 0.93386 0.08564 0.91204 0.0
Zn1 Zn 0.93214 0.0855 0.08017 0.0
O2 O 0.97256 0.07372 -0.00112 0.0
H3 H 0.99487 0.05041 -0.00198 0.0
C4 C 0.86445 0.00879 0.80549 0.0
O5 O 0.87085 0.03059 0.86692 0.0
Zn6 Zn 0.06083 0.91293 0.07799 0.0
Zn7 Zn 0.06039 0.91245 0.90708 0.0
O8 O 0.02271 0.92783 -0.0078 0.0
H9 H 0.00076 0.9515 -0.00855 0.0
Zn10 Zn 0.87855 0.93461 0.8995 0.0
O11 O 0.90502 0.96968 0.98275 0.0
Zn12 Zn 0.90025 0.93083 0.06736 0.0
H13 H 0.9277 0.9918 0.97663 0.0
Zn14 Zn 0.10887 0.0625 0.91675 0.0
O15 O 0.08402 0.02837 -0.00276 0.0
H16 H 0.06265 0.0048 -0.0104 0.0
Zn17 Zn 0.09189 0.06702 0.08542 0.0
C18 C 0.12804 0.9868 0.82052 0.0
O19 O 0.12747 0.96557 0.88106 0.0
O20 O 0.88151 0.12748 0.93302 0.0
O21 O 0.88204 0.12968 0.05246 0.0
O22 O 0.11131 0.86971 0.9311 0.0
O23 O 0.10897 0.86671 0.0502 0.0
O24 O 0.84946 0.87595 0.92536 0.0
O25 O 0.86179 0.87575 0.04386 0.0
C26 C 0.01112 0.10523 0.16704 0.0
O27 O 0.14618 0.11641 0.94958 0.0
O28 O 0.13367 0.11873 0.06693 0.0
O29 O 0.02879 0.90405 0.80812 0.0
C30 C 0.86589 0.14225 -0.00796 0.0
O31 O 0.96643 0.09444 0.81802 0.0
C32 C 0.97919 0.89857 0.15041 0.0
O33 O 0.86442 0.96653 0.80464 0.0
C34 C 0.12569 0.85428 -0.00977 0.0
O35 O 0.12188 0.02866 0.82154 0.0
C36 C 0.88749 0.00931 0.15253 0.0
O37 O 0.96882 0.10919 0.16511 0.0
O38 O 0.02993 0.08784 0.11239 0.0
C39 C 0.84541 0.85789 0.98589 0.0
O40 O 0.02112 0.89338 0.15751 0.0
O41 O 0.96299 0.91195 0.09135 0.0
C42 C 0.10935 0.98822 0.16414 0.0
O43 O 0.87739 0.96825 0.15103 0.0
O44 O 0.9083 0.02471 0.10045 0.0
C45 C 0.15231 0.13408 0.01201 0.0
O46 O 0.11728 0.02969 0.16456 0.0
O47 O 0.0882 0.97136 0.11011 0.0
C48 C 0.98718 0.89678 0.80706 0.0
O49 O 0.96635 0.89562 0.86815 0.0
C50 C 0.00785 0.10265 0.82193 0.0
O51 O 0.02819 0.10452 0.88515 0.0
Zn52 Zn 0.44403 0.58502 0.44842 0.0
Zn53 Zn 0.43905 0.58124 0.61825 0.0
O54 O 0.4787 0.5665 0.53638 0.0
H55 H 0.49995 0.54222 0.53557 0.0
C56 C 0.38549 0.5071 0.33766 0.0
O57 O 0.38321 0.52776 0.40052 0.0
Zn58 Zn 0.5682 0.42308 0.60893 0.0
Zn59 Zn 0.56431 0.41425 0.43863 0.0
O60 O 0.52883 0.43512 0.52384 0.0
H61 H 0.5057 0.45761 0.52215 0.0
Zn62 Zn 0.40361 0.43284 0.42874 0.0
O63 O 0.41153 0.4714 0.51695 0.0
Zn64 Zn 0.40481 0.43043 0.59772 0.0
H65 H 0.43086 0.49685 0.51671 0.0
Zn66 Zn 0.59654 0.57781 0.4401 0.0
O67 O 0.59106 0.53758 0.52362 0.0
H68 H 0.57416 0.5104 0.51968 0.0
Zn69 Zn 0.5977 0.57707 0.61063 0.0
C70 C 0.61764 0.50464 0.34247 0.0
O71 O 0.61455 0.48315 0.40239 0.0
O72 O 0.39401 0.63044 0.46998 0.0
O73 O 0.39347 0.62886 0.58944 0.0
O74 O 0.61686 0.37312 0.46367 0.0
O75 O 0.61703 0.37789 0.58304 0.0
O76 O 0.36648 0.37785 0.44566 0.0
O77 O 0.3664 0.37646 0.56498 0.0
C78 C 0.51895 0.59899 0.69984 0.0
O79 O 0.62977 0.63514 0.46849 0.0
O80 O 0.63361 0.63245 0.58793 0.0
O81 O 0.53042 0.40321 0.34233 0.0
C82 C 0.37872 0.64415 0.53001 0.0
O83 O 0.47885 0.5875 0.35425 0.0
C84 C 0.48786 0.40105 0.68405 0.0
O85 O 0.39364 0.46559 0.33465 0.0
C86 C 0.63279 0.36194 0.52454 0.0
O87 O 0.61151 0.54654 0.34334 0.0
C88 C 0.38554 0.50661 0.68604 0.0
O89 O 0.47687 0.59914 0.70568 0.0
O90 O 0.53522 0.59234 0.63825 0.0
C91 C 0.35443 0.36023 0.50323 0.0
O92 O 0.53026 0.40014 0.68711 0.0
O93 O 0.46844 0.41417 0.62687 0.0
C94 C 0.61784 0.50011 0.69209 0.0
O95 O 0.37641 0.46544 0.67922 0.0
O96 O 0.4092 0.52343 0.63837 0.0
C97 C 0.6427 0.65134 0.5294 0.0
O98 O 0.62586 0.54163 0.69035 0.0
O99 O 0.59482 0.48259 0.64052 0.0
C100 C 0.49103 0.3881 0.34223 0.0
O101 O 0.4728 0.37957 0.40363 0.0
C102 C 0.50938 0.6164 0.35194 0.0
O103 O 0.51635 0.64334 0.40787 0.0
H104 H 0.34512 0.31678 0.88669 0.0
H105 H 0.43681 0.39848 0.01216 0.0
H106 H 0.34672 0.31164 0.11571 0.0
N107 N 0.30402 0.2836 -0.00643 0.0
N108 N 0.28477 0.26885 0.04632 0.0
C109 C 0.35829 0.32934 0.93793 0.0
C110 C 0.39432 0.35889 0.94124 0.0
C111 C 0.33994 0.31384 0.00057 0.0
C112 C 0.35901 0.32631 0.06776 0.0
C113 C 0.39521 0.35583 0.07239 0.0
C114 C 0.41078 0.37372 0.00893 0.0
H115 H 0.69833 0.35599 0.13367 0.0
H116 H 0.63128 0.4566 0.01106 0.0
H117 H 0.70225 0.35042 0.90322 0.0
N118 N 0.72847 0.30883 0.02562 0.0
N119 N 0.74098 0.28643 0.97236 0.0
C120 C 0.68814 0.36958 0.08256 0.0
C121 C 0.66316 0.40923 0.0803 0.0
C122 C 0.70169 0.34776 0.01933 0.0
C123 C 0.69061 0.3662 0.95238 0.0
C124 C 0.66613 0.40627 0.94941 0.0
C125 C 0.6516 0.42667 0.01344 0.0
H126 H 0.6707 0.66493 0.15117 0.0
H127 H 0.56269 0.60564 0.02719 0.0
H128 H 0.67839 0.65356 0.92246 0.0
N129 N 0.71488 0.69244 0.04192 0.0
N130 N 0.73206 0.70662 0.98688 0.0
C131 C 0.6561 0.65355 0.10021 0.0
C132 C 0.61453 0.63222 0.09735 0.0
C133 C 0.67826 0.66273 0.03739 0.0
C134 C 0.66039 0.64748 0.97074 0.0
C135 C 0.61869 0.62637 0.96598 0.0
C136 C 0.59604 0.61913 0.02993 0.0
H137 H 0.30588 0.65266 0.13307 0.0
H138 H 0.37818 0.55469 0.00828 0.0
H139 H 0.30035 0.65499 0.90264 0.0
N140 N 0.27224 0.6963 0.02562 0.0
N141 N 0.25737 0.71624 0.97237 0.0
C142 C 0.31683 0.63922 0.08181 0.0
C143 C 0.34401 0.60101 0.07867 0.0
C144 C 0.30165 0.65932 0.019 0.0
C145 C 0.31337 0.64074 0.95165 0.0
C146 C 0.34013 0.60221 0.94782 0.0
C147 C 0.35636 0.58356 0.01142 0.0
H148 H 0.82393 0.83635 0.36008 0.0
H149 H 0.93562 0.89849 0.47171 0.0
H150 H 0.83869 0.82722 0.5881 0.0
N151 N 0.78814 0.80263 0.4735 0.0
N152 N 0.77302 0.78818 0.53002 0.0
C153 C 0.84238 0.84479 0.40922 0.0
C154 C 0.88234 0.86891 0.40724 0.0
C155 C 0.82637 0.83021 0.47429 0.0
C156 C 0.85011 0.84039 0.53843 0.0
C157 C 0.88934 0.86559 0.53844 0.0
C158 C 0.90499 0.87985 0.47246 0.0
H159 H 0.19596 0.84012 0.36764 0.0
H160 H 0.12174 0.93901 0.48722 0.0
H161 H 0.20115 0.84212 0.59835 0.0
N162 N 0.23045 0.79907 0.47911 0.0
N163 N 0.24617 0.78194 0.5345 0.0
C164 C 0.18477 0.85417 0.41837 0.0
C165 C 0.15724 0.89218 0.4197 0.0
C166 C 0.20013 0.83555 0.48253 0.0
C167 C 0.18774 0.85518 0.5487 0.0
C168 C 0.16 0.89303 0.55088 0.0
C169 C 0.14398 0.9104 0.48609 0.0
H170 H 0.15351 0.18213 0.62399 0.0
H171 H 0.05927 0.10691 0.49273 0.0
H172 H 0.15768 0.18686 0.39463 0.0
N173 N 0.19837 0.21401 0.52041 0.0
N174 N 0.22023 0.22714 0.46926 0.0
C175 C 0.14076 0.17052 0.57193 0.0
C176 C 0.10331 0.14283 0.56638 0.0
C177 C 0.16135 0.18522 0.51064 0.0
C178 C 0.14335 0.17351 0.44215 0.0
C179 C 0.10535 0.14641 0.4356 0.0
C180 C 0.08706 0.12967 0.49786 0.0
H181 H 0.80934 0.16201 0.36306 0.0
H182 H 0.87424 0.05536 0.47481 0.0
H183 H 0.80191 0.1567 0.59241 0.0
N184 N 0.77628 0.20309 0.47626 0.0
N185 N 0.76171 0.22125 0.53208 0.0
C186 C 0.81841 0.14597 0.41274 0.0
C187 C 0.84383 0.1066 0.41128 0.0
C188 C 0.80388 0.16457 0.47781 0.0
C189 C 0.81462 0.14334 0.54226 0.0
C190 C 0.83982 0.10369 0.54174 0.0
C191 C 0.85493 0.086 0.47599 0.0
C192 C 0.20247 0.19013 0.9604 0.0
C193 C 0.18374 0.17161 0.02104 0.0
H194 H 0.24929 0.23579 0.92038 0.0
C195 C 0.19728 0.18768 0.08981 0.0
H196 H 0.19264 0.1788 0.90664 0.0
C197 C 0.23002 0.22049 0.09758 0.0
C198 C 0.24959 0.23778 0.03704 0.0
H199 H 0.18347 0.17415 0.13763 0.0
H200 H 0.24083 0.23178 0.15089 0.0
C201 C 0.23501 0.22285 0.96824 0.0
C202 C 0.81615 0.19949 0.05167 0.0
C203 C 0.83035 0.17683 -0.0109 0.0
H204 H 0.77631 0.25255 0.09602 0.0
C205 C 0.81226 0.18954 0.92221 0.0
H206 H 0.82933 0.19058 0.10398 0.0
C207 C 0.78206 0.225 0.91775 0.0
C208 C 0.76913 0.24849 0.97971 0.0
H209 H 0.82216 0.17277 0.8728 0.0
H210 H 0.76943 0.23482 0.86558 0.0
C211 C 0.78583 0.23505 0.04708 0.0
C212 C 0.80662 0.79889 0.05384 0.0
C213 C 0.82005 0.81586 -0.01173 0.0
H214 H 0.76773 0.75013 0.10554 0.0
C215 C 0.80734 0.79323 0.92388 0.0
H216 H 0.81603 0.81538 0.10437 0.0
C217 C 0.78018 0.75582 0.92476 0.0
C218 C 0.765 0.74025 -0.01038 0.0
H219 H 0.81746 0.80501 0.87242 0.0
H220 H 0.76945 0.73992 0.87439 0.0
C221 C 0.77911 0.76146 0.05456 0.0
C222 C 0.1773 0.79967 0.05037 0.0
C223 C 0.16161 0.82023 0.98776 0.0
H224 H 0.22052 0.75007 0.09517 0.0
C225 C 0.17968 0.80694 0.92134 0.0
H226 H 0.1642 0.80917 0.10231 0.0
C227 C 0.21177 0.77321 0.9174 0.0
C228 C 0.22664 0.75212 0.97937 0.0
H229 H 0.16861 0.82212 0.87194 0.0
H230 H 0.22463 0.763 0.8656 0.0
C231 C 0.20956 0.76586 0.04628 0.0
C232 C 0.69221 0.70671 0.59539 0.0
C233 C 0.67199 0.69082 0.53086 0.0
H234 H 0.7407 0.75097 0.6445 0.0
C235 C 0.68283 0.71083 0.46621 0.0
H236 H 0.68453 0.6922 0.64611 0.0
C237 C 0.71489 0.74417 0.46557 0.0
C238 C 0.73663 0.75835 0.52972 0.0
H239 H 0.66766 0.69973 0.4155 0.0
H240 H 0.72359 0.7578 0.41467 0.0
C241 C 0.72425 0.74024 0.59463 0.0
C242 C 0.3265 0.69595 0.46583 0.0
C243 C 0.34338 0.67885 0.53064 0.0
H244 H 0.28202 0.74229 0.41563 0.0
C245 C 0.32648 0.69563 0.59586 0.0
H246 H 0.33862 0.68372 0.41459 0.0
C247 C 0.29397 0.72919 0.59621 0.0
C248 C 0.2777 0.74653 0.53173 0.0
H249 H 0.3386 0.68317 0.64674 0.0
H250 H 0.28175 0.74208 0.64699 0.0
C251 C 0.29399 0.72947 0.46631 0.0
C252 C 0.30168 0.30668 0.55727 0.0
C253 C 0.3232 0.32229 0.4969 0.0
H254 H 0.25155 0.26387 0.59633 0.0
C255 C 0.31203 0.30352 0.42867 0.0
H256 H 0.30947 0.32038 0.61049 0.0
C257 C 0.27887 0.27133 0.42065 0.0
C258 C 0.25623 0.25714 0.48031 0.0
H259 H 0.32809 0.31449 0.38092 0.0
H260 H 0.27001 0.25823 0.36747 0.0
C261 C 0.26841 0.27441 0.5491 0.0
C262 C 0.68686 0.31092 0.4627 0.0
C263 C 0.66888 0.3281 0.5269 0.0
H264 H 0.73078 0.26342 0.41347 0.0
C265 C 0.68427 0.31105 0.59259 0.0
H266 H 0.67601 0.3234 0.41116 0.0
C267 C 0.7158 0.27653 0.5937 0.0
C268 C 0.73251 0.25857 0.52953 0.0
H269 H 0.67123 0.3236 0.64302 0.0
H270 H 0.72648 0.26305 0.64462 0.0
C271 C 0.71832 0.27652 0.46394 0.0
C272 C 0.08306 0.11903 0.23729 0.0
C273 C 0.03624 0.11784 0.23399 0.0
H274 H 0.14198 0.12813 0.30356 0.0
C275 C 0.01273 0.12854 0.29647 0.0
H276 H 0.10217 0.11257 0.19 0.0
C277 C 0.03533 0.13854 0.36097 0.0
C278 C 0.08219 0.1378 0.36518 0.0
H279 H 0.97665 0.12888 0.29596 0.0
H280 H 0.01589 0.14686 0.40777 0.0
C281 C 0.10589 0.12865 0.30231 0.0
C282 C 0.91031 0.04586 0.26835 0.0
C283 C 0.87729 0.0375 0.21531 0.0
H284 H 0.92549 0.0746 0.37268 0.0
C285 C 0.83396 0.05374 0.22491 0.0
H286 H 0.94396 0.0334 0.26155 0.0
C287 C 0.8235 0.07773 0.28768 0.0
C288 C 0.85613 0.08505 0.34209 0.0
H289 H 0.80811 0.04724 0.18443 0.0
H290 H 0.78952 0.08913 0.29482 0.0
C291 C 0.89974 0.06923 0.33164 0.0
C292 C 0.95307 0.92437 0.26962 0.0
C293 C 0.95073 0.89333 0.21217 0.0
H294 H 0.93101 0.94278 0.37443 0.0
C295 C 0.92278 0.85646 0.21575 0.0
H296 H 0.97423 0.95332 0.26712 0.0
C297 C 0.89927 0.84929 0.27816 0.0
C298 C 0.90259 0.87951 0.33744 0.0
H299 H 0.92064 0.83224 0.17156 0.0
H300 H 0.88016 0.81901 0.28084 0.0
C301 C 0.92862 0.91799 0.33118 0.0
C302 C 0.13679 0.9853 0.29086 0.0
C303 C 0.12214 0.96237 0.22792 0.0
H304 H 0.15987 0.98119 0.39953 0.0
C305 C 0.11988 0.91565 0.22782 0.0
H306 H 0.13916 0.02129 0.29307 0.0
C307 C 0.13148 0.89245 0.28978 0.0
C308 C 0.14538 0.91568 0.35289 0.0
H309 H 0.10935 0.89698 0.18018 0.0
H310 H 0.12899 0.85648 0.28863 0.0
C311 C 0.14831 0.9623 0.35234 0.0
C312 C 0.14277 0.98613 0.68935 0.0
C313 C 0.13563 0.9625 0.75185 0.0
H314 H 0.15719 0.98288 0.57788 0.0
C315 C 0.13573 0.91571 0.74788 0.0
H316 H 0.14306 0.02221 0.69064 0.0
C317 C 0.14295 0.89299 0.68257 0.0
C318 C 0.15058 0.91665 0.62012 0.0
H319 H 0.13001 0.89658 0.79505 0.0
H320 H 0.14233 0.85694 0.68097 0.0
C321 C 0.15046 0.9635 0.62444 0.0
C322 C 0.00943 0.11649 0.69076 0.0
C323 C 0.03245 0.1114 0.75645 0.0
H324 H 0.01321 0.13211 0.58049 0.0
C325 C 0.07899 0.11572 0.75923 0.0
H326 H 0.97345 0.11388 0.68703 0.0
C327 C 0.10221 0.12426 0.69725 0.0
C328 C 0.0792 0.13032 0.63155 0.0
H329 H 0.09758 0.11262 0.80933 0.0
H330 H 0.13818 0.1263 0.70115 0.0
C331 C 0.03244 0.12642 0.62929 0.0
C332 C 0.86287 0.0796 0.73799 0.0
C333 C 0.85869 0.03304 0.73806 0.0
H334 H 0.86139 0.13833 0.67574 0.0
C335 C 0.84948 0.00979 0.67295 0.0
H336 H 0.87029 0.09845 0.78719 0.0
C337 C 0.84392 0.03269 0.60925 0.0
C338 C 0.84778 0.07932 0.60911 0.0
H339 H 0.84606 0.97391 0.67117 0.0
H340 H 0.83562 0.01384 0.56036 0.0
C341 C 0.85763 0.10248 0.67415 0.0
C342 C 0.91597 0.88605 0.73708 0.0
C343 C 0.96254 0.88946 0.73825 0.0
H344 H 0.85629 0.87928 0.67378 0.0
C345 C 0.98518 0.88539 0.67332 0.0
H346 H 0.89765 0.88808 0.78633 0.0
C347 C 0.96163 0.87765 0.60859 0.0
C348 C 0.91474 0.87505 0.60704 0.0
H349 H 0.0212 0.88731 0.67255 0.0
H350 H 0.98048 0.8728 0.56022 0.0
C351 C 0.8923 0.88005 0.67229 0.0
C352 C 0.54113 0.57495 0.82213 0.0
C353 C 0.54778 0.60278 0.7644 0.0
H354 H 0.56032 0.55841 0.92916 0.0
C355 C 0.5803 0.63586 0.77042 0.0
H356 H 0.51652 0.54874 0.81788 0.0
C357 C 0.60403 0.64292 0.83516 0.0
C358 C 0.59674 0.61598 0.89451 0.0
H359 H 0.58574 0.65771 0.7263 0.0
H360 H 0.6266 0.67083 0.8391 0.0
C361 C 0.56597 0.58089 0.88604 0.0
C362 C 0.355 0.50952 0.80906 0.0
C363 C 0.3715 0.53228 0.75067 0.0
H364 H 0.33172 0.51393 0.91636 0.0
C365 C 0.37531 0.57889 0.75614 0.0
H366 H 0.35141 0.47365 0.80678 0.0
C367 C 0.36403 0.60212 0.81943 0.0
C368 C 0.34904 0.57899 0.87842 0.0
H369 H 0.38728 0.59744 0.71206 0.0
H370 H 0.36819 0.63791 0.82292 0.0
C371 C 0.34395 0.53257 0.8721 0.0
C372 C 0.41694 0.38322 0.7462 0.0
C373 C 0.46307 0.39041 0.7488 0.0
H374 H 0.3584 0.37033 0.8049 0.0
C375 C 0.48628 0.38704 0.81478 0.0
H376 H 0.3984 0.38374 0.69596 0.0
C377 C 0.4639 0.37706 0.8767 0.0
C378 C 0.41742 0.37114 0.8749 0.0
H379 H 0.52201 0.39182 0.81881 0.0
H380 H 0.4835 0.37314 0.92566 0.0
C381 C 0.39417 0.37453 0.80874 0.0
C382 C 0.65091 0.4977 0.81582 0.0
C383 C 0.63304 0.47465 0.75517 0.0
H384 H 0.67604 0.49409 0.9236 0.0
C385 C 0.62884 0.42811 0.75721 0.0
H386 H 0.65491 0.53352 0.81633 0.0
C387 C 0.6408 0.40533 0.81942 0.0
C388 C 0.65708 0.42881 0.88073 0.0
H389 H 0.6159 0.40928 0.71135 0.0
H390 H 0.63603 0.36965 0.82028 0.0
C391 C 0.66281 0.4751 0.87764 0.0
C392 C 0.64076 0.50356 0.21466 0.0
C393 C 0.62867 0.48033 0.27531 0.0
H394 H 0.66229 0.49945 0.10643 0.0
C395 C 0.62773 0.43357 0.27158 0.0
H396 H 0.64242 0.53958 0.21625 0.0
C397 C 0.63831 0.41045 0.20813 0.0
C398 C 0.65075 0.43362 0.14744 0.0
H399 H 0.6187 0.41473 0.3176 0.0
H400 H 0.63647 0.37445 0.20659 0.0
C401 C 0.65193 0.48048 0.15155 0.0
C402 C 0.56468 0.65648 0.28006 0.0
C403 C 0.5367 0.61977 0.28747 0.0
H404 H 0.60986 0.68997 0.21402 0.0
C405 C 0.53522 0.58647 0.2329 0.0
H406 H 0.56647 0.68277 0.32107 0.0
C407 C 0.56111 0.58998 0.17199 0.0
C408 C 0.58863 0.62714 0.16385 0.0
H409 H 0.51434 0.55748 0.23747 0.0
H410 H 0.55974 0.56337 0.13152 0.0
C411 C 0.59001 0.66033 0.2188 0.0
C412 C 0.36786 0.50774 0.20657 0.0
C413 C 0.37682 0.53135 0.2713 0.0
H414 H 0.34898 0.51105 0.096 0.0
C415 C 0.37641 0.57811 0.27224 0.0
H416 H 0.36771 0.47165 0.20432 0.0
C417 C 0.36679 0.60089 0.20945 0.0
C418 C 0.35677 0.57729 0.14486 0.0
H419 H 0.38353 0.59713 0.32141 0.0
H420 H 0.36717 0.63695 0.21158 0.0
C421 C 0.3575 0.53043 0.14425 0.0
C422 C 0.48884 0.37965 0.20868 0.0
C423 C 0.4663 0.3801 0.2737 0.0
H424 H 0.4848 0.36977 0.09525 0.0
C425 C 0.42013 0.37285 0.27246 0.0
H426 H 0.52455 0.38456 0.20785 0.0
C427 C 0.39671 0.36626 0.20735 0.0
C428 C 0.41925 0.36531 0.14204 0.0
H429 H 0.4019 0.37284 0.32168 0.0
H430 H 0.36096 0.36208 0.20847 0.0
C431 C 0.46576 0.37172 0.14382 0.0
loop_
_geom_bond_atom_site_label_1
_geom_bond_atom_site_label_2
_geom_bond_distance
_geom_bond_site_symmetry_2
_ccdc_geom_bond_type
Zn0 O2 1.933 1_556 S
Zn0 O20 1.985 . S
Zn0 O31 1.955 . S
Zn1 O2 1.911 . S
Zn1 O21 1.970 . S
Zn1 O37 1.945 . S
Zn1 O44 1.981 . S
O2 Zn0 1.933 1_554 S
O2 Zn1 1.911 . S
O2 H3 0.841 1_655 S
H3 O2 0.841 1_455 S
C4 O5 1.246 . S
C4 O33 1.276 1_545 S
O5 C4 1.246 . S
Zn6 O8 1.911 . S
Zn6 O23 1.970 . S
Zn6 O40 1.945 . S
Zn6 O47 1.981 . S
Zn7 O8 1.933 1_556 S
Zn7 O22 1.985 . S
Zn7 O29 1.955 . S
O8 Zn6 1.911 . S
O8 Zn7 1.933 1_554 S
O8 H9 0.841 1_455 S
H9 O8 0.841 1_655 S
Zn10 O11 1.933 1_556 S
Zn10 O24 1.985 . S
Zn10 O33 1.955 . S
O11 Zn10 1.933 1_554 S
O11 Zn12 1.911 . S
O11 H13 0.841 1_565 S
Zn12 O11 1.911 . S
Zn12 O25 1.970 . S
Zn12 O41 1.981 . S
Zn12 O43 1.945 . S
H13 O11 0.841 1_545 S
Zn14 O15 1.933 1_556 S
Zn14 O27 1.985 . S
Zn14 O35 1.955 . S
O15 Zn14 1.933 1_554 S
O15 H16 0.841 1_545 S
O15 Zn17 1.911 . S
H16 O15 0.841 1_565 S
Zn17 O15 1.911 . S
Zn17 O28 1.970 . S
Zn17 O38 1.981 . S
Zn17 O46 1.945 . S
C18 O19 1.246 . S
C18 O35 1.276 1_565 S
O19 C18 1.246 . S
O20 Zn0 1.985 . S
O20 C30 1.245 1_556 S
O21 Zn1 1.970 . S
O21 C30 1.263 . S
O22 Zn7 1.985 . S
O22 C34 1.245 1_556 S
O23 Zn6 1.970 . S
O23 C34 1.263 . S
O24 Zn10 1.985 . S
O24 C39 1.245 1_556 S
O25 Zn12 1.970 . S
O25 C39 1.263 . S
C26 O37 1.262 1_455 S
C26 O38 1.245 . S
O27 Zn14 1.985 . S
O27 C45 1.245 1_556 S
O28 Zn17 1.970 . S
O28 C45 1.263 . S
O29 Zn7 1.955 . S
O29 C48 1.276 1_455 S
C30 O20 1.245 1_554 S
C30 O21 1.263 . S
O31 Zn0 1.955 . S
O31 C50 1.276 1_655 S
C32 O40 1.262 1_655 S
C32 O41 1.245 . S
O33 C4 1.276 1_565 S
O33 Zn10 1.955 . S
C34 O22 1.245 1_554 S
C34 O23 1.263 . S
O35 Zn14 1.955 . S
O35 C18 1.276 1_545 S
C36 O43 1.262 1_545 S
C36 O44 1.245 . S
O37 Zn1 1.945 . S
O37 C26 1.262 1_655 S
O38 Zn17 1.981 . S
O38 C26 1.245 . S
C39 O24 1.245 1_554 S
C39 O25 1.263 . S
O40 Zn6 1.945 . S
O40 C32 1.262 1_455 S
O41 Zn12 1.981 . S
O41 C32 1.245 . S
C42 O46 1.262 1_565 S
C42 O47 1.245 . S
O43 Zn12 1.945 . S
O43 C36 1.262 1_565 S
O44 Zn1 1.981 . S
O44 C36 1.245 . S
C45 O27 1.245 1_554 S
C45 O28 1.263 . S
O46 Zn17 1.945 . S
O46 C42 1.262 1_545 S
O47 Zn6 1.981 . S
O47 C42 1.245 . S
C48 O29 1.276 1_655 S
C48 O49 1.246 . S
O49 C48 1.246 . S
C50 O31 1.276 1_455 S
C50 O51 1.246 . S
O51 C50 1.246 . S
Zn52 O54 1.933 . S
Zn52 O72 1.985 . S
Zn52 O83 1.955 . S
Zn53 O54 1.911 . S
Zn53 O73 1.970 . S
Zn53 O89 1.945 . S
Zn53 O96 1.981 . S
O54 Zn52 1.933 . S
O54 Zn53 1.911 . S
O54 H55 0.841 . S
H55 O54 0.841 . S
C56 O57 1.246 . S
C56 O85 1.276 . S
O57 C56 1.246 . S
Zn58 O60 1.911 . S
Zn58 O75 1.970 . S
Zn58 O92 1.945 . S
Zn58 O99 1.981 . S
Zn59 O60 1.933 . S
Zn59 O74 1.985 . S
Zn59 O81 1.955 . S
O60 Zn58 1.911 . S
O60 Zn59 1.933 . S
O60 H61 0.841 . S
H61 O60 0.841 . S
Zn62 O63 1.933 . S
Zn62 O76 1.985 . S
Zn62 O85 1.955 . S
O63 Zn62 1.933 . S
O63 Zn64 1.911 . S
O63 H65 0.841 . S
Zn64 O63 1.911 . S
Zn64 O77 1.970 . S
Zn64 O93 1.981 . S
Zn64 O95 1.945 . S
H65 O63 0.841 . S
Zn66 O67 1.933 . S
Zn66 O79 1.985 . S
Zn66 O87 1.955 . S
O67 Zn66 1.933 . S
O67 H68 0.841 . S
O67 Zn69 1.911 . S
H68 O67 0.841 . S
Zn69 O67 1.911 . S
Zn69 O80 1.970 . S
Zn69 O90 1.981 . S
Zn69 O98 1.945 . S
C70 O71 1.246 . S
C70 O87 1.276 . S
O71 C70 1.246 . S
O72 Zn52 1.985 . S
O72 C82 1.245 . S
O73 Zn53 1.970 . S
O73 C82 1.263 . S
O74 Zn59 1.985 . S
O74 C86 1.245 . S
O75 Zn58 1.970 . S
O75 C86 1.263 . S
O76 Zn62 1.985 . S
O76 C91 1.245 . S
O77 Zn64 1.970 . S
O77 C91 1.263 . S
C78 O89 1.262 . S
C78 O90 1.245 . S
O79 Zn66 1.985 . S
O79 C97 1.245 . S
O80 Zn69 1.970 . S
O80 C97 1.263 . S
O81 Zn59 1.955 . S
O81 C100 1.276 . S
C82 O72 1.245 . S
C82 O73 1.263 . S
O83 Zn52 1.955 . S
O83 C102 1.276 . S
C84 O92 1.262 . S
C84 O93 1.245 . S
O85 C56 1.276 . S
O85 Zn62 1.955 . S
C86 O74 1.245 . S
C86 O75 1.263 . S
O87 Zn66 1.955 . S
O87 C70 1.276 . S
C88 O95 1.262 . S
C88 O96 1.245 . S
O89 Zn53 1.945 . S
O89 C78 1.262 . S
O90 Zn69 1.981 . S
O90 C78 1.245 . S
C91 O76 1.245 . S
C91 O77 1.263 . S
O92 Zn58 1.945 . S
O92 C84 1.262 . S
O93 Zn64 1.981 . S
O93 C84 1.245 . S
C94 O98 1.262 . S
C94 O99 1.245 . S
O95 Zn64 1.945 . S
O95 C88 1.262 . S
O96 Zn53 1.981 . S
O96 C88 1.245 . S
C97 O79 1.245 . S
C97 O80 1.263 . S
O98 Zn69 1.945 . S
O98 C94 1.262 . S
O99 Zn58 1.981 . S
O99 C94 1.245 . S
C100 O81 1.276 . S
C100 O101 1.246 . S
O101 C100 1.246 . S
C102 O83 1.276 . S
C102 O103 1.246 . S
O103 C102 1.246 . S
H104 C109 0.929 . S
H105 C114 0.931 . S
H106 C112 0.930 . S
N107 N108 1.234 1_556 S
N107 C111 1.453 . S
N108 N107 1.234 1_554 S
C109 H104 0.929 . S
C109 C110 1.373 . S
C109 C111 1.368 . S
C110 C109 1.373 . S
C110 C114 1.397 1_556 S
C111 N107 1.453 . S
C111 C109 1.368 . S
C111 C112 1.373 1_556 S
C112 H106 0.930 . S
C112 C111 1.373 1_554 S
C112 C113 1.371 . S
C113 C112 1.371 . S
C113 C114 1.383 . S
C114 H105 0.931 . S
C114 C110 1.397 1_554 S
C114 C113 1.383 . S
H115 C120 0.929 . S
H116 C125 0.931 . S
H117 C123 0.930 . S
N118 N119 1.234 1_554 S
N118 C122 1.453 . S
N119 N118 1.234 1_556 S
C120 H115 0.929 . S
C120 C121 1.373 . S
C120 C122 1.368 . S
C121 C120 1.373 . S
C121 C125 1.397 . S
C122 N118 1.453 . S
C122 C120 1.368 . S
C122 C123 1.373 1_554 S
C123 H117 0.930 . S
C123 C122 1.373 1_556 S
C123 C124 1.371 . S
C124 C123 1.371 . S
C124 C125 1.383 1_556 S
C125 H116 0.931 . S
C125 C121 1.397 . S
C125 C124 1.383 1_554 S
H126 C131 0.929 . S
H127 C136 0.931 . S
H128 C134 0.930 . S
N129 N130 1.229 1_554 S
N129 C133 1.453 . S
N130 N129 1.229 1_556 S
C131 H126 0.929 . S
C131 C132 1.373 . S
C131 C133 1.368 . S
C132 C131 1.373 . S
C132 C136 1.397 . S
C133 N129 1.453 . S
C133 C131 1.368 . S
C133 C134 1.373 1_554 S
C134 H128 0.930 . S
C134 C133 1.373 1_556 S
C134 C135 1.371 . S
C135 C134 1.371 . S
C135 C136 1.383 1_556 S
C136 H127 0.931 . S
C136 C132 1.397 . S
C136 C135 1.383 1_554 S
H137 C142 0.929 . S
H138 C147 0.931 . S
H139 C145 0.930 . S
N140 N141 1.234 1_554 S
N140 C144 1.453 . S
N141 N140 1.234 1_556 S
C142 H137 0.929 . S
C142 C143 1.373 . S
C142 C144 1.368 . S
C143 C142 1.373 . S
C143 C147 1.397 . S
C144 N140 1.453 . S
C144 C142 1.368 . S
C144 C145 1.373 1_554 S
C145 H139 0.930 . S
C145 C144 1.373 1_556 S
C145 C146 1.371 . S
C146 C145 1.371 . S
C146 C147 1.383 1_556 S
C147 H138 0.931 . S
C147 C143 1.397 . S
C147 C146 1.383 1_554 S
H148 C153 0.929 . S
H149 C158 0.931 . S
H150 C156 0.930 . S
N151 N152 1.234 . S
N151 C155 1.453 . S
N152 N151 1.234 . S
C153 H148 0.929 . S
C153 C154 1.373 . S
C153 C155 1.368 . S
C154 C153 1.373 . S
C154 C158 1.397 . S
C155 N151 1.453 . S
C155 C153 1.368 . S
C155 C156 1.373 . S
C156 H150 0.930 . S
C156 C155 1.373 . S
C156 C157 1.371 . S
C157 C156 1.371 . S
C157 C158 1.383 . S
C158 H149 0.931 . S
C158 C154 1.397 . S
C158 C157 1.383 . S
H159 C164 0.929 . S
H160 C169 0.931 . S
H161 C167 0.930 . S
N162 N163 1.234 . S
N162 C166 1.453 . S
N163 N162 1.234 . S
C164 H159 0.929 . S
C164 C165 1.373 . S
C164 C166 1.368 . S
C165 C164 1.373 . S
C165 C169 1.397 . S
C166 N162 1.453 . S
C166 C164 1.368 . S
C166 C167 1.373 . S
C167 H161 0.930 . S
C167 C166 1.373 . S
C167 C168 1.371 . S
C168 C167 1.371 . S
C168 C169 1.383 . S
C169 H160 0.931 . S
C169 C165 1.397 . S
C169 C168 1.383 . S
H170 C175 0.929 . S
H171 C180 0.931 . S
H172 C178 0.930 . S
N173 N174 1.234 . S
N173 C177 1.453 . S
N174 N173 1.234 . S
C175 H170 0.929 . S
C175 C176 1.373 . S
C175 C177 1.368 . S
C176 C175 1.373 . S
C176 C180 1.397 . S
C177 N173 1.453 . S
C177 C175 1.368 . S
C177 C178 1.373 . S
C178 H172 0.930 . S
C178 C177 1.373 . S
C178 C179 1.371 . S
C179 C178 1.371 . S
C179 C180 1.383 . S
C180 H171 0.931 . S
C180 C176 1.397 . S
C180 C179 1.383 . S
H181 C186 0.929 . S
H182 C191 0.931 . S
H183 C189 0.930 . S
N184 N185 1.234 . S
N184 C188 1.453 . S
N185 N184 1.234 . S
C186 H181 0.929 . S
C186 C187 1.373 . S
C186 C188 1.368 . S
C187 C186 1.373 . S
C187 C191 1.397 . S
C188 N184 1.453 . S
C188 C186 1.368 . S
C188 C189 1.373 . S
C189 H183 0.930 . S
C189 C188 1.373 . S
C189 C190 1.371 . S
C190 C189 1.371 . S
C190 C191 1.383 . S
C191 H182 0.931 . S
C191 C187 1.397 . S
C191 C190 1.383 . S
C192 C193 1.387 1_556 S
C192 H196 0.950 . S
C192 C201 1.390 . S
C193 C192 1.387 1_554 S
C193 C195 1.387 . S
H194 C201 0.950 . S
C195 C193 1.387 . S
C195 C197 1.390 . S
C195 H199 0.950 . S
H196 C192 0.950 . S
C197 C195 1.390 . S
C197 C198 1.387 . S
C197 H200 0.950 . S
C198 C197 1.387 . S
C198 C201 1.387 1_554 S
H199 C195 0.950 . S
H200 C197 0.950 . S
C201 C192 1.390 . S
C201 H194 0.950 . S
C201 C198 1.387 1_556 S
C202 C203 1.387 . S
C202 H206 0.950 . S
C202 C211 1.390 . S
C203 C202 1.387 . S
C203 C205 1.387 1_554 S
H204 C211 0.950 . S
C205 C203 1.387 1_556 S
C205 C207 1.390 . S
C205 H209 0.950 . S
H206 C202 0.950 . S
C207 C205 1.390 . S
C207 C208 1.387 1_556 S
C207 H210 0.950 . S
C208 C207 1.387 1_554 S
C208 C211 1.387 . S
H209 C205 0.950 . S
H210 C207 0.950 . S
C211 C202 1.390 . S
C211 H204 0.950 . S
C211 C208 1.387 . S
C212 C213 1.387 . S
C212 H216 0.950 . S
C212 C221 1.390 . S
C213 C212 1.387 . S
C213 C215 1.387 1_554 S
H214 C221 0.950 . S
C215 C213 1.387 1_556 S
C215 C217 1.390 . S
C215 H219 0.950 . S
H216 C212 0.950 . S
C217 C215 1.390 . S
C217 C218 1.387 1_556 S
C217 H220 0.950 . S
C218 C217 1.387 1_554 S
C218 C221 1.387 . S
H219 C215 0.950 . S
H220 C217 0.950 . S
C221 C212 1.390 . S
C221 H214 0.950 . S
C221 C218 1.387 . S
C222 C223 1.387 . S
C222 H226 0.950 . S
C222 C231 1.390 . S
C223 C222 1.387 . S
C223 C225 1.387 1_554 S
H224 C231 0.950 . S
C225 C223 1.387 1_556 S
C225 C227 1.390 . S
C225 H229 0.950 . S
H226 C222 0.950 . S
C227 C225 1.390 . S
C227 C228 1.388 1_556 S
C227 H230 0.950 . S
C228 C227 1.388 1_554 S
C228 C231 1.387 . S
H229 C225 0.950 . S
H230 C227 0.950 . S
C231 C222 1.390 . S
C231 H224 0.950 . S
C231 C228 1.387 . S
C232 C233 1.387 . S
C232 H236 0.950 . S
C232 C241 1.390 . S
C233 C232 1.387 . S
C233 C235 1.387 . S
H234 C241 0.950 . S
C235 C233 1.387 . S
C235 C237 1.390 . S
C235 H239 0.950 . S
H236 C232 0.950 . S
C237 C235 1.390 . S
C237 C238 1.387 . S
C237 H240 0.950 . S
C238 C237 1.387 . S
C238 C241 1.387 . S
H239 C235 0.950 . S
H240 C237 0.950 . S
C241 C232 1.390 . S
C241 H234 0.950 . S
C241 C238 1.387 . S
C242 C243 1.387 . S
C242 H246 0.950 . S
C242 C251 1.390 . S
C243 C242 1.387 . S
C243 C245 1.387 . S
H244 C251 0.950 . S
C245 C243 1.387 . S
C245 C247 1.390 . S
C245 H249 0.950 . S
H246 C242 0.950 . S
C247 C245 1.390 . S
C247 C248 1.387 . S
C247 H250 0.950 . S
C248 C247 1.387 . S
C248 C251 1.387 . S
H249 C245 0.950 . S
H250 C247 0.950 . S
C251 C242 1.390 . S
C251 H244 0.950 . S
C251 C248 1.387 . S
C252 C253 1.387 . S
C252 H256 0.950 . S
C252 C261 1.390 . S
C253 C252 1.387 . S
C253 C255 1.387 . S
H254 C261 0.950 . S
C255 C253 1.387 . S
C255 C257 1.390 . S
C255 H259 0.950 . S
H256 C252 0.950 . S
C257 C255 1.390 . S
C257 C258 1.387 . S
C257 H260 0.950 . S
C258 C257 1.387 . S
C258 C261 1.387 . S
H259 C255 0.950 . S
H260 C257 0.950 . S
C261 C252 1.390 . S
C261 H254 0.950 . S
C261 C258 1.387 . S
C262 C263 1.387 . S
C262 H266 0.950 . S
C262 C271 1.390 . S
C263 C262 1.387 . S
C263 C265 1.387 . S
H264 C271 0.950 . S
C265 C263 1.387 . S
C265 C267 1.390 . S
C265 H269 0.950 . S
H266 C262 0.950 . S
C267 C265 1.390 . S
C267 C268 1.387 . S
C267 H270 0.950 . S
C268 C267 1.387 . S
C268 C271 1.387 . S
H269 C265 0.950 . S
H270 C267 0.950 . S
C271 C262 1.390 . S
C271 H264 0.950 . S
C271 C268 1.387 . S
C272 C273 1.387 . S
C272 H276 0.950 . S
C272 C281 1.390 . S
C273 C272 1.387 . S
C273 C275 1.387 . S
H274 C281 0.950 . S
C275 C273 1.387 . S
C275 C277 1.390 . S
C275 H279 0.950 1_455 S
H276 C272 0.950 . S
C277 C275 1.390 . S
C277 C278 1.387 . S
C277 H280 0.950 . S
C278 C277 1.387 . S
C278 C281 1.387 . S
H279 C275 0.950 1_655 S
H280 C277 0.950 . S
C281 C272 1.390 . S
C281 H274 0.950 . S
C281 C278 1.387 . S
C282 C283 1.387 . S
C282 H286 0.950 . S
C282 C291 1.390 . S
C283 C282 1.387 . S
C283 C285 1.387 . S
H284 C291 0.950 . S
C285 C283 1.387 . S
C285 C287 1.390 . S
C285 H289 0.950 1_545 S
H286 C282 0.950 . S
C287 C285 1.390 . S
C287 C288 1.387 . S
C287 H290 0.950 . S
C288 C287 1.387 . S
C288 C291 1.387 . S
H289 C285 0.950 1_565 S
H290 C287 0.950 . S
C291 C282 1.390 . S
C291 H284 0.950 . S
C291 C288 1.387 . S
C292 C293 1.387 . S
C292 H296 0.950 . S
C292 C301 1.390 . S
C293 C292 1.387 . S
C293 C295 1.387 . S
H294 C301 0.950 . S
C295 C293 1.387 . S
C295 C297 1.390 . S
C295 H299 0.950 . S
H296 C292 0.950 . S
C297 C295 1.390 . S
C297 C298 1.387 . S
C297 H300 0.950 . S
C298 C297 1.387 . S
C298 C301 1.387 . S
H299 C295 0.950 . S
H300 C297 0.950 . S
C301 C292 1.390 . S
C301 H294 0.950 . S
C301 C298 1.387 . S
C302 C303 1.387 . S
C302 H306 0.950 1_565 S
C302 C311 1.390 . S
C303 C302 1.387 . S
C303 C305 1.387 . S
H304 C311 0.950 1_545 S
C305 C303 1.387 . S
C305 C307 1.390 . S
C305 H309 0.950 . S
H306 C302 0.950 1_545 S
C307 C305 1.390 . S
C307 C308 1.387 . S
C307 H310 0.950 . S
C308 C307 1.387 . S
C308 C311 1.387 . S
H309 C305 0.950 . S
H310 C307 0.950 . S
C311 C302 1.390 . S
C311 H304 0.950 1_565 S
C311 C308 1.387 . S
C312 C313 1.387 . S
C312 H316 0.950 1_565 S
C312 C321 1.390 . S
C313 C312 1.387 . S
C313 C315 1.387 . S
H314 C321 0.950 . S
C315 C313 1.387 . S
C315 C317 1.390 . S
C315 H319 0.950 . S
H316 C312 0.950 1_545 S
C317 C315 1.390 . S
C317 C318 1.387 . S
C317 H320 0.950 . S
C318 C317 1.387 . S
C318 C321 1.387 . S
H319 C315 0.950 . S
H320 C317 0.950 . S
C321 C312 1.390 . S
C321 H314 0.950 . S
C321 C318 1.387 . S
C322 C323 1.387 . S
C322 H326 0.950 1_455 S
C322 C331 1.390 . S
C323 C322 1.387 . S
C323 C325 1.387 . S
H324 C331 0.950 . S
C325 C323 1.387 . S
C325 C327 1.390 . S
C325 H329 0.950 . S
H326 C322 0.950 1_655 S
C327 C325 1.390 . S
C327 C328 1.387 . S
C327 H330 0.950 . S
C328 C327 1.387 . S
C328 C331 1.387 . S
H329 C325 0.950 . S
H330 C327 0.950 . S
C331 C322 1.390 . S
C331 H324 0.950 . S
C331 C328 1.387 . S
C332 C333 1.387 . S
C332 H336 0.950 . S
C332 C341 1.390 . S
C333 C332 1.387 . S
C333 C335 1.387 . S
H334 C341 0.950 . S
C335 C333 1.387 . S
C335 C337 1.390 . S
C335 H339 0.950 . S
H336 C332 0.950 . S
C337 C335 1.390 . S
C337 C338 1.387 . S
C337 H340 0.950 . S
C338 C337 1.387 . S
C338 C341 1.387 . S
H339 C335 0.950 . S
H340 C337 0.950 . S
C341 C332 1.390 . S
C341 H334 0.950 . S
C341 C338 1.387 . S
C342 C343 1.387 . S
C342 H346 0.950 . S
C342 C351 1.390 . S
C343 C342 1.387 . S
C343 C345 1.387 . S
H344 C351 0.950 . S
C345 C343 1.387 . S
C345 C347 1.390 . S
C345 H349 0.950 1_655 S
H346 C342 0.950 . S
C347 C345 1.390 . S
C347 C348 1.387 . S
C347 H350 0.950 . S
C348 C347 1.387 . S
C348 C351 1.387 . S
H349 C345 0.950 1_455 S
H350 C347 0.950 . S
C351 C342 1.390 . S
C351 H344 0.950 . S
C351 C348 1.387 . S
C352 C353 1.387 . S
C352 H356 0.950 . S
C352 C361 1.390 . S
C353 C352 1.387 . S
C353 C355 1.387 . S
H354 C361 0.950 . S
C355 C353 1.387 . S
C355 C357 1.390 . S
C355 H359 0.950 . S
H356 C352 0.950 . S
C357 C355 1.390 . S
C357 C358 1.387 . S
C357 H360 0.950 . S
C358 C357 1.387 . S
C358 C361 1.387 . S
H359 C355 0.950 . S
H360 C357 0.950 . S
C361 C352 1.390 . S
C361 H354 0.950 . S
C361 C358 1.387 . S
C362 C363 1.387 . S
C362 H366 0.950 . S
C362 C371 1.390 . S
C363 C362 1.387 . S
C363 C365 1.387 . S
H364 C371 0.950 . S
C365 C363 1.387 . S
C365 C367 1.390 . S
C365 H369 0.950 . S
H366 C362 0.950 . S
C367 C365 1.390 . S
C367 C368 1.387 . S
C367 H370 0.950 . S
C368 C367 1.387 . S
C368 C371 1.387 . S
H369 C365 0.950 . S
H370 C367 0.950 . S
C371 C362 1.390 . S
C371 H364 0.950 . S
C371 C368 1.387 . S
C372 C373 1.387 . S
C372 H376 0.950 . S
C372 C381 1.390 . S
C373 C372 1.387 . S
C373 C375 1.387 . S
H374 C381 0.950 . S
C375 C373 1.387 . S
C375 C377 1.390 . S
C375 H379 0.950 . S
H376 C372 0.950 . S
C377 C375 1.390 . S
C377 C378 1.387 . S
C377 H380 0.950 . S
C378 C377 1.387 . S
C378 C381 1.387 . S
H379 C375 0.950 . S
H380 C377 0.950 . S
C381 C372 1.390 . S
C381 H374 0.950 . S
C381 C378 1.387 . S
C382 C383 1.387 . S
C382 H386 0.950 . S
C382 C391 1.390 . S
C383 C382 1.387 . S
C383 C385 1.387 . S
H384 C391 0.950 . S
C385 C383 1.387 . S
C385 C387 1.390 . S
C385 H389 0.950 . S
H386 C382 0.950 . S
C387 C385 1.390 . S
C387 C388 1.387 . S
C387 H390 0.950 . S
C388 C387 1.387 . S
C388 C391 1.387 . S
H389 C385 0.950 . S
H390 C387 0.950 . S
C391 C382 1.390 . S
C391 H384 0.950 . S
C391 C388 1.387 . S
C392 C393 1.387 . S
C392 H396 0.950 . S
C392 C401 1.390 . S
C393 C392 1.387 . S
C393 C395 1.387 . S
H394 C401 0.950 . S
C395 C393 1.387 . S
C395 C397 1.390 . S
C395 H399 0.950 . S
H396 C392 0.950 . S
C397 C395 1.390 . S
C397 C398 1.387 . S
C397 H400 0.950 . S
C398 C397 1.387 . S
C398 C401 1.387 . S
H399 C395 0.950 . S
H400 C397 0.950 . S
C401 C392 1.390 . S
C401 H394 0.950 . S
C401 C398 1.387 . S
C402 C403 1.387 . S
C402 H406 0.950 . S
C402 C411 1.390 . S
C403 C402 1.387 . S
C403 C405 1.387 . S
H404 C411 0.950 . S
C405 C403 1.387 . S
C405 C407 1.390 . S
C405 H409 0.950 . S
H406 C402 0.950 . S
C407 C405 1.390 . S
C407 C408 1.387 . S
C407 H410 0.950 . S
C408 C407 1.387 . S
C408 C411 1.387 . S
H409 C405 0.950 . S
H410 C407 0.950 . S
C411 C402 1.390 . S
C411 H404 0.950 . S
C411 C408 1.387 . S
C412 C413 1.387 . S
C412 H416 0.950 . S
C412 C421 1.390 . S
C413 C412 1.387 . S
C413 C415 1.387 . S
H414 C421 0.950 . S
C415 C413 1.387 . S
C415 C417 1.390 . S
C415 H419 0.950 . S
H416 C412 0.950 . S
C417 C415 1.390 . S
C417 C418 1.387 . S
C417 H420 0.950 . S
C418 C417 1.387 . S
C418 C421 1.387 . S
H419 C415 0.950 . S
H420 C417 0.950 . S
C421 C412 1.390 . S
C421 H414 0.950 . S
C421 C418 1.387 . S
C422 C423 1.387 . S
C422 H426 0.950 . S
C422 C431 1.390 . S
C423 C422 1.387 . S
C423 C425 1.387 . S
H424 C431 0.950 . S
C425 C423 1.387 . S
C425 C427 1.390 . S
C425 H429 0.950 . S
H426 C422 0.950 . S
C427 C425 1.390 . S
C427 C428 1.387 . S
C427 H430 0.950 . S
C428 C427 1.387 . S
C428 C431 1.387 . S
H429 C425 0.950 . S
H430 C427 0.950 . S
C431 C422 1.390 . S
C431 H424 0.950 . S
C431 C428 1.387 . S
C193 C45 1.550 . S
C198 N108 1.563 . S
C203 C30 1.554 . S
C208 N119 1.556 1_554 S
C213 C39 1.551 . S
C218 N130 1.550 1_554 S
C228 N141 1.555 1_554 S
C223 C34 1.553 . S
C233 C97 1.551 . S
C238 N152 1.560 . S
C248 N163 1.562 . S
C243 C82 1.550 . S
C258 N174 1.556 . S
C253 C91 1.553 . S
C268 N185 1.563 . S
C263 C86 1.551 . S
C278 C179 1.561 . S
C273 C26 1.520 . S
C288 C187 1.488 . S
C283 C36 1.450 . S
C298 C154 1.545 . S
C293 C32 1.507 . S
C308 C165 1.487 . S
C303 C42 1.453 . S
C313 C18 1.577 . S
C318 C168 1.629 . S
C328 C176 1.583 . S
C323 C50 1.506 . S
C333 C4 1.576 . S
C338 C190 1.621 . S
C343 C48 1.515 . S
C348 C157 1.564 . S
C358 C135 1.510 . S
C353 C78 1.468 . S
C363 C88 1.523 . S
C368 C146 1.569 . S
C378 C110 1.497 . S
C373 C84 1.459 . S
C388 C124 1.567 . S
C383 C94 1.528 . S
C398 C121 1.575 . S
C393 C70 1.497 . S
C408 C132 1.630 . S
C403 C102 1.552 . S
C413 C56 1.499 . S
C418 C143 1.570 . S
C423 C100 1.568 . S
C428 C113 1.615 . S
