# Generated by pormake.
# Topology eea, (3,6)-cn, num edge types: 1
# Building blocks:
#     Node 0, Type 0, BuildingBlock: ESEHIV_clean_linker_0, # of connection points: 3
#     Node 1, Type 0, BuildingBlock: ESEHIV_clean_linker_0, # of connection points: 3
#     Node 2, Type 0, BuildingBlock: ESEHIV_clean_linker_0, # of connection points: 3
#     Node 3, Type 0, BuildingBlock: ESEHIV_clean_linker_0, # of connection points: 3
#     Node 4, Type 0, BuildingBlock: ESEHIV_clean_linker_0, # of connection points: 3
#     Node 5, Type 0, BuildingBlock: ESEHIV_clean_linker_0, # of connection points: 3
#     Node 6, Type 0, BuildingBlock: ESEHIV_clean_linker_0, # of connection points: 3
#     Node 7, Type 0, BuildingBlock: ESEHIV_clean_linker_0, # of connection points: 3
#     Node 8, Type 0, BuildingBlock: ESEHIV_clean_linker_0, # of connection points: 3
#     Node 9, Type 0, BuildingBlock: ESEHIV_clean_linker_0, # of connection points: 3
#     Node 10, Type 0, BuildingBlock: ESEHIV_clean_linker_0, # of connection points: 3
#     Node 11, Type 0, BuildingBlock: ESEHIV_clean_linker_0, # of connection points: 3
#     Node 12, Type 0, BuildingBlock: ESEHIV_clean_linker_0, # of connection points: 3
#     Node 13, Type 0, BuildingBlock: ESEHIV_clean_linker_0, # of connection points: 3
#     Node 14, Type 0, BuildingBlock: ESEHIV_clean_linker_0, # of connection points: 3
#     Node 15, Type 0, BuildingBlock: ESEHIV_clean_linker_0, # of connection points: 3
#     Node 16, Type 0, BuildingBlock: ESEHIV_clean_linker_0, # of connection points: 3
#     Node 17, Type 0, BuildingBlock: ESEHIV_clean_linker_0, # of connection points: 3
#     Node 18, Type 1, BuildingBlock: NUHQIS_clean_sbu_0, # of connection points: 6
#     Node 19, Type 1, BuildingBlock: NUHQIS_clean_sbu_0, # of connection points: 6
#     Node 20, Type 1, BuildingBlock: NUHQIS_clean_sbu_0, # of connection points: 6
#     Node 21, Type 1, BuildingBlock: NUHQIS_clean_sbu_0, # of connection points: 6
#     Node 22, Type 1, BuildingBlock: NUHQIS_clean_sbu_0, # of connection points: 6
#     Node 23, Type 1, BuildingBlock: NUHQIS_clean_sbu_0, # of connection points: 6
#     Node 24, Type 1, BuildingBlock: NUHQIS_clean_sbu_0, # of connection points: 6
#     Node 25, Type 1, BuildingBlock: NUHQIS_clean_sbu_0, # of connection points: 6
#     Node 26, Type 1, BuildingBlock: NUHQIS_clean_sbu_0, # of connection points: 6
#     Edge 27, Type (0, 1), BuildingBlock: TEMPAE_clean_linker_10, # of connection points: 2
#     Edge 28, Type (0, 1), BuildingBlock: TEMPAE_clean_linker_10, # of connection points: 2
#     Edge 29, Type (0, 1), BuildingBlock: TEMPAE_clean_linker_10, # of connection points: 2
#     Edge 30, Type (0, 1), BuildingBlock: TEMPAE_clean_linker_10, # of connection points: 2
#     Edge 31, Type (0, 1), BuildingBlock: TEMPAE_clean_linker_10, # of connection points: 2
#     Edge 32, Type (0, 1), BuildingBlock: TEMPAE_clean_linker_10, # of connection points: 2
#     Edge 33, Type (0, 1), BuildingBlock: TEMPAE_clean_linker_10, # of connection points: 2
#     Edge 34, Type (0, 1), BuildingBlock: TEMPAE_clean_linker_10, # of connection points: 2
#     Edge 35, Type (0, 1), BuildingBlock: TEMPAE_clean_linker_10, # of connection points: 2
#     Edge 36, Type (0, 1), BuildingBlock: TEMPAE_clean_linker_10, # of connection points: 2
#     Edge 37, Type (0, 1), BuildingBlock: TEMPAE_clean_linker_10, # of connection points: 2
#     Edge 38, Type (0, 1), BuildingBlock: TEMPAE_clean_linker_10, # of connection points: 2
#     Edge 39, Type (0, 1), BuildingBlock: TEMPAE_clean_linker_10, # of connection points: 2
#     Edge 40, Type (0, 1), BuildingBlock: TEMPAE_clean_linker_10, # of connection points: 2
#     Edge 41, Type (0, 1), BuildingBlock: TEMPAE_clean_linker_10, # of connection points: 2
#     Edge 42, Type (0, 1), BuildingBlock: TEMPAE_clean_linker_10, # of connection points: 2
#     Edge 43, Type (0, 1), BuildingBlock: TEMPAE_clean_linker_10, # of connection points: 2
#     Edge 44, Type (0, 1), BuildingBlock: TEMPAE_clean_linker_10, # of connection points: 2
#     Edge 45, Type (0, 1), BuildingBlock: TEMPAE_clean_linker_10, # of connection points: 2
#     Edge 46, Type (0, 1), BuildingBlock: TEMPAE_clean_linker_10, # of connection points: 2
#     Edge 47, Type (0, 1), BuildingBlock: TEMPAE_clean_linker_10, # of connection points: 2
#     Edge 48, Type (0, 1), BuildingBlock: TEMPAE_clean_linker_10, # of connection points: 2
#     Edge 49, Type (0, 1), BuildingBlock: TEMPAE_clean_linker_10, # of connection points: 2
#     Edge 50, Type (0, 1), BuildingBlock: TEMPAE_clean_linker_10, # of connection points: 2
#     Edge 51, Type (0, 1), BuildingBlock: TEMPAE_clean_linker_10, # of connection points: 2
#     Edge 52, Type (0, 1), BuildingBlock: TEMPAE_clean_linker_10, # of connection points: 2
#     Edge 53, Type (0, 1), BuildingBlock: TEMPAE_clean_linker_10, # of connection points: 2
#     Edge 54, Type (0, 1), BuildingBlock: TEMPAE_clean_linker_10, # of connection points: 2
#     Edge 55, Type (0, 1), BuildingBlock: TEMPAE_clean_linker_10, # of connection points: 2
#     Edge 56, Type (0, 1), BuildingBlock: TEMPAE_clean_linker_10, # of connection points: 2
#     Edge 57, Type (0, 1), BuildingBlock: TEMPAE_clean_linker_10, # of connection points: 2
#     Edge 58, Type (0, 1), BuildingBlock: TEMPAE_clean_linker_10, # of connection points: 2
#     Edge 59, Type (0, 1), BuildingBlock: TEMPAE_clean_linker_10, # of connection points: 2
#     Edge 60, Type (0, 1), BuildingBlock: TEMPAE_clean_linker_10, # of connection points: 2
#     Edge 61, Type (0, 1), BuildingBlock: TEMPAE_clean_linker_10, # of connection points: 2
#     Edge 62, Type (0, 1), BuildingBlock: TEMPAE_clean_linker_10, # of connection points: 2
#     Edge 63, Type (0, 1), BuildingBlock: TEMPAE_clean_linker_10, # of connection points: 2
#     Edge 64, Type (0, 1), BuildingBlock: TEMPAE_clean_linker_10, # of connection points: 2
#     Edge 65, Type (0, 1), BuildingBlock: TEMPAE_clean_linker_10, # of connection points: 2
#     Edge 66, Type (0, 1), BuildingBlock: TEMPAE_clean_linker_10, # of connection points: 2
#     Edge 67, Type (0, 1), BuildingBlock: TEMPAE_clean_linker_10, # of connection points: 2
#     Edge 68, Type (0, 1), BuildingBlock: TEMPAE_clean_linker_10, # of connection points: 2
#     Edge 69, Type (0, 1), BuildingBlock: TEMPAE_clean_linker_10, # of connection points: 2
#     Edge 70, Type (0, 1), BuildingBlock: TEMPAE_clean_linker_10, # of connection points: 2
#     Edge 71, Type (0, 1), BuildingBlock: TEMPAE_clean_linker_10, # of connection points: 2
#     Edge 72, Type (0, 1), BuildingBlock: TEMPAE_clean_linker_10, # of connection points: 2
#     Edge 73, Type (0, 1), BuildingBlock: TEMPAE_clean_linker_10, # of connection points: 2
#     Edge 74, Type (0, 1), BuildingBlock: TEMPAE_clean_linker_10, # of connection points: 2
#     Edge 75, Type (0, 1), BuildingBlock: TEMPAE_clean_linker_10, # of connection points: 2
#     Edge 76, Type (0, 1), BuildingBlock: TEMPAE_clean_linker_10, # of connection points: 2
#     Edge 77, Type (0, 1), BuildingBlock: TEMPAE_clean_linker_10, # of connection points: 2
#     Edge 78, Type (0, 1), BuildingBlock: TEMPAE_clean_linker_10, # of connection points: 2
#     Edge 79, Type (0, 1), BuildingBlock: TEMPAE_clean_linker_10, # of connection points: 2
#     Edge 80, Type (0, 1), BuildingBlock: TEMPAE_clean_linker_10, # of connection points: 2
# Relax obj value: 0.035
# Max RMSD: 0.131
# Mean RMSD: 0.089
data_MOF--net-eea--node1-NUHQIS_clean_sbu_0--node2-ESEHIV_clean_linker_0--edge1-TEMPAE_clean_linker_10
_symmetry_space_group_name_H-M    P1
_symmetry_Int_Tables_number       1
_symmetry_cell_setting            triclinic
loop_
_symmetry_equiv_pos_as_xyz
'x, y, z'
_cell_length_a     48.802388
_cell_length_b     48.677537
_cell_length_c     73.174543
_cell_angle_alpha  93.250631
_cell_angle_beta   93.432579
_cell_angle_gamma 119.6567
loop_
_atom_site_label
_atom_site_type_symbol
_atom_site_fract_x
_atom_site_fract_y
_atom_site_fract_z
_atom_type_partial_charge
H0 H 0.28738 0.1931 0.43867 0.0
H1 H 0.2923 0.10717 0.438 0.0
H2 H 0.25095 0.12609 0.39037 0.0
C3 C 0.28345 0.17121 0.43142 0.0
C4 C 0.26815 0.16194 0.41344 0.0
C5 C 0.29258 0.15172 0.44034 0.0
C6 C 0.28665 0.12302 0.43096 0.0
C7 C 0.27134 0.11351 0.41303 0.0
C8 C 0.26257 0.13327 0.40429 0.0
H9 H 0.83888 0.10035 0.44586 0.0
H10 H 0.9264 0.18782 0.44381 0.0
H11 H 0.89022 0.11471 0.3984 0.0
C12 C 0.85908 0.11533 0.43865 0.0
C13 C 0.86175 0.10418 0.42116 0.0
C14 C 0.8821 0.14554 0.44693 0.0
C15 C 0.90856 0.16442 0.43759 0.0
C16 C 0.91147 0.15358 0.41993 0.0
C17 C 0.88784 0.12351 0.41182 0.0
H18 H 0.84157 0.75159 0.45053 0.0
H19 H 0.92896 0.74967 0.45034 0.0
H20 H 0.90156 0.79044 0.4073 0.0
C21 C 0.86279 0.75645 0.44415 0.0
C22 C 0.86856 0.77126 0.42776 0.0
C23 C 0.8844 0.74864 0.45261 0.0
C24 C 0.91225 0.75595 0.44428 0.0
C25 C 0.91872 0.77145 0.42809 0.0
C26 C 0.8969 0.77919 0.42001 0.0
H27 H 0.06437 0.24178 0.57544 0.0
H28 H 0.15254 0.24165 0.57475 0.0
H29 H 0.09633 0.20705 0.61994 0.0
C30 C 0.08164 0.23634 0.58164 0.0
C31 C 0.07696 0.22339 0.59868 0.0
C32 C 0.10918 0.24358 0.573 0.0
C33 C 0.13169 0.23701 0.58148 0.0
C34 C 0.12717 0.22369 0.59834 0.0
C35 C 0.0998 0.21705 0.60684 0.0
H36 H 0.69715 0.88484 0.5862 0.0
H37 H 0.6962 0.79606 0.58773 0.0
H38 H 0.74717 0.87049 0.63161 0.0
C39 C 0.7032 0.86935 0.59334 0.0
C40 C 0.72251 0.88099 0.6101 0.0
C41 C 0.69372 0.83881 0.58508 0.0
C42 C 0.70302 0.81953 0.59405 0.0
C43 C 0.7225 0.83108 0.61073 0.0
C44 C 0.73206 0.86167 0.61871 0.0
H45 H 0.06942 0.80208 0.5789 0.0
H46 H 0.15923 0.88777 0.57814 0.0
H47 H 0.1028 0.87799 0.62259 0.0
C48 C 0.08735 0.82537 0.58521 0.0
C49 C 0.08269 0.83766 0.60192 0.0
C50 C 0.11503 0.84324 0.57654 0.0
C51 C 0.13809 0.87343 0.58481 0.0
C52 C 0.13349 0.88603 0.60122 0.0
C53 C 0.10587 0.86821 0.6097 0.0
H54 H 0.95481 0.52915 0.77612 0.0
H55 H 0.95939 0.44286 0.77521 0.0
H56 H 0.91259 0.45915 0.72923 0.0
C57 C 0.95038 0.50699 0.76898 0.0
C58 C 0.93352 0.49703 0.75139 0.0
C59 C 0.95958 0.4875 0.77785 0.0
C60 C 0.95253 0.45826 0.76864 0.0
C61 C 0.93528 0.448 0.7513 0.0
C62 C 0.92597 0.46738 0.74269 0.0
H63 H 0.51023 0.4349 0.77993 0.0
H64 H 0.59876 0.52146 0.77849 0.0
H65 H 0.56356 0.4478 0.73344 0.0
C66 C 0.53069 0.44963 0.77284 0.0
C67 C 0.53405 0.43793 0.75568 0.0
C68 C 0.55386 0.47968 0.78121 0.0
C69 C 0.58095 0.49808 0.77224 0.0
C70 C 0.58446 0.48682 0.75487 0.0
C71 C 0.56095 0.45667 0.74677 0.0
H72 H 0.50391 0.08164 0.7822 0.0
H73 H 0.59246 0.08203 0.7824 0.0
H74 H 0.56094 0.11618 0.73736 0.0
C75 C 0.52508 0.08657 0.77574 0.0
C76 C 0.52972 0.09946 0.75875 0.0
C77 C 0.5474 0.0799 0.78439 0.0
C78 C 0.57501 0.08691 0.77587 0.0
C79 C 0.58025 0.1003 0.75894 0.0
C80 C 0.55729 0.10619 0.75047 0.0
H81 H 0.73549 0.58066 0.91027 0.0
H82 H 0.82467 0.58253 0.90981 0.0
H83 H 0.76802 0.54596 0.95459 0.0
C84 C 0.75317 0.57593 0.91662 0.0
C85 C 0.74814 0.56201 0.93338 0.0
C86 C 0.78087 0.58368 0.90799 0.0
C87 C 0.80346 0.57712 0.91637 0.0
C88 C 0.7991 0.56372 0.9332 0.0
C89 C 0.77145 0.55632 0.9416 0.0
H90 H 0.35818 0.21034 0.92039 0.0
H91 H 0.36015 0.12323 0.92311 0.0
H92 H 0.39834 0.19414 0.96958 0.0
C93 C 0.36342 0.19482 0.92809 0.0
C94 C 0.37837 0.20533 0.94608 0.0
C95 C 0.35652 0.16511 0.91971 0.0
C96 C 0.36463 0.14582 0.92963 0.0
C97 C 0.37988 0.15624 0.94759 0.0
C98 C 0.38615 0.18577 0.95582 0.0
H99 H 0.72395 0.15135 0.90685 0.0
H100 H 0.81456 0.23656 0.90743 0.0
H101 H 0.76376 0.21827 0.95526 0.0
C102 C 0.74287 0.17346 0.9139 0.0
C103 C 0.74082 0.18232 0.93222 0.0
C104 C 0.7694 0.193 0.90476 0.0
C105 C 0.79382 0.22147 0.9142 0.0
C106 C 0.79184 0.23083 0.93231 0.0
C107 C 0.76531 0.21116 0.94122 0.0
H108 H 0.61966 0.85756 0.10584 0.0
H109 H 0.6189 0.76879 0.10623 0.0
H110 H 0.58141 0.78995 0.05785 0.0
C111 C 0.61421 0.83489 0.09892 0.0
C112 C 0.59981 0.82619 0.08076 0.0
C113 C 0.62157 0.8145 0.10818 0.0
C114 C 0.61456 0.78529 0.09898 0.0
C115 C 0.60005 0.7763 0.08085 0.0
C116 C 0.59302 0.79699 0.07177 0.0
H117 H 0.176 0.77422 0.11539 0.0
H118 H 0.26582 0.85913 0.11351 0.0
H119 H 0.22569 0.78728 0.06733 0.0
C120 C 0.19649 0.78848 0.1082 0.0
C121 C 0.19816 0.77725 0.09049 0.0
C122 C 0.22067 0.818 0.11664 0.0
C123 C 0.24671 0.83666 0.10694 0.0
C124 C 0.24886 0.82563 0.08914 0.0
C125 C 0.22428 0.79601 0.081 0.0
H126 H 0.17182 0.41459 0.11578 0.0
H127 H 0.2598 0.41394 0.11595 0.0
H128 H 0.23283 0.45558 0.07318 0.0
C129 C 0.19329 0.42006 0.1095 0.0
C130 C 0.19946 0.43569 0.09339 0.0
C131 C 0.21496 0.41233 0.11791 0.0
C132 C 0.24307 0.42013 0.10979 0.0
C133 C 0.24968 0.43592 0.09371 0.0
C134 C 0.22796 0.44389 0.08573 0.0
H135 H 0.40133 0.90842 0.24197 0.0
H136 H 0.4907 0.91029 0.24249 0.0
H137 H 0.43201 0.87174 0.28611 0.0
C138 C 0.41893 0.90376 0.24851 0.0
C139 C 0.41334 0.88948 0.26517 0.0
C140 C 0.44654 0.91086 0.23993 0.0
C141 C 0.46895 0.90431 0.24857 0.0
C142 C 0.46363 0.89009 0.26508 0.0
C143 C 0.43581 0.88251 0.27324 0.0
H144 H 0.02234 0.54675 0.25507 0.0
H145 H 0.02647 0.4604 0.25547 0.0
H146 H 0.07097 0.53236 0.30117 0.0
C147 C 0.0291 0.5316 0.26203 0.0
C148 C 0.04656 0.54255 0.27939 0.0
C149 C 0.02175 0.502 0.25324 0.0
C150 C 0.03151 0.48306 0.26221 0.0
C151 C 0.04926 0.49402 0.27946 0.0
C152 C 0.05653 0.52361 0.28804 0.0
H153 H 0.3994 0.46649 0.24455 0.0
H154 H 0.48861 0.55284 0.24438 0.0
H155 H 0.43343 0.53933 0.29001 0.0
C156 C 0.41736 0.48949 0.2512 0.0
C157 C 0.41292 0.50073 0.26832 0.0
C158 C 0.44487 0.50804 0.24257 0.0
C159 C 0.46784 0.53797 0.2512 0.0
C160 C 0.46372 0.54952 0.26818 0.0
C161 C 0.4363 0.53074 0.27667 0.0
Tb162 Tb 0.4872 0.97743 0.99251 0.0
Eu163 Eu 0.51231 0.01931 0.03338 0.0
C164 C 0.52311 0.9611 0.02246 0.0
C165 C 0.44621 0.95497 0.02609 0.0
C166 C 0.48008 0.96384 0.94166 0.0
C167 C 0.51535 0.97856 0.91723 0.0
C168 C 0.50683 0.96596 0.93408 0.0
C169 C 0.46178 0.97414 0.93177 0.0
C170 C 0.47032 0.98676 0.91494 0.0
C171 C 0.4973 0.98928 0.90747 0.0
C172 C 0.47157 0.95141 0.95985 0.0
O173 O 0.48734 0.02155 0.98988 0.0
O174 O 0.477 0.02985 0.01899 0.0
O175 O 0.54515 0.0514 0.01389 0.0
O176 O 0.53772 0.01083 0.99283 0.0
C177 C 0.47557 0.03348 1.00142 0.0
O178 O 0.50358 0.04339 0.05647 0.0
O179 O 0.54583 0.03952 0.05819 0.0
O180 O 0.53649 0.99058 0.02987 0.0
O181 O 0.49824 0.94909 1.0102 0.0
O182 O 0.44587 0.95812 1.00831 0.0
O183 O 0.47232 0.97113 0.03721 0.0
C184 C 0.55389 0.04076 0.99974 0.0
O185 O 0.49411 0.95211 0.97075 0.0
O186 O 0.45447 0.9602 0.96888 0.0
C187 C 0.51959 0.03347 0.08506 0.0
C188 C 0.50156 0.00812 0.11902 0.0
C189 C 0.51898 0.04122 0.11814 0.0
C190 C 0.52781 0.05376 0.10129 0.0
C191 C 0.50253 0.00047 0.08589 0.0
C192 C 0.49353 0.98791 0.10267 0.0
C193 C 0.52747 0.04655 0.06718 0.0
H194 H 0.53641 0.98037 0.912 0.0
H195 H 0.52142 0.95814 0.94124 0.0
H196 H 0.44086 0.9726 0.93707 0.0
H197 H 0.45554 0.99427 0.90767 0.0
H198 H 0.5253 0.05745 0.13042 0.0
H199 H 0.54078 0.07929 0.10091 0.0
H200 H 0.49603 0.98439 0.07352 0.0
H201 H 0.48055 0.96235 0.10286 0.0
Tb202 Tb 0.01987 0.50964 0.99731 0.0
Eu203 Eu 0.97644 0.48972 0.03192 0.0
C204 C 0.03772 0.558 0.03186 0.0
C205 C 0.0389 0.48463 0.0321 0.0
C206 C 0.04729 0.52686 0.95054 0.0
C207 C 0.03419 0.54984 0.92513 0.0
C208 C 0.03953 0.54904 0.94401 0.0
C209 C 0.05008 0.50591 0.93784 0.0
C210 C 0.04452 0.50655 0.91898 0.0
C211 C 0.03639 0.52844 0.9124 0.0
C212 C 0.05275 0.5253 0.97041 0.0
O213 O 0.97613 0.46667 0.98681 0.0
O214 O 0.96414 0.44517 0.01415 0.0
O215 O 0.94675 0.49327 1.00856 0.0
O216 O 0.98751 0.52829 0.99324 0.0
C217 C 0.96098 0.44208 0.99612 0.0
O218 O 0.95107 0.4552 0.05105 0.0
O219 O 0.94915 0.49874 0.05156 0.0
O220 O 0.00821 0.54296 0.03577 0.0
O221 O 0.04818 0.54482 0.02017 0.0
O222 O 0.0356 0.48319 0.01401 0.0
O223 O 0.02236 0.49293 0.04222 0.0
C224 C 0.95756 0.51427 0.99655 0.0
O225 O 0.05007 0.54538 0.98169 0.0
O226 O 0.03972 0.49697 0.97601 0.0
C227 C 0.94749 0.47678 0.07957 0.0
C228 C 0.95817 0.48068 0.11805 0.0
C229 C 0.9271 0.46507 0.10926 0.0
C230 C 0.92183 0.46314 0.09014 0.0
C231 C 0.97853 0.49272 0.08824 0.0
C232 C 0.98383 0.49468 0.10734 0.0
C233 C 0.94176 0.47297 0.0595 0.0
H234 H 0.02838 0.56726 0.92051 0.0
H235 H 0.03744 0.56572 0.95345 0.0
H236 H 0.05621 0.48872 0.94251 0.0
H237 H 0.04593 0.48939 0.90958 0.0
H238 H 0.90689 0.45438 0.11717 0.0
H239 H 0.89773 0.4507 0.08359 0.0
H240 H -0.0014 0.50318 0.08019 0.0
H241 H 0.00803 0.50649 0.1137 0.0
Tb242 Tb 0.50986 0.48539 0.03093 0.0
Eu243 Eu 0.48187 0.4997 0.99268 0.0
C244 C 0.46861 0.4312 1.00028 0.0
C245 C 0.54893 0.50274 0.99635 0.0
C246 C 0.51906 0.47648 0.07981 0.0
C247 C 0.5161 0.46275 0.11131 0.0
C248 C 0.52604 0.46181 0.09384 0.0
C249 C 0.50202 0.49211 0.08342 0.0
C250 C 0.49204 0.49303 0.10082 0.0
C251 C 0.49893 0.47834 0.115 0.0
C252 C 0.52791 0.47408 0.06118 0.0
O253 O 0.51125 0.53017 0.03682 0.0
O254 O 0.51856 0.54624 1.00799 0.0
O255 O 0.44911 0.49895 0.01335 0.0
O256 O 0.46098 0.47234 0.0348 0.0
C257 C 0.52115 0.55278 0.02583 0.0
O258 O 0.48405 0.53303 0.97319 0.0
O259 O 0.45068 0.48296 0.96703 0.0
O260 O 0.45506 0.44738 0.99527 0.0
O261 O 0.49558 0.44499 1.01078 0.0
O262 O 0.5501 0.50688 0.0144 0.0
O263 O 0.52235 0.49255 0.98583 0.0
C264 C 0.44313 0.48351 0.02815 0.0
O265 O 0.50508 0.45241 0.04957 0.0
O266 O 0.54362 0.50086 0.05396 0.0
C267 C 0.47648 0.51126 0.94258 0.0
C268 C 0.4996 0.5121 0.90806 0.0
C269 C 0.48101 0.52629 0.91133 0.0
C270 C 0.46954 0.52586 0.92848 0.0
C271 C 0.49537 0.49752 0.93945 0.0
C272 C 0.50685 0.49796 0.92239 0.0
C273 C 0.46452 0.51061 0.96063 0.0
H274 H 0.52212 0.45153 0.12197 0.0
H275 H 0.53901 0.44948 0.09125 0.0
H276 H 0.49617 0.50335 0.07268 0.0
H277 H 0.47852 0.50486 0.1031 0.0
H278 H 0.47478 0.53711 0.90052 0.0
H279 H 0.45509 0.5367 0.93068 0.0
H280 H 0.50107 0.48623 0.95018 0.0
H281 H 0.52144 0.48722 0.92043 0.0
Tb282 Tb 0.15016 0.30784 0.32429 0.0
Eu283 Eu 0.17326 0.35006 0.3652 0.0
C284 C 0.17947 0.28946 0.3573 0.0
C285 C 0.10395 0.28904 0.35504 0.0
C286 C 0.14332 0.29311 0.27393 0.0
C287 C 0.14451 0.28518 0.24093 0.0
C288 C 0.13682 0.27281 0.25792 0.0
C289 C 0.15732 0.32593 0.27271 0.0
C290 C 0.16522 0.33835 0.25579 0.0
C291 C 0.15909 0.31817 0.23964 0.0
C292 C 0.13735 0.28037 0.29199 0.0
O293 O 0.13058 0.33943 0.32394 0.0
O294 O 0.16307 0.37962 0.34662 0.0
O295 O 0.21651 0.36798 0.34938 0.0
O296 O 0.18977 0.35386 0.32058 0.0
C297 C 0.14195 0.36826 0.33216 0.0
O298 O 0.16645 0.3762 0.38809 0.0
O299 O 0.20589 0.36754 0.39032 0.0
O300 O 0.16839 0.3026 0.36847 0.0
O301 O 0.18062 0.29454 0.33987 0.0
O302 O 0.11462 0.27812 0.34202 0.0
O303 O 0.1204 0.31844 0.36267 0.0
C304 C 0.21611 0.36992 0.33151 0.0
O305 O 0.16269 0.28736 0.30269 0.0
O306 O 0.11712 0.28442 0.30098 0.0
C307 C 0.17965 0.36393 0.41728 0.0
C308 C 0.16131 0.33777 0.45115 0.0
C309 C 0.14357 0.34871 0.44128 0.0
C310 C 0.15264 0.36166 0.42457 0.0
C311 C 0.19772 0.35355 0.42733 0.0
C312 C 0.18863 0.34057 0.444 0.0
C313 C 0.18857 0.37635 0.39913 0.0
H314 H 0.13894 0.26883 0.2288 0.0
H315 H 0.12609 0.24742 0.25858 0.0
H316 H 0.16261 0.34203 0.28493 0.0
H317 H 0.17678 0.36386 0.25546 0.0
H318 H 0.12229 0.34672 0.44628 0.0
H319 H 0.13823 0.36955 0.41728 0.0
H320 H 0.21885 0.35523 0.42225 0.0
H321 H 0.20319 0.33293 0.45138 0.0
Tb322 Tb 0.68297 0.83419 0.32882 0.0
Eu323 Eu 0.64076 0.81655 0.36414 0.0
C324 C 0.70188 0.88468 0.36263 0.0
C325 C 0.70372 0.81232 0.36443 0.0
C326 C 0.70588 0.84597 0.2816 0.0
C327 C 0.72155 0.85584 0.25077 0.0
C328 C 0.72957 0.85726 0.26958 0.0
C329 C 0.6741 0.83347 0.27472 0.0
C330 C 0.66606 0.83195 0.25592 0.0
C331 C 0.6897 0.84301 0.24374 0.0
C332 C 0.71435 0.84732 0.30128 0.0
O333 O 0.63887 0.79105 0.31928 0.0
O334 O 0.62784 0.77115 0.34708 0.0
O335 O 0.61066 0.82032 0.34118 0.0
O336 O 0.65027 0.85215 0.32397 0.0
C337 C 0.62416 0.76706 0.32906 0.0
O338 O 0.61633 0.7832 0.38402 0.0
O339 O 0.61382 0.82637 0.38366 0.0
O340 O 0.67276 0.86969 0.36722 0.0
O341 O 0.71188 0.87134 0.35072 0.0
O342 O 0.69967 0.80936 0.34632 0.0
O343 O 0.68725 0.82099 0.37436 0.0
C344 C 0.62099 0.83984 0.32837 0.0
O345 O 0.7115 0.86817 0.31174 0.0
O346 O 0.70244 0.81996 0.30804 0.0
C347 C 0.6129 0.80605 0.41215 0.0
C348 C 0.62394 0.81225 0.45069 0.0
C349 C 0.59281 0.79722 0.44203 0.0
C350 C 0.58736 0.79415 0.42287 0.0
C351 C 0.64401 0.82145 0.42068 0.0
C352 C 0.64949 0.82452 0.43982 0.0
C353 C 0.60689 0.80116 0.39209 0.0
H354 H 0.7402 0.86426 0.24167 0.0
H355 H 0.7542 0.867 0.27474 0.0
H356 H 0.65556 0.82485 0.2839 0.0
H357 H 0.64138 0.82232 0.25092 0.0
H358 H 0.57269 0.78786 0.45006 0.0
H359 H 0.56321 0.78219 0.41642 0.0
H360 H 0.66397 0.8306 0.41252 0.0
H361 H 0.67372 0.83583 0.44608 0.0
Tb362 Tb 0.17943 0.8219 0.36495 0.0
Eu363 Eu 0.15037 0.83577 0.32688 0.0
C364 C 0.13683 0.76752 0.33482 0.0
C365 C 0.21748 0.83819 0.32984 0.0
C366 C 0.18934 0.81293 0.4138 0.0
C367 C 0.18656 0.79865 0.44518 0.0
C368 C 0.19642 0.79804 0.42765 0.0
C369 C 0.17227 0.82845 0.41763 0.0
C370 C 0.16238 0.82905 0.4351 0.0
C371 C 0.16937 0.81413 0.4491 0.0
C372 C 0.19802 0.81076 0.39509 0.0
O373 O 0.18169 0.86718 0.37039 0.0
O374 O 0.18888 0.88224 0.34136 0.0
O375 O 0.11818 0.83508 0.3479 0.0
O376 O 0.13086 0.80919 0.36946 0.0
C377 C 0.19204 0.88944 0.35917 0.0
O378 O 0.148 0.86862 0.30845 0.0
O379 O 0.12135 0.81807 0.30052 0.0
O380 O 0.12305 0.78371 0.33025 0.0
O381 O 0.16434 0.78143 0.34476 0.0
O382 O 0.21913 0.842 0.34794 0.0
O383 O 0.19091 0.82906 0.3195 0.0
C384 C 0.11271 0.82004 0.36284 0.0
O385 O 0.17516 0.789 0.38353 0.0
O386 O 0.21343 0.8376 0.38788 0.0
C387 C 0.14493 0.85106 0.27731 0.0
C388 C 0.16919 0.85773 0.24276 0.0
C389 C 0.14738 0.86782 0.24651 0.0
C390 C 0.13537 0.86453 0.26367 0.0
C391 C 0.16705 0.84152 0.27373 0.0
C392 C 0.17906 0.8448 0.25666 0.0
C393 C 0.13155 0.84628 0.29513 0.0
H394 H 0.19264 0.78726 0.4557 0.0
H395 H 0.2094 0.78578 0.42488 0.0
H396 H 0.16631 0.83983 0.40703 0.0
H397 H 0.14883 0.8408 0.43756 0.0
H398 H 0.1395 0.87812 0.23615 0.0
H399 H 0.1184 0.87215 0.26622 0.0
H400 H 0.17452 0.83087 0.28403 0.0
H401 H 0.19533 0.83625 0.25417 0.0
Tb402 Tb 0.8226 0.64557 0.65978 0.0
Eu403 Eu 0.84405 0.68885 0.7003 0.0
C404 C 0.85203 0.62904 0.69355 0.0
C405 C 0.77596 0.62593 0.69029 0.0
C406 C 0.81775 0.62943 0.60927 0.0
C407 C 0.84792 0.63912 0.58265 0.0
C408 C 0.84044 0.6267 0.5996 0.0
C409 C 0.80225 0.64445 0.60142 0.0
C410 C 0.80953 0.65664 0.58436 0.0
C411 C 0.83264 0.65434 0.57477 0.0
C412 C 0.81181 0.61781 0.62777 0.0
O413 O 0.80098 0.67535 0.65874 0.0
O414 O 0.83247 0.71668 0.68107 0.0
O415 O 0.88765 0.70756 0.68467 0.0
O416 O 0.86094 0.69217 0.65585 0.0
C417 C 0.81137 0.70426 0.66659 0.0
O418 O 0.8356 0.71451 0.7227 0.0
O419 O 0.87608 0.70759 0.72565 0.0
O420 O 0.84057 0.64223 0.70437 0.0
O421 O 0.85357 0.63377 0.67608 0.0
O422 O 0.78729 0.61543 0.67745 0.0
O423 O 0.79143 0.65554 0.69764 0.0
C424 C 0.88722 0.70899 0.66674 0.0
O425 O 0.83707 0.62581 0.63884 0.0
O426 O 0.79042 0.6205 0.63634 0.0
C427 C 0.84838 0.70265 0.75168 0.0
C428 C 0.83017 0.67665 0.78548 0.0
C429 C 0.84873 0.70975 0.78488 0.0
C430 C 0.85778 0.7226 0.76813 0.0
C431 C 0.82963 0.66966 0.75216 0.0
C432 C 0.82066 0.6568 0.76887 0.0
C433 C 0.85808 0.71598 0.73402 0.0
H434 H 0.8662 0.6373 0.57592 0.0
H435 H 0.85288 0.61538 0.60534 0.0
H436 H 0.78466 0.64704 0.60849 0.0
H437 H 0.79686 0.66772 0.57865 0.0
H438 H 0.85675 0.72571 0.79742 0.0
H439 H 0.87226 0.7481 0.76804 0.0
H440 H 0.82194 0.65384 0.73957 0.0
H441 H 0.80603 0.63128 0.76876 0.0
Tb442 Tb 0.34967 0.17291 0.6617 0.0
Eu443 Eu 0.30777 0.15316 0.69728 0.0
C444 C 0.36837 0.22058 0.69702 0.0
C445 C 0.37 0.14716 0.69538 0.0
C446 C 0.37386 0.18425 0.6144 0.0
C447 C 0.39091 0.19485 0.58388 0.0
C448 C 0.39814 0.19815 0.60292 0.0
C449 C 0.34223 0.16659 0.60671 0.0
C450 C 0.33495 0.16328 0.58767 0.0
C451 C 0.35921 0.17761 0.57606 0.0
C452 C 0.38159 0.18961 0.6344 0.0
O453 O 0.31806 0.12171 0.65643 0.0
O454 O 0.27864 0.11497 0.67456 0.0
O455 O 0.29108 0.1798 0.67979 0.0
O456 O 0.30464 0.16875 0.65202 0.0
C457 C 0.28936 0.10461 0.66144 0.0
O458 O 0.27849 0.11796 0.71519 0.0
O459 O 0.28745 0.16624 0.71956 0.0
O460 O 0.35403 0.19696 0.70707 0.0
O461 O 0.36267 0.21629 0.67903 0.0
O462 O 0.37945 0.16821 0.68329 0.0
O463 O 0.34094 0.13361 0.70009 0.0
C464 C 0.28818 0.17779 0.66172 0.0
O465 O 0.37145 0.2065 0.64297 0.0
O466 O 0.37627 0.16477 0.64278 0.0
C467 C 0.28266 0.13871 0.74557 0.0
C468 C 0.29622 0.13939 0.78353 0.0
C469 C 0.26469 0.12605 0.77574 0.0
C470 C 0.25799 0.12575 0.75688 0.0
C471 C 0.31413 0.15175 0.7532 0.0
C472 C 0.32087 0.15213 0.77205 0.0
C473 C 0.27543 0.13846 0.72585 0.0
H474 H 0.41012 0.20579 0.57528 0.0
H475 H 0.42268 0.21189 0.6087 0.0
H476 H 0.32319 0.15585 0.61545 0.0
H477 H 0.3103 0.15017 0.5821 0.0
H478 H 0.24527 0.11636 0.78428 0.0
H479 H 0.23357 0.11558 0.75114 0.0
H480 H 0.33343 0.16167 0.74457 0.0
H481 H 0.34535 0.16222 0.77764 0.0
Tb482 Tb 0.84195 0.15734 0.69705 0.0
Eu483 Eu 0.81642 0.17463 0.65898 0.0
C484 C 0.80739 0.10688 0.66317 0.0
C485 C 0.88455 0.1794 0.66452 0.0
C486 C 0.84943 0.14872 0.74602 0.0
C487 C 0.8437 0.13553 0.77761 0.0
C488 C 0.85392 0.13309 0.76041 0.0
C489 C 0.83503 0.16717 0.74907 0.0
C490 C 0.82448 0.16929 0.76612 0.0
C491 C 0.82844 0.15327 0.78052 0.0
C492 C 0.85704 0.14367 0.72744 0.0
O493 O 0.86376 0.20879 0.69924 0.0
O494 O 0.82833 0.21486 0.68014 0.0
O495 O 0.77437 0.15132 0.67566 0.0
O496 O 0.80267 0.16373 0.70398 0.0
C497 C 0.85156 0.22585 0.69337 0.0
O498 O 0.82179 0.2087 0.6394 0.0
O499 O 0.78389 0.15984 0.63395 0.0
O500 O 0.81728 0.12965 0.65233 0.0
O501 O 0.80822 0.11302 0.68092 0.0
O502 O 0.8745 0.15935 0.67719 0.0
O503 O 0.86877 0.19319 0.6588 0.0
C504 C 0.7759 0.15411 0.69376 0.0
O505 O 0.83262 0.12387 0.7161 0.0
O506 O 0.87563 0.16914 0.71981 0.0
C507 C 0.81074 0.18546 0.60901 0.0
C508 C 0.83233 0.18321 0.57436 0.0
C509 C 0.81226 0.19589 0.57692 0.0
C510 C 0.80153 0.19697 0.59413 0.0
C511 C 0.831 0.17309 0.60657 0.0
C512 C 0.84165 0.17191 0.58941 0.0
C513 C 0.80014 0.18704 0.62722 0.0
H514 H 0.84696 0.12288 0.78847 0.0
H515 H 0.86474 0.11854 0.75825 0.0
H516 H 0.83147 0.17952 0.73814 0.0
H517 H 0.81325 0.18352 0.76806 0.0
H518 H 0.80444 0.20449 0.56555 0.0
H519 H 0.78603 0.20674 0.59582 0.0
H520 H 0.83865 0.1644 0.61799 0.0
H521 H 0.8574 0.1624 0.58795 0.0
C522 C 0.29017 0.87711 0.07877 0.0
C523 C 0.27723 0.84427 0.07925 0.0
C524 C 0.31691 0.89477 0.06939 0.0
C525 C 0.33115 0.87923 0.06038 0.0
C526 C 0.31814 0.84607 0.06079 0.0
C527 C 0.29137 0.82902 0.0702 0.0
C528 C 0.33008 0.93009 0.06923 0.0
C529 C 0.33281 0.82867 0.05155 0.0
C530 C 0.38686 0.9205 0.02409 0.0
C531 C 0.4166 0.93395 0.03429 0.0
C532 C 0.35879 0.90254 0.03236 0.0
C533 C 0.36054 0.89785 0.05125 0.0
C534 C 0.39051 0.91093 0.06151 0.0
C535 C 0.41807 0.92873 0.05293 0.0
C536 C 0.32723 0.88896 0.02098 0.0
C537 C 0.39351 0.90642 0.08166 0.0
H538 H 0.27918 0.88896 0.08559 0.0
H539 H 0.28179 0.80372 0.07075 0.0
H540 H 0.35465 0.94314 0.07608 0.0
H541 H 0.33115 0.93638 0.05485 0.0
H542 H 0.31562 0.9384 0.07635 0.0
H543 H 0.31915 0.80267 0.05258 0.0
H544 H 0.33429 0.83279 0.0368 0.0
H545 H 0.35736 0.838 0.05795 0.0
H546 H 0.38546 0.92451 1.00973 0.0
H547 H 0.44087 0.93883 0.06097 0.0
H548 H 0.31306 0.8987 0.02696 0.0
H549 H 0.31358 0.8628 0.02125 0.0
H550 H 0.32989 0.8944 1.00644 0.0
H551 H 0.38125 0.91647 0.08957 0.0
H552 H 0.4186 0.91799 0.08765 0.0
H553 H 0.38187 0.88072 0.08349 0.0
C554 C 0.1856 0.4729 0.07822 0.0
C555 C 0.17589 0.44304 0.08449 0.0
C556 C 0.1635 0.48006 0.06986 0.0
C557 C 0.13089 0.45672 0.06756 0.0
C558 C 0.12097 0.4265 0.07382 0.0
C559 C 0.14355 0.42007 0.08225 0.0
C560 C 0.17501 0.51265 0.06352 0.0
C561 C 0.08651 0.40086 0.07148 0.0
C562 C 0.06946 0.48273 0.06039 0.0
C563 C 0.0621 0.4771 0.04121 0.0
C564 C 0.09187 0.47635 0.06913 0.0
C565 C 0.10717 0.46379 0.05848 0.0
C566 C 0.09971 0.45785 0.03915 0.0
C567 C 0.0774 0.46468 0.03075 0.0
C568 C 0.09928 0.48321 0.08977 0.0
C569 C 0.1153 0.44423 0.02732 0.0
H570 H 0.21051 0.49086 0.08009 0.0
H571 H 0.13592 0.39682 0.08685 0.0
H572 H 0.16864 0.51057 0.0485 0.0
H573 H 0.16319 0.52426 0.07041 0.0
H574 H 0.20108 0.52824 0.06648 0.0
H575 H 0.08266 0.37864 0.07713 0.0
H576 H 0.07213 0.40932 0.0785 0.0
H577 H 0.07756 0.39531 0.05668 0.0
H578 H 0.05791 0.49244 0.06861 0.0
H579 H 0.07188 0.46015 0.01594 0.0
H580 H 0.12491 0.50036 0.09329 0.0
H581 H 0.09405 0.4611 0.09602 0.0
H582 H 0.08547 0.49313 0.09606 0.0
H583 H 0.14137 0.46029 0.02897 0.0
H584 H 0.10671 0.44072 0.0125 0.0
H585 H 0.11062 0.42103 0.03181 0.0
C586 C 0.55933 0.72536 0.06324 0.0
C587 C 0.59018 0.74435 0.07189 0.0
C588 C 0.54899 0.69448 0.05539 0.0
C589 C 0.57009 0.68243 0.05617 0.0
C590 C 0.60143 0.70165 0.06464 0.0
C591 C 0.61108 0.73242 0.0725 0.0
C592 C 0.5153 0.67454 0.04661 0.0
C593 C 0.6246 0.6896 0.06557 0.0
C594 C 0.53302 0.59291 0.05232 0.0
C595 C 0.53464 0.58605 0.03367 0.0
C596 C 0.5449 0.62427 0.05988 0.0
C597 C 0.55893 0.64933 0.04854 0.0
C598 C 0.56119 0.64265 0.0298 0.0
C599 C 0.54888 0.61103 0.02256 0.0
C600 C 0.54188 0.63051 0.07991 0.0
C601 C 0.57622 0.66887 0.01736 0.0
H602 H 0.543 0.7344 0.06301 0.0
H603 H 0.635 0.74721 0.0791 0.0
H604 H 0.51512 0.6663 0.03213 0.0
H605 H 0.50246 0.65308 0.05398 0.0
H606 H 0.50214 0.68775 0.0468 0.0
H607 H 0.64843 0.70795 0.07208 0.0
H608 H 0.61558 0.66866 0.07358 0.0
H609 H 0.62701 0.68171 0.05153 0.0
H610 H 0.52203 0.57373 0.061 0.0
H611 H 0.55039 0.60592 1.00816 0.0
H612 H 0.52701 0.64178 0.0811 0.0
H613 H 0.56554 0.64732 0.08724 0.0
H614 H 0.53111 0.60842 0.08696 0.0
H615 H 0.56245 0.68135 0.01621 0.0
H616 H 0.5774 0.6598 1.00333 0.0
H617 H 0.60058 0.6867 0.02333 0.0
C618 C 0.84932 0.26969 0.9413 0.0
C619 C 0.81748 0.26139 0.9418 0.0
C620 C 0.87383 0.29885 0.94989 0.0
C621 C 0.86626 0.32024 0.95907 0.0
C622 C 0.83414 0.31197 0.95962 0.0
C623 C 0.81012 0.28256 0.95103 0.0
C624 C 0.90779 0.30671 0.94919 0.0
C625 C 0.82517 0.33428 0.96917 0.0
C626 C 0.92538 0.38347 0.99585 0.0
C627 C 0.93828 0.41063 0.98629 0.0
C628 C 0.90241 0.35377 0.98705 0.0
C629 C 0.89189 0.35121 0.96826 0.0
C630 C 0.9052 0.37841 0.95843 0.0
C631 C 0.92837 0.4078 0.96754 0.0
C632 C 0.889 0.32522 0.99794 0.0
C633 C 0.89442 0.3766 0.9384 0.0
H634 H 0.85504 0.2532 0.93432 0.0
H635 H 0.78552 0.27633 0.95125 0.0
H636 H 0.92112 0.32889 0.94251 0.0
H637 H 0.91947 0.31098 0.96336 0.0
H638 H 0.90964 0.28743 0.94153 0.0
H639 H 0.7991 0.32437 0.96821 0.0
H640 H 0.83446 0.33944 0.98391 0.0
H641 H 0.83607 0.35722 0.96301 0.0
H642 H 0.93304 0.38541 1.01031 0.0
H643 H 0.93814 0.42869 0.96007 0.0
H644 H 0.89171 0.30596 0.99101 0.0
H645 H 0.86327 0.31588 0.99858 0.0
H646 H 0.90075 0.33094 0.01221 0.0
H647 H 0.89731 0.35849 0.9302 0.0
H648 H 0.90781 0.39972 0.93258 0.0
H649 H 0.86885 0.36909 0.93681 0.0
C650 C 0.7067 0.57409 0.94403 0.0
C651 C 0.71857 0.55314 0.94239 0.0
C652 C 0.67936 0.56622 0.95299 0.0
C653 C 0.66328 0.53655 0.96037 0.0
C654 C 0.67499 0.5152 0.95858 0.0
C655 C 0.70246 0.52376 0.94968 0.0
C656 C 0.66778 0.58975 0.95466 0.0
C657 C 0.65842 0.48318 0.96602 0.0
C658 C 0.60814 0.52603 0.9976 0.0
C659 C 0.57825 0.51056 0.9874 0.0
C660 C 0.63598 0.53471 0.989 0.0
C661 C 0.63397 0.52762 0.96973 0.0
C662 C 0.60386 0.51173 0.9594 0.0
C663 C 0.57648 0.50347 0.96832 0.0
C664 C 0.66761 0.55171 1.00052 0.0
C665 C 0.60053 0.50354 0.93887 0.0
H666 H 0.71916 0.59696 0.93861 0.0
H667 H 0.71119 0.50723 0.94825 0.0
H668 H 0.64324 0.57891 0.94792 0.0
H669 H 0.66714 0.59606 0.96938 0.0
H670 H 0.68304 0.61188 0.94832 0.0
H671 H 0.67056 0.46931 0.96356 0.0
H672 H 0.65725 0.4863 0.98104 0.0
H673 H 0.63367 0.46918 0.95948 0.0
H674 H 0.60986 0.53177 0.0123 0.0
H675 H 0.55361 0.49143 0.96025 0.0
H676 H 0.68296 0.57508 0.99544 0.0
H677 H 0.67987 0.53775 0.99922 0.0
H678 H 0.66521 0.55561 0.0153 0.0
H679 H 0.61337 0.52556 0.93198 0.0
H680 H 0.57539 0.49052 0.93288 0.0
H681 H 0.6114 0.48869 0.93572 0.0
C682 C 0.42338 0.15323 0.96534 0.0
C683 C 0.39207 0.1378 0.95708 0.0
C684 C 0.43617 0.13613 0.97343 0.0
C685 C 0.41717 0.1028 0.97325 0.0
C686 C 0.38532 0.08712 0.9653 0.0
C687 C 0.37315 0.10484 0.95722 0.0
C688 C 0.47032 0.15364 0.98166 0.0
C689 C 0.36436 0.05159 0.96496 0.0
C690 C 0.46063 0.05656 0.97572 0.0
C691 C 0.46057 0.05125 0.99436 0.0
C692 C 0.44622 0.07298 0.96865 0.0
C693 C 0.43131 0.08426 0.98049 0.0
C694 C 0.4309 0.07879 0.99929 0.0
C695 C 0.44563 0.06237 1.00603 0.0
C696 C 0.44727 0.07851 0.94852 0.0
C697 C 0.4151 0.09045 0.01228 0.0
H698 H 0.43825 0.17864 0.96497 0.0
H699 H 0.34887 0.09294 0.95094 0.0
H700 H 0.472 0.14825 0.99607 0.0
H701 H 0.48425 0.14554 0.97383 0.0
H702 H 0.48137 0.17979 0.9815 0.0
H703 H 0.33964 0.04331 0.95921 0.0
H704 H 0.37406 0.03938 0.95652 0.0
H705 H 0.36398 0.04429 0.97908 0.0
H706 H 0.47204 0.04798 0.96658 0.0
H707 H 0.44533 0.0582 0.02042 0.0
H708 H 0.46008 0.1044 0.94713 0.0
H709 H 0.42287 0.06862 0.94174 0.0
H710 H 0.45919 0.06752 0.94108 0.0
H711 H 0.42685 0.11674 0.01311 0.0
H712 H 0.41598 0.08335 0.02637 0.0
H713 H 0.38995 0.08093 1.007 0.0
C714 C 0.71851 0.15484 0.96006 0.0
C715 C 0.7134 0.16156 0.94219 0.0
C716 C 0.69301 0.13593 0.96995 0.0
C717 C 0.66159 0.12365 0.96185 0.0
C718 C 0.65626 0.13042 0.94382 0.0
C719 C 0.68226 0.14914 0.93416 0.0
C720 C 0.69971 0.12877 0.98898 0.0
C721 C 0.6231 0.11792 0.93477 0.0
C722 C 0.5959 0.04974 0.97912 0.0
C723 C 0.58242 0.06245 0.99093 0.0
C724 C 0.62175 0.06941 0.96972 0.0
C725 C 0.63435 0.10268 0.97198 0.0
C726 C 0.62104 0.11576 0.98396 0.0
C727 C 0.59533 0.09548 0.99341 0.0
C728 C 0.6355 0.05451 0.95729 0.0
C729 C 0.63365 0.15112 0.98658 0.0
H730 H 0.74257 0.16413 0.96624 0.0
H731 H 0.67825 0.15456 0.92042 0.0
H732 H 0.68847 0.13678 0.99911 0.0
H733 H 0.68925 0.10274 0.98931 0.0
H734 H 0.72551 0.14048 0.99339 0.0
H735 H 0.62299 0.12618 0.92093 0.0
H736 H 0.61011 0.09157 0.93333 0.0
H737 H 0.60988 0.12567 0.94351 0.0
H738 H 0.5862 0.02425 0.97716 0.0
H739 H 0.58488 0.10545 1.00238 0.0
H740 H 0.66108 0.0645 0.96167 0.0
H741 H 0.63351 0.06014 0.94296 0.0
H742 H 0.62338 0.02827 0.95735 0.0
H743 H 0.65913 0.16367 0.99181 0.0
H744 H 0.62066 0.15754 0.99633 0.0
H745 H 0.63177 0.15988 0.97315 0.0
C746 C 0.83453 0.56743 0.96065 0.0
C747 C 0.82347 0.55743 0.942 0.0
C748 C 0.85741 0.56151 0.96919 0.0
C749 C 0.8692 0.54476 0.95892 0.0
C750 C 0.85818 0.5347 0.94006 0.0
C751 C 0.83562 0.54136 0.9318 0.0
C752 C 0.86882 0.57303 0.98926 0.0
C753 C 0.86974 0.51633 0.92869 0.0
C754 C 0.9464 0.5496 0.97742 0.0
C755 C 0.93524 0.52195 0.9865 0.0
C756 C 0.92522 0.55736 0.96836 0.0
C757 C 0.89211 0.53671 0.96812 0.0
C758 C 0.88076 0.50846 0.97694 0.0
C759 C 0.90241 0.50157 0.98612 0.0
C760 C 0.93827 0.58787 0.9593 0.0
C761 C 0.84568 0.48551 0.97675 0.0
H762 H 0.82546 0.58019 0.96852 0.0
H763 H 0.82694 0.53337 0.91742 0.0
H764 H 0.86251 0.55246 0.99733 0.0
H765 H 0.89503 0.58806 0.99101 0.0
H766 H 0.85841 0.58697 0.99508 0.0
H767 H 0.85935 0.5108 0.91412 0.0
H768 H 0.89593 0.53007 0.92905 0.0
H769 H 0.8635 0.49371 0.93461 0.0
H770 H 0.97171 0.56552 0.97767 0.0
H771 H 0.89352 0.47998 0.99293 0.0
H772 H 0.92986 0.60327 0.96561 0.0
H773 H 0.92943 0.58273 0.94448 0.0
H774 H 0.9646 0.60125 0.96059 0.0
H775 H 0.83422 0.4974 0.98375 0.0
H776 H 0.84073 0.46403 0.98368 0.0
H777 H 0.83446 0.47793 0.96236 0.0
C778 C 0.38318 0.2434 0.97217 0.0
C779 C 0.38867 0.23793 0.95411 0.0
C780 C 0.3948 0.27442 0.98031 0.0
C781 C 0.41258 0.30043 0.97016 0.0
C782 C 0.41784 0.29498 0.95184 0.0
C783 C 0.40571 0.26375 0.94401 0.0
C784 C 0.38844 0.27939 0.99981 0.0
C785 C 0.43692 0.32216 0.94065 0.0
C786 C 0.42315 0.38149 0.98408 0.0
C787 C 0.4538 0.39733 0.99334 0.0
C788 C 0.40913 0.34968 0.97684 0.0
C789 C 0.42628 0.33343 0.97877 0.0
C790 C 0.45703 0.3491 0.98833 0.0
C791 C 0.47039 0.38087 0.99558 0.0
C792 C 0.37618 0.33361 0.96685 0.0
C793 C 0.47608 0.33252 0.99054 0.0
H794 H 0.36987 0.22337 0.97994 0.0
H795 H 0.41039 0.25952 0.93013 0.0
H796 H 0.41116 0.29265 1.00875 0.0
H797 H 0.37673 0.29396 1.00035 0.0
H798 H 0.37318 0.2566 1.00555 0.0
H799 H 0.43832 0.31382 0.92647 0.0
H800 H 0.42627 0.33763 0.93977 0.0
H801 H 0.46136 0.337 0.94753 0.0
H802 H 0.41009 0.39399 0.98241 0.0
H803 H 0.49409 0.39297 1.0027 0.0
H804 H 0.36051 0.31141 0.97297 0.0
H805 H 0.37698 0.32688 0.95223 0.0
H806 H 0.36544 0.34909 0.96733 0.0
H807 H 0.46258 0.31046 0.9973 0.0
H808 H 0.49928 0.34777 0.99881 0.0
H809 H 0.48044 0.32547 0.97681 0.0
C810 C 0.16272 0.71916 0.09251 0.0
C811 C 0.17306 0.74536 0.08222 0.0
C812 C 0.13962 0.68865 0.08481 0.0
C813 C 0.1264 0.68429 0.06641 0.0
C814 C 0.13633 0.71076 0.05604 0.0
C815 C 0.1597 0.74099 0.06405 0.0
C816 C 0.12995 0.66096 0.09622 0.0
C817 C 0.12255 0.70707 0.03643 0.0
C818 C 0.09282 0.60315 0.04 0.0
C819 C 0.06015 0.59009 0.04105 0.0
C820 C 0.11457 0.63369 0.04828 0.0
C821 C 0.10341 0.6518 0.0577 0.0
C822 C 0.07048 0.6388 0.05886 0.0
C823 C 0.04921 0.60798 0.0506 0.0
C824 C 0.14954 0.64656 0.04694 0.0
C825 C 0.05774 0.65756 0.06869 0.0
H826 H 0.17326 0.72243 0.1065 0.0
H827 H 0.16744 0.76128 0.05614 0.0
H828 H 0.10389 0.64808 0.09671 0.0
H829 H 0.13622 0.64389 0.08976 0.0
H830 H 0.14162 0.66855 0.11053 0.0
H831 H 0.13162 0.73024 0.03059 0.0
H832 H 0.12844 0.69171 0.0277 0.0
H833 H 0.09633 0.69522 0.0357 0.0
H834 H 0.10152 0.58944 0.03275 0.0
H835 H 0.024 0.59808 0.0514 0.0
H836 H 0.16238 0.6529 0.06092 0.0
H837 H 0.15943 0.66858 0.03987 0.0
H838 H 0.15435 0.62925 0.03932 0.0
H839 H 0.06795 0.6641 0.08329 0.0
H840 H 0.03148 0.64412 0.06827 0.0
H841 H 0.06495 0.68002 0.06234 0.0
C842 C 0.30095 0.4751 0.08252 0.0
C843 C 0.27889 0.44354 0.08487 0.0
C844 C 0.32824 0.48259 0.07363 0.0
C845 C 0.33308 0.45784 0.06642 0.0
C846 C 0.31065 0.42588 0.06868 0.0
C847 C 0.28405 0.41916 0.07809 0.0
C848 C 0.35193 0.517 0.072 0.0
C849 C 0.31449 0.39873 0.06087 0.0
C850 C 0.38805 0.4752 0.02835 0.0
C851 C 0.41526 0.47803 0.03787 0.0
C852 C 0.36106 0.46844 0.03743 0.0
C853 C 0.36163 0.46534 0.05659 0.0
C854 C 0.38939 0.46901 0.06633 0.0
C855 C 0.41564 0.47485 0.05681 0.0
C856 C 0.33171 0.46397 0.02644 0.0
C857 C 0.39144 0.46681 0.08682 0.0
H858 H 0.29693 0.49393 0.0878 0.0
H859 H 0.26678 0.39473 0.07976 0.0
H860 H 0.37573 0.52273 0.07816 0.0
H861 H 0.35391 0.52134 0.0573 0.0
H862 H 0.34529 0.53345 0.07892 0.0
H863 H 0.29455 0.37521 0.06339 0.0
H864 H 0.31598 0.39953 0.04582 0.0
H865 H 0.33691 0.40103 0.06708 0.0
H866 H 0.38753 0.4774 0.01369 0.0
H867 H 0.43667 0.47726 0.0643 0.0
H868 H 0.32521 0.48142 0.03199 0.0
H869 H 0.3115 0.43993 0.0277 0.0
H870 H 0.33494 0.46678 0.01163 0.0
H871 H 0.38634 0.48422 0.09403 0.0
H872 H 0.41513 0.4714 0.09247 0.0
H873 H 0.37333 0.44285 0.08998 0.0
C874 C 0.59657 0.8532 0.05331 0.0
C875 C 0.59006 0.84665 0.07146 0.0
C876 C 0.58633 0.87155 0.04415 0.0
C877 C 0.56897 0.8833 0.05336 0.0
C878 C 0.56235 0.87674 0.07169 0.0
C879 C 0.5731 0.85857 0.08055 0.0
C880 C 0.59413 0.87843 0.02469 0.0
C881 C 0.54371 0.88872 0.08189 0.0
C882 C 0.56589 0.95503 0.03861 0.0
C883 C 0.53567 0.94093 0.02892 0.0
C884 C 0.57745 0.93646 0.04611 0.0
C885 C 0.55817 0.903 0.04402 0.0
C886 C 0.52797 0.88856 0.03382 0.0
C887 C 0.51713 0.90774 0.02628 0.0
C888 C 0.60993 0.95269 0.0567 0.0
C889 C 0.50671 0.85291 0.03144 0.0
H890 H 0.60986 0.84411 0.04633 0.0
H891 H 0.56766 0.8531 0.0945 0.0
H892 H 0.572 0.86936 0.01539 0.0
H893 H 0.60814 0.90448 0.02398 0.0
H894 H 0.60782 0.86749 0.01949 0.0
H895 H 0.54018 0.88109 0.096 0.0
H896 H 0.55618 0.91505 0.08293 0.0
H897 H 0.52014 0.8799 0.07419 0.0
H898 H 0.58048 0.98069 0.04054 0.0
H899 H 0.49372 0.89675 0.01885 0.0
H900 H 0.62444 0.9429 0.05129 0.0
H901 H 0.6077 0.94806 0.07136 0.0
H902 H 0.62277 0.9788 0.05599 0.0
H903 H 0.51942 0.84141 0.02559 0.0
H904 H 0.48464 0.84536 0.02233 0.0
H905 H 0.50013 0.84406 0.04506 0.0
C906 C 0.93463 0.17703 0.39122 0.0
C907 C 0.93914 0.17334 0.40985 0.0
C908 C 0.9605 0.19483 0.3813 0.0
C909 C 0.99168 0.20909 0.39017 0.0
C910 C -0.00361 0.20536 0.40897 0.0
C911 C 0.97004 0.18768 0.41861 0.0
C912 C 0.95445 0.19871 0.36139 0.0
C913 C 0.02929 0.22004 0.41888 0.0
C914 C 0.06132 0.2349 0.36129 0.0
C915 C 0.07363 0.26784 0.3624 0.0
C916 C 0.03443 0.21534 0.37012 0.0
C917 C 0.01932 0.22905 0.38003 0.0
C918 C 0.03105 0.26214 0.38061 0.0
C919 C 0.05812 0.28111 0.37191 0.0
C920 C 0.02275 0.18017 0.36932 0.0
C921 C 0.01539 0.27766 0.39076 0.0
H922 H 0.91075 0.16621 0.38445 0.0
H923 H 0.97362 0.18457 0.43294 0.0
H924 H 0.96409 0.22425 0.3596 0.0
H925 H 0.96688 0.19005 0.35259 0.0
H926 H 0.9288 0.18563 0.35643 0.0
H927 H 0.02895 0.21399 0.43331 0.0
H928 H 0.04356 0.21185 0.4115 0.0
H929 H 0.04147 0.24627 0.41902 0.0
H930 H 0.07336 0.22456 0.35409 0.0
H931 H 0.06736 0.30654 0.37271 0.0
H932 H -0.00262 0.16644 0.36386 0.0
H933 H 0.02457 0.17351 0.38341 0.0
H934 H 0.03647 0.17304 0.36058 0.0
H935 H 0.98986 0.26597 0.38573 0.0
H936 H 0.02649 0.30344 0.38911 0.0
H937 H 0.01694 0.27475 0.40565 0.0
C938 C 0.81233 0.75432 0.41661 0.0
C939 C 0.84453 0.77772 0.41857 0.0
C940 C 0.78929 0.75977 0.40786 0.0
C941 C 0.79857 0.78943 0.40098 0.0
C942 C 0.83102 0.81321 0.40298 0.0
C943 C 0.85362 0.80702 0.41168 0.0
C944 C 0.75501 0.73367 0.40586 0.0
C945 C 0.84185 0.84523 0.39598 0.0
C946 C 0.7434 0.79378 0.36366 0.0
C947 C 0.72774 0.80615 0.37381 0.0
C948 C 0.76647 0.78824 0.37232 0.0
C949 C 0.77429 0.79543 0.3916 0.0
C950 C 0.75866 0.808 0.40192 0.0
C951 C 0.73552 0.81309 0.39293 0.0
C952 C 0.7824 0.77458 0.36083 0.0
C953 C 0.76643 0.81614 0.42248 0.0
H954 H 0.80519 0.73147 0.42168 0.0
H955 H 0.87841 0.82529 0.4133 0.0
H956 H 0.7404 0.74211 0.41263 0.0
H957 H 0.74588 0.72723 0.39109 0.0
H958 H 0.75169 0.71198 0.41198 0.0
H959 H 0.86788 0.86126 0.39876 0.0
H960 H 0.83522 0.84223 0.38093 0.0
H961 H 0.82977 0.85684 0.40256 0.0
H962 H 0.73758 0.78829 0.34889 0.0
H963 H 0.72371 0.82279 0.40091 0.0
H964 H 0.77827 0.75182 0.36576 0.0
H965 H 0.80839 0.79105 0.36232 0.0
H966 H 0.77361 0.77022 0.346 0.0
H967 H 0.76172 0.7946 0.42924 0.0
H968 H 0.75241 0.82607 0.4285 0.0
H969 H 0.792 0.83372 0.42575 0.0
C970 C 0.23099 0.06208 0.39574 0.0
C971 C 0.26201 0.08171 0.40401 0.0
C972 C 0.22104 0.03129 0.38793 0.0
C973 C 0.24269 0.01991 0.38837 0.0
C974 C 0.27423 0.03979 0.3964 0.0
C975 C 0.2835 0.07049 0.40423 0.0
C976 C 0.18712 0.01067 0.37963 0.0
C977 C 0.29797 0.02845 0.39698 0.0
C978 C 0.20611 0.93054 0.38546 0.0
C979 C 0.20643 0.92299 0.36672 0.0
C980 C 0.21853 0.96211 0.39277 0.0
C981 C 0.23175 0.98671 0.38106 0.0
C982 C 0.2329 0.97936 0.36224 0.0
C983 C 0.2201 0.94752 0.35526 0.0
C984 C 0.21672 0.96905 0.41291 0.0
C985 C 0.24704 0.00507 0.3494 0.0
H986 H 0.21419 0.07053 0.39582 0.0
H987 H 0.30755 0.08576 0.41053 0.0
H988 H 0.18646 0.002 0.36517 0.0
H989 H 0.17497 0.98949 0.38731 0.0
H990 H 0.1736 0.0235 0.37987 0.0
H991 H 0.32194 0.04735 0.40295 0.0
H992 H 0.28995 0.00798 0.40532 0.0
H993 H 0.29968 0.02007 0.3829 0.0
H994 H 0.19564 0.91173 0.39443 0.0
H995 H 0.22062 0.94188 0.34079 0.0
H996 H 0.20151 0.9799 0.41434 0.0
H997 H 0.24061 0.98644 0.41971 0.0
H998 H 0.20689 0.94732 0.42029 0.0
H999 H 0.2328 0.01707 0.34823 0.0
H1000 H 0.24789 0.99557 0.33541 0.0
H1001 H 0.27143 0.02339 0.35503 0.0
C1002 C 0.52021 0.591 0.27779 0.0
C1003 C 0.4879 0.58147 0.2769 0.0
C1004 C 0.54331 0.62122 0.28593 0.0
C1005 C 0.53383 0.6424 0.29325 0.0
C1006 C 0.50125 0.63298 0.29228 0.0
C1007 C 0.47866 0.60257 0.28416 0.0
C1008 C 0.57782 0.63036 0.28685 0.0
C1009 C 0.49026 0.65502 0.29983 0.0
C1010 C 0.58857 0.70868 0.32993 0.0
C1011 C 0.60203 0.73503 0.31972 0.0
C1012 C 0.5667 0.67833 0.32142 0.0
C1013 C 0.55792 0.67424 0.30226 0.0
C1014 C 0.57166 0.70063 0.29182 0.0
C1015 C 0.59365 0.73072 0.30067 0.0
C1016 C 0.55271 0.65068 0.33299 0.0
C1017 C 0.56274 0.69717 0.27136 0.0
H1018 H 0.52739 0.57462 0.27234 0.0
H1019 H 0.45372 0.59541 0.28326 0.0
H1020 H 0.59131 0.65222 0.27992 0.0
H1021 H 0.58812 0.63573 0.30142 0.0
H1022 H 0.58126 0.61129 0.28029 0.0
H1023 H 0.46409 0.64424 0.29771 0.0
H1024 H 0.49789 0.66141 0.31478 0.0
H1025 H 0.50133 0.6774 0.29311 0.0
H1026 H 0.59501 0.71174 0.34464 0.0
H1027 H 0.60389 0.75095 0.29267 0.0
H1028 H 0.55706 0.63164 0.32746 0.0
H1029 H 0.52666 0.64046 0.33238 0.0
H1030 H 0.56278 0.65769 0.34763 0.0
H1031 H 0.56731 0.67923 0.26436 0.0
H1032 H 0.5761 0.71991 0.26516 0.0
H1033 H 0.53702 0.68854 0.26861 0.0
C1034 C 0.36644 0.85193 0.28087 0.0
C1035 C 0.38412 0.88169 0.27425 0.0
C1036 C 0.3394 0.8445 0.28998 0.0
C1037 C 0.3299 0.86748 0.29278 0.0
C1038 C 0.34763 0.89757 0.2861 0.0
C1039 C 0.37438 0.90423 0.27681 0.0
C1040 C 0.32089 0.81195 0.29656 0.0
C1041 C 0.3385 0.92284 0.28891 0.0
C1042 C 0.24413 0.8391 0.30137 0.0
C1043 C 0.24631 0.845 0.32058 0.0
C1044 C 0.27104 0.84635 0.29219 0.0
C1045 C 0.30111 0.8598 0.30242 0.0
C1046 C 0.30354 0.86561 0.32182 0.0
C1047 C 0.27615 0.85813 0.33067 0.0
C1048 C 0.26727 0.83971 0.2715 0.0
C1049 C 0.33515 0.87992 0.33324 0.0
H1050 H 0.37363 0.83428 0.27875 0.0
H1051 H 0.38812 0.92737 0.2719 0.0
H1052 H 0.32006 0.81415 0.31166 0.0
H1053 H 0.29608 0.79985 0.2901 0.0
H1054 H 0.33133 0.79673 0.29328 0.0
H1055 H 0.35499 0.94516 0.28313 0.0
H1056 H 0.31419 0.91405 0.2823 0.0
H1057 H 0.3383 0.9283 0.30381 0.0
H1058 H 0.22129 0.82879 0.29338 0.0
H1059 H 0.27822 0.86286 0.34549 0.0
H1060 H 0.27718 0.82433 0.26749 0.0
H1061 H 0.28073 0.86228 0.2652 0.0
H1062 H 0.2421 0.82793 0.26564 0.0
H1063 H 0.3457 0.8645 0.33118 0.0
H1064 H 0.33313 0.8831 0.34816 0.0
H1065 H 0.3518 0.90338 0.3287 0.0
C1066 C 0.04324 0.44543 0.29262 0.0
C1067 C 0.06291 0.47606 0.28777 0.0
C1068 C 0.05626 0.4283 0.30051 0.0
C1069 C 0.08964 0.44197 0.30308 0.0
C1070 C 0.10953 0.47287 0.29803 0.0
C1071 C 0.09587 0.48971 0.29061 0.0
C1072 C 0.03437 0.39564 0.30606 0.0
C1073 C 0.14518 0.48788 0.30015 0.0
C1074 C 0.126 0.40935 0.3366 0.0
C1075 C 0.1299 0.38816 0.3248 0.0
C1076 C 0.11258 0.42686 0.32974 0.0
C1077 C 0.10378 0.42362 0.31061 0.0
C1078 C 0.10853 0.40286 0.29859 0.0
C1079 C 0.12115 0.38503 0.30589 0.0
C1080 C 0.10726 0.44832 0.34298 0.0
C1081 C 0.10026 0.39947 0.27805 0.0
H1082 H 0.01773 0.43511 0.29041 0.0
H1083 H 0.11092 0.51338 0.28665 0.0
H1084 H 0.03753 0.37764 0.29794 0.0
H1085 H 0.04036 0.39454 0.32078 0.0
H1086 H 0.00906 0.38911 0.30395 0.0
H1087 H 0.15722 0.51208 0.29549 0.0
H1088 H 0.15381 0.48947 0.31476 0.0
H1089 H 0.15224 0.47282 0.29206 0.0
H1090 H 0.13253 0.4115 0.35125 0.0
H1091 H 0.12447 0.3688 0.29675 0.0
H1092 H 0.08172 0.44097 0.3419 0.0
H1093 H 0.12032 0.47314 0.33936 0.0
H1094 H 0.11508 0.44785 0.35747 0.0
H1095 H 0.07447 0.39007 0.27495 0.0
H1096 H 0.10671 0.3833 0.27057 0.0
H1097 H 0.11273 0.42306 0.27269 0.0
C1098 C 0.3725 0.449 0.27886 0.0
C1099 C 0.384 0.48148 0.27763 0.0
C1100 C 0.34587 0.43099 0.28825 0.0
C1101 C 0.33031 0.44578 0.29652 0.0
C1102 C 0.34176 0.47853 0.29525 0.0
C1103 C 0.36841 0.49594 0.28582 0.0
C1104 C 0.33435 0.39611 0.28929 0.0
C1105 C 0.32565 0.49511 0.30369 0.0
C1106 C 0.24385 0.39406 0.30416 0.0
C1107 C 0.24558 0.39047 0.32304 0.0
C1108 C 0.27118 0.41194 0.29542 0.0
C1109 C 0.30119 0.42675 0.30577 0.0
C1110 C 0.30323 0.42356 0.32487 0.0
C1111 C 0.27536 0.40546 0.33331 0.0
C1112 C 0.26788 0.41481 0.27505 0.0
C1113 C 0.33486 0.43905 0.33635 0.0
H1114 H 0.38465 0.43778 0.27275 0.0
H1115 H 0.37693 0.52094 0.28472 0.0
H1116 H 0.33383 0.39094 0.30388 0.0
H1117 H 0.30975 0.38172 0.28258 0.0
H1118 H 0.34953 0.38837 0.28255 0.0
H1119 H 0.33808 0.52091 0.30195 0.0
H1120 H 0.3009 0.48419 0.29726 0.0
H1121 H 0.32454 0.49217 0.3186 0.0
H1122 H 0.22102 0.38272 0.29604 0.0
H1123 H 0.27696 0.40274 0.34786 0.0
H1124 H 0.28122 0.40544 0.26768 0.0
H1125 H 0.27822 0.44017 0.27259 0.0
H1126 H 0.24278 0.40172 0.26897 0.0
H1127 H 0.35002 0.43017 0.33082 0.0
H1128 H 0.33244 0.43438 0.35102 0.0
H1129 H 0.34735 0.46512 0.33559 0.0
C1130 C 0.51454 0.90741 0.28419 0.0
C1131 C 0.48734 0.88318 0.27382 0.0
C1132 C 0.53713 0.90112 0.29275 0.0
C1133 C 0.53254 0.86994 0.29063 0.0
C1134 C 0.50523 0.84553 0.27985 0.0
C1135 C 0.48281 0.85242 0.27168 0.0
C1136 C 0.56563 0.92769 0.30433 0.0
C1137 C 0.49962 0.8121 0.27705 0.0
C1138 C 0.60383 0.85899 0.30119 0.0
C1139 C 0.59883 0.84805 0.31869 0.0
C1140 C 0.58235 0.86599 0.29181 0.0
C1141 C 0.55559 0.86257 0.30028 0.0
C1142 C 0.55072 0.85194 0.31804 0.0
C1143 C 0.57219 0.84455 0.32693 0.0
C1144 C 0.58808 0.87672 0.27276 0.0
C1145 C 0.52281 0.84845 0.32769 0.0
H1146 H 0.51787 0.93119 0.28576 0.0
H1147 H 0.46174 0.83382 0.26354 0.0
H1148 H 0.56574 0.92163 0.31871 0.0
H1149 H 0.58775 0.93073 0.29912 0.0
H1150 H 0.56593 0.95067 0.30438 0.0
H1151 H 0.47804 0.79626 0.26756 0.0
H1152 H 0.52032 0.81231 0.27141 0.0
H1153 H 0.49702 0.80195 0.29046 0.0
H1154 H 0.62422 0.86151 0.29468 0.0
H1155 H 0.56828 0.83633 0.34051 0.0
H1156 H 0.59061 0.90063 0.27257 0.0
H1157 H 0.56743 0.86028 0.26284 0.0
H1158 H 0.60969 0.87767 0.26797 0.0
H1159 H 0.52311 0.87142 0.32892 0.0
H1160 H 0.52283 0.84066 0.34167 0.0
H1161 H 0.50034 0.83086 0.31948 0.0
C1162 C 0.05361 0.58006 0.30638 0.0
C1163 C 0.05685 0.57491 0.2878 0.0
C1164 C 0.06506 0.6109 0.31474 0.0
C1165 C 0.08038 0.63705 0.30428 0.0
C1166 C 0.08334 0.63192 0.28545 0.0
C1167 C 0.0714 0.60084 0.27741 0.0
C1168 C 0.06118 0.61553 0.33481 0.0
C1169 C 0.09982 0.65929 0.27392 0.0
C1170 C 0.09032 0.71722 0.32003 0.0
C1171 C 0.12189 0.73368 0.32789 0.0
C1172 C 0.07619 0.68542 0.31272 0.0
C1173 C 0.09422 0.66993 0.31311 0.0
C1174 C 0.12594 0.68625 0.32127 0.0
C1175 C 0.13936 0.71793 0.32867 0.0
C1176 C 0.04217 0.66859 0.30429 0.0
C1177 C 0.14595 0.67051 0.32177 0.0
H1178 H 0.04219 0.55992 0.31436 0.0
H1179 H 0.07431 0.59687 0.2631 0.0
H1180 H 0.08481 0.62925 0.3428 0.0
H1181 H 0.049 0.62951 0.33652 0.0
H1182 H 0.04741 0.59261 0.34076 0.0
H1183 H 0.09948 0.65115 0.25937 0.0
H1184 H 0.08835 0.67407 0.27421 0.0
H1185 H 0.12486 0.67475 0.27973 0.0
H1186 H 0.07662 0.72921 0.31952 0.0
H1187 H 0.1638 0.73055 0.33469 0.0
H1188 H 0.02811 0.6462 0.31066 0.0
H1189 H 0.04108 0.66208 0.28938 0.0
H1190 H 0.03091 0.68347 0.306 0.0
H1191 H 0.13411 0.64837 0.32867 0.0
H1192 H 0.16994 0.68622 0.32908 0.0
H1193 H 0.14861 0.66373 0.30752 0.0
C1194 C 0.82741 0.04586 0.42298 0.0
C1195 C 0.83738 0.07211 0.41277 0.0
C1196 C 0.80464 0.01528 0.4152 0.0
C1197 C 0.79135 0.01095 0.39681 0.0
C1198 C 0.80102 0.03745 0.3865 0.0
C1199 C 0.8241 0.06773 0.39459 0.0
C1200 C 0.79523 0.98754 0.42653 0.0
C1201 C 0.78714 0.03378 0.36692 0.0
C1202 C 0.75713 0.92984 0.37025 0.0
C1203 C 0.72454 0.91689 0.37155 0.0
C1204 C 0.77909 0.96033 0.37851 0.0
C1205 C 0.7682 0.97851 0.38813 0.0
C1206 C 0.73535 0.96567 0.38948 0.0
C1207 C 0.71389 0.93488 0.38126 0.0
C1208 C 0.81398 0.97305 0.37697 0.0
C1209 C 0.72288 0.98452 0.3995 0.0
H1210 H 0.83791 0.04919 0.43699 0.0
H1211 H 0.83157 0.08808 0.38675 0.0
H1212 H 0.76924 0.97478 0.42728 0.0
H1213 H 0.80119 0.97039 0.41985 0.0
H1214 H 0.80731 0.99504 0.44075 0.0
H1215 H 0.79631 0.05694 0.36105 0.0
H1216 H 0.79278 0.01825 0.35815 0.0
H1217 H 0.76094 0.02212 0.36628 0.0
H1218 H 0.76561 0.91602 0.36288 0.0
H1219 H 0.68873 0.92508 0.38225 0.0
H1220 H 0.827 0.97928 0.3909 0.0
H1221 H 0.82387 0.99512 0.36995 0.0
H1222 H 0.81858 0.9557 0.36922 0.0
H1223 H 0.73323 0.9909 0.41407 0.0
H1224 H 0.69664 0.97122 0.39916 0.0
H1225 H 0.73017 0.00706 0.39323 0.0
C1226 C 0.95341 0.75482 0.41271 0.0
C1227 C 0.948 0.77912 0.4193 0.0
C1228 C 0.98017 0.76164 0.40342 0.0
C1229 C 0.00248 0.79362 0.40112 0.0
C1230 C -0.00262 0.81829 0.40816 0.0
C1231 C 0.96996 0.81069 0.41692 0.0
C1232 C 0.98428 0.73458 0.39579 0.0
C1233 C 0.02093 0.85271 0.40647 0.0
C1234 C 0.08529 0.8113 0.39156 0.0
C1235 C 0.08482 0.81435 0.3726 0.0
C1236 C 0.05897 0.80525 0.40107 0.0
C1237 C 0.03107 0.80123 0.39131 0.0
C1238 C 0.03041 0.80417 0.37213 0.0
C1239 C 0.05744 0.81114 0.36306 0.0
C1240 C 0.06109 0.80323 0.42158 0.0
C1241 C 0.00093 0.79932 0.36112 0.0
H1242 H 0.93623 0.73038 0.41441 0.0
H1243 H 0.96575 0.82946 0.42208 0.0
H1244 H 0.98573 0.73519 0.38072 0.0
H1245 H 0.0068 0.73715 0.40203 0.0
H1246 H 0.96448 0.71103 0.39839 0.0
H1247 H 0.01415 0.8691 0.41334 0.0
H1248 H 0.04477 0.85861 0.41266 0.0
H1249 H 0.02289 0.85696 0.39175 0.0
H1250 H 0.10644 0.81399 0.39905 0.0
H1251 H 0.05684 0.81321 0.34839 0.0
H1252 H 0.04315 0.77923 0.42479 0.0
H1253 H 0.05581 0.82054 0.42873 0.0
H1254 H 0.08487 0.80807 0.42724 0.0
H1255 H 0.98084 0.77525 0.36248 0.0
H1256 H 0.00408 0.80195 0.34629 0.0
H1257 H 0.99427 0.81671 0.36656 0.0
C1258 C 0.22505 0.16579 0.39576 0.0
C1259 C 0.25599 0.18094 0.40457 0.0
C1260 C 0.21279 0.18319 0.38747 0.0
C1261 C 0.23194 0.21657 0.38802 0.0
C1262 C 0.26328 0.23203 0.39678 0.0
C1263 C 0.27493 0.214 0.40503 0.0
C1264 C 0.17915 0.16591 0.3784 0.0
C1265 C 0.28438 0.26761 0.39757 0.0
C1266 C 0.20777 0.2586 0.35392 0.0
C1267 C 0.19227 0.2701 0.36486 0.0
C1268 C 0.22106 0.24132 0.36131 0.0
C1269 C 0.21864 0.23534 0.38003 0.0
C1270 C 0.20288 0.24673 0.3911 0.0
C1271 C 0.18992 0.26397 0.38339 0.0
C1272 C 0.23775 0.22951 0.34913 0.0
C1273 C 0.19967 0.24066 0.41109 0.0
H1274 H 0.21017 0.14027 0.39564 0.0
H1275 H 0.29893 0.22571 0.41172 0.0
H1276 H 0.16476 0.17426 0.3855 0.0
H1277 H 0.17874 0.17123 0.36388 0.0
H1278 H 0.16776 0.13975 0.37867 0.0
H1279 H 0.30848 0.27584 0.4044 0.0
H1280 H 0.28657 0.27519 0.38347 0.0
H1281 H 0.27363 0.27963 0.4052 0.0
H1282 H 0.20979 0.26334 0.33963 0.0
H1283 H 0.17799 0.27275 0.39197 0.0
H1284 H 0.22594 0.20323 0.34841 0.0
H1285 H 0.26259 0.23906 0.35507 0.0
H1286 H 0.23793 0.23652 0.33493 0.0
H1287 H 0.1866 0.21472 0.41227 0.0
H1288 H 0.18698 0.25147 0.41786 0.0
H1289 H 0.22346 0.25045 0.41872 0.0
C1290 C 0.64305 0.52151 0.75382 0.0
C1291 C 0.61224 0.50657 0.74487 0.0
C1292 C 0.66944 0.53966 0.74431 0.0
C1293 C 0.66484 0.54322 0.72547 0.0
C1294 C 0.63376 0.52824 0.7164 0.0
C1295 C 0.60786 0.51002 0.72619 0.0
C1296 C 0.70225 0.55512 0.75442 0.0
C1297 C 0.62781 0.53191 0.69643 0.0
C1298 C 0.72977 0.61642 0.70726 0.0
C1299 C 0.74606 0.60401 0.69779 0.0
C1300 C 0.70302 0.59678 0.71601 0.0
C1301 C 0.69241 0.56391 0.7155 0.0
C1302 C 0.70835 0.55107 0.70568 0.0
C1303 C 0.73491 0.57128 0.69681 0.0
C1304 C 0.68642 0.61136 0.72607 0.0
C1305 C 0.69786 0.51617 0.70497 0.0
H1306 H 0.64651 0.51862 0.7682 0.0
H1307 H 0.58404 0.49879 0.71928 0.0
H1308 H 0.7172 0.54769 0.74715 0.0
H1309 H 0.71374 0.58133 0.75464 0.0
H1310 H 0.70188 0.54898 0.76883 0.0
H1311 H 0.60227 0.51802 0.69128 0.0
H1312 H 0.63659 0.55732 0.69464 0.0
H1313 H 0.64107 0.52406 0.68779 0.0
H1314 H 0.73813 0.64168 0.70798 0.0
H1315 H 0.74757 0.56162 0.68965 0.0
H1316 H 0.68785 0.60832 0.74095 0.0
H1317 H 0.66093 0.59905 0.72088 0.0
H1318 H 0.69688 0.6371 0.72451 0.0
H1319 H 0.69972 0.50967 0.7191 0.0
H1320 H 0.7123 0.50977 0.6964 0.0
H1321 H 0.67263 0.50171 0.69933 0.0
C1322 C 0.49466 0.09524 0.731 0.0
C1323 C 0.50573 0.1059 0.74959 0.0
C1324 C 0.47212 0.10127 0.72211 0.0
C1325 C 0.46073 0.11881 0.73198 0.0
C1326 C 0.47191 0.1297 0.75075 0.0
C1327 C 0.49409 0.1229 0.75937 0.0
C1328 C 0.46045 0.08881 0.70217 0.0
C1329 C 0.46073 0.14888 0.76168 0.0
C1330 C 0.42581 0.16003 0.70419 0.0
C1331 C 0.39315 0.13973 0.70461 0.0
C1332 C 0.44804 0.15367 0.71318 0.0
C1333 C 0.43738 0.12605 0.72258 0.0
C1334 C 0.40443 0.10533 0.72293 0.0
C1335 C 0.38273 0.11255 0.71408 0.0
C1336 C 0.48295 0.17663 0.71272 0.0
C1337 C 0.39209 0.07542 0.73257 0.0
H1338 H 0.50338 0.08182 0.72346 0.0
H1339 H 0.50283 0.13141 0.7737 0.0
H1340 H 0.43428 0.07347 0.70062 0.0
H1341 H 0.46627 0.10888 0.69373 0.0
H1342 H 0.47106 0.07489 0.69659 0.0
H1343 H 0.47178 0.15566 0.77613 0.0
H1344 H 0.46643 0.17083 0.75509 0.0
H1345 H 0.43461 0.13509 0.76177 0.0
H1346 H 0.43411 0.18123 0.69705 0.0
H1347 H 0.35754 0.09666 0.71441 0.0
H1348 H 0.49434 0.16434 0.70609 0.0
H1349 H 0.49467 0.18545 0.72696 0.0
H1350 H 0.48738 0.19734 0.70513 0.0
H1351 H 0.40095 0.06013 0.72669 0.0
H1352 H 0.36578 0.06155 0.73136 0.0
H1353 H 0.40101 0.08149 0.74737 0.0
C1354 C 0.94539 0.40748 0.73581 0.0
C1355 C 0.92415 0.41566 0.74293 0.0
C1356 C 0.93457 0.37669 0.72754 0.0
C1357 C 0.90198 0.35369 0.72684 0.0
C1358 C 0.88062 0.3619 0.73436 0.0
C1359 C 0.89198 0.39299 0.74215 0.0
C1360 C 0.95785 0.36886 0.71935 0.0
C1361 C 0.84584 0.33784 0.7342 0.0
C1362 C 0.86487 0.28191 0.69149 0.0
C1363 C 0.86477 0.25855 0.70185 0.0
C1364 C 0.87776 0.31326 0.69934 0.0
C1365 C 0.88999 0.32107 0.7181 0.0
C1366 C 0.88974 0.29748 0.72865 0.0
C1367 C 0.87747 0.26651 0.72031 0.0
C1368 C 0.87824 0.338 0.68759 0.0
C1369 C 0.90183 0.3048 0.74882 0.0
H1370 H 0.97028 0.42531 0.73648 0.0
H1371 H 0.87579 0.39961 0.74783 0.0
H1372 H 0.95814 0.34915 0.72608 0.0
H1373 H 0.95037 0.36067 0.7045 0.0
H1374 H 0.98231 0.38957 0.72085 0.0
H1375 H 0.83268 0.34784 0.74124 0.0
H1376 H 0.83489 0.32919 0.71982 0.0
H1377 H 0.84294 0.31695 0.74108 0.0
H1378 H 0.85531 0.27576 0.67715 0.0
H1379 H 0.87714 0.24832 0.72834 0.0
H1380 H 0.90274 0.35837 0.6881 0.0
H1381 H 0.86338 0.34731 0.69304 0.0
H1382 H 0.86934 0.32837 0.673 0.0
H1383 H 0.92697 0.32406 0.75069 0.0
H1384 H 0.9 0.28373 0.75504 0.0
H1385 H 0.8881 0.31339 0.75645 0.0
C1386 C 0.14952 0.94222 0.61086 0.0
C1387 C 0.15739 0.91824 0.60933 0.0
C1388 C 0.17202 0.97304 0.61842 0.0
C1389 C 0.20277 0.97965 0.62504 0.0
C1390 C 0.21076 0.95538 0.62349 0.0
C1391 C 0.18801 0.92497 0.61541 0.0
C1392 C 0.16283 -0.00153 0.61946 0.0
C1393 C 0.24301 0.96131 0.6308 0.0
C1394 C 0.26921 0.06567 0.6334 0.0
C1395 C 0.26823 0.07253 0.65211 0.0
C1396 C 0.24796 0.03549 0.62432 0.0
C1397 C 0.22598 0.01153 0.63439 0.0
C1398 C 0.22559 0.01818 0.65342 0.0
C1399 C 0.24643 0.04875 0.66199 0.0
C1400 C 0.24851 0.02948 0.60392 0.0
C1401 C 0.20307 0.99305 0.66473 0.0
H1402 H 0.12581 0.93685 0.60595 0.0
H1403 H 0.19388 0.90622 0.61419 0.0
H1404 H 0.16344 0.00644 0.63406 0.0
H1405 H 0.1801 0.01948 0.61298 0.0
H1406 H 0.13873 0.98999 0.61255 0.0
H1407 H 0.24559 0.94002 0.62826 0.0
H1408 H 0.26181 0.98121 0.62432 0.0
H1409 H 0.24706 0.96837 0.64584 0.0
H1410 H 0.28595 0.08418 0.62574 0.0
H1411 H 0.2459 0.05399 0.67653 0.0
H1412 H 0.22515 0.0228 0.59661 0.0
H1413 H 0.25266 0.00928 0.60109 0.0
H1414 H 0.26714 0.0506 0.59812 0.0
H1415 H 0.17824 0.98548 0.65967 0.0
H1416 H 0.20704 0.00161 0.67957 0.0
H1417 H 0.20582 0.97176 0.66324 0.0
C1418 C 0.01811 0.20001 0.59904 0.0
C1419 C 0.04869 0.21706 0.60832 0.0
C1420 C 0.99125 0.19303 0.60827 0.0
C1421 C 0.99511 0.20384 0.62716 0.0
C1422 C 0.02599 0.2214 0.63652 0.0
C1423 C 0.05234 0.2276 0.62702 0.0
C1424 C 0.95873 0.17395 0.59785 0.0
C1425 C 0.03124 0.23394 0.65652 0.0
C1426 C 0.92873 0.21292 0.64604 0.0
C1427 C 0.91359 0.18603 0.65572 0.0
C1428 C 0.95535 0.21908 0.63685 0.0
C1429 C 0.96696 0.19758 0.63704 0.0
C1430 C 0.95182 0.17037 0.6468 0.0
C1431 C 0.92549 0.16506 0.65615 0.0
C1432 C 0.97105 0.24865 0.62691 0.0
C1433 C 0.9632 0.14665 0.64712 0.0
H1434 H 0.01518 0.19159 0.58463 0.0
H1435 H 0.07596 0.2411 0.6342 0.0
H1436 H 0.94403 0.15238 0.60476 0.0
H1437 H 0.94659 0.18812 0.59785 0.0
H1438 H 0.9597 0.16658 0.58337 0.0
H1439 H 0.05675 0.24722 0.66179 0.0
H1440 H 0.02131 0.24996 0.65837 0.0
H1441 H 0.01862 0.21402 0.66503 0.0
H1442 H 0.91982 0.22935 0.64567 0.0
H1443 H 0.91376 0.14408 0.66344 0.0
H1444 H 0.97016 0.24204 0.61204 0.0
H1445 H -0.00359 0.26333 0.63227 0.0
H1446 H 0.95958 0.26336 0.62844 0.0
H1447 H 0.96242 0.13704 0.63286 0.0
H1448 H 0.94867 0.12652 0.65514 0.0
H1449 H 0.98821 0.15851 0.65321 0.0
C1450 C 0.76787 0.82454 0.62159 0.0
C1451 C 0.73508 0.81228 0.61912 0.0
C1452 C 0.78051 0.80704 0.62933 0.0
C1453 C 0.75977 0.77693 0.63509 0.0
C1454 C 0.72657 0.76462 0.6328 0.0
C1455 C 0.71456 0.78236 0.62459 0.0
C1456 C 0.81598 0.82059 0.63115 0.0
C1457 C 0.70383 0.73286 0.6391 0.0
C1458 C 0.78901 0.71844 0.63975 0.0
C1459 C 0.79861 0.7232 0.65864 0.0
C1460 C 0.77654 0.73598 0.63187 0.0
C1461 C 0.77288 0.75818 0.64327 0.0
C1462 C 0.78226 0.76285 0.6624 0.0
C1463 C 0.79546 0.74556 0.66984 0.0
C1464 C 0.76759 0.73098 0.61133 0.0
C1465 C 0.77811 0.7859 0.675 0.0
H1466 H 0.78359 0.84765 0.61716 0.0
H1467 H 0.68919 0.77312 0.62268 0.0
H1468 H 0.8249 0.82321 0.64581 0.0
H1469 H 0.82185 0.80405 0.62362 0.0
H1470 H 0.82873 0.84412 0.62571 0.0
H1471 H 0.67879 0.72721 0.63688 0.0
H1472 H 0.70609 0.71376 0.63158 0.0
H1473 H 0.70977 0.73267 0.65396 0.0
H1474 H 0.79174 0.70132 0.63106 0.0
H1475 H 0.80265 0.749 0.68448 0.0
H1476 H 0.7809 0.75379 0.60523 0.0
H1477 H 0.742 0.72281 0.6084 0.0
H1478 H 0.77255 0.71324 0.60439 0.0
H1479 H 0.79212 0.81031 0.6709 0.0
H1480 H 0.78567 0.78598 0.68964 0.0
H1481 H 0.75288 0.77971 0.67377 0.0
C1482 C 0.04286 0.78673 0.61352 0.0
C1483 C 0.05388 0.8189 0.61145 0.0
C1484 C 0.0165 0.76923 0.62322 0.0
C1485 C 0.00071 0.78421 0.63095 0.0
C1486 C 0.01165 0.81663 0.62883 0.0
C1487 C 0.03806 0.83355 0.61912 0.0
C1488 C 0.00551 0.73468 0.62515 0.0
C1489 C 0.99527 0.83339 0.63667 0.0
C1490 C 0.91453 0.73204 0.63908 0.0
C1491 C 0.91649 0.72961 0.65811 0.0
C1492 C 0.94168 0.74976 0.63015 0.0
C1493 C 0.97176 0.76559 0.64046 0.0
C1494 C 0.97402 0.76362 0.6597 0.0
C1495 C 0.94632 0.74565 0.66832 0.0
C1496 C 0.93813 0.75128 0.60963 0.0
C1497 C 0.00573 0.78021 0.67112 0.0
H1498 H 0.0552 0.77538 0.60783 0.0
H1499 H 0.0462 0.8583 0.61737 0.0
H1500 H 0.00526 0.73057 0.63992 0.0
H1501 H 0.9809 0.71964 0.61858 0.0
H1502 H 0.02087 0.72679 0.61877 0.0
H1503 H 0.00736 0.85894 0.63434 0.0
H1504 H 0.97044 0.82184 0.63028 0.0
H1505 H 0.99437 0.83144 0.65168 0.0
H1506 H 0.89166 0.71983 0.63097 0.0
H1507 H 0.94811 0.74382 0.68299 0.0
H1508 H 0.95162 0.74168 0.60263 0.0
H1509 H 0.94816 0.77635 0.60659 0.0
H1510 H 0.913 0.73765 0.60363 0.0
H1511 H 0.02111 0.77124 0.66605 0.0
H1512 H 0.00348 0.77661 0.68594 0.0
H1513 H 0.01787 0.80607 0.66971 0.0
C1514 C 0.18353 0.23966 0.60852 0.0
C1515 C 0.15118 0.2169 0.60714 0.0
C1516 C 0.2064 0.23378 0.61711 0.0
C1517 C 0.19672 0.20432 0.62435 0.0
C1518 C 0.16411 0.18111 0.6228 0.0
C1519 C 0.14174 0.18773 0.6143 0.0
C1520 C 0.24089 0.25927 0.61865 0.0
C1521 C 0.15285 0.14928 0.63016 0.0
C1522 C 0.2576 0.17801 0.63297 0.0
C1523 C 0.26523 0.18508 0.65209 0.0
C1524 C 0.23539 0.18415 0.62375 0.0
C1525 C 0.22063 0.19798 0.63386 0.0
C1526 C 0.22848 0.2055 0.65312 0.0
C1527 C 0.25055 0.19884 0.662 0.0
C1528 C 0.22748 0.17556 0.60322 0.0
C1529 C 0.2135 0.22054 0.66437 0.0
H1530 H 0.19092 0.26235 0.60318 0.0
H1531 H 0.11679 0.16993 0.61307 0.0
H1532 H 0.25038 0.26635 0.63335 0.0
H1533 H 0.25493 0.24995 0.61206 0.0
H1534 H 0.24456 0.28073 0.61211 0.0
H1535 H 0.12676 0.13354 0.62747 0.0
H1536 H 0.16458 0.13712 0.62379 0.0
H1537 H 0.15952 0.15269 0.64522 0.0
H1538 H 0.26872 0.16729 0.62517 0.0
H1539 H 0.25636 0.20453 0.67676 0.0
H1540 H 0.23244 0.19696 0.59624 0.0
H1541 H 0.20183 0.15819 0.60006 0.0
H1542 H 0.24119 0.16515 0.59735 0.0
H1543 H 0.21806 0.24312 0.65899 0.0
H1544 H 0.22266 0.22556 0.67915 0.0
H1545 H 0.18743 0.2046 0.66319 0.0
C1546 C 0.71387 0.92636 0.61879 0.0
C1547 C 0.73439 0.91404 0.61799 0.0
C1548 C 0.72504 0.95779 0.62602 0.0
C1549 C 0.75747 0.97722 0.63252 0.0
C1550 C 0.77829 0.96492 0.63171 0.0
C1551 C 0.76649 0.93345 0.62444 0.0
C1552 C 0.70217 0.97017 0.62674 0.0
C1553 C 0.81306 0.98504 0.63846 0.0
C1554 C 0.79383 0.0667 0.63635 0.0
C1555 C 0.79438 0.07371 0.65527 0.0
C1556 C 0.78161 0.03532 0.62872 0.0
C1557 C 0.76968 0.01043 0.64029 0.0
C1558 C 0.77 0.0173 0.65937 0.0
C1559 C 0.78239 0.04889 0.66665 0.0
C1560 C 0.78169 0.0288 0.60829 0.0
C1561 C 0.75744 0.9913 0.67212 0.0
H1562 H 0.68901 0.9113 0.61392 0.0
H1563 H 0.78252 0.92413 0.62354 0.0
H1564 H 0.70155 0.97795 0.64118 0.0
H1565 H 0.71026 0.99123 0.61889 0.0
H1566 H 0.67773 0.95202 0.62102 0.0
H1567 H 0.82606 0.97182 0.63686 0.0
H1568 H 0.82424 0.0063 0.63075 0.0
H1569 H 0.81588 0.99361 0.6532 0.0
H1570 H 0.80305 0.08575 0.62747 0.0
H1571 H 0.78268 0.05409 0.68128 0.0
H1572 H 0.75722 0.01205 0.60199 0.0
H1573 H 0.7961 0.01733 0.60586 0.0
H1574 H 0.79138 0.0508 0.60116 0.0
H1575 H 0.73237 0.97354 0.66745 0.0
H1576 H 0.75884 0.00059 0.68657 0.0
H1577 H 0.77112 0.97867 0.67177 0.0
C1578 C 0.4772 0.39688 0.74682 0.0
C1579 C 0.50938 0.40605 0.74714 0.0
C1580 C 0.45357 0.36672 0.73894 0.0
C1581 C 0.46236 0.3452 0.73127 0.0
C1582 C 0.49481 0.35429 0.7316 0.0
C1583 C 0.51795 0.38467 0.73949 0.0
C1584 C 0.41921 0.35795 0.73871 0.0
C1585 C 0.50506 0.3319 0.72364 0.0
C1586 C 0.40136 0.25717 0.72486 0.0
C1587 C 0.39161 0.25261 0.70598 0.0
C1588 C 0.42429 0.28723 0.73332 0.0
C1589 C 0.43763 0.31333 0.72264 0.0
C1590 C 0.4276 0.30897 0.70363 0.0
C1591 C 0.40478 0.27865 0.69552 0.0
C1592 C 0.43452 0.29099 0.75362 0.0
C1593 C 0.44114 0.3363 0.69182 0.0
H1594 H 0.47052 0.4135 0.75255 0.0
H1595 H 0.54279 0.39156 0.73992 0.0
H1596 H 0.40812 0.35234 0.72431 0.0
H1597 H 0.40604 0.33632 0.74589 0.0
H1598 H 0.41636 0.37732 0.74541 0.0
H1599 H 0.53123 0.34249 0.72518 0.0
H1600 H 0.49435 0.30968 0.73053 0.0
H1601 H 0.49649 0.32524 0.7088 0.0
H1602 H 0.39139 0.23716 0.73304 0.0
H1603 H 0.39735 0.27539 0.68092 0.0
H1604 H 0.43052 0.30914 0.76087 0.0
H1605 H 0.46029 0.2995 0.75577 0.0
H1606 H 0.42156 0.2684 0.76002 0.0
H1607 H 0.43734 0.35564 0.69749 0.0
H1608 H 0.43031 0.32907 0.67733 0.0
H1609 H 0.4671 0.34624 0.69194 0.0
C1610 C 0.62042 0.08654 0.74815 0.0
C1611 C 0.60961 0.10834 0.74998 0.0
C1612 C 0.64729 0.09347 0.73893 0.0
C1613 C 0.66396 0.12304 0.73153 0.0
C1614 C 0.65343 0.14532 0.73361 0.0
C1615 C 0.62637 0.13766 0.74273 0.0
C1616 C 0.65763 0.069 0.73693 0.0
C1617 C 0.67078 0.17731 0.72621 0.0
C1618 C 0.74977 0.15345 0.72234 0.0
C1619 C 0.74713 0.14664 0.70318 0.0
C1620 C 0.72299 0.14588 0.73171 0.0
C1621 C 0.6926 0.13089 0.72174 0.0
C1622 C 0.68968 0.12391 0.7024 0.0
C1623 C 0.71697 0.13197 0.69334 0.0
C1624 C 0.72728 0.15395 0.75231 0.0
C1625 C 0.65769 0.10777 0.69129 0.0
H1626 H 0.60741 0.06374 0.75357 0.0
H1627 H 0.6184 0.15478 0.7443 0.0
H1628 H 0.65749 0.06244 0.72214 0.0
H1629 H 0.68227 0.07908 0.74335 0.0
H1630 H 0.64206 0.04712 0.74338 0.0
H1631 H 0.6597 0.19207 0.72909 0.0
H1632 H 0.69576 0.19044 0.73242 0.0
H1633 H 0.67119 0.17411 0.71112 0.0
H1634 H 0.77289 0.16481 0.73014 0.0
H1635 H 0.7146 0.12643 0.67858 0.0
H1636 H 0.71461 0.1319 0.75919 0.0
H1637 H 0.71685 0.16902 0.75591 0.0
H1638 H 0.75262 0.16667 0.75793 0.0
H1639 H 0.64191 0.08466 0.69651 0.0
H1640 H 0.65933 0.10349 0.67642 0.0
H1641 H 0.64634 0.12256 0.69283 0.0
C1642 C 0.89103 0.50245 0.73411 0.0
C1643 C 0.9222 0.51664 0.74248 0.0
C1644 C 0.87983 0.52053 0.72558 0.0
C1645 C 0.90029 0.55361 0.72549 0.0
C1646 C 0.93181 0.5681 0.73387 0.0
C1647 C 0.9424 0.54941 0.74231 0.0
C1648 C 0.84599 0.50431 0.7169 0.0
C1649 C 0.95424 0.60335 0.73402 0.0
C1650 C 0.87836 0.59622 0.69069 0.0
C1651 C 0.86418 0.60942 0.70149 0.0
C1652 C 0.89047 0.57814 0.69835 0.0
C1653 C 0.88824 0.57317 0.71721 0.0
C1654 C 0.87391 0.58639 0.72816 0.0
C1655 C 0.86206 0.60434 0.72017 0.0
C1656 C 0.90559 0.5643 0.68628 0.0
C1657 C 0.87102 0.58151 0.74832 0.0
H1658 H 0.87519 0.4772 0.73448 0.0
H1659 H 0.96658 0.56035 0.74864 0.0
H1660 H 0.83275 0.51419 0.72392 0.0
H1661 H 0.84542 0.50891 0.70224 0.0
H1662 H 0.83348 0.47821 0.71766 0.0
H1663 H 0.97823 0.61078 0.74073 0.0
H1664 H 0.95647 0.61013 0.71973 0.0
H1665 H 0.94466 0.61675 0.74143 0.0
H1666 H 0.88013 0.6001 0.67626 0.0
H1667 H 0.85113 0.61444 0.72865 0.0
H1668 H 0.89257 0.53802 0.68599 0.0
H1669 H 0.93033 0.57283 0.69205 0.0
H1670 H 0.90583 0.57071 0.67194 0.0
H1671 H 0.85692 0.55577 0.74995 0.0
H1672 H 0.85952 0.59374 0.75495 0.0
H1673 H 0.89483 0.59053 0.75575 0.0
C1674 C 0.44535 0.94877 0.21814 0.0
C1675 C 0.45209 0.92462 0.22185 0.0
C1676 C 0.45192 0.96271 0.20142 0.0
C1677 C 0.46562 0.95233 0.18809 0.0
C1678 C 0.47192 0.92759 0.19163 0.0
C1679 C 0.46497 0.914 0.20837 0.0
C1680 C 0.44472 0.98892 0.19815 0.0
C1681 C 0.48641 0.9157 0.17781 0.0
C1682 C 0.46145 0.96872 0.13795 0.0
C1683 C 0.49187 0.99464 0.1369 0.0
C1684 C 0.45231 0.9552 0.15459 0.0
C1685 C 0.47415 0.96774 0.1706 0.0
C1686 C 0.50473 0.99417 0.1697 0.0
C1687 C 0.51318 0.00731 0.1529 0.0
C1688 C 0.41942 0.92721 0.15496 0.0
C1689 C 0.52883 0.00812 0.18639 0.0
H1690 H 0.43563 0.95733 0.22848 0.0
H1691 H 0.46966 0.89491 0.2109 0.0
H1692 H 0.46702 0.01125 0.19678 0.0
H1693 H 0.4293 0.98286 0.18507 0.0
H1694 H 0.4328 0.99332 0.2095 0.0
H1695 H 0.48945 0.896 0.18254 0.0
H1696 H 0.47129 0.90725 0.1645 0.0
H1697 H 0.50993 0.93541 0.17521 0.0
H1698 H 0.44465 0.95905 0.12573 0.0
H1699 H 0.53683 0.02708 0.1522 0.0
H1700 H 0.40709 0.93242 0.16571 0.0
H1701 H 0.42095 0.90614 0.15855 0.0
H1702 H 0.40483 0.92107 0.14152 0.0
H1703 H 0.51888 0.01484 0.19793 0.0
H1704 H 0.55112 0.02942 0.18361 0.0
H1705 H 0.5346 0.99007 0.19098 0.0
C1706 C 0.02014 0.48192 0.22081 0.0
C1707 C 0.00705 0.49283 0.23395 0.0
C1708 C 0.00954 0.47735 0.20207 0.0
C1709 C 0.98531 0.4839 0.19637 0.0
C1710 C 0.97092 0.4934 0.20965 0.0
C1711 C 0.982 0.49778 0.22831 0.0
C1712 C 0.02545 0.46716 0.18831 0.0
C1713 C 0.94484 0.50035 0.20407 0.0
C1714 C 0.98723 0.50994 0.14844 0.0
C1715 C 0.96391 0.48182 0.13827 0.0
C1716 C 0.99399 0.51103 0.16743 0.0
C1717 C 0.97696 0.48332 0.17647 0.0
C1718 C 0.95293 0.45502 0.16637 0.0
C1719 C 0.9467 0.4546 0.14736 0.0
C1720 C 0.01973 0.54171 0.17778 0.0
C1721 C 0.93434 0.42505 0.17557 0.0
H1722 H 0.03979 0.47846 0.22505 0.0
H1723 H 0.9716 0.50587 0.23847 0.0
H1724 H 0.00747 0.44674 0.17877 0.0
H1725 H 0.03911 0.48693 0.17989 0.0
H1726 H 0.0419 0.46034 0.19507 0.0
H1727 H 0.93415 0.5046 0.21613 0.0
H1728 H 0.95451 0.52175 0.19644 0.0
H1729 H 0.92589 0.48034 0.19471 0.0
H1730 H 0.00026 0.53115 0.14152 0.0
H1731 H 0.92888 0.43271 0.13952 0.0
H1732 H 0.03895 0.53816 0.18392 0.0
H1733 H 0.01011 0.54904 0.18924 0.0
H1734 H 0.03013 0.56133 0.16878 0.0
H1735 H 0.9505 0.41691 0.18109 0.0
H1736 H 0.91525 0.40554 0.16596 0.0
H1737 H 0.92355 0.42978 0.18739 0.0
C1738 C 0.47942 0.50136 0.22095 0.0
C1739 C 0.44965 0.49725 0.22423 0.0
C1740 C 0.48588 0.49543 0.20319 0.0
C1741 C 0.46197 0.48508 0.18832 0.0
C1742 C 0.43137 0.47936 0.19169 0.0
C1743 C 0.42555 0.48549 0.20963 0.0
C1744 C 0.51875 0.50161 0.20025 0.0
C1745 C 0.40523 0.46824 0.1762 0.0
C1746 C 0.49113 0.50781 0.14154 0.0
C1747 C 0.4885 0.47959 0.13358 0.0
C1748 C 0.48194 0.50965 0.15917 0.0
C1749 C 0.46985 0.48262 0.16916 0.0
C1750 C 0.46671 0.45392 0.16114 0.0
C1751 C 0.47609 0.45275 0.14345 0.0
C1752 C 0.4858 0.54076 0.16726 0.0
C1753 C 0.45381 0.42459 0.17133 0.0
H1754 H 0.49799 0.51001 0.23225 0.0
H1755 H 0.40258 0.48247 0.21208 0.0
H1756 H 0.51744 0.48057 0.19262 0.0
H1757 H 0.53034 0.52179 0.19176 0.0
H1758 H 0.53394 0.50738 0.21341 0.0
H1759 H 0.38204 0.46192 0.18131 0.0
H1760 H 0.41128 0.48732 0.16696 0.0
H1761 H 0.40277 0.44726 0.16783 0.0
H1762 H 0.50105 0.52877 0.13412 0.0
H1763 H 0.47353 0.43072 0.13729 0.0
H1764 H 0.5029 0.5498 0.17979 0.0
H1765 H 0.46286 0.53715 0.17145 0.0
H1766 H 0.4944 0.55918 0.15743 0.0
H1767 H 0.46956 0.42929 0.18409 0.0
H1768 H 0.45172 0.4038 0.1629 0.0
H1769 H 0.43011 0.41843 0.17552 0.0
C1770 C 0.96401 0.47302 0.80968 0.0
C1771 C 0.97398 0.49625 0.79725 0.0
C1772 C 0.97637 0.48073 0.82817 0.0
C1773 C -0.00105 0.51259 0.83452 0.0
C1774 C 0.00922 0.53623 0.82211 0.0
C1775 C -0.00331 0.52775 0.80357 0.0
C1776 C 0.9649 0.45479 0.84099 0.0
C1777 C 0.03311 0.57048 0.82847 0.0
C1778 C 0.00321 0.53119 0.88588 0.0
C1779 C 0.02901 0.52795 0.89236 0.0
C1780 C 0.99419 0.52793 0.86698 0.0
C1781 C 0.01115 0.52091 0.85428 0.0
C1782 C 0.03796 0.51886 0.86067 0.0
C1783 C 0.04667 0.52258 0.87964 0.0
C1784 C 0.96558 0.5305 0.86066 0.0
C1785 C 0.05656 0.51128 0.84752 0.0
H1786 H 0.94594 0.44877 0.80504 0.0
H1787 H 0.00467 0.54578 0.79401 0.0
H1788 H 0.98533 0.45389 0.84782 0.0
H1789 H 0.95289 0.45997 0.85195 0.0
H1790 H 0.9481 0.43101 0.83371 0.0
H1791 H 0.03895 0.58591 0.81703 0.0
H1792 H 0.02371 0.57964 0.8392 0.0
H1793 H 0.05527 0.57234 0.83479 0.0
H1794 H 0.98923 0.53502 0.89559 0.0
H1795 H 0.06702 0.52068 0.88454 0.0
H1796 H 0.94598 0.5068 0.85483 0.0
H1797 H 0.97114 0.54663 0.84961 0.0
H1798 H 0.95712 0.53942 0.87208 0.0
H1799 H 0.04151 0.48672 0.84081 0.0
H1800 H 0.07833 0.5132 0.85457 0.0
H1801 H 0.0634 0.52749 0.83649 0.0
C1802 C 0.51957 0.48713 0.80267 0.0
C1803 C 0.54932 0.49118 0.79941 0.0
C1804 C 0.51336 0.49389 0.82031 0.0
C1805 C 0.53753 0.5051 0.8351 0.0
C1806 C 0.56815 0.5109 0.83172 0.0
C1807 C 0.57371 0.50388 0.81388 0.0
C1808 C 0.48044 0.48755 0.82328 0.0
C1809 C 0.59458 0.52297 0.84711 0.0
C1810 C 0.52253 0.53765 0.87959 0.0
C1811 C 0.51056 0.51103 0.88963 0.0
C1812 C 0.53224 0.53643 0.862 0.0
C1813 C 0.52976 0.50787 0.85424 0.0
C1814 C 0.51811 0.48109 0.86442 0.0
C1815 C 0.50866 0.48299 0.88195 0.0
C1816 C 0.54469 0.56551 0.8516 0.0
C1817 C 0.51487 0.4501 0.85661 0.0
H1818 H 0.50081 0.47785 0.79144 0.0
H1819 H 0.59671 0.50695 0.81143 0.0
H1820 H 0.46911 0.46763 0.83196 0.0
H1821 H 0.4816 0.50868 0.83069 0.0
H1822 H 0.46509 0.4813 0.81013 0.0
H1823 H 0.61778 0.52962 0.84192 0.0
H1824 H 0.59665 0.54393 0.85529 0.0
H1825 H 0.58913 0.50426 0.85655 0.0
H1826 H 0.52443 0.55951 0.88554 0.0
H1827 H 0.49903 0.46218 0.88949 0.0
H1828 H 0.52869 0.56043 0.8389 0.0
H1829 H 0.56835 0.57179 0.8473 0.0
H1830 H 0.54668 0.58635 0.85992 0.0
H1831 H 0.49769 0.44052 0.8441 0.0
H1832 H 0.50665 0.43193 0.86659 0.0
H1833 H 0.53794 0.45406 0.85245 0.0
C1834 C 0.56606 0.07696 0.81675 0.0
C1835 C 0.54164 0.06572 0.80233 0.0
C1836 C 0.56035 0.06473 0.83397 0.0
C1837 C 0.52947 0.04064 0.83688 0.0
C1838 C 0.50489 0.0288 0.82228 0.0
C1839 C 0.51126 0.04142 0.80523 0.0
C1840 C 0.58722 0.07801 0.84916 0.0
C1841 C 0.47168 0.00304 0.82473 0.0
C1842 C 0.51715 0.98922 0.87646 0.0
C1843 C 0.50648 0.00298 0.88957 0.0
C1844 C 0.5252 0.00151 0.8594 0.0
C1845 C 0.52255 0.02824 0.85529 0.0
C1846 C 0.51223 0.04251 0.86856 0.0
C1847 C 0.50434 0.02974 0.88549 0.0
C1848 C 0.53604 0.98553 0.84565 0.0
C1849 C 0.50916 0.0711 0.86478 0.0
H1850 H 0.58952 0.09591 0.81472 0.0
H1851 H 0.49235 0.03218 0.7941 0.0
H1852 H 0.58171 0.08939 0.86084 0.0
H1853 H 0.59007 0.05854 0.85443 0.0
H1854 H 0.61008 0.09584 0.84452 0.0
H1855 H 0.45538 0.99592 0.81191 0.0
H1856 H 0.47201 0.98177 0.82914 0.0
H1857 H 0.46202 0.01138 0.83572 0.0
H1858 H 0.51858 0.96835 0.87936 0.0
H1859 H 0.49665 0.0409 0.89563 0.0
H1860 H 0.55942 0.00307 0.84148 0.0
H1861 H 0.51906 0.97597 0.83305 0.0
H1862 H 0.53804 0.96575 0.8512 0.0
H1863 H 0.53215 0.09063 0.86135 0.0
H1864 H 0.50161 0.07993 0.8767 0.0
H1865 H 0.49158 0.06495 0.85271 0.0
C1866 C 0.09055 0.24735 0.54083 0.0
C1867 C 0.11493 0.25828 0.55524 0.0
C1868 C 0.09634 0.26006 0.52374 0.0
C1869 C 0.12723 0.28433 0.52098 0.0
C1870 C 0.15173 0.29591 0.53561 0.0
C1871 C 0.14529 0.28281 0.55252 0.0
C1872 C 0.06955 0.24707 0.5085 0.0
C1873 C 0.18495 0.32186 0.53334 0.0
C1874 C 0.15334 0.29647 0.47266 0.0
C1875 C 0.15143 0.32343 0.46879 0.0
C1876 C 0.14494 0.28317 0.4894 0.0
C1877 C 0.13432 0.29709 0.50269 0.0
C1878 C 0.1318 0.32397 0.49877 0.0
C1879 C 0.14037 0.3368 0.4819 0.0
C1880 C 0.14787 0.25443 0.49298 0.0
C1881 C 0.12067 0.33959 0.51256 0.0
H1882 H 0.0671 0.22827 0.54275 0.0
H1883 H 0.16414 0.29183 0.56367 0.0
H1884 H 0.06682 0.26666 0.50333 0.0
H1885 H 0.07509 0.23579 0.49678 0.0
H1886 H 0.04663 0.2292 0.51307 0.0
H1887 H 0.20113 0.32882 0.5462 0.0
H1888 H 0.19477 0.31377 0.52233 0.0
H1889 H 0.18457 0.34317 0.52905 0.0
H1890 H 0.16131 0.28562 0.46251 0.0
H1891 H 0.13909 0.3578 0.47914 0.0
H1892 H 0.12483 0.23485 0.49631 0.0
H1893 H 0.16538 0.26034 0.50505 0.0
H1894 H 0.15546 0.24577 0.481 0.0
H1895 H 0.09728 0.32186 0.51662 0.0
H1896 H 0.11859 0.35939 0.5071 0.0
H1897 H 0.13754 0.34906 0.52521 0.0
C1898 C 0.653 0.83505 0.56099 0.0
C1899 C 0.6774 0.82886 0.56616 0.0
C1900 C 0.64063 0.83 0.54253 0.0
C1901 C 0.6531 0.81861 0.529 0.0
C1902 C 0.67657 0.81077 0.53427 0.0
C1903 C 0.68845 0.81601 0.55281 0.0
C1904 C 0.61538 0.83832 0.53742 0.0
C1905 C 0.69045 0.79856 0.52022 0.0
C1906 C 0.61196 0.78814 0.48059 0.0
C1907 C 0.62985 0.81446 0.47096 0.0
C1908 C 0.61861 0.78937 0.49963 0.0
C1909 C 0.6438 0.81754 0.50919 0.0
C1910 C 0.6614 0.84443 0.49963 0.0
C1911 C 0.65417 0.84257 0.48063 0.0
C1912 C 0.59936 0.76027 0.50941 0.0
C1913 C 0.68839 0.87495 0.50938 0.0
H1914 H 0.64418 0.84467 0.57134 0.0
H1915 H 0.7076 0.81158 0.55668 0.0
H1916 H 0.62544 0.85945 0.52956 0.0
H1917 H 0.59549 0.81854 0.5284 0.0
H1918 H 0.60588 0.84367 0.54971 0.0
H1919 H 0.70643 0.79095 0.52673 0.0
H1920 H 0.6713 0.77818 0.51117 0.0
H1921 H 0.70416 0.81753 0.51133 0.0
H1922 H 0.59333 0.76624 0.47315 0.0
H1923 H 0.66771 0.86311 0.47328 0.0
H1924 H 0.59017 0.76651 0.52153 0.0
H1925 H 0.61467 0.75092 0.51457 0.0
H1926 H 0.57904 0.74112 0.50028 0.0
H1927 H 0.68003 0.88346 0.52101 0.0
H1928 H 0.69891 0.89404 0.50006 0.0
H1929 H 0.70728 0.87062 0.51523 0.0
C1930 C 0.09568 0.81993 0.54374 0.0
C1931 C 0.11971 0.8317 0.55839 0.0
C1932 C 0.10158 0.8137 0.52583 0.0
C1933 C 0.13218 0.81934 0.52255 0.0
C1934 C 0.15595 0.82951 0.53749 0.0
C1935 C 0.14941 0.83554 0.55521 0.0
C1936 C 0.07557 0.80275 0.51028 0.0
C1937 C 0.18881 0.83559 0.53464 0.0
C1938 C 0.14657 0.78795 0.47742 0.0
C1939 C 0.15899 0.81502 0.46775 0.0
C1940 C 0.13715 0.78875 0.49514 0.0
C1941 C 0.14029 0.81731 0.5034 0.0
C1942 C 0.15246 0.84458 0.49361 0.0
C1943 C 0.16166 0.84311 0.47595 0.0
C1944 C 0.12416 0.75916 0.5051 0.0
C1945 C 0.15633 0.87556 0.50194 0.0
H1946 H 0.07275 0.81713 0.54609 0.0
H1947 H 0.16792 0.84422 0.56655 0.0
H1948 H 0.08161 0.82206 0.50121 0.0
H1949 H 0.07331 0.78202 0.50176 0.0
H1950 H 0.05228 0.79615 0.51534 0.0
H1951 H 0.20375 0.84087 0.54785 0.0
H1952 H 0.18749 0.81471 0.5268 0.0
H1953 H 0.20068 0.85607 0.5264 0.0
H1954 H 0.14399 0.76602 0.47108 0.0
H1955 H 0.1716 0.86423 0.46868 0.0
H1956 H 0.10038 0.75284 0.50921 0.0
H1957 H 0.13975 0.76361 0.51789 0.0
H1958 H 0.12221 0.73856 0.49654 0.0
H1959 H 0.13333 0.8719 0.50607 0.0
H1960 H 0.16515 0.89427 0.4923 0.0
H1961 H 0.17325 0.88426 0.51456 0.0
C1962 C 0.62222 0.83528 0.14039 0.0
C1963 C 0.63462 0.82258 0.12781 0.0
C1964 C 0.63252 0.8407 0.15921 0.0
C1965 C 0.65561 0.83303 0.16561 0.0
C1966 C 0.66889 0.82105 0.15295 0.0
C1967 C 0.65828 0.81604 0.13418 0.0
C1968 C 0.61789 0.85359 0.17232 0.0
C1969 C 0.6936 0.81264 0.15928 0.0
C1970 C 0.69832 0.86632 0.21354 0.0
C1971 C 0.68105 0.84065 0.22374 0.0
C1972 C 0.6903 0.86425 0.19458 0.0
C1973 C 0.66453 0.83579 0.18566 0.0
C1974 C 0.64708 0.80978 0.19588 0.0
C1975 C 0.65553 0.81256 0.21481 0.0
C1976 C 0.70926 0.89252 0.18412 0.0
C1977 C 0.61956 0.77896 0.1868 0.0
H1978 H 0.60363 0.84 0.1356 0.0
H1979 H 0.66825 0.80663 0.12448 0.0
H1980 H 0.60399 0.83535 0.18154 0.0
H1981 H 0.63668 0.87461 0.18115 0.0
H1982 H 0.60197 0.86052 0.16501 0.0
H1983 H 0.70269 0.8051 0.14759 0.0
H1984 H 0.71384 0.83327 0.16758 0.0
H1985 H 0.6833 0.79303 0.16826 0.0
H1986 H 0.71786 0.88819 0.22046 0.0
H1987 H 0.64241 0.79253 0.22261 0.0
H1988 H 0.69348 0.90037 0.17765 0.0
H1989 H 0.71971 0.88578 0.17287 0.0
H1990 H 0.72868 0.91288 0.19311 0.0
H1991 H 0.6012 0.78336 0.18022 0.0
H1992 H 0.6085 0.761 0.19671 0.0
H1993 H 0.62767 0.7689 0.17578 0.0
C1994 C 0.22454 0.85948 0.14046 0.0
C1995 C 0.2185 0.82852 0.13571 0.0
C1996 C 0.21944 0.86838 0.15801 0.0
C1997 C 0.20803 0.84576 0.17104 0.0
C1998 C 0.20313 0.81488 0.16653 0.0
C1999 C 0.20853 0.80672 0.14898 0.0
C2000 C 0.22517 0.90159 0.16238 0.0
C2001 C 0.19115 0.79007 0.18003 0.0
C2002 C 0.21187 0.86714 0.22222 0.0
C2003 C 0.18031 0.85882 0.22417 0.0
C2004 C 0.22172 0.86459 0.20487 0.0
C2005 C 0.19948 0.85343 0.18908 0.0
C2006 C 0.168 0.84649 0.19084 0.0
C2007 C 0.1588 0.84926 0.20835 0.0
C2008 C 0.25555 0.87245 0.20356 0.0
C2009 C 0.14353 0.83445 0.17435 0.0
H2010 H 0.23216 0.87639 0.13024 0.0
H2011 H 0.20446 0.78295 0.14552 0.0
H2012 H 0.20226 0.90065 0.16396 0.0
H2013 H 0.24023 0.91248 0.17562 0.0
H2014 H 0.23676 0.91717 0.15144 0.0
H2015 H 0.1898 0.76759 0.17463 0.0
H2016 H 0.20687 0.79918 0.19312 0.0
H2017 H 0.16717 0.78471 0.18326 0.0
H2018 H 0.22877 0.87504 0.23435 0.0
H2019 H 0.13431 0.84248 0.20972 0.0
H2020 H 0.26594 0.88839 0.19262 0.0
H2021 H 0.25609 0.85034 0.19977 0.0
H2022 H 0.27068 0.884 0.21675 0.0
H2023 H 0.1527 0.85021 0.16319 0.0
H2024 H 0.12096 0.83291 0.17777 0.0
H2025 H 0.13843 0.81046 0.16891 0.0
C2026 C 0.17773 0.37153 0.13728 0.0
C2027 C 0.20817 0.39667 0.13533 0.0
C2028 C 0.17022 0.35796 0.15402 0.0
C2029 C 0.19362 0.36989 0.16928 0.0
C2030 C 0.2246 0.39481 0.16729 0.0
C2031 C 0.23153 0.40781 0.15033 0.0
C2032 C 0.13702 0.33119 0.15545 0.0
C2033 C 0.2502 0.40835 0.18322 0.0
C2034 C 0.16462 0.3573 0.21697 0.0
C2035 C 0.16811 0.33151 0.22161 0.0
C2036 C 0.17318 0.37021 0.20012 0.0
C2037 C 0.18533 0.35693 0.18745 0.0
C2038 C 0.18894 0.33093 0.19201 0.0
C2039 C 0.18043 0.31864 0.20902 0.0
C2040 C 0.16898 0.39796 0.19584 0.0
C2041 C 0.20172 0.31601 0.17889 0.0
H2042 H 0.15967 0.36251 0.12568 0.0
H2043 H 0.255 0.42742 0.14898 0.0
H2044 H 0.13778 0.31032 0.16021 0.0
H2045 H 0.12568 0.33867 0.16579 0.0
H2046 H 0.12194 0.32376 0.14212 0.0
H2047 H 0.27339 0.42678 0.17925 0.0
H2048 H 0.2432 0.4191 0.19448 0.0
H2049 H 0.25317 0.38916 0.1888 0.0
H2050 H 0.15473 0.36719 0.22641 0.0
H2051 H 0.18377 0.2991 0.21254 0.0
H2052 H 0.15199 0.39119 0.18339 0.0
H2053 H 0.19188 0.41813 0.19279 0.0
H2054 H 0.16012 0.40617 0.20736 0.0
H2055 H 0.18636 0.30714 0.16566 0.0
H2056 H 0.20312 0.29594 0.18448 0.0
H2057 H 0.22574 0.33407 0.17583 0.0
C2058 C 0.76188 0.58775 0.87593 0.0
C2059 C 0.78645 0.59846 0.89022 0.0
C2060 C 0.76747 0.60048 0.85884 0.0
C2061 C 0.79838 0.62444 0.85589 0.0
C2062 C 0.82311 0.63577 0.87037 0.0
C2063 C 0.81684 0.62277 0.88732 0.0
C2064 C 0.74041 0.58781 0.84379 0.0
C2065 C 0.8564 0.66132 0.86788 0.0
C2066 C 0.82263 0.6356 0.8071 0.0
C2067 C 0.82115 0.66283 0.80336 0.0
C2068 C 0.81485 0.62263 0.82399 0.0
C2069 C 0.80523 0.63714 0.83755 0.0
C2070 C 0.80327 0.66438 0.83378 0.0
C2071 C 0.81132 0.67693 0.81679 0.0
C2072 C 0.8175 0.59371 0.82746 0.0
C2073 C 0.79291 0.68045 0.84778 0.0
H2074 H 0.73841 0.56881 0.87794 0.0
H2075 H 0.83587 0.63167 0.89835 0.0
H2076 H 0.73803 0.60762 0.83867 0.0
H2077 H 0.74538 0.57617 0.832 0.0
H2078 H 0.71748 0.57032 0.84853 0.0
H2079 H 0.87285 0.66797 0.88059 0.0
H2080 H 0.86568 0.65302 0.85666 0.0
H2081 H 0.85633 0.68288 0.86378 0.0
H2082 H 0.83057 0.62474 0.79693 0.0
H2083 H 0.80966 0.6977 0.81394 0.0
H2084 H 0.79456 0.57442 0.83111 0.0
H2085 H 0.83543 0.59958 0.8393 0.0
H2086 H 0.82439 0.58466 0.81532 0.0
H2087 H 0.76928 0.66314 0.85175 0.0
H2088 H 0.79165 0.70081 0.84254 0.0
H2089 H 0.80973 0.68921 0.86044 0.0
C2090 C 0.35703 0.14365 0.88792 0.0
C2091 C 0.34361 0.15584 0.90008 0.0
C2092 C 0.34759 0.13818 0.86898 0.0
C2093 C 0.32433 0.14525 0.86205 0.0
C2094 C 0.30976 0.15632 0.87432 0.0
C2095 C 0.31955 0.16143 0.89321 0.0
C2096 C 0.36359 0.12624 0.8563 0.0
C2097 C 0.2848 0.16403 0.86743 0.0
C2098 C 0.32798 0.16851 0.81334 0.0
C2099 C 0.30344 0.1406 0.80362 0.0
C2100 C 0.33498 0.17027 0.83236 0.0
C2101 C 0.31702 0.14343 0.84189 0.0
C2102 C 0.29226 0.11514 0.83217 0.0
C2103 C 0.28571 0.11407 0.81312 0.0
C2104 C 0.36149 0.20094 0.84228 0.0
C2105 C 0.27278 0.08602 0.84188 0.0
H2106 H 0.37592 0.13966 0.8931 0.0
H2107 H 0.30883 0.17046 0.9026 0.0
H2108 H 0.34563 0.10562 0.84687 0.0
H2109 H 0.37836 0.14518 0.84767 0.0
H2110 H 0.37899 0.11908 0.86399 0.0
H2111 H 0.27417 0.17018 0.87885 0.0
H2112 H 0.29548 0.18443 0.85902 0.0
H2113 H 0.26563 0.14359 0.85842 0.0
H2114 H 0.34144 0.1892 0.80608 0.0
H2115 H 0.26693 0.09235 0.80561 0.0
H2116 H 0.37962 0.19664 0.84929 0.0
H2117 H 0.35212 0.21006 0.85305 0.0
H2118 H 0.37321 0.21958 0.83283 0.0
H2119 H 0.28843 0.07833 0.8487 0.0
H2120 H 0.25433 0.06589 0.83232 0.0
H2121 H 0.26104 0.0917 0.85281 0.0
C2122 C 0.78511 0.20717 0.87317 0.0
C2123 C 0.77245 0.18392 0.88552 0.0
C2124 C 0.79189 0.20018 0.85574 0.0
C2125 C 0.78533 0.16898 0.85031 0.0
C2126 C 0.77098 0.14494 0.8623 0.0
C2127 C 0.76485 0.15272 0.87981 0.0
C2128 C 0.80721 0.22654 0.84341 0.0
C2129 C 0.76318 0.11128 0.85688 0.0
C2130 C 0.78597 0.1506 0.7992 0.0
C2131 C 0.81661 0.15518 0.7985 0.0
C2132 C 0.77496 0.15381 0.81604 0.0
C2133 C 0.79525 0.16221 0.83254 0.0
C2134 C 0.82598 0.16621 0.83193 0.0
C2135 C 0.8362 0.16244 0.81492 0.0
C2136 C 0.74189 0.14885 0.81613 0.0
C2137 C 0.84848 0.17558 0.84918 0.0
H2138 H 0.79037 0.23116 0.8773 0.0
H2139 H 0.75521 0.13464 0.88928 0.0
H2140 H 0.83111 0.23057 0.84099 0.0
H2141 H 0.79307 0.21973 0.82981 0.0
H2142 H 0.80971 0.24925 0.8494 0.0
H2143 H 0.74928 0.09477 0.86693 0.0
H2144 H 0.74951 0.10263 0.84311 0.0
H2145 H 0.78542 0.11056 0.85594 0.0
H2146 H 0.77061 0.14453 0.78653 0.0
H2147 H 0.85996 0.16619 0.81439 0.0
H2148 H 0.7431 0.1715 0.82092 0.0
H2149 H 0.72864 0.13138 0.82589 0.0
H2150 H 0.72838 0.1403 0.80229 0.0
H2151 H 0.85403 0.19932 0.85538 0.0
H2152 H 0.87105 0.17647 0.84645 0.0
H2153 H 0.83725 0.15851 0.85949 0.0
C2154 C 0.33093 0.15522 0.46595 0.0
C2155 C 0.3057 0.15967 0.45995 0.0
C2156 C 0.34149 0.15963 0.48471 0.0
C2157 C 0.32639 0.16865 0.49774 0.0
C2158 C 0.30157 0.17416 0.49173 0.0
C2159 C 0.29152 0.16959 0.47289 0.0
C2160 C 0.36818 0.15375 0.49061 0.0
C2161 C 0.28488 0.18377 0.50524 0.0
C2162 C 0.3281 0.14621 0.54643 0.0
C2163 C 0.35141 0.17513 0.55589 0.0
C2164 C 0.31992 0.14375 0.52747 0.0
C2165 C 0.33548 0.17085 0.51774 0.0
C2166 C 0.35926 0.20004 0.52715 0.0
C2167 C 0.36692 0.20184 0.54614 0.0
C2168 C 0.29449 0.11217 0.51787 0.0
C2169 C 0.3763 0.22944 0.51722 0.0
H2170 H 0.34215 0.14785 0.45596 0.0
H2171 H 0.27171 0.17263 0.46836 0.0
H2172 H 0.38722 0.17475 0.49933 0.0
H2173 H 0.35933 0.13335 0.49904 0.0
H2174 H 0.37855 0.14856 0.47869 0.0
H2175 H 0.26732 0.18895 0.49826 0.0
H2176 H 0.27237 0.1644 0.51412 0.0
H2177 H 0.30235 0.20513 0.51437 0.0
H2178 H 0.31634 0.1254 0.55386 0.0
H2179 H 0.38466 0.22437 0.55342 0.0
H2180 H 0.30412 0.10443 0.5066 0.0
H2181 H 0.27466 0.11462 0.51155 0.0
H2182 H 0.2849 0.09332 0.5274 0.0
H2183 H 0.38755 0.22472 0.50564 0.0
H2184 H 0.39486 0.25007 0.52645 0.0
H2185 H 0.35906 0.2359 0.51126 0.0
C2186 C 0.84804 0.15162 0.46918 0.0
C2187 C 0.87797 0.15681 0.46534 0.0
C2188 C 0.84251 0.15867 0.48694 0.0
C2189 C 0.86759 0.1715 0.50126 0.0
C2190 C 0.89828 0.17827 0.49732 0.0
C2191 C 0.90311 0.17081 0.47938 0.0
C2192 C 0.80945 0.15117 0.49052 0.0
C2193 C 0.92567 0.19219 0.5122 0.0
C2194 C 0.85328 0.20647 0.54505 0.0
C2195 C 0.84293 0.18102 0.55596 0.0
C2196 C 0.86243 0.20417 0.52743 0.0
C2197 C 0.86094 0.17565 0.52052 0.0
C2198 C 0.85105 0.1501 0.53161 0.0
C2199 C 0.84223 0.15312 0.54919 0.0
C2200 C 0.87312 0.23202 0.51609 0.0
C2201 C 0.84886 0.11917 0.5247 0.0
H2202 H 0.82866 0.1414 0.45829 0.0
H2203 H 0.92627 0.17478 0.47651 0.0
H2204 H 0.79981 0.13237 0.50006 0.0
H2205 H 0.81002 0.17246 0.49726 0.0
H2206 H 0.79301 0.14289 0.4777 0.0
H2207 H 0.94859 0.19895 0.50657 0.0
H2208 H 0.92755 0.21347 0.51987 0.0
H2209 H 0.92151 0.17456 0.52222 0.0
H2210 H 0.85428 0.22825 0.55032 0.0
H2211 H 0.83394 0.13323 0.55746 0.0
H2212 H 0.8561 0.22538 0.50367 0.0
H2213 H 0.89652 0.23851 0.51129 0.0
H2214 H 0.87495 0.25321 0.5239 0.0
H2215 H 0.83092 0.10789 0.51257 0.0
H2216 H 0.84218 0.10217 0.53534 0.0
H2217 H 0.87189 0.12365 0.52017 0.0
C2218 C 0.90217 0.74207 0.48438 0.0
C2219 C 0.87778 0.73327 0.4702 0.0
C2220 C 0.89583 0.72898 0.50133 0.0
C2221 C 0.86427 0.70677 0.50433 0.0
C2222 C 0.83963 0.69744 0.49001 0.0
C2223 C 0.8467 0.71055 0.47313 0.0
C2224 C 0.92284 0.7393 0.51616 0.0
C2225 C 0.80565 0.67393 0.49262 0.0
C2226 C 0.84809 0.65232 0.54263 0.0
C2227 C 0.84095 0.66791 0.55673 0.0
C2228 C 0.85622 0.66494 0.52567 0.0
C2229 C 0.85684 0.69366 0.52253 0.0
C2230 C 0.84962 0.70952 0.53664 0.0
C2231 C 0.842 0.6966 0.55356 0.0
C2232 C 0.86396 0.64738 0.51106 0.0
C2233 C 0.84978 0.74008 0.53382 0.0
H2234 H 0.9262 0.75981 0.48241 0.0
H2235 H 0.82772 0.703 0.4622 0.0
H2236 H 0.91934 0.75158 0.52826 0.0
H2237 H 0.92331 0.71823 0.52084 0.0
H2238 H 0.9462 0.75557 0.51139 0.0
H2239 H 0.78924 0.66901 0.48011 0.0
H2240 H 0.80358 0.6512 0.49623 0.0
H2241 H 0.79789 0.68322 0.50421 0.0
H2242 H 0.84692 0.62993 0.54473 0.0
H2243 H 0.83714 0.70923 0.56439 0.0
H2244 H 0.88774 0.66334 0.50671 0.0
H2245 H 0.8466 0.63985 0.49872 0.0
H2246 H 0.86364 0.62601 0.5159 0.0
H2247 H 0.87354 0.7584 0.53057 0.0
H2248 H 0.84355 0.74945 0.54612 0.0
H2249 H 0.83262 0.73618 0.52192 0.0
loop_
_geom_bond_atom_site_label_1
_geom_bond_atom_site_label_2
_geom_bond_distance
_geom_bond_site_symmetry_2
_ccdc_geom_bond_type
H0 C3 0.931 . S
H1 C6 0.928 . S
H2 C8 0.930 . S
C3 H0 0.931 . S
C3 C4 1.413 . S
C3 C5 1.360 . S
C4 C3 1.413 . S
C4 C8 1.429 . S
C5 C3 1.360 . S
C5 C6 1.372 . S
C6 H1 0.928 . S
C6 C5 1.372 . S
C6 C7 1.404 . S
C7 C6 1.404 . S
C7 C8 1.391 . S
C8 H2 0.930 . S
C8 C4 1.429 . S
C8 C7 1.391 . S
H9 C12 0.931 . S
H10 C15 0.928 . S
H11 C17 0.930 . S
C12 H9 0.931 . S
C12 C13 1.413 . S
C12 C14 1.360 . S
C13 C12 1.413 . S
C13 C17 1.429 . S
C14 C12 1.360 . S
C14 C15 1.372 . S
C15 H10 0.928 . S
C15 C14 1.372 . S
C15 C16 1.404 . S
C16 C15 1.404 . S
C16 C17 1.391 . S
C17 H11 0.930 . S
C17 C13 1.429 . S
C17 C16 1.391 . S
H18 C21 0.931 . S
H19 C24 0.928 . S
H20 C26 0.930 . S
C21 H18 0.931 . S
C21 C22 1.413 . S
C21 C23 1.360 . S
C22 C21 1.413 . S
C22 C26 1.429 . S
C23 C21 1.360 . S
C23 C24 1.372 . S
C24 H19 0.928 . S
C24 C23 1.372 . S
C24 C25 1.404 . S
C25 C24 1.404 . S
C25 C26 1.391 . S
C26 H20 0.930 . S
C26 C22 1.429 . S
C26 C25 1.391 . S
H27 C30 0.931 . S
H28 C33 0.928 . S
H29 C35 0.930 . S
C30 H27 0.931 . S
C30 C31 1.413 . S
C30 C32 1.360 . S
C31 C30 1.413 . S
C31 C35 1.429 . S
C32 C30 1.360 . S
C32 C33 1.372 . S
C33 H28 0.928 . S
C33 C32 1.372 . S
C33 C34 1.404 . S
C34 C33 1.404 . S
C34 C35 1.391 . S
C35 H29 0.930 . S
C35 C31 1.429 . S
C35 C34 1.391 . S
H36 C39 0.931 . S
H37 C42 0.928 . S
H38 C44 0.930 . S
C39 H36 0.931 . S
C39 C40 1.413 . S
C39 C41 1.360 . S
C40 C39 1.413 . S
C40 C44 1.429 . S
C41 C39 1.360 . S
C41 C42 1.372 . S
C42 H37 0.928 . S
C42 C41 1.372 . S
C42 C43 1.404 . S
C43 C42 1.404 . S
C43 C44 1.391 . S
C44 H38 0.930 . S
C44 C40 1.429 . S
C44 C43 1.391 . S
H45 C48 0.931 . S
H46 C51 0.928 . S
H47 C53 0.930 . S
C48 H45 0.931 . S
C48 C49 1.413 . S
C48 C50 1.360 . S
C49 C48 1.413 . S
C49 C53 1.429 . S
C50 C48 1.360 . S
C50 C51 1.372 . S
C51 H46 0.928 . S
C51 C50 1.372 . S
C51 C52 1.404 . S
C52 C51 1.404 . S
C52 C53 1.391 . S
C53 H47 0.930 . S
C53 C49 1.429 . S
C53 C52 1.391 . S
H54 C57 0.931 . S
H55 C60 0.928 . S
H56 C62 0.930 . S
C57 H54 0.931 . S
C57 C58 1.413 . S
C57 C59 1.360 . S
C58 C57 1.413 . S
C58 C62 1.429 . S
C59 C57 1.360 . S
C59 C60 1.372 . S
C60 H55 0.928 . S
C60 C59 1.372 . S
C60 C61 1.404 . S
C61 C60 1.404 . S
C61 C62 1.391 . S
C62 H56 0.930 . S
C62 C58 1.429 . S
C62 C61 1.391 . S
H63 C66 0.931 . S
H64 C69 0.928 . S
H65 C71 0.930 . S
C66 H63 0.931 . S
C66 C67 1.413 . S
C66 C68 1.360 . S
C67 C66 1.413 . S
C67 C71 1.429 . S
C68 C66 1.360 . S
C68 C69 1.372 . S
C69 H64 0.928 . S
C69 C68 1.372 . S
C69 C70 1.404 . S
C70 C69 1.404 . S
C70 C71 1.391 . S
C71 H65 0.930 . S
C71 C67 1.429 . S
C71 C70 1.391 . S
H72 C75 0.931 . S
H73 C78 0.928 . S
H74 C80 0.930 . S
C75 H72 0.931 . S
C75 C76 1.413 . S
C75 C77 1.360 . S
C76 C75 1.413 . S
C76 C80 1.429 . S
C77 C75 1.360 . S
C77 C78 1.372 . S
C78 H73 0.928 . S
C78 C77 1.372 . S
C78 C79 1.404 . S
C79 C78 1.404 . S
C79 C80 1.391 . S
C80 H74 0.930 . S
C80 C76 1.429 . S
C80 C79 1.391 . S
H81 C84 0.931 . S
H82 C87 0.928 . S
H83 C89 0.930 . S
C84 H81 0.931 . S
C84 C85 1.413 . S
C84 C86 1.360 . S
C85 C84 1.413 . S
C85 C89 1.429 . S
C86 C84 1.360 . S
C86 C87 1.372 . S
C87 H82 0.928 . S
C87 C86 1.372 . S
C87 C88 1.404 . S
C88 C87 1.404 . S
C88 C89 1.391 . S
C89 H83 0.930 . S
C89 C85 1.429 . S
C89 C88 1.391 . S
H90 C93 0.931 . S
H91 C96 0.928 . S
H92 C98 0.930 . S
C93 H90 0.931 . S
C93 C94 1.413 . S
C93 C95 1.360 . S
C94 C93 1.413 . S
C94 C98 1.429 . S
C95 C93 1.360 . S
C95 C96 1.372 . S
C96 H91 0.928 . S
C96 C95 1.372 . S
C96 C97 1.404 . S
C97 C96 1.404 . S
C97 C98 1.391 . S
C98 H92 0.930 . S
C98 C94 1.429 . S
C98 C97 1.391 . S
H99 C102 0.931 . S
H100 C105 0.928 . S
H101 C107 0.930 . S
C102 H99 0.931 . S
C102 C103 1.413 . S
C102 C104 1.360 . S
C103 C102 1.413 . S
C103 C107 1.429 . S
C104 C102 1.360 . S
C104 C105 1.372 . S
C105 H100 0.928 . S
C105 C104 1.372 . S
C105 C106 1.404 . S
C106 C105 1.404 . S
C106 C107 1.391 . S
C107 H101 0.930 . S
C107 C103 1.429 . S
C107 C106 1.391 . S
H108 C111 0.931 . S
H109 C114 0.928 . S
H110 C116 0.930 . S
C111 H108 0.931 . S
C111 C112 1.413 . S
C111 C113 1.360 . S
C112 C111 1.413 . S
C112 C116 1.429 . S
C113 C111 1.360 . S
C113 C114 1.372 . S
C114 H109 0.928 . S
C114 C113 1.372 . S
C114 C115 1.404 . S
C115 C114 1.404 . S
C115 C116 1.391 . S
C116 H110 0.930 . S
C116 C112 1.429 . S
C116 C115 1.391 . S
H117 C120 0.931 . S
H118 C123 0.928 . S
H119 C125 0.930 . S
C120 H117 0.931 . S
C120 C121 1.413 . S
C120 C122 1.360 . S
C121 C120 1.413 . S
C121 C125 1.429 . S
C122 C120 1.360 . S
C122 C123 1.372 . S
C123 H118 0.928 . S
C123 C122 1.372 . S
C123 C124 1.404 . S
C124 C123 1.404 . S
C124 C125 1.391 . S
C125 H119 0.930 . S
C125 C121 1.429 . S
C125 C124 1.391 . S
H126 C129 0.931 . S
H127 C132 0.928 . S
H128 C134 0.930 . S
C129 H126 0.931 . S
C129 C130 1.413 . S
C129 C131 1.360 . S
C130 C129 1.413 . S
C130 C134 1.429 . S
C131 C129 1.360 . S
C131 C132 1.372 . S
C132 H127 0.928 . S
C132 C131 1.372 . S
C132 C133 1.404 . S
C133 C132 1.404 . S
C133 C134 1.391 . S
C134 H128 0.930 . S
C134 C130 1.429 . S
C134 C133 1.391 . S
H135 C138 0.931 . S
H136 C141 0.928 . S
H137 C143 0.930 . S
C138 H135 0.931 . S
C138 C139 1.413 . S
C138 C140 1.360 . S
C139 C138 1.413 . S
C139 C143 1.429 . S
C140 C138 1.360 . S
C140 C141 1.372 . S
C141 H136 0.928 . S
C141 C140 1.372 . S
C141 C142 1.404 . S
C142 C141 1.404 . S
C142 C143 1.391 . S
C143 H137 0.930 . S
C143 C139 1.429 . S
C143 C142 1.391 . S
H144 C147 0.931 . S
H145 C150 0.928 . S
H146 C152 0.930 . S
C147 H144 0.931 . S
C147 C148 1.413 . S
C147 C149 1.360 . S
C148 C147 1.413 . S
C148 C152 1.429 . S
C149 C147 1.360 . S
C149 C150 1.372 . S
C150 H145 0.928 . S
C150 C149 1.372 . S
C150 C151 1.404 . S
C151 C150 1.404 . S
C151 C152 1.391 . S
C152 H146 0.930 . S
C152 C148 1.429 . S
C152 C151 1.391 . S
H153 C156 0.931 . S
H154 C159 0.928 . S
H155 C161 0.930 . S
C156 H153 0.931 . S
C156 C157 1.413 . S
C156 C158 1.360 . S
C157 C156 1.413 . S
C157 C161 1.429 . S
C158 C156 1.360 . S
C158 C159 1.372 . S
C159 H154 0.928 . S
C159 C158 1.372 . S
C159 C160 1.404 . S
C160 C159 1.404 . S
C160 C161 1.391 . S
C161 H155 0.930 . S
C161 C157 1.429 . S
C161 C160 1.391 . S
Tb162 C172 2.825 . S
Tb162 O173 2.347 1_565 S
Tb162 O176 2.366 1_565 S
Tb162 O181 2.418 . S
Tb162 O182 2.384 . S
Tb162 O185 2.479 . S
Tb162 O186 2.467 1_565 S
Eu163 O174 2.418 . S
Eu163 O175 2.384 . S
Eu163 O178 2.479 . S
Eu163 O179 2.475 . S
Eu163 O180 2.347 1_545 S
Eu163 O183 2.366 1_545 S
Eu163 C193 2.825 . S
C164 O180 1.259 . S
C164 O181 1.265 1_554 S
C165 O182 1.255 1_554 S
C165 O183 1.265 . S
C166 C168 1.380 . S
C166 C169 1.374 1_565 S
C166 C172 1.507 . S
C167 C168 1.384 . S
C167 C171 1.387 1_565 S
C167 H194 0.930 . S
C168 C166 1.380 . S
C168 C167 1.384 . S
C168 H195 0.931 . S
C169 C166 1.374 1_545 S
C169 C170 1.390 . S
C169 H196 0.930 . S
C170 C169 1.390 . S
C170 C171 1.391 . S
C170 H197 0.930 . S
C171 C167 1.387 1_545 S
C171 C170 1.391 . S
C172 Tb162 2.825 . S
C172 C166 1.507 . S
C172 O185 1.238 . S
C172 O186 1.241 1_565 S
O173 Tb162 2.347 1_545 S
O173 C177 1.259 . S
O174 Eu163 2.418 . S
O174 C177 1.265 1_554 S
O175 Eu163 2.384 . S
O175 C184 1.255 1_554 S
O176 Tb162 2.366 1_545 S
O176 C184 1.265 . S
C177 O173 1.259 . S
C177 O174 1.265 1_556 S
O178 Eu163 2.479 . S
O178 C193 1.238 . S
O179 Eu163 2.475 . S
O179 C193 1.252 . S
O180 Eu163 2.347 1_565 S
O180 C164 1.259 . S
O181 Tb162 2.418 . S
O181 C164 1.265 1_556 S
O182 Tb162 2.384 . S
O182 C165 1.255 1_556 S
O183 Eu163 2.366 1_565 S
O183 C165 1.265 . S
C184 O175 1.255 1_556 S
C184 O176 1.265 . S
O185 Tb162 2.479 . S
O185 C172 1.238 . S
O186 Tb162 2.467 1_545 S
O186 C172 1.241 1_545 S
C187 C190 1.380 . S
C187 C191 1.374 1_545 S
C187 C193 1.507 . S
C188 C189 1.387 1_565 S
C188 C192 1.391 . S
C189 C188 1.387 1_545 S
C189 C190 1.384 . S
C189 H198 0.930 . S
C190 C187 1.380 . S
C190 C189 1.384 . S
C190 H199 0.931 . S
C191 C187 1.374 1_565 S
C191 C192 1.390 . S
C191 H200 0.930 . S
C192 C188 1.391 . S
C192 C191 1.390 . S
C192 H201 0.930 . S
C193 Eu163 2.825 . S
C193 O178 1.238 . S
C193 O179 1.252 . S
C193 C187 1.507 . S
H194 C167 0.930 . S
H195 C168 0.931 . S
H196 C169 0.930 . S
H197 C170 0.930 . S
H198 C189 0.930 . S
H199 C190 0.931 . S
H200 C191 0.930 . S
H201 C192 0.930 . S
Tb202 C212 2.825 . S
Tb202 O213 2.347 1_455 S
Tb202 O216 2.366 1_455 S
Tb202 O221 2.418 . S
Tb202 O222 2.384 1_556 S
Tb202 O225 2.479 . S
Tb202 O226 2.471 1_455 S
Eu203 O214 2.418 . S
Eu203 O215 2.337 1_554 S
Eu203 O218 2.479 . S
Eu203 O219 2.471 1_655 S
Eu203 O220 2.347 1_655 S
Eu203 O223 2.366 1_655 S
Eu203 C233 2.825 . S
C204 O220 1.259 . S
C204 O221 1.265 1_554 S
C205 O222 1.255 . S
C205 O223 1.265 . S
C206 C208 1.380 . S
C206 C209 1.374 1_455 S
C206 C212 1.507 . S
C207 C208 1.384 . S
C207 C211 1.387 1_455 S
C207 H234 0.930 . S
C208 C206 1.380 . S
C208 C207 1.384 . S
C208 H235 0.931 . S
C209 C206 1.374 1_655 S
C209 C210 1.390 . S
C209 H236 0.930 . S
C210 C209 1.390 . S
C210 C211 1.391 . S
C210 H237 0.930 . S
C211 C207 1.387 1_655 S
C211 C210 1.391 . S
C212 Tb202 2.825 . S
C212 C206 1.507 . S
C212 O225 1.238 . S
C212 O226 1.247 1_455 S
O213 Tb202 2.347 1_655 S
O213 C217 1.259 . S
O214 Eu203 2.418 . S
O214 C217 1.265 1_554 S
O215 Eu203 2.337 1_556 S
O215 C224 1.313 . S
O216 Tb202 2.366 1_655 S
O216 C224 1.265 . S
C217 O213 1.259 . S
C217 O214 1.265 1_556 S
O218 Eu203 2.479 . S
O218 C233 1.238 . S
O219 Eu203 2.471 1_455 S
O219 C233 1.247 1_455 S
O220 Eu203 2.347 1_455 S
O220 C204 1.259 . S
O221 Tb202 2.418 . S
O221 C204 1.265 1_556 S
O222 Tb202 2.384 1_554 S
O222 C205 1.255 . S
O223 Eu203 2.366 1_455 S
O223 C205 1.265 . S
C224 O215 1.313 . S
C224 O216 1.265 . S
O225 Tb202 2.479 . S
O225 C212 1.238 . S
O226 Tb202 2.471 1_655 S
O226 C212 1.247 1_655 S
C227 C230 1.380 . S
C227 C231 1.374 1_655 S
C227 C233 1.507 . S
C228 C229 1.387 1_455 S
C228 C232 1.391 . S
C229 C228 1.387 1_655 S
C229 C230 1.384 . S
C229 H238 0.930 . S
C230 C227 1.380 . S
C230 C229 1.384 . S
C230 H239 0.931 . S
C231 C227 1.374 1_455 S
C231 C232 1.390 . S
C231 H240 0.930 . S
C232 C228 1.391 . S
C232 C231 1.390 . S
C232 H241 0.930 . S
C233 Eu203 2.825 . S
C233 O218 1.238 . S
C233 O219 1.247 1_655 S
C233 C227 1.507 . S
H234 C207 0.930 . S
H235 C208 0.931 . S
H236 C209 0.930 . S
H237 C210 0.930 . S
H238 C229 0.930 . S
H239 C230 0.931 . S
H240 C231 0.930 . S
H241 C232 0.930 . S
Tb242 C252 2.825 . S
Tb242 O253 2.347 . S
Tb242 O256 2.366 . S
Tb242 O261 2.418 . S
Tb242 O262 2.411 . S
Tb242 O265 2.479 . S
Tb242 O266 2.471 . S
Eu243 O254 2.418 . S
Eu243 O255 2.384 1_556 S
Eu243 O258 2.479 . S
Eu243 O259 2.471 . S
Eu243 O260 2.347 . S
Eu243 O263 2.366 . S
Eu243 C273 2.825 . S
C244 O260 1.259 . S
C244 O261 1.265 1_556 S
C245 O262 1.224 1_556 S
C245 O263 1.265 . S
C246 C248 1.380 . S
C246 C249 1.374 . S
C246 C252 1.507 . S
C247 C248 1.384 . S
C247 C251 1.387 . S
C247 H274 0.930 . S
C248 C246 1.380 . S
C248 C247 1.384 . S
C248 H275 0.931 . S
C249 C246 1.374 . S
C249 C250 1.390 . S
C249 H276 0.930 . S
C250 C249 1.390 . S
C250 C251 1.391 . S
C250 H277 0.930 . S
C251 C247 1.387 . S
C251 C250 1.391 . S
C252 Tb242 2.825 . S
C252 C246 1.507 . S
C252 O265 1.238 . S
C252 O266 1.247 . S
O253 Tb242 2.347 . S
O253 C257 1.259 . S
O254 Eu243 2.418 . S
O254 C257 1.265 1_556 S
O255 Eu243 2.384 1_554 S
O255 C264 1.255 . S
O256 Tb242 2.366 . S
O256 C264 1.265 . S
C257 O253 1.259 . S
C257 O254 1.265 1_554 S
O258 Eu243 2.479 . S
O258 C273 1.238 . S
O259 Eu243 2.471 . S
O259 C273 1.247 . S
O260 Eu243 2.347 . S
O260 C244 1.259 . S
O261 Tb242 2.418 . S
O261 C244 1.265 1_554 S
O262 Tb242 2.411 . S
O262 C245 1.224 1_554 S
O263 Eu243 2.366 . S
O263 C245 1.265 . S
C264 O255 1.255 . S
C264 O256 1.265 . S
O265 Tb242 2.479 . S
O265 C252 1.238 . S
O266 Tb242 2.471 . S
O266 C252 1.247 . S
C267 C270 1.380 . S
C267 C271 1.374 . S
C267 C273 1.507 . S
C268 C269 1.387 . S
C268 C272 1.391 . S
C269 C268 1.387 . S
C269 C270 1.384 . S
C269 H278 0.930 . S
C270 C267 1.380 . S
C270 C269 1.384 . S
C270 H279 0.931 . S
C271 C267 1.374 . S
C271 C272 1.390 . S
C271 H280 0.930 . S
C272 C268 1.391 . S
C272 C271 1.390 . S
C272 H281 0.930 . S
C273 Eu243 2.825 . S
C273 O258 1.238 . S
C273 O259 1.247 . S
C273 C267 1.507 . S
H274 C247 0.930 . S
H275 C248 0.931 . S
H276 C249 0.930 . S
H277 C250 0.930 . S
H278 C269 0.930 . S
H279 C270 0.931 . S
H280 C271 0.930 . S
H281 C272 0.930 . S
Tb282 C292 2.825 . S
Tb282 O293 2.347 . S
Tb282 O296 2.366 . S
Tb282 O301 2.418 . S
Tb282 O302 2.384 . S
Tb282 O305 2.479 . S
Tb282 O306 2.471 . S
Eu283 O294 2.418 . S
Eu283 O295 2.384 . S
Eu283 O298 2.479 . S
Eu283 O299 2.471 . S
Eu283 O300 2.347 . S
Eu283 O303 2.366 . S
Eu283 C313 2.825 . S
C284 O300 1.259 . S
C284 O301 1.265 . S
C285 O302 1.255 . S
C285 O303 1.265 . S
C286 C288 1.380 . S
C286 C289 1.374 . S
C286 C292 1.507 . S
C287 C288 1.384 . S
C287 C291 1.387 . S
C287 H314 0.930 . S
C288 C286 1.380 . S
C288 C287 1.384 . S
C288 H315 0.931 . S
C289 C286 1.374 . S
C289 C290 1.390 . S
C289 H316 0.930 . S
C290 C289 1.390 . S
C290 C291 1.391 . S
C290 H317 0.930 . S
C291 C287 1.387 . S
C291 C290 1.391 . S
C292 Tb282 2.825 . S
C292 C286 1.507 . S
C292 O305 1.238 . S
C292 O306 1.247 . S
O293 Tb282 2.347 . S
O293 C297 1.259 . S
O294 Eu283 2.418 . S
O294 C297 1.265 . S
O295 Eu283 2.384 . S
O295 C304 1.255 . S
O296 Tb282 2.366 . S
O296 C304 1.265 . S
C297 O293 1.259 . S
C297 O294 1.265 . S
O298 Eu283 2.479 . S
O298 C313 1.238 . S
O299 Eu283 2.471 . S
O299 C313 1.247 . S
O300 Eu283 2.347 . S
O300 C284 1.259 . S
O301 Tb282 2.418 . S
O301 C284 1.265 . S
O302 Tb282 2.384 . S
O302 C285 1.255 . S
O303 Eu283 2.366 . S
O303 C285 1.265 . S
C304 O295 1.255 . S
C304 O296 1.265 . S
O305 Tb282 2.479 . S
O305 C292 1.238 . S
O306 Tb282 2.471 . S
O306 C292 1.247 . S
C307 C310 1.380 . S
C307 C311 1.374 . S
C307 C313 1.507 . S
C308 C309 1.387 . S
C308 C312 1.391 . S
C309 C308 1.387 . S
C309 C310 1.384 . S
C309 H318 0.930 . S
C310 C307 1.380 . S
C310 C309 1.384 . S
C310 H319 0.931 . S
C311 C307 1.374 . S
C311 C312 1.390 . S
C311 H320 0.930 . S
C312 C308 1.391 . S
C312 C311 1.390 . S
C312 H321 0.930 . S
C313 Eu283 2.825 . S
C313 O298 1.238 . S
C313 O299 1.247 . S
C313 C307 1.507 . S
H314 C287 0.930 . S
H315 C288 0.931 . S
H316 C289 0.930 . S
H317 C290 0.930 . S
H318 C309 0.930 . S
H319 C310 0.931 . S
H320 C311 0.930 . S
H321 C312 0.930 . S
Tb322 C332 2.825 . S
Tb322 O333 2.347 . S
Tb322 O336 2.366 . S
Tb322 O341 2.418 . S
Tb322 O342 2.384 . S
Tb322 O345 2.479 . S
Tb322 O346 2.471 . S
Eu323 O334 2.418 . S
Eu323 O335 2.384 . S
Eu323 O338 2.479 . S
Eu323 O339 2.471 . S
Eu323 O340 2.347 . S
Eu323 O343 2.366 . S
Eu323 C353 2.825 . S
C324 O340 1.259 . S
C324 O341 1.265 . S
C325 O342 1.255 . S
C325 O343 1.265 . S
C326 C328 1.380 . S
C326 C329 1.374 . S
C326 C332 1.507 . S
C327 C328 1.384 . S
C327 C331 1.387 . S
C327 H354 0.930 . S
C328 C326 1.380 . S
C328 C327 1.384 . S
C328 H355 0.931 . S
C329 C326 1.374 . S
C329 C330 1.390 . S
C329 H356 0.930 . S
C330 C329 1.390 . S
C330 C331 1.391 . S
C330 H357 0.930 . S
C331 C327 1.387 . S
C331 C330 1.391 . S
C332 Tb322 2.825 . S
C332 C326 1.507 . S
C332 O345 1.238 . S
C332 O346 1.247 . S
O333 Tb322 2.347 . S
O333 C337 1.259 . S
O334 Eu323 2.418 . S
O334 C337 1.265 . S
O335 Eu323 2.384 . S
O335 C344 1.255 . S
O336 Tb322 2.366 . S
O336 C344 1.265 . S
C337 O333 1.259 . S
C337 O334 1.265 . S
O338 Eu323 2.479 . S
O338 C353 1.238 . S
O339 Eu323 2.471 . S
O339 C353 1.247 . S
O340 Eu323 2.347 . S
O340 C324 1.259 . S
O341 Tb322 2.418 . S
O341 C324 1.265 . S
O342 Tb322 2.384 . S
O342 C325 1.255 . S
O343 Eu323 2.366 . S
O343 C325 1.265 . S
C344 O335 1.255 . S
C344 O336 1.265 . S
O345 Tb322 2.479 . S
O345 C332 1.238 . S
O346 Tb322 2.471 . S
O346 C332 1.247 . S
C347 C350 1.380 . S
C347 C351 1.374 . S
C347 C353 1.507 . S
C348 C349 1.387 . S
C348 C352 1.391 . S
C349 C348 1.387 . S
C349 C350 1.384 . S
C349 H358 0.930 . S
C350 C347 1.380 . S
C350 C349 1.384 . S
C350 H359 0.931 . S
C351 C347 1.374 . S
C351 C352 1.390 . S
C351 H360 0.930 . S
C352 C348 1.391 . S
C352 C351 1.390 . S
C352 H361 0.930 . S
C353 Eu323 2.825 . S
C353 O338 1.238 . S
C353 O339 1.247 . S
C353 C347 1.507 . S
H354 C327 0.930 . S
H355 C328 0.931 . S
H356 C329 0.930 . S
H357 C330 0.930 . S
H358 C349 0.930 . S
H359 C350 0.931 . S
H360 C351 0.930 . S
H361 C352 0.930 . S
Tb362 C372 2.825 . S
Tb362 O373 2.347 . S
Tb362 O376 2.366 . S
Tb362 O381 2.418 . S
Tb362 O382 2.384 . S
Tb362 O385 2.479 . S
Tb362 O386 2.471 . S
Eu363 O374 2.418 . S
Eu363 O375 2.384 . S
Eu363 O378 2.479 . S
Eu363 O379 2.471 . S
Eu363 O380 2.347 . S
Eu363 O383 2.366 . S
Eu363 C393 2.825 . S
C364 O380 1.259 . S
C364 O381 1.265 . S
C365 O382 1.255 . S
C365 O383 1.265 . S
C366 C368 1.380 . S
C366 C369 1.374 . S
C366 C372 1.507 . S
C367 C368 1.384 . S
C367 C371 1.387 . S
C367 H394 0.930 . S
C368 C366 1.380 . S
C368 C367 1.384 . S
C368 H395 0.931 . S
C369 C366 1.374 . S
C369 C370 1.390 . S
C369 H396 0.930 . S
C370 C369 1.390 . S
C370 C371 1.391 . S
C370 H397 0.930 . S
C371 C367 1.387 . S
C371 C370 1.391 . S
C372 Tb362 2.825 . S
C372 C366 1.507 . S
C372 O385 1.238 . S
C372 O386 1.247 . S
O373 Tb362 2.347 . S
O373 C377 1.259 . S
O374 Eu363 2.418 . S
O374 C377 1.265 . S
O375 Eu363 2.384 . S
O375 C384 1.255 . S
O376 Tb362 2.366 . S
O376 C384 1.265 . S
C377 O373 1.259 . S
C377 O374 1.265 . S
O378 Eu363 2.479 . S
O378 C393 1.238 . S
O379 Eu363 2.471 . S
O379 C393 1.247 . S
O380 Eu363 2.347 . S
O380 C364 1.259 . S
O381 Tb362 2.418 . S
O381 C364 1.265 . S
O382 Tb362 2.384 . S
O382 C365 1.255 . S
O383 Eu363 2.366 . S
O383 C365 1.265 . S
C384 O375 1.255 . S
C384 O376 1.265 . S
O385 Tb362 2.479 . S
O385 C372 1.238 . S
O386 Tb362 2.471 . S
O386 C372 1.247 . S
C387 C390 1.380 . S
C387 C391 1.374 . S
C387 C393 1.507 . S
C388 C389 1.387 . S
C388 C392 1.391 . S
C389 C388 1.387 . S
C389 C390 1.384 . S
C389 H398 0.930 . S
C390 C387 1.380 . S
C390 C389 1.384 . S
C390 H399 0.931 . S
C391 C387 1.374 . S
C391 C392 1.390 . S
C391 H400 0.930 . S
C392 C388 1.391 . S
C392 C391 1.390 . S
C392 H401 0.930 . S
C393 Eu363 2.825 . S
C393 O378 1.238 . S
C393 O379 1.247 . S
C393 C387 1.507 . S
H394 C367 0.930 . S
H395 C368 0.931 . S
H396 C369 0.930 . S
H397 C370 0.930 . S
H398 C389 0.930 . S
H399 C390 0.931 . S
H400 C391 0.930 . S
H401 C392 0.930 . S
Tb402 C412 2.825 . S
Tb402 O413 2.347 . S
Tb402 O416 2.366 . S
Tb402 O421 2.418 . S
Tb402 O422 2.384 . S
Tb402 O425 2.479 . S
Tb402 O426 2.471 . S
Eu403 O414 2.418 . S
Eu403 O415 2.384 . S
Eu403 O418 2.479 . S
Eu403 O419 2.471 . S
Eu403 O420 2.347 . S
Eu403 O423 2.366 . S
Eu403 C433 2.825 . S
C404 O420 1.259 . S
C404 O421 1.265 . S
C405 O422 1.255 . S
C405 O423 1.265 . S
C406 C408 1.380 . S
C406 C409 1.374 . S
C406 C412 1.507 . S
C407 C408 1.384 . S
C407 C411 1.387 . S
C407 H434 0.930 . S
C408 C406 1.380 . S
C408 C407 1.384 . S
C408 H435 0.931 . S
C409 C406 1.374 . S
C409 C410 1.390 . S
C409 H436 0.930 . S
C410 C409 1.390 . S
C410 C411 1.391 . S
C410 H437 0.930 . S
C411 C407 1.387 . S
C411 C410 1.391 . S
C412 Tb402 2.825 . S
C412 C406 1.507 . S
C412 O425 1.238 . S
C412 O426 1.247 . S
O413 Tb402 2.347 . S
O413 C417 1.259 . S
O414 Eu403 2.418 . S
O414 C417 1.265 . S
O415 Eu403 2.384 . S
O415 C424 1.255 . S
O416 Tb402 2.366 . S
O416 C424 1.265 . S
C417 O413 1.259 . S
C417 O414 1.265 . S
O418 Eu403 2.479 . S
O418 C433 1.238 . S
O419 Eu403 2.471 . S
O419 C433 1.247 . S
O420 Eu403 2.347 . S
O420 C404 1.259 . S
O421 Tb402 2.418 . S
O421 C404 1.265 . S
O422 Tb402 2.384 . S
O422 C405 1.255 . S
O423 Eu403 2.366 . S
O423 C405 1.265 . S
C424 O415 1.255 . S
C424 O416 1.265 . S
O425 Tb402 2.479 . S
O425 C412 1.238 . S
O426 Tb402 2.471 . S
O426 C412 1.247 . S
C427 C430 1.380 . S
C427 C431 1.374 . S
C427 C433 1.507 . S
C428 C429 1.387 . S
C428 C432 1.391 . S
C429 C428 1.387 . S
C429 C430 1.384 . S
C429 H438 0.930 . S
C430 C427 1.380 . S
C430 C429 1.384 . S
C430 H439 0.931 . S
C431 C427 1.374 . S
C431 C432 1.390 . S
C431 H440 0.930 . S
C432 C428 1.391 . S
C432 C431 1.390 . S
C432 H441 0.930 . S
C433 Eu403 2.825 . S
C433 O418 1.238 . S
C433 O419 1.247 . S
C433 C427 1.507 . S
H434 C407 0.930 . S
H435 C408 0.931 . S
H436 C409 0.930 . S
H437 C410 0.930 . S
H438 C429 0.930 . S
H439 C430 0.931 . S
H440 C431 0.930 . S
H441 C432 0.930 . S
Tb442 C452 2.825 . S
Tb442 O453 2.347 . S
Tb442 O456 2.366 . S
Tb442 O461 2.418 . S
Tb442 O462 2.384 . S
Tb442 O465 2.479 . S
Tb442 O466 2.471 . S
Eu443 O454 2.418 . S
Eu443 O455 2.384 . S
Eu443 O458 2.479 . S
Eu443 O459 2.471 . S
Eu443 O460 2.347 . S
Eu443 O463 2.366 . S
Eu443 C473 2.825 . S
C444 O460 1.259 . S
C444 O461 1.265 . S
C445 O462 1.255 . S
C445 O463 1.265 . S
C446 C448 1.380 . S
C446 C449 1.374 . S
C446 C452 1.507 . S
C447 C448 1.384 . S
C447 C451 1.387 . S
C447 H474 0.930 . S
C448 C446 1.380 . S
C448 C447 1.384 . S
C448 H475 0.931 . S
C449 C446 1.374 . S
C449 C450 1.390 . S
C449 H476 0.930 . S
C450 C449 1.390 . S
C450 C451 1.391 . S
C450 H477 0.930 . S
C451 C447 1.387 . S
C451 C450 1.391 . S
C452 Tb442 2.825 . S
C452 C446 1.507 . S
C452 O465 1.238 . S
C452 O466 1.247 . S
O453 Tb442 2.347 . S
O453 C457 1.259 . S
O454 Eu443 2.418 . S
O454 C457 1.265 . S
O455 Eu443 2.384 . S
O455 C464 1.255 . S
O456 Tb442 2.366 . S
O456 C464 1.265 . S
C457 O453 1.259 . S
C457 O454 1.265 . S
O458 Eu443 2.479 . S
O458 C473 1.238 . S
O459 Eu443 2.471 . S
O459 C473 1.247 . S
O460 Eu443 2.347 . S
O460 C444 1.259 . S
O461 Tb442 2.418 . S
O461 C444 1.265 . S
O462 Tb442 2.384 . S
O462 C445 1.255 . S
O463 Eu443 2.366 . S
O463 C445 1.265 . S
C464 O455 1.255 . S
C464 O456 1.265 . S
O465 Tb442 2.479 . S
O465 C452 1.238 . S
O466 Tb442 2.471 . S
O466 C452 1.247 . S
C467 C470 1.380 . S
C467 C471 1.374 . S
C467 C473 1.507 . S
C468 C469 1.387 . S
C468 C472 1.391 . S
C469 C468 1.387 . S
C469 C470 1.384 . S
C469 H478 0.930 . S
C470 C467 1.380 . S
C470 C469 1.384 . S
C470 H479 0.931 . S
C471 C467 1.374 . S
C471 C472 1.390 . S
C471 H480 0.930 . S
C472 C468 1.391 . S
C472 C471 1.390 . S
C472 H481 0.930 . S
C473 Eu443 2.825 . S
C473 O458 1.238 . S
C473 O459 1.247 . S
C473 C467 1.507 . S
H474 C447 0.930 . S
H475 C448 0.931 . S
H476 C449 0.930 . S
H477 C450 0.930 . S
H478 C469 0.930 . S
H479 C470 0.931 . S
H480 C471 0.930 . S
H481 C472 0.930 . S
Tb482 C492 2.825 . S
Tb482 O493 2.347 . S
Tb482 O496 2.366 . S
Tb482 O501 2.418 . S
Tb482 O502 2.384 . S
Tb482 O505 2.479 . S
Tb482 O506 2.471 . S
Eu483 O494 2.418 . S
Eu483 O495 2.384 . S
Eu483 O498 2.479 . S
Eu483 O499 2.471 . S
Eu483 O500 2.347 . S
Eu483 O503 2.366 . S
Eu483 C513 2.825 . S
C484 O500 1.259 . S
C484 O501 1.265 . S
C485 O502 1.255 . S
C485 O503 1.265 . S
C486 C488 1.380 . S
C486 C489 1.374 . S
C486 C492 1.507 . S
C487 C488 1.384 . S
C487 C491 1.387 . S
C487 H514 0.930 . S
C488 C486 1.380 . S
C488 C487 1.384 . S
C488 H515 0.931 . S
C489 C486 1.374 . S
C489 C490 1.390 . S
C489 H516 0.930 . S
C490 C489 1.390 . S
C490 C491 1.391 . S
C490 H517 0.930 . S
C491 C487 1.387 . S
C491 C490 1.391 . S
C492 Tb482 2.825 . S
C492 C486 1.507 . S
C492 O505 1.238 . S
C492 O506 1.247 . S
O493 Tb482 2.347 . S
O493 C497 1.259 . S
O494 Eu483 2.418 . S
O494 C497 1.265 . S
O495 Eu483 2.384 . S
O495 C504 1.255 . S
O496 Tb482 2.366 . S
O496 C504 1.265 . S
C497 O493 1.259 . S
C497 O494 1.265 . S
O498 Eu483 2.479 . S
O498 C513 1.238 . S
O499 Eu483 2.471 . S
O499 C513 1.247 . S
O500 Eu483 2.347 . S
O500 C484 1.259 . S
O501 Tb482 2.418 . S
O501 C484 1.265 . S
O502 Tb482 2.384 . S
O502 C485 1.255 . S
O503 Eu483 2.366 . S
O503 C485 1.265 . S
C504 O495 1.255 . S
C504 O496 1.265 . S
O505 Tb482 2.479 . S
O505 C492 1.238 . S
O506 Tb482 2.471 . S
O506 C492 1.247 . S
C507 C510 1.380 . S
C507 C511 1.374 . S
C507 C513 1.507 . S
C508 C509 1.387 . S
C508 C512 1.391 . S
C509 C508 1.387 . S
C509 C510 1.384 . S
C509 H518 0.930 . S
C510 C507 1.380 . S
C510 C509 1.384 . S
C510 H519 0.931 . S
C511 C507 1.374 . S
C511 C512 1.390 . S
C511 H520 0.930 . S
C512 C508 1.391 . S
C512 C511 1.390 . S
C512 H521 0.930 . S
C513 Eu483 2.825 . S
C513 O498 1.238 . S
C513 O499 1.247 . S
C513 C507 1.507 . S
H514 C487 0.930 . S
H515 C488 0.931 . S
H516 C489 0.930 . S
H517 C490 0.930 . S
H518 C509 0.930 . S
H519 C510 0.931 . S
H520 C511 0.930 . S
H521 C512 0.930 . S
C522 C523 1.391 . S
C522 C524 1.394 . S
C522 H538 0.931 . S
C523 C522 1.391 . S
C523 C527 1.376 . S
C524 C522 1.394 . S
C524 C525 1.369 . S
C524 C528 1.531 . S
C525 C524 1.369 . S
C525 C526 1.410 . S
C525 C533 1.503 . S
C526 C525 1.410 . S
C526 C527 1.392 . S
C526 C529 1.511 . S
C527 C523 1.376 . S
C527 C526 1.392 . S
C527 H539 0.929 . S
C528 C524 1.531 . S
C528 H540 0.960 . S
C528 H541 0.962 . S
C528 H542 0.960 . S
C529 C526 1.511 . S
C529 H543 0.961 . S
C529 H544 0.961 . S
C529 H545 0.961 . S
C530 C531 1.370 . S
C530 C532 1.363 . S
C530 H546 0.918 1_554 S
C531 C530 1.370 . S
C531 C535 1.408 . S
C532 C530 1.363 . S
C532 C533 1.370 . S
C532 C536 1.524 . S
C533 C525 1.503 . S
C533 C532 1.370 . S
C533 C534 1.403 . S
C534 C533 1.403 . S
C534 C535 1.404 . S
C534 C537 1.539 . S
C535 C531 1.408 . S
C535 C534 1.404 . S
C535 H547 0.930 . S
C536 C532 1.524 . S
C536 H548 0.956 . S
C536 H549 0.961 . S
C536 H550 0.961 1_554 S
C537 C534 1.539 . S
C537 H551 0.958 . S
C537 H552 0.961 . S
C537 H553 0.960 . S
H538 C522 0.931 . S
H539 C527 0.929 . S
H540 C528 0.960 . S
H541 C528 0.962 . S
H542 C528 0.960 . S
H543 C529 0.961 . S
H544 C529 0.961 . S
H545 C529 0.961 . S
H546 C530 0.918 1_556 S
H547 C535 0.930 . S
H548 C536 0.956 . S
H549 C536 0.961 . S
H550 C536 0.961 1_556 S
H551 C537 0.958 . S
H552 C537 0.961 . S
H553 C537 0.960 . S
C554 C555 1.391 . S
C554 C556 1.394 . S
C554 H570 0.931 . S
C555 C554 1.391 . S
C555 C559 1.376 . S
C556 C554 1.394 . S
C556 C557 1.369 . S
C556 C560 1.531 . S
C557 C556 1.369 . S
C557 C558 1.410 . S
C557 C565 1.503 . S
C558 C557 1.410 . S
C558 C559 1.392 . S
C558 C561 1.511 . S
C559 C555 1.376 . S
C559 C558 1.392 . S
C559 H571 0.929 . S
C560 C556 1.531 . S
C560 H572 0.960 . S
C560 H573 0.962 . S
C560 H574 0.960 . S
C561 C558 1.511 . S
C561 H575 0.961 . S
C561 H576 0.961 . S
C561 H577 0.961 . S
C562 C563 1.370 . S
C562 C564 1.363 . S
C562 H578 0.931 . S
C563 C562 1.370 . S
C563 C567 1.408 . S
C564 C562 1.363 . S
C564 C565 1.370 . S
C564 C568 1.524 . S
C565 C557 1.503 . S
C565 C564 1.370 . S
C565 C566 1.403 . S
C566 C565 1.403 . S
C566 C567 1.404 . S
C566 C569 1.539 . S
C567 C563 1.408 . S
C567 C566 1.404 . S
C567 H579 0.930 . S
C568 C564 1.524 . S
C568 H580 0.956 . S
C568 H581 0.961 . S
C568 H582 0.961 . S
C569 C566 1.539 . S
C569 H583 0.958 . S
C569 H584 0.961 . S
C569 H585 0.960 . S
H570 C554 0.931 . S
H571 C559 0.929 . S
H572 C560 0.960 . S
H573 C560 0.962 . S
H574 C560 0.960 . S
H575 C561 0.961 . S
H576 C561 0.961 . S
H577 C561 0.961 . S
H578 C562 0.931 . S
H579 C567 0.930 . S
H580 C568 0.956 . S
H581 C568 0.961 . S
H582 C568 0.961 . S
H583 C569 0.958 . S
H584 C569 0.961 . S
H585 C569 0.960 . S
C586 C587 1.391 . S
C586 C588 1.394 . S
C586 H602 0.931 . S
C587 C586 1.391 . S
C587 C591 1.376 . S
C588 C586 1.394 . S
C588 C589 1.369 . S
C588 C592 1.531 . S
C589 C588 1.369 . S
C589 C590 1.410 . S
C589 C597 1.503 . S
C590 C589 1.410 . S
C590 C591 1.392 . S
C590 C593 1.511 . S
C591 C587 1.376 . S
C591 C590 1.392 . S
C591 H603 0.929 . S
C592 C588 1.531 . S
C592 H604 0.977 . S
C592 H605 0.962 . S
C592 H606 0.956 . S
C593 C590 1.511 . S
C593 H607 0.961 . S
C593 H608 0.961 . S
C593 H609 0.961 . S
C594 C595 1.370 . S
C594 C596 1.363 . S
C594 H610 0.931 . S
C595 C594 1.370 . S
C595 C599 1.408 . S
C596 C594 1.363 . S
C596 C597 1.370 . S
C596 C600 1.524 . S
C597 C589 1.503 . S
C597 C596 1.370 . S
C597 C598 1.403 . S
C598 C597 1.403 . S
C598 C599 1.404 . S
C598 C601 1.505 1_554 S
C599 C595 1.408 . S
C599 C598 1.404 . S
C599 H611 0.930 1_554 S
C600 C596 1.524 . S
C600 H612 0.956 . S
C600 H613 0.961 . S
C600 H614 0.961 . S
C601 C598 1.505 1_556 S
C601 H615 1.004 . S
C601 H616 0.979 . S
C601 H617 0.934 1_556 S
H602 C586 0.931 . S
H603 C591 0.929 . S
H604 C592 0.977 . S
H605 C592 0.962 . S
H606 C592 0.956 . S
H607 C593 0.961 . S
H608 C593 0.961 . S
H609 C593 0.961 . S
H610 C594 0.931 . S
H611 C599 0.930 1_556 S
H612 C600 0.956 . S
H613 C600 0.961 . S
H614 C600 0.961 . S
H615 C601 1.004 . S
H616 C601 0.979 . S
H617 C601 0.934 1_554 S
C618 C619 1.391 . S
C618 C620 1.394 . S
C618 H634 0.931 . S
C619 C618 1.391 . S
C619 C623 1.376 . S
C620 C618 1.394 . S
C620 C621 1.369 . S
C620 C624 1.531 . S
C621 C620 1.369 . S
C621 C622 1.410 . S
C621 C629 1.503 . S
C622 C621 1.410 . S
C622 C623 1.392 . S
C622 C625 1.511 . S
C623 C619 1.376 . S
C623 C622 1.392 . S
C623 H635 0.929 . S
C624 C620 1.531 . S
C624 H636 0.960 . S
C624 H637 0.962 . S
C624 H638 0.960 . S
C625 C622 1.511 . S
C625 H639 0.961 . S
C625 H640 0.961 . S
C625 H641 0.961 . S
C626 C627 1.370 . S
C626 C628 1.363 . S
C626 H642 0.931 1_556 S
C627 C626 1.370 . S
C627 C631 1.408 . S
C628 C626 1.363 . S
C628 C629 1.370 . S
C628 C632 1.557 . S
C629 C621 1.503 . S
C629 C628 1.370 . S
C629 C630 1.403 . S
C630 C629 1.403 . S
C630 C631 1.404 . S
C630 C633 1.539 . S
C631 C627 1.408 . S
C631 C630 1.404 . S
C631 H643 0.930 . S
C632 C628 1.557 . S
C632 H644 0.970 . S
C632 H645 0.961 . S
C632 H646 0.916 1_556 S
C633 C630 1.539 . S
C633 H647 0.958 . S
C633 H648 0.961 . S
C633 H649 0.960 . S
H634 C618 0.931 . S
H635 C623 0.929 . S
H636 C624 0.960 . S
H637 C624 0.962 . S
H638 C624 0.960 . S
H639 C625 0.961 . S
H640 C625 0.961 . S
H641 C625 0.961 . S
H642 C626 0.931 1_554 S
H643 C631 0.930 . S
H644 C632 0.970 . S
H645 C632 0.961 . S
H646 C632 0.916 1_554 S
H647 C633 0.958 . S
H648 C633 0.961 . S
H649 C633 0.960 . S
C650 C651 1.391 . S
C650 C652 1.394 . S
C650 H666 0.931 . S
C651 C650 1.391 . S
C651 C655 1.376 . S
C652 C650 1.394 . S
C652 C653 1.369 . S
C652 C656 1.531 . S
C653 C652 1.369 . S
C653 C654 1.410 . S
C653 C661 1.503 . S
C654 C653 1.410 . S
C654 C655 1.392 . S
C654 C657 1.511 . S
C655 C651 1.376 . S
C655 C654 1.392 . S
C655 H667 0.929 . S
C656 C652 1.531 . S
C656 H668 0.960 . S
C656 H669 0.962 . S
C656 H670 0.960 . S
C657 C654 1.511 . S
C657 H671 0.961 . S
C657 H672 0.961 . S
C657 H673 0.961 . S
C658 C659 1.370 . S
C658 C660 1.363 . S
C658 H674 0.931 . S
C659 C658 1.370 . S
C659 C663 1.408 . S
C660 C658 1.363 . S
C660 C661 1.370 . S
C660 C664 1.524 . S
C661 C653 1.503 . S
C661 C660 1.370 . S
C661 C662 1.403 . S
C662 C661 1.403 . S
C662 C663 1.404 . S
C662 C665 1.539 . S
C663 C659 1.408 . S
C663 C662 1.404 . S
C663 H675 0.930 . S
C664 C660 1.524 . S
C664 H676 0.956 . S
C664 H677 0.961 . S
C664 H678 0.961 . S
C665 C662 1.539 . S
C665 H679 0.958 . S
C665 H680 0.961 . S
C665 H681 0.960 . S
H666 C650 0.931 . S
H667 C655 0.929 . S
H668 C656 0.960 . S
H669 C656 0.962 . S
H670 C656 0.960 . S
H671 C657 0.961 . S
H672 C657 0.961 . S
H673 C657 0.961 . S
H674 C658 0.931 . S
H675 C663 0.930 . S
H676 C664 0.956 . S
H677 C664 0.961 . S
H678 C664 0.961 . S
H679 C665 0.958 . S
H680 C665 0.961 . S
H681 C665 0.960 . S
C682 C683 1.391 . S
C682 C684 1.394 . S
C682 H698 0.931 . S
C683 C682 1.391 . S
C683 C687 1.376 . S
C684 C682 1.394 . S
C684 C685 1.369 . S
C684 C688 1.531 . S
C685 C684 1.369 . S
C685 C686 1.410 . S
C685 C693 1.503 . S
C686 C685 1.410 . S
C686 C687 1.392 . S
C686 C689 1.511 . S
C687 C683 1.376 . S
C687 C686 1.392 . S
C687 H699 0.929 . S
C688 C684 1.531 . S
C688 H700 0.960 1_556 S
C688 H701 0.962 . S
C688 H702 0.960 1_556 S
C689 C686 1.511 . S
C689 H703 0.961 . S
C689 H704 0.961 . S
C689 H705 0.961 . S
C690 C691 1.370 . S
C690 C692 1.363 . S
C690 H706 0.931 . S
C691 C690 1.370 . S
C691 C695 1.429 . S
C692 C690 1.363 . S
C692 C693 1.370 . S
C692 C696 1.524 . S
C693 C685 1.503 . S
C693 C692 1.370 . S
C693 C694 1.403 . S
C694 C693 1.403 . S
C694 C695 1.414 . S
C694 C697 1.539 1_556 S
C695 C691 1.429 . S
C695 C694 1.414 . S
C695 H707 0.900 1_556 S
C696 C692 1.524 . S
C696 H708 0.956 . S
C696 H709 0.961 . S
C696 H710 0.961 . S
C697 C694 1.539 1_554 S
C697 H711 0.958 . S
C697 H712 0.961 . S
C697 H713 0.960 1_554 S
H698 C682 0.931 . S
H699 C687 0.929 . S
H700 C688 0.960 1_554 S
H701 C688 0.962 . S
H702 C688 0.960 1_554 S
H703 C689 0.961 . S
H704 C689 0.961 . S
H705 C689 0.961 . S
H706 C690 0.931 . S
H707 C695 0.900 1_554 S
H708 C696 0.956 . S
H709 C696 0.961 . S
H710 C696 0.961 . S
H711 C697 0.958 . S
H712 C697 0.961 . S
H713 C697 0.960 1_556 S
C714 C715 1.391 . S
C714 C716 1.394 . S
C714 H730 0.931 . S
C715 C714 1.391 . S
C715 C719 1.376 . S
C716 C714 1.394 . S
C716 C717 1.369 . S
C716 C720 1.531 . S
C717 C716 1.369 . S
C717 C718 1.410 . S
C717 C725 1.503 . S
C718 C717 1.410 . S
C718 C719 1.392 . S
C718 C721 1.511 . S
C719 C715 1.376 . S
C719 C718 1.392 . S
C719 H731 0.929 . S
C720 C716 1.531 . S
C720 H732 0.960 . S
C720 H733 0.962 . S
C720 H734 0.948 1_556 S
C721 C718 1.511 . S
C721 H735 0.961 . S
C721 H736 0.961 . S
C721 H737 0.961 . S
C722 C723 1.370 . S
C722 C724 1.363 . S
C722 H738 0.931 . S
C723 C722 1.370 . S
C723 C727 1.408 . S
C724 C722 1.363 . S
C724 C725 1.370 . S
C724 C728 1.524 . S
C725 C717 1.503 . S
C725 C724 1.370 . S
C725 C726 1.403 . S
C726 C725 1.403 . S
C726 C727 1.404 . S
C726 C729 1.539 . S
C727 C723 1.408 . S
C727 C726 1.404 . S
C727 H739 0.930 . S
C728 C724 1.524 . S
C728 H740 0.956 . S
C728 H741 0.961 . S
C728 H742 0.961 . S
C729 C726 1.539 . S
C729 H743 0.958 . S
C729 H744 0.961 . S
C729 H745 0.960 . S
H730 C714 0.931 . S
H731 C719 0.929 . S
H732 C720 0.960 . S
H733 C720 0.962 . S
H734 C720 0.948 1_554 S
H735 C721 0.961 . S
H736 C721 0.961 . S
H737 C721 0.961 . S
H738 C722 0.931 . S
H739 C727 0.930 . S
H740 C728 0.956 . S
H741 C728 0.961 . S
H742 C728 0.961 . S
H743 C729 0.958 . S
H744 C729 0.961 . S
H745 C729 0.960 . S
C746 C747 1.391 . S
C746 C748 1.394 . S
C746 H762 0.931 . S
C747 C746 1.391 . S
C747 C751 1.376 . S
C748 C746 1.394 . S
C748 C749 1.369 . S
C748 C752 1.531 . S
C749 C748 1.369 . S
C749 C750 1.410 . S
C749 C757 1.503 . S
C750 C749 1.410 . S
C750 C751 1.392 . S
C750 C753 1.511 . S
C751 C747 1.376 . S
C751 C750 1.392 . S
C751 H763 0.929 . S
C752 C748 1.531 . S
C752 H764 0.960 . S
C752 H765 0.962 . S
C752 H766 0.960 . S
C753 C750 1.511 . S
C753 H767 0.961 . S
C753 H768 0.961 . S
C753 H769 0.961 . S
C754 C755 1.370 . S
C754 C756 1.363 . S
C754 H770 0.931 . S
C755 C754 1.370 . S
C755 C759 1.408 . S
C756 C754 1.363 . S
C756 C757 1.370 . S
C756 C760 1.524 . S
C757 C749 1.503 . S
C757 C756 1.370 . S
C757 C758 1.403 . S
C758 C757 1.403 . S
C758 C759 1.404 . S
C758 C761 1.539 . S
C759 C755 1.408 . S
C759 C758 1.404 . S
C759 H771 0.930 . S
C760 C756 1.524 . S
C760 H772 0.956 . S
C760 H773 0.961 . S
C760 H774 0.961 . S
C761 C758 1.539 . S
C761 H775 0.958 . S
C761 H776 0.961 . S
C761 H777 0.960 . S
H762 C746 0.931 . S
H763 C751 0.929 . S
H764 C752 0.960 . S
H765 C752 0.962 . S
H766 C752 0.960 . S
H767 C753 0.961 . S
H768 C753 0.961 . S
H769 C753 0.961 . S
H770 C754 0.931 . S
H771 C759 0.930 . S
H772 C760 0.956 . S
H773 C760 0.961 . S
H774 C760 0.961 . S
H775 C761 0.958 . S
H776 C761 0.961 . S
H777 C761 0.960 . S
C778 C779 1.391 . S
C778 C780 1.394 . S
C778 H794 0.931 . S
C779 C778 1.391 . S
C779 C783 1.376 . S
C780 C778 1.394 . S
C780 C781 1.369 . S
C780 C784 1.531 . S
C781 C780 1.369 . S
C781 C782 1.410 . S
C781 C789 1.503 . S
C782 C781 1.410 . S
C782 C783 1.392 . S
C782 C785 1.511 . S
C783 C779 1.376 . S
C783 C782 1.392 . S
C783 H795 0.929 . S
C784 C780 1.531 . S
C784 H796 0.960 . S
C784 H797 0.962 . S
C784 H798 0.960 . S
C785 C782 1.511 . S
C785 H799 0.961 . S
C785 H800 0.961 . S
C785 H801 0.961 . S
C786 C787 1.370 . S
C786 C788 1.363 . S
C786 H802 0.931 . S
C787 C786 1.370 . S
C787 C791 1.358 1_556 S
C788 C786 1.363 . S
C788 C789 1.370 . S
C788 C792 1.524 . S
C789 C781 1.503 . S
C789 C788 1.370 . S
C789 C790 1.403 . S
C790 C789 1.403 . S
C790 C791 1.397 1_556 S
C790 C793 1.539 1_556 S
C791 C787 1.358 1_554 S
C791 C790 1.397 1_554 S
C791 H803 0.987 . S
C792 C788 1.524 . S
C792 H804 0.956 . S
C792 H805 0.961 . S
C792 H806 0.961 . S
C793 C790 1.539 1_554 S
C793 H807 0.958 . S
C793 H808 0.961 . S
C793 H809 0.960 . S
H794 C778 0.931 . S
H795 C783 0.929 . S
H796 C784 0.960 . S
H797 C784 0.962 . S
H798 C784 0.960 . S
H799 C785 0.961 . S
H800 C785 0.961 . S
H801 C785 0.961 . S
H802 C786 0.931 . S
H803 C791 0.987 . S
H804 C792 0.956 . S
H805 C792 0.961 . S
H806 C792 0.961 . S
H807 C793 0.958 . S
H808 C793 0.961 . S
H809 C793 0.960 . S
C810 C811 1.391 . S
C810 C812 1.394 . S
C810 H826 0.931 . S
C811 C810 1.391 . S
C811 C815 1.376 . S
C812 C810 1.394 . S
C812 C813 1.369 . S
C812 C816 1.531 . S
C813 C812 1.369 . S
C813 C814 1.410 . S
C813 C821 1.503 . S
C814 C813 1.410 . S
C814 C815 1.392 . S
C814 C817 1.511 . S
C815 C811 1.376 . S
C815 C814 1.392 . S
C815 H827 0.929 . S
C816 C812 1.531 . S
C816 H828 0.960 . S
C816 H829 0.962 . S
C816 H830 0.960 . S
C817 C814 1.511 . S
C817 H831 0.961 . S
C817 H832 0.961 . S
C817 H833 0.961 . S
C818 C819 1.370 . S
C818 C820 1.363 . S
C818 H834 0.931 . S
C819 C818 1.370 . S
C819 C823 1.408 . S
C820 C818 1.363 . S
C820 C821 1.370 . S
C820 C824 1.524 . S
C821 C813 1.503 . S
C821 C820 1.370 . S
C821 C822 1.403 . S
C822 C821 1.403 . S
C822 C823 1.404 . S
C822 C825 1.539 . S
C823 C819 1.408 . S
C823 C822 1.404 . S
C823 H835 0.930 . S
C824 C820 1.524 . S
C824 H836 0.956 . S
C824 H837 0.961 . S
C824 H838 0.961 . S
C825 C822 1.539 . S
C825 H839 0.958 . S
C825 H840 0.961 . S
C825 H841 0.960 . S
H826 C810 0.931 . S
H827 C815 0.929 . S
H828 C816 0.960 . S
H829 C816 0.962 . S
H830 C816 0.960 . S
H831 C817 0.961 . S
H832 C817 0.961 . S
H833 C817 0.961 . S
H834 C818 0.931 . S
H835 C823 0.930 . S
H836 C824 0.956 . S
H837 C824 0.961 . S
H838 C824 0.961 . S
H839 C825 0.958 . S
H840 C825 0.961 . S
H841 C825 0.960 . S
C842 C843 1.391 . S
C842 C844 1.394 . S
C842 H858 0.931 . S
C843 C842 1.391 . S
C843 C847 1.376 . S
C844 C842 1.394 . S
C844 C845 1.369 . S
C844 C848 1.531 . S
C845 C844 1.369 . S
C845 C846 1.410 . S
C845 C853 1.503 . S
C846 C845 1.410 . S
C846 C847 1.392 . S
C846 C849 1.511 . S
C847 C843 1.376 . S
C847 C846 1.392 . S
C847 H859 0.929 . S
C848 C844 1.531 . S
C848 H860 0.960 . S
C848 H861 0.962 . S
C848 H862 0.960 . S
C849 C846 1.511 . S
C849 H863 0.961 . S
C849 H864 0.961 . S
C849 H865 0.961 . S
C850 C851 1.370 . S
C850 C852 1.363 . S
C850 H866 0.931 . S
C851 C850 1.370 . S
C851 C855 1.408 . S
C852 C850 1.363 . S
C852 C853 1.370 . S
C852 C856 1.524 . S
C853 C845 1.503 . S
C853 C852 1.370 . S
C853 C854 1.403 . S
C854 C853 1.403 . S
C854 C855 1.404 . S
C854 C857 1.539 . S
C855 C851 1.408 . S
C855 C854 1.404 . S
C855 H867 0.930 . S
C856 C852 1.524 . S
C856 H868 0.956 . S
C856 H869 0.961 . S
C856 H870 0.961 . S
C857 C854 1.539 . S
C857 H871 0.958 . S
C857 H872 0.961 . S
C857 H873 0.960 . S
H858 C842 0.931 . S
H859 C847 0.929 . S
H860 C848 0.960 . S
H861 C848 0.962 . S
H862 C848 0.960 . S
H863 C849 0.961 . S
H864 C849 0.961 . S
H865 C849 0.961 . S
H866 C850 0.931 . S
H867 C855 0.930 . S
H868 C856 0.956 . S
H869 C856 0.961 . S
H870 C856 0.961 . S
H871 C857 0.958 . S
H872 C857 0.961 . S
H873 C857 0.960 . S
C874 C875 1.391 . S
C874 C876 1.394 . S
C874 H890 0.931 . S
C875 C874 1.391 . S
C875 C879 1.376 . S
C876 C874 1.394 . S
C876 C877 1.369 . S
C876 C880 1.556 . S
C877 C876 1.369 . S
C877 C878 1.410 . S
C877 C885 1.503 . S
C878 C877 1.410 . S
C878 C879 1.392 . S
C878 C881 1.511 . S
C879 C875 1.376 . S
C879 C878 1.392 . S
C879 H891 0.929 . S
C880 C876 1.556 . S
C880 H892 0.955 1_554 S
C880 H893 0.954 1_554 S
C880 H894 0.948 1_554 S
C881 C878 1.511 . S
C881 H895 0.961 . S
C881 H896 0.961 . S
C881 H897 0.961 . S
C882 C883 1.370 . S
C882 C884 1.363 . S
C882 H898 0.931 . S
C883 C882 1.370 . S
C883 C887 1.408 . S
C884 C882 1.363 . S
C884 C885 1.370 . S
C884 C888 1.524 . S
C885 C877 1.503 . S
C885 C884 1.370 . S
C885 C886 1.403 . S
C886 C885 1.403 . S
C886 C887 1.404 . S
C886 C889 1.539 . S
C887 C883 1.408 . S
C887 C886 1.404 . S
C887 H899 0.930 . S
C888 C884 1.524 . S
C888 H900 0.956 . S
C888 H901 0.961 . S
C888 H902 0.961 . S
C889 C886 1.539 . S
C889 H903 0.958 . S
C889 H904 0.961 . S
C889 H905 0.960 . S
H890 C874 0.931 . S
H891 C879 0.929 . S
H892 C880 0.955 1_556 S
H893 C880 0.954 1_556 S
H894 C880 0.948 1_556 S
H895 C881 0.961 . S
H896 C881 0.961 . S
H897 C881 0.961 . S
H898 C882 0.931 . S
H899 C887 0.930 . S
H900 C888 0.956 . S
H901 C888 0.961 . S
H902 C888 0.961 . S
H903 C889 0.958 . S
H904 C889 0.961 . S
H905 C889 0.960 . S
C906 C907 1.391 . S
C906 C908 1.394 . S
C906 H922 0.931 . S
C907 C906 1.391 . S
C907 C911 1.376 . S
C908 C906 1.394 . S
C908 C909 1.369 . S
C908 C912 1.531 . S
C909 C908 1.369 . S
C909 C910 1.410 . S
C909 C917 1.503 1_655 S
C910 C909 1.410 . S
C910 C911 1.392 . S
C910 C913 1.511 1_655 S
C911 C907 1.376 . S
C911 C910 1.392 . S
C911 H923 0.929 . S
C912 C908 1.531 . S
C912 H924 0.960 . S
C912 H925 0.962 . S
C912 H926 0.960 . S
C913 C910 1.511 1_455 S
C913 H927 0.961 . S
C913 H928 0.961 . S
C913 H929 0.961 . S
C914 C915 1.370 . S
C914 C916 1.363 . S
C914 H930 0.931 . S
C915 C914 1.370 . S
C915 C919 1.408 . S
C916 C914 1.363 . S
C916 C917 1.370 . S
C916 C920 1.524 . S
C917 C909 1.503 1_455 S
C917 C916 1.370 . S
C917 C918 1.403 . S
C918 C917 1.403 . S
C918 C919 1.404 . S
C918 C921 1.539 . S
C919 C915 1.408 . S
C919 C918 1.404 . S
C919 H931 0.930 . S
C920 C916 1.524 . S
C920 H932 0.956 1_455 S
C920 H933 0.961 1_455 S
C920 H934 0.961 . S
C921 C918 1.539 . S
C921 H935 0.958 . S
C921 H936 0.961 . S
C921 H937 0.960 . S
H922 C906 0.931 . S
H923 C911 0.929 . S
H924 C912 0.960 . S
H925 C912 0.962 . S
H926 C912 0.960 . S
H927 C913 0.961 . S
H928 C913 0.961 . S
H929 C913 0.961 . S
H930 C914 0.931 . S
H931 C919 0.930 . S
H932 C920 0.956 1_655 S
H933 C920 0.961 1_655 S
H934 C920 0.961 . S
H935 C921 0.958 . S
H936 C921 0.961 . S
H937 C921 0.960 . S
C938 C939 1.391 . S
C938 C940 1.394 . S
C938 H954 0.931 . S
C939 C938 1.391 . S
C939 C943 1.376 . S
C940 C938 1.394 . S
C940 C941 1.369 . S
C940 C944 1.531 . S
C941 C940 1.369 . S
C941 C942 1.410 . S
C941 C949 1.503 . S
C942 C941 1.410 . S
C942 C943 1.392 . S
C942 C945 1.511 . S
C943 C939 1.376 . S
C943 C942 1.392 . S
C943 H955 0.929 . S
C944 C940 1.531 . S
C944 H956 0.960 . S
C944 H957 0.962 . S
C944 H958 0.960 . S
C945 C942 1.511 . S
C945 H959 0.961 . S
C945 H960 0.961 . S
C945 H961 0.961 . S
C946 C947 1.370 . S
C946 C948 1.363 . S
C946 H962 0.931 . S
C947 C946 1.370 . S
C947 C951 1.408 . S
C948 C946 1.363 . S
C948 C949 1.370 . S
C948 C952 1.524 . S
C949 C941 1.503 . S
C949 C948 1.370 . S
C949 C950 1.403 . S
C950 C949 1.403 . S
C950 C951 1.404 . S
C950 C953 1.539 . S
C951 C947 1.408 . S
C951 C950 1.404 . S
C951 H963 0.930 . S
C952 C948 1.524 . S
C952 H964 0.956 . S
C952 H965 0.961 . S
C952 H966 0.961 . S
C953 C950 1.539 . S
C953 H967 0.958 . S
C953 H968 0.961 . S
C953 H969 0.960 . S
H954 C938 0.931 . S
H955 C943 0.929 . S
H956 C944 0.960 . S
H957 C944 0.962 . S
H958 C944 0.960 . S
H959 C945 0.961 . S
H960 C945 0.961 . S
H961 C945 0.961 . S
H962 C946 0.931 . S
H963 C951 0.930 . S
H964 C952 0.956 . S
H965 C952 0.961 . S
H966 C952 0.961 . S
H967 C953 0.958 . S
H968 C953 0.961 . S
H969 C953 0.960 . S
C970 C971 1.391 . S
C970 C972 1.394 . S
C970 H986 0.931 . S
C971 C970 1.391 . S
C971 C975 1.376 . S
C972 C970 1.394 . S
C972 C973 1.369 . S
C972 C976 1.531 . S
C973 C972 1.369 . S
C973 C974 1.410 . S
C973 C981 1.503 1_545 S
C974 C973 1.410 . S
C974 C975 1.392 . S
C974 C977 1.511 . S
C975 C971 1.376 . S
C975 C974 1.392 . S
C975 H987 0.929 . S
C976 C972 1.531 . S
C976 H988 0.960 . S
C976 H989 0.962 . S
C976 H990 0.960 . S
C977 C974 1.511 . S
C977 H991 0.961 . S
C977 H992 0.961 . S
C977 H993 0.961 . S
C978 C979 1.370 . S
C978 C980 1.363 . S
C978 H994 0.931 . S
C979 C978 1.370 . S
C979 C983 1.408 . S
C980 C978 1.363 . S
C980 C981 1.370 . S
C980 C984 1.524 . S
C981 C973 1.503 1_565 S
C981 C980 1.370 . S
C981 C982 1.403 . S
C982 C981 1.403 . S
C982 C983 1.404 . S
C982 C985 1.539 1_565 S
C983 C979 1.408 . S
C983 C982 1.404 . S
C983 H995 0.930 . S
C984 C980 1.524 . S
C984 H996 0.956 1_565 S
C984 H997 0.961 1_565 S
C984 H998 0.961 . S
C985 C982 1.539 1_545 S
C985 H999 0.958 . S
C985 H1000 0.961 1_545 S
C985 H1001 0.960 . S
H986 C970 0.931 . S
H987 C975 0.929 . S
H988 C976 0.960 . S
H989 C976 0.962 . S
H990 C976 0.960 . S
H991 C977 0.961 . S
H992 C977 0.961 . S
H993 C977 0.961 . S
H994 C978 0.931 . S
H995 C983 0.930 . S
H996 C984 0.956 1_545 S
H997 C984 0.961 1_545 S
H998 C984 0.961 . S
H999 C985 0.958 . S
H1000 C985 0.961 1_565 S
H1001 C985 0.960 . S
C1002 C1003 1.391 . S
C1002 C1004 1.394 . S
C1002 H1018 0.931 . S
C1003 C1002 1.391 . S
C1003 C1007 1.376 . S
C1004 C1002 1.394 . S
C1004 C1005 1.369 . S
C1004 C1008 1.531 . S
C1005 C1004 1.369 . S
C1005 C1006 1.410 . S
C1005 C1013 1.503 . S
C1006 C1005 1.410 . S
C1006 C1007 1.392 . S
C1006 C1009 1.511 . S
C1007 C1003 1.376 . S
C1007 C1006 1.392 . S
C1007 H1019 0.929 . S
C1008 C1004 1.531 . S
C1008 H1020 0.960 . S
C1008 H1021 0.962 . S
C1008 H1022 0.960 . S
C1009 C1006 1.511 . S
C1009 H1023 0.961 . S
C1009 H1024 0.961 . S
C1009 H1025 0.961 . S
C1010 C1011 1.370 . S
C1010 C1012 1.363 . S
C1010 H1026 0.931 . S
C1011 C1010 1.370 . S
C1011 C1015 1.408 . S
C1012 C1010 1.363 . S
C1012 C1013 1.370 . S
C1012 C1016 1.524 . S
C1013 C1005 1.503 . S
C1013 C1012 1.370 . S
C1013 C1014 1.403 . S
C1014 C1013 1.403 . S
C1014 C1015 1.404 . S
C1014 C1017 1.539 . S
C1015 C1011 1.408 . S
C1015 C1014 1.404 . S
C1015 H1027 0.930 . S
C1016 C1012 1.524 . S
C1016 H1028 0.956 . S
C1016 H1029 0.961 . S
C1016 H1030 0.961 . S
C1017 C1014 1.539 . S
C1017 H1031 0.958 . S
C1017 H1032 0.961 . S
C1017 H1033 0.960 . S
H1018 C1002 0.931 . S
H1019 C1007 0.929 . S
H1020 C1008 0.960 . S
H1021 C1008 0.962 . S
H1022 C1008 0.960 . S
H1023 C1009 0.961 . S
H1024 C1009 0.961 . S
H1025 C1009 0.961 . S
H1026 C1010 0.931 . S
H1027 C1015 0.930 . S
H1028 C1016 0.956 . S
H1029 C1016 0.961 . S
H1030 C1016 0.961 . S
H1031 C1017 0.958 . S
H1032 C1017 0.961 . S
H1033 C1017 0.960 . S
C1034 C1035 1.391 . S
C1034 C1036 1.394 . S
C1034 H1050 0.931 . S
C1035 C1034 1.391 . S
C1035 C1039 1.376 . S
C1036 C1034 1.394 . S
C1036 C1037 1.369 . S
C1036 C1040 1.531 . S
C1037 C1036 1.369 . S
C1037 C1038 1.410 . S
C1037 C1045 1.503 . S
C1038 C1037 1.410 . S
C1038 C1039 1.392 . S
C1038 C1041 1.511 . S
C1039 C1035 1.376 . S
C1039 C1038 1.392 . S
C1039 H1051 0.929 . S
C1040 C1036 1.531 . S
C1040 H1052 0.960 . S
C1040 H1053 0.962 . S
C1040 H1054 0.960 . S
C1041 C1038 1.511 . S
C1041 H1055 0.961 . S
C1041 H1056 0.961 . S
C1041 H1057 0.961 . S
C1042 C1043 1.370 . S
C1042 C1044 1.363 . S
C1042 H1058 0.931 . S
C1043 C1042 1.370 . S
C1043 C1047 1.408 . S
C1044 C1042 1.363 . S
C1044 C1045 1.370 . S
C1044 C1048 1.524 . S
C1045 C1037 1.503 . S
C1045 C1044 1.370 . S
C1045 C1046 1.403 . S
C1046 C1045 1.403 . S
C1046 C1047 1.404 . S
C1046 C1049 1.539 . S
C1047 C1043 1.408 . S
C1047 C1046 1.404 . S
C1047 H1059 0.930 . S
C1048 C1044 1.524 . S
C1048 H1060 0.956 . S
C1048 H1061 0.961 . S
C1048 H1062 0.961 . S
C1049 C1046 1.539 . S
C1049 H1063 0.958 . S
C1049 H1064 0.961 . S
C1049 H1065 0.960 . S
H1050 C1034 0.931 . S
H1051 C1039 0.929 . S
H1052 C1040 0.960 . S
H1053 C1040 0.962 . S
H1054 C1040 0.960 . S
H1055 C1041 0.961 . S
H1056 C1041 0.961 . S
H1057 C1041 0.961 . S
H1058 C1042 0.931 . S
H1059 C1047 0.930 . S
H1060 C1048 0.956 . S
H1061 C1048 0.961 . S
H1062 C1048 0.961 . S
H1063 C1049 0.958 . S
H1064 C1049 0.961 . S
H1065 C1049 0.960 . S
C1066 C1067 1.391 . S
C1066 C1068 1.394 . S
C1066 H1082 0.931 . S
C1067 C1066 1.391 . S
C1067 C1071 1.376 . S
C1068 C1066 1.394 . S
C1068 C1069 1.369 . S
C1068 C1072 1.531 . S
C1069 C1068 1.369 . S
C1069 C1070 1.410 . S
C1069 C1077 1.503 . S
C1070 C1069 1.410 . S
C1070 C1071 1.392 . S
C1070 C1073 1.511 . S
C1071 C1067 1.376 . S
C1071 C1070 1.392 . S
C1071 H1083 0.929 . S
C1072 C1068 1.531 . S
C1072 H1084 0.960 . S
C1072 H1085 0.962 . S
C1072 H1086 0.960 . S
C1073 C1070 1.511 . S
C1073 H1087 0.961 . S
C1073 H1088 0.961 . S
C1073 H1089 0.961 . S
C1074 C1075 1.370 . S
C1074 C1076 1.363 . S
C1074 H1090 0.931 . S
C1075 C1074 1.370 . S
C1075 C1079 1.408 . S
C1076 C1074 1.363 . S
C1076 C1077 1.370 . S
C1076 C1080 1.524 . S
C1077 C1069 1.503 . S
C1077 C1076 1.370 . S
C1077 C1078 1.403 . S
C1078 C1077 1.403 . S
C1078 C1079 1.404 . S
C1078 C1081 1.539 . S
C1079 C1075 1.408 . S
C1079 C1078 1.404 . S
C1079 H1091 0.930 . S
C1080 C1076 1.524 . S
C1080 H1092 0.956 . S
C1080 H1093 0.961 . S
C1080 H1094 0.961 . S
C1081 C1078 1.539 . S
C1081 H1095 0.958 . S
C1081 H1096 0.961 . S
C1081 H1097 0.960 . S
H1082 C1066 0.931 . S
H1083 C1071 0.929 . S
H1084 C1072 0.960 . S
H1085 C1072 0.962 . S
H1086 C1072 0.960 . S
H1087 C1073 0.961 . S
H1088 C1073 0.961 . S
H1089 C1073 0.961 . S
H1090 C1074 0.931 . S
H1091 C1079 0.930 . S
H1092 C1080 0.956 . S
H1093 C1080 0.961 . S
H1094 C1080 0.961 . S
H1095 C1081 0.958 . S
H1096 C1081 0.961 . S
H1097 C1081 0.960 . S
C1098 C1099 1.391 . S
C1098 C1100 1.394 . S
C1098 H1114 0.931 . S
C1099 C1098 1.391 . S
C1099 C1103 1.376 . S
C1100 C1098 1.394 . S
C1100 C1101 1.369 . S
C1100 C1104 1.531 . S
C1101 C1100 1.369 . S
C1101 C1102 1.410 . S
C1101 C1109 1.503 . S
C1102 C1101 1.410 . S
C1102 C1103 1.392 . S
C1102 C1105 1.511 . S
C1103 C1099 1.376 . S
C1103 C1102 1.392 . S
C1103 H1115 0.929 . S
C1104 C1100 1.531 . S
C1104 H1116 0.960 . S
C1104 H1117 0.962 . S
C1104 H1118 0.960 . S
C1105 C1102 1.511 . S
C1105 H1119 0.961 . S
C1105 H1120 0.961 . S
C1105 H1121 0.961 . S
C1106 C1107 1.370 . S
C1106 C1108 1.363 . S
C1106 H1122 0.931 . S
C1107 C1106 1.370 . S
C1107 C1111 1.408 . S
C1108 C1106 1.363 . S
C1108 C1109 1.370 . S
C1108 C1112 1.524 . S
C1109 C1101 1.503 . S
C1109 C1108 1.370 . S
C1109 C1110 1.403 . S
C1110 C1109 1.403 . S
C1110 C1111 1.404 . S
C1110 C1113 1.539 . S
C1111 C1107 1.408 . S
C1111 C1110 1.404 . S
C1111 H1123 0.930 . S
C1112 C1108 1.524 . S
C1112 H1124 0.956 . S
C1112 H1125 0.961 . S
C1112 H1126 0.961 . S
C1113 C1110 1.539 . S
C1113 H1127 0.958 . S
C1113 H1128 0.961 . S
C1113 H1129 0.960 . S
H1114 C1098 0.931 . S
H1115 C1103 0.929 . S
H1116 C1104 0.960 . S
H1117 C1104 0.962 . S
H1118 C1104 0.960 . S
H1119 C1105 0.961 . S
H1120 C1105 0.961 . S
H1121 C1105 0.961 . S
H1122 C1106 0.931 . S
H1123 C1111 0.930 . S
H1124 C1112 0.956 . S
H1125 C1112 0.961 . S
H1126 C1112 0.961 . S
H1127 C1113 0.958 . S
H1128 C1113 0.961 . S
H1129 C1113 0.960 . S
C1130 C1131 1.391 . S
C1130 C1132 1.394 . S
C1130 H1146 0.931 . S
C1131 C1130 1.391 . S
C1131 C1135 1.376 . S
C1132 C1130 1.394 . S
C1132 C1133 1.369 . S
C1132 C1136 1.531 . S
C1133 C1132 1.369 . S
C1133 C1134 1.410 . S
C1133 C1141 1.503 . S
C1134 C1133 1.410 . S
C1134 C1135 1.392 . S
C1134 C1137 1.511 . S
C1135 C1131 1.376 . S
C1135 C1134 1.392 . S
C1135 H1147 0.929 . S
C1136 C1132 1.531 . S
C1136 H1148 0.960 . S
C1136 H1149 0.962 . S
C1136 H1150 0.960 . S
C1137 C1134 1.511 . S
C1137 H1151 0.961 . S
C1137 H1152 0.961 . S
C1137 H1153 0.961 . S
C1138 C1139 1.370 . S
C1138 C1140 1.363 . S
C1138 H1154 0.931 . S
C1139 C1138 1.370 . S
C1139 C1143 1.408 . S
C1140 C1138 1.363 . S
C1140 C1141 1.370 . S
C1140 C1144 1.524 . S
C1141 C1133 1.503 . S
C1141 C1140 1.370 . S
C1141 C1142 1.403 . S
C1142 C1141 1.403 . S
C1142 C1143 1.404 . S
C1142 C1145 1.539 . S
C1143 C1139 1.408 . S
C1143 C1142 1.404 . S
C1143 H1155 0.930 . S
C1144 C1140 1.524 . S
C1144 H1156 0.956 . S
C1144 H1157 0.961 . S
C1144 H1158 0.961 . S
C1145 C1142 1.539 . S
C1145 H1159 0.958 . S
C1145 H1160 0.961 . S
C1145 H1161 0.960 . S
H1146 C1130 0.931 . S
H1147 C1135 0.929 . S
H1148 C1136 0.960 . S
H1149 C1136 0.962 . S
H1150 C1136 0.960 . S
H1151 C1137 0.961 . S
H1152 C1137 0.961 . S
H1153 C1137 0.961 . S
H1154 C1138 0.931 . S
H1155 C1143 0.930 . S
H1156 C1144 0.956 . S
H1157 C1144 0.961 . S
H1158 C1144 0.961 . S
H1159 C1145 0.958 . S
H1160 C1145 0.961 . S
H1161 C1145 0.960 . S
C1162 C1163 1.391 . S
C1162 C1164 1.394 . S
C1162 H1178 0.931 . S
C1163 C1162 1.391 . S
C1163 C1167 1.376 . S
C1164 C1162 1.394 . S
C1164 C1165 1.369 . S
C1164 C1168 1.531 . S
C1165 C1164 1.369 . S
C1165 C1166 1.410 . S
C1165 C1173 1.503 . S
C1166 C1165 1.410 . S
C1166 C1167 1.392 . S
C1166 C1169 1.511 . S
C1167 C1163 1.376 . S
C1167 C1166 1.392 . S
C1167 H1179 0.929 . S
C1168 C1164 1.531 . S
C1168 H1180 0.960 . S
C1168 H1181 0.962 . S
C1168 H1182 0.960 . S
C1169 C1166 1.511 . S
C1169 H1183 0.961 . S
C1169 H1184 0.961 . S
C1169 H1185 0.961 . S
C1170 C1171 1.370 . S
C1170 C1172 1.363 . S
C1170 H1186 0.931 . S
C1171 C1170 1.370 . S
C1171 C1175 1.408 . S
C1172 C1170 1.363 . S
C1172 C1173 1.370 . S
C1172 C1176 1.524 . S
C1173 C1165 1.503 . S
C1173 C1172 1.370 . S
C1173 C1174 1.403 . S
C1174 C1173 1.403 . S
C1174 C1175 1.404 . S
C1174 C1177 1.539 . S
C1175 C1171 1.408 . S
C1175 C1174 1.404 . S
C1175 H1187 0.930 . S
C1176 C1172 1.524 . S
C1176 H1188 0.956 . S
C1176 H1189 0.961 . S
C1176 H1190 0.961 . S
C1177 C1174 1.539 . S
C1177 H1191 0.958 . S
C1177 H1192 0.961 . S
C1177 H1193 0.960 . S
H1178 C1162 0.931 . S
H1179 C1167 0.929 . S
H1180 C1168 0.960 . S
H1181 C1168 0.962 . S
H1182 C1168 0.960 . S
H1183 C1169 0.961 . S
H1184 C1169 0.961 . S
H1185 C1169 0.961 . S
H1186 C1170 0.931 . S
H1187 C1175 0.930 . S
H1188 C1176 0.956 . S
H1189 C1176 0.961 . S
H1190 C1176 0.961 . S
H1191 C1177 0.958 . S
H1192 C1177 0.961 . S
H1193 C1177 0.960 . S
C1194 C1195 1.391 . S
C1194 C1196 1.394 . S
C1194 H1210 0.931 . S
C1195 C1194 1.391 . S
C1195 C1199 1.376 . S
C1196 C1194 1.394 . S
C1196 C1197 1.369 . S
C1196 C1200 1.531 . S
C1197 C1196 1.369 . S
C1197 C1198 1.410 . S
C1197 C1205 1.503 1_545 S
C1198 C1197 1.410 . S
C1198 C1199 1.392 . S
C1198 C1201 1.511 . S
C1199 C1195 1.376 . S
C1199 C1198 1.392 . S
C1199 H1211 0.929 . S
C1200 C1196 1.531 . S
C1200 H1212 0.960 1_545 S
C1200 H1213 0.962 . S
C1200 H1214 0.960 . S
C1201 C1198 1.511 . S
C1201 H1215 0.961 . S
C1201 H1216 0.961 . S
C1201 H1217 0.961 . S
C1202 C1203 1.370 . S
C1202 C1204 1.363 . S
C1202 H1218 0.931 . S
C1203 C1202 1.370 . S
C1203 C1207 1.408 . S
C1204 C1202 1.363 . S
C1204 C1205 1.370 . S
C1204 C1208 1.524 1_565 S
C1205 C1197 1.503 1_565 S
C1205 C1204 1.370 . S
C1205 C1206 1.403 . S
C1206 C1205 1.403 . S
C1206 C1207 1.404 . S
C1206 C1209 1.539 . S
C1207 C1203 1.408 . S
C1207 C1206 1.404 . S
C1207 H1219 0.930 . S
C1208 C1204 1.524 1_545 S
C1208 H1220 0.956 . S
C1208 H1221 0.961 . S
C1208 H1222 0.961 1_545 S
C1209 C1206 1.539 . S
C1209 H1223 0.958 . S
C1209 H1224 0.961 . S
C1209 H1225 0.960 1_565 S
H1210 C1194 0.931 . S
H1211 C1199 0.929 . S
H1212 C1200 0.960 1_565 S
H1213 C1200 0.962 . S
H1214 C1200 0.960 . S
H1215 C1201 0.961 . S
H1216 C1201 0.961 . S
H1217 C1201 0.961 . S
H1218 C1202 0.931 . S
H1219 C1207 0.930 . S
H1220 C1208 0.956 . S
H1221 C1208 0.961 . S
H1222 C1208 0.961 1_565 S
H1223 C1209 0.958 . S
H1224 C1209 0.961 . S
H1225 C1209 0.960 1_545 S
C1226 C1227 1.391 . S
C1226 C1228 1.394 . S
C1226 H1242 0.931 . S
C1227 C1226 1.391 . S
C1227 C1231 1.376 . S
C1228 C1226 1.394 . S
C1228 C1229 1.369 . S
C1228 C1232 1.531 . S
C1229 C1228 1.369 . S
C1229 C1230 1.410 . S
C1229 C1237 1.503 1_655 S
C1230 C1229 1.410 . S
C1230 C1231 1.392 . S
C1230 C1233 1.511 . S
C1231 C1227 1.376 . S
C1231 C1230 1.392 . S
C1231 H1243 0.929 . S
C1232 C1228 1.531 . S
C1232 H1244 0.960 1_655 S
C1232 H1245 0.962 1_655 S
C1232 H1246 0.960 . S
C1233 C1230 1.511 . S
C1233 H1247 0.961 . S
C1233 H1248 0.961 1_655 S
C1233 H1249 0.961 . S
C1234 C1235 1.370 . S
C1234 C1236 1.363 . S
C1234 H1250 0.931 . S
C1235 C1234 1.370 . S
C1235 C1239 1.408 . S
C1236 C1234 1.363 . S
C1236 C1237 1.370 . S
C1236 C1240 1.524 . S
C1237 C1229 1.503 1_455 S
C1237 C1236 1.370 . S
C1237 C1238 1.403 . S
C1238 C1237 1.403 . S
C1238 C1239 1.404 . S
C1238 C1241 1.539 1_455 S
C1239 C1235 1.408 . S
C1239 C1238 1.404 . S
C1239 H1251 0.930 . S
C1240 C1236 1.524 . S
C1240 H1252 0.956 . S
C1240 H1253 0.961 . S
C1240 H1254 0.961 . S
C1241 C1238 1.539 1_655 S
C1241 H1255 0.958 . S
C1241 H1256 0.961 . S
C1241 H1257 0.960 . S
H1242 C1226 0.931 . S
H1243 C1231 0.929 . S
H1244 C1232 0.960 1_455 S
H1245 C1232 0.962 1_455 S
H1246 C1232 0.960 . S
H1247 C1233 0.961 . S
H1248 C1233 0.961 1_455 S
H1249 C1233 0.961 . S
H1250 C1234 0.931 . S
H1251 C1239 0.930 . S
H1252 C1240 0.956 . S
H1253 C1240 0.961 . S
H1254 C1240 0.961 . S
H1255 C1241 0.958 . S
H1256 C1241 0.961 . S
H1257 C1241 0.960 . S
C1258 C1259 1.391 . S
C1258 C1260 1.394 . S
C1258 H1274 0.931 . S
C1259 C1258 1.391 . S
C1259 C1263 1.376 . S
C1260 C1258 1.394 . S
C1260 C1261 1.369 . S
C1260 C1264 1.531 . S
C1261 C1260 1.369 . S
C1261 C1262 1.410 . S
C1261 C1269 1.503 . S
C1262 C1261 1.410 . S
C1262 C1263 1.392 . S
C1262 C1265 1.511 . S
C1263 C1259 1.376 . S
C1263 C1262 1.392 . S
C1263 H1275 0.929 . S
C1264 C1260 1.531 . S
C1264 H1276 0.960 . S
C1264 H1277 0.962 . S
C1264 H1278 0.960 . S
C1265 C1262 1.511 . S
C1265 H1279 0.961 . S
C1265 H1280 0.961 . S
C1265 H1281 0.961 . S
C1266 C1267 1.370 . S
C1266 C1268 1.363 . S
C1266 H1282 0.931 . S
C1267 C1266 1.370 . S
C1267 C1271 1.408 . S
C1268 C1266 1.363 . S
C1268 C1269 1.370 . S
C1268 C1272 1.524 . S
C1269 C1261 1.503 . S
C1269 C1268 1.370 . S
C1269 C1270 1.403 . S
C1270 C1269 1.403 . S
C1270 C1271 1.404 . S
C1270 C1273 1.539 . S
C1271 C1267 1.408 . S
C1271 C1270 1.404 . S
C1271 H1283 0.930 . S
C1272 C1268 1.524 . S
C1272 H1284 0.956 . S
C1272 H1285 0.961 . S
C1272 H1286 0.961 . S
C1273 C1270 1.539 . S
C1273 H1287 0.958 . S
C1273 H1288 0.961 . S
C1273 H1289 0.960 . S
H1274 C1258 0.931 . S
H1275 C1263 0.929 . S
H1276 C1264 0.960 . S
H1277 C1264 0.962 . S
H1278 C1264 0.960 . S
H1279 C1265 0.961 . S
H1280 C1265 0.961 . S
H1281 C1265 0.961 . S
H1282 C1266 0.931 . S
H1283 C1271 0.930 . S
H1284 C1272 0.956 . S
H1285 C1272 0.961 . S
H1286 C1272 0.961 . S
H1287 C1273 0.958 . S
H1288 C1273 0.961 . S
H1289 C1273 0.960 . S
C1290 C1291 1.391 . S
C1290 C1292 1.394 . S
C1290 H1306 0.931 . S
C1291 C1290 1.391 . S
C1291 C1295 1.376 . S
C1292 C1290 1.394 . S
C1292 C1293 1.369 . S
C1292 C1296 1.531 . S
C1293 C1292 1.369 . S
C1293 C1294 1.410 . S
C1293 C1301 1.503 . S
C1294 C1293 1.410 . S
C1294 C1295 1.392 . S
C1294 C1297 1.511 . S
C1295 C1291 1.376 . S
C1295 C1294 1.392 . S
C1295 H1307 0.929 . S
C1296 C1292 1.531 . S
C1296 H1308 0.960 . S
C1296 H1309 0.962 . S
C1296 H1310 0.960 . S
C1297 C1294 1.511 . S
C1297 H1311 0.961 . S
C1297 H1312 0.961 . S
C1297 H1313 0.961 . S
C1298 C1299 1.370 . S
C1298 C1300 1.363 . S
C1298 H1314 0.931 . S
C1299 C1298 1.370 . S
C1299 C1303 1.408 . S
C1300 C1298 1.363 . S
C1300 C1301 1.370 . S
C1300 C1304 1.524 . S
C1301 C1293 1.503 . S
C1301 C1300 1.370 . S
C1301 C1302 1.403 . S
C1302 C1301 1.403 . S
C1302 C1303 1.404 . S
C1302 C1305 1.539 . S
C1303 C1299 1.408 . S
C1303 C1302 1.404 . S
C1303 H1315 0.930 . S
C1304 C1300 1.524 . S
C1304 H1316 0.956 . S
C1304 H1317 0.961 . S
C1304 H1318 0.961 . S
C1305 C1302 1.539 . S
C1305 H1319 0.958 . S
C1305 H1320 0.961 . S
C1305 H1321 0.960 . S
H1306 C1290 0.931 . S
H1307 C1295 0.929 . S
H1308 C1296 0.960 . S
H1309 C1296 0.962 . S
H1310 C1296 0.960 . S
H1311 C1297 0.961 . S
H1312 C1297 0.961 . S
H1313 C1297 0.961 . S
H1314 C1298 0.931 . S
H1315 C1303 0.930 . S
H1316 C1304 0.956 . S
H1317 C1304 0.961 . S
H1318 C1304 0.961 . S
H1319 C1305 0.958 . S
H1320 C1305 0.961 . S
H1321 C1305 0.960 . S
C1322 C1323 1.391 . S
C1322 C1324 1.394 . S
C1322 H1338 0.931 . S
C1323 C1322 1.391 . S
C1323 C1327 1.376 . S
C1324 C1322 1.394 . S
C1324 C1325 1.369 . S
C1324 C1328 1.531 . S
C1325 C1324 1.369 . S
C1325 C1326 1.410 . S
C1325 C1333 1.503 . S
C1326 C1325 1.410 . S
C1326 C1327 1.392 . S
C1326 C1329 1.511 . S
C1327 C1323 1.376 . S
C1327 C1326 1.392 . S
C1327 H1339 0.929 . S
C1328 C1324 1.531 . S
C1328 H1340 0.960 . S
C1328 H1341 0.962 . S
C1328 H1342 0.960 . S
C1329 C1326 1.511 . S
C1329 H1343 0.961 . S
C1329 H1344 0.961 . S
C1329 H1345 0.961 . S
C1330 C1331 1.370 . S
C1330 C1332 1.363 . S
C1330 H1346 0.931 . S
C1331 C1330 1.370 . S
C1331 C1335 1.408 . S
C1332 C1330 1.363 . S
C1332 C1333 1.370 . S
C1332 C1336 1.524 . S
C1333 C1325 1.503 . S
C1333 C1332 1.370 . S
C1333 C1334 1.403 . S
C1334 C1333 1.403 . S
C1334 C1335 1.404 . S
C1334 C1337 1.539 . S
C1335 C1331 1.408 . S
C1335 C1334 1.404 . S
C1335 H1347 0.930 . S
C1336 C1332 1.524 . S
C1336 H1348 0.956 . S
C1336 H1349 0.961 . S
C1336 H1350 0.961 . S
C1337 C1334 1.539 . S
C1337 H1351 0.958 . S
C1337 H1352 0.961 . S
C1337 H1353 0.960 . S
H1338 C1322 0.931 . S
H1339 C1327 0.929 . S
H1340 C1328 0.960 . S
H1341 C1328 0.962 . S
H1342 C1328 0.960 . S
H1343 C1329 0.961 . S
H1344 C1329 0.961 . S
H1345 C1329 0.961 . S
H1346 C1330 0.931 . S
H1347 C1335 0.930 . S
H1348 C1336 0.956 . S
H1349 C1336 0.961 . S
H1350 C1336 0.961 . S
H1351 C1337 0.958 . S
H1352 C1337 0.961 . S
H1353 C1337 0.960 . S
C1354 C1355 1.391 . S
C1354 C1356 1.394 . S
C1354 H1370 0.931 . S
C1355 C1354 1.391 . S
C1355 C1359 1.376 . S
C1356 C1354 1.394 . S
C1356 C1357 1.369 . S
C1356 C1360 1.531 . S
C1357 C1356 1.369 . S
C1357 C1358 1.410 . S
C1357 C1365 1.503 . S
C1358 C1357 1.410 . S
C1358 C1359 1.392 . S
C1358 C1361 1.511 . S
C1359 C1355 1.376 . S
C1359 C1358 1.392 . S
C1359 H1371 0.929 . S
C1360 C1356 1.531 . S
C1360 H1372 0.960 . S
C1360 H1373 0.962 . S
C1360 H1374 0.960 . S
C1361 C1358 1.511 . S
C1361 H1375 0.961 . S
C1361 H1376 0.961 . S
C1361 H1377 0.961 . S
C1362 C1363 1.370 . S
C1362 C1364 1.363 . S
C1362 H1378 0.931 . S
C1363 C1362 1.370 . S
C1363 C1367 1.408 . S
C1364 C1362 1.363 . S
C1364 C1365 1.370 . S
C1364 C1368 1.524 . S
C1365 C1357 1.503 . S
C1365 C1364 1.370 . S
C1365 C1366 1.403 . S
C1366 C1365 1.403 . S
C1366 C1367 1.404 . S
C1366 C1369 1.539 . S
C1367 C1363 1.408 . S
C1367 C1366 1.404 . S
C1367 H1379 0.930 . S
C1368 C1364 1.524 . S
C1368 H1380 0.956 . S
C1368 H1381 0.961 . S
C1368 H1382 0.961 . S
C1369 C1366 1.539 . S
C1369 H1383 0.958 . S
C1369 H1384 0.961 . S
C1369 H1385 0.960 . S
H1370 C1354 0.931 . S
H1371 C1359 0.929 . S
H1372 C1360 0.960 . S
H1373 C1360 0.962 . S
H1374 C1360 0.960 . S
H1375 C1361 0.961 . S
H1376 C1361 0.961 . S
H1377 C1361 0.961 . S
H1378 C1362 0.931 . S
H1379 C1367 0.930 . S
H1380 C1368 0.956 . S
H1381 C1368 0.961 . S
H1382 C1368 0.961 . S
H1383 C1369 0.958 . S
H1384 C1369 0.961 . S
H1385 C1369 0.960 . S
C1386 C1387 1.391 . S
C1386 C1388 1.394 . S
C1386 H1402 0.931 . S
C1387 C1386 1.391 . S
C1387 C1391 1.376 . S
C1388 C1386 1.394 . S
C1388 C1389 1.369 . S
C1388 C1392 1.531 . S
C1389 C1388 1.369 . S
C1389 C1390 1.410 . S
C1389 C1397 1.503 1_565 S
C1390 C1389 1.410 . S
C1390 C1391 1.392 . S
C1390 C1393 1.511 . S
C1391 C1387 1.376 . S
C1391 C1390 1.392 . S
C1391 H1403 0.929 . S
C1392 C1388 1.531 . S
C1392 H1404 0.960 . S
C1392 H1405 0.962 . S
C1392 H1406 0.960 . S
C1393 C1390 1.511 . S
C1393 H1407 0.961 . S
C1393 H1408 0.961 1_565 S
C1393 H1409 0.961 . S
C1394 C1395 1.370 . S
C1394 C1396 1.363 . S
C1394 H1410 0.931 . S
C1395 C1394 1.370 . S
C1395 C1399 1.408 . S
C1396 C1394 1.363 . S
C1396 C1397 1.370 . S
C1396 C1400 1.524 . S
C1397 C1389 1.503 1_545 S
C1397 C1396 1.370 . S
C1397 C1398 1.403 . S
C1398 C1397 1.403 . S
C1398 C1399 1.404 . S
C1398 C1401 1.527 1_545 S
C1399 C1395 1.408 . S
C1399 C1398 1.404 . S
C1399 H1411 0.930 . S
C1400 C1396 1.524 . S
C1400 H1412 0.964 . S
C1400 H1413 0.961 . S
C1400 H1414 0.961 . S
C1401 C1398 1.527 1_565 S
C1401 H1415 0.962 . S
C1401 H1416 0.961 1_565 S
C1401 H1417 0.969 . S
H1402 C1386 0.931 . S
H1403 C1391 0.929 . S
H1404 C1392 0.960 . S
H1405 C1392 0.962 . S
H1406 C1392 0.960 . S
H1407 C1393 0.961 . S
H1408 C1393 0.961 1_545 S
H1409 C1393 0.961 . S
H1410 C1394 0.931 . S
H1411 C1399 0.930 . S
H1412 C1400 0.964 . S
H1413 C1400 0.961 . S
H1414 C1400 0.961 . S
H1415 C1401 0.962 . S
H1416 C1401 0.961 1_545 S
H1417 C1401 0.969 . S
C1418 C1419 1.391 . S
C1418 C1420 1.394 . S
C1418 H1434 0.931 . S
C1419 C1418 1.391 . S
C1419 C1423 1.376 . S
C1420 C1418 1.394 . S
C1420 C1421 1.369 . S
C1420 C1424 1.531 1_455 S
C1421 C1420 1.369 . S
C1421 C1422 1.410 . S
C1421 C1429 1.503 1_455 S
C1422 C1421 1.410 . S
C1422 C1423 1.392 . S
C1422 C1425 1.511 . S
C1423 C1419 1.376 . S
C1423 C1422 1.392 . S
C1423 H1435 0.929 . S
C1424 C1420 1.531 1_655 S
C1424 H1436 0.960 . S
C1424 H1437 0.962 . S
C1424 H1438 0.960 . S
C1425 C1422 1.511 . S
C1425 H1439 0.961 . S
C1425 H1440 0.961 . S
C1425 H1441 0.961 . S
C1426 C1427 1.370 . S
C1426 C1428 1.363 . S
C1426 H1442 0.931 . S
C1427 C1426 1.370 . S
C1427 C1431 1.408 . S
C1428 C1426 1.363 . S
C1428 C1429 1.370 . S
C1428 C1432 1.524 . S
C1429 C1421 1.503 1_655 S
C1429 C1428 1.370 . S
C1429 C1430 1.403 . S
C1430 C1429 1.403 . S
C1430 C1431 1.404 . S
C1430 C1433 1.539 . S
C1431 C1427 1.408 . S
C1431 C1430 1.404 . S
C1431 H1443 0.930 . S
C1432 C1428 1.524 . S
C1432 H1444 0.956 . S
C1432 H1445 0.961 . S
C1432 H1446 0.961 . S
C1433 C1430 1.539 . S
C1433 H1447 0.958 . S
C1433 H1448 0.961 . S
C1433 H1449 0.960 1_655 S
H1434 C1418 0.931 . S
H1435 C1423 0.929 . S
H1436 C1424 0.960 . S
H1437 C1424 0.962 . S
H1438 C1424 0.960 . S
H1439 C1425 0.961 . S
H1440 C1425 0.961 . S
H1441 C1425 0.961 . S
H1442 C1426 0.931 . S
H1443 C1431 0.930 . S
H1444 C1432 0.956 . S
H1445 C1432 0.961 . S
H1446 C1432 0.961 . S
H1447 C1433 0.958 . S
H1448 C1433 0.961 . S
H1449 C1433 0.960 1_455 S
C1450 C1451 1.391 . S
C1450 C1452 1.394 . S
C1450 H1466 0.931 . S
C1451 C1450 1.391 . S
C1451 C1455 1.376 . S
C1452 C1450 1.394 . S
C1452 C1453 1.369 . S
C1452 C1456 1.531 . S
C1453 C1452 1.369 . S
C1453 C1454 1.410 . S
C1453 C1461 1.503 . S
C1454 C1453 1.410 . S
C1454 C1455 1.392 . S
C1454 C1457 1.511 . S
C1455 C1451 1.376 . S
C1455 C1454 1.392 . S
C1455 H1467 0.929 . S
C1456 C1452 1.531 . S
C1456 H1468 0.960 . S
C1456 H1469 0.962 . S
C1456 H1470 0.960 . S
C1457 C1454 1.511 . S
C1457 H1471 0.961 . S
C1457 H1472 0.961 . S
C1457 H1473 0.961 . S
C1458 C1459 1.370 . S
C1458 C1460 1.363 . S
C1458 H1474 0.931 . S
C1459 C1458 1.370 . S
C1459 C1463 1.408 . S
C1460 C1458 1.363 . S
C1460 C1461 1.370 . S
C1460 C1464 1.524 . S
C1461 C1453 1.503 . S
C1461 C1460 1.370 . S
C1461 C1462 1.403 . S
C1462 C1461 1.403 . S
C1462 C1463 1.404 . S
C1462 C1465 1.539 . S
C1463 C1459 1.408 . S
C1463 C1462 1.404 . S
C1463 H1475 0.930 . S
C1464 C1460 1.524 . S
C1464 H1476 0.956 . S
C1464 H1477 0.961 . S
C1464 H1478 0.961 . S
C1465 C1462 1.539 . S
C1465 H1479 0.958 . S
C1465 H1480 0.961 . S
C1465 H1481 0.960 . S
H1466 C1450 0.931 . S
H1467 C1455 0.929 . S
H1468 C1456 0.960 . S
H1469 C1456 0.962 . S
H1470 C1456 0.960 . S
H1471 C1457 0.961 . S
H1472 C1457 0.961 . S
H1473 C1457 0.961 . S
H1474 C1458 0.931 . S
H1475 C1463 0.930 . S
H1476 C1464 0.956 . S
H1477 C1464 0.961 . S
H1478 C1464 0.961 . S
H1479 C1465 0.958 . S
H1480 C1465 0.961 . S
H1481 C1465 0.960 . S
C1482 C1483 1.391 . S
C1482 C1484 1.394 . S
C1482 H1498 0.931 . S
C1483 C1482 1.391 . S
C1483 C1487 1.376 . S
C1484 C1482 1.394 . S
C1484 C1485 1.369 . S
C1484 C1488 1.531 . S
C1485 C1484 1.369 . S
C1485 C1486 1.410 . S
C1485 C1493 1.503 1_455 S
C1486 C1485 1.410 . S
C1486 C1487 1.392 . S
C1486 C1489 1.511 . S
C1487 C1483 1.376 . S
C1487 C1486 1.392 . S
C1487 H1499 0.929 . S
C1488 C1484 1.531 . S
C1488 H1500 0.960 . S
C1488 H1501 0.962 . S
C1488 H1502 0.960 . S
C1489 C1486 1.511 . S
C1489 H1503 0.961 . S
C1489 H1504 0.961 1_455 S
C1489 H1505 0.961 . S
C1490 C1491 1.370 . S
C1490 C1492 1.363 . S
C1490 H1506 0.931 . S
C1491 C1490 1.370 . S
C1491 C1495 1.408 . S
C1492 C1490 1.363 . S
C1492 C1493 1.370 . S
C1492 C1496 1.524 . S
C1493 C1485 1.503 1_655 S
C1493 C1492 1.370 . S
C1493 C1494 1.403 . S
C1494 C1493 1.403 . S
C1494 C1495 1.404 . S
C1494 C1497 1.539 1_655 S
C1495 C1491 1.408 . S
C1495 C1494 1.404 . S
C1495 H1507 0.930 . S
C1496 C1492 1.524 . S
C1496 H1508 0.956 . S
C1496 H1509 0.961 . S
C1496 H1510 0.961 . S
C1497 C1494 1.539 1_455 S
C1497 H1511 0.958 . S
C1497 H1512 0.961 . S
C1497 H1513 0.960 . S
H1498 C1482 0.931 . S
H1499 C1487 0.929 . S
H1500 C1488 0.960 . S
H1501 C1488 0.962 . S
H1502 C1488 0.960 . S
H1503 C1489 0.961 . S
H1504 C1489 0.961 1_655 S
H1505 C1489 0.961 . S
H1506 C1490 0.931 . S
H1507 C1495 0.930 . S
H1508 C1496 0.956 . S
H1509 C1496 0.961 . S
H1510 C1496 0.961 . S
H1511 C1497 0.958 . S
H1512 C1497 0.961 . S
H1513 C1497 0.960 . S
C1514 C1515 1.391 . S
C1514 C1516 1.394 . S
C1514 H1530 0.931 . S
C1515 C1514 1.391 . S
C1515 C1519 1.376 . S
C1516 C1514 1.394 . S
C1516 C1517 1.369 . S
C1516 C1520 1.531 . S
C1517 C1516 1.369 . S
C1517 C1518 1.410 . S
C1517 C1525 1.503 . S
C1518 C1517 1.410 . S
C1518 C1519 1.392 . S
C1518 C1521 1.511 . S
C1519 C1515 1.376 . S
C1519 C1518 1.392 . S
C1519 H1531 0.929 . S
C1520 C1516 1.531 . S
C1520 H1532 0.960 . S
C1520 H1533 0.962 . S
C1520 H1534 0.960 . S
C1521 C1518 1.511 . S
C1521 H1535 0.961 . S
C1521 H1536 0.961 . S
C1521 H1537 0.961 . S
C1522 C1523 1.370 . S
C1522 C1524 1.363 . S
C1522 H1538 0.931 . S
C1523 C1522 1.370 . S
C1523 C1527 1.408 . S
C1524 C1522 1.363 . S
C1524 C1525 1.370 . S
C1524 C1528 1.524 . S
C1525 C1517 1.503 . S
C1525 C1524 1.370 . S
C1525 C1526 1.403 . S
C1526 C1525 1.403 . S
C1526 C1527 1.404 . S
C1526 C1529 1.539 . S
C1527 C1523 1.408 . S
C1527 C1526 1.404 . S
C1527 H1539 0.930 . S
C1528 C1524 1.524 . S
C1528 H1540 0.956 . S
C1528 H1541 0.961 . S
C1528 H1542 0.961 . S
C1529 C1526 1.539 . S
C1529 H1543 0.958 . S
C1529 H1544 0.961 . S
C1529 H1545 0.960 . S
H1530 C1514 0.931 . S
H1531 C1519 0.929 . S
H1532 C1520 0.960 . S
H1533 C1520 0.962 . S
H1534 C1520 0.960 . S
H1535 C1521 0.961 . S
H1536 C1521 0.961 . S
H1537 C1521 0.961 . S
H1538 C1522 0.931 . S
H1539 C1527 0.930 . S
H1540 C1528 0.956 . S
H1541 C1528 0.961 . S
H1542 C1528 0.961 . S
H1543 C1529 0.958 . S
H1544 C1529 0.961 . S
H1545 C1529 0.960 . S
C1546 C1547 1.391 . S
C1546 C1548 1.394 . S
C1546 H1562 0.931 . S
C1547 C1546 1.391 . S
C1547 C1551 1.376 . S
C1548 C1546 1.394 . S
C1548 C1549 1.369 . S
C1548 C1552 1.531 . S
C1549 C1548 1.369 . S
C1549 C1550 1.410 . S
C1549 C1557 1.503 1_565 S
C1550 C1549 1.410 . S
C1550 C1551 1.392 . S
C1550 C1553 1.511 . S
C1551 C1547 1.376 . S
C1551 C1550 1.392 . S
C1551 H1563 0.929 . S
C1552 C1548 1.531 . S
C1552 H1564 0.960 . S
C1552 H1565 0.962 . S
C1552 H1566 0.960 . S
C1553 C1550 1.511 . S
C1553 H1567 0.961 . S
C1553 H1568 0.920 1_565 S
C1553 H1569 0.961 . S
C1554 C1555 1.370 . S
C1554 C1556 1.363 . S
C1554 H1570 0.931 . S
C1555 C1554 1.370 . S
C1555 C1559 1.408 . S
C1556 C1554 1.363 . S
C1556 C1557 1.370 . S
C1556 C1560 1.524 1_545 S
C1557 C1549 1.503 1_545 S
C1557 C1556 1.370 . S
C1557 C1558 1.403 . S
C1558 C1557 1.403 . S
C1558 C1559 1.404 . S
C1558 C1561 1.539 . S
C1559 C1555 1.408 . S
C1559 C1558 1.404 . S
C1559 H1571 0.930 . S
C1560 C1556 1.524 1_565 S
C1560 H1572 0.956 . S
C1560 H1573 0.961 . S
C1560 H1574 0.961 1_565 S
C1561 C1558 1.539 . S
C1561 H1575 0.958 . S
C1561 H1576 0.961 . S
C1561 H1577 0.960 1_545 S
H1562 C1546 0.931 . S
H1563 C1551 0.929 . S
H1564 C1552 0.960 . S
H1565 C1552 0.962 . S
H1566 C1552 0.960 . S
H1567 C1553 0.961 . S
H1568 C1553 0.920 1_545 S
H1569 C1553 0.961 . S
H1570 C1554 0.931 . S
H1571 C1559 0.930 . S
H1572 C1560 0.956 . S
H1573 C1560 0.961 . S
H1574 C1560 0.961 1_545 S
H1575 C1561 0.958 . S
H1576 C1561 0.961 . S
H1577 C1561 0.960 1_565 S
C1578 C1579 1.391 . S
C1578 C1580 1.394 . S
C1578 H1594 0.931 . S
C1579 C1578 1.391 . S
C1579 C1583 1.376 . S
C1580 C1578 1.394 . S
C1580 C1581 1.369 . S
C1580 C1584 1.531 . S
C1581 C1580 1.369 . S
C1581 C1582 1.410 . S
C1581 C1589 1.503 . S
C1582 C1581 1.410 . S
C1582 C1583 1.392 . S
C1582 C1585 1.511 . S
C1583 C1579 1.376 . S
C1583 C1582 1.392 . S
C1583 H1595 0.929 . S
C1584 C1580 1.531 . S
C1584 H1596 0.960 . S
C1584 H1597 0.962 . S
C1584 H1598 0.960 . S
C1585 C1582 1.511 . S
C1585 H1599 0.961 . S
C1585 H1600 0.961 . S
C1585 H1601 0.961 . S
C1586 C1587 1.370 . S
C1586 C1588 1.363 . S
C1586 H1602 0.931 . S
C1587 C1586 1.370 . S
C1587 C1591 1.408 . S
C1588 C1586 1.363 . S
C1588 C1589 1.370 . S
C1588 C1592 1.524 . S
C1589 C1581 1.503 . S
C1589 C1588 1.370 . S
C1589 C1590 1.403 . S
C1590 C1589 1.403 . S
C1590 C1591 1.404 . S
C1590 C1593 1.539 . S
C1591 C1587 1.408 . S
C1591 C1590 1.404 . S
C1591 H1603 0.930 . S
C1592 C1588 1.524 . S
C1592 H1604 0.956 . S
C1592 H1605 0.961 . S
C1592 H1606 0.961 . S
C1593 C1590 1.539 . S
C1593 H1607 0.958 . S
C1593 H1608 0.961 . S
C1593 H1609 0.960 . S
H1594 C1578 0.931 . S
H1595 C1583 0.929 . S
H1596 C1584 0.960 . S
H1597 C1584 0.962 . S
H1598 C1584 0.960 . S
H1599 C1585 0.961 . S
H1600 C1585 0.961 . S
H1601 C1585 0.961 . S
H1602 C1586 0.931 . S
H1603 C1591 0.930 . S
H1604 C1592 0.956 . S
H1605 C1592 0.961 . S
H1606 C1592 0.961 . S
H1607 C1593 0.958 . S
H1608 C1593 0.961 . S
H1609 C1593 0.960 . S
C1610 C1611 1.391 . S
C1610 C1612 1.394 . S
C1610 H1626 0.931 . S
C1611 C1610 1.391 . S
C1611 C1615 1.376 . S
C1612 C1610 1.394 . S
C1612 C1613 1.369 . S
C1612 C1616 1.531 . S
C1613 C1612 1.369 . S
C1613 C1614 1.410 . S
C1613 C1621 1.503 . S
C1614 C1613 1.410 . S
C1614 C1615 1.392 . S
C1614 C1617 1.511 . S
C1615 C1611 1.376 . S
C1615 C1614 1.392 . S
C1615 H1627 0.929 . S
C1616 C1612 1.531 . S
C1616 H1628 0.960 . S
C1616 H1629 0.962 . S
C1616 H1630 0.960 . S
C1617 C1614 1.511 . S
C1617 H1631 0.961 . S
C1617 H1632 0.961 . S
C1617 H1633 0.961 . S
C1618 C1619 1.370 . S
C1618 C1620 1.363 . S
C1618 H1634 0.931 . S
C1619 C1618 1.370 . S
C1619 C1623 1.408 . S
C1620 C1618 1.363 . S
C1620 C1621 1.370 . S
C1620 C1624 1.524 . S
C1621 C1613 1.503 . S
C1621 C1620 1.370 . S
C1621 C1622 1.403 . S
C1622 C1621 1.403 . S
C1622 C1623 1.404 . S
C1622 C1625 1.539 . S
C1623 C1619 1.408 . S
C1623 C1622 1.404 . S
C1623 H1635 0.930 . S
C1624 C1620 1.524 . S
C1624 H1636 0.956 . S
C1624 H1637 0.961 . S
C1624 H1638 0.961 . S
C1625 C1622 1.539 . S
C1625 H1639 0.958 . S
C1625 H1640 0.961 . S
C1625 H1641 0.960 . S
H1626 C1610 0.931 . S
H1627 C1615 0.929 . S
H1628 C1616 0.960 . S
H1629 C1616 0.962 . S
H1630 C1616 0.960 . S
H1631 C1617 0.961 . S
H1632 C1617 0.961 . S
H1633 C1617 0.961 . S
H1634 C1618 0.931 . S
H1635 C1623 0.930 . S
H1636 C1624 0.956 . S
H1637 C1624 0.961 . S
H1638 C1624 0.961 . S
H1639 C1625 0.958 . S
H1640 C1625 0.961 . S
H1641 C1625 0.960 . S
C1642 C1643 1.391 . S
C1642 C1644 1.394 . S
C1642 H1658 0.931 . S
C1643 C1642 1.391 . S
C1643 C1647 1.376 . S
C1644 C1642 1.394 . S
C1644 C1645 1.369 . S
C1644 C1648 1.531 . S
C1645 C1644 1.369 . S
C1645 C1646 1.410 . S
C1645 C1653 1.503 . S
C1646 C1645 1.410 . S
C1646 C1647 1.392 . S
C1646 C1649 1.511 . S
C1647 C1643 1.376 . S
C1647 C1646 1.392 . S
C1647 H1659 0.929 . S
C1648 C1644 1.531 . S
C1648 H1660 0.960 . S
C1648 H1661 0.962 . S
C1648 H1662 0.960 . S
C1649 C1646 1.511 . S
C1649 H1663 0.961 . S
C1649 H1664 0.961 . S
C1649 H1665 0.961 . S
C1650 C1651 1.370 . S
C1650 C1652 1.363 . S
C1650 H1666 0.931 . S
C1651 C1650 1.370 . S
C1651 C1655 1.408 . S
C1652 C1650 1.363 . S
C1652 C1653 1.370 . S
C1652 C1656 1.524 . S
C1653 C1645 1.503 . S
C1653 C1652 1.370 . S
C1653 C1654 1.403 . S
C1654 C1653 1.403 . S
C1654 C1655 1.404 . S
C1654 C1657 1.539 . S
C1655 C1651 1.408 . S
C1655 C1654 1.404 . S
C1655 H1667 0.930 . S
C1656 C1652 1.524 . S
C1656 H1668 0.956 . S
C1656 H1669 0.961 . S
C1656 H1670 0.961 . S
C1657 C1654 1.539 . S
C1657 H1671 0.958 . S
C1657 H1672 0.961 . S
C1657 H1673 0.960 . S
H1658 C1642 0.931 . S
H1659 C1647 0.929 . S
H1660 C1648 0.960 . S
H1661 C1648 0.962 . S
H1662 C1648 0.960 . S
H1663 C1649 0.961 . S
H1664 C1649 0.961 . S
H1665 C1649 0.961 . S
H1666 C1650 0.931 . S
H1667 C1655 0.930 . S
H1668 C1656 0.956 . S
H1669 C1656 0.961 . S
H1670 C1656 0.961 . S
H1671 C1657 0.958 . S
H1672 C1657 0.961 . S
H1673 C1657 0.960 . S
C1674 C1675 1.391 . S
C1674 C1676 1.394 . S
C1674 H1690 0.931 . S
C1675 C1674 1.391 . S
C1675 C1679 1.376 . S
C1676 C1674 1.394 . S
C1676 C1677 1.369 . S
C1676 C1680 1.531 1_565 S
C1677 C1676 1.369 . S
C1677 C1678 1.410 . S
C1677 C1685 1.503 . S
C1678 C1677 1.410 . S
C1678 C1679 1.392 . S
C1678 C1681 1.511 . S
C1679 C1675 1.376 . S
C1679 C1678 1.392 . S
C1679 H1691 0.929 . S
C1680 C1676 1.531 1_545 S
C1680 H1692 0.960 . S
C1680 H1693 0.962 1_545 S
C1680 H1694 0.960 . S
C1681 C1678 1.511 . S
C1681 H1695 0.961 . S
C1681 H1696 0.961 . S
C1681 H1697 0.961 . S
C1682 C1683 1.370 . S
C1682 C1684 1.363 . S
C1682 H1698 0.931 . S
C1683 C1682 1.370 . S
C1683 C1687 1.408 1_565 S
C1684 C1682 1.363 . S
C1684 C1685 1.370 . S
C1684 C1688 1.524 . S
C1685 C1677 1.503 . S
C1685 C1684 1.370 . S
C1685 C1686 1.403 1_565 S
C1686 C1685 1.403 1_545 S
C1686 C1687 1.404 . S
C1686 C1689 1.539 . S
C1687 C1683 1.408 1_545 S
C1687 C1686 1.404 . S
C1687 H1699 0.930 . S
C1688 C1684 1.524 . S
C1688 H1700 0.956 . S
C1688 H1701 0.961 . S
C1688 H1702 0.961 . S
C1689 C1686 1.539 . S
C1689 H1703 0.958 . S
C1689 H1704 0.961 . S
C1689 H1705 0.960 . S
H1690 C1674 0.931 . S
H1691 C1679 0.929 . S
H1692 C1680 0.960 . S
H1693 C1680 0.962 1_565 S
H1694 C1680 0.960 . S
H1695 C1681 0.961 . S
H1696 C1681 0.961 . S
H1697 C1681 0.961 . S
H1698 C1682 0.931 . S
H1699 C1687 0.930 . S
H1700 C1688 0.956 . S
H1701 C1688 0.961 . S
H1702 C1688 0.961 . S
H1703 C1689 0.958 . S
H1704 C1689 0.961 . S
H1705 C1689 0.960 . S
C1706 C1707 1.391 . S
C1706 C1708 1.394 . S
C1706 H1722 0.931 . S
C1707 C1706 1.391 . S
C1707 C1711 1.376 . S
C1708 C1706 1.394 . S
C1708 C1709 1.369 . S
C1708 C1712 1.531 . S
C1709 C1708 1.369 . S
C1709 C1710 1.410 1_455 S
C1709 C1717 1.503 . S
C1710 C1709 1.410 1_655 S
C1710 C1711 1.392 1_655 S
C1710 C1713 1.511 . S
C1711 C1707 1.376 . S
C1711 C1710 1.392 1_455 S
C1711 H1723 0.929 1_455 S
C1712 C1708 1.531 . S
C1712 H1724 0.960 . S
C1712 H1725 0.962 . S
C1712 H1726 0.960 . S
C1713 C1710 1.511 . S
C1713 H1727 0.961 . S
C1713 H1728 0.961 . S
C1713 H1729 0.961 . S
C1714 C1715 1.370 . S
C1714 C1716 1.363 . S
C1714 H1730 0.931 . S
C1715 C1714 1.370 . S
C1715 C1719 1.408 1_455 S
C1716 C1714 1.363 . S
C1716 C1717 1.370 . S
C1716 C1720 1.524 . S
C1717 C1709 1.503 . S
C1717 C1716 1.370 . S
C1717 C1718 1.403 1_455 S
C1718 C1717 1.403 1_655 S
C1718 C1719 1.404 . S
C1718 C1721 1.539 . S
C1719 C1715 1.408 1_655 S
C1719 C1718 1.404 . S
C1719 H1731 0.930 . S
C1720 C1716 1.524 . S
C1720 H1732 0.956 . S
C1720 H1733 0.961 . S
C1720 H1734 0.961 . S
C1721 C1718 1.539 . S
C1721 H1735 0.958 . S
C1721 H1736 0.961 . S
C1721 H1737 0.960 . S
H1722 C1706 0.931 . S
H1723 C1711 0.929 1_655 S
H1724 C1712 0.960 . S
H1725 C1712 0.962 . S
H1726 C1712 0.960 . S
H1727 C1713 0.961 . S
H1728 C1713 0.961 . S
H1729 C1713 0.961 . S
H1730 C1714 0.931 . S
H1731 C1719 0.930 . S
H1732 C1720 0.956 . S
H1733 C1720 0.961 . S
H1734 C1720 0.961 . S
H1735 C1721 0.958 . S
H1736 C1721 0.961 . S
H1737 C1721 0.960 . S
C1738 C1739 1.391 . S
C1738 C1740 1.394 . S
C1738 H1754 0.931 . S
C1739 C1738 1.391 . S
C1739 C1743 1.376 . S
C1740 C1738 1.394 . S
C1740 C1741 1.369 . S
C1740 C1744 1.531 . S
C1741 C1740 1.369 . S
C1741 C1742 1.410 . S
C1741 C1749 1.503 . S
C1742 C1741 1.410 . S
C1742 C1743 1.392 . S
C1742 C1745 1.511 . S
C1743 C1739 1.376 . S
C1743 C1742 1.392 . S
C1743 H1755 0.929 . S
C1744 C1740 1.531 . S
C1744 H1756 0.960 . S
C1744 H1757 0.962 . S
C1744 H1758 0.960 . S
C1745 C1742 1.511 . S
C1745 H1759 0.961 . S
C1745 H1760 0.961 . S
C1745 H1761 0.961 . S
C1746 C1747 1.370 . S
C1746 C1748 1.363 . S
C1746 H1762 0.931 . S
C1747 C1746 1.370 . S
C1747 C1751 1.408 . S
C1748 C1746 1.363 . S
C1748 C1749 1.370 . S
C1748 C1752 1.524 . S
C1749 C1741 1.503 . S
C1749 C1748 1.370 . S
C1749 C1750 1.403 . S
C1750 C1749 1.403 . S
C1750 C1751 1.404 . S
C1750 C1753 1.539 . S
C1751 C1747 1.408 . S
C1751 C1750 1.404 . S
C1751 H1763 0.930 . S
C1752 C1748 1.524 . S
C1752 H1764 0.956 . S
C1752 H1765 0.961 . S
C1752 H1766 0.961 . S
C1753 C1750 1.539 . S
C1753 H1767 0.958 . S
C1753 H1768 0.961 . S
C1753 H1769 0.960 . S
H1754 C1738 0.931 . S
H1755 C1743 0.929 . S
H1756 C1744 0.960 . S
H1757 C1744 0.962 . S
H1758 C1744 0.960 . S
H1759 C1745 0.961 . S
H1760 C1745 0.961 . S
H1761 C1745 0.961 . S
H1762 C1746 0.931 . S
H1763 C1751 0.930 . S
H1764 C1752 0.956 . S
H1765 C1752 0.961 . S
H1766 C1752 0.961 . S
H1767 C1753 0.958 . S
H1768 C1753 0.961 . S
H1769 C1753 0.960 . S
C1770 C1771 1.391 . S
C1770 C1772 1.394 . S
C1770 H1786 0.931 . S
C1771 C1770 1.391 . S
C1771 C1775 1.376 1_655 S
C1772 C1770 1.394 . S
C1772 C1773 1.369 . S
C1772 C1776 1.531 . S
C1773 C1772 1.369 . S
C1773 C1774 1.410 1_655 S
C1773 C1781 1.503 . S
C1774 C1773 1.410 1_455 S
C1774 C1775 1.392 . S
C1774 C1777 1.511 . S
C1775 C1771 1.376 1_455 S
C1775 C1774 1.392 . S
C1775 H1787 0.929 . S
C1776 C1772 1.531 . S
C1776 H1788 0.960 . S
C1776 H1789 0.962 . S
C1776 H1790 0.960 . S
C1777 C1774 1.511 . S
C1777 H1791 0.961 . S
C1777 H1792 0.961 . S
C1777 H1793 0.961 . S
C1778 C1779 1.370 . S
C1778 C1780 1.363 . S
C1778 H1794 0.931 . S
C1779 C1778 1.370 . S
C1779 C1783 1.408 . S
C1780 C1778 1.363 . S
C1780 C1781 1.370 . S
C1780 C1784 1.524 . S
C1781 C1773 1.503 . S
C1781 C1780 1.370 . S
C1781 C1782 1.403 . S
C1782 C1781 1.403 . S
C1782 C1783 1.404 . S
C1782 C1785 1.539 . S
C1783 C1779 1.408 . S
C1783 C1782 1.404 . S
C1783 H1795 0.930 . S
C1784 C1780 1.524 . S
C1784 H1796 0.956 . S
C1784 H1797 0.961 . S
C1784 H1798 0.961 . S
C1785 C1782 1.539 . S
C1785 H1799 0.958 . S
C1785 H1800 0.961 1_655 S
C1785 H1801 0.959 1_655 S
H1786 C1770 0.931 . S
H1787 C1775 0.929 . S
H1788 C1776 0.960 . S
H1789 C1776 0.962 . S
H1790 C1776 0.960 . S
H1791 C1777 0.961 . S
H1792 C1777 0.961 . S
H1793 C1777 0.961 . S
H1794 C1778 0.931 . S
H1795 C1783 0.930 . S
H1796 C1784 0.956 . S
H1797 C1784 0.961 . S
H1798 C1784 0.961 . S
H1799 C1785 0.958 . S
H1800 C1785 0.961 1_455 S
H1801 C1785 0.959 1_455 S
C1802 C1803 1.391 . S
C1802 C1804 1.394 . S
C1802 H1818 0.931 . S
C1803 C1802 1.391 . S
C1803 C1807 1.376 . S
C1804 C1802 1.394 . S
C1804 C1805 1.369 . S
C1804 C1808 1.531 . S
C1805 C1804 1.369 . S
C1805 C1806 1.410 . S
C1805 C1813 1.503 . S
C1806 C1805 1.410 . S
C1806 C1807 1.392 . S
C1806 C1809 1.511 . S
C1807 C1803 1.376 . S
C1807 C1806 1.392 . S
C1807 H1819 0.929 . S
C1808 C1804 1.531 . S
C1808 H1820 0.960 . S
C1808 H1821 0.962 . S
C1808 H1822 0.960 . S
C1809 C1806 1.511 . S
C1809 H1823 0.961 . S
C1809 H1824 0.961 . S
C1809 H1825 0.961 . S
C1810 C1811 1.370 . S
C1810 C1812 1.363 . S
C1810 H1826 0.931 . S
C1811 C1810 1.370 . S
C1811 C1815 1.408 . S
C1812 C1810 1.363 . S
C1812 C1813 1.370 . S
C1812 C1816 1.524 . S
C1813 C1805 1.503 . S
C1813 C1812 1.370 . S
C1813 C1814 1.403 . S
C1814 C1813 1.403 . S
C1814 C1815 1.404 . S
C1814 C1817 1.539 . S
C1815 C1811 1.408 . S
C1815 C1814 1.404 . S
C1815 H1827 0.930 . S
C1816 C1812 1.524 . S
C1816 H1828 0.956 . S
C1816 H1829 0.961 . S
C1816 H1830 0.961 . S
C1817 C1814 1.539 . S
C1817 H1831 0.958 . S
C1817 H1832 0.961 . S
C1817 H1833 0.960 . S
H1818 C1802 0.931 . S
H1819 C1807 0.929 . S
H1820 C1808 0.960 . S
H1821 C1808 0.962 . S
H1822 C1808 0.960 . S
H1823 C1809 0.961 . S
H1824 C1809 0.961 . S
H1825 C1809 0.961 . S
H1826 C1810 0.931 . S
H1827 C1815 0.930 . S
H1828 C1816 0.956 . S
H1829 C1816 0.961 . S
H1830 C1816 0.961 . S
H1831 C1817 0.958 . S
H1832 C1817 0.961 . S
H1833 C1817 0.960 . S
C1834 C1835 1.391 . S
C1834 C1836 1.394 . S
C1834 H1850 0.931 . S
C1835 C1834 1.391 . S
C1835 C1839 1.376 . S
C1836 C1834 1.394 . S
C1836 C1837 1.369 . S
C1836 C1840 1.531 . S
C1837 C1836 1.369 . S
C1837 C1838 1.410 . S
C1837 C1845 1.503 . S
C1838 C1837 1.410 . S
C1838 C1839 1.392 . S
C1838 C1841 1.511 . S
C1839 C1835 1.376 . S
C1839 C1838 1.392 . S
C1839 H1851 0.929 . S
C1840 C1836 1.531 . S
C1840 H1852 0.960 . S
C1840 H1853 0.962 . S
C1840 H1854 0.960 . S
C1841 C1838 1.511 . S
C1841 H1855 0.961 . S
C1841 H1856 0.961 . S
C1841 H1857 0.961 . S
C1842 C1843 1.370 1_565 S
C1842 C1844 1.363 1_565 S
C1842 H1858 0.931 . S
C1843 C1842 1.370 1_545 S
C1843 C1847 1.408 . S
C1844 C1842 1.363 1_545 S
C1844 C1845 1.370 . S
C1844 C1848 1.524 1_545 S
C1845 C1837 1.503 . S
C1845 C1844 1.370 . S
C1845 C1846 1.403 . S
C1846 C1845 1.403 . S
C1846 C1847 1.404 . S
C1846 C1849 1.539 . S
C1847 C1843 1.408 . S
C1847 C1846 1.404 . S
C1847 H1859 0.930 . S
C1848 C1844 1.524 1_565 S
C1848 H1860 0.956 . S
C1848 H1861 0.961 . S
C1848 H1862 0.961 . S
C1849 C1846 1.539 . S
C1849 H1863 0.958 . S
C1849 H1864 0.961 . S
C1849 H1865 0.960 . S
H1850 C1834 0.931 . S
H1851 C1839 0.929 . S
H1852 C1840 0.960 . S
H1853 C1840 0.962 . S
H1854 C1840 0.960 . S
H1855 C1841 0.961 . S
H1856 C1841 0.961 . S
H1857 C1841 0.961 . S
H1858 C1842 0.931 . S
H1859 C1847 0.930 . S
H1860 C1848 0.956 . S
H1861 C1848 0.961 . S
H1862 C1848 0.961 . S
H1863 C1849 0.958 . S
H1864 C1849 0.961 . S
H1865 C1849 0.960 . S
C1866 C1867 1.391 . S
C1866 C1868 1.394 . S
C1866 H1882 0.931 . S
C1867 C1866 1.391 . S
C1867 C1871 1.376 . S
C1868 C1866 1.394 . S
C1868 C1869 1.369 . S
C1868 C1872 1.531 . S
C1869 C1868 1.369 . S
C1869 C1870 1.410 . S
C1869 C1877 1.503 . S
C1870 C1869 1.410 . S
C1870 C1871 1.392 . S
C1870 C1873 1.511 . S
C1871 C1867 1.376 . S
C1871 C1870 1.392 . S
C1871 H1883 0.929 . S
C1872 C1868 1.531 . S
C1872 H1884 0.960 . S
C1872 H1885 0.962 . S
C1872 H1886 0.960 . S
C1873 C1870 1.511 . S
C1873 H1887 0.961 . S
C1873 H1888 0.961 . S
C1873 H1889 0.961 . S
C1874 C1875 1.370 . S
C1874 C1876 1.363 . S
C1874 H1890 0.931 . S
C1875 C1874 1.370 . S
C1875 C1879 1.408 . S
C1876 C1874 1.363 . S
C1876 C1877 1.370 . S
C1876 C1880 1.524 . S
C1877 C1869 1.503 . S
C1877 C1876 1.370 . S
C1877 C1878 1.403 . S
C1878 C1877 1.403 . S
C1878 C1879 1.404 . S
C1878 C1881 1.539 . S
C1879 C1875 1.408 . S
C1879 C1878 1.404 . S
C1879 H1891 0.930 . S
C1880 C1876 1.524 . S
C1880 H1892 0.956 . S
C1880 H1893 0.961 . S
C1880 H1894 0.961 . S
C1881 C1878 1.539 . S
C1881 H1895 0.958 . S
C1881 H1896 0.961 . S
C1881 H1897 0.960 . S
H1882 C1866 0.931 . S
H1883 C1871 0.929 . S
H1884 C1872 0.960 . S
H1885 C1872 0.962 . S
H1886 C1872 0.960 . S
H1887 C1873 0.961 . S
H1888 C1873 0.961 . S
H1889 C1873 0.961 . S
H1890 C1874 0.931 . S
H1891 C1879 0.930 . S
H1892 C1880 0.956 . S
H1893 C1880 0.961 . S
H1894 C1880 0.961 . S
H1895 C1881 0.958 . S
H1896 C1881 0.961 . S
H1897 C1881 0.960 . S
C1898 C1899 1.391 . S
C1898 C1900 1.394 . S
C1898 H1914 0.931 . S
C1899 C1898 1.391 . S
C1899 C1903 1.376 . S
C1900 C1898 1.394 . S
C1900 C1901 1.369 . S
C1900 C1904 1.531 . S
C1901 C1900 1.369 . S
C1901 C1902 1.410 . S
C1901 C1909 1.503 . S
C1902 C1901 1.410 . S
C1902 C1903 1.392 . S
C1902 C1905 1.511 . S
C1903 C1899 1.376 . S
C1903 C1902 1.392 . S
C1903 H1915 0.929 . S
C1904 C1900 1.531 . S
C1904 H1916 0.960 . S
C1904 H1917 0.962 . S
C1904 H1918 0.960 . S
C1905 C1902 1.511 . S
C1905 H1919 0.961 . S
C1905 H1920 0.961 . S
C1905 H1921 0.961 . S
C1906 C1907 1.370 . S
C1906 C1908 1.363 . S
C1906 H1922 0.931 . S
C1907 C1906 1.370 . S
C1907 C1911 1.408 . S
C1908 C1906 1.363 . S
C1908 C1909 1.370 . S
C1908 C1912 1.524 . S
C1909 C1901 1.503 . S
C1909 C1908 1.370 . S
C1909 C1910 1.403 . S
C1910 C1909 1.403 . S
C1910 C1911 1.404 . S
C1910 C1913 1.539 . S
C1911 C1907 1.408 . S
C1911 C1910 1.404 . S
C1911 H1923 0.930 . S
C1912 C1908 1.524 . S
C1912 H1924 0.956 . S
C1912 H1925 0.961 . S
C1912 H1926 0.961 . S
C1913 C1910 1.539 . S
C1913 H1927 0.958 . S
C1913 H1928 0.961 . S
C1913 H1929 0.960 . S
H1914 C1898 0.931 . S
H1915 C1903 0.929 . S
H1916 C1904 0.960 . S
H1917 C1904 0.962 . S
H1918 C1904 0.960 . S
H1919 C1905 0.961 . S
H1920 C1905 0.961 . S
H1921 C1905 0.961 . S
H1922 C1906 0.931 . S
H1923 C1911 0.930 . S
H1924 C1912 0.956 . S
H1925 C1912 0.961 . S
H1926 C1912 0.961 . S
H1927 C1913 0.958 . S
H1928 C1913 0.961 . S
H1929 C1913 0.960 . S
C1930 C1931 1.391 . S
C1930 C1932 1.394 . S
C1930 H1946 0.931 . S
C1931 C1930 1.391 . S
C1931 C1935 1.376 . S
C1932 C1930 1.394 . S
C1932 C1933 1.369 . S
C1932 C1936 1.531 . S
C1933 C1932 1.369 . S
C1933 C1934 1.410 . S
C1933 C1941 1.503 . S
C1934 C1933 1.410 . S
C1934 C1935 1.392 . S
C1934 C1937 1.511 . S
C1935 C1931 1.376 . S
C1935 C1934 1.392 . S
C1935 H1947 0.929 . S
C1936 C1932 1.531 . S
C1936 H1948 0.960 . S
C1936 H1949 0.962 . S
C1936 H1950 0.960 . S
C1937 C1934 1.511 . S
C1937 H1951 0.961 . S
C1937 H1952 0.961 . S
C1937 H1953 0.961 . S
C1938 C1939 1.370 . S
C1938 C1940 1.363 . S
C1938 H1954 0.931 . S
C1939 C1938 1.370 . S
C1939 C1943 1.408 . S
C1940 C1938 1.363 . S
C1940 C1941 1.370 . S
C1940 C1944 1.524 . S
C1941 C1933 1.503 . S
C1941 C1940 1.370 . S
C1941 C1942 1.403 . S
C1942 C1941 1.403 . S
C1942 C1943 1.404 . S
C1942 C1945 1.539 . S
C1943 C1939 1.408 . S
C1943 C1942 1.404 . S
C1943 H1955 0.930 . S
C1944 C1940 1.524 . S
C1944 H1956 0.956 . S
C1944 H1957 0.961 . S
C1944 H1958 0.961 . S
C1945 C1942 1.539 . S
C1945 H1959 0.958 . S
C1945 H1960 0.961 . S
C1945 H1961 0.960 . S
H1946 C1930 0.931 . S
H1947 C1935 0.929 . S
H1948 C1936 0.960 . S
H1949 C1936 0.962 . S
H1950 C1936 0.960 . S
H1951 C1937 0.961 . S
H1952 C1937 0.961 . S
H1953 C1937 0.961 . S
H1954 C1938 0.931 . S
H1955 C1943 0.930 . S
H1956 C1944 0.956 . S
H1957 C1944 0.961 . S
H1958 C1944 0.961 . S
H1959 C1945 0.958 . S
H1960 C1945 0.961 . S
H1961 C1945 0.960 . S
C1962 C1963 1.391 . S
C1962 C1964 1.394 . S
C1962 H1978 0.931 . S
C1963 C1962 1.391 . S
C1963 C1967 1.376 . S
C1964 C1962 1.394 . S
C1964 C1965 1.369 . S
C1964 C1968 1.531 . S
C1965 C1964 1.369 . S
C1965 C1966 1.410 . S
C1965 C1973 1.503 . S
C1966 C1965 1.410 . S
C1966 C1967 1.392 . S
C1966 C1969 1.511 . S
C1967 C1963 1.376 . S
C1967 C1966 1.392 . S
C1967 H1979 0.929 . S
C1968 C1964 1.531 . S
C1968 H1980 0.960 . S
C1968 H1981 0.962 . S
C1968 H1982 0.960 . S
C1969 C1966 1.511 . S
C1969 H1983 0.961 . S
C1969 H1984 0.961 . S
C1969 H1985 0.961 . S
C1970 C1971 1.370 . S
C1970 C1972 1.363 . S
C1970 H1986 0.931 . S
C1971 C1970 1.370 . S
C1971 C1975 1.408 . S
C1972 C1970 1.363 . S
C1972 C1973 1.370 . S
C1972 C1976 1.524 . S
C1973 C1965 1.503 . S
C1973 C1972 1.370 . S
C1973 C1974 1.403 . S
C1974 C1973 1.403 . S
C1974 C1975 1.404 . S
C1974 C1977 1.539 . S
C1975 C1971 1.408 . S
C1975 C1974 1.404 . S
C1975 H1987 0.930 . S
C1976 C1972 1.524 . S
C1976 H1988 0.956 . S
C1976 H1989 0.961 . S
C1976 H1990 0.961 . S
C1977 C1974 1.539 . S
C1977 H1991 0.958 . S
C1977 H1992 0.961 . S
C1977 H1993 0.960 . S
H1978 C1962 0.931 . S
H1979 C1967 0.929 . S
H1980 C1968 0.960 . S
H1981 C1968 0.962 . S
H1982 C1968 0.960 . S
H1983 C1969 0.961 . S
H1984 C1969 0.961 . S
H1985 C1969 0.961 . S
H1986 C1970 0.931 . S
H1987 C1975 0.930 . S
H1988 C1976 0.956 . S
H1989 C1976 0.961 . S
H1990 C1976 0.961 . S
H1991 C1977 0.958 . S
H1992 C1977 0.961 . S
H1993 C1977 0.960 . S
C1994 C1995 1.391 . S
C1994 C1996 1.394 . S
C1994 H2010 0.931 . S
C1995 C1994 1.391 . S
C1995 C1999 1.376 . S
C1996 C1994 1.394 . S
C1996 C1997 1.369 . S
C1996 C2000 1.531 . S
C1997 C1996 1.369 . S
C1997 C1998 1.410 . S
C1997 C2005 1.503 . S
C1998 C1997 1.410 . S
C1998 C1999 1.392 . S
C1998 C2001 1.511 . S
C1999 C1995 1.376 . S
C1999 C1998 1.392 . S
C1999 H2011 0.929 . S
C2000 C1996 1.531 . S
C2000 H2012 0.960 . S
C2000 H2013 0.962 . S
C2000 H2014 0.960 . S
C2001 C1998 1.511 . S
C2001 H2015 0.961 . S
C2001 H2016 0.961 . S
C2001 H2017 0.961 . S
C2002 C2003 1.370 . S
C2002 C2004 1.363 . S
C2002 H2018 0.931 . S
C2003 C2002 1.370 . S
C2003 C2007 1.408 . S
C2004 C2002 1.363 . S
C2004 C2005 1.370 . S
C2004 C2008 1.524 . S
C2005 C1997 1.503 . S
C2005 C2004 1.370 . S
C2005 C2006 1.403 . S
C2006 C2005 1.403 . S
C2006 C2007 1.404 . S
C2006 C2009 1.539 . S
C2007 C2003 1.408 . S
C2007 C2006 1.404 . S
C2007 H2019 0.930 . S
C2008 C2004 1.524 . S
C2008 H2020 0.956 . S
C2008 H2021 0.961 . S
C2008 H2022 0.961 . S
C2009 C2006 1.539 . S
C2009 H2023 0.958 . S
C2009 H2024 0.961 . S
C2009 H2025 0.960 . S
H2010 C1994 0.931 . S
H2011 C1999 0.929 . S
H2012 C2000 0.960 . S
H2013 C2000 0.962 . S
H2014 C2000 0.960 . S
H2015 C2001 0.961 . S
H2016 C2001 0.961 . S
H2017 C2001 0.961 . S
H2018 C2002 0.931 . S
H2019 C2007 0.930 . S
H2020 C2008 0.956 . S
H2021 C2008 0.961 . S
H2022 C2008 0.961 . S
H2023 C2009 0.958 . S
H2024 C2009 0.961 . S
H2025 C2009 0.960 . S
C2026 C2027 1.391 . S
C2026 C2028 1.394 . S
C2026 H2042 0.931 . S
C2027 C2026 1.391 . S
C2027 C2031 1.376 . S
C2028 C2026 1.394 . S
C2028 C2029 1.369 . S
C2028 C2032 1.531 . S
C2029 C2028 1.369 . S
C2029 C2030 1.410 . S
C2029 C2037 1.503 . S
C2030 C2029 1.410 . S
C2030 C2031 1.392 . S
C2030 C2033 1.511 . S
C2031 C2027 1.376 . S
C2031 C2030 1.392 . S
C2031 H2043 0.929 . S
C2032 C2028 1.531 . S
C2032 H2044 0.960 . S
C2032 H2045 0.962 . S
C2032 H2046 0.960 . S
C2033 C2030 1.511 . S
C2033 H2047 0.961 . S
C2033 H2048 0.961 . S
C2033 H2049 0.961 . S
C2034 C2035 1.370 . S
C2034 C2036 1.363 . S
C2034 H2050 0.931 . S
C2035 C2034 1.370 . S
C2035 C2039 1.408 . S
C2036 C2034 1.363 . S
C2036 C2037 1.370 . S
C2036 C2040 1.524 . S
C2037 C2029 1.503 . S
C2037 C2036 1.370 . S
C2037 C2038 1.403 . S
C2038 C2037 1.403 . S
C2038 C2039 1.404 . S
C2038 C2041 1.539 . S
C2039 C2035 1.408 . S
C2039 C2038 1.404 . S
C2039 H2051 0.930 . S
C2040 C2036 1.524 . S
C2040 H2052 0.956 . S
C2040 H2053 0.961 . S
C2040 H2054 0.961 . S
C2041 C2038 1.539 . S
C2041 H2055 0.958 . S
C2041 H2056 0.961 . S
C2041 H2057 0.960 . S
H2042 C2026 0.931 . S
H2043 C2031 0.929 . S
H2044 C2032 0.960 . S
H2045 C2032 0.962 . S
H2046 C2032 0.960 . S
H2047 C2033 0.961 . S
H2048 C2033 0.961 . S
H2049 C2033 0.961 . S
H2050 C2034 0.931 . S
H2051 C2039 0.930 . S
H2052 C2040 0.956 . S
H2053 C2040 0.961 . S
H2054 C2040 0.961 . S
H2055 C2041 0.958 . S
H2056 C2041 0.961 . S
H2057 C2041 0.960 . S
C2058 C2059 1.391 . S
C2058 C2060 1.394 . S
C2058 H2074 0.931 . S
C2059 C2058 1.391 . S
C2059 C2063 1.376 . S
C2060 C2058 1.394 . S
C2060 C2061 1.369 . S
C2060 C2064 1.531 . S
C2061 C2060 1.369 . S
C2061 C2062 1.410 . S
C2061 C2069 1.503 . S
C2062 C2061 1.410 . S
C2062 C2063 1.392 . S
C2062 C2065 1.511 . S
C2063 C2059 1.376 . S
C2063 C2062 1.392 . S
C2063 H2075 0.929 . S
C2064 C2060 1.531 . S
C2064 H2076 0.960 . S
C2064 H2077 0.962 . S
C2064 H2078 0.960 . S
C2065 C2062 1.511 . S
C2065 H2079 0.961 . S
C2065 H2080 0.961 . S
C2065 H2081 0.961 . S
C2066 C2067 1.370 . S
C2066 C2068 1.363 . S
C2066 H2082 0.931 . S
C2067 C2066 1.370 . S
C2067 C2071 1.408 . S
C2068 C2066 1.363 . S
C2068 C2069 1.370 . S
C2068 C2072 1.524 . S
C2069 C2061 1.503 . S
C2069 C2068 1.370 . S
C2069 C2070 1.403 . S
C2070 C2069 1.403 . S
C2070 C2071 1.404 . S
C2070 C2073 1.539 . S
C2071 C2067 1.408 . S
C2071 C2070 1.404 . S
C2071 H2083 0.930 . S
C2072 C2068 1.524 . S
C2072 H2084 0.956 . S
C2072 H2085 0.961 . S
C2072 H2086 0.961 . S
C2073 C2070 1.539 . S
C2073 H2087 0.958 . S
C2073 H2088 0.961 . S
C2073 H2089 0.960 . S
H2074 C2058 0.931 . S
H2075 C2063 0.929 . S
H2076 C2064 0.960 . S
H2077 C2064 0.962 . S
H2078 C2064 0.960 . S
H2079 C2065 0.961 . S
H2080 C2065 0.961 . S
H2081 C2065 0.961 . S
H2082 C2066 0.931 . S
H2083 C2071 0.930 . S
H2084 C2072 0.956 . S
H2085 C2072 0.961 . S
H2086 C2072 0.961 . S
H2087 C2073 0.958 . S
H2088 C2073 0.961 . S
H2089 C2073 0.960 . S
C2090 C2091 1.391 . S
C2090 C2092 1.394 . S
C2090 H2106 0.931 . S
C2091 C2090 1.391 . S
C2091 C2095 1.376 . S
C2092 C2090 1.394 . S
C2092 C2093 1.369 . S
C2092 C2096 1.531 . S
C2093 C2092 1.369 . S
C2093 C2094 1.410 . S
C2093 C2101 1.503 . S
C2094 C2093 1.410 . S
C2094 C2095 1.392 . S
C2094 C2097 1.511 . S
C2095 C2091 1.376 . S
C2095 C2094 1.392 . S
C2095 H2107 0.929 . S
C2096 C2092 1.531 . S
C2096 H2108 0.960 . S
C2096 H2109 0.962 . S
C2096 H2110 0.960 . S
C2097 C2094 1.511 . S
C2097 H2111 0.961 . S
C2097 H2112 0.961 . S
C2097 H2113 0.961 . S
C2098 C2099 1.370 . S
C2098 C2100 1.363 . S
C2098 H2114 0.931 . S
C2099 C2098 1.370 . S
C2099 C2103 1.408 . S
C2100 C2098 1.363 . S
C2100 C2101 1.370 . S
C2100 C2104 1.524 . S
C2101 C2093 1.503 . S
C2101 C2100 1.370 . S
C2101 C2102 1.403 . S
C2102 C2101 1.403 . S
C2102 C2103 1.404 . S
C2102 C2105 1.539 . S
C2103 C2099 1.408 . S
C2103 C2102 1.404 . S
C2103 H2115 0.930 . S
C2104 C2100 1.524 . S
C2104 H2116 0.956 . S
C2104 H2117 0.961 . S
C2104 H2118 0.961 . S
C2105 C2102 1.539 . S
C2105 H2119 0.958 . S
C2105 H2120 0.961 . S
C2105 H2121 0.960 . S
H2106 C2090 0.931 . S
H2107 C2095 0.929 . S
H2108 C2096 0.960 . S
H2109 C2096 0.962 . S
H2110 C2096 0.960 . S
H2111 C2097 0.961 . S
H2112 C2097 0.961 . S
H2113 C2097 0.961 . S
H2114 C2098 0.931 . S
H2115 C2103 0.930 . S
H2116 C2104 0.956 . S
H2117 C2104 0.961 . S
H2118 C2104 0.961 . S
H2119 C2105 0.958 . S
H2120 C2105 0.961 . S
H2121 C2105 0.960 . S
C2122 C2123 1.391 . S
C2122 C2124 1.394 . S
C2122 H2138 0.931 . S
C2123 C2122 1.391 . S
C2123 C2127 1.376 . S
C2124 C2122 1.394 . S
C2124 C2125 1.369 . S
C2124 C2128 1.531 . S
C2125 C2124 1.369 . S
C2125 C2126 1.410 . S
C2125 C2133 1.503 . S
C2126 C2125 1.410 . S
C2126 C2127 1.392 . S
C2126 C2129 1.511 . S
C2127 C2123 1.376 . S
C2127 C2126 1.392 . S
C2127 H2139 0.929 . S
C2128 C2124 1.531 . S
C2128 H2140 0.960 . S
C2128 H2141 0.962 . S
C2128 H2142 0.960 . S
C2129 C2126 1.511 . S
C2129 H2143 0.961 . S
C2129 H2144 0.961 . S
C2129 H2145 0.961 . S
C2130 C2131 1.370 . S
C2130 C2132 1.363 . S
C2130 H2146 0.931 . S
C2131 C2130 1.370 . S
C2131 C2135 1.408 . S
C2132 C2130 1.363 . S
C2132 C2133 1.370 . S
C2132 C2136 1.524 . S
C2133 C2125 1.503 . S
C2133 C2132 1.370 . S
C2133 C2134 1.403 . S
C2134 C2133 1.403 . S
C2134 C2135 1.404 . S
C2134 C2137 1.539 . S
C2135 C2131 1.408 . S
C2135 C2134 1.404 . S
C2135 H2147 0.930 . S
C2136 C2132 1.524 . S
C2136 H2148 0.956 . S
C2136 H2149 0.961 . S
C2136 H2150 0.961 . S
C2137 C2134 1.539 . S
C2137 H2151 0.958 . S
C2137 H2152 0.961 . S
C2137 H2153 0.960 . S
H2138 C2122 0.931 . S
H2139 C2127 0.929 . S
H2140 C2128 0.960 . S
H2141 C2128 0.962 . S
H2142 C2128 0.960 . S
H2143 C2129 0.961 . S
H2144 C2129 0.961 . S
H2145 C2129 0.961 . S
H2146 C2130 0.931 . S
H2147 C2135 0.930 . S
H2148 C2136 0.956 . S
H2149 C2136 0.961 . S
H2150 C2136 0.961 . S
H2151 C2137 0.958 . S
H2152 C2137 0.961 . S
H2153 C2137 0.960 . S
C2154 C2155 1.391 . S
C2154 C2156 1.394 . S
C2154 H2170 0.931 . S
C2155 C2154 1.391 . S
C2155 C2159 1.376 . S
C2156 C2154 1.394 . S
C2156 C2157 1.369 . S
C2156 C2160 1.531 . S
C2157 C2156 1.369 . S
C2157 C2158 1.410 . S
C2157 C2165 1.503 . S
C2158 C2157 1.410 . S
C2158 C2159 1.392 . S
C2158 C2161 1.511 . S
C2159 C2155 1.376 . S
C2159 C2158 1.392 . S
C2159 H2171 0.929 . S
C2160 C2156 1.531 . S
C2160 H2172 0.960 . S
C2160 H2173 0.962 . S
C2160 H2174 0.960 . S
C2161 C2158 1.511 . S
C2161 H2175 0.961 . S
C2161 H2176 0.961 . S
C2161 H2177 0.961 . S
C2162 C2163 1.370 . S
C2162 C2164 1.363 . S
C2162 H2178 0.931 . S
C2163 C2162 1.370 . S
C2163 C2167 1.408 . S
C2164 C2162 1.363 . S
C2164 C2165 1.370 . S
C2164 C2168 1.524 . S
C2165 C2157 1.503 . S
C2165 C2164 1.370 . S
C2165 C2166 1.403 . S
C2166 C2165 1.403 . S
C2166 C2167 1.404 . S
C2166 C2169 1.539 . S
C2167 C2163 1.408 . S
C2167 C2166 1.404 . S
C2167 H2179 0.930 . S
C2168 C2164 1.524 . S
C2168 H2180 0.956 . S
C2168 H2181 0.961 . S
C2168 H2182 0.961 . S
C2169 C2166 1.539 . S
C2169 H2183 0.958 . S
C2169 H2184 0.961 . S
C2169 H2185 0.960 . S
H2170 C2154 0.931 . S
H2171 C2159 0.929 . S
H2172 C2160 0.960 . S
H2173 C2160 0.962 . S
H2174 C2160 0.960 . S
H2175 C2161 0.961 . S
H2176 C2161 0.961 . S
H2177 C2161 0.961 . S
H2178 C2162 0.931 . S
H2179 C2167 0.930 . S
H2180 C2168 0.956 . S
H2181 C2168 0.961 . S
H2182 C2168 0.961 . S
H2183 C2169 0.958 . S
H2184 C2169 0.961 . S
H2185 C2169 0.960 . S
C2186 C2187 1.391 . S
C2186 C2188 1.394 . S
C2186 H2202 0.931 . S
C2187 C2186 1.391 . S
C2187 C2191 1.376 . S
C2188 C2186 1.394 . S
C2188 C2189 1.369 . S
C2188 C2192 1.531 . S
C2189 C2188 1.369 . S
C2189 C2190 1.410 . S
C2189 C2197 1.503 . S
C2190 C2189 1.410 . S
C2190 C2191 1.392 . S
C2190 C2193 1.511 . S
C2191 C2187 1.376 . S
C2191 C2190 1.392 . S
C2191 H2203 0.929 . S
C2192 C2188 1.531 . S
C2192 H2204 0.960 . S
C2192 H2205 0.962 . S
C2192 H2206 0.960 . S
C2193 C2190 1.511 . S
C2193 H2207 0.961 . S
C2193 H2208 0.961 . S
C2193 H2209 0.961 . S
C2194 C2195 1.370 . S
C2194 C2196 1.363 . S
C2194 H2210 0.931 . S
C2195 C2194 1.370 . S
C2195 C2199 1.408 . S
C2196 C2194 1.363 . S
C2196 C2197 1.370 . S
C2196 C2200 1.524 . S
C2197 C2189 1.503 . S
C2197 C2196 1.370 . S
C2197 C2198 1.403 . S
C2198 C2197 1.403 . S
C2198 C2199 1.404 . S
C2198 C2201 1.539 . S
C2199 C2195 1.408 . S
C2199 C2198 1.404 . S
C2199 H2211 0.930 . S
C2200 C2196 1.524 . S
C2200 H2212 0.956 . S
C2200 H2213 0.961 . S
C2200 H2214 0.961 . S
C2201 C2198 1.539 . S
C2201 H2215 0.958 . S
C2201 H2216 0.961 . S
C2201 H2217 0.960 . S
H2202 C2186 0.931 . S
H2203 C2191 0.929 . S
H2204 C2192 0.960 . S
H2205 C2192 0.962 . S
H2206 C2192 0.960 . S
H2207 C2193 0.961 . S
H2208 C2193 0.961 . S
H2209 C2193 0.961 . S
H2210 C2194 0.931 . S
H2211 C2199 0.930 . S
H2212 C2200 0.956 . S
H2213 C2200 0.961 . S
H2214 C2200 0.961 . S
H2215 C2201 0.958 . S
H2216 C2201 0.961 . S
H2217 C2201 0.960 . S
C2218 C2219 1.391 . S
C2218 C2220 1.394 . S
C2218 H2234 0.931 . S
C2219 C2218 1.391 . S
C2219 C2223 1.376 . S
C2220 C2218 1.394 . S
C2220 C2221 1.369 . S
C2220 C2224 1.531 . S
C2221 C2220 1.369 . S
C2221 C2222 1.410 . S
C2221 C2229 1.503 . S
C2222 C2221 1.410 . S
C2222 C2223 1.392 . S
C2222 C2225 1.511 . S
C2223 C2219 1.376 . S
C2223 C2222 1.392 . S
C2223 H2235 0.929 . S
C2224 C2220 1.531 . S
C2224 H2236 0.960 . S
C2224 H2237 0.962 . S
C2224 H2238 0.960 . S
C2225 C2222 1.511 . S
C2225 H2239 0.961 . S
C2225 H2240 0.961 . S
C2225 H2241 0.961 . S
C2226 C2227 1.370 . S
C2226 C2228 1.363 . S
C2226 H2242 0.931 . S
C2227 C2226 1.370 . S
C2227 C2231 1.408 . S
C2228 C2226 1.363 . S
C2228 C2229 1.370 . S
C2228 C2232 1.524 . S
C2229 C2221 1.503 . S
C2229 C2228 1.370 . S
C2229 C2230 1.403 . S
C2230 C2229 1.403 . S
C2230 C2231 1.404 . S
C2230 C2233 1.539 . S
C2231 C2227 1.408 . S
C2231 C2230 1.404 . S
C2231 H2243 0.930 . S
C2232 C2228 1.524 . S
C2232 H2244 0.956 . S
C2232 H2245 0.961 . S
C2232 H2246 0.961 . S
C2233 C2230 1.539 . S
C2233 H2247 0.958 . S
C2233 H2248 0.961 . S
C2233 H2249 0.960 . S
H2234 C2218 0.931 . S
H2235 C2223 0.929 . S
H2236 C2224 0.960 . S
H2237 C2224 0.962 . S
H2238 C2224 0.960 . S
H2239 C2225 0.961 . S
H2240 C2225 0.961 . S
H2241 C2225 0.961 . S
H2242 C2226 0.931 . S
H2243 C2231 0.930 . S
H2244 C2232 0.956 . S
H2245 C2232 0.961 . S
H2246 C2232 0.961 . S
H2247 C2233 0.958 . S
H2248 C2233 0.961 . S
H2249 C2233 0.960 . S
C523 C124 1.553 . S
C531 C165 1.573 . S
C555 C130 1.732 . S
C563 C205 1.727 . S
C587 C115 1.588 . S
C595 C257 1.571 . S
C619 C106 1.457 . S
C627 C217 1.479 . S
C659 C245 1.454 . S
C651 C85 1.459 . S
C683 C97 1.326 . S
C691 C177 1.313 . S
C723 C184 1.599 . S
C715 C103 1.561 . S
C755 C224 1.705 . S
C747 C88 1.698 . S
C779 C94 1.580 . S
C787 C244 1.565 . S
C811 C121 1.478 . S
C819 C204 1.476 . S
C843 C133 1.413 . S
C851 C264 1.433 . S
C883 C164 1.340 . S
C875 C112 1.304 . S
C915 C285 1.569 . S
C907 C16 1.568 . S
C939 C22 1.730 . S
C947 C325 1.728 . S
C971 C7 1.588 . S
C979 C377 1.573 . S
C1003 C160 1.455 . S
C1011 C337 1.474 . S
C1035 C139 1.429 . S
C1043 C365 1.459 . S
C1067 C151 1.293 . S
C1075 C297 1.325 . S
C1099 C157 1.571 . S
C1107 C304 1.597 . S
C1131 C142 1.706 . S
C1139 C344 1.704 . S
C1171 C364 1.566 . S
C1163 C148 1.568 . S
C1195 C13 1.473 . S
C1203 C324 1.477 . S
C1235 C384 1.431 . S
C1227 C25 1.425 . S
C1259 C4 1.335 . S
C1267 C284 1.343 . S
C1299 C405 1.574 . S
C1291 C70 1.545 . S
C1323 C76 1.721 . S
C1331 C445 1.732 . S
C1363 C497 1.576 . S
C1355 C61 1.546 . S
C1395 C457 1.473 . S
C1387 C52 1.490 . S
C1427 C485 1.457 . S
C1419 C31 1.433 . S
C1451 C43 1.321 . S
C1459 C417 1.311 . S
C1483 C49 1.582 . S
C1491 C424 1.594 . S
C1515 C34 1.708 . S
C1523 C464 1.704 . S
C1555 C484 1.570 . S
C1547 C40 1.556 . S
C1579 C67 1.480 . S
C1587 C444 1.462 . S
C1611 C79 1.429 . S
C1619 C504 1.430 . S
C1643 C58 1.302 . S
C1651 C404 1.346 . S
C1675 C140 1.397 . S
C1683 C188 1.379 . S
C1715 C228 1.724 . S
C1707 C149 1.740 . S
C1739 C158 1.545 . S
C1747 C251 1.548 . S
C1771 C59 1.757 . S
C1779 C211 1.737 . S
C1803 C68 1.522 . S
C1811 C268 1.521 . S
C1843 C171 1.379 . S
C1835 C77 1.392 . S
C1867 C32 1.396 . S
C1875 C308 1.384 . S
C1899 C41 1.733 . S
C1907 C348 1.723 . S
C1931 C50 1.539 . S
C1939 C371 1.540 . S
C1963 C113 1.756 . S
C1971 C331 1.738 . S
C2003 C388 1.522 . S
C1995 C122 1.530 . S
C2027 C131 1.393 . S
C2035 C291 1.389 . S
C2059 C86 1.394 . S
C2067 C428 1.391 . S
C2091 C95 1.742 . S
C2099 C468 1.723 . S
C2131 C491 1.540 . S
C2123 C104 1.543 . S
C2155 C5 1.757 . S
C2163 C451 1.748 . S
C2187 C14 1.516 . S
C2195 C508 1.526 . S
C2219 C23 1.393 . S
C2227 C411 1.378 . S
