# Generated by pormake.
# Topology pyr, (3,6)-cn, num edge types: 1
# Building blocks:
#     Node 0, Type 0, BuildingBlock: ESEHIV_clean_linker_0, # of connection points: 3
#     Node 1, Type 0, BuildingBlock: ESEHIV_clean_linker_0, # of connection points: 3
#     Node 2, Type 0, BuildingBlock: ESEHIV_clean_linker_0, # of connection points: 3
#     Node 3, Type 0, BuildingBlock: ESEHIV_clean_linker_0, # of connection points: 3
#     Node 4, Type 0, BuildingBlock: ESEHIV_clean_linker_0, # of connection points: 3
#     Node 5, Type 0, BuildingBlock: ESEHIV_clean_linker_0, # of connection points: 3
#     Node 6, Type 0, BuildingBlock: ESEHIV_clean_linker_0, # of connection points: 3
#     Node 7, Type 0, BuildingBlock: ESEHIV_clean_linker_0, # of connection points: 3
#     Node 8, Type 1, BuildingBlock: FUNLAD_clean_sbu_0, # of connection points: 6
#     Node 9, Type 1, BuildingBlock: FUNLAD_clean_sbu_0, # of connection points: 6
#     Node 10, Type 1, BuildingBlock: FUNLAD_clean_sbu_0, # of connection points: 6
#     Node 11, Type 1, BuildingBlock: FUNLAD_clean_sbu_0, # of connection points: 6
#     Edge 12, Type (0, 1), BuildingBlock: OJICUG_clean_linker_0, # of connection points: 2
#     Edge 13, Type (0, 1), BuildingBlock: OJICUG_clean_linker_0, # of connection points: 2
#     Edge 14, Type (0, 1), BuildingBlock: OJICUG_clean_linker_0, # of connection points: 2
#     Edge 15, Type (0, 1), BuildingBlock: OJICUG_clean_linker_0, # of connection points: 2
#     Edge 16, Type (0, 1), BuildingBlock: OJICUG_clean_linker_0, # of connection points: 2
#     Edge 17, Type (0, 1), BuildingBlock: OJICUG_clean_linker_0, # of connection points: 2
#     Edge 18, Type (0, 1), BuildingBlock: OJICUG_clean_linker_0, # of connection points: 2
#     Edge 19, Type (0, 1), BuildingBlock: OJICUG_clean_linker_0, # of connection points: 2
#     Edge 20, Type (0, 1), BuildingBlock: OJICUG_clean_linker_0, # of connection points: 2
#     Edge 21, Type (0, 1), BuildingBlock: OJICUG_clean_linker_0, # of connection points: 2
#     Edge 22, Type (0, 1), BuildingBlock: OJICUG_clean_linker_0, # of connection points: 2
#     Edge 23, Type (0, 1), BuildingBlock: OJICUG_clean_linker_0, # of connection points: 2
#     Edge 24, Type (0, 1), BuildingBlock: OJICUG_clean_linker_0, # of connection points: 2
#     Edge 25, Type (0, 1), BuildingBlock: OJICUG_clean_linker_0, # of connection points: 2
#     Edge 26, Type (0, 1), BuildingBlock: OJICUG_clean_linker_0, # of connection points: 2
#     Edge 27, Type (0, 1), BuildingBlock: OJICUG_clean_linker_0, # of connection points: 2
#     Edge 28, Type (0, 1), BuildingBlock: OJICUG_clean_linker_0, # of connection points: 2
#     Edge 29, Type (0, 1), BuildingBlock: OJICUG_clean_linker_0, # of connection points: 2
#     Edge 30, Type (0, 1), BuildingBlock: OJICUG_clean_linker_0, # of connection points: 2
#     Edge 31, Type (0, 1), BuildingBlock: OJICUG_clean_linker_0, # of connection points: 2
#     Edge 32, Type (0, 1), BuildingBlock: OJICUG_clean_linker_0, # of connection points: 2
#     Edge 33, Type (0, 1), BuildingBlock: OJICUG_clean_linker_0, # of connection points: 2
#     Edge 34, Type (0, 1), BuildingBlock: OJICUG_clean_linker_0, # of connection points: 2
#     Edge 35, Type (0, 1), BuildingBlock: OJICUG_clean_linker_0, # of connection points: 2
# Relax obj value: 0.162
# Max RMSD: 0.089
# Mean RMSD: 0.048
data_MOF--net-pry--node1-FUNLAD_clean_sbu_0--node2-ESEHIV_clean_linker_0--edge1-OJICUG_clean_linker_0
_symmetry_space_group_name_H-M    P1
_symmetry_Int_Tables_number       1
_symmetry_cell_setting            triclinic
loop_
_symmetry_equiv_pos_as_xyz
'x, y, z'
_cell_length_a     23.733841
_cell_length_b     25.88399
_cell_length_c     25.713541
_cell_angle_alpha  90.200876
_cell_angle_beta   90.090064
_cell_angle_gamma 81.441792
loop_
_atom_site_label
_atom_site_type_symbol
_atom_site_fract_x
_atom_site_fract_y
_atom_site_fract_z
_atom_type_partial_charge
H0 H 0.04999 0.22861 0.24602 0.0
H1 H 0.18947 0.10072 0.23848 0.0
H2 H 0.17199 0.21996 0.12156 0.0
C3 C 0.08779 0.2087 0.22697 0.0
C4 C 0.10743 0.23026 0.18062 0.0
C5 C 0.11603 0.16041 0.24756 0.0
C6 C 0.16584 0.13592 0.22207 0.0
C7 C 0.18707 0.15766 0.17721 0.0
C8 C 0.15657 0.20375 0.15664 0.0
H9 H 0.32974 0.96377 0.7371 0.0
H10 H 0.47322 0.83966 0.74108 0.0
H11 H 0.35076 0.84726 0.61671 0.0
C12 C 0.35442 0.92951 0.71967 0.0
C13 C 0.33391 0.90807 0.67413 0.0
C14 C 0.40493 0.90583 0.7445 0.0
C15 C 0.4348 0.85888 0.7225 0.0
C16 C 0.41589 0.83779 0.67546 0.0
C17 C 0.36581 0.86327 0.65221 0.0
H18 H 0.66612 0.43131 0.05893 0.0
H19 H 0.6508 0.58211 0.98739 0.0
H20 H 0.51656 0.48913 0.97114 0.0
C21 C 0.63986 0.46333 0.03941 0.0
C22 C 0.5868 0.45614 1.0186 0.0
C23 C 0.66211 0.5097 1.02958 0.0
C24 C 0.63096 0.54885 0.99918 0.0
C25 C 0.58052 0.53975 0.97462 0.0
C26 C 0.55624 0.4959 0.98891 0.0
H27 H 0.8488 0.61388 0.58982 0.0
H28 H 0.01113 0.60462 0.51464 0.0
H29 H 0.88997 0.50923 0.46138 0.0
C30 C 0.88061 0.59367 0.56369 0.0
C31 C 0.86578 0.55482 0.53015 0.0
C32 C 0.93231 0.61313 0.55691 0.0
C33 C 0.97193 0.58872 0.52112 0.0
C34 C 0.95571 0.55393 0.48438 0.0
C35 C 0.90381 0.53487 0.49066 0.0
H36 H 0.83072 0.96663 0.84103 0.0
H37 H 0.97474 0.84291 0.8387 0.0
H38 H 0.85112 0.85143 0.96187 0.0
C39 C 0.85537 0.93262 0.85874 0.0
C40 C 0.83449 0.91148 0.90406 0.0
C41 C 0.90626 0.90891 0.83448 0.0
C42 C 0.93608 0.86221 0.85687 0.0
C43 C 0.9168 0.84154 0.90382 0.0
C44 C 0.86642 0.8671 0.92646 0.0
H45 H 0.5462 0.22405 0.33689 0.0
H46 H 0.6908 0.10092 0.34035 0.0
H47 H 0.66879 0.21716 0.46099 0.0
C48 C 0.58482 0.20503 0.35532 0.0
C49 C 0.60366 0.22619 0.40234 0.0
C50 C 0.615 0.15828 0.33316 0.0
C51 C 0.66586 0.13499 0.35783 0.0
C52 C 0.68627 0.15667 0.40334 0.0
C53 C 0.65393 0.20108 0.42544 0.0
H54 H 0.3654 0.6285 1.00879 0.0
H55 H 0.38028 0.50379 0.11843 0.0
H56 H 0.52913 0.56474 0.07287 0.0
C57 C 0.39305 0.59895 1.03019 0.0
C58 C 0.45112 0.60339 1.03829 0.0
C59 C 0.36838 0.56005 0.05625 0.0
C60 C 0.40102 0.52779 0.09221 0.0
C61 C 0.45779 0.53337 0.10075 0.0
C62 C 0.48425 0.56372 0.06664 0.0
H63 H 1.00654 0.49278 0.59837 0.0
H64 H 0.16216 0.43598 0.51867 0.0
H65 H 0.14374 0.5831 0.59775 0.0
C66 C 0.04741 0.49973 0.58342 0.0
C67 C 0.07274 0.54066 0.60412 0.0
C68 C 0.08014 0.46014 0.55474 0.0
C69 C 0.13451 0.4677 0.53743 0.0
C70 C 0.15634 0.51351 0.55088 0.0
C71 C 0.1239 0.55118 0.58215 0.0
C72 C 0.04876 0.0617 0.44079 0.0
N73 N 0.02449 0.14393 0.57975 0.0
C74 C 0.07503 0.15706 0.56347 0.0
C75 C 0.08252 0.20908 0.56029 0.0
C76 C 0.03778 0.24795 0.57439 0.0
C77 C 0.9875 0.23356 0.5948 0.0
C78 C 0.98151 0.18071 0.59682 0.0
Zn79 Zn 0.01134 0.07134 0.55869 0.0
C80 C 0.90068 0.07314 0.50438 0.0
N81 N 0.99235 0.92162 0.50262 0.0
C82 C 0.03466 0.8803 0.49683 0.0
C83 C 0.93846 0.91405 0.51532 0.0
C84 C 0.92632 0.86468 0.52671 0.0
C85 C 0.9696 0.82171 0.52468 0.0
C86 C 0.02404 0.82954 0.50756 0.0
Zn87 Zn 1.00812 0.99512 0.52126 0.0
O88 O 0.04092 0.09 0.4815 0.0
C89 C 0.11906 0.99394 0.57508 0.0
O90 O 0.04046 1.01405 0.4441 0.0
H91 H 0.90562 0.94654 0.52308 0.0
H92 H 0.10826 0.1275 0.54893 0.0
H93 H 0.07756 0.88686 0.48803 0.0
O94 O 0.09621 0.04066 0.58413 0.0
O95 O 0.09186 0.96481 0.5478 0.0
H96 H 0.94141 0.1694 0.60872 0.0
O97 O 0.97723 0.97698 0.59833 0.0
O98 O 0.98058 0.05214 0.63594 0.0
O99 O 0.92462 1.02716 0.49405 0.0
O100 O 0.92669 0.10172 0.53338 0.0
C101 C 0.97088 1.00503 0.63923 0.0
H102 H 0.12226 0.21888 0.54538 0.0
H103 H 0.95227 0.26286 0.60637 0.0
H104 H 0.88408 0.86113 0.54075 0.0
H105 H 0.05853 0.79721 0.50447 0.0
C106 C 0.61877 0.99627 1.00203 0.0
N107 N 0.5207 0.14338 0.99945 0.0
C108 C 0.57158 0.15684 1.0146 0.0
C109 C 0.57911 0.20877 1.01704 0.0
C110 C 0.53408 0.24735 1.00342 0.0
C111 C 0.48318 0.23284 0.98439 0.0
C112 C 0.47709 0.17992 0.98318 0.0
Zn113 Zn 0.51049 0.0702 1.02038 0.0
C114 C 0.46951 1.00239 0.9402 0.0
N115 N 0.49899 0.91995 0.07709 0.0
C116 C 0.54608 0.88408 0.08532 0.0
C117 C 0.44809 0.90503 0.06428 0.0
C118 C 0.44415 0.85273 0.05512 0.0
C119 C 0.49316 0.81533 0.0585 0.0
C120 C 0.54425 0.83129 0.07568 0.0
Zn121 Zn 0.50771 0.99414 0.0572 0.0
O122 O 0.59503 0.0425 0.99282 0.0
C123 C 0.5488 0.0618 0.13767 0.0
O124 O 0.59236 0.96716 1.02969 0.0
H125 H 0.41141 0.9339 0.05627 0.0
H126 H 0.60532 0.12767 1.02878 0.0
H127 H 0.58627 0.89663 0.09501 0.0
O128 O 0.54122 0.09009 0.09714 0.0
O129 O 0.53998 1.01439 0.13399 0.0
H130 H 0.43671 0.16837 0.9723 0.0
O131 O 0.42286 1.0223 0.08462 0.0
O132 O 0.42618 0.09775 0.04754 0.0
O133 O 0.47673 0.97423 0.98082 0.0
O134 O 0.47853 0.04974 0.94374 0.0
C135 C 0.39957 0.06882 0.07539 0.0
H136 H 0.61925 0.21879 1.03096 0.0
H137 H 0.4478 0.26209 0.97315 0.0
H138 H 0.40347 0.84207 0.04369 0.0
H139 H 0.58321 0.80384 0.07901 0.0
C140 C 0.5313 0.42616 0.50711 0.0
N141 N 0.5327 0.50433 0.65584 0.0
C142 C 0.50011 0.48301 0.69103 0.0
C143 C 0.50455 0.49459 0.7442 0.0
C144 C 0.54218 0.52884 0.76027 0.0
C145 C 0.5753 0.54921 0.72313 0.0
C146 C 0.57034 0.53623 0.67163 0.0
Zn147 Zn 0.51627 0.51375 0.57821 0.0
C148 C 0.62691 0.53457 0.52745 0.0
N149 N 0.49286 0.56289 0.42488 0.0
C150 C 0.4587 0.53148 0.40205 0.0
C151 C 0.52603 0.59052 0.39625 0.0
C152 C 0.52774 0.58477 0.34233 0.0
C153 C 0.49516 0.5502 0.31847 0.0
C154 C 0.45921 0.52457 0.34871 0.0
Zn155 Zn 0.50671 0.54958 0.50095 0.0
O156 O 0.53107 0.43139 0.55659 0.0
C157 C 0.39655 0.52698 0.55034 0.0
O158 O 0.52308 0.46729 0.47953 0.0
H159 H 0.55352 0.61451 0.41532 0.0
H160 H 0.46869 0.45962 0.67784 0.0
H161 H 0.43392 0.50847 0.42526 0.0
O162 O 0.42835 0.50994 0.58826 0.0
O163 O 0.41862 0.54575 0.51113 0.0
H164 H 0.59289 0.55691 0.64429 0.0
O165 O 0.49078 0.63197 0.52244 0.0
O166 O 0.50008 0.59644 0.59922 0.0
O167 O 0.59476 0.55402 0.49092 0.0
O168 O 0.60482 0.51506 0.56603 0.0
C169 C 0.49097 0.63747 0.57173 0.0
H170 H 0.47836 0.47785 0.7721 0.0
H171 H 0.60335 0.5771 0.73334 0.0
H172 H 0.55552 0.60565 0.31975 0.0
H173 H 0.43233 0.49878 0.33141 0.0
C174 C 0.99066 0.6429 1.01025 0.0
N175 N 0.99626 0.57312 0.16069 0.0
C176 C 0.02974 0.60206 0.1878 0.0
C177 C 0.03227 0.59881 0.24201 0.0
C178 C 1.00001 0.56548 0.26795 0.0
C179 C 0.96338 0.53881 0.23908 0.0
C180 C 0.96239 0.54294 0.18541 0.0
Zn181 Zn 1.00868 0.55656 0.08426 0.0
C182 C 0.90004 0.52966 1.0366 0.0
N183 N 0.03392 0.50694 0.92893 0.0
C184 C 0.07009 0.53857 0.90994 0.0
C185 C 1.00156 0.48203 0.89615 0.0
C186 C 1.00478 0.48943 0.84215 0.0
C187 C 0.04134 0.52289 0.82266 0.0
C188 C 0.07433 0.54704 0.85738 0.0
Zn189 Zn 0.01952 0.52001 1.00666 0.0
O190 O 0.99074 0.63829 0.05967 0.0
C191 C 0.12839 0.5464 0.0549 0.0
O192 O 1.00045 0.60143 0.9832 0.0
H193 H 0.97131 0.45879 0.91178 0.0
H194 H 0.057 0.62515 0.1674 0.0
H195 H 0.09245 0.56178 0.93525 0.0
O196 O 0.0961 0.5635 0.09226 0.0
O197 O 0.10729 0.52555 1.01637 0.0
H198 H 0.93735 0.51885 0.16354 0.0
O199 O 0.03752 0.43859 1.03083 0.0
O200 O 0.02718 0.47449 0.1081 0.0
O201 O 0.93242 0.51276 0.99902 0.0
O202 O 0.92086 0.55047 0.07552 0.0
C203 C 0.03718 0.43333 0.08027 0.0
H204 H 0.06073 0.62041 0.26312 0.0
H205 H 0.9365 0.51398 0.25767 0.0
H206 H 0.97862 0.47004 0.81617 0.0
H207 H 0.1017 0.57435 0.84423 0.0
C208 C 0.09736 0.08047 0.29963 0.0
C209 C 0.09564 0.1353 0.29613 0.0
H210 H 0.08396 1.01437 0.34651 0.0
C211 C 0.0774 0.1651 0.34054 0.0
H212 H 0.11063 0.05587 0.2664 0.0
C213 C 0.06278 0.14105 0.38684 0.0
C214 C 0.06495 0.08622 0.39052 0.0
H215 H 0.07587 0.20712 0.34008 0.0
H216 H 0.04969 0.1658 0.42003 0.0
C217 C 0.08193 0.05643 0.34578 0.0
C218 C 0.42204 0.98512 0.79849 0.0
C219 C 0.42447 0.93033 0.79383 0.0
H220 H 0.43438 0.05069 0.84694 0.0
C221 C 0.44254 0.89994 0.83776 0.0
H222 H 0.40876 1.01008 0.76564 0.0
C223 C 0.45641 0.92346 0.88478 0.0
C224 C 0.45366 0.97826 0.88954 0.0
H225 H 0.44455 0.85789 0.83628 0.0
H226 H 0.4695 0.89837 0.9176 0.0
C227 C 0.4368 1.00861 0.8453 0.0
C228 C 0.61315 0.55489 0.88633 0.0
C229 C 0.56744 0.5595 0.92145 0.0
H230 H 0.6413 0.53751 0.80923 0.0
C231 C 0.51153 0.56345 0.9017 0.0
H232 H 0.65689 0.55123 0.89964 0.0
C233 C 0.50253 0.55462 0.84886 0.0
C234 C 0.54925 0.54323 0.8152 0.0
H235 H 0.47538 0.56769 0.92784 0.0
H236 H 0.45949 0.5546 0.8348 0.0
C237 C 0.60425 0.54596 0.8341 0.0
C238 C 0.98857 0.50771 0.40148 0.0
C239 C 0.9816 0.55307 0.4321 0.0
H240 H 1.00181 0.47582 0.32483 0.0
C241 C 0.98966 0.60093 0.40936 0.0
H242 H 0.9829 0.47043 0.41812 0.0
C243 C 0.9999 0.60416 0.35644 0.0
C244 C 1.00198 0.55974 0.32501 0.0
H245 H 0.98333 0.63703 0.43145 0.0
H246 H 1.0016 0.64223 0.33966 0.0
C247 C 0.99899 0.51098 0.34825 0.0
C248 C 0.27835 0.16614 0.12972 0.0
C249 C 0.24193 0.13383 0.15184 0.0
H250 H 0.35503 0.17128 0.0877 0.0
C251 C 0.25815 0.07929 0.14834 0.0
H252 H 0.26875 0.20825 0.13277 0.0
C253 C 0.30894 0.05794 0.12314 0.0
C254 C 0.3444 0.09056 0.10024 0.0
H255 H 0.23129 0.05301 0.16442 0.0
H256 H 0.32026 1.01586 0.12132 0.0
C257 C 0.3283 0.14489 0.10387 0.0
C258 C 0.26096 0.98529 0.64694 0.0
C259 C 0.27844 0.93092 0.64942 0.0
H260 H 0.19736 0.0479 0.62129 0.0
C261 C 0.24278 0.89794 0.6269 0.0
H262 H 0.28727 1.01202 0.66332 0.0
C263 C 0.19211 0.91849 0.60178 0.0
C264 C 0.17474 0.97269 0.5992 0.0
H265 H 0.25361 0.85587 0.6291 0.0
H266 H 0.16591 0.89168 0.58527 0.0
C267 C 0.20961 1.0059 0.62236 0.0
C268 C 0.74264 0.54847 0.06908 0.0
C269 C 0.7234 0.51126 1.03652 0.0
H270 H 0.81433 0.58308 0.09509 0.0
C271 C 0.76231 0.47993 1.00433 0.0
H272 H 0.71292 0.57364 0.09337 0.0
C273 C 0.81966 0.48625 1.00399 0.0
C274 C 0.83921 0.52355 1.03642 0.0
H275 H 0.74785 0.45181 0.97803 0.0
H276 H 0.84863 0.46197 0.97832 0.0
C277 C 0.80036 0.55406 0.06961 0.0
C278 C 0.77881 0.53173 0.57393 0.0
C279 C 0.80598 0.54487 0.52855 0.0
H280 H 0.70098 0.51741 0.60891 0.0
C281 C 0.77436 0.55296 0.48219 0.0
H282 H 0.80224 0.5257 0.61014 0.0
C283 C 0.71627 0.54903 0.48148 0.0
C284 C 0.68887 0.5364 0.52701 0.0
H285 H 0.79412 0.56413 0.44684 0.0
H286 H 0.69273 0.55646 0.44548 0.0
C287 C 0.72092 0.52704 0.57307 0.0
C288 C 0.06691 0.32725 0.18569 0.0
C289 C 0.07996 0.2811 0.15625 0.0
H290 H 0.04376 0.4108 0.18529 0.0
C291 C 0.07447 0.28538 0.10156 0.0
H292 H 0.07106 0.32598 0.22763 0.0
C293 C 0.05964 0.33411 0.07704 0.0
C294 C 0.0493 0.38056 0.10625 0.0
H295 H 0.08348 0.25085 0.0773 0.0
H296 H 0.05752 0.3354 1.03498 0.0
C297 C 0.05185 0.37614 0.16111 0.0
C298 C 0.54897 0.3852 0.96974 0.0
C299 C 0.56889 0.40382 1.01695 0.0
H300 H 0.52096 0.32138 0.92914 0.0
C301 C 0.574 0.37127 0.06067 0.0
H302 H 0.54632 0.40853 0.9347 0.0
C303 C 0.56051 0.32069 0.05683 0.0
C304 C 0.54133 0.30235 1.00938 0.0
H305 H 0.58908 0.38465 0.0974 0.0
H306 H 0.56597 0.29551 0.0906 0.0
C307 C 0.53462 0.33523 0.96623 0.0
C308 C 0.89275 0.70546 0.54464 0.0
C309 C 0.93541 0.66884 0.56698 0.0
H310 H 0.87135 0.78043 0.51054 0.0
C311 C 0.98735 0.68482 0.58141 0.0
H312 H 0.85281 0.69415 0.5318 0.0
C313 C 0.99824 0.73499 0.56899 0.0
C314 C 0.95738 0.76983 0.54192 0.0
H315 H 0.02114 0.65714 0.5982 0.0
H316 H 0.03928 0.74578 0.57898 0.0
C317 C 0.90384 0.755 0.53163 0.0
C318 C 0.46038 0.74204 0.6786 0.0
C319 C 0.44499 0.78816 0.64995 0.0
H320 H 0.48654 0.65899 0.67679 0.0
C321 C 0.44988 0.78471 0.59515 0.0
H322 H 0.45684 0.74273 0.72059 0.0
C323 C 0.46618 0.73651 0.56975 0.0
C324 C 0.47858 0.68997 0.59824 0.0
H325 H 0.43914 0.81936 0.57154 0.0
H326 H 0.46753 0.73561 0.52766 0.0
C327 C 0.47687 0.69376 0.65318 0.0
C328 C 0.9441 0.90275 0.74129 0.0
C329 C 0.92612 0.93322 0.78536 0.0
H330 H 0.97085 0.90103 0.66142 0.0
C331 C 0.92384 0.98799 0.78095 0.0
H332 H 0.94601 0.86071 0.74256 0.0
C333 C 0.93858 1.01139 0.73426 0.0
C334 C 0.95525 0.98097 0.68985 0.0
H335 H 0.91059 1.01304 0.81389 0.0
H336 H 0.93623 0.05346 0.73283 0.0
C337 C 0.9579 0.92618 0.69437 0.0
C338 C 0.59844 0.07882 0.27892 0.0
C339 C 0.59536 0.13366 0.28385 0.0
H340 H 0.5861 1.01326 0.23039 0.0
C341 C 0.57615 0.16411 0.24025 0.0
H342 H 0.61259 0.05377 0.31149 0.0
C343 C 0.56177 0.14066 0.19334 0.0
C344 C 0.56508 0.08583 0.18831 0.0
H345 H 0.57357 0.20621 0.24188 0.0
H346 H 0.54782 0.16584 0.1608 0.0
C347 C 0.58314 0.05538 0.23222 0.0
C348 C 0.48587 0.48907 0.18564 0.0
C349 C 0.47672 0.53409 0.15504 0.0
H350 H 0.50068 0.45884 0.26282 0.0
C351 C 0.478 0.5833 0.17807 0.0
H352 H 0.48394 0.45101 0.16866 0.0
C353 C 0.48785 0.58785 0.23068 0.0
C354 C 0.49506 0.54339 0.26185 0.0
H355 H 0.46786 0.61893 0.15591 0.0
H356 H 0.48594 0.62655 0.24743 0.0
C357 C 0.4952 0.49371 0.23906 0.0
C358 C 0.10904 0.54335 0.69397 0.0
C359 C 0.06198 0.55187 0.66013 0.0
H360 H 0.13929 0.52432 0.77029 0.0
C361 C 1.00677 0.55497 0.68122 0.0
H362 H 0.15238 0.53919 0.67968 0.0
C363 C 0.99937 0.54539 0.73417 0.0
C364 C 0.04704 0.53328 0.76669 0.0
H365 H 0.96964 0.56133 0.65624 0.0
H366 H 0.95669 0.54663 0.74946 0.0
C367 C 0.10166 0.53368 0.74621 0.0
C368 C 0.76061 0.98845 0.93052 0.0
C369 C 0.7786 0.93414 0.92811 0.0
H370 H 0.69638 0.05078 0.95598 0.0
C371 C 0.74314 0.90097 0.95026 0.0
H372 H 0.78674 1.01532 0.91437 0.0
C373 C 0.69229 0.92127 0.97517 0.0
C374 C 0.67449 0.97542 0.97783 0.0
H375 H 0.75432 0.85892 0.94802 0.0
H376 H 0.66633 0.89431 0.99151 0.0
C377 C 0.70902 1.00882 0.95486 0.0
C378 C 0.76005 0.08024 0.43084 0.0
C379 C 0.74194 0.13447 0.42813 0.0
H380 H 0.82391 1.01832 0.45733 0.0
C381 C 0.77688 0.16797 0.45098 0.0
H382 H 0.73432 0.05313 0.41423 0.0
C383 C 0.82732 0.14802 0.47683 0.0
C384 C 0.84521 0.09395 0.47971 0.0
H385 H 0.7656 0.20999 0.44858 0.0
H386 H 0.85295 0.17515 0.49363 0.0
C387 C 0.81119 0.06026 0.45607 0.0
C388 C 0.2743 0.5685 0.10079 0.0
C389 C 0.30632 0.55993 0.05482 0.0
H390 H 0.19268 0.57113 0.1369 0.0
C391 C 0.27938 0.54856 1.00861 0.0
H392 H 0.29441 0.57769 0.13684 0.0
C393 C 0.22143 0.54408 1.00874 0.0
C394 C 0.18943 0.55171 0.05497 0.0
H395 H 0.30346 0.5418 0.97284 0.0
H396 H 0.20174 0.53454 0.97261 0.0
C397 C 0.21626 0.56473 0.10083 0.0
C398 C 0.24139 0.54236 0.50899 0.0
C399 C 0.21808 0.51451 0.54797 0.0
H400 H 0.31658 0.5681 0.47913 0.0
C401 C 0.25321 0.4911 0.58796 0.0
H402 H 0.21461 0.56128 0.47833 0.0
C403 C 0.3111 0.49555 0.58916 0.0
C404 C 0.33491 0.52336 0.55016 0.0
H405 H 0.23547 0.47013 0.61885 0.0
H406 H 0.33714 0.47716 0.62054 0.0
C407 C 0.29951 0.54646 0.50985 0.0
C408 C 0.96069 0.74553 0.90198 0.0
C409 C 0.94568 0.79229 0.92997 0.0
H410 H 0.98611 0.66242 0.90491 0.0
C411 C 0.95027 0.78983 0.98485 0.0
H412 H 0.95729 0.74543 0.85997 0.0
C413 C 0.96599 0.74206 1.01091 0.0
C414 C 0.97809 0.69492 0.98306 0.0
H415 H 0.93969 0.82498 1.00798 0.0
H416 H 0.96724 0.74199 0.05301 0.0
C417 C 0.97661 0.69767 0.92807 0.0
C418 C 0.51262 0.66899 0.06898 0.0
C419 C 0.4722 0.65498 1.03299 0.0
H420 H 0.54896 0.72942 0.10639 0.0
C421 C 0.44567 0.69402 0.99936 0.0
H422 H 0.53513 0.64178 0.09619 0.0
C423 C 0.45456 0.746 1.00564 0.0
C424 C 0.49032 0.75993 0.04551 0.0
H425 H 0.41611 0.68509 0.96975 0.0
H426 H 0.43192 0.77549 0.98041 0.0
C427 C 0.52106 0.72044 0.07535 0.0
C428 C 0.04344 0.38914 0.60386 0.0
C429 C 0.06435 0.40691 0.55686 0.0
H430 H 0.01801 0.32528 0.64571 0.0
C431 C 0.07427 0.37221 0.51474 0.0
H432 H 0.03735 0.41404 0.63795 0.0
C433 C 0.06428 0.32059 0.51995 0.0
C434 C 0.04399 0.30319 0.56722 0.0
H435 H 0.09049 0.38473 0.47827 0.0
H436 H 0.07295 0.29407 0.48727 0.0
C437 C 0.03273 0.33809 0.60872 0.0
C438 C 0.56938 0.27878 0.48279 0.0
C439 C 0.57456 0.27569 0.42799 0.0
H440 H 0.55242 0.32755 0.55061 0.0
C441 C 0.56029 0.32213 0.39964 0.0
H442 H 0.57943 0.24387 0.50614 0.0
C443 C 0.54468 0.37034 0.42538 0.0
C444 C 0.54281 0.37376 0.48034 0.0
H445 H 0.56418 0.32168 0.35768 0.0
H446 H 0.5359 0.40534 0.40197 0.0
C447 C 0.55398 0.32693 0.50852 0.0
loop_
_geom_bond_atom_site_label_1
_geom_bond_atom_site_label_2
_geom_bond_distance
_geom_bond_site_symmetry_2
_ccdc_geom_bond_type
H0 C3 0.931 . S
H1 C6 0.928 . S
H2 C8 0.930 . S
C3 H0 0.931 . S
C3 C4 1.413 . S
C3 C5 1.360 . S
C4 C3 1.413 . S
C4 C8 1.429 . S
C5 C3 1.360 . S
C5 C6 1.372 . S
C6 H1 0.928 . S
C6 C5 1.372 . S
C6 C7 1.404 . S
C7 C6 1.404 . S
C7 C8 1.391 . S
C8 H2 0.930 . S
C8 C4 1.429 . S
C8 C7 1.391 . S
H9 C12 0.931 . S
H10 C15 0.928 . S
H11 C17 0.930 . S
C12 H9 0.931 . S
C12 C13 1.413 . S
C12 C14 1.360 . S
C13 C12 1.413 . S
C13 C17 1.429 . S
C14 C12 1.360 . S
C14 C15 1.372 . S
C15 H10 0.928 . S
C15 C14 1.372 . S
C15 C16 1.404 . S
C16 C15 1.404 . S
C16 C17 1.391 . S
C17 H11 0.930 . S
C17 C13 1.429 . S
C17 C16 1.391 . S
H18 C21 0.931 . S
H19 C24 0.928 . S
H20 C26 0.930 . S
C21 H18 0.931 . S
C21 C22 1.413 . S
C21 C23 1.360 . S
C22 C21 1.413 . S
C22 C26 1.429 . S
C23 C21 1.360 . S
C23 C24 1.372 . S
C24 H19 0.928 . S
C24 C23 1.372 . S
C24 C25 1.404 . S
C25 C24 1.404 . S
C25 C26 1.391 . S
C26 H20 0.930 . S
C26 C22 1.429 . S
C26 C25 1.391 . S
H27 C30 0.931 . S
H28 C33 0.928 . S
H29 C35 0.930 . S
C30 H27 0.931 . S
C30 C31 1.413 . S
C30 C32 1.360 . S
C31 C30 1.413 . S
C31 C35 1.429 . S
C32 C30 1.360 . S
C32 C33 1.372 . S
C33 H28 0.928 . S
C33 C32 1.372 . S
C33 C34 1.404 . S
C34 C33 1.404 . S
C34 C35 1.391 . S
C35 H29 0.930 . S
C35 C31 1.429 . S
C35 C34 1.391 . S
H36 C39 0.931 . S
H37 C42 0.928 . S
H38 C44 0.930 . S
C39 H36 0.931 . S
C39 C40 1.413 . S
C39 C41 1.360 . S
C40 C39 1.413 . S
C40 C44 1.429 . S
C41 C39 1.360 . S
C41 C42 1.372 . S
C42 H37 0.928 . S
C42 C41 1.372 . S
C42 C43 1.404 . S
C43 C42 1.404 . S
C43 C44 1.391 . S
C44 H38 0.930 . S
C44 C40 1.429 . S
C44 C43 1.391 . S
H45 C48 0.931 . S
H46 C51 0.928 . S
H47 C53 0.930 . S
C48 H45 0.931 . S
C48 C49 1.413 . S
C48 C50 1.360 . S
C49 C48 1.413 . S
C49 C53 1.429 . S
C50 C48 1.360 . S
C50 C51 1.372 . S
C51 H46 0.928 . S
C51 C50 1.372 . S
C51 C52 1.404 . S
C52 C51 1.404 . S
C52 C53 1.391 . S
C53 H47 0.930 . S
C53 C49 1.429 . S
C53 C52 1.391 . S
H54 C57 0.931 . S
H55 C60 0.928 . S
H56 C62 0.930 . S
C57 H54 0.931 . S
C57 C58 1.413 . S
C57 C59 1.360 . S
C58 C57 1.413 . S
C58 C62 1.429 . S
C59 C57 1.360 . S
C59 C60 1.372 . S
C60 H55 0.928 . S
C60 C59 1.372 . S
C60 C61 1.404 . S
C61 C60 1.404 . S
C61 C62 1.391 . S
C62 H56 0.930 . S
C62 C58 1.429 . S
C62 C61 1.391 . S
H63 C66 0.931 . S
H64 C69 0.928 . S
H65 C71 0.930 . S
C66 H63 0.931 . S
C66 C67 1.413 . S
C66 C68 1.360 . S
C67 C66 1.413 . S
C67 C71 1.429 . S
C68 C66 1.360 . S
C68 C69 1.372 . S
C69 H64 0.928 . S
C69 C68 1.372 . S
C69 C70 1.404 . S
C70 C69 1.404 . S
C70 C71 1.391 . S
C71 H65 0.930 . S
C71 C67 1.429 . S
C71 C70 1.391 . S
C72 O88 1.251 . S
C72 O90 1.254 1_545 S
N73 C74 1.333 . S
N73 C78 1.307 . S
N73 Zn79 2.020 . S
C74 N73 1.333 . S
C74 C75 1.379 . S
C74 H92 0.952 . S
C75 C74 1.379 . S
C75 C76 1.390 . S
C75 H102 0.949 . S
C76 C75 1.390 . S
C76 C77 1.357 . S
C77 C76 1.357 . S
C77 C78 1.370 . S
C77 H103 0.950 . S
C78 N73 1.307 . S
C78 C77 1.370 . S
C78 H96 0.948 1_455 S
Zn79 N73 2.020 . S
Zn79 O88 2.039 . S
Zn79 O94 2.034 . S
Zn79 O98 2.025 1_455 S
Zn79 O100 2.024 1_455 S
C80 O99 1.246 1_545 S
C80 O100 1.249 . S
N81 C82 1.307 . S
N81 C83 1.333 . S
N81 Zn87 2.020 . S
C82 N81 1.307 . S
C82 C86 1.370 . S
C82 H93 0.948 1_655 S
C83 N81 1.333 . S
C83 C84 1.379 . S
C83 H91 0.952 . S
C84 C83 1.379 . S
C84 C85 1.390 . S
C84 H104 0.949 . S
C85 C84 1.390 . S
C85 C86 1.357 . S
C86 C82 1.370 . S
C86 C85 1.357 . S
C86 H105 0.947 1_655 S
Zn87 N81 2.020 . S
Zn87 O90 2.025 1_655 S
Zn87 O95 2.024 1_655 S
Zn87 O97 2.039 . S
Zn87 O99 2.034 . S
O88 C72 1.251 . S
O88 Zn79 2.039 . S
C89 O94 1.246 1_565 S
C89 O95 1.249 . S
O90 C72 1.254 1_565 S
O90 Zn87 2.025 1_455 S
H91 C83 0.952 . S
H92 C74 0.952 . S
H93 C82 0.948 1_455 S
O94 Zn79 2.034 . S
O94 C89 1.246 1_545 S
O95 Zn87 2.024 1_455 S
O95 C89 1.249 . S
H96 C78 0.948 1_655 S
O97 Zn87 2.039 . S
O97 C101 1.251 . S
O98 Zn79 2.025 1_655 S
O98 C101 1.254 1_545 S
O99 C80 1.246 1_565 S
O99 Zn87 2.034 . S
O100 Zn79 2.024 1_655 S
O100 C80 1.249 . S
C101 O97 1.251 . S
C101 O98 1.254 1_565 S
H102 C75 0.949 . S
H103 C77 0.950 . S
H104 C84 0.949 . S
H105 C86 0.947 1_455 S
C106 O122 1.251 1_565 S
C106 O124 1.254 . S
N107 C108 1.333 . S
N107 C112 1.307 . S
N107 Zn113 2.020 . S
C108 N107 1.333 . S
C108 C109 1.379 . S
C108 H126 0.952 . S
C109 C108 1.379 . S
C109 C110 1.390 . S
C109 H136 0.949 . S
C110 C109 1.390 . S
C110 C111 1.357 . S
C111 C110 1.357 . S
C111 C112 1.370 . S
C111 H137 0.950 . S
C112 N107 1.307 . S
C112 C111 1.370 . S
C112 H130 0.948 . S
Zn113 N107 2.020 . S
Zn113 O122 2.039 . S
Zn113 O128 2.034 1_556 S
Zn113 O132 2.025 1_556 S
Zn113 O134 2.024 . S
C114 O133 1.246 . S
C114 O134 1.249 1_565 S
N115 C116 1.307 . S
N115 C117 1.333 . S
N115 Zn121 2.020 . S
C116 N115 1.307 . S
C116 C120 1.370 . S
C116 H127 0.948 . S
C117 N115 1.333 . S
C117 C118 1.379 . S
C117 H125 0.952 . S
C118 C117 1.379 . S
C118 C119 1.390 . S
C118 H138 0.949 . S
C119 C118 1.390 . S
C119 C120 1.357 . S
C120 C116 1.370 . S
C120 C119 1.357 . S
C120 H139 0.950 . S
Zn121 N115 2.020 . S
Zn121 O124 2.025 1_554 S
Zn121 O129 2.024 . S
Zn121 O131 2.039 . S
Zn121 O133 2.034 1_554 S
O122 C106 1.251 1_545 S
O122 Zn113 2.039 . S
C123 O128 1.246 . S
C123 O129 1.249 1_545 S
O124 C106 1.254 . S
O124 Zn121 2.025 1_556 S
H125 C117 0.952 . S
H126 C108 0.952 . S
H127 C116 0.948 . S
O128 Zn113 2.034 1_554 S
O128 C123 1.246 . S
O129 Zn121 2.024 . S
O129 C123 1.249 1_565 S
H130 C112 0.948 . S
O131 Zn121 2.039 . S
O131 C135 1.251 1_565 S
O132 Zn113 2.025 1_554 S
O132 C135 1.254 . S
O133 C114 1.246 . S
O133 Zn121 2.034 1_556 S
O134 Zn113 2.024 . S
O134 C114 1.249 1_545 S
C135 O131 1.251 1_545 S
C135 O132 1.254 . S
H136 C109 0.949 . S
H137 C111 0.950 . S
H138 C118 0.949 . S
H139 C120 0.950 . S
C140 O156 1.251 . S
C140 O158 1.254 . S
N141 C142 1.333 . S
N141 C146 1.307 . S
N141 Zn147 2.020 . S
C142 N141 1.333 . S
C142 C143 1.379 . S
C142 H160 0.952 . S
C143 C142 1.379 . S
C143 C144 1.390 . S
C143 H170 0.949 . S
C144 C143 1.390 . S
C144 C145 1.357 . S
C145 C144 1.357 . S
C145 C146 1.370 . S
C145 H171 0.950 . S
C146 N141 1.307 . S
C146 C145 1.370 . S
C146 H164 0.948 . S
Zn147 N141 2.020 . S
Zn147 O156 2.039 . S
Zn147 O162 2.034 . S
Zn147 O166 2.025 . S
Zn147 O168 2.024 . S
C148 O167 1.246 . S
C148 O168 1.249 . S
N149 C150 1.307 . S
N149 C151 1.333 . S
N149 Zn155 2.020 . S
C150 N149 1.307 . S
C150 C154 1.370 . S
C150 H161 0.948 . S
C151 N149 1.333 . S
C151 C152 1.379 . S
C151 H159 0.952 . S
C152 C151 1.379 . S
C152 C153 1.390 . S
C152 H172 0.949 . S
C153 C152 1.390 . S
C153 C154 1.357 . S
C154 C150 1.370 . S
C154 C153 1.357 . S
C154 H173 0.950 . S
Zn155 N149 2.020 . S
Zn155 O158 2.025 . S
Zn155 O163 2.024 . S
Zn155 O165 2.039 . S
Zn155 O167 2.034 . S
O156 C140 1.251 . S
O156 Zn147 2.039 . S
C157 O162 1.246 . S
C157 O163 1.249 . S
O158 C140 1.254 . S
O158 Zn155 2.025 . S
H159 C151 0.952 . S
H160 C142 0.952 . S
H161 C150 0.948 . S
O162 Zn147 2.034 . S
O162 C157 1.246 . S
O163 Zn155 2.024 . S
O163 C157 1.249 . S
H164 C146 0.948 . S
O165 Zn155 2.039 . S
O165 C169 1.251 . S
O166 Zn147 2.025 . S
O166 C169 1.254 . S
O167 C148 1.246 . S
O167 Zn155 2.034 . S
O168 Zn147 2.024 . S
O168 C148 1.249 . S
C169 O165 1.251 . S
C169 O166 1.254 . S
H170 C143 0.949 . S
H171 C145 0.950 . S
H172 C152 0.949 . S
H173 C154 0.950 . S
C174 O190 1.251 1_556 S
C174 O192 1.254 . S
N175 C176 1.333 . S
N175 C180 1.307 . S
N175 Zn181 2.020 . S
C176 N175 1.333 . S
C176 C177 1.379 . S
C176 H194 0.952 . S
C177 C176 1.379 . S
C177 C178 1.390 . S
C177 H204 0.949 . S
C178 C177 1.390 . S
C178 C179 1.357 . S
C179 C178 1.357 . S
C179 C180 1.370 . S
C179 H205 0.950 . S
C180 N175 1.307 . S
C180 C179 1.370 . S
C180 H198 0.948 . S
Zn181 N175 2.020 . S
Zn181 O190 2.039 . S
Zn181 O196 2.034 1_655 S
Zn181 O200 2.025 1_655 S
Zn181 O202 2.024 . S
C182 O201 1.246 . S
C182 O202 1.249 1_556 S
N183 C184 1.307 . S
N183 C185 1.333 . S
N183 Zn189 2.020 . S
C184 N183 1.307 . S
C184 C188 1.370 . S
C184 H195 0.948 . S
C185 N183 1.333 . S
C185 C186 1.379 . S
C185 H193 0.952 . S
C186 C185 1.379 . S
C186 C187 1.390 . S
C186 H206 0.949 . S
C187 C186 1.390 . S
C187 C188 1.357 . S
C188 C184 1.370 . S
C188 C187 1.357 . S
C188 H207 0.950 . S
Zn189 N183 2.020 . S
Zn189 O192 2.025 1_455 S
Zn189 O197 2.024 . S
Zn189 O199 2.039 . S
Zn189 O201 2.034 1_455 S
O190 C174 1.251 1_554 S
O190 Zn181 2.039 . S
C191 O196 1.246 . S
C191 O197 1.249 1_554 S
O192 C174 1.254 . S
O192 Zn189 2.025 1_655 S
H193 C185 0.952 . S
H194 C176 0.952 . S
H195 C184 0.948 . S
O196 Zn181 2.034 1_455 S
O196 C191 1.246 . S
O197 Zn189 2.024 . S
O197 C191 1.249 1_556 S
H198 C180 0.948 . S
O199 Zn189 2.039 . S
O199 C203 1.251 1_556 S
O200 Zn181 2.025 1_455 S
O200 C203 1.254 . S
O201 C182 1.246 . S
O201 Zn189 2.034 1_655 S
O202 Zn181 2.024 . S
O202 C182 1.249 1_554 S
C203 O199 1.251 1_554 S
C203 O200 1.254 . S
H204 C177 0.949 . S
H205 C179 0.950 . S
H206 C186 0.949 . S
H207 C188 0.950 . S
C208 C209 1.387 . S
C208 H212 0.950 . S
C208 C217 1.390 . S
C209 C208 1.387 . S
C209 C211 1.387 . S
H210 C217 0.950 1_565 S
C211 C209 1.387 . S
C211 C213 1.390 . S
C211 H215 0.950 . S
H212 C208 0.950 . S
C213 C211 1.390 . S
C213 C214 1.387 . S
C213 H216 0.950 . S
C214 C213 1.387 . S
C214 C217 1.387 . S
H215 C211 0.950 . S
H216 C213 0.950 . S
C217 C208 1.390 . S
C217 H210 0.950 1_545 S
C217 C214 1.387 . S
C218 C219 1.387 . S
C218 H222 0.950 . S
C218 C227 1.390 . S
C219 C218 1.387 . S
C219 C221 1.387 . S
H220 C227 0.950 1_545 S
C221 C219 1.387 . S
C221 C223 1.390 . S
C221 H225 0.950 . S
H222 C218 0.950 . S
C223 C221 1.390 . S
C223 C224 1.387 . S
C223 H226 0.950 . S
C224 C223 1.387 . S
C224 C227 1.387 . S
H225 C221 0.950 . S
H226 C223 0.950 . S
C227 C218 1.390 . S
C227 H220 0.950 1_565 S
C227 C224 1.387 . S
C228 C229 1.387 . S
C228 H232 0.950 . S
C228 C237 1.390 . S
C229 C228 1.387 . S
C229 C231 1.387 . S
H230 C237 0.950 . S
C231 C229 1.387 . S
C231 C233 1.390 . S
C231 H235 0.950 . S
H232 C228 0.950 . S
C233 C231 1.390 . S
C233 C234 1.387 . S
C233 H236 0.950 . S
C234 C233 1.387 . S
C234 C237 1.387 . S
H235 C231 0.950 . S
H236 C233 0.950 . S
C237 C228 1.390 . S
C237 H230 0.950 . S
C237 C234 1.387 . S
C238 C239 1.387 . S
C238 H242 0.950 . S
C238 C247 1.390 . S
C239 C238 1.387 . S
C239 C241 1.387 . S
H240 C247 0.950 . S
C241 C239 1.387 . S
C241 C243 1.390 . S
C241 H245 0.950 . S
H242 C238 0.950 . S
C243 C241 1.390 . S
C243 C244 1.387 . S
C243 H246 0.950 . S
C244 C243 1.387 . S
C244 C247 1.387 . S
H245 C241 0.950 . S
H246 C243 0.950 . S
C247 C238 1.390 . S
C247 H240 0.950 . S
C247 C244 1.387 . S
C248 C249 1.387 . S
C248 H252 0.950 . S
C248 C257 1.390 . S
C249 C248 1.387 . S
C249 C251 1.387 . S
H250 C257 0.950 . S
C251 C249 1.387 . S
C251 C253 1.390 . S
C251 H255 0.950 . S
H252 C248 0.950 . S
C253 C251 1.390 . S
C253 C254 1.387 . S
C253 H256 0.950 1_545 S
C254 C253 1.387 . S
C254 C257 1.387 . S
H255 C251 0.950 . S
H256 C253 0.950 1_565 S
C257 C248 1.390 . S
C257 H250 0.950 . S
C257 C254 1.387 . S
C258 C259 1.387 . S
C258 H262 0.950 . S
C258 C267 1.390 . S
C259 C258 1.387 . S
C259 C261 1.387 . S
H260 C267 0.950 1_545 S
C261 C259 1.387 . S
C261 C263 1.390 . S
C261 H265 0.950 . S
H262 C258 0.950 . S
C263 C261 1.390 . S
C263 C264 1.387 . S
C263 H266 0.950 . S
C264 C263 1.387 . S
C264 C267 1.387 . S
H265 C261 0.950 . S
H266 C263 0.950 . S
C267 C258 1.390 . S
C267 H260 0.950 1_565 S
C267 C264 1.387 . S
C268 C269 1.387 . S
C268 H272 0.950 1_556 S
C268 C277 1.390 1_556 S
C269 C268 1.387 . S
C269 C271 1.387 . S
H270 C277 0.950 . S
C271 C269 1.387 . S
C271 C273 1.390 . S
C271 H275 0.950 . S
H272 C268 0.950 1_554 S
C273 C271 1.390 . S
C273 C274 1.387 . S
C273 H276 0.950 . S
C274 C273 1.387 . S
C274 C277 1.387 1_556 S
H275 C271 0.950 . S
H276 C273 0.950 . S
C277 C268 1.390 1_554 S
C277 H270 0.950 . S
C277 C274 1.387 1_554 S
C278 C279 1.387 . S
C278 H282 0.950 . S
C278 C287 1.390 . S
C279 C278 1.387 . S
C279 C281 1.387 . S
H280 C287 0.950 . S
C281 C279 1.387 . S
C281 C283 1.390 . S
C281 H285 0.950 . S
H282 C278 0.950 . S
C283 C281 1.390 . S
C283 C284 1.387 . S
C283 H286 0.950 . S
C284 C283 1.387 . S
C284 C287 1.387 . S
H285 C281 0.950 . S
H286 C283 0.950 . S
C287 C278 1.390 . S
C287 H280 0.950 . S
C287 C284 1.387 . S
C288 C289 1.387 . S
C288 H292 0.950 . S
C288 C297 1.390 . S
C289 C288 1.387 . S
C289 C291 1.387 . S
H290 C297 0.950 . S
C291 C289 1.387 . S
C291 C293 1.390 . S
C291 H295 0.950 . S
H292 C288 0.950 . S
C293 C291 1.390 . S
C293 C294 1.387 . S
C293 H296 0.950 1_554 S
C294 C293 1.387 . S
C294 C297 1.387 . S
H295 C291 0.950 . S
H296 C293 0.950 1_556 S
C297 C288 1.390 . S
C297 H290 0.950 . S
C297 C294 1.387 . S
C298 C299 1.387 . S
C298 H302 0.950 . S
C298 C307 1.390 . S
C299 C298 1.387 . S
C299 C301 1.387 . S
H300 C307 0.950 . S
C301 C299 1.387 . S
C301 C303 1.390 . S
C301 H305 0.950 1_556 S
H302 C298 0.950 . S
C303 C301 1.390 . S
C303 C304 1.387 . S
C303 H306 0.950 1_556 S
C304 C303 1.387 . S
C304 C307 1.387 . S
H305 C301 0.950 1_554 S
H306 C303 0.950 1_554 S
C307 C298 1.390 . S
C307 H300 0.950 . S
C307 C304 1.387 . S
C308 C309 1.387 . S
C308 H312 0.950 . S
C308 C317 1.390 . S
C309 C308 1.387 . S
C309 C311 1.387 . S
H310 C317 0.950 . S
C311 C309 1.387 . S
C311 C313 1.390 . S
C311 H315 0.950 . S
H312 C308 0.950 . S
C313 C311 1.390 . S
C313 C314 1.387 . S
C313 H316 0.950 . S
C314 C313 1.387 . S
C314 C317 1.387 . S
H315 C311 0.950 . S
H316 C313 0.950 . S
C317 C308 1.390 . S
C317 H310 0.950 . S
C317 C314 1.387 . S
C318 C319 1.387 . S
C318 H322 0.950 . S
C318 C327 1.390 . S
C319 C318 1.387 . S
C319 C321 1.387 . S
H320 C327 0.950 . S
C321 C319 1.387 . S
C321 C323 1.390 . S
C321 H325 0.950 . S
H322 C318 0.950 . S
C323 C321 1.390 . S
C323 C324 1.387 . S
C323 H326 0.950 . S
C324 C323 1.387 . S
C324 C327 1.387 . S
H325 C321 0.950 . S
H326 C323 0.950 . S
C327 C318 1.390 . S
C327 H320 0.950 . S
C327 C324 1.387 . S
C328 C329 1.387 . S
C328 H332 0.950 . S
C328 C337 1.390 . S
C329 C328 1.387 . S
C329 C331 1.387 . S
H330 C337 0.950 . S
C331 C329 1.387 . S
C331 C333 1.390 . S
C331 H335 0.950 . S
H332 C328 0.950 . S
C333 C331 1.390 . S
C333 C334 1.387 . S
C333 H336 0.950 1_565 S
C334 C333 1.387 . S
C334 C337 1.387 . S
H335 C331 0.950 . S
H336 C333 0.950 1_545 S
C337 C328 1.390 . S
C337 H330 0.950 . S
C337 C334 1.387 . S
C338 C339 1.387 . S
C338 H342 0.950 . S
C338 C347 1.390 . S
C339 C338 1.387 . S
C339 C341 1.387 . S
H340 C347 0.950 . S
C341 C339 1.387 . S
C341 C343 1.390 . S
C341 H345 0.950 . S
H342 C338 0.950 . S
C343 C341 1.390 . S
C343 C344 1.387 . S
C343 H346 0.950 . S
C344 C343 1.387 . S
C344 C347 1.387 . S
H345 C341 0.950 . S
H346 C343 0.950 . S
C347 C338 1.390 . S
C347 H340 0.950 . S
C347 C344 1.387 . S
C348 C349 1.387 . S
C348 H352 0.950 . S
C348 C357 1.390 . S
C349 C348 1.387 . S
C349 C351 1.387 . S
H350 C357 0.950 . S
C351 C349 1.387 . S
C351 C353 1.390 . S
C351 H355 0.950 . S
H352 C348 0.950 . S
C353 C351 1.390 . S
C353 C354 1.387 . S
C353 H356 0.950 . S
C354 C353 1.387 . S
C354 C357 1.387 . S
H355 C351 0.950 . S
H356 C353 0.950 . S
C357 C348 1.390 . S
C357 H350 0.950 . S
C357 C354 1.387 . S
C358 C359 1.387 . S
C358 H362 0.950 . S
C358 C367 1.390 . S
C359 C358 1.387 . S
C359 C361 1.387 . S
H360 C367 0.950 . S
C361 C359 1.387 . S
C361 C363 1.390 . S
C361 H365 0.950 . S
H362 C358 0.950 . S
C363 C361 1.390 . S
C363 C364 1.387 . S
C363 H366 0.950 . S
C364 C363 1.387 . S
C364 C367 1.387 . S
H365 C361 0.950 . S
H366 C363 0.950 . S
C367 C358 1.390 . S
C367 H360 0.950 . S
C367 C364 1.387 . S
C368 C369 1.387 . S
C368 H372 0.950 . S
C368 C377 1.390 . S
C369 C368 1.387 . S
C369 C371 1.387 . S
H370 C377 0.950 1_545 S
C371 C369 1.387 . S
C371 C373 1.390 . S
C371 H375 0.950 . S
H372 C368 0.950 . S
C373 C371 1.390 . S
C373 C374 1.387 . S
C373 H376 0.950 . S
C374 C373 1.387 . S
C374 C377 1.387 . S
H375 C371 0.950 . S
H376 C373 0.950 . S
C377 C368 1.390 . S
C377 H370 0.950 1_565 S
C377 C374 1.387 . S
C378 C379 1.387 . S
C378 H382 0.950 . S
C378 C387 1.390 . S
C379 C378 1.387 . S
C379 C381 1.387 . S
H380 C387 0.950 1_565 S
C381 C379 1.387 . S
C381 C383 1.390 . S
C381 H385 0.950 . S
H382 C378 0.950 . S
C383 C381 1.390 . S
C383 C384 1.387 . S
C383 H386 0.950 . S
C384 C383 1.387 . S
C384 C387 1.387 . S
H385 C381 0.950 . S
H386 C383 0.950 . S
C387 C378 1.390 . S
C387 H380 0.950 1_545 S
C387 C384 1.387 . S
C388 C389 1.387 . S
C388 H392 0.950 . S
C388 C397 1.390 . S
C389 C388 1.387 . S
C389 C391 1.387 . S
H390 C397 0.950 . S
C391 C389 1.387 . S
C391 C393 1.390 . S
C391 H395 0.950 1_554 S
H392 C388 0.950 . S
C393 C391 1.390 . S
C393 C394 1.387 . S
C393 H396 0.950 1_554 S
C394 C393 1.387 . S
C394 C397 1.387 . S
H395 C391 0.950 1_556 S
H396 C393 0.950 1_556 S
C397 C388 1.390 . S
C397 H390 0.950 . S
C397 C394 1.387 . S
C398 C399 1.387 . S
C398 H402 0.950 . S
C398 C407 1.390 . S
C399 C398 1.387 . S
C399 C401 1.387 . S
H400 C407 0.950 . S
C401 C399 1.387 . S
C401 C403 1.390 . S
C401 H405 0.950 . S
H402 C398 0.950 . S
C403 C401 1.390 . S
C403 C404 1.387 . S
C403 H406 0.950 . S
C404 C403 1.387 . S
C404 C407 1.387 . S
H405 C401 0.950 . S
H406 C403 0.950 . S
C407 C398 1.390 . S
C407 H400 0.950 . S
C407 C404 1.387 . S
C408 C409 1.387 . S
C408 H412 0.950 . S
C408 C417 1.390 . S
C409 C408 1.387 . S
C409 C411 1.387 . S
H410 C417 0.950 . S
C411 C409 1.387 . S
C411 C413 1.390 . S
C411 H415 0.950 . S
H412 C408 0.950 . S
C413 C411 1.390 . S
C413 C414 1.387 . S
C413 H416 0.950 1_655 S
C414 C413 1.387 . S
C414 C417 1.387 . S
H415 C411 0.950 . S
H416 C413 0.950 1_455 S
C417 C408 1.390 . S
C417 H410 0.950 . S
C417 C414 1.387 . S
C418 C419 1.387 . S
C418 H422 0.950 . S
C418 C427 1.390 . S
C419 C418 1.387 . S
C419 C421 1.387 . S
H420 C427 0.950 . S
C421 C419 1.387 . S
C421 C423 1.390 . S
C421 H425 0.950 1_554 S
H422 C418 0.950 . S
C423 C421 1.390 . S
C423 C424 1.387 . S
C423 H426 0.950 . S
C424 C423 1.387 . S
C424 C427 1.387 . S
H425 C421 0.950 1_556 S
H426 C423 0.950 . S
C427 C418 1.390 . S
C427 H420 0.950 . S
C427 C424 1.387 . S
C428 C429 1.387 . S
C428 H432 0.950 . S
C428 C437 1.390 . S
C429 C428 1.387 . S
C429 C431 1.387 . S
H430 C437 0.950 . S
C431 C429 1.387 . S
C431 C433 1.390 . S
C431 H435 0.950 . S
H432 C428 0.950 . S
C433 C431 1.390 . S
C433 C434 1.387 . S
C433 H436 0.950 . S
C434 C433 1.387 . S
C434 C437 1.387 . S
H435 C431 0.950 . S
H436 C433 0.950 . S
C437 C428 1.390 . S
C437 H430 0.950 . S
C437 C434 1.387 . S
C438 C439 1.387 . S
C438 H442 0.950 . S
C438 C447 1.390 . S
C439 C438 1.387 . S
C439 C441 1.387 . S
H440 C447 0.950 . S
C441 C439 1.387 . S
C441 C443 1.390 . S
C441 H445 0.950 . S
H442 C438 0.950 . S
C443 C441 1.390 . S
C443 C444 1.387 . S
C443 H446 0.950 . S
C444 C443 1.387 . S
C444 C447 1.387 . S
H445 C441 0.950 . S
H446 C443 0.950 . S
C447 C438 1.390 . S
C447 H440 0.950 . S
C447 C444 1.387 . S
C209 C5 2.296 . S
C214 C72 2.307 . S
C219 C14 2.269 . S
C224 C114 2.276 . S
C234 C144 1.008 . S
C229 C25 1.005 . S
C239 C34 1.030 . S
C244 C178 1.040 . S
C254 C135 1.800 . S
C249 C7 1.785 . S
C264 C89 1.816 . S
C259 C13 1.803 . S
C274 C182 1.262 . S
C269 C23 1.246 . S
C284 C148 1.300 . S
C279 C31 1.276 . S
C289 C4 2.169 . S
C294 C203 2.181 . S
C304 C110 1.156 . S
C299 C22 1.142 . S
C309 C32 1.129 . S
C314 C85 1.157 . S
C319 C16 2.149 . S
C324 C169 2.155 . S
C334 C101 2.297 . S
C329 C41 2.287 . S
C339 C50 2.274 . S
C344 C123 2.283 . S
C349 C61 0.998 . S
C354 C153 1.005 . S
C359 C67 1.040 . S
C364 C187 1.048 . S
C369 C40 1.797 . S
C374 C106 1.812 . S
C384 C80 1.802 . S
C379 C52 1.793 . S
C394 C191 1.269 . S
C389 C59 1.247 . S
C404 C157 1.295 . S
C399 C70 1.269 . S
C409 C43 2.168 . S
C414 C174 2.178 . S
C424 C119 1.158 . S
C419 C58 1.142 . S
C434 C76 1.155 . S
C429 C68 1.130 . S
C439 C49 2.154 . S
C444 C140 2.164 . S
