# Generated by pormake.
# Topology rtl, (3,6)-cn, num edge types: 1
# Building blocks:
#     Node 0, Type 0, BuildingBlock: QEWDON_clean_linker_0, # of connection points: 3
#     Node 1, Type 0, BuildingBlock: QEWDON_clean_linker_0, # of connection points: 3
#     Node 2, Type 0, BuildingBlock: QEWDON_clean_linker_0, # of connection points: 3
#     Node 3, Type 0, BuildingBlock: QEWDON_clean_linker_0, # of connection points: 3
#     Node 4, Type 1, BuildingBlock: KUMJIN_clean_sbu_1, # of connection points: 6
#     Node 5, Type 1, BuildingBlock: KUMJIN_clean_sbu_1, # of connection points: 6
#     Edge 6, Type (0, 1), BuildingBlock: EZIPEK_clean_linker_0, # of connection points: 2
#     Edge 7, Type (0, 1), BuildingBlock: EZIPEK_clean_linker_0, # of connection points: 2
#     Edge 8, Type (0, 1), BuildingBlock: EZIPEK_clean_linker_0, # of connection points: 2
#     Edge 9, Type (0, 1), BuildingBlock: EZIPEK_clean_linker_0, # of connection points: 2
#     Edge 10, Type (0, 1), BuildingBlock: EZIPEK_clean_linker_0, # of connection points: 2
#     Edge 11, Type (0, 1), BuildingBlock: EZIPEK_clean_linker_0, # of connection points: 2
#     Edge 12, Type (0, 1), BuildingBlock: EZIPEK_clean_linker_0, # of connection points: 2
#     Edge 13, Type (0, 1), BuildingBlock: EZIPEK_clean_linker_0, # of connection points: 2
#     Edge 14, Type (0, 1), BuildingBlock: EZIPEK_clean_linker_0, # of connection points: 2
#     Edge 15, Type (0, 1), BuildingBlock: EZIPEK_clean_linker_0, # of connection points: 2
#     Edge 16, Type (0, 1), BuildingBlock: EZIPEK_clean_linker_0, # of connection points: 2
#     Edge 17, Type (0, 1), BuildingBlock: EZIPEK_clean_linker_0, # of connection points: 2
# Relax obj value: 0.086
# Max RMSD: 0.289
# Mean RMSD: 0.218
data_MOF--net-rtl--node1-KUMJIN_clean_sbu_1--node2-QEWDON_clean_linker_0--edge1-EZIPEK_clean_linker_0
_symmetry_space_group_name_H-M    P1
_symmetry_Int_Tables_number       1
_symmetry_cell_setting            triclinic
loop_
_symmetry_equiv_pos_as_xyz
'x, y, z'
_cell_length_a     28.308171
_cell_length_b     28.532245
_cell_length_c     20.391998
_cell_angle_alpha  75.165982
_cell_angle_beta   100.83763
_cell_angle_gamma 91.263585
loop_
_atom_site_label
_atom_site_type_symbol
_atom_site_fract_x
_atom_site_fract_y
_atom_site_fract_z
_atom_type_partial_charge
H0 H 0.26029 0.82271 0.10502 0.0
C1 C 0.23679 0.8437 0.05909 0.0
C2 C 0.1958 0.8679 0.06539 0.0
C3 C 0.24923 0.84995 0.99383 0.0
H4 H 0.13755 0.91589 0.01561 0.0
C5 C 0.16746 0.89805 1.00645 0.0
C6 C 0.17881 0.9056 0.94012 0.0
C7 C 0.21881 0.87868 0.93493 0.0
C8 C 0.29837 0.83607 0.98777 0.0
H9 H 0.22822 0.88187 0.88489 0.0
C10 C 0.3163 0.78752 1.00749 0.0
C11 C 0.3636 0.77725 1.00028 0.0
C12 C 0.32826 0.87354 0.96186 0.0
H13 H 0.3156 0.91103 0.94696 0.0
C14 C 0.37488 0.86343 0.95578 0.0
H15 H 0.29368 0.75817 0.02718 0.0
C16 C 0.39247 0.81575 0.97484 0.0
H17 H 0.42879 0.80874 0.96929 0.0
H18 H 0.3975 0.89274 0.93608 0.0
H19 H 0.72718 0.71048 0.59962 0.0
C20 C 0.71131 0.69553 0.6447 0.0
C21 C 0.69432 0.64808 0.65602 0.0
C22 C 0.70413 0.72487 0.6881 0.0
H23 H 0.66356 0.59073 0.7239 0.0
C24 C 0.67422 0.62823 0.71443 0.0
C25 C 0.66235 0.65744 0.75526 0.0
C26 C 0.67702 0.70628 0.74066 0.0
C27 C 0.72099 0.77615 0.67457 0.0
H28 H 0.66757 0.72977 0.77055 0.0
C29 C 0.76672 0.78878 0.65684 0.0
C30 C 0.78139 0.83761 0.64433 0.0
C31 C 0.69061 0.81328 0.67862 0.0
H32 H 0.65507 0.80546 0.69032 0.0
C33 C 0.70511 0.86128 0.6662 0.0
H34 H 0.79091 0.76097 0.65343 0.0
C35 C 0.75004 0.87338 0.64927 0.0
H36 H 0.76047 0.91095 0.63986 0.0
H37 H 0.68121 0.88936 0.66946 0.0
H38 H 0.80717 0.18108 0.20587 0.0
C39 C 0.82207 0.17819 0.1618 0.0
C40 C 0.86646 0.15334 0.1724 0.0
C41 C 0.79527 0.19564 0.09432 0.0
H42 H 0.91822 0.12743 0.12398 0.0
C43 C 0.88452 0.14742 0.11565 0.0
C44 C 0.8585 0.16476 0.04853 0.0
C45 C 0.81394 0.18887 0.03786 0.0
C46 C 0.74441 0.21244 0.08302 0.0
H47 H 0.79288 0.20043 0.986 0.0
C48 C 0.73128 0.25676 0.09465 0.0
C49 C 0.68221 0.27143 0.08095 0.0
C50 C 0.70825 0.18323 0.05863 0.0
H51 H 0.71752 0.1491 0.04947 0.0
C52 C 0.65993 0.19746 0.04613 0.0
H53 H 0.75879 0.27984 0.11299 0.0
C54 C 0.64694 0.24125 0.05711 0.0
H55 H 0.60919 0.25187 0.04652 0.0
H56 H 0.63241 0.17455 0.02751 0.0
H57 H 0.32733 0.29258 0.55344 0.0
C58 C 0.34214 0.31168 0.50898 0.0
C59 C 0.36695 0.35485 0.51061 0.0
C60 C 0.33907 0.29181 0.45172 0.0
H61 H 0.40711 0.41173 0.45589 0.0
C62 C 0.38774 0.37867 0.45431 0.0
C63 C 0.38468 0.35998 0.39658 0.0
C64 C 0.36028 0.31662 0.39533 0.0
C65 C 0.3192 0.24255 0.45391 0.0
H66 H 0.3586 0.30184 0.35101 0.0
C67 C 0.27372 0.2291 0.47157 0.0
C68 C 0.25674 0.1818 0.47279 0.0
C69 C 0.34719 0.20792 0.4389 0.0
H70 H 0.38236 0.2168 0.42624 0.0
C71 C 0.33072 0.16126 0.44114 0.0
H72 H 0.25138 0.25532 0.48272 0.0
C73 C 0.28589 0.14829 0.45776 0.0
H74 H 0.2736 0.11196 0.45834 0.0
H75 H 0.3528 0.13501 0.42965 0.0
Eu76 Eu 0.05539 0.96073 0.5222 0.0
C77 C 0.93232 0.15456 0.474 0.0
N78 N 0.97278 0.14012 0.52259 0.0
C79 C 1.00146 0.22138 0.49762 0.0
C80 C 0.92584 0.20284 0.43315 0.0
C81 C 1.00628 0.17315 0.53681 0.0
C82 C 0.96139 0.23617 0.44493 0.0
C83 C 0.85357 0.13536 0.41776 0.0
C84 C 0.89651 0.12136 0.46653 0.0
C85 C 0.84807 0.18268 0.37457 0.0
C86 C 0.88406 0.21639 0.38239 0.0
Eu87 Eu 0.97843 0.05697 0.58326 0.0
N88 N 0.90288 0.07582 0.50875 0.0
C89 C 0.81695 0.10171 0.41518 0.0
C90 C 0.8658 0.04439 0.51072 0.0
C91 C 0.82273 0.05635 0.46285 0.0
H92 H 0.03669 0.16251 0.57881 0.0
H93 H 0.794 0.03068 0.46297 0.0
H94 H 1.01414 0.85552 0.60423 0.0
H95 H 0.24368 0.01528 0.53263 0.0
H96 H 0.8699 0.00976 0.54838 0.0
H97 H 0.78352 0.11098 0.37824 0.0
H98 H 0.15819 0.01565 0.47945 0.0
H99 H 0.02852 0.24718 0.50835 0.0
H100 H 0.81563 0.19391 0.33614 0.0
H101 H 0.87888 0.25308 0.34974 0.0
H102 H 0.04145 0.78778 0.7073 0.0
H103 H 0.95779 0.27356 0.41462 0.0
H104 H 0.27542 0.95623 0.6436 0.0
N105 N 0.08002 0.89232 0.6152 0.0
C106 C 0.12668 0.89021 0.64792 0.0
C107 C 0.06564 0.81661 0.69158 0.0
C108 C 0.14394 0.8523 0.70678 0.0
C109 C 0.0502 0.85504 0.63352 0.0
C110 C 0.11244 0.81572 0.7292 0.0
N111 N 0.13998 0.96048 0.56285 0.0
C112 C 0.17086 0.9909 0.52929 0.0
C113 C 0.20659 0.92305 0.65243 0.0
C114 C 0.15747 0.92539 0.62116 0.0
C115 C 0.23752 0.95674 0.62111 0.0
C116 C 0.21972 0.99023 0.55861 0.0
H117 H 0.12429 0.78595 0.77421 0.0
H118 H 0.20588 0.82309 0.78625 0.0
H119 H 0.26079 0.88501 0.73859 0.0
O120 O 0.09936 0.92724 0.46782 0.0
O121 O 0.05037 0.95491 0.63446 0.0
O122 O 0.05256 0.03248 0.64522 0.0
O123 O 0.0226 0.92036 0.44799 0.0
O124 O 0.08258 0.03805 0.49847 0.0
O125 O 0.05307 0.08347 0.56308 0.0
O126 O 0.95369 0.03017 0.68109 0.0
O127 O 0.95629 0.03389 0.48414 0.0
O128 O 0.02264 0.02775 0.43945 0.0
O129 O 0.9548 0.10701 0.63672 0.0
O130 O 0.95582 0.97773 0.61126 0.0
O131 O 0.97786 0.93863 0.53335 0.0
C132 C 0.06799 0.9872 0.66757 0.0
C133 C 0.06343 0.92549 0.35447 0.0
C134 C 0.09669 0.91365 0.25712 0.0
C135 C 0.06537 0.95052 0.21245 0.0
C136 C 0.03312 0.96288 0.3087 0.0
C137 C 0.03389 0.97497 0.23816 0.0
C138 C 0.09558 0.90106 0.3284 0.0
C139 C 0.08405 0.07588 0.52514 0.0
C140 C 0.06289 0.91311 0.4294 0.0
C141 C 0.19214 0.8515 0.74029 0.0
C142 C 0.22341 0.88677 0.71314 0.0
C143 C 0.97987 0.04704 0.43343 0.0
C144 C 0.96834 0.08053 0.75781 0.0
C145 C 0.95817 0.10524 0.86029 0.0
C146 C 1.00746 0.09614 0.88719 0.0
C147 C 0.01761 0.07179 0.78518 0.0
C148 C 0.9387 0.09737 0.79545 0.0
C149 C 0.03698 0.07945 0.84972 0.0
C150 C 0.95095 0.94292 0.57843 0.0
C151 C 0.9476 0.07309 0.68969 0.0
H152 H 0.06581 0.96082 0.1576 0.0
H153 H 1.00909 0.98306 0.32743 0.0
H154 H 1.01028 1.00375 0.20335 0.0
H155 H 0.11987 0.87281 0.36325 0.0
H156 H 0.02295 0.10185 0.93722 0.0
H157 H 0.04106 0.05922 0.75667 0.0
H158 H 0.90063 0.10432 0.77453 0.0
H159 H 0.07496 0.07245 0.87071 0.0
Eu160 Eu 0.46927 0.48951 0.01725 0.0
C161 C 0.6658 0.59515 0.10785 0.0
N162 N 0.64983 0.54902 0.11555 0.0
C163 C 0.72396 0.52284 0.0938 0.0
C164 C 0.71172 0.60679 0.09177 0.0
C165 C 0.67872 0.5127 0.11116 0.0
C166 C 0.74045 0.57012 0.08369 0.0
C167 C 0.65298 0.67862 0.11036 0.0
C168 C 0.6364 0.63087 0.11672 0.0
C169 C 0.69863 0.69009 0.09429 0.0
C170 C 0.72791 0.65431 0.08515 0.0
Eu171 Eu 0.57459 0.53593 0.1498 0.0
N172 N 0.59198 0.61917 0.13174 0.0
C173 C 0.62332 0.71357 0.12075 0.0
C174 C 0.56444 0.65253 0.14646 0.0
C175 C 0.57908 0.70033 0.13947 0.0
H176 H 0.66749 0.47575 0.1223 0.0
H177 H 0.55668 0.72669 0.15014 0.0
H178 H 0.37073 0.55756 0.99996 0.0
H179 H 0.50311 0.29429 0.13245 0.0
H180 H 0.53182 0.64242 0.16592 0.0
H181 H 0.63475 0.75059 0.11608 0.0
H182 H 0.51817 0.37481 0.06229 0.0
H183 H 0.74645 0.494 0.08946 0.0
H184 H 0.71175 0.72658 0.08908 0.0
H185 H 0.76309 0.66379 0.07292 0.0
H186 H 0.29036 0.54771 0.03202 0.0
H187 H 0.7758 0.57774 0.07102 0.0
H188 H 0.42883 0.28065 0.18115 0.0
N189 N 0.39272 0.48408 0.0477 0.0
C190 C 0.3806 0.43952 0.08272 0.0
C191 C 0.31544 0.51707 0.04671 0.0
C192 C 0.33531 0.43242 0.10249 0.0
C193 C 0.36096 0.5226 0.02892 0.0
C194 C 0.30258 0.47184 0.08375 0.0
N195 N 0.45777 0.40913 0.08056 0.0
C196 C 0.48783 0.37068 0.08773 0.0
C197 C 0.40292 0.35508 0.13852 0.0
C198 C 0.41437 0.40137 0.10092 0.0
C199 C 0.43625 0.31671 0.15242 0.0
C200 C 0.47839 0.32433 0.12552 0.0
H201 H 0.26743 0.4678 0.09799 0.0
H202 H 0.28994 0.38059 0.15729 0.0
H203 H 0.34904 0.31294 0.1888 0.0
O204 O 0.46206 0.44664 0.94069 0.0
O205 O 0.4553 0.49284 0.12244 0.0
O206 O 0.52898 0.471 0.18446 0.0
O207 O 0.41348 0.50721 0.92415 0.0
O208 O 0.54586 0.45805 0.03519 0.0
O209 O 0.58371 0.45838 0.14631 0.0
O210 O 0.57126 0.55057 0.24993 0.0
O211 O 0.58507 0.55611 0.03775 0.0
O212 O 0.51357 0.54919 0.96246 0.0
O213 O 0.63599 0.51895 0.23446 0.0
O214 O 0.50286 0.57864 0.11695 0.0
O215 O 0.46213 0.56961 0.0107 0.0
C216 C 0.48279 0.47482 0.18266 0.0
C217 C 0.42806 0.48599 0.82461 0.0
C218 C 0.41356 0.46447 0.71407 0.0
C219 C 0.42754 0.51089 0.68201 0.0
C220 C 0.44186 0.53228 0.79152 0.0
C221 C 0.44162 0.54452 0.72061 0.0
C222 C 0.41397 0.45207 0.7856 0.0
C223 C 0.57855 0.44102 0.09161 0.0
C224 C 0.42648 0.4731 0.89898 0.0
C225 C 0.32439 0.38661 0.14111 0.0
C226 C 0.35817 0.34815 0.15938 0.0
C227 C 0.55824 0.56359 0.9754 0.0
C228 C 0.63042 0.51404 0.35061 0.0
C229 C 0.65816 0.52625 0.46562 0.0
C230 C 0.66563 0.47595 0.49233 0.0
C231 C 0.63971 0.464 0.37756 0.0
C232 C 0.64019 0.54499 0.39475 0.0
C233 C 0.65656 0.44506 0.44833 0.0
C234 C 0.47101 0.5937 0.05897 0.0
C235 C 0.61579 0.53595 0.27609 0.0
H236 H 0.42747 0.52104 0.62703 0.0
H237 H 0.45268 0.55899 0.82043 0.0
H238 H 0.45219 0.5803 0.6954 0.0
H239 H 0.40297 0.41634 0.81055 0.0
H240 H 0.67903 0.46079 0.54696 0.0
H241 H 0.63478 0.43974 0.34395 0.0
H242 H 0.63456 0.58386 0.37386 0.0
H243 H 0.66327 0.4064 0.46899 0.0
C244 C 0.19888 0.14949 0.55387 0.0
C245 C 0.20765 0.16619 0.48578 0.0
C246 C 0.13372 0.12823 0.4422 0.0
C247 C 0.12356 0.11187 0.51065 0.0
N248 N 0.14221 0.12029 0.62884 0.0
N249 N 0.17659 0.1842 0.36405 0.0
C250 C 0.1544 0.12708 0.56541 0.0
C251 C 0.17266 0.15973 0.42977 0.0
N252 N 0.23421 0.15261 0.60826 0.0
N253 N 0.10748 0.11292 0.3885 0.0
H254 H 0.20469 0.20752 0.35349 0.0
H255 H 0.14959 0.18549 0.3211 0.0
H256 H 0.07654 0.09307 0.39127 0.0
H257 H 0.11818 0.11769 0.3411 0.0
H258 H 0.23304 0.1349 0.65939 0.0
H259 H 0.26638 0.17016 0.60188 0.0
H260 H 0.16042 0.13628 0.66654 0.0
H261 H 0.11228 0.10203 0.64333 0.0
C262 C 0.40062 0.70032 0.08634 0.0
C263 C 0.38437 0.72678 0.01693 0.0
C264 C 0.43106 0.67114 0.97824 0.0
C265 C 0.44271 0.64055 0.04665 0.0
N266 N 0.43087 0.62441 0.16574 0.0
N267 N 0.37497 0.73038 0.89598 0.0
C268 C 0.4253 0.65457 0.10076 0.0
C269 C 0.39639 0.70956 0.96275 0.0
N270 N 0.39457 0.7198 0.13896 0.0
N271 N 0.45588 0.66638 0.92883 0.0
H272 H 0.34911 0.75841 0.88289 0.0
H273 H 0.37918 0.71637 0.85489 0.0
H274 H 0.4855 0.64286 0.93935 0.0
H275 H 0.45146 0.69049 0.88002 0.0
H276 H 0.41124 0.7054 0.19017 0.0
H277 H 0.37598 0.75255 0.13087 0.0
H278 H 0.41281 0.63019 0.20317 0.0
H279 H 0.45053 0.59198 0.18197 0.0
C280 C 0.86966 0.8542 0.6783 0.0
C281 C 0.8292 0.85331 0.62571 0.0
C282 C 0.87047 0.9066 0.53997 0.0
C283 C 0.91127 0.90759 0.59244 0.0
N284 N 0.95419 0.87131 0.70749 0.0
N285 N 0.7957 0.8683 0.50472 0.0
C286 C 0.91217 0.87793 0.66042 0.0
C287 C 0.83142 0.87589 0.55587 0.0
N288 N 0.8668 0.83401 0.7458 0.0
N289 N 0.86731 0.93764 0.47608 0.0
H290 H 0.76663 0.84634 0.5151 0.0
H291 H 0.79716 0.8798 0.4524 0.0
H292 H 0.89402 0.96202 0.46395 0.0
H293 H 0.83653 0.94278 0.43769 0.0
H294 H 0.8925 0.83875 0.78724 0.0
H295 H 0.83717 0.81463 0.76049 0.0
H296 H 0.95878 0.84666 0.75583 0.0
H297 H 0.98595 0.88694 0.69516 0.0
C298 C 0.64846 0.3188 0.15033 0.0
C299 C 0.66588 0.3185 0.08973 0.0
C300 C 0.63571 0.40249 0.03773 0.0
C301 C 0.61124 0.39982 0.09346 0.0
N302 N 0.59039 0.35223 0.20035 0.0
N303 N 0.67438 0.35884 0.97362 0.0
C304 C 0.61718 0.35743 0.14979 0.0
C305 C 0.65936 0.3602 0.03301 0.0
N306 N 0.66161 0.28174 0.20834 0.0
N307 N 0.63792 0.44586 0.99062 0.0
H308 H 0.69381 0.32943 0.96944 0.0
H309 H 0.66521 0.38558 0.92745 0.0
H310 H 0.62265 0.47797 0.99358 0.0
H311 H 0.65909 0.45118 0.95287 0.0
H312 H 0.65428 0.28205 0.2564 0.0
H313 H 0.68405 0.25279 0.20984 0.0
H314 H 0.58923 0.32003 0.23809 0.0
H315 H 0.56529 0.37811 0.20104 0.0
C316 C 0.1419 0.83871 0.15149 0.0
C317 C 0.18227 0.86592 0.13354 0.0
C318 C 0.17468 0.91456 0.21476 0.0
C319 C 0.13159 0.89054 0.22747 0.0
N320 N 0.08044 0.82266 0.22296 0.0
N321 N 0.24451 0.92069 0.15949 0.0
C322 C 0.11754 0.84988 0.20112 0.0
C323 C 0.20137 0.90056 0.16971 0.0
N324 N 0.12561 0.80399 0.118 0.0
N325 N 0.18845 0.95246 0.24304 0.0
H326 H 0.26425 0.91149 0.12607 0.0
H327 H 0.26267 0.94352 0.18753 0.0
H328 H 0.17087 0.9619 0.27864 0.0
H329 H 0.2161 0.97553 0.23016 0.0
H330 H 0.09339 0.78623 0.12197 0.0
H331 H 0.14436 0.79368 0.08424 0.0
H332 H 0.07006 0.79051 0.20997 0.0
H333 H 0.06198 0.83056 0.25874 0.0
C334 C 0.64073 0.64793 0.87501 0.0
C335 C 0.63222 0.63676 0.80976 0.0
C336 C 0.57592 0.57492 0.85405 0.0
C337 C 0.58032 0.59059 0.91554 0.0
N338 N 0.60003 0.65876 0.96389 0.0
N339 N 0.57371 0.60339 0.73164 0.0
C340 C 0.60771 0.63217 0.92011 0.0
C341 C 0.59431 0.60435 0.79733 0.0
N342 N 0.68111 0.67097 0.8965 0.0
N343 N 0.55606 0.53159 0.84964 0.0
H344 H 0.58169 0.62854 0.68846 0.0
H345 H 0.54437 0.582 0.72094 0.0
H346 H 0.54468 0.50735 0.89094 0.0
H347 H 0.55571 0.51784 0.8068 0.0
H348 H 0.68826 0.67819 0.94492 0.0
H349 H 0.70978 0.67712 0.87023 0.0
H350 H 0.61668 0.69172 0.96421 0.0
H351 H 0.57246 0.65089 0.99222 0.0
C352 C 0.88315 0.07951 0.27156 0.0
C353 C 0.89307 0.12857 0.24254 0.0
C354 C 0.96218 0.12433 0.33722 0.0
C355 C 0.95343 0.07446 0.36425 0.0
N356 N 0.91513 1.00189 0.34493 0.0
N357 N 0.94453 0.19685 0.24194 0.0
C358 C 0.91641 0.05132 0.32814 0.0
C359 C 0.93353 0.15071 0.27365 0.0
N360 N 0.84186 0.05972 0.24496 0.0
N361 N 0.99693 0.14675 0.37336 0.0
H362 H 0.9226 0.21801 0.19777 0.0
H363 H 0.97627 0.2136 0.25695 0.0
H364 H 0.01692 0.12893 0.42112 0.0
H365 H 1.00375 0.18357 0.35937 0.0
H366 H 0.83019 0.02585 0.26878 0.0
H367 H 0.81709 0.07881 0.20239 0.0
H368 H 0.89196 0.98247 0.31627 0.0
H369 H 0.94101 0.98017 0.38318 0.0
C370 C 0.41913 0.36585 0.61921 0.0
C371 C 0.37437 0.37485 0.57247 0.0
C372 C 0.3511 0.43311 0.63178 0.0
C373 C 0.39841 0.42935 0.67152 0.0
N374 N 0.47849 0.39374 0.70248 0.0
N375 N 0.29776 0.41748 0.53188 0.0
C376 C 0.43256 0.39564 0.66576 0.0
C377 C 0.34003 0.40816 0.57871 0.0
N378 N 0.44865 0.32865 0.61893 0.0
N379 N 0.31677 0.46037 0.64527 0.0
H380 H 0.28785 0.39859 0.49406 0.0
H381 H 0.27362 0.44549 0.52799 0.0
H382 H 0.32394 0.47931 0.68341 0.0
H383 H 0.28047 0.46113 0.62296 0.0
H384 H 0.47971 0.317 0.6557 0.0
H385 H 0.43986 0.3065 0.58509 0.0
H386 H 0.50675 0.37438 0.69466 0.0
H387 H 0.48922 0.41396 0.73845 0.0
C388 C 0.64122 0.62144 0.56084 0.0
C389 C 0.68796 0.62186 0.6008 0.0
C390 C 0.71701 0.56539 0.54371 0.0
C391 C 0.66879 0.55958 0.51176 0.0
N392 N 0.58384 0.57621 0.49944 0.0
N393 N 0.77001 0.59187 0.63499 0.0
C394 C 0.63055 0.5862 0.52264 0.0
C395 C 0.72592 0.59329 0.5934 0.0
N396 N 0.60713 0.6553 0.55864 0.0
N397 N 0.75428 0.54559 0.52495 0.0
H398 H 0.77793 0.61313 0.67018 0.0
H399 H 0.79765 0.56757 0.63766 0.0
H400 H 0.74916 0.52567 0.48796 0.0
H401 H 0.79024 0.5525 0.54138 0.0
H402 H 0.57396 0.65974 0.52508 0.0
H403 H 0.61376 0.68213 0.58542 0.0
H404 H 0.55461 0.59085 0.51252 0.0
H405 H 0.57428 0.5497 0.47277 0.0
C406 C 0.87088 0.10513 0.98184 0.0
C407 C 0.87678 0.15273 0.99088 0.0
C408 C 0.92757 0.17183 0.90287 0.0
C409 C 0.92702 0.1224 0.90107 0.0
N410 N 0.90133 0.04071 0.94194 0.0
N411 N 0.91215 0.2312 0.96355 0.0
C412 C 0.8991 0.08875 0.94086 0.0
C413 C 0.90513 0.18627 0.95179 0.0
N414 N 0.838 0.07578 0.0123 0.0
N415 N 0.94905 0.20494 0.85715 0.0
H416 H 0.89497 0.24345 0.9973 0.0
H417 H 0.93695 0.25533 0.94305 0.0
H418 H 0.96605 0.19541 0.82105 0.0
H419 H 0.94672 0.24223 0.851 0.0
H420 H 0.82843 0.04246 1.00244 0.0
H421 H 0.817 0.08664 0.043 0.0
H422 H 0.88649 0.01347 0.97607 0.0
H423 H 0.92098 0.02739 0.91183 0.0
C424 C 0.45785 0.3772 0.34158 0.0
C425 C 0.40853 0.38652 0.33875 0.0
C426 C 0.40984 0.45878 0.24267 0.0
C427 C 0.45919 0.44849 0.24286 0.0
N428 N 0.53313 0.41075 0.31636 0.0
N429 N 0.33528 0.43147 0.28126 0.0
C430 C 0.48418 0.41096 0.29856 0.0
C431 C 0.38396 0.42603 0.28777 0.0
N432 N 0.4797 0.33573 0.38561 0.0
N433 N 0.38876 0.50223 0.20436 0.0
H434 H 0.31541 0.40838 0.31371 0.0
H435 H 0.31379 0.45577 0.24015 0.0
H436 H 0.40673 0.52905 0.17463 0.0
H437 H 0.35518 0.51442 0.20787 0.0
H438 H 0.51389 0.3237 0.3842 0.0
H439 H 0.46186 0.31084 0.41898 0.0
H440 H 0.55299 0.38609 0.35882 0.0
H441 H 0.55326 0.44025 0.29769 0.0
C442 C 0.09939 0.94434 0.86331 0.0
C443 C 0.15038 0.94068 0.87569 0.0
C444 C 0.1464 0.98247 0.75256 0.0
C445 C 0.09682 0.9714 0.73897 0.0
N446 N 0.0254 0.94288 0.78406 0.0
N447 N 0.22167 0.97432 0.83582 0.0
C448 C 0.07339 0.95149 0.79505 0.0
C449 C 0.17376 0.96546 0.82107 0.0
N450 N 0.07624 0.95286 0.91208 0.0
N451 N 0.16684 0.0099 0.70038 0.0
H452 H 0.24013 0.96925 0.88662 0.0
H453 H 0.24298 0.98657 0.79884 0.0
H454 H 0.14811 0.02136 0.64973 0.0
H455 H 0.2015 0.023 0.70689 0.0
H456 H 0.03894 0.95673 0.90478 0.0
H457 H 0.09398 0.96944 0.94937 0.0
H458 H 1.00816 0.9241 0.82354 0.0
H459 H 1.00367 0.95251 0.7354 0.0
loop_
_geom_bond_atom_site_label_1
_geom_bond_atom_site_label_2
_geom_bond_distance
_geom_bond_site_symmetry_2
_ccdc_geom_bond_type
H0 C1 0.949 . S
C1 H0 0.949 . S
C1 C2 1.395 . S
C1 C3 1.391 . S
C2 C1 1.395 . S
C2 C5 1.390 . S
C3 C1 1.391 . S
C3 C7 1.387 1_554 S
C3 C8 1.491 . S
H4 C5 0.950 . S
C5 C2 1.390 . S
C5 H4 0.950 . S
C5 C6 1.378 1_554 S
C6 C5 1.378 1_556 S
C6 C7 1.409 . S
C7 C3 1.387 1_556 S
C7 C6 1.409 . S
C7 H9 0.951 . S
C8 C3 1.491 . S
C8 C10 1.382 . S
C8 C12 1.404 1_554 S
H9 C7 0.951 . S
C10 C8 1.382 . S
C10 C11 1.390 . S
C10 H15 0.949 . S
C11 C10 1.390 . S
C11 C16 1.399 . S
C12 C8 1.404 1_556 S
C12 H13 0.950 . S
C12 C14 1.375 . S
H13 C12 0.950 . S
C14 C12 1.375 . S
C14 C16 1.382 1_556 S
C14 H18 0.950 . S
H15 C10 0.949 . S
C16 C11 1.399 . S
C16 C14 1.382 1_554 S
C16 H17 0.952 . S
H17 C16 0.952 . S
H18 C14 0.950 . S
H19 C20 0.949 . S
C20 H19 0.949 . S
C20 C21 1.395 . S
C20 C22 1.391 . S
C21 C20 1.395 . S
C21 C24 1.390 . S
C22 C20 1.391 . S
C22 C26 1.387 . S
C22 C27 1.491 . S
H23 C24 0.950 . S
C24 C21 1.390 . S
C24 H23 0.950 . S
C24 C25 1.378 . S
C25 C24 1.378 . S
C25 C26 1.409 . S
C26 C22 1.387 . S
C26 C25 1.409 . S
C26 H28 0.951 . S
C27 C22 1.491 . S
C27 C29 1.382 . S
C27 C31 1.404 . S
H28 C26 0.951 . S
C29 C27 1.382 . S
C29 C30 1.390 . S
C29 H34 0.949 . S
C30 C29 1.390 . S
C30 C35 1.399 . S
C31 C27 1.404 . S
C31 H32 0.950 . S
C31 C33 1.375 . S
H32 C31 0.950 . S
C33 C31 1.375 . S
C33 C35 1.382 . S
C33 H37 0.950 . S
H34 C29 0.949 . S
C35 C30 1.399 . S
C35 C33 1.382 . S
C35 H36 0.952 . S
H36 C35 0.952 . S
H37 C33 0.950 . S
H38 C39 0.949 . S
C39 H38 0.949 . S
C39 C40 1.395 . S
C39 C41 1.391 . S
C40 C39 1.395 . S
C40 C43 1.390 . S
C41 C39 1.391 . S
C41 C45 1.387 . S
C41 C46 1.491 . S
H42 C43 0.950 . S
C43 C40 1.390 . S
C43 H42 0.950 . S
C43 C44 1.378 . S
C44 C43 1.378 . S
C44 C45 1.409 . S
C45 C41 1.387 . S
C45 C44 1.409 . S
C45 H47 0.951 1_554 S
C46 C41 1.491 . S
C46 C48 1.382 . S
C46 C50 1.404 1_554 S
H47 C45 0.951 1_556 S
C48 C46 1.382 . S
C48 C49 1.390 . S
C48 H53 0.949 . S
C49 C48 1.390 . S
C49 C54 1.399 . S
C50 C46 1.404 1_556 S
C50 H51 0.950 . S
C50 C52 1.375 . S
H51 C50 0.950 . S
C52 C50 1.375 . S
C52 C54 1.382 1_556 S
C52 H56 0.950 . S
H53 C48 0.949 . S
C54 C49 1.399 . S
C54 C52 1.382 1_554 S
C54 H55 0.952 1_554 S
H55 C54 0.952 1_556 S
H56 C52 0.950 . S
H57 C58 0.949 . S
C58 H57 0.949 . S
C58 C59 1.395 . S
C58 C60 1.391 . S
C59 C58 1.395 . S
C59 C62 1.390 . S
C60 C58 1.391 . S
C60 C64 1.387 . S
C60 C65 1.491 . S
H61 C62 0.950 . S
C62 C59 1.390 . S
C62 H61 0.950 . S
C62 C63 1.378 . S
C63 C62 1.378 . S
C63 C64 1.409 . S
C64 C60 1.387 . S
C64 C63 1.409 . S
C64 H66 0.951 . S
C65 C60 1.491 . S
C65 C67 1.382 . S
C65 C69 1.404 . S
H66 C64 0.951 . S
C67 C65 1.382 . S
C67 C68 1.390 . S
C67 H72 0.949 . S
C68 C67 1.390 . S
C68 C73 1.399 . S
C69 C65 1.404 . S
C69 H70 0.950 . S
C69 C71 1.375 . S
H70 C69 0.950 . S
C71 C69 1.375 . S
C71 C73 1.382 . S
C71 H75 0.950 . S
H72 C67 0.949 . S
C73 C68 1.399 . S
C73 C71 1.382 . S
C73 H74 0.952 . S
H74 C73 0.952 . S
H75 C71 0.950 . S
Eu76 N105 2.600 . S
Eu76 N111 2.562 . S
Eu76 O120 2.462 . S
Eu76 O121 2.373 . S
Eu76 O123 2.432 . S
Eu76 O124 2.291 1_565 S
Eu76 O128 2.335 1_465 S
Eu76 O131 2.372 1_455 S
Eu76 C140 2.787 . S
C77 N78 1.365 . S
C77 C80 1.405 . S
C77 C84 1.448 . S
N78 C77 1.365 . S
N78 C81 1.319 1_655 S
N78 Eu87 2.600 . S
C79 C81 1.397 . S
C79 C82 1.367 1_455 S
C79 H99 0.931 . S
C80 C77 1.405 . S
C80 C82 1.403 . S
C80 C86 1.439 . S
C81 N78 1.319 1_455 S
C81 C79 1.397 . S
C81 H92 0.930 . S
C82 C79 1.367 1_655 S
C82 C80 1.403 . S
C82 H103 0.929 . S
C83 C84 1.430 . S
C83 C85 1.387 . S
C83 C89 1.404 . S
C84 C77 1.448 . S
C84 C83 1.430 . S
C84 N88 1.351 . S
C85 C83 1.387 . S
C85 C86 1.374 . S
C85 H100 0.931 . S
C86 C80 1.439 . S
C86 C85 1.374 . S
C86 H101 0.931 . S
Eu87 N78 2.600 . S
Eu87 N88 2.562 . S
Eu87 O122 2.335 1_655 S
Eu87 O125 2.372 1_655 S
Eu87 O126 2.462 . S
Eu87 O127 2.373 . S
Eu87 O129 2.432 . S
Eu87 O130 2.291 1_545 S
Eu87 C151 2.787 . S
N88 C84 1.351 . S
N88 Eu87 2.562 . S
N88 C90 1.325 . S
C89 C83 1.404 . S
C89 C91 1.366 . S
C89 H97 0.930 . S
C90 N88 1.325 . S
C90 C91 1.416 . S
C90 H96 0.929 . S
C91 C89 1.366 . S
C91 C90 1.416 . S
C91 H93 0.930 . S
H92 C81 0.930 . S
H93 C91 0.930 . S
H94 C109 0.930 1_655 S
H95 C116 0.930 . S
H96 C90 0.929 . S
H97 C89 0.930 . S
H98 C112 0.929 . S
H99 C79 0.931 . S
H100 C85 0.931 . S
H101 C86 0.931 . S
H102 C107 0.931 1_655 S
H103 C82 0.929 . S
H104 C115 0.930 . S
N105 Eu76 2.600 . S
N105 C106 1.365 . S
N105 C109 1.319 . S
C106 N105 1.365 . S
C106 C108 1.405 . S
C106 C114 1.448 . S
C107 H102 0.931 1_455 S
C107 C109 1.397 . S
C107 C110 1.367 . S
C108 C106 1.405 . S
C108 C110 1.403 . S
C108 C141 1.439 . S
C109 H94 0.930 1_455 S
C109 N105 1.319 . S
C109 C107 1.397 . S
C110 C107 1.367 . S
C110 C108 1.403 . S
C110 H117 0.929 . S
N111 Eu76 2.562 . S
N111 C112 1.325 . S
N111 C114 1.351 . S
C112 H98 0.929 . S
C112 N111 1.325 . S
C112 C116 1.416 . S
C113 C114 1.430 . S
C113 C115 1.404 . S
C113 C142 1.387 . S
C114 C106 1.448 . S
C114 N111 1.351 . S
C114 C113 1.430 . S
C115 H104 0.930 . S
C115 C113 1.404 . S
C115 C116 1.366 . S
C116 H95 0.930 . S
C116 C112 1.416 . S
C116 C115 1.366 . S
H117 C110 0.929 . S
H118 C141 0.931 . S
H119 C142 0.931 . S
O120 Eu76 2.462 . S
O120 C140 1.252 . S
O121 Eu76 2.373 . S
O121 C132 1.249 . S
O122 Eu87 2.335 1_455 S
O122 C132 1.264 1_545 S
O123 Eu76 2.432 . S
O123 C140 1.268 . S
O124 Eu76 2.291 1_545 S
O124 C139 1.255 . S
O125 Eu87 2.372 1_455 S
O125 C139 1.257 . S
O126 Eu87 2.462 . S
O126 C151 1.252 . S
O127 Eu87 2.373 . S
O127 C143 1.249 . S
O128 Eu76 2.335 1_645 S
O128 C143 1.264 . S
O129 Eu87 2.432 . S
O129 C151 1.268 . S
O130 Eu87 2.291 1_565 S
O130 C150 1.255 . S
O131 Eu76 2.372 1_655 S
O131 C150 1.257 . S
C132 O121 1.249 . S
C132 O122 1.264 1_565 S
C133 C136 1.382 . S
C133 C138 1.390 . S
C133 C140 1.506 . S
C134 C135 1.398 . S
C134 C138 1.392 . S
C135 C134 1.398 . S
C135 C137 1.372 . S
C135 H152 0.931 . S
C136 C133 1.382 . S
C136 C137 1.390 . S
C136 H153 0.931 . S
C137 C135 1.372 . S
C137 C136 1.390 . S
C137 H154 0.929 . S
C138 C133 1.390 . S
C138 C134 1.392 . S
C138 H155 0.930 . S
C139 O124 1.255 . S
C139 O125 1.257 . S
C140 Eu76 2.787 . S
C140 O120 1.252 . S
C140 O123 1.268 . S
C140 C133 1.506 . S
C141 C108 1.439 . S
C141 H118 0.931 . S
C141 C142 1.374 . S
C142 C113 1.387 . S
C142 H119 0.931 . S
C142 C141 1.374 . S
C143 O127 1.249 . S
C143 O128 1.264 . S
C144 C147 1.382 . S
C144 C148 1.390 . S
C144 C151 1.506 . S
C145 C146 1.398 . S
C145 C148 1.392 . S
C146 C145 1.398 . S
C146 C149 1.372 . S
C146 H156 0.931 . S
C147 C144 1.382 . S
C147 C149 1.390 . S
C147 H157 0.931 . S
C148 C144 1.390 . S
C148 C145 1.392 . S
C148 H158 0.930 . S
C149 C146 1.372 . S
C149 C147 1.390 . S
C149 H159 0.929 . S
C150 O130 1.255 . S
C150 O131 1.257 . S
C151 Eu87 2.787 . S
C151 O126 1.252 . S
C151 O129 1.268 . S
C151 C144 1.506 . S
H152 C135 0.931 . S
H153 C136 0.931 . S
H154 C137 0.929 . S
H155 C138 0.930 . S
H156 C146 0.931 . S
H157 C147 0.931 . S
H158 C148 0.930 . S
H159 C149 0.929 . S
Eu160 N189 2.600 . S
Eu160 N195 2.562 . S
Eu160 O204 2.462 1_554 S
Eu160 O205 2.373 . S
Eu160 O207 2.432 1_554 S
Eu160 O208 2.291 . S
Eu160 O212 2.335 1_554 S
Eu160 O215 2.372 . S
Eu160 C224 2.787 1_554 S
C161 N162 1.365 . S
C161 C164 1.405 . S
C161 C168 1.448 . S
N162 C161 1.365 . S
N162 C165 1.319 . S
N162 Eu171 2.600 . S
C163 C165 1.397 . S
C163 C166 1.367 . S
C163 H183 0.931 . S
C164 C161 1.405 . S
C164 C166 1.403 . S
C164 C170 1.439 . S
C165 N162 1.319 . S
C165 C163 1.397 . S
C165 H176 0.930 . S
C166 C163 1.367 . S
C166 C164 1.403 . S
C166 H187 0.929 . S
C167 C168 1.430 . S
C167 C169 1.387 . S
C167 C173 1.404 . S
C168 C161 1.448 . S
C168 C167 1.430 . S
C168 N172 1.351 . S
C169 C167 1.387 . S
C169 C170 1.374 . S
C169 H184 0.931 . S
C170 C164 1.439 . S
C170 C169 1.374 . S
C170 H185 0.931 . S
Eu171 N162 2.600 . S
Eu171 N172 2.562 . S
Eu171 O206 2.335 . S
Eu171 O209 2.372 . S
Eu171 O210 2.462 . S
Eu171 O211 2.373 . S
Eu171 O213 2.432 . S
Eu171 O214 2.291 . S
Eu171 C235 2.787 . S
N172 C168 1.351 . S
N172 Eu171 2.562 . S
N172 C174 1.325 . S
C173 C167 1.404 . S
C173 C175 1.366 . S
C173 H181 0.930 . S
C174 N172 1.325 . S
C174 C175 1.416 . S
C174 H180 0.929 . S
C175 C173 1.366 . S
C175 C174 1.416 . S
C175 H177 0.930 . S
H176 C165 0.930 . S
H177 C175 0.930 . S
H178 C193 0.930 . S
H179 C200 0.930 . S
H180 C174 0.929 . S
H181 C173 0.930 . S
H182 C196 0.929 . S
H183 C163 0.931 . S
H184 C169 0.931 . S
H185 C170 0.931 . S
H186 C191 0.931 . S
H187 C166 0.929 . S
H188 C199 0.930 . S
N189 Eu160 2.600 . S
N189 C190 1.365 . S
N189 C193 1.319 1_554 S
C190 N189 1.365 . S
C190 C192 1.405 . S
C190 C198 1.448 . S
C191 H186 0.931 . S
C191 C193 1.397 . S
C191 C194 1.367 1_556 S
C192 C190 1.405 . S
C192 C194 1.403 . S
C192 C225 1.439 . S
C193 H178 0.930 . S
C193 N189 1.319 1_556 S
C193 C191 1.397 . S
C194 C191 1.367 1_554 S
C194 C192 1.403 . S
C194 H201 0.929 . S
N195 Eu160 2.562 . S
N195 C196 1.325 . S
N195 C198 1.351 . S
C196 H182 0.929 . S
C196 N195 1.325 . S
C196 C200 1.416 . S
C197 C198 1.430 . S
C197 C199 1.404 . S
C197 C226 1.387 . S
C198 C190 1.448 . S
C198 N195 1.351 . S
C198 C197 1.430 . S
C199 H188 0.930 . S
C199 C197 1.404 . S
C199 C200 1.366 . S
C200 H179 0.930 . S
C200 C196 1.416 . S
C200 C199 1.366 . S
H201 C194 0.929 . S
H202 C225 0.931 . S
H203 C226 0.931 . S
O204 Eu160 2.462 1_556 S
O204 C224 1.252 . S
O205 Eu160 2.373 . S
O205 C216 1.249 . S
O206 Eu171 2.335 . S
O206 C216 1.264 . S
O207 Eu160 2.432 1_556 S
O207 C224 1.268 . S
O208 Eu160 2.291 . S
O208 C223 1.255 . S
O209 Eu171 2.372 . S
O209 C223 1.257 . S
O210 Eu171 2.462 . S
O210 C235 1.252 . S
O211 Eu171 2.373 . S
O211 C227 1.249 1_554 S
O212 Eu160 2.335 1_556 S
O212 C227 1.264 . S
O213 Eu171 2.432 . S
O213 C235 1.268 . S
O214 Eu171 2.291 . S
O214 C234 1.255 . S
O215 Eu160 2.372 . S
O215 C234 1.257 . S
C216 O205 1.249 . S
C216 O206 1.264 . S
C217 C220 1.382 . S
C217 C222 1.390 . S
C217 C224 1.506 . S
C218 C219 1.398 . S
C218 C222 1.392 . S
C219 C218 1.398 . S
C219 C221 1.372 . S
C219 H236 0.931 . S
C220 C217 1.382 . S
C220 C221 1.390 . S
C220 H237 0.931 . S
C221 C219 1.372 . S
C221 C220 1.390 . S
C221 H238 0.929 . S
C222 C217 1.390 . S
C222 C218 1.392 . S
C222 H239 0.930 . S
C223 O208 1.255 . S
C223 O209 1.257 . S
C224 Eu160 2.787 1_556 S
C224 O204 1.252 . S
C224 O207 1.268 . S
C224 C217 1.506 . S
C225 C192 1.439 . S
C225 H202 0.931 . S
C225 C226 1.374 . S
C226 C197 1.387 . S
C226 H203 0.931 . S
C226 C225 1.374 . S
C227 O211 1.249 1_556 S
C227 O212 1.264 . S
C228 C231 1.382 . S
C228 C232 1.390 . S
C228 C235 1.506 . S
C229 C230 1.398 . S
C229 C232 1.392 . S
C230 C229 1.398 . S
C230 C233 1.372 . S
C230 H240 0.931 . S
C231 C228 1.382 . S
C231 C233 1.390 . S
C231 H241 0.931 . S
C232 C228 1.390 . S
C232 C229 1.392 . S
C232 H242 0.930 . S
C233 C230 1.372 . S
C233 C231 1.390 . S
C233 H243 0.929 . S
C234 O214 1.255 . S
C234 O215 1.257 . S
C235 Eu171 2.787 . S
C235 O210 1.252 . S
C235 O213 1.268 . S
C235 C228 1.506 . S
H236 C219 0.931 . S
H237 C220 0.931 . S
H238 C221 0.929 . S
H239 C222 0.930 . S
H240 C230 0.931 . S
H241 C231 0.931 . S
H242 C232 0.930 . S
H243 C233 0.929 . S
C244 C245 1.363 . S
C244 C250 1.379 . S
C244 N252 1.356 . S
C245 C244 1.363 . S
C245 C251 1.363 . S
C246 C247 1.363 . S
C246 C251 1.379 . S
C246 N253 1.356 . S
C247 C246 1.363 . S
C247 C250 1.363 . S
N248 C250 1.356 . S
N248 H260 0.984 . S
N248 H261 0.985 . S
N249 C251 1.356 . S
N249 H254 0.984 . S
N249 H255 0.985 . S
C250 C244 1.379 . S
C250 C247 1.363 . S
C250 N248 1.356 . S
C251 C245 1.363 . S
C251 C246 1.379 . S
C251 N249 1.356 . S
N252 C244 1.356 . S
N252 H258 0.984 . S
N252 H259 0.984 . S
N253 C246 1.356 . S
N253 H256 0.984 . S
N253 H257 0.985 . S
H254 N249 0.984 . S
H255 N249 0.985 . S
H256 N253 0.984 . S
H257 N253 0.985 . S
H258 N252 0.984 . S
H259 N252 0.984 . S
H260 N248 0.984 . S
H261 N248 0.985 . S
C262 C263 1.363 . S
C262 C268 1.379 . S
C262 N270 1.356 . S
C263 C262 1.363 . S
C263 C269 1.363 . S
C264 C265 1.363 . S
C264 C269 1.379 . S
C264 N271 1.356 1_554 S
C265 C264 1.363 . S
C265 C268 1.363 . S
N266 C268 1.356 . S
N266 H278 0.984 . S
N266 H279 0.985 . S
N267 C269 1.356 1_556 S
N267 H272 0.984 . S
N267 H273 0.985 . S
C268 C262 1.379 . S
C268 C265 1.363 . S
C268 N266 1.356 . S
C269 C263 1.363 . S
C269 C264 1.379 . S
C269 N267 1.356 1_554 S
N270 C262 1.356 . S
N270 H276 0.984 . S
N270 H277 0.984 . S
N271 C264 1.356 1_556 S
N271 H274 0.984 . S
N271 H275 0.985 . S
H272 N267 0.984 . S
H273 N267 0.985 . S
H274 N271 0.984 . S
H275 N271 0.985 . S
H276 N270 0.984 . S
H277 N270 0.984 . S
H278 N266 0.984 . S
H279 N266 0.985 . S
C280 C281 1.363 . S
C280 C286 1.379 . S
C280 N288 1.356 . S
C281 C280 1.363 . S
C281 C287 1.363 . S
C282 C283 1.363 . S
C282 C287 1.379 . S
C282 N289 1.356 . S
C283 C282 1.363 . S
C283 C286 1.363 . S
N284 C286 1.356 . S
N284 H296 0.984 . S
N284 H297 0.985 . S
N285 C287 1.356 . S
N285 H290 0.984 . S
N285 H291 0.985 . S
C286 C280 1.379 . S
C286 C283 1.363 . S
C286 N284 1.356 . S
C287 C281 1.363 . S
C287 C282 1.379 . S
C287 N285 1.356 . S
N288 C280 1.356 . S
N288 H294 0.984 . S
N288 H295 0.984 . S
N289 C282 1.356 . S
N289 H292 0.984 . S
N289 H293 0.985 . S
H290 N285 0.984 . S
H291 N285 0.985 . S
H292 N289 0.984 . S
H293 N289 0.985 . S
H294 N288 0.984 . S
H295 N288 0.984 . S
H296 N284 0.984 . S
H297 N284 0.985 . S
C298 C299 1.363 . S
C298 C304 1.379 . S
C298 N306 1.356 . S
C299 C298 1.363 . S
C299 C305 1.363 . S
C300 C301 1.363 . S
C300 C305 1.379 . S
C300 N307 1.356 1_554 S
C301 C300 1.363 . S
C301 C304 1.363 . S
N302 C304 1.356 . S
N302 H314 0.984 . S
N302 H315 0.985 . S
N303 C305 1.356 1_556 S
N303 H308 0.984 . S
N303 H309 0.985 . S
C304 C298 1.379 . S
C304 C301 1.363 . S
C304 N302 1.356 . S
C305 C299 1.363 . S
C305 C300 1.379 . S
C305 N303 1.356 1_554 S
N306 C298 1.356 . S
N306 H312 0.984 . S
N306 H313 0.984 . S
N307 C300 1.356 1_556 S
N307 H310 0.984 . S
N307 H311 0.985 . S
H308 N303 0.984 . S
H309 N303 0.985 . S
H310 N307 0.984 . S
H311 N307 0.985 . S
H312 N306 0.984 . S
H313 N306 0.984 . S
H314 N302 0.984 . S
H315 N302 0.985 . S
C316 C317 1.363 . S
C316 C322 1.379 . S
C316 N324 1.356 . S
C317 C316 1.363 . S
C317 C323 1.363 . S
C318 C319 1.363 . S
C318 C323 1.379 . S
C318 N325 1.356 1_565 S
C319 C318 1.363 . S
C319 C322 1.363 . S
N320 C322 1.356 . S
N320 H332 0.984 . S
N320 H333 0.985 . S
N321 C323 1.356 . S
N321 H326 0.984 . S
N321 H327 0.985 . S
C322 C316 1.379 . S
C322 C319 1.363 . S
C322 N320 1.356 . S
C323 C317 1.363 . S
C323 C318 1.379 . S
C323 N321 1.356 . S
N324 C316 1.356 . S
N324 H330 0.984 . S
N324 H331 0.984 . S
N325 C318 1.356 1_545 S
N325 H328 0.984 . S
N325 H329 0.985 . S
H326 N321 0.984 . S
H327 N321 0.985 . S
H328 N325 0.984 . S
H329 N325 0.985 . S
H330 N324 0.984 . S
H331 N324 0.984 . S
H332 N320 0.984 . S
H333 N320 0.985 . S
C334 C335 1.363 . S
C334 C340 1.379 . S
C334 N342 1.356 . S
C335 C334 1.363 . S
C335 C341 1.363 . S
C336 C337 1.363 . S
C336 C341 1.379 . S
C336 N343 1.356 . S
C337 C336 1.363 . S
C337 C340 1.363 . S
N338 C340 1.356 . S
N338 H350 0.984 1_556 S
N338 H351 0.985 1_556 S
N339 C341 1.356 . S
N339 H344 0.984 . S
N339 H345 0.985 . S
C340 C334 1.379 . S
C340 C337 1.363 . S
C340 N338 1.356 . S
C341 C335 1.363 . S
C341 C336 1.379 . S
C341 N339 1.356 . S
N342 C334 1.356 . S
N342 H348 0.984 . S
N342 H349 0.984 . S
N343 C336 1.356 . S
N343 H346 0.984 . S
N343 H347 0.985 . S
H344 N339 0.984 . S
H345 N339 0.985 . S
H346 N343 0.984 . S
H347 N343 0.985 . S
H348 N342 0.984 . S
H349 N342 0.984 . S
H350 N338 0.984 1_554 S
H351 N338 0.985 1_554 S
C352 C353 1.363 . S
C352 C358 1.379 . S
C352 N360 1.356 . S
C353 C352 1.363 . S
C353 C359 1.363 . S
C354 C355 1.363 . S
C354 C359 1.379 . S
C354 N361 1.356 . S
C355 C354 1.363 . S
C355 C358 1.363 . S
N356 C358 1.343 1_565 S
N356 H368 1.000 . S
N356 H369 0.983 . S
N357 C359 1.356 . S
N357 H362 0.984 . S
N357 H363 0.985 . S
C358 C352 1.379 . S
C358 C355 1.363 . S
C358 N356 1.343 1_545 S
C359 C353 1.363 . S
C359 C354 1.379 . S
C359 N357 1.356 . S
N360 C352 1.356 . S
N360 H366 0.984 . S
N360 H367 0.984 . S
N361 C354 1.356 . S
N361 H364 0.984 . S
N361 H365 0.985 . S
H362 N357 0.984 . S
H363 N357 0.985 . S
H364 N361 0.984 . S
H365 N361 0.985 . S
H366 N360 0.984 . S
H367 N360 0.984 . S
H368 N356 1.000 . S
H369 N356 0.983 . S
C370 C371 1.363 . S
C370 C376 1.379 . S
C370 N378 1.356 . S
C371 C370 1.363 . S
C371 C377 1.363 . S
C372 C373 1.363 . S
C372 C377 1.379 . S
C372 N379 1.356 . S
C373 C372 1.363 . S
C373 C376 1.363 . S
N374 C376 1.356 . S
N374 H386 0.984 . S
N374 H387 0.985 . S
N375 C377 1.356 . S
N375 H380 0.984 . S
N375 H381 0.985 . S
C376 C370 1.379 . S
C376 C373 1.363 . S
C376 N374 1.356 . S
C377 C371 1.363 . S
C377 C372 1.379 . S
C377 N375 1.356 . S
N378 C370 1.356 . S
N378 H384 0.984 . S
N378 H385 0.984 . S
N379 C372 1.356 . S
N379 H382 0.984 . S
N379 H383 0.985 . S
H380 N375 0.984 . S
H381 N375 0.985 . S
H382 N379 0.984 . S
H383 N379 0.985 . S
H384 N378 0.984 . S
H385 N378 0.984 . S
H386 N374 0.984 . S
H387 N374 0.985 . S
C388 C389 1.363 . S
C388 C394 1.379 . S
C388 N396 1.356 . S
C389 C388 1.363 . S
C389 C395 1.363 . S
C390 C391 1.363 . S
C390 C395 1.379 . S
C390 N397 1.356 . S
C391 C390 1.363 . S
C391 C394 1.363 . S
N392 C394 1.356 . S
N392 H404 0.984 . S
N392 H405 0.985 . S
N393 C395 1.356 . S
N393 H398 0.984 . S
N393 H399 0.985 . S
C394 C388 1.379 . S
C394 C391 1.363 . S
C394 N392 1.356 . S
C395 C389 1.363 . S
C395 C390 1.379 . S
C395 N393 1.356 . S
N396 C388 1.356 . S
N396 H402 0.984 . S
N396 H403 0.984 . S
N397 C390 1.356 . S
N397 H400 0.984 . S
N397 H401 0.985 . S
H398 N393 0.984 . S
H399 N393 0.985 . S
H400 N397 0.984 . S
H401 N397 0.985 . S
H402 N396 0.984 . S
H403 N396 0.984 . S
H404 N392 0.984 . S
H405 N392 0.985 . S
C406 C407 1.363 1_554 S
C406 C412 1.379 1_554 S
C406 N414 1.356 . S
C407 C406 1.363 1_556 S
C407 C413 1.363 . S
C408 C409 1.363 . S
C408 C413 1.379 . S
C408 N415 1.356 . S
C409 C408 1.363 . S
C409 C412 1.363 . S
N410 C412 1.356 . S
N410 H422 0.984 1_546 S
N410 H423 0.985 1_545 S
N411 C413 1.356 . S
N411 H416 0.984 . S
N411 H417 0.985 . S
C412 C406 1.379 1_556 S
C412 C409 1.363 . S
C412 N410 1.356 . S
C413 C407 1.363 . S
C413 C408 1.379 . S
C413 N411 1.356 . S
N414 C406 1.356 . S
N414 H420 0.984 . S
N414 H421 0.984 . S
N415 C408 1.356 . S
N415 H418 0.984 . S
N415 H419 0.985 . S
H416 N411 0.984 . S
H417 N411 0.985 . S
H418 N415 0.984 . S
H419 N415 0.985 . S
H420 N414 0.984 . S
H421 N414 0.984 . S
H422 N410 0.984 1_564 S
H423 N410 0.985 1_565 S
C424 C425 1.363 . S
C424 C430 1.379 . S
C424 N432 1.356 . S
C425 C424 1.363 . S
C425 C431 1.363 . S
C426 C427 1.363 . S
C426 C431 1.379 . S
C426 N433 1.356 . S
C427 C426 1.363 . S
C427 C430 1.363 . S
N428 C430 1.356 . S
N428 H440 0.984 . S
N428 H441 0.985 . S
N429 C431 1.356 . S
N429 H434 0.984 . S
N429 H435 0.985 . S
C430 C424 1.379 . S
C430 C427 1.363 . S
C430 N428 1.356 . S
C431 C425 1.363 . S
C431 C426 1.379 . S
C431 N429 1.356 . S
N432 C424 1.356 . S
N432 H438 0.984 . S
N432 H439 0.984 . S
N433 C426 1.356 . S
N433 H436 0.984 . S
N433 H437 0.985 . S
H434 N429 0.984 . S
H435 N429 0.985 . S
H436 N433 0.984 . S
H437 N433 0.985 . S
H438 N432 0.984 . S
H439 N432 0.984 . S
H440 N428 0.984 . S
H441 N428 0.985 . S
C442 C443 1.363 . S
C442 C448 1.379 . S
C442 N450 1.356 . S
C443 C442 1.363 . S
C443 C449 1.363 . S
C444 C445 1.363 . S
C444 C449 1.379 . S
C444 N451 1.356 . S
C445 C444 1.363 . S
C445 C448 1.363 . S
N446 C448 1.356 . S
N446 H458 0.984 1_565 S
N446 H459 0.985 . S
N447 C449 1.356 . S
N447 H452 0.984 . S
N447 H453 0.985 . S
C448 C442 1.379 . S
C448 C445 1.363 . S
C448 N446 1.356 . S
C449 C443 1.363 . S
C449 C444 1.379 . S
C449 N447 1.356 . S
N450 C442 1.356 . S
N450 H456 0.984 . S
N450 H457 0.984 . S
N451 C444 1.356 . S
N451 H454 0.984 . S
N451 H455 0.985 . S
H452 N447 0.984 . S
H453 N447 0.985 . S
H454 N451 0.984 . S
H455 N451 0.985 . S
H456 N450 0.984 . S
H457 N450 0.984 . S
H458 N446 0.984 1_545 S
H459 N446 0.985 . S
C247 C139 1.664 . S
C245 C68 1.636 . S
C263 C11 1.536 . S
C265 C234 1.702 . S
C281 C30 1.599 . S
C283 C150 1.695 . S
C299 C49 1.596 . S
C301 C223 1.642 . S
C319 C134 1.475 . S
C317 C2 1.648 . S
C337 C227 1.760 . S
C335 C25 1.754 . S
C353 C40 1.676 . S
C355 C143 1.706 . S
C371 C59 1.650 . S
C373 C218 1.488 . S
C391 C229 1.439 . S
C389 C21 1.599 . S
C409 C145 1.391 . S
C407 C44 1.590 1_556 S
C427 C216 1.661 . S
C425 C63 1.658 . S
C443 C6 1.634 . S
C445 C132 1.649 . S
