# Generated by pormake.
# Topology pts, (4,4)-cn, num edge types: 1
# Building blocks:
#     Node 0, Type 0, BuildingBlock: NAHDIM_clean_linker_0, # of connection points: 4
#     Node 1, Type 0, BuildingBlock: NAHDIM_clean_linker_0, # of connection points: 4
#     Node 2, Type 1, BuildingBlock: QUQFOY_clean_sbu_1, # of connection points: 4
#     Node 3, Type 1, BuildingBlock: QUQFOY_clean_sbu_1, # of connection points: 4
#     Edge 4, Type (0, 1), BuildingBlock: MIFKUJ_clean_linker_0, # of connection points: 2
#     Edge 5, Type (0, 1), BuildingBlock: MIFKUJ_clean_linker_0, # of connection points: 2
#     Edge 6, Type (0, 1), BuildingBlock: MIFKUJ_clean_linker_0, # of connection points: 2
#     Edge 7, Type (0, 1), BuildingBlock: MIFKUJ_clean_linker_0, # of connection points: 2
#     Edge 8, Type (0, 1), BuildingBlock: MIFKUJ_clean_linker_0, # of connection points: 2
#     Edge 9, Type (0, 1), BuildingBlock: MIFKUJ_clean_linker_0, # of connection points: 2
#     Edge 10, Type (0, 1), BuildingBlock: MIFKUJ_clean_linker_0, # of connection points: 2
#     Edge 11, Type (0, 1), BuildingBlock: MIFKUJ_clean_linker_0, # of connection points: 2
# Relax obj value: 0.113
# Max RMSD: 0.245
# Mean RMSD: 0.150
data_MOF--net-pts--node1-QUQFOY_clean_sbu_1--node2-NAHDIM_clean_linker_0--edge1-MIFKUJ_clean_linker_0
_symmetry_space_group_name_H-M    P1
_symmetry_Int_Tables_number       1
_symmetry_cell_setting            triclinic
loop_
_symmetry_equiv_pos_as_xyz
'x, y, z'
_cell_length_a     36.627225
_cell_length_b     40.581421
_cell_length_c     67.460405
_cell_angle_alpha  90.238156
_cell_angle_beta   89.356475
_cell_angle_gamma 89.991169
loop_
_atom_site_label
_atom_site_type_symbol
_atom_site_fract_x
_atom_site_fract_y
_atom_site_fract_z
_atom_type_partial_charge
C0 C 0.73556 0.09641 0.07195 0.0
C1 C 0.71755 0.07285 0.08677 0.0
C2 C 0.67827 0.03495 0.06785 0.0
C3 C 0.67457 0.00227 0.06164 0.0
C4 C 0.64298 0.99145 0.05206 0.0
C5 C 0.61434 0.01401 0.04865 0.0
C6 C 0.61806 0.0473 0.05457 0.0
C7 C 0.65013 0.05755 0.06398 0.0
C8 C 0.64002 0.95583 0.04576 0.0
C9 C 0.58795 0.07194 0.0511 0.0
C10 C 0.45816 0.90779 0.14122 0.0
C11 C 0.44497 0.93456 0.1271 0.0
C12 C 0.4565 0.93475 0.09163 0.0
C13 C 0.45563 0.96883 0.08833 0.0
C14 C 0.47432 0.98265 0.07213 0.0
C15 C 0.49473 0.96196 0.05919 0.0
C16 C 0.49405 0.92737 0.06195 0.0
C17 C 0.47423 0.91417 0.07798 0.0
C18 C 0.47356 0.01952 0.06935 0.0
C19 C 0.51586 0.9045 0.04867 0.0
C20 C 0.39719 0.93758 0.94009 0.0
C21 C 0.39931 0.97173 0.94349 0.0
C22 C 0.43189 0.9862 0.94998 0.0
C23 C 0.46293 0.96616 0.95295 0.0
C24 C 0.4614 0.93211 0.9485 0.0
C25 C 0.4285 0.91829 0.94204 0.0
C26 C 0.43296 0.02274 0.95417 0.0
C27 C 0.49423 0.91016 0.95115 0.0
C28 C 0.72186 0.09155 0.92976 0.0
C29 C 0.70746 0.05963 0.92056 0.0
C30 C 0.64228 0.04889 0.92255 0.0
C31 C 0.61101 0.06735 0.92686 0.0
C32 C 0.58146 0.05332 0.93721 0.0
C33 C 0.58319 0.01984 0.94292 0.0
C34 C 0.61354 0.00036 0.93708 0.0
C35 C 0.64289 0.01515 0.92697 0.0
C36 C 0.54924 0.07462 0.94292 0.0
C37 C 0.61568 0.96431 0.94232 0.0
C38 C 0.57996 0.00242 0.03957 0.0
C39 C 0.55347 0.98884 0.05208 0.0
C40 C 0.52061 0.97675 0.04467 0.0
C41 C 0.51377 0.97826 0.0241 0.0
C42 C 0.4809 0.96668 0.01612 0.0
C43 C 0.47501 0.9674 0.99576 0.0
C44 C 0.50165 0.98005 0.98264 0.0
C45 C 0.49626 0.98033 0.9619 0.0
C46 C 0.5231 0.99345 0.9493 0.0
C47 C 0.55549 0.0063 0.95689 0.0
C48 C 0.56154 0.00596 0.97757 0.0
C49 C 0.59397 0.01851 0.98568 0.0
C50 C 0.60007 0.01739 0.00596 0.0
C51 C 0.57383 0.004 0.01897 0.0
C52 C 0.54068 0.99172 0.01119 0.0
C53 C 0.53457 0.99265 0.99046 0.0
C54 C 0.3055 0.90578 0.94417 0.0
C55 C 0.33053 0.93424 0.93806 0.0
O56 O 0.70938 0.0433 0.07745 0.0
O57 O 0.67175 0.06439 0.91457 0.0
O58 O 0.36559 0.92225 0.93511 0.0
O59 O 0.44173 0.92126 0.10824 0.0
H60 H 0.69226 0.08433 0.09293 0.0
H61 H 0.71683 0.10132 0.05948 0.0
H62 H 0.7612 0.08555 0.06584 0.0
H63 H 0.74195 0.12027 0.07926 0.0
H64 H 0.69654 0.9851 0.06453 0.0
H65 H 0.65284 0.08314 0.06823 0.0
H66 H 0.61734 0.94386 0.05408 0.0
H67 H 0.66557 0.94186 0.04844 0.0
H68 H 0.6335 0.9543 0.02975 0.0
H69 H 0.59479 0.09687 0.05682 0.0
H70 H 0.56237 0.06344 0.05844 0.0
H71 H 0.58254 0.07372 0.03498 0.0
H72 H 0.46635 0.95414 0.12721 0.0
H73 H 0.4607 0.91789 0.15649 0.0
H74 H 0.4854 0.89871 0.13627 0.0
H75 H 0.43896 0.8866 0.1415 0.0
H76 H 0.44091 0.98465 0.09864 0.0
H77 H 0.47428 0.88784 0.08059 0.0
H78 H 0.5 0.03011 0.07413 0.0
H79 H 0.45134 0.03134 0.07819 0.0
H80 H 0.46995 0.02568 0.05347 0.0
H81 H 0.51391 0.8784 0.05348 0.0
H82 H 0.54504 0.91194 0.04853 0.0
H83 H 0.50587 0.90623 0.03325 0.0
H84 H 0.32986 0.95204 0.95068 0.0
H85 H 0.37563 0.98717 0.94124 0.0
H86 H 0.42675 0.89208 0.93905 0.0
H87 H 0.43872 0.02696 0.97011 0.0
H88 H 0.40687 0.03515 0.95049 0.0
H89 H 0.45542 0.0343 0.94547 0.0
H90 H 0.48926 0.8846 0.94587 0.0
H91 H 0.50146 0.90933 0.96708 0.0
H92 H 0.51806 0.92043 0.94294 0.0
H93 H 0.70887 0.04072 0.93246 0.0
H94 H 0.75073 0.08843 0.93428 0.0
H95 H 0.70533 0.09792 0.94314 0.0
H96 H 0.72009 0.11234 0.91915 0.0
H97 H 0.6106 0.09324 0.92299 0.0
H98 H 0.66656 0.00054 0.92285 0.0
H99 H 0.54706 0.07632 0.95933 0.0
H100 H 0.52365 0.0632 0.9375 0.0
H101 H 0.55151 0.09992 0.9368 0.0
H102 H 0.63852 0.95164 0.93444 0.0
H103 H 0.58968 0.95174 0.93865 0.0
H104 H 0.61981 0.96182 0.95852 0.0
H105 H 0.55866 0.98741 0.06787 0.0
H106 H 0.45949 0.95669 0.02552 0.0
H107 H 0.44931 0.95785 0.99045 0.0
H108 H 0.51881 0.9935 0.93341 0.0
H109 H 0.61518 0.02919 0.97644 0.0
H110 H 0.62566 0.02713 0.01132 0.0
H111 H 0.27712 0.91479 0.94652 0.0
H112 H 0.31514 0.89495 0.95827 0.0
H113 H 0.30548 0.88612 0.93266 0.0
C114 C 0.12784 0.34548 0.57675 0.0
C115 C 0.1018 0.35619 0.59359 0.0
C116 C 0.06391 0.39839 0.57758 0.0
C117 C 0.02932 0.40511 0.57006 0.0
C118 C 0.02204 0.4348 0.56025 0.0
C119 C 0.05031 0.45821 0.55775 0.0
C120 C 0.08507 0.45212 0.56588 0.0
C121 C 0.09148 0.42241 0.57582 0.0
C122 C 0.98448 0.44075 0.55204 0.0
C123 C 0.11577 0.47667 0.56356 0.0
C124 C 0.94136 0.64765 0.61562 0.0
C125 C 0.98058 0.65526 0.60907 0.0
C126 C 0.99467 0.63141 0.57719 0.0
C127 C 0.03104 0.6211 0.57818 0.0
C128 C 0.04342 0.594 0.56699 0.0
C129 C 0.01854 0.57658 0.55489 0.0
C130 C 0.98173 0.58724 0.55383 0.0
C131 C 0.97048 0.61503 0.56473 0.0
C132 C 0.08291 0.58378 0.56832 0.0
C133 C 0.95404 0.56892 0.54157 0.0
C134 C 0.03119 0.62815 0.42333 0.0
C135 C 0.06629 0.61604 0.42664 0.0
C136 C 0.07209 0.58875 0.43892 0.0
C137 C 0.0418 0.57274 0.44781 0.0
C138 C 0.00608 0.58469 0.44445 0.0
C139 C 0.00121 0.61266 0.43259 0.0
C140 C 0.11059 0.57698 0.44232 0.0
C141 C 0.97294 0.5678 0.45323 0.0
C142 C 0.07812 0.31692 0.45579 0.0
C143 C 0.06083 0.32904 0.43657 0.0
C144 C 0.07325 0.3882 0.43587 0.0
C145 C 0.10332 0.40882 0.43862 0.0
C146 C 0.09892 0.44083 0.44627 0.0
C147 C 0.06345 0.45249 0.45094 0.0
C148 C 0.03274 0.43252 0.44692 0.0
C149 C 0.03794 0.40059 0.43935 0.0
C150 C 0.13217 0.46172 0.45011 0.0
C151 C 0.99446 0.44458 0.4512 0.0
C152 C 0.0445 0.48792 0.5454 0.0
C153 C 0.03481 0.51744 0.55479 0.0
C154 C 0.03056 0.54653 0.54398 0.0
C155 C 0.03648 0.54631 0.52321 0.0
C156 C 0.03422 0.57534 0.51196 0.0
C157 C 0.03853 0.57454 0.49143 0.0
C158 C 0.04494 0.54465 0.48134 0.0
C159 C 0.04742 0.54322 0.46039 0.0
C160 C 0.05404 0.51303 0.45089 0.0
C161 C 0.0585 0.48411 0.46177 0.0
C162 C 0.05632 0.48511 0.4827 0.0
C163 C 0.06107 0.45649 0.49407 0.0
C164 C 0.05779 0.45745 0.5146 0.0
C165 C 0.0491 0.48697 0.52457 0.0
C166 C 0.04492 0.51624 0.51344 0.0
C167 C 0.0489 0.51537 0.49248 0.0
C168 C 0.97434 0.65103 0.39059 0.0
C169 C 0.99604 0.67087 0.40592 0.0
O170 O 0.06949 0.36838 0.58602 0.0
O171 O 0.0793 0.35669 0.42976 0.0
O172 O 0.02773 0.65433 0.41094 0.0
O173 O 0.98235 0.65668 0.58857 0.0
H174 H 0.11543 0.37564 0.60253 0.0
H175 H 0.13629 0.36693 0.56767 0.0
H176 H 0.11451 0.32733 0.56681 0.0
H177 H 0.15288 0.33422 0.58296 0.0
H178 H 0.00809 0.38667 0.57161 0.0
H179 H 0.1183 0.41808 0.58179 0.0
H180 H 0.97435 0.4654 0.55674 0.0
H181 H 0.96454 0.42175 0.55694 0.0
H182 H 0.98594 0.44053 0.53559 0.0
H183 H 0.14129 0.46832 0.57074 0.0
H184 H 0.10749 0.50066 0.57018 0.0
H185 H 0.12151 0.48087 0.54757 0.0
H186 H 0.99829 0.63498 0.61461 0.0
H187 H 0.93942 0.64629 0.63205 0.0
H188 H 0.93278 0.62352 0.60939 0.0
H189 H 0.92235 0.66697 0.6103 0.0
H190 H 0.04961 0.63427 0.58778 0.0
H191 H 0.94241 0.6234 0.56414 0.0
H192 H 0.0944 0.5786 0.55332 0.0
H193 H 0.08479 0.5608 0.57711 0.0
H194 H 0.09986 0.60295 0.57559 0.0
H195 H 0.92568 0.57722 0.54482 0.0
H196 H 0.95581 0.542 0.54432 0.0
H197 H 0.95983 0.57306 0.5256 0.0
H198 H 0.97879 0.67476 0.41941 0.0
H199 H 0.08929 0.62816 0.41952 0.0
H200 H 0.97384 0.62189 0.43051 0.0
H201 H 0.11536 0.57371 0.45842 0.0
H202 H 0.1313 0.59436 0.43628 0.0
H203 H 0.11456 0.55265 0.43502 0.0
H204 H 0.94715 0.57672 0.4466 0.0
H205 H 0.97166 0.57262 0.46942 0.0
H206 H 0.97479 0.54071 0.45102 0.0
H207 H 0.03187 0.33488 0.44011 0.0
H208 H 0.06437 0.29406 0.46097 0.0
H209 H 0.07496 0.33601 0.46753 0.0
H210 H 0.10772 0.31192 0.45362 0.0
H211 H 0.13042 0.3993 0.43546 0.0
H212 H 0.01432 0.38559 0.43616 0.0
H213 H 0.13452 0.46636 0.46628 0.0
H214 H 0.12922 0.486 0.44277 0.0
H215 H 0.15772 0.44981 0.44468 0.0
H216 H 0.97337 0.4272 0.44573 0.0
H217 H 0.99019 0.46898 0.44419 0.0
H218 H 0.99061 0.44781 0.46744 0.0
H219 H 0.03052 0.51777 0.57073 0.0
H220 H 0.0289 0.59897 0.51891 0.0
H221 H 0.03631 0.59762 0.48354 0.0
H222 H 0.05524 0.51194 0.43482 0.0
H223 H 0.06731 0.43293 0.48725 0.0
H224 H 0.06168 0.43459 0.52251 0.0
H225 H 0.9913 0.64585 0.37718 0.0
H226 H 0.96519 0.62712 0.39678 0.0
H227 H 0.94966 0.66498 0.38614 0.0
O228 O 0.00283 0.99092 0.2375 0.0
Cd229 Cd 0.05013 0.98163 0.25263 0.0
Cd230 Cd 0.05658 0.04787 0.25416 0.0
O231 O 0.00692 0.04501 0.24001 0.0
O232 O 0.0481 0.93503 0.26145 0.0
O233 O 0.04909 0.97727 0.28234 0.0
C234 C 0.0482 0.94578 0.27946 0.0
C235 C 0.05996 0.08427 0.28088 0.0
C236 C 0.99005 0.01944 0.23419 0.0
C237 C 0.11549 0.01122 0.23217 0.0
O238 O 0.10376 0.03927 0.23776 0.0
O239 O 0.09818 0.98521 0.23681 0.0
O240 O 0.05948 0.09463 0.26285 0.0
O241 O 0.05889 0.05284 0.28382 0.0
O242 O -0.00035 0.04062 0.76821 0.0
Cd243 Cd 0.04956 0.04806 0.7546 0.0
Cd244 Cd 0.05125 0.98065 0.7537 0.0
O245 O 0.00425 0.98658 0.77057 0.0
O246 O 0.05089 0.09567 0.74795 0.0
O247 O 0.05307 0.05627 0.72519 0.0
C248 C 0.05323 0.08732 0.72953 0.0
C249 C 0.04911 0.93999 0.72911 0.0
C250 C 0.98709 0.01319 0.7742 0.0
C251 C 0.11266 0.01472 0.77444 0.0
O252 O 0.10043 0.98777 0.76757 0.0
O253 O 0.0957 0.04153 0.77148 0.0
O254 O 0.05188 0.93274 0.74759 0.0
O255 O 0.0478 0.97078 0.72438 0.0
H256 H 0.4313 0.99584 0.14282 0.0
H257 H 0.3743 0.01654 0.15749 0.0
H258 H 0.32092 0.92496 0.14283 0.0
H259 H 0.37762 0.90463 0.12757 0.0
H260 H 0.27561 0.97529 0.13751 0.0
H261 H 0.3566 0.93959 0.18917 0.0
H262 H 0.41413 0.93908 0.20782 0.0
H263 H 0.40103 0.0419 0.22144 0.0
H264 H 0.34364 0.04311 0.20262 0.0
H265 H 0.13888 0.95784 0.21097 0.0
H266 H 0.19362 0.95304 0.19025 0.0
H267 H 0.22272 0.05332 0.20437 0.0
H268 H 0.16752 0.05854 0.22513 0.0
H269 H 0.28021 0.00713 0.20856 0.0
H270 H 0.19359 0.0396 0.16016 0.0
H271 H 0.13525 0.0378 0.14231 0.0
H272 H 0.15793 0.93868 0.12338 0.0
H273 H 0.21619 0.93969 0.14137 0.0
C274 C 0.40722 0.98037 0.14247 0.0
C275 C 0.40885 0.94856 0.13419 0.0
C276 C 0.37475 0.99214 0.15093 0.0
C277 C 0.34353 0.97207 0.15158 0.0
C278 C 0.34469 0.94085 0.14253 0.0
C279 C 0.37706 0.9292 0.1339 0.0
C280 C 0.31034 0.98262 0.16271 0.0
C281 C 0.27659 0.9821 0.15307 0.0
C282 C 0.31172 0.99227 0.1829 0.0
C283 C 0.34608 0.99153 0.19431 0.0
C284 C 0.36614 0.96214 0.19603 0.0
C285 C 0.39869 0.96172 0.20664 0.0
C286 C 0.41129 0.99046 0.21576 0.0
C287 C 0.39128 0.01967 0.21433 0.0
C288 C 0.35874 0.02024 0.2037 0.0
C289 C 0.15684 0.97895 0.20969 0.0
C290 C 0.14888 0.00858 0.21973 0.0
C291 C 0.18799 0.9762 0.19774 0.0
C292 C 0.21195 0.00293 0.19565 0.0
C293 C 0.20439 0.03249 0.20575 0.0
C294 C 0.17288 0.03542 0.21756 0.0
C295 C 0.24552 0.9992 0.18345 0.0
C296 C 0.27933 0.00091 0.19292 0.0
C297 C 0.24413 0.99035 0.16317 0.0
C298 C 0.20917 0.98965 0.15225 0.0
C299 C 0.18602 0.01732 0.15232 0.0
C300 C 0.15298 0.01646 0.14216 0.0
C301 C 0.14286 0.98812 0.13175 0.0
C302 C 0.1658 0.96061 0.13146 0.0
C303 C 0.19886 0.96133 0.14162 0.0
H304 H 0.11727 0.9875 0.12389 0.0
H305 H 0.4365 0.99009 0.22397 0.0
H306 H 0.11946 0.34834 0.63274 0.0
H307 H 0.109 0.3005 0.65386 0.0
H308 H 0.05604 0.25028 0.60555 0.0
H309 H 0.0649 0.29891 0.58462 0.0
H310 H 0.02106 0.23723 0.63829 0.0
H311 H 0.14592 0.23298 0.61855 0.0
H312 H 0.20857 0.25349 0.61309 0.0
H313 H 0.22024 0.2694 0.67567 0.0
H314 H 0.15744 0.24944 0.68149 0.0
H315 H 0.04295 0.08091 0.68943 0.0
H316 H 0.04907 0.12422 0.66422 0.0
H317 H 0.07818 0.1942 0.70963 0.0
H318 H 0.07155 0.15156 0.73481 0.0
H319 H 0.12613 0.19215 0.67525 0.0
H320 H 0.99734 0.19856 0.69331 0.0
H321 H 0.93535 0.17565 0.69732 0.0
H322 H 0.93319 0.15141 0.63532 0.0
H323 H 0.99543 0.17378 0.631 0.0
C324 C 0.10534 0.32721 0.62667 0.0
C325 C 0.0934 0.32721 0.60695 0.0
C326 C 0.09961 0.29975 0.6387 0.0
C327 C 0.08258 0.2714 0.63115 0.0
C328 C 0.06952 0.27173 0.61166 0.0
C329 C 0.07475 0.29943 0.59969 0.0
C330 C 0.07883 0.24145 0.64361 0.0
C331 C 0.04419 0.22707 0.64609 0.0
C332 C 0.10896 0.22806 0.65384 0.0
C333 C 0.14685 0.23994 0.65043 0.0
C334 C 0.16175 0.24106 0.63114 0.0
C335 C 0.19731 0.25256 0.62798 0.0
C336 C 0.21835 0.2628 0.64402 0.0
C337 C 0.2039 0.26148 0.66326 0.0
C338 C 0.16834 0.25004 0.6665 0.0
C339 C 0.0506 0.10555 0.694 0.0
C340 C 0.05672 0.11287 0.71408 0.0
C341 C 0.05399 0.13021 0.67962 0.0
C342 C 0.06403 0.16232 0.68513 0.0
C343 C 0.07044 0.16954 0.70512 0.0
C344 C 0.0665 0.14516 0.71948 0.0
C345 C 0.06837 0.18865 0.6702 0.0
C346 C 0.10318 0.20221 0.66723 0.0
C347 C 0.03859 0.20082 0.65928 0.0
C348 C 0.00119 0.18746 0.66189 0.0
C349 C 0.98379 0.18805 0.68057 0.0
C350 C 0.94858 0.17523 0.68289 0.0
C351 C 0.93039 0.16198 0.6666 0.0
C352 C 0.94734 0.16162 0.64794 0.0
C353 C 0.98257 0.17438 0.64554 0.0
H354 H 0.90313 0.15208 0.66842 0.0
H355 H 0.24587 0.2717 0.64154 0.0
H356 H 0.7695 0.02376 0.09075 0.0
H357 H 0.81039 0.01448 0.11857 0.0
H358 H 0.76586 0.0997 0.1486 0.0
H359 H 0.72419 0.10882 0.12092 0.0
H360 H 0.84345 0.09691 0.14686 0.0
H361 H 0.7416 0.02845 0.16533 0.0
H362 H 0.69522 0.98539 0.15999 0.0
H363 H 0.77977 0.91357 0.15042 0.0
H364 H 0.82668 0.95632 0.15541 0.0
H365 H 0.94298 0.07154 0.23395 0.0
H366 H 0.89133 0.07997 0.21191 0.0
H367 H 0.91161 0.98507 0.18479 0.0
H368 H 0.96207 0.97586 0.20749 0.0
H369 H 0.84224 0.99427 0.1866 0.0
H370 H 0.94353 0.0604 0.16439 0.0
H371 H 0.99225 0.10199 0.16753 0.0
H372 H 0.91224 0.17621 0.18133 0.0
H373 H 0.86307 0.13494 0.17852 0.0
C374 C 0.76797 0.04025 0.1034 0.0
C375 C 0.7429 0.06655 0.10392 0.0
C376 C 0.79139 0.03492 0.11925 0.0
C377 C 0.79067 0.05612 0.13572 0.0
C378 C 0.76649 0.08291 0.13608 0.0
C379 C 0.74272 0.08802 0.12033 0.0
C380 C 0.81613 0.05084 0.15226 0.0
C381 C 0.84286 0.07476 0.15582 0.0
C382 C 0.81584 0.02147 0.16347 0.0
C383 C 0.78766 0.99567 0.16057 0.0
C384 C 0.75031 0.00354 0.16192 0.0
C385 C 0.72392 0.97917 0.15899 0.0
C386 C 0.73454 0.94678 0.15482 0.0
C387 C 0.77158 0.93868 0.15363 0.0
C388 C 0.79808 0.96296 0.15653 0.0
C389 C 0.9361 0.05233 0.22344 0.0
C390 C 0.95673 0.02318 0.2223 0.0
C391 C 0.90671 0.05723 0.21078 0.0
C392 C 0.89815 0.03354 0.19631 0.0
C393 C 0.91775 0.00379 0.19575 0.0
C394 C 0.94663 0.99856 0.20872 0.0
C395 C 0.86998 0.04027 0.18118 0.0
C396 C 0.84274 0.0166 0.17782 0.0
C397 C 0.87018 0.06964 0.16986 0.0
C398 C 0.89968 0.09452 0.17145 0.0
C399 C 0.93636 0.08555 0.16822 0.0
C400 C 0.96405 0.10906 0.16992 0.0
C401 C 0.95536 0.1417 0.17468 0.0
C402 C 0.91894 0.15091 0.17768 0.0
C403 C 0.89115 0.12748 0.17602 0.0
H404 H 0.97683 0.15987 0.176 0.0
H405 H 0.71407 0.92795 0.15256 0.0
H406 H 0.01985 0.66408 0.64282 0.0
H407 H 0.03389 0.71566 0.65997 0.0
H408 H 0.98158 0.77055 0.61362 0.0
H409 H 0.96735 0.71881 0.59634 0.0
H410 H 0.0482 0.79993 0.62794 0.0
H411 H 0.93401 0.75777 0.65245 0.0
H412 H 0.8928 0.71503 0.66578 0.0
H413 H 0.96062 0.70493 0.7169 0.0
H414 H 0.0026 0.74724 0.70371 0.0
H415 H 0.02944 0.94492 0.69003 0.0
H416 H 0.02015 0.89947 0.6665 0.0
H417 H 0.05407 0.82997 0.7109 0.0
H418 H 0.06255 0.87485 0.73444 0.0
H419 H 0.99258 0.81081 0.69506 0.0
H420 H 0.10845 0.85047 0.67024 0.0
H421 H 0.15126 0.89186 0.65682 0.0
H422 H 0.08193 0.90628 0.60668 0.0
H423 H 0.03845 0.86526 0.61995 0.0
C424 C 0.01199 0.68718 0.63609 0.0
C425 C 0.99295 0.68747 0.61813 0.0
C426 C 0.01991 0.71658 0.64591 0.0
C427 C 0.00861 0.74684 0.63808 0.0
C428 C 0.99069 0.74742 0.61982 0.0
C429 C 0.9826 0.71792 0.60999 0.0
C430 C 0.01316 0.77742 0.64984 0.0
C431 C 0.03567 0.80265 0.6425 0.0
C432 C 0.99708 0.78064 0.6689 0.0
C433 C 0.97161 0.75549 0.67701 0.0
C434 C 0.94028 0.74627 0.66647 0.0
C435 C 0.91677 0.72213 0.674 0.0
C436 C 0.92412 0.70723 0.69216 0.0
C437 C 0.95497 0.71648 0.70284 0.0
C438 C 0.97862 0.74056 0.69534 0.0
C439 C 0.03525 0.91995 0.69466 0.0
C440 C 0.04647 0.91343 0.71412 0.0
C441 C 0.03005 0.89403 0.68119 0.0
C442 C 0.03645 0.86129 0.68693 0.0
C443 C 0.04872 0.85498 0.70617 0.0
C444 C 0.05361 0.88072 0.71961 0.0
C445 C 0.02858 0.83317 0.67348 0.0
C446 C 0.00509 0.80836 0.68047 0.0
C447 C 0.04391 0.83041 0.65418 0.0
C448 C 0.06999 0.85509 0.64621 0.0
C449 C 0.10217 0.86269 0.65644 0.0
C450 C 0.12659 0.88603 0.64885 0.0
C451 C 0.11926 0.90177 0.63094 0.0
C452 C 0.08754 0.89412 0.62057 0.0
C453 C 0.06301 0.87081 0.62811 0.0
H454 H 0.13821 0.91983 0.62508 0.0
H455 H 0.90589 0.68855 0.69797 0.0
H456 H 0.33194 0.9094 0.90012 0.0
H457 H 0.30379 0.93246 0.87058 0.0
H458 H 0.27027 0.01813 0.90429 0.0
H459 H 0.29745 0.99449 0.93405 0.0
H460 H 0.21536 0.9956 0.88489 0.0
H461 H 0.33722 0.02214 0.86703 0.0
H462 H 0.40314 0.01334 0.86149 0.0
H463 H 0.38017 0.94115 0.81662 0.0
H464 H 0.31407 0.94912 0.8221 0.0
H465 H 0.13604 0.06355 0.79933 0.0
H466 H 0.18242 0.05901 0.82499 0.0
H467 H 0.20787 0.96041 0.80519 0.0
H468 H 0.16143 0.96457 0.77957 0.0
H469 H 0.27044 0.99858 0.81737 0.0
H470 H 0.14858 0.9674 0.84023 0.0
H471 H 0.08288 0.97758 0.84586 0.0
H472 H 0.108 0.06199 0.88181 0.0
H473 H 0.17389 0.05256 0.87612 0.0
C474 C 0.319 0.93336 0.90111 0.0
C475 C 0.31686 0.9502 0.91933 0.0
C476 C 0.30316 0.94666 0.88421 0.0
C477 C 0.28526 0.97727 0.88512 0.0
C478 C 0.28401 0.99454 0.90321 0.0
C479 C 0.29958 0.98108 0.92017 0.0
C480 C 0.26496 0.98959 0.86771 0.0
C481 C 0.22776 0.99702 0.87024 0.0
C482 C 0.28085 0.99099 0.84848 0.0
C483 C 0.32062 0.98608 0.84509 0.0
C484 C 0.34619 0.00419 0.85609 0.0
C485 C 0.38361 0.99938 0.85294 0.0
C486 C 0.39583 0.97665 0.83874 0.0
C487 C 0.37066 0.95873 0.82763 0.0
C488 C 0.3332 0.96342 0.83073 0.0
C489 C 0.15204 0.04115 0.80014 0.0
C490 C 0.14473 0.01423 0.78759 0.0
C491 C 0.17851 0.03863 0.81481 0.0
C492 C 0.19825 0.00927 0.81706 0.0
C493 C 0.1929 0.98327 0.80366 0.0
C494 C 0.1662 0.98564 0.78911 0.0
C495 C 0.22114 0.00406 0.8347 0.0
C496 C 0.25856 0.99782 0.83217 0.0
C497 C 0.20565 0.00403 0.85399 0.0
C498 C 0.16609 0.00952 0.85755 0.0
C499 C 0.14007 0.98829 0.84919 0.0
C500 C 0.10281 0.9939 0.85242 0.0
C501 C 0.09127 0.02048 0.86413 0.0
C502 C 0.11698 0.04145 0.8727 0.0
C503 C 0.15428 0.03599 0.86949 0.0
H504 H 0.06241 0.02478 0.86662 0.0
H505 H 0.42481 0.97297 0.83632 0.0
H506 H 0.12099 0.30114 0.41826 0.0
H507 H 0.12247 0.25764 0.393 0.0
H508 H 0.00467 0.25462 0.39357 0.0
H509 H 0.00316 0.29707 0.41937 0.0
H510 H 0.02949 0.1948 0.39178 0.0
H511 H 0.05443 0.29487 0.35671 0.0
H512 H 0.08667 0.34685 0.34941 0.0
H513 H 0.18645 0.29347 0.33935 0.0
H514 H 0.15489 0.24119 0.34687 0.0
H515 H 0.0467 0.1501 0.27946 0.0
H516 H 0.04767 0.18971 0.30667 0.0
H517 H 0.07838 0.11244 0.34699 0.0
H518 H 0.07598 0.07226 0.31981 0.0
H519 H 0.09804 0.21178 0.32882 0.0
H520 H 0.04692 0.12993 0.39341 0.0
H521 H 0.00758 0.08138 0.39891 0.0
H522 H 0.94742 0.10423 0.34646 0.0
H523 H 0.9861 0.15312 0.34079 0.0
C524 C 0.09547 0.291 0.41306 0.0
C525 C 0.06197 0.30246 0.42079 0.0
C526 C 0.09631 0.2663 0.39856 0.0
C527 C 0.06366 0.25308 0.39122 0.0
C528 C 0.03021 0.26436 0.39903 0.0
C529 C 0.02937 0.28875 0.41368 0.0
C530 C 0.06417 0.22785 0.3752 0.0
C531 C 0.04456 0.19848 0.37803 0.0
C532 C 0.08335 0.2328 0.35713 0.0
C533 C 0.10239 0.26417 0.35256 0.0
C534 C 0.08331 0.29425 0.35309 0.0
C535 C 0.10145 0.32376 0.34889 0.0
C536 C 0.13861 0.32347 0.34398 0.0
C537 C 0.15768 0.29366 0.3432 0.0
C538 C 0.13968 0.26408 0.34741 0.0
C539 C 0.0536 0.14147 0.29413 0.0
C540 C 0.06116 0.10803 0.29752 0.0
C541 C 0.05426 0.1642 0.30967 0.0
C542 C 0.06283 0.15411 0.32894 0.0
C543 C 0.07101 0.12076 0.33233 0.0
C544 C 0.06978 0.09783 0.31679 0.0
C545 C 0.06317 0.17874 0.34532 0.0
C546 C 0.08312 0.20797 0.34261 0.0
C547 C 0.04331 0.17411 0.36322 0.0
C548 C 0.01969 0.14494 0.36657 0.0
C549 C 0.02523 0.12462 0.38309 0.0
C550 C 0.00306 0.09705 0.38623 0.0
C551 C 0.97511 0.08966 0.373 0.0
C552 C 0.96918 0.1099 0.35664 0.0
C553 C 0.99124 0.13752 0.35345 0.0
H554 H 0.95799 0.06829 0.37545 0.0
H555 H 0.1526 0.34634 0.34072 0.0
H556 H 0.75088 0.00473 0.91714 0.0
H557 H 0.79322 0.99022 0.8902 0.0
H558 H 0.76036 0.0769 0.8581 0.0
H559 H 0.71691 0.09074 0.8847 0.0
H560 H 0.77126 0.02772 0.83307 0.0
H561 H 0.83798 0.07567 0.88693 0.0
H562 H 0.85865 0.0812 0.92145 0.0
H563 H 0.90492 0.98403 0.91875 0.0
H564 H 0.88405 0.97775 0.88428 0.0
H565 H 0.93493 0.06107 0.77776 0.0
H566 H 0.88216 0.06179 0.80033 0.0
H567 H 0.9109 0.96515 0.82142 0.0
H568 H 0.96346 0.96395 0.79867 0.0
H569 H 0.90116 0.01406 0.85148 0.0
H570 H 0.83866 0.9698 0.79547 0.0
H571 H 0.81936 0.96736 0.7606 0.0
H572 H 0.76696 0.06153 0.76695 0.0
H573 H 0.78642 0.06477 0.80179 0.0
C574 C 0.75239 0.02043 0.90421 0.0
C575 C 0.73101 0.0491 0.90311 0.0
C576 C 0.77668 0.01222 0.88888 0.0
C577 C 0.78055 0.03286 0.87232 0.0
C578 C 0.75798 0.06069 0.87077 0.0
C579 C 0.73334 0.06869 0.886 0.0
C580 C 0.8094 0.0265 0.85715 0.0
C581 C 0.79969 0.02498 0.83709 0.0
C582 C 0.84646 0.02236 0.8624 0.0
C583 C 0.85909 0.0261 0.88311 0.0
C584 C 0.85231 0.05539 0.89375 0.0
C585 C 0.8641 0.05867 0.9133 0.0
C586 C 0.88299 0.03295 0.92231 0.0
C587 C 0.89022 0.00391 0.91177 0.0
C588 C 0.87843 0.00048 0.89222 0.0
C589 C 0.92977 0.03979 0.78702 0.0
C590 C 0.95341 0.01249 0.78649 0.0
C591 C 0.89954 0.04019 0.79983 0.0
C592 C 0.89267 0.01348 0.81246 0.0
C593 C 0.91576 0.98593 0.81171 0.0
C594 C 0.94568 0.98528 0.79868 0.0
C595 C 0.863 0.0155 0.82747 0.0
C596 C 0.87264 0.01638 0.84751 0.0
C597 C 0.82605 0.0195 0.82216 0.0
C598 C 0.8143 0.01766 0.8012 0.0
C599 C 0.82332 0.99014 0.78938 0.0
C600 C 0.81229 0.98858 0.76963 0.0
C601 C 0.79202 0.01431 0.76155 0.0
C602 C 0.78269 0.04163 0.77322 0.0
C603 C 0.79368 0.04332 0.79298 0.0
H604 H 0.78349 0.01305 0.74626 0.0
H605 H 0.89211 0.03554 0.93744 0.0
H606 H 0.0458 0.68434 0.37634 0.0
H607 H 0.05815 0.73695 0.36023 0.0
H608 H 0.98166 0.78505 0.39998 0.0
H609 H 0.96812 0.73197 0.41562 0.0
H610 H 0.96951 0.8047 0.36466 0.0
H611 H 0.0766 0.79803 0.40274 0.0
H612 H 0.13168 0.77328 0.41716 0.0
H613 H 0.17905 0.76203 0.35902 0.0
H614 H 0.12402 0.78626 0.3442 0.0
H615 H 0.02496 0.95693 0.31768 0.0
H616 H 0.01968 0.91618 0.34445 0.0
H617 H 0.06459 0.84151 0.30561 0.0
H618 H 0.06912 0.88163 0.27879 0.0
H619 H 0.09376 0.84338 0.34619 0.0
H620 H 0.97917 0.84237 0.30942 0.0
H621 H 0.92401 0.86903 0.29629 0.0
H622 H 0.89183 0.89824 0.3552 0.0
H623 H 0.94713 0.87211 0.36863 0.0
C624 C 0.03195 0.70622 0.38178 0.0
C625 C 0.00616 0.70409 0.3973 0.0
C626 C 0.03922 0.73636 0.37267 0.0
C627 C 0.02134 0.7652 0.3791 0.0
C628 C 0.99595 0.76322 0.39482 0.0
C629 C 0.98833 0.73293 0.40379 0.0
C630 C 0.02729 0.79672 0.36836 0.0
C631 C 0.99673 0.81354 0.36108 0.0
C632 C 0.06276 0.80839 0.36354 0.0
C633 C 0.09603 0.7938 0.37235 0.0
C634 C 0.09864 0.79006 0.39301 0.0
C635 C 0.12988 0.77616 0.40126 0.0
C636 C 0.15882 0.76604 0.38901 0.0
C637 C 0.1566 0.76987 0.36849 0.0
C638 C 0.12541 0.78374 0.36016 0.0
C639 C 0.03397 0.93188 0.31495 0.0
C640 C 0.0472 0.92234 0.29614 0.0
C641 C 0.03095 0.90871 0.33022 0.0
C642 C 0.04178 0.87593 0.32694 0.0
C643 C 0.05624 0.86673 0.30841 0.0
C644 C 0.05858 0.88963 0.29309 0.0
C645 C 0.03611 0.8504 0.34225 0.0
C646 C 0.06667 0.83479 0.35029 0.0
C647 C 0.00073 0.84017 0.34806 0.0
C648 C 0.96747 0.8557 0.33999 0.0
C649 C 0.9605 0.85476 0.31954 0.0
C650 C 0.92919 0.86971 0.31205 0.0
C651 C 0.9045 0.88542 0.32489 0.0
C652 C 0.91102 0.88612 0.34526 0.0
C653 C 0.94233 0.87125 0.35282 0.0
H654 H 0.88026 0.89697 0.31907 0.0
H655 H 0.18298 0.75529 0.39543 0.0
loop_
_geom_bond_atom_site_label_1
_geom_bond_atom_site_label_2
_geom_bond_distance
_geom_bond_site_symmetry_2
_ccdc_geom_bond_type
C0 C1 1.560 . S
C0 H61 0.959 . S
C0 H62 0.959 . S
C0 H63 0.960 . S
C1 C0 1.560 . S
C1 O56 1.426 . S
C1 H60 0.980 . S
C2 C3 1.407 1_545 S
C2 C7 1.418 . S
C2 O56 1.334 . S
C3 C2 1.407 1_565 S
C3 C4 1.360 . S
C3 H64 0.929 . S
C4 C3 1.360 . S
C4 C5 1.401 1_565 S
C4 C8 1.527 . S
C5 C4 1.401 1_545 S
C5 C6 1.405 . S
C5 C38 1.587 1_545 S
C6 C5 1.405 . S
C6 C7 1.332 . S
C6 C9 1.496 . S
C7 C2 1.418 . S
C7 C6 1.332 . S
C7 H65 0.929 . S
C8 C4 1.527 . S
C8 H66 0.959 . S
C8 H67 0.961 . S
C8 H68 0.961 . S
C9 C6 1.496 . S
C9 H69 0.960 . S
C9 H70 0.960 . S
C9 H71 0.961 . S
C10 C11 1.517 . S
C10 H73 0.961 . S
C10 H74 0.960 . S
C10 H75 0.959 . S
C11 C10 1.517 . S
C11 O59 1.468 . S
C11 H72 0.980 1_565 S
C12 C13 1.349 . S
C12 C17 1.367 . S
C12 O59 1.408 . S
C13 C12 1.349 . S
C13 C14 1.407 1_565 S
C13 H76 0.930 1_565 S
C14 C13 1.407 1_545 S
C14 C15 1.449 1_545 S
C14 C18 1.535 . S
C15 C14 1.449 1_565 S
C15 C16 1.384 . S
C15 C40 1.553 . S
C16 C15 1.384 . S
C16 C17 1.364 . S
C16 C19 1.450 . S
C17 C12 1.367 . S
C17 C16 1.364 . S
C17 H77 0.931 . S
C18 C14 1.535 . S
C18 H78 0.959 . S
C18 H79 0.961 . S
C18 H80 0.959 . S
C19 C16 1.450 . S
C19 H81 0.960 . S
C19 H82 0.960 . S
C19 H83 0.960 . S
C20 C21 1.309 1_565 S
C20 C25 1.304 . S
C20 O58 1.435 . S
C21 C20 1.309 1_545 S
C21 C22 1.476 . S
C21 H85 0.930 . S
C22 C21 1.476 . S
C22 C23 1.400 1_545 S
C22 C26 1.567 . S
C23 C22 1.400 1_565 S
C23 C24 1.373 . S
C23 C45 1.432 . S
C24 C23 1.373 . S
C24 C25 1.339 . S
C24 C27 1.530 . S
C25 C20 1.304 . S
C25 C24 1.339 . S
C25 H86 0.930 . S
C26 C22 1.567 . S
C26 H87 0.961 . S
C26 H88 0.960 . S
C26 H89 0.958 . S
C27 C24 1.530 . S
C27 H90 0.961 . S
C27 H91 0.960 . S
C27 H92 0.960 . S
C28 C29 1.530 . S
C28 H94 0.961 . S
C28 H95 0.961 . S
C28 H96 0.959 . S
C29 C28 1.530 . S
C29 O57 1.412 . S
C29 H93 0.978 1_545 S
C30 C31 1.288 . S
C30 C35 1.377 1_545 S
C30 O57 1.393 . S
C31 C30 1.288 . S
C31 C32 1.369 . S
C31 H97 0.932 . S
C32 C31 1.369 . S
C32 C33 1.398 . S
C32 C36 1.527 . S
C33 C32 1.398 . S
C33 C34 1.380 1_545 S
C33 C47 1.497 1_545 S
C34 C33 1.380 1_565 S
C34 C35 1.383 . S
C34 C37 1.603 . S
C35 C30 1.377 1_565 S
C35 C34 1.383 . S
C35 H98 0.929 . S
C36 C32 1.527 . S
C36 H99 0.961 . S
C36 H100 0.959 . S
C36 H101 0.959 . S
C37 C34 1.603 . S
C37 H102 0.960 . S
C37 H103 0.962 . S
C37 H104 0.961 . S
C38 C5 1.587 1_565 S
C38 C39 1.360 . S
C38 C51 1.412 . S
C39 C38 1.360 . S
C39 C40 1.365 . S
C39 H105 0.929 . S
C40 C15 1.553 . S
C40 C39 1.365 . S
C40 C41 1.404 . S
C41 C40 1.404 . S
C41 C42 1.395 . S
C41 C52 1.451 . S
C42 C41 1.395 . S
C42 C43 1.322 . S
C42 H106 0.930 . S
C43 C42 1.322 . S
C43 C44 1.459 1_554 S
C43 H107 0.929 1_554 S
C44 C43 1.459 1_556 S
C44 C45 1.445 . S
C44 C53 1.404 . S
C45 C23 1.432 . S
C45 C44 1.445 . S
C45 C46 1.370 . S
C46 C45 1.370 . S
C46 C47 1.438 . S
C46 H108 0.930 . S
C47 C33 1.497 1_565 S
C47 C46 1.438 . S
C47 C48 1.360 . S
C48 C47 1.360 . S
C48 C49 1.417 . S
C48 C53 1.455 . S
C49 C48 1.417 . S
C49 C50 1.320 1_556 S
C49 H109 0.941 1_565 S
C50 C49 1.320 1_554 S
C50 C51 1.455 . S
C50 H110 0.927 1_565 S
C51 C38 1.412 . S
C51 C50 1.455 . S
C51 C52 1.331 . S
C52 C41 1.451 . S
C52 C51 1.331 . S
C52 C53 1.479 1_554 S
C53 C44 1.404 . S
C53 C48 1.455 . S
C53 C52 1.479 1_556 S
C54 C55 1.582 . S
C54 H111 0.962 . S
C54 H112 0.959 . S
C54 H113 0.958 . S
C55 C54 1.582 . S
C55 O58 1.458 . S
C55 H84 0.980 1_565 S
O56 C1 1.426 . S
O56 C2 1.334 . S
O57 C29 1.412 . S
O57 C30 1.393 . S
O58 C20 1.435 . S
O58 C55 1.458 . S
O59 C11 1.468 . S
O59 C12 1.408 . S
H60 C1 0.980 . S
H61 C0 0.959 . S
H62 C0 0.959 . S
H63 C0 0.960 . S
H64 C3 0.929 . S
H65 C7 0.929 . S
H66 C8 0.959 . S
H67 C8 0.961 . S
H68 C8 0.961 . S
H69 C9 0.960 . S
H70 C9 0.960 . S
H71 C9 0.961 . S
H72 C11 0.980 1_545 S
H73 C10 0.961 . S
H74 C10 0.960 . S
H75 C10 0.959 . S
H76 C13 0.930 1_545 S
H77 C17 0.931 . S
H78 C18 0.959 . S
H79 C18 0.961 . S
H80 C18 0.959 . S
H81 C19 0.960 . S
H82 C19 0.960 . S
H83 C19 0.960 . S
H84 C55 0.980 1_545 S
H85 C21 0.930 . S
H86 C25 0.930 . S
H87 C26 0.961 . S
H88 C26 0.960 . S
H89 C26 0.958 . S
H90 C27 0.961 . S
H91 C27 0.960 . S
H92 C27 0.960 . S
H93 C29 0.978 1_565 S
H94 C28 0.961 . S
H95 C28 0.961 . S
H96 C28 0.959 . S
H97 C31 0.932 . S
H98 C35 0.929 . S
H99 C36 0.961 . S
H100 C36 0.959 . S
H101 C36 0.959 . S
H102 C37 0.960 . S
H103 C37 0.962 . S
H104 C37 0.961 . S
H105 C39 0.929 . S
H106 C42 0.930 . S
H107 C43 0.929 1_556 S
H108 C46 0.930 . S
H109 C49 0.941 1_545 S
H110 C50 0.927 1_545 S
H111 C54 0.962 . S
H112 C54 0.959 . S
H113 C54 0.958 . S
C114 C115 1.560 . S
C114 H175 0.959 . S
C114 H176 0.959 . S
C114 H177 0.960 . S
C115 C114 1.560 . S
C115 O170 1.426 . S
C115 H174 0.980 . S
C116 C117 1.407 . S
C116 C121 1.418 . S
C116 O170 1.334 . S
C117 C116 1.407 . S
C117 C118 1.360 . S
C117 H178 0.929 . S
C118 C117 1.360 . S
C118 C119 1.401 . S
C118 C122 1.527 1_455 S
C119 C118 1.401 . S
C119 C120 1.405 . S
C119 C152 1.587 . S
C120 C119 1.405 . S
C120 C121 1.332 . S
C120 C123 1.496 . S
C121 C116 1.418 . S
C121 C120 1.332 . S
C121 H179 0.929 . S
C122 C118 1.527 1_655 S
C122 H180 0.959 . S
C122 H181 0.961 . S
C122 H182 0.961 . S
C123 C120 1.496 . S
C123 H183 0.960 . S
C123 H184 0.960 . S
C123 H185 0.961 . S
C124 C125 1.517 . S
C124 H187 0.961 . S
C124 H188 0.960 1_455 S
C124 H189 0.959 . S
C125 C124 1.517 . S
C125 O173 1.468 1_455 S
C125 H186 0.980 . S
C126 C127 1.349 . S
C126 C131 1.367 1_455 S
C126 O173 1.408 1_455 S
C127 C126 1.349 . S
C127 C128 1.407 . S
C127 H190 0.930 . S
C128 C127 1.407 . S
C128 C129 1.449 . S
C128 C132 1.535 . S
C129 C128 1.449 . S
C129 C130 1.384 1_455 S
C129 C154 1.553 . S
C130 C129 1.384 1_655 S
C130 C131 1.364 . S
C130 C133 1.450 . S
C131 C126 1.367 1_655 S
C131 C130 1.364 . S
C131 H191 0.931 . S
C132 C128 1.535 . S
C132 H192 0.959 . S
C132 H193 0.961 . S
C132 H194 0.959 . S
C133 C130 1.450 . S
C133 H195 0.960 . S
C133 H196 0.960 . S
C133 H197 0.960 . S
C134 C135 1.309 . S
C134 C139 1.304 1_455 S
C134 O172 1.435 . S
C135 C134 1.309 . S
C135 C136 1.476 . S
C135 H199 0.930 . S
C136 C135 1.476 . S
C136 C137 1.400 . S
C136 C140 1.567 . S
C137 C136 1.400 . S
C137 C138 1.373 1_455 S
C137 C159 1.432 . S
C138 C137 1.373 1_655 S
C138 C139 1.339 . S
C138 C141 1.530 . S
C139 C134 1.304 1_655 S
C139 C138 1.339 . S
C139 H200 0.930 . S
C140 C136 1.567 . S
C140 H201 0.961 . S
C140 H202 0.960 . S
C140 H203 0.958 . S
C141 C138 1.530 . S
C141 H204 0.961 . S
C141 H205 0.960 . S
C141 H206 0.960 . S
C142 C143 1.530 . S
C142 H208 0.961 . S
C142 H209 0.961 . S
C142 H210 0.959 . S
C143 C142 1.530 . S
C143 O171 1.412 . S
C143 H207 0.980 . S
C144 C145 1.288 . S
C144 C149 1.377 . S
C144 O171 1.393 . S
C145 C144 1.288 . S
C145 C146 1.369 . S
C145 H211 0.932 . S
C146 C145 1.369 . S
C146 C147 1.398 . S
C146 C150 1.527 . S
C147 C146 1.398 . S
C147 C148 1.380 . S
C147 C161 1.497 . S
C148 C147 1.380 . S
C148 C149 1.383 . S
C148 C151 1.603 1_455 S
C149 C144 1.377 . S
C149 C148 1.383 . S
C149 H212 0.929 . S
C150 C146 1.527 . S
C150 H213 0.961 . S
C150 H214 0.959 . S
C150 H215 0.959 . S
C151 C148 1.603 1_655 S
C151 H216 0.960 . S
C151 H217 0.962 . S
C151 H218 0.961 . S
C152 C119 1.587 . S
C152 C153 1.360 . S
C152 C165 1.412 . S
C153 C152 1.360 . S
C153 C154 1.365 . S
C153 H219 0.929 . S
C154 C129 1.553 . S
C154 C153 1.365 . S
C154 C155 1.404 . S
C155 C154 1.404 . S
C155 C156 1.395 . S
C155 C166 1.451 . S
C156 C155 1.395 . S
C156 C157 1.322 . S
C156 H220 0.930 . S
C157 C156 1.322 . S
C157 C158 1.459 . S
C157 H221 0.929 . S
C158 C157 1.459 . S
C158 C159 1.445 . S
C158 C167 1.395 . S
C159 C137 1.432 . S
C159 C158 1.445 . S
C159 C160 1.370 . S
C160 C159 1.370 . S
C160 C161 1.438 . S
C160 H222 0.930 . S
C161 C147 1.497 . S
C161 C160 1.438 . S
C161 C162 1.360 . S
C162 C161 1.360 . S
C162 C163 1.401 . S
C162 C167 1.446 . S
C163 C162 1.401 . S
C163 C164 1.347 . S
C163 H223 0.929 . S
C164 C163 1.347 . S
C164 C165 1.455 . S
C164 H224 0.930 . S
C165 C152 1.412 . S
C165 C164 1.455 . S
C165 C166 1.331 . S
C166 C155 1.451 . S
C166 C165 1.331 . S
C166 C167 1.497 . S
C167 C158 1.395 . S
C167 C162 1.446 . S
C167 C166 1.497 . S
C168 C169 1.582 . S
C168 H225 0.962 . S
C168 H226 0.959 . S
C168 H227 0.932 1_455 S
C169 C168 1.582 . S
C169 O172 1.458 . S
C169 H198 0.980 . S
O170 C115 1.426 . S
O170 C116 1.334 . S
O171 C143 1.412 . S
O171 C144 1.393 . S
O172 C134 1.435 . S
O172 C169 1.458 . S
O173 C125 1.468 1_655 S
O173 C126 1.408 1_655 S
H174 C115 0.980 . S
H175 C114 0.959 . S
H176 C114 0.959 . S
H177 C114 0.960 . S
H178 C117 0.929 . S
H179 C121 0.929 . S
H180 C122 0.959 . S
H181 C122 0.961 . S
H182 C122 0.961 . S
H183 C123 0.960 . S
H184 C123 0.960 . S
H185 C123 0.961 . S
H186 C125 0.980 . S
H187 C124 0.961 . S
H188 C124 0.960 1_655 S
H189 C124 0.959 . S
H190 C127 0.930 . S
H191 C131 0.931 . S
H192 C132 0.959 . S
H193 C132 0.961 . S
H194 C132 0.959 . S
H195 C133 0.960 . S
H196 C133 0.960 . S
H197 C133 0.960 . S
H198 C169 0.980 . S
H199 C135 0.930 . S
H200 C139 0.930 . S
H201 C140 0.961 . S
H202 C140 0.960 . S
H203 C140 0.958 . S
H204 C141 0.961 . S
H205 C141 0.960 . S
H206 C141 0.960 . S
H207 C143 0.980 . S
H208 C142 0.961 . S
H209 C142 0.961 . S
H210 C142 0.959 . S
H211 C145 0.932 . S
H212 C149 0.929 . S
H213 C150 0.961 . S
H214 C150 0.959 . S
H215 C150 0.959 . S
H216 C151 0.960 . S
H217 C151 0.962 . S
H218 C151 0.961 . S
H219 C153 0.929 . S
H220 C156 0.930 . S
H221 C157 0.929 . S
H222 C160 0.930 . S
H223 C163 0.929 . S
H224 C164 0.930 . S
H225 C168 0.962 . S
H226 C168 0.959 . S
H227 C168 0.932 1_655 S
O228 Cd229 2.223 . S
O228 C236 1.315 . S
Cd229 O228 2.223 . S
Cd229 O232 2.297 . S
Cd229 O233 2.439 . S
Cd229 O239 2.240 1_565 S
Cd230 O231 2.240 . S
Cd230 O238 2.223 . S
Cd230 O240 2.297 . S
Cd230 O241 2.439 . S
O231 Cd230 2.240 . S
O231 C236 1.279 1_545 S
O232 Cd229 2.297 . S
O232 C234 1.247 . S
O233 Cd229 2.439 . S
O233 C234 1.208 . S
C234 O232 1.247 . S
C234 O233 1.208 . S
C235 O240 1.247 . S
C235 O241 1.208 . S
C236 O228 1.315 . S
C236 O231 1.279 1_565 S
C237 O238 1.315 . S
C237 O239 1.279 . S
O238 Cd230 2.223 . S
O238 C237 1.315 . S
O239 Cd229 2.240 1_545 S
O239 C237 1.279 . S
O240 Cd230 2.297 . S
O240 C235 1.247 . S
O241 Cd230 2.439 . S
O241 C235 1.208 . S
O242 Cd243 2.223 . S
O242 C250 1.315 . S
Cd243 O242 2.223 . S
Cd243 O246 2.297 . S
Cd243 O247 2.439 . S
Cd243 O253 2.240 . S
Cd244 O245 2.240 1_565 S
Cd244 O252 2.223 . S
Cd244 O254 2.297 . S
Cd244 O255 2.439 . S
O245 Cd244 2.240 1_545 S
O245 C250 1.279 . S
O246 Cd243 2.297 . S
O246 C248 1.247 . S
O247 Cd243 2.439 . S
O247 C248 1.208 . S
C248 O246 1.247 . S
C248 O247 1.208 . S
C249 O254 1.247 . S
C249 O255 1.208 . S
C250 O242 1.315 . S
C250 O245 1.279 . S
C251 O252 1.315 . S
C251 O253 1.279 1_565 S
O252 Cd244 2.223 . S
O252 C251 1.315 . S
O253 Cd243 2.240 . S
O253 C251 1.279 1_545 S
O254 Cd244 2.297 . S
O254 C249 1.247 . S
O255 Cd244 2.439 . S
O255 C249 1.208 . S
H256 C274 0.951 . S
H257 C276 0.951 . S
H258 C278 0.950 . S
H259 C279 0.950 . S
H260 C281 0.950 . S
H261 C284 0.950 . S
H262 C285 0.950 . S
H263 C287 0.950 . S
H264 C288 0.950 . S
H265 C289 0.951 1_565 S
H266 C291 0.951 1_565 S
H267 C293 0.950 . S
H268 C294 0.950 . S
H269 C296 0.950 . S
H270 C299 0.950 . S
H271 C300 0.950 . S
H272 C302 0.950 . S
H273 C303 0.950 1_565 S
C274 H256 0.951 . S
C274 C275 1.366 . S
C274 C276 1.388 . S
C275 C274 1.366 . S
C275 C279 1.385 1_545 S
C276 H257 0.951 . S
C276 C274 1.388 . S
C276 C277 1.366 . S
C277 C276 1.366 . S
C277 C278 1.414 1_545 S
C277 C280 1.499 . S
C278 H258 0.950 . S
C278 C277 1.414 1_565 S
C278 C279 1.374 . S
C279 H259 0.950 . S
C279 C275 1.385 1_565 S
C279 C278 1.374 . S
C280 C277 1.499 . S
C280 C281 1.373 . S
C280 C282 1.389 . S
C281 H260 0.950 . S
C281 C280 1.373 . S
C281 C297 1.377 . S
C282 C280 1.389 . S
C282 C283 1.524 . S
C282 C296 1.377 . S
C283 C282 1.524 . S
C283 C284 1.397 1_545 S
C283 C288 1.363 . S
C284 H261 0.950 . S
C284 C283 1.397 1_565 S
C284 C285 1.334 . S
C285 H262 0.950 . S
C285 C284 1.334 . S
C285 C286 1.287 . S
C286 C285 1.287 . S
C286 C287 1.524 1_565 S
C286 H305 0.913 . S
C287 H263 0.950 . S
C287 C286 1.524 1_545 S
C287 C288 1.415 . S
C288 H264 0.950 . S
C288 C283 1.363 . S
C288 C287 1.415 . S
C289 H265 0.951 1_545 S
C289 C290 1.366 . S
C289 C291 1.388 . S
C290 C289 1.366 . S
C290 C294 1.385 . S
C291 H266 0.951 1_545 S
C291 C289 1.388 . S
C291 C292 1.366 . S
C292 C291 1.366 . S
C292 C293 1.414 . S
C292 C295 1.499 . S
C293 H267 0.950 . S
C293 C292 1.414 . S
C293 C294 1.374 . S
C294 H268 0.950 . S
C294 C290 1.385 . S
C294 C293 1.374 . S
C295 C292 1.499 . S
C295 C296 1.373 . S
C295 C297 1.389 . S
C296 H269 0.950 . S
C296 C282 1.377 . S
C296 C295 1.373 . S
C297 C281 1.377 . S
C297 C295 1.389 . S
C297 C298 1.524 . S
C298 C297 1.524 . S
C298 C299 1.397 . S
C298 C303 1.363 . S
C299 H270 0.950 . S
C299 C298 1.397 . S
C299 C300 1.334 . S
C300 H271 0.950 . S
C300 C299 1.334 . S
C300 C301 1.287 . S
C301 C300 1.287 . S
C301 C302 1.524 . S
C301 H304 0.999 . S
C302 H272 0.950 . S
C302 C301 1.524 . S
C302 C303 1.415 . S
C303 H273 0.950 1_545 S
C303 C298 1.363 . S
C303 C302 1.415 . S
H304 C301 0.999 . S
H305 C286 0.913 . S
H306 C324 0.951 . S
H307 C326 0.951 . S
H308 C328 0.950 . S
H309 C329 0.950 . S
H310 C331 0.950 1_655 S
H311 C334 0.950 . S
H312 C335 0.950 . S
H313 C337 0.950 . S
H314 C338 0.950 . S
H315 C339 0.951 1_655 S
H316 C341 0.951 . S
H317 C343 0.950 . S
H318 C344 0.950 . S
H319 C346 0.950 . S
H320 C349 0.950 . S
H321 C350 0.950 . S
H322 C352 0.950 . S
H323 C353 0.950 . S
C324 H306 0.951 . S
C324 C325 1.366 . S
C324 C326 1.388 . S
C325 C324 1.366 . S
C325 C329 1.385 . S
C326 H307 0.951 . S
C326 C324 1.388 . S
C326 C327 1.366 . S
C327 C326 1.366 . S
C327 C328 1.414 . S
C327 C330 1.499 . S
C328 H308 0.950 . S
C328 C327 1.414 . S
C328 C329 1.374 . S
C329 H309 0.950 . S
C329 C325 1.385 . S
C329 C328 1.374 . S
C330 C327 1.499 . S
C330 C331 1.373 . S
C330 C332 1.389 . S
C331 H310 0.950 1_455 S
C331 C330 1.373 . S
C331 C347 1.377 . S
C332 C330 1.389 . S
C332 C333 1.524 . S
C332 C346 1.377 . S
C333 C332 1.524 . S
C333 C334 1.397 . S
C333 C338 1.363 . S
C334 H311 0.950 . S
C334 C333 1.397 . S
C334 C335 1.334 . S
C335 H312 0.950 . S
C335 C334 1.334 . S
C335 C336 1.287 . S
C336 C335 1.287 . S
C336 C337 1.524 . S
C336 H355 0.913 . S
C337 H313 0.950 . S
C337 C336 1.524 . S
C337 C338 1.415 . S
C338 H314 0.950 . S
C338 C333 1.363 . S
C338 C337 1.415 . S
C339 H315 0.951 1_455 S
C339 C340 1.366 . S
C339 C341 1.388 . S
C340 C339 1.366 . S
C340 C344 1.385 . S
C341 H316 0.951 . S
C341 C339 1.388 . S
C341 C342 1.366 . S
C342 C341 1.366 . S
C342 C343 1.414 . S
C342 C345 1.499 . S
C343 H317 0.950 . S
C343 C342 1.414 . S
C343 C344 1.374 . S
C344 H318 0.950 . S
C344 C340 1.385 . S
C344 C343 1.374 . S
C345 C342 1.499 . S
C345 C346 1.373 . S
C345 C347 1.389 . S
C346 H319 0.950 . S
C346 C332 1.377 . S
C346 C345 1.373 . S
C347 C331 1.377 . S
C347 C345 1.389 . S
C347 C348 1.524 1_455 S
C348 C347 1.524 1_655 S
C348 C349 1.397 . S
C348 C353 1.363 . S
C349 H320 0.950 . S
C349 C348 1.397 . S
C349 C350 1.334 . S
C350 H321 0.950 . S
C350 C349 1.334 . S
C350 C351 1.287 . S
C351 C350 1.287 . S
C351 C352 1.524 . S
C351 H354 0.999 . S
C352 H322 0.950 . S
C352 C351 1.524 . S
C352 C353 1.415 . S
C353 H323 0.950 . S
C353 C348 1.363 . S
C353 C352 1.415 . S
H354 C351 0.999 . S
H355 C336 0.913 . S
H356 C374 0.951 . S
H357 C376 0.951 . S
H358 C378 0.950 . S
H359 C379 0.950 . S
H360 C381 0.950 . S
H361 C384 0.950 . S
H362 C385 0.950 . S
H363 C387 0.950 . S
H364 C388 0.950 . S
H365 C389 0.951 . S
H366 C391 0.951 . S
H367 C393 0.950 . S
H368 C394 0.950 1_455 S
H369 C396 0.950 . S
H370 C399 0.950 . S
H371 C400 0.950 . S
H372 C402 0.950 . S
H373 C403 0.950 . S
C374 H356 0.951 . S
C374 C375 1.366 1_565 S
C374 C376 1.388 . S
C375 C374 1.366 1_545 S
C375 C379 1.385 . S
C376 H357 0.951 . S
C376 C374 1.388 . S
C376 C377 1.366 1_565 S
C377 C376 1.366 1_545 S
C377 C378 1.414 . S
C377 C380 1.499 . S
C378 H358 0.950 . S
C378 C377 1.414 . S
C378 C379 1.374 . S
C379 H359 0.950 . S
C379 C375 1.385 . S
C379 C378 1.374 . S
C380 C377 1.499 . S
C380 C381 1.373 . S
C380 C382 1.389 1_545 S
C381 H360 0.950 . S
C381 C380 1.373 . S
C381 C397 1.377 . S
C382 C380 1.389 1_565 S
C382 C383 1.524 . S
C382 C396 1.377 . S
C383 C382 1.524 . S
C383 C384 1.397 . S
C383 C388 1.363 . S
C384 H361 0.950 . S
C384 C383 1.397 . S
C384 C385 1.334 . S
C385 H362 0.950 . S
C385 C384 1.334 . S
C385 C386 1.287 . S
C386 C385 1.287 . S
C386 C387 1.524 . S
C386 H405 0.913 . S
C387 H363 0.950 . S
C387 C386 1.524 . S
C387 C388 1.415 . S
C388 H364 0.950 . S
C388 C383 1.363 . S
C388 C387 1.415 . S
C389 H365 0.951 . S
C389 C390 1.366 1_545 S
C389 C391 1.388 . S
C390 C389 1.366 1_565 S
C390 C394 1.385 . S
C391 H366 0.951 . S
C391 C389 1.388 . S
C391 C392 1.366 . S
C392 C391 1.366 . S
C392 C393 1.414 1_545 S
C392 C395 1.499 . S
C393 H367 0.950 . S
C393 C392 1.414 1_565 S
C393 C394 1.374 . S
C394 H368 0.950 1_655 S
C394 C390 1.385 . S
C394 C393 1.374 . S
C395 C392 1.499 . S
C395 C396 1.373 1_545 S
C395 C397 1.389 . S
C396 H369 0.950 . S
C396 C382 1.377 . S
C396 C395 1.373 1_565 S
C397 C381 1.377 . S
C397 C395 1.389 . S
C397 C398 1.524 . S
C398 C397 1.524 . S
C398 C399 1.397 . S
C398 C403 1.363 . S
C399 H370 0.950 . S
C399 C398 1.397 . S
C399 C400 1.334 . S
C400 H371 0.950 . S
C400 C399 1.334 . S
C400 C401 1.287 . S
C401 C400 1.287 . S
C401 C402 1.524 . S
C401 H404 0.999 . S
C402 H372 0.950 . S
C402 C401 1.524 . S
C402 C403 1.415 . S
C403 H373 0.950 . S
C403 C398 1.363 . S
C403 C402 1.415 . S
H404 C401 0.999 . S
H405 C386 0.913 . S
H406 C424 0.951 . S
H407 C426 0.951 . S
H408 C428 0.950 . S
H409 C429 0.950 . S
H410 C431 0.950 . S
H411 C434 0.950 . S
H412 C435 0.950 . S
H413 C437 0.950 . S
H414 C438 0.950 1_455 S
H415 C439 0.951 . S
H416 C441 0.951 . S
H417 C443 0.950 . S
H418 C444 0.950 . S
H419 C446 0.950 . S
H420 C449 0.950 . S
H421 C450 0.950 . S
H422 C452 0.950 . S
H423 C453 0.950 . S
C424 H406 0.951 . S
C424 C425 1.366 . S
C424 C426 1.388 . S
C425 C424 1.366 . S
C425 C429 1.385 . S
C426 H407 0.951 . S
C426 C424 1.388 . S
C426 C427 1.366 . S
C427 C426 1.366 . S
C427 C428 1.414 . S
C427 C430 1.499 . S
C428 H408 0.950 . S
C428 C427 1.414 . S
C428 C429 1.374 . S
C429 H409 0.950 . S
C429 C425 1.385 . S
C429 C428 1.374 . S
C430 C427 1.499 . S
C430 C431 1.373 . S
C430 C432 1.389 . S
C431 H410 0.950 . S
C431 C430 1.373 . S
C431 C447 1.377 . S
C432 C430 1.389 . S
C432 C433 1.524 . S
C432 C446 1.377 . S
C433 C432 1.524 . S
C433 C434 1.397 1_455 S
C433 C438 1.363 1_455 S
C434 H411 0.950 . S
C434 C433 1.397 1_655 S
C434 C435 1.334 . S
C435 H412 0.950 . S
C435 C434 1.334 . S
C435 C436 1.287 . S
C436 C435 1.287 . S
C436 C437 1.524 . S
C436 H455 0.913 . S
C437 H413 0.950 . S
C437 C436 1.524 . S
C437 C438 1.415 . S
C438 H414 0.950 1_655 S
C438 C433 1.363 1_655 S
C438 C437 1.415 . S
C439 H415 0.951 . S
C439 C440 1.366 . S
C439 C441 1.388 . S
C440 C439 1.366 . S
C440 C444 1.385 . S
C441 H416 0.951 . S
C441 C439 1.388 . S
C441 C442 1.366 . S
C442 C441 1.366 . S
C442 C443 1.414 . S
C442 C445 1.499 . S
C443 H417 0.950 . S
C443 C442 1.414 . S
C443 C444 1.374 . S
C444 H418 0.950 . S
C444 C440 1.385 . S
C444 C443 1.374 . S
C445 C442 1.499 . S
C445 C446 1.373 . S
C445 C447 1.389 . S
C446 H419 0.950 . S
C446 C432 1.377 . S
C446 C445 1.373 . S
C447 C431 1.377 . S
C447 C445 1.389 . S
C447 C448 1.524 . S
C448 C447 1.524 . S
C448 C449 1.397 . S
C448 C453 1.363 . S
C449 H420 0.950 . S
C449 C448 1.397 . S
C449 C450 1.334 . S
C450 H421 0.950 . S
C450 C449 1.334 . S
C450 C451 1.287 . S
C451 C450 1.287 . S
C451 C452 1.524 . S
C451 H454 0.999 . S
C452 H422 0.950 . S
C452 C451 1.524 . S
C452 C453 1.415 . S
C453 H423 0.950 . S
C453 C448 1.363 . S
C453 C452 1.415 . S
H454 C451 0.999 . S
H455 C436 0.913 . S
H456 C474 0.951 . S
H457 C476 0.951 . S
H458 C478 0.950 . S
H459 C479 0.950 . S
H460 C481 0.950 . S
H461 C484 0.950 . S
H462 C485 0.950 . S
H463 C487 0.950 1_565 S
H464 C488 0.950 . S
H465 C489 0.951 . S
H466 C491 0.951 . S
H467 C493 0.950 . S
H468 C494 0.950 . S
H469 C496 0.950 . S
H470 C499 0.950 . S
H471 C500 0.950 . S
H472 C502 0.950 1_545 S
H473 C503 0.950 . S
C474 H456 0.951 . S
C474 C475 1.366 1_565 S
C474 C476 1.388 . S
C475 C474 1.366 1_545 S
C475 C479 1.385 . S
C476 H457 0.951 . S
C476 C474 1.388 . S
C476 C477 1.366 1_565 S
C477 C476 1.366 1_545 S
C477 C478 1.414 . S
C477 C480 1.499 . S
C478 H458 0.950 . S
C478 C477 1.414 . S
C478 C479 1.374 . S
C479 H459 0.950 . S
C479 C475 1.385 . S
C479 C478 1.374 . S
C480 C477 1.499 . S
C480 C481 1.374 1_545 S
C480 C482 1.389 . S
C481 H460 0.950 . S
C481 C480 1.374 1_565 S
C481 C497 1.376 . S
C482 C480 1.389 . S
C482 C483 1.524 . S
C482 C496 1.377 . S
C483 C482 1.524 . S
C483 C484 1.397 . S
C483 C488 1.363 1_545 S
C484 H461 0.950 . S
C484 C483 1.397 . S
C484 C485 1.334 . S
C485 H462 0.950 . S
C485 C484 1.334 . S
C485 C486 1.287 . S
C486 C485 1.287 . S
C486 C487 1.524 . S
C486 H505 0.913 . S
C487 H463 0.950 1_545 S
C487 C486 1.524 . S
C487 C488 1.415 1_545 S
C488 H464 0.950 . S
C488 C483 1.363 1_565 S
C488 C487 1.415 1_565 S
C489 H465 0.951 . S
C489 C490 1.366 1_545 S
C489 C491 1.388 . S
C490 C489 1.366 1_565 S
C490 C494 1.385 . S
C491 H466 0.951 . S
C491 C489 1.388 . S
C491 C492 1.366 1_545 S
C492 C491 1.366 1_565 S
C492 C493 1.414 . S
C492 C495 1.499 . S
C493 H467 0.950 . S
C493 C492 1.414 . S
C493 C494 1.374 . S
C494 H468 0.950 . S
C494 C490 1.385 . S
C494 C493 1.374 . S
C495 C492 1.499 . S
C495 C496 1.373 1_565 S
C495 C497 1.389 . S
C496 H469 0.950 . S
C496 C482 1.377 . S
C496 C495 1.373 1_545 S
C497 C481 1.376 . S
C497 C495 1.389 . S
C497 C498 1.524 . S
C498 C497 1.524 . S
C498 C499 1.397 . S
C498 C503 1.363 1_565 S
C499 H470 0.950 . S
C499 C498 1.397 . S
C499 C500 1.334 . S
C500 H471 0.950 . S
C500 C499 1.334 . S
C500 C501 1.287 . S
C501 C500 1.287 . S
C501 C502 1.524 . S
C501 H504 0.999 . S
C502 H472 0.950 1_565 S
C502 C501 1.524 . S
C502 C503 1.415 1_565 S
C503 H473 0.950 . S
C503 C498 1.363 1_545 S
C503 C502 1.415 1_545 S
H504 C501 0.999 . S
H505 C486 0.913 . S
H506 C524 0.951 . S
H507 C526 0.951 . S
H508 C528 0.950 1_655 S
H509 C529 0.950 1_655 S
H510 C531 0.950 . S
H511 C534 0.950 . S
H512 C535 0.950 . S
H513 C537 0.950 . S
H514 C538 0.950 . S
H515 C539 0.951 . S
H516 C541 0.951 . S
H517 C543 0.950 . S
H518 C544 0.950 . S
H519 C546 0.950 . S
H520 C549 0.950 . S
H521 C550 0.950 . S
H522 C552 0.950 . S
H523 C553 0.950 . S
C524 H506 0.951 . S
C524 C525 1.366 . S
C524 C526 1.388 . S
C525 C524 1.366 . S
C525 C529 1.385 . S
C526 H507 0.951 . S
C526 C524 1.388 . S
C526 C527 1.366 . S
C527 C526 1.366 . S
C527 C528 1.414 . S
C527 C530 1.499 . S
C528 H508 0.950 1_455 S
C528 C527 1.414 . S
C528 C529 1.374 . S
C529 H509 0.950 1_455 S
C529 C525 1.385 . S
C529 C528 1.374 . S
C530 C527 1.499 . S
C530 C531 1.373 . S
C530 C532 1.389 . S
C531 H510 0.950 . S
C531 C530 1.373 . S
C531 C547 1.377 . S
C532 C530 1.389 . S
C532 C533 1.524 . S
C532 C546 1.377 . S
C533 C532 1.524 . S
C533 C534 1.397 . S
C533 C538 1.363 . S
C534 H511 0.950 . S
C534 C533 1.397 . S
C534 C535 1.334 . S
C535 H512 0.950 . S
C535 C534 1.334 . S
C535 C536 1.287 . S
C536 C535 1.287 . S
C536 C537 1.524 . S
C536 H555 0.913 . S
C537 H513 0.950 . S
C537 C536 1.524 . S
C537 C538 1.415 . S
C538 H514 0.950 . S
C538 C533 1.363 . S
C538 C537 1.415 . S
C539 H515 0.951 . S
C539 C540 1.366 . S
C539 C541 1.388 . S
C540 C539 1.366 . S
C540 C544 1.385 . S
C541 H516 0.951 . S
C541 C539 1.388 . S
C541 C542 1.366 . S
C542 C541 1.366 . S
C542 C543 1.414 . S
C542 C545 1.499 . S
C543 H517 0.950 . S
C543 C542 1.414 . S
C543 C544 1.374 . S
C544 H518 0.950 . S
C544 C540 1.385 . S
C544 C543 1.374 . S
C545 C542 1.499 . S
C545 C546 1.373 . S
C545 C547 1.389 . S
C546 H519 0.950 . S
C546 C532 1.377 . S
C546 C545 1.373 . S
C547 C531 1.377 . S
C547 C545 1.389 . S
C547 C548 1.524 . S
C548 C547 1.524 . S
C548 C549 1.397 . S
C548 C553 1.363 1_455 S
C549 H520 0.950 . S
C549 C548 1.397 . S
C549 C550 1.334 . S
C550 H521 0.950 . S
C550 C549 1.334 . S
C550 C551 1.287 1_455 S
C551 C550 1.287 1_655 S
C551 C552 1.524 . S
C551 H554 0.999 . S
C552 H522 0.950 . S
C552 C551 1.524 . S
C552 C553 1.415 . S
C553 H523 0.950 . S
C553 C548 1.363 1_655 S
C553 C552 1.415 . S
H554 C551 0.999 . S
H555 C536 0.913 . S
H556 C574 0.951 . S
H557 C576 0.951 . S
H558 C578 0.950 . S
H559 C579 0.950 . S
H560 C581 0.943 1_565 S
H561 C584 0.950 . S
H562 C585 0.950 . S
H563 C587 0.950 . S
H564 C588 0.950 . S
H565 C589 0.951 . S
H566 C591 0.951 . S
H567 C593 0.950 1_565 S
H568 C594 0.950 1_455 S
H569 C596 0.950 . S
H570 C599 0.950 . S
H571 C600 0.950 . S
H572 C602 0.950 . S
H573 C603 0.950 1_545 S
C574 H556 0.951 . S
C574 C575 1.361 1_565 S
C574 C576 1.388 . S
C575 C574 1.361 1_545 S
C575 C579 1.392 . S
C576 H557 0.951 . S
C576 C574 1.388 . S
C576 C577 1.366 1_565 S
C577 C576 1.366 1_545 S
C577 C578 1.414 . S
C577 C580 1.499 . S
C578 H558 0.950 . S
C578 C577 1.414 . S
C578 C579 1.374 . S
C579 H559 0.950 . S
C579 C575 1.392 . S
C579 C578 1.374 . S
C580 C577 1.499 . S
C580 C581 1.380 . S
C580 C582 1.389 . S
C581 H560 0.943 1_545 S
C581 C580 1.380 . S
C581 C597 1.377 . S
C582 C580 1.389 . S
C582 C583 1.524 . S
C582 C596 1.377 . S
C583 C582 1.524 . S
C583 C584 1.397 . S
C583 C588 1.363 . S
C584 H561 0.950 . S
C584 C583 1.397 . S
C584 C585 1.334 . S
C585 H562 0.950 . S
C585 C584 1.334 . S
C585 C586 1.287 . S
C586 C585 1.287 . S
C586 C587 1.524 . S
C586 H605 0.913 . S
C587 H563 0.950 . S
C587 C586 1.524 . S
C587 C588 1.415 . S
C588 H564 0.950 . S
C588 C583 1.363 . S
C588 C587 1.415 . S
C589 H565 0.951 . S
C589 C590 1.366 . S
C589 C591 1.388 . S
C590 C589 1.366 . S
C590 C594 1.385 . S
C591 H566 0.951 . S
C591 C589 1.388 . S
C591 C592 1.366 . S
C592 C591 1.366 . S
C592 C593 1.414 . S
C592 C595 1.499 . S
C593 H567 0.950 1_545 S
C593 C592 1.414 . S
C593 C594 1.374 . S
C594 H568 0.950 1_655 S
C594 C590 1.385 . S
C594 C593 1.374 . S
C595 C592 1.499 . S
C595 C596 1.373 . S
C595 C597 1.389 . S
C596 H569 0.950 . S
C596 C582 1.377 . S
C596 C595 1.373 . S
C597 C581 1.377 . S
C597 C595 1.389 . S
C597 C598 1.524 1_545 S
C598 C597 1.524 1_565 S
C598 C599 1.397 . S
C598 C603 1.363 . S
C599 H570 0.950 . S
C599 C598 1.397 . S
C599 C600 1.334 . S
C600 H571 0.950 . S
C600 C599 1.334 . S
C600 C601 1.287 . S
C601 C600 1.287 . S
C601 C602 1.524 . S
C601 H604 0.999 . S
C602 H572 0.950 . S
C602 C601 1.524 . S
C602 C603 1.415 . S
C603 H573 0.950 1_565 S
C603 C598 1.363 . S
C603 C602 1.415 . S
H604 C601 0.999 . S
H605 C586 0.913 . S
H606 C624 0.951 . S
H607 C626 0.951 . S
H608 C628 0.950 1_655 S
H609 C629 0.950 . S
H610 C631 0.950 1_655 S
H611 C634 0.950 . S
H612 C635 0.950 . S
H613 C637 0.950 . S
H614 C638 0.950 . S
H615 C639 0.973 . S
H616 C641 0.951 1_655 S
H617 C643 0.950 . S
H618 C644 0.950 . S
H619 C646 0.950 . S
H620 C649 0.950 1_455 S
H621 C650 0.950 . S
H622 C652 0.950 . S
H623 C653 0.950 . S
C624 H606 0.951 . S
C624 C625 1.366 . S
C624 C626 1.388 . S
C625 C624 1.366 . S
C625 C629 1.385 . S
C626 H607 0.951 . S
C626 C624 1.388 . S
C626 C627 1.366 . S
C627 C626 1.366 . S
C627 C628 1.414 . S
C627 C630 1.499 . S
C628 H608 0.950 1_455 S
C628 C627 1.414 . S
C628 C629 1.374 . S
C629 H609 0.950 . S
C629 C625 1.385 . S
C629 C628 1.374 . S
C630 C627 1.499 . S
C630 C631 1.373 . S
C630 C632 1.389 . S
C631 H610 0.950 1_455 S
C631 C630 1.373 . S
C631 C647 1.377 . S
C632 C630 1.389 . S
C632 C633 1.524 . S
C632 C646 1.377 . S
C633 C632 1.524 . S
C633 C634 1.397 . S
C633 C638 1.363 . S
C634 H611 0.950 . S
C634 C633 1.397 . S
C634 C635 1.334 . S
C635 H612 0.950 . S
C635 C634 1.334 . S
C635 C636 1.287 . S
C636 C635 1.287 . S
C636 C637 1.524 . S
C636 H655 0.913 . S
C637 H613 0.950 . S
C637 C636 1.524 . S
C637 C638 1.415 . S
C638 H614 0.950 . S
C638 C633 1.363 . S
C638 C637 1.415 . S
C639 H615 0.973 . S
C639 C640 1.346 1_655 S
C639 C641 1.386 1_655 S
C640 C639 1.346 1_455 S
C640 C644 1.385 . S
C641 H616 0.951 1_455 S
C641 C639 1.386 1_455 S
C641 C642 1.366 . S
C642 C641 1.366 . S
C642 C643 1.414 . S
C642 C645 1.499 . S
C643 H617 0.950 . S
C643 C642 1.414 . S
C643 C644 1.374 . S
C644 H618 0.950 . S
C644 C640 1.385 . S
C644 C643 1.374 . S
C645 C642 1.499 . S
C645 C646 1.373 . S
C645 C647 1.389 . S
C646 H619 0.950 . S
C646 C632 1.377 . S
C646 C645 1.373 . S
C647 C631 1.377 . S
C647 C645 1.389 . S
C647 C648 1.524 1_455 S
C648 C647 1.524 1_655 S
C648 C649 1.397 . S
C648 C653 1.363 . S
C649 H620 0.950 1_655 S
C649 C648 1.397 . S
C649 C650 1.334 . S
C650 H621 0.950 . S
C650 C649 1.334 . S
C650 C651 1.287 . S
C651 C650 1.287 . S
C651 C652 1.524 . S
C651 H654 0.999 . S
C652 H622 0.950 . S
C652 C651 1.524 . S
C652 C653 1.415 . S
C653 H623 0.950 . S
C653 C648 1.363 . S
C653 C652 1.415 . S
H654 C651 0.999 . S
H655 C636 0.913 . S
C290 C237 1.601 . S
C275 C11 0.990 1_545 S
C340 C248 1.368 . S
C325 C115 1.155 . S
C390 C236 1.399 1_655 S
C375 C1 1.097 . S
C440 C249 1.534 . S
C425 C125 1.024 . S
C490 C251 1.669 . S
C475 C55 1.223 1_545 S
C540 C235 1.459 . S
C525 C143 1.184 . S
C590 C250 1.495 1_655 S
C575 C29 1.197 . S
C625 C169 1.202 . S
C640 C234 1.631 . S
