# Generated by pormake.
# Topology tsx, (6,3)-cn, num edge types: 1
# Building blocks:
#     Node 0, Type 0, BuildingBlock: LEVNOQ01_clean_sbu_1, # of connection points: 6
#     Node 1, Type 0, BuildingBlock: LEVNOQ01_clean_sbu_1, # of connection points: 6
#     Node 2, Type 1, BuildingBlock: BELTOD_clean_linker_0, # of connection points: 3
#     Node 3, Type 1, BuildingBlock: BELTOD_clean_linker_0, # of connection points: 3
#     Node 4, Type 1, BuildingBlock: BELTOD_clean_linker_0, # of connection points: 3
#     Node 5, Type 1, BuildingBlock: BELTOD_clean_linker_0, # of connection points: 3
#     Edge 6, Type (0, 1), BuildingBlock: ZUJKAS_clean_linker_0, # of connection points: 2
#     Edge 7, Type (0, 1), BuildingBlock: ZUJKAS_clean_linker_0, # of connection points: 2
#     Edge 8, Type (0, 1), BuildingBlock: ZUJKAS_clean_linker_0, # of connection points: 2
#     Edge 9, Type (0, 1), BuildingBlock: ZUJKAS_clean_linker_0, # of connection points: 2
#     Edge 10, Type (0, 1), BuildingBlock: ZUJKAS_clean_linker_0, # of connection points: 2
#     Edge 11, Type (0, 1), BuildingBlock: ZUJKAS_clean_linker_0, # of connection points: 2
#     Edge 12, Type (0, 1), BuildingBlock: ZUJKAS_clean_linker_0, # of connection points: 2
#     Edge 13, Type (0, 1), BuildingBlock: ZUJKAS_clean_linker_0, # of connection points: 2
#     Edge 14, Type (0, 1), BuildingBlock: ZUJKAS_clean_linker_0, # of connection points: 2
#     Edge 15, Type (0, 1), BuildingBlock: ZUJKAS_clean_linker_0, # of connection points: 2
#     Edge 16, Type (0, 1), BuildingBlock: ZUJKAS_clean_linker_0, # of connection points: 2
#     Edge 17, Type (0, 1), BuildingBlock: ZUJKAS_clean_linker_0, # of connection points: 2
# Relax obj value: 0.118
# Max RMSD: 0.151
# Mean RMSD: 0.110
data_MOF--net-tsx--node1-LEVNOQ01_clean_sbu_1--node2-BELTOD_clean_linker_0--edge1-ZUJKAS_clean_linker_0
_symmetry_space_group_name_H-M    P1
_symmetry_Int_Tables_number       1
_symmetry_cell_setting            triclinic
loop_
_symmetry_equiv_pos_as_xyz
'x, y, z'
_cell_length_a     26.542828
_cell_length_b     32.396987
_cell_length_c     52.3013
_cell_angle_alpha  98.360991
_cell_angle_beta   90.805113
_cell_angle_gamma 90.763122
loop_
_atom_site_label
_atom_site_type_symbol
_atom_site_fract_x
_atom_site_fract_y
_atom_site_fract_z
_atom_type_partial_charge
O0 O 0.12238 0.0042 0.0579 0.0
Mg1 Mg 0.15753 0.01811 0.02385 0.0
O2 O 0.04299 0.006 0.04396 0.0
Mg3 Mg 0.0479 0.0139 0.00053 0.0
O4 O 0.11551 0.0596 0.00744 0.0
O5 O 0.19373 0.0741 0.02239 0.0
O6 O 0.06272 0.02642 0.95666 0.0
O7 O -0.00115 0.07264 0.0088 0.0
Mg8 Mg 0.98643 -0.00307 0.96737 0.0
O9 O 0.97476 0.9676 -0.00164 0.0
O10 O 0.03177 0.96755 0.93761 0.0
O11 O 0.96948 0.06157 0.96899 0.0
O12 O 0.91994 0.96666 0.96513 0.0
C13 C 0.14112 0.9418 0.98849 0.0
C14 C 0.07532 0.00155 0.06163 0.0
C15 C 0.15352 0.08541 0.01131 0.0
C16 C 0.05757 -5e-05 0.93619 0.0
C17 C 0.97469 0.08529 0.99035 0.0
C18 C 0.93225 0.95491 0.98683 0.0
O19 O 0.17622 0.96744 -0.00364 0.0
O20 O 0.09493 0.95201 0.99123 0.0
O21 O 0.60705 0.49135 0.55208 0.0
Mg22 Mg 0.6326 0.51121 0.51732 0.0
O23 O 0.53054 0.51087 0.54313 0.0
Mg24 Mg 0.53946 0.51214 0.49911 0.0
O25 O 0.60492 0.56397 0.50521 0.0
O26 O 0.6801 0.56024 0.52499 0.0
O27 O 0.54919 0.51458 0.45445 0.0
O28 O 0.48942 0.57161 0.50387 0.0
Mg29 Mg 0.43862 0.49474 0.46742 0.0
O30 O 0.472 0.46556 0.49476 0.0
O31 O 0.47984 0.48913 0.43353 0.0
O32 O 0.41596 0.5545 0.48393 0.0
O33 O 0.39899 0.444 0.47496 0.0
C34 C 0.63009 0.43911 0.48604 0.0
C35 C 0.56199 0.49828 0.55875 0.0
C36 C 0.64796 0.58113 0.51355 0.0
C37 C 0.52464 0.50287 0.43336 0.0
C38 C 0.4447 0.58071 0.49759 0.0
C39 C 0.43371 0.43985 0.49187 0.0
O40 O 0.66289 0.4678 0.48869 0.0
O41 O 0.58505 0.44795 0.49289 0.0
P42 P 0.09197 0.03333 0.41937 0.0
H43 H 0.08452 0.09871 0.46384 0.0
H44 H 0.01278 0.13769 0.48307 0.0
H45 H 0.91125 0.05707 0.43255 0.0
H46 H 0.98321 0.01788 0.41361 0.0
H47 H 0.17686 0.9809 0.40497 0.0
H48 H 0.20838 0.91768 0.41952 0.0
H49 H 0.08441 0.91885 0.47229 0.0
H50 H 0.0529 0.9824 0.45755 0.0
H51 H 0.08096 0.08851 0.38066 0.0
H52 H 0.06514 0.9567 0.38391 0.0
O53 O 0.14004 0.06752 0.4232 0.0
H54 H 0.061 0.0761 0.33436 0.0
H55 H 0.04517 0.94405 0.33764 0.0
C56 C 0.03907 0.0563 0.43682 0.0
C57 C 0.04678 0.08904 0.45717 0.0
C58 C 0.0058 0.11129 0.46813 0.0
C59 C 0.95652 0.10087 0.45896 0.0
C60 C 0.94877 0.0658 0.44001 0.0
C61 C 0.98985 0.04361 0.42903 0.0
C62 C 0.11289 -0.01364 0.43031 0.0
C63 C 0.15633 0.96742 0.41958 0.0
C64 C 0.17401 0.93113 0.42774 0.0
C65 C 0.14865 0.91328 0.44693 0.0
C66 C 0.10472 0.93212 0.45753 0.0
C67 C 0.08676 0.96839 0.44914 0.0
C68 C 0.07577 0.02347 0.38552 0.0
C69 C 0.07319 0.05691 0.37138 0.0
C70 C 0.06133 0.0498 0.34499 0.0
C71 C 0.05172 0.00905 0.33235 0.0
C72 C 0.05308 0.9757 0.34679 0.0
C73 C 0.0646 0.98291 0.37323 0.0
P74 P 0.0435 0.01816 0.58284 0.0
H75 H 0.01864 0.97481 0.53164 0.0
H76 H 0.94193 0.93904 0.51337 0.0
H77 H 0.86141 -0.01165 0.58213 0.0
H78 H 0.9385 0.02338 0.60044 0.0
H79 H 0.14445 0.03902 0.56808 0.0
H80 H 0.18063 0.09932 0.5519 0.0
H81 H 0.03455 0.15676 0.55411 0.0
H82 H -0.0022 0.09515 0.57002 0.0
H83 H 0.05642 0.96497 0.62245 0.0
H84 H 0.01635 0.09271 0.61932 0.0
O85 O 0.0837 0.97905 0.57592 0.0
H86 H 0.04848 0.97647 0.66919 0.0
H87 H 0.00672 0.10429 0.66634 0.0
C88 C 0.98447 0.00077 0.5676 0.0
C89 C 0.98418 0.97854 0.54255 0.0
C90 C 0.94018 0.95836 0.53205 0.0
C91 C 0.89575 0.96033 0.54649 0.0
C92 C 0.89532 -0.01442 0.57077 0.0
C93 C 0.93939 0.00569 0.58124 0.0
C94 C 0.06841 0.0625 0.56999 0.0
C95 C 0.11986 0.06415 0.56473 0.0
C96 C 0.14049 0.09857 0.55535 0.0
C97 C 0.11019 0.13237 0.55144 0.0
C98 C 0.05853 0.13091 0.55683 0.0
C99 C 0.03765 0.09591 0.5659 0.0
C100 C 0.03809 0.02819 0.61746 0.0
C101 C 0.04597 -0.0044 0.63186 0.0
C102 C 0.04075 0.00212 0.65862 0.0
C103 C 0.02671 0.0413 0.67159 0.0
C104 C 0.01818 0.07389 0.65701 0.0
C105 C 0.02366 0.06732 0.63013 0.0
P106 P 0.59795 0.53388 0.91931 0.0
H107 H 0.58153 0.59678 0.96433 0.0
H108 H 0.50543 0.63156 0.9813 0.0
H109 H 0.41472 0.54545 0.92811 0.0
H110 H 0.49126 0.51128 0.91095 0.0
H111 H 0.70005 0.50558 0.92476 0.0
H112 H 0.73514 0.44301 0.93836 0.0
H113 H 0.58511 0.39874 0.95219 0.0
H114 H 0.55 0.46211 0.93865 0.0
H115 H 0.55213 0.5844 0.88417 0.0
H116 H 0.61487 0.46139 0.87907 0.0
O117 O 0.64155 0.57193 0.9241 0.0
H118 H 0.53481 0.57295 0.8377 0.0
H119 H 0.59902 0.45012 0.83245 0.0
C120 C 0.54194 0.55237 0.93588 0.0
C121 C 0.5452 0.58493 0.95665 0.0
C122 C 0.50156 0.60459 0.96648 0.0
C123 C 0.45403 0.59178 0.95567 0.0
C124 C 0.45085 0.55662 0.93642 0.0
C125 C 0.49452 0.537 0.92665 0.0
C126 C 0.62258 0.48878 0.93116 0.0
C127 C 0.67467 0.4827 0.93098 0.0
C128 C 0.69464 0.44673 0.93854 0.0
C129 C 0.66282 0.41593 0.94623 0.0
C130 C 0.61049 0.42218 0.94657 0.0
C131 C 0.59045 0.45829 0.93886 0.0
C132 C 0.58451 0.52376 0.8851 0.0
C133 C 0.56216 0.5549 0.87301 0.0
C134 C 0.55259 0.54839 0.8464 0.0
C135 C 0.56568 0.51065 0.83128 0.0
C136 C 0.58785 0.47932 0.84355 0.0
C137 C 0.59724 0.48586 0.87024 0.0
P138 P 0.54481 0.51058 0.08185 0.0
H139 H 0.52245 0.47301 0.02901 0.0
H140 H 0.44725 0.43732 0.00857 0.0
H141 H 0.36451 0.47394 0.07864 0.0
H142 H 0.43918 0.51044 0.09854 0.0
H143 H 0.64967 0.53367 0.07766 0.0
H144 H 0.69157 0.59558 0.06628 0.0
H145 H 0.54689 0.64652 0.04991 0.0
H146 H 0.50505 0.58343 0.06086 0.0
H147 H 0.52848 0.45862 0.1218 0.0
H148 H 0.54212 0.59025 0.11747 0.0
O149 O 0.5838 0.47029 0.07699 0.0
H150 H 0.52306 0.4739 0.16876 0.0
H151 H 0.53626 0.60582 0.16445 0.0
C152 C 0.48658 0.49378 0.06536 0.0
C153 C 0.4877 0.47419 0.03969 0.0
C154 C 0.44479 0.45355 0.02812 0.0
C155 C 0.40003 0.45212 0.04212 0.0
C156 C 0.39818 0.47452 0.06724 0.0
C157 C 0.44112 0.49522 0.07875 0.0
C158 C 0.57441 0.55374 0.06966 0.0
C159 C 0.62696 0.55776 0.07115 0.0
C160 C 0.65083 0.59346 0.06496 0.0
C161 C 0.62253 0.62623 0.05752 0.0
C162 C 0.56973 0.62171 0.05543 0.0
C163 C 0.5458 0.58572 0.06162 0.0
C164 C 0.5367 0.52314 0.1162 0.0
C165 C 0.52997 0.49083 0.13097 0.0
C166 C 0.52644 0.49967 0.1578 0.0
C167 C 0.52949 0.54111 0.17036 0.0
C168 C 0.53453 0.57357 0.15537 0.0
C169 C 0.53781 0.56466 0.12847 0.0
H170 H 0.08282 0.14619 0.02211 0.0
H171 H 0.09584 0.22086 0.0192 0.0
H172 H 0.2374 0.19257 0.98146 0.0
H173 H 0.22465 0.11902 0.98454 0.0
H174 H 0.17553 0.26288 0.0447 0.0
H175 H 0.18697 0.28218 0.94224 0.0
H176 H 0.15647 0.23732 0.95256 0.0
H177 H 0.2237 0.23836 0.94798 0.0
C178 C 0.11557 0.15599 0.01227 0.0
C179 C 0.15283 0.12719 0.00351 0.0
C180 C 0.12309 0.19854 0.0107 0.0
C181 C 0.16735 0.21234 -0.00018 0.0
C182 C 0.20242 0.18279 0.98934 0.0
H183 H 0.40619 0.37335 0.01573 0.0
H184 H 0.33783 0.32316 0.00349 0.0
C185 C 0.19531 0.14072 0.99126 0.0
C186 C 0.18238 0.25714 0.00337 0.0
H187 H 0.24488 0.32714 0.97195 0.0
C188 C 0.18899 0.27775 0.02876 0.0
C189 C 0.19993 0.27657 0.98257 0.0
C190 C 0.19085 0.25751 0.95481 0.0
C191 C 0.21733 0.31503 0.03402 0.0
C192 C 0.23904 0.33222 0.01331 0.0
C193 C 0.22858 0.31366 0.98782 0.0
C194 C 0.2787 0.36516 0.01795 0.0
C195 C 0.22761 0.33375 0.06178 0.0
C196 C 0.26795 0.40582 0.02957 0.0
C197 C 0.30713 0.43488 0.03649 0.0
C198 C 0.35764 0.42369 0.03184 0.0
C199 C 0.36781 0.38337 0.0192 0.0
C200 C 0.32875 0.3545 0.0123 0.0
H201 H 0.21131 0.31455 0.07566 0.0
H202 H 0.26885 0.33718 0.06552 0.0
H203 H 0.21114 0.36532 0.06551 0.0
H204 H 0.22946 0.41473 0.03385 0.0
H205 H 0.29799 0.46582 0.04591 0.0
H206 H 0.21247 0.9147 0.95399 0.0
H207 H 0.25285 0.84671 0.9491 0.0
H208 H 0.14693 0.80465 0.002 0.0
H209 H 0.10497 0.87223 0.0059 0.0
H210 H 0.2997 0.82094 0.98894 0.0
H211 H 0.15621 0.70134 0.94942 0.0
H212 H 0.14776 0.75629 0.94845 0.0
H213 H 0.13733 0.73506 0.97787 0.0
C214 C 0.19658 0.89027 0.96368 0.0
C215 C 0.1554 0.89833 0.98006 0.0
C216 C 0.21987 0.85159 0.96108 0.0
C217 C 0.20304 0.82051 0.9752 0.0
C218 C 0.16001 0.82773 0.99049 0.0
H219 H 0.42434 0.63109 0.00319 0.0
H220 H 0.35839 0.68351 0.01162 0.0
C221 C 0.13596 0.8663 0.99266 0.0
C222 C 0.2343 0.78305 0.97609 0.0
H223 H 0.23427 0.67662 0.96313 0.0
C224 C 0.28531 0.78937 0.98335 0.0
C225 C 0.2154 0.74188 0.96901 0.0
C226 C 0.16129 0.73309 0.96054 0.0
C227 C 0.31836 0.7559 0.98282 0.0
C228 C 0.29962 0.71475 0.97549 0.0
C229 C 0.24832 0.70822 0.96898 0.0
C230 C 0.33398 0.6788 0.97162 0.0
C231 C 0.37354 0.76504 0.9889 0.0
C232 C 0.34044 0.65755 0.9466 0.0
C233 C 0.37775 0.62765 0.94177 0.0
C234 C 0.40938 0.61831 0.9619 0.0
C235 C 0.40098 0.63799 0.98724 0.0
C236 C 0.36338 0.6679 0.99208 0.0
H237 H 0.38321 0.79864 0.98946 0.0
H238 H 0.383 0.7562 0.00809 0.0
H239 H 0.39746 0.74659 0.97432 0.0
H240 H 0.31827 0.66561 0.93054 0.0
H241 H 0.38362 0.61362 0.92197 0.0
H242 H 0.83908 0.92881 0.96864 0.0
H243 H 0.78347 0.87808 0.98424 0.0
H244 H 0.89018 0.86449 0.04526 0.0
H245 H 0.94675 0.91589 0.02975 0.0
H246 H 0.814 0.79433 0.98758 0.0
H247 H 0.74977 0.87928 0.08137 0.0
H248 H 0.77539 0.90587 0.05628 0.0
H249 H 0.81653 0.87935 0.07576 0.0
C250 C 0.85084 0.91541 0.98552 0.0
C251 C 0.89766 0.92618 -0.00216 0.0
C252 C 0.81882 0.88646 -0.00557 0.0
C253 C 0.83262 0.86776 0.01592 0.0
C254 C 0.87866 0.87906 0.0288 0.0
H255 H 0.6996 0.6679 0.08568 0.0
H256 H 0.74802 0.72794 0.07569 0.0
C257 C 0.91099 0.90821 0.01985 0.0
C258 C 0.80018 0.83418 0.02335 0.0
H259 H 0.72272 0.80895 0.07045 0.0
C260 C 0.79394 0.79748 0.00568 0.0
C261 C 0.77423 0.83858 0.04696 0.0
C262 C 0.77883 0.87795 0.0662 0.0
C263 C 0.76285 0.76465 0.01109 0.0
C264 C 0.73637 0.7691 0.03459 0.0
C265 C 0.74276 0.80581 0.05235 0.0
C266 C 0.70395 0.73501 0.04155 0.0
C267 C 0.75971 0.7251 0.99186 0.0
C268 C 0.66219 0.71977 0.02603 0.0
C269 C 0.63475 0.68501 0.03149 0.0
C270 C 0.64853 0.66513 0.05266 0.0
C271 C 0.68882 0.68187 0.06886 0.0
C272 C 0.71624 0.71643 0.06334 0.0
H273 H 0.79148 0.72288 0.97815 0.0
H274 H 0.75978 0.6971 0.00185 0.0
H275 H 0.7241 0.72471 0.98045 0.0
H276 H 0.65149 0.73424 0.00939 0.0
H277 H 0.60387 0.67292 0.01869 0.0
H278 H 0.97064 0.14025 0.95641 0.0
H279 H 0.91114 0.19709 0.95634 0.0
H280 H 0.85642 0.1748 0.03051 0.0
H281 H 0.91761 0.11861 0.03102 0.0
H282 H 0.8089 0.17802 0.95638 0.0
H283 H 0.86024 0.30269 0.03795 0.0
H284 H 0.90439 0.2634 0.025 0.0
H285 H 0.85433 0.25027 0.04521 0.0
C286 C 0.94708 0.14849 0.97309 0.0
C287 C 0.94845 0.12527 0.9937 0.0
C288 C 0.913 0.18076 0.973 0.0
C289 C 0.87918 0.18999 0.99334 0.0
C290 C 0.88263 0.16858 0.01479 0.0
H291 H 0.64147 0.37715 0.98818 0.0
H292 H 0.68471 0.31696 0.00167 0.0
C293 C 0.91757 0.13658 0.01509 0.0
C294 C 0.83699 0.21833 0.99015 0.0
H295 H 0.7903 0.31445 0.01194 0.0
C296 C 0.80453 0.20769 0.9687 0.0
C297 C 0.83064 0.25651 0.00657 0.0
C298 C 0.86431 0.26924 0.02992 0.0
C299 C 0.76783 0.23525 0.96232 0.0
C300 C 0.7638 0.27467 0.97766 0.0
C301 C 0.79377 0.28421 0.00016 0.0
C302 C 0.73398 0.30826 0.96877 0.0
C303 C 0.73473 0.22239 0.93874 0.0
C304 C 0.74721 0.32291 0.9458 0.0
C305 C 0.72281 0.35698 0.93813 0.0
C306 C 0.68484 0.37732 0.95337 0.0
C307 C 0.67045 0.36189 0.97602 0.0
C308 C 0.6952 0.32774 0.98379 0.0
H309 H 0.73047 0.1879 0.93446 0.0
H310 H 0.69676 0.23626 0.94122 0.0
H311 H 0.75239 0.23332 0.92177 0.0
H312 H 0.77755 0.30873 0.93414 0.0
H313 H 0.73428 0.36789 0.92044 0.0
H314 H 0.58977 0.6389 0.49308 0.0
H315 H 0.61431 0.71107 0.48849 0.0
H316 H 0.76 0.69306 0.52231 0.0
H317 H 0.73648 0.622 0.52683 0.0
H318 H 0.64721 0.7763 0.52878 0.0
H319 H 0.79471 0.74035 0.45583 0.0
H320 H 0.74618 0.703 0.46119 0.0
H321 H 0.80163 0.70998 0.48171 0.0
C322 C 0.62711 0.65035 0.49935 0.0
C323 C 0.6612 0.62458 0.51022 0.0
C324 C 0.64103 0.69148 0.4967 0.0
C325 C 0.68935 0.707 0.50456 0.0
C326 C 0.72301 0.68137 0.51553 0.0
H327 H 0.84094 0.91386 0.57567 0.0
H328 H 0.77935 0.85919 0.56092 0.0
C329 C 0.70923 0.64071 0.51826 0.0
C330 C 0.70501 0.75056 0.50295 0.0
H331 H 0.80574 0.80548 0.48508 0.0
C332 C 0.68103 0.78304 0.51864 0.0
C333 C 0.74852 0.75949 0.48932 0.0
C334 C 0.77392 0.72637 0.47084 0.0
C335 C 0.70231 0.82342 0.52301 0.0
C336 C 0.74909 0.83109 0.51175 0.0
C337 C 0.77025 0.79959 0.49404 0.0
C338 C 0.78025 0.86888 0.52082 0.0
C339 C 0.67553 0.85698 0.5405 0.0
C340 C 0.80184 0.89251 0.50318 0.0
C341 C 0.83763 0.92385 0.5116 0.0
C342 C 0.85252 0.93195 0.5378 0.0
C343 C 0.82945 0.90921 0.55549 0.0
C344 C 0.79399 0.8779 0.54706 0.0
H345 H 0.63404 0.85197 0.539 0.0
H346 H 0.68701 0.85568 0.56085 0.0
H347 H 0.68478 0.88855 0.53584 0.0
H348 H 0.7922 0.88579 0.48279 0.0
H349 H 0.85466 0.94094 0.49754 0.0
H350 H 0.58678 0.36823 0.49989 0.0
H351 H 0.62723 0.29998 0.49851 0.0
H352 H 0.75292 0.34445 0.45831 0.0
H353 H 0.71329 0.41221 0.45964 0.0
H354 H 0.68463 0.24289 0.44916 0.0
H355 H 0.79624 0.31337 0.53573 0.0
H356 H 0.73436 0.33149 0.52826 0.0
H357 H 0.78796 0.34511 0.5105 0.0
C358 C 0.62229 0.36294 0.49007 0.0
C359 C 0.64715 0.3956 0.48006 0.0
C360 C 0.64537 0.3241 0.48941 0.0
C361 C 0.69317 0.3176 0.47855 0.0
C362 C 0.71611 0.3491 0.46688 0.0
H363 H 0.95748 0.1851 0.46202 0.0
H364 H 0.88714 0.23236 0.47036 0.0
C365 C 0.69338 0.38774 0.46764 0.0
C366 C 0.72226 0.27996 0.4814 0.0
H367 H 0.82721 0.25091 0.51218 0.0
C368 C 0.71512 0.24397 0.46327 0.0
C369 C 0.76187 0.28185 0.49987 0.0
C370 C 0.77061 0.31989 0.51987 0.0
C371 C 0.74903 0.21074 0.46197 0.0
C372 C 0.79051 0.2137 0.47955 0.0
C373 C 0.79546 0.24868 0.49873 0.0
C374 C 0.83294 0.18418 0.47617 0.0
C375 C 0.74217 0.17418 0.44073 0.0
C376 C 0.82615 0.14136 0.47715 0.0
C377 C 0.86655 0.11407 0.47222 0.0
C378 C 0.91443 0.12939 0.4667 0.0
C379 C 0.9213 0.17243 0.46665 0.0
C380 C 0.88102 0.19947 0.47129 0.0
H381 H 0.71319 0.18008 0.42621 0.0
H382 H 0.77823 0.16687 0.43067 0.0
H383 H 0.73002 0.14632 0.44925 0.0
H384 H 0.78963 0.12901 0.48144 0.0
H385 H 0.86035 0.08104 0.47255 0.0
H386 H 0.40001 0.45133 0.54069 0.0
H387 H 0.3481 0.39958 0.55859 0.0
H388 H 0.39196 0.30529 0.49633 0.0
H389 H 0.44305 0.35703 0.47833 0.0
H390 H 0.26904 0.36409 0.52248 0.0
H391 H 0.38129 0.24183 0.56001 0.0
H392 H 0.40527 0.29423 0.55956 0.0
H393 H 0.40355 0.25722 0.53043 0.0
C394 C 0.40097 0.41896 0.53183 0.0
C395 C 0.42576 0.40778 0.50839 0.0
C396 C 0.37089 0.38959 0.54186 0.0
C397 C 0.36615 0.34874 0.52871 0.0
C398 C 0.39568 0.33651 0.50695 0.0
H399 H 0.17268 0.1355 0.51105 0.0
H400 H 0.22964 0.19317 0.50502 0.0
C401 C 0.42517 0.36596 0.49678 0.0
C402 C 0.32368 0.32159 0.53415 0.0
H403 H 0.29569 0.2245 0.54814 0.0
C404 C 0.27461 0.33386 0.52859 0.0
C405 C 0.33137 0.2821 0.54172 0.0
C406 C 0.38316 0.26804 0.5485 0.0
C407 C 0.23309 0.30682 0.52941 0.0
C408 C 0.24104 0.26687 0.53631 0.0
C409 C 0.2899 0.25515 0.54266 0.0
C410 C 0.19971 0.23598 0.53659 0.0
C411 C 0.1815 0.32027 0.52178 0.0
C412 C 0.16255 0.24179 0.55555 0.0
C413 C 0.12984 0.20888 0.55897 0.0
C414 C 0.1344 0.1698 0.5436 0.0
C415 C 0.16887 0.16525 0.52329 0.0
C416 C 0.20136 0.19808 0.51986 0.0
H417 H 0.1831 0.34938 0.51289 0.0
H418 H 0.16292 0.29529 0.5079 0.0
H419 H 0.15771 0.32587 0.53918 0.0
H420 H 0.16101 0.27076 0.56876 0.0
H421 H 0.10378 0.21301 0.57486 0.0
H422 H 0.47193 0.64808 0.47592 0.0
H423 H 0.42099 0.71034 0.47523 0.0
H424 H 0.32239 0.66965 0.5319 0.0
H425 H 0.37222 0.60647 0.53164 0.0
H426 H 0.27248 0.67986 0.48877 0.0
H427 H 0.39287 0.82004 0.5187 0.0
H428 H 0.42076 0.78391 0.49385 0.0
H429 H 0.41046 0.76886 0.5252 0.0
C430 C 0.44074 0.65357 0.48908 0.0
C431 C 0.42607 0.62313 0.50409 0.0
C432 C 0.41162 0.68911 0.48869 0.0
C433 C 0.36799 0.69481 0.50365 0.0
C434 C 0.35593 0.6659 0.52027 0.0
H435 H 0.16329 0.90227 0.4972 0.0
H436 H 0.21119 0.84682 0.51324 0.0
C437 C 0.38454 0.63009 0.52031 0.0
C438 C 0.33086 0.72664 0.49882 0.0
H439 H 0.31739 0.83 0.49446 0.0
C440 C 0.28211 0.7128 0.49046 0.0
C441 C 0.34349 0.76955 0.50084 0.0
C442 C 0.39463 0.78653 0.51037 0.0
C443 C 0.24616 0.74052 0.48337 0.0
C444 C 0.25942 0.78305 0.48458 0.0
C445 C 0.30753 0.79722 0.49361 0.0
C446 C 0.22492 0.8131 0.47525 0.0
C447 C 0.1945 0.72419 0.4743 0.0
C448 C 0.21606 0.8117 0.44865 0.0
C449 C 0.18897 0.84326 0.43946 0.0
C450 C 0.17026 0.87664 0.45676 0.0
C451 C 0.17698 0.87676 0.48347 0.0
C452 C 0.2045 0.84533 0.49264 0.0
H453 H 0.1872 0.69229 0.47898 0.0
H454 H 0.16494 0.74532 0.48323 0.0
H455 H 0.19131 0.72305 0.45303 0.0
H456 H 0.23184 0.7871 0.43497 0.0
H457 H 0.18394 0.84228 0.41878 0.0
H458 H 0.11914 0.94965 0.09094 0.0
H459 H 0.10104 0.94238 0.13568 0.0
H460 H 0.97834 0.02837 0.13517 0.0
H461 H -0.00484 0.03428 0.08975 0.0
H462 H 0.1122 0.00757 0.17266 0.0
H463 H 0.91787 0.94324 0.17587 0.0
H464 H 0.95245 0.9406 0.1462 0.0
H465 H 0.92259 -0.01179 0.15959 0.0
C466 C 0.08757 0.96627 0.10021 0.0
C467 C 0.05883 -0.00714 0.08711 0.0
C468 C 0.07719 0.96202 0.12573 0.0
C469 C 0.03835 -0.01521 0.13881 0.0
C470 C 0.00787 0.00986 0.12535 0.0
H471 H 0.99161 0.05296 0.30331 0.0
H472 H 0.98434 0.0447 0.25604 0.0
C473 C 0.01767 0.01346 0.09949 0.0
C474 C 0.03493 -0.01357 0.16721 0.0
H475 H 0.95701 0.9701 0.21636 0.0
C476 C 0.07831 -0.00097 0.18214 0.0
C477 C 0.99055 0.97575 0.17959 0.0
C478 C 0.94332 0.96083 0.1645 0.0
C479 C 0.07869 0.00123 0.20905 0.0
C480 C 0.03456 -0.00971 0.22142 0.0
C481 C 0.99082 0.97823 0.20668 0.0
C482 C 0.0337 -0.00824 0.24976 0.0
C483 C 0.1262 0.01577 0.22411 0.0
C484 C 0.06292 0.96406 0.26172 0.0
C485 C 0.06735 0.96879 0.28863 0.0
C486 C 0.04264 0.00137 0.304 0.0
C487 C 0.01163 0.02795 0.29193 0.0
C488 C 0.00708 0.02308 0.265 0.0
H489 H 0.15324 0.03112 0.21232 0.0
H490 H 0.11732 0.03797 0.24165 0.0
H491 H 0.14498 -0.01153 0.23043 0.0
H492 H 0.0836 0.93962 0.2502 0.0
H493 H 0.0918 0.94803 0.29733 0.0
H494 H 0.05639 0.94826 0.89033 0.0
H495 H 0.05193 0.96858 0.84723 0.0
H496 H 0.0747 0.09754 0.87996 0.0
H497 H 0.07898 0.07753 0.92347 0.0
H498 H 0.97294 0.03423 0.83708 0.0
H499 H 0.17202 0.06954 0.81407 0.0
H500 H 0.15718 0.03324 0.83615 0.0
H501 H 0.1479 0.08794 0.8457 0.0
C502 C 0.06172 0.98087 0.88838 0.0
C503 C 0.06777 0.01131 0.91034 0.0
C504 C 0.05891 -0.00759 0.86374 0.0
C505 C 0.06257 0.0345 0.86053 0.0
C506 C 0.07191 0.06485 0.88214 0.0
H507 H 0.05686 0.10967 0.70608 0.0
H508 H 0.05809 0.11654 0.75333 0.0
C509 C 0.07467 0.05332 0.90693 0.0
C510 C 0.05257 0.04629 0.8347 0.0
H511 H 0.1113 0.06978 0.781 0.0
C512 C 0.00301 0.04258 0.82486 0.0
C513 C 0.09175 0.05778 0.81909 0.0
C514 C 0.14538 0.0624 0.82908 0.0
C515 C 0.99186 0.04844 0.79935 0.0
C516 C 0.03163 0.05706 0.78306 0.0
C517 C 0.08082 0.06299 0.79341 0.0
C518 C 0.0242 0.05581 0.75476 0.0
C519 C 0.93765 0.04486 0.7901 0.0
C520 C 0.00394 0.01973 0.73984 0.0
C521 C 0.00255 0.01597 0.71293 0.0
C522 C 0.02233 0.04786 0.70023 0.0
C523 C 0.04099 0.08463 0.71521 0.0
C524 C 0.04202 0.08851 0.74223 0.0
H525 H 0.91163 0.05435 0.80629 0.0
H526 H 0.9304 0.06437 0.7747 0.0
H527 H 0.92868 0.01183 0.78231 0.0
H528 H 0.99098 -0.00635 0.74894 0.0
H529 H 0.98711 -0.01249 0.70203 0.0
H530 H 0.57005 0.42902 0.58181 0.0
H531 H 0.55585 0.42313 0.62734 0.0
H532 H 0.5131 0.55256 0.64103 0.0
H533 H 0.52361 0.55724 0.59512 0.0
H534 H 0.60596 0.45865 0.66565 0.0
H535 H 0.41004 0.50869 0.68326 0.0
H536 H 0.43439 0.49716 0.65103 0.0
H537 H 0.44473 0.54792 0.66984 0.0
C538 C 0.55615 0.45572 0.59451 0.0
C539 C 0.54735 0.49342 0.58514 0.0
C540 C 0.54822 0.45246 0.6205 0.0
C541 C 0.53268 0.48721 0.63774 0.0
C542 C 0.52325 0.52481 0.62813 0.0
H543 H 0.58051 0.5677 0.79826 0.0
H544 H 0.5679 0.55792 0.75139 0.0
C545 C 0.52965 0.52765 0.60194 0.0
C546 C 0.53187 0.48539 0.66603 0.0
H547 H 0.46515 0.51447 0.72104 0.0
C548 C 0.5746 0.47008 0.67759 0.0
C549 C 0.49102 0.50017 0.68184 0.0
C550 C 0.44231 0.51395 0.67075 0.0
C551 C 0.57842 0.47075 0.70442 0.0
C552 C 0.53891 0.48769 0.72016 0.0
C553 C 0.49554 0.50183 0.70878 0.0
C554 C 0.54378 0.49344 0.74862 0.0
C555 C 0.62531 0.45465 0.71599 0.0
C556 C 0.53412 0.46032 0.76246 0.0
C557 C 0.54089 0.46584 0.78934 0.0
C558 C 0.55751 0.5046 0.80276 0.0
C559 C 0.56685 0.53768 0.78866 0.0
C560 C 0.5599 0.53215 0.76187 0.0
H561 H 0.653 0.44274 0.70107 0.0
H562 H 0.64351 0.47993 0.7298 0.0
H563 H 0.61499 0.42903 0.727 0.0
H564 H 0.52165 0.4302 0.75244 0.0
H565 H 0.53281 0.43987 0.79961 0.0
H566 H 0.58664 0.5662 0.42231 0.0
H567 H 0.59945 0.58594 0.37906 0.0
H568 H 0.51845 0.475 0.34468 0.0
H569 H 0.50549 0.45526 0.38739 0.0
H570 H 0.63224 0.52368 0.324 0.0
H571 H 0.44221 0.59435 0.33312 0.0
H572 H 0.48273 0.591 0.3608 0.0
H573 H 0.45022 0.54527 0.34492 0.0
C574 C 0.57323 0.54538 0.40542 0.0
C575 C 0.54484 0.50935 0.40812 0.0
C576 C 0.58021 0.55682 0.38083 0.0
C577 C 0.55925 0.53209 0.3589 0.0
C578 C 0.53458 0.49451 0.36147 0.0
H579 H 0.47045 0.50553 0.20389 0.0
H580 H 0.48006 0.51254 0.25087 0.0
C581 C 0.52736 0.48326 0.38585 0.0
C582 C 0.55821 0.54655 0.33343 0.0
H583 H 0.47577 0.58115 0.29091 0.0
C584 C 0.5987 0.53727 0.31683 0.0
C585 C 0.51406 0.5639 0.32431 0.0
C586 C 0.46977 0.57453 0.34168 0.0
C587 C 0.59503 0.54266 0.2907 0.0
C588 C 0.54986 0.55819 0.28122 0.0
C589 C 0.51037 0.56941 0.29826 0.0
C590 C 0.54079 0.55825 0.25324 0.0
C591 C 0.63816 0.52914 0.27307 0.0
C592 C 0.57057 0.58273 0.23913 0.0
C593 C 0.56542 0.57852 0.21222 0.0
C594 C 0.53027 0.54985 0.19903 0.0
C595 C 0.49852 0.52725 0.21344 0.0
C596 C 0.50373 0.53145 0.24028 0.0
H597 H 0.66672 0.51139 0.28254 0.0
H598 H 0.62412 0.5094 0.25518 0.0
H599 H 0.65705 0.55711 0.2674 0.0
H600 H 0.59879 0.60413 0.24885 0.0
H601 H 0.59051 0.59633 0.20169 0.0
loop_
_geom_bond_atom_site_label_1
_geom_bond_atom_site_label_2
_geom_bond_distance
_geom_bond_site_symmetry_2
_ccdc_geom_bond_type
O0 Mg1 1.990 . S
O0 C14 1.253 . S
Mg1 O0 1.990 . S
Mg1 O4 2.180 . S
Mg1 O5 2.117 . S
Mg1 O19 2.030 1_545 S
O2 Mg3 2.072 . S
O2 C14 1.260 . S
Mg3 O2 2.072 . S
Mg3 O4 2.099 . S
Mg3 O6 2.079 1_554 S
Mg3 O7 2.072 . S
Mg3 O9 2.099 1_444 S
Mg3 O20 2.079 1_544 S
O4 Mg1 2.180 . S
O4 Mg3 2.099 . S
O4 C15 1.279 . S
O5 Mg1 2.117 . S
O5 C15 1.250 . S
O6 Mg3 2.079 1_556 S
O6 C16 1.264 . S
O7 Mg3 2.072 . S
O7 C17 1.272 1_455 S
Mg8 O9 2.180 1_545 S
Mg8 O10 2.030 . S
Mg8 O11 1.990 . S
Mg8 O12 2.117 1_545 S
O9 Mg3 2.099 1_666 S
O9 Mg8 2.180 1_565 S
O9 C18 1.279 1_556 S
O10 Mg8 2.030 . S
O10 C16 1.248 1_655 S
O11 Mg8 1.990 . S
O11 C17 1.241 1_556 S
O12 Mg8 2.117 1_565 S
O12 C18 1.250 1_556 S
C13 O19 1.248 . S
C13 O20 1.264 1_554 S
C14 O0 1.253 . S
C14 O2 1.260 . S
C15 O4 1.279 . S
C15 O5 1.250 . S
C16 O6 1.264 . S
C16 O10 1.248 1_455 S
C17 O7 1.272 1_655 S
C17 O11 1.241 1_554 S
C18 O9 1.279 1_554 S
C18 O12 1.250 1_554 S
O19 Mg1 2.030 1_565 S
O19 C13 1.248 . S
O20 Mg3 2.079 1_566 S
O20 C13 1.264 1_556 S
O21 Mg22 1.990 . S
O21 C35 1.253 . S
Mg22 O21 1.990 . S
Mg22 O25 2.180 . S
Mg22 O26 2.117 . S
Mg22 O40 2.030 . S
O23 Mg24 2.072 . S
O23 C35 1.260 . S
Mg24 O23 2.072 . S
Mg24 O25 2.099 . S
Mg24 O27 2.079 . S
Mg24 O28 2.072 . S
Mg24 O30 2.099 . S
Mg24 O41 2.079 . S
O25 Mg22 2.180 . S
O25 Mg24 2.099 . S
O25 C36 1.279 . S
O26 Mg22 2.117 . S
O26 C36 1.250 . S
O27 Mg24 2.079 . S
O27 C37 1.264 . S
O28 Mg24 2.072 . S
O28 C38 1.260 . S
Mg29 O30 2.180 . S
Mg29 O31 2.030 . S
Mg29 O32 1.990 . S
Mg29 O33 2.117 . S
O30 Mg24 2.099 . S
O30 Mg29 2.180 . S
O30 C39 1.279 . S
O31 Mg29 2.030 . S
O31 C37 1.248 . S
O32 Mg29 1.990 . S
O32 C38 1.253 . S
O33 Mg29 2.117 . S
O33 C39 1.250 . S
C34 O40 1.248 . S
C34 O41 1.264 . S
C35 O21 1.253 . S
C35 O23 1.260 . S
C36 O25 1.279 . S
C36 O26 1.250 . S
C37 O27 1.264 . S
C37 O31 1.248 . S
C38 O28 1.260 . S
C38 O32 1.253 . S
C39 O30 1.279 . S
C39 O33 1.250 . S
O40 Mg22 2.030 . S
O40 C34 1.248 . S
O41 Mg24 2.079 . S
O41 C34 1.264 . S
P42 O53 1.490 . S
P42 C56 1.812 . S
P42 C62 1.803 1_545 S
P42 C68 1.819 . S
H43 C57 0.941 . S
H44 C58 0.939 . S
H45 C60 0.940 . S
H46 C61 0.940 . S
H47 C63 0.939 . S
H48 C64 0.942 . S
H49 C66 0.940 . S
H50 C67 0.939 . S
H51 C69 0.941 . S
H52 C73 0.939 . S
O53 P42 1.490 . S
H54 C70 0.939 . S
H55 C72 0.940 . S
C56 P42 1.812 . S
C56 C57 1.389 . S
C56 C61 1.391 1_455 S
C57 H43 0.941 . S
C57 C56 1.389 . S
C57 C58 1.397 . S
C58 H44 0.939 . S
C58 C57 1.397 . S
C58 C59 1.378 1_455 S
C59 C58 1.378 1_655 S
C59 C60 1.378 . S
C60 H45 0.940 . S
C60 C59 1.378 . S
C60 C61 1.396 . S
C61 H46 0.940 . S
C61 C56 1.391 1_655 S
C61 C60 1.396 . S
C62 P42 1.803 1_565 S
C62 C63 1.378 . S
C62 C67 1.400 . S
C63 H47 0.939 . S
C63 C62 1.378 . S
C63 C64 1.361 . S
C64 H48 0.942 . S
C64 C63 1.361 . S
C64 C65 1.369 . S
C65 C64 1.369 . S
C65 C66 1.404 . S
C66 H49 0.940 . S
C66 C65 1.404 . S
C66 C67 1.389 . S
C67 H50 0.939 . S
C67 C62 1.400 . S
C67 C66 1.389 . S
C68 P42 1.819 . S
C68 C69 1.391 . S
C68 C73 1.391 1_545 S
C69 H51 0.941 . S
C69 C68 1.391 . S
C69 C70 1.396 . S
C70 H54 0.939 . S
C70 C69 1.396 . S
C70 C71 1.397 . S
C71 C70 1.397 . S
C71 C72 1.385 1_545 S
C72 H55 0.940 . S
C72 C71 1.385 1_565 S
C72 C73 1.388 . S
C73 H52 0.939 . S
C73 C68 1.391 1_565 S
C73 C72 1.388 . S
P74 O85 1.490 . S
P74 C88 1.806 1_455 S
P74 C94 1.803 . S
P74 C100 1.819 . S
H75 C89 0.941 . S
H76 C90 0.939 . S
H77 C92 0.940 . S
H78 C93 0.940 . S
H79 C95 0.939 . S
H80 C96 0.942 . S
H81 C98 0.940 . S
H82 C99 0.955 . S
H83 C101 0.941 1_565 S
H84 C105 0.939 . S
O85 P74 1.490 . S
H86 C102 0.939 . S
H87 C104 0.940 . S
C88 P74 1.806 1_655 S
C88 C89 1.388 1_645 S
C88 C93 1.397 . S
C89 H75 0.941 . S
C89 C88 1.388 1_465 S
C89 C90 1.397 1_455 S
C90 H76 0.939 . S
C90 C89 1.397 1_655 S
C90 C91 1.378 . S
C91 C90 1.378 . S
C91 C92 1.378 1_565 S
C92 H77 0.940 . S
C92 C91 1.378 1_545 S
C92 C93 1.396 . S
C93 H78 0.940 . S
C93 C88 1.397 . S
C93 C92 1.396 . S
C94 P74 1.803 . S
C94 C95 1.378 . S
C94 C99 1.400 . S
C95 H79 0.939 . S
C95 C94 1.378 . S
C95 C96 1.361 . S
C96 H80 0.942 . S
C96 C95 1.361 . S
C96 C97 1.369 . S
C97 C96 1.369 . S
C97 C98 1.404 . S
C98 H81 0.940 . S
C98 C97 1.404 . S
C98 C99 1.389 . S
C99 H82 0.955 . S
C99 C94 1.400 . S
C99 C98 1.389 . S
C100 P74 1.819 . S
C100 C101 1.391 . S
C100 C105 1.391 . S
C101 H83 0.941 1_545 S
C101 C100 1.391 . S
C101 C102 1.396 . S
C102 H86 0.939 . S
C102 C101 1.396 . S
C102 C103 1.397 . S
C103 C102 1.397 . S
C103 C104 1.385 . S
C104 H87 0.940 . S
C104 C103 1.385 . S
C104 C105 1.388 . S
C105 H84 0.939 . S
C105 C100 1.391 . S
C105 C104 1.388 . S
P106 O117 1.490 . S
P106 C120 1.812 . S
P106 C126 1.803 . S
P106 C132 1.819 . S
H107 C121 0.941 . S
H108 C122 0.939 . S
H109 C124 0.940 . S
H110 C125 0.940 . S
H111 C127 0.939 . S
H112 C128 0.942 . S
H113 C130 0.940 . S
H114 C131 0.939 . S
H115 C133 0.941 . S
H116 C137 0.939 . S
O117 P106 1.490 . S
H118 C134 0.939 . S
H119 C136 0.940 . S
C120 P106 1.812 . S
C120 C121 1.389 . S
C120 C125 1.391 . S
C121 H107 0.941 . S
C121 C120 1.389 . S
C121 C122 1.397 . S
C122 H108 0.939 . S
C122 C121 1.397 . S
C122 C123 1.378 . S
C123 C122 1.378 . S
C123 C124 1.378 . S
C124 H109 0.940 . S
C124 C123 1.378 . S
C124 C125 1.396 . S
C125 H110 0.940 . S
C125 C120 1.391 . S
C125 C124 1.396 . S
C126 P106 1.803 . S
C126 C127 1.378 . S
C126 C131 1.400 . S
C127 H111 0.939 . S
C127 C126 1.378 . S
C127 C128 1.361 . S
C128 H112 0.942 . S
C128 C127 1.361 . S
C128 C129 1.369 . S
C129 C128 1.369 . S
C129 C130 1.404 . S
C130 H113 0.940 . S
C130 C129 1.404 . S
C130 C131 1.389 . S
C131 H114 0.939 . S
C131 C126 1.400 . S
C131 C130 1.389 . S
C132 P106 1.819 . S
C132 C133 1.391 . S
C132 C137 1.391 . S
C133 H115 0.941 . S
C133 C132 1.391 . S
C133 C134 1.396 . S
C134 H118 0.939 . S
C134 C133 1.396 . S
C134 C135 1.397 . S
C135 C134 1.397 . S
C135 C136 1.385 . S
C136 H119 0.940 . S
C136 C135 1.385 . S
C136 C137 1.388 . S
C137 H116 0.939 . S
C137 C132 1.391 . S
C137 C136 1.388 . S
P138 O149 1.490 . S
P138 C152 1.812 . S
P138 C158 1.803 . S
P138 C164 1.819 . S
H139 C153 0.941 . S
H140 C154 0.939 . S
H141 C156 0.940 . S
H142 C157 0.940 . S
H143 C159 0.939 . S
H144 C160 0.942 . S
H145 C162 0.940 . S
H146 C163 0.939 . S
H147 C165 0.941 . S
H148 C169 0.939 . S
O149 P138 1.490 . S
H150 C166 0.939 . S
H151 C168 0.940 . S
C152 P138 1.812 . S
C152 C153 1.389 . S
C152 C157 1.391 . S
C153 H139 0.941 . S
C153 C152 1.389 . S
C153 C154 1.397 . S
C154 H140 0.939 . S
C154 C153 1.397 . S
C154 C155 1.378 . S
C155 C154 1.378 . S
C155 C156 1.378 . S
C156 H141 0.940 . S
C156 C155 1.378 . S
C156 C157 1.396 . S
C157 H142 0.940 . S
C157 C152 1.391 . S
C157 C156 1.396 . S
C158 P138 1.803 . S
C158 C159 1.378 . S
C158 C163 1.400 . S
C159 H143 0.939 . S
C159 C158 1.378 . S
C159 C160 1.361 . S
C160 H144 0.942 . S
C160 C159 1.361 . S
C160 C161 1.369 . S
C161 C160 1.369 . S
C161 C162 1.404 . S
C162 H145 0.940 . S
C162 C161 1.404 . S
C162 C163 1.389 . S
C163 H146 0.939 . S
C163 C158 1.400 . S
C163 C162 1.389 . S
C164 P138 1.819 . S
C164 C165 1.391 . S
C164 C169 1.391 . S
C165 H147 0.941 . S
C165 C164 1.391 . S
C165 C166 1.396 . S
C166 H150 0.939 . S
C166 C165 1.396 . S
C166 C167 1.397 . S
C167 C166 1.397 . S
C167 C168 1.385 . S
C168 H151 0.940 . S
C168 C167 1.385 . S
C168 C169 1.388 . S
C169 H148 0.939 . S
C169 C164 1.391 . S
C169 C168 1.388 . S
H170 C178 0.929 . S
H171 C180 0.930 . S
H172 C182 0.930 . S
H173 C185 0.929 . S
H174 C188 0.930 . S
H175 C190 0.960 . S
H176 C190 0.960 . S
H177 C190 0.960 . S
C178 H170 0.929 . S
C178 C179 1.377 . S
C178 C180 1.384 . S
C179 C178 1.377 . S
C179 C185 1.390 . S
C180 H171 0.930 . S
C180 C178 1.384 . S
C180 C181 1.372 . S
C181 C180 1.372 . S
C181 C182 1.400 . S
C181 C186 1.490 . S
C182 H172 0.930 . S
C182 C181 1.400 . S
C182 C185 1.386 . S
H183 C199 0.930 . S
H184 C200 0.931 . S
C185 H173 0.929 . S
C185 C179 1.390 . S
C185 C182 1.386 . S
C186 C181 1.490 . S
C186 C188 1.395 . S
C186 C189 1.403 . S
H187 C193 0.916 1_556 S
C188 H174 0.930 . S
C188 C186 1.395 . S
C188 C191 1.403 . S
C189 C186 1.403 . S
C189 C190 1.524 1_554 S
C189 C193 1.400 . S
C190 H175 0.960 . S
C190 H176 0.960 . S
C190 H177 0.960 . S
C190 C189 1.524 1_556 S
C191 C188 1.403 . S
C191 C192 1.392 . S
C191 C195 1.495 . S
C192 C191 1.392 . S
C192 C193 1.385 . S
C192 C194 1.478 . S
C193 H187 0.916 1_554 S
C193 C189 1.400 . S
C193 C192 1.385 . S
C194 C192 1.478 . S
C194 C196 1.381 . S
C194 C200 1.383 . S
C195 C191 1.495 . S
C195 H201 0.959 . S
C195 H202 0.961 . S
C195 H203 0.960 . S
C196 C194 1.381 . S
C196 C197 1.394 . S
C196 H204 0.930 . S
C197 C196 1.394 . S
C197 C198 1.383 . S
C197 H205 0.929 . S
C198 C197 1.383 . S
C198 C199 1.377 . S
C199 H183 0.930 . S
C199 C198 1.377 . S
C199 C200 1.379 . S
C200 H184 0.931 . S
C200 C194 1.383 . S
C200 C199 1.379 . S
H201 C195 0.959 . S
H202 C195 0.961 . S
H203 C195 0.960 . S
H204 C196 0.930 . S
H205 C197 0.929 . S
H206 C214 0.929 . S
H207 C216 0.930 . S
H208 C218 0.930 . S
H209 C221 0.929 . S
H210 C224 0.930 . S
H211 C226 0.960 . S
H212 C226 0.960 . S
H213 C226 0.960 . S
C214 H206 0.929 . S
C214 C215 1.377 1_556 S
C214 C216 1.384 . S
C215 C214 1.377 1_554 S
C215 C221 1.390 . S
C216 H207 0.930 . S
C216 C214 1.384 . S
C216 C217 1.372 . S
C217 C216 1.372 . S
C217 C218 1.400 1_556 S
C217 C222 1.490 . S
C218 H208 0.930 . S
C218 C217 1.400 1_554 S
C218 C221 1.386 . S
H219 C235 0.930 1_554 S
H220 C236 0.931 1_554 S
C221 H209 0.929 . S
C221 C215 1.390 . S
C221 C218 1.386 . S
C222 C217 1.490 . S
C222 C224 1.395 . S
C222 C225 1.403 . S
H223 C229 0.930 . S
C224 H210 0.930 . S
C224 C222 1.395 . S
C224 C227 1.403 . S
C225 C222 1.403 . S
C225 C226 1.524 . S
C225 C229 1.400 . S
C226 H211 0.960 . S
C226 H212 0.960 . S
C226 H213 0.960 . S
C226 C225 1.524 . S
C227 C224 1.403 . S
C227 C228 1.392 . S
C227 C231 1.495 . S
C228 C227 1.392 . S
C228 C229 1.385 . S
C228 C230 1.478 . S
C229 H223 0.930 . S
C229 C225 1.400 . S
C229 C228 1.385 . S
C230 C228 1.478 . S
C230 C232 1.381 . S
C230 C236 1.383 . S
C231 C227 1.495 . S
C231 H237 0.959 . S
C231 H238 0.961 1_556 S
C231 H239 0.960 . S
C232 C230 1.381 . S
C232 C233 1.394 . S
C232 H240 0.930 . S
C233 C232 1.394 . S
C233 C234 1.383 . S
C233 H241 0.929 . S
C234 C233 1.383 . S
C234 C235 1.377 . S
C235 H219 0.930 1_556 S
C235 C234 1.377 . S
C235 C236 1.379 . S
C236 H220 0.931 1_556 S
C236 C230 1.383 . S
C236 C235 1.379 . S
H237 C231 0.959 . S
H238 C231 0.961 1_554 S
H239 C231 0.960 . S
H240 C232 0.930 . S
H241 C233 0.929 . S
H242 C250 0.929 . S
H243 C252 0.930 1_556 S
H244 C254 0.930 . S
H245 C257 0.929 . S
H246 C260 0.930 1_556 S
H247 C262 0.960 . S
H248 C262 0.960 . S
H249 C262 0.960 . S
C250 H242 0.929 . S
C250 C251 1.377 1_556 S
C250 C252 1.384 1_556 S
C251 C250 1.377 1_554 S
C251 C257 1.390 . S
C252 H243 0.930 1_554 S
C252 C250 1.384 1_554 S
C252 C253 1.372 . S
C253 C252 1.372 . S
C253 C254 1.400 . S
C253 C258 1.490 . S
C254 H244 0.930 . S
C254 C253 1.400 . S
C254 C257 1.386 . S
H255 C271 0.930 . S
H256 C272 0.931 . S
C257 H245 0.929 . S
C257 C251 1.390 . S
C257 C254 1.386 . S
C258 C253 1.490 . S
C258 C260 1.395 . S
C258 C261 1.403 . S
H259 C265 0.930 . S
C260 H246 0.930 1_554 S
C260 C258 1.395 . S
C260 C263 1.403 . S
C261 C258 1.403 . S
C261 C262 1.524 . S
C261 C265 1.400 . S
C262 H247 0.960 . S
C262 H248 0.960 . S
C262 H249 0.960 . S
C262 C261 1.524 . S
C263 C260 1.403 . S
C263 C264 1.392 . S
C263 C267 1.495 1_554 S
C264 C263 1.392 . S
C264 C265 1.385 . S
C264 C266 1.478 . S
C265 H259 0.930 . S
C265 C261 1.400 . S
C265 C264 1.385 . S
C266 C264 1.478 . S
C266 C268 1.381 . S
C266 C272 1.383 . S
C267 C263 1.495 1_556 S
C267 H273 0.959 . S
C267 H274 0.961 . S
C267 H275 0.960 . S
C268 C266 1.381 . S
C268 C269 1.394 . S
C268 H276 0.930 . S
C269 C268 1.394 . S
C269 C270 1.383 . S
C269 H277 0.929 . S
C270 C269 1.383 . S
C270 C271 1.377 . S
C271 H255 0.930 . S
C271 C270 1.377 . S
C271 C272 1.379 . S
C272 H256 0.931 . S
C272 C266 1.383 . S
C272 C271 1.379 . S
H273 C267 0.959 . S
H274 C267 0.961 . S
H275 C267 0.960 . S
H276 C268 0.930 . S
H277 C269 0.929 . S
H278 C286 0.929 . S
H279 C288 0.930 . S
H280 C290 0.930 . S
H281 C293 0.929 . S
H282 C296 0.930 . S
H283 C298 0.960 . S
H284 C298 0.960 . S
H285 C298 0.960 . S
C286 H278 0.929 . S
C286 C287 1.377 1_556 S
C286 C288 1.384 . S
C287 C286 1.377 1_554 S
C287 C293 1.390 . S
C288 H279 0.930 . S
C288 C286 1.384 . S
C288 C289 1.372 . S
C289 C288 1.372 . S
C289 C290 1.400 1_556 S
C289 C294 1.490 . S
C290 H280 0.930 . S
C290 C289 1.400 1_554 S
C290 C293 1.386 . S
H291 C307 0.930 . S
H292 C308 0.931 . S
C293 H281 0.929 . S
C293 C287 1.390 . S
C293 C290 1.386 . S
C294 C289 1.490 . S
C294 C296 1.395 . S
C294 C297 1.403 1_556 S
H295 C301 0.930 1_554 S
C296 H282 0.930 . S
C296 C294 1.395 . S
C296 C299 1.403 . S
C297 C294 1.403 1_554 S
C297 C298 1.524 . S
C297 C301 1.400 1_554 S
C298 H283 0.960 . S
C298 H284 0.960 . S
C298 H285 0.960 . S
C298 C297 1.524 . S
C299 C296 1.403 . S
C299 C300 1.392 . S
C299 C303 1.495 . S
C300 C299 1.392 . S
C300 C301 1.385 . S
C300 C302 1.478 . S
C301 H295 0.930 1_556 S
C301 C297 1.400 1_556 S
C301 C300 1.385 . S
C302 C300 1.478 . S
C302 C304 1.381 . S
C302 C308 1.383 . S
C303 C299 1.495 . S
C303 H309 0.959 . S
C303 H310 0.961 . S
C303 H311 0.960 . S
C304 C302 1.381 . S
C304 C305 1.394 . S
C304 H312 0.930 . S
C305 C304 1.394 . S
C305 C306 1.383 . S
C305 H313 0.929 . S
C306 C305 1.383 . S
C306 C307 1.377 . S
C307 H291 0.930 . S
C307 C306 1.377 . S
C307 C308 1.379 . S
C308 H292 0.931 . S
C308 C302 1.383 . S
C308 C307 1.379 . S
H309 C303 0.959 . S
H310 C303 0.961 . S
H311 C303 0.960 . S
H312 C304 0.930 . S
H313 C305 0.929 . S
H314 C322 0.929 . S
H315 C324 0.930 . S
H316 C326 0.930 . S
H317 C329 0.929 . S
H318 C332 0.930 . S
H319 C334 0.960 . S
H320 C334 0.960 . S
H321 C334 0.960 . S
C322 H314 0.929 . S
C322 C323 1.377 . S
C322 C324 1.384 . S
C323 C322 1.377 . S
C323 C329 1.390 . S
C324 H315 0.930 . S
C324 C322 1.384 . S
C324 C325 1.372 . S
C325 C324 1.372 . S
C325 C326 1.400 . S
C325 C330 1.490 . S
C326 H316 0.930 . S
C326 C325 1.400 . S
C326 C329 1.386 . S
H327 C343 0.930 . S
H328 C344 0.931 . S
C329 H317 0.929 . S
C329 C323 1.390 . S
C329 C326 1.386 . S
C330 C325 1.490 . S
C330 C332 1.395 . S
C330 C333 1.403 . S
H331 C337 0.930 . S
C332 H318 0.930 . S
C332 C330 1.395 . S
C332 C335 1.403 . S
C333 C330 1.403 . S
C333 C334 1.524 . S
C333 C337 1.400 . S
C334 H319 0.960 . S
C334 H320 0.960 . S
C334 H321 0.960 . S
C334 C333 1.524 . S
C335 C332 1.403 . S
C335 C336 1.392 . S
C335 C339 1.495 . S
C336 C335 1.392 . S
C336 C337 1.385 . S
C336 C338 1.478 . S
C337 H331 0.930 . S
C337 C333 1.400 . S
C337 C336 1.385 . S
C338 C336 1.478 . S
C338 C340 1.381 . S
C338 C344 1.383 . S
C339 C335 1.495 . S
C339 H345 0.959 . S
C339 H346 0.961 . S
C339 H347 0.960 . S
C340 C338 1.381 . S
C340 C341 1.394 . S
C340 H348 0.930 . S
C341 C340 1.394 . S
C341 C342 1.383 . S
C341 H349 0.929 . S
C342 C341 1.383 . S
C342 C343 1.377 . S
C343 H327 0.930 . S
C343 C342 1.377 . S
C343 C344 1.379 . S
C344 H328 0.931 . S
C344 C338 1.383 . S
C344 C343 1.379 . S
H345 C339 0.959 . S
H346 C339 0.961 . S
H347 C339 0.960 . S
H348 C340 0.930 . S
H349 C341 0.929 . S
H350 C358 0.929 . S
H351 C360 0.930 . S
H352 C362 0.930 . S
H353 C365 0.929 . S
H354 C368 0.930 . S
H355 C370 0.960 . S
H356 C370 0.960 . S
H357 C370 0.960 . S
C358 H350 0.929 . S
C358 C359 1.377 . S
C358 C360 1.384 . S
C359 C358 1.377 . S
C359 C365 1.390 . S
C360 H351 0.930 . S
C360 C358 1.384 . S
C360 C361 1.372 . S
C361 C360 1.372 . S
C361 C362 1.400 . S
C361 C366 1.490 . S
C362 H352 0.930 . S
C362 C361 1.400 . S
C362 C365 1.386 . S
H363 C379 0.930 . S
H364 C380 0.931 . S
C365 H353 0.929 . S
C365 C359 1.390 . S
C365 C362 1.386 . S
C366 C361 1.490 . S
C366 C368 1.395 . S
C366 C369 1.403 . S
H367 C373 0.930 . S
C368 H354 0.930 . S
C368 C366 1.395 . S
C368 C371 1.403 . S
C369 C366 1.403 . S
C369 C370 1.524 . S
C369 C373 1.400 . S
C370 H355 0.960 . S
C370 H356 0.960 . S
C370 H357 0.960 . S
C370 C369 1.524 . S
C371 C368 1.403 . S
C371 C372 1.392 . S
C371 C375 1.495 . S
C372 C371 1.392 . S
C372 C373 1.385 . S
C372 C374 1.478 . S
C373 H367 0.930 . S
C373 C369 1.400 . S
C373 C372 1.385 . S
C374 C372 1.478 . S
C374 C376 1.381 . S
C374 C380 1.383 . S
C375 C371 1.495 . S
C375 H381 0.959 . S
C375 H382 0.961 . S
C375 H383 0.960 . S
C376 C374 1.381 . S
C376 C377 1.394 . S
C376 H384 0.930 . S
C377 C376 1.394 . S
C377 C378 1.383 . S
C377 H385 0.929 . S
C378 C377 1.383 . S
C378 C379 1.377 . S
C379 H363 0.930 . S
C379 C378 1.377 . S
C379 C380 1.379 . S
C380 H364 0.931 . S
C380 C374 1.383 . S
C380 C379 1.379 . S
H381 C375 0.959 . S
H382 C375 0.961 . S
H383 C375 0.960 . S
H384 C376 0.930 . S
H385 C377 0.929 . S
H386 C394 0.929 . S
H387 C396 0.930 . S
H388 C398 0.930 . S
H389 C401 0.929 . S
H390 C404 0.930 . S
H391 C406 0.960 . S
H392 C406 0.960 . S
H393 C406 0.960 . S
C394 H386 0.929 . S
C394 C395 1.377 . S
C394 C396 1.384 . S
C395 C394 1.377 . S
C395 C401 1.390 . S
C396 H387 0.930 . S
C396 C394 1.384 . S
C396 C397 1.372 . S
C397 C396 1.372 . S
C397 C398 1.400 . S
C397 C402 1.490 . S
C398 H388 0.930 . S
C398 C397 1.400 . S
C398 C401 1.386 . S
H399 C415 0.930 . S
H400 C416 0.931 . S
C401 H389 0.929 . S
C401 C395 1.390 . S
C401 C398 1.386 . S
C402 C397 1.490 . S
C402 C404 1.395 . S
C402 C405 1.403 . S
H403 C409 0.930 . S
C404 H390 0.930 . S
C404 C402 1.395 . S
C404 C407 1.403 . S
C405 C402 1.403 . S
C405 C406 1.524 . S
C405 C409 1.400 . S
C406 H391 0.960 . S
C406 H392 0.960 . S
C406 H393 0.960 . S
C406 C405 1.524 . S
C407 C404 1.403 . S
C407 C408 1.392 . S
C407 C411 1.495 . S
C408 C407 1.392 . S
C408 C409 1.385 . S
C408 C410 1.478 . S
C409 H403 0.930 . S
C409 C405 1.400 . S
C409 C408 1.385 . S
C410 C408 1.478 . S
C410 C412 1.381 . S
C410 C416 1.383 . S
C411 C407 1.495 . S
C411 H417 0.959 . S
C411 H418 0.961 . S
C411 H419 0.960 . S
C412 C410 1.381 . S
C412 C413 1.394 . S
C412 H420 0.930 . S
C413 C412 1.394 . S
C413 C414 1.383 . S
C413 H421 0.929 . S
C414 C413 1.383 . S
C414 C415 1.377 . S
C415 H399 0.930 . S
C415 C414 1.377 . S
C415 C416 1.379 . S
C416 H400 0.931 . S
C416 C410 1.383 . S
C416 C415 1.379 . S
H417 C411 0.959 . S
H418 C411 0.961 . S
H419 C411 0.960 . S
H420 C412 0.930 . S
H421 C413 0.929 . S
H422 C430 0.929 . S
H423 C432 0.930 . S
H424 C434 0.930 . S
H425 C437 0.929 . S
H426 C440 0.930 . S
H427 C442 0.960 . S
H428 C442 0.960 . S
H429 C442 0.960 . S
C430 H422 0.929 . S
C430 C431 1.377 . S
C430 C432 1.384 . S
C431 C430 1.377 . S
C431 C437 1.390 . S
C432 H423 0.930 . S
C432 C430 1.384 . S
C432 C433 1.372 . S
C433 C432 1.372 . S
C433 C434 1.400 . S
C433 C438 1.490 . S
C434 H424 0.930 . S
C434 C433 1.400 . S
C434 C437 1.386 . S
H435 C451 0.930 . S
H436 C452 0.931 . S
C437 H425 0.929 . S
C437 C431 1.390 . S
C437 C434 1.386 . S
C438 C433 1.490 . S
C438 C440 1.395 . S
C438 C441 1.403 . S
H439 C445 0.930 . S
C440 H426 0.930 . S
C440 C438 1.395 . S
C440 C443 1.403 . S
C441 C438 1.403 . S
C441 C442 1.524 . S
C441 C445 1.400 . S
C442 H427 0.960 . S
C442 H428 0.960 . S
C442 H429 0.960 . S
C442 C441 1.524 . S
C443 C440 1.403 . S
C443 C444 1.392 . S
C443 C447 1.495 . S
C444 C443 1.392 . S
C444 C445 1.385 . S
C444 C446 1.478 . S
C445 H439 0.930 . S
C445 C441 1.400 . S
C445 C444 1.385 . S
C446 C444 1.478 . S
C446 C448 1.381 . S
C446 C452 1.383 . S
C447 C443 1.495 . S
C447 H453 0.959 . S
C447 H454 0.961 . S
C447 H455 0.960 . S
C448 C446 1.381 . S
C448 C449 1.394 . S
C448 H456 0.930 . S
C449 C448 1.394 . S
C449 C450 1.383 . S
C449 H457 0.929 . S
C450 C449 1.383 . S
C450 C451 1.377 . S
C451 H435 0.930 . S
C451 C450 1.377 . S
C451 C452 1.379 . S
C452 H436 0.931 . S
C452 C446 1.383 . S
C452 C451 1.379 . S
H453 C447 0.959 . S
H454 C447 0.961 . S
H455 C447 0.960 . S
H456 C448 0.930 . S
H457 C449 0.929 . S
H458 C466 0.929 . S
H459 C468 0.930 . S
H460 C470 0.930 1_655 S
H461 C473 0.929 1_655 S
H462 C476 0.930 . S
H463 C478 0.960 . S
H464 C478 0.960 . S
H465 C478 0.960 1_545 S
C466 H458 0.929 . S
C466 C467 1.377 1_565 S
C466 C468 1.384 . S
C467 C466 1.377 1_545 S
C467 C473 1.390 . S
C468 H459 0.930 . S
C468 C466 1.384 . S
C468 C469 1.372 1_565 S
C469 C468 1.372 1_545 S
C469 C470 1.400 . S
C469 C474 1.490 . S
C470 H460 0.930 1_455 S
C470 C469 1.400 . S
C470 C473 1.386 . S
H471 C487 0.930 . S
H472 C488 0.931 . S
C473 H461 0.929 1_455 S
C473 C467 1.390 . S
C473 C470 1.386 . S
C474 C469 1.490 . S
C474 C476 1.395 . S
C474 C477 1.403 1_545 S
H475 C481 0.930 1_655 S
C476 H462 0.930 . S
C476 C474 1.395 . S
C476 C479 1.403 . S
C477 C474 1.403 1_565 S
C477 C478 1.524 1_455 S
C477 C481 1.400 . S
C478 H463 0.960 . S
C478 H464 0.960 . S
C478 H465 0.960 1_565 S
C478 C477 1.524 1_655 S
C479 C476 1.403 . S
C479 C480 1.392 . S
C479 C483 1.495 . S
C480 C479 1.392 . S
C480 C481 1.385 1_545 S
C480 C482 1.478 . S
C481 H475 0.930 1_455 S
C481 C477 1.400 . S
C481 C480 1.385 1_565 S
C482 C480 1.478 . S
C482 C484 1.381 1_545 S
C482 C488 1.383 . S
C483 C479 1.495 . S
C483 H489 0.959 . S
C483 H490 0.961 . S
C483 H491 0.960 . S
C484 C482 1.381 1_565 S
C484 C485 1.394 . S
C484 H492 0.930 . S
C485 C484 1.394 . S
C485 C486 1.374 1_565 S
C485 H493 0.929 . S
C486 C485 1.374 1_545 S
C486 C487 1.389 . S
C487 H471 0.930 . S
C487 C486 1.389 . S
C487 C488 1.379 . S
C488 H472 0.931 . S
C488 C482 1.383 . S
C488 C487 1.379 . S
H489 C483 0.959 . S
H490 C483 0.961 . S
H491 C483 0.960 . S
H492 C484 0.930 . S
H493 C485 0.929 . S
H494 C502 0.929 1_565 S
H495 C504 0.930 1_565 S
H496 C506 0.930 . S
H497 C509 0.929 . S
H498 C512 0.930 . S
H499 C514 0.960 . S
H500 C514 0.960 . S
H501 C514 0.960 . S
C502 H494 0.929 1_545 S
C502 C503 1.377 . S
C502 C504 1.384 . S
C503 C502 1.377 . S
C503 C509 1.390 . S
C504 H495 0.930 1_545 S
C504 C502 1.384 . S
C504 C505 1.372 . S
C505 C504 1.372 . S
C505 C506 1.400 . S
C505 C510 1.490 . S
C506 H496 0.930 . S
C506 C505 1.400 . S
C506 C509 1.386 . S
H507 C523 0.930 . S
H508 C524 0.931 . S
C509 H497 0.929 . S
C509 C503 1.390 . S
C509 C506 1.386 . S
C510 C505 1.490 . S
C510 C512 1.395 1_455 S
C510 C513 1.403 . S
H511 C517 0.930 . S
C512 H498 0.930 . S
C512 C510 1.395 1_655 S
C512 C515 1.403 . S
C513 C510 1.403 . S
C513 C514 1.524 . S
C513 C517 1.400 . S
C514 H499 0.960 . S
C514 H500 0.960 . S
C514 H501 0.960 . S
C514 C513 1.524 . S
C515 C512 1.403 . S
C515 C516 1.392 1_655 S
C515 C519 1.495 . S
C516 C515 1.392 1_455 S
C516 C517 1.385 . S
C516 C518 1.478 . S
C517 H511 0.930 . S
C517 C513 1.400 . S
C517 C516 1.385 . S
C518 C516 1.478 . S
C518 C520 1.381 . S
C518 C524 1.383 . S
C519 C515 1.495 . S
C519 H525 0.959 . S
C519 H526 0.961 . S
C519 H527 0.960 . S
C520 C518 1.381 . S
C520 C521 1.394 1_455 S
C520 H528 0.930 1_455 S
C521 C520 1.394 1_655 S
C521 C522 1.382 1_655 S
C521 H529 0.931 . S
C522 C521 1.382 1_455 S
C522 C523 1.377 . S
C523 H507 0.930 . S
C523 C522 1.377 . S
C523 C524 1.379 . S
C524 H508 0.931 . S
C524 C518 1.383 . S
C524 C523 1.379 . S
H525 C519 0.959 . S
H526 C519 0.961 . S
H527 C519 0.960 . S
H528 C520 0.930 1_655 S
H529 C521 0.931 . S
H530 C538 0.929 . S
H531 C540 0.930 . S
H532 C542 0.930 . S
H533 C545 0.929 . S
H534 C548 0.930 . S
H535 C550 0.960 . S
H536 C550 0.960 . S
H537 C550 0.960 . S
C538 H530 0.929 . S
C538 C539 1.377 . S
C538 C540 1.384 . S
C539 C538 1.377 . S
C539 C545 1.390 . S
C540 H531 0.930 . S
C540 C538 1.384 . S
C540 C541 1.372 . S
C541 C540 1.372 . S
C541 C542 1.400 . S
C541 C546 1.490 . S
C542 H532 0.930 . S
C542 C541 1.400 . S
C542 C545 1.386 . S
H543 C559 0.930 . S
H544 C560 0.931 . S
C545 H533 0.929 . S
C545 C539 1.390 . S
C545 C542 1.386 . S
C546 C541 1.490 . S
C546 C548 1.395 . S
C546 C549 1.403 . S
H547 C553 0.930 . S
C548 H534 0.930 . S
C548 C546 1.395 . S
C548 C551 1.403 . S
C549 C546 1.403 . S
C549 C550 1.524 . S
C549 C553 1.400 . S
C550 H535 0.960 . S
C550 H536 0.960 . S
C550 H537 0.960 . S
C550 C549 1.524 . S
C551 C548 1.403 . S
C551 C552 1.392 . S
C551 C555 1.495 . S
C552 C551 1.392 . S
C552 C553 1.385 . S
C552 C554 1.478 . S
C553 H547 0.930 . S
C553 C549 1.400 . S
C553 C552 1.385 . S
C554 C552 1.478 . S
C554 C556 1.381 . S
C554 C560 1.383 . S
C555 C551 1.495 . S
C555 H561 0.959 . S
C555 H562 0.961 . S
C555 H563 0.960 . S
C556 C554 1.381 . S
C556 C557 1.394 . S
C556 H564 0.930 . S
C557 C556 1.394 . S
C557 C558 1.383 . S
C557 H565 0.929 . S
C558 C557 1.383 . S
C558 C559 1.377 . S
C559 H543 0.930 . S
C559 C558 1.377 . S
C559 C560 1.379 . S
C560 H544 0.931 . S
C560 C554 1.383 . S
C560 C559 1.379 . S
H561 C555 0.959 . S
H562 C555 0.961 . S
H563 C555 0.960 . S
H564 C556 0.930 . S
H565 C557 0.929 . S
H566 C574 0.929 . S
H567 C576 0.930 . S
H568 C578 0.930 . S
H569 C581 0.929 . S
H570 C584 0.930 . S
H571 C586 0.960 . S
H572 C586 0.960 . S
H573 C586 0.960 . S
C574 H566 0.929 . S
C574 C575 1.377 . S
C574 C576 1.384 . S
C575 C574 1.377 . S
C575 C581 1.390 . S
C576 H567 0.930 . S
C576 C574 1.384 . S
C576 C577 1.372 . S
C577 C576 1.372 . S
C577 C578 1.400 . S
C577 C582 1.490 . S
C578 H568 0.930 . S
C578 C577 1.400 . S
C578 C581 1.386 . S
H579 C595 0.930 . S
H580 C596 0.931 . S
C581 H569 0.929 . S
C581 C575 1.390 . S
C581 C578 1.386 . S
C582 C577 1.490 . S
C582 C584 1.395 . S
C582 C585 1.403 . S
H583 C589 0.930 . S
C584 H570 0.930 . S
C584 C582 1.395 . S
C584 C587 1.403 . S
C585 C582 1.403 . S
C585 C586 1.524 . S
C585 C589 1.400 . S
C586 H571 0.960 . S
C586 H572 0.960 . S
C586 H573 0.960 . S
C586 C585 1.524 . S
C587 C584 1.403 . S
C587 C588 1.392 . S
C587 C591 1.495 . S
C588 C587 1.392 . S
C588 C589 1.385 . S
C588 C590 1.478 . S
C589 H583 0.930 . S
C589 C585 1.400 . S
C589 C588 1.385 . S
C590 C588 1.478 . S
C590 C592 1.381 . S
C590 C596 1.383 . S
C591 C587 1.495 . S
C591 H597 0.959 . S
C591 H598 0.961 . S
C591 H599 0.960 . S
C592 C590 1.381 . S
C592 C593 1.394 . S
C592 H600 0.930 . S
C593 C592 1.394 . S
C593 C594 1.383 . S
C593 H601 0.929 . S
C594 C593 1.383 . S
C594 C595 1.377 . S
C595 H579 0.930 . S
C595 C594 1.377 . S
C595 C596 1.379 . S
C596 H580 0.931 . S
C596 C590 1.383 . S
C596 C595 1.379 . S
H597 C591 0.959 . S
H598 C591 0.961 . S
H599 C591 0.960 . S
H600 C592 0.930 . S
H601 C593 0.929 . S
C198 C155 1.326 . S
C179 C15 1.213 . S
C215 C13 1.428 . S
C234 C123 1.383 . S
C251 C18 1.249 . S
C270 C161 1.383 . S
C287 C17 1.272 . S
C306 C129 1.295 . S
C323 C36 1.211 . S
C342 C91 1.352 . S
C359 C34 1.424 . S
C378 C59 1.411 . S
C414 C97 1.412 . S
C395 C39 1.262 . S
C450 C65 1.317 . S
C431 C38 1.271 . S
C467 C14 1.514 . S
C486 C71 1.501 . S
C503 C16 1.364 . S
C522 C103 1.379 . S
C558 C135 1.514 . S
C539 C35 1.516 . S
C575 C37 1.361 . S
C594 C167 1.334 . S
