# Generated by pormake.
# Topology pts, (4,4)-cn, num edge types: 1
# Building blocks:
#     Node 0, Type 0, BuildingBlock: MUDLON_clean_linker_0, # of connection points: 4
#     Node 1, Type 0, BuildingBlock: MUDLON_clean_linker_0, # of connection points: 4
#     Node 2, Type 1, BuildingBlock: QUQFOY_clean_sbu_1, # of connection points: 4
#     Node 3, Type 1, BuildingBlock: QUQFOY_clean_sbu_1, # of connection points: 4
#     Edge 4, Type (0, 1), BuildingBlock: XIVTED_clean_linker_0, # of connection points: 2
#     Edge 5, Type (0, 1), BuildingBlock: XIVTED_clean_linker_0, # of connection points: 2
#     Edge 6, Type (0, 1), BuildingBlock: XIVTED_clean_linker_0, # of connection points: 2
#     Edge 7, Type (0, 1), BuildingBlock: XIVTED_clean_linker_0, # of connection points: 2
#     Edge 8, Type (0, 1), BuildingBlock: XIVTED_clean_linker_0, # of connection points: 2
#     Edge 9, Type (0, 1), BuildingBlock: XIVTED_clean_linker_0, # of connection points: 2
#     Edge 10, Type (0, 1), BuildingBlock: XIVTED_clean_linker_0, # of connection points: 2
#     Edge 11, Type (0, 1), BuildingBlock: XIVTED_clean_linker_0, # of connection points: 2
# Relax obj value: 0.109
# Max RMSD: 0.273
# Mean RMSD: 0.180
data_MOF--net-pts--node1-QUQFOY_clean_sbu_1--node2-MUDLON_clean_linker_0--edge1-XIVTED_clean_linker_0
_symmetry_space_group_name_H-M    P1
_symmetry_Int_Tables_number       1
_symmetry_cell_setting            triclinic
loop_
_symmetry_equiv_pos_as_xyz
'x, y, z'
_cell_length_a     32.49578
_cell_length_b     35.413665
_cell_length_c     47.646126
_cell_angle_alpha  89.944621
_cell_angle_beta   89.964955
_cell_angle_gamma 89.510355
loop_
_atom_site_label
_atom_site_type_symbol
_atom_site_fract_x
_atom_site_fract_y
_atom_site_fract_z
_atom_type_partial_charge
H0 H 0.68596 0.11715 0.01816 0.0
N1 N 0.638 0.06775 0.99246 0.0
H2 H 0.72903 0.10693 0.05961 0.0
H3 H 0.64138 1.00307 0.02514 0.0
H4 H 0.68232 0.9934 0.06685 0.0
H5 H 0.6876 0.00723 0.97916 0.0
H6 H 0.72853 0.99961 0.93669 0.0
H7 H 0.64192 0.11444 0.94895 0.0
H8 H 0.6821 0.1066 0.90579 0.0
H9 H 0.56947 0.10725 0.00149 0.0
H10 H 0.61327 0.99585 0.97982 0.0
H11 H 0.49857 0.08485 2e-05 0.0
H12 H 0.54356 0.97241 0.98065 0.0
H13 H 0.3025 0.02366 0.01194 0.0
H14 H 0.26215 0.02904 0.05466 0.0
H15 H 0.31063 0.92153 0.083 0.0
H16 H 0.3501 0.91575 0.03931 0.0
H17 H 0.31663 0.90746 0.9694 0.0
H18 H 0.27362 0.91097 0.92742 0.0
H19 H 0.28822 0.03231 0.92593 0.0
H20 H 0.33325 0.02794 0.96682 0.0
H21 H 0.382 0.02514 0.02636 0.0
H22 H 0.45083 0.04996 0.02413 0.0
H23 H 0.4813 0.9699 0.9586 0.0
N24 N 0.35201 0.96394 -0.0035 0.0
H25 H 0.413 0.94282 0.96277 0.0
C26 C 0.66008 0.06128 0.01839 0.0
C27 C 0.68484 0.09021 0.0289 0.0
C28 C 0.70924 0.08433 0.05268 0.0
C29 C 0.70924 0.04926 0.0666 0.0
C30 C 0.68364 0.02056 0.05644 0.0
C31 C 0.65962 0.02632 0.03253 0.0
C32 C 0.66195 0.06177 0.96734 0.0
C33 C 0.68616 0.02909 0.96332 0.0
C34 C 0.70932 0.02459 0.93883 0.0
C35 C 0.70863 0.05251 0.91782 0.0
C36 C 0.6838 0.08481 0.92172 0.0
C37 C 0.66073 0.08931 0.94626 0.0
C38 C 0.59668 0.05332 0.99119 0.0
C39 C 0.56372 0.07787 -0.00327 0.0
C40 C 0.52326 0.06484 -0.00388 0.0
C41 C 0.51499 0.0266 0.99045 0.0
C42 C 0.54829 1.00215 0.9846 0.0
C43 C 0.58854 0.01545 0.9845 0.0
C44 C 0.32898 0.96885 0.02219 0.0
C45 C 0.30433 1.00104 0.02712 0.0
C46 C 0.28164 1.00437 0.05187 0.0
C47 C 0.28313 0.97572 0.0723 0.0
C48 C 0.30838 0.94389 0.06754 0.0
C49 C 0.33106 0.94058 0.04271 0.0
C50 C 0.32757 0.96733 0.97138 0.0
C51 C 0.31063 0.93469 0.9598 0.0
C52 C 0.28582 0.93688 0.93595 0.0
C53 C 0.27692 0.97201 0.92338 0.0
C54 C 0.29464 1.00473 0.93479 0.0
C55 C 0.31999 1.00239 0.95843 0.0
C56 C 0.39205 0.98139 -0.00511 0.0
C57 C 0.40323 0.01249 0.01159 0.0
C58 C 0.44291 0.02719 0.01004 0.0
C59 C 0.47211 0.01198 0.99127 0.0
C60 C 0.46029 0.98183 0.9739 0.0
C61 C 0.42102 0.96649 0.97601 0.0
H62 H 0.95823 0.67277 0.51492 0.0
N63 N 0.03071 0.64387 0.49406 0.0
H64 H 0.95096 0.7178 0.55322 0.0
H65 H 0.08938 0.66804 0.52829 0.0
H66 H 0.08229 0.714 0.56663 0.0
H67 H 0.08648 0.67807 0.46261 0.0
H68 H 0.07413 0.71963 0.4222 0.0
H69 H 0.95666 0.65539 0.46798 0.0
H70 H 0.94383 0.69838 0.42834 0.0
H71 H 0.96881 0.60829 0.52424 0.0
H72 H 0.0665 0.58953 0.46428 0.0
H73 H 0.95349 0.54168 0.52406 0.0
H74 H 0.04969 0.52255 0.46285 0.0
H75 H 0.90302 0.33407 0.52347 0.0
H76 H 0.91221 0.29072 0.56329 0.0
H77 H 0.04293 0.311 0.56174 0.0
H78 H 0.03353 0.35515 0.52292 0.0
H79 H 0.0339 0.33475 0.4767 0.0
H80 H 0.04195 0.2903 0.43812 0.0
H81 H 0.91429 0.30681 0.41585 0.0
H82 H 0.90614 0.35115 0.45507 0.0
H83 H 0.90928 0.42537 0.49883 0.0
H84 H 0.92457 0.4928 0.49795 0.0
H85 H 0.054 0.46622 0.48834 0.0
N86 N 0.96142 0.36791 0.49403 0.0
H87 H 0.03793 0.39931 0.48749 0.0
C88 C 0.02448 0.66637 0.51899 0.0
C89 C 0.98545 0.68076 0.52641 0.0
C90 C 0.98126 0.70663 0.54835 0.0
C91 C 0.01606 0.71939 0.56285 0.0
C92 C 0.05498 0.7047 0.5557 0.0
C93 C 0.05904 0.67828 0.53405 0.0
C94 C 0.02257 0.66416 0.46843 0.0
C95 C 0.05541 0.68183 0.45483 0.0
C96 C 0.0483 0.70549 0.43187 0.0
C97 C 0.00801 0.71236 0.42243 0.0
C98 C 0.97511 0.69376 0.43549 0.0
C99 C 0.98239 0.66936 0.45811 0.0
C100 C 0.01924 0.60445 0.49422 0.0
C101 C 0.98687 0.59024 0.51072 0.0
C102 C 0.97779 0.55169 0.51047 0.0
C103 C 0.00028 0.52641 0.49344 0.0
C104 C 0.03216 0.54083 0.47668 0.0
C105 C 0.0416 0.57925 0.47725 0.0
C106 C 0.96741 0.34763 0.51997 0.0
C107 C 0.93347 0.32984 0.53221 0.0
C108 C 0.93877 0.3051 0.55483 0.0
C109 C 0.97834 0.29731 0.56525 0.0
C110 C 0.01218 0.31628 0.5538 0.0
C111 C 0.00674 0.34159 0.53156 0.0
C112 C 0.9691 0.34619 0.46898 0.0
C113 C 0.00765 0.32936 0.46348 0.0
C114 C 0.01225 0.30371 0.44143 0.0
C115 C 0.97865 0.29483 0.4242 0.0
C116 C 0.94075 0.31324 0.42876 0.0
C117 C 0.93604 0.33853 0.45106 0.0
C118 C 0.97229 0.40726 0.49354 0.0
C119 C 0.9409 0.43428 0.49646 0.0
C120 C 0.94982 0.47281 0.49619 0.0
C121 C 0.99065 0.48524 0.49328 0.0
C122 C 0.02214 0.45793 0.49027 0.0
C123 C 0.01305 0.41937 0.49017 0.0
O124 O 0.93555 0.97754 0.2215 0.0
Cd125 Cd 0.98769 0.9641 0.24416 0.0
Cd126 Cd 0.9969 0.04239 0.24555 0.0
O127 O 0.94318 0.03938 0.22272 0.0
O128 O 0.9837 0.90912 0.25222 0.0
O129 O 0.98486 0.95252 0.28555 0.0
C130 C 0.98353 0.91731 0.27855 0.0
C131 C -0.0024 0.08825 0.28071 0.0
C132 C 0.9232 0.01054 0.21496 0.0
C133 C 0.06439 0.99721 0.21819 0.0
O134 O 0.05151 0.02982 0.22529 0.0
O135 O 0.04348 0.96806 0.22394 0.0
O136 O 0.00027 0.09711 0.25456 0.0
O137 O 0.99528 0.05287 0.28713 0.0
O138 O 0.94613 0.04396 0.76533 0.0
Cd139 Cd 0.00087 0.04536 0.7435 0.0
Cd140 Cd 0.98733 0.96872 0.74294 0.0
O141 O 0.93198 0.98349 0.76116 0.0
O142 O 0.00657 0.10024 0.73564 0.0
O143 O 0.00118 0.05739 0.70213 0.0
C144 C 0.00414 0.09243 0.7093 0.0
C145 C 0.98803 0.92473 0.70654 0.0
C146 C 0.92231 0.01633 0.76973 0.0
C147 C 0.06199 0.99686 0.77394 0.0
O148 O 0.03864 0.96928 0.76829 0.0
O149 O 0.05368 0.02975 0.76473 0.0
O150 O 0.98072 0.91488 0.73208 0.0
O151 O 0.99435 0.96006 0.70143 0.0
H152 H 0.26646 0.03832 0.10455 0.0
H153 H 0.10038 0.93193 0.19919 0.0
H154 H 0.23985 0.9194 0.09816 0.0
H155 H 0.11509 0.05303 0.19853 0.0
H156 H 0.15865 0.92592 0.16724 0.0
H157 H 0.21795 0.04321 0.14363 0.0
C158 C 0.25053 0.0132 0.1114 0.0
C159 C 0.25697 0.97846 0.09782 0.0
C160 C 0.14934 0.9538 0.17423 0.0
C161 C 0.20169 0.98382 0.14273 0.0
C162 C 0.11606 0.95728 0.19254 0.0
C163 C 0.10245 0.9931 0.20134 0.0
C164 C 0.16923 0.98634 0.16455 0.0
C165 C 0.12428 0.02486 0.19215 0.0
C166 C 0.22299 0.016 0.13381 0.0
C167 C 0.23614 0.94671 0.10805 0.0
N168 N 0.15639 0.02075 0.17407 0.0
N169 N 0.20924 0.95023 0.12974 0.0
H170 H 0.02976 0.23624 0.56283 0.0
H171 H 0.98561 0.16651 0.71836 0.0
H172 H 0.94053 0.29117 0.61631 0.0
H173 H 0.01911 0.0883 0.65262 0.0
H174 H 0.98053 0.21699 0.68347 0.0
H175 H 0.03768 0.18592 0.59798 0.0
C176 C 0.01216 0.2378 0.58212 0.0
C177 C 0.98454 0.26779 0.58683 0.0
C178 C 0.98906 0.18879 0.67673 0.0
C179 C 0.99359 0.2108 0.62694 0.0
C180 C 0.99221 0.16001 0.69659 0.0
C181 C 0.00277 0.12315 0.68833 0.0
C182 C 0.99731 0.18086 0.64845 0.0
C183 C 0.01074 0.11631 0.65983 0.0
C184 C 0.01646 0.20905 0.60199 0.0
C185 C 0.96205 0.26841 0.61194 0.0
N186 N 0.00809 0.145 0.64087 0.0
N187 N 0.96728 0.24043 0.6312 0.0
H188 H 0.75195 0.98427 0.07925 0.0
H189 H 0.88192 0.07616 0.20258 0.0
H190 H 0.73047 0.09783 0.1092 0.0
H191 H 0.88196 0.9565 0.18523 0.0
H192 H 0.82629 0.08481 0.1687 0.0
H193 H 0.7994 0.97358 0.11804 0.0
C194 C 0.75674 0.00686 0.09416 0.0
C195 C 0.73705 0.04207 0.09085 0.0
C196 C 0.83821 0.05662 0.17249 0.0
C197 C 0.79226 0.03014 0.13512 0.0
C198 C 0.87003 0.05164 0.19181 0.0
C199 C 0.88686 0.01556 0.19662 0.0
C200 C 0.82339 0.02537 0.1576 0.0
C201 C 0.87002 0.98483 0.18216 0.0
C202 C 0.78407 1.00075 0.11626 0.0
C203 C 0.74537 0.07045 0.11058 0.0
N204 N 0.83949 0.9905 0.1631 0.0
N205 N 0.77252 0.06394 0.13176 0.0
H206 H 0.96154 0.72246 0.60654 0.0
H207 H 0.02207 0.93101 0.65403 0.0
H208 H 0.06024 0.78439 0.56785 0.0
H209 H 0.9594 0.85263 0.70835 0.0
H210 H 0.02881 0.881 0.61864 0.0
H211 H 0.95315 0.77337 0.64092 0.0
C212 C 0.98144 0.7468 0.60534 0.0
C213 C 0.01175 0.74921 0.58447 0.0
C214 C 0.01353 0.87487 0.63831 0.0
C215 C 0.00207 0.80762 0.62341 0.0
C216 C 0.00946 0.90341 0.65841 0.0
C217 C 0.99026 0.8959 0.68417 0.0
C218 C -0.00227 0.83883 0.64391 0.0
C219 C 0.97462 0.85959 0.68882 0.0
C220 C 0.97673 0.77575 0.62496 0.0
C221 C 0.03683 0.78128 0.58385 0.0
N222 N 0.97859 0.83245 0.66887 0.0
N223 N 0.03128 0.80938 0.60294 0.0
H224 H 0.27998 0.02002 0.87776 0.0
H225 H 0.08077 0.93386 0.80468 0.0
H226 H 0.20788 0.92994 0.9135 0.0
H227 H 0.12388 0.04637 0.78673 0.0
H228 H 0.13573 0.92636 0.8391 0.0
H229 H 0.23034 0.025 0.8393 0.0
C230 C 0.2538 1.00132 0.87763 0.0
C231 C 0.24822 0.97454 0.89908 0.0
C232 C 0.13326 0.95262 0.82753 0.0
C233 C 0.19194 0.97962 0.85474 0.0
C234 C 0.102 0.95689 0.80776 0.0
C235 C 0.09747 0.99094 0.79293 0.0
C236 C 0.16049 0.98244 0.83238 0.0
C237 C 0.12603 0.01975 0.79784 0.0
C238 C 0.22565 1.00408 0.85556 0.0
C239 C 0.21406 0.95058 0.89732 0.0
N240 N 0.15632 0.01488 0.81722 0.0
N241 N 0.18731 0.95369 0.87557 0.0
H242 H 0.95298 0.29728 0.36949 0.0
H243 H 0.0052 0.08071 0.33788 0.0
H244 H 0.01261 0.22443 0.42991 0.0
H245 H 0.98637 0.16386 0.27274 0.0
H246 H 0.00148 0.13127 0.37301 0.0
H247 H 0.95818 0.24673 0.33454 0.0
C248 C 0.96717 0.27063 0.37535 0.0
C249 C 0.98257 0.26503 0.40253 0.0
C250 C -0.00169 0.13836 0.35099 0.0
C251 C 0.98833 0.20709 0.36287 0.0
C252 C 0.00032 0.10955 0.33098 0.0
C253 C 0.99617 0.11811 0.30236 0.0
C254 C 0.9915 0.17583 0.34231 0.0
C255 C 0.98991 0.15598 0.29457 0.0
C256 C 0.97028 0.24188 0.35542 0.0
C257 C 0.00081 0.23002 0.40905 0.0
N258 N 0.98753 0.18339 0.31442 0.0
N259 N 0.00297 0.20227 0.38941 0.0
H260 H 0.75301 0.10736 0.89117 0.0
H261 H 0.86702 0.96323 0.78765 0.0
H262 H 0.72457 0.98865 0.88677 0.0
H263 H 0.89243 0.08263 0.79137 0.0
H264 H 0.81023 0.97275 0.82063 0.0
H265 H 0.79957 0.09966 0.85144 0.0
C266 C 0.75612 0.07974 0.88163 0.0
C267 C 0.73496 0.04856 0.89248 0.0
C268 C 0.82801 0.99691 0.81402 0.0
C269 C 0.78892 0.03938 0.84715 0.0
C270 C 0.86041 0.99151 0.79513 0.0
C271 C 0.88486 0.02211 0.78693 0.0
C272 C 0.82008 0.03314 0.82484 0.0
C273 C 0.8747 0.05812 0.79727 0.0
C274 C 0.78295 0.07531 0.85901 0.0
C275 C 0.74079 0.01334 0.87945 0.0
N276 N 0.84334 0.06256 0.81584 0.0
N277 N 0.7674 0.00966 0.85759 0.0
H278 H 0.0432 0.71494 0.37048 0.0
H279 H 0.96593 0.92254 0.33484 0.0
H280 H 0.95679 0.77381 0.4238 0.0
H281 H 0.00132 0.84281 0.27057 0.0
H282 H 0.96849 0.87122 0.36956 0.0
H283 H 0.03445 0.76444 0.33491 0.0
C284 C 0.02219 0.73822 0.37454 0.0
C285 C 0.00053 0.74037 0.39994 0.0
C286 C 0.97541 0.86506 0.3478 0.0
C287 C 0.99096 0.79724 0.35978 0.0
C288 C 0.97412 0.89428 0.32804 0.0
C289 C 0.98342 0.88689 0.29981 0.0
C290 C 0.98689 0.82848 0.33929 0.0
C291 C 0.99378 0.84975 0.2921 0.0
C292 C 0.01714 0.76635 0.3543 0.0
C293 C 0.97371 0.77107 0.40431 0.0
N294 N 0.99563 0.82202 0.31176 0.0
N295 N 0.96999 0.79861 0.38453 0.0
loop_
_geom_bond_atom_site_label_1
_geom_bond_atom_site_label_2
_geom_bond_distance
_geom_bond_site_symmetry_2
_ccdc_geom_bond_type
H0 C27 0.929 . S
N1 C26 1.433 1_556 S
N1 C32 1.435 . S
N1 C38 1.423 . S
H2 C28 0.930 . S
H3 C31 0.931 . S
H4 C30 0.929 . S
H5 C33 0.930 . S
H6 C34 0.932 . S
H7 C37 0.929 . S
H8 C36 0.931 . S
H9 C39 0.929 . S
H10 C43 0.932 1_565 S
H11 C40 0.931 . S
H12 C42 0.929 1_565 S
H13 C45 0.929 . S
H14 C46 0.930 . S
H15 C48 0.929 . S
H16 C49 0.931 . S
H17 C51 0.930 . S
H18 C52 0.932 . S
H19 C54 0.931 . S
H20 C55 0.929 . S
H21 C57 0.929 . S
H22 C58 0.931 . S
H23 C60 0.929 1_565 S
N24 C44 1.433 1_556 S
N24 C50 1.435 . S
N24 C56 1.423 . S
H25 C61 0.932 1_565 S
C26 N1 1.433 1_554 S
C26 C27 1.363 . S
C26 C31 1.370 1_545 S
C27 H0 0.929 . S
C27 C26 1.363 . S
C27 C28 1.385 . S
C28 H2 0.930 . S
C28 C27 1.385 . S
C28 C29 1.357 . S
C29 C28 1.357 . S
C29 C30 1.406 1_545 S
C30 H4 0.929 . S
C30 C29 1.406 1_565 S
C30 C31 1.391 . S
C31 H3 0.931 . S
C31 C26 1.370 1_565 S
C31 C30 1.391 . S
C32 N1 1.435 . S
C32 C33 1.358 1_545 S
C32 C37 1.371 . S
C33 H5 0.930 . S
C33 C32 1.358 1_565 S
C33 C34 1.405 . S
C34 H6 0.932 . S
C34 C33 1.405 . S
C34 C35 1.383 1_565 S
C35 C34 1.383 1_545 S
C35 C36 1.393 . S
C36 H8 0.931 . S
C36 C35 1.393 . S
C36 C37 1.382 . S
C37 H7 0.929 . S
C37 C32 1.371 . S
C37 C36 1.382 . S
C38 N1 1.423 . S
C38 C39 1.362 1_556 S
C38 C43 1.388 . S
C39 H9 0.929 . S
C39 C38 1.362 1_554 S
C39 C40 1.376 . S
C40 H11 0.931 . S
C40 C39 1.376 . S
C40 C41 1.396 1_554 S
C41 C40 1.396 1_556 S
C41 C42 1.348 . S
C41 C59 1.472 . S
C42 H12 0.929 1_545 S
C42 C41 1.348 . S
C42 C43 1.443 . S
C43 H10 0.932 1_545 S
C43 C38 1.388 . S
C43 C42 1.443 . S
C44 N24 1.433 1_554 S
C44 C45 1.363 . S
C44 C49 1.370 1_545 S
C45 H13 0.929 . S
C45 C44 1.363 . S
C45 C46 1.385 . S
C46 H14 0.930 . S
C46 C45 1.385 . S
C46 C47 1.357 . S
C47 C46 1.357 . S
C47 C48 1.406 1_545 S
C48 H15 0.929 . S
C48 C47 1.406 1_565 S
C48 C49 1.391 . S
C49 H16 0.931 . S
C49 C44 1.370 1_565 S
C49 C48 1.391 . S
C50 N24 1.435 . S
C50 C51 1.358 1_545 S
C50 C55 1.371 . S
C51 H17 0.930 . S
C51 C50 1.358 1_565 S
C51 C52 1.405 . S
C52 H18 0.932 . S
C52 C51 1.405 . S
C52 C53 1.383 1_565 S
C53 C52 1.383 1_545 S
C53 C54 1.393 . S
C54 H19 0.931 . S
C54 C53 1.393 . S
C54 C55 1.382 . S
C55 H20 0.929 . S
C55 C50 1.371 . S
C55 C54 1.382 . S
C56 N24 1.423 . S
C56 C57 1.362 1_556 S
C56 C61 1.388 . S
C57 H21 0.929 . S
C57 C56 1.362 1_554 S
C57 C58 1.376 . S
C58 H22 0.931 . S
C58 C57 1.376 . S
C58 C59 1.396 1_554 S
C59 C41 1.472 . S
C59 C58 1.396 1_556 S
C59 C60 1.348 . S
C60 H23 0.929 1_545 S
C60 C59 1.348 . S
C60 C61 1.443 . S
C61 H25 0.932 1_545 S
C61 C56 1.388 . S
C61 C60 1.443 . S
H62 C89 0.929 . S
N63 C88 1.433 . S
N63 C94 1.435 . S
N63 C100 1.423 . S
H64 C90 0.930 . S
H65 C93 0.931 . S
H66 C92 0.929 . S
H67 C95 0.930 . S
H68 C96 0.932 . S
H69 C99 0.929 . S
H70 C98 0.931 . S
H71 C101 0.929 . S
H72 C105 0.932 1_455 S
H73 C102 0.931 . S
H74 C104 0.929 1_455 S
H75 C107 0.929 . S
H76 C108 0.930 . S
H77 C110 0.929 . S
H78 C111 0.931 . S
H79 C113 0.930 . S
H80 C114 0.932 . S
H81 C116 0.931 . S
H82 C117 0.929 . S
H83 C119 0.929 . S
H84 C120 0.931 . S
H85 C122 0.929 1_455 S
N86 C106 1.433 . S
N86 C112 1.435 . S
N86 C118 1.423 . S
H87 C123 0.932 1_455 S
C88 N63 1.433 . S
C88 C89 1.363 . S
C88 C93 1.370 1_655 S
C89 H62 0.929 . S
C89 C88 1.363 . S
C89 C90 1.385 . S
C90 H64 0.930 . S
C90 C89 1.385 . S
C90 C91 1.357 . S
C91 C90 1.357 . S
C91 C92 1.406 1_655 S
C92 H66 0.929 . S
C92 C91 1.406 1_455 S
C92 C93 1.391 . S
C93 H65 0.931 . S
C93 C88 1.370 1_455 S
C93 C92 1.391 . S
C94 N63 1.435 . S
C94 C95 1.358 1_655 S
C94 C99 1.371 . S
C95 H67 0.930 . S
C95 C94 1.358 1_455 S
C95 C96 1.405 . S
C96 H68 0.932 . S
C96 C95 1.405 . S
C96 C97 1.383 1_455 S
C97 C96 1.383 1_655 S
C97 C98 1.393 . S
C98 H70 0.931 . S
C98 C97 1.393 . S
C98 C99 1.382 . S
C99 H69 0.929 . S
C99 C94 1.371 . S
C99 C98 1.382 . S
C100 N63 1.423 . S
C100 C101 1.362 . S
C100 C105 1.388 . S
C101 H71 0.929 . S
C101 C100 1.362 . S
C101 C102 1.376 . S
C102 H73 0.931 . S
C102 C101 1.376 . S
C102 C103 1.396 . S
C103 C102 1.396 . S
C103 C104 1.348 . S
C103 C121 1.472 . S
C104 H74 0.929 1_655 S
C104 C103 1.348 . S
C104 C105 1.443 . S
C105 H72 0.932 1_655 S
C105 C100 1.388 . S
C105 C104 1.443 . S
C106 N86 1.433 . S
C106 C107 1.363 . S
C106 C111 1.370 1_655 S
C107 H75 0.929 . S
C107 C106 1.363 . S
C107 C108 1.385 . S
C108 H76 0.930 . S
C108 C107 1.385 . S
C108 C109 1.357 . S
C109 C108 1.357 . S
C109 C110 1.406 1_655 S
C110 H77 0.929 . S
C110 C109 1.406 1_455 S
C110 C111 1.391 . S
C111 H78 0.931 . S
C111 C106 1.370 1_455 S
C111 C110 1.391 . S
C112 N86 1.435 . S
C112 C113 1.358 1_655 S
C112 C117 1.371 . S
C113 H79 0.930 . S
C113 C112 1.358 1_455 S
C113 C114 1.405 . S
C114 H80 0.932 . S
C114 C113 1.405 . S
C114 C115 1.383 1_455 S
C115 C114 1.383 1_655 S
C115 C116 1.393 . S
C116 H81 0.931 . S
C116 C115 1.393 . S
C116 C117 1.382 . S
C117 H82 0.929 . S
C117 C112 1.371 . S
C117 C116 1.382 . S
C118 N86 1.423 . S
C118 C119 1.362 . S
C118 C123 1.388 . S
C119 H83 0.929 . S
C119 C118 1.362 . S
C119 C120 1.376 . S
C120 H84 0.931 . S
C120 C119 1.376 . S
C120 C121 1.396 . S
C121 C103 1.472 . S
C121 C120 1.396 . S
C121 C122 1.348 . S
C122 H85 0.929 1_655 S
C122 C121 1.348 . S
C122 C123 1.443 . S
C123 H87 0.932 1_655 S
C123 C118 1.388 . S
C123 C122 1.443 . S
O124 Cd125 2.223 1_655 S
O124 C132 1.315 . S
Cd125 O124 2.223 1_455 S
Cd125 O128 2.297 1_455 S
Cd125 O129 2.439 1_455 S
Cd125 O135 2.240 1_565 S
Cd126 O127 2.240 1_545 S
Cd126 O134 2.223 1_655 S
Cd126 O136 2.297 1_655 S
Cd126 O137 2.439 1_655 S
O127 Cd126 2.240 1_565 S
O127 C132 1.279 . S
O128 Cd125 2.297 1_655 S
O128 C130 1.247 . S
O129 Cd125 2.439 1_655 S
O129 C130 1.208 . S
C130 O128 1.247 . S
C130 O129 1.208 . S
C131 O136 1.247 . S
C131 O137 1.208 . S
C132 O124 1.315 . S
C132 O127 1.279 . S
C133 O134 1.315 . S
C133 O135 1.279 . S
O134 Cd126 2.223 1_455 S
O134 C133 1.315 . S
O135 Cd125 2.240 1_545 S
O135 C133 1.279 . S
O136 Cd126 2.297 1_455 S
O136 C131 1.247 . S
O137 Cd126 2.439 1_455 S
O137 C131 1.208 . S
O138 Cd139 2.223 1_655 S
O138 C146 1.315 . S
Cd139 O138 2.223 1_455 S
Cd139 O142 2.297 1_455 S
Cd139 O143 2.439 1_455 S
Cd139 O149 2.240 1_545 S
Cd140 O141 2.240 1_565 S
Cd140 O148 2.223 1_655 S
Cd140 O150 2.297 1_655 S
Cd140 O151 2.439 1_655 S
O141 Cd140 2.240 1_545 S
O141 C146 1.279 . S
O142 Cd139 2.297 1_655 S
O142 C144 1.247 . S
O143 Cd139 2.439 1_655 S
O143 C144 1.208 . S
C144 O142 1.247 . S
C144 O143 1.208 . S
C145 O150 1.247 . S
C145 O151 1.208 . S
C146 O138 1.315 . S
C146 O141 1.279 . S
C147 O148 1.315 . S
C147 O149 1.279 . S
O148 Cd140 2.223 1_455 S
O148 C147 1.315 . S
O149 Cd139 2.240 1_565 S
O149 C147 1.279 . S
O150 Cd140 2.297 1_455 S
O150 C145 1.247 . S
O151 Cd140 2.439 1_455 S
O151 C145 1.208 . S
H152 C158 0.930 . S
H153 C162 0.930 . S
H154 C167 0.929 . S
H155 C165 0.929 . S
H156 C160 0.929 . S
H157 C166 0.929 . S
C158 H152 0.930 . S
C158 C159 1.367 . S
C158 C166 1.378 . S
C159 C158 1.367 . S
C159 C167 1.433 1_545 S
C160 H156 0.929 . S
C160 C162 1.378 . S
C160 C164 1.350 1_565 S
C161 C164 1.463 . S
C161 C166 1.350 . S
C161 N169 1.427 1_545 S
C162 H153 0.930 . S
C162 C160 1.378 . S
C162 C163 1.367 1_565 S
C163 C162 1.367 1_545 S
C163 C165 1.433 . S
C164 C160 1.350 1_545 S
C164 C161 1.463 . S
C164 N168 1.427 . S
C165 H155 0.929 . S
C165 C163 1.433 . S
C165 N168 1.384 . S
C166 H157 0.929 . S
C166 C158 1.378 . S
C166 C161 1.350 . S
C167 H154 0.929 . S
C167 C159 1.433 1_565 S
C167 N169 1.384 . S
N168 C164 1.427 . S
N168 C165 1.384 . S
N169 C161 1.427 1_565 S
N169 C167 1.384 . S
H170 C176 0.930 . S
H171 C180 0.930 . S
H172 C185 0.929 . S
H173 C183 0.929 . S
H174 C178 0.929 . S
H175 C184 0.929 . S
C176 H170 0.930 . S
C176 C177 1.367 1_455 S
C176 C184 1.378 . S
C177 C176 1.367 1_655 S
C177 C185 1.433 . S
C178 H174 0.929 . S
C178 C180 1.378 . S
C178 C182 1.350 . S
C179 C182 1.463 . S
C179 C184 1.350 1_655 S
C179 N187 1.427 . S
C180 H171 0.930 . S
C180 C178 1.378 . S
C180 C181 1.367 . S
C181 C180 1.367 . S
C181 C183 1.433 1_655 S
C182 C178 1.350 . S
C182 C179 1.463 . S
C182 N186 1.427 1_655 S
C183 H173 0.929 . S
C183 C181 1.433 1_455 S
C183 N186 1.384 . S
C184 H175 0.929 . S
C184 C176 1.378 . S
C184 C179 1.350 1_455 S
C185 H172 0.929 . S
C185 C177 1.433 . S
C185 N187 1.384 . S
N186 C182 1.427 1_455 S
N186 C183 1.384 . S
N187 C179 1.427 . S
N187 C185 1.384 . S
H188 C194 0.930 . S
H189 C198 0.930 . S
H190 C203 0.929 . S
H191 C201 0.929 . S
H192 C196 0.929 . S
H193 C202 0.929 . S
C194 H188 0.930 . S
C194 C195 1.367 . S
C194 C202 1.378 . S
C195 C194 1.367 . S
C195 C203 1.433 1_565 S
C196 H192 0.929 . S
C196 C198 1.378 . S
C196 C200 1.350 1_545 S
C197 C200 1.463 . S
C197 C202 1.350 . S
C197 N205 1.427 1_565 S
C198 H189 0.930 . S
C198 C196 1.378 . S
C198 C199 1.367 1_545 S
C199 C198 1.367 1_565 S
C199 C201 1.433 . S
C200 C196 1.350 1_565 S
C200 C197 1.463 . S
C200 N204 1.427 . S
C201 H191 0.929 . S
C201 C199 1.433 . S
C201 N204 1.384 . S
C202 H193 0.929 . S
C202 C194 1.378 . S
C202 C197 1.350 . S
C203 H190 0.929 . S
C203 C195 1.433 1_545 S
C203 N205 1.384 . S
N204 C200 1.427 . S
N204 C201 1.384 . S
N205 C197 1.427 1_545 S
N205 C203 1.384 . S
H206 C212 0.930 . S
H207 C216 0.930 . S
H208 C221 0.929 . S
H209 C219 0.929 . S
H210 C214 0.929 . S
H211 C220 0.929 . S
C212 H206 0.930 . S
C212 C213 1.367 1_655 S
C212 C220 1.378 . S
C213 C212 1.367 1_455 S
C213 C221 1.433 . S
C214 H210 0.929 . S
C214 C216 1.378 . S
C214 C218 1.350 . S
C215 C218 1.463 . S
C215 C220 1.350 1_455 S
C215 N223 1.427 . S
C216 H207 0.930 . S
C216 C214 1.378 . S
C216 C217 1.367 . S
C217 C216 1.367 . S
C217 C219 1.433 1_455 S
C218 C214 1.350 . S
C218 C215 1.463 . S
C218 N222 1.427 1_455 S
C219 H209 0.929 . S
C219 C217 1.433 1_655 S
C219 N222 1.384 . S
C220 H211 0.929 . S
C220 C212 1.378 . S
C220 C215 1.350 1_655 S
C221 H208 0.929 . S
C221 C213 1.433 . S
C221 N223 1.384 . S
N222 C218 1.427 1_655 S
N222 C219 1.384 . S
N223 C215 1.427 . S
N223 C221 1.384 . S
H224 C230 0.930 . S
H225 C234 0.930 . S
H226 C239 0.929 . S
H227 C237 0.929 . S
H228 C232 0.924 1_545 S
H229 C238 0.929 . S
C230 H224 0.930 . S
C230 C231 1.367 . S
C230 C238 1.378 . S
C231 C230 1.367 . S
C231 C239 1.433 1_565 S
C232 H228 0.924 1_565 S
C232 C234 1.378 . S
C232 C236 1.350 . S
C233 C236 1.463 . S
C233 C238 1.350 . S
C233 N241 1.427 1_565 S
C234 H225 0.930 . S
C234 C232 1.378 . S
C234 C235 1.367 . S
C235 C234 1.367 . S
C235 C237 1.433 . S
C236 C232 1.350 . S
C236 C233 1.463 . S
C236 N240 1.427 . S
C237 H227 0.929 . S
C237 C235 1.433 . S
C237 N240 1.384 . S
C238 H229 0.929 . S
C238 C230 1.378 . S
C238 C233 1.350 . S
C239 H226 0.929 . S
C239 C231 1.433 1_545 S
C239 N241 1.384 . S
N240 C236 1.427 . S
N240 C237 1.384 . S
N241 C233 1.427 1_545 S
N241 C239 1.384 . S
H242 C248 0.930 . S
H243 C252 0.930 . S
H244 C257 0.929 . S
H245 C255 0.929 . S
H246 C250 0.929 1_655 S
H247 C256 0.929 . S
C248 H242 0.930 . S
C248 C249 1.367 . S
C248 C256 1.378 . S
C249 C248 1.367 . S
C249 C257 1.433 1_455 S
C250 H246 0.929 1_455 S
C250 C252 1.378 . S
C250 C254 1.350 . S
C251 C254 1.463 . S
C251 C256 1.350 . S
C251 N259 1.427 1_455 S
C252 H243 0.930 . S
C252 C250 1.378 . S
C252 C253 1.367 . S
C253 C252 1.367 . S
C253 C255 1.433 . S
C254 C250 1.350 . S
C254 C251 1.463 . S
C254 N258 1.427 . S
C255 H245 0.929 . S
C255 C253 1.433 . S
C255 N258 1.384 . S
C256 H247 0.929 . S
C256 C248 1.378 . S
C256 C251 1.350 . S
C257 H244 0.929 . S
C257 C249 1.433 1_655 S
C257 N259 1.384 . S
N258 C254 1.427 . S
N258 C255 1.384 . S
N259 C251 1.427 1_655 S
N259 C257 1.384 . S
H260 C266 0.930 . S
H261 C270 0.933 . S
H262 C275 0.929 . S
H263 C273 0.929 . S
H264 C268 0.929 . S
H265 C274 0.929 . S
C266 H260 0.930 . S
C266 C267 1.367 . S
C266 C274 1.378 . S
C267 C266 1.367 . S
C267 C275 1.433 1_545 S
C268 H264 0.929 . S
C268 C270 1.378 . S
C268 C272 1.350 1_565 S
C269 C272 1.463 . S
C269 C274 1.350 . S
C269 N277 1.427 1_545 S
C270 H261 0.933 . S
C270 C268 1.378 . S
C270 C271 1.363 1_565 S
C271 C270 1.363 1_545 S
C271 C273 1.433 . S
C272 C268 1.350 1_545 S
C272 C269 1.463 . S
C272 N276 1.427 . S
C273 H263 0.929 . S
C273 C271 1.433 . S
C273 N276 1.384 . S
C274 H265 0.929 . S
C274 C266 1.378 . S
C274 C269 1.350 . S
C275 H262 0.929 . S
C275 C267 1.433 1_565 S
C275 N277 1.384 . S
N276 C272 1.427 . S
N276 C273 1.384 . S
N277 C269 1.427 1_565 S
N277 C275 1.384 . S
H278 C284 0.930 . S
H279 C288 0.930 . S
H280 C293 0.929 . S
H281 C291 0.929 . S
H282 C286 0.929 . S
H283 C292 0.929 . S
C284 H278 0.930 . S
C284 C285 1.367 1_455 S
C284 C292 1.378 . S
C285 C284 1.367 1_655 S
C285 C293 1.433 . S
C286 H282 0.929 . S
C286 C288 1.378 . S
C286 C290 1.350 . S
C287 C290 1.463 . S
C287 C292 1.350 1_655 S
C287 N295 1.427 . S
C288 H279 0.930 . S
C288 C286 1.378 . S
C288 C289 1.367 . S
C289 C288 1.367 . S
C289 C291 1.433 1_655 S
C290 C286 1.350 . S
C290 C287 1.463 . S
C290 N294 1.427 1_655 S
C291 H281 0.929 . S
C291 C289 1.433 1_455 S
C291 N294 1.384 . S
C292 H283 0.929 . S
C292 C284 1.378 . S
C292 C287 1.350 1_455 S
C293 H280 0.929 . S
C293 C285 1.433 . S
C293 N295 1.384 . S
N294 C290 1.427 1_455 S
N294 C291 1.384 . S
N295 C287 1.427 . S
N295 C293 1.384 . S
C163 C133 1.840 . S
C159 C47 1.730 . S
C181 C144 1.767 . S
C177 C109 1.718 . S
C199 C132 1.841 . S
C195 C29 1.754 1_565 S
C217 C145 1.770 . S
C213 C91 1.739 1_455 S
C235 C147 1.582 . S
C231 C53 1.577 1_565 S
C253 C131 1.433 . S
C249 C115 1.481 1_455 S
C271 C146 1.583 . S
C267 C35 1.570 . S
C285 C97 1.475 . S
C289 C130 1.440 . S
