# Generated by pormake.
# Topology nom, (4,4)-cn, num edge types: 1
# Building blocks:
#     Node 0, Type 0, BuildingBlock: MIFKUJ_clean_linker_1, # of connection points: 4
#     Node 1, Type 0, BuildingBlock: MIFKUJ_clean_linker_1, # of connection points: 4
#     Node 2, Type 0, BuildingBlock: MIFKUJ_clean_linker_1, # of connection points: 4
#     Node 3, Type 0, BuildingBlock: MIFKUJ_clean_linker_1, # of connection points: 4
#     Node 4, Type 0, BuildingBlock: MIFKUJ_clean_linker_1, # of connection points: 4
#     Node 5, Type 0, BuildingBlock: MIFKUJ_clean_linker_1, # of connection points: 4
#     Node 6, Type 1, BuildingBlock: GALJAG_clean_sbu_0, # of connection points: 4
#     Node 7, Type 1, BuildingBlock: GALJAG_clean_sbu_0, # of connection points: 4
#     Node 8, Type 1, BuildingBlock: GALJAG_clean_sbu_0, # of connection points: 4
#     Node 9, Type 1, BuildingBlock: GALJAG_clean_sbu_0, # of connection points: 4
#     Node 10, Type 1, BuildingBlock: GALJAG_clean_sbu_0, # of connection points: 4
#     Node 11, Type 1, BuildingBlock: GALJAG_clean_sbu_0, # of connection points: 4
#     Edge 12, Type (0, 1), BuildingBlock: OJICUG_clean_linker_0, # of connection points: 2
#     Edge 13, Type (0, 1), BuildingBlock: OJICUG_clean_linker_0, # of connection points: 2
#     Edge 14, Type (0, 1), BuildingBlock: OJICUG_clean_linker_0, # of connection points: 2
#     Edge 15, Type (0, 1), BuildingBlock: OJICUG_clean_linker_0, # of connection points: 2
#     Edge 16, Type (0, 1), BuildingBlock: OJICUG_clean_linker_0, # of connection points: 2
#     Edge 17, Type (0, 1), BuildingBlock: OJICUG_clean_linker_0, # of connection points: 2
#     Edge 18, Type (0, 1), BuildingBlock: OJICUG_clean_linker_0, # of connection points: 2
#     Edge 19, Type (0, 1), BuildingBlock: OJICUG_clean_linker_0, # of connection points: 2
#     Edge 20, Type (0, 1), BuildingBlock: OJICUG_clean_linker_0, # of connection points: 2
#     Edge 21, Type (0, 1), BuildingBlock: OJICUG_clean_linker_0, # of connection points: 2
#     Edge 22, Type (0, 1), BuildingBlock: OJICUG_clean_linker_0, # of connection points: 2
#     Edge 23, Type (0, 1), BuildingBlock: OJICUG_clean_linker_0, # of connection points: 2
#     Edge 24, Type (0, 1), BuildingBlock: OJICUG_clean_linker_0, # of connection points: 2
#     Edge 25, Type (0, 1), BuildingBlock: OJICUG_clean_linker_0, # of connection points: 2
#     Edge 26, Type (0, 1), BuildingBlock: OJICUG_clean_linker_0, # of connection points: 2
#     Edge 27, Type (0, 1), BuildingBlock: OJICUG_clean_linker_0, # of connection points: 2
#     Edge 28, Type (0, 1), BuildingBlock: OJICUG_clean_linker_0, # of connection points: 2
#     Edge 29, Type (0, 1), BuildingBlock: OJICUG_clean_linker_0, # of connection points: 2
#     Edge 30, Type (0, 1), BuildingBlock: OJICUG_clean_linker_0, # of connection points: 2
#     Edge 31, Type (0, 1), BuildingBlock: OJICUG_clean_linker_0, # of connection points: 2
#     Edge 32, Type (0, 1), BuildingBlock: OJICUG_clean_linker_0, # of connection points: 2
#     Edge 33, Type (0, 1), BuildingBlock: OJICUG_clean_linker_0, # of connection points: 2
#     Edge 34, Type (0, 1), BuildingBlock: OJICUG_clean_linker_0, # of connection points: 2
#     Edge 35, Type (0, 1), BuildingBlock: OJICUG_clean_linker_0, # of connection points: 2
# Relax obj value: 0.004
# Max RMSD: 0.109
# Mean RMSD: 0.081
data_MOF--net-nom--node1-GALJAG_clean_sbu_0--node2-MIFKUJ_clean_linker_1--edge1-OJICUG_clean_linker_0
_symmetry_space_group_name_H-M    P1
_symmetry_Int_Tables_number       1
_symmetry_cell_setting            triclinic
loop_
_symmetry_equiv_pos_as_xyz
'x, y, z'
_cell_length_a     41.291645
_cell_length_b     41.159907
_cell_length_c     44.953916
_cell_angle_alpha  90.041047
_cell_angle_beta   90.004804
_cell_angle_gamma 120.03149
loop_
_atom_site_label
_atom_site_type_symbol
_atom_site_fract_x
_atom_site_fract_y
_atom_site_fract_z
_atom_type_partial_charge
H0 H 0.98129 0.4679 0.27053 0.0
H1 H 0.93937 0.4432 0.22763 0.0
H2 H 0.90001 0.52082 0.24519 0.0
H3 H 0.94223 0.54553 0.28821 0.0
H4 H 0.03848 0.5453 0.2791 0.0
H5 H 0.91673 0.45322 0.32113 0.0
H6 H 0.85168 0.43043 0.3344 0.0
H7 H 0.88628 0.52844 0.38982 0.0
H8 H 0.95044 0.55268 0.374 0.0
H9 H 0.0451 0.58975 0.40419 0.0
H10 H 0.08525 0.60519 0.44769 0.0
H11 H 0.14251 0.55289 0.40672 0.0
H12 H 0.10048 0.53534 0.36403 0.0
H13 H 0.99553 0.52857 0.38375 0.0
H14 H 0.10673 0.62568 0.34607 0.0
H15 H 0.17206 0.66507 0.33124 0.0
H16 H 0.16025 0.58055 0.26842 0.0
H17 H 0.09536 0.53998 0.28443 0.0
C18 C 0.96465 0.50834 0.28259 0.0
C19 C 0.96354 0.47951 0.26517 0.0
C20 C 0.93944 0.46529 0.2408 0.0
C21 C 0.91635 0.48 0.23313 0.0
C22 C 0.91766 0.5091 0.25051 0.0
C23 C 0.94156 0.52309 0.27512 0.0
C24 C 0.9908 0.52326 0.30808 0.0
C25 C 0.02928 0.54133 0.30208 0.0
C26 C 0.97849 0.52014 0.33786 0.0
C27 C 0.93859 0.50512 0.34601 0.0
C28 C 0.91019 0.47026 0.3355 0.0
C29 C 0.87292 0.45689 0.34364 0.0
C30 C 0.86335 0.47753 0.36322 0.0
C31 C 0.8921 0.51205 0.37415 0.0
C32 C 0.92909 0.52578 0.36542 0.0
C33 C 0.06977 0.5615 0.38066 0.0
C34 C 0.06616 0.5814 0.4046 0.0
C35 C 0.0895 0.59061 0.42939 0.0
C36 C 0.11733 0.58045 0.43079 0.0
C37 C 0.12112 0.56077 0.40666 0.0
C38 C 0.09742 0.55116 0.38198 0.0
C39 C 0.04358 0.5503 0.35498 0.0
C40 C 0.00507 0.53278 0.36085 0.0
C41 C 0.05596 0.55602 0.32503 0.0
C42 C 0.09611 0.57941 0.31683 0.0
C43 C 0.11832 0.61503 0.3297 0.0
C44 C 0.15555 0.6377 0.32106 0.0
C45 C 0.17093 0.62569 0.29875 0.0
C46 C 0.14881 0.59036 0.2856 0.0
C47 C 0.11181 0.56727 0.29474 0.0
H48 H 0.40455 0.94824 0.52875 0.0
H49 H 0.36543 0.88301 0.54402 0.0
H50 H 0.4472 0.85712 0.50841 0.0
H51 H 0.48586 0.92251 0.49257 0.0
H52 H 0.47771 0.99689 0.54763 0.0
H53 H 0.41241 0.93945 0.45384 0.0
H54 H 0.39589 0.89712 0.41112 0.0
H55 H 0.51309 0.94591 0.38944 0.0
H56 H 0.52939 0.98726 0.43262 0.0
H57 H 0.57257 0.0978 0.45035 0.0
H58 H 0.5982 0.16327 0.43491 0.0
H59 H 0.52341 0.1745 0.49559 0.0
H60 H 0.49659 0.10888 0.50994 0.0
H61 H 0.51008 0.04081 0.44345 0.0
H62 H 0.58025 0.09124 0.53215 0.0
H63 H 0.60695 0.13027 0.57626 0.0
H64 H 0.4954 0.09669 0.60756 0.0
H65 H 0.46913 0.05617 0.56412 0.0
C66 C 0.44797 0.94012 0.50942 0.0
C67 C 0.41395 0.92843 0.52413 0.0
C68 C 0.39175 0.89119 0.53303 0.0
C69 C 0.40329 0.86485 0.52768 0.0
C70 C 0.43728 0.87657 0.51261 0.0
C71 C 0.45944 0.91392 0.50357 0.0
C72 C 0.47196 0.9802 0.50164 0.0
C73 C 0.48452 0.00658 0.52481 0.0
C74 C 0.48268 0.99261 0.47206 0.0
C75 C 0.47216 0.96625 0.44661 0.0
C76 C 0.43453 0.94066 0.4401 0.0
C77 C 0.42513 0.91677 0.41549 0.0
C78 C 0.45319 0.91811 0.39686 0.0
C79 C 0.49083 0.94376 0.40353 0.0
C80 C 0.50018 0.96761 0.42808 0.0
C81 C 0.53301 0.09836 0.48174 0.0
C82 C 0.56168 0.11432 0.46038 0.0
C83 C 0.57631 0.15166 0.45155 0.0
C84 C 0.56286 0.17384 0.4642 0.0
C85 C 0.53463 0.15812 0.48583 0.0
C86 C 0.51953 0.12066 0.49422 0.0
C87 C 0.51514 0.05784 0.48943 0.0
C88 C 0.5037 0.03131 0.46632 0.0
C89 C 0.50678 0.04508 0.51917 0.0
C90 C 0.52275 0.0709 0.54488 0.0
C91 C 0.56163 0.09251 0.5485 0.0
C92 C 0.57684 0.11498 0.57374 0.0
C93 C 0.55344 0.11671 0.59574 0.0
C94 C 0.5144 0.09552 0.59158 0.0
C95 C 0.49925 0.07255 0.5666 0.0
H96 H 0.53054 0.56274 0.72527 0.0
H97 H 0.51426 0.58826 0.76818 0.0
H98 H 0.39708 0.51936 0.74639 0.0
H99 H 0.41357 0.49334 0.70383 0.0
H100 H 0.50826 0.48715 0.71507 0.0
H101 H 0.48815 0.58464 0.66636 0.0
H102 H 0.44921 0.61132 0.65141 0.0
H103 H 0.36854 0.50443 0.61335 0.0
H104 H 0.4078 0.47837 0.62785 0.0
H105 H 0.46955 0.44341 0.58892 0.0
H106 H 0.49457 0.42902 0.54512 0.0
H107 H 0.60233 0.47522 0.58837 0.0
H108 H 0.57786 0.49242 0.63112 0.0
H109 H 0.48103 0.50298 0.61043 0.0
H110 H 0.49156 0.40426 0.64906 0.0
H111 H 0.51541 0.36303 0.66394 0.0
H112 H 0.59216 0.44771 0.72487 0.0
H113 H 0.56944 0.48972 0.70908 0.0
C114 C 0.4733 0.52637 0.71125 0.0
C115 C 0.50135 0.55322 0.72972 0.0
C116 C 0.49202 0.56797 0.7541 0.0
C117 C 0.45439 0.5559 0.76066 0.0
C118 C 0.42631 0.529 0.74207 0.0
C119 C 0.43568 0.51435 0.7176 0.0
C120 C 0.48371 0.51029 0.68598 0.0
C121 C 0.50298 0.49103 0.69208 0.0
C122 C 0.47429 0.51306 0.65626 0.0
C123 C 0.45077 0.52953 0.64826 0.0
C124 C 0.46197 0.56701 0.65494 0.0
C125 C 0.43965 0.58215 0.64642 0.0
C126 C 0.40584 0.56005 0.63102 0.0
C127 C 0.39471 0.52245 0.62464 0.0
C128 C 0.41702 0.50744 0.63306 0.0
C129 C 0.52166 0.46891 0.61354 0.0
C130 C 0.49865 0.45066 0.58895 0.0
C131 C 0.51296 0.44198 0.56395 0.0
C132 C 0.5506 0.45084 0.56301 0.0
C133 C 0.57341 0.46848 0.58794 0.0
C134 C 0.55923 0.47778 0.61273 0.0
C135 C 0.50694 0.48057 0.6392 0.0
C136 C 0.48674 0.49897 0.63328 0.0
C137 C 0.51368 0.47503 0.6692 0.0
C138 C 0.5291 0.45047 0.67753 0.0
C139 C 0.5141 0.4144 0.66513 0.0
C140 C 0.52752 0.39072 0.67378 0.0
C141 C 0.55555 0.40226 0.69554 0.0
C142 C 0.57032 0.43811 0.7082 0.0
C143 C 0.55738 0.46208 0.69916 0.0
H144 H 0.04888 0.56895 0.76753 0.0
H145 H 0.0909 0.59349 0.72474 0.0
H146 H 0.1352 0.52085 0.74599 0.0
H147 H 0.09253 0.49592 0.78852 0.0
H148 H 0.99366 0.49346 0.77731 0.0
H149 H 0.11206 0.58875 0.82665 0.0
H150 H 0.1773 0.61365 0.84178 0.0
H151 H 0.14835 0.50556 0.87894 0.0
H152 H 0.08335 0.48131 0.86435 0.0
H153 H 0.9861 0.44737 0.9023 0.0
H154 H 0.94538 0.43158 0.94545 0.0
H155 H 0.88891 0.48458 0.90439 0.0
H156 H 0.9314 0.50234 0.86198 0.0
H157 H 0.03621 0.50815 0.88208 0.0
H158 H 0.9262 0.41182 0.84396 0.0
H159 H 0.86095 0.37158 0.82929 0.0
H160 H 0.87095 0.45539 0.7666 0.0
H161 H 0.93578 0.49687 0.7825 0.0
C162 C 0.0678 0.53084 0.78131 0.0
C163 C 0.06774 0.55841 0.763 0.0
C164 C 0.09193 0.57257 0.73868 0.0
C165 C 0.11643 0.55917 0.73202 0.0
C166 C 0.11644 0.53153 0.75042 0.0
C167 C 0.09233 0.51748 0.77486 0.0
C168 C 0.04119 0.51544 0.80651 0.0
C169 C 0.00274 0.49717 0.80033 0.0
C170 C 0.0532 0.51786 0.83627 0.0
C171 C 0.09298 0.53319 0.84432 0.0
C172 C 0.11993 0.57047 0.83792 0.0
C173 C 0.15717 0.58459 0.84653 0.0
C174 C 0.16804 0.56164 0.86171 0.0
C175 C 0.14088 0.52423 0.86783 0.0
C176 C 0.10375 0.51024 0.85934 0.0
C177 C 0.96181 0.47592 0.87872 0.0
C178 C 0.9651 0.4558 0.90261 0.0
C179 C 0.94143 0.44639 0.9272 0.0
C180 C 0.91363 0.45661 0.92843 0.0
C181 C 0.91023 0.4766 0.9044 0.0
C182 C 0.93422 0.48635 0.8799 0.0
C183 C 0.98818 0.48718 0.85317 0.0
C184 C 0.02665 0.50452 0.85919 0.0
C185 C 0.97595 0.48184 0.82317 0.0
C186 C 0.9359 0.45787 0.81484 0.0
C187 C 0.91424 0.42215 0.82765 0.0
C188 C 0.87707 0.39898 0.8191 0.0
C189 C 0.86119 0.41056 0.7969 0.0
C190 C 0.88279 0.44594 0.78372 0.0
C191 C 0.91975 0.46954 0.79279 0.0
H192 H 0.62092 0.08399 0.03876 0.0
H193 H 0.66023 0.14824 0.05521 0.0
H194 H 0.59578 0.18236 1.001 0.0
H195 H 0.55419 0.11711 0.98701 0.0
H196 H 0.55203 0.03841 0.04919 0.0
H197 H 0.62066 0.09479 0.95495 0.0
H198 H 0.6378 0.13674 0.91187 0.0
H199 H 0.52071 0.0899 0.89047 0.0
H200 H 0.50389 0.04902 0.93385 0.0
H201 H 0.45919 0.9389 0.9509 0.0
H202 H 0.43304 0.8735 0.93495 0.0
H203 H 0.50548 0.8601 0.99671 0.0
H204 H 0.53301 0.9257 0.0115 0.0
H205 H 0.52259 0.99487 0.94472 0.0
H206 H 0.45019 0.94415 0.03343 0.0
H207 H 0.42365 0.90455 0.07727 0.0
H208 H 0.53536 0.93813 0.10822 0.0
H209 H 0.56142 0.97917 0.06514 0.0
C210 C 0.58475 0.09555 0.01131 0.0
C211 C 0.61506 0.10526 0.03053 0.0
C212 C 0.63795 0.14232 0.03963 0.0
C213 C 0.63165 0.17095 0.0293 0.0
C214 C 0.60138 0.1612 0.00981 0.0
C215 C 0.57787 0.12384 1.00127 0.0
C216 C 0.55984 0.05549 1.00319 0.0
C217 C 0.54599 0.02894 0.02627 0.0
C218 C 0.54987 0.04303 0.97344 0.0
C219 C 0.56099 0.06907 0.94777 0.0
C220 C 0.59875 0.09389 0.94111 0.0
C221 C 0.60848 0.11759 0.91634 0.0
C222 C 0.5806 0.11675 0.89777 0.0
C223 C 0.54286 0.09172 0.90454 0.0
C224 C 0.5332 0.06811 0.92921 0.0
C225 C 0.4977 0.93727 0.98284 0.0
C226 C 0.46945 0.92192 0.96107 0.0
C227 C 0.45452 0.88463 0.95195 0.0
C228 C 0.46719 0.8619 0.96475 0.0
C229 C 0.49492 0.87697 0.98683 0.0
C230 C 0.51038 0.9144 0.99548 0.0
C231 C 0.51604 0.97778 0.99067 0.0
C232 C 0.52849 0.00436 0.96763 0.0
C233 C 0.52374 0.99046 0.02046 0.0
C234 C 0.50774 0.96453 0.04607 0.0
C235 C 0.46886 0.94279 0.04968 0.0
C236 C 0.45376 0.91999 0.07474 0.0
C237 C 0.47726 0.91807 0.09656 0.0
C238 C 0.51628 0.93944 0.09241 0.0
C239 C 0.53132 0.96272 0.06762 0.0
H240 H 0.49919 0.4678 0.22247 0.0
H241 H 0.51592 0.44235 0.26515 0.0
H242 H 0.63297 0.51265 0.2436 0.0
H243 H 0.61602 0.53864 0.20134 0.0
H244 H 0.52065 0.54341 0.21283 0.0
H245 H 0.54323 0.44771 0.16399 0.0
H246 H 0.58369 0.42256 0.14963 0.0
H247 H 0.66217 0.52966 0.11083 0.0
H248 H 0.62154 0.55431 0.1249 0.0
H249 H 0.56016 0.58997 0.08762 0.0
H250 H 0.53532 0.60527 0.04411 0.0
H251 H 0.42649 0.5551 0.0859 0.0
H252 H 0.451 0.5376 0.12854 0.0
H253 H 0.54873 0.52929 0.108 0.0
H254 H 0.53756 0.62691 0.14734 0.0
H255 H 0.51401 0.66823 0.16262 0.0
H256 H 0.43722 0.58338 0.2233 0.0
H257 H 0.45964 0.54123 0.20708 0.0
C258 C 0.55634 0.5049 0.20863 0.0
C259 C 0.52846 0.47764 0.22692 0.0
C260 C 0.53804 0.46291 0.25116 0.0
C261 C 0.57576 0.47542 0.25773 0.0
C262 C 0.60367 0.50266 0.23927 0.0
C263 C 0.59404 0.51732 0.21498 0.0
C264 C 0.54568 0.52095 0.1835 0.0
C265 C 0.52608 0.53984 0.18979 0.0
C266 C 0.55538 0.51869 0.15374 0.0
C267 C 0.57948 0.5029 0.1456 0.0
C268 C 0.56925 0.46573 0.15252 0.0
C269 C 0.59242 0.45146 0.14434 0.0
C270 C 0.6261 0.47409 0.12898 0.0
C271 C 0.63615 0.51128 0.12216 0.0
C272 C 0.61303 0.52547 0.13031 0.0
C273 C 0.50758 0.56272 0.11153 0.0
C274 C 0.53089 0.5821 0.0874 0.0
C275 C 0.51668 0.59123 0.06259 0.0
C276 C 0.47882 0.5815 0.06137 0.0
C277 C 0.45563 0.56258 0.08579 0.0
C278 C 0.46978 0.55304 0.11046 0.0
C279 C 0.5223 0.55088 0.13703 0.0
C280 C 0.5428 0.53285 0.13091 0.0
C281 C 0.51535 0.55601 0.16708 0.0
C282 C 0.49995 0.58055 0.17561 0.0
C283 C 0.51504 0.61671 0.16341 0.0
C284 C 0.5018 0.64046 0.1723 0.0
C285 C 0.47386 0.62892 0.19412 0.0
C286 C 0.45899 0.59298 0.20659 0.0
C287 C 0.47176 0.56893 0.19729 0.0
In288 In 0.63695 0.39736 0.41086 0.0
O289 O 0.69901 0.44182 0.41268 0.0
O290 O 0.68383 0.3902 0.39111 0.0
C291 C 0.60988 0.41737 0.45776 0.0
C292 C 0.61515 0.42064 0.36239 0.0
C293 C 0.6145 0.32621 0.42685 0.0
O294 O 0.6445 0.43117 0.45327 0.0
O295 O 0.58905 0.39413 0.43834 0.0
O296 O 0.60799 0.33446 0.40128 0.0
O297 O 0.63232 0.3538 0.44411 0.0
C298 C 0.70965 0.42231 0.39859 0.0
O299 O 0.59955 0.38651 0.36979 0.0
O300 O 0.64101 0.44258 0.37954 0.0
In301 In 0.25981 0.63983 0.58166 0.0
O302 O 0.28881 0.60594 0.57269 0.0
O303 O 0.30377 0.63928 0.61188 0.0
C304 C 0.21227 0.6184 0.53497 0.0
C305 C 0.21239 0.61462 0.6285 0.0
C306 C 0.30834 0.71147 0.56639 0.0
O307 O 0.22878 0.60086 0.54253 0.0
O308 O 0.21919 0.64608 0.55127 0.0
O309 O 0.28785 0.70308 0.58922 0.0
O310 O 0.30461 0.68376 0.55158 0.0
C311 C 0.30852 0.61675 0.596 0.0
O312 O 0.23262 0.64911 0.62272 0.0
O313 O 0.21565 0.593 0.61041 0.0
In314 In 0.63773 0.25863 0.7467 0.0
O315 O 0.70089 0.28831 0.73818 0.0
O316 O 0.68164 0.30404 0.77637 0.0
C317 C 0.61363 0.20988 0.70075 0.0
C318 C 0.61787 0.21145 0.79346 0.0
C319 C 0.61011 0.30366 0.73148 0.0
O320 O 0.64686 0.23681 0.70263 0.0
O321 O 0.59289 0.20697 0.72241 0.0
O322 O 0.60537 0.2893 0.75703 0.0
O323 O 0.62855 0.2953 0.71393 0.0
C324 C 0.7092 0.30875 0.76106 0.0
O325 O 0.60038 0.22823 0.78641 0.0
O326 O 0.64485 0.21788 0.77653 0.0
In327 In 0.3933 0.63858 0.91081 0.0
O328 O 0.33039 0.6041 0.91969 0.0
O329 O 0.34875 0.63847 0.88109 0.0
C330 C 0.42033 0.61756 0.95704 0.0
C331 C 0.41559 0.61295 0.86429 0.0
C332 C 0.41494 0.70978 0.92652 0.0
O333 O 0.38603 0.60037 0.95023 0.0
O334 O 0.44089 0.64466 0.94018 0.0
O335 O 0.42367 0.70176 0.90175 0.0
O336 O 0.39534 0.68201 0.94305 0.0
C337 C 0.3215 0.61549 0.89669 0.0
O338 O 0.43125 0.6474 0.87081 0.0
O339 O 0.38937 0.59167 0.8815 0.0
In340 In 0.77493 0.39706 0.08169 0.0
O341 O 0.7976 0.38855 0.1257 0.0
O342 O 0.82222 0.44388 0.10851 0.0
C343 C 0.72775 0.32444 0.06798 0.0
C344 C 0.72656 0.42041 0.09589 0.0
C345 C 0.81937 0.41804 0.03298 0.0
O346 O 0.75795 0.33506 0.08194 0.0
O347 O 0.72102 0.35026 0.06143 0.0
O348 O 0.80369 0.43592 0.04177 0.0
O349 O 0.81304 0.39032 0.04891 0.0
C350 C 0.82141 0.42282 0.12918 0.0
O351 O 0.74481 0.42955 0.07179 0.0
O352 O 0.73269 0.39946 0.11264 0.0
In353 In 0.39436 0.7745 0.24658 0.0
O354 O 0.42609 0.74308 0.25662 0.0
O355 O 0.40282 0.73751 0.2136 0.0
C356 C 0.41518 0.82229 0.29305 0.0
C357 C 0.41811 0.82328 0.20072 0.0
C358 C 0.32289 0.72521 0.26158 0.0
O359 O 0.43247 0.80532 0.28594 0.0
O360 O 0.38793 0.81566 0.27636 0.0
O361 O 0.33114 0.74506 0.2384 0.0
O362 O 0.35052 0.73002 0.27686 0.0
C363 C 0.42105 0.72874 0.23102 0.0
O364 O 0.38487 0.79642 0.2027 0.0
O365 O 0.43908 0.826 0.22216 0.0
C366 C 0.23921 0.66383 0.30967 0.0
C367 C 0.20989 0.65036 0.28896 0.0
H368 H 0.29818 0.69767 0.31701 0.0
C369 C 0.21787 0.66122 0.25904 0.0
H370 H 0.2336 0.65571 0.33285 0.0
C371 C 0.25466 0.68579 0.25005 0.0
C372 C 0.28404 0.69913 0.27075 0.0
H373 H 0.19556 0.65126 0.24276 0.0
H374 H 0.26014 0.69416 0.22692 0.0
C375 C 0.27603 0.68768 0.30058 0.0
C376 C 0.57851 0.22165 0.42409 0.0
C377 C 0.57742 0.21306 0.45444 0.0
H378 H 0.5906 0.2643 0.39152 0.0
C379 C 0.5891 0.24195 0.47554 0.0
H380 H 0.56934 0.19976 0.40743 0.0
C381 C 0.60163 0.2788 0.46647 0.0
C382 C 0.60207 0.28734 0.43616 0.0
H383 H 0.58864 0.23601 0.49906 0.0
H384 H 0.61044 0.30052 0.48324 0.0
C385 C 0.59042 0.25845 0.41503 0.0
C386 C 0.37664 0.59999 0.64047 0.0
C387 C 0.38207 0.57589 0.62159 0.0
H388 H 0.34912 0.6318 0.64716 0.0
C389 C 0.36388 0.56627 0.59382 0.0
H390 H 0.38988 0.60762 0.66213 0.0
C391 C 0.34025 0.57982 0.58539 0.0
C392 C 0.33446 0.60344 0.60446 0.0
H393 H 0.36795 0.5483 0.57851 0.0
H394 H 0.32642 0.57165 0.56397 0.0
C395 C 0.35312 0.61367 0.63197 0.0
C396 C 0.814 0.37384 0.75761 0.0
C397 C 0.82221 0.38543 0.78739 0.0
H398 H 0.77155 0.3397 0.72595 0.0
C399 C 0.79313 0.37211 0.80827 0.0
H400 H 0.83615 0.38368 0.74121 0.0
C401 C 0.75629 0.34766 0.79951 0.0
C402 C 0.74806 0.33543 0.76985 0.0
H403 H 0.79892 0.38079 0.83134 0.0
H404 H 0.73433 0.33779 0.81608 0.0
C405 C 0.77721 0.34865 0.74896 0.0
C406 C 0.45293 0.81469 0.92438 0.0
C407 C 0.45235 0.82278 0.95468 0.0
H408 H 0.44202 0.77242 0.89169 0.0
C409 C 0.43879 0.79348 0.97548 0.0
H410 H 0.46355 0.83695 0.90799 0.0
C411 C 0.42604 0.75666 0.96617 0.0
C412 C 0.42732 0.7486 0.93595 0.0
H413 H 0.438 0.79908 0.99894 0.0
H414 H 0.41581 0.7346 0.98271 0.0
C415 C 0.44084 0.77791 0.91512 0.0
C416 C 0.66888 0.46842 0.09229 0.0
C417 C 0.6509 0.45923 0.12013 0.0
H418 H 0.70684 0.46334 0.0628 0.0
C419 C 0.6575 0.4365 0.13965 0.0
H420 H 0.66397 0.4854 0.07655 0.0
C421 C 0.68187 0.42366 0.13166 0.0
C422 C 0.70018 0.43331 0.104 0.0
H423 H 0.64444 0.42927 0.16137 0.0
H424 H 0.68667 0.40651 0.1473 0.0
C425 C 0.69329 0.45564 0.08433 0.0
C426 C 0.37545 0.79533 0.52026 0.0
C427 C 0.37997 0.82544 0.53803 0.0
H428 H 0.34931 0.73571 0.51534 0.0
C429 C 0.36155 0.81763 0.56567 0.0
H430 H 0.38886 0.80029 0.49872 0.0
C431 C 0.3386 0.78063 0.57503 0.0
C432 C 0.33374 0.75061 0.55707 0.0
H433 H 0.36496 0.84015 0.58018 0.0
H434 H 0.32455 0.77555 0.5963 0.0
C435 C 0.35263 0.75831 0.52971 0.0
C436 C 0.57118 0.36958 0.73524 0.0
C437 C 0.56933 0.37689 0.70494 0.0
H438 H 0.58501 0.34 0.76745 0.0
C439 C 0.58059 0.35971 0.68355 0.0
H440 H 0.56239 0.38234 0.75211 0.0
C441 C 0.59389 0.33597 0.69229 0.0
C442 C 0.59559 0.32846 0.72256 0.0
H443 H 0.57959 0.36507 0.66007 0.0
H444 H 0.60269 0.32334 0.6753 0.0
C445 C 0.58389 0.34527 0.74397 0.0
C446 C 0.21577 0.566 0.89866 0.0
C447 C 0.20749 0.57641 0.8711 0.0
H448 H 0.25827 0.57016 0.92835 0.0
C449 C 0.23717 0.60044 0.8524 0.0
H450 H 0.19361 0.54804 0.91383 0.0
C451 C 0.2742 0.61342 0.86091 0.0
C452 C 0.28235 0.60253 0.88823 0.0
H453 H 0.23182 0.60862 0.83089 0.0
H454 H 0.29644 0.6316 0.84586 0.0
C455 C 0.2528 0.57883 0.90708 0.0
C456 C 0.64201 0.23499 0.04296 0.0
C457 C 0.65633 0.21056 0.03918 0.0
H458 H 0.65346 0.29021 0.05485 0.0
C459 C 0.69448 0.22423 0.04532 0.0
H460 H 0.61273 0.2255 0.0391 0.0
C461 C 0.71741 0.26094 0.05537 0.0
C462 C 0.70304 0.28519 0.05876 0.0
H463 H 0.70696 0.2068 0.04204 0.0
H464 H 0.74665 0.27062 0.05979 0.0
C465 C 0.66523 0.27202 0.0523 0.0
C466 C 0.45872 0.6617 0.23415 0.0
C467 C 0.46035 0.65445 0.20379 0.0
H468 H 0.44557 0.69157 0.26663 0.0
C469 C 0.44927 0.67197 0.18259 0.0
H470 H 0.46738 0.64868 0.25089 0.0
C471 C 0.43643 0.69603 0.19155 0.0
C472 C 0.43503 0.70353 0.22187 0.0
H473 H 0.4501 0.66667 0.15906 0.0
H474 H 0.42781 0.70893 0.17469 0.0
C475 C 0.44649 0.68634 0.24311 0.0
C476 C 0.7987 0.42445 0.37552 0.0
C477 C 0.82376 0.46322 0.37245 0.0
H478 H 0.74292 0.38119 0.38599 0.0
C479 C 0.81069 0.48828 0.37856 0.0
H480 H 0.80771 0.40422 0.3717 0.0
C481 C 0.77387 0.475 0.38778 0.0
C482 C 0.74898 0.43636 0.39036 0.0
H483 H 0.82866 0.51825 0.37581 0.0
H484 H 0.76463 0.49497 0.39216 0.0
C485 C 0.76162 0.41118 0.38403 0.0
C486 C 0.15408 0.62429 0.47251 0.0
C487 C 0.14199 0.59015 0.45742 0.0
H488 H 0.18537 0.65972 0.50887 0.0
C489 C 0.15331 0.56527 0.46825 0.0
H490 H 0.14661 0.6445 0.46457 0.0
C491 C 0.17615 0.57437 0.49345 0.0
C492 C 0.18781 0.60832 0.50855 0.0
H493 H 0.14411 0.53848 0.45754 0.0
H494 H 0.18441 0.55467 0.50124 0.0
C495 C 0.1765 0.63314 0.49786 0.0
C496 C 0.60368 0.17439 0.62173 0.0
C497 C 0.56959 0.14017 0.62297 0.0
H498 H 0.64455 0.22289 0.64542 0.0
C499 C 0.55097 0.12862 0.65051 0.0
H500 H 0.61861 0.18465 0.60094 0.0
C501 C 0.56551 0.15106 0.67584 0.0
C502 C 0.59937 0.18521 0.67441 0.0
H503 H 0.52516 0.1021 0.65264 0.0
H504 H 0.55023 0.14161 0.69659 0.0
C505 C 0.61855 0.19646 0.64722 0.0
C506 C 0.41479 0.54641 0.80574 0.0
C507 C 0.4445 0.57072 0.78718 0.0
H508 H 0.38266 0.54066 0.84475 0.0
C509 C 0.46496 0.60911 0.7944 0.0
H510 H 0.39883 0.51662 0.80104 0.0
C511 C 0.45577 0.6229 0.81955 0.0
C512 C 0.42606 0.59853 0.83805 0.0
H513 H 0.4878 0.62861 0.78039 0.0
H514 H 0.47185 0.65264 0.82442 0.0
C515 C 0.40573 0.56015 0.83092 0.0
C516 C 0.87609 0.4121 0.96941 0.0
C517 C 0.88858 0.44657 0.95482 0.0
H518 H 0.84475 0.37631 0.00548 0.0
C519 C 0.87745 0.47147 0.966 0.0
H520 H 0.88336 0.39186 0.96114 0.0
C521 C 0.85468 0.4622 0.99126 0.0
C522 C 0.84289 0.42802 0.00601 0.0
H523 H 0.8869 0.49847 0.9556 0.0
H524 H 0.84677 0.482 0.99948 0.0
C525 C 0.85374 0.40306 0.99477 0.0
C526 C 0.48006 0.90542 0.15111 0.0
C527 C 0.46129 0.89421 0.12359 0.0
H528 H 0.48121 0.89176 0.19693 0.0
C529 C 0.42731 0.85989 0.12216 0.0
H530 H 0.50577 0.932 0.1534 0.0
C531 C 0.41272 0.83737 0.14744 0.0
C532 C 0.43209 0.84829 0.17459 0.0
H533 H 0.41227 0.84988 0.10138 0.0
H534 H 0.38679 0.81089 0.14551 0.0
C535 C 0.46582 0.88255 0.17621 0.0
C536 C 0.61557 0.4857 0.3028 0.0
C537 C 0.58597 0.46097 0.28431 0.0
H538 H 0.64772 0.49236 0.34196 0.0
C539 C 0.56586 0.42264 0.29177 0.0
H540 H 0.63126 0.51546 0.29795 0.0
C541 C 0.57522 0.40936 0.31714 0.0
C542 C 0.60475 0.43421 0.33561 0.0
H543 H 0.5431 0.40282 0.27782 0.0
H544 H 0.55936 0.3797 0.32227 0.0
C545 C 0.62481 0.47249 0.32816 0.0
C546 C 0.46436 0.87617 0.36283 0.0
C547 C 0.44335 0.89336 0.3703 0.0
H548 H 0.47196 0.84027 0.33259 0.0
C549 C 0.4132 0.88715 0.35195 0.0
H550 H 0.48749 0.88003 0.37667 0.0
C551 C 0.40428 0.86432 0.32674 0.0
C552 C 0.42526 0.84714 0.31934 0.0
H553 H 0.39678 0.90037 0.35682 0.0
H554 H 0.38088 0.86011 0.31306 0.0
C555 C 0.45539 0.85329 0.33763 0.0
C556 C 0.60326 0.46623 0.52699 0.0
C557 C 0.566 0.44223 0.536 0.0
H558 H 0.64636 0.4771 0.49532 0.0
C559 C 0.54344 0.41014 0.51871 0.0
H560 H 0.62136 0.4916 0.53927 0.0
C561 C 0.55757 0.4025 0.49305 0.0
C562 C 0.59479 0.42634 0.48434 0.0
H563 H 0.51491 0.39051 0.52514 0.0
H564 H 0.53949 0.3775 0.48033 0.0
C565 C 0.61757 0.45817 0.50161 0.0
C566 C 0.14546 0.54868 0.68665 0.0
C567 C 0.14131 0.57352 0.7056 0.0
H568 H 0.17085 0.54216 0.64729 0.0
C569 C 0.16061 0.61206 0.69886 0.0
H570 H 0.1306 0.51879 0.69102 0.0
C571 C 0.18363 0.62545 0.67377 0.0
C572 C 0.18764 0.60056 0.6548 0.0
H573 H 0.15826 0.63194 0.71319 0.0
H574 H 0.19831 0.65531 0.66925 0.0
C575 C 0.16829 0.56204 0.66148 0.0
C576 C 0.56985 0.159 0.86389 0.0
C577 C 0.59059 0.14148 0.87121 0.0
H578 H 0.56214 0.19472 0.83362 0.0
C579 C 0.62037 0.14717 0.85263 0.0
H580 H 0.54705 0.15561 0.87793 0.0
C581 C 0.62907 0.1697 0.82726 0.0
C582 C 0.60822 0.18705 0.81996 0.0
H583 H 0.6366 0.13373 0.85741 0.0
H584 H 0.65214 0.17347 0.81336 0.0
C585 C 0.57857 0.18152 0.83855 0.0
C586 C 0.48561 0.62424 0.01884 0.0
C587 C 0.4636 0.59069 0.0346 0.0
H588 H 0.48932 0.65877 0.98194 0.0
C589 C 0.42713 0.56585 0.02433 0.0
H590 H 0.51352 0.64441 0.02631 0.0
C591 C 0.41303 0.57448 0.99911 0.0
C592 C 0.43522 0.60788 0.98338 0.0
H593 H 0.40955 0.53945 0.03552 0.0
H594 H 0.38484 0.55485 0.9918 0.0
C595 C 0.47167 0.63261 0.99344 0.0
C596 C 0.88992 0.49005 0.18605 0.0
C597 C 0.89148 0.46532 0.20676 0.0
H598 H 0.86691 0.49597 0.14507 0.0
C599 C 0.86978 0.42646 0.20174 0.0
H600 H 0.90661 0.52013 0.18918 0.0
C601 C 0.84697 0.41261 0.17656 0.0
C602 C 0.8457 0.43736 0.15573 0.0
H603 H 0.87022 0.40674 0.21746 0.0
H604 H 0.83044 0.38253 0.17336 0.0
C605 C 0.86741 0.47621 0.16071 0.0
loop_
_geom_bond_atom_site_label_1
_geom_bond_atom_site_label_2
_geom_bond_distance
_geom_bond_site_symmetry_2
_ccdc_geom_bond_type
H0 C19 0.949 . S
H1 C20 0.950 . S
H2 C22 0.950 . S
H3 C23 0.950 . S
H4 C25 0.950 . S
H5 C28 0.950 . S
H6 C29 0.950 . S
H7 C31 0.951 . S
H8 C32 0.949 . S
H9 C34 0.949 . S
H10 C35 0.950 . S
H11 C37 0.950 . S
H12 C38 0.950 . S
H13 C40 0.950 1_655 S
H14 C43 0.950 . S
H15 C44 0.950 . S
H16 C46 0.951 . S
H17 C47 0.949 . S
C18 C19 1.376 . S
C18 C23 1.386 . S
C18 C24 1.483 . S
C19 H0 0.949 . S
C19 C18 1.376 . S
C19 C20 1.397 . S
C20 H1 0.950 . S
C20 C19 1.397 . S
C20 C21 1.391 . S
C21 C20 1.391 . S
C21 C22 1.405 . S
C22 H2 0.950 . S
C22 C21 1.405 . S
C22 C23 1.367 . S
C23 H3 0.950 . S
C23 C18 1.386 . S
C23 C22 1.367 . S
C24 C18 1.483 . S
C24 C25 1.382 1_655 S
C24 C26 1.403 . S
C25 H4 0.950 . S
C25 C24 1.382 1_455 S
C25 C41 1.411 . S
C26 C24 1.403 . S
C26 C27 1.489 . S
C26 C40 1.411 1_655 S
C27 C26 1.489 . S
C27 C28 1.383 . S
C27 C32 1.382 . S
C28 H5 0.950 . S
C28 C27 1.383 . S
C28 C29 1.395 . S
C29 H6 0.950 . S
C29 C28 1.395 . S
C29 C30 1.288 . S
C30 C29 1.288 . S
C30 C31 1.392 . S
C31 H7 0.951 . S
C31 C30 1.392 . S
C31 C32 1.392 . S
C32 H8 0.949 . S
C32 C27 1.382 . S
C32 C31 1.392 . S
C33 C34 1.376 . S
C33 C38 1.386 . S
C33 C39 1.483 . S
C34 H9 0.949 . S
C34 C33 1.376 . S
C34 C35 1.397 . S
C35 H10 0.950 . S
C35 C34 1.397 . S
C35 C36 1.391 . S
C36 C35 1.391 . S
C36 C37 1.405 . S
C37 H11 0.950 . S
C37 C36 1.405 . S
C37 C38 1.367 . S
C38 H12 0.950 . S
C38 C33 1.386 . S
C38 C37 1.367 . S
C39 C33 1.483 . S
C39 C40 1.382 . S
C39 C41 1.403 . S
C40 H13 0.950 1_455 S
C40 C26 1.411 1_455 S
C40 C39 1.382 . S
C41 C25 1.411 . S
C41 C39 1.403 . S
C41 C42 1.489 . S
C42 C41 1.489 . S
C42 C43 1.383 . S
C42 C47 1.382 . S
C43 H14 0.950 . S
C43 C42 1.383 . S
C43 C44 1.395 . S
C44 H15 0.950 . S
C44 C43 1.395 . S
C44 C45 1.288 . S
C45 C44 1.288 . S
C45 C46 1.392 . S
C46 H16 0.951 . S
C46 C45 1.392 . S
C46 C47 1.392 . S
C47 H17 0.949 . S
C47 C42 1.382 . S
C47 C46 1.392 . S
H48 C67 0.949 . S
H49 C68 0.950 . S
H50 C70 0.950 . S
H51 C71 0.950 . S
H52 C73 0.950 1_565 S
H53 C76 0.950 . S
H54 C77 0.950 . S
H55 C79 0.951 . S
H56 C80 0.949 . S
H57 C82 0.949 . S
H58 C83 0.950 . S
H59 C85 0.950 . S
H60 C86 0.950 . S
H61 C88 0.950 . S
H62 C91 0.950 . S
H63 C92 0.950 . S
H64 C94 0.951 . S
H65 C95 0.949 . S
C66 C67 1.376 . S
C66 C71 1.386 . S
C66 C72 1.483 . S
C67 H48 0.949 . S
C67 C66 1.376 . S
C67 C68 1.397 . S
C68 H49 0.950 . S
C68 C67 1.397 . S
C68 C69 1.391 . S
C69 C68 1.391 . S
C69 C70 1.405 . S
C70 H50 0.950 . S
C70 C69 1.405 . S
C70 C71 1.367 . S
C71 H51 0.950 . S
C71 C66 1.386 . S
C71 C70 1.367 . S
C72 C66 1.483 . S
C72 C73 1.382 1_565 S
C72 C74 1.403 . S
C73 H52 0.950 1_545 S
C73 C72 1.382 1_545 S
C73 C89 1.411 . S
C74 C72 1.403 . S
C74 C75 1.489 . S
C74 C88 1.411 1_565 S
C75 C74 1.489 . S
C75 C76 1.383 . S
C75 C80 1.382 . S
C76 H53 0.950 . S
C76 C75 1.383 . S
C76 C77 1.395 . S
C77 H54 0.950 . S
C77 C76 1.395 . S
C77 C78 1.288 . S
C78 C77 1.288 . S
C78 C79 1.392 . S
C79 H55 0.951 . S
C79 C78 1.392 . S
C79 C80 1.392 . S
C80 H56 0.949 . S
C80 C75 1.382 . S
C80 C79 1.392 . S
C81 C82 1.376 . S
C81 C86 1.386 . S
C81 C87 1.483 . S
C82 H57 0.949 . S
C82 C81 1.376 . S
C82 C83 1.397 . S
C83 H58 0.950 . S
C83 C82 1.397 . S
C83 C84 1.391 . S
C84 C83 1.391 . S
C84 C85 1.405 . S
C85 H59 0.950 . S
C85 C84 1.405 . S
C85 C86 1.367 . S
C86 H60 0.950 . S
C86 C81 1.386 . S
C86 C85 1.367 . S
C87 C81 1.483 . S
C87 C88 1.382 . S
C87 C89 1.403 . S
C88 H61 0.950 . S
C88 C74 1.411 1_545 S
C88 C87 1.382 . S
C89 C73 1.411 . S
C89 C87 1.403 . S
C89 C90 1.489 . S
C90 C89 1.489 . S
C90 C91 1.383 . S
C90 C95 1.382 . S
C91 H62 0.950 . S
C91 C90 1.383 . S
C91 C92 1.395 . S
C92 H63 0.950 . S
C92 C91 1.395 . S
C92 C93 1.288 . S
C93 C92 1.288 . S
C93 C94 1.392 . S
C94 H64 0.951 . S
C94 C93 1.392 . S
C94 C95 1.392 . S
C95 H65 0.949 . S
C95 C90 1.382 . S
C95 C94 1.392 . S
H96 C115 0.949 . S
H97 C116 0.950 . S
H98 C118 0.950 . S
H99 C119 0.950 . S
H100 C121 0.950 . S
H101 C124 0.950 . S
H102 C125 0.950 . S
H103 C127 0.951 . S
H104 C128 0.949 . S
H105 C130 0.949 . S
H106 C131 0.950 . S
H107 C133 0.950 . S
H108 C134 0.950 . S
H109 C136 0.950 . S
H110 C139 0.950 . S
H111 C140 0.950 . S
H112 C142 0.951 . S
H113 C143 0.949 . S
C114 C115 1.376 . S
C114 C119 1.386 . S
C114 C120 1.483 . S
C115 H96 0.949 . S
C115 C114 1.376 . S
C115 C116 1.397 . S
C116 H97 0.950 . S
C116 C115 1.397 . S
C116 C117 1.391 . S
C117 C116 1.391 . S
C117 C118 1.405 . S
C118 H98 0.950 . S
C118 C117 1.405 . S
C118 C119 1.367 . S
C119 H99 0.950 . S
C119 C114 1.386 . S
C119 C118 1.367 . S
C120 C114 1.483 . S
C120 C121 1.382 . S
C120 C122 1.403 . S
C121 H100 0.950 . S
C121 C120 1.382 . S
C121 C137 1.411 . S
C122 C120 1.403 . S
C122 C123 1.489 . S
C122 C136 1.411 . S
C123 C122 1.489 . S
C123 C124 1.383 . S
C123 C128 1.382 . S
C124 H101 0.950 . S
C124 C123 1.383 . S
C124 C125 1.395 . S
C125 H102 0.950 . S
C125 C124 1.395 . S
C125 C126 1.288 . S
C126 C125 1.288 . S
C126 C127 1.392 . S
C127 H103 0.951 . S
C127 C126 1.392 . S
C127 C128 1.392 . S
C128 H104 0.949 . S
C128 C123 1.382 . S
C128 C127 1.392 . S
C129 C130 1.376 . S
C129 C134 1.386 . S
C129 C135 1.483 . S
C130 H105 0.949 . S
C130 C129 1.376 . S
C130 C131 1.397 . S
C131 H106 0.950 . S
C131 C130 1.397 . S
C131 C132 1.391 . S
C132 C131 1.391 . S
C132 C133 1.405 . S
C133 H107 0.950 . S
C133 C132 1.405 . S
C133 C134 1.367 . S
C134 H108 0.950 . S
C134 C129 1.386 . S
C134 C133 1.367 . S
C135 C129 1.483 . S
C135 C136 1.382 . S
C135 C137 1.403 . S
C136 H109 0.950 . S
C136 C122 1.411 . S
C136 C135 1.382 . S
C137 C121 1.411 . S
C137 C135 1.403 . S
C137 C138 1.489 . S
C138 C137 1.489 . S
C138 C139 1.383 . S
C138 C143 1.382 . S
C139 H110 0.950 . S
C139 C138 1.383 . S
C139 C140 1.395 . S
C140 H111 0.950 . S
C140 C139 1.395 . S
C140 C141 1.288 . S
C141 C140 1.288 . S
C141 C142 1.392 . S
C142 H112 0.951 . S
C142 C141 1.392 . S
C142 C143 1.392 . S
C143 H113 0.949 . S
C143 C138 1.382 . S
C143 C142 1.392 . S
H144 C163 0.949 . S
H145 C164 0.950 . S
H146 C166 0.950 . S
H147 C167 0.950 . S
H148 C169 0.950 1_655 S
H149 C172 0.950 . S
H150 C173 0.950 . S
H151 C175 0.951 . S
H152 C176 0.949 . S
H153 C178 0.949 . S
H154 C179 0.950 . S
H155 C181 0.950 . S
H156 C182 0.950 . S
H157 C184 0.950 . S
H158 C187 0.950 . S
H159 C188 0.950 . S
H160 C190 0.951 . S
H161 C191 0.949 . S
C162 C163 1.376 . S
C162 C167 1.386 . S
C162 C168 1.483 . S
C163 H144 0.949 . S
C163 C162 1.376 . S
C163 C164 1.397 . S
C164 H145 0.950 . S
C164 C163 1.397 . S
C164 C165 1.391 . S
C165 C164 1.391 . S
C165 C166 1.405 . S
C166 H146 0.950 . S
C166 C165 1.405 . S
C166 C167 1.367 . S
C167 H147 0.950 . S
C167 C162 1.386 . S
C167 C166 1.367 . S
C168 C162 1.483 . S
C168 C169 1.382 . S
C168 C170 1.403 . S
C169 H148 0.950 1_455 S
C169 C168 1.382 . S
C169 C185 1.411 1_455 S
C170 C168 1.403 . S
C170 C171 1.489 . S
C170 C184 1.411 . S
C171 C170 1.489 . S
C171 C172 1.383 . S
C171 C176 1.382 . S
C172 H149 0.950 . S
C172 C171 1.383 . S
C172 C173 1.395 . S
C173 H150 0.950 . S
C173 C172 1.395 . S
C173 C174 1.288 . S
C174 C173 1.288 . S
C174 C175 1.392 . S
C175 H151 0.951 . S
C175 C174 1.392 . S
C175 C176 1.392 . S
C176 H152 0.949 . S
C176 C171 1.382 . S
C176 C175 1.392 . S
C177 C178 1.376 . S
C177 C182 1.386 . S
C177 C183 1.483 . S
C178 H153 0.949 . S
C178 C177 1.376 . S
C178 C179 1.397 . S
C179 H154 0.950 . S
C179 C178 1.397 . S
C179 C180 1.391 . S
C180 C179 1.391 . S
C180 C181 1.405 . S
C181 H155 0.950 . S
C181 C180 1.405 . S
C181 C182 1.367 . S
C182 H156 0.950 . S
C182 C177 1.386 . S
C182 C181 1.367 . S
C183 C177 1.483 . S
C183 C184 1.382 1_655 S
C183 C185 1.403 . S
C184 H157 0.950 . S
C184 C170 1.411 . S
C184 C183 1.382 1_455 S
C185 C169 1.411 1_655 S
C185 C183 1.403 . S
C185 C186 1.489 . S
C186 C185 1.489 . S
C186 C187 1.383 . S
C186 C191 1.382 . S
C187 H158 0.950 . S
C187 C186 1.383 . S
C187 C188 1.395 . S
C188 H159 0.950 . S
C188 C187 1.395 . S
C188 C189 1.288 . S
C189 C188 1.288 . S
C189 C190 1.392 . S
C190 H160 0.951 . S
C190 C189 1.392 . S
C190 C191 1.392 . S
C191 H161 0.949 . S
C191 C186 1.382 . S
C191 C190 1.392 . S
H192 C211 0.949 . S
H193 C212 0.950 . S
H194 C214 0.950 . S
H195 C215 0.950 . S
H196 C217 0.950 . S
H197 C220 0.950 . S
H198 C221 0.950 . S
H199 C223 0.951 . S
H200 C224 0.949 . S
H201 C226 0.949 . S
H202 C227 0.950 . S
H203 C229 0.950 . S
H204 C230 0.950 . S
H205 C232 0.950 1_565 S
H206 C235 0.950 . S
H207 C236 0.950 . S
H208 C238 0.951 . S
H209 C239 0.949 . S
C210 C211 1.376 . S
C210 C215 1.386 1_554 S
C210 C216 1.483 1_554 S
C211 H192 0.949 . S
C211 C210 1.376 . S
C211 C212 1.397 . S
C212 H193 0.950 . S
C212 C211 1.397 . S
C212 C213 1.391 . S
C213 C212 1.391 . S
C213 C214 1.405 . S
C214 H194 0.950 . S
C214 C213 1.405 . S
C214 C215 1.367 1_554 S
C215 H195 0.950 . S
C215 C210 1.386 1_556 S
C215 C214 1.367 1_556 S
C216 C210 1.483 1_556 S
C216 C217 1.382 1_556 S
C216 C218 1.403 . S
C217 H196 0.950 . S
C217 C216 1.382 1_554 S
C217 C233 1.411 1_545 S
C218 C216 1.403 . S
C218 C219 1.489 . S
C218 C232 1.411 . S
C219 C218 1.489 . S
C219 C220 1.383 . S
C219 C224 1.382 . S
C220 H197 0.950 . S
C220 C219 1.383 . S
C220 C221 1.395 . S
C221 H198 0.950 . S
C221 C220 1.395 . S
C221 C222 1.288 . S
C222 C221 1.288 . S
C222 C223 1.392 . S
C223 H199 0.951 . S
C223 C222 1.392 . S
C223 C224 1.392 . S
C224 H200 0.949 . S
C224 C219 1.382 . S
C224 C223 1.392 . S
C225 C226 1.376 . S
C225 C230 1.386 . S
C225 C231 1.483 . S
C226 H201 0.949 . S
C226 C225 1.376 . S
C226 C227 1.397 . S
C227 H202 0.950 . S
C227 C226 1.397 . S
C227 C228 1.391 . S
C228 C227 1.391 . S
C228 C229 1.405 . S
C229 H203 0.950 . S
C229 C228 1.405 . S
C229 C230 1.367 . S
C230 H204 0.950 . S
C230 C225 1.386 . S
C230 C229 1.367 . S
C231 C225 1.483 . S
C231 C232 1.382 1_565 S
C231 C233 1.403 1_556 S
C232 H205 0.950 1_545 S
C232 C218 1.411 . S
C232 C231 1.382 1_545 S
C233 C217 1.411 1_565 S
C233 C231 1.403 1_554 S
C233 C234 1.489 . S
C234 C233 1.489 . S
C234 C235 1.383 . S
C234 C239 1.382 . S
C235 H206 0.950 . S
C235 C234 1.383 . S
C235 C236 1.395 . S
C236 H207 0.950 . S
C236 C235 1.395 . S
C236 C237 1.288 . S
C237 C236 1.288 . S
C237 C238 1.392 . S
C238 H208 0.951 . S
C238 C237 1.392 . S
C238 C239 1.392 . S
C239 H209 0.949 . S
C239 C234 1.382 . S
C239 C238 1.392 . S
H240 C259 0.949 . S
H241 C260 0.950 . S
H242 C262 0.950 . S
H243 C263 0.950 . S
H244 C265 0.950 . S
H245 C268 0.950 . S
H246 C269 0.950 . S
H247 C271 0.951 . S
H248 C272 0.949 . S
H249 C274 0.949 . S
H250 C275 0.950 . S
H251 C277 0.950 . S
H252 C278 0.950 . S
H253 C280 0.950 . S
H254 C283 0.950 . S
H255 C284 0.950 . S
H256 C286 0.951 . S
H257 C287 0.949 . S
C258 C259 1.376 . S
C258 C263 1.386 . S
C258 C264 1.483 . S
C259 H240 0.949 . S
C259 C258 1.376 . S
C259 C260 1.397 . S
C260 H241 0.950 . S
C260 C259 1.397 . S
C260 C261 1.391 . S
C261 C260 1.391 . S
C261 C262 1.405 . S
C262 H242 0.950 . S
C262 C261 1.405 . S
C262 C263 1.367 . S
C263 H243 0.950 . S
C263 C258 1.386 . S
C263 C262 1.367 . S
C264 C258 1.483 . S
C264 C265 1.382 . S
C264 C266 1.403 . S
C265 H244 0.950 . S
C265 C264 1.382 . S
C265 C281 1.411 . S
C266 C264 1.403 . S
C266 C267 1.489 . S
C266 C280 1.411 . S
C267 C266 1.489 . S
C267 C268 1.383 . S
C267 C272 1.382 . S
C268 H245 0.950 . S
C268 C267 1.383 . S
C268 C269 1.395 . S
C269 H246 0.950 . S
C269 C268 1.395 . S
C269 C270 1.288 . S
C270 C269 1.288 . S
C270 C271 1.392 . S
C271 H247 0.951 . S
C271 C270 1.392 . S
C271 C272 1.392 . S
C272 H248 0.949 . S
C272 C267 1.382 . S
C272 C271 1.392 . S
C273 C274 1.376 . S
C273 C278 1.386 . S
C273 C279 1.483 . S
C274 H249 0.949 . S
C274 C273 1.376 . S
C274 C275 1.397 . S
C275 H250 0.950 . S
C275 C274 1.397 . S
C275 C276 1.391 . S
C276 C275 1.391 . S
C276 C277 1.405 . S
C277 H251 0.950 . S
C277 C276 1.405 . S
C277 C278 1.367 . S
C278 H252 0.950 . S
C278 C273 1.386 . S
C278 C277 1.367 . S
C279 C273 1.483 . S
C279 C280 1.382 . S
C279 C281 1.403 . S
C280 H253 0.950 . S
C280 C266 1.411 . S
C280 C279 1.382 . S
C281 C265 1.411 . S
C281 C279 1.403 . S
C281 C282 1.489 . S
C282 C281 1.489 . S
C282 C283 1.383 . S
C282 C287 1.382 . S
C283 H254 0.950 . S
C283 C282 1.383 . S
C283 C284 1.395 . S
C284 H255 0.950 . S
C284 C283 1.395 . S
C284 C285 1.288 . S
C285 C284 1.288 . S
C285 C286 1.392 . S
C286 H256 0.951 . S
C286 C285 1.392 . S
C286 C287 1.392 . S
C287 H257 0.949 . S
C287 C282 1.382 . S
C287 C286 1.392 . S
In288 O289 2.294 . S
In288 O290 2.326 . S
In288 O294 2.266 . S
In288 O295 2.326 . S
In288 O296 2.266 . S
In288 O297 2.326 . S
In288 O299 2.294 . S
In288 O300 2.326 . S
O289 In288 2.294 . S
O289 C298 1.240 . S
O290 In288 2.326 . S
O290 C298 1.252 . S
C291 O294 1.252 . S
C291 O295 1.260 . S
C292 O299 1.240 . S
C292 O300 1.252 . S
C293 O296 1.252 . S
C293 O297 1.260 . S
O294 In288 2.266 . S
O294 C291 1.252 . S
O295 In288 2.326 . S
O295 C291 1.260 . S
O296 In288 2.266 . S
O296 C293 1.252 . S
O297 In288 2.326 . S
O297 C293 1.260 . S
C298 O289 1.240 . S
C298 O290 1.252 . S
O299 In288 2.294 . S
O299 C292 1.240 . S
O300 In288 2.326 . S
O300 C292 1.252 . S
In301 O302 2.294 . S
In301 O303 2.326 . S
In301 O307 2.266 . S
In301 O308 2.326 . S
In301 O309 2.266 . S
In301 O310 2.326 . S
In301 O312 2.294 . S
In301 O313 2.326 . S
O302 In301 2.294 . S
O302 C311 1.240 . S
O303 In301 2.326 . S
O303 C311 1.252 . S
C304 O307 1.252 . S
C304 O308 1.260 . S
C305 O312 1.240 . S
C305 O313 1.252 . S
C306 O309 1.252 . S
C306 O310 1.260 . S
O307 In301 2.266 . S
O307 C304 1.252 . S
O308 In301 2.326 . S
O308 C304 1.260 . S
O309 In301 2.266 . S
O309 C306 1.252 . S
O310 In301 2.326 . S
O310 C306 1.260 . S
C311 O302 1.240 . S
C311 O303 1.252 . S
O312 In301 2.294 . S
O312 C305 1.240 . S
O313 In301 2.326 . S
O313 C305 1.252 . S
In314 O315 2.294 . S
In314 O316 2.326 . S
In314 O320 2.266 . S
In314 O321 2.326 . S
In314 O322 2.266 . S
In314 O323 2.326 . S
In314 O325 2.294 . S
In314 O326 2.326 . S
O315 In314 2.294 . S
O315 C324 1.240 . S
O316 In314 2.326 . S
O316 C324 1.252 . S
C317 O320 1.252 . S
C317 O321 1.260 . S
C318 O325 1.240 . S
C318 O326 1.252 . S
C319 O322 1.252 . S
C319 O323 1.260 . S
O320 In314 2.266 . S
O320 C317 1.252 . S
O321 In314 2.326 . S
O321 C317 1.260 . S
O322 In314 2.266 . S
O322 C319 1.252 . S
O323 In314 2.326 . S
O323 C319 1.260 . S
C324 O315 1.240 . S
C324 O316 1.252 . S
O325 In314 2.294 . S
O325 C318 1.240 . S
O326 In314 2.326 . S
O326 C318 1.252 . S
In327 O328 2.294 . S
In327 O329 2.326 . S
In327 O333 2.266 . S
In327 O334 2.326 . S
In327 O335 2.266 . S
In327 O336 2.326 . S
In327 O338 2.294 . S
In327 O339 2.326 . S
O328 In327 2.294 . S
O328 C337 1.240 . S
O329 In327 2.326 . S
O329 C337 1.252 . S
C330 O333 1.252 . S
C330 O334 1.260 . S
C331 O338 1.240 . S
C331 O339 1.252 . S
C332 O335 1.252 . S
C332 O336 1.260 . S
O333 In327 2.266 . S
O333 C330 1.252 . S
O334 In327 2.326 . S
O334 C330 1.260 . S
O335 In327 2.266 . S
O335 C332 1.252 . S
O336 In327 2.326 . S
O336 C332 1.260 . S
C337 O328 1.240 . S
C337 O329 1.252 . S
O338 In327 2.294 . S
O338 C331 1.240 . S
O339 In327 2.326 . S
O339 C331 1.252 . S
In340 O341 2.294 . S
In340 O342 2.326 . S
In340 O346 2.266 . S
In340 O347 2.326 . S
In340 O348 2.266 . S
In340 O349 2.326 . S
In340 O351 2.294 . S
In340 O352 2.326 . S
O341 In340 2.294 . S
O341 C350 1.240 . S
O342 In340 2.326 . S
O342 C350 1.252 . S
C343 O346 1.252 . S
C343 O347 1.260 . S
C344 O351 1.240 . S
C344 O352 1.252 . S
C345 O348 1.252 . S
C345 O349 1.260 . S
O346 In340 2.266 . S
O346 C343 1.252 . S
O347 In340 2.326 . S
O347 C343 1.260 . S
O348 In340 2.266 . S
O348 C345 1.252 . S
O349 In340 2.326 . S
O349 C345 1.260 . S
C350 O341 1.240 . S
C350 O342 1.252 . S
O351 In340 2.294 . S
O351 C344 1.240 . S
O352 In340 2.326 . S
O352 C344 1.252 . S
In353 O354 2.294 . S
In353 O355 2.326 . S
In353 O359 2.266 . S
In353 O360 2.326 . S
In353 O361 2.266 . S
In353 O362 2.326 . S
In353 O364 2.294 . S
In353 O365 2.326 . S
O354 In353 2.294 . S
O354 C363 1.240 . S
O355 In353 2.326 . S
O355 C363 1.252 . S
C356 O359 1.252 . S
C356 O360 1.260 . S
C357 O364 1.240 . S
C357 O365 1.252 . S
C358 O361 1.252 . S
C358 O362 1.260 . S
O359 In353 2.266 . S
O359 C356 1.252 . S
O360 In353 2.326 . S
O360 C356 1.260 . S
O361 In353 2.266 . S
O361 C358 1.252 . S
O362 In353 2.326 . S
O362 C358 1.260 . S
C363 O354 1.240 . S
C363 O355 1.252 . S
O364 In353 2.294 . S
O364 C357 1.240 . S
O365 In353 2.326 . S
O365 C357 1.252 . S
C366 C367 1.387 . S
C366 H370 0.950 . S
C366 C375 1.390 . S
C367 C366 1.387 . S
C367 C369 1.387 . S
H368 C375 0.950 . S
C369 C367 1.387 . S
C369 C371 1.390 . S
C369 H373 0.950 . S
H370 C366 0.950 . S
C371 C369 1.390 . S
C371 C372 1.387 . S
C371 H374 0.950 . S
C372 C371 1.387 . S
C372 C375 1.387 . S
H373 C369 0.950 . S
H374 C371 0.950 . S
C375 C366 1.390 . S
C375 H368 0.950 . S
C375 C372 1.387 . S
C376 C377 1.387 . S
C376 H380 0.950 . S
C376 C385 1.390 . S
C377 C376 1.387 . S
C377 C379 1.387 . S
H378 C385 0.950 . S
C379 C377 1.387 . S
C379 C381 1.390 . S
C379 H383 0.950 . S
H380 C376 0.950 . S
C381 C379 1.390 . S
C381 C382 1.387 . S
C381 H384 0.950 . S
C382 C381 1.387 . S
C382 C385 1.387 . S
H383 C379 0.950 . S
H384 C381 0.950 . S
C385 C376 1.390 . S
C385 H378 0.950 . S
C385 C382 1.387 . S
C386 C387 1.387 . S
C386 H390 0.950 . S
C386 C395 1.390 . S
C387 C386 1.387 . S
C387 C389 1.387 . S
H388 C395 0.950 . S
C389 C387 1.387 . S
C389 C391 1.390 . S
C389 H393 0.950 . S
H390 C386 0.950 . S
C391 C389 1.390 . S
C391 C392 1.387 . S
C391 H394 0.950 . S
C392 C391 1.387 . S
C392 C395 1.387 . S
H393 C389 0.950 . S
H394 C391 0.950 . S
C395 C386 1.390 . S
C395 H388 0.950 . S
C395 C392 1.387 . S
C396 C397 1.387 . S
C396 H400 0.950 . S
C396 C405 1.390 . S
C397 C396 1.387 . S
C397 C399 1.387 . S
H398 C405 0.950 . S
C399 C397 1.387 . S
C399 C401 1.390 . S
C399 H403 0.950 . S
H400 C396 0.950 . S
C401 C399 1.390 . S
C401 C402 1.387 . S
C401 H404 0.950 . S
C402 C401 1.387 . S
C402 C405 1.387 . S
H403 C399 0.950 . S
H404 C401 0.950 . S
C405 C396 1.390 . S
C405 H398 0.950 . S
C405 C402 1.387 . S
C406 C407 1.387 . S
C406 H410 0.950 . S
C406 C415 1.390 . S
C407 C406 1.387 . S
C407 C409 1.387 . S
H408 C415 0.950 . S
C409 C407 1.387 . S
C409 C411 1.390 . S
C409 H413 0.950 . S
H410 C406 0.950 . S
C411 C409 1.390 . S
C411 C412 1.387 . S
C411 H414 0.950 . S
C412 C411 1.387 . S
C412 C415 1.387 . S
H413 C409 0.950 . S
H414 C411 0.950 . S
C415 C406 1.390 . S
C415 H408 0.950 . S
C415 C412 1.387 . S
C416 C417 1.387 . S
C416 H420 0.950 . S
C416 C425 1.390 . S
C417 C416 1.387 . S
C417 C419 1.387 . S
H418 C425 0.950 . S
C419 C417 1.387 . S
C419 C421 1.390 . S
C419 H423 0.950 . S
H420 C416 0.950 . S
C421 C419 1.390 . S
C421 C422 1.387 . S
C421 H424 0.950 . S
C422 C421 1.387 . S
C422 C425 1.387 . S
H423 C419 0.950 . S
H424 C421 0.950 . S
C425 C416 1.390 . S
C425 H418 0.950 . S
C425 C422 1.387 . S
C426 C427 1.387 . S
C426 H430 0.950 . S
C426 C435 1.390 . S
C427 C426 1.387 . S
C427 C429 1.387 . S
H428 C435 0.950 . S
C429 C427 1.387 . S
C429 C431 1.390 . S
C429 H433 0.950 . S
H430 C426 0.950 . S
C431 C429 1.390 . S
C431 C432 1.387 . S
C431 H434 0.950 . S
C432 C431 1.387 . S
C432 C435 1.387 . S
H433 C429 0.950 . S
H434 C431 0.950 . S
C435 C426 1.390 . S
C435 H428 0.950 . S
C435 C432 1.387 . S
C436 C437 1.387 . S
C436 H440 0.950 . S
C436 C445 1.390 . S
C437 C436 1.387 . S
C437 C439 1.387 . S
H438 C445 0.950 . S
C439 C437 1.387 . S
C439 C441 1.390 . S
C439 H443 0.950 . S
H440 C436 0.950 . S
C441 C439 1.390 . S
C441 C442 1.387 . S
C441 H444 0.950 . S
C442 C441 1.387 . S
C442 C445 1.387 . S
H443 C439 0.950 . S
H444 C441 0.950 . S
C445 C436 1.390 . S
C445 H438 0.950 . S
C445 C442 1.387 . S
C446 C447 1.387 . S
C446 H450 0.950 . S
C446 C455 1.390 . S
C447 C446 1.387 . S
C447 C449 1.387 . S
H448 C455 0.950 . S
C449 C447 1.387 . S
C449 C451 1.390 . S
C449 H453 0.950 . S
H450 C446 0.950 . S
C451 C449 1.390 . S
C451 C452 1.387 . S
C451 H454 0.950 . S
C452 C451 1.387 . S
C452 C455 1.387 . S
H453 C449 0.950 . S
H454 C451 0.950 . S
C455 C446 1.390 . S
C455 H448 0.950 . S
C455 C452 1.387 . S
C456 C457 1.387 . S
C456 H460 0.950 . S
C456 C465 1.390 . S
C457 C456 1.387 . S
C457 C459 1.387 . S
H458 C465 0.950 . S
C459 C457 1.387 . S
C459 C461 1.390 . S
C459 H463 0.950 . S
H460 C456 0.950 . S
C461 C459 1.390 . S
C461 C462 1.387 . S
C461 H464 0.950 . S
C462 C461 1.387 . S
C462 C465 1.387 . S
H463 C459 0.950 . S
H464 C461 0.950 . S
C465 C456 1.390 . S
C465 H458 0.950 . S
C465 C462 1.387 . S
C466 C467 1.387 . S
C466 H470 0.950 . S
C466 C475 1.390 . S
C467 C466 1.387 . S
C467 C469 1.387 . S
H468 C475 0.950 . S
C469 C467 1.387 . S
C469 C471 1.390 . S
C469 H473 0.950 . S
H470 C466 0.950 . S
C471 C469 1.390 . S
C471 C472 1.387 . S
C471 H474 0.950 . S
C472 C471 1.387 . S
C472 C475 1.387 . S
H473 C469 0.950 . S
H474 C471 0.950 . S
C475 C466 1.390 . S
C475 H468 0.950 . S
C475 C472 1.387 . S
C476 C477 1.387 . S
C476 H480 0.950 . S
C476 C485 1.390 . S
C477 C476 1.387 . S
C477 C479 1.387 . S
H478 C485 0.950 . S
C479 C477 1.387 . S
C479 C481 1.390 . S
C479 H483 0.950 . S
H480 C476 0.950 . S
C481 C479 1.390 . S
C481 C482 1.387 . S
C481 H484 0.950 . S
C482 C481 1.387 . S
C482 C485 1.387 . S
H483 C479 0.950 . S
H484 C481 0.950 . S
C485 C476 1.390 . S
C485 H478 0.950 . S
C485 C482 1.387 . S
C486 C487 1.387 . S
C486 H490 0.950 . S
C486 C495 1.390 . S
C487 C486 1.387 . S
C487 C489 1.387 . S
H488 C495 0.950 . S
C489 C487 1.387 . S
C489 C491 1.390 . S
C489 H493 0.950 . S
H490 C486 0.950 . S
C491 C489 1.390 . S
C491 C492 1.387 . S
C491 H494 0.950 . S
C492 C491 1.387 . S
C492 C495 1.387 . S
H493 C489 0.950 . S
H494 C491 0.950 . S
C495 C486 1.390 . S
C495 H488 0.950 . S
C495 C492 1.387 . S
C496 C497 1.387 . S
C496 H500 0.950 . S
C496 C505 1.390 . S
C497 C496 1.387 . S
C497 C499 1.387 . S
H498 C505 0.950 . S
C499 C497 1.387 . S
C499 C501 1.390 . S
C499 H503 0.950 . S
H500 C496 0.950 . S
C501 C499 1.390 . S
C501 C502 1.387 . S
C501 H504 0.950 . S
C502 C501 1.387 . S
C502 C505 1.387 . S
H503 C499 0.950 . S
H504 C501 0.950 . S
C505 C496 1.390 . S
C505 H498 0.950 . S
C505 C502 1.387 . S
C506 C507 1.387 . S
C506 H510 0.950 . S
C506 C515 1.390 . S
C507 C506 1.387 . S
C507 C509 1.387 . S
H508 C515 0.950 . S
C509 C507 1.387 . S
C509 C511 1.390 . S
C509 H513 0.950 . S
H510 C506 0.950 . S
C511 C509 1.390 . S
C511 C512 1.387 . S
C511 H514 0.950 . S
C512 C511 1.387 . S
C512 C515 1.387 . S
H513 C509 0.950 . S
H514 C511 0.950 . S
C515 C506 1.390 . S
C515 H508 0.950 . S
C515 C512 1.387 . S
C516 C517 1.387 . S
C516 H520 0.950 . S
C516 C525 1.390 . S
C517 C516 1.387 . S
C517 C519 1.387 . S
H518 C525 0.950 . S
C519 C517 1.387 . S
C519 C521 1.390 . S
C519 H523 0.950 . S
H520 C516 0.950 . S
C521 C519 1.390 . S
C521 C522 1.387 1_556 S
C521 H524 0.948 . S
C522 C521 1.387 1_554 S
C522 C525 1.387 1_554 S
H523 C519 0.950 . S
H524 C521 0.948 . S
C525 C516 1.390 . S
C525 H518 0.950 . S
C525 C522 1.387 1_556 S
C526 C527 1.387 . S
C526 H530 0.950 . S
C526 C535 1.390 . S
C527 C526 1.387 . S
C527 C529 1.387 . S
H528 C535 0.950 . S
C529 C527 1.387 . S
C529 C531 1.390 . S
C529 H533 0.950 . S
H530 C526 0.950 . S
C531 C529 1.390 . S
C531 C532 1.387 . S
C531 H534 0.950 . S
C532 C531 1.387 . S
C532 C535 1.387 . S
H533 C529 0.950 . S
H534 C531 0.950 . S
C535 C526 1.390 . S
C535 H528 0.950 . S
C535 C532 1.387 . S
C536 C537 1.387 . S
C536 H540 0.950 . S
C536 C545 1.390 . S
C537 C536 1.387 . S
C537 C539 1.387 . S
H538 C545 0.950 . S
C539 C537 1.387 . S
C539 C541 1.390 . S
C539 H543 0.950 . S
H540 C536 0.950 . S
C541 C539 1.390 . S
C541 C542 1.387 . S
C541 H544 0.950 . S
C542 C541 1.387 . S
C542 C545 1.387 . S
H543 C539 0.950 . S
H544 C541 0.950 . S
C545 C536 1.390 . S
C545 H538 0.950 . S
C545 C542 1.387 . S
C546 C547 1.387 . S
C546 H550 0.950 . S
C546 C555 1.390 . S
C547 C546 1.387 . S
C547 C549 1.387 . S
H548 C555 0.950 . S
C549 C547 1.387 . S
C549 C551 1.390 . S
C549 H553 0.950 . S
H550 C546 0.950 . S
C551 C549 1.390 . S
C551 C552 1.387 . S
C551 H554 0.950 . S
C552 C551 1.387 . S
C552 C555 1.387 . S
H553 C549 0.950 . S
H554 C551 0.950 . S
C555 C546 1.390 . S
C555 H548 0.950 . S
C555 C552 1.387 . S
C556 C557 1.387 . S
C556 H560 0.950 . S
C556 C565 1.390 . S
C557 C556 1.387 . S
C557 C559 1.387 . S
H558 C565 0.950 . S
C559 C557 1.387 . S
C559 C561 1.390 . S
C559 H563 0.950 . S
H560 C556 0.950 . S
C561 C559 1.390 . S
C561 C562 1.387 . S
C561 H564 0.950 . S
C562 C561 1.387 . S
C562 C565 1.387 . S
H563 C559 0.950 . S
H564 C561 0.950 . S
C565 C556 1.390 . S
C565 H558 0.950 . S
C565 C562 1.387 . S
C566 C567 1.387 . S
C566 H570 0.950 . S
C566 C575 1.390 . S
C567 C566 1.387 . S
C567 C569 1.387 . S
H568 C575 0.950 . S
C569 C567 1.387 . S
C569 C571 1.390 . S
C569 H573 0.950 . S
H570 C566 0.950 . S
C571 C569 1.390 . S
C571 C572 1.387 . S
C571 H574 0.950 . S
C572 C571 1.387 . S
C572 C575 1.387 . S
H573 C569 0.950 . S
H574 C571 0.950 . S
C575 C566 1.390 . S
C575 H568 0.950 . S
C575 C572 1.387 . S
C576 C577 1.387 . S
C576 H580 0.950 . S
C576 C585 1.390 . S
C577 C576 1.387 . S
C577 C579 1.387 . S
H578 C585 0.950 . S
C579 C577 1.387 . S
C579 C581 1.390 . S
C579 H583 0.950 . S
H580 C576 0.950 . S
C581 C579 1.390 . S
C581 C582 1.387 . S
C581 H584 0.950 . S
C582 C581 1.387 . S
C582 C585 1.387 . S
H583 C579 0.950 . S
H584 C581 0.950 . S
C585 C576 1.390 . S
C585 H578 0.950 . S
C585 C582 1.387 . S
C586 C587 1.387 . S
C586 H590 0.950 . S
C586 C595 1.390 1_554 S
C587 C586 1.387 . S
C587 C589 1.387 . S
H588 C595 0.950 . S
C589 C587 1.387 . S
C589 C591 1.390 1_554 S
C589 H593 0.950 . S
H590 C586 0.950 . S
C591 C589 1.390 1_556 S
C591 C592 1.387 . S
C591 H594 0.950 . S
C592 C591 1.387 . S
C592 C595 1.387 . S
H593 C589 0.950 . S
H594 C591 0.950 . S
C595 C586 1.390 1_556 S
C595 H588 0.950 . S
C595 C592 1.387 . S
C596 C597 1.387 . S
C596 H600 0.950 . S
C596 C605 1.390 . S
C597 C596 1.387 . S
C597 C599 1.387 . S
H598 C605 0.950 . S
C599 C597 1.387 . S
C599 C601 1.390 . S
C599 H603 0.950 . S
H600 C596 0.950 . S
C601 C599 1.390 . S
C601 C602 1.387 . S
C601 H604 0.950 . S
C602 C601 1.387 . S
C602 C605 1.387 . S
H603 C599 0.950 . S
H604 C601 0.950 . S
C605 C596 1.390 . S
C605 H598 0.950 . S
C605 C602 1.387 . S
C372 C358 1.571 . S
C367 C45 1.572 . S
C377 C84 1.572 . S
C382 C293 1.574 . S
C387 C126 1.552 . S
C392 C311 1.573 . S
C397 C189 1.564 . S
C402 C324 1.564 . S
C412 C332 1.576 . S
C407 C228 1.573 . S
C417 C270 1.552 . S
C422 C344 1.572 . S
C427 C69 1.564 . S
C432 C306 1.574 . S
C437 C141 1.571 . S
C442 C319 1.571 . S
C447 C174 1.552 . S
C452 C337 1.572 . S
C462 C343 1.576 . S
C457 C213 1.566 . S
C472 C363 1.564 . S
C467 C285 1.564 . S
C482 C298 1.573 . S
C477 C30 1.552 . S
C487 C36 1.595 . S
C492 C304 1.602 . S
C497 C93 1.605 . S
C502 C317 1.604 . S
C512 C331 1.600 . S
C507 C117 1.581 . S
C517 C180 1.599 . S
C522 C345 1.606 . S
C532 C357 1.596 . S
C527 C237 1.597 . S
C542 C292 1.599 . S
C537 C261 1.580 . S
C552 C356 1.604 . S
C547 C78 1.565 . S
C557 C132 1.596 . S
C562 C291 1.602 . S
C572 C305 1.600 . S
C567 C165 1.580 . S
C577 C222 1.557 . S
C582 C318 1.595 . S
C587 C276 1.599 . S
C592 C330 1.606 . S
C597 C21 1.581 . S
C602 C350 1.600 . S
