# Generated by pormake.
# Topology anh, (6,3)-cn, num edge types: 1
# Building blocks:
#     Node 0, Type 0, BuildingBlock: PAMTUU_clean_sbu_0, # of connection points: 6
#     Node 1, Type 0, BuildingBlock: PAMTUU_clean_sbu_0, # of connection points: 6
#     Node 2, Type 0, BuildingBlock: PAMTUU_clean_sbu_0, # of connection points: 6
#     Node 3, Type 1, BuildingBlock: KAKCAD_clean_linker_0, # of connection points: 3
#     Node 4, Type 1, BuildingBlock: KAKCAD_clean_linker_0, # of connection points: 3
#     Node 5, Type 1, BuildingBlock: KAKCAD_clean_linker_0, # of connection points: 3
#     Node 6, Type 1, BuildingBlock: KAKCAD_clean_linker_0, # of connection points: 3
#     Node 7, Type 1, BuildingBlock: KAKCAD_clean_linker_0, # of connection points: 3
#     Node 8, Type 1, BuildingBlock: KAKCAD_clean_linker_0, # of connection points: 3
#     Edge 9, Type (0, 1), BuildingBlock: UVAHIK_clean_linker_0, # of connection points: 2
#     Edge 10, Type (0, 1), BuildingBlock: UVAHIK_clean_linker_0, # of connection points: 2
#     Edge 11, Type (0, 1), BuildingBlock: UVAHIK_clean_linker_0, # of connection points: 2
#     Edge 12, Type (0, 1), BuildingBlock: UVAHIK_clean_linker_0, # of connection points: 2
#     Edge 13, Type (0, 1), BuildingBlock: UVAHIK_clean_linker_0, # of connection points: 2
#     Edge 14, Type (0, 1), BuildingBlock: UVAHIK_clean_linker_0, # of connection points: 2
#     Edge 15, Type (0, 1), BuildingBlock: UVAHIK_clean_linker_0, # of connection points: 2
#     Edge 16, Type (0, 1), BuildingBlock: UVAHIK_clean_linker_0, # of connection points: 2
#     Edge 17, Type (0, 1), BuildingBlock: UVAHIK_clean_linker_0, # of connection points: 2
#     Edge 18, Type (0, 1), BuildingBlock: UVAHIK_clean_linker_0, # of connection points: 2
#     Edge 19, Type (0, 1), BuildingBlock: UVAHIK_clean_linker_0, # of connection points: 2
#     Edge 20, Type (0, 1), BuildingBlock: UVAHIK_clean_linker_0, # of connection points: 2
#     Edge 21, Type (0, 1), BuildingBlock: UVAHIK_clean_linker_0, # of connection points: 2
#     Edge 22, Type (0, 1), BuildingBlock: UVAHIK_clean_linker_0, # of connection points: 2
#     Edge 23, Type (0, 1), BuildingBlock: UVAHIK_clean_linker_0, # of connection points: 2
#     Edge 24, Type (0, 1), BuildingBlock: UVAHIK_clean_linker_0, # of connection points: 2
#     Edge 25, Type (0, 1), BuildingBlock: UVAHIK_clean_linker_0, # of connection points: 2
#     Edge 26, Type (0, 1), BuildingBlock: UVAHIK_clean_linker_0, # of connection points: 2
# Relax obj value: 0.200
# Max RMSD: 0.183
# Mean RMSD: 0.149
data_MOF--net-anh--node1-PAMTUU_clean_sbu_0--node2-KAKCAD_clean_linker_0--edge1-UVAHIK_clean_linker_0
_symmetry_space_group_name_H-M    P1
_symmetry_Int_Tables_number       1
_symmetry_cell_setting            triclinic
loop_
_symmetry_equiv_pos_as_xyz
'x, y, z'
_cell_length_a     46.301977
_cell_length_b     46.312239
_cell_length_c     81.913314
_cell_angle_alpha  93.698961
_cell_angle_beta   90.694814
_cell_angle_gamma 120.00247
loop_
_atom_site_label
_atom_site_type_symbol
_atom_site_fract_x
_atom_site_fract_y
_atom_site_fract_z
_atom_type_partial_charge
Tb0 Tb 0.0657 0.58554 0.16093 0.0
Tb1 Tb 0.10535 0.54527 0.1605 0.0
C2 C 0.08477 0.56335 0.12817 0.0
C3 C 0.99626 0.59674 0.169 0.0
C4 C 0.92947 0.55414 0.17631 0.0
C5 C 0.93731 0.57736 0.16446 0.0
C6 C 0.97052 0.59844 0.16079 0.0
C7 C 0.98856 0.57526 0.18165 0.0
C8 C 0.95549 0.5542 0.18528 0.0
C9 C 1.02957 0.61161 0.16234 0.0
O10 O 1.02506 0.53224 0.15797 0.0
O11 O 0.0538 0.50632 0.16531 0.0
O12 O 0.11199 0.56781 0.18532 0.0
O13 O 0.0627 0.56724 0.18487 0.0
O14 O 0.13964 0.53405 0.14947 0.0
O15 O 0.1137 0.50948 0.17061 0.0
O16 O 0.14583 0.59812 0.1596 0.0
O17 O 0.11796 0.62625 0.16658 0.0
O18 O 0.08549 0.58866 0.13669 0.0
O19 O 0.08392 0.53881 0.13571 0.0
C20 C 1.02514 0.50522 0.16231 0.0
O21 O 0.05436 0.61989 0.17289 0.0
O22 O 1.0311 0.59503 0.14919 0.0
C23 C 0.08767 0.56829 0.19304 0.0
C24 C 0.16949 0.52247 0.16934 0.0
C25 C 0.2293 0.53513 0.18548 0.0
C26 C 0.19861 0.50736 0.18885 0.0
C27 C 0.16905 0.501 0.18078 0.0
C28 C 0.19994 0.55085 0.16633 0.0
C29 C 0.22956 0.55704 0.17428 0.0
C30 C 0.13789 0.51514 0.16101 0.0
C31 C 0.1462 0.62641 0.16391 0.0
H32 H 0.91772 0.57763 0.15723 0.0
H33 H 0.9759 0.61443 0.15083 0.0
H34 H 1.00792 0.57316 0.18806 0.0
H35 H 0.9502 0.53683 0.19459 0.0
H36 H 0.19746 0.49024 0.19756 0.0
H37 H 0.1458 0.47915 0.18342 0.0
H38 H 0.20104 0.56807 0.15768 0.0
H39 H 0.25278 0.57834 0.17117 0.0
Tb40 Tb 0.5448 1.02798 0.49229 0.0
Tb41 Tb 0.62401 0.06552 0.49767 0.0
C42 C 0.58951 0.05175 0.46201 0.0
C43 C 0.45943 0.97549 0.50325 0.0
C44 C 0.4166 0.9334 0.526 0.0
C45 C 0.40359 0.93923 0.51172 0.0
C46 C 0.42489 0.96017 0.50045 0.0
C47 C 0.47262 0.97044 0.51761 0.0
C48 C 0.45136 0.94955 0.52891 0.0
C49 C 0.48193 0.99672 0.49128 0.0
O50 O 0.55618 0.98841 0.49881 0.0
O51 O 0.61114 1.01277 0.49255 0.0
O52 O 0.60412 0.04202 0.52018 0.0
O53 O 0.55633 0.04396 0.51809 0.0
O54 O 0.67235 0.08382 0.48912 0.0
O55 O 0.66474 0.09177 0.51457 0.0
O56 O 0.61055 0.10493 0.50304 0.0
O57 O 0.56032 0.08078 0.48867 0.0
O58 O 0.56109 1.02934 0.46749 0.0
O59 O 0.61524 0.07174 0.47208 0.0
C60 C 0.58314 0.98598 0.49612 0.0
O61 O 0.50025 1.02809 0.49645 0.0
O62 O 0.49948 0.98537 0.48394 0.0
C63 C 0.57844 0.04143 0.52693 0.0
C64 C 0.7062 0.13742 0.50285 0.0
C65 C 0.73148 0.20679 0.50769 0.0
C66 C 0.74163 0.1906 0.5184 0.0
C67 C 0.72907 0.15616 0.51598 0.0
C68 C 0.69732 0.15379 0.49169 0.0
C69 C 0.71002 0.18816 0.49402 0.0
C70 C 0.68604 0.101 0.5031 0.0
C71 C 0.58576 0.1075 0.49647 0.0
H72 H 0.37692 0.9266 0.50893 0.0
H73 H 0.4144 0.9639 0.48942 0.0
H74 H 0.49937 0.9823 0.51996 0.0
H75 H 0.46211 0.94567 0.53979 0.0
H76 H 0.758 0.20421 0.52908 0.0
H77 H 0.73558 0.14384 0.52493 0.0
H78 H 0.67916 0.1398 0.48164 0.0
H79 H 0.70234 0.19999 0.48533 0.0
Tb80 Tb 0.57917 0.5308 0.82591 0.0
Tb81 Tb 0.62041 0.61067 0.83034 0.0
C82 C 0.59947 0.57243 0.79543 0.0
C83 C 0.55156 0.44396 0.83392 0.0
C84 C 0.56082 0.39971 0.85243 0.0
C85 C 0.58506 0.41962 0.84167 0.0
C86 C 0.58057 0.44167 0.83256 0.0
C87 C 0.52757 0.42445 0.8448 0.0
C88 C 0.53224 0.40274 0.85405 0.0
C89 C 0.5468 0.46805 0.82507 0.0
O90 O 0.63161 0.5417 0.82429 0.0
O91 O 0.65971 0.5972 0.83375 0.0
O92 O 0.5992 0.59265 0.85367 0.0
O93 O 0.60199 0.54529 0.85043 0.0
O94 O 0.63305 0.65765 0.82251 0.0
O95 O 0.65635 0.6534 0.84454 0.0
O96 O 0.56801 0.59985 0.82744 0.0
O97 O 0.54074 0.54441 0.83222 0.0
O98 O 0.5751 0.54716 0.80212 0.0
O99 O 0.62401 0.59694 0.80465 0.0
C100 C 0.65975 0.56915 0.82954 0.0
O101 O 0.53982 0.48748 0.8343 0.0
O102 O 0.56845 0.48444 0.81428 0.0
C103 C 0.60073 0.56821 0.86 0.0
C104 C 0.6425 0.69541 0.84533 0.0
C105 C 0.62505 0.73718 0.86391 0.0
C106 C 0.65881 0.74628 0.86258 0.0
C107 C 0.66744 0.72553 0.85333 0.0
C108 C 0.60884 0.68565 0.84713 0.0
C109 C 0.60019 0.70639 0.85622 0.0
C110 C 0.65143 0.6733 0.83588 0.0
C111 C 0.54024 0.57235 0.83054 0.0
H112 H 0.60706 0.41748 0.83986 0.0
H113 H 0.59974 0.45674 0.82443 0.0
H114 H 0.50523 0.42618 0.84623 0.0
H115 H 0.51328 0.38807 0.86236 0.0
H116 H 0.67854 0.76965 0.86848 0.0
H117 H 0.69355 0.73306 0.85234 0.0
H118 H 0.58915 0.66219 0.84128 0.0
H119 H 0.57399 0.69878 0.85666 0.0
C120 C 0.60975 0.1014 0.27775 0.0
C121 C 0.60005 0.07155 0.28524 0.0
C122 C 0.60882 0.10162 0.26059 0.0
C123 C 0.59831 0.07202 0.25041 0.0
C124 C 0.58928 0.04235 0.25796 0.0
C125 C 0.59003 0.0421 0.27507 0.0
C126 C 0.59603 0.07175 0.23205 0.0
C127 C 0.62024 0.09837 0.22378 0.0
C128 C 0.61874 0.09889 0.20654 0.0
C129 C 0.59146 0.07019 0.19741 0.0
C130 C 0.56646 0.04242 0.20562 0.0
C131 C 0.56946 0.04455 0.22286 0.0
C132 C 0.53686 1.01 0.19748 0.0
C133 C 0.51172 1.00928 0.1872 0.0
C134 C 0.53026 0.97883 0.2027 0.0
C135 C 0.49982 0.94883 0.19858 0.0
C136 C 0.47391 0.94782 0.18876 0.0
C137 C 0.64646 0.13029 0.19926 0.0
C138 C 0.65713 0.16238 0.20717 0.0
C139 C 0.66572 0.12919 0.18622 0.0
C140 C 0.69486 0.15865 0.18179 0.0
C141 C 0.70615 0.19069 0.19016 0.0
C142 C 0.68602 0.19152 0.20284 0.0
C143 C 0.48103 0.97892 0.18291 0.0
H144 H 0.6173 0.12452 0.28514 0.0
H145 H 0.6156 0.12491 0.25533 0.0
H146 H 0.58177 1.01917 0.25063 0.0
H147 H 0.58301 1.01876 0.28033 0.0
H148 H 0.64111 0.11884 0.23093 0.0
H149 H 0.5503 1.02462 0.22932 0.0
H150 H 0.58972 0.06948 0.18418 0.0
H151 H 0.51509 0.03245 0.18305 0.0
H152 H 0.54844 0.9778 0.21073 0.0
H153 H 0.49643 0.92658 0.20383 0.0
H154 H 0.64344 0.16499 0.21724 0.0
H155 H 0.65906 0.10534 0.1798 0.0
H156 H 0.46273 0.98016 0.17512 0.0
H157 H 0.693 0.21468 0.21003 0.0
H158 H 0.70862 0.15605 0.17178 0.0
C159 C 0.56785 0.56669 0.60835 0.0
C160 C 0.59195 0.56317 0.61727 0.0
C161 C 0.5668 0.5648 0.59114 0.0
C162 C 0.58952 0.55885 0.58236 0.0
C163 C 0.61354 0.55523 0.59128 0.0
C164 C 0.61488 0.55758 0.60848 0.0
C165 C 0.58807 0.55621 0.56399 0.0
C166 C 0.58484 0.57973 0.55531 0.0
C167 C 0.58369 0.57834 0.53803 0.0
C168 C 0.58573 0.55127 0.52931 0.0
C169 C 0.5889 0.52666 0.53798 0.0
C170 C 0.59001 0.53018 0.55525 0.0
C171 C 0.59155 0.49687 0.53025 0.0
C172 C 0.56695 0.47155 0.51915 0.0
C173 C 0.61623 0.49037 0.53648 0.0
C174 C 0.61586 0.45998 0.53239 0.0
C175 C 0.59079 0.43396 0.52171 0.0
C176 C 0.58018 0.606 0.53031 0.0
C177 C 0.55603 0.61403 0.53591 0.0
C178 C 0.60374 0.62844 0.5199 0.0
C179 C 0.60366 0.65796 0.51579 0.0
C180 C 0.57996 0.66648 0.52185 0.0
C181 C 0.55588 0.64324 0.53183 0.0
C182 C 0.56657 0.44087 0.51498 0.0
H183 H 0.54995 0.57127 0.61468 0.0
H184 H 0.54784 0.56752 0.58469 0.0
H185 H 0.63158 0.55086 0.58495 0.0
H186 H 0.63361 0.55448 0.61491 0.0
H187 H 0.58399 0.60005 0.56221 0.0
H188 H 0.59174 0.51179 0.56211 0.0
H189 H 0.5849 0.54942 0.51605 0.0
H190 H 0.54705 0.47478 0.5142 0.0
H191 H 0.63556 0.50863 0.54517 0.0
H192 H 0.63491 0.45666 0.53826 0.0
H193 H 0.53756 0.59804 0.5441 0.0
H194 H 0.62323 0.624 0.51547 0.0
H195 H 0.54686 0.4224 0.50655 0.0
H196 H 0.5373 0.64807 0.53715 0.0
H197 H 0.62259 0.6743 0.50792 0.0
C198 C 0.125 0.58831 0.94328 0.0
C199 C 0.09627 0.56453 0.95062 0.0
C200 C 0.12608 0.58883 0.92616 0.0
C201 C 0.09828 0.56589 0.91591 0.0
C202 C 0.06953 0.54217 0.92325 0.0
C203 C 0.06862 0.54136 0.94034 0.0
C204 C 0.09912 0.5669 0.89765 0.0
C205 C 0.12677 0.56985 0.88941 0.0
C206 C 0.12872 0.57111 0.87224 0.0
C207 C 0.10054 0.56887 0.86317 0.0
C208 C 0.07171 0.56565 0.8714 0.0
C209 C 0.07221 0.56494 0.88859 0.0
C210 C 1.03994 0.56253 0.86329 0.0
C211 C 1.04019 0.58646 0.85333 0.0
C212 C 1.00822 0.53818 0.86816 0.0
C213 C 0.97857 0.5384 0.864 0.0
C214 C 0.97851 0.56284 0.85449 0.0
C215 C 0.16098 0.57487 0.86503 0.0
C216 C 0.19227 0.59676 0.87337 0.0
C217 C 0.16136 0.55398 0.85173 0.0
C218 C 0.19133 0.55406 0.84756 0.0
C219 C 0.22219 0.57476 0.8566 0.0
C220 C 0.22183 0.59656 0.86937 0.0
C221 C 1.01022 0.58658 0.849 0.0
H222 H 0.14686 0.60637 0.95077 0.0
H223 H 0.14854 0.60757 0.92096 0.0
H224 H 0.04775 0.52398 0.91574 0.0
H225 H 1.04599 0.52286 0.94554 0.0
H226 H 0.14692 0.57042 0.89658 0.0
H227 H 0.05139 0.56345 0.89517 0.0
H228 H 0.10102 0.56959 0.84999 0.0
H229 H 0.06376 0.60606 0.84943 0.0
H230 H 1.00638 0.5193 0.87591 0.0
H231 H 0.95579 0.51975 0.86894 0.0
H232 H 0.19385 0.61375 0.88352 0.0
H233 H 0.13819 0.53643 0.84499 0.0
H234 H 1.01222 0.60576 0.84146 0.0
H235 H 0.24464 0.61366 0.87649 0.0
H236 H 0.18996 0.53681 0.8376 0.0
C237 C 1.03282 0.57204 0.37395 0.0
C238 C 0.06352 0.57842 0.3678 0.0
C239 C 1.02982 0.5767 0.39071 0.0
C240 C 0.05732 0.58744 0.40182 0.0
C241 C 0.08784 0.59305 0.39572 0.0
C242 C 0.09094 0.58874 0.37891 0.0
C243 C 0.05416 0.59325 0.41963 0.0
C244 C 1.02452 0.5719 0.42722 0.0
C245 C 1.02112 0.57763 0.44394 0.0
C246 C 0.04732 0.60526 0.45294 0.0
C247 C 0.07739 0.62595 0.44585 0.0
C248 C 0.08075 0.62003 0.42917 0.0
C249 C 0.10575 0.65136 0.45665 0.0
C250 C 0.10059 0.67138 0.46852 0.0
C251 C 0.13616 0.65157 0.4571 0.0
C252 C 0.16004 0.66971 0.46987 0.0
C253 C 0.15387 0.6879 0.4824 0.0
C254 C 0.99137 0.55411 0.45254 0.0
C255 C 0.95894 0.53968 0.44532 0.0
C256 C 0.9955 0.54664 0.46846 0.0
C257 C 0.96803 0.52607 0.47713 0.0
C258 C 0.93557 0.51137 0.46996 0.0
C259 C 0.93126 0.51839 0.45394 0.0
C260 C 0.12431 0.68932 0.4813 0.0
H261 H 1.01098 0.56346 0.36581 0.0
H262 H 1.00602 0.57243 0.39491 0.0
H263 H 0.10941 0.60077 0.40392 0.0
H264 H 0.11504 0.59416 0.37463 0.0
H265 H 1.00459 0.55016 0.42027 0.0
H266 H 0.10389 0.63657 0.42367 0.0
H267 H 1.04483 0.60998 0.46583 0.0
H268 H 0.07736 0.67172 0.46839 0.0
H269 H 0.14063 0.63615 0.44816 0.0
H270 H 0.18296 0.6688 0.47016 0.0
H271 H 0.95493 0.54508 0.4331 0.0
H272 H 1.02011 0.55663 0.47431 0.0
H273 H 0.11869 0.70301 0.49074 0.0
H274 H 0.90661 0.50709 0.44796 0.0
H275 H 0.97238 0.52172 0.48952 0.0
C276 C 0.49073 0.96622 0.70389 0.0
C277 C 0.50815 0.99654 0.69657 0.0
C278 C 0.48584 0.96623 0.72073 0.0
C279 C 0.49875 0.9966 0.73055 0.0
C280 C 0.51684 1.02683 0.72312 0.0
C281 C 0.52117 1.02678 0.70633 0.0
C282 C 0.49423 0.99713 0.74852 0.0
C283 C 0.49642 0.97378 0.75794 0.0
C284 C 0.49603 0.97694 0.77507 0.0
C285 C 0.49244 1.0027 0.78276 0.0
C286 C 0.49088 1.02642 0.77369 0.0
C287 C 0.49098 1.02314 0.75658 0.0
C288 C 0.49586 0.05752 0.78251 0.0
C289 C 0.47822 0.05615 0.79654 0.0
C290 C 0.5228 0.08833 0.7788 0.0
C291 C 0.53343 0.11677 0.78954 0.0
C292 C 0.51715 0.11501 0.80414 0.0
C293 C 0.50462 0.95725 0.78545 0.0
C294 C 0.48391 0.92255 0.78566 0.0
C295 C 0.53239 0.9743 0.79656 0.0
C296 C 0.53874 0.95728 0.80813 0.0
C297 C 0.51754 0.92272 0.80883 0.0
C298 C 0.49027 0.90536 0.79735 0.0
C299 C 0.4887 0.08468 0.80724 0.0
H300 H 0.48043 0.94259 0.69654 0.0
H301 H 0.47165 0.9425 0.726 0.0
H302 H 0.52821 0.05072 0.73029 0.0
H303 H 0.53522 0.05048 0.70098 0.0
H304 H 0.50078 0.9547 0.75214 0.0
H305 H 0.4897 0.04165 0.74965 0.0
H306 H 0.49365 1.00582 0.79604 0.0
H307 H 0.45732 0.03264 0.79962 0.0
H308 H 0.5372 0.08993 0.76822 0.0
H309 H 0.55556 0.13966 0.78683 0.0
H310 H 0.46228 0.90907 0.77721 0.0
H311 H 0.54867 1.00113 0.79658 0.0
H312 H 0.47512 0.08272 0.81817 0.0
H313 H 0.47377 0.87863 0.7975 0.0
H314 H 0.55971 0.97145 0.81689 0.0
C315 C 0.55681 0.46769 0.03314 0.0
C316 C 0.5645 0.50009 0.02976 0.0
C317 C 0.55358 0.45872 0.04925 0.0
C318 C 0.55761 0.48185 0.0623 0.0
C319 C 0.5654 0.51428 0.05894 0.0
C320 C 0.56899 0.52337 0.04283 0.0
C321 C 0.55335 0.47207 0.07936 0.0
C322 C 0.56885 0.45506 0.08533 0.0
C323 C 0.56542 0.44641 0.10161 0.0
C324 C 0.54553 0.45414 0.11169 0.0
C325 C 0.53023 0.47141 0.10604 0.0
C326 C 0.53423 0.4803 0.08983 0.0
C327 C 0.5115 0.48128 0.11752 0.0
C328 C 0.49173 0.45948 0.12908 0.0
C329 C 0.51509 0.51329 0.1178 0.0
C330 C 0.49977 0.52346 0.12962 0.0
C331 C 0.48079 0.50195 0.14149 0.0
C332 C 0.58411 0.43135 0.10866 0.0
C333 C 0.58864 0.4072 0.09955 0.0
C334 C 0.59788 0.44154 0.12482 0.0
C335 C 0.61523 0.42773 0.13178 0.0
C336 C 0.61997 0.40384 0.12271 0.0
C337 C 0.6067 0.39375 0.10649 0.0
C338 C 0.47689 0.46979 0.14101 0.0
H339 H 0.55354 0.44935 0.0233 0.0
H340 H 0.54741 0.43351 0.0515 0.0
H341 H 0.56894 0.5327 0.06878 0.0
H342 H 0.57476 0.54845 0.04057 0.0
H343 H 0.58467 0.44988 0.07749 0.0
H344 H 0.52205 0.49318 0.08525 0.0
H345 H 0.54268 0.44744 0.12423 0.0
H346 H 0.48801 0.43445 0.12907 0.0
H347 H 0.53041 0.53081 0.10917 0.0
H348 H 0.50278 0.54817 0.12941 0.0
H349 H 0.57823 0.39869 0.08711 0.0
H350 H 0.59601 0.46089 0.13205 0.0
H351 H 0.46276 0.45262 0.15002 0.0
H352 H 0.61047 0.37566 0.09919 0.0
H353 H 0.62617 0.43685 0.14411 0.0
C354 C 0.28894 0.57142 0.19626 0.0
C355 C 0.26121 0.53939 0.19224 0.0
C356 C 0.32049 0.5754 0.19955 0.0
C357 C 0.38117 0.57366 0.18739 0.0
H358 H 0.39459 0.5038 0.20306 0.0
C359 C 0.43268 0.48943 0.15911 0.0
C360 C 0.46446 0.51257 0.15412 0.0
C361 C 0.41658 0.49936 0.17046 0.0
C362 C 0.39155 0.5239 0.19888 0.0
H363 H 0.24451 0.48631 0.18976 0.0
H364 H 0.29893 0.49314 0.19547 0.0
H365 H 0.34857 0.51056 0.21289 0.0
H366 H 0.50475 0.5642 0.15773 0.0
H367 H 0.47566 0.58185 0.17711 0.0
H368 H 0.42272 0.58549 0.17254 0.0
C369 C 0.29653 0.51528 0.19632 0.0
C370 C 0.36524 0.52775 0.20448 0.0
C371 C 0.26515 0.51133 0.19297 0.0
C372 C 0.48003 0.54585 0.16106 0.0
C373 C 0.46361 0.55591 0.17229 0.0
C374 C 0.40762 0.56995 0.18188 0.0
C375 C 0.32479 0.54739 0.19895 0.0
C376 C 0.35844 0.55116 0.19792 0.0
C377 C 0.43161 0.53277 0.17697 0.0
C378 C 0.41163 0.54363 0.18677 0.0
H379 H 0.28655 0.59351 0.19617 0.0
H380 H 0.34176 0.60043 0.20174 0.0
H381 H 0.37664 0.59192 0.18205 0.0
H382 H 0.41956 0.4638 0.15381 0.0
H383 H 0.39153 0.48115 0.17351 0.0
C384 C 0.72088 0.25489 0.50764 0.0
C385 C 0.74277 0.24284 0.51078 0.0
C386 C 0.7324 0.28919 0.509 0.0
C387 C 0.80538 0.37191 0.52303 0.0
H388 H 0.79266 0.397 0.48041 0.0
C389 C 0.91032 0.46587 0.48897 0.0
C390 C 0.90678 0.48769 0.47907 0.0
C391 C 0.88362 0.44312 0.4974 0.0
C392 C 0.79574 0.39079 0.4926 0.0
H393 H 0.7934 0.25726 0.51869 0.0
H394 H 0.81347 0.31688 0.52105 0.0
H395 H 0.75518 0.34072 0.48806 0.0
H396 H 0.87224 0.50293 0.47049 0.0
H397 H 0.82469 0.46154 0.48476 0.0
H398 H 0.8478 0.4212 0.52692 0.0
C399 C 0.78729 0.29987 0.51774 0.0
C400 C 0.77427 0.35849 0.497 0.0
C401 C 0.77584 0.26565 0.51629 0.0
C402 C 0.8757 0.48622 0.47787 0.0
C403 C 0.84864 0.46289 0.48616 0.0
C404 C 0.82682 0.40418 0.51864 0.0
C405 C 0.76595 0.31203 0.51366 0.0
C406 C 0.78039 0.34815 0.51177 0.0
C407 C 0.85243 0.4411 0.49596 0.0
C408 C 0.82354 0.41304 0.50292 0.0
H409 H 0.69502 0.23784 0.50374 0.0
H410 H 0.7154 0.2979 0.50588 0.0
H411 H 0.81016 0.36472 0.53464 0.0
H412 H 0.9335 0.46552 0.48985 0.0
H413 H 0.88701 0.4259 0.50443 0.0
C414 C 0.58542 0.74952 0.87941 0.0
C415 C 0.61554 0.76108 0.87141 0.0
C416 C 0.57181 0.77024 0.88224 0.0
C417 C 0.5864 0.85599 0.87735 0.0
H418 H 0.5037 0.80803 0.85064 0.0
C419 C 0.55686 0.91353 0.82585 0.0
C420 C 0.52398 0.90543 0.82176 0.0
C421 C 0.56349 0.89859 0.83845 0.0
C422 C 0.52619 0.8218 0.85852 0.0
H423 H 0.65698 0.80475 0.86206 0.0
H424 H 0.63367 0.84071 0.86717 0.0
H425 H 0.52538 0.777 0.86395 0.0
H426 H 0.47222 0.87551 0.82779 0.0
H427 H 0.48383 0.84856 0.8497 0.0
H428 H 0.58834 0.9009 0.87082 0.0
C429 C 0.62037 0.8157 0.87123 0.0
C430 C 0.53863 0.80398 0.86622 0.0
C431 C 0.63379 0.79494 0.86826 0.0
C432 C 0.49777 0.88189 0.83054 0.0
C433 C 0.50443 0.86675 0.84316 0.0
C434 C 0.57391 0.87382 0.86967 0.0
C435 C 0.58832 0.80294 0.8773 0.0
C436 C 0.56995 0.82097 0.87479 0.0
C437 C 0.5374 0.87503 0.84724 0.0
C438 C 0.54485 0.85687 0.85931 0.0
H439 H 0.57123 0.72378 0.88244 0.0
H440 H 0.54729 0.75995 0.88717 0.0
H441 H 0.61031 0.86967 0.88412 0.0
H442 H 0.57753 0.93114 0.81914 0.0
H443 H 0.58906 0.90473 0.84093 0.0
C444 C 0.86849 0.53468 0.1776 0.0
C445 C 0.89449 0.52743 0.17785 0.0
C446 C 0.83529 0.50883 0.17654 0.0
C447 C 0.78608 0.42388 0.15843 0.0
H448 H 0.71402 0.43364 0.17625 0.0
C449 C 0.67066 0.39827 0.12174 0.0
C450 C 0.64222 0.39316 0.12988 0.0
C451 C 0.69738 0.39931 0.13039 0.0
C452 C 0.73356 0.42971 0.17142 0.0
H453 H 0.90618 0.48751 0.17799 0.0
H454 H 0.84805 0.4424 0.1762 0.0
H455 H 0.77023 0.46788 0.18845 0.0
H456 H 0.61707 0.38021 0.15264 0.0
H457 H 0.66358 0.38152 0.16774 0.0
H458 H 0.74964 0.38696 0.14082 0.0
C459 C 0.85343 0.46804 0.17678 0.0
C460 C 0.76589 0.4497 0.17832 0.0
C461 C 0.88665 0.4939 0.17793 0.0
C462 C 0.63906 0.38472 0.14619 0.0
C463 C 0.66569 0.38558 0.15482 0.0
C464 C 0.75369 0.40388 0.15149 0.0
C465 C 0.82745 0.47522 0.17563 0.0
C466 C 0.79269 0.44825 0.17134 0.0
C467 C 0.69593 0.39514 0.14729 0.0
C468 C 0.72742 0.40789 0.15737 0.0
H469 H 0.87383 0.56028 0.17765 0.0
H470 H 0.81582 0.51519 0.17548 0.0
H471 H 0.80625 0.42214 0.15279 0.0
H472 H 0.67373 0.40491 0.10918 0.0
H473 H 0.72031 0.40684 0.12419 0.0
C474 C 0.40078 0.88352 0.54182 0.0
C475 C 0.39375 0.90786 0.53672 0.0
C476 C 0.37558 0.85428 0.54777 0.0
C477 C 0.28304 0.80821 0.55364 0.0
H478 H 0.28631 0.74455 0.5217 0.0
C479 C 0.18434 0.73612 0.50356 0.0
C480 C 0.17767 0.70463 0.49679 0.0
C481 C 0.2075 0.75242 0.51673 0.0
C482 C 0.28487 0.76134 0.53107 0.0
H483 H 0.35673 0.9234 0.53643 0.0
H484 H 0.31256 0.87221 0.54599 0.0
H485 H 0.33765 0.79243 0.53273 0.0
H486 H 0.18863 0.66463 0.4992 0.0
H487 H 0.23017 0.69384 0.52191 0.0
H488 H 0.22978 0.7784 0.55046 0.0
C489 C 0.33729 0.87525 0.54556 0.0
C490 C 0.31453 0.78899 0.53751 0.0
C491 C 0.36252 0.90454 0.53977 0.0
C492 C 0.19382 0.68925 0.50389 0.0
C493 C 0.21724 0.70572 0.51702 0.0
C494 C 0.25331 0.78063 0.54706 0.0
C495 C 0.34288 0.84876 0.54847 0.0
C496 C 0.31385 0.81417 0.5478 0.0
C497 C 0.22473 0.73774 0.52337 0.0
C498 C 0.25408 0.75843 0.53478 0.0
H499 H 0.42477 0.88551 0.5398 0.0
H500 H 0.38095 0.83474 0.55033 0.0
H501 H 0.28171 0.82658 0.56198 0.0
H502 H 0.17263 0.74883 0.4983 0.0
H503 H 0.21332 0.77744 0.52106 0.0
C504 C 0.53547 0.3414 0.86082 0.0
C505 C 0.56369 0.37337 0.86046 0.0
C506 C 0.53891 0.31446 0.86474 0.0
C507 C 0.5994 0.28998 0.85604 0.0
H508 H 0.52492 0.20492 0.8663 0.0
C509 C 0.54413 0.17669 0.81128 0.0
C510 C 0.53079 0.14429 0.8164 0.0
C511 C 0.55737 0.2043 0.82274 0.0
C512 C 0.54649 0.22841 0.86373 0.0
H513 H 0.61708 0.40301 0.86615 0.0
H514 H 0.62319 0.35553 0.87268 0.0
H515 H 0.53154 0.25672 0.87951 0.0
H516 H 0.52178 0.11555 0.83759 0.0
H517 H 0.54399 0.16405 0.85769 0.0
H518 H 0.6131 0.26176 0.83949 0.0
C519 C 0.59846 0.35135 0.86972 0.0
C520 C 0.55019 0.2581 0.87124 0.0
C521 C 0.59498 0.37845 0.86584 0.0
C522 C 0.53128 0.14017 0.83326 0.0
C523 C 0.54431 0.16787 0.84477 0.0
C524 C 0.59579 0.26035 0.84862 0.0
C525 C 0.57069 0.31878 0.86828 0.0
C526 C 0.57507 0.28915 0.86642 0.0
C527 C 0.55743 0.20019 0.83959 0.0
C528 C 0.56786 0.22951 0.85146 0.0
H529 H 0.511 0.33644 0.85667 0.0
H530 H 0.51696 0.28975 0.86331 0.0
H531 H 0.61903 0.31338 0.8521 0.0
H532 H 0.5437 0.18073 0.79843 0.0
H533 H 0.56644 0.22884 0.81839 0.0
C534 C 0.6115 0.95006 0.49654 0.0
C535 C 0.58256 0.95286 0.49813 0.0
C536 C 0.61128 0.91973 0.49881 0.0
C537 C 0.55883 0.83304 0.51533 0.0
H538 H 0.62272 0.81457 0.49406 0.0
C539 C 0.55117 0.70183 0.51855 0.0
C540 C 0.58045 0.69925 0.51829 0.0
C541 C 0.55159 0.73211 0.51597 0.0
C542 C 0.60477 0.8191 0.50034 0.0
H543 H 0.53034 0.92407 0.50343 0.0
H544 H 0.52966 0.87178 0.50701 0.0
H545 H 0.62289 0.86625 0.48988 0.0
H546 H 0.63357 0.72902 0.51483 0.0
H547 H 0.63424 0.78093 0.51027 0.0
H548 H 0.54061 0.78578 0.52571 0.0
C549 C 0.55307 0.89322 0.50428 0.0
C550 C 0.60487 0.84934 0.49792 0.0
C551 C 0.55334 0.9236 0.50205 0.0
C552 C 0.61013 0.72885 0.51501 0.0
C553 C 0.61053 0.75918 0.51237 0.0
C554 C 0.55865 0.80277 0.5177 0.0
C555 C 0.58207 0.89032 0.50277 0.0
C556 C 0.58191 0.8573 0.50534 0.0
C557 C 0.58128 0.76179 0.51288 0.0
C558 C 0.58161 0.79484 0.51029 0.0
H559 H 0.63475 0.97161 0.49367 0.0
H560 H 0.63454 0.91976 0.4977 0.0
H561 H 0.54093 0.83752 0.52169 0.0
H562 H 0.52735 0.68016 0.52057 0.0
H563 H 0.52813 0.73191 0.51618 0.0
C564 C 0.69565 0.54106 0.8251 0.0
C565 C 0.6925 0.56846 0.83139 0.0
C566 C 0.72605 0.54061 0.82702 0.0
C567 C 0.81933 0.59639 0.84167 0.0
H568 H 0.81814 0.51223 0.83694 0.0
C569 C 0.94589 0.59303 0.84696 0.0
C570 C 0.94589 0.56362 0.85083 0.0
C571 C 0.91579 0.59372 0.8442 0.0
C572 C 0.81955 0.53625 0.83859 0.0
H573 H 0.72037 0.61685 0.84504 0.0
H574 H 0.77192 0.61575 0.84888 0.0
H575 H 0.7666 0.51299 0.83378 0.0
H576 H 0.91142 0.51121 0.85409 0.0
H577 H 0.86058 0.51281 0.85028 0.0
H578 H 0.87207 0.61949 0.84722 0.0
C579 C 0.75146 0.59464 0.84191 0.0
C580 C 0.78926 0.53674 0.83643 0.0
C581 C 0.72124 0.59524 0.83979 0.0
C582 C 0.91382 0.53492 0.85158 0.0
C583 C 0.88382 0.53569 0.84902 0.0
C584 C 0.84957 0.59586 0.84403 0.0
C585 C 0.75496 0.56736 0.83556 0.0
C586 C 0.78809 0.56682 0.83788 0.0
C587 C 0.88371 0.56509 0.84526 0.0
C588 C 0.85073 0.56577 0.84257 0.0
H589 H 0.67455 0.51979 0.81851 0.0
H590 H 0.72665 0.51908 0.82153 0.0
H591 H 0.8209 0.62052 0.84273 0.0
H592 H 0.96929 0.61609 0.84628 0.0
H593 H 0.91805 0.61708 0.84111 0.0
C594 C 0.2096 0.66222 0.16045 0.0
C595 C 0.1796 0.65951 0.16599 0.0
C596 C 0.24053 0.69286 0.1624 0.0
C597 C 0.27939 0.78744 0.17573 0.0
H598 H 0.36189 0.78603 0.17263 0.0
C599 C 0.41002 0.91446 0.18088 0.0
C600 C 0.44001 0.9149 0.18517 0.0
C601 C 0.37883 0.88411 0.17819 0.0
C602 C 0.33948 0.78756 0.17383 0.0
H603 H 0.16014 0.68847 0.17831 0.0
H604 H 0.21318 0.74066 0.18226 0.0
H605 H 0.30932 0.73424 0.16963 0.0
H606 H 0.45847 0.8809 0.18927 0.0
H607 H 0.40553 0.8298 0.18565 0.0
H608 H 0.30969 0.84067 0.18074 0.0
C609 C 0.21321 0.71953 0.17587 0.0
C610 C 0.30845 0.75706 0.17174 0.0
C611 C 0.1822 0.68899 0.17368 0.0
C612 C 0.43679 0.88301 0.18642 0.0
C613 C 0.40566 0.8528 0.18396 0.0
C614 C 0.31046 0.81792 0.17805 0.0
C615 C 0.24344 0.72255 0.17025 0.0
C616 C 0.27733 0.75593 0.17259 0.0
C617 C 0.37558 0.85225 0.17977 0.0
C618 C 0.34158 0.81903 0.17716 0.0
H619 H 0.20922 0.64054 0.15439 0.0
H620 H 0.26212 0.693 0.15745 0.0
H621 H 0.25692 0.78902 0.17632 0.0
H622 H 0.41023 0.93771 0.17981 0.0
H623 H 0.35727 0.886 0.17476 0.0
C624 C 0.6147 0.17087 0.50501 0.0
C625 C 0.58629 0.14107 0.49835 0.0
C626 C 0.61502 0.20179 0.50713 0.0
C627 C 0.56494 0.24513 0.49636 0.0
H628 H 0.62757 0.31444 0.52828 0.0
C629 C 0.55999 0.36971 0.51349 0.0
C630 C 0.5899 0.40015 0.51811 0.0
C631 C 0.55929 0.33862 0.51081 0.0
C632 C 0.60998 0.29575 0.51912 0.0
H633 H 0.53564 0.12193 0.48881 0.0
H634 H 0.53577 0.17468 0.49273 0.0
H635 H 0.62685 0.26162 0.52446 0.0
H636 H 0.64305 0.41965 0.52272 0.0
H637 H 0.64164 0.36659 0.51843 0.0
H638 H 0.54779 0.2794 0.49131 0.0
C639 C 0.55846 0.17477 0.49609 0.0
C640 C 0.60958 0.26482 0.51684 0.0
C641 C 0.55824 0.14389 0.49388 0.0
C642 C 0.61906 0.39752 0.51967 0.0
C643 C 0.6183 0.36648 0.51713 0.0
C644 C 0.56517 0.276 0.49875 0.0
C645 C 0.58687 0.20477 0.50281 0.0
C646 C 0.58713 0.23849 0.50534 0.0
C647 C 0.5884 0.33605 0.5127 0.0
C648 C 0.58778 0.30229 0.51017 0.0
H649 H 0.63706 0.17046 0.50861 0.0
H650 H 0.63786 0.22352 0.51206 0.0
H651 H 0.54743 0.22667 0.48713 0.0
H652 H 0.53662 0.36953 0.51224 0.0
H653 H 0.53547 0.31632 0.5076 0.0
C654 C 0.50376 0.60014 0.82883 0.0
C655 C 0.50746 0.57276 0.83269 0.0
C656 C 0.47325 0.60016 0.83091 0.0
C657 C 0.39206 0.55848 0.85318 0.0
H658 H 0.36112 0.59873 0.82256 0.0
C659 C 0.27683 0.57744 0.8663 0.0
C660 C 0.25437 0.57353 0.8533 0.0
C661 C 0.30681 0.57693 0.86354 0.0
C662 C 0.36905 0.58717 0.83128 0.0
H663 H 0.48039 0.52389 0.84208 0.0
H664 H 0.42823 0.52415 0.8459 0.0
H665 H 0.4136 0.59898 0.81841 0.0
H666 H 0.24764 0.56606 0.82685 0.0
H667 H 0.29973 0.56566 0.82204 0.0
H668 H 0.34775 0.54687 0.86613 0.0
C669 C 0.44891 0.54583 0.84118 0.0
C670 C 0.39971 0.5876 0.82896 0.0
C671 C 0.47917 0.54559 0.83886 0.0
C672 C 0.26364 0.56904 0.83733 0.0
C673 C 0.29403 0.5691 0.83454 0.0
C674 C 0.36174 0.55854 0.85565 0.0
C675 C 0.44501 0.57307 0.83724 0.0
C676 C 0.41201 0.57312 0.8398 0.0
C677 C 0.31641 0.57295 0.8476 0.0
C678 C 0.34929 0.5728 0.84476 0.0
H679 H 0.52453 0.62174 0.8241 0.0
H680 H 0.47206 0.62192 0.8278 0.0
H681 H 0.4001 0.54723 0.86202 0.0
H682 H 0.27111 0.58059 0.87884 0.0
H683 H 0.32285 0.58027 0.87407 0.0
C684 C 0.99152 0.44482 0.17074 0.0
C685 C 0.99209 0.47276 0.16436 0.0
C686 C 0.96115 0.41496 0.17309 0.0
C687 C 0.86541 0.37754 0.17309 0.0
H688 H 0.8658 0.29481 0.17644 0.0
C689 C 0.74331 0.25525 0.19003 0.0
C690 C 0.73854 0.22279 0.18615 0.0
C691 C 0.77342 0.28485 0.1871 0.0
C692 C 0.86456 0.31732 0.17539 0.0
H693 H 0.95931 0.48973 0.15551 0.0
H694 H 0.90712 0.43816 0.15895 0.0
H695 H 0.91707 0.34537 0.17152 0.0
H696 H 0.76414 0.19812 0.17561 0.0
H697 H 0.81518 0.24872 0.16996 0.0
H698 H 0.81265 0.34923 0.17625 0.0
C699 C 0.93015 0.43917 0.16259 0.0
C700 C 0.8948 0.34718 0.17278 0.0
C701 C 0.96059 0.4692 0.1604 0.0
C702 C 0.7657 0.2219 0.17882 0.0
C703 C 0.7958 0.25158 0.17576 0.0
C704 C 0.83512 0.34765 0.17555 0.0
C705 C 0.92942 0.41106 0.16905 0.0
C706 C 0.89629 0.37835 0.17163 0.0
C707 C 0.80073 0.28406 0.1799 0.0
C708 C 0.8337 0.31656 0.17688 0.0
H709 H 1.01478 0.44604 0.17418 0.0
H710 H 0.96292 0.39511 0.1784 0.0
H711 H 0.86434 0.40021 0.17253 0.0
H712 H 0.7236 0.25822 0.19534 0.0
H713 H 0.77516 0.30851 0.19082 0.0
C714 C 0.09298 0.59166 0.10196 0.0
C715 C 0.08539 0.56282 0.10991 0.0
C716 C 0.09403 0.59148 0.08484 0.0
C717 C 0.09845 0.54243 0.0475 0.0
H718 H 0.073 0.59789 0.02482 0.0
C719 C 0.0814 0.53367 0.97635 0.0
C720 C 0.09505 0.56403 0.96888 0.0
C721 C 0.08027 0.53323 0.99347 0.0
C722 C 0.08045 0.58244 0.03096 0.0
H723 H 0.07252 0.51096 0.10589 0.0
H724 H 0.07322 0.51023 0.07611 0.0
H725 H 0.07015 0.59714 0.05447 0.0
H726 H 0.11781 0.61775 0.97372 0.0
H727 H 0.11557 0.61696 0.00351 0.0
H728 H 0.10796 0.52723 0.0238 0.0
C729 C 0.0793 0.5334 0.08307 0.0
C730 C 0.07896 0.58208 0.04805 0.0
C731 C 0.07865 0.53371 0.10023 0.0
C732 C 0.10737 0.59393 0.97902 0.0
C733 C 0.10582 0.59345 0.99612 0.0
C734 C 0.09954 0.5425 0.03037 0.0
C735 C 0.0871 0.56233 0.07506 0.0
C736 C 0.08812 0.56221 0.05667 0.0
C737 C 0.09231 0.56311 0.0036 0.0
C738 C 0.09073 0.56265 0.02186 0.0
H739 H 0.09859 0.61465 0.10898 0.0
H740 H 0.10082 0.61453 0.07933 0.0
H741 H 0.10633 0.52723 0.05354 0.0
H742 H 0.0719 0.51019 0.96896 0.0
H743 H 0.06949 0.50939 0.99877 0.0
C744 C 0.62027 0.08104 0.43738 0.0
C745 C 0.59204 0.05488 0.44394 0.0
C746 C 0.62196 0.08403 0.42039 0.0
C747 C 0.56774 0.05516 0.38162 0.0
H748 H 0.65145 0.08562 0.36049 0.0
C749 C 0.57367 0.04416 0.31095 0.0
C750 C 0.59985 0.07087 0.30355 0.0
C751 C 0.5733 0.04332 0.32804 0.0
C752 C 0.6279 0.0774 0.36619 0.0
H753 H 0.54365 1.01099 0.43748 0.0
H754 H 0.54685 1.01575 0.40813 0.0
H755 H 0.64993 0.08203 0.3901 0.0
H756 H 0.64643 0.1176 0.30858 0.0
H757 H 0.64573 0.11621 0.33838 0.0
H758 H 0.54565 0.05013 0.3577 0.0
C759 C 0.56748 0.03454 0.41605 0.0
C760 C 0.62702 0.07538 0.38325 0.0
C761 C 0.56574 0.03165 0.43299 0.0
C762 C 0.62571 0.09674 0.3138 0.0
C763 C 0.62548 0.09577 0.33091 0.0
C764 C 0.5686 0.057 0.36459 0.0
C765 C 0.5955 0.06088 0.40944 0.0
C766 C 0.59686 0.06401 0.39125 0.0
C767 C 0.5992 0.06908 0.3383 0.0
C768 C 0.59864 0.06797 0.35659 0.0
H769 H 0.64099 0.0995 0.44539 0.0
H770 H 0.64383 0.10489 0.41588 0.0
H771 H 0.54413 0.04703 0.38725 0.0
H772 H 0.55312 1.02394 0.30354 0.0
H773 H 0.55281 1.02217 0.33321 0.0
C774 C 0.57009 0.55063 0.76752 0.0
C775 C 0.59916 0.57282 0.77719 0.0
C776 C 0.56961 0.55038 0.75039 0.0
C777 C 0.61715 0.60024 0.71571 0.0
H778 H 0.56136 0.51619 0.68994 0.0
C779 C 0.62361 0.58319 0.64486 0.0
C780 C 0.59303 0.56507 0.63563 0.0
C781 C 0.62461 0.58482 0.66206 0.0
C782 C 0.57688 0.53995 0.69693 0.0
H783 H 0.65067 0.61217 0.7762 0.0
H784 H 0.65026 0.61108 0.74637 0.0
H785 H 0.56316 0.51762 0.7197 0.0
H786 H 0.53954 0.53416 0.63744 0.0
H787 H 0.54131 0.53672 0.66738 0.0
H788 H 0.63141 0.62224 0.69275 0.0
C789 C 0.62742 0.59432 0.752 0.0
C790 C 0.57785 0.54086 0.7141 0.0
C791 C 0.62776 0.59485 0.76919 0.0
C792 C 0.56351 0.54855 0.64411 0.0
C793 C 0.56455 0.54979 0.6613 0.0
C794 C 0.61647 0.59922 0.69851 0.0
C795 C 0.59833 0.572 0.74227 0.0
C796 C 0.59783 0.57106 0.72383 0.0
C797 C 0.59511 0.56797 0.67053 0.0
C798 C 0.59618 0.56909 0.68888 0.0
H799 H 0.54745 0.53348 0.7732 0.0
H800 H 0.54643 0.53333 0.74353 0.0
H801 H 0.63244 0.62414 0.7226 0.0
H802 H 0.64682 0.59644 0.63878 0.0
H803 H 0.6486 0.59887 0.66873 0.0
C804 C 0.58969 1.02373 0.55345 0.0
C805 C 0.57336 0.03682 0.54453 0.0
C806 C 0.58348 1.01819 0.56997 0.0
C807 C 0.55689 0.04677 0.60607 0.0
H808 H 0.52805 0.9595 0.62158 0.0
C809 C 0.50462 1.01655 0.66952 0.0
C810 C 0.51307 0.99718 0.67878 0.0
C811 C 0.51182 1.01979 0.65304 0.0
C812 C 0.53656 0.98416 0.61753 0.0
H813 H 0.53804 0.05465 0.54589 0.0
H814 H 0.52793 0.04572 0.57475 0.0
H815 H 0.54299 0.96924 0.59311 0.0
H816 H 0.53501 0.96543 0.67817 0.0
H817 H 0.54864 0.9718 0.64938 0.0
H818 H 0.55132 0.0622 0.63036 0.0
C819 C 0.54532 0.03959 0.56896 0.0
C820 C 0.54503 0.98966 0.60123 0.0
C821 C 0.55106 0.04459 0.55245 0.0
C822 C 0.52808 0.98033 0.67119 0.0
C823 C 0.53579 0.98396 0.65471 0.0
C824 C 0.54891 0.04146 0.62237 0.0
C825 C 0.56136 1.02624 0.57786 0.0
C826 C 0.55477 1.02088 0.59533 0.0
C827 C 0.52822 1.0042 0.6455 0.0
C828 C 0.53807 1.00993 0.62827 0.0
H829 H 0.60681 1.01729 0.54762 0.0
H830 H 0.5962 1.00795 0.57663 0.0
H831 H 0.56477 0.07121 0.60184 0.0
H832 H 0.49264 1.02945 0.67509 0.0
H833 H 0.50471 0.03476 0.64624 0.0
C834 C 0.58933 0.58337 0.88822 0.0
C835 C 0.5996 0.5652 0.87785 0.0
C836 C 0.58604 0.5783 0.90493 0.0
C837 C 0.57492 0.51508 0.93351 0.0
H838 H 0.59745 0.58696 0.96711 0.0
C839 C 0.54364 0.48781 1.00039 0.0
C840 C 0.56759 0.50941 0.01263 0.0
C841 C 0.54684 0.49608 0.98417 0.0
C842 C 0.59128 0.56664 0.95789 0.0
H843 H 0.61603 0.52873 0.87696 0.0
H844 H 0.61124 0.52064 0.90598 0.0
H845 H 0.60616 0.59936 0.93848 0.0
H846 H 0.61357 0.55671 0.01756 0.0
H847 H 0.61967 0.57089 0.98913 0.0
H848 H 0.56118 0.48253 0.95282 0.0
C849 C 0.60467 0.538 0.90123 0.0
C850 C 0.59589 0.5737 0.94145 0.0
C851 C 0.60763 0.54281 0.88458 0.0
C852 C 0.5946 0.53971 0.00837 0.0
C853 C 0.598 0.54787 0.99209 0.0
C854 C 0.57052 0.50808 0.94989 0.0
C855 C 0.59321 0.55516 0.91157 0.0
C856 C 0.58792 0.54799 0.92907 0.0
C857 C 0.57429 0.526 0.97976 0.0
C858 C 0.57864 0.53374 0.96231 0.0
H859 H 0.58291 0.60077 0.88336 0.0
H860 H 0.57694 0.59178 0.91252 0.0
H861 H 0.56794 0.49454 0.9243 0.0
H862 H 0.52225 0.46456 0.00339 0.0
H863 H 0.52772 0.47899 0.97507 0.0
C864 C 0.06415 0.57444 0.21939 0.0
C865 C 0.0873 0.56856 0.21108 0.0
C866 C 0.06259 0.57357 0.23634 0.0
C867 C 0.11013 0.57833 0.27399 0.0
H868 H 1.02277 0.54103 0.29217 0.0
C869 C 0.08722 0.5628 0.34345 0.0
C870 C 0.067 0.57513 0.34983 0.0
C871 C 0.09044 0.56001 0.32654 0.0
C872 C 0.04733 0.55158 0.28726 0.0
H873 H 0.12723 0.55742 0.21406 0.0
H874 H 0.1241 0.55529 0.24377 0.0
H875 H 1.02718 0.53945 0.26257 0.0
H876 H 1.03506 0.59497 0.34334 0.0
H877 H 1.03999 0.58919 0.31395 0.0
H878 H 0.13008 0.59022 0.29885 0.0
C879 C 0.10746 0.56105 0.23715 0.0
C880 C 0.0499 0.55083 0.27031 0.0
C881 C 0.10919 0.56217 0.22013 0.0
C882 C 0.05018 0.58461 0.33889 0.0
C883 C 0.05309 0.58145 0.32204 0.0
C884 C 0.1075 0.57879 0.291 0.0
C885 C 0.08392 0.56647 0.24543 0.0
C886 C 0.08135 0.56486 0.26346 0.0
C887 C 0.0732 0.5691 0.31569 0.0
C888 C 0.07609 0.56602 0.29776 0.0
H889 H 0.04716 0.5798 0.21281 0.0
H890 H 1.04472 0.5787 0.24233 0.0
H891 H 0.13474 0.58956 0.26914 0.0
H892 H 0.10021 0.55487 0.35148 0.0
H893 H 0.10594 0.55022 0.32193 0.0
loop_
_geom_bond_atom_site_label_1
_geom_bond_atom_site_label_2
_geom_bond_distance
_geom_bond_site_symmetry_2
_ccdc_geom_bond_type
Tb0 C9 2.764 1_455 S
Tb0 O10 2.325 1_455 S
Tb0 O13 2.303 . S
Tb0 O17 2.322 . S
Tb0 O18 2.349 . S
Tb0 O21 2.415 1_455 S
Tb0 O22 2.399 1_455 S
Tb1 O11 2.322 . S
Tb1 O12 2.349 . S
Tb1 O14 2.415 . S
Tb1 O15 2.399 . S
Tb1 O16 2.325 . S
Tb1 O19 2.303 . S
Tb1 C30 2.764 . S
C2 O18 1.261 . S
C2 O19 1.257 . S
C3 C6 1.358 . S
C3 C7 1.332 . S
C3 C9 1.504 . S
C4 C5 1.373 . S
C4 C8 1.308 . S
C5 C4 1.373 . S
C5 C6 1.429 . S
C5 H32 0.932 . S
C6 C3 1.358 . S
C6 C5 1.429 . S
C6 H33 0.930 . S
C7 C3 1.332 . S
C7 C8 1.394 . S
C7 H34 0.932 . S
C8 C4 1.308 . S
C8 C7 1.394 . S
C8 H35 0.929 . S
C9 Tb0 2.764 1_655 S
C9 C3 1.504 . S
C9 O21 1.239 . S
C9 O22 1.263 . S
O10 Tb0 2.325 1_655 S
O10 C20 1.236 . S
O11 Tb1 2.322 . S
O11 C20 1.257 1_455 S
O12 Tb1 2.349 . S
O12 C23 1.261 . S
O13 Tb0 2.303 . S
O13 C23 1.257 . S
O14 Tb1 2.415 . S
O14 C30 1.239 . S
O15 Tb1 2.399 . S
O15 C30 1.263 . S
O16 Tb1 2.325 . S
O16 C31 1.236 . S
O17 Tb0 2.322 . S
O17 C31 1.257 . S
O18 Tb0 2.349 . S
O18 C2 1.261 . S
O19 Tb1 2.303 . S
O19 C2 1.257 . S
C20 O10 1.236 . S
C20 O11 1.257 1_655 S
O21 Tb0 2.415 1_655 S
O21 C9 1.239 . S
O22 Tb0 2.399 1_655 S
O22 C9 1.263 . S
C23 O12 1.261 . S
C23 O13 1.257 . S
C24 C27 1.358 . S
C24 C28 1.332 . S
C24 C30 1.504 . S
C25 C26 1.373 . S
C25 C29 1.308 . S
C26 C25 1.373 . S
C26 C27 1.429 . S
C26 H36 0.932 . S
C27 C24 1.358 . S
C27 C26 1.429 . S
C27 H37 0.930 . S
C28 C24 1.332 . S
C28 C29 1.394 . S
C28 H38 0.932 . S
C29 C25 1.308 . S
C29 C28 1.394 . S
C29 H39 0.929 . S
C30 Tb1 2.764 . S
C30 O14 1.239 . S
C30 O15 1.263 . S
C30 C24 1.504 . S
C31 O16 1.236 . S
C31 O17 1.257 . S
H32 C5 0.932 . S
H33 C6 0.930 . S
H34 C7 0.932 . S
H35 C8 0.929 . S
H36 C26 0.932 . S
H37 C27 0.930 . S
H38 C28 0.932 . S
H39 C29 0.929 . S
Tb40 C49 2.764 1_545 S
Tb40 O50 2.325 1_545 S
Tb40 O53 2.303 . S
Tb40 O57 2.322 . S
Tb40 O58 2.349 . S
Tb40 O61 2.415 1_545 S
Tb40 O62 2.399 1_545 S
Tb41 O51 2.322 1_545 S
Tb41 O52 2.349 . S
Tb41 O54 2.415 . S
Tb41 O55 2.399 . S
Tb41 O56 2.325 . S
Tb41 O59 2.303 . S
Tb41 C70 2.764 . S
C42 O58 1.261 . S
C42 O59 1.257 . S
C43 C46 1.358 . S
C43 C47 1.332 . S
C43 C49 1.504 . S
C44 C45 1.373 . S
C44 C48 1.308 . S
C45 C44 1.373 . S
C45 C46 1.429 . S
C45 H72 0.932 . S
C46 C43 1.358 . S
C46 C45 1.429 . S
C46 H73 0.930 . S
C47 C43 1.332 . S
C47 C48 1.394 . S
C47 H74 0.932 . S
C48 C44 1.308 . S
C48 C47 1.394 . S
C48 H75 0.929 . S
C49 Tb40 2.764 1_565 S
C49 C43 1.504 . S
C49 O61 1.239 . S
C49 O62 1.263 . S
O50 Tb40 2.325 1_565 S
O50 C60 1.236 . S
O51 Tb41 2.322 1_565 S
O51 C60 1.257 . S
O52 Tb41 2.349 . S
O52 C63 1.261 . S
O53 Tb40 2.303 . S
O53 C63 1.257 . S
O54 Tb41 2.415 . S
O54 C70 1.239 . S
O55 Tb41 2.399 . S
O55 C70 1.263 . S
O56 Tb41 2.325 . S
O56 C71 1.236 . S
O57 Tb40 2.322 . S
O57 C71 1.257 . S
O58 Tb40 2.349 . S
O58 C42 1.261 . S
O59 Tb41 2.303 . S
O59 C42 1.257 . S
C60 O50 1.236 . S
C60 O51 1.257 . S
O61 Tb40 2.415 1_565 S
O61 C49 1.239 . S
O62 Tb40 2.399 1_565 S
O62 C49 1.263 . S
C63 O52 1.261 . S
C63 O53 1.257 . S
C64 C67 1.358 . S
C64 C68 1.332 . S
C64 C70 1.504 . S
C65 C66 1.373 . S
C65 C69 1.308 . S
C66 C65 1.373 . S
C66 C67 1.429 . S
C66 H76 0.932 . S
C67 C64 1.358 . S
C67 C66 1.429 . S
C67 H77 0.930 . S
C68 C64 1.332 . S
C68 C69 1.394 . S
C68 H78 0.932 . S
C69 C65 1.308 . S
C69 C68 1.394 . S
C69 H79 0.929 . S
C70 Tb41 2.764 . S
C70 O54 1.239 . S
C70 O55 1.263 . S
C70 C64 1.504 . S
C71 O56 1.236 . S
C71 O57 1.257 . S
H72 C45 0.932 . S
H73 C46 0.930 . S
H74 C47 0.932 . S
H75 C48 0.929 . S
H76 C66 0.932 . S
H77 C67 0.930 . S
H78 C68 0.932 . S
H79 C69 0.929 . S
Tb80 C89 2.764 . S
Tb80 O90 2.325 . S
Tb80 O93 2.303 . S
Tb80 O97 2.322 . S
Tb80 O98 2.349 . S
Tb80 O101 2.415 . S
Tb80 O102 2.399 . S
Tb81 O91 2.322 . S
Tb81 O92 2.349 . S
Tb81 O94 2.415 . S
Tb81 O95 2.399 . S
Tb81 O96 2.325 . S
Tb81 O99 2.303 . S
Tb81 C110 2.764 . S
C82 O98 1.261 . S
C82 O99 1.257 . S
C83 C86 1.358 . S
C83 C87 1.332 . S
C83 C89 1.504 . S
C84 C85 1.373 . S
C84 C88 1.308 . S
C85 C84 1.373 . S
C85 C86 1.429 . S
C85 H112 0.932 . S
C86 C83 1.358 . S
C86 C85 1.429 . S
C86 H113 0.930 . S
C87 C83 1.332 . S
C87 C88 1.394 . S
C87 H114 0.932 . S
C88 C84 1.308 . S
C88 C87 1.394 . S
C88 H115 0.929 . S
C89 Tb80 2.764 . S
C89 C83 1.504 . S
C89 O101 1.239 . S
C89 O102 1.263 . S
O90 Tb80 2.325 . S
O90 C100 1.236 . S
O91 Tb81 2.322 . S
O91 C100 1.257 . S
O92 Tb81 2.349 . S
O92 C103 1.261 . S
O93 Tb80 2.303 . S
O93 C103 1.257 . S
O94 Tb81 2.415 . S
O94 C110 1.239 . S
O95 Tb81 2.399 . S
O95 C110 1.263 . S
O96 Tb81 2.325 . S
O96 C111 1.236 . S
O97 Tb80 2.322 . S
O97 C111 1.257 . S
O98 Tb80 2.349 . S
O98 C82 1.261 . S
O99 Tb81 2.303 . S
O99 C82 1.257 . S
C100 O90 1.236 . S
C100 O91 1.257 . S
O101 Tb80 2.415 . S
O101 C89 1.239 . S
O102 Tb80 2.399 . S
O102 C89 1.263 . S
C103 O92 1.261 . S
C103 O93 1.257 . S
C104 C107 1.358 . S
C104 C108 1.332 . S
C104 C110 1.504 . S
C105 C106 1.373 . S
C105 C109 1.308 . S
C106 C105 1.373 . S
C106 C107 1.429 . S
C106 H116 0.932 . S
C107 C104 1.358 . S
C107 C106 1.429 . S
C107 H117 0.930 . S
C108 C104 1.332 . S
C108 C109 1.394 . S
C108 H118 0.932 . S
C109 C105 1.308 . S
C109 C108 1.394 . S
C109 H119 0.929 . S
C110 Tb81 2.764 . S
C110 O94 1.239 . S
C110 O95 1.263 . S
C110 C104 1.504 . S
C111 O96 1.236 . S
C111 O97 1.257 . S
H112 C85 0.932 . S
H113 C86 0.930 . S
H114 C87 0.932 . S
H115 C88 0.929 . S
H116 C106 0.932 . S
H117 C107 0.930 . S
H118 C108 0.932 . S
H119 C109 0.929 . S
C120 C121 1.386 . S
C120 C122 1.397 . S
C120 H144 0.931 . S
C121 C120 1.386 . S
C121 C125 1.397 . S
C122 C120 1.397 . S
C122 C123 1.384 . S
C122 H145 0.930 . S
C123 C122 1.384 . S
C123 C124 1.377 . S
C123 C126 1.481 . S
C124 C123 1.377 . S
C124 C125 1.389 . S
C124 H146 0.929 1_545 S
C125 C121 1.397 . S
C125 C124 1.389 . S
C125 H147 0.931 1_545 S
C126 C123 1.481 . S
C126 C127 1.387 . S
C126 C131 1.390 . S
C127 C126 1.387 . S
C127 C128 1.401 . S
C127 H148 0.930 . S
C128 C127 1.401 . S
C128 C129 1.376 . S
C128 C137 1.511 . S
C129 C128 1.376 . S
C129 C130 1.400 . S
C129 H150 0.931 . S
C130 C129 1.400 . S
C130 C131 1.362 . S
C130 C132 1.492 1_545 S
C131 C126 1.390 . S
C131 C130 1.362 . S
C131 H149 0.931 1_545 S
C132 C130 1.492 1_565 S
C132 C133 1.371 . S
C132 C134 1.365 . S
C133 C132 1.371 . S
C133 C143 1.386 . S
C133 H151 0.931 . S
C134 C132 1.365 . S
C134 C135 1.409 . S
C134 H152 0.929 . S
C135 C134 1.409 . S
C135 C136 1.380 . S
C135 H153 0.930 . S
C136 C135 1.380 . S
C136 C143 1.357 . S
C137 C128 1.511 . S
C137 C138 1.341 . S
C137 C139 1.371 . S
C138 C137 1.341 . S
C138 C142 1.394 . S
C138 H154 0.930 . S
C139 C137 1.371 . S
C139 C140 1.392 . S
C139 H155 0.931 . S
C140 C139 1.392 . S
C140 C141 1.331 . S
C140 H158 0.932 . S
C141 C140 1.331 . S
C141 C142 1.336 . S
C142 C138 1.394 . S
C142 C141 1.336 . S
C142 H157 0.929 . S
C143 C133 1.386 . S
C143 C136 1.357 . S
C143 H156 0.928 . S
H144 C120 0.931 . S
H145 C122 0.930 . S
H146 C124 0.929 1_565 S
H147 C125 0.931 1_565 S
H148 C127 0.930 . S
H149 C131 0.931 1_565 S
H150 C129 0.931 . S
H151 C133 0.931 . S
H152 C134 0.929 . S
H153 C135 0.930 . S
H154 C138 0.930 . S
H155 C139 0.931 . S
H156 C143 0.928 . S
H157 C142 0.929 . S
H158 C140 0.932 . S
C159 C160 1.386 . S
C159 C161 1.397 . S
C159 H183 0.931 . S
C160 C159 1.386 . S
C160 C164 1.397 . S
C161 C159 1.397 . S
C161 C162 1.384 . S
C161 H184 0.930 . S
C162 C161 1.384 . S
C162 C163 1.377 . S
C162 C165 1.481 . S
C163 C162 1.377 . S
C163 C164 1.389 . S
C163 H185 0.929 . S
C164 C160 1.397 . S
C164 C163 1.389 . S
C164 H186 0.931 . S
C165 C162 1.481 . S
C165 C166 1.387 . S
C165 C170 1.390 . S
C166 C165 1.387 . S
C166 C167 1.401 . S
C166 H187 0.930 . S
C167 C166 1.401 . S
C167 C168 1.376 . S
C167 C176 1.511 . S
C168 C167 1.376 . S
C168 C169 1.392 . S
C168 H189 0.931 . S
C169 C168 1.392 . S
C169 C170 1.361 . S
C169 C171 1.500 . S
C170 C165 1.390 . S
C170 C169 1.361 . S
C170 H188 0.931 . S
C171 C169 1.500 . S
C171 C172 1.371 . S
C171 C173 1.365 . S
C172 C171 1.371 . S
C172 C182 1.386 . S
C172 H190 0.931 . S
C173 C171 1.365 . S
C173 C174 1.409 . S
C173 H191 0.929 . S
C174 C173 1.409 . S
C174 C175 1.380 . S
C174 H192 0.930 . S
C175 C174 1.380 . S
C175 C182 1.357 . S
C176 C167 1.511 . S
C176 C177 1.341 . S
C176 C178 1.371 . S
C177 C176 1.341 . S
C177 C181 1.394 . S
C177 H193 0.930 . S
C178 C176 1.371 . S
C178 C179 1.392 . S
C178 H194 0.931 . S
C179 C178 1.392 . S
C179 C180 1.331 . S
C179 H197 0.932 . S
C180 C179 1.331 . S
C180 C181 1.336 . S
C181 C177 1.394 . S
C181 C180 1.336 . S
C181 H196 0.929 . S
C182 C172 1.386 . S
C182 C175 1.357 . S
C182 H195 0.928 . S
H183 C159 0.931 . S
H184 C161 0.930 . S
H185 C163 0.929 . S
H186 C164 0.931 . S
H187 C166 0.930 . S
H188 C170 0.931 . S
H189 C168 0.931 . S
H190 C172 0.931 . S
H191 C173 0.929 . S
H192 C174 0.930 . S
H193 C177 0.930 . S
H194 C178 0.931 . S
H195 C182 0.928 . S
H196 C181 0.929 . S
H197 C179 0.932 . S
C198 C199 1.386 . S
C198 C200 1.397 . S
C198 H222 0.931 . S
C199 C198 1.386 . S
C199 C203 1.397 . S
C200 C198 1.397 . S
C200 C201 1.384 . S
C200 H223 0.930 . S
C201 C200 1.384 . S
C201 C202 1.377 . S
C201 C204 1.481 . S
C202 C201 1.377 . S
C202 C203 1.389 . S
C202 H224 0.929 . S
C203 C199 1.397 . S
C203 C202 1.389 . S
C203 H225 0.931 . S
C204 C201 1.481 . S
C204 C205 1.387 . S
C204 C209 1.390 . S
C205 C204 1.387 . S
C205 C206 1.401 . S
C205 H226 0.930 . S
C206 C205 1.401 . S
C206 C207 1.376 . S
C206 C215 1.511 . S
C207 C206 1.376 . S
C207 C208 1.392 . S
C207 H228 0.931 . S
C208 C207 1.392 . S
C208 C209 1.361 . S
C208 C210 1.500 . S
C209 C204 1.390 . S
C209 C208 1.361 . S
C209 H227 0.931 . S
C210 C208 1.500 . S
C210 C211 1.371 . S
C210 C212 1.365 1_455 S
C211 C210 1.371 . S
C211 C221 1.386 1_455 S
C211 H229 0.931 . S
C212 C210 1.365 1_655 S
C212 C213 1.409 . S
C212 H230 0.929 . S
C213 C212 1.409 . S
C213 C214 1.380 . S
C213 H231 0.930 . S
C214 C213 1.380 . S
C214 C221 1.357 . S
C215 C206 1.511 . S
C215 C216 1.341 . S
C215 C217 1.371 . S
C216 C215 1.341 . S
C216 C220 1.394 . S
C216 H232 0.930 . S
C217 C215 1.371 . S
C217 C218 1.392 . S
C217 H233 0.931 . S
C218 C217 1.392 . S
C218 C219 1.331 . S
C218 H236 0.932 . S
C219 C218 1.331 . S
C219 C220 1.336 . S
C220 C216 1.394 . S
C220 C219 1.336 . S
C220 H235 0.929 . S
C221 C211 1.386 1_655 S
C221 C214 1.357 . S
C221 H234 0.928 . S
H222 C198 0.931 . S
H223 C200 0.930 . S
H224 C202 0.929 . S
H225 C203 0.931 . S
H226 C205 0.930 . S
H227 C209 0.931 . S
H228 C207 0.931 . S
H229 C211 0.931 . S
H230 C212 0.929 . S
H231 C213 0.930 . S
H232 C216 0.930 . S
H233 C217 0.931 . S
H234 C221 0.928 . S
H235 C220 0.929 . S
H236 C218 0.932 . S
C237 C238 1.386 . S
C237 C239 1.397 . S
C237 H261 0.931 . S
C238 C237 1.386 . S
C238 C242 1.397 1_655 S
C239 C237 1.397 . S
C239 C240 1.384 . S
C239 H262 0.930 . S
C240 C239 1.384 . S
C240 C241 1.377 1_655 S
C240 C243 1.481 . S
C241 C240 1.377 1_455 S
C241 C242 1.389 . S
C241 H263 0.929 . S
C242 C238 1.397 1_455 S
C242 C241 1.389 . S
C242 H264 0.931 . S
C243 C240 1.481 . S
C243 C244 1.387 . S
C243 C248 1.390 1_655 S
C244 C243 1.387 . S
C244 C245 1.401 . S
C244 H265 0.930 . S
C245 C244 1.401 . S
C245 C246 1.378 1_655 S
C245 C254 1.511 . S
C246 C245 1.378 1_455 S
C246 C247 1.391 . S
C246 H267 0.932 . S
C247 C246 1.391 . S
C247 C248 1.361 . S
C247 C249 1.500 . S
C248 C243 1.390 1_455 S
C248 C247 1.361 . S
C248 H266 0.931 . S
C249 C247 1.500 . S
C249 C250 1.371 . S
C249 C251 1.365 . S
C250 C249 1.371 . S
C250 C260 1.386 . S
C250 H268 0.931 . S
C251 C249 1.365 . S
C251 C252 1.409 . S
C251 H269 0.929 . S
C252 C251 1.409 . S
C252 C253 1.380 . S
C252 H270 0.930 . S
C253 C252 1.380 . S
C253 C260 1.357 . S
C254 C245 1.511 . S
C254 C255 1.341 . S
C254 C256 1.371 . S
C255 C254 1.341 . S
C255 C259 1.394 . S
C255 H271 0.930 . S
C256 C254 1.371 . S
C256 C257 1.392 . S
C256 H272 0.931 . S
C257 C256 1.392 . S
C257 C258 1.331 . S
C257 H275 0.932 . S
C258 C257 1.331 . S
C258 C259 1.336 . S
C259 C255 1.394 . S
C259 C258 1.336 . S
C259 H274 0.929 . S
C260 C250 1.386 . S
C260 C253 1.357 . S
C260 H273 0.928 . S
H261 C237 0.931 . S
H262 C239 0.930 . S
H263 C241 0.929 . S
H264 C242 0.931 . S
H265 C244 0.930 . S
H266 C248 0.931 . S
H267 C246 0.932 . S
H268 C250 0.931 . S
H269 C251 0.929 . S
H270 C252 0.930 . S
H271 C255 0.930 . S
H272 C256 0.931 . S
H273 C260 0.928 . S
H274 C259 0.929 . S
H275 C257 0.932 . S
C276 C277 1.386 . S
C276 C278 1.397 . S
C276 H300 0.931 . S
C277 C276 1.386 . S
C277 C281 1.397 1_565 S
C278 C276 1.397 . S
C278 C279 1.384 . S
C278 H301 0.930 . S
C279 C278 1.384 . S
C279 C280 1.377 1_565 S
C279 C282 1.480 . S
C280 C279 1.377 1_545 S
C280 C281 1.389 . S
C280 H302 0.929 . S
C281 C277 1.397 1_545 S
C281 C280 1.389 . S
C281 H303 0.931 . S
C282 C279 1.480 . S
C282 C283 1.401 . S
C282 C287 1.377 1_565 S
C283 C282 1.401 . S
C283 C284 1.401 . S
C283 H304 0.930 . S
C284 C283 1.401 . S
C284 C285 1.376 1_565 S
C284 C293 1.511 . S
C285 C284 1.376 1_545 S
C285 C286 1.392 . S
C285 H306 0.931 . S
C286 C285 1.392 . S
C286 C287 1.361 . S
C286 C288 1.500 . S
C287 C282 1.377 1_545 S
C287 C286 1.361 . S
C287 H305 0.931 . S
C288 C286 1.500 . S
C288 C289 1.371 . S
C288 C290 1.365 . S
C289 C288 1.371 . S
C289 C299 1.386 . S
C289 H307 0.931 . S
C290 C288 1.365 . S
C290 C291 1.409 . S
C290 H308 0.929 . S
C291 C290 1.409 . S
C291 C292 1.380 . S
C291 H309 0.930 . S
C292 C291 1.380 . S
C292 C299 1.357 . S
C293 C284 1.511 . S
C293 C294 1.341 . S
C293 C295 1.371 . S
C294 C293 1.341 . S
C294 C298 1.394 . S
C294 H310 0.930 . S
C295 C293 1.371 . S
C295 C296 1.392 . S
C295 H311 0.931 . S
C296 C295 1.392 . S
C296 C297 1.331 . S
C296 H314 0.932 . S
C297 C296 1.331 . S
C297 C298 1.336 . S
C298 C294 1.394 . S
C298 C297 1.336 . S
C298 H313 0.929 . S
C299 C289 1.386 . S
C299 C292 1.357 . S
C299 H312 0.928 . S
H300 C276 0.931 . S
H301 C278 0.930 . S
H302 C280 0.929 . S
H303 C281 0.931 . S
H304 C283 0.930 . S
H305 C287 0.931 . S
H306 C285 0.931 . S
H307 C289 0.931 . S
H308 C290 0.929 . S
H309 C291 0.930 . S
H310 C294 0.930 . S
H311 C295 0.931 . S
H312 C299 0.928 . S
H313 C298 0.929 . S
H314 C296 0.932 . S
C315 C316 1.386 . S
C315 C317 1.397 . S
C315 H339 0.931 . S
C316 C315 1.386 . S
C316 C320 1.397 . S
C317 C315 1.397 . S
C317 C318 1.384 . S
C317 H340 0.930 . S
C318 C317 1.384 . S
C318 C319 1.377 . S
C318 C321 1.481 . S
C319 C318 1.377 . S
C319 C320 1.389 . S
C319 H341 0.929 . S
C320 C316 1.397 . S
C320 C319 1.389 . S
C320 H342 0.931 . S
C321 C318 1.481 . S
C321 C322 1.387 . S
C321 C326 1.390 . S
C322 C321 1.387 . S
C322 C323 1.401 . S
C322 H343 0.930 . S
C323 C322 1.401 . S
C323 C324 1.376 . S
C323 C332 1.511 . S
C324 C323 1.376 . S
C324 C325 1.392 . S
C324 H345 0.931 . S
C325 C324 1.392 . S
C325 C326 1.361 . S
C325 C327 1.500 . S
C326 C321 1.390 . S
C326 C325 1.361 . S
C326 H344 0.931 . S
C327 C325 1.500 . S
C327 C328 1.371 . S
C327 C329 1.365 . S
C328 C327 1.371 . S
C328 C338 1.386 . S
C328 H346 0.931 . S
C329 C327 1.365 . S
C329 C330 1.409 . S
C329 H347 0.929 . S
C330 C329 1.409 . S
C330 C331 1.380 . S
C330 H348 0.930 . S
C331 C330 1.380 . S
C331 C338 1.357 . S
C332 C323 1.511 . S
C332 C333 1.341 . S
C332 C334 1.371 . S
C333 C332 1.341 . S
C333 C337 1.394 . S
C333 H349 0.930 . S
C334 C332 1.371 . S
C334 C335 1.392 . S
C334 H350 0.931 . S
C335 C334 1.392 . S
C335 C336 1.331 . S
C335 H353 0.932 . S
C336 C335 1.331 . S
C336 C337 1.336 . S
C337 C333 1.394 . S
C337 C336 1.336 . S
C337 H352 0.929 . S
C338 C328 1.386 . S
C338 C331 1.357 . S
C338 H351 0.928 . S
H339 C315 0.931 . S
H340 C317 0.930 . S
H341 C319 0.929 . S
H342 C320 0.931 . S
H343 C322 0.930 . S
H344 C326 0.931 . S
H345 C324 0.931 . S
H346 C328 0.931 . S
H347 C329 0.929 . S
H348 C330 0.930 . S
H349 C333 0.930 . S
H350 C334 0.931 . S
H351 C338 0.928 . S
H352 C337 0.929 . S
H353 C335 0.932 . S
C354 C355 1.349 . S
C354 C356 1.327 . S
C354 H379 0.950 . S
C355 C354 1.349 . S
C355 C371 1.349 . S
C356 C354 1.327 . S
C356 C375 1.429 . S
C356 H380 0.950 . S
C357 C374 1.574 . S
C357 C376 1.368 . S
C357 H381 0.949 . S
H358 C362 0.949 . S
C359 C360 1.349 . S
C359 C361 1.327 . S
C359 H382 0.950 . S
C360 C359 1.349 . S
C360 C372 1.349 . S
C361 C359 1.327 . S
C361 C377 1.429 . S
C361 H383 0.950 . S
C362 H358 0.949 . S
C362 C370 1.574 . S
C362 C378 1.368 . S
H363 C371 0.950 . S
H364 C369 0.950 . S
H365 C370 0.949 . S
H366 C372 0.950 . S
H367 C373 0.950 . S
H368 C374 0.949 . S
C369 H364 0.950 . S
C369 C371 1.327 . S
C369 C375 1.429 . S
C370 C362 1.574 . S
C370 H365 0.949 . S
C370 C376 1.368 . S
C371 C355 1.349 . S
C371 H363 0.950 . S
C371 C369 1.327 . S
C372 C360 1.349 . S
C372 H366 0.950 . S
C372 C373 1.327 . S
C373 H367 0.950 . S
C373 C372 1.327 . S
C373 C377 1.429 . S
C374 C357 1.574 . S
C374 H368 0.949 . S
C374 C378 1.368 . S
C375 C356 1.429 . S
C375 C369 1.429 . S
C375 C376 1.523 . S
C376 C357 1.368 . S
C376 C370 1.368 . S
C376 C375 1.523 . S
C377 C361 1.429 . S
C377 C373 1.429 . S
C377 C378 1.523 . S
C378 C362 1.368 . S
C378 C374 1.368 . S
C378 C377 1.523 . S
H379 C354 0.950 . S
H380 C356 0.950 . S
H381 C357 0.949 . S
H382 C359 0.950 . S
H383 C361 0.950 . S
C384 C385 1.349 . S
C384 C386 1.327 . S
C384 H409 0.950 . S
C385 C384 1.349 . S
C385 C401 1.349 . S
C386 C384 1.327 . S
C386 C405 1.429 . S
C386 H410 0.950 . S
C387 C404 1.574 . S
C387 C406 1.368 . S
C387 H411 0.949 . S
H388 C392 0.949 . S
C389 C390 1.349 . S
C389 C391 1.327 . S
C389 H412 0.950 . S
C390 C389 1.349 . S
C390 C402 1.349 . S
C391 C389 1.327 . S
C391 C407 1.429 . S
C391 H413 0.950 . S
C392 H388 0.949 . S
C392 C400 1.574 . S
C392 C408 1.368 . S
H393 C401 0.950 . S
H394 C399 0.950 . S
H395 C400 0.949 . S
H396 C402 0.950 . S
H397 C403 0.950 . S
H398 C404 0.949 . S
C399 H394 0.950 . S
C399 C401 1.327 . S
C399 C405 1.429 . S
C400 C392 1.574 . S
C400 H395 0.949 . S
C400 C406 1.368 . S
C401 C385 1.349 . S
C401 H393 0.950 . S
C401 C399 1.327 . S
C402 C390 1.349 . S
C402 H396 0.950 . S
C402 C403 1.327 . S
C403 H397 0.950 . S
C403 C402 1.327 . S
C403 C407 1.429 . S
C404 C387 1.574 . S
C404 H398 0.949 . S
C404 C408 1.368 . S
C405 C386 1.429 . S
C405 C399 1.429 . S
C405 C406 1.523 . S
C406 C387 1.368 . S
C406 C400 1.368 . S
C406 C405 1.523 . S
C407 C391 1.429 . S
C407 C403 1.429 . S
C407 C408 1.523 . S
C408 C392 1.368 . S
C408 C404 1.368 . S
C408 C407 1.523 . S
H409 C384 0.950 . S
H410 C386 0.950 . S
H411 C387 0.949 . S
H412 C389 0.950 . S
H413 C391 0.950 . S
C414 C415 1.349 . S
C414 C416 1.327 . S
C414 H439 0.950 . S
C415 C414 1.349 . S
C415 C431 1.349 . S
C416 C414 1.327 . S
C416 C435 1.429 . S
C416 H440 0.950 . S
C417 C434 1.574 . S
C417 C436 1.368 . S
C417 H441 0.949 . S
H418 C422 0.949 . S
C419 C420 1.349 . S
C419 C421 1.327 . S
C419 H442 0.950 . S
C420 C419 1.349 . S
C420 C432 1.349 . S
C421 C419 1.327 . S
C421 C437 1.429 . S
C421 H443 0.950 . S
C422 H418 0.949 . S
C422 C430 1.574 . S
C422 C438 1.368 . S
H423 C431 0.950 . S
H424 C429 0.950 . S
H425 C430 0.949 . S
H426 C432 0.950 . S
H427 C433 0.950 . S
H428 C434 0.949 . S
C429 H424 0.950 . S
C429 C431 1.327 . S
C429 C435 1.429 . S
C430 C422 1.574 . S
C430 H425 0.949 . S
C430 C436 1.368 . S
C431 C415 1.349 . S
C431 H423 0.950 . S
C431 C429 1.327 . S
C432 C420 1.349 . S
C432 H426 0.950 . S
C432 C433 1.327 . S
C433 H427 0.950 . S
C433 C432 1.327 . S
C433 C437 1.429 . S
C434 C417 1.574 . S
C434 H428 0.949 . S
C434 C438 1.368 . S
C435 C416 1.429 . S
C435 C429 1.429 . S
C435 C436 1.523 . S
C436 C417 1.368 . S
C436 C430 1.368 . S
C436 C435 1.523 . S
C437 C421 1.429 . S
C437 C433 1.429 . S
C437 C438 1.523 . S
C438 C422 1.368 . S
C438 C434 1.368 . S
C438 C437 1.523 . S
H439 C414 0.950 . S
H440 C416 0.950 . S
H441 C417 0.949 . S
H442 C419 0.950 . S
H443 C421 0.950 . S
C444 C445 1.349 . S
C444 C446 1.327 . S
C444 H469 0.950 . S
C445 C444 1.349 . S
C445 C461 1.349 . S
C446 C444 1.327 . S
C446 C465 1.429 . S
C446 H470 0.950 . S
C447 C464 1.574 . S
C447 C466 1.368 . S
C447 H471 0.949 . S
H448 C452 0.949 . S
C449 C450 1.349 . S
C449 C451 1.327 . S
C449 H472 0.950 . S
C450 C449 1.349 . S
C450 C462 1.349 . S
C451 C449 1.327 . S
C451 C467 1.429 . S
C451 H473 0.950 . S
C452 H448 0.949 . S
C452 C460 1.574 . S
C452 C468 1.368 . S
H453 C461 0.950 . S
H454 C459 0.950 . S
H455 C460 0.949 . S
H456 C462 0.950 . S
H457 C463 0.950 . S
H458 C464 0.949 . S
C459 H454 0.950 . S
C459 C461 1.327 . S
C459 C465 1.429 . S
C460 C452 1.574 . S
C460 H455 0.949 . S
C460 C466 1.368 . S
C461 C445 1.349 . S
C461 H453 0.950 . S
C461 C459 1.327 . S
C462 C450 1.349 . S
C462 H456 0.950 . S
C462 C463 1.327 . S
C463 H457 0.950 . S
C463 C462 1.327 . S
C463 C467 1.429 . S
C464 C447 1.574 . S
C464 H458 0.949 . S
C464 C468 1.368 . S
C465 C446 1.429 . S
C465 C459 1.429 . S
C465 C466 1.523 . S
C466 C447 1.368 . S
C466 C460 1.368 . S
C466 C465 1.523 . S
C467 C451 1.429 . S
C467 C463 1.429 . S
C467 C468 1.523 . S
C468 C452 1.368 . S
C468 C464 1.368 . S
C468 C467 1.523 . S
H469 C444 0.950 . S
H470 C446 0.950 . S
H471 C447 0.949 . S
H472 C449 0.950 . S
H473 C451 0.950 . S
C474 C475 1.349 . S
C474 C476 1.327 . S
C474 H499 0.950 . S
C475 C474 1.349 . S
C475 C491 1.349 . S
C476 C474 1.327 . S
C476 C495 1.429 . S
C476 H500 0.950 . S
C477 C494 1.574 . S
C477 C496 1.368 . S
C477 H501 0.949 . S
H478 C482 0.949 . S
C479 C480 1.349 . S
C479 C481 1.327 . S
C479 H502 0.950 . S
C480 C479 1.349 . S
C480 C492 1.349 . S
C481 C479 1.327 . S
C481 C497 1.429 . S
C481 H503 0.950 . S
C482 H478 0.949 . S
C482 C490 1.574 . S
C482 C498 1.368 . S
H483 C491 0.950 . S
H484 C489 0.950 . S
H485 C490 0.949 . S
H486 C492 0.950 . S
H487 C493 0.950 . S
H488 C494 0.949 . S
C489 H484 0.950 . S
C489 C491 1.327 . S
C489 C495 1.429 . S
C490 C482 1.574 . S
C490 H485 0.949 . S
C490 C496 1.368 . S
C491 C475 1.349 . S
C491 H483 0.950 . S
C491 C489 1.327 . S
C492 C480 1.349 . S
C492 H486 0.950 . S
C492 C493 1.327 . S
C493 H487 0.950 . S
C493 C492 1.327 . S
C493 C497 1.429 . S
C494 C477 1.574 . S
C494 H488 0.949 . S
C494 C498 1.368 . S
C495 C476 1.429 . S
C495 C489 1.429 . S
C495 C496 1.523 . S
C496 C477 1.368 . S
C496 C490 1.368 . S
C496 C495 1.523 . S
C497 C481 1.429 . S
C497 C493 1.429 . S
C497 C498 1.523 . S
C498 C482 1.368 . S
C498 C494 1.368 . S
C498 C497 1.523 . S
H499 C474 0.950 . S
H500 C476 0.950 . S
H501 C477 0.949 . S
H502 C479 0.950 . S
H503 C481 0.950 . S
C504 C505 1.349 . S
C504 C506 1.327 . S
C504 H529 0.950 . S
C505 C504 1.349 . S
C505 C521 1.349 . S
C506 C504 1.327 . S
C506 C525 1.429 . S
C506 H530 0.950 . S
C507 C524 1.574 . S
C507 C526 1.368 . S
C507 H531 0.949 . S
H508 C512 0.949 . S
C509 C510 1.349 . S
C509 C511 1.327 . S
C509 H532 0.950 . S
C510 C509 1.349 . S
C510 C522 1.349 . S
C511 C509 1.327 . S
C511 C527 1.429 . S
C511 H533 0.950 . S
C512 H508 0.949 . S
C512 C520 1.574 . S
C512 C528 1.368 . S
H513 C521 0.950 . S
H514 C519 0.950 . S
H515 C520 0.949 . S
H516 C522 0.950 . S
H517 C523 0.950 . S
H518 C524 0.949 . S
C519 H514 0.950 . S
C519 C521 1.327 . S
C519 C525 1.429 . S
C520 C512 1.574 . S
C520 H515 0.949 . S
C520 C526 1.368 . S
C521 C505 1.349 . S
C521 H513 0.950 . S
C521 C519 1.327 . S
C522 C510 1.349 . S
C522 H516 0.950 . S
C522 C523 1.327 . S
C523 H517 0.950 . S
C523 C522 1.327 . S
C523 C527 1.429 . S
C524 C507 1.574 . S
C524 H518 0.949 . S
C524 C528 1.368 . S
C525 C506 1.429 . S
C525 C519 1.429 . S
C525 C526 1.523 . S
C526 C507 1.368 . S
C526 C520 1.368 . S
C526 C525 1.523 . S
C527 C511 1.429 . S
C527 C523 1.429 . S
C527 C528 1.523 . S
C528 C512 1.368 . S
C528 C524 1.368 . S
C528 C527 1.523 . S
H529 C504 0.950 . S
H530 C506 0.950 . S
H531 C507 0.949 . S
H532 C509 0.950 . S
H533 C511 0.950 . S
C534 C535 1.349 . S
C534 C536 1.327 . S
C534 H559 0.950 . S
C535 C534 1.349 . S
C535 C551 1.349 . S
C536 C534 1.327 . S
C536 C555 1.429 . S
C536 H560 0.950 . S
C537 C554 1.574 . S
C537 C556 1.368 . S
C537 H561 0.949 . S
H538 C542 0.949 . S
C539 C540 1.349 . S
C539 C541 1.327 . S
C539 H562 0.950 . S
C540 C539 1.349 . S
C540 C552 1.349 . S
C541 C539 1.327 . S
C541 C557 1.429 . S
C541 H563 0.950 . S
C542 H538 0.949 . S
C542 C550 1.574 . S
C542 C558 1.368 . S
H543 C551 0.950 . S
H544 C549 0.950 . S
H545 C550 0.949 . S
H546 C552 0.950 . S
H547 C553 0.950 . S
H548 C554 0.949 . S
C549 H544 0.950 . S
C549 C551 1.327 . S
C549 C555 1.429 . S
C550 C542 1.574 . S
C550 H545 0.949 . S
C550 C556 1.368 . S
C551 C535 1.349 . S
C551 H543 0.950 . S
C551 C549 1.327 . S
C552 C540 1.349 . S
C552 H546 0.950 . S
C552 C553 1.327 . S
C553 H547 0.950 . S
C553 C552 1.327 . S
C553 C557 1.429 . S
C554 C537 1.574 . S
C554 H548 0.949 . S
C554 C558 1.368 . S
C555 C536 1.429 . S
C555 C549 1.429 . S
C555 C556 1.523 . S
C556 C537 1.368 . S
C556 C550 1.368 . S
C556 C555 1.523 . S
C557 C541 1.429 . S
C557 C553 1.429 . S
C557 C558 1.523 . S
C558 C542 1.368 . S
C558 C554 1.368 . S
C558 C557 1.523 . S
H559 C534 0.950 . S
H560 C536 0.950 . S
H561 C537 0.949 . S
H562 C539 0.950 . S
H563 C541 0.950 . S
C564 C565 1.349 . S
C564 C566 1.327 . S
C564 H589 0.950 . S
C565 C564 1.349 . S
C565 C581 1.349 . S
C566 C564 1.327 . S
C566 C585 1.429 . S
C566 H590 0.950 . S
C567 C584 1.574 . S
C567 C586 1.368 . S
C567 H591 0.949 . S
H568 C572 0.949 . S
C569 C570 1.349 . S
C569 C571 1.327 . S
C569 H592 0.950 . S
C570 C569 1.349 . S
C570 C582 1.349 . S
C571 C569 1.327 . S
C571 C587 1.429 . S
C571 H593 0.950 . S
C572 H568 0.949 . S
C572 C580 1.574 . S
C572 C588 1.368 . S
H573 C581 0.950 . S
H574 C579 0.950 . S
H575 C580 0.949 . S
H576 C582 0.950 . S
H577 C583 0.950 . S
H578 C584 0.949 . S
C579 H574 0.950 . S
C579 C581 1.327 . S
C579 C585 1.429 . S
C580 C572 1.574 . S
C580 H575 0.949 . S
C580 C586 1.368 . S
C581 C565 1.349 . S
C581 H573 0.950 . S
C581 C579 1.327 . S
C582 C570 1.349 . S
C582 H576 0.950 . S
C582 C583 1.327 . S
C583 H577 0.950 . S
C583 C582 1.327 . S
C583 C587 1.429 . S
C584 C567 1.574 . S
C584 H578 0.949 . S
C584 C588 1.368 . S
C585 C566 1.429 . S
C585 C579 1.429 . S
C585 C586 1.523 . S
C586 C567 1.368 . S
C586 C580 1.368 . S
C586 C585 1.523 . S
C587 C571 1.429 . S
C587 C583 1.429 . S
C587 C588 1.523 . S
C588 C572 1.368 . S
C588 C584 1.368 . S
C588 C587 1.523 . S
H589 C564 0.950 . S
H590 C566 0.950 . S
H591 C567 0.949 . S
H592 C569 0.950 . S
H593 C571 0.950 . S
C594 C595 1.349 . S
C594 C596 1.327 . S
C594 H619 0.950 . S
C595 C594 1.349 . S
C595 C611 1.349 . S
C596 C594 1.327 . S
C596 C615 1.429 . S
C596 H620 0.950 . S
C597 C614 1.574 . S
C597 C616 1.368 . S
C597 H621 0.949 . S
H598 C602 0.949 . S
C599 C600 1.349 . S
C599 C601 1.327 . S
C599 H622 0.950 . S
C600 C599 1.349 . S
C600 C612 1.349 . S
C601 C599 1.327 . S
C601 C617 1.429 . S
C601 H623 0.950 . S
C602 H598 0.949 . S
C602 C610 1.574 . S
C602 C618 1.368 . S
H603 C611 0.950 . S
H604 C609 0.950 . S
H605 C610 0.949 . S
H606 C612 0.950 . S
H607 C613 0.950 . S
H608 C614 0.949 . S
C609 H604 0.950 . S
C609 C611 1.327 . S
C609 C615 1.429 . S
C610 C602 1.574 . S
C610 H605 0.949 . S
C610 C616 1.368 . S
C611 C595 1.349 . S
C611 H603 0.950 . S
C611 C609 1.327 . S
C612 C600 1.349 . S
C612 H606 0.950 . S
C612 C613 1.327 . S
C613 H607 0.950 . S
C613 C612 1.327 . S
C613 C617 1.429 . S
C614 C597 1.574 . S
C614 H608 0.949 . S
C614 C618 1.368 . S
C615 C596 1.429 . S
C615 C609 1.429 . S
C615 C616 1.523 . S
C616 C597 1.368 . S
C616 C610 1.368 . S
C616 C615 1.523 . S
C617 C601 1.429 . S
C617 C613 1.429 . S
C617 C618 1.523 . S
C618 C602 1.368 . S
C618 C614 1.368 . S
C618 C617 1.523 . S
H619 C594 0.950 . S
H620 C596 0.950 . S
H621 C597 0.949 . S
H622 C599 0.950 . S
H623 C601 0.950 . S
C624 C625 1.349 . S
C624 C626 1.327 . S
C624 H649 0.950 . S
C625 C624 1.349 . S
C625 C641 1.349 . S
C626 C624 1.327 . S
C626 C645 1.429 . S
C626 H650 0.950 . S
C627 C644 1.574 . S
C627 C646 1.368 . S
C627 H651 0.949 . S
H628 C632 0.949 . S
C629 C630 1.349 . S
C629 C631 1.327 . S
C629 H652 0.950 . S
C630 C629 1.349 . S
C630 C642 1.349 . S
C631 C629 1.327 . S
C631 C647 1.429 . S
C631 H653 0.950 . S
C632 H628 0.949 . S
C632 C640 1.574 . S
C632 C648 1.368 . S
H633 C641 0.950 . S
H634 C639 0.950 . S
H635 C640 0.949 . S
H636 C642 0.950 . S
H637 C643 0.950 . S
H638 C644 0.949 . S
C639 H634 0.950 . S
C639 C641 1.327 . S
C639 C645 1.429 . S
C640 C632 1.574 . S
C640 H635 0.949 . S
C640 C646 1.368 . S
C641 C625 1.349 . S
C641 H633 0.950 . S
C641 C639 1.327 . S
C642 C630 1.349 . S
C642 H636 0.950 . S
C642 C643 1.327 . S
C643 H637 0.950 . S
C643 C642 1.327 . S
C643 C647 1.429 . S
C644 C627 1.574 . S
C644 H638 0.949 . S
C644 C648 1.368 . S
C645 C626 1.429 . S
C645 C639 1.429 . S
C645 C646 1.523 . S
C646 C627 1.368 . S
C646 C640 1.368 . S
C646 C645 1.523 . S
C647 C631 1.429 . S
C647 C643 1.429 . S
C647 C648 1.523 . S
C648 C632 1.368 . S
C648 C644 1.368 . S
C648 C647 1.523 . S
H649 C624 0.950 . S
H650 C626 0.950 . S
H651 C627 0.949 . S
H652 C629 0.950 . S
H653 C631 0.950 . S
C654 C655 1.349 . S
C654 C656 1.327 . S
C654 H679 0.950 . S
C655 C654 1.349 . S
C655 C671 1.349 . S
C656 C654 1.327 . S
C656 C675 1.429 . S
C656 H680 0.950 . S
C657 C674 1.574 . S
C657 C676 1.368 . S
C657 H681 0.949 . S
H658 C662 0.949 . S
C659 C660 1.349 . S
C659 C661 1.327 . S
C659 H682 0.950 . S
C660 C659 1.349 . S
C660 C672 1.349 . S
C661 C659 1.327 . S
C661 C677 1.429 . S
C661 H683 0.950 . S
C662 H658 0.949 . S
C662 C670 1.574 . S
C662 C678 1.368 . S
H663 C671 0.950 . S
H664 C669 0.950 . S
H665 C670 0.949 . S
H666 C672 0.950 . S
H667 C673 0.950 . S
H668 C674 0.949 . S
C669 H664 0.950 . S
C669 C671 1.327 . S
C669 C675 1.429 . S
C670 C662 1.574 . S
C670 H665 0.949 . S
C670 C676 1.368 . S
C671 C655 1.349 . S
C671 H663 0.950 . S
C671 C669 1.327 . S
C672 C660 1.349 . S
C672 H666 0.950 . S
C672 C673 1.327 . S
C673 H667 0.950 . S
C673 C672 1.327 . S
C673 C677 1.429 . S
C674 C657 1.574 . S
C674 H668 0.949 . S
C674 C678 1.368 . S
C675 C656 1.429 . S
C675 C669 1.429 . S
C675 C676 1.523 . S
C676 C657 1.368 . S
C676 C670 1.368 . S
C676 C675 1.523 . S
C677 C661 1.429 . S
C677 C673 1.429 . S
C677 C678 1.523 . S
C678 C662 1.368 . S
C678 C674 1.368 . S
C678 C677 1.523 . S
H679 C654 0.950 . S
H680 C656 0.950 . S
H681 C657 0.949 . S
H682 C659 0.950 . S
H683 C661 0.950 . S
C684 C685 1.349 . S
C684 C686 1.327 . S
C684 H709 0.950 . S
C685 C684 1.349 . S
C685 C701 1.349 . S
C686 C684 1.327 . S
C686 C705 1.429 . S
C686 H710 0.950 . S
C687 C704 1.574 . S
C687 C706 1.368 . S
C687 H711 0.949 . S
H688 C692 0.949 . S
C689 C690 1.349 . S
C689 C691 1.327 . S
C689 H712 0.950 . S
C690 C689 1.349 . S
C690 C702 1.349 . S
C691 C689 1.327 . S
C691 C707 1.429 . S
C691 H713 0.950 . S
C692 H688 0.949 . S
C692 C700 1.574 . S
C692 C708 1.368 . S
H693 C701 0.950 . S
H694 C699 0.950 . S
H695 C700 0.949 . S
H696 C702 0.950 . S
H697 C703 0.950 . S
H698 C704 0.949 . S
C699 H694 0.950 . S
C699 C701 1.327 . S
C699 C705 1.429 . S
C700 C692 1.574 . S
C700 H695 0.949 . S
C700 C706 1.368 . S
C701 C685 1.349 . S
C701 H693 0.950 . S
C701 C699 1.327 . S
C702 C690 1.349 . S
C702 H696 0.950 . S
C702 C703 1.327 . S
C703 H697 0.950 . S
C703 C702 1.327 . S
C703 C707 1.429 . S
C704 C687 1.574 . S
C704 H698 0.949 . S
C704 C708 1.368 . S
C705 C686 1.429 . S
C705 C699 1.429 . S
C705 C706 1.523 . S
C706 C687 1.368 . S
C706 C700 1.368 . S
C706 C705 1.523 . S
C707 C691 1.429 . S
C707 C703 1.429 . S
C707 C708 1.523 . S
C708 C692 1.368 . S
C708 C704 1.368 . S
C708 C707 1.523 . S
H709 C684 0.950 . S
H710 C686 0.950 . S
H711 C687 0.949 . S
H712 C689 0.950 . S
H713 C691 0.950 . S
C714 C715 1.349 . S
C714 C716 1.327 . S
C714 H739 0.950 . S
C715 C714 1.349 . S
C715 C731 1.349 . S
C716 C714 1.327 . S
C716 C735 1.429 . S
C716 H740 0.950 . S
C717 C734 1.574 . S
C717 C736 1.368 . S
C717 H741 0.949 . S
H718 C722 0.949 . S
C719 C720 1.349 . S
C719 C721 1.327 1_556 S
C719 H742 0.950 . S
C720 C719 1.349 . S
C720 C732 1.349 . S
C721 C719 1.327 1_554 S
C721 C737 1.429 . S
C721 H743 0.950 . S
C722 H718 0.949 . S
C722 C730 1.574 . S
C722 C738 1.368 . S
H723 C731 0.950 . S
H724 C729 0.950 . S
H725 C730 0.949 . S
H726 C732 0.950 . S
H727 C733 0.950 . S
H728 C734 0.949 . S
C729 H724 0.950 . S
C729 C731 1.327 . S
C729 C735 1.429 . S
C730 C722 1.574 . S
C730 H725 0.949 . S
C730 C736 1.368 . S
C731 C715 1.349 . S
C731 H723 0.950 . S
C731 C729 1.327 . S
C732 C720 1.349 . S
C732 H726 0.950 . S
C732 C733 1.327 1_556 S
C733 H727 0.950 . S
C733 C732 1.327 1_554 S
C733 C737 1.429 . S
C734 C717 1.574 . S
C734 H728 0.949 . S
C734 C738 1.368 . S
C735 C716 1.429 . S
C735 C729 1.429 . S
C735 C736 1.523 . S
C736 C717 1.368 . S
C736 C730 1.368 . S
C736 C735 1.523 . S
C737 C721 1.429 . S
C737 C733 1.429 . S
C737 C738 1.523 . S
C738 C722 1.368 . S
C738 C734 1.368 . S
C738 C737 1.523 . S
H739 C714 0.950 . S
H740 C716 0.950 . S
H741 C717 0.949 . S
H742 C719 0.950 . S
H743 C721 0.950 . S
C744 C745 1.349 . S
C744 C746 1.327 . S
C744 H769 0.950 . S
C745 C744 1.349 . S
C745 C761 1.349 . S
C746 C744 1.327 . S
C746 C765 1.429 . S
C746 H770 0.950 . S
C747 C764 1.574 . S
C747 C766 1.368 . S
C747 H771 0.949 1_545 S
H748 C752 0.949 . S
C749 C750 1.349 . S
C749 C751 1.327 . S
C749 H772 0.950 1_545 S
C750 C749 1.349 . S
C750 C762 1.349 . S
C751 C749 1.327 . S
C751 C767 1.429 . S
C751 H773 0.950 1_545 S
C752 H748 0.949 . S
C752 C760 1.574 . S
C752 C768 1.368 . S
H753 C761 0.950 1_565 S
H754 C759 0.950 1_565 S
H755 C760 0.949 . S
H756 C762 0.950 . S
H757 C763 0.950 . S
H758 C764 0.949 1_565 S
C759 H754 0.950 1_545 S
C759 C761 1.327 . S
C759 C765 1.429 . S
C760 C752 1.574 . S
C760 H755 0.949 . S
C760 C766 1.368 . S
C761 C745 1.349 . S
C761 H753 0.950 1_545 S
C761 C759 1.327 . S
C762 C750 1.349 . S
C762 H756 0.950 . S
C762 C763 1.327 . S
C763 H757 0.950 . S
C763 C762 1.327 . S
C763 C767 1.429 . S
C764 C747 1.574 . S
C764 H758 0.949 1_545 S
C764 C768 1.368 . S
C765 C746 1.429 . S
C765 C759 1.429 . S
C765 C766 1.523 . S
C766 C747 1.368 . S
C766 C760 1.368 . S
C766 C765 1.523 . S
C767 C751 1.429 . S
C767 C763 1.429 . S
C767 C768 1.523 . S
C768 C752 1.368 . S
C768 C764 1.368 . S
C768 C767 1.523 . S
H769 C744 0.950 . S
H770 C746 0.950 . S
H771 C747 0.949 1_565 S
H772 C749 0.950 1_565 S
H773 C751 0.950 1_565 S
C774 C775 1.349 . S
C774 C776 1.327 . S
C774 H799 0.950 . S
C775 C774 1.349 . S
C775 C791 1.349 . S
C776 C774 1.327 . S
C776 C795 1.429 . S
C776 H800 0.950 . S
C777 C794 1.574 . S
C777 C796 1.368 . S
C777 H801 0.949 . S
H778 C782 0.949 . S
C779 C780 1.349 . S
C779 C781 1.327 . S
C779 H802 0.950 . S
C780 C779 1.349 . S
C780 C792 1.349 . S
C781 C779 1.327 . S
C781 C797 1.429 . S
C781 H803 0.950 . S
C782 H778 0.949 . S
C782 C790 1.574 . S
C782 C798 1.368 . S
H783 C791 0.950 . S
H784 C789 0.950 . S
H785 C790 0.949 . S
H786 C792 0.950 . S
H787 C793 0.950 . S
H788 C794 0.949 . S
C789 H784 0.950 . S
C789 C791 1.327 . S
C789 C795 1.429 . S
C790 C782 1.574 . S
C790 H785 0.949 . S
C790 C796 1.368 . S
C791 C775 1.349 . S
C791 H783 0.950 . S
C791 C789 1.327 . S
C792 C780 1.349 . S
C792 H786 0.950 . S
C792 C793 1.327 . S
C793 H787 0.950 . S
C793 C792 1.327 . S
C793 C797 1.429 . S
C794 C777 1.574 . S
C794 H788 0.949 . S
C794 C798 1.368 . S
C795 C776 1.429 . S
C795 C789 1.429 . S
C795 C796 1.523 . S
C796 C777 1.368 . S
C796 C790 1.368 . S
C796 C795 1.523 . S
C797 C781 1.429 . S
C797 C793 1.429 . S
C797 C798 1.523 . S
C798 C782 1.368 . S
C798 C794 1.368 . S
C798 C797 1.523 . S
H799 C774 0.950 . S
H800 C776 0.950 . S
H801 C777 0.949 . S
H802 C779 0.950 . S
H803 C781 0.950 . S
C804 C805 1.313 1_565 S
C804 C806 1.334 . S
C804 H829 0.980 . S
C805 C804 1.313 1_545 S
C805 C821 1.349 . S
C806 C804 1.334 . S
C806 C825 1.429 1_565 S
C806 H830 0.950 . S
C807 C824 1.574 . S
C807 C826 1.368 . S
C807 H831 0.949 . S
H808 C812 0.949 . S
C809 C810 1.349 1_545 S
C809 C811 1.327 . S
C809 H832 0.950 . S
C810 C809 1.349 1_565 S
C810 C822 1.349 . S
C811 C809 1.327 . S
C811 C827 1.429 . S
C811 H833 0.950 . S
C812 H808 0.949 . S
C812 C820 1.574 . S
C812 C828 1.368 1_565 S
H813 C821 0.950 . S
H814 C819 0.950 . S
H815 C820 0.949 . S
H816 C822 0.950 . S
H817 C823 0.950 . S
H818 C824 0.949 . S
C819 H814 0.950 . S
C819 C821 1.327 . S
C819 C825 1.429 . S
C820 C812 1.574 . S
C820 H815 0.949 . S
C820 C826 1.368 1_565 S
C821 C805 1.349 . S
C821 H813 0.950 . S
C821 C819 1.327 . S
C822 C810 1.349 . S
C822 H816 0.950 . S
C822 C823 1.327 . S
C823 H817 0.950 . S
C823 C822 1.327 . S
C823 C827 1.429 1_565 S
C824 C807 1.574 . S
C824 H818 0.949 . S
C824 C828 1.368 . S
C825 C806 1.429 1_545 S
C825 C819 1.429 . S
C825 C826 1.523 . S
C826 C807 1.368 . S
C826 C820 1.368 1_545 S
C826 C825 1.523 . S
C827 C811 1.429 . S
C827 C823 1.429 1_545 S
C827 C828 1.523 . S
C828 C812 1.368 1_545 S
C828 C824 1.368 . S
C828 C827 1.523 . S
H829 C804 0.980 . S
H830 C806 0.950 . S
H831 C807 0.949 . S
H832 C809 0.950 . S
H833 C811 0.950 . S
C834 C835 1.349 . S
C834 C836 1.327 . S
C834 H859 0.950 . S
C835 C834 1.349 . S
C835 C851 1.349 . S
C836 C834 1.327 . S
C836 C855 1.429 . S
C836 H860 0.950 . S
C837 C854 1.574 . S
C837 C856 1.368 . S
C837 H861 0.949 . S
H838 C842 0.949 . S
C839 C840 1.349 . S
C839 C841 1.327 1_554 S
C839 H862 0.950 . S
C840 C839 1.349 . S
C840 C852 1.349 . S
C841 C839 1.327 1_556 S
C841 C857 1.429 . S
C841 H863 0.950 . S
C842 H838 0.949 . S
C842 C850 1.574 . S
C842 C858 1.368 . S
H843 C851 0.950 . S
H844 C849 0.950 . S
H845 C850 0.949 . S
H846 C852 0.950 . S
H847 C853 0.950 . S
H848 C854 0.949 . S
C849 H844 0.950 . S
C849 C851 1.327 . S
C849 C855 1.429 . S
C850 C842 1.574 . S
C850 H845 0.949 . S
C850 C856 1.368 . S
C851 C835 1.349 . S
C851 H843 0.950 . S
C851 C849 1.327 . S
C852 C840 1.349 . S
C852 H846 0.950 . S
C852 C853 1.327 1_554 S
C853 H847 0.950 . S
C853 C852 1.327 1_556 S
C853 C857 1.429 . S
C854 C837 1.574 . S
C854 H848 0.949 . S
C854 C858 1.368 . S
C855 C836 1.429 . S
C855 C849 1.429 . S
C855 C856 1.523 . S
C856 C837 1.368 . S
C856 C850 1.368 . S
C856 C855 1.523 . S
C857 C841 1.429 . S
C857 C853 1.429 . S
C857 C858 1.523 . S
C858 C842 1.368 . S
C858 C854 1.368 . S
C858 C857 1.523 . S
H859 C834 0.950 . S
H860 C836 0.950 . S
H861 C837 0.949 . S
H862 C839 0.950 . S
H863 C841 0.950 . S
C864 C865 1.349 . S
C864 C866 1.327 . S
C864 H889 0.950 . S
C865 C864 1.349 . S
C865 C881 1.349 . S
C866 C864 1.327 . S
C866 C885 1.429 . S
C866 H890 0.950 . S
C867 C884 1.574 . S
C867 C886 1.368 . S
C867 H891 0.949 . S
H868 C872 0.949 . S
C869 C870 1.346 . S
C869 C871 1.327 . S
C869 H892 0.950 . S
C870 C869 1.346 . S
C870 C882 1.338 1_455 S
C871 C869 1.327 . S
C871 C887 1.429 . S
C871 H893 0.950 . S
C872 H868 0.949 . S
C872 C880 1.574 . S
C872 C888 1.368 . S
H873 C881 0.950 . S
H874 C879 0.950 . S
H875 C880 0.949 . S
H876 C882 0.968 . S
H877 C883 0.950 . S
H878 C884 0.949 . S
C879 H874 0.950 . S
C879 C881 1.327 . S
C879 C885 1.429 . S
C880 C872 1.574 . S
C880 H875 0.949 . S
C880 C886 1.368 . S
C881 C865 1.349 . S
C881 H873 0.950 . S
C881 C879 1.327 . S
C882 C870 1.338 1_655 S
C882 H876 0.968 . S
C882 C883 1.323 1_655 S
C883 H877 0.950 . S
C883 C882 1.323 1_455 S
C883 C887 1.429 . S
C884 C867 1.574 . S
C884 H878 0.949 . S
C884 C888 1.368 . S
C885 C866 1.429 . S
C885 C879 1.429 . S
C885 C886 1.523 . S
C886 C867 1.368 . S
C886 C880 1.368 . S
C886 C885 1.523 . S
C887 C871 1.429 . S
C887 C883 1.429 . S
C887 C888 1.523 . S
C888 C872 1.368 . S
C888 C884 1.368 . S
C888 C887 1.523 . S
H889 C864 0.950 . S
H890 C866 0.950 . S
H891 C867 0.949 . S
H892 C869 0.950 . S
H893 C871 0.950 . S
C355 C25 0.307 . S
C360 C331 0.325 . S
C385 C65 0.255 . S
C390 C258 0.140 . S
C415 C105 0.314 . S
C420 C297 0.176 . S
C445 C4 0.291 . S
C450 C336 0.175 . S
C480 C253 0.277 . S
C475 C44 0.272 . S
C510 C292 0.336 . S
C505 C84 0.316 . S
C535 C60 2.839 . S
C540 C180 2.801 . S
C565 C100 3.055 . S
C570 C214 3.004 . S
C595 C31 3.044 . S
C600 C136 2.992 . S
C630 C175 2.982 . S
C625 C71 3.026 . S
C660 C219 2.787 . S
C655 C111 2.810 . S
C685 C20 2.834 . S
C690 C141 2.799 . S
C720 C199 1.793 . S
C715 C2 1.726 . S
C745 C42 1.739 . S
C750 C121 1.781 . S
C775 C82 1.737 . S
C780 C160 1.789 . S
C810 C277 1.088 . S
C805 C63 1.073 . S
C840 C316 1.120 . S
C835 C103 1.107 . S
C865 C23 1.072 . S
C870 C238 1.087 1_455 S
