# Generated by pormake.
# Topology zzz, (3,6)-cn, num edge types: 1
# Building blocks:
#     Node 0, Type 0, BuildingBlock: KAKCAD_clean_linker_0, # of connection points: 3
#     Node 1, Type 0, BuildingBlock: KAKCAD_clean_linker_0, # of connection points: 3
#     Node 2, Type 0, BuildingBlock: KAKCAD_clean_linker_0, # of connection points: 3
#     Node 3, Type 0, BuildingBlock: KAKCAD_clean_linker_0, # of connection points: 3
#     Node 4, Type 0, BuildingBlock: KAKCAD_clean_linker_0, # of connection points: 3
#     Node 5, Type 0, BuildingBlock: KAKCAD_clean_linker_0, # of connection points: 3
#     Node 6, Type 0, BuildingBlock: KAKCAD_clean_linker_0, # of connection points: 3
#     Node 7, Type 0, BuildingBlock: KAKCAD_clean_linker_0, # of connection points: 3
#     Node 8, Type 1, BuildingBlock: CUKXOW_clean_sbu_0, # of connection points: 6
#     Node 9, Type 1, BuildingBlock: CUKXOW_clean_sbu_0, # of connection points: 6
#     Node 10, Type 1, BuildingBlock: CUKXOW_clean_sbu_0, # of connection points: 6
#     Node 11, Type 1, BuildingBlock: CUKXOW_clean_sbu_0, # of connection points: 6
#     Edge 12, Type (0, 1), BuildingBlock: KIFKEQ_clean_linker_1, # of connection points: 2
#     Edge 13, Type (0, 1), BuildingBlock: KIFKEQ_clean_linker_1, # of connection points: 2
#     Edge 14, Type (0, 1), BuildingBlock: KIFKEQ_clean_linker_1, # of connection points: 2
#     Edge 15, Type (0, 1), BuildingBlock: KIFKEQ_clean_linker_1, # of connection points: 2
#     Edge 16, Type (0, 1), BuildingBlock: KIFKEQ_clean_linker_1, # of connection points: 2
#     Edge 17, Type (0, 1), BuildingBlock: KIFKEQ_clean_linker_1, # of connection points: 2
#     Edge 18, Type (0, 1), BuildingBlock: KIFKEQ_clean_linker_1, # of connection points: 2
#     Edge 19, Type (0, 1), BuildingBlock: KIFKEQ_clean_linker_1, # of connection points: 2
#     Edge 20, Type (0, 1), BuildingBlock: KIFKEQ_clean_linker_1, # of connection points: 2
#     Edge 21, Type (0, 1), BuildingBlock: KIFKEQ_clean_linker_1, # of connection points: 2
#     Edge 22, Type (0, 1), BuildingBlock: KIFKEQ_clean_linker_1, # of connection points: 2
#     Edge 23, Type (0, 1), BuildingBlock: KIFKEQ_clean_linker_1, # of connection points: 2
#     Edge 24, Type (0, 1), BuildingBlock: KIFKEQ_clean_linker_1, # of connection points: 2
#     Edge 25, Type (0, 1), BuildingBlock: KIFKEQ_clean_linker_1, # of connection points: 2
#     Edge 26, Type (0, 1), BuildingBlock: KIFKEQ_clean_linker_1, # of connection points: 2
#     Edge 27, Type (0, 1), BuildingBlock: KIFKEQ_clean_linker_1, # of connection points: 2
#     Edge 28, Type (0, 1), BuildingBlock: KIFKEQ_clean_linker_1, # of connection points: 2
#     Edge 29, Type (0, 1), BuildingBlock: KIFKEQ_clean_linker_1, # of connection points: 2
#     Edge 30, Type (0, 1), BuildingBlock: KIFKEQ_clean_linker_1, # of connection points: 2
#     Edge 31, Type (0, 1), BuildingBlock: KIFKEQ_clean_linker_1, # of connection points: 2
#     Edge 32, Type (0, 1), BuildingBlock: KIFKEQ_clean_linker_1, # of connection points: 2
#     Edge 33, Type (0, 1), BuildingBlock: KIFKEQ_clean_linker_1, # of connection points: 2
#     Edge 34, Type (0, 1), BuildingBlock: KIFKEQ_clean_linker_1, # of connection points: 2
#     Edge 35, Type (0, 1), BuildingBlock: KIFKEQ_clean_linker_1, # of connection points: 2
# Relax obj value: 0.213
# Max RMSD: 0.230
# Mean RMSD: 0.186
data_MOF--net-zzz--node1-CUKXOW_clean_sbu_0--node2-KAKCAD_clean_linker_0--edge1-KIFKEQ_clean_linker_1
_symmetry_space_group_name_H-M    P1
_symmetry_Int_Tables_number       1
_symmetry_cell_setting            triclinic
loop_
_symmetry_equiv_pos_as_xyz
'x, y, z'
_cell_length_a     59.57087
_cell_length_b     58.232157
_cell_length_c     20.838002
_cell_angle_alpha  92.491823
_cell_angle_beta   88.268069
_cell_angle_gamma 95.482921
loop_
_atom_site_label
_atom_site_type_symbol
_atom_site_fract_x
_atom_site_fract_y
_atom_site_fract_z
_atom_type_partial_charge
C0 C 0.81548 0.46012 0.90485 0.0
C1 C 0.83307 0.44606 0.91235 0.0
C2 C 0.79677 0.45887 0.94707 0.0
C3 C 0.79532 0.44356 0.99763 0.0
C4 C 0.81211 0.42836 0.00224 0.0
C5 C 0.83079 0.42959 0.96003 0.0
C6 C 0.77787 0.44527 0.04945 0.0
C7 C 0.75543 0.44779 0.03541 0.0
C8 C 0.73933 0.45138 0.08484 0.0
C9 C 0.74616 0.45289 0.1493 0.0
C10 C 0.76864 0.45009 0.1639 0.0
C11 C 0.78422 0.44622 0.11367 0.0
C12 C 0.777 0.4526 0.23045 0.0
C13 C 0.774 0.47255 0.26882 0.0
C14 C 0.79139 0.43686 0.25132 0.0
C15 C 0.80416 0.44193 0.306 0.0
C16 C 0.80273 0.46284 0.3417 0.0
C17 C 0.71575 0.4543 0.06747 0.0
C18 C 0.70392 0.47195 0.09669 0.0
C19 C 0.70563 0.44057 0.01705 0.0
C20 C 0.68501 0.44535 0.99341 0.0
C21 C 0.6738 0.46376 0.02015 0.0
C22 C 0.68306 0.47658 0.07333 0.0
C23 C 0.78675 0.47762 0.32401 0.0
H24 H 0.81664 0.47277 0.86801 0.0
H25 H 0.78413 0.47085 0.94242 0.0
H26 H 0.81127 0.41619 0.04028 0.0
H27 H 0.84408 0.4186 0.96738 0.0
H28 H 0.75063 0.4474 0.98559 0.0
H29 H 0.80177 0.44517 0.12458 0.0
H30 H 0.73406 0.45592 0.18788 0.0
H31 H 0.76303 0.485 0.25378 0.0
H32 H 0.79389 0.42124 0.22283 0.0
H33 H 0.81631 0.43013 0.31735 0.0
H34 H 0.71128 0.48289 0.13541 0.0
H35 H 0.714 0.42648 0.99451 0.0
H36 H 0.78482 0.49364 0.3511 0.0
H37 H 0.67472 0.49089 0.09474 0.0
H38 H 0.67802 0.43493 0.95314 0.0
C39 C 0.92037 0.81024 0.90232 0.0
C40 C 0.93004 0.83137 0.9283 0.0
C41 C 0.91238 0.79256 0.94302 0.0
C42 C 0.91445 0.79563 0.01017 0.0
C43 C 0.92431 0.81694 0.03535 0.0
C44 C 0.93173 0.83465 0.99496 0.0
C45 C 0.90774 0.7765 0.05419 0.0
C46 C 0.91128 0.75361 0.03616 0.0
C47 C 0.90807 0.73598 0.08065 0.0
C48 C 0.90205 0.74171 0.14489 0.0
C49 C 0.89811 0.76449 0.16324 0.0
C50 C 0.90011 0.78144 0.11714 0.0
C51 C 0.89567 0.77221 0.23146 0.0
C52 C 0.87877 0.78653 0.25031 0.0
C53 C 0.91347 0.77033 0.27295 0.0
C54 C 0.9158 0.78463 0.32849 0.0
C55 C 0.90027 0.80095 0.3435 0.0
C56 C 0.91256 0.71209 0.05969 0.0
C57 C 0.90596 0.70321 0.99864 0.0
C58 C 0.92484 0.69867 0.09786 0.0
C59 C 0.93122 0.67731 0.07416 0.0
C60 C 0.92557 0.66899 0.0117 0.0
C61 C 0.91249 0.68206 0.97479 0.0
C62 C 0.88098 0.80069 0.30603 0.0
H63 H 0.919 0.80746 0.85079 0.0
H64 H 0.90472 0.77651 0.92185 0.0
H65 H 0.92703 0.81986 0.08629 0.0
H66 H 0.93951 0.85075 0.01574 0.0
H67 H 0.91782 0.74965 0.9883 0.0
H68 H 0.89714 0.799 0.13181 0.0
H69 H 0.90057 0.72862 0.18058 0.0
H70 H 0.86485 0.7882 0.21908 0.0
H71 H 0.92684 0.75958 0.25911 0.0
H72 H 0.93088 0.78437 0.3561 0.0
H73 H 0.89619 0.71295 0.96839 0.0
H74 H 0.93029 0.70504 0.145 0.0
H75 H 0.86843 0.81264 0.31716 0.0
H76 H 0.908 0.67646 0.92625 0.0
H77 H 0.94096 0.66755 0.10438 0.0
C78 C 0.68362 0.00436 0.98014 0.0
C79 C 0.67023 0.02285 0.99113 0.0
C80 C 0.70231 0.00246 0.01796 0.0
C81 C 0.70784 0.01896 0.0675 0.0
C82 C 0.69507 0.03795 0.07651 0.0
C83 C 0.6765 0.03991 0.03868 0.0
C84 C 0.72554 0.01549 0.11347 0.0
C85 C 0.74686 0.00955 0.09255 0.0
C86 C 0.76343 0.0063 0.13717 0.0
C87 C 0.7583 0.0085 0.20353 0.0
C88 C 0.73682 0.01419 0.22466 0.0
C89 C 0.72072 0.01774 0.17936 0.0
C90 C 0.72972 0.01521 0.29325 0.0
C91 C 0.72806 0.99516 0.32871 0.0
C92 C 0.71934 0.0345 0.31772 0.0
C93 C 0.70536 0.03295 0.37253 0.0
C94 C 0.70156 0.01206 0.40441 0.0
C95 C 0.78615 0.00141 0.11299 0.0
C96 C 0.7885 0.98344 0.06694 0.0
C97 C 0.80521 0.01626 0.12978 0.0
C98 C 0.826 0.01405 0.09802 0.0
C99 C 0.82813 0.99678 0.04933 0.0
C100 C 0.80928 0.98101 0.03589 0.0
C101 C 0.71412 0.99361 0.38405 0.0
H102 H 0.67915 0.99088 0.94406 0.0
H103 H 0.71181 0.98756 0.01039 0.0
H104 H 0.6992 0.0511 0.11378 0.0
H105 H 0.66688 0.05466 0.04726 0.0
H106 H 0.75077 0.00809 0.04145 0.0
H107 H 0.70394 0.02152 0.19567 0.0
H108 H 0.77085 0.00573 0.23826 0.0
H109 H 0.73585 0.98002 0.31057 0.0
H110 H 0.72037 0.05014 0.29099 0.0
H111 H 0.69601 0.04753 0.3861 0.0
H112 H 0.77404 0.97166 0.05362 0.0
H113 H 0.80373 0.03038 0.1648 0.0
H114 H 0.71206 0.97745 0.40835 0.0
H115 H 0.8104 0.9671 6e-05 0.0
H116 H 0.84005 0.02661 0.10941 0.0
C117 C 0.58683 0.71514 0.37916 0.0
C118 C 0.60233 0.69857 0.38465 0.0
C119 C 0.58837 0.72964 0.327 0.0
C120 C 0.60535 0.7277 0.27945 0.0
C121 C 0.62203 0.71273 0.28812 0.0
C122 C 0.62062 0.69842 0.34041 0.0
C123 C 0.60276 0.73694 0.21536 0.0
C124 C 0.60066 0.76047 0.20677 0.0
C125 C 0.59614 0.768 0.14554 0.0
C126 C 0.59255 0.75175 0.09419 0.0
C127 C 0.59391 0.72826 0.10302 0.0
C128 C 0.5997 0.72108 0.16298 0.0
C129 C 0.58588 0.71073 0.05357 0.0
C130 C 0.5635 0.70974 0.03392 0.0
C131 C 0.59929 0.69323 0.03256 0.0
C132 C 0.59017 0.67452 0.99434 0.0
C133 C 0.56725 0.67263 0.97801 0.0
C134 C 0.59332 0.79243 0.13448 0.0
C135 C 0.5756 0.80321 0.16522 0.0
C136 C 0.60612 0.8038 0.08566 0.0
C137 C 0.60056 0.82504 0.0654 0.0
C138 C 0.58183 0.83511 0.09288 0.0
C139 C 0.56979 0.82433 0.14424 0.0
C140 C 0.55421 0.69081 0.99706 0.0
H141 H 0.57247 0.71568 0.41215 0.0
H142 H 0.57516 0.74086 0.3209 0.0
H143 H 0.6353 0.71099 0.25201 0.0
H144 H 0.63314 0.68625 0.34404 0.0
H145 H 0.60248 0.77278 0.24725 0.0
H146 H 0.60006 0.70278 0.17025 0.0
H147 H 0.58778 0.75728 0.04788 0.0
H148 H 0.55276 0.72291 0.05048 0.0
H149 H 0.61663 0.69373 0.04723 0.0
H150 H 0.60096 0.66124 0.97922 0.0
H151 H 0.56537 0.79461 0.20253 0.0
H152 H 0.61978 0.79569 0.06108 0.0
H153 H 0.53646 0.68997 0.98666 0.0
H154 H 0.55533 0.83178 0.16641 0.0
H155 H 0.61001 0.83281 0.02536 0.0
C156 C 0.18778 0.5916 0.38908 0.0
C157 C 0.18062 0.57473 0.43355 0.0
C158 C 0.20718 0.58954 0.35076 0.0
C159 C 0.22 0.57077 0.35679 0.0
C160 C 0.21404 0.55506 0.40502 0.0
C161 C 0.19449 0.55695 0.44289 0.0
C162 C 0.23728 0.5656 0.30708 0.0
C163 C 0.25847 0.55951 0.3237 0.0
C164 C 0.27362 0.55191 0.27614 0.0
C165 C 0.26726 0.54993 0.21144 0.0
C166 C 0.24627 0.55664 0.1943 0.0
C167 C 0.23154 0.56456 0.24229 0.0
C168 C 0.23836 0.55431 0.12753 0.0
C169 C 0.23041 0.57342 0.09977 0.0
C170 C 0.23437 0.53239 0.09702 0.0
C171 C 0.22073 0.52933 0.04307 0.0
C172 C 0.21096 0.54818 0.01902 0.0
C173 C 0.29595 0.54601 0.29536 0.0
C174 C 0.31067 0.56287 0.32648 0.0
C175 C 0.30189 0.52328 0.28784 0.0
C176 C 0.32193 0.51732 0.31342 0.0
C177 C 0.33648 0.53414 0.34564 0.0
C178 C 0.33085 0.55704 0.35085 0.0
C179 C 0.21695 0.5704 0.04587 0.0
H180 H 0.17781 0.60582 0.38173 0.0
H181 H 0.2116 0.60202 0.31432 0.0
H182 H 0.22356 0.54033 0.41027 0.0
H183 H 0.18945 0.54354 0.47621 0.0
H184 H 0.26306 0.56034 0.37378 0.0
H185 H 0.21495 0.56875 0.22932 0.0
H186 H 0.27869 0.54365 0.17471 0.0
H187 H 0.23334 0.5905 0.12249 0.0
H188 H 0.24015 0.51739 0.11804 0.0
H189 H 0.21638 0.51198 0.0236 0.0
H190 H 0.30632 0.58048 0.33298 0.0
H191 H 0.29063 0.51 0.26441 0.0
H192 H 0.21003 0.58531 0.02767 0.0
H193 H 0.34166 0.57029 0.37599 0.0
H194 H 0.32594 0.49956 0.30872 0.0
C195 C 0.06947 0.19142 0.475 0.0
C196 C 0.0773 0.16953 0.46422 0.0
C197 C 0.07686 0.20955 0.43563 0.0
C198 C 0.09273 0.20647 0.38527 0.0
C199 C 0.10214 0.18521 0.37847 0.0
C200 C 0.09437 0.1669 0.41699 0.0
C201 C 0.09708 0.2242 0.33567 0.0
C202 C 0.0958 0.24768 0.35187 0.0
C203 C 0.09448 0.2638 0.30414 0.0
C204 C 0.09626 0.25656 0.23906 0.0
C205 C 0.09872 0.2333 0.22196 0.0
C206 C 0.09906 0.21733 0.27046 0.0
C207 C 0.09741 0.22445 0.15426 0.0
C208 C 0.0791 0.22874 0.11711 0.0
C209 C 0.11216 0.20844 0.13056 0.0
C210 C 0.10759 0.19553 0.07358 0.0
C211 C 0.08809 0.19826 0.03951 0.0
C212 C 0.08824 0.28726 0.323 0.0
C213 C 0.0709 0.28976 0.36924 0.0
C214 C 0.09907 0.3071 0.2953 0.0
C215 C 0.09286 0.32904 0.31455 0.0
C216 C 0.07554 0.33142 0.36111 0.0
C217 C 0.06468 0.31152 0.38815 0.0
C218 C 0.07443 0.2157 0.06031 0.0
H219 H 0.05682 0.19434 0.51211 0.0
H220 H 0.06901 0.22552 0.44255 0.0
H221 H 0.1148 0.18233 0.34135 0.0
H222 H 0.10087 0.15035 0.40699 0.0
H223 H 0.0947 0.25335 0.40198 0.0
H224 H 0.09899 0.19916 0.25678 0.0
H225 H 0.09465 0.2687 0.20186 0.0
H226 H 0.06738 0.24087 0.13445 0.0
H227 H 0.12644 0.20488 0.15828 0.0
H228 H 0.11838 0.18216 0.05909 0.0
H229 H 0.06194 0.2748 0.3907 0.0
H230 H 0.11248 0.30564 0.2595 0.0
H231 H 0.0594 0.21833 0.03463 0.0
H232 H 0.0515 0.31274 0.42477 0.0
H233 H 0.10146 0.3441 0.29269 0.0
C234 C 0.32653 0.99326 0.41333 0.0
C235 C 0.34779 0.00553 0.40352 0.0
C236 C 0.3085 0.99667 0.37464 0.0
C237 C 0.31118 0.0127 0.32583 0.0
C238 C 0.33198 0.0261 0.31902 0.0
C239 C 0.35011 0.02242 0.35692 0.0
C240 C 0.2932 0.01384 0.27836 0.0
C241 C 0.27029 0.01088 0.29658 0.0
C242 C 0.25339 0.00956 0.25035 0.0
C243 C 0.25965 0.01176 0.18496 0.0
C244 C 0.28256 0.01525 0.16652 0.0
C245 C 0.29907 0.01616 0.21323 0.0
C246 C 0.29031 0.0161 0.09865 0.0
C247 C 0.28814 0.99598 0.05896 0.0
C248 C 0.30479 0.03509 0.07912 0.0
C249 C 0.31853 0.03327 0.02407 0.0
C250 C 0.31815 0.01232 0.98769 0.0
C251 C 0.22938 0.00545 0.27151 0.0
C252 C 0.223 0.98887 0.31729 0.0
C253 C 0.21304 0.01894 0.2498 0.0
C254 C 0.191 0.01663 0.27577 0.0
C255 C 0.18489 0.00065 0.32354 0.0
C256 C 0.20106 0.98651 0.34301 0.0
C257 C 0.30199 0.99409 0.00383 0.0
H258 H 0.32392 0.98054 0.44986 0.0
H259 H 0.29278 0.98595 0.38121 0.0
H260 H 0.33452 0.03898 0.28287 0.0
H261 H 0.36618 0.03217 0.34756 0.0
H262 H 0.26554 0.00959 0.347 0.0
H263 H 0.31669 0.01757 0.19794 0.0
H264 H 0.24689 0.01041 0.14868 0.0
H265 H 0.27726 0.98103 0.07356 0.0
H266 H 0.30686 0.05069 0.1095 0.0
H267 H 0.33083 0.04761 0.01351 0.0
H268 H 0.23517 0.97801 0.33433 0.0
H269 H 0.2175 0.03188 0.21463 0.0
H270 H 0.30105 0.97785 0.97619 0.0
H271 H 0.19705 0.9742 0.38011 0.0
H272 H 0.17886 0.02759 0.25921 0.0
C273 C 0.38535 0.29956 0.02949 0.0
C274 C 0.40276 0.30056 0.98224 0.0
C275 C 0.38598 0.28521 0.0813 0.0
C276 C 0.40384 0.27137 0.08632 0.0
C277 C 0.41955 0.27007 0.03505 0.0
C278 C 0.41907 0.2846 0.98345 0.0
C279 C 0.41005 0.26444 0.15037 0.0
C280 C 0.4139 0.24163 0.1628 0.0
C281 C 0.42372 0.23681 0.22076 0.0
C282 C 0.43016 0.25499 0.26506 0.0
C283 C 0.42661 0.27782 0.25271 0.0
C284 C 0.41576 0.28216 0.19636 0.0
C285 C 0.43624 0.2974 0.29472 0.0
C286 C 0.43633 0.29595 0.36193 0.0
C287 C 0.44624 0.31759 0.26695 0.0
C288 C 0.45591 0.33588 0.30509 0.0
C289 C 0.45636 0.3344 0.37214 0.0
C290 C 0.4285 0.21312 0.235 0.0
C291 C 0.41099 0.19528 0.23931 0.0
C292 C 0.45039 0.20892 0.25128 0.0
C293 C 0.45456 0.18763 0.27428 0.0
C294 C 0.43687 0.17012 0.28209 0.0
C295 C 0.4151 0.17398 0.26315 0.0
C296 C 0.44633 0.31425 0.40026 0.0
H297 H 0.37222 0.31119 0.02915 0.0
H298 H 0.37371 0.28652 0.12044 0.0
H299 H 0.43365 0.25976 0.03826 0.0
H300 H 0.43277 0.28488 0.94807 0.0
H301 H 0.40998 0.22791 0.12692 0.0
H302 H 0.41294 0.29974 0.18614 0.0
H303 H 0.43864 0.25134 0.30825 0.0
H304 H 0.42866 0.28071 0.38494 0.0
H305 H 0.44699 0.31922 0.21535 0.0
H306 H 0.463 0.35127 0.28168 0.0
H307 H 0.39395 0.19821 0.2273 0.0
H308 H 0.46416 0.22243 0.24824 0.0
H309 H 0.44647 0.31246 0.45174 0.0
H310 H 0.40119 0.16074 0.26826 0.0
H311 H 0.47145 0.18532 0.28904 0.0
Tb312 Tb 0.9931 0.97806 0.63894 0.0
C313 C 0.04383 0.99482 0.60555 0.0
Tb314 Tb 0.01801 0.01529 0.72921 0.0
O315 O 0.99391 0.0028 0.56288 0.0
O316 O 0.99308 0.01399 0.65905 0.0
O317 O 0.02679 0.9787 0.59499 0.0
C318 C 0.03772 0.05432 0.78294 0.0
O319 O 0.04364 0.01083 0.65322 0.0
C320 C 0.01702 0.9725 0.76571 0.0
C321 C 0.96822 0.99787 0.76285 0.0
O322 O 0.03427 0.05064 0.72205 0.0
O323 O 0.03037 0.03599 0.81309 0.0
O324 O 0.01985 0.99049 0.80458 0.0
O325 O 0.01789 0.97945 0.70938 0.0
O326 O 0.98319 0.01633 0.76349 0.0
O327 O 0.97055 0.97964 0.72352 0.0
C328 C 0.97047 0.94015 0.58804 0.0
O329 O 0.96312 0.96045 0.59348 0.0
O330 O 0.99066 0.94132 0.61027 0.0
C331 C 0.9953 0.02073 0.60247 0.0
Tb332 Tb 0.50303 0.02246 0.64553 0.0
C333 C 0.54924 0.00099 0.62547 0.0
Tb334 Tb 0.51262 0.98189 0.73024 0.0
O335 O 0.52978 0.0454 0.69005 0.0
O336 O 0.5133 0.01828 0.74014 0.0
O337 O 0.5344 0.01327 0.59944 0.0
C338 C 0.52822 0.95333 0.81155 0.0
O339 O 0.54475 0.98896 0.67791 0.0
C340 C 0.48573 0.97121 0.63355 0.0
C341 C 0.46671 0.00329 0.75068 0.0
O342 O 0.52626 0.97511 0.82348 0.0
O343 O 0.52143 0.94767 0.75395 0.0
O344 O 0.48501 0.95985 0.68598 0.0
O345 O 0.50245 0.98618 0.63557 0.0
O346 O 0.48218 0.99243 0.77885 0.0
O347 O 0.47067 0.01371 0.69537 0.0
C348 C 0.48596 0.05019 0.56466 0.0
O349 O 0.48671 0.05354 0.62659 0.0
O350 O 0.49509 0.03138 0.54818 0.0
C351 C 0.52971 0.03365 0.74164 0.0
Tb352 Tb 0.51739 0.52202 0.66327 0.0
C353 C 0.46841 0.50776 0.61642 0.0
Tb354 Tb 0.48832 0.48266 0.73219 0.0
O355 O 0.51846 0.50074 0.57432 0.0
O356 O 0.51517 0.48555 0.66338 0.0
O357 O 0.48492 0.52473 0.62102 0.0
C358 C 0.46443 0.4434 0.76438 0.0
O359 O 0.46788 0.48867 0.64962 0.0
C360 C 0.49068 0.52354 0.79106 0.0
C361 C 0.53737 0.49707 0.77935 0.0
O362 O 0.45765 0.46392 0.77216 0.0
O363 O 0.4846 0.44509 0.73884 0.0
O364 O 0.48727 0.50434 0.82098 0.0
O365 O 0.49052 0.51896 0.7316 0.0
O366 O 0.52059 0.48031 0.77637 0.0
O367 O 0.53808 0.51588 0.74493 0.0
C368 C 0.54125 0.56104 0.62897 0.0
O369 O 0.54805 0.54052 0.6226 0.0
O370 O 0.5211 0.55952 0.6546 0.0
C371 C 0.51498 0.48144 0.60361 0.0
Tb372 Tb 0.98681 0.50564 0.6315 0.0
C373 C 0.0239 0.4721 0.59433 0.0
Tb374 Tb 0.02859 0.50733 0.71677 0.0
O375 O 0.00774 0.52085 0.55351 0.0
O376 O 0.01607 0.52853 0.64926 0.0
O377 O 0.00263 0.47653 0.58731 0.0
C378 C 0.06941 0.51252 0.76857 0.0
O379 O 0.03715 0.4827 0.63915 0.0
C380 C 0.99276 0.48136 0.75581 0.0
C381 C 0.99159 0.5403 0.7533 0.0
O382 O 0.0653 0.51633 0.70934 0.0
O383 O 0.05064 0.50573 0.79801 0.0
O384 O 0.00776 0.49135 0.79418 0.0
O385 O 0.99948 0.48457 0.69892 0.0
O386 O 0.01364 0.53827 0.75281 0.0
O387 O 0.97765 0.52751 0.71454 0.0
C388 C 0.94513 0.50047 0.58515 0.0
O389 O 0.96097 0.51618 0.56889 0.0
O390 O 0.9528 0.48766 0.6272 0.0
C391 C 0.02267 0.53114 0.59188 0.0
H392 H 0.16081 0.03672 0.36276 0.0
H393 H 0.15799 0.96227 0.35956 0.0
H394 H 0.12569 0.03528 0.42619 0.0
H395 H 0.12343 0.96089 0.42537 0.0
H396 H 0.05141 0.96558 0.50199 0.0
H397 H 0.08392 0.96731 0.42789 0.0
H398 H 0.11423 0.02683 0.53542 0.0
H399 H 0.0816 0.02549 0.60848 0.0
C400 C 0.15256 0.02002 0.37486 0.0
C401 C 0.1623 0.99961 0.35632 0.0
C402 C 0.13258 0.01922 0.41203 0.0
C403 C 0.12187 0.99799 0.43159 0.0
C404 C 0.13115 0.97753 0.41095 0.0
C405 C 0.1511 0.97833 0.37372 0.0
C406 C 0.06501 0.97902 0.50995 0.0
C407 C 0.0639 0.9953 0.56155 0.0
C408 C 0.08369 0.97997 0.46749 0.0
C409 C 0.10168 0.99724 0.47556 0.0
C410 C 0.10053 0.01352 0.52712 0.0
C411 C 0.08188 0.01259 0.5695 0.0
H412 H 0.41128 0.14915 0.37774 0.0
H413 H 0.4721 0.1435 0.26236 0.0
H414 H 0.42082 0.11768 0.44257 0.0
H415 H 0.48188 0.11237 0.32797 0.0
H416 H 0.48533 0.04589 0.43389 0.0
H417 H 0.4708 0.07219 0.3601 0.0
H418 H 0.45053 0.11509 0.52191 0.0
H419 H 0.46494 0.08877 0.59533 0.0
C420 C 0.42645 0.14088 0.36541 0.0
C421 C 0.441 0.14887 0.31512 0.0
C422 C 0.43204 0.12304 0.40299 0.0
C423 C 0.45221 0.1127 0.3908 0.0
C424 C 0.46616 0.11989 0.33841 0.0
C425 C 0.46065 0.13783 0.30112 0.0
C426 C 0.47767 0.0609 0.4535 0.0
C427 C 0.4764 0.06545 0.52017 0.0
C428 C 0.4694 0.07596 0.41134 0.0
C429 C 0.45953 0.09572 0.43516 0.0
C430 C 0.45778 0.09987 0.50204 0.0
C431 C 0.46618 0.08492 0.54409 0.0
H432 H 0.37938 0.55485 0.33543 0.0
H433 H 0.3393 0.49952 0.42809 0.0
H434 H 0.41211 0.54695 0.39544 0.0
H435 H 0.37165 0.49214 0.4905 0.0
H436 H 0.43827 0.47394 0.56505 0.0
H437 H 0.40759 0.47858 0.49312 0.0
H438 H 0.42526 0.55242 0.5 0.0
H439 H 0.45635 0.5476 0.56925 0.0
C440 C 0.37765 0.54095 0.36867 0.0
C441 C 0.35685 0.52782 0.37727 0.0
C442 C 0.39633 0.5365 0.4035 0.0
C443 C 0.39455 0.51908 0.4487 0.0
C444 C 0.37383 0.50549 0.45571 0.0
C445 C 0.35523 0.50973 0.42007 0.0
C446 C 0.43558 0.49114 0.55098 0.0
C447 C 0.44973 0.5104 0.57287 0.0
C448 C 0.41793 0.49383 0.5099 0.0
C449 C 0.41386 0.51589 0.49039 0.0
C450 C 0.42809 0.5351 0.51257 0.0
C451 C 0.44588 0.53237 0.55284 0.0
H452 H 0.0329 0.34388 0.38187 0.0
H453 H 0.1029 0.37083 0.39059 0.0
H454 H 0.02165 0.37954 0.43212 0.0
H455 H 0.09156 0.40717 0.43854 0.0
H456 H 0.00514 0.45103 0.48637 0.0
H457 H 0.01887 0.41963 0.4201 0.0
H458 H 0.0765 0.41996 0.54139 0.0
H459 H 0.06313 0.45186 0.60654 0.0
C460 C 0.04588 0.35759 0.39383 0.0
C461 C 0.0688 0.35443 0.38307 0.0
C462 C 0.03942 0.37818 0.42198 0.0
C463 C 0.0557 0.39623 0.43974 0.0
C464 C 0.07861 0.39348 0.42629 0.0
C465 C 0.0851 0.37278 0.39813 0.0
C466 C 0.02081 0.44451 0.49875 0.0
C467 C 0.03289 0.45379 0.55226 0.0
C468 C 0.02866 0.42645 0.46078 0.0
C469 C 0.0487 0.41711 0.47567 0.0
C470 C 0.06115 0.42689 0.52802 0.0
C471 C 0.05337 0.44508 0.56575 0.0
H472 H 0.8322 0.98691 0.9202 0.0
H473 H 0.87213 0.0057 0.08761 0.0
H474 H 0.86642 0.98658 0.85397 0.0
H475 H 0.90651 0.00596 0.02027 0.0
H476 H 0.95847 0.02996 0.85747 0.0
H477 H 0.92521 0.02904 0.92931 0.0
H478 H 0.89979 0.96367 0.84086 0.0
H479 H 0.93282 0.96451 0.7691 0.0
C480 C 0.84826 0.99065 0.94322 0.0
C481 C 0.84932 0.99611 0.0096 0.0
C482 C 0.8679 0.99057 0.90503 0.0
C483 C 0.88914 0.99618 0.93194 0.0
C484 C 0.89033 0.00176 0.99814 0.0
C485 C 0.87063 0.00164 0.03663 0.0
C486 C 0.94579 0.0154 0.85331 0.0
C487 C 0.94823 0.99743 0.80703 0.0
C488 C 0.92683 0.0148 0.8948 0.0
C489 C 0.90986 0.99634 0.89049 0.0
C490 C 0.91245 0.97827 0.84476 0.0
C491 C 0.93144 0.97876 0.80371 0.0
H492 H 0.53886 0.83957 0.05844 0.0
H493 H 0.60585 0.87521 0.05657 0.0
H494 H 0.52568 0.86953 0.9945 0.0
H495 H 0.59253 0.90535 0.99259 0.0
H496 H 0.55041 0.964 0.92336 0.0
H497 H 0.56326 0.93691 0.99845 0.0
H498 H 0.53635 0.87963 0.87653 0.0
H499 H 0.52393 0.90656 0.8013 0.0
C500 C 0.55064 0.8541 0.04564 0.0
C501 C 0.57338 0.85508 0.06252 0.0
C502 C 0.54314 0.87111 0.00857 0.0
C503 C 0.55814 0.88963 0.98831 0.0
C504 C 0.58062 0.89128 0.00781 0.0
C505 C 0.58824 0.87403 0.04413 0.0
C506 C 0.5473 0.9456 0.9128 0.0
C507 C 0.53618 0.93729 0.85675 0.0
C508 C 0.55468 0.93017 0.95555 0.0
C509 C 0.55061 0.90622 0.94343 0.0
C510 C 0.53944 0.89801 0.88737 0.0
C511 C 0.53246 0.91339 0.84421 0.0
H512 H 0.66901 0.47114 0.89399 0.0
H513 H 0.63281 0.47142 0.07657 0.0
H514 H 0.63551 0.48104 0.84081 0.0
H515 H 0.59898 0.48124 0.02294 0.0
H516 H 0.53939 0.46646 0.87481 0.0
H517 H 0.57206 0.46029 0.93802 0.0
H518 H 0.61144 0.51516 0.84123 0.0
H519 H 0.57889 0.52152 0.7783 0.0
C520 C 0.65382 0.47331 0.92268 0.0
C521 C 0.65341 0.47039 0.98928 0.0
C522 C 0.63473 0.47916 0.89235 0.0
C523 C 0.61468 0.48194 0.92779 0.0
C524 C 0.61422 0.4791 0.99453 0.0
C525 C 0.63353 0.47361 0.02517 0.0
C526 C 0.55496 0.47734 0.86735 0.0
C527 C 0.55657 0.49435 0.82107 0.0
C528 C 0.5736 0.47389 0.90388 0.0
C529 C 0.59428 0.48717 0.89424 0.0
C530 C 0.59573 0.50456 0.84923 0.0
C531 C 0.57705 0.50823 0.81336 0.0
H532 H 0.90427 0.63629 0.92981 0.0
H533 H 0.96694 0.65324 0.02804 0.0
H534 H 0.92044 0.60469 0.87137 0.0
H535 H 0.98253 0.62037 0.9735 0.0
H536 H 0.01309 0.58026 0.80369 0.0
H537 H 0.99675 0.60975 0.87182 0.0
H538 H 0.93262 0.56802 0.87354 0.0
H539 H 0.94876 0.53925 0.80268 0.0
C540 C 0.92143 0.63313 0.93958 0.0
C541 C 0.93435 0.64761 0.9831 0.0
C542 C 0.93064 0.6147 0.90667 0.0
C543 C 0.95293 0.60995 0.91716 0.0
C544 C 0.96548 0.62374 0.96305 0.0
C545 C 0.95637 0.64241 0.9953 0.0
C546 C 0.99552 0.57743 0.81885 0.0
C547 C 0.98212 0.55765 0.79728 0.0
C548 C 0.98615 0.59424 0.8584 0.0
C549 C 0.96326 0.59141 0.87824 0.0
C550 C 0.95013 0.57114 0.85815 0.0
C551 C 0.95939 0.55457 0.81767 0.0
H552 H 0.03254 0.16107 0.49798 0.0
H553 H 0.09625 0.13123 0.50331 0.0
H554 H 0.0132 0.1259 0.53907 0.0
H555 H 0.07642 0.09554 0.54163 0.0
H556 H 0.02584 0.02948 0.50552 0.0
H557 H 0.04693 0.06636 0.48209 0.0
H558 H 0.01164 0.09961 0.6388 0.0
H559 H 0.99069 0.06242 0.66298 0.0
C560 C 0.04257 0.1473 0.50922 0.0
C561 C 0.06606 0.14909 0.49691 0.0
C562 C 0.03138 0.12707 0.53245 0.0
C563 C 0.04332 0.10803 0.5429 0.0
C564 C 0.06684 0.10996 0.53311 0.0
C565 C 0.07813 0.13036 0.51087 0.0
C566 C 0.02247 0.04471 0.5346 0.0
C567 C 0.0066 0.04328 0.58574 0.0
C568 C 0.03473 0.0657 0.52175 0.0
C569 C 0.03099 0.08571 0.55901 0.0
C570 C 0.01478 0.08438 0.60945 0.0
C571 C 0.00278 0.06324 0.62304 0.0
H572 H 0.35748 0.96291 0.43954 0.0
H573 H 0.38375 0.03488 0.44624 0.0
H574 H 0.39084 0.9531 0.49312 0.0
H575 H 0.41763 0.02463 0.49687 0.0
H576 H 0.48441 0.98974 0.51634 0.0
H577 H 0.45065 0.99855 0.46103 0.0
H578 H 0.40861 0.96366 0.60608 0.0
H579 H 0.44223 0.95595 0.6628 0.0
C580 C 0.37017 0.97671 0.45297 0.0
C581 C 0.36777 0.99975 0.43864 0.0
C582 C 0.38936 0.97099 0.48309 0.0
C583 C 0.40676 0.98809 0.49849 0.0
C584 C 0.40451 0.0111 0.48452 0.0
C585 C 0.38512 0.01691 0.4554 0.0
C586 C 0.46792 0.98426 0.53651 0.0
C587 C 0.46583 0.97282 0.59447 0.0
C588 C 0.44869 0.98913 0.50487 0.0
C589 C 0.42713 0.98199 0.52991 0.0
C590 C 0.42508 0.96933 0.58591 0.0
C591 C 0.4443 0.96483 0.61808 0.0
H592 H 0.44274 0.35113 0.49116 0.0
H593 H 0.49471 0.36212 0.34315 0.0
H594 H 0.45899 0.38559 0.55082 0.0
H595 H 0.50999 0.39702 0.40135 0.0
H596 H 0.50197 0.47322 0.48062 0.0
H597 H 0.48941 0.43601 0.4283 0.0
H598 H 0.50025 0.40166 0.60258 0.0
H599 H 0.51418 0.43887 0.65381 0.0
C600 C 0.45774 0.36063 0.4717 0.0
C601 C 0.46719 0.35401 0.41178 0.0
C602 C 0.46694 0.38037 0.50576 0.0
C603 C 0.48552 0.39394 0.48005 0.0
C604 C 0.49546 0.38693 0.42156 0.0
C605 C 0.48656 0.36705 0.38813 0.0
C606 C 0.50188 0.4577 0.50753 0.0
C607 C 0.50847 0.45887 0.57174 0.0
C608 C 0.49468 0.43649 0.4777 0.0
C609 C 0.49372 0.41614 0.51181 0.0
C610 C 0.50056 0.41723 0.57579 0.0
C611 C 0.50825 0.43844 0.6052 0.0
H612 H 0.16691 0.56235 0.55578 0.0
H613 H 0.14188 0.58447 0.37817 0.0
H614 H 0.12815 0.55469 0.59663 0.0
H615 H 0.10348 0.57789 0.42009 0.0
H616 H 0.04184 0.52811 0.47274 0.0
H617 H 0.07991 0.5423 0.43887 0.0
H618 H 0.09253 0.57118 0.63042 0.0
H619 H 0.05414 0.55686 0.66428 0.0
C620 C 0.15321 0.56596 0.52591 0.0
C621 C 0.15757 0.57385 0.46346 0.0
C622 C 0.13101 0.56179 0.54957 0.0
C623 C 0.11276 0.56542 0.51121 0.0
C624 C 0.11718 0.57456 0.45038 0.0
C625 C 0.13928 0.57866 0.42672 0.0
C626 C 0.05266 0.5377 0.50742 0.0
C627 C 0.0452 0.54121 0.57121 0.0
C628 C 0.07444 0.54593 0.48801 0.0
C629 C 0.08924 0.55792 0.53195 0.0
C630 C 0.08159 0.56182 0.59564 0.0
C631 C 0.05967 0.55366 0.61497 0.0
H632 H 0.96644 0.83095 0.84684 0.0
H633 H 0.91563 0.87379 0.92071 0.0
H634 H 0.98768 0.86467 0.80079 0.0
H635 H 0.93613 0.90735 0.87262 0.0
H636 H 0.99281 0.96452 0.87568 0.0
H637 H 0.97012 0.9294 0.90413 0.0
H638 H 0.99113 0.89567 0.72633 0.0
H639 H 0.01511 0.93081 0.7 0.0
C640 C 0.95947 0.84748 0.85102 0.0
C641 C 0.93957 0.84999 0.88723 0.0
C642 C 0.97159 0.86678 0.82482 0.0
C643 C 0.96384 0.88879 0.83429 0.0
C644 C 0.94289 0.89076 0.86606 0.0
C645 C 0.93099 0.87158 0.8929 0.0
C646 C 0.99282 0.94951 0.84308 0.0
C647 C 0.00531 0.9504 0.78502 0.0
C648 C 0.9795 0.92949 0.85878 0.0
C649 C 0.97833 0.90987 0.81671 0.0
C650 C 0.99152 0.91052 0.75955 0.0
C651 C 0.00502 0.93063 0.74408 0.0
H652 H 0.62946 0.03461 0.03832 0.0
H653 H 0.66359 0.01346 0.86273 0.0
H654 H 0.59531 0.03771 0.97928 0.0
H655 H 0.62907 0.01562 0.80404 0.0
H656 H 0.57284 0.04826 0.70862 0.0
H657 H 0.60661 0.04528 0.76954 0.0
H658 H 0.56555 0.01423 0.92323 0.0
H659 H 0.53159 0.01821 0.86281 0.0
C660 C 0.62968 0.03066 0.98704 0.0
C661 C 0.64931 0.02403 0.95505 0.0
C662 C 0.61001 0.03214 0.9534 0.0
C663 C 0.60949 0.02698 0.88698 0.0
C664 C 0.62902 0.02002 0.85508 0.0
C665 C 0.64873 0.01855 0.88877 0.0
C666 C 0.57104 0.04105 0.75576 0.0
C667 C 0.54971 0.03317 0.78095 0.0
C668 C 0.59039 0.03906 0.79027 0.0
C669 C 0.5888 0.02927 0.85088 0.0
C670 C 0.56734 0.02191 0.87672 0.0
C671 C 0.54794 0.02394 0.84205 0.0
H672 H 0.5773 0.62803 0.99114 0.0
H673 H 0.53243 0.66806 0.89284 0.0
H674 H 0.5585 0.59288 0.94465 0.0
H675 H 0.51202 0.63273 0.85207 0.0
H676 H 0.49166 0.5657 0.74025 0.0
H677 H 0.51149 0.60166 0.78072 0.0
H678 H 0.52614 0.56815 0.95413 0.0
H679 H 0.50841 0.53173 0.90965 0.0
C680 C 0.5635 0.62945 0.95938 0.0
C681 C 0.55648 0.6511 0.94605 0.0
C682 C 0.5523 0.60912 0.9338 0.0
C683 C 0.53338 0.60975 0.89533 0.0
C684 C 0.52659 0.6314 0.88102 0.0
C685 C 0.53813 0.65178 0.9054 0.0
C686 C 0.49963 0.56605 0.78631 0.0
C687 C 0.49933 0.54589 0.82071 0.0
C688 C 0.51061 0.58676 0.81032 0.0
C689 C 0.52085 0.58791 0.87055 0.0
C690 C 0.51919 0.56787 0.90669 0.0
C691 C 0.50868 0.54704 0.88179 0.0
H692 H 0.85558 0.48777 0.88772 0.0
H693 H 0.86016 0.41443 0.85809 0.0
H694 H 0.89375 0.49542 0.84392 0.0
H695 H 0.89877 0.42218 0.81552 0.0
H696 H 0.96266 0.45004 0.69554 0.0
H697 H 0.92264 0.44103 0.725 0.0
H698 H 0.93058 0.48828 0.8902 0.0
H699 H 0.97022 0.49734 0.8604 0.0
C700 C 0.86454 0.47328 0.87056 0.0
C701 C 0.85486 0.45048 0.8766 0.0
C702 C 0.88651 0.47768 0.84624 0.0
C703 C 0.8993 0.45939 0.82731 0.0
C704 C 0.88926 0.4366 0.82983 0.0
C705 C 0.86725 0.43218 0.85452 0.0
C706 C 0.95572 0.45837 0.73818 0.0
C707 C 0.96931 0.47446 0.77554 0.0
C708 C 0.93294 0.4532 0.75508 0.0
C709 C 0.92348 0.46418 0.8094 0.0
C710 C 0.93733 0.47986 0.84744 0.0
C711 C 0.96005 0.48485 0.83086 0.0
H712 H 0.04593 0.17648 0.0281 0.0
H713 H 0.11266 0.17948 0.93985 0.0
H714 H 0.03418 0.14289 0.95922 0.0
H715 H 0.10069 0.14559 0.87048 0.0
H716 H 0.05657 0.0935 0.72632 0.0
H717 H 0.06902 0.13074 0.78066 0.0
H718 H 0.04996 0.10196 0.96402 0.0
H719 H 0.03805 0.06494 0.91047 0.0
C720 C 0.05792 0.17039 0.99271 0.0
C721 C 0.08024 0.18064 0.98943 0.0
C722 C 0.05122 0.15103 0.95373 0.0
C723 C 0.0666 0.14161 0.9101 0.0
C724 C 0.08854 0.15261 0.90374 0.0
C725 C 0.09537 0.17188 0.94351 0.0
C726 C 0.05528 0.09517 0.77826 0.0
C727 C 0.04639 0.07642 0.81436 0.0
C728 C 0.06238 0.11639 0.80917 0.0
C729 C 0.06021 0.11918 0.87632 0.0
C730 C 0.05155 0.1003 0.91212 0.0
C731 C 0.04486 0.07911 0.88151 0.0
H732 H 0.33768 0.04223 0.89911 0.0
H733 H 0.34145 0.97425 0.971 0.0
H734 H 0.37281 0.0388 0.83771 0.0
H735 H 0.376 0.97048 0.90778 0.0
H736 H 0.45211 0.9875 0.86815 0.0
H737 H 0.41454 0.98798 0.91733 0.0
H738 H 0.39164 0.01885 0.74926 0.0
H739 H 0.42928 0.01874 0.70037 0.0
C740 C 0.34575 0.02638 0.90081 0.0
C741 C 0.33679 0.00859 0.94032 0.0
C742 C 0.36582 0.02434 0.86529 0.0
C743 C 0.37738 0.00448 0.86854 0.0
C744 C 0.36773 0.98618 0.90514 0.0
C745 C 0.34769 0.98821 0.9406 0.0
C746 C 0.43908 0.99436 0.84159 0.0
C747 C 0.44382 0.00328 0.78058 0.0
C748 C 0.41746 0.99447 0.86958 0.0
C749 C 0.40005 0.00343 0.83717 0.0
C750 C 0.40473 0.01209 0.77583 0.0
C751 C 0.42634 0.012 0.74784 0.0
H752 H 0.39688 0.34559 0.01329 0.0
H753 H 0.41753 0.30108 0.85547 0.0
H754 H 0.40856 0.37917 0.95183 0.0
H755 H 0.42926 0.33502 0.79326 0.0
H756 H 0.47859 0.40036 0.75523 0.0
H757 H 0.45993 0.3651 0.79875 0.0
H758 H 0.40321 0.40213 0.8622 0.0
H759 H 0.42234 0.4376 0.82016 0.0
C760 C 0.40323 0.34288 0.96458 0.0
C761 C 0.40624 0.32052 0.93945 0.0
C762 C 0.41001 0.36226 0.92921 0.0
C763 C 0.42001 0.35989 0.86763 0.0
C764 C 0.42197 0.3375 0.84101 0.0
C765 C 0.41519 0.31804 0.87655 0.0
C766 C 0.46204 0.40088 0.77799 0.0
C767 C 0.452 0.42172 0.78509 0.0
C768 C 0.45123 0.38061 0.80245 0.0
C769 C 0.43007 0.38073 0.83435 0.0
C770 C 0.41964 0.40147 0.83885 0.0
C771 C 0.43052 0.42177 0.81458 0.0
H772 H 0.20769 0.52006 0.90892 0.0
H773 H 0.17104 0.56709 0.02824 0.0
H774 H 0.17429 0.5112 0.84234 0.0
H775 H 0.13814 0.55832 0.9622 0.0
H776 H 0.07737 0.51013 0.89497 0.0
H777 H 0.11295 0.51921 0.94938 0.0
H778 H 0.14696 0.53338 0.76756 0.0
H779 H 0.11095 0.52455 0.71256 0.0
C780 C 0.19267 0.52869 0.92039 0.0
C781 C 0.19205 0.54436 0.97364 0.0
C782 C 0.17366 0.52371 0.88221 0.0
C783 C 0.15367 0.534 0.89754 0.0
C784 C 0.15331 0.55006 0.94961 0.0
C785 C 0.17226 0.55524 0.98703 0.0
C786 C 0.09242 0.51507 0.86645 0.0
C787 C 0.09142 0.51674 0.79966 0.0
C788 C 0.11276 0.52032 0.89762 0.0
C789 C 0.13262 0.52712 0.86265 0.0
C790 C 0.13186 0.52811 0.79548 0.0
C791 C 0.11132 0.52314 0.76419 0.0
H792 H 0.91981 0.79993 0.46146 0.0
H793 H 0.89489 0.8464 0.33014 0.0
H794 H 0.93454 0.83304 0.52897 0.0
H795 H 0.90959 0.87917 0.39674 0.0
H796 H 0.92751 0.93537 0.54491 0.0
H797 H 0.90726 0.9008 0.49635 0.0
H798 H 0.96527 0.86302 0.52061 0.0
H799 H 0.98514 0.89743 0.57094 0.0
C800 C 0.91723 0.81715 0.44742 0.0
C801 C 0.90611 0.82045 0.39043 0.0
C802 C 0.92574 0.83612 0.48593 0.0
C803 C 0.92338 0.8588 0.46815 0.0
C804 C 0.91142 0.862 0.41264 0.0
C805 C 0.9029 0.8431 0.37437 0.0
C806 C 0.93582 0.9196 0.5402 0.0
C807 C 0.95794 0.91908 0.56094 0.0
C808 C 0.92427 0.89982 0.51225 0.0
C809 C 0.93466 0.87912 0.50418 0.0
C810 C 0.95662 0.87853 0.52675 0.0
C811 C 0.96811 0.8983 0.55499 0.0
H812 H 0.67234 0.97319 0.41919 0.0
H813 H 0.68613 0.04339 0.49432 0.0
H814 H 0.63665 0.96993 0.47945 0.0
H815 H 0.64978 0.04026 0.55223 0.0
H816 H 0.57052 0.03362 0.54879 0.0
H817 H 0.60924 0.03558 0.50584 0.0
H818 H 0.61908 0.97201 0.59555 0.0
H819 H 0.58039 0.97011 0.63935 0.0
C820 C 0.66815 0.98775 0.4498 0.0
C821 C 0.68217 0.00866 0.45117 0.0
C822 C 0.64754 0.98589 0.48395 0.0
C823 C 0.64034 0.00496 0.51956 0.0
C824 C 0.65481 0.02542 0.52413 0.0
C825 C 0.6756 0.02719 0.49084 0.0
C826 C 0.58088 0.02 0.55912 0.0
C827 C 0.57234 0.00162 0.59702 0.0
C828 C 0.60312 0.02127 0.53516 0.0
C829 C 0.61715 0.00402 0.54779 0.0
C830 C 0.60858 0.98552 0.58515 0.0
C831 C 0.58646 0.98445 0.6101 0.0
H832 H 0.58634 0.70096 0.51009 0.0
H833 H 0.60695 0.65285 0.36109 0.0
H834 H 0.57452 0.66869 0.5786 0.0
H835 H 0.59512 0.62091 0.42869 0.0
H836 H 0.58316 0.56629 0.57216 0.0
H837 H 0.60146 0.60077 0.52285 0.0
H838 H 0.54434 0.6381 0.58059 0.0
H839 H 0.52651 0.60385 0.63151 0.0
C840 C 0.58855 0.68356 0.49219 0.0
C841 C 0.59768 0.67955 0.43014 0.0
C842 C 0.58173 0.66506 0.53136 0.0
C843 C 0.58381 0.64215 0.50921 0.0
C844 C 0.59364 0.63828 0.44801 0.0
C845 C 0.60048 0.6567 0.40909 0.0
C846 C 0.57472 0.582 0.57503 0.0
C847 C 0.55335 0.58239 0.605 0.0
C848 C 0.58512 0.60172 0.54652 0.0
C849 C 0.57429 0.6222 0.54708 0.0
C850 C 0.55331 0.62277 0.57972 0.0
C851 C 0.54298 0.60308 0.60849 0.0
H852 H 0.82314 0.50635 0.36833 0.0
H853 H 0.8214 0.43597 0.42759 0.0
H854 H 0.85502 0.51723 0.43662 0.0
H855 H 0.85441 0.44647 0.49183 0.0
H856 H 0.90897 0.4726 0.6283 0.0
H857 H 0.87183 0.46559 0.58078 0.0
H858 H 0.89359 0.51279 0.43156 0.0
H859 H 0.93015 0.52051 0.48117 0.0
C860 C 0.82927 0.49321 0.39664 0.0
C861 C 0.81973 0.47017 0.39158 0.0
C862 C 0.84791 0.4994 0.43505 0.0
C863 C 0.85775 0.48268 0.46884 0.0
C864 C 0.84738 0.45992 0.4668 0.0
C865 C 0.82854 0.45379 0.4291 0.0
C866 C 0.90563 0.4816 0.58567 0.0
C867 C 0.92239 0.49702 0.55816 0.0
C868 C 0.8844 0.47751 0.55816 0.0
C869 C 0.87958 0.48853 0.50198 0.0
C870 C 0.89639 0.50429 0.47539 0.0
C871 C 0.91747 0.50859 0.50345 0.0
loop_
_geom_bond_atom_site_label_1
_geom_bond_atom_site_label_2
_geom_bond_distance
_geom_bond_site_symmetry_2
_ccdc_geom_bond_type
C0 C1 1.386 . S
C0 C2 1.397 . S
C0 H24 0.931 . S
C1 C0 1.386 . S
C1 C5 1.397 . S
C2 C0 1.397 . S
C2 C3 1.384 . S
C2 H25 0.930 . S
C3 C2 1.384 . S
C3 C4 1.377 . S
C3 C6 1.481 1_556 S
C4 C3 1.377 . S
C4 C5 1.389 . S
C4 H26 0.929 . S
C5 C1 1.397 . S
C5 C4 1.389 . S
C5 H27 0.931 . S
C6 C3 1.481 1_554 S
C6 C7 1.387 1_554 S
C6 C11 1.390 . S
C7 C6 1.387 1_556 S
C7 C8 1.401 1_556 S
C7 H28 0.930 . S
C8 C7 1.401 1_554 S
C8 C9 1.376 . S
C8 C17 1.511 . S
C9 C8 1.376 . S
C9 C10 1.392 . S
C9 H30 0.931 . S
C10 C9 1.392 . S
C10 C11 1.361 . S
C10 C12 1.500 . S
C11 C6 1.390 . S
C11 C10 1.361 . S
C11 H29 0.931 . S
C12 C10 1.500 . S
C12 C13 1.371 . S
C12 C14 1.365 . S
C13 C12 1.371 . S
C13 C23 1.386 . S
C13 H31 0.931 . S
C14 C12 1.365 . S
C14 C15 1.409 . S
C14 H32 0.929 . S
C15 C14 1.409 . S
C15 C16 1.380 . S
C15 H33 0.930 . S
C16 C15 1.380 . S
C16 C23 1.357 . S
C17 C8 1.511 . S
C17 C18 1.341 1_554 S
C17 C19 1.371 . S
C18 C17 1.341 1_556 S
C18 C22 1.394 . S
C18 H34 0.930 . S
C19 C17 1.371 . S
C19 C20 1.392 . S
C19 H35 0.931 . S
C20 C19 1.392 . S
C20 C21 1.347 . S
C20 H38 0.932 . S
C21 C20 1.347 . S
C21 C22 1.325 1_554 S
C22 C18 1.394 . S
C22 C21 1.325 1_556 S
C22 H37 0.929 . S
C23 C13 1.386 . S
C23 C16 1.357 . S
C23 H36 0.928 . S
H24 C0 0.931 . S
H25 C2 0.930 . S
H26 C4 0.929 . S
H27 C5 0.931 . S
H28 C7 0.930 . S
H29 C11 0.931 . S
H30 C9 0.931 . S
H31 C13 0.931 . S
H32 C14 0.929 . S
H33 C15 0.930 . S
H34 C18 0.930 . S
H35 C19 0.931 . S
H36 C23 0.928 . S
H37 C22 0.929 . S
H38 C20 0.932 . S
C39 C40 1.386 . S
C39 C41 1.397 . S
C39 H63 0.931 . S
C40 C39 1.386 . S
C40 C44 1.397 . S
C41 C39 1.397 . S
C41 C42 1.384 . S
C41 H64 0.930 . S
C42 C41 1.384 . S
C42 C43 1.377 . S
C42 C45 1.481 . S
C43 C42 1.377 . S
C43 C44 1.389 . S
C43 H65 0.929 . S
C44 C40 1.397 . S
C44 C43 1.389 . S
C44 H66 0.931 . S
C45 C42 1.481 . S
C45 C46 1.387 . S
C45 C50 1.390 1_556 S
C46 C45 1.387 . S
C46 C47 1.401 1_556 S
C46 H67 0.930 . S
C47 C46 1.401 1_554 S
C47 C48 1.376 . S
C47 C56 1.511 1_554 S
C48 C47 1.376 . S
C48 C49 1.392 . S
C48 H69 0.931 . S
C49 C48 1.392 . S
C49 C50 1.361 . S
C49 C51 1.500 . S
C50 C45 1.390 1_554 S
C50 C49 1.361 . S
C50 H68 0.931 . S
C51 C49 1.500 . S
C51 C52 1.371 . S
C51 C53 1.365 . S
C52 C51 1.371 . S
C52 C62 1.386 . S
C52 H70 0.931 . S
C53 C51 1.365 . S
C53 C54 1.409 . S
C53 H71 0.929 . S
C54 C53 1.409 . S
C54 C55 1.380 . S
C54 H72 0.930 . S
C55 C54 1.380 . S
C55 C62 1.357 . S
C56 C47 1.511 1_556 S
C56 C57 1.341 . S
C56 C58 1.371 1_556 S
C57 C56 1.341 . S
C57 C61 1.394 . S
C57 H73 0.930 . S
C58 C56 1.371 1_554 S
C58 C59 1.392 . S
C58 H74 0.931 . S
C59 C58 1.392 . S
C59 C60 1.331 1_554 S
C59 H77 0.932 . S
C60 C59 1.331 1_556 S
C60 C61 1.336 . S
C61 C57 1.394 . S
C61 C60 1.336 . S
C61 H76 0.929 . S
C62 C52 1.386 . S
C62 C55 1.357 . S
C62 H75 0.928 . S
H63 C39 0.931 . S
H64 C41 0.930 . S
H65 C43 0.929 . S
H66 C44 0.931 . S
H67 C46 0.930 . S
H68 C50 0.931 . S
H69 C48 0.931 . S
H70 C52 0.931 . S
H71 C53 0.929 . S
H72 C54 0.930 . S
H73 C57 0.930 . S
H74 C58 0.931 . S
H75 C62 0.928 . S
H76 C61 0.929 . S
H77 C59 0.932 . S
C78 C79 1.395 . S
C78 C80 1.397 . S
C78 H102 0.931 . S
C79 C78 1.395 . S
C79 C83 1.389 1_565 S
C80 C78 1.397 . S
C80 C81 1.388 . S
C80 H103 0.930 . S
C81 C80 1.388 . S
C81 C82 1.372 1_566 S
C81 C84 1.478 1_556 S
C82 C81 1.372 1_544 S
C82 C83 1.389 1_554 S
C82 H104 0.929 . S
C83 C79 1.389 1_545 S
C83 C82 1.389 1_556 S
C83 H105 0.931 . S
C84 C81 1.478 1_554 S
C84 C85 1.391 . S
C84 C89 1.391 . S
C85 C84 1.391 . S
C85 C86 1.399 . S
C85 H106 0.930 1_554 S
C86 C85 1.399 . S
C86 C87 1.376 . S
C86 C95 1.515 . S
C87 C86 1.376 . S
C87 C88 1.388 . S
C87 H108 0.939 . S
C88 C87 1.388 . S
C88 C89 1.362 . S
C88 C90 1.499 1_565 S
C89 C84 1.391 . S
C89 C88 1.362 . S
C89 H107 0.930 . S
C90 C88 1.499 1_545 S
C90 C91 1.360 1_545 S
C90 C92 1.376 . S
C91 C90 1.360 1_565 S
C91 C101 1.386 . S
C91 H109 0.931 . S
C92 C90 1.376 . S
C92 C93 1.409 . S
C92 H110 0.929 . S
C93 C92 1.409 . S
C93 C94 1.379 . S
C93 H111 0.930 . S
C94 C93 1.379 . S
C94 C101 1.358 1_545 S
C95 C86 1.515 . S
C95 C96 1.341 . S
C95 C97 1.371 1_565 S
C96 C95 1.341 . S
C96 C100 1.394 1_554 S
C96 H112 0.930 1_554 S
C97 C95 1.371 1_545 S
C97 C98 1.392 . S
C97 H113 0.931 . S
C98 C97 1.392 . S
C98 C99 1.323 1_545 S
C98 H116 0.932 . S
C99 C98 1.323 1_565 S
C99 C100 1.342 1_554 S
C100 C96 1.394 1_556 S
C100 C99 1.342 1_556 S
C100 H115 0.929 . S
C101 C91 1.386 . S
C101 C94 1.358 1_565 S
C101 H114 0.928 . S
H102 C78 0.931 . S
H103 C80 0.930 . S
H104 C82 0.929 . S
H105 C83 0.931 . S
H106 C85 0.930 1_556 S
H107 C89 0.930 . S
H108 C87 0.939 . S
H109 C91 0.931 . S
H110 C92 0.929 . S
H111 C93 0.930 . S
H112 C96 0.930 1_556 S
H113 C97 0.931 . S
H114 C101 0.928 . S
H115 C100 0.929 . S
H116 C98 0.932 . S
C117 C118 1.386 . S
C117 C119 1.397 . S
C117 H141 0.931 . S
C118 C117 1.386 . S
C118 C122 1.397 . S
C119 C117 1.397 . S
C119 C120 1.384 . S
C119 H142 0.930 . S
C120 C119 1.384 . S
C120 C121 1.377 . S
C120 C123 1.481 . S
C121 C120 1.377 . S
C121 C122 1.389 . S
C121 H143 0.929 . S
C122 C118 1.397 . S
C122 C121 1.389 . S
C122 H144 0.931 . S
C123 C120 1.481 . S
C123 C124 1.387 . S
C123 C128 1.390 . S
C124 C123 1.387 . S
C124 C125 1.401 . S
C124 H145 0.930 . S
C125 C124 1.401 . S
C125 C126 1.376 . S
C125 C134 1.511 . S
C126 C125 1.376 . S
C126 C127 1.392 . S
C126 H147 0.931 1_554 S
C127 C126 1.392 . S
C127 C128 1.361 . S
C127 C129 1.500 1_554 S
C128 C123 1.390 . S
C128 C127 1.361 . S
C128 H146 0.931 . S
C129 C127 1.500 1_556 S
C129 C130 1.371 . S
C129 C131 1.365 . S
C130 C129 1.371 . S
C130 C140 1.386 . S
C130 H148 0.931 . S
C131 C129 1.365 . S
C131 C132 1.409 . S
C131 H149 0.929 1_556 S
C132 C131 1.409 . S
C132 C133 1.380 . S
C132 H150 0.930 . S
C133 C132 1.380 . S
C133 C140 1.357 . S
C134 C125 1.511 . S
C134 C135 1.341 . S
C134 C136 1.371 1_554 S
C135 C134 1.341 . S
C135 C139 1.394 . S
C135 H151 0.930 . S
C136 C134 1.371 1_556 S
C136 C137 1.392 . S
C136 H152 0.931 . S
C137 C136 1.392 . S
C137 C138 1.331 1_556 S
C137 H155 0.932 . S
C138 C137 1.331 1_554 S
C138 C139 1.336 . S
C139 C135 1.394 . S
C139 C138 1.336 . S
C139 H154 0.929 . S
C140 C130 1.386 . S
C140 C133 1.357 . S
C140 H153 0.928 . S
H141 C117 0.931 . S
H142 C119 0.930 . S
H143 C121 0.929 . S
H144 C122 0.931 . S
H145 C124 0.930 . S
H146 C128 0.931 . S
H147 C126 0.931 1_556 S
H148 C130 0.931 . S
H149 C131 0.929 1_554 S
H150 C132 0.930 . S
H151 C135 0.930 . S
H152 C136 0.931 . S
H153 C140 0.928 . S
H154 C139 0.929 . S
H155 C137 0.932 . S
C156 C157 1.386 . S
C156 C158 1.397 . S
C156 H180 0.931 . S
C157 C156 1.386 . S
C157 C161 1.397 . S
C158 C156 1.397 . S
C158 C159 1.384 . S
C158 H181 0.930 . S
C159 C158 1.384 . S
C159 C160 1.377 . S
C159 C162 1.481 . S
C160 C159 1.377 . S
C160 C161 1.389 . S
C160 H182 0.929 . S
C161 C157 1.397 . S
C161 C160 1.389 . S
C161 H183 0.931 . S
C162 C159 1.481 . S
C162 C163 1.387 . S
C162 C167 1.390 . S
C163 C162 1.387 . S
C163 C164 1.401 . S
C163 H184 0.930 . S
C164 C163 1.401 . S
C164 C165 1.376 . S
C164 C173 1.511 . S
C165 C164 1.376 . S
C165 C166 1.392 . S
C165 H186 0.931 . S
C166 C165 1.392 . S
C166 C167 1.361 . S
C166 C168 1.500 . S
C167 C162 1.390 . S
C167 C166 1.361 . S
C167 H185 0.931 . S
C168 C166 1.500 . S
C168 C169 1.371 . S
C168 C170 1.365 . S
C169 C168 1.371 . S
C169 C179 1.386 . S
C169 H187 0.931 . S
C170 C168 1.365 . S
C170 C171 1.409 . S
C170 H188 0.929 . S
C171 C170 1.409 . S
C171 C172 1.380 . S
C171 H189 0.930 . S
C172 C171 1.380 . S
C172 C179 1.357 . S
C173 C164 1.511 . S
C173 C174 1.341 . S
C173 C175 1.371 . S
C174 C173 1.341 . S
C174 C178 1.394 . S
C174 H190 0.930 . S
C175 C173 1.371 . S
C175 C176 1.392 . S
C175 H191 0.931 . S
C176 C175 1.392 . S
C176 C177 1.331 . S
C176 H194 0.932 . S
C177 C176 1.331 . S
C177 C178 1.336 . S
C178 C174 1.394 . S
C178 C177 1.336 . S
C178 H193 0.929 . S
C179 C169 1.386 . S
C179 C172 1.357 . S
C179 H192 0.928 . S
H180 C156 0.931 . S
H181 C158 0.930 . S
H182 C160 0.929 . S
H183 C161 0.931 . S
H184 C163 0.930 . S
H185 C167 0.931 . S
H186 C165 0.931 . S
H187 C169 0.931 . S
H188 C170 0.929 . S
H189 C171 0.930 . S
H190 C174 0.930 . S
H191 C175 0.931 . S
H192 C179 0.928 . S
H193 C178 0.929 . S
H194 C176 0.932 . S
C195 C196 1.386 . S
C195 C197 1.397 . S
C195 H219 0.931 . S
C196 C195 1.386 . S
C196 C200 1.397 . S
C197 C195 1.397 . S
C197 C198 1.384 . S
C197 H220 0.930 . S
C198 C197 1.384 . S
C198 C199 1.377 . S
C198 C201 1.481 . S
C199 C198 1.377 . S
C199 C200 1.389 . S
C199 H221 0.929 . S
C200 C196 1.397 . S
C200 C199 1.389 . S
C200 H222 0.931 . S
C201 C198 1.481 . S
C201 C202 1.387 . S
C201 C206 1.390 . S
C202 C201 1.387 . S
C202 C203 1.401 . S
C202 H223 0.930 . S
C203 C202 1.401 . S
C203 C204 1.376 . S
C203 C212 1.511 . S
C204 C203 1.376 . S
C204 C205 1.392 . S
C204 H225 0.931 . S
C205 C204 1.392 . S
C205 C206 1.361 . S
C205 C207 1.500 . S
C206 C201 1.390 . S
C206 C205 1.361 . S
C206 H224 0.931 . S
C207 C205 1.500 . S
C207 C208 1.371 . S
C207 C209 1.365 . S
C208 C207 1.371 . S
C208 C218 1.386 . S
C208 H226 0.931 . S
C209 C207 1.365 . S
C209 C210 1.409 . S
C209 H227 0.929 . S
C210 C209 1.409 . S
C210 C211 1.380 . S
C210 H228 0.930 . S
C211 C210 1.380 . S
C211 C218 1.357 . S
C212 C203 1.511 . S
C212 C213 1.341 . S
C212 C214 1.371 . S
C213 C212 1.341 . S
C213 C217 1.394 . S
C213 H229 0.930 . S
C214 C212 1.371 . S
C214 C215 1.392 . S
C214 H230 0.931 . S
C215 C214 1.392 . S
C215 C216 1.331 . S
C215 H233 0.932 . S
C216 C215 1.331 . S
C216 C217 1.336 . S
C217 C213 1.394 . S
C217 C216 1.336 . S
C217 H232 0.929 . S
C218 C208 1.386 . S
C218 C211 1.357 . S
C218 H231 0.928 . S
H219 C195 0.931 . S
H220 C197 0.930 . S
H221 C199 0.929 . S
H222 C200 0.931 . S
H223 C202 0.930 . S
H224 C206 0.931 . S
H225 C204 0.931 . S
H226 C208 0.931 . S
H227 C209 0.929 . S
H228 C210 0.930 . S
H229 C213 0.930 . S
H230 C214 0.931 . S
H231 C218 0.928 . S
H232 C217 0.929 . S
H233 C215 0.932 . S
C234 C235 1.386 1_565 S
C234 C236 1.397 . S
C234 H258 0.931 . S
C235 C234 1.386 1_545 S
C235 C239 1.397 . S
C236 C234 1.397 . S
C236 C237 1.384 1_565 S
C236 H259 0.930 . S
C237 C236 1.384 1_545 S
C237 C238 1.377 . S
C237 C240 1.481 . S
C238 C237 1.377 . S
C238 C239 1.389 . S
C238 H260 0.929 . S
C239 C235 1.397 . S
C239 C238 1.389 . S
C239 H261 0.931 . S
C240 C237 1.481 . S
C240 C241 1.387 . S
C240 C245 1.390 . S
C241 C240 1.387 . S
C241 C242 1.401 . S
C241 H262 0.930 . S
C242 C241 1.401 . S
C242 C243 1.376 . S
C242 C251 1.511 . S
C243 C242 1.376 . S
C243 C244 1.392 . S
C243 H264 0.931 . S
C244 C243 1.392 . S
C244 C245 1.361 . S
C244 C246 1.500 . S
C245 C240 1.390 . S
C245 C244 1.361 . S
C245 H263 0.931 . S
C246 C244 1.500 . S
C246 C247 1.371 1_545 S
C246 C248 1.365 . S
C247 C246 1.371 1_565 S
C247 C257 1.386 . S
C247 H265 0.931 . S
C248 C246 1.365 . S
C248 C249 1.409 . S
C248 H266 0.929 . S
C249 C248 1.409 . S
C249 C250 1.380 . S
C249 H267 0.930 . S
C250 C249 1.380 . S
C250 C257 1.357 1_545 S
C251 C242 1.511 . S
C251 C252 1.341 1_545 S
C251 C253 1.371 . S
C252 C251 1.341 1_565 S
C252 C256 1.400 . S
C252 H268 0.930 . S
C253 C251 1.371 . S
C253 C254 1.392 . S
C253 H269 0.931 . S
C254 C253 1.392 . S
C254 C255 1.331 . S
C254 H272 0.932 . S
C255 C254 1.331 . S
C255 C256 1.318 1_545 S
C256 C252 1.400 . S
C256 C255 1.318 1_565 S
C256 H271 0.944 . S
C257 C247 1.386 . S
C257 C250 1.357 1_565 S
C257 H270 0.923 1_554 S
H258 C234 0.931 . S
H259 C236 0.930 . S
H260 C238 0.929 . S
H261 C239 0.931 . S
H262 C241 0.930 . S
H263 C245 0.931 . S
H264 C243 0.931 . S
H265 C247 0.931 . S
H266 C248 0.929 . S
H267 C249 0.930 . S
H268 C252 0.930 . S
H269 C253 0.931 . S
H270 C257 0.923 1_556 S
H271 C256 0.944 . S
H272 C254 0.932 . S
C273 C274 1.386 . S
C273 C275 1.397 . S
C273 H297 0.931 . S
C274 C273 1.386 . S
C274 C278 1.397 . S
C275 C273 1.397 . S
C275 C276 1.384 . S
C275 H298 0.930 . S
C276 C275 1.384 . S
C276 C277 1.377 . S
C276 C279 1.481 . S
C277 C276 1.377 . S
C277 C278 1.389 . S
C277 H299 0.929 . S
C278 C274 1.397 . S
C278 C277 1.389 . S
C278 H300 0.931 . S
C279 C276 1.481 . S
C279 C280 1.387 . S
C279 C284 1.390 . S
C280 C279 1.387 . S
C280 C281 1.401 . S
C280 H301 0.930 . S
C281 C280 1.401 . S
C281 C282 1.376 . S
C281 C290 1.511 . S
C282 C281 1.376 . S
C282 C283 1.392 . S
C282 H303 0.931 . S
C283 C282 1.392 . S
C283 C284 1.361 . S
C283 C285 1.500 . S
C284 C279 1.390 . S
C284 C283 1.361 . S
C284 H302 0.931 . S
C285 C283 1.500 . S
C285 C286 1.371 . S
C285 C287 1.365 . S
C286 C285 1.371 . S
C286 C296 1.386 . S
C286 H304 0.931 . S
C287 C285 1.365 . S
C287 C288 1.409 . S
C287 H305 0.929 . S
C288 C287 1.409 . S
C288 C289 1.380 . S
C288 H306 0.930 . S
C289 C288 1.380 . S
C289 C296 1.357 . S
C290 C281 1.511 . S
C290 C291 1.341 . S
C290 C292 1.371 . S
C291 C290 1.341 . S
C291 C295 1.394 . S
C291 H307 0.930 . S
C292 C290 1.371 . S
C292 C293 1.392 . S
C292 H308 0.931 . S
C293 C292 1.392 . S
C293 C294 1.331 . S
C293 H311 0.932 . S
C294 C293 1.331 . S
C294 C295 1.336 . S
C295 C291 1.394 . S
C295 C294 1.336 . S
C295 H310 0.929 . S
C296 C286 1.386 . S
C296 C289 1.357 . S
C296 H309 0.928 . S
H297 C273 0.931 . S
H298 C275 0.930 . S
H299 C277 0.929 . S
H300 C278 0.931 . S
H301 C280 0.930 . S
H302 C284 0.931 . S
H303 C282 0.931 . S
H304 C286 0.931 . S
H305 C287 0.929 . S
H306 C288 0.930 . S
H307 C291 0.930 . S
H308 C292 0.931 . S
H309 C296 0.928 . S
H310 C295 0.929 . S
H311 C293 0.932 . S
Tb312 O315 2.453 1_665 S
Tb312 O316 2.596 1_665 S
Tb312 O317 2.374 1_655 S
Tb312 O325 2.343 . S
Tb312 O327 2.353 1_565 S
Tb312 O329 2.427 . S
Tb312 O330 2.513 . S
C313 O317 1.251 . S
C313 O319 1.263 . S
Tb314 O316 2.343 . S
Tb314 O319 2.353 1_545 S
Tb314 O322 2.427 . S
Tb314 O323 2.513 . S
Tb314 O324 2.453 1_545 S
Tb314 O325 2.596 1_445 S
Tb314 O326 2.374 1_455 S
O315 Tb312 2.453 1_445 S
O315 C331 1.245 . S
O316 Tb312 2.596 1_445 S
O316 Tb314 2.343 . S
O316 C331 1.259 . S
O317 Tb312 2.374 1_455 S
O317 C313 1.251 . S
C318 O322 1.275 . S
C318 O323 1.246 . S
O319 C313 1.263 . S
O319 Tb314 2.353 1_565 S
C320 O324 1.245 1_655 S
C320 O325 1.259 . S
C321 O326 1.250 . S
C321 O327 1.263 . S
O322 Tb314 2.427 . S
O322 C318 1.275 . S
O323 Tb314 2.513 . S
O323 C318 1.246 . S
O324 Tb314 2.453 1_565 S
O324 C320 1.245 1_455 S
O325 Tb312 2.343 . S
O325 Tb314 2.596 1_665 S
O325 C320 1.259 . S
O326 Tb314 2.374 1_655 S
O326 C321 1.250 . S
O327 Tb312 2.353 1_545 S
O327 C321 1.263 . S
C328 O329 1.275 . S
C328 O330 1.246 . S
O329 Tb312 2.427 . S
O329 C328 1.275 . S
O330 Tb312 2.513 . S
O330 C328 1.246 . S
C331 O315 1.245 . S
C331 O316 1.259 . S
Tb332 O335 2.453 . S
Tb332 O336 2.571 1_545 S
Tb332 O337 2.374 . S
Tb332 O345 2.343 . S
Tb332 O347 2.353 . S
Tb332 O349 2.427 . S
Tb332 O350 2.513 . S
C333 O337 1.251 . S
C333 O339 1.263 1_545 S
Tb334 O336 2.362 . S
Tb334 O339 2.353 . S
Tb334 O342 2.427 . S
Tb334 O343 2.513 . S
Tb334 O344 2.453 . S
Tb334 O345 2.596 1_565 S
Tb334 O346 2.374 . S
O335 Tb332 2.453 . S
O335 C351 1.245 . S
O336 Tb332 2.571 1_565 S
O336 Tb334 2.362 . S
O336 C351 1.247 1_565 S
O337 Tb332 2.374 . S
O337 C333 1.251 . S
C338 O342 1.275 . S
C338 O343 1.246 . S
O339 C333 1.263 1_565 S
O339 Tb334 2.353 . S
C340 O344 1.245 . S
C340 O345 1.259 1_565 S
C341 O346 1.250 1_545 S
C341 O347 1.263 . S
O342 Tb334 2.427 . S
O342 C338 1.275 . S
O343 Tb334 2.513 . S
O343 C338 1.246 . S
O344 Tb334 2.453 . S
O344 C340 1.245 . S
O345 Tb332 2.343 . S
O345 Tb334 2.596 1_545 S
O345 C340 1.259 1_545 S
O346 Tb334 2.374 . S
O346 C341 1.250 1_565 S
O347 Tb332 2.353 . S
O347 C341 1.263 . S
C348 O349 1.275 . S
C348 O350 1.246 . S
O349 Tb332 2.427 . S
O349 C348 1.275 . S
O350 Tb332 2.513 . S
O350 C348 1.246 . S
C351 O335 1.245 . S
C351 O336 1.247 1_545 S
Tb352 O355 2.453 . S
Tb352 O356 2.596 . S
Tb352 O357 2.374 . S
Tb352 O365 2.343 . S
Tb352 O367 2.353 . S
Tb352 O369 2.427 . S
Tb352 O370 2.513 . S
C353 O357 1.251 . S
C353 O359 1.263 . S
Tb354 O356 2.343 . S
Tb354 O359 2.353 . S
Tb354 O362 2.427 . S
Tb354 O363 2.513 . S
Tb354 O364 2.453 . S
Tb354 O365 2.596 . S
Tb354 O366 2.374 . S
O355 Tb352 2.453 . S
O355 C371 1.245 . S
O356 Tb352 2.596 . S
O356 Tb354 2.343 . S
O356 C371 1.259 . S
O357 Tb352 2.374 . S
O357 C353 1.251 . S
C358 O362 1.275 . S
C358 O363 1.246 . S
O359 C353 1.263 . S
O359 Tb354 2.353 . S
C360 O364 1.245 . S
C360 O365 1.259 . S
C361 O366 1.250 . S
C361 O367 1.263 . S
O362 Tb354 2.427 . S
O362 C358 1.275 . S
O363 Tb354 2.513 . S
O363 C358 1.246 . S
O364 Tb354 2.453 . S
O364 C360 1.245 . S
O365 Tb352 2.343 . S
O365 Tb354 2.596 . S
O365 C360 1.259 . S
O366 Tb354 2.374 . S
O366 C361 1.250 . S
O367 Tb352 2.353 . S
O367 C361 1.263 . S
C368 O369 1.275 . S
C368 O370 1.246 . S
O369 Tb352 2.427 . S
O369 C368 1.275 . S
O370 Tb352 2.513 . S
O370 C368 1.246 . S
C371 O355 1.245 . S
C371 O356 1.259 . S
Tb372 O375 2.453 1_655 S
Tb372 O376 2.596 1_655 S
Tb372 O377 2.374 1_655 S
Tb372 O385 2.343 . S
Tb372 O387 2.353 . S
Tb372 O389 2.427 . S
Tb372 O390 2.513 . S
C373 O377 1.251 . S
C373 O379 1.263 . S
Tb374 O376 2.343 . S
Tb374 O379 2.353 . S
Tb374 O382 2.427 . S
Tb374 O383 2.513 . S
Tb374 O384 2.453 1_455 S
Tb374 O385 2.596 1_455 S
Tb374 O386 2.374 . S
O375 Tb372 2.453 1_455 S
O375 C391 1.245 . S
O376 Tb372 2.596 1_455 S
O376 Tb374 2.343 . S
O376 C391 1.259 . S
O377 Tb372 2.374 1_455 S
O377 C373 1.251 . S
C378 O382 1.275 . S
C378 O383 1.246 . S
O379 C373 1.263 . S
O379 Tb374 2.353 . S
C380 O384 1.245 . S
C380 O385 1.259 . S
C381 O386 1.250 1_655 S
C381 O387 1.263 . S
O382 Tb374 2.427 . S
O382 C378 1.275 . S
O383 Tb374 2.513 . S
O383 C378 1.246 . S
O384 Tb374 2.453 1_655 S
O384 C380 1.245 . S
O385 Tb372 2.343 . S
O385 Tb374 2.596 1_655 S
O385 C380 1.259 . S
O386 Tb374 2.374 . S
O386 C381 1.250 1_455 S
O387 Tb372 2.353 . S
O387 C381 1.263 . S
C388 O389 1.275 . S
C388 O390 1.246 . S
O389 Tb372 2.427 . S
O389 C388 1.275 . S
O390 Tb372 2.513 . S
O390 C388 1.246 . S
C391 O375 1.245 . S
C391 O376 1.259 . S
H392 C400 0.950 . S
H393 C405 0.950 . S
H394 C402 0.950 . S
H395 C404 0.950 . S
H396 C406 0.950 . S
H397 C408 0.950 . S
H398 C410 0.950 . S
H399 C411 0.950 . S
C400 H392 0.950 . S
C400 C401 1.386 . S
C400 C402 1.391 . S
C401 C400 1.386 . S
C401 C405 1.393 1_545 S
C402 H394 0.950 . S
C402 C400 1.391 . S
C402 C403 1.400 . S
C403 C402 1.400 . S
C403 C404 1.398 1_545 S
C403 C409 1.491 . S
C404 H395 0.950 . S
C404 C403 1.398 1_565 S
C404 C405 1.391 . S
C405 H393 0.950 . S
C405 C401 1.393 1_565 S
C405 C404 1.391 . S
C406 H396 0.950 . S
C406 C407 1.411 . S
C406 C408 1.391 . S
C407 C406 1.411 . S
C407 C411 1.369 1_565 S
C408 H397 0.950 . S
C408 C406 1.391 . S
C408 C409 1.400 1_565 S
C409 C403 1.491 . S
C409 C408 1.400 1_545 S
C409 C410 1.398 . S
C410 H398 0.950 . S
C410 C409 1.398 . S
C410 C411 1.391 . S
C411 H399 0.950 . S
C411 C407 1.369 1_545 S
C411 C410 1.391 . S
H412 C420 0.950 . S
H413 C425 0.950 . S
H414 C422 0.950 . S
H415 C424 0.950 . S
H416 C426 0.950 . S
H417 C428 0.950 . S
H418 C430 0.950 . S
H419 C431 0.950 . S
C420 H412 0.950 . S
C420 C421 1.386 . S
C420 C422 1.391 . S
C421 C420 1.386 . S
C421 C425 1.393 . S
C422 H414 0.950 . S
C422 C420 1.391 . S
C422 C423 1.400 . S
C423 C422 1.400 . S
C423 C424 1.398 . S
C423 C429 1.491 . S
C424 H415 0.950 . S
C424 C423 1.398 . S
C424 C425 1.391 . S
C425 H413 0.950 . S
C425 C421 1.393 . S
C425 C424 1.391 . S
C426 H416 0.950 . S
C426 C427 1.386 . S
C426 C428 1.391 . S
C427 C426 1.386 . S
C427 C431 1.393 . S
C428 H417 0.950 . S
C428 C426 1.391 . S
C428 C429 1.400 . S
C429 C423 1.491 . S
C429 C428 1.400 . S
C429 C430 1.398 . S
C430 H418 0.950 . S
C430 C429 1.398 . S
C430 C431 1.391 . S
C431 H419 0.950 . S
C431 C427 1.393 . S
C431 C430 1.391 . S
H432 C440 0.950 . S
H433 C445 0.950 . S
H434 C442 0.950 . S
H435 C444 0.950 . S
H436 C446 0.950 . S
H437 C448 0.950 . S
H438 C450 0.950 . S
H439 C451 0.950 . S
C440 H432 0.950 . S
C440 C441 1.386 . S
C440 C442 1.391 . S
C441 C440 1.386 . S
C441 C445 1.393 . S
C442 H434 0.950 . S
C442 C440 1.391 . S
C442 C443 1.400 . S
C443 C442 1.400 . S
C443 C444 1.398 . S
C443 C449 1.491 . S
C444 H435 0.950 . S
C444 C443 1.398 . S
C444 C445 1.391 . S
C445 H433 0.950 . S
C445 C441 1.393 . S
C445 C444 1.391 . S
C446 H436 0.950 . S
C446 C447 1.386 . S
C446 C448 1.391 . S
C447 C446 1.386 . S
C447 C451 1.393 . S
C448 H437 0.950 . S
C448 C446 1.391 . S
C448 C449 1.400 . S
C449 C443 1.491 . S
C449 C448 1.400 . S
C449 C450 1.398 . S
C450 H438 0.950 . S
C450 C449 1.398 . S
C450 C451 1.391 . S
C451 H439 0.950 . S
C451 C447 1.393 . S
C451 C450 1.391 . S
H452 C460 0.950 . S
H453 C465 0.950 . S
H454 C462 0.950 . S
H455 C464 0.950 . S
H456 C466 0.950 . S
H457 C468 0.950 . S
H458 C470 0.950 . S
H459 C471 0.950 . S
C460 H452 0.950 . S
C460 C461 1.386 . S
C460 C462 1.391 . S
C461 C460 1.386 . S
C461 C465 1.393 . S
C462 H454 0.950 . S
C462 C460 1.391 . S
C462 C463 1.400 . S
C463 C462 1.400 . S
C463 C464 1.398 . S
C463 C469 1.491 . S
C464 H455 0.950 . S
C464 C463 1.398 . S
C464 C465 1.391 . S
C465 H453 0.950 . S
C465 C461 1.393 . S
C465 C464 1.391 . S
C466 H456 0.950 . S
C466 C467 1.386 . S
C466 C468 1.391 . S
C467 C466 1.386 . S
C467 C471 1.393 . S
C468 H457 0.950 . S
C468 C466 1.391 . S
C468 C469 1.400 . S
C469 C463 1.491 . S
C469 C468 1.400 . S
C469 C470 1.398 . S
C470 H458 0.950 . S
C470 C469 1.398 . S
C470 C471 1.391 . S
C471 H459 0.950 . S
C471 C467 1.393 . S
C471 C470 1.391 . S
H472 C480 0.950 . S
H473 C485 0.961 . S
H474 C482 0.950 . S
H475 C484 0.942 1_565 S
H476 C486 0.950 1_565 S
H477 C488 0.950 1_565 S
H478 C490 0.950 . S
H479 C491 0.950 . S
C480 H472 0.950 . S
C480 C481 1.386 . S
C480 C482 1.391 . S
C481 C480 1.386 . S
C481 C485 1.384 1_546 S
C482 H474 0.950 . S
C482 C480 1.391 . S
C482 C483 1.400 . S
C483 C482 1.400 . S
C483 C484 1.402 . S
C483 C489 1.491 . S
C484 H475 0.942 1_545 S
C484 C483 1.402 . S
C484 C485 1.391 1_546 S
C485 H473 0.961 . S
C485 C481 1.384 1_564 S
C485 C484 1.391 1_564 S
C486 H476 0.950 1_545 S
C486 C487 1.386 . S
C486 C488 1.391 . S
C487 C486 1.386 . S
C487 C491 1.393 . S
C488 H477 0.950 1_545 S
C488 C486 1.391 . S
C488 C489 1.400 . S
C489 C483 1.491 . S
C489 C488 1.400 . S
C489 C490 1.398 . S
C490 H478 0.950 . S
C490 C489 1.398 . S
C490 C491 1.391 . S
C491 H479 0.950 . S
C491 C487 1.393 . S
C491 C490 1.391 . S
H492 C500 0.950 . S
H493 C505 0.950 . S
H494 C502 0.950 . S
H495 C504 0.950 . S
H496 C506 0.950 . S
H497 C508 0.950 . S
H498 C510 0.950 . S
H499 C511 0.950 . S
C500 H492 0.950 . S
C500 C501 1.386 1_554 S
C500 C502 1.391 1_554 S
C501 C500 1.386 1_556 S
C501 C505 1.393 . S
C502 H494 0.950 . S
C502 C500 1.391 1_556 S
C502 C503 1.400 . S
C503 C502 1.400 . S
C503 C504 1.398 . S
C503 C509 1.491 . S
C504 H495 0.950 . S
C504 C503 1.398 . S
C504 C505 1.391 . S
C505 H493 0.950 . S
C505 C501 1.393 . S
C505 C504 1.391 . S
C506 H496 0.950 . S
C506 C507 1.386 . S
C506 C508 1.391 . S
C507 C506 1.386 . S
C507 C511 1.393 . S
C508 H497 0.950 . S
C508 C506 1.391 . S
C508 C509 1.400 . S
C509 C503 1.491 . S
C509 C508 1.400 . S
C509 C510 1.398 . S
C510 H498 0.950 . S
C510 C509 1.398 . S
C510 C511 1.391 . S
C511 H499 0.950 . S
C511 C507 1.393 . S
C511 C510 1.391 . S
H512 C520 0.950 . S
H513 C525 0.950 1_554 S
H514 C522 0.950 . S
H515 C524 0.950 . S
H516 C526 0.950 . S
H517 C528 0.950 . S
H518 C530 0.950 . S
H519 C531 0.950 . S
C520 H512 0.950 . S
C520 C521 1.386 . S
C520 C522 1.391 . S
C521 C520 1.386 . S
C521 C525 1.393 . S
C522 H514 0.950 . S
C522 C520 1.391 . S
C522 C523 1.400 . S
C523 C522 1.400 . S
C523 C524 1.398 . S
C523 C529 1.491 . S
C524 H515 0.950 . S
C524 C523 1.398 . S
C524 C525 1.391 . S
C525 H513 0.950 1_556 S
C525 C521 1.393 . S
C525 C524 1.391 . S
C526 H516 0.950 . S
C526 C527 1.386 . S
C526 C528 1.391 . S
C527 C526 1.386 . S
C527 C531 1.393 . S
C528 H517 0.950 . S
C528 C526 1.391 . S
C528 C529 1.400 . S
C529 C523 1.491 . S
C529 C528 1.400 . S
C529 C530 1.398 . S
C530 H518 0.950 . S
C530 C529 1.398 . S
C530 C531 1.391 . S
C531 H519 0.950 . S
C531 C527 1.393 . S
C531 C530 1.391 . S
H532 C540 0.950 . S
H533 C545 0.950 . S
H534 C542 0.950 . S
H535 C544 0.950 . S
H536 C546 0.950 . S
H537 C548 0.950 . S
H538 C550 0.950 . S
H539 C551 0.950 . S
C540 H532 0.950 . S
C540 C541 1.386 . S
C540 C542 1.391 . S
C541 C540 1.386 . S
C541 C545 1.393 . S
C542 H534 0.950 . S
C542 C540 1.391 . S
C542 C543 1.400 . S
C543 C542 1.400 . S
C543 C544 1.398 . S
C543 C549 1.491 . S
C544 H535 0.950 . S
C544 C543 1.398 . S
C544 C545 1.391 . S
C545 H533 0.950 . S
C545 C541 1.393 . S
C545 C544 1.391 . S
C546 H536 0.950 . S
C546 C547 1.386 . S
C546 C548 1.391 . S
C547 C546 1.386 . S
C547 C551 1.393 . S
C548 H537 0.950 . S
C548 C546 1.391 . S
C548 C549 1.400 . S
C549 C543 1.491 . S
C549 C548 1.400 . S
C549 C550 1.398 . S
C550 H538 0.950 . S
C550 C549 1.398 . S
C550 C551 1.391 . S
C551 H539 0.950 . S
C551 C547 1.393 . S
C551 C550 1.391 . S
H552 C560 0.950 . S
H553 C565 0.950 . S
H554 C562 0.950 . S
H555 C564 0.950 . S
H556 C566 0.950 . S
H557 C568 0.950 . S
H558 C570 0.950 . S
H559 C571 0.950 . S
C560 H552 0.950 . S
C560 C561 1.386 . S
C560 C562 1.391 . S
C561 C560 1.386 . S
C561 C565 1.393 . S
C562 H554 0.950 . S
C562 C560 1.391 . S
C562 C563 1.400 . S
C563 C562 1.400 . S
C563 C564 1.398 . S
C563 C569 1.491 . S
C564 H555 0.950 . S
C564 C563 1.398 . S
C564 C565 1.391 . S
C565 H553 0.950 . S
C565 C561 1.393 . S
C565 C564 1.391 . S
C566 H556 0.950 . S
C566 C567 1.386 . S
C566 C568 1.391 . S
C567 C566 1.386 . S
C567 C571 1.393 . S
C568 H557 0.950 . S
C568 C566 1.391 . S
C568 C569 1.400 . S
C569 C563 1.491 . S
C569 C568 1.400 . S
C569 C570 1.398 . S
C570 H558 0.950 . S
C570 C569 1.398 . S
C570 C571 1.391 . S
C571 H559 0.950 . S
C571 C567 1.393 . S
C571 C570 1.391 . S
H572 C580 0.950 . S
H573 C585 0.950 . S
H574 C582 0.950 . S
H575 C584 0.950 . S
H576 C586 0.950 . S
H577 C588 0.950 . S
H578 C590 0.950 . S
H579 C591 0.950 . S
C580 H572 0.950 . S
C580 C581 1.386 1_565 S
C580 C582 1.391 . S
C581 C580 1.386 1_545 S
C581 C585 1.393 . S
C582 H574 0.950 . S
C582 C580 1.391 . S
C582 C583 1.400 1_565 S
C583 C582 1.400 1_545 S
C583 C584 1.398 . S
C583 C589 1.491 . S
C584 H575 0.950 . S
C584 C583 1.398 . S
C584 C585 1.391 . S
C585 H573 0.950 . S
C585 C581 1.393 . S
C585 C584 1.391 . S
C586 H576 0.950 . S
C586 C587 1.430 . S
C586 C588 1.391 . S
C587 C586 1.430 . S
C587 C591 1.356 1_545 S
C588 H577 0.950 . S
C588 C586 1.391 . S
C588 C589 1.400 . S
C589 C583 1.491 . S
C589 C588 1.400 . S
C589 C590 1.398 1_545 S
C590 H578 0.950 . S
C590 C589 1.398 1_565 S
C590 C591 1.391 . S
C591 H579 0.950 . S
C591 C587 1.356 1_565 S
C591 C590 1.391 . S
H592 C600 0.950 . S
H593 C605 0.950 . S
H594 C602 0.950 . S
H595 C604 0.950 . S
H596 C606 0.950 . S
H597 C608 0.950 . S
H598 C610 0.950 . S
H599 C611 0.950 . S
C600 H592 0.950 . S
C600 C601 1.386 . S
C600 C602 1.391 . S
C601 C600 1.386 . S
C601 C605 1.393 . S
C602 H594 0.950 . S
C602 C600 1.391 . S
C602 C603 1.400 . S
C603 C602 1.400 . S
C603 C604 1.398 . S
C603 C609 1.491 . S
C604 H595 0.950 . S
C604 C603 1.398 . S
C604 C605 1.391 . S
C605 H593 0.950 . S
C605 C601 1.393 . S
C605 C604 1.391 . S
C606 H596 0.950 . S
C606 C607 1.386 . S
C606 C608 1.391 . S
C607 C606 1.386 . S
C607 C611 1.393 . S
C608 H597 0.950 . S
C608 C606 1.391 . S
C608 C609 1.400 . S
C609 C603 1.491 . S
C609 C608 1.400 . S
C609 C610 1.398 . S
C610 H598 0.950 . S
C610 C609 1.398 . S
C610 C611 1.391 . S
C611 H599 0.950 . S
C611 C607 1.393 . S
C611 C610 1.391 . S
H612 C620 0.950 . S
H613 C625 0.950 . S
H614 C622 0.950 . S
H615 C624 0.950 . S
H616 C626 0.950 . S
H617 C628 0.950 . S
H618 C630 0.950 . S
H619 C631 0.950 . S
C620 H612 0.950 . S
C620 C621 1.386 . S
C620 C622 1.391 . S
C621 C620 1.386 . S
C621 C625 1.393 . S
C622 H614 0.950 . S
C622 C620 1.391 . S
C622 C623 1.400 . S
C623 C622 1.400 . S
C623 C624 1.398 . S
C623 C629 1.491 . S
C624 H615 0.950 . S
C624 C623 1.398 . S
C624 C625 1.391 . S
C625 H613 0.950 . S
C625 C621 1.393 . S
C625 C624 1.391 . S
C626 H616 0.950 . S
C626 C627 1.386 . S
C626 C628 1.391 . S
C627 C626 1.386 . S
C627 C631 1.393 . S
C628 H617 0.950 . S
C628 C626 1.391 . S
C628 C629 1.400 . S
C629 C623 1.491 . S
C629 C628 1.400 . S
C629 C630 1.398 . S
C630 H618 0.950 . S
C630 C629 1.398 . S
C630 C631 1.391 . S
C631 H619 0.950 . S
C631 C627 1.393 . S
C631 C630 1.391 . S
H632 C640 0.950 . S
H633 C645 0.950 . S
H634 C642 0.950 . S
H635 C644 0.950 . S
H636 C646 0.950 . S
H637 C648 0.950 . S
H638 C650 0.950 . S
H639 C651 0.950 . S
C640 H632 0.950 . S
C640 C641 1.386 . S
C640 C642 1.391 . S
C641 C640 1.386 . S
C641 C645 1.393 . S
C642 H634 0.950 . S
C642 C640 1.391 . S
C642 C643 1.400 . S
C643 C642 1.400 . S
C643 C644 1.398 . S
C643 C649 1.491 . S
C644 H635 0.950 . S
C644 C643 1.398 . S
C644 C645 1.391 . S
C645 H633 0.950 . S
C645 C641 1.393 . S
C645 C644 1.391 . S
C646 H636 0.950 . S
C646 C647 1.386 . S
C646 C648 1.391 . S
C647 C646 1.386 . S
C647 C651 1.393 . S
C648 H637 0.950 . S
C648 C646 1.391 . S
C648 C649 1.400 . S
C649 C643 1.491 . S
C649 C648 1.400 . S
C649 C650 1.398 . S
C650 H638 0.950 . S
C650 C649 1.398 . S
C650 C651 1.391 . S
C651 H639 0.950 . S
C651 C647 1.393 . S
C651 C650 1.391 . S
H652 C660 0.950 . S
H653 C665 0.950 . S
H654 C662 0.950 . S
H655 C664 0.950 . S
H656 C666 0.950 . S
H657 C668 0.950 . S
H658 C670 0.950 . S
H659 C671 0.950 . S
C660 H652 0.950 . S
C660 C661 1.400 . S
C660 C662 1.391 . S
C661 C660 1.400 . S
C661 C665 1.384 1_545 S
C662 H654 0.950 . S
C662 C660 1.391 . S
C662 C663 1.400 . S
C663 C662 1.400 . S
C663 C664 1.398 1_545 S
C663 C669 1.491 . S
C664 H655 0.950 . S
C664 C663 1.398 1_565 S
C664 C665 1.391 . S
C665 H653 0.950 . S
C665 C661 1.384 1_565 S
C665 C664 1.391 . S
C666 H656 0.950 . S
C666 C667 1.386 1_565 S
C666 C668 1.391 . S
C667 C666 1.386 1_545 S
C667 C671 1.393 . S
C668 H657 0.950 . S
C668 C666 1.391 . S
C668 C669 1.400 1_565 S
C669 C663 1.491 . S
C669 C668 1.400 1_545 S
C669 C670 1.398 . S
C670 H658 0.950 . S
C670 C669 1.398 . S
C670 C671 1.391 . S
C671 H659 0.950 . S
C671 C667 1.393 . S
C671 C670 1.391 . S
H672 C680 0.950 . S
H673 C685 0.950 . S
H674 C682 0.950 . S
H675 C684 0.950 . S
H676 C686 0.950 . S
H677 C688 0.950 . S
H678 C690 0.950 . S
H679 C691 0.950 . S
C680 H672 0.950 . S
C680 C681 1.386 . S
C680 C682 1.391 . S
C681 C680 1.386 . S
C681 C685 1.393 . S
C682 H674 0.950 . S
C682 C680 1.391 . S
C682 C683 1.400 . S
C683 C682 1.400 . S
C683 C684 1.398 . S
C683 C689 1.491 . S
C684 H675 0.950 . S
C684 C683 1.398 . S
C684 C685 1.391 . S
C685 H673 0.950 . S
C685 C681 1.393 . S
C685 C684 1.391 . S
C686 H676 0.950 . S
C686 C687 1.386 . S
C686 C688 1.391 . S
C687 C686 1.386 . S
C687 C691 1.393 . S
C688 H677 0.950 . S
C688 C686 1.391 . S
C688 C689 1.400 . S
C689 C683 1.491 . S
C689 C688 1.400 . S
C689 C690 1.398 . S
C690 H678 0.950 . S
C690 C689 1.398 . S
C690 C691 1.391 . S
C691 H679 0.950 . S
C691 C687 1.393 . S
C691 C690 1.391 . S
H692 C700 0.950 . S
H693 C705 0.950 . S
H694 C702 0.950 . S
H695 C704 0.950 . S
H696 C706 0.950 . S
H697 C708 0.950 . S
H698 C710 0.950 . S
H699 C711 0.950 . S
C700 H692 0.950 . S
C700 C701 1.386 . S
C700 C702 1.391 . S
C701 C700 1.386 . S
C701 C705 1.393 . S
C702 H694 0.950 . S
C702 C700 1.391 . S
C702 C703 1.400 . S
C703 C702 1.400 . S
C703 C704 1.398 . S
C703 C709 1.491 . S
C704 H695 0.950 . S
C704 C703 1.398 . S
C704 C705 1.391 . S
C705 H693 0.950 . S
C705 C701 1.393 . S
C705 C704 1.391 . S
C706 H696 0.950 . S
C706 C707 1.386 . S
C706 C708 1.391 . S
C707 C706 1.386 . S
C707 C711 1.393 . S
C708 H697 0.950 . S
C708 C706 1.391 . S
C708 C709 1.400 . S
C709 C703 1.491 . S
C709 C708 1.400 . S
C709 C710 1.398 . S
C710 H698 0.950 . S
C710 C709 1.398 . S
C710 C711 1.391 . S
C711 H699 0.950 . S
C711 C707 1.393 . S
C711 C710 1.391 . S
H712 C720 0.950 . S
H713 C725 0.950 . S
H714 C722 0.950 . S
H715 C724 0.950 . S
H716 C726 0.950 . S
H717 C728 0.950 . S
H718 C730 0.950 . S
H719 C731 0.950 . S
C720 H712 0.950 . S
C720 C721 1.386 . S
C720 C722 1.391 . S
C721 C720 1.386 . S
C721 C725 1.393 1_554 S
C722 H714 0.950 . S
C722 C720 1.391 . S
C722 C723 1.400 1_554 S
C723 C722 1.400 1_556 S
C723 C724 1.398 . S
C723 C729 1.491 . S
C724 H715 0.950 . S
C724 C723 1.398 . S
C724 C725 1.391 . S
C725 H713 0.950 . S
C725 C721 1.393 1_556 S
C725 C724 1.391 . S
C726 H716 0.950 . S
C726 C727 1.386 . S
C726 C728 1.391 . S
C727 C726 1.386 . S
C727 C731 1.393 . S
C728 H717 0.950 . S
C728 C726 1.391 . S
C728 C729 1.400 . S
C729 C723 1.491 . S
C729 C728 1.400 . S
C729 C730 1.398 . S
C730 H718 0.950 . S
C730 C729 1.398 . S
C730 C731 1.391 . S
C731 H719 0.950 . S
C731 C727 1.393 . S
C731 C730 1.391 . S
H732 C740 0.950 . S
H733 C745 0.950 1_554 S
H734 C742 0.950 . S
H735 C744 0.950 . S
H736 C746 0.950 . S
H737 C748 0.950 . S
H738 C750 0.950 . S
H739 C751 0.950 . S
C740 H732 0.950 . S
C740 C741 1.386 . S
C740 C742 1.391 . S
C741 C740 1.386 . S
C741 C745 1.393 . S
C742 H734 0.950 . S
C742 C740 1.391 . S
C742 C743 1.400 . S
C743 C742 1.400 . S
C743 C744 1.398 . S
C743 C749 1.491 . S
C744 H735 0.950 . S
C744 C743 1.398 . S
C744 C745 1.391 . S
C745 H733 0.950 1_556 S
C745 C741 1.393 . S
C745 C744 1.391 . S
C746 H736 0.950 . S
C746 C747 1.386 . S
C746 C748 1.391 . S
C747 C746 1.386 . S
C747 C751 1.393 . S
C748 H737 0.950 . S
C748 C746 1.391 . S
C748 C749 1.400 . S
C749 C743 1.491 . S
C749 C748 1.400 . S
C749 C750 1.398 . S
C750 H738 0.950 . S
C750 C749 1.398 . S
C750 C751 1.391 . S
C751 H739 0.950 . S
C751 C747 1.393 . S
C751 C750 1.391 . S
H752 C760 0.950 . S
H753 C765 0.950 . S
H754 C762 0.950 . S
H755 C764 0.950 . S
H756 C766 0.950 . S
H757 C768 0.950 . S
H758 C770 0.950 . S
H759 C771 0.950 . S
C760 H752 0.950 . S
C760 C761 1.386 . S
C760 C762 1.391 . S
C761 C760 1.386 . S
C761 C765 1.393 . S
C762 H754 0.950 . S
C762 C760 1.391 . S
C762 C763 1.400 . S
C763 C762 1.400 . S
C763 C764 1.398 . S
C763 C769 1.491 . S
C764 H755 0.950 . S
C764 C763 1.398 . S
C764 C765 1.391 . S
C765 H753 0.950 . S
C765 C761 1.393 . S
C765 C764 1.391 . S
C766 H756 0.950 . S
C766 C767 1.386 . S
C766 C768 1.391 . S
C767 C766 1.386 . S
C767 C771 1.393 . S
C768 H757 0.950 . S
C768 C766 1.391 . S
C768 C769 1.400 . S
C769 C763 1.491 . S
C769 C768 1.400 . S
C769 C770 1.398 . S
C770 H758 0.950 . S
C770 C769 1.398 . S
C770 C771 1.391 . S
C771 H759 0.950 . S
C771 C767 1.393 . S
C771 C770 1.391 . S
H772 C780 0.950 . S
H773 C785 0.950 . S
H774 C782 0.950 . S
H775 C784 0.950 1_554 S
H776 C786 0.950 . S
H777 C788 0.950 . S
H778 C790 0.950 . S
H779 C791 0.950 . S
C780 H772 0.950 . S
C780 C781 1.386 . S
C780 C782 1.391 . S
C781 C780 1.386 . S
C781 C785 1.393 1_556 S
C782 H774 0.950 . S
C782 C780 1.391 . S
C782 C783 1.400 . S
C783 C782 1.400 . S
C783 C784 1.398 . S
C783 C789 1.491 . S
C784 H775 0.950 1_556 S
C784 C783 1.398 . S
C784 C785 1.391 1_556 S
C785 H773 0.950 . S
C785 C781 1.393 1_554 S
C785 C784 1.391 1_554 S
C786 H776 0.950 . S
C786 C787 1.386 . S
C786 C788 1.391 . S
C787 C786 1.386 . S
C787 C791 1.393 . S
C788 H777 0.950 . S
C788 C786 1.391 . S
C788 C789 1.400 . S
C789 C783 1.491 . S
C789 C788 1.400 . S
C789 C790 1.398 . S
C790 H778 0.950 . S
C790 C789 1.398 . S
C790 C791 1.391 . S
C791 H779 0.950 . S
C791 C787 1.393 . S
C791 C790 1.391 . S
H792 C800 0.950 . S
H793 C805 0.950 . S
H794 C802 0.950 . S
H795 C804 0.950 . S
H796 C806 0.950 . S
H797 C808 0.950 . S
H798 C810 0.950 . S
H799 C811 0.950 . S
C800 H792 0.950 . S
C800 C801 1.386 . S
C800 C802 1.391 . S
C801 C800 1.386 . S
C801 C805 1.393 . S
C802 H794 0.950 . S
C802 C800 1.391 . S
C802 C803 1.400 . S
C803 C802 1.400 . S
C803 C804 1.398 . S
C803 C809 1.491 . S
C804 H795 0.950 . S
C804 C803 1.398 . S
C804 C805 1.391 . S
C805 H793 0.950 . S
C805 C801 1.393 . S
C805 C804 1.391 . S
C806 H796 0.950 . S
C806 C807 1.386 . S
C806 C808 1.391 . S
C807 C806 1.386 . S
C807 C811 1.393 . S
C808 H797 0.950 . S
C808 C806 1.391 . S
C808 C809 1.400 . S
C809 C803 1.491 . S
C809 C808 1.400 . S
C809 C810 1.398 . S
C810 H798 0.950 . S
C810 C809 1.398 . S
C810 C811 1.391 . S
C811 H799 0.950 . S
C811 C807 1.393 . S
C811 C810 1.391 . S
H812 C820 0.950 . S
H813 C825 0.950 . S
H814 C822 0.950 . S
H815 C824 0.950 . S
H816 C826 0.950 . S
H817 C828 0.950 . S
H818 C830 0.950 . S
H819 C831 0.950 . S
C820 H812 0.950 . S
C820 C821 1.394 . S
C820 C822 1.391 . S
C821 C820 1.394 . S
C821 C825 1.383 1_565 S
C822 H814 0.950 . S
C822 C820 1.391 . S
C822 C823 1.398 1_565 S
C823 C822 1.398 1_545 S
C823 C824 1.400 . S
C823 C829 1.491 . S
C824 H815 0.950 . S
C824 C823 1.400 . S
C824 C825 1.391 . S
C825 H813 0.950 . S
C825 C821 1.383 1_545 S
C825 C824 1.391 . S
C826 H816 0.950 . S
C826 C827 1.386 . S
C826 C828 1.391 . S
C827 C826 1.386 . S
C827 C831 1.393 1_545 S
C828 H817 0.950 . S
C828 C826 1.391 . S
C828 C829 1.400 . S
C829 C823 1.491 . S
C829 C828 1.400 . S
C829 C830 1.398 1_545 S
C830 H818 0.950 . S
C830 C829 1.398 1_565 S
C830 C831 1.391 . S
C831 H819 0.950 . S
C831 C827 1.393 1_565 S
C831 C830 1.391 . S
H832 C840 0.950 . S
H833 C845 0.950 . S
H834 C842 0.950 . S
H835 C844 0.950 . S
H836 C846 0.950 . S
H837 C848 0.950 . S
H838 C850 0.950 . S
H839 C851 0.950 . S
C840 H832 0.950 . S
C840 C841 1.386 . S
C840 C842 1.391 . S
C841 C840 1.386 . S
C841 C845 1.393 . S
C842 H834 0.950 . S
C842 C840 1.391 . S
C842 C843 1.400 . S
C843 C842 1.400 . S
C843 C844 1.398 . S
C843 C849 1.491 . S
C844 H835 0.950 . S
C844 C843 1.398 . S
C844 C845 1.391 . S
C845 H833 0.950 . S
C845 C841 1.393 . S
C845 C844 1.391 . S
C846 H836 0.950 . S
C846 C847 1.386 . S
C846 C848 1.391 . S
C847 C846 1.386 . S
C847 C851 1.393 . S
C848 H837 0.950 . S
C848 C846 1.391 . S
C848 C849 1.400 . S
C849 C843 1.491 . S
C849 C848 1.400 . S
C849 C850 1.398 . S
C850 H838 0.950 . S
C850 C849 1.398 . S
C850 C851 1.391 . S
C851 H839 0.950 . S
C851 C847 1.393 . S
C851 C850 1.391 . S
H852 C860 0.950 . S
H853 C865 0.950 . S
H854 C862 0.950 . S
H855 C864 0.950 . S
H856 C866 0.950 . S
H857 C868 0.950 . S
H858 C870 0.950 . S
H859 C871 0.950 . S
C860 H852 0.950 . S
C860 C861 1.386 . S
C860 C862 1.391 . S
C861 C860 1.386 . S
C861 C865 1.393 . S
C862 H854 0.950 . S
C862 C860 1.391 . S
C862 C863 1.400 . S
C863 C862 1.400 . S
C863 C864 1.398 . S
C863 C869 1.491 . S
C864 H855 0.950 . S
C864 C863 1.398 . S
C864 C865 1.391 . S
C865 H853 0.950 . S
C865 C861 1.393 . S
C865 C864 1.391 . S
C866 H856 0.950 . S
C866 C867 1.386 . S
C866 C868 1.391 . S
C867 C866 1.386 . S
C867 C871 1.393 . S
C868 H857 0.950 . S
C868 C866 1.391 . S
C868 C869 1.400 . S
C869 C863 1.491 . S
C869 C868 1.400 . S
C869 C870 1.398 . S
C870 H858 0.950 . S
C870 C869 1.398 . S
C870 C871 1.391 . S
C871 H859 0.950 . S
C871 C867 1.393 . S
C871 C870 1.391 . S
C401 C255 1.536 . S
C407 C313 1.551 . S
C427 C348 2.253 . S
C421 C294 2.118 . S
C447 C353 1.411 . S
C441 C177 1.404 . S
C467 C373 1.946 . S
C461 C216 1.835 . S
C487 C321 1.550 . S
C481 C99 1.531 1_546 S
C501 C138 2.093 1_556 S
C507 C338 2.253 . S
C521 C21 1.410 1_556 S
C527 C361 1.428 . S
C541 C60 1.837 . S
C547 C381 1.945 . S
C567 C331 1.494 . S
C561 C196 1.334 . S
C587 C340 0.625 1_545 S
C581 C235 0.634 . S
C607 C371 1.629 . S
C601 C289 1.481 . S
C621 C157 0.864 . S
C627 C391 0.897 . S
C641 C40 1.378 . S
C647 C320 1.486 . S
C667 C351 0.677 . S
C661 C79 0.666 1_545 S
C687 C360 1.635 . S
C681 C133 1.480 . S
C701 C1 0.857 . S
C707 C380 0.898 . S
C721 C211 2.079 . S
C727 C318 2.222 . S
C741 C250 1.726 1_556 S
C747 C341 1.887 . S
C767 C358 2.386 . S
C761 C274 2.172 1_556 S
C787 C378 2.090 . S
C781 C172 1.930 1_556 S
C801 C55 2.058 . S
C807 C328 2.228 . S
C827 C333 1.889 . S
C821 C94 1.741 1_565 S
C847 C368 2.386 . S
C841 C118 2.162 . S
C861 C16 1.948 . S
C867 C388 2.088 . S
