# Generated by pormake.
# Topology anh, (6,3)-cn, num edge types: 1
# Building blocks:
#     Node 0, Type 0, BuildingBlock: MIFKUJ_clean_sbu_0, # of connection points: 6
#     Node 1, Type 0, BuildingBlock: MIFKUJ_clean_sbu_0, # of connection points: 6
#     Node 2, Type 0, BuildingBlock: MIFKUJ_clean_sbu_0, # of connection points: 6
#     Node 3, Type 1, BuildingBlock: KAKCAD_clean_linker_0, # of connection points: 3
#     Node 4, Type 1, BuildingBlock: KAKCAD_clean_linker_0, # of connection points: 3
#     Node 5, Type 1, BuildingBlock: KAKCAD_clean_linker_0, # of connection points: 3
#     Node 6, Type 1, BuildingBlock: KAKCAD_clean_linker_0, # of connection points: 3
#     Node 7, Type 1, BuildingBlock: KAKCAD_clean_linker_0, # of connection points: 3
#     Node 8, Type 1, BuildingBlock: KAKCAD_clean_linker_0, # of connection points: 3
#     Edge 9, Type (0, 1), BuildingBlock: XUDNAN_clean_linker_2, # of connection points: 2
#     Edge 10, Type (0, 1), BuildingBlock: XUDNAN_clean_linker_2, # of connection points: 2
#     Edge 11, Type (0, 1), BuildingBlock: XUDNAN_clean_linker_2, # of connection points: 2
#     Edge 12, Type (0, 1), BuildingBlock: XUDNAN_clean_linker_2, # of connection points: 2
#     Edge 13, Type (0, 1), BuildingBlock: XUDNAN_clean_linker_2, # of connection points: 2
#     Edge 14, Type (0, 1), BuildingBlock: XUDNAN_clean_linker_2, # of connection points: 2
#     Edge 15, Type (0, 1), BuildingBlock: XUDNAN_clean_linker_2, # of connection points: 2
#     Edge 16, Type (0, 1), BuildingBlock: XUDNAN_clean_linker_2, # of connection points: 2
#     Edge 17, Type (0, 1), BuildingBlock: XUDNAN_clean_linker_2, # of connection points: 2
#     Edge 18, Type (0, 1), BuildingBlock: XUDNAN_clean_linker_2, # of connection points: 2
#     Edge 19, Type (0, 1), BuildingBlock: XUDNAN_clean_linker_2, # of connection points: 2
#     Edge 20, Type (0, 1), BuildingBlock: XUDNAN_clean_linker_2, # of connection points: 2
#     Edge 21, Type (0, 1), BuildingBlock: XUDNAN_clean_linker_2, # of connection points: 2
#     Edge 22, Type (0, 1), BuildingBlock: XUDNAN_clean_linker_2, # of connection points: 2
#     Edge 23, Type (0, 1), BuildingBlock: XUDNAN_clean_linker_2, # of connection points: 2
#     Edge 24, Type (0, 1), BuildingBlock: XUDNAN_clean_linker_2, # of connection points: 2
#     Edge 25, Type (0, 1), BuildingBlock: XUDNAN_clean_linker_2, # of connection points: 2
#     Edge 26, Type (0, 1), BuildingBlock: XUDNAN_clean_linker_2, # of connection points: 2
# Relax obj value: 0.134
# Max RMSD: 0.184
# Mean RMSD: 0.144
data_MOF--net-anh--node1-MIFKUJ_clean_sbu_0--node2-KAKCAD_clean_linker_0--edge1-XUDNAN_clean_linker_2
_symmetry_space_group_name_H-M    P1
_symmetry_Int_Tables_number       1
_symmetry_cell_setting            triclinic
loop_
_symmetry_equiv_pos_as_xyz
'x, y, z'
_cell_length_a     37.372498
_cell_length_b     37.176043
_cell_length_c     64.074175
_cell_angle_alpha  93.886876
_cell_angle_beta   90.818378
_cell_angle_gamma 119.74351
loop_
_atom_site_label
_atom_site_type_symbol
_atom_site_fract_x
_atom_site_fract_y
_atom_site_fract_z
_atom_type_partial_charge
Zn0 Zn 0.06966 0.57347 0.1634 0.0
Zn1 Zn 0.95595 0.47779 0.16489 0.0
C2 C 0.13679 0.55625 0.16023 0.0
O3 O 0.10704 0.51739 0.16002 0.0
C4 C 0.90143 0.50568 0.15349 0.0
O5 O 0.90146 0.48566 0.13579 0.0
O6 O 0.07738 0.63111 0.16678 0.0
O7 O 0.04162 0.54297 0.13575 0.0
O8 O 0.98019 0.4862 0.13656 0.0
C9 C 0.08873 0.65235 0.15097 0.0
O10 O 0.0872 0.63342 0.13263 0.0
O11 O 0.1278 0.58505 0.16134 0.0
C12 C 0.89089 0.40332 0.17911 0.0
O13 O 0.90137 0.42732 0.19672 0.0
O14 O 0.91113 0.41783 0.16306 0.0
O15 O 0.99091 0.48775 0.1911 0.0
O16 O 0.05217 0.54425 0.18966 0.0
O17 O 0.92512 0.50904 0.16882 0.0
C18 C 0.01053 0.51126 0.1266 0.0
C19 C 0.02605 0.51448 0.19947 0.0
Zn20 Zn 0.53887 0.07109 0.50639 0.0
Zn21 Zn 0.4975 0.94506 0.49947 0.0
C22 C 0.62294 0.12386 0.51888 0.0
O23 O 0.60602 0.12286 0.53682 0.0
C24 C 0.41992 0.87413 0.50626 0.0
O25 O 0.4431 0.86684 0.51893 0.0
O26 O 0.51803 0.11071 0.50242 0.0
O27 O 0.50806 0.02062 0.48641 0.0
O28 O 0.51642 0.97103 0.47236 0.0
C29 C 0.53605 0.13782 0.48947 0.0
O30 O 0.56592 0.13771 0.47899 0.0
O31 O 0.60007 0.10167 0.50294 0.0
C32 C 0.56418 0.92709 0.50162 0.0
O33 O 0.58653 0.9651 0.49607 0.0
O34 O 0.5261 0.91293 0.50452 0.0
O35 O 0.5087 0.98752 0.5239 0.0
O36 O 0.52876 0.05207 0.53562 0.0
O37 O 0.43658 0.90621 0.49614 0.0
C38 C 0.52177 0.00728 0.47166 0.0
C39 C 0.51582 0.01441 0.53911 0.0
Zn40 Zn 0.5544 0.5042 0.82734 0.0
Zn41 Zn 0.46748 0.50983 0.82045 0.0
C42 C 0.5379 0.42679 0.84281 0.0
O43 O 0.5521 0.45167 0.86014 0.0
C44 C 0.49504 0.59255 0.80994 0.0
O45 O 0.46937 0.57031 0.79392 0.0
O46 O 0.61575 0.52993 0.83096 0.0
O47 O 0.54558 0.52073 0.79904 0.0
O48 O 0.47773 0.48469 0.79416 0.0
C49 C 0.6412 0.56868 0.83148 0.0
O50 O 0.62735 0.59483 0.83044 0.0
O51 O 0.53405 0.44155 0.82607 0.0
C52 C 0.40185 0.52374 0.8295 0.0
O53 O 0.42994 0.54893 0.84405 0.0
O54 O 0.40971 0.50062 0.81714 0.0
O55 O 0.4687 0.48399 0.84674 0.0
O56 O 0.53582 0.52183 0.85379 0.0
O57 O 0.50325 0.57363 0.82346 0.0
C58 C 0.51334 0.50067 0.78694 0.0
C59 C 0.49954 0.49966 0.85979 0.0
C60 C 0.51469 0.089 0.31393 0.0
C61 C 0.50755 0.05329 0.32356 0.0
C62 C 0.50645 0.08688 0.29239 0.0
C63 C 0.49053 0.04894 0.28001 0.0
C64 C 0.48274 0.0131 0.28961 0.0
C65 C 0.49137 0.01528 0.3111 0.0
C66 C 0.48394 0.04719 0.257 0.0
C67 C 0.51501 0.07653 0.24547 0.0
C68 C 0.51024 0.07466 0.2236 0.0
C69 C 0.47352 0.04325 0.21316 0.0
C70 C 0.44163 0.01388 0.22452 0.0
C71 C 0.44734 0.0159 0.24643 0.0
C72 C 0.40222 0.98118 0.21368 0.0
C73 C 0.38206 0.99103 0.19827 0.0
C74 C 0.3839 0.94 0.21912 0.0
C75 C 0.34606 0.90946 0.20959 0.0
C76 C 0.3254 0.91934 0.19446 0.0
C77 C 0.54473 0.10522 0.21204 0.0
C78 C 0.56339 0.14771 0.2186 0.0
C79 C 0.56207 0.09204 0.19606 0.0
C80 C 0.59899 0.12072 0.18773 0.0
C81 C 0.61894 0.16301 0.19521 0.0
C82 C 0.59992 0.1763 0.21021 0.0
C83 C 0.34402 0.96046 0.1888 0.0
H84 H 0.52634 0.11862 0.32304 0.0
H85 H 0.51239 0.11493 0.2854 0.0
H86 H 0.47104 0.98358 0.28038 0.0
H87 H 0.48613 0.98725 0.31785 0.0
H88 H 0.54374 0.10018 0.2535 0.0
H89 H 0.4229 0.99367 0.25537 0.0
H90 H 0.46987 0.04168 0.19625 0.0
H91 H 0.39523 0.0226 0.19391 0.0
H92 H 0.399 0.93129 0.23067 0.0
H93 H 0.33322 0.87793 0.21396 0.0
H94 H 0.55029 0.15865 0.23073 0.0
H95 H 0.54832 0.05935 0.19085 0.0
H96 H 0.32884 0.96923 0.17733 0.0
H97 H 0.61384 0.2088 0.21587 0.0
H98 H 0.61287 0.10948 0.17622 0.0
C99 C 0.57747 0.55584 0.63171 0.0
C100 C 0.58541 0.52684 0.64047 0.0
C101 C 0.58715 0.56543 0.61114 0.0
C102 C 0.60575 0.54679 0.59903 0.0
C103 C 0.61532 0.51907 0.60832 0.0
C104 C 0.60473 0.50879 0.62877 0.0
C105 C 0.6118 0.55366 0.5764 0.0
C106 C 0.62031 0.59173 0.56907 0.0
C107 C 0.61937 0.59621 0.54749 0.0
C108 C 0.61199 0.5628 0.53306 0.0
C109 C 0.60524 0.52526 0.54019 0.0
C110 C 0.60498 0.52079 0.56174 0.0
C111 C 0.59462 0.48886 0.52545 0.0
C112 C 0.55772 0.47024 0.51294 0.0
C113 C 0.61822 0.46915 0.5262 0.0
C114 C 0.60405 0.43021 0.51551 0.0
C115 C 0.56572 0.41009 0.50414 0.0
C116 C 0.62208 0.63439 0.54024 0.0
C117 C 0.59962 0.65115 0.55008 0.0
C118 C 0.64592 0.65374 0.52337 0.0
C119 C 0.64729 0.68936 0.51654 0.0
C120 C 0.62444 0.70575 0.52633 0.0
C121 C 0.60087 0.68643 0.54325 0.0
C122 C 0.54318 0.43089 0.50245 0.0
H123 H 0.56221 0.56976 0.64052 0.0
H124 H 0.57836 0.58615 0.60452 0.0
H125 H 0.63033 0.50471 0.59968 0.0
H126 H 0.6112 0.48643 0.6354 0.0
H127 H 0.62669 0.6178 0.58016 0.0
H128 H 0.59703 0.49068 0.56692 0.0
H129 H 0.61022 0.56545 0.51638 0.0
H130 H 0.53894 0.48491 0.51236 0.0
H131 H 0.64665 0.48302 0.5359 0.0
H132 H 0.62182 0.4147 0.51731 0.0
H133 H 0.58046 0.63657 0.56291 0.0
H134 H 0.66359 0.64144 0.51556 0.0
H135 H 0.51359 0.416 0.49375 0.0
H136 H 0.58336 0.69869 0.55127 0.0
H137 H 0.66557 0.70362 0.50341 0.0
C138 C 0.06259 0.55828 0.96802 0.0
C139 C 0.0234 0.5299 0.97456 0.0
C140 C 0.06738 0.57033 0.94758 0.0
C141 C 0.03307 0.55434 0.93326 0.0
C142 C 0.99396 0.52576 0.93978 0.0
C143 C 0.98917 0.51373 0.96018 0.0
C144 C 0.0379 0.56718 0.91156 0.0
C145 C 0.07063 0.57002 0.90001 0.0
C146 C 0.0745 0.58056 0.87914 0.0
C147 C 0.0448 0.58812 0.86982 0.0
C148 C 0.01156 0.58493 0.88116 0.0
C149 C 0.00883 0.57514 0.90207 0.0
C150 C 0.97827 0.58968 0.87118 0.0
C151 C 0.98714 0.62296 0.85903 0.0
C152 C 0.93692 0.56119 0.8745 0.0
C153 C 0.90518 0.56641 0.86646 0.0
C154 C 0.91383 0.60013 0.85471 0.0
C155 C 0.10825 0.58086 0.86701 0.0
C156 C 0.14764 0.59629 0.87675 0.0
C157 C 0.10057 0.56254 0.84631 0.0
C158 C 0.13091 0.55764 0.83607 0.0
C159 C 0.16946 0.57072 0.84635 0.0
C160 C 0.17771 0.59102 0.86665 0.0
C161 C 0.95516 0.62826 0.85094 0.0
H162 H 0.08965 0.57101 0.97866 0.0
H163 H 0.09788 0.59257 0.94307 0.0
H164 H 0.96698 0.51243 0.92904 0.0
H165 H 0.95849 0.49219 0.96477 0.0
H166 H 0.09219 0.56224 0.90704 0.0
H167 H 0.98383 0.57371 0.91103 0.0
H168 H 0.047 0.59559 0.85366 0.0
H169 H 0.01878 0.64544 0.85628 0.0
H170 H 0.92907 0.53491 0.88355 0.0
H171 H 0.87382 0.54451 0.86998 0.0
H172 H 0.15484 0.61126 0.89255 0.0
H173 H 0.07052 0.55019 0.83835 0.0
H174 H 0.96276 0.6544 0.84184 0.0
H175 H 0.20673 0.60114 0.87525 0.0
H176 H 0.1237 0.54256 0.82031 0.0
C177 C 0.99601 0.47169 0.35799 0.0
C178 C 0.03364 0.47948 0.34969 0.0
C179 C 0.99065 0.46867 0.37949 0.0
C180 C 0.02292 0.47374 0.39308 0.0
C181 C 0.05971 0.47948 0.3847 0.0
C182 C 0.06493 0.48208 0.36324 0.0
C183 C 0.01992 0.47695 0.41606 0.0
C184 C 0.98572 0.44708 0.42584 0.0
C185 C 0.98343 0.45086 0.44773 0.0
C186 C 0.01504 0.48572 0.45967 0.0
C187 C 0.04912 0.51574 0.44995 0.0
C188 C 0.05156 0.51095 0.42825 0.0
C189 C 0.08219 0.55297 0.46204 0.0
C190 C 0.07354 0.58182 0.47265 0.0
C191 C 0.12327 0.56207 0.46095 0.0
C192 C 0.1554 0.60018 0.46962 0.0
C193 C 0.14703 0.63011 0.47924 0.0
C194 C 0.94877 0.41778 0.45818 0.0
C195 C 0.9079 0.401 0.45023 0.0
C196 C 0.95657 0.40211 0.47597 0.0
C197 C 0.92419 0.37003 0.48552 0.0
C198 C 0.8832 0.35313 0.47761 0.0
C199 C 0.87543 0.36915 0.45989 0.0
C200 C 0.10579 0.62033 0.48105 0.0
H201 H 0.97138 0.46986 0.34805 0.0
H202 H 0.96208 0.4645 0.38563 0.0
H203 H 0.08484 0.4829 0.39485 0.0
H204 H 0.0939 0.48703 0.35733 0.0
H205 H 0.9616 0.4203 0.4165 0.0
H206 H 0.07768 0.5346 0.42073 0.0
H207 H 0.01327 0.48941 0.47649 0.0
H208 H 0.042 0.57543 0.47349 0.0
H209 H 0.13052 0.54021 0.45276 0.0
H210 H 0.1869 0.60706 0.46782 0.0
H211 H 0.90102 0.41282 0.43665 0.0
H212 H 0.98787 0.41407 0.48225 0.0
H213 H 0.0986 0.64288 0.48847 0.0
H214 H 0.8442 0.35745 0.45361 0.0
H215 H 0.93143 0.35801 0.49889 0.0
C216 C 0.4854 0.95525 0.70291 0.0
C217 C 0.50199 0.99037 0.6913 0.0
C218 C 0.48908 0.9596 0.7248 0.0
C219 C 0.51065 0.99919 0.73585 0.0
C220 C 0.52788 0.03429 0.72424 0.0
C221 C 0.52305 0.02998 0.70238 0.0
C222 C 0.51509 0.00385 0.7593 0.0
C223 C 0.51671 0.97339 0.77046 0.0
C224 C 0.52 0.977 0.79244 0.0
C225 C 0.52326 0.01263 0.80361 0.0
C226 C 0.52243 0.04401 0.79269 0.0
C227 C 0.51751 0.03872 0.77069 0.0
C228 C 0.52603 0.08253 0.80361 0.0
C229 C 0.50107 0.08076 0.82015 0.0
C230 C 0.5518 0.1213 0.79592 0.0
C231 C 0.55132 0.15702 0.80384 0.0
C232 C 0.525 0.15513 0.81971 0.0
C233 C 0.5192 0.94224 0.80297 0.0
C234 C 0.48408 0.90254 0.79991 0.0
C235 C 0.55513 0.94646 0.81271 0.0
C236 C 0.55654 0.91118 0.8182 0.0
C237 C 0.52198 0.87101 0.81407 0.0
C238 C 0.48533 0.86746 0.80552 0.0
C239 C 0.5005 0.11665 0.82809 0.0
H240 H 0.46969 0.92409 0.6952 0.0
H241 H 0.47457 0.93165 0.73298 0.0
H242 H 0.54546 0.06537 0.73195 0.0
H243 H 0.53568 0.05801 0.69429 0.0
H244 H 0.51588 0.94664 0.7621 0.0
H245 H 0.51462 0.06174 0.76246 0.0
H246 H 0.52636 0.01583 0.82057 0.0
H247 H 0.48064 0.05133 0.8263 0.0
H248 H 0.57186 0.12385 0.78337 0.0
H249 H 0.57148 0.18617 0.79737 0.0
H250 H 0.45606 0.89847 0.79232 0.0
H251 H 0.58282 0.97668 0.81491 0.0
H252 H 0.47971 0.11388 0.84027 0.0
H253 H 0.45776 0.83733 0.80258 0.0
H254 H 0.58538 0.91525 0.82465 0.0
C255 C 0.49924 0.4674 0.02552 0.0
C256 C 0.49826 0.49592 0.01257 0.0
C257 C 0.5042 0.47617 0.04728 0.0
C258 C 0.50726 0.51312 0.05637 0.0
C259 C 0.50582 0.54138 0.04341 0.0
C260 C 0.50176 0.53303 0.02167 0.0
C261 C 0.51249 0.52261 0.07933 0.0
C262 C 0.5456 0.52391 0.0905 0.0
C263 C 0.55225 0.53527 0.11217 0.0
C264 C 0.52413 0.54349 0.12287 0.0
C265 C 0.49097 0.54257 0.11171 0.0
C266 C 0.48553 0.53231 0.08996 0.0
C267 C 0.46267 0.55402 0.12223 0.0
C268 C 0.4399 0.53245 0.13889 0.0
C269 C 0.45604 0.58474 0.11445 0.0
C270 C 0.42629 0.59297 0.12271 0.0
C271 C 0.40223 0.57034 0.1388 0.0
C272 C 0.59029 0.54113 0.12296 0.0
C273 C 0.58891 0.52166 0.14121 0.0
C274 C 0.62839 0.56481 0.11412 0.0
C275 C 0.66406 0.56717 0.12261 0.0
C276 C 0.6625 0.5457 0.14009 0.0
C277 C 0.6248 0.52384 0.14971 0.0
C278 C 0.40958 0.5403 0.147 0.0
H279 H 0.49668 0.43863 0.01879 0.0
H280 H 0.50519 0.45396 0.05704 0.0
H281 H 0.50839 0.57017 0.05011 0.0
H282 H 0.50082 0.55533 0.01195 0.0
H283 H 0.567 0.51725 0.08216 0.0
H284 H 0.46 0.53158 0.08129 0.0
H285 H 0.52918 0.5526 0.13956 0.0
H286 H 0.44443 0.50849 0.14505 0.0
H287 H 0.47335 0.60182 0.10163 0.0
H288 H 0.42103 0.61598 0.11593 0.0
H289 H 0.55985 0.50329 0.14832 0.0
H290 H 0.63043 0.58089 0.10031 0.0
H291 H 0.39154 0.52256 0.15947 0.0
H292 H 0.62268 0.50691 0.16317 0.0
H293 H 0.69281 0.58509 0.11516 0.0
H294 H 0.16688 0.50236 0.15514 0.0
H295 H 0.20528 0.63376 0.1631 0.0
H296 H 0.27797 0.65142 0.16113 0.0
H297 H 0.25372 0.50899 0.18525 0.0
H298 H 0.25705 0.47076 0.1678 0.0
H299 H 0.20804 0.46824 0.17096 0.0
H300 H 0.19936 0.46966 0.13087 0.0
H301 H 0.24816 0.47194 0.12758 0.0
H302 H 0.23928 0.5113 0.11774 0.0
H303 H 0.346 0.65503 0.15665 0.0
H304 H 0.40475 0.64422 0.14889 0.0
H305 H 0.32232 0.51068 0.14387 0.0
C306 C 0.19058 0.53484 0.15665 0.0
C307 C 0.18037 0.56666 0.15933 0.0
C308 C 0.21231 0.60881 0.16105 0.0
C309 C 0.25373 0.61918 0.16003 0.0
C310 C 0.26272 0.58708 0.15733 0.0
C311 C 0.2321 0.54577 0.15563 0.0
C312 C 0.24997 0.51732 0.15188 0.0
C313 C 0.2417 0.4897 0.17006 0.0
C314 C 0.2332 0.49102 0.13076 0.0
C315 C 0.29538 0.54912 0.15148 0.0
C316 C 0.30208 0.58916 0.15479 0.0
C317 C 0.34122 0.62383 0.15419 0.0
C318 C 0.37433 0.61741 0.14974 0.0
C319 C 0.36806 0.57666 0.14593 0.0
C320 C 0.32814 0.54215 0.14715 0.0
H321 H 0.66244 0.15038 0.48262 0.0
H322 H 0.6816 0.16867 0.55037 0.0
H323 H 0.752 0.22701 0.54708 0.0
H324 H 0.76915 0.17808 0.47076 0.0
H325 H 0.76841 0.20421 0.4482 0.0
H326 H 0.7213 0.16103 0.4559 0.0
H327 H 0.68736 0.20723 0.45762 0.0
H328 H 0.73443 0.25074 0.45024 0.0
H329 H 0.71146 0.25545 0.47407 0.0
H330 H 0.81734 0.28719 0.53663 0.0
H331 H 0.87452 0.34365 0.51969 0.0
H332 H 0.81343 0.28549 0.45867 0.0
C333 C 0.68181 0.16597 0.49675 0.0
C334 C 0.66667 0.15488 0.51676 0.0
C335 C 0.69264 0.1766 0.53488 0.0
C336 C 0.73267 0.20976 0.53318 0.0
C337 C 0.74623 0.2207 0.51324 0.0
C338 C 0.72176 0.19927 0.49534 0.0
C339 C 0.74279 0.21894 0.47585 0.0
C340 C 0.7509 0.18877 0.46186 0.0
C341 C 0.7175 0.23398 0.46374 0.0
C342 C 0.78263 0.25515 0.48564 0.0
C343 C 0.78406 0.25549 0.50721 0.0
C344 C 0.81693 0.2869 0.51973 0.0
C345 C 0.84936 0.31876 0.50994 0.0
C346 C 0.84875 0.31898 0.48781 0.0
C347 C 0.81484 0.28652 0.4756 0.0
H348 H 0.47299 0.63767 0.78621 0.0
H349 H 0.54558 0.64914 0.84231 0.0
H350 H 0.56176 0.72223 0.84949 0.0
H351 H 0.53754 0.74186 0.77086 0.0
H352 H 0.49415 0.74638 0.76185 0.0
H353 H 0.49044 0.69611 0.76087 0.0
H354 H 0.42547 0.66879 0.78279 0.0
H355 H 0.42919 0.71906 0.78383 0.0
H356 H 0.42843 0.69588 0.80774 0.0
H357 H 0.56767 0.79446 0.85089 0.0
H358 H 0.56329 0.85777 0.84621 0.0
H359 H 0.48687 0.79735 0.78905 0.0
C360 C 0.49279 0.65556 0.79989 0.0
C361 C 0.50827 0.63757 0.81361 0.0
C362 C 0.53359 0.66221 0.83147 0.0
C363 C 0.54284 0.70376 0.8357 0.0
C364 C 0.52649 0.72024 0.82196 0.0
C365 C 0.50208 0.69678 0.80438 0.0
C366 C 0.48715 0.72096 0.79234 0.0
C367 C 0.5033 0.72667 0.77017 0.0
C368 C 0.43976 0.69991 0.79164 0.0
C369 C 0.50695 0.76185 0.80582 0.0
C370 C 0.52955 0.76102 0.82285 0.0
C371 C 0.55018 0.79537 0.83753 0.0
C372 C 0.54765 0.83133 0.8347 0.0
C373 C 0.52455 0.83279 0.81732 0.0
C374 C 0.50418 0.79734 0.80274 0.0
H375 H 0.85418 0.51208 0.12278 0.0
H376 H 0.8779 0.52839 0.19023 0.0
H377 H 0.82038 0.54281 0.19452 0.0
H378 H 0.82609 0.59297 0.11956 0.0
H379 H 0.78705 0.56332 0.09889 0.0
H380 H 0.83181 0.55725 0.10134 0.0
H381 H 0.78427 0.47787 0.10305 0.0
H382 H 0.73942 0.4837 0.10076 0.0
H383 H 0.74642 0.45935 0.12263 0.0
H384 H 0.7559 0.5497 0.19124 0.0
H385 H 0.69381 0.55332 0.18043 0.0
H386 H 0.71421 0.5327 0.11531 0.0
C387 C 0.84773 0.51928 0.13846 0.0
C388 C 0.87051 0.51915 0.15616 0.0
C389 C 0.861 0.52862 0.17641 0.0
C390 C 0.8283 0.5367 0.17901 0.0
C391 C 0.80581 0.53561 0.16119 0.0
C392 C 0.81553 0.52765 0.1413 0.0
C393 C 0.7862 0.52719 0.12469 0.0
C394 C 0.80917 0.56228 0.11027 0.0
C395 C 0.76269 0.48449 0.11205 0.0
C396 C 0.7579 0.53535 0.13831 0.0
C397 C 0.76955 0.54018 0.15932 0.0
C398 C 0.74681 0.54644 0.1748 0.0
C399 C 0.71151 0.54819 0.16855 0.0
C400 C 0.69954 0.54384 0.14704 0.0
C401 C 0.72311 0.53716 0.13186 0.0
H402 H 0.37813 0.79437 0.51736 0.0
H403 H 0.36117 0.88664 0.48751 0.0
H404 H 0.28698 0.83573 0.48077 0.0
H405 H 0.31402 0.71075 0.4813 0.0
H406 H 0.29396 0.67275 0.5003 0.0
H407 H 0.34443 0.71785 0.50492 0.0
H408 H 0.3228 0.73668 0.54045 0.0
H409 H 0.27211 0.69161 0.53591 0.0
H410 H 0.27769 0.74246 0.54111 0.0
H411 H 0.21567 0.77363 0.47552 0.0
H412 H 0.15403 0.70364 0.46967 0.0
H413 H 0.21836 0.65174 0.50203 0.0
C414 C 0.35868 0.80412 0.50975 0.0
C415 C 0.37526 0.84452 0.50313 0.0
C416 C 0.349 0.85584 0.49279 0.0
C417 C 0.30682 0.82723 0.48899 0.0
C418 C 0.2915 0.78749 0.49559 0.0
C419 C 0.31668 0.77587 0.50564 0.0
C420 C 0.29343 0.73034 0.50955 0.0
C421 C 0.3126 0.70654 0.49834 0.0
C422 C 0.29139 0.72497 0.53316 0.0
C423 C 0.25143 0.71788 0.4997 0.0
C424 C 0.25071 0.75143 0.49208 0.0
C425 C 0.21571 0.7472 0.48162 0.0
C426 C 0.18081 0.70744 0.47848 0.0
C427 C 0.18149 0.67248 0.48552 0.0
C428 C 0.21704 0.67802 0.49657 0.0
H429 H 0.53333 0.37338 0.80924 0.0
H430 H 0.52555 0.38237 0.87673 0.0
H431 H 0.51846 0.31298 0.87801 0.0
H432 H 0.46067 0.26096 0.79998 0.0
H433 H 0.4904 0.25366 0.77994 0.0
H434 H 0.49163 0.3027 0.78408 0.0
H435 H 0.57133 0.34069 0.78924 0.0
H436 H 0.57031 0.29177 0.78527 0.0
H437 H 0.59487 0.32526 0.80886 0.0
H438 H 0.51584 0.24399 0.87235 0.0
H439 H 0.51797 0.18071 0.86004 0.0
H440 H 0.5275 0.21595 0.79624 0.0
C441 C 0.52935 0.36039 0.82423 0.0
C442 C 0.52976 0.38334 0.84289 0.0
C443 C 0.5253 0.36549 0.86222 0.0
C444 C 0.5212 0.326 0.86312 0.0
C445 C 0.52171 0.30454 0.84455 0.0
C446 C 0.52557 0.321 0.82544 0.0
C447 C 0.5272 0.29222 0.80796 0.0
C448 C 0.49027 0.27645 0.79205 0.0
C449 C 0.56838 0.31378 0.79721 0.0
C450 C 0.52405 0.25734 0.82026 0.0
C451 C 0.52066 0.26494 0.84132 0.0
C452 C 0.51814 0.23756 0.85585 0.0
C453 C 0.51918 0.20152 0.84868 0.0
C454 C 0.5229 0.19306 0.82716 0.0
C455 C 0.52513 0.22151 0.81284 0.0
H456 H 0.52325 0.84465 0.5077 0.0
H457 H 0.64565 0.94788 0.49952 0.0
H458 H 0.6747 0.9012 0.50251 0.0
H459 H 0.55206 0.79853 0.54576 0.0
H460 H 0.51545 0.74599 0.5358 0.0
H461 H 0.50474 0.78729 0.532 0.0
H462 H 0.49532 0.76761 0.49188 0.0
H463 H 0.50617 0.72628 0.49556 0.0
H464 H 0.53619 0.7655 0.47824 0.0
H465 H 0.6902 0.84294 0.50799 0.0
H466 H 0.6908 0.77919 0.51659 0.0
H467 H 0.55772 0.71542 0.52005 0.0
C468 C 0.55619 0.85758 0.50647 0.0
C469 C 0.58223 0.89991 0.50343 0.0
C470 C 0.62513 0.91548 0.50186 0.0
C471 C 0.64187 0.8892 0.50347 0.0
C472 C 0.61517 0.84753 0.50646 0.0
C473 C 0.57324 0.8319 0.5079 0.0
C474 C 0.5511 0.78641 0.51168 0.0
C475 C 0.5296 0.77916 0.53255 0.0
C476 C 0.52039 0.7599 0.49324 0.0
C477 C 0.58724 0.77896 0.51267 0.0
C478 C 0.62395 0.81434 0.50943 0.0
C479 C 0.66158 0.81497 0.51038 0.0
C480 C 0.66164 0.77867 0.51515 0.0
C481 C 0.62433 0.74258 0.51905 0.0
C482 C 0.58674 0.7427 0.51733 0.0
H483 H 0.67851 0.52171 0.82716 0.0
H484 H 0.70508 0.64917 0.839 0.0
H485 H 0.77976 0.6728 0.84257 0.0
H486 H 0.75103 0.52698 0.86373 0.0
H487 H 0.76448 0.49396 0.84788 0.0
H488 H 0.71399 0.48813 0.84447 0.0
H489 H 0.72496 0.49878 0.805 0.0
H490 H 0.77565 0.50476 0.8083 0.0
H491 H 0.76943 0.54479 0.79728 0.0
H492 H 0.85113 0.68114 0.848 0.0
H493 H 0.91191 0.6732 0.85536 0.0
H494 H 0.83761 0.54056 0.83821 0.0
C495 C 0.69997 0.55469 0.83031 0.0
C496 C 0.686 0.58362 0.83286 0.0
C497 C 0.71515 0.62647 0.83695 0.0
C498 C 0.75759 0.64017 0.83894 0.0
C499 C 0.77026 0.61066 0.8365 0.0
C500 C 0.74221 0.56883 0.83214 0.0
C501 C 0.76319 0.54299 0.83125 0.0
C502 C 0.74723 0.51116 0.84782 0.0
C503 C 0.758 0.52158 0.80914 0.0
C504 C 0.80738 0.5766 0.83646 0.0
C505 C 0.81107 0.61552 0.83924 0.0
C506 C 0.84869 0.6509 0.84553 0.0
C507 C 0.88311 0.64613 0.84956 0.0
C508 C 0.87951 0.60626 0.84737 0.0
C509 C 0.84134 0.57142 0.84015 0.0
H510 H 0.12055 0.70067 0.188 0.0
H511 H 0.11538 0.70737 0.12078 0.0
H512 H 0.16985 0.78117 0.12527 0.0
H513 H 0.14822 0.81196 0.2039 0.0
H514 H 0.18213 0.81544 0.22521 0.0
H515 H 0.1366 0.76644 0.21716 0.0
H516 H 0.18202 0.73221 0.21214 0.0
H517 H 0.22768 0.78102 0.21975 0.0
H518 H 0.22395 0.75349 0.19482 0.0
H519 H 0.23315 0.84951 0.13632 0.0
H520 H 0.2979 0.90739 0.15315 0.0
H521 H 0.26152 0.85636 0.21322 0.0
C522 C 0.12959 0.71808 0.1743 0.0
C523 C 0.1135 0.69828 0.15404 0.0
C524 C 0.12706 0.72193 0.13646 0.0
C525 C 0.158 0.76392 0.13886 0.0
C526 C 0.17483 0.7819 0.15896 0.0
C527 C 0.16064 0.75988 0.17642 0.0
C528 C 0.18704 0.78461 0.19595 0.0
C529 C 0.162 0.79525 0.21147 0.0
C530 C 0.2063 0.76145 0.20625 0.0
C531 C 0.21945 0.82309 0.18661 0.0
C532 C 0.21154 0.82132 0.16532 0.0
C533 C 0.23912 0.85172 0.15306 0.0
C534 C 0.27585 0.88456 0.16278 0.0
C535 C 0.28488 0.88658 0.18454 0.0
C536 C 0.25574 0.8557 0.19655 0.0
H537 H 0.58542 0.21258 0.47445 0.0
H538 H 0.46775 0.14088 0.50212 0.0
H539 H 0.45707 0.2015 0.50288 0.0
H540 H 0.61635 0.30138 0.50628 0.0
H541 H 0.64296 0.33706 0.48685 0.0
H542 H 0.63734 0.28607 0.48452 0.0
H543 H 0.60235 0.27203 0.44734 0.0
H544 H 0.60784 0.32316 0.44957 0.0
H545 H 0.55769 0.27795 0.44364 0.0
H546 H 0.46331 0.2718 0.50466 0.0
H547 H 0.48841 0.34711 0.51025 0.0
H548 H 0.60299 0.37313 0.4824 0.0
C549 C 0.55677 0.20918 0.48005 0.0
C550 C 0.52712 0.17197 0.48797 0.0
C551 C 0.49068 0.16911 0.49583 0.0
C552 C 0.48426 0.20325 0.49619 0.0
C553 C 0.5146 0.23987 0.48866 0.0
C554 C 0.55022 0.24303 0.4808 0.0
C555 C 0.58061 0.28717 0.47638 0.0
C556 C 0.62171 0.30388 0.48928 0.0
C557 C 0.58751 0.29025 0.45283 0.0
C558 C 0.55725 0.30874 0.48374 0.0
C559 C 0.51879 0.2808 0.49025 0.0
C560 C 0.49298 0.29388 0.49922 0.0
C561 C 0.50739 0.33668 0.50223 0.0
C562 C 0.54747 0.36576 0.49658 0.0
C563 C 0.57207 0.35146 0.48665 0.0
H564 H 0.38841 0.58688 0.8427 0.0
H565 H 0.32833 0.46337 0.81013 0.0
H566 H 0.26301 0.46508 0.80714 0.0
H567 H 0.3073 0.57475 0.87286 0.0
H568 H 0.31601 0.62661 0.87094 0.0
H569 H 0.35828 0.61666 0.86877 0.0
H570 H 0.37364 0.64773 0.83285 0.0
H571 H 0.33115 0.6576 0.83474 0.0
H572 H 0.33343 0.62704 0.81226 0.0
H573 H 0.20288 0.47748 0.81155 0.0
H574 H 0.15316 0.49934 0.82252 0.0
H575 H 0.25435 0.61724 0.84967 0.0
C576 C 0.36158 0.56027 0.83481 0.0
C577 C 0.36317 0.52481 0.8268 0.0
C578 C 0.32762 0.49081 0.81637 0.0
C579 C 0.29052 0.49158 0.81456 0.0
C580 C 0.2899 0.52695 0.82285 0.0
C581 C 0.32468 0.56084 0.83257 0.0
C582 C 0.3157 0.59441 0.8409 0.0
C583 C 0.32485 0.60361 0.86478 0.0
C584 C 0.3399 0.63404 0.8295 0.0
C585 C 0.26993 0.5734 0.83523 0.0
C586 C 0.25566 0.53469 0.82465 0.0
C587 C 0.21383 0.50811 0.81941 0.0
C588 C 0.18579 0.52099 0.82561 0.0
C589 C 0.19968 0.56017 0.83693 0.0
C590 C 0.24252 0.58703 0.84116 0.0
H591 H 0.84204 0.36313 0.2107 0.0
H592 H 0.85463 0.34975 0.1438 0.0
H593 H 0.78825 0.28358 0.14076 0.0
H594 H 0.79231 0.25144 0.21884 0.0
H595 H 0.75932 0.25548 0.23798 0.0
H596 H 0.80974 0.29932 0.23504 0.0
H597 H 0.77662 0.34494 0.22894 0.0
H598 H 0.72614 0.30126 0.23166 0.0
H599 H 0.73701 0.32856 0.2083 0.0
H600 H 0.71692 0.22202 0.14469 0.0
H601 H 0.64808 0.16998 0.15551 0.0
H602 H 0.68402 0.22383 0.2198 0.0
C603 C 0.83126 0.34599 0.19544 0.0
C604 C 0.85353 0.36163 0.17749 0.0
C605 C 0.83816 0.3383 0.1578 0.0
C606 C 0.80048 0.30068 0.15591 0.0
C607 C 0.7788 0.28665 0.17388 0.0
C608 C 0.7939 0.30844 0.1933 0.0
C609 C 0.76387 0.28798 0.21003 0.0
C610 C 0.78242 0.27264 0.22644 0.0
C611 C 0.7501 0.31745 0.22033 0.0
C612 C 0.72892 0.25201 0.19691 0.0
C613 C 0.73812 0.2514 0.17613 0.0
C614 C 0.70961 0.2219 0.16098 0.0
C615 C 0.67063 0.19245 0.16726 0.0
C616 C 0.66052 0.19298 0.18847 0.0
C617 C 0.69047 0.22291 0.20341 0.0
H618 H 0.05383 0.56883 0.09904 0.0
H619 H 0.96261 0.43868 0.10198 0.0
H620 H 0.95817 0.42841 0.06329 0.0
H621 H 0.00517 0.58378 0.05501 0.0
H622 H 0.05289 0.61934 0.04401 0.0
H623 H 0.05082 0.61563 0.07188 0.0
H624 H 0.11083 0.59957 0.07152 0.0
H625 H 0.11311 0.60321 0.04363 0.0
H626 H 0.10626 0.55678 0.05441 0.0
H627 H 0.96278 0.43293 0.02423 0.0
H628 H 0.97419 0.45229 0.9878 0.0
H629 H 0.06006 0.58019 0.01076 0.0
C630 C 0.03332 0.53801 0.09159 0.0
C631 C 0.00884 0.50444 0.10352 0.0
C632 C 0.98173 0.46481 0.09313 0.0
C633 C 0.97908 0.45866 0.07118 0.0
C634 C 0.00346 0.49254 0.0599 0.0
C635 C 0.02988 0.53148 0.06975 0.0
C636 C 0.05103 0.56327 0.05405 0.0
C637 C 0.03926 0.59752 0.05638 0.0
C638 C 0.0981 0.58178 0.05602 0.0
C639 C 0.03261 0.53608 0.03379 0.0
C640 C 0.00535 0.49537 0.03748 0.0
C641 C 0.98402 0.46472 0.02116 0.0
C642 C 0.99053 0.47608 0.00053 0.0
C643 C 0.01799 0.51777 0.9964 0.0
C644 C 0.03937 0.54796 0.01334 0.0
H645 H 0.47315 0.96863 0.43673 0.0
H646 H 0.58271 0.08259 0.46029 0.0
H647 H 0.591 0.1084 0.42487 0.0
H648 H 0.50943 0.95756 0.38697 0.0
H649 H 0.45992 0.93726 0.3732 0.0
H650 H 0.46264 0.92907 0.40042 0.0
H651 H 0.41782 0.96291 0.40922 0.0
H652 H 0.41482 0.97104 0.38201 0.0
H653 H 0.43385 0.01437 0.40166 0.0
H654 H 0.58773 0.11949 0.38601 0.0
H655 H 0.57275 0.1163 0.34803 0.0
H656 H 0.46357 0.99527 0.35107 0.0
C657 C 0.49878 0.99912 0.4344 0.0
C658 C 0.52706 0.02407 0.45111 0.0
C659 C 0.5603 0.06364 0.44766 0.0
C660 C 0.56534 0.07826 0.42761 0.0
C661 C 0.53673 0.05276 0.41136 0.0
C662 C 0.504 0.01409 0.41465 0.0
C663 C 0.4775 0.99242 0.39478 0.0
C664 C 0.47739 0.95168 0.38848 0.0
C665 C 0.4334 0.98475 0.39706 0.0
C666 C 0.50044 0.02473 0.37963 0.0
C667 C 0.53458 0.05929 0.38939 0.0
C668 C 0.56085 0.09272 0.3783 0.0
C669 C 0.5519 0.0907 0.35673 0.0
C670 C 0.51685 0.05557 0.34646 0.0
C671 C 0.49088 0.02237 0.35826 0.0
H672 H 0.57287 0.557 0.76378 0.0
H673 H 0.46311 0.43498 0.75907 0.0
H674 H 0.47185 0.42682 0.72111 0.0
H675 H 0.55141 0.58644 0.71486 0.0
H676 H 0.60493 0.61553 0.70888 0.0
H677 H 0.59101 0.61056 0.73575 0.0
H678 H 0.63907 0.58036 0.74258 0.0
H679 H 0.6529 0.58495 0.71568 0.0
H680 H 0.63203 0.53537 0.7265 0.0
H681 H 0.49402 0.43136 0.684 0.0
H682 H 0.52303 0.4518 0.64938 0.0
H683 H 0.61481 0.57283 0.67801 0.0
C684 C 0.55082 0.52851 0.75474 0.0
C685 C 0.51755 0.49641 0.76425 0.0
C686 C 0.48879 0.45988 0.75196 0.0
C687 C 0.49365 0.45491 0.73048 0.0
C688 C 0.527 0.48708 0.72158 0.0
C689 C 0.55466 0.52346 0.73324 0.0
C690 C 0.58636 0.55431 0.71968 0.0
C691 C 0.58322 0.59405 0.7198 0.0
C692 C 0.63018 0.56432 0.72653 0.0
C693 C 0.57242 0.52949 0.69857 0.0
C694 C 0.53849 0.49055 0.70004 0.0
C695 C 0.52045 0.46181 0.68263 0.0
C696 C 0.53713 0.47351 0.66313 0.0
C697 C 0.57097 0.51368 0.6613 0.0
C698 C 0.58893 0.54191 0.67919 0.0
H699 H 0.55993 0.0592 0.5751 0.0
H700 H 0.45418 0.9415 0.55165 0.0
H701 H 0.43869 0.92225 0.58805 0.0
H702 H 0.5908 0.01628 0.61673 0.0
H703 H 0.60836 0.06212 0.63459 0.0
H704 H 0.61041 0.06651 0.60675 0.0
H705 H 0.56723 0.10361 0.60947 0.0
H706 H 0.56477 0.09901 0.63727 0.0
H707 H 0.51786 0.07847 0.62105 0.0
H708 H 0.43182 0.91899 0.6272 0.0
H709 H 0.43843 0.92737 0.66566 0.0
H710 H 0.55436 0.04318 0.66315 0.0
C711 C 0.53356 0.02936 0.57768 0.0
C712 C 0.50794 0.00193 0.56069 0.0
C713 C 0.47411 0.96288 0.56454 0.0
C714 C 0.46503 0.9518 0.58512 0.0
C715 C 0.4907 0.97974 0.60158 0.0
C716 C 0.52477 0.01733 0.59806 0.0
C717 C 0.54835 0.04101 0.61841 0.0
C718 C 0.59207 0.0468 0.61916 0.0
C719 C 0.5496 0.083 0.62174 0.0
C720 C 0.52171 0.0113 0.63398 0.0
C721 C 0.48839 0.9764 0.62399 0.0
C722 C 0.45834 0.94575 0.63518 0.0
C723 C 0.46267 0.9507 0.65714 0.0
C724 C 0.49732 0.98568 0.66784 0.0
C725 C 0.52717 0.0162 0.65584 0.0
H726 H 0.54931 0.54673 0.89417 0.0
H727 H 0.43523 0.43268 0.87537 0.0
H728 H 0.42443 0.41727 0.9124 0.0
H729 H 0.58166 0.50888 0.93719 0.0
H730 H 0.60125 0.55679 0.95364 0.0
H731 H 0.60137 0.55756 0.92555 0.0
H732 H 0.55962 0.59622 0.92705 0.0
H733 H 0.55946 0.59568 0.95512 0.0
H734 H 0.5114 0.57398 0.93977 0.0
H735 H 0.42618 0.41422 0.95148 0.0
H736 H 0.43723 0.42709 0.99011 0.0
H737 H 0.54773 0.54497 0.98342 0.0
C738 C 0.52224 0.51837 0.89786 0.0
C739 C 0.49318 0.49078 0.88195 0.0
C740 C 0.4578 0.45429 0.88737 0.0
C741 C 0.45152 0.44515 0.90832 0.0
C742 C 0.48069 0.47306 0.92366 0.0
C743 C 0.51511 0.50915 0.91872 0.0
C744 C 0.54046 0.53514 0.93825 0.0
C745 C 0.58375 0.53985 0.93868 0.0
C746 C 0.54285 0.57777 0.94016 0.0
C747 C 0.51478 0.50817 0.95494 0.0
C748 C 0.48077 0.47217 0.9462 0.0
C749 C 0.45264 0.44232 0.95851 0.0
C750 C 0.45919 0.44976 0.98037 0.0
C751 C 0.49316 0.48701 0.98957 0.0
C752 C 0.52137 0.51638 0.97668 0.0
H753 H 0.97546 0.4611 0.22743 0.0
H754 H 0.10001 0.56288 0.2216 0.0
H755 H 0.11617 0.56233 0.25894 0.0
H756 H 0.96095 0.49635 0.2773 0.0
H757 H 0.93227 0.44543 0.28663 0.0
H758 H 0.93108 0.45145 0.25903 0.0
H759 H 0.95615 0.39847 0.25144 0.0
H760 H 0.95723 0.39206 0.27902 0.0
H761 H 0.00293 0.40686 0.26465 0.0
H762 H 0.11767 0.55414 0.29714 0.0
H763 H 0.10481 0.53814 0.33384 0.0
H764 H 0.97979 0.44055 0.31502 0.0
C765 C 0.00632 0.48291 0.2339 0.0
C766 C 0.03647 0.51201 0.22152 0.0
C767 C 0.07636 0.54027 0.23072 0.0
C768 C 0.08589 0.54019 0.25192 0.0
C769 C 0.0553 0.51156 0.26372 0.0
C770 C 0.0164 0.4833 0.25506 0.0
C771 C 0.98872 0.45691 0.27144 0.0
C772 C 0.95104 0.46292 0.27373 0.0
C773 C 0.97549 0.41084 0.26633 0.0
C774 C 0.01798 0.47531 0.29072 0.0
C775 C 0.05627 0.50661 0.28586 0.0
C776 C 0.08801 0.52926 0.30111 0.0
C777 C 0.08045 0.51971 0.32192 0.0
C778 C 0.04143 0.48771 0.32735 0.0
C779 C 0.00991 0.4652 0.31143 0.0
loop_
_geom_bond_atom_site_label_1
_geom_bond_atom_site_label_2
_geom_bond_distance
_geom_bond_site_symmetry_2
_ccdc_geom_bond_type
Zn0 O6 1.969 . S
Zn0 O7 1.965 . S
Zn0 O11 2.024 . S
Zn0 O16 1.969 . S
Zn1 O8 1.969 . S
Zn1 O14 1.969 . S
Zn1 O15 1.965 . S
Zn1 O17 2.024 . S
C2 O3 1.229 . S
C2 O11 1.058 . S
O3 C2 1.229 . S
C4 O5 1.229 . S
C4 O17 1.058 . S
O5 C4 1.229 . S
O6 Zn0 1.969 . S
O6 C9 1.267 . S
O7 Zn0 1.965 . S
O7 C18 1.260 1_455 S
O8 Zn1 1.969 . S
O8 C18 1.258 . S
C9 O6 1.267 . S
C9 O10 1.228 . S
O10 C9 1.228 . S
O11 Zn0 2.024 . S
O11 C2 1.058 . S
C12 O13 1.228 . S
C12 O14 1.267 . S
O13 C12 1.228 . S
O14 Zn1 1.969 . S
O14 C12 1.267 . S
O15 Zn1 1.965 . S
O15 C19 1.260 1_655 S
O16 Zn0 1.969 . S
O16 C19 1.258 . S
O17 Zn1 2.024 . S
O17 C4 1.058 . S
C18 O7 1.260 1_655 S
C18 O8 1.258 . S
C19 O15 1.260 1_455 S
C19 O16 1.258 . S
Zn20 O26 1.969 . S
Zn20 O27 1.965 . S
Zn20 O31 2.024 . S
Zn20 O36 1.969 . S
Zn21 O28 1.969 . S
Zn21 O34 1.969 . S
Zn21 O35 1.965 . S
Zn21 O37 2.024 . S
C22 O23 1.229 . S
C22 O31 1.058 . S
O23 C22 1.229 . S
C24 O25 1.229 . S
C24 O37 1.058 . S
O25 C24 1.229 . S
O26 Zn20 1.969 . S
O26 C29 1.267 . S
O27 Zn20 1.965 . S
O27 C38 1.260 . S
O28 Zn21 1.969 . S
O28 C38 1.258 1_565 S
C29 O26 1.267 . S
C29 O30 1.228 . S
O30 C29 1.228 . S
O31 Zn20 2.024 . S
O31 C22 1.058 . S
C32 O33 1.228 . S
C32 O34 1.267 . S
O33 C32 1.228 . S
O34 Zn21 1.969 . S
O34 C32 1.267 . S
O35 Zn21 1.965 . S
O35 C39 1.260 1_565 S
O36 Zn20 1.969 . S
O36 C39 1.258 . S
O37 Zn21 2.024 . S
O37 C24 1.058 . S
C38 O27 1.260 . S
C38 O28 1.258 1_545 S
C39 O35 1.260 1_545 S
C39 O36 1.258 . S
Zn40 O46 1.969 . S
Zn40 O47 1.965 . S
Zn40 O51 2.024 . S
Zn40 O56 1.969 . S
Zn41 O48 1.969 . S
Zn41 O54 1.969 . S
Zn41 O55 1.965 . S
Zn41 O57 2.024 . S
C42 O43 1.229 . S
C42 O51 1.058 . S
O43 C42 1.229 . S
C44 O45 1.229 . S
C44 O57 1.058 . S
O45 C44 1.229 . S
O46 Zn40 1.969 . S
O46 C49 1.267 . S
O47 Zn40 1.965 . S
O47 C58 1.260 . S
O48 Zn41 1.969 . S
O48 C58 1.258 . S
C49 O46 1.267 . S
C49 O50 1.228 . S
O50 C49 1.228 . S
O51 Zn40 2.024 . S
O51 C42 1.058 . S
C52 O53 1.228 . S
C52 O54 1.267 . S
O53 C52 1.228 . S
O54 Zn41 1.969 . S
O54 C52 1.267 . S
O55 Zn41 1.965 . S
O55 C59 1.260 . S
O56 Zn40 1.969 . S
O56 C59 1.258 . S
O57 Zn41 2.024 . S
O57 C44 1.058 . S
C58 O47 1.260 . S
C58 O48 1.258 . S
C59 O55 1.260 . S
C59 O56 1.258 . S
C60 C61 1.386 . S
C60 C62 1.397 . S
C60 H84 0.931 . S
C61 C60 1.386 . S
C61 C65 1.397 1_545 S
C62 C60 1.397 . S
C62 C63 1.384 . S
C62 H85 0.930 . S
C63 C62 1.384 . S
C63 C64 1.377 1_545 S
C63 C66 1.481 . S
C64 C63 1.377 1_565 S
C64 C65 1.389 . S
C64 H86 0.929 . S
C65 C61 1.397 1_565 S
C65 C64 1.389 . S
C65 H87 0.931 . S
C66 C63 1.481 . S
C66 C67 1.387 . S
C66 C71 1.390 . S
C67 C66 1.387 . S
C67 C68 1.401 . S
C67 H88 0.930 . S
C68 C67 1.401 . S
C68 C69 1.376 . S
C68 C77 1.511 . S
C69 C68 1.376 . S
C69 C70 1.390 1_545 S
C69 H90 0.931 . S
C70 C69 1.390 1_565 S
C70 C71 1.362 1_565 S
C70 C72 1.501 . S
C71 C66 1.390 . S
C71 C70 1.362 1_545 S
C71 H89 0.931 1_545 S
C72 C70 1.501 . S
C72 C73 1.371 . S
C72 C74 1.365 . S
C73 C72 1.371 . S
C73 C83 1.386 . S
C73 H91 0.931 . S
C74 C72 1.365 . S
C74 C75 1.409 . S
C74 H92 0.929 . S
C75 C74 1.409 . S
C75 C76 1.380 . S
C75 H93 0.930 . S
C76 C75 1.380 . S
C76 C83 1.357 . S
C77 C68 1.511 . S
C77 C78 1.341 . S
C77 C79 1.371 . S
C78 C77 1.341 . S
C78 C82 1.394 . S
C78 H94 0.930 . S
C79 C77 1.371 . S
C79 C80 1.392 . S
C79 H95 0.931 . S
C80 C79 1.392 . S
C80 C81 1.331 . S
C80 H98 0.932 . S
C81 C80 1.331 . S
C81 C82 1.336 . S
C82 C78 1.394 . S
C82 C81 1.336 . S
C82 H97 0.929 . S
C83 C73 1.386 . S
C83 C76 1.357 . S
C83 H96 0.928 . S
H84 C60 0.931 . S
H85 C62 0.930 . S
H86 C64 0.929 . S
H87 C65 0.931 . S
H88 C67 0.930 . S
H89 C71 0.931 1_565 S
H90 C69 0.931 . S
H91 C73 0.931 . S
H92 C74 0.929 . S
H93 C75 0.930 . S
H94 C78 0.930 . S
H95 C79 0.931 . S
H96 C83 0.928 . S
H97 C82 0.929 . S
H98 C80 0.932 . S
C99 C100 1.386 . S
C99 C101 1.397 . S
C99 H123 0.931 . S
C100 C99 1.386 . S
C100 C104 1.397 . S
C101 C99 1.397 . S
C101 C102 1.384 . S
C101 H124 0.930 . S
C102 C101 1.384 . S
C102 C103 1.377 . S
C102 C105 1.481 . S
C103 C102 1.377 . S
C103 C104 1.389 . S
C103 H125 0.929 . S
C104 C100 1.397 . S
C104 C103 1.389 . S
C104 H126 0.931 . S
C105 C102 1.481 . S
C105 C106 1.387 . S
C105 C110 1.390 . S
C106 C105 1.387 . S
C106 C107 1.401 . S
C106 H127 0.930 . S
C107 C106 1.401 . S
C107 C108 1.376 . S
C107 C116 1.511 . S
C108 C107 1.376 . S
C108 C109 1.392 . S
C108 H129 0.931 . S
C109 C108 1.392 . S
C109 C110 1.361 . S
C109 C111 1.500 . S
C110 C105 1.390 . S
C110 C109 1.361 . S
C110 H128 0.931 . S
C111 C109 1.500 . S
C111 C112 1.371 . S
C111 C113 1.365 . S
C112 C111 1.371 . S
C112 C122 1.386 . S
C112 H130 0.931 . S
C113 C111 1.365 . S
C113 C114 1.409 . S
C113 H131 0.929 . S
C114 C113 1.409 . S
C114 C115 1.380 . S
C114 H132 0.930 . S
C115 C114 1.380 . S
C115 C122 1.357 . S
C116 C107 1.511 . S
C116 C117 1.341 . S
C116 C118 1.371 . S
C117 C116 1.341 . S
C117 C121 1.394 . S
C117 H133 0.930 . S
C118 C116 1.371 . S
C118 C119 1.392 . S
C118 H134 0.931 . S
C119 C118 1.392 . S
C119 C120 1.331 . S
C119 H137 0.932 . S
C120 C119 1.331 . S
C120 C121 1.336 . S
C121 C117 1.394 . S
C121 C120 1.336 . S
C121 H136 0.929 . S
C122 C112 1.386 . S
C122 C115 1.357 . S
C122 H135 0.928 . S
H123 C99 0.931 . S
H124 C101 0.930 . S
H125 C103 0.929 . S
H126 C104 0.931 . S
H127 C106 0.930 . S
H128 C110 0.931 . S
H129 C108 0.931 . S
H130 C112 0.931 . S
H131 C113 0.929 . S
H132 C114 0.930 . S
H133 C117 0.930 . S
H134 C118 0.931 . S
H135 C122 0.928 . S
H136 C121 0.929 . S
H137 C119 0.932 . S
C138 C139 1.386 . S
C138 C140 1.397 . S
C138 H162 0.931 . S
C139 C138 1.386 . S
C139 C143 1.397 1_455 S
C140 C138 1.397 . S
C140 C141 1.384 . S
C140 H163 0.930 . S
C141 C140 1.384 . S
C141 C142 1.377 1_455 S
C141 C144 1.481 . S
C142 C141 1.377 1_655 S
C142 C143 1.389 . S
C142 H164 0.929 . S
C143 C139 1.397 1_655 S
C143 C142 1.389 . S
C143 H165 0.931 . S
C144 C141 1.481 . S
C144 C145 1.387 . S
C144 C149 1.390 . S
C145 C144 1.387 . S
C145 C146 1.401 . S
C145 H166 0.930 . S
C146 C145 1.401 . S
C146 C147 1.376 . S
C146 C155 1.511 . S
C147 C146 1.376 . S
C147 C148 1.392 . S
C147 H168 0.931 . S
C148 C147 1.392 . S
C148 C149 1.361 . S
C148 C150 1.500 1_455 S
C149 C144 1.390 . S
C149 C148 1.361 . S
C149 H167 0.931 1_455 S
C150 C148 1.500 1_655 S
C150 C151 1.371 . S
C150 C152 1.365 . S
C151 C150 1.371 . S
C151 C161 1.386 . S
C151 H169 0.931 . S
C152 C150 1.365 . S
C152 C153 1.409 . S
C152 H170 0.929 . S
C153 C152 1.409 . S
C153 C154 1.380 . S
C153 H171 0.930 . S
C154 C153 1.380 . S
C154 C161 1.357 . S
C155 C146 1.511 . S
C155 C156 1.341 . S
C155 C157 1.371 . S
C156 C155 1.341 . S
C156 C160 1.394 . S
C156 H172 0.930 . S
C157 C155 1.371 . S
C157 C158 1.392 . S
C157 H173 0.931 . S
C158 C157 1.392 . S
C158 C159 1.331 . S
C158 H176 0.932 . S
C159 C158 1.331 . S
C159 C160 1.336 . S
C160 C156 1.394 . S
C160 C159 1.336 . S
C160 H175 0.929 . S
C161 C151 1.386 . S
C161 C154 1.357 . S
C161 H174 0.928 . S
H162 C138 0.931 . S
H163 C140 0.930 . S
H164 C142 0.929 . S
H165 C143 0.931 . S
H166 C145 0.930 . S
H167 C149 0.931 1_655 S
H168 C147 0.931 . S
H169 C151 0.931 . S
H170 C152 0.929 . S
H171 C153 0.930 . S
H172 C156 0.930 . S
H173 C157 0.931 . S
H174 C161 0.928 . S
H175 C160 0.929 . S
H176 C158 0.932 . S
C177 C178 1.386 1_655 S
C177 C179 1.397 . S
C177 H201 0.931 . S
C178 C177 1.386 1_455 S
C178 C182 1.397 . S
C179 C177 1.397 . S
C179 C180 1.384 1_655 S
C179 H202 0.930 . S
C180 C179 1.384 1_455 S
C180 C181 1.377 . S
C180 C183 1.481 . S
C181 C180 1.377 . S
C181 C182 1.389 . S
C181 H203 0.929 . S
C182 C178 1.397 . S
C182 C181 1.389 . S
C182 H204 0.931 . S
C183 C180 1.481 . S
C183 C184 1.387 1_455 S
C183 C188 1.390 . S
C184 C183 1.387 1_655 S
C184 C185 1.401 . S
C184 H205 0.930 . S
C185 C184 1.401 . S
C185 C186 1.376 1_655 S
C185 C194 1.511 . S
C186 C185 1.376 1_455 S
C186 C187 1.392 . S
C186 H207 0.931 . S
C187 C186 1.392 . S
C187 C188 1.361 . S
C187 C189 1.500 . S
C188 C183 1.390 . S
C188 C187 1.361 . S
C188 H206 0.931 . S
C189 C187 1.500 . S
C189 C190 1.371 . S
C189 C191 1.365 . S
C190 C189 1.371 . S
C190 C200 1.386 . S
C190 H208 0.931 . S
C191 C189 1.365 . S
C191 C192 1.409 . S
C191 H209 0.929 . S
C192 C191 1.409 . S
C192 C193 1.380 . S
C192 H210 0.930 . S
C193 C192 1.380 . S
C193 C200 1.357 . S
C194 C185 1.511 . S
C194 C195 1.341 . S
C194 C196 1.371 . S
C195 C194 1.341 . S
C195 C199 1.394 . S
C195 H211 0.930 . S
C196 C194 1.371 . S
C196 C197 1.392 . S
C196 H212 0.931 . S
C197 C196 1.392 . S
C197 C198 1.331 . S
C197 H215 0.932 . S
C198 C197 1.331 . S
C198 C199 1.336 . S
C199 C195 1.394 . S
C199 C198 1.336 . S
C199 H214 0.929 . S
C200 C190 1.386 . S
C200 C193 1.357 . S
C200 H213 0.928 . S
H201 C177 0.931 . S
H202 C179 0.930 . S
H203 C181 0.929 . S
H204 C182 0.931 . S
H205 C184 0.930 . S
H206 C188 0.931 . S
H207 C186 0.931 . S
H208 C190 0.931 . S
H209 C191 0.929 . S
H210 C192 0.930 . S
H211 C195 0.930 . S
H212 C196 0.931 . S
H213 C200 0.928 . S
H214 C199 0.929 . S
H215 C197 0.932 . S
C216 C217 1.386 1_565 S
C216 C218 1.397 . S
C216 H240 0.931 . S
C217 C216 1.386 1_545 S
C217 C221 1.397 . S
C218 C216 1.397 . S
C218 C219 1.384 1_565 S
C218 H241 0.930 . S
C219 C218 1.384 1_545 S
C219 C220 1.377 . S
C219 C222 1.481 . S
C220 C219 1.377 . S
C220 C221 1.389 . S
C220 H242 0.929 . S
C221 C217 1.397 . S
C221 C220 1.389 . S
C221 H243 0.931 . S
C222 C219 1.481 . S
C222 C223 1.387 1_545 S
C222 C227 1.390 . S
C223 C222 1.387 1_565 S
C223 C224 1.401 . S
C223 H244 0.930 . S
C224 C223 1.401 . S
C224 C225 1.376 1_565 S
C224 C233 1.511 . S
C225 C224 1.376 1_545 S
C225 C226 1.392 . S
C225 H246 0.931 . S
C226 C225 1.392 . S
C226 C227 1.361 . S
C226 C228 1.500 . S
C227 C222 1.390 . S
C227 C226 1.361 . S
C227 H245 0.931 . S
C228 C226 1.500 . S
C228 C229 1.371 . S
C228 C230 1.365 . S
C229 C228 1.371 . S
C229 C239 1.386 . S
C229 H247 0.931 . S
C230 C228 1.365 . S
C230 C231 1.409 . S
C230 H248 0.929 . S
C231 C230 1.409 . S
C231 C232 1.380 . S
C231 H249 0.930 . S
C232 C231 1.380 . S
C232 C239 1.357 . S
C233 C224 1.511 . S
C233 C234 1.341 . S
C233 C235 1.371 . S
C234 C233 1.341 . S
C234 C238 1.394 . S
C234 H250 0.930 . S
C235 C233 1.371 . S
C235 C236 1.392 . S
C235 H251 0.931 . S
C236 C235 1.392 . S
C236 C237 1.331 . S
C236 H254 0.932 . S
C237 C236 1.331 . S
C237 C238 1.336 . S
C238 C234 1.394 . S
C238 C237 1.336 . S
C238 H253 0.929 . S
C239 C229 1.386 . S
C239 C232 1.357 . S
C239 H252 0.928 . S
H240 C216 0.931 . S
H241 C218 0.930 . S
H242 C220 0.929 . S
H243 C221 0.931 . S
H244 C223 0.930 . S
H245 C227 0.931 . S
H246 C225 0.931 . S
H247 C229 0.931 . S
H248 C230 0.929 . S
H249 C231 0.930 . S
H250 C234 0.930 . S
H251 C235 0.931 . S
H252 C239 0.928 . S
H253 C238 0.929 . S
H254 C236 0.932 . S
C255 C256 1.386 . S
C255 C257 1.397 . S
C255 H279 0.931 . S
C256 C255 1.386 . S
C256 C260 1.397 . S
C257 C255 1.397 . S
C257 C258 1.384 . S
C257 H280 0.930 . S
C258 C257 1.384 . S
C258 C259 1.377 . S
C258 C261 1.481 . S
C259 C258 1.377 . S
C259 C260 1.389 . S
C259 H281 0.929 . S
C260 C256 1.397 . S
C260 C259 1.389 . S
C260 H282 0.931 . S
C261 C258 1.481 . S
C261 C262 1.387 . S
C261 C266 1.390 . S
C262 C261 1.387 . S
C262 C263 1.401 . S
C262 H283 0.930 . S
C263 C262 1.401 . S
C263 C264 1.376 . S
C263 C272 1.511 . S
C264 C263 1.376 . S
C264 C265 1.392 . S
C264 H285 0.931 . S
C265 C264 1.392 . S
C265 C266 1.361 . S
C265 C267 1.500 . S
C266 C261 1.390 . S
C266 C265 1.361 . S
C266 H284 0.931 . S
C267 C265 1.500 . S
C267 C268 1.371 . S
C267 C269 1.365 . S
C268 C267 1.371 . S
C268 C278 1.386 . S
C268 H286 0.931 . S
C269 C267 1.365 . S
C269 C270 1.409 . S
C269 H287 0.929 . S
C270 C269 1.409 . S
C270 C271 1.380 . S
C270 H288 0.930 . S
C271 C270 1.380 . S
C271 C278 1.357 . S
C272 C263 1.511 . S
C272 C273 1.341 . S
C272 C274 1.371 . S
C273 C272 1.341 . S
C273 C277 1.394 . S
C273 H289 0.930 . S
C274 C272 1.371 . S
C274 C275 1.392 . S
C274 H290 0.931 . S
C275 C274 1.392 . S
C275 C276 1.331 . S
C275 H293 0.932 . S
C276 C275 1.331 . S
C276 C277 1.336 . S
C277 C273 1.394 . S
C277 C276 1.336 . S
C277 H292 0.929 . S
C278 C268 1.386 . S
C278 C271 1.357 . S
C278 H291 0.928 . S
H279 C255 0.931 . S
H280 C257 0.930 . S
H281 C259 0.929 . S
H282 C260 0.931 . S
H283 C262 0.930 . S
H284 C266 0.931 . S
H285 C264 0.931 . S
H286 C268 0.931 . S
H287 C269 0.929 . S
H288 C270 0.930 . S
H289 C273 0.930 . S
H290 C274 0.931 . S
H291 C278 0.928 . S
H292 C277 0.929 . S
H293 C275 0.932 . S
H294 C306 0.930 . S
H295 C308 0.930 . S
H296 C309 0.930 . S
H297 C313 0.959 . S
H298 C313 0.959 . S
H299 C313 0.961 . S
H300 C314 0.960 . S
H301 C314 0.961 . S
H302 C314 0.959 . S
H303 C317 0.929 . S
H304 C318 0.931 . S
H305 C320 0.930 . S
C306 H294 0.930 . S
C306 C307 1.399 . S
C306 C311 1.399 . S
C307 C306 1.399 . S
C307 C308 1.376 . S
C308 H295 0.930 . S
C308 C307 1.376 . S
C308 C309 1.388 . S
C309 H296 0.930 . S
C309 C308 1.388 . S
C309 C310 1.390 . S
C310 C309 1.390 . S
C310 C311 1.394 . S
C310 C316 1.465 . S
C311 C306 1.399 . S
C311 C310 1.394 . S
C311 C312 1.516 . S
C312 C311 1.516 . S
C312 C313 1.502 . S
C312 C314 1.561 . S
C312 C315 1.526 . S
C313 H297 0.959 . S
C313 H298 0.959 . S
C313 H299 0.961 . S
C313 C312 1.502 . S
C314 H300 0.960 . S
C314 H301 0.961 . S
C314 H302 0.959 . S
C314 C312 1.561 . S
C315 C312 1.526 . S
C315 C316 1.396 . S
C315 C320 1.390 . S
C316 C310 1.465 . S
C316 C315 1.396 . S
C316 C317 1.399 . S
C317 H303 0.929 . S
C317 C316 1.399 . S
C317 C318 1.385 . S
C318 H304 0.931 . S
C318 C317 1.385 . S
C318 C319 1.389 . S
C319 C318 1.389 . S
C319 C320 1.387 . S
C320 H305 0.930 . S
C320 C315 1.390 . S
C320 C319 1.387 . S
H321 C333 0.930 . S
H322 C335 0.930 . S
H323 C336 0.930 . S
H324 C340 0.959 . S
H325 C340 0.959 . S
H326 C340 0.961 . S
H327 C341 0.960 . S
H328 C341 0.961 . S
H329 C341 0.959 . S
H330 C344 0.929 . S
H331 C345 0.931 . S
H332 C347 0.930 . S
C333 H321 0.930 . S
C333 C334 1.399 . S
C333 C338 1.399 . S
C334 C333 1.399 . S
C334 C335 1.376 . S
C335 H322 0.930 . S
C335 C334 1.376 . S
C335 C336 1.388 . S
C336 H323 0.930 . S
C336 C335 1.388 . S
C336 C337 1.390 . S
C337 C336 1.390 . S
C337 C338 1.394 . S
C337 C343 1.465 . S
C338 C333 1.399 . S
C338 C337 1.394 . S
C338 C339 1.516 . S
C339 C338 1.516 . S
C339 C340 1.502 . S
C339 C341 1.561 . S
C339 C342 1.526 . S
C340 H324 0.959 . S
C340 H325 0.959 . S
C340 H326 0.961 . S
C340 C339 1.502 . S
C341 H327 0.960 . S
C341 H328 0.961 . S
C341 H329 0.959 . S
C341 C339 1.561 . S
C342 C339 1.526 . S
C342 C343 1.396 . S
C342 C347 1.390 . S
C343 C337 1.465 . S
C343 C342 1.396 . S
C343 C344 1.399 . S
C344 H330 0.929 . S
C344 C343 1.399 . S
C344 C345 1.385 . S
C345 H331 0.931 . S
C345 C344 1.385 . S
C345 C346 1.389 . S
C346 C345 1.389 . S
C346 C347 1.387 . S
C347 H332 0.930 . S
C347 C342 1.390 . S
C347 C346 1.387 . S
H348 C360 0.930 . S
H349 C362 0.930 . S
H350 C363 0.930 . S
H351 C367 0.959 . S
H352 C367 0.959 . S
H353 C367 0.961 . S
H354 C368 0.960 . S
H355 C368 0.961 . S
H356 C368 0.959 . S
H357 C371 0.929 . S
H358 C372 0.931 . S
H359 C374 0.930 . S
C360 H348 0.930 . S
C360 C361 1.399 . S
C360 C365 1.399 . S
C361 C360 1.399 . S
C361 C362 1.376 . S
C362 H349 0.930 . S
C362 C361 1.376 . S
C362 C363 1.388 . S
C363 H350 0.930 . S
C363 C362 1.388 . S
C363 C364 1.390 . S
C364 C363 1.390 . S
C364 C365 1.394 . S
C364 C370 1.465 . S
C365 C360 1.399 . S
C365 C364 1.394 . S
C365 C366 1.516 . S
C366 C365 1.516 . S
C366 C367 1.502 . S
C366 C368 1.561 . S
C366 C369 1.526 . S
C367 H351 0.959 . S
C367 H352 0.959 . S
C367 H353 0.961 . S
C367 C366 1.502 . S
C368 H354 0.960 . S
C368 H355 0.961 . S
C368 H356 0.959 . S
C368 C366 1.561 . S
C369 C366 1.526 . S
C369 C370 1.396 . S
C369 C374 1.390 . S
C370 C364 1.465 . S
C370 C369 1.396 . S
C370 C371 1.399 . S
C371 H357 0.929 . S
C371 C370 1.399 . S
C371 C372 1.385 . S
C372 H358 0.931 . S
C372 C371 1.385 . S
C372 C373 1.389 . S
C373 C372 1.389 . S
C373 C374 1.387 . S
C374 H359 0.930 . S
C374 C369 1.390 . S
C374 C373 1.387 . S
H375 C387 0.930 . S
H376 C389 0.930 . S
H377 C390 0.930 . S
H378 C394 0.959 . S
H379 C394 0.959 . S
H380 C394 0.961 . S
H381 C395 0.960 . S
H382 C395 0.961 . S
H383 C395 0.959 . S
H384 C398 0.929 . S
H385 C399 0.931 . S
H386 C401 0.930 . S
C387 H375 0.930 . S
C387 C388 1.399 . S
C387 C392 1.399 . S
C388 C387 1.399 . S
C388 C389 1.376 . S
C389 H376 0.930 . S
C389 C388 1.376 . S
C389 C390 1.388 . S
C390 H377 0.930 . S
C390 C389 1.388 . S
C390 C391 1.390 . S
C391 C390 1.390 . S
C391 C392 1.394 . S
C391 C397 1.465 . S
C392 C387 1.399 . S
C392 C391 1.394 . S
C392 C393 1.516 . S
C393 C392 1.516 . S
C393 C394 1.502 . S
C393 C395 1.561 . S
C393 C396 1.526 . S
C394 H378 0.959 . S
C394 H379 0.959 . S
C394 H380 0.961 . S
C394 C393 1.502 . S
C395 H381 0.960 . S
C395 H382 0.961 . S
C395 H383 0.959 . S
C395 C393 1.561 . S
C396 C393 1.526 . S
C396 C397 1.396 . S
C396 C401 1.390 . S
C397 C391 1.465 . S
C397 C396 1.396 . S
C397 C398 1.399 . S
C398 H384 0.929 . S
C398 C397 1.399 . S
C398 C399 1.385 . S
C399 H385 0.931 . S
C399 C398 1.385 . S
C399 C400 1.389 . S
C400 C399 1.389 . S
C400 C401 1.387 . S
C401 H386 0.930 . S
C401 C396 1.390 . S
C401 C400 1.387 . S
H402 C414 0.930 . S
H403 C416 0.930 . S
H404 C417 0.930 . S
H405 C421 0.959 . S
H406 C421 0.959 . S
H407 C421 0.961 . S
H408 C422 0.960 . S
H409 C422 0.961 . S
H410 C422 0.959 . S
H411 C425 0.929 . S
H412 C426 0.931 . S
H413 C428 0.930 . S
C414 H402 0.930 . S
C414 C415 1.399 . S
C414 C419 1.399 . S
C415 C414 1.399 . S
C415 C416 1.376 . S
C416 H403 0.930 . S
C416 C415 1.376 . S
C416 C417 1.388 . S
C417 H404 0.930 . S
C417 C416 1.388 . S
C417 C418 1.390 . S
C418 C417 1.390 . S
C418 C419 1.394 . S
C418 C424 1.465 . S
C419 C414 1.399 . S
C419 C418 1.394 . S
C419 C420 1.516 . S
C420 C419 1.516 . S
C420 C421 1.502 . S
C420 C422 1.561 . S
C420 C423 1.526 . S
C421 H405 0.959 . S
C421 H406 0.959 . S
C421 H407 0.961 . S
C421 C420 1.502 . S
C422 H408 0.960 . S
C422 H409 0.961 . S
C422 H410 0.959 . S
C422 C420 1.561 . S
C423 C420 1.526 . S
C423 C424 1.396 . S
C423 C428 1.390 . S
C424 C418 1.465 . S
C424 C423 1.396 . S
C424 C425 1.399 . S
C425 H411 0.929 . S
C425 C424 1.399 . S
C425 C426 1.385 . S
C426 H412 0.931 . S
C426 C425 1.385 . S
C426 C427 1.389 . S
C427 C426 1.389 . S
C427 C428 1.387 . S
C428 H413 0.930 . S
C428 C423 1.390 . S
C428 C427 1.387 . S
H429 C441 0.930 . S
H430 C443 0.930 . S
H431 C444 0.930 . S
H432 C448 0.959 . S
H433 C448 0.959 . S
H434 C448 0.961 . S
H435 C449 0.960 . S
H436 C449 0.961 . S
H437 C449 0.959 . S
H438 C452 0.929 . S
H439 C453 0.931 . S
H440 C455 0.930 . S
C441 H429 0.930 . S
C441 C442 1.399 . S
C441 C446 1.399 . S
C442 C441 1.399 . S
C442 C443 1.376 . S
C443 H430 0.930 . S
C443 C442 1.376 . S
C443 C444 1.388 . S
C444 H431 0.930 . S
C444 C443 1.388 . S
C444 C445 1.390 . S
C445 C444 1.390 . S
C445 C446 1.394 . S
C445 C451 1.465 . S
C446 C441 1.399 . S
C446 C445 1.394 . S
C446 C447 1.516 . S
C447 C446 1.516 . S
C447 C448 1.502 . S
C447 C449 1.561 . S
C447 C450 1.526 . S
C448 H432 0.959 . S
C448 H433 0.959 . S
C448 H434 0.961 . S
C448 C447 1.502 . S
C449 H435 0.960 . S
C449 H436 0.961 . S
C449 H437 0.959 . S
C449 C447 1.561 . S
C450 C447 1.526 . S
C450 C451 1.396 . S
C450 C455 1.390 . S
C451 C445 1.465 . S
C451 C450 1.396 . S
C451 C452 1.399 . S
C452 H438 0.929 . S
C452 C451 1.399 . S
C452 C453 1.385 . S
C453 H439 0.931 . S
C453 C452 1.385 . S
C453 C454 1.389 . S
C454 C453 1.389 . S
C454 C455 1.387 . S
C455 H440 0.930 . S
C455 C450 1.390 . S
C455 C454 1.387 . S
H456 C468 0.930 . S
H457 C470 0.930 . S
H458 C471 0.930 . S
H459 C475 0.959 . S
H460 C475 0.959 . S
H461 C475 0.961 . S
H462 C476 0.960 . S
H463 C476 0.961 . S
H464 C476 0.959 . S
H465 C479 0.929 . S
H466 C480 0.931 . S
H467 C482 0.930 . S
C468 H456 0.930 . S
C468 C469 1.399 . S
C468 C473 1.399 . S
C469 C468 1.399 . S
C469 C470 1.376 . S
C470 H457 0.930 . S
C470 C469 1.376 . S
C470 C471 1.388 . S
C471 H458 0.930 . S
C471 C470 1.388 . S
C471 C472 1.390 . S
C472 C471 1.390 . S
C472 C473 1.394 . S
C472 C478 1.465 . S
C473 C468 1.399 . S
C473 C472 1.394 . S
C473 C474 1.516 . S
C474 C473 1.516 . S
C474 C475 1.502 . S
C474 C476 1.561 . S
C474 C477 1.526 . S
C475 H459 0.959 . S
C475 H460 0.959 . S
C475 H461 0.961 . S
C475 C474 1.502 . S
C476 H462 0.960 . S
C476 H463 0.961 . S
C476 H464 0.959 . S
C476 C474 1.561 . S
C477 C474 1.526 . S
C477 C478 1.396 . S
C477 C482 1.390 . S
C478 C472 1.465 . S
C478 C477 1.396 . S
C478 C479 1.399 . S
C479 H465 0.929 . S
C479 C478 1.399 . S
C479 C480 1.385 . S
C480 H466 0.931 . S
C480 C479 1.385 . S
C480 C481 1.389 . S
C481 C480 1.389 . S
C481 C482 1.387 . S
C482 H467 0.930 . S
C482 C477 1.390 . S
C482 C481 1.387 . S
H483 C495 0.930 . S
H484 C497 0.930 . S
H485 C498 0.930 . S
H486 C502 0.959 . S
H487 C502 0.959 . S
H488 C502 0.961 . S
H489 C503 0.960 . S
H490 C503 0.961 . S
H491 C503 0.959 . S
H492 C506 0.929 . S
H493 C507 0.931 . S
H494 C509 0.930 . S
C495 H483 0.930 . S
C495 C496 1.399 . S
C495 C500 1.399 . S
C496 C495 1.399 . S
C496 C497 1.376 . S
C497 H484 0.930 . S
C497 C496 1.376 . S
C497 C498 1.388 . S
C498 H485 0.930 . S
C498 C497 1.388 . S
C498 C499 1.390 . S
C499 C498 1.390 . S
C499 C500 1.394 . S
C499 C505 1.465 . S
C500 C495 1.399 . S
C500 C499 1.394 . S
C500 C501 1.516 . S
C501 C500 1.516 . S
C501 C502 1.502 . S
C501 C503 1.561 . S
C501 C504 1.526 . S
C502 H486 0.959 . S
C502 H487 0.959 . S
C502 H488 0.961 . S
C502 C501 1.502 . S
C503 H489 0.960 . S
C503 H490 0.961 . S
C503 H491 0.959 . S
C503 C501 1.561 . S
C504 C501 1.526 . S
C504 C505 1.396 . S
C504 C509 1.390 . S
C505 C499 1.465 . S
C505 C504 1.396 . S
C505 C506 1.399 . S
C506 H492 0.929 . S
C506 C505 1.399 . S
C506 C507 1.385 . S
C507 H493 0.931 . S
C507 C506 1.385 . S
C507 C508 1.389 . S
C508 C507 1.389 . S
C508 C509 1.387 . S
C509 H494 0.930 . S
C509 C504 1.390 . S
C509 C508 1.387 . S
H510 C522 0.930 . S
H511 C524 0.930 . S
H512 C525 0.930 . S
H513 C529 0.959 . S
H514 C529 0.959 . S
H515 C529 0.961 . S
H516 C530 0.960 . S
H517 C530 0.961 . S
H518 C530 0.959 . S
H519 C533 0.929 . S
H520 C534 0.931 . S
H521 C536 0.930 . S
C522 H510 0.930 . S
C522 C523 1.399 . S
C522 C527 1.399 . S
C523 C522 1.399 . S
C523 C524 1.376 . S
C524 H511 0.930 . S
C524 C523 1.376 . S
C524 C525 1.388 . S
C525 H512 0.930 . S
C525 C524 1.388 . S
C525 C526 1.390 . S
C526 C525 1.390 . S
C526 C527 1.394 . S
C526 C532 1.465 . S
C527 C522 1.399 . S
C527 C526 1.394 . S
C527 C528 1.516 . S
C528 C527 1.516 . S
C528 C529 1.502 . S
C528 C530 1.561 . S
C528 C531 1.526 . S
C529 H513 0.959 . S
C529 H514 0.959 . S
C529 H515 0.961 . S
C529 C528 1.502 . S
C530 H516 0.960 . S
C530 H517 0.961 . S
C530 H518 0.959 . S
C530 C528 1.561 . S
C531 C528 1.526 . S
C531 C532 1.396 . S
C531 C536 1.390 . S
C532 C526 1.465 . S
C532 C531 1.396 . S
C532 C533 1.399 . S
C533 H519 0.929 . S
C533 C532 1.399 . S
C533 C534 1.385 . S
C534 H520 0.931 . S
C534 C533 1.385 . S
C534 C535 1.389 . S
C535 C534 1.389 . S
C535 C536 1.387 . S
C536 H521 0.930 . S
C536 C531 1.390 . S
C536 C535 1.387 . S
H537 C549 0.930 . S
H538 C551 0.930 . S
H539 C552 0.930 . S
H540 C556 0.959 . S
H541 C556 0.959 . S
H542 C556 0.961 . S
H543 C557 0.960 . S
H544 C557 0.961 . S
H545 C557 0.959 . S
H546 C560 0.929 . S
H547 C561 0.931 . S
H548 C563 0.930 . S
C549 H537 0.930 . S
C549 C550 1.399 . S
C549 C554 1.399 . S
C550 C549 1.399 . S
C550 C551 1.376 . S
C551 H538 0.930 . S
C551 C550 1.376 . S
C551 C552 1.388 . S
C552 H539 0.930 . S
C552 C551 1.388 . S
C552 C553 1.390 . S
C553 C552 1.390 . S
C553 C554 1.394 . S
C553 C559 1.465 . S
C554 C549 1.399 . S
C554 C553 1.394 . S
C554 C555 1.516 . S
C555 C554 1.516 . S
C555 C556 1.502 . S
C555 C557 1.561 . S
C555 C558 1.526 . S
C556 H540 0.959 . S
C556 H541 0.959 . S
C556 H542 0.961 . S
C556 C555 1.502 . S
C557 H543 0.960 . S
C557 H544 0.961 . S
C557 H545 0.959 . S
C557 C555 1.561 . S
C558 C555 1.526 . S
C558 C559 1.396 . S
C558 C563 1.390 . S
C559 C553 1.465 . S
C559 C558 1.396 . S
C559 C560 1.399 . S
C560 H546 0.929 . S
C560 C559 1.399 . S
C560 C561 1.385 . S
C561 H547 0.931 . S
C561 C560 1.385 . S
C561 C562 1.389 . S
C562 C561 1.389 . S
C562 C563 1.387 . S
C563 H548 0.930 . S
C563 C558 1.390 . S
C563 C562 1.387 . S
H564 C576 0.930 . S
H565 C578 0.930 . S
H566 C579 0.930 . S
H567 C583 0.959 . S
H568 C583 0.959 . S
H569 C583 0.961 . S
H570 C584 0.960 . S
H571 C584 0.961 . S
H572 C584 0.959 . S
H573 C587 0.929 . S
H574 C588 0.931 . S
H575 C590 0.930 . S
C576 H564 0.930 . S
C576 C577 1.399 . S
C576 C581 1.399 . S
C577 C576 1.399 . S
C577 C578 1.376 . S
C578 H565 0.930 . S
C578 C577 1.376 . S
C578 C579 1.388 . S
C579 H566 0.930 . S
C579 C578 1.388 . S
C579 C580 1.390 . S
C580 C579 1.390 . S
C580 C581 1.394 . S
C580 C586 1.465 . S
C581 C576 1.399 . S
C581 C580 1.394 . S
C581 C582 1.516 . S
C582 C581 1.516 . S
C582 C583 1.502 . S
C582 C584 1.561 . S
C582 C585 1.526 . S
C583 H567 0.959 . S
C583 H568 0.959 . S
C583 H569 0.961 . S
C583 C582 1.502 . S
C584 H570 0.960 . S
C584 H571 0.961 . S
C584 H572 0.959 . S
C584 C582 1.561 . S
C585 C582 1.526 . S
C585 C586 1.396 . S
C585 C590 1.390 . S
C586 C580 1.465 . S
C586 C585 1.396 . S
C586 C587 1.399 . S
C587 H573 0.929 . S
C587 C586 1.399 . S
C587 C588 1.385 . S
C588 H574 0.931 . S
C588 C587 1.385 . S
C588 C589 1.389 . S
C589 C588 1.389 . S
C589 C590 1.387 . S
C590 H575 0.930 . S
C590 C585 1.390 . S
C590 C589 1.387 . S
H591 C603 0.930 . S
H592 C605 0.930 . S
H593 C606 0.930 . S
H594 C610 0.959 . S
H595 C610 0.959 . S
H596 C610 0.961 . S
H597 C611 0.960 . S
H598 C611 0.961 . S
H599 C611 0.959 . S
H600 C614 0.929 . S
H601 C615 0.931 . S
H602 C617 0.930 . S
C603 H591 0.930 . S
C603 C604 1.399 . S
C603 C608 1.399 . S
C604 C603 1.399 . S
C604 C605 1.376 . S
C605 H592 0.930 . S
C605 C604 1.376 . S
C605 C606 1.388 . S
C606 H593 0.930 . S
C606 C605 1.388 . S
C606 C607 1.390 . S
C607 C606 1.390 . S
C607 C608 1.394 . S
C607 C613 1.465 . S
C608 C603 1.399 . S
C608 C607 1.394 . S
C608 C609 1.516 . S
C609 C608 1.516 . S
C609 C610 1.502 . S
C609 C611 1.561 . S
C609 C612 1.526 . S
C610 H594 0.959 . S
C610 H595 0.959 . S
C610 H596 0.961 . S
C610 C609 1.502 . S
C611 H597 0.960 . S
C611 H598 0.961 . S
C611 H599 0.959 . S
C611 C609 1.561 . S
C612 C609 1.526 . S
C612 C613 1.396 . S
C612 C617 1.390 . S
C613 C607 1.465 . S
C613 C612 1.396 . S
C613 C614 1.399 . S
C614 H600 0.929 . S
C614 C613 1.399 . S
C614 C615 1.385 . S
C615 H601 0.931 . S
C615 C614 1.385 . S
C615 C616 1.389 . S
C616 C615 1.389 . S
C616 C617 1.387 . S
C617 H602 0.930 . S
C617 C612 1.390 . S
C617 C616 1.387 . S
H618 C630 0.930 . S
H619 C632 0.935 1_655 S
H620 C633 0.930 . S
H621 C637 0.959 1_655 S
H622 C637 0.959 . S
H623 C637 0.961 . S
H624 C638 0.960 . S
H625 C638 0.961 . S
H626 C638 0.959 . S
H627 C641 0.929 . S
H628 C642 0.896 1_556 S
H629 C644 0.930 . S
C630 H618 0.930 . S
C630 C631 1.399 . S
C630 C635 1.399 . S
C631 C630 1.399 . S
C631 C632 1.376 . S
C632 H619 0.935 1_455 S
C632 C631 1.376 . S
C632 C633 1.388 . S
C633 H620 0.930 . S
C633 C632 1.388 . S
C633 C634 1.390 . S
C634 C633 1.390 . S
C634 C635 1.394 . S
C634 C640 1.465 . S
C635 C630 1.399 . S
C635 C634 1.394 . S
C635 C636 1.516 . S
C636 C635 1.516 . S
C636 C637 1.502 . S
C636 C638 1.561 . S
C636 C639 1.526 . S
C637 H621 0.959 1_455 S
C637 H622 0.959 . S
C637 H623 0.961 . S
C637 C636 1.502 . S
C638 H624 0.960 . S
C638 H625 0.961 . S
C638 H626 0.959 . S
C638 C636 1.561 . S
C639 C636 1.526 . S
C639 C640 1.396 . S
C639 C644 1.390 . S
C640 C634 1.465 . S
C640 C639 1.396 . S
C640 C641 1.399 . S
C641 H627 0.929 . S
C641 C640 1.399 . S
C641 C642 1.385 . S
C642 H628 0.896 1_554 S
C642 C641 1.385 . S
C642 C643 1.389 . S
C643 C642 1.389 . S
C643 C644 1.387 . S
C644 H629 0.930 . S
C644 C639 1.390 . S
C644 C643 1.387 . S
H645 C657 0.930 . S
H646 C659 0.930 . S
H647 C660 0.930 . S
H648 C664 0.959 . S
H649 C664 0.959 . S
H650 C664 0.961 . S
H651 C665 0.960 . S
H652 C665 0.961 . S
H653 C665 0.959 . S
H654 C668 0.929 . S
H655 C669 0.931 . S
H656 C671 0.930 1_565 S
C657 H645 0.930 . S
C657 C658 1.399 1_565 S
C657 C662 1.399 1_565 S
C658 C657 1.399 1_545 S
C658 C659 1.376 . S
C659 H646 0.930 . S
C659 C658 1.376 . S
C659 C660 1.388 . S
C660 H647 0.930 . S
C660 C659 1.388 . S
C660 C661 1.390 . S
C661 C660 1.390 . S
C661 C662 1.394 . S
C661 C667 1.465 . S
C662 C657 1.399 1_545 S
C662 C661 1.394 . S
C662 C663 1.516 1_545 S
C663 C662 1.516 1_565 S
C663 C664 1.502 . S
C663 C665 1.561 . S
C663 C666 1.526 1_565 S
C664 H648 0.959 . S
C664 H649 0.959 . S
C664 H650 0.961 . S
C664 C663 1.502 . S
C665 H651 0.960 . S
C665 H652 0.961 . S
C665 H653 0.959 . S
C665 C663 1.561 . S
C666 C663 1.526 1_545 S
C666 C667 1.396 . S
C666 C671 1.390 . S
C667 C661 1.465 . S
C667 C666 1.396 . S
C667 C668 1.399 . S
C668 H654 0.929 . S
C668 C667 1.399 . S
C668 C669 1.385 . S
C669 H655 0.931 . S
C669 C668 1.385 . S
C669 C670 1.389 . S
C670 C669 1.389 . S
C670 C671 1.387 . S
C671 H656 0.930 1_545 S
C671 C666 1.390 . S
C671 C670 1.387 . S
H672 C684 0.930 . S
H673 C686 0.930 . S
H674 C687 0.930 . S
H675 C691 0.959 . S
H676 C691 0.959 . S
H677 C691 0.961 . S
H678 C692 0.960 . S
H679 C692 0.961 . S
H680 C692 0.959 . S
H681 C695 0.929 . S
H682 C696 0.931 . S
H683 C698 0.930 . S
C684 H672 0.930 . S
C684 C685 1.399 . S
C684 C689 1.399 . S
C685 C684 1.399 . S
C685 C686 1.376 . S
C686 H673 0.930 . S
C686 C685 1.376 . S
C686 C687 1.388 . S
C687 H674 0.930 . S
C687 C686 1.388 . S
C687 C688 1.390 . S
C688 C687 1.390 . S
C688 C689 1.394 . S
C688 C694 1.465 . S
C689 C684 1.399 . S
C689 C688 1.394 . S
C689 C690 1.516 . S
C690 C689 1.516 . S
C690 C691 1.502 . S
C690 C692 1.561 . S
C690 C693 1.526 . S
C691 H675 0.959 . S
C691 H676 0.959 . S
C691 H677 0.961 . S
C691 C690 1.502 . S
C692 H678 0.960 . S
C692 H679 0.961 . S
C692 H680 0.959 . S
C692 C690 1.561 . S
C693 C690 1.526 . S
C693 C694 1.396 . S
C693 C698 1.390 . S
C694 C688 1.465 . S
C694 C693 1.396 . S
C694 C695 1.399 . S
C695 H681 0.929 . S
C695 C694 1.399 . S
C695 C696 1.385 . S
C696 H682 0.931 . S
C696 C695 1.385 . S
C696 C697 1.389 . S
C697 C696 1.389 . S
C697 C698 1.387 . S
C698 H683 0.930 . S
C698 C693 1.390 . S
C698 C697 1.387 . S
H699 C711 0.930 . S
H700 C713 0.930 . S
H701 C714 0.930 . S
H702 C718 0.959 . S
H703 C718 0.959 . S
H704 C718 0.961 . S
H705 C719 0.960 . S
H706 C719 0.961 . S
H707 C719 0.959 . S
H708 C722 0.929 . S
H709 C723 0.931 . S
H710 C725 0.930 . S
C711 H699 0.930 . S
C711 C712 1.399 . S
C711 C716 1.399 . S
C712 C711 1.399 . S
C712 C713 1.376 1_545 S
C713 H700 0.930 . S
C713 C712 1.376 1_565 S
C713 C714 1.388 . S
C714 H701 0.930 . S
C714 C713 1.388 . S
C714 C715 1.390 . S
C715 C714 1.390 . S
C715 C716 1.394 1_565 S
C715 C721 1.465 . S
C716 C711 1.399 . S
C716 C715 1.394 1_545 S
C716 C717 1.516 . S
C717 C716 1.516 . S
C717 C718 1.502 . S
C717 C719 1.561 . S
C717 C720 1.526 . S
C718 H702 0.959 . S
C718 H703 0.959 . S
C718 H704 0.961 . S
C718 C717 1.502 . S
C719 H705 0.960 . S
C719 H706 0.961 . S
C719 H707 0.959 . S
C719 C717 1.561 . S
C720 C717 1.526 . S
C720 C721 1.396 1_545 S
C720 C725 1.390 . S
C721 C715 1.465 . S
C721 C720 1.396 1_565 S
C721 C722 1.399 . S
C722 H708 0.929 . S
C722 C721 1.399 . S
C722 C723 1.385 . S
C723 H709 0.931 . S
C723 C722 1.385 . S
C723 C724 1.389 1_565 S
C724 C723 1.389 1_545 S
C724 C725 1.387 . S
C725 H710 0.930 . S
C725 C720 1.390 . S
C725 C724 1.387 . S
H726 C738 0.930 . S
H727 C740 0.930 . S
H728 C741 0.930 . S
H729 C745 0.959 . S
H730 C745 0.959 . S
H731 C745 0.961 . S
H732 C746 0.960 . S
H733 C746 0.961 . S
H734 C746 0.959 . S
H735 C749 0.929 . S
H736 C750 0.931 . S
H737 C752 0.930 . S
C738 H726 0.930 . S
C738 C739 1.399 . S
C738 C743 1.399 . S
C739 C738 1.399 . S
C739 C740 1.376 . S
C740 H727 0.930 . S
C740 C739 1.376 . S
C740 C741 1.388 . S
C741 H728 0.930 . S
C741 C740 1.388 . S
C741 C742 1.390 . S
C742 C741 1.390 . S
C742 C743 1.394 . S
C742 C748 1.465 . S
C743 C738 1.399 . S
C743 C742 1.394 . S
C743 C744 1.516 . S
C744 C743 1.516 . S
C744 C745 1.502 . S
C744 C746 1.561 . S
C744 C747 1.526 . S
C745 H729 0.959 . S
C745 H730 0.959 . S
C745 H731 0.961 . S
C745 C744 1.502 . S
C746 H732 0.960 . S
C746 H733 0.961 . S
C746 H734 0.959 . S
C746 C744 1.561 . S
C747 C744 1.526 . S
C747 C748 1.396 . S
C747 C752 1.390 . S
C748 C742 1.465 . S
C748 C747 1.396 . S
C748 C749 1.399 . S
C749 H735 0.929 . S
C749 C748 1.399 . S
C749 C750 1.385 . S
C750 H736 0.931 . S
C750 C749 1.385 . S
C750 C751 1.389 . S
C751 C750 1.389 . S
C751 C752 1.387 . S
C752 H737 0.930 . S
C752 C747 1.390 . S
C752 C751 1.387 . S
H753 C765 0.930 . S
H754 C767 0.930 . S
H755 C768 0.930 . S
H756 C772 0.959 . S
H757 C772 0.959 . S
H758 C772 0.961 . S
H759 C773 0.960 . S
H760 C773 0.961 . S
H761 C773 0.959 1_455 S
H762 C776 0.929 . S
H763 C777 0.931 . S
H764 C779 0.930 . S
C765 H753 0.930 . S
C765 C766 1.399 1_655 S
C765 C770 1.399 . S
C766 C765 1.399 1_455 S
C766 C767 1.376 . S
C767 H754 0.930 . S
C767 C766 1.376 . S
C767 C768 1.388 . S
C768 H755 0.930 . S
C768 C767 1.388 . S
C768 C769 1.390 . S
C769 C768 1.390 . S
C769 C770 1.394 1_455 S
C769 C775 1.465 . S
C770 C765 1.399 . S
C770 C769 1.394 1_655 S
C770 C771 1.516 . S
C771 C770 1.516 . S
C771 C772 1.502 . S
C771 C773 1.561 . S
C771 C774 1.526 . S
C772 H756 0.959 . S
C772 H757 0.959 . S
C772 H758 0.961 . S
C772 C771 1.502 . S
C773 H759 0.960 . S
C773 H760 0.961 . S
C773 H761 0.959 1_655 S
C773 C771 1.561 . S
C774 C771 1.526 . S
C774 C775 1.396 1_655 S
C774 C779 1.390 . S
C775 C769 1.465 . S
C775 C774 1.396 1_455 S
C775 C776 1.399 . S
C776 H762 0.929 . S
C776 C775 1.399 . S
C776 C777 1.385 . S
C777 H763 0.931 . S
C777 C776 1.385 . S
C777 C778 1.389 . S
C778 C777 1.389 . S
C778 C779 1.387 1_455 S
C779 H764 0.930 . S
C779 C774 1.390 . S
C779 C778 1.387 1_655 S
C307 C2 1.328 . S
C319 C271 1.429 . S
C334 C22 1.299 . S
C346 C198 1.447 . S
C361 C44 1.373 . S
C373 C237 1.498 . S
C388 C4 1.499 . S
C400 C276 1.626 . S
C427 C193 1.611 . S
C415 C24 1.602 . S
C454 C232 1.603 . S
C442 C42 1.463 . S
C469 C32 1.335 . S
C481 C120 1.311 . S
C496 C49 1.312 . S
C508 C154 1.324 . S
C523 C9 1.238 . S
C535 C76 1.298 . S
C562 C115 1.235 . S
C550 C29 1.258 . S
C589 C159 1.315 . S
C577 C52 1.313 . S
C604 C12 1.259 . S
C616 C81 1.338 . S
C643 C139 1.432 1_554 S
C631 C18 1.439 1_455 S
C658 C38 1.425 . S
C670 C61 1.438 . S
C685 C58 1.441 . S
C697 C100 1.437 . S
C724 C217 1.496 . S
C712 C39 1.497 . S
C751 C256 1.493 1_556 S
C739 C59 1.468 . S
C766 C19 1.443 . S
C778 C178 1.488 . S
