# Generated by pormake.
# Topology zzz, (3,6)-cn, num edge types: 1
# Building blocks:
#     Node 0, Type 0, BuildingBlock: MIDCAF_clean_linker_0, # of connection points: 3
#     Node 1, Type 0, BuildingBlock: MIDCAF_clean_linker_0, # of connection points: 3
#     Node 2, Type 0, BuildingBlock: MIDCAF_clean_linker_0, # of connection points: 3
#     Node 3, Type 0, BuildingBlock: MIDCAF_clean_linker_0, # of connection points: 3
#     Node 4, Type 0, BuildingBlock: MIDCAF_clean_linker_0, # of connection points: 3
#     Node 5, Type 0, BuildingBlock: MIDCAF_clean_linker_0, # of connection points: 3
#     Node 6, Type 0, BuildingBlock: MIDCAF_clean_linker_0, # of connection points: 3
#     Node 7, Type 0, BuildingBlock: MIDCAF_clean_linker_0, # of connection points: 3
#     Node 8, Type 1, BuildingBlock: PAMTUU_clean_sbu_0, # of connection points: 6
#     Node 9, Type 1, BuildingBlock: PAMTUU_clean_sbu_0, # of connection points: 6
#     Node 10, Type 1, BuildingBlock: PAMTUU_clean_sbu_0, # of connection points: 6
#     Node 11, Type 1, BuildingBlock: PAMTUU_clean_sbu_0, # of connection points: 6
#     Edge 12, Type (0, 1), BuildingBlock: MIFKUJ_clean_linker_0, # of connection points: 2
#     Edge 13, Type (0, 1), BuildingBlock: MIFKUJ_clean_linker_0, # of connection points: 2
#     Edge 14, Type (0, 1), BuildingBlock: MIFKUJ_clean_linker_0, # of connection points: 2
#     Edge 15, Type (0, 1), BuildingBlock: MIFKUJ_clean_linker_0, # of connection points: 2
#     Edge 16, Type (0, 1), BuildingBlock: MIFKUJ_clean_linker_0, # of connection points: 2
#     Edge 17, Type (0, 1), BuildingBlock: MIFKUJ_clean_linker_0, # of connection points: 2
#     Edge 18, Type (0, 1), BuildingBlock: MIFKUJ_clean_linker_0, # of connection points: 2
#     Edge 19, Type (0, 1), BuildingBlock: MIFKUJ_clean_linker_0, # of connection points: 2
#     Edge 20, Type (0, 1), BuildingBlock: MIFKUJ_clean_linker_0, # of connection points: 2
#     Edge 21, Type (0, 1), BuildingBlock: MIFKUJ_clean_linker_0, # of connection points: 2
#     Edge 22, Type (0, 1), BuildingBlock: MIFKUJ_clean_linker_0, # of connection points: 2
#     Edge 23, Type (0, 1), BuildingBlock: MIFKUJ_clean_linker_0, # of connection points: 2
#     Edge 24, Type (0, 1), BuildingBlock: MIFKUJ_clean_linker_0, # of connection points: 2
#     Edge 25, Type (0, 1), BuildingBlock: MIFKUJ_clean_linker_0, # of connection points: 2
#     Edge 26, Type (0, 1), BuildingBlock: MIFKUJ_clean_linker_0, # of connection points: 2
#     Edge 27, Type (0, 1), BuildingBlock: MIFKUJ_clean_linker_0, # of connection points: 2
#     Edge 28, Type (0, 1), BuildingBlock: MIFKUJ_clean_linker_0, # of connection points: 2
#     Edge 29, Type (0, 1), BuildingBlock: MIFKUJ_clean_linker_0, # of connection points: 2
#     Edge 30, Type (0, 1), BuildingBlock: MIFKUJ_clean_linker_0, # of connection points: 2
#     Edge 31, Type (0, 1), BuildingBlock: MIFKUJ_clean_linker_0, # of connection points: 2
#     Edge 32, Type (0, 1), BuildingBlock: MIFKUJ_clean_linker_0, # of connection points: 2
#     Edge 33, Type (0, 1), BuildingBlock: MIFKUJ_clean_linker_0, # of connection points: 2
#     Edge 34, Type (0, 1), BuildingBlock: MIFKUJ_clean_linker_0, # of connection points: 2
#     Edge 35, Type (0, 1), BuildingBlock: MIFKUJ_clean_linker_0, # of connection points: 2
# Relax obj value: 0.360
# Max RMSD: 0.261
# Mean RMSD: 0.221
data_MOF--net-zzz--node1-PAMTUU_clean_sbu_0--node2-MIDCAF_clean_linker_0--edge1-MIFKUJ_clean_linker_0
_symmetry_space_group_name_H-M    P1
_symmetry_Int_Tables_number       1
_symmetry_cell_setting            triclinic
loop_
_symmetry_equiv_pos_as_xyz
'x, y, z'
_cell_length_a     72.925846
_cell_length_b     75.32435
_cell_length_c     25.434773
_cell_angle_alpha  97.004673
_cell_angle_beta   90.085321
_cell_angle_gamma 90.433942
loop_
_atom_site_label
_atom_site_type_symbol
_atom_site_fract_x
_atom_site_fract_y
_atom_site_fract_z
_atom_type_partial_charge
C0 C 0.79626 0.51024 0.40625 0.0
C1 C 0.80053 0.49845 0.4435 0.0
C2 C 0.78846 0.48402 0.44796 0.0
C3 C 0.77364 0.48053 0.41314 0.0
H4 H 0.73418 0.51104 0.19565 0.0
H5 H 0.70777 0.51846 0.14313 0.0
H6 H 0.67268 0.48729 0.23415 0.0
H7 H 0.6991 0.48032 0.287 0.0
H8 H 0.7559 0.45759 0.14693 0.0
H9 H 0.77621 0.43799 0.0921 0.0
H10 H 0.79226 0.4129 0.22927 0.0
H11 H 0.77279 0.43361 0.28467 0.0
H12 H 0.77906 0.51537 0.34098 0.0
H13 H 0.80521 0.52143 0.40118 0.0
H14 H 0.79088 0.47491 0.47698 0.0
H15 H 0.76547 0.46855 0.41507 0.0
N16 N 0.744 0.49368 0.31096 0.0
N17 N 0.74059 0.47144 0.23781 0.0
N18 N 0.76393 0.46908 0.29955 0.0
C19 C 0.73474 0.48678 0.26615 0.0
C20 C 0.75511 0.46249 0.25444 0.0
C21 C 0.75862 0.4846 0.32789 0.0
C22 C 0.71855 0.4955 0.24614 0.0
C23 C 0.72066 0.50644 0.20568 0.0
C24 C 0.70556 0.5104 0.17505 0.0
C25 C 0.68804 0.50331 0.1838 0.0
C26 C 0.68585 0.49318 0.22647 0.0
C27 C 0.70096 0.48925 0.25705 0.0
C28 C 0.76312 0.44736 0.22013 0.0
C29 C 0.76339 0.44756 0.16508 0.0
C30 C 0.77504 0.43616 0.13351 0.0
C31 C 0.78637 0.42406 0.15628 0.0
C32 C 0.7843 0.42247 0.21056 0.0
C33 C 0.77303 0.43422 0.24233 0.0
C34 C 0.77013 0.49161 0.37381 0.0
C35 C 0.78117 0.50687 0.37184 0.0
C36 C 0.94222 0.78931 0.4179 0.0
C37 C 0.95543 0.78797 0.4575 0.0
C38 C 0.96545 0.77197 0.45607 0.0
C39 C 0.96306 0.75812 0.41418 0.0
H40 H 0.97431 0.6975 0.31639 0.0
H41 H 0.97835 0.66544 0.28676 0.0
H42 H 0.9337 0.66722 0.17577 0.0
H43 H 0.92986 0.69892 0.20502 0.0
H44 H 0.9649 0.73251 0.13075 0.0
H45 H 0.97362 0.74889 0.05726 0.0
H46 H 0.95526 0.79805 0.14621 0.0
H47 H 0.94638 0.78182 0.21896 0.0
H48 H 0.93042 0.77762 0.34476 0.0
H49 H 0.93439 0.80143 0.41701 0.0
H50 H 0.97562 0.77042 0.48622 0.0
H51 H 0.97168 0.74642 0.41225 0.0
N52 N 0.95177 0.73023 0.31856 0.0
N53 N 0.95259 0.72869 0.2254 0.0
N54 N 0.95177 0.75646 0.27697 0.0
C55 C 0.95202 0.72033 0.26979 0.0
C56 C 0.95261 0.74675 0.2287 0.0
C57 C 0.95132 0.74846 0.3219 0.0
C58 C 0.95177 0.70059 0.26295 0.0
C59 C 0.96501 0.69081 0.28703 0.0
C60 C 0.9674 0.67254 0.26972 0.0
C61 C 0.95637 0.66379 0.22877 0.0
C62 C 0.94227 0.67342 0.20778 0.0
C63 C 0.94011 0.69162 0.22438 0.0
C64 C 0.95514 0.75591 0.18098 0.0
C65 C 0.96235 0.74675 0.13411 0.0
C66 C 0.96744 0.75612 0.09213 0.0
C67 C 0.9652 0.77475 0.09607 0.0
C68 C 0.95698 0.78368 0.14165 0.0
C69 C 0.95203 0.77437 0.18362 0.0
C70 C 0.95076 0.76019 0.37288 0.0
C71 C 0.93997 0.77565 0.37619 0.0
C72 C 0.72842 0.96788 0.3969 0.0
C73 C 0.72572 0.98467 0.42645 0.0
C74 C 0.73883 0.99829 0.42192 0.0
C75 C 0.75343 0.99552 0.38548 0.0
H76 H 0.81067 0.01167 0.25659 0.0
H77 H 0.84025 0.01703 0.21533 0.0
H78 H 0.85033 0.96015 0.19487 0.0
H79 H 0.82112 0.95508 0.23688 0.0
H80 H 0.78058 0.96386 0.11033 0.0
H81 H 0.76283 0.96189 0.02852 0.0
H82 H 0.7128 0.96062 0.11927 0.0
H83 H 0.73037 0.96179 0.19973 0.0
H84 H 0.74377 0.95234 0.3365 0.0
H85 H 0.71891 0.95695 0.40017 0.0
H86 H 0.73719 0.01139 0.44408 0.0
H87 H 0.7625 0.00658 0.3799 0.0
N88 N 0.78474 0.98169 0.30343 0.0
N89 N 0.78509 0.97253 0.21131 0.0
N90 N 0.75797 0.97059 0.2586 0.0
C91 C 0.79407 0.97906 0.25636 0.0
C92 C 0.76704 0.96837 0.21194 0.0
C93 C 0.76651 0.97713 0.30438 0.0
C94 C 0.81382 0.983 0.25115 0.0
C95 C 0.81969 0.00047 0.24566 0.0
C96 C 0.83649 0.00346 0.22095 0.0
C97 C 0.8477 0.98901 0.20088 0.0
C98 C 0.84232 0.97167 0.21013 0.0
C99 C 0.82557 0.96873 0.23465 0.0
C100 C 0.75688 0.96344 0.1618 0.0
C101 C 0.7658 0.96267 0.11256 0.0
C102 C 0.75562 0.9616 0.0656 0.0
C103 C 0.73635 0.96137 0.06705 0.0
C104 C 0.7276 0.96055 0.11602 0.0
C105 C 0.73773 0.96146 0.16268 0.0
C106 C 0.75514 0.97908 0.35321 0.0
C107 C 0.74283 0.96517 0.36078 0.0
C108 C 0.56362 0.7002 0.02318 0.0
C109 C 0.55717 0.70361 0.97332 0.0
C110 C 0.55539 0.72143 0.96308 0.0
C111 C 0.55935 0.73554 0.00258 0.0
H112 H 0.55355 0.78802 0.03741 0.0
H113 H 0.55229 0.81782 0.01192 0.0
H114 H 0.57183 0.83978 0.16671 0.0
H115 H 0.57313 0.80944 0.19308 0.0
H116 H 0.54766 0.76069 0.27199 0.0
H117 H 0.54658 0.74199 0.34453 0.0
H118 H 0.59824 0.71836 0.29221 0.0
H119 H 0.59923 0.73704 0.22081 0.0
H120 H 0.57204 0.71102 0.10088 0.0
H121 H 0.56489 0.68664 0.03272 0.0
H122 H 0.55063 0.72447 0.92483 0.0
H123 H 0.55738 0.74911 0.99388 0.0
N124 N 0.56506 0.76401 0.08883 0.0
N125 N 0.56882 0.77347 0.17995 0.0
N126 N 0.57051 0.74296 0.14682 0.0
C127 C 0.56589 0.77749 0.12955 0.0
C128 C 0.57126 0.75607 0.18827 0.0
C129 C 0.56733 0.74676 0.09704 0.0
C130 C 0.56371 0.79619 0.11725 0.0
C131 C 0.55762 0.79908 0.06643 0.0
C132 C 0.55695 0.81623 0.05155 0.0
C133 C 0.56232 0.83114 0.08685 0.0
C134 C 0.56768 0.8285 0.13856 0.0
C135 C 0.56842 0.81115 0.15361 0.0
C136 C 0.57364 0.75042 0.24133 0.0
C137 C 0.55916 0.75212 0.27784 0.0
C138 C 0.55842 0.74118 0.31874 0.0
C139 C 0.5722 0.72846 0.32387 0.0
C140 C 0.58746 0.72805 0.29002 0.0
C141 C 0.5881 0.73882 0.24909 0.0
C142 C 0.5651 0.73207 0.05316 0.0
C143 C 0.56757 0.71424 0.06252 0.0
C144 C 0.23137 0.52565 0.042 0.0
C145 C 0.22427 0.50814 0.03315 0.0
C146 C 0.23249 0.49483 0.0596 0.0
C147 C 0.24699 0.49914 0.09561 0.0
H148 H 0.32562 0.53131 0.19477 0.0
H149 H 0.35272 0.52318 0.2427 0.0
H150 H 0.32143 0.48174 0.3059 0.0
H151 H 0.29426 0.49012 0.25782 0.0
H152 H 0.28288 0.55398 0.33014 0.0
H153 H 0.26685 0.57237 0.40082 0.0
H154 H 0.22412 0.58232 0.29056 0.0
H155 H 0.24014 0.56427 0.21991 0.0
H156 H 0.24999 0.54381 0.08635 0.0
H157 H 0.22529 0.53628 0.02287 0.0
H158 H 0.2274 0.48119 0.05344 0.0
H159 H 0.2525 0.48884 0.11722 0.0
N160 N 0.28073 0.51367 0.16375 0.0
N161 N 0.28539 0.53427 0.2402 0.0
N162 N 0.26005 0.53724 0.18595 0.0
C163 C 0.29098 0.51977 0.20741 0.0
C164 C 0.26991 0.54304 0.22997 0.0
C165 C 0.26526 0.5227 0.15264 0.0
C166 C 0.30801 0.51105 0.22164 0.0
C167 C 0.3248 0.51996 0.21709 0.0
C168 C 0.3403 0.51534 0.24487 0.0
C169 C 0.33927 0.50189 0.27864 0.0
C170 C 0.32267 0.49229 0.28072 0.0
C171 C 0.30719 0.49685 0.25253 0.0
C172 C 0.26257 0.55727 0.26954 0.0
C173 C 0.27033 0.56049 0.32056 0.0
C174 C 0.26116 0.57102 0.36116 0.0
C175 C 0.24414 0.57862 0.35143 0.0
C176 C 0.23729 0.57679 0.29935 0.0
C177 C 0.2464 0.56624 0.25885 0.0
C178 C 0.25326 0.5169 0.1065 0.0
C179 C 0.24553 0.52998 0.07846 0.0
C180 C 0.06822 0.2201 0.01247 0.0
C181 C 0.05039 0.2132 0.00267 0.0
C182 C 0.03565 0.2219 0.03034 0.0
C183 C 0.03884 0.23605 0.07037 0.0
H184 H 0.04265 0.3028 0.16638 0.0
H185 H 0.03987 0.33351 0.21047 0.0
H186 H 0.08798 0.32583 0.30423 0.0
H187 H 0.09022 0.29517 0.26176 0.0
H188 H 0.06674 0.25984 0.33414 0.0
H189 H 0.06038 0.24218 0.40654 0.0
H190 H 0.05289 0.19505 0.2936 0.0
H191 H 0.05907 0.21251 0.22129 0.0
H192 H 0.08539 0.23818 0.06296 0.0
H193 H 0.07988 0.21361 0.99225 0.0
H194 H 0.02174 0.21702 0.02334 0.0
H195 H 0.02741 0.24146 0.0942 0.0
N196 N 0.06215 0.26934 0.14628 0.0
N197 N 0.06631 0.26667 0.23687 0.0
N198 N 0.06133 0.2411 0.17693 0.0
C199 C 0.06537 0.27707 0.19691 0.0
C200 C 0.06421 0.24869 0.22732 0.0
C201 C 0.06045 0.25119 0.1364 0.0
C202 C 0.06656 0.29664 0.21103 0.0
C203 C 0.05293 0.30795 0.1952 0.0
C204 C 0.05133 0.32551 0.22059 0.0
C205 C 0.06345 0.332 0.26184 0.0
C206 C 0.0781 0.32112 0.27376 0.0
C207 C 0.07951 0.30361 0.24906 0.0
C208 C 0.06312 0.23768 0.27171 0.0
C209 C 0.06399 0.24566 0.3247 0.0
C210 C 0.06042 0.23556 0.36626 0.0
C211 C 0.05584 0.21734 0.35552 0.0
C212 C 0.05602 0.20917 0.30287 0.0
C213 C 0.05965 0.2192 0.26145 0.0
C214 C 0.05678 0.24186 0.08319 0.0
C215 C 0.07139 0.23424 0.05271 0.0
C216 C 0.31764 0.01708 0.12191 0.0
C217 C 0.31272 0.01314 0.0684 0.0
C218 C 0.294 0.01006 0.0559 0.0
C219 C 0.28055 0.01155 0.09614 0.0
H220 H 0.21527 0.04217 0.2392 0.0
H221 H 0.18533 0.03798 0.27887 0.0
H222 H 0.1945 0.98112 0.2658 0.0
H223 H 0.22469 0.98544 0.2264 0.0
H224 H 0.25067 0.02485 0.38051 0.0
H225 H 0.26479 0.02976 0.46816 0.0
H226 H 0.31432 0.04844 0.3994 0.0
H227 H 0.30038 0.04341 0.3116 0.0
H228 H 0.30912 0.02167 0.20208 0.0
H229 H 0.33189 0.01908 0.13336 0.0
H230 H 0.28973 0.00694 0.01501 0.0
H231 H 0.26626 0.00949 0.08525 0.0
N232 N 0.25357 0.01491 0.18768 0.0
N233 N 0.24905 0.02411 0.27872 0.0
N234 N 0.27834 0.02518 0.24303 0.0
C235 C 0.24212 0.01777 0.23061 0.0
C236 C 0.26707 0.02787 0.28538 0.0
C237 C 0.27195 0.01874 0.19405 0.0
C238 C 0.22219 0.0141 0.22866 0.0
C239 C 0.21046 0.02867 0.242 0.0
C240 C 0.19344 0.02629 0.26563 0.0
C241 C 0.18768 0.00926 0.27634 0.0
C242 C 0.19853 0.9944 0.25791 0.0
C243 C 0.21572 0.99683 0.23462 0.0
C244 C 0.27453 0.03348 0.33896 0.0
C245 C 0.26444 0.03038 0.38411 0.0
C246 C 0.27246 0.0332 0.43433 0.0
C247 C 0.29059 0.03947 0.4404 0.0
C248 C 0.30023 0.04379 0.39583 0.0
C249 C 0.29231 0.04072 0.3455 0.0
C250 C 0.28558 0.01604 0.14967 0.0
C251 C 0.3044 0.01849 0.16163 0.0
C252 C 0.45093 0.29475 0.47338 0.0
C253 C 0.45862 0.29079 0.52122 0.0
C254 C 0.46362 0.2731 0.5262 0.0
C255 C 0.46171 0.25975 0.48315 0.0
H256 H 0.44247 0.20608 0.42708 0.0
H257 H 0.44593 0.1757 0.4478 0.0
H258 H 0.47427 0.16142 0.30024 0.0
H259 H 0.47113 0.1923 0.27912 0.0
H260 H 0.45226 0.2357 0.19155 0.0
H261 H 0.45857 0.25262 0.1164 0.0
H262 H 0.49371 0.28862 0.21732 0.0
H263 H 0.48769 0.2718 0.29053 0.0
H264 H 0.44427 0.28516 0.39295 0.0
H265 H 0.44716 0.30832 0.46831 0.0
H266 H 0.46961 0.26977 0.56271 0.0
H267 H 0.46637 0.24636 0.48724 0.0
N268 N 0.45505 0.23323 0.38895 0.0
N269 N 0.46187 0.22711 0.29803 0.0
N270 N 0.46068 0.25676 0.3394 0.0
C271 C 0.45751 0.22115 0.34524 0.0
C272 C 0.46344 0.24506 0.29528 0.0
C273 C 0.45643 0.251 0.38618 0.0
C274 C 0.45686 0.2018 0.3518 0.0
C275 C 0.4493 0.19653 0.39845 0.0
C276 C 0.4512 0.17909 0.41044 0.0
C277 C 0.46054 0.16634 0.37595 0.0
C278 C 0.46698 0.17108 0.32742 0.0
C279 C 0.46519 0.18873 0.31542 0.0
C280 C 0.46943 0.25249 0.24681 0.0
C281 C 0.46171 0.24694 0.19682 0.0
C282 C 0.46519 0.25674 0.15409 0.0
C283 C 0.47665 0.27204 0.16067 0.0
C284 C 0.48508 0.27681 0.21015 0.0
C285 C 0.4815 0.26722 0.25246 0.0
C286 C 0.45522 0.26403 0.43421 0.0
C287 C 0.4494 0.28153 0.43016 0.0
Tb288 Tb 1.00182 0.0059 0.69448 0.0
Tb289 Tb 0.03085 0.98953 0.77225 0.0
C290 C 0.99021 0.99582 0.80629 0.0
C291 C 0.98578 0.03959 0.61824 0.0
C292 C 0.99471 0.07509 0.60397 0.0
C293 C 0.97625 0.06956 0.60533 0.0
C294 C 0.97182 0.05192 0.61279 0.0
C295 C 0.00418 0.04493 0.61482 0.0
C296 C 0.0086 0.0625 0.60777 0.0
C297 C 0.98154 0.02237 0.63706 0.0
O298 O 0.02089 0.02734 0.72164 0.0
O299 O 0.02888 0.01801 0.80064 0.0
O300 O 0.04746 0.00024 0.71202 0.0
O301 O 0.0257 0.99688 0.6467 0.0
O302 O 0.04014 0.98679 0.84906 0.0
O303 O 0.05367 0.97324 0.78053 0.0
O304 O 0.02123 0.96754 0.71468 0.0
O305 O 0.99331 0.9781 0.69142 0.0
O306 O 0.98922 0.00776 0.77287 0.0
O307 O 0.00382 0.98447 0.80379 0.0
C308 C 0.02709 0.03077 0.77014 0.0
O309 O 0.99174 0.0089 0.61847 0.0
O310 O 0.97989 0.02339 0.68823 0.0
C311 C 0.04295 0.99877 0.66161 0.0
C312 C 0.04796 0.95691 0.85107 0.0
C313 C 0.03971 0.92411 0.88822 0.0
C314 C 0.05614 0.93327 0.90345 0.0
C315 C 0.06021 0.94966 0.88506 0.0
C316 C 0.03176 0.9476 0.83522 0.0
C317 C 0.02769 0.93138 0.85351 0.0
C318 C 0.05149 0.97414 0.83164 0.0
C319 C 0.0047 0.96482 0.69437 0.0
H320 H 0.96528 0.07902 0.60262 0.0
H321 H 0.95757 0.04812 0.61646 0.0
H322 H 0.0152 0.0357 0.61968 0.0
H323 H 0.02292 0.06629 0.60591 0.0
H324 H 0.06562 0.92793 0.93022 0.0
H325 H 0.07279 0.9567 0.89754 0.0
H326 H 0.02219 0.95293 0.80869 0.0
H327 H 0.01513 0.92447 0.8402 0.0
Tb328 Tb 0.50991 0.98373 0.69361 0.0
Tb329 Tb 0.5222 0.01802 0.77704 0.0
C330 C 0.52881 0.97849 0.80012 0.0
C331 C 0.47664 0.95806 0.61625 0.0
C332 C 0.44023 0.96981 0.61771 0.0
C333 C 0.44535 0.95657 0.64887 0.0
C334 C 0.46349 0.95065 0.64803 0.0
C335 C 0.47064 0.9693 0.57949 0.0
C336 C 0.45262 0.97532 0.58077 0.0
C337 C 0.49618 0.9586 0.63232 0.0
O338 O 0.48783 0.98847 0.75155 0.0
O339 O 0.49231 0.01828 0.77802 0.0
O340 O 0.51686 0.02838 0.70275 0.0
O341 O 0.49713 0.00675 0.6648 0.0
O342 O 0.52015 0.03236 0.85295 0.0
O343 O 0.53726 0.04192 0.79316 0.0
O344 O 0.54783 0.00652 0.74396 0.0
O345 O 0.53666 0.99178 0.66595 0.0
O346 O 0.52831 0.97315 0.74909 0.0
O347 O 0.52333 0.99455 0.81934 0.0
C348 C 0.48176 0.00397 0.77373 0.0
O349 O 0.50608 0.97133 0.61573 0.0
O350 O 0.4991 0.9576 0.68251 0.0
C351 C 0.50434 0.02284 0.66735 0.0
C352 C 0.54901 0.04463 0.87882 0.0
C353 C 0.58374 0.04397 0.92637 0.0
C354 C 0.57736 0.05975 0.90846 0.0
C355 C 0.56006 0.06007 0.8848 0.0
C356 C 0.55491 0.02924 0.89961 0.0
C357 C 0.57207 0.02893 0.92329 0.0
C358 C 0.53311 0.04354 0.84327 0.0
C359 C 0.55041 0.99888 0.69511 0.0
H360 H 0.43585 0.95206 0.67725 0.0
H361 H 0.46761 0.94178 0.67631 0.0
H362 H 0.48026 0.97503 0.55372 0.0
H363 H 0.44873 0.98532 0.55568 0.0
H364 H 0.58607 0.07152 0.91044 0.0
H365 H 0.55576 0.072 0.86843 0.0
H366 H 0.54679 0.01704 0.89459 0.0
H367 H 0.5767 0.01642 0.93552 0.0
Tb368 Tb 0.49869 0.49321 0.77478 0.0
Tb369 Tb 0.52809 0.50314 0.68352 0.0
C370 C 0.48654 0.49904 0.65882 0.0
C371 C 0.47847 0.46509 0.86867 0.0
C372 C 0.47972 0.4321 0.911 0.0
C373 C 0.46305 0.44129 0.9082 0.0
C374 C 0.46243 0.45757 0.88697 0.0
C375 C 0.49522 0.45632 0.87288 0.0
C376 C 0.49584 0.43997 0.89364 0.0
C377 C 0.47735 0.48093 0.84016 0.0
O378 O 0.51719 0.4712 0.75596 0.0
O379 O 0.52254 0.47433 0.66949 0.0
O380 O 0.54447 0.49656 0.7503 0.0
O381 O 0.52348 0.50324 0.81683 0.0
O382 O 0.55317 0.51502 0.66643 0.0
O383 O 0.53571 0.5028 0.60358 0.0
O384 O 0.51975 0.52821 0.72778 0.0
O385 O 0.49296 0.52112 0.76984 0.0
O386 O 0.48518 0.48886 0.69714 0.0
O387 O 0.50109 0.50906 0.65446 0.0
C388 C 0.52046 0.4641 0.7075 0.0
O389 O 0.48924 0.49373 0.8532 0.0
O390 O 0.47589 0.47733 0.78901 0.0
C391 C 0.54051 0.50068 0.80079 0.0
C392 C 0.551 0.5297 0.5907 0.0
C393 C 0.55412 0.56275 0.54906 0.0
C394 C 0.56789 0.54972 0.5399 0.0
C395 C 0.56635 0.53336 0.56062 0.0
C396 C 0.53715 0.54255 0.59956 0.0
C397 C 0.53867 0.5589 0.57896 0.0
C398 C 0.54997 0.51306 0.61566 0.0
C399 C 0.50451 0.53274 0.75343 0.0
H400 H 0.45041 0.43586 0.9221 0.0
H401 H 0.44936 0.4641 0.88379 0.0
H402 H 0.50776 0.46187 0.85863 0.0
H403 H 0.5089 0.43325 0.8945 0.0
H404 H 0.57987 0.55213 0.51662 0.0
H405 H 0.57723 0.52366 0.55364 0.0
H406 H 0.52529 0.54003 0.62317 0.0
H407 H 0.52797 0.5687 0.5877 0.0
Tb408 Tb 0.01764 0.5181 0.71153 0.0
Tb409 Tb 0.00663 0.48352 0.77098 0.0
C410 C 1.00081 0.52188 0.82598 0.0
C411 C 0.04439 0.55055 0.64474 0.0
C412 C 0.07817 0.5617 0.60634 0.0
C413 C 0.06344 0.57368 0.61394 0.0
C414 C 0.04665 0.56811 0.63301 0.0
C415 C 0.05902 0.53854 0.63723 0.0
C416 C 0.07577 0.54406 0.61808 0.0
C417 C 0.02713 0.54507 0.66753 0.0
O418 O 0.04377 0.5073 0.73402 0.0
O419 O 0.03326 0.49301 0.80293 0.0
O420 O 0.02495 0.47405 0.70682 0.0
O421 O 0.01827 0.49478 0.65155 0.0
O422 O 0.00371 0.4713 0.84045 0.0
O423 O 0.99893 0.45647 0.76346 0.0
O424 O 0.98402 0.48723 0.71689 0.0
O425 O 0.98779 0.51712 0.71006 0.0
O426 O 0.01376 0.52703 0.79534 0.0
O427 O 0.99295 0.50613 0.81553 0.0
C428 C 0.04675 0.50003 0.77772 0.0
O429 O 0.01911 0.53096 0.64278 0.0
O430 O 0.02754 0.5445 0.71837 0.0
C431 C 0.02412 0.47885 0.6591 0.0
C432 C 0.98146 0.44843 0.83412 0.0
C433 C 0.94968 0.43332 0.87331 0.0
C434 C 0.96688 0.42538 0.87848 0.0
C435 C 0.98264 0.43289 0.85897 0.0
C436 C 0.96435 0.4563 0.82812 0.0
C437 C 0.94855 0.44879 0.84756 0.0
C438 C 0.99817 0.45621 0.81452 0.0
C439 C 0.97772 0.50246 0.70398 0.0
H440 H 0.06485 0.58729 0.60475 0.0
H441 H 0.03548 0.57755 0.63898 0.0
H442 H 0.05753 0.52497 0.64674 0.0
H443 H 0.08694 0.53461 0.61332 0.0
H444 H 0.96814 0.41339 0.89772 0.0
H445 H 0.99578 0.42663 0.86355 0.0
H446 H 0.96326 0.46833 0.80889 0.0
H447 H 0.93554 0.45535 0.84369 0.0
H448 H 0.15814 0.98597 0.26349 0.0
H449 H 0.13283 0.98313 0.3262 0.0
H450 H 0.15703 0.0251 0.43531 0.0
H451 H 0.18195 0.02825 0.37274 0.0
H452 H 0.14617 0.99251 0.48057 0.0
H453 H 0.12268 0.03609 0.37233 0.0
H454 H 0.11387 0.04649 0.28767 0.0
H455 H 0.07541 0.00295 0.2581 0.0
H456 H 0.08422 0.99213 0.34231 0.0
H457 H 0.07774 0.01268 0.6743 0.0
H458 H 0.1015 0.01362 0.60703 0.0
H459 H 0.06522 0.98609 0.48941 0.0
H460 H 0.04111 0.98601 0.55612 0.0
H461 H 0.08211 0.00925 0.44468 0.0
H462 H 0.10345 0.96542 0.54966 0.0
H463 H 0.11212 0.95271 0.63096 0.0
H464 H 0.1543 0.99269 0.66256 0.0
H465 H 0.14572 0.0058 0.58179 0.0
C466 C 0.15796 0.99463 0.30074 0.0
C467 C 0.17193 0.00747 0.31287 0.0
C468 C 0.14352 0.99301 0.3365 0.0
C469 C 0.14302 0.00393 0.38549 0.0
C470 C 0.15709 0.01655 0.39783 0.0
C471 C 0.17126 0.01842 0.36181 0.0
C472 C 0.12795 0.00228 0.42429 0.0
C473 C 0.13217 0.9963 0.473 0.0
C474 C 0.10959 0.00666 0.41376 0.0
C475 C 0.10427 0.01318 0.36328 0.0
C476 C 0.11248 0.02863 0.34753 0.0
C477 C 0.10746 0.03463 0.29968 0.0
C478 C 0.09413 0.02536 0.26744 0.0
C479 C 0.08576 0.0101 0.28306 0.0
C480 C 0.09076 0.00404 0.33085 0.0
C481 C 0.07483 0.00679 0.63412 0.0
C482 C 0.05753 0.99918 0.62076 0.0
C483 C 0.08851 0.00722 0.59556 0.0
C484 C 0.08546 0.99956 0.5429 0.0
C485 C 0.06808 0.99208 0.52951 0.0
C486 C 0.05427 0.99199 0.56783 0.0
C487 C 0.10025 0.99958 0.5018 0.0
C488 C 0.09602 0.00528 0.4525 0.0
C489 C 0.11857 0.99455 0.51136 0.0
C490 C 0.12382 0.98669 0.55991 0.0
C491 C 0.11449 0.97158 0.57414 0.0
C492 C 0.1194 0.96429 0.6201 0.0
C493 C 0.13372 0.97192 0.65197 0.0
C494 C 0.14319 0.98682 0.63787 0.0
C495 C 0.13832 0.99417 0.59197 0.0
H496 H 0.1375 0.96626 0.68754 0.0
H497 H 0.09025 0.03002 0.23042 0.0
H498 H 0.45201 0.13236 0.32911 0.0
H499 H 0.45837 0.10394 0.36477 0.0
H500 H 0.48579 0.13322 0.49907 0.0
H501 H 0.47927 0.16133 0.4643 0.0
H502 H 0.50544 0.10328 0.4507 0.0
H503 H 0.44368 0.11978 0.51144 0.0
H504 H 0.41078 0.12563 0.50011 0.0
H505 H 0.4033 0.07287 0.41744 0.0
H506 H 0.43626 0.06684 0.42733 0.0
H507 H 0.51331 0.05807 0.66961 0.0
H508 H 0.50503 0.07837 0.60644 0.0
H509 H 0.47401 0.03631 0.51533 0.0
H510 H 0.48197 0.01577 0.57967 0.0
H511 H 0.45602 0.06742 0.52168 0.0
H512 H 0.51599 0.04877 0.47154 0.0
H513 H 0.54855 0.04179 0.4842 0.0
H514 H 0.5595 0.09674 0.54279 0.0
H515 H 0.52695 0.10402 0.53126 0.0
C516 C 0.45949 0.13259 0.36601 0.0
C517 C 0.46512 0.14896 0.39415 0.0
C518 C 0.46303 0.11644 0.38642 0.0
C519 C 0.47249 0.11651 0.43466 0.0
C520 C 0.47848 0.13285 0.46183 0.0
C521 C 0.47471 0.14889 0.44202 0.0
C522 C 0.47628 0.0998 0.45805 0.0
C523 C 0.49464 0.09538 0.46609 0.0
C524 C 0.46217 0.08911 0.47637 0.0
C525 C 0.44249 0.09298 0.46925 0.0
C526 C 0.43508 0.10953 0.49009 0.0
C527 C 0.41641 0.11286 0.48409 0.0
C528 C 0.40497 0.09967 0.45782 0.0
C529 C 0.41219 0.08311 0.43753 0.0
C530 C 0.43087 0.07974 0.44323 0.0
C531 C 0.50472 0.05303 0.63622 0.0
C532 C 0.49849 0.03519 0.62946 0.0
C533 C 0.50007 0.06468 0.59987 0.0
C534 C 0.4893 0.05877 0.55531 0.0
C535 C 0.48252 0.04112 0.54911 0.0
C536 C 0.48709 0.0294 0.58588 0.0
C537 C 0.48518 0.0713 0.51602 0.0
C538 C 0.46683 0.07494 0.50496 0.0
C539 C 0.49929 0.08115 0.49425 0.0
C540 C 0.51898 0.07692 0.5007 0.0
C541 C 0.52531 0.05935 0.48738 0.0
C542 C 0.54378 0.05534 0.49435 0.0
C543 C 0.55608 0.06881 0.51433 0.0
C544 C 0.54996 0.08633 0.52728 0.0
C545 C 0.5315 0.09041 0.52045 0.0
H546 H 0.57037 0.06568 0.51972 0.0
H547 H 0.39051 0.10225 0.45338 0.0
H548 H 0.33759 0.49682 0.38345 0.0
H549 H 0.36299 0.49535 0.44552 0.0
H550 H 0.40166 0.50024 0.31995 0.0
H551 H 0.37628 0.50135 0.25722 0.0
H552 H 0.41325 0.47608 0.38311 0.0
H553 H 0.39128 0.53621 0.40627 0.0
H554 H 0.36812 0.55992 0.42239 0.0
H555 H 0.35638 0.54352 0.57477 0.0
H556 H 0.37931 0.51954 0.55921 0.0
H557 H 0.47892 0.52462 0.59444 0.0
H558 H 0.45454 0.52425 0.52786 0.0
H559 H 0.43649 0.47252 0.56429 0.0
H560 H 0.46052 0.4731 0.63229 0.0
H561 H 0.41572 0.52101 0.54279 0.0
H562 H 0.42455 0.44944 0.42918 0.0
H563 H 0.44888 0.42751 0.40434 0.0
H564 H 0.48953 0.4693 0.42593 0.0
H565 H 0.4654 0.49159 0.44867 0.0
C566 C 0.35149 0.49723 0.36867 0.0
C567 C 0.35484 0.49922 0.31517 0.0
C568 C 0.36602 0.49658 0.40444 0.0
C569 C 0.38428 0.49794 0.38769 0.0
C570 C 0.38771 0.49925 0.33395 0.0
C571 C 0.37317 0.49998 0.29815 0.0
C572 C 0.39972 0.49854 0.42652 0.0
C573 C 0.41373 0.48582 0.41822 0.0
C574 C 0.40061 0.51151 0.47176 0.0
C575 C 0.38688 0.52597 0.48135 0.0
C576 C 0.38366 0.53757 0.44304 0.0
C577 C 0.37059 0.55107 0.45211 0.0
C578 C 0.36075 0.5532 0.49952 0.0
C579 C 0.36399 0.54185 0.53803 0.0
C580 C 0.37704 0.52831 0.52912 0.0
C581 C 0.46974 0.51318 0.5884 0.0
C582 C 0.47166 0.49886 0.61869 0.0
C583 C 0.45579 0.513 0.55039 0.0
C584 C 0.44374 0.49832 0.54084 0.0
C585 C 0.44568 0.48395 0.57075 0.0
C586 C 0.45938 0.48431 0.60967 0.0
C587 C 0.42899 0.49822 0.50018 0.0
C588 C 0.41513 0.5111 0.50807 0.0
C589 C 0.4284 0.48552 0.45424 0.0
C590 C 0.44313 0.47217 0.44173 0.0
C591 C 0.43867 0.45397 0.42856 0.0
C592 C 0.45243 0.44148 0.41449 0.0
C593 C 0.47076 0.44699 0.41386 0.0
C594 C 0.47534 0.46503 0.42682 0.0
C595 C 0.46161 0.47761 0.44027 0.0
H596 H 0.4814 0.43728 0.40321 0.0
H597 H 0.35063 0.56366 0.50647 0.0
H598 H 0.06638 0.33802 0.36932 0.0
H599 H 0.05928 0.36504 0.42781 0.0
H600 H 0.04412 0.39153 0.29334 0.0
H601 H 0.05174 0.36438 0.23363 0.0
H602 H 0.06487 0.41357 0.37017 0.0
H603 H 0.01103 0.37702 0.36388 0.0
H604 H 0.99321 0.34922 0.36685 0.0
H605 H 0.0106 0.34715 0.52733 0.0
H606 H 0.02876 0.37481 0.52507 0.0
H607 H 0.02247 0.48262 0.5529 0.0
H608 H 0.02873 0.45977 0.478 0.0
H609 H 0.04334 0.42249 0.58676 0.0
H610 H 0.03701 0.44503 0.6614 0.0
H611 H 0.01971 0.40768 0.51288 0.0
H612 H 0.07575 0.44248 0.51616 0.0
H613 H 0.09395 0.47009 0.51351 0.0
H614 H 0.07236 0.47552 0.35918 0.0
H615 H 0.05382 0.44807 0.36125 0.0
C616 C 0.06189 0.34964 0.35178 0.0
C617 C 0.05977 0.34902 0.29656 0.0
C618 C 0.05764 0.36506 0.38547 0.0
C619 C 0.05098 0.38024 0.36505 0.0
C620 C 0.0492 0.37992 0.30992 0.0
C621 C 0.05344 0.36438 0.27593 0.0
C622 C 0.04546 0.39608 0.40214 0.0
C623 C 0.05473 0.41243 0.40076 0.0
C624 C 0.03239 0.39451 0.44245 0.0
C625 C 0.02136 0.37794 0.44416 0.0
C626 C 0.01116 0.37058 0.39969 0.0
C627 C 1.00098 0.35485 0.40126 0.0
C628 C 1.0008 0.34641 0.44722 0.0
C629 C 0.01076 0.3537 0.49175 0.0
C630 C 0.02098 0.36942 0.49037 0.0
C631 C 0.02717 0.46961 0.56084 0.0
C632 C 0.02917 0.46567 0.61325 0.0
C633 C 0.03078 0.45657 0.51795 0.0
C634 C 0.03652 0.4394 0.52673 0.0
C635 C 0.03884 0.4356 0.57897 0.0
C636 C 0.03526 0.44857 0.62169 0.0
C637 C 0.03952 0.42505 0.48204 0.0
C638 C 0.02968 0.40895 0.48191 0.0
C639 C 0.05204 0.4269 0.4405 0.0
C640 C 0.06324 0.44335 0.43914 0.0
C641 C 0.07476 0.44965 0.48186 0.0
C642 C 0.08516 0.46525 0.48042 0.0
C643 C 0.08426 0.47459 0.43628 0.0
C644 C 0.07301 0.4683 0.39339 0.0
C645 C 0.06256 0.45272 0.39466 0.0
H646 H 0.09232 0.48666 0.43524 0.0
H647 H 0.99291 0.33424 0.44836 0.0
H648 H 0.88083 0.97137 0.19489 0.0
H649 H 0.90534 0.97318 0.13033 0.0
H650 H 0.87596 0.01446 0.0629 0.0
H651 H 0.85103 0.01218 0.12575 0.0
H652 H 0.88774 0.99094 0.98642 0.0
H653 H 0.91583 0.02304 0.14034 0.0
H654 H 0.9265 0.02792 0.23306 0.0
H655 H 0.96194 0.98252 0.20439 0.0
H656 H 0.9513 0.97722 0.11163 0.0
H657 H 0.95973 0.01691 0.82293 0.0
H658 H 0.93643 0.01636 0.8917 0.0
H659 H 0.96466 0.97317 0.95308 0.0
H660 H 0.98817 0.97375 0.88467 0.0
H661 H 0.95372 0.99768 0.03284 0.0
H662 H 0.92541 0.96561 0.87901 0.0
H663 H 0.91485 0.96094 0.78617 0.0
H664 H 0.8798 0.00663 0.81499 0.0
H665 H 0.89034 0.01172 0.90787 0.0
C666 C 0.87955 0.98088 0.16645 0.0
C667 C 0.86383 0.99163 0.16589 0.0
C668 C 0.89372 0.98202 0.12971 0.0
C669 C 0.89268 0.99406 0.09167 0.0
C670 C 0.87719 0.00506 0.09171 0.0
C671 C 0.86299 0.00389 0.1283 0.0
C672 C 0.90729 0.99467 0.05049 0.0
C673 C 0.90213 0.9927 0.99678 0.0
C674 C 0.92619 0.99647 0.06344 0.0
C675 C 0.93263 0.99963 0.11917 0.0
C676 C 0.92579 0.01401 0.15391 0.0
C677 C 0.93185 0.01687 0.20646 0.0
C678 C 0.94485 0.00551 0.22464 0.0
C679 C 0.95185 0.99129 0.19027 0.0
C680 C 0.94583 0.98837 0.13769 0.0
C681 C 0.96101 0.00724 0.85093 0.0
C682 C 0.97586 0.99532 0.84791 0.0
C683 C 0.9476 0.00691 0.89026 0.0
C684 C 0.9486 0.99459 0.92748 0.0
C685 C 0.96351 0.9828 0.92493 0.0
C686 C 0.97694 0.9831 0.88554 0.0
C687 C 0.93412 0.99404 0.96897 0.0
C688 C 0.93931 0.99596 0.02263 0.0
C689 C 0.91524 0.99223 0.95602 0.0
C690 C 0.9088 0.98915 0.90026 0.0
C691 C 0.91555 0.97474 0.86545 0.0
C692 C 0.90955 0.97201 0.81283 0.0
C693 C 0.8967 0.98351 0.79466 0.0
C694 C 0.88978 0.99775 0.82911 0.0
C695 C 0.89575 0.00055 0.88175 0.0
H696 H 0.89207 0.98137 0.75391 0.0
H697 H 0.94953 0.00774 0.26533 0.0
H698 H 0.57573 0.83999 0.99363 0.0
H699 H 0.57287 0.86829 0.95729 0.0
H700 H 0.54678 0.89158 0.10127 0.0
H701 H 0.54918 0.86287 0.13752 0.0
H702 H 0.52768 0.89852 0.01724 0.0
H703 H 0.59022 0.90477 0.06765 0.0
H704 H 0.62254 0.89617 0.07586 0.0
H705 H 0.62827 0.89048 0.90667 0.0
H706 H 0.59589 0.89878 0.89734 0.0
H707 H 0.52503 0.98163 0.90804 0.0
H708 H 0.53351 0.95979 0.96752 0.0
H709 H 0.55537 0.92521 0.83522 0.0
H710 H 0.54685 0.94687 0.77543 0.0
H711 H 0.57773 0.92754 0.92604 0.0
H712 H 0.51397 0.91713 0.87729 0.0
H713 H 0.48169 0.92597 0.86934 0.0
H714 H 0.47878 0.94003 0.03786 0.0
H715 H 0.51115 0.93151 0.0467 0.0
C716 C 0.56948 0.85116 0.01779 0.0
C717 C 0.56252 0.84914 0.0683 0.0
C718 C 0.56802 0.86742 0.99713 0.0
C719 C 0.55976 0.88218 0.02663 0.0
C720 C 0.55327 0.8804 0.07781 0.0
C721 C 0.55475 0.86405 0.09864 0.0
C722 C 0.55673 0.89887 1.00192 0.0
C723 C 0.53872 0.90512 0.99845 0.0
C724 C 0.57106 0.90735 0.97646 0.0
C725 C 0.59055 0.90228 0.98181 0.0
C726 C 0.59832 0.90154 0.03215 0.0
C727 C 0.61667 0.89674 0.03701 0.0
C728 C 0.62745 0.89275 0.99182 0.0
C729 C 0.6199 0.89357 0.94165 0.0
C730 C 0.60155 0.89834 0.93656 0.0
C731 C 0.53177 0.96944 0.89162 0.0
C732 C 0.53508 0.96592 0.83685 0.0
C733 C 0.53658 0.95697 0.92569 0.0
C734 C 0.54493 0.94081 0.90572 0.0
C735 C 0.54892 0.93758 0.85145 0.0
C736 C 0.54394 0.94995 0.81729 0.0
C737 C 0.54871 0.92682 0.94066 0.0
C738 C 0.56681 0.9211 0.94582 0.0
C739 C 0.53451 0.91886 0.96783 0.0
C740 C 0.51504 0.9239 0.96258 0.0
C741 C 0.50649 0.92225 0.91259 0.0
C742 C 0.48817 0.92718 0.90793 0.0
C743 C 0.47821 0.93361 0.95305 0.0
C744 C 0.48653 0.93508 0.00294 0.0
C745 C 0.50486 0.9302 0.0078 0.0
H746 H 0.46402 0.93742 0.94937 0.0
H747 H 0.64165 0.88905 0.99567 0.0
H748 H 0.68955 0.50152 0.07554 0.0
H749 H 0.66429 0.50252 0.01312 0.0
H750 H 0.62598 0.50946 0.14282 0.0
H751 H 0.65129 0.50854 0.20583 0.0
H752 H 0.61325 0.4851 0.06649 0.0
H753 H 0.63766 0.54437 0.07234 0.0
H754 H 0.66155 0.56747 0.06792 0.0
H755 H 0.67303 0.54663 0.90672 0.0
H756 H 0.64937 0.52323 0.91039 0.0
H757 H 0.53751 0.50641 0.9091 0.0
H758 H 0.56209 0.50804 0.97494 0.0
H759 H 0.60213 0.49921 0.85013 0.0
H760 H 0.57763 0.49775 0.78385 0.0
H761 H 0.61334 0.52537 0.92601 0.0
H762 H 0.5892 0.46566 0.92146 0.0
H763 H 0.56483 0.44302 0.92586 0.0
H764 H 0.55249 0.46515 0.08539 0.0
H765 H 0.57661 0.48811 0.08165 0.0
C766 C 0.67582 0.50362 0.09107 0.0
C767 C 0.67257 0.50509 0.14601 0.0
C768 C 0.66132 0.50413 0.05513 0.0
C769 C 0.64316 0.50626 0.07305 0.0
C770 C 0.63983 0.50779 0.12785 0.0
C771 C 0.65435 0.50725 0.1639 0.0
C772 C 0.62767 0.5064 0.03447 0.0
C773 C 0.61315 0.49411 0.03634 0.0
C774 C 0.62762 0.51787 0.99421 0.0
C775 C 0.64185 0.53194 0.99181 0.0
C776 C 0.64537 0.54462 0.03608 0.0
C777 C 0.65886 0.55779 0.03368 0.0
C778 C 0.66883 0.55849 0.98711 0.0
C779 C 0.66531 0.54606 0.94279 0.0
C780 C 0.65185 0.53285 0.94498 0.0
C781 C 0.55153 0.50483 0.89548 0.0
C782 C 0.55552 0.50187 0.84096 0.0
C783 C 0.5656 0.5057 0.93332 0.0
C784 C 0.58401 0.50355 0.91767 0.0
C785 C 0.58806 0.50088 0.8633 0.0
C786 C 0.574 0.49998 0.82539 0.0
C787 C 0.59901 0.50402 0.95792 0.0
C788 C 0.61343 0.5164 0.95631 0.0
C789 C 0.59894 0.49267 0.99848 0.0
C790 C 0.58459 0.47872 1.00108 0.0
C791 C 0.58121 0.46578 0.95735 0.0
C792 C 0.56744 0.45288 0.95974 0.0
C793 C 0.55708 0.45268 0.00582 0.0
C794 C 0.56051 0.46534 0.04969 0.0
C795 C 0.57423 0.47829 0.04747 0.0
H796 H 0.54642 0.44269 0.00757 0.0
H797 H 0.67926 0.5687 0.98534 0.0
H798 H 0.9901 0.65067 0.19944 0.0
H799 H 0.99681 0.62354 0.1399 0.0
H800 H 0.93953 0.60888 0.13678 0.0
H801 H 0.93271 0.63598 0.19699 0.0
H802 H 0.96412 0.5788 0.13354 0.0
H803 H 0.95301 0.6305 0.04442 0.0
H804 H 0.95744 0.66187 0.02836 0.0
H805 H 0.01427 0.65178 0.99344 0.0
H806 H 0.01025 0.6204 0.01023 0.0
H807 H 0.96886 0.52232 0.8836 0.0
H808 H 0.9602 0.54397 0.95936 0.0
H809 H 0.01291 0.57009 0.95291 0.0
H810 H 0.02123 0.5491 0.87644 0.0
H811 H 0.98825 0.594 0.96214 0.0
H812 H 0.9997 0.54216 0.05203 0.0
H813 H 0.99534 0.51085 0.0689 0.0
H814 H 0.93835 0.52074 0.10193 0.0
H815 H 0.94233 0.55209 0.0847 0.0
C816 C 0.97901 0.6414 0.18761 0.0
C817 C 0.96085 0.64556 0.20265 0.0
C818 C 0.98285 0.62594 0.15326 0.0
C819 C 0.96863 0.61433 0.13335 0.0
C820 C 0.95069 0.61768 0.15158 0.0
C821 C 0.94681 0.63321 0.18573 0.0
C822 C 0.9722 0.60007 0.08893 0.0
C823 C 0.96926 0.58206 0.09584 0.0
C824 C 0.97897 0.60435 0.03989 0.0
C825 C 0.98137 0.62316 0.0291 0.0
C826 C 0.96649 0.63501 0.03373 0.0
C827 C 0.96892 0.65279 0.02444 0.0
C828 C 0.98614 0.65883 0.01001 0.0
C829 C 1.00095 0.64709 0.0047 0.0
C830 C 0.9986 0.6293 0.01407 0.0
C831 C 0.97861 0.53263 0.89867 0.0
C832 C 0.99567 0.53407 0.87382 0.0
C833 C 0.97369 0.54495 0.94218 0.0
C834 C 0.98594 0.55866 0.96234 0.0
C835 C 1.00314 0.55976 0.93811 0.0
C836 C 0.0079 0.5477 0.89429 0.0
C837 C 0.98079 0.57249 0.00685 0.0
C838 C 0.98324 0.59057 0.99978 0.0
C839 C 0.97363 0.56819 0.05562 0.0
C840 C 0.97128 0.54942 0.06657 0.0
C841 C 0.98621 0.53763 0.06259 0.0
C842 C 0.98381 0.51988 0.07227 0.0
C843 C 0.96657 0.5138 0.08634 0.0
C844 C 0.9517 0.52547 0.09097 0.0
C845 C 0.95402 0.54323 0.08132 0.0
H846 H 0.96473 0.50005 0.09375 0.0
H847 H 0.98799 0.6726 0.00283 0.0
H848 H 0.07156 0.2158 0.45311 0.0
H849 H 0.06141 0.1974 0.52133 0.0
H850 H 0.01591 0.1776 0.42184 0.0
H851 H 0.02577 0.19596 0.35445 0.0
H852 H 0.00592 0.18504 0.52659 0.0
H853 H 0.05552 0.15446 0.4214 0.0
H854 H 0.08732 0.15207 0.38852 0.0
H855 H 0.10751 0.1577 0.54845 0.0
H856 H 0.07579 0.16033 0.58222 0.0
H857 H 0.97996 0.09651 0.53619 0.0
H858 H 0.99026 0.12634 0.52097 0.0
H859 H 0.03095 0.12597 0.64422 0.0
H860 H 0.0207 0.09601 0.65955 0.0
H861 H 0.0461 0.13444 0.55702 0.0
H862 H 0.99503 0.15442 0.65829 0.0
H863 H 0.96323 0.15629 0.6905 0.0
H864 H 0.9451 0.17031 0.54038 0.0
H865 H 0.9768 0.16838 0.50701 0.0
C866 C 0.05929 0.20765 0.44628 0.0
C867 C 0.04959 0.20706 0.39826 0.0
C868 C 0.05353 0.19717 0.48513 0.0
C869 C 0.03795 0.1861 0.47646 0.0
C870 C 0.02793 0.18608 0.42939 0.0
C871 C 0.0337 0.19641 0.39065 0.0
C872 C 0.03261 0.17337 0.51374 0.0
C873 C 0.01465 0.17397 0.53358 0.0
C874 C 0.04433 0.15941 0.52464 0.0
C875 C 0.06334 0.15785 0.50429 0.0
C876 C 0.06676 0.15534 0.44951 0.0
C877 C 0.08476 0.15391 0.43072 0.0
C878 C 0.09943 0.15481 0.46637 0.0
C879 C 0.09613 0.15707 0.52089 0.0
C880 C 0.07815 0.15853 0.53987 0.0
C881 C 0.99082 0.10294 0.56082 0.0
C882 C 0.99963 0.09389 0.59865 0.0
C883 C 0.99667 0.12003 0.55227 0.0
C884 C 0.01128 0.12847 0.58183 0.0
C885 C 0.01965 0.11972 0.62105 0.0
C886 C 0.01385 0.10258 0.62949 0.0
C887 C 0.01895 0.14547 0.56727 0.0
C888 C 0.03742 0.14574 0.55187 0.0
C889 C 0.00763 0.1602 0.56048 0.0
C890 C 0.98842 0.16132 0.58019 0.0
C891 C 0.9843 0.15789 0.63206 0.0
C892 C 0.96626 0.15894 0.65054 0.0
C893 C 0.95215 0.16343 0.61753 0.0
C894 C 0.95606 0.16688 0.56597 0.0
C895 C 0.97409 0.16585 0.5473 0.0
H896 H 0.93818 0.16423 0.63189 0.0
H897 H 0.11336 0.15369 0.45176 0.0
H898 H 0.29231 0.01132 0.49664 0.0
H899 H 0.31493 0.00658 0.56331 0.0
H900 H 0.33419 0.06103 0.56495 0.0
H901 H 0.31196 0.06546 0.49551 0.0
H902 H 0.36067 0.04125 0.5442 0.0
H903 H 0.31839 0.0427 0.68239 0.0
H904 H 0.28978 0.03751 0.72979 0.0
H905 H 0.29968 0.98098 0.70933 0.0
H906 H 0.3282 0.98575 0.66104 0.0
H907 H 0.43741 0.00473 0.6545 0.0
H908 H 0.40967 0.02287 0.6603 0.0
H909 H 0.37711 0.9757 0.61095 0.0
H910 H 0.40498 0.95741 0.60586 0.0
H911 H 0.35855 1.00014 0.68227 0.0
H912 H 0.39626 0.00126 0.5212 0.0
H913 H 0.42492 0.00785 0.47559 0.0
H914 H 0.42277 0.0626 0.54595 0.0
H915 H 0.39429 0.05623 0.59264 0.0
C916 C 0.30088 0.0225 0.5127 0.0
C917 C 0.30054 0.0387 0.49069 0.0
C918 C 0.31379 0.01983 0.55133 0.0
C919 C 0.32635 0.03345 0.56959 0.0
C920 C 0.32474 0.05027 0.55139 0.0
C921 C 0.31205 0.05282 0.51178 0.0
C922 C 0.34317 0.02881 0.59786 0.0
C923 C 0.36013 0.03278 0.57577 0.0
C924 C 0.34269 0.01766 0.63891 0.0
C925 C 0.32549 0.01461 0.66792 0.0
C926 C 0.31443 0.02914 0.68766 0.0
C927 C 0.29822 0.02627 0.71475 0.0
C928 C 0.29291 0.00893 0.72256 0.0
C929 C 0.30382 0.99441 0.70332 0.0
C930 C 0.32005 0.9972 0.67618 0.0
C931 C 0.42425 0.99824 0.64587 0.0
C932 C 0.42318 0.97985 0.62855 0.0
C933 C 0.40845 0.00857 0.64963 0.0
C934 C 0.3914 0.00068 0.63539 0.0
C935 C 0.39016 0.98203 0.6221 0.0
C936 C 0.40601 0.97163 0.61881 0.0
C937 C 0.37545 0.01195 0.62646 0.0
C938 C 0.35886 0.00918 0.6522 0.0
C939 C 0.37622 0.02446 0.5893 0.0
C940 C 0.39329 0.02823 0.56085 0.0
C941 C 0.40198 0.01467 0.52717 0.0
C942 C 0.41819 0.01836 0.50114 0.0
C943 C 0.4257 0.03562 0.50796 0.0
C944 C 0.41699 0.04923 0.54078 0.0
C945 C 0.40083 0.04558 0.56706 0.0
H946 H 0.43822 0.03845 0.48768 0.0
H947 H 0.28035 0.00674 0.74354 0.0
H948 H 0.49195 0.29756 0.56729 0.0
H949 H 0.5023 0.32565 0.61664 0.0
H950 H 0.44701 0.34579 0.61677 0.0
H951 H 0.43679 0.31784 0.56559 0.0
H952 H 0.46713 0.36792 0.5797 0.0
H953 H 0.47049 0.34116 0.7348 0.0
H954 H 0.47699 0.3193 0.79684 0.0
H955 H 0.53481 0.32607 0.77383 0.0
H956 H 0.52867 0.34787 0.71112 0.0
H957 H 0.514 0.44033 0.77791 0.0
H958 H 0.50396 0.40951 0.75857 0.0
H959 H 0.51396 0.41162 0.59216 0.0
H960 H 0.52279 0.44318 0.6111 0.0
H961 H 0.51373 0.379 0.72235 0.0
H962 H 0.48322 0.39055 0.51763 0.0
H963 H 0.46982 0.41518 0.47527 0.0
H964 H 0.45427 0.44167 0.62767 0.0
H965 H 0.46775 0.41726 0.67086 0.0
C966 C 0.4819 0.30776 0.57947 0.0
C967 C 0.46361 0.30564 0.56237 0.0
C968 C 0.48782 0.32383 0.60782 0.0
C969 C 0.47547 0.33794 0.62026 0.0
C970 C 0.45684 0.33519 0.60715 0.0
C971 C 0.45099 0.31922 0.57811 0.0
C972 C 0.48246 0.35618 0.63923 0.0
C973 C 0.47723 0.37028 0.61121 0.0
C974 C 0.49522 0.35955 0.68134 0.0
C975 C 0.49911 0.34603 0.71775 0.0
C976 C 0.4846 0.33784 0.74244 0.0
C977 C 0.48821 0.32551 0.77792 0.0
C978 C 0.50629 0.32126 0.78921 0.0
C979 C 0.5208 0.32936 0.76501 0.0
C980 C 0.51726 0.34173 0.72954 0.0
C981 C 0.5142 0.43429 0.73712 0.0
C982 C 0.51871 0.44442 0.69585 0.0
C983 C 0.50857 0.41651 0.72618 0.0
C984 C 0.50767 0.40831 0.67376 0.0
C985 C 0.51395 0.41784 0.63285 0.0
C986 C 0.51918 0.43584 0.6437 0.0
C987 C 0.49873 0.39046 0.66178 0.0
C988 C 0.50361 0.37651 0.691 0.0
C989 C 0.48468 0.38745 0.62326 0.0
C990 C 0.47665 0.40219 0.59739 0.0
C991 C 0.47696 0.40166 0.54202 0.0
C992 C 0.46941 0.41564 0.5179 0.0
C993 C 0.46133 0.43013 0.54876 0.0
C994 C 0.46074 0.4306 0.6038 0.0
C995 C 0.46837 0.41672 0.62813 0.0
H996 H 0.45547 0.44094 0.53012 0.0
H997 H 0.50905 0.31173 0.81678 0.0
H998 H 0.23804 0.56387 0.44227 0.0
H999 H 0.2116 0.56898 0.50004 0.0
H1000 H 0.19563 0.61343 0.41858 0.0
H1001 H 0.22216 0.60828 0.35994 0.0
H1002 H 0.19252 0.59325 0.56576 0.0
H1003 H 0.15124 0.60636 0.38256 0.0
H1004 H 0.1544 0.60298 0.28518 0.0
H1005 H 0.1901 0.55821 0.29178 0.0
H1006 H 0.18687 0.56114 0.38897 0.0
H1007 H 0.09686 0.59304 0.63585 0.0
H1008 H 0.12651 0.60229 0.6024 0.0
H1009 H 0.12942 0.55257 0.49883 0.0
H1010 H 0.0997 0.54347 0.53101 0.0
H1011 H 0.13857 0.58023 0.44768 0.0
H1012 H 0.15353 0.55848 0.61263 0.0
H1013 H 0.15166 0.55732 0.70897 0.0
H1014 H 0.16992 0.61198 0.73805 0.0
H1015 H 0.17167 0.61352 0.64178 0.0
C1016 C 0.22941 0.57525 0.43803 0.0
C1017 C 0.23196 0.58546 0.39583 0.0
C1018 C 0.21425 0.57816 0.47123 0.0
C1019 C 0.20143 0.5913 0.46273 0.0
C1020 C 0.20523 0.60302 0.42515 0.0
C1021 C 0.22034 0.60003 0.3916 0.0
C1022 C 0.18279 0.59016 0.48513 0.0
C1023 C 0.18064 0.59074 0.54014 0.0
C1024 C 0.1674 0.58635 0.45151 0.0
C1025 C 0.16899 0.58413 0.39297 0.0
C1026 C 0.15968 0.59575 0.36313 0.0
C1027 C 0.16149 0.59391 0.308 0.0
C1028 C 0.1725 0.58043 0.28233 0.0
C1029 C 0.18161 0.56867 0.31169 0.0
C1030 C 0.17979 0.57041 0.36678 0.0
C1031 C 0.10377 0.58417 0.60559 0.0
C1032 C 0.096 0.56751 0.58609 0.0
C1033 C 0.12075 0.58941 0.58687 0.0
C1034 C 0.13018 0.57807 0.54839 0.0
C1035 C 0.12234 0.56152 0.52853 0.0
C1036 C 0.10544 0.55628 0.54726 0.0
C1037 C 0.14825 0.58324 0.52838 0.0
C1038 C 0.15029 0.58332 0.47363 0.0
C1039 C 0.16358 0.58707 0.56219 0.0
C1040 C 0.1625 0.58619 0.62003 0.0
C1041 C 0.15698 0.5703 0.63957 0.0
C1042 C 0.15598 0.56956 0.69415 0.0
C1043 C 0.16061 0.58459 0.72961 0.0
C1044 C 0.1663 0.60036 0.71053 0.0
C1045 C 0.1673 0.60117 0.65597 0.0
H1046 H 0.15982 0.58399 0.77185 0.0
H1047 H 0.17393 0.57907 0.23968 0.0
H1048 H 0.9988 0.77085 0.04892 0.0
H1049 H 0.0142 0.79198 0.99764 0.0
H1050 H 0.96533 0.82409 0.00404 0.0
H1051 H 0.94968 0.80274 0.05378 0.0
H1052 H 0.98315 0.82482 0.91095 0.0
H1053 H 0.9982 0.83185 0.09864 0.0
H1054 H 0.01 0.82145 0.18042 0.0
H1055 H 0.06233 0.81075 0.10654 0.0
H1056 H 0.05073 0.82087 0.02402 0.0
H1057 H 0.00667 0.9148 0.92622 0.0
H1058 H 0.99714 0.88564 0.94936 0.0
H1059 H 0.05184 0.86561 0.91875 0.0
H1060 H 0.06151 0.89494 0.89501 0.0
H1061 H 0.03572 0.85486 0.01038 0.0
H1062 H 0.02082 0.85627 0.82911 0.0
H1063 H 0.00797 0.87017 0.75488 0.0
H1064 H 0.95379 0.86604 0.81825 0.0
H1065 H 0.96645 0.85308 0.89486 0.0
C1066 C 0.99113 0.78208 0.03782 0.0
C1067 C 0.97311 0.78529 0.05597 0.0
C1068 C 1.00001 0.79421 0.00889 0.0
C1069 C 0.99102 0.80977 0.99805 0.0
C1070 C 0.97255 0.81221 0.01226 0.0
C1071 C 0.96366 0.80008 0.04102 0.0
C1072 C 1.00125 0.82455 0.97774 0.0
C1073 C 0.99466 0.83138 0.9325 0.0
C1074 C 0.01653 0.83286 0.00539 0.0
C1075 C 0.02354 0.82689 0.05502 0.0
C1076 C 0.01218 0.82716 0.09974 0.0
C1077 C 0.01883 0.82133 0.14622 0.0
C1078 C 0.03689 0.81539 0.14862 0.0
C1079 C 0.04834 0.81531 0.10458 0.0
C1080 C 0.04173 0.82109 0.05795 0.0
C1081 C 0.01669 0.9042 0.92446 0.0
C1082 C 0.03476 0.90703 0.90806 0.0
C1083 C 0.01124 0.88757 0.93771 0.0
C1084 C 0.0237 0.87341 0.93459 0.0
C1085 C 0.04201 0.87638 0.92093 0.0
C1086 C 0.04752 0.89311 0.90762 0.0
C1087 C 0.01724 0.85547 0.94459 0.0
C1088 C 0.02454 0.84804 0.98786 0.0
C1089 C 1.00246 0.84677 0.91545 0.0
C1090 C 0.99465 0.85382 0.86815 0.0
C1091 C 0.00618 0.85847 0.82761 0.0
C1092 C 0.99892 0.86625 0.78511 0.0
C1093 C 0.98005 0.86896 0.7817 0.0
C1094 C 0.96841 0.86394 0.82095 0.0
C1095 C 0.97564 0.85646 0.86412 0.0
H1096 H 0.97443 0.87492 0.74864 0.0
H1097 H 0.04202 0.81088 0.18465 0.0
H1098 H 0.74517 0.98342 0.99222 0.0
H1099 H 0.72333 0.99778 0.93912 0.0
H1100 H 0.68011 0.96392 0.98762 0.0
H1101 H 0.70218 0.94827 0.03641 0.0
H1102 H 0.66963 0.97533 0.90273 0.0
H1103 H 0.69593 0.0034 0.06807 0.0
H1104 H 0.72131 0.01525 0.12671 0.0
H1105 H 0.7356 0.05241 0.01781 0.0
H1106 H 0.71044 0.04056 0.95816 0.0
H1107 H 0.59761 0.02714 0.00672 0.0
H1108 H 0.62865 0.01543 0.01088 0.0
H1109 H 0.6451 0.04433 0.88235 0.0
H1110 H 0.61387 0.05555 0.87625 0.0
H1111 H 0.67172 0.03851 0.98604 0.0
H1112 H 0.63584 0.01115 0.83351 0.0
H1113 H 0.60636 0.99923 0.79692 0.0
H1114 H 0.60652 0.95923 0.90348 0.0
H1115 H 0.63578 0.97131 0.94206 0.0
C1116 C 0.73125 0.97828 0.98934 0.0
C1117 C 0.72525 0.9652 0.02069 0.0
C1118 C 0.71869 0.98671 0.95931 0.0
C1119 C 0.69993 0.98261 0.96183 0.0
C1120 C 0.69445 0.96767 0.98611 0.0
C1121 C 0.70708 0.95886 0.0147 0.0
C1122 C 0.68586 0.99558 0.94925 0.0
C1123 C 0.67026 0.9892 0.9202 0.0
C1124 C 0.6865 0.01372 0.9725 0.0
C1125 C 0.70151 0.02095 0.00841 0.0
C1126 C 0.70456 0.01404 0.05657 0.0
C1127 C 0.71889 0.02074 0.08995 0.0
C1128 C 0.7301 0.03454 0.07592 0.0
C1129 C 0.72695 0.04169 0.02854 0.0
C1130 C 0.71267 0.03498 0.99491 0.0
C1131 C 0.60794 0.03138 0.98024 0.0
C1132 C 0.60323 0.04193 0.94044 0.0
C1133 C 0.62564 0.02475 0.98283 0.0
C1134 C 0.63889 0.02883 0.94625 0.0
C1135 C 0.63491 0.04107 0.91069 0.0
C1136 C 0.61709 0.04752 0.90753 0.0
C1137 C 0.65568 0.0181 0.94041 0.0
C1138 C 0.67157 0.02488 0.96644 0.0
C1139 C 0.65501 1.00017 0.91628 0.0
C1140 C 0.63793 0.99229 0.89111 0.0
C1141 C 0.62948 0.99998 0.8497 0.0
C1142 C 0.61279 0.99319 0.82858 0.0
C1143 C 0.60449 0.97855 0.84801 0.0
C1144 C 0.61294 0.97061 0.88852 0.0
C1145 C 0.62959 0.97742 0.91002 0.0
H1146 H 0.59159 0.97329 0.83147 0.0
H1147 H 0.74119 0.03972 0.10181 0.0
H1148 H 0.52658 0.70173 0.91022 0.0
H1149 H 0.51403 0.67522 0.85687 0.0
H1150 H 0.56066 0.64463 0.89741 0.0
H1151 H 0.57373 0.67124 0.94842 0.0
H1152 H 0.55053 0.63378 0.80029 0.0
H1153 H 0.52028 0.64611 0.96965 0.0
H1154 H 0.50271 0.66463 0.0384 0.0
H1155 H 0.45824 0.66745 0.92893 0.0
H1156 H 0.47567 0.64912 0.8593 0.0
H1157 H 0.49813 0.55063 0.85067 0.0
H1158 H 0.5022 0.58288 0.87535 0.0
H1159 H 0.50775 0.59012 0.71029 0.0
H1160 H 0.50456 0.5578 0.68601 0.0
H1161 H 0.48957 0.61451 0.86015 0.0
H1162 H 0.54409 0.61861 0.69784 0.0
H1163 H 0.56375 0.59868 0.63865 0.0
H1164 H 0.56294 0.55991 0.74918 0.0
H1165 H 0.54377 0.57992 0.80998 0.0
C1166 C 0.53444 0.6895 0.90645 0.0
C1167 C 0.55103 0.6885 0.9342 0.0
C1168 C 0.52714 0.67431 0.87638 0.0
C1169 C 0.5362 0.65786 0.8742 0.0
C1170 C 0.55336 0.65715 0.89884 0.0
C1171 C 0.56073 0.67234 0.92842 0.0
C1172 C 0.5273 0.64105 0.85025 0.0
C1173 C 0.5371 0.62966 0.81284 0.0
C1174 C 0.50989 0.63556 0.86729 0.0
C1175 C 0.49935 0.64644 0.90916 0.0
C1176 C 0.5068 0.65079 0.96017 0.0
C1177 C 0.49686 0.66123 0.99929 0.0
C1178 C 0.47939 0.66726 0.98799 0.0
C1179 C 0.47179 0.6628 0.93758 0.0
C1180 C 0.48169 0.65238 0.89829 0.0
C1181 C 0.49961 0.55923 0.81975 0.0
C1182 C 0.5013 0.55191 0.76668 0.0
C1183 C 0.50194 0.57763 0.83376 0.0
C1184 C 0.50577 0.58882 0.7947 0.0
C1185 C 0.50525 0.58167 0.74111 0.0
C1186 C 0.50337 0.56327 0.72726 0.0
C1187 C 0.51289 0.60716 0.81056 0.0
C1188 C 0.50278 0.61881 0.84653 0.0
C1189 C 0.53032 0.61266 0.79353 0.0
C1190 C 0.54226 0.60067 0.75805 0.0
C1191 C 0.54818 0.60588 0.70962 0.0
C1192 C 0.55926 0.59456 0.6758 0.0
C1193 C 0.5645 0.57797 0.6899 0.0
C1194 C 0.55883 0.57274 0.7382 0.0
C1195 C 0.5479 0.5841 0.77245 0.0
H1196 H 0.573 0.56919 0.66349 0.0
H1197 H 0.47171 0.67535 0.01832 0.0
H1198 H 0.78866 0.41217 0.04923 0.0
H1199 H 0.8168 0.40692 0.99824 0.0
H1200 H 0.84817 0.41084 0.14316 0.0
H1201 H 0.82057 0.41753 0.19408 0.0
H1202 H 0.86031 0.43379 0.08459 0.0
H1203 H 0.84509 0.37147 0.05318 0.0
H1204 H 0.82562 0.34505 0.0258 0.0
H1205 H 0.8225 0.35958 0.86798 0.0
H1206 H 0.84175 0.38624 0.89459 0.0
H1207 H 0.94683 0.42193 0.97065 0.0
H1208 H 0.91901 0.41319 0.01449 0.0
H1209 H 0.88726 0.4202 0.87544 0.0
H1210 H 0.91519 0.42868 0.83069 0.0
H1211 H 0.87587 0.39006 0.92942 0.0
H1212 H 0.88876 0.45343 0.96391 0.0
H1213 H 0.90847 0.47972 0.99088 0.0
H1214 H 0.91569 0.46265 0.14455 0.0
H1215 H 0.89624 0.43608 0.11814 0.0
C1216 C 0.80151 0.41174 0.07038 0.0
C1217 C 0.80224 0.41573 0.12594 0.0
C1218 C 0.8176 0.40845 0.04108 0.0
C1219 C 0.83465 0.40863 0.06687 0.0
C1220 C 0.83518 0.41078 0.12238 0.0
C1221 C 0.81922 0.4144 0.15159 0.0
C1222 C 0.85198 0.4094 0.03674 0.0
C1223 C 0.86383 0.42396 0.05141 0.0
C1224 C 0.85631 0.39699 0.99218 0.0
C1225 C 0.84474 0.38095 0.97603 0.0
C1226 C 0.84013 0.36912 0.01275 0.0
C1227 C 0.82916 0.35408 0.99734 0.0
C1228 C 0.82279 0.35066 0.94522 0.0
C1229 C 0.82743 0.36226 0.90836 0.0
C1230 C 0.83839 0.37732 0.92357 0.0
C1231 C 0.93402 0.42118 0.94884 0.0
C1232 C 0.93315 0.42614 0.89739 0.0
C1233 C 0.91815 0.41622 0.974 0.0
C1234 C 0.90113 0.41619 0.94823 0.0
C1235 C 0.90031 0.42013 0.89583 0.0
C1236 C 0.91621 0.42516 0.87063 0.0
C1237 C 0.88409 0.41417 0.97827 0.0
C1238 C 0.87231 0.39963 0.96319 0.0
C1239 C 0.87972 0.42656 0.02264 0.0
C1240 C 0.89121 0.44267 0.03885 0.0
C1241 C 0.89467 0.45521 0.0033 0.0
C1242 C 0.90577 0.47017 0.01851 0.0
C1243 C 0.91338 0.47283 0.06935 0.0
C1244 C 0.90982 0.46056 0.10515 0.0
C1245 C 0.89875 0.44555 0.09009 0.0
H1246 H 0.92198 0.48442 0.08103 0.0
H1247 H 0.8143 0.33901 0.93337 0.0
H1248 H 0.06517 0.20088 0.90531 0.0
H1249 H 0.06258 0.17048 0.8577 0.0
H1250 H 0.02722 0.1552 0.98048 0.0
H1251 H 0.02966 0.1853 0.02781 0.0
H1252 H 0.0588 0.13268 0.95513 0.0
H1253 H 0.00915 0.16129 0.86758 0.0
H1254 H 0.99689 0.18346 0.81321 0.0
H1255 H 0.03252 0.16372 0.68538 0.0
H1256 H 0.0452 0.14161 0.7393 0.0
H1257 H 0.02467 0.04676 0.87192 0.0
H1258 H 0.02982 0.07823 0.90444 0.0
H1259 H 0.04574 0.08846 0.74731 0.0
H1260 H 0.03919 0.05721 0.71409 0.0
H1261 H 0.02777 0.11452 0.78318 0.0
H1262 H 0.07747 0.08652 0.85858 0.0
H1263 H 0.09372 0.06492 0.90697 0.0
H1264 H 0.06453 0.08392 0.04901 0.0
H1265 H 0.04792 0.10548 1.00131 0.0
C1266 C 0.05668 0.19107 0.9217 0.0
C1267 C 0.04751 0.19556 0.97015 0.0
C1268 C 0.05517 0.17375 0.89444 0.0
C1269 C 0.04469 0.16061 0.9156 0.0
C1270 C 0.03533 0.16515 0.9634 0.0
C1271 C 0.03662 0.18243 0.99018 0.0
C1272 C 0.04416 0.14178 0.89017 0.0
C1273 C 0.0519 0.12863 0.9177 0.0
C1274 C 0.03602 0.13667 0.84007 0.0
C1275 C 0.02833 0.14998 0.80782 0.0
C1276 C 0.01453 0.16182 0.82814 0.0
C1277 C 0.00748 0.17435 0.79735 0.0
C1278 C 0.01403 0.1751 0.74605 0.0
C1279 C 0.02756 0.16322 0.72528 0.0
C1280 C 0.03466 0.15067 0.75591 0.0
C1281 C 0.02944 0.05571 0.8445 0.0
C1282 C 0.03171 0.0495 0.79065 0.0
C1283 C 0.03252 0.07373 0.86314 0.0
C1284 C 0.03868 0.08584 0.8288 0.0
C1285 C 0.04106 0.07953 0.77489 0.0
C1286 C 0.03743 0.06161 0.75593 0.0
C1287 C 0.042 0.10511 0.84888 0.0
C1288 C 0.03487 0.11841 0.82035 0.0
C1289 C 0.05136 0.11046 0.89722 0.0
C1290 C 0.06134 0.09753 0.92621 0.0
C1291 C 0.07443 0.08602 0.90005 0.0
C1292 C 0.08371 0.07379 0.92737 0.0
C1293 C 0.08013 0.07302 0.981 0.0
C1294 C 0.06728 0.08452 0.00745 0.0
C1295 C 0.05794 0.09676 0.98031 0.0
H1296 H 0.08734 0.06355 0.00208 0.0
H1297 H 0.00853 0.18478 0.72224 0.0
H1298 H 0.31773 0.98847 0.97975 0.0
H1299 H 0.34384 0.98646 0.91824 0.0
H1300 H 0.36721 0.03439 0.00316 0.0
H1301 H 0.34112 0.0367 0.06328 0.0
H1302 H 0.37196 0.03491 0.90055 0.0
H1303 H 0.38128 0.99121 0.0231 0.0
H1304 H 0.37307 0.96474 0.0667 0.0
H1305 H 0.37159 0.93232 0.91567 0.0
H1306 H 0.37957 0.95866 0.87112 0.0
H1307 H 0.4669 0.03058 0.84375 0.0
H1308 H 0.43621 0.03175 0.88232 0.0
H1309 H 0.42241 0.98151 0.79004 0.0
H1310 H 0.45337 0.97997 0.75282 0.0
H1311 H 0.4105 0.98059 0.88517 0.0
H1312 H 0.40429 0.02361 0.76307 0.0
H1313 H 0.41235 0.05014 0.71918 0.0
H1314 H 0.40764 0.0837 0.86735 0.0
H1315 H 0.39977 0.05743 0.91224 0.0
C1316 C 0.32829 0.99872 0.9847 0.0
C1317 C 0.32739 0.01262 0.02697 0.0
C1318 C 0.34333 0.99747 0.9498 0.0
C1319 C 0.35777 0.0101 0.95641 0.0
C1320 C 0.3564 0.0244 0.99712 0.0
C1321 C 0.34147 0.02563 0.03184 0.0
C1322 C 0.37467 0.00837 0.92261 0.0
C1323 C 0.38043 0.02306 0.89745 0.0
C1324 C 0.38556 0.99275 0.91698 0.0
C1325 C 0.3808 0.97693 0.94376 0.0
C1326 C 0.37907 0.97846 0.99918 0.0
C1327 C 0.37448 0.96348 0.02406 0.0
C1328 C 0.37175 0.94687 0.99396 0.0
C1329 C 0.37366 0.9452 0.93892 0.0
C1330 C 0.37822 0.96014 0.91384 0.0
C1331 C 0.45731 0.01982 0.83134 0.0
C1332 C 0.4627 0.00515 0.79523 0.0
C1333 C 0.43964 0.02056 0.85324 0.0
C1334 C 0.42671 0.00684 0.83881 0.0
C1335 C 0.43201 0.99228 0.80213 0.0
C1336 C 0.44977 0.99142 0.78074 0.0
C1337 C 0.40806 0.00731 0.86393 0.0
C1338 C 0.40195 0.99238 0.8875 0.0
C1339 C 0.39681 0.0227 0.86796 0.0
C1340 C 0.40158 0.03852 0.84105 0.0
C1341 C 0.4051 0.03663 0.78631 0.0
C1342 C 0.40961 0.05161 0.76125 0.0
C1343 C 0.41054 0.06854 0.79046 0.0
C1344 C 0.40693 0.07056 0.84478 0.0
C1345 C 0.40242 0.05565 0.87003 0.0
H1346 H 0.41403 0.08011 0.77098 0.0
H1347 H 0.3682 0.93529 0.0133 0.0
H1348 H 0.45025 0.28238 0.09348 0.0
H1349 H 0.45235 0.30697 0.03887 0.0
H1350 H 0.50937 0.31459 0.08085 0.0
H1351 H 0.50766 0.28964 0.13362 0.0
H1352 H 0.48604 0.34509 0.1083 0.0
H1353 H 0.50154 0.30222 0.9594 0.0
H1354 H 0.49747 0.27521 0.89513 0.0
H1355 H 0.44605 0.29509 0.84534 0.0
H1356 H 0.44974 0.32217 0.90969 0.0
H1357 H 0.50636 0.41868 0.97151 0.0
H1358 H 0.50711 0.38946 0.00353 0.0
H1359 H 0.45471 0.37601 0.92978 0.0
H1360 H 0.45433 0.40482 0.895 0.0
H1361 H 0.4759 0.34783 0.91659 0.0
H1362 H 0.45904 0.3898 0.06504 0.0
H1363 H 0.46193 0.41699 0.12923 0.0
H1364 H 0.51367 0.39879 0.18211 0.0
H1365 H 0.5112 0.37158 0.1177 0.0
C1366 C 0.46341 0.28883 0.0896 0.0
C1367 C 0.47872 0.28417 0.11872 0.0
C1368 C 0.46456 0.30297 0.05854 0.0
C1369 C 0.48097 0.31271 0.05627 0.0
C1370 C 0.49654 0.30733 0.08239 0.0
C1371 C 0.49549 0.2931 0.11277 0.0
C1372 C 0.48139 0.32973 0.03234 0.0
C1373 C 0.4841 0.34568 0.06624 0.0
C1374 C 0.47823 0.33052 0.97783 0.0
C1375 C 0.47581 0.31411 0.93985 0.0
C1376 C 0.48926 0.30074 0.9352 0.0
C1377 C 0.48706 0.28545 0.8986 0.0
C1378 C 0.47148 0.2834 0.8663 0.0
C1379 C 0.45809 0.29666 0.87049 0.0
C1380 C 0.46024 0.312 0.90695 0.0
C1381 C 0.49508 0.40945 0.96143 0.0
C1382 C 0.4802 0.41426 0.93095 0.0
C1383 C 0.49544 0.39278 0.9803 0.0
C1384 C 0.48081 0.3806 0.96993 0.0
C1385 C 0.46612 0.38518 0.93862 0.0
C1386 C 0.46582 0.4018 0.91933 0.0
C1387 C 0.48064 0.36326 0.99258 0.0
C1388 C 0.47789 0.34727 0.95863 0.0
C1389 C 0.4835 0.36241 0.04733 0.0
C1390 C 0.48502 0.37874 0.08617 0.0
C1391 C 0.4711 0.39166 0.09007 0.0
C1392 C 0.47265 0.40706 0.12654 0.0
C1393 C 0.488 0.40963 0.15963 0.0
C1394 C 0.50181 0.39679 0.1564 0.0
C1395 C 0.50033 0.38137 0.11995 0.0
H1396 H 0.48917 0.42157 0.18785 0.0
H1397 H 0.46982 0.27157 0.83794 0.0
H1398 H 0.21677 0.519 0.93629 0.0
H1399 H 0.18784 0.51602 0.88705 0.0
H1400 H 0.16451 0.48652 0.00615 0.0
H1401 H 0.19357 0.48915 0.05491 0.0
H1402 H 0.15274 0.47252 0.9126 0.0
H1403 H 0.15683 0.53262 1.00191 0.0
H1404 H 0.17099 0.56237 0.02541 0.0
H1405 H 0.16956 0.5716 0.86215 0.0
H1406 H 0.15561 0.54179 0.83757 0.0
H1407 H 0.05821 0.48589 0.86641 0.0
H1408 H 0.0891 0.48588 0.90333 0.0
H1409 H 0.10942 0.51343 0.77602 0.0
H1410 H 0.0784 0.51373 0.73906 0.0
H1411 H 0.12338 0.52805 0.86854 0.0
H1412 H 0.11769 0.46854 0.77993 0.0
H1413 H 0.10314 0.43896 0.75688 0.0
H1414 H 0.10723 0.42872 0.91889 0.0
H1415 H 0.12158 0.45837 0.94308 0.0
C1416 C 0.20552 0.51174 0.95175 0.0
C1417 C 0.20748 0.5044 0.99974 0.0
C1418 C 0.18892 0.51011 0.92366 0.0
C1419 C 0.17374 0.5014 0.94335 0.0
C1420 C 0.17593 0.49337 0.99007 0.0
C1421 C 0.19261 0.49483 0.01789 0.0
C1422 C 0.15545 0.50113 0.91637 0.0
C1423 C 0.14626 0.4847 0.90353 0.0
C1424 C 0.14705 0.51694 0.90311 0.0
C1425 C 0.15536 0.5349 0.91785 0.0
C1426 C 0.15965 0.54094 0.97098 0.0
C1427 C 0.16762 0.55782 0.9845 0.0
C1428 C 0.17122 0.56885 0.94528 0.0
C1429 C 0.1668 0.56303 0.89247 0.0
C1430 C 0.15885 0.54615 0.87873 0.0
C1431 C 0.06922 0.49191 0.846 0.0
C1432 C 0.06573 0.49976 0.79953 0.0
C1433 C 0.08696 0.49181 0.86712 0.0
C1434 C 0.10174 0.49944 0.8422 0.0
C1435 C 0.0983 0.5074 0.79598 0.0
C1436 C 0.08053 0.50751 0.77477 0.0
C1437 C 0.12063 0.49947 0.86518 0.0
C1438 C 0.12992 0.51586 0.87732 0.0
C1439 C 0.12909 0.48363 0.87784 0.0
C1440 C 0.12057 0.46575 0.86339 0.0
C1441 C 0.11537 0.46004 0.81072 0.0
C1442 C 0.10718 0.44325 0.79744 0.0
C1443 C 0.10423 0.43198 0.83642 0.0
C1444 C 0.10951 0.43747 0.88875 0.0
C1445 C 0.11769 0.45426 0.90225 0.0
H1446 H 0.09788 0.41899 0.82606 0.0
H1447 H 0.17739 0.58191 0.95582 0.0
H1448 H 0.98933 0.80033 0.49264 0.0
H1449 H 0.99681 0.82936 0.54213 0.0
H1450 H 0.93926 0.84162 0.55663 0.0
H1451 H 0.93162 0.81243 0.50833 0.0
H1452 H 0.95876 0.86764 0.51416 0.0
H1453 H 0.96321 0.83675 0.66846 0.0
H1454 H 0.97359 0.81371 0.72264 0.0
H1455 H 0.02966 0.82866 0.69946 0.0
H1456 H 0.01959 0.85176 0.64491 0.0
H1457 H 0.97008 0.95205 0.66846 0.0
H1458 H 0.96104 0.92136 0.63562 0.0
H1459 H 0.01758 0.90505 0.63955 0.0
H1460 H 0.02657 0.93548 0.67434 0.0
H1461 H 0.99795 0.8808 0.67374 0.0
H1462 H 0.99392 0.91183 0.52111 0.0
H1463 H 0.98401 0.93542 0.46833 0.0
H1464 H 0.92776 0.91994 0.48568 0.0
H1465 H 0.93733 0.89639 0.53918 0.0
C1466 C 0.97822 0.80892 0.5078 0.0
C1467 C 0.95986 0.80404 0.496 0.0
C1468 C 0.98253 0.82559 0.53592 0.0
C1469 C 0.9686 0.83773 0.55286 0.0
C1470 C 0.95025 0.83254 0.54359 0.0
C1471 C 0.94591 0.81584 0.51584 0.0
C1472 C 0.97319 0.85635 0.57598 0.0
C1473 C 0.96703 0.87055 0.54972 0.0
C1474 C 0.9845 0.86012 0.62118 0.0
C1475 C 0.99066 0.84585 0.65226 0.0
C1476 C 0.97776 0.83497 0.67441 0.0
C1477 C 0.98358 0.82196 0.70537 0.0
C1478 C 1.00228 0.81969 0.71436 0.0
C1479 C 0.01519 0.83041 0.69234 0.0
C1480 C 0.00943 0.84347 0.66146 0.0
C1481 C 0.98059 0.94194 0.6622 0.0
C1482 C 0.99907 0.94628 0.6737 0.0
C1483 C 0.97542 0.92437 0.64316 0.0
C1484 C 0.98865 0.91085 0.63407 0.0
C1485 C 0.00708 0.91517 0.64606 0.0
C1486 C 0.01222 0.93264 0.66582 0.0
C1487 C 0.98335 0.89218 0.61244 0.0
C1488 C 0.98951 0.87794 0.6386 0.0
C1489 C 0.97213 0.88835 0.56686 0.0
C1490 C 0.96633 0.90247 0.53461 0.0
C1491 C 0.97943 0.91354 0.51399 0.0
C1492 C 0.97387 0.92689 0.4839 0.0
C1493 C 0.95526 0.92921 0.47378 0.0
C1494 C 0.94217 0.91814 0.49362 0.0
C1495 C 0.94765 0.90478 0.5238 0.0
H1496 H 0.95099 0.93955 0.45047 0.0
H1497 H 0.00675 0.80965 0.73851 0.0
H1498 H 0.69083 0.97441 0.39708 0.0
H1499 H 0.6626 0.97882 0.448 0.0
H1500 H 0.69277 0.00723 0.57831 0.0
H1501 H 0.72139 0.00264 0.52728 0.0
H1502 H 0.66793 0.9825 0.61123 0.0
H1503 H 0.66619 0.03017 0.50369 0.0
H1504 H 0.66798 0.04406 0.42092 0.0
H1505 H 0.62265 0.01169 0.35669 0.0
H1506 H 0.62074 0.99741 0.4388 0.0
H1507 H 0.5829 0.01149 0.74186 0.0
H1508 H 0.6137 0.01033 0.70266 0.0
H1509 H 0.59145 0.98357 0.55671 0.0
H1510 H 0.56085 0.98454 0.59548 0.0
H1511 H 0.61372 0.01029 0.53754 0.0
H1512 H 0.61559 0.9621 0.64328 0.0
H1513 H 0.61524 0.94598 0.7219 0.0
H1514 H 0.66106 0.97734 0.78734 0.0
H1515 H 0.66124 0.99419 0.71013 0.0
C1516 C 0.69157 0.98152 0.43671 0.0
C1517 C 0.7085 0.98804 0.45814 0.0
C1518 C 0.67532 0.98417 0.46569 0.0
C1519 C 0.67543 0.99348 0.517 0.0
C1520 C 0.69228 1.00003 0.53878 0.0
C1521 C 0.70862 0.99749 0.50946 0.0
C1522 C 0.65789 0.99605 0.54749 0.0
C1523 C 0.65616 0.98894 0.59583 0.0
C1524 C 0.64236 0.00402 0.52672 0.0
C1525 C 0.64342 0.01262 0.47729 0.0
C1526 C 0.65669 0.02591 0.47177 0.0
C1527 C 0.65771 0.03387 0.42499 0.0
C1528 C 0.64546 0.02873 0.38353 0.0
C1529 C 0.63213 0.01565 0.38882 0.0
C1530 C 0.63107 0.00763 0.4355 0.0
C1531 C 0.58459 0.00521 0.70157 0.0
C1532 C 0.56931 0.99803 0.67208 0.0
C1533 C 0.60225 0.00453 0.67919 0.0
C1534 C 0.60503 0.99676 0.62666 0.0
C1535 C 0.58977 0.98965 0.59724 0.0
C1536 C 0.5722 0.99019 0.61964 0.0
C1537 C 0.62358 0.99651 0.60125 0.0
C1538 C 0.6255 0.00408 0.55364 0.0
C1539 C 0.63923 0.98889 0.62278 0.0
C1540 C 0.63825 0.97963 0.67107 0.0
C1541 C 0.62534 0.96586 0.6749 0.0
C1542 C 0.62523 0.95653 0.71916 0.0
C1543 C 0.63815 0.9606 0.7595 0.0
C1544 C 0.65109 0.97417 0.75598 0.0
C1545 C 0.65111 0.98371 0.71215 0.0
H1546 H 0.63811 0.95328 0.79357 0.0
H1547 H 0.64627 0.03491 0.34735 0.0
H1548 H 0.54082 0.70984 0.34117 0.0
H1549 H 0.5378 0.6833 0.38687 0.0
H1550 H 0.59503 0.68733 0.4299 0.0
H1551 H 0.59814 0.71403 0.3845 0.0
H1552 H 0.58652 0.65424 0.38547 0.0
H1553 H 0.56102 0.69583 0.52321 0.0
H1554 H 0.54033 0.7197 0.56164 0.0
H1555 H 0.49361 0.68621 0.5165 0.0
H1556 H 0.51402 0.66223 0.47713 0.0
H1557 H 0.5851 0.58352 0.54608 0.0
H1558 H 0.58811 0.61267 0.51404 0.0
H1559 H 0.53058 0.61138 0.47405 0.0
H1560 H 0.52743 0.58224 0.50638 0.0
H1561 H 0.53977 0.64359 0.51978 0.0
H1562 H 0.5645 0.60278 0.37858 0.0
H1563 H 0.58463 0.57877 0.33798 0.0
H1564 H 0.63211 0.61067 0.38688 0.0
H1565 H 0.61225 0.63478 0.42841 0.0
C1566 C 0.55266 0.70543 0.36164 0.0
C1567 C 0.56974 0.71413 0.35907 0.0
C1568 C 0.55092 0.69016 0.38763 0.0
C1569 C 0.56618 0.68328 0.41199 0.0
C1570 C 0.58308 0.69231 0.41121 0.0
C1571 C 0.58483 0.70759 0.38523 0.0
C1572 C 0.56479 0.66603 0.43497 0.0
C1573 C 0.57651 0.65203 0.41555 0.0
C1574 C 0.55136 0.6629 0.47302 0.0
C1575 C 0.53905 0.67729 0.4968 0.0
C1576 C 0.54633 0.69361 0.5211 0.0
C1577 C 0.53465 0.70715 0.54312 0.0
C1578 C 0.51567 0.70449 0.5414 0.0
C1579 C 0.50832 0.68826 0.51776 0.0
C1580 C 0.51994 0.67468 0.49564 0.0
C1581 C 0.57312 0.5893 0.52982 0.0
C1582 C 0.55604 0.58042 0.52855 0.0
C1583 C 0.57485 0.60604 0.51166 0.0
C1584 C 0.55962 0.61419 0.49094 0.0
C1585 C 0.54253 0.60542 0.48992 0.0
C1586 C 0.54075 0.58874 0.50848 0.0
C1587 C 0.5615 0.63182 0.47026 0.0
C1588 C 0.54985 0.64585 0.48995 0.0
C1589 C 0.57492 0.63496 0.43215 0.0
C1590 C 0.58689 0.62051 0.40707 0.0
C1591 C 0.57924 0.60462 0.38102 0.0
C1592 C 0.5906 0.591 0.35779 0.0
C1593 C 0.60964 0.59317 0.35998 0.0
C1594 C 0.61736 0.60899 0.38529 0.0
C1595 C 0.60606 0.62264 0.40864 0.0
H1596 H 0.61841 0.58261 0.34196 0.0
H1597 H 0.50665 0.71499 0.55847 0.0
H1598 H 0.82261 0.47153 0.4702 0.0
H1599 H 0.8515 0.47395 0.51861 0.0
H1600 H 0.84843 0.53145 0.53315 0.0
H1601 H 0.81904 0.52921 0.48569 0.0
H1602 H 0.88292 0.51896 0.5021 0.0
H1603 H 0.84006 0.51031 0.63933 0.0
H1604 H 0.81462 0.49548 0.68106 0.0
H1605 H 0.84566 0.44701 0.67262 0.0
H1606 H 0.8712 0.46147 0.63011 0.0
H1607 H 0.95871 0.53178 0.67978 0.0
H1608 H 0.92828 0.53252 0.63981 0.0
H1609 H 0.92376 0.4752 0.63464 0.0
H1610 H 0.95398 0.47441 0.67593 0.0
H1611 H 0.89235 0.48943 0.66395 0.0
H1612 H 0.93417 0.49669 0.52252 0.0
H1613 H 0.95969 0.51054 0.47829 0.0
H1614 H 0.93089 0.56039 0.49168 0.0
H1615 H 0.90529 0.5469 0.53665 0.0
C1616 C 0.82776 0.48476 0.48454 0.0
C1617 C 0.81817 0.50018 0.47439 0.0
C1618 C 0.84444 0.4861 0.51205 0.0
C1619 C 0.85212 0.50288 0.53016 0.0
C1620 C 0.84279 0.51834 0.51967 0.0
C1621 C 0.82597 0.51702 0.49234 0.0
C1622 C 0.87001 0.50411 0.55919 0.0
C1623 C 0.8849 0.51278 0.53803 0.0
C1624 C 0.87279 0.49565 0.60533 0.0
C1625 C 0.85749 0.48693 0.63111 0.0
C1626 C 0.84141 0.49644 0.64599 0.0
C1627 C 0.82698 0.48811 0.66985 0.0
C1628 C 0.82851 0.4703 0.67937 0.0
C1629 C 0.84449 0.4608 0.66517 0.0
C1630 C 0.85896 0.46906 0.64124 0.0
C1631 C 0.95125 0.51931 0.67029 0.0
C1632 C 0.95893 0.50302 0.68094 0.0
C1633 C 0.93383 0.51974 0.64707 0.0
C1634 C 0.92372 0.50388 0.63319 0.0
C1635 C 0.93122 0.48765 0.64474 0.0
C1636 C 0.94858 0.48721 0.66831 0.0
C1637 C 0.90539 0.50414 0.60663 0.0
C1638 C 0.89039 0.49573 0.62822 0.0
C1639 C 0.90255 0.51271 0.56061 0.0
C1640 C 0.9179 0.52084 0.53346 0.0
C1641 C 0.93334 0.51065 0.51639 0.0
C1642 C 0.94781 0.51842 0.49113 0.0
C1643 C 0.94694 0.53635 0.48232 0.0
C1644 C 0.93157 0.54652 0.49862 0.0
C1645 C 0.91706 0.53881 0.52396 0.0
H1646 H 0.95816 0.54235 0.46275 0.0
H1647 H 0.81732 0.46388 0.69786 0.0
loop_
_geom_bond_atom_site_label_1
_geom_bond_atom_site_label_2
_geom_bond_distance
_geom_bond_site_symmetry_2
_ccdc_geom_bond_type
C0 C1 1.384 . S
C0 H13 0.947 . S
C0 C35 1.382 . S
C1 C0 1.384 . S
C1 C2 1.378 . S
C2 C1 1.378 . S
C2 C3 1.378 . S
C2 H14 0.952 . S
C3 C2 1.378 . S
C3 H15 0.950 . S
C3 C34 1.383 . S
H4 C23 0.947 . S
H5 C24 0.946 . S
H6 C26 0.953 . S
H7 C27 0.945 . S
H8 C29 0.952 . S
H9 C30 0.949 . S
H10 C32 0.950 . S
H11 C33 0.948 . S
H12 C35 0.951 . S
H13 C0 0.947 . S
H14 C2 0.952 . S
H15 C3 0.950 . S
N16 C19 1.382 . S
N16 C21 1.363 . S
N17 C19 1.371 . S
N17 C20 1.372 . S
N18 C20 1.361 . S
N18 C21 1.377 . S
C19 N16 1.382 . S
C19 N17 1.371 . S
C19 C22 1.480 . S
C20 N17 1.372 . S
C20 N18 1.361 . S
C20 C28 1.457 . S
C21 N16 1.363 . S
C21 N18 1.377 . S
C21 C34 1.479 . S
C22 C19 1.480 . S
C22 C23 1.383 . S
C22 C27 1.385 . S
C23 H4 0.947 . S
C23 C22 1.383 . S
C23 C24 1.388 . S
C24 H5 0.946 . S
C24 C23 1.388 . S
C24 C25 1.384 . S
C25 C24 1.384 . S
C25 C26 1.377 . S
C26 H6 0.953 . S
C26 C25 1.377 . S
C26 C27 1.369 . S
C27 H7 0.945 . S
C27 C22 1.385 . S
C27 C26 1.369 . S
C28 C20 1.457 . S
C28 C29 1.372 . S
C28 C33 1.364 . S
C29 H8 0.952 . S
C29 C28 1.372 . S
C29 C30 1.389 . S
C30 H9 0.949 . S
C30 C29 1.389 . S
C30 C31 1.387 . S
C31 C30 1.387 . S
C31 C32 1.372 . S
C32 H10 0.950 . S
C32 C31 1.372 . S
C32 C33 1.379 . S
C33 H11 0.948 . S
C33 C28 1.364 . S
C33 C32 1.379 . S
C34 C3 1.383 . S
C34 C21 1.479 . S
C34 C35 1.398 . S
C35 C0 1.382 . S
C35 H12 0.951 . S
C35 C34 1.398 . S
C36 C37 1.384 . S
C36 H49 0.947 . S
C36 C71 1.382 . S
C37 C36 1.384 . S
C37 C38 1.378 . S
C38 C37 1.378 . S
C38 C39 1.378 . S
C38 H50 0.952 . S
C39 C38 1.378 . S
C39 H51 0.950 . S
C39 C70 1.383 . S
H40 C59 0.947 . S
H41 C60 0.946 . S
H42 C62 0.953 . S
H43 C63 0.945 . S
H44 C65 0.952 . S
H45 C66 0.949 . S
H46 C68 0.950 . S
H47 C69 0.948 . S
H48 C71 0.951 . S
H49 C36 0.947 . S
H50 C38 0.952 . S
H51 C39 0.950 . S
N52 C55 1.382 . S
N52 C57 1.363 . S
N53 C55 1.371 . S
N53 C56 1.372 . S
N54 C56 1.361 . S
N54 C57 1.377 . S
C55 N52 1.382 . S
C55 N53 1.371 . S
C55 C58 1.480 . S
C56 N53 1.372 . S
C56 N54 1.361 . S
C56 C64 1.457 . S
C57 N52 1.363 . S
C57 N54 1.377 . S
C57 C70 1.479 . S
C58 C55 1.480 . S
C58 C59 1.383 . S
C58 C63 1.385 . S
C59 H40 0.947 . S
C59 C58 1.383 . S
C59 C60 1.388 . S
C60 H41 0.946 . S
C60 C59 1.388 . S
C60 C61 1.384 . S
C61 C60 1.384 . S
C61 C62 1.377 . S
C62 H42 0.953 . S
C62 C61 1.377 . S
C62 C63 1.369 . S
C63 H43 0.945 . S
C63 C58 1.385 . S
C63 C62 1.369 . S
C64 C56 1.457 . S
C64 C65 1.372 . S
C64 C69 1.364 . S
C65 H44 0.952 . S
C65 C64 1.372 . S
C65 C66 1.389 . S
C66 H45 0.949 . S
C66 C65 1.389 . S
C66 C67 1.387 . S
C67 C66 1.387 . S
C67 C68 1.372 . S
C68 H46 0.950 . S
C68 C67 1.372 . S
C68 C69 1.379 . S
C69 H47 0.948 . S
C69 C64 1.364 . S
C69 C68 1.379 . S
C70 C39 1.383 . S
C70 C57 1.479 . S
C70 C71 1.398 . S
C71 C36 1.382 . S
C71 H48 0.951 . S
C71 C70 1.398 . S
C72 C73 1.388 1_565 S
C72 H85 0.948 . S
C72 C107 1.382 1_565 S
C73 C72 1.388 1_545 S
C73 C74 1.389 . S
C74 C73 1.389 . S
C74 C75 1.378 . S
C74 H86 0.952 . S
C75 C74 1.378 . S
C75 H87 0.950 . S
C75 C106 1.383 . S
H76 C95 0.947 . S
H77 C96 0.954 . S
H78 C98 0.953 . S
H79 C99 0.945 . S
H80 C101 0.950 1_565 S
H81 C102 0.952 . S
H82 C104 0.950 . S
H83 C105 0.948 . S
H84 C107 0.951 1_565 S
H85 C72 0.948 . S
H86 C74 0.952 . S
H87 C75 0.950 . S
N88 C91 1.382 . S
N88 C93 1.363 . S
N89 C91 1.371 . S
N89 C92 1.372 . S
N90 C92 1.361 . S
N90 C93 1.377 . S
C91 N88 1.382 . S
C91 N89 1.371 . S
C91 C94 1.480 . S
C92 N89 1.372 . S
C92 N90 1.361 . S
C92 C100 1.457 . S
C93 N88 1.363 . S
C93 N90 1.377 . S
C93 C106 1.479 . S
C94 C91 1.480 . S
C94 C95 1.383 . S
C94 C99 1.385 . S
C95 H76 0.947 . S
C95 C94 1.383 . S
C95 C96 1.386 1_545 S
C96 H77 0.954 . S
C96 C95 1.386 1_565 S
C96 C97 1.378 1_565 S
C97 C96 1.378 1_545 S
C97 C98 1.377 . S
C98 H78 0.953 . S
C98 C97 1.377 . S
C98 C99 1.369 . S
C99 H79 0.945 . S
C99 C94 1.385 . S
C99 C98 1.369 . S
C100 C92 1.457 . S
C100 C101 1.374 . S
C100 C105 1.364 . S
C101 H80 0.950 1_545 S
C101 C100 1.374 . S
C101 C102 1.392 1_545 S
C102 H81 0.952 . S
C102 C101 1.392 1_565 S
C102 C103 1.384 1_565 S
C103 C102 1.384 1_545 S
C103 C104 1.372 . S
C104 H82 0.950 . S
C104 C103 1.372 . S
C104 C105 1.379 . S
C105 H83 0.948 . S
C105 C100 1.364 . S
C105 C104 1.379 . S
C106 C75 1.383 . S
C106 C93 1.479 . S
C106 C107 1.397 . S
C107 C72 1.382 1_545 S
C107 H84 0.951 1_545 S
C107 C106 1.397 . S
C108 C109 1.384 . S
C108 H121 0.947 . S
C108 C143 1.382 . S
C109 C108 1.384 . S
C109 C110 1.378 . S
C110 C109 1.378 . S
C110 C111 1.378 . S
C110 H122 0.952 . S
C111 C110 1.378 . S
C111 H123 0.950 . S
C111 C142 1.383 . S
H112 C131 0.947 . S
H113 C132 0.946 . S
H114 C134 0.953 . S
H115 C135 0.945 . S
H116 C137 0.952 . S
H117 C138 0.949 . S
H118 C140 0.950 . S
H119 C141 0.948 . S
H120 C143 0.951 . S
H121 C108 0.947 . S
H122 C110 0.952 . S
H123 C111 0.950 . S
N124 C127 1.382 . S
N124 C129 1.363 . S
N125 C127 1.371 1_554 S
N125 C128 1.372 . S
N126 C128 1.361 . S
N126 C129 1.377 1_554 S
C127 N124 1.382 . S
C127 N125 1.371 1_556 S
C127 C130 1.480 . S
C128 N125 1.372 . S
C128 N126 1.361 . S
C128 C136 1.457 . S
C129 N124 1.363 . S
C129 N126 1.377 1_556 S
C129 C142 1.479 . S
C130 C127 1.480 . S
C130 C131 1.383 . S
C130 C135 1.385 1_556 S
C131 H112 0.947 . S
C131 C130 1.383 . S
C131 C132 1.388 . S
C132 H113 0.946 . S
C132 C131 1.388 . S
C132 C133 1.384 . S
C133 C132 1.384 . S
C133 C134 1.377 1_556 S
C134 H114 0.953 . S
C134 C133 1.377 1_554 S
C134 C135 1.369 . S
C135 H115 0.945 . S
C135 C130 1.385 1_554 S
C135 C134 1.369 . S
C136 C128 1.457 . S
C136 C137 1.372 . S
C136 C141 1.364 . S
C137 H116 0.952 . S
C137 C136 1.372 . S
C137 C138 1.389 . S
C138 H117 0.949 . S
C138 C137 1.389 . S
C138 C139 1.387 . S
C139 C138 1.387 . S
C139 C140 1.372 . S
C140 H118 0.950 . S
C140 C139 1.372 . S
C140 C141 1.379 . S
C141 H119 0.948 . S
C141 C136 1.364 . S
C141 C140 1.379 . S
C142 C111 1.383 . S
C142 C129 1.479 . S
C142 C143 1.398 . S
C143 C108 1.382 . S
C143 H120 0.951 . S
C143 C142 1.398 . S
C144 C145 1.384 1_554 S
C144 H157 0.947 1_554 S
C144 C179 1.382 . S
C145 C144 1.384 1_556 S
C145 C146 1.378 . S
C146 C145 1.378 . S
C146 C147 1.378 1_556 S
C146 H158 0.952 . S
C147 C146 1.378 1_554 S
C147 H159 0.950 . S
C147 C178 1.383 . S
H148 C167 0.947 . S
H149 C168 0.946 . S
H150 C170 0.953 . S
H151 C171 0.945 . S
H152 C173 0.952 . S
H153 C174 0.949 . S
H154 C176 0.950 . S
H155 C177 0.948 . S
H156 C179 0.951 . S
H157 C144 0.947 1_556 S
H158 C146 0.952 . S
H159 C147 0.950 . S
N160 C163 1.382 . S
N160 C165 1.363 . S
N161 C163 1.371 . S
N161 C164 1.372 . S
N162 C164 1.361 . S
N162 C165 1.377 . S
C163 N160 1.382 . S
C163 N161 1.371 . S
C163 C166 1.480 . S
C164 N161 1.372 . S
C164 N162 1.361 . S
C164 C172 1.457 . S
C165 N160 1.363 . S
C165 N162 1.377 . S
C165 C178 1.479 . S
C166 C163 1.480 . S
C166 C167 1.383 . S
C166 C171 1.385 . S
C167 H148 0.947 . S
C167 C166 1.383 . S
C167 C168 1.388 . S
C168 H149 0.946 . S
C168 C167 1.388 . S
C168 C169 1.384 . S
C169 C168 1.384 . S
C169 C170 1.377 . S
C170 H150 0.953 . S
C170 C169 1.377 . S
C170 C171 1.369 . S
C171 H151 0.945 . S
C171 C166 1.385 . S
C171 C170 1.369 . S
C172 C164 1.457 . S
C172 C173 1.372 . S
C172 C177 1.364 . S
C173 H152 0.952 . S
C173 C172 1.372 . S
C173 C174 1.389 . S
C174 H153 0.949 . S
C174 C173 1.389 . S
C174 C175 1.387 . S
C175 C174 1.387 . S
C175 C176 1.372 . S
C176 H154 0.950 . S
C176 C175 1.372 . S
C176 C177 1.379 . S
C177 H155 0.948 . S
C177 C172 1.364 . S
C177 C176 1.379 . S
C178 C147 1.383 . S
C178 C165 1.479 . S
C178 C179 1.398 . S
C179 C144 1.382 . S
C179 H156 0.951 . S
C179 C178 1.398 . S
C180 C181 1.384 . S
C180 H193 0.947 . S
C180 C215 1.382 . S
C181 C180 1.384 . S
C181 C182 1.378 . S
C182 C181 1.378 . S
C182 C183 1.378 . S
C182 H194 0.952 1_554 S
C183 C182 1.378 . S
C183 H195 0.950 . S
C183 C214 1.383 . S
H184 C203 0.947 . S
H185 C204 0.946 . S
H186 C206 0.953 . S
H187 C207 0.945 . S
H188 C209 0.952 . S
H189 C210 0.949 . S
H190 C212 0.950 . S
H191 C213 0.948 . S
H192 C215 0.951 . S
H193 C180 0.947 . S
H194 C182 0.952 1_556 S
H195 C183 0.950 . S
N196 C199 1.382 . S
N196 C201 1.363 . S
N197 C199 1.371 . S
N197 C200 1.372 . S
N198 C200 1.361 . S
N198 C201 1.377 . S
C199 N196 1.382 . S
C199 N197 1.371 . S
C199 C202 1.480 . S
C200 N197 1.372 . S
C200 N198 1.361 . S
C200 C208 1.457 . S
C201 N196 1.363 . S
C201 N198 1.377 . S
C201 C214 1.479 . S
C202 C199 1.480 . S
C202 C203 1.383 . S
C202 C207 1.385 . S
C203 H184 0.947 . S
C203 C202 1.383 . S
C203 C204 1.388 . S
C204 H185 0.946 . S
C204 C203 1.388 . S
C204 C205 1.384 . S
C205 C204 1.384 . S
C205 C206 1.377 . S
C206 H186 0.953 . S
C206 C205 1.377 . S
C206 C207 1.369 . S
C207 H187 0.945 . S
C207 C202 1.385 . S
C207 C206 1.369 . S
C208 C200 1.457 . S
C208 C209 1.372 . S
C208 C213 1.364 . S
C209 H188 0.952 . S
C209 C208 1.372 . S
C209 C210 1.389 . S
C210 H189 0.949 . S
C210 C209 1.389 . S
C210 C211 1.387 . S
C211 C210 1.387 . S
C211 C212 1.372 . S
C212 H190 0.950 . S
C212 C211 1.372 . S
C212 C213 1.379 . S
C213 H191 0.948 . S
C213 C208 1.364 . S
C213 C212 1.379 . S
C214 C183 1.383 . S
C214 C201 1.479 . S
C214 C215 1.398 . S
C215 C180 1.382 . S
C215 H192 0.951 . S
C215 C214 1.398 . S
C216 C217 1.383 . S
C216 H229 0.947 1_545 S
C216 C251 1.384 1_556 S
C217 C216 1.383 . S
C217 C218 1.378 . S
C218 C217 1.378 . S
C218 C219 1.378 1_556 S
C218 H230 0.952 . S
C219 C218 1.378 1_554 S
C219 H231 0.950 . S
C219 C250 1.383 . S
H220 C239 0.947 . S
H221 C240 0.947 . S
H222 C242 0.953 . S
H223 C243 0.945 . S
H224 C245 0.947 1_565 S
H225 C246 0.957 . S
H226 C248 0.950 . S
H227 C249 0.948 . S
H228 C251 0.949 1_565 S
H229 C216 0.947 1_565 S
H230 C218 0.952 . S
H231 C219 0.950 . S
N232 C235 1.382 . S
N232 C237 1.363 . S
N233 C235 1.371 . S
N233 C236 1.372 . S
N234 C236 1.361 . S
N234 C237 1.377 . S
C235 N232 1.382 . S
C235 N233 1.371 . S
C235 C238 1.480 . S
C236 N233 1.372 . S
C236 N234 1.361 . S
C236 C244 1.457 . S
C237 N232 1.363 . S
C237 N234 1.377 . S
C237 C250 1.479 . S
C238 C235 1.480 . S
C238 C239 1.383 . S
C238 C243 1.385 . S
C239 H220 0.947 . S
C239 C238 1.383 . S
C239 C240 1.387 1_545 S
C240 H221 0.947 . S
C240 C239 1.387 1_565 S
C240 C241 1.384 1_565 S
C241 C240 1.384 1_545 S
C241 C242 1.377 . S
C242 H222 0.953 . S
C242 C241 1.377 . S
C242 C243 1.369 . S
C243 H223 0.945 . S
C243 C238 1.385 . S
C243 C242 1.369 . S
C244 C236 1.457 . S
C244 C245 1.382 . S
C244 C249 1.364 . S
C245 H224 0.947 1_545 S
C245 C244 1.382 . S
C245 C246 1.381 1_545 S
C246 H225 0.957 . S
C246 C245 1.381 1_565 S
C246 C247 1.383 1_565 S
C247 C246 1.383 1_545 S
C247 C248 1.372 . S
C248 H226 0.950 . S
C248 C247 1.372 . S
C248 C249 1.379 . S
C249 H227 0.948 . S
C249 C244 1.364 . S
C249 C248 1.379 . S
C250 C219 1.383 . S
C250 C237 1.479 . S
C250 C251 1.399 . S
C251 C216 1.384 1_554 S
C251 H228 0.949 1_545 S
C251 C250 1.399 . S
C252 C253 1.384 . S
C252 H265 0.947 . S
C252 C287 1.382 . S
C253 C252 1.384 . S
C253 C254 1.378 . S
C254 C253 1.378 . S
C254 C255 1.378 . S
C254 H266 0.952 . S
C255 C254 1.378 . S
C255 H267 0.950 . S
C255 C286 1.383 . S
H256 C275 0.947 . S
H257 C276 0.946 . S
H258 C278 0.953 . S
H259 C279 0.945 . S
H260 C281 0.952 . S
H261 C282 0.949 . S
H262 C284 0.950 . S
H263 C285 0.948 . S
H264 C287 0.951 . S
H265 C252 0.947 . S
H266 C254 0.952 . S
H267 C255 0.950 . S
N268 C271 1.382 . S
N268 C273 1.363 . S
N269 C271 1.371 . S
N269 C272 1.372 . S
N270 C272 1.361 . S
N270 C273 1.377 . S
C271 N268 1.382 . S
C271 N269 1.371 . S
C271 C274 1.480 . S
C272 N269 1.372 . S
C272 N270 1.361 . S
C272 C280 1.457 . S
C273 N268 1.363 . S
C273 N270 1.377 . S
C273 C286 1.479 . S
C274 C271 1.480 . S
C274 C275 1.383 . S
C274 C279 1.385 . S
C275 H256 0.947 . S
C275 C274 1.383 . S
C275 C276 1.388 . S
C276 H257 0.946 . S
C276 C275 1.388 . S
C276 C277 1.384 . S
C277 C276 1.384 . S
C277 C278 1.377 . S
C278 H258 0.953 . S
C278 C277 1.377 . S
C278 C279 1.369 . S
C279 H259 0.945 . S
C279 C274 1.385 . S
C279 C278 1.369 . S
C280 C272 1.457 . S
C280 C281 1.372 . S
C280 C285 1.364 . S
C281 H260 0.952 . S
C281 C280 1.372 . S
C281 C282 1.389 . S
C282 H261 0.949 . S
C282 C281 1.389 . S
C282 C283 1.387 . S
C283 C282 1.387 . S
C283 C284 1.372 . S
C284 H262 0.950 . S
C284 C283 1.372 . S
C284 C285 1.379 . S
C285 H263 0.948 . S
C285 C280 1.364 . S
C285 C284 1.379 . S
C286 C255 1.383 . S
C286 C273 1.479 . S
C286 C287 1.398 . S
C287 C252 1.382 . S
C287 H264 0.951 . S
C287 C286 1.398 . S
Tb288 C297 2.763 1_655 S
Tb288 O298 2.325 1_655 S
Tb288 O301 2.303 1_655 S
Tb288 O305 2.322 1_545 S
Tb288 O306 2.349 . S
Tb288 O309 2.415 1_655 S
Tb288 O310 2.399 . S
Tb289 O299 2.322 1_565 S
Tb289 O300 2.349 . S
Tb289 O302 2.415 . S
Tb289 O303 2.399 . S
Tb289 O304 2.325 . S
Tb289 O307 2.303 1_455 S
Tb289 C318 2.764 . S
C290 O306 1.261 . S
C290 O307 1.257 1_545 S
C291 C294 1.358 1_455 S
C291 C295 1.332 . S
C291 C297 1.506 . S
C292 C293 1.373 1_455 S
C292 C296 1.308 . S
C293 C292 1.373 1_655 S
C293 C294 1.429 . S
C293 H320 0.932 . S
C294 C291 1.358 1_655 S
C294 C293 1.429 . S
C294 H321 0.930 . S
C295 C291 1.332 . S
C295 C296 1.394 . S
C295 H322 0.932 . S
C296 C292 1.308 . S
C296 C295 1.394 . S
C296 H323 0.929 . S
C297 Tb288 2.763 1_455 S
C297 C291 1.506 . S
C297 O309 1.266 . S
C297 O310 1.234 1_455 S
O298 Tb288 2.325 1_455 S
O298 C308 1.236 . S
O299 Tb289 2.322 1_545 S
O299 C308 1.257 . S
O300 Tb289 2.349 . S
O300 C311 1.261 . S
O301 Tb288 2.303 1_455 S
O301 C311 1.257 1_545 S
O302 Tb289 2.415 . S
O302 C318 1.239 . S
O303 Tb289 2.399 . S
O303 C318 1.263 . S
O304 Tb289 2.325 . S
O304 C319 1.236 1_455 S
O305 Tb288 2.322 1_565 S
O305 C319 1.257 . S
O306 Tb288 2.349 . S
O306 C290 1.261 . S
O307 Tb289 2.303 1_655 S
O307 C290 1.257 1_565 S
C308 O298 1.236 . S
C308 O299 1.257 . S
O309 Tb288 2.415 1_455 S
O309 C297 1.266 . S
O310 Tb288 2.399 . S
O310 C297 1.234 1_655 S
C311 O300 1.261 . S
C311 O301 1.257 1_565 S
C312 C315 1.358 . S
C312 C316 1.332 . S
C312 C318 1.504 . S
C313 C314 1.373 . S
C313 C317 1.308 . S
C314 C313 1.373 . S
C314 C315 1.429 . S
C314 H324 0.932 . S
C315 C312 1.358 . S
C315 C314 1.429 . S
C315 H325 0.930 . S
C316 C312 1.332 . S
C316 C317 1.394 . S
C316 H326 0.932 1_455 S
C317 C313 1.308 . S
C317 C316 1.394 . S
C317 H327 0.929 1_455 S
C318 Tb289 2.764 . S
C318 O302 1.239 . S
C318 O303 1.263 . S
C318 C312 1.504 . S
C319 O304 1.236 1_655 S
C319 O305 1.257 . S
H320 C293 0.932 . S
H321 C294 0.930 . S
H322 C295 0.932 . S
H323 C296 0.929 . S
H324 C314 0.932 . S
H325 C315 0.930 . S
H326 C316 0.932 1_655 S
H327 C317 0.929 1_655 S
Tb328 C337 2.764 . S
Tb328 O338 2.325 . S
Tb328 O341 2.303 1_565 S
Tb328 O345 2.322 . S
Tb328 O346 2.349 . S
Tb328 O349 2.415 1_565 S
Tb328 O350 2.399 . S
Tb329 O339 2.322 . S
Tb329 O340 2.349 . S
Tb329 O342 2.415 1_545 S
Tb329 O343 2.399 . S
Tb329 O344 2.325 . S
Tb329 O347 2.303 1_545 S
Tb329 C358 2.764 . S
C330 O346 1.261 . S
C330 O347 1.257 . S
C331 C334 1.358 . S
C331 C335 1.332 . S
C331 C337 1.504 . S
C332 C333 1.373 . S
C332 C336 1.308 . S
C333 C332 1.373 . S
C333 C334 1.429 . S
C333 H360 0.932 . S
C334 C331 1.358 . S
C334 C333 1.429 . S
C334 H361 0.930 . S
C335 C331 1.332 . S
C335 C336 1.394 . S
C335 H362 0.932 1_565 S
C336 C332 1.308 . S
C336 C335 1.394 . S
C336 H363 0.929 1_565 S
C337 Tb328 2.764 . S
C337 C331 1.504 . S
C337 O349 1.239 1_565 S
C337 O350 1.263 . S
O338 Tb328 2.325 . S
O338 C348 1.236 1_565 S
O339 Tb329 2.322 . S
O339 C348 1.257 . S
O340 Tb329 2.349 . S
O340 C351 1.261 . S
O341 Tb328 2.303 1_545 S
O341 C351 1.257 . S
O342 Tb329 2.415 1_565 S
O342 C358 1.239 1_565 S
O343 Tb329 2.399 . S
O343 C358 1.263 . S
O344 Tb329 2.325 . S
O344 C359 1.236 1_545 S
O345 Tb328 2.322 . S
O345 C359 1.257 . S
O346 Tb328 2.349 . S
O346 C330 1.261 . S
O347 Tb329 2.303 1_565 S
O347 C330 1.257 . S
C348 O338 1.236 1_545 S
C348 O339 1.257 . S
O349 Tb328 2.415 1_545 S
O349 C337 1.239 1_545 S
O350 Tb328 2.399 . S
O350 C337 1.263 . S
C351 O340 1.261 . S
C351 O341 1.257 . S
C352 C355 1.358 . S
C352 C356 1.332 . S
C352 C358 1.504 . S
C353 C354 1.373 . S
C353 C357 1.308 . S
C354 C353 1.373 . S
C354 C355 1.429 . S
C354 H364 0.932 . S
C355 C352 1.358 . S
C355 C354 1.429 . S
C355 H365 0.930 . S
C356 C352 1.332 . S
C356 C357 1.394 . S
C356 H366 0.932 1_545 S
C357 C353 1.308 . S
C357 C356 1.394 . S
C357 H367 0.929 1_545 S
C358 Tb329 2.764 . S
C358 O342 1.239 1_545 S
C358 O343 1.263 . S
C358 C352 1.504 . S
C359 O344 1.236 1_565 S
C359 O345 1.257 . S
H360 C333 0.932 . S
H361 C334 0.930 . S
H362 C335 0.932 1_545 S
H363 C336 0.929 1_545 S
H364 C354 0.932 . S
H365 C355 0.930 . S
H366 C356 0.932 1_565 S
H367 C357 0.929 1_565 S
Tb368 C377 2.764 . S
Tb368 O378 2.325 . S
Tb368 O381 2.303 . S
Tb368 O385 2.322 . S
Tb368 O386 2.349 . S
Tb368 O389 2.415 . S
Tb368 O390 2.399 . S
Tb369 O379 2.322 . S
Tb369 O380 2.349 . S
Tb369 O382 2.415 . S
Tb369 O383 2.399 . S
Tb369 O384 2.325 . S
Tb369 O387 2.303 . S
Tb369 C398 2.764 . S
C370 O386 1.261 . S
C370 O387 1.257 . S
C371 C374 1.358 . S
C371 C375 1.332 . S
C371 C377 1.504 . S
C372 C373 1.373 . S
C372 C376 1.308 . S
C373 C372 1.373 . S
C373 C374 1.429 . S
C373 H400 0.932 . S
C374 C371 1.358 . S
C374 C373 1.429 . S
C374 H401 0.930 . S
C375 C371 1.332 . S
C375 C376 1.394 . S
C375 H402 0.932 . S
C376 C372 1.308 . S
C376 C375 1.394 . S
C376 H403 0.929 . S
C377 Tb368 2.764 . S
C377 C371 1.504 . S
C377 O389 1.239 . S
C377 O390 1.263 . S
O378 Tb368 2.325 . S
O378 C388 1.236 . S
O379 Tb369 2.322 . S
O379 C388 1.257 . S
O380 Tb369 2.349 . S
O380 C391 1.261 . S
O381 Tb368 2.303 . S
O381 C391 1.257 . S
O382 Tb369 2.415 . S
O382 C398 1.239 . S
O383 Tb369 2.399 . S
O383 C398 1.263 . S
O384 Tb369 2.325 . S
O384 C399 1.236 . S
O385 Tb368 2.322 . S
O385 C399 1.257 . S
O386 Tb368 2.349 . S
O386 C370 1.261 . S
O387 Tb369 2.303 . S
O387 C370 1.257 . S
C388 O378 1.236 . S
C388 O379 1.257 . S
O389 Tb368 2.415 . S
O389 C377 1.239 . S
O390 Tb368 2.399 . S
O390 C377 1.263 . S
C391 O380 1.261 . S
C391 O381 1.257 . S
C392 C395 1.358 . S
C392 C396 1.332 . S
C392 C398 1.504 . S
C393 C394 1.373 . S
C393 C397 1.308 . S
C394 C393 1.373 . S
C394 C395 1.429 . S
C394 H404 0.932 . S
C395 C392 1.358 . S
C395 C394 1.429 . S
C395 H405 0.930 . S
C396 C392 1.332 . S
C396 C397 1.394 . S
C396 H406 0.932 . S
C397 C393 1.308 . S
C397 C396 1.394 . S
C397 H407 0.929 . S
C398 Tb369 2.764 . S
C398 O382 1.239 . S
C398 O383 1.263 . S
C398 C392 1.504 . S
C399 O384 1.236 . S
C399 O385 1.257 . S
H400 C373 0.932 . S
H401 C374 0.930 . S
H402 C375 0.932 . S
H403 C376 0.929 . S
H404 C394 0.932 . S
H405 C395 0.930 . S
H406 C396 0.932 . S
H407 C397 0.929 . S
Tb408 C417 2.764 . S
Tb408 O418 2.325 . S
Tb408 O421 2.303 . S
Tb408 O425 2.322 1_455 S
Tb408 O426 2.349 . S
Tb408 O429 2.415 . S
Tb408 O430 2.399 . S
Tb409 O419 2.291 1_655 S
Tb409 O420 2.341 1_655 S
Tb409 O422 2.442 . S
Tb409 O423 2.422 . S
Tb409 O424 2.345 . S
Tb409 O427 2.299 1_655 S
Tb409 C438 2.792 . S
C410 O426 1.261 . S
C410 O427 1.257 . S
C411 C414 1.358 . S
C411 C415 1.332 . S
C411 C417 1.504 . S
C412 C413 1.373 . S
C412 C416 1.308 . S
C413 C412 1.373 . S
C413 C414 1.429 . S
C413 H440 0.932 . S
C414 C411 1.358 . S
C414 C413 1.429 . S
C414 H441 0.930 . S
C415 C411 1.332 . S
C415 C416 1.394 . S
C415 H442 0.932 . S
C416 C412 1.308 . S
C416 C415 1.394 . S
C416 H443 0.929 . S
C417 Tb408 2.764 . S
C417 C411 1.504 . S
C417 O429 1.239 . S
C417 O430 1.263 . S
O418 Tb408 2.325 . S
O418 C428 1.236 . S
O419 Tb409 2.291 1_455 S
O419 C428 1.257 . S
O420 Tb409 2.341 1_455 S
O420 C431 1.261 . S
O421 Tb408 2.303 . S
O421 C431 1.257 . S
O422 Tb409 2.442 . S
O422 C438 1.239 . S
O423 Tb409 2.422 . S
O423 C438 1.263 . S
O424 Tb409 2.345 . S
O424 C439 1.236 . S
O425 Tb408 2.322 1_655 S
O425 C439 1.257 . S
O426 Tb408 2.349 . S
O426 C410 1.261 . S
O427 Tb409 2.299 1_455 S
O427 C410 1.257 . S
C428 O418 1.236 . S
C428 O419 1.257 . S
O429 Tb408 2.415 . S
O429 C417 1.239 . S
O430 Tb408 2.399 . S
O430 C417 1.263 . S
C431 O420 1.261 . S
C431 O421 1.257 . S
C432 C435 1.358 . S
C432 C436 1.332 . S
C432 C438 1.504 . S
C433 C434 1.373 . S
C433 C437 1.308 . S
C434 C433 1.373 . S
C434 C435 1.429 . S
C434 H444 0.932 . S
C435 C432 1.358 . S
C435 C434 1.429 . S
C435 H445 0.930 . S
C436 C432 1.332 . S
C436 C437 1.394 . S
C436 H446 0.932 . S
C437 C433 1.308 . S
C437 C436 1.394 . S
C437 H447 0.929 . S
C438 Tb409 2.792 . S
C438 O422 1.239 . S
C438 O423 1.263 . S
C438 C432 1.504 . S
C439 O424 1.236 . S
C439 O425 1.257 . S
H440 C413 0.932 . S
H441 C414 0.930 . S
H442 C415 0.932 . S
H443 C416 0.929 . S
H444 C434 0.932 . S
H445 C435 0.930 . S
H446 C436 0.932 . S
H447 C437 0.929 . S
H448 C466 0.951 . S
H449 C468 0.951 . S
H450 C470 0.950 . S
H451 C471 0.950 . S
H452 C473 0.950 . S
H453 C476 0.950 . S
H454 C477 0.950 . S
H455 C479 0.950 . S
H456 C480 0.950 . S
H457 C481 0.951 . S
H458 C483 0.951 . S
H459 C485 0.950 . S
H460 C486 0.950 . S
H461 C488 0.950 . S
H462 C491 0.950 . S
H463 C492 0.950 . S
H464 C494 0.950 . S
H465 C495 0.950 . S
C466 H448 0.951 . S
C466 C467 1.365 . S
C466 C468 1.388 . S
C467 C466 1.365 . S
C467 C471 1.385 1_565 S
C468 H449 0.951 . S
C468 C466 1.388 . S
C468 C469 1.365 1_565 S
C469 C468 1.365 1_545 S
C469 C470 1.414 . S
C469 C472 1.501 . S
C470 H450 0.950 . S
C470 C469 1.414 . S
C470 C471 1.374 . S
C471 H451 0.950 . S
C471 C467 1.385 1_545 S
C471 C470 1.374 . S
C472 C469 1.501 . S
C472 C473 1.373 . S
C472 C474 1.387 1_545 S
C473 H452 0.950 . S
C473 C472 1.373 . S
C473 C489 1.382 . S
C474 C472 1.387 1_565 S
C474 C475 1.524 . S
C474 C488 1.377 . S
C475 C474 1.524 . S
C475 C476 1.397 1_565 S
C475 C480 1.363 . S
C476 H453 0.950 . S
C476 C475 1.397 1_545 S
C476 C477 1.334 . S
C477 H454 0.950 . S
C477 C476 1.334 . S
C477 C478 1.287 . S
C478 C477 1.287 . S
C478 C479 1.524 1_545 S
C478 H497 0.913 . S
C479 H455 0.950 . S
C479 C478 1.524 1_565 S
C479 C480 1.415 . S
C480 H456 0.950 . S
C480 C475 1.363 . S
C480 C479 1.415 . S
C481 H457 0.951 . S
C481 C482 1.366 1_545 S
C481 C483 1.388 . S
C482 C481 1.366 1_565 S
C482 C486 1.385 . S
C483 H458 0.951 . S
C483 C481 1.388 . S
C483 C484 1.366 1_545 S
C484 C483 1.366 1_565 S
C484 C485 1.414 . S
C484 C487 1.499 . S
C485 H459 0.950 . S
C485 C484 1.414 . S
C485 C486 1.374 . S
C486 H460 0.950 . S
C486 C482 1.385 . S
C486 C485 1.374 . S
C487 C484 1.499 . S
C487 C488 1.373 . S
C487 C489 1.386 1_565 S
C488 H461 0.950 . S
C488 C474 1.377 . S
C488 C487 1.373 . S
C489 C473 1.382 . S
C489 C487 1.386 1_545 S
C489 C490 1.526 . S
C490 C489 1.526 . S
C490 C491 1.355 1_545 S
C490 C495 1.397 . S
C491 H462 0.950 . S
C491 C490 1.355 1_565 S
C491 C492 1.334 . S
C492 H463 0.950 . S
C492 C491 1.334 . S
C492 C493 1.287 . S
C493 C492 1.287 . S
C493 C494 1.524 1_565 S
C493 H496 0.999 . S
C494 H464 0.950 . S
C494 C493 1.524 1_545 S
C494 C495 1.415 . S
C495 H465 0.950 . S
C495 C490 1.397 . S
C495 C494 1.415 . S
H496 C493 0.999 . S
H497 C478 0.913 . S
H498 C516 0.951 . S
H499 C518 0.951 . S
H500 C520 0.950 . S
H501 C521 0.950 . S
H502 C523 0.950 . S
H503 C526 0.950 . S
H504 C527 0.950 . S
H505 C529 0.950 . S
H506 C530 0.950 . S
H507 C531 0.951 . S
H508 C533 0.951 . S
H509 C535 0.950 . S
H510 C536 0.950 . S
H511 C538 0.950 . S
H512 C541 0.950 . S
H513 C542 0.950 . S
H514 C544 0.950 . S
H515 C545 0.950 . S
C516 H498 0.951 . S
C516 C517 1.366 . S
C516 C518 1.388 . S
C517 C516 1.366 . S
C517 C521 1.385 . S
C518 H499 0.951 . S
C518 C516 1.388 . S
C518 C519 1.366 . S
C519 C518 1.366 . S
C519 C520 1.414 . S
C519 C522 1.499 . S
C520 H500 0.950 . S
C520 C519 1.414 . S
C520 C521 1.374 . S
C521 H501 0.950 . S
C521 C517 1.385 . S
C521 C520 1.374 . S
C522 C519 1.499 . S
C522 C523 1.373 . S
C522 C524 1.389 . S
C523 H502 0.950 . S
C523 C522 1.373 . S
C523 C539 1.377 . S
C524 C522 1.389 . S
C524 C525 1.524 . S
C524 C538 1.377 . S
C525 C524 1.524 . S
C525 C526 1.397 . S
C525 C530 1.363 . S
C526 H503 0.950 . S
C526 C525 1.397 . S
C526 C527 1.334 . S
C527 H504 0.950 . S
C527 C526 1.334 . S
C527 C528 1.287 . S
C528 C527 1.287 . S
C528 C529 1.524 . S
C528 H547 0.913 . S
C529 H505 0.950 . S
C529 C528 1.524 . S
C529 C530 1.415 . S
C530 H506 0.950 . S
C530 C525 1.363 . S
C530 C529 1.415 . S
C531 H507 0.951 . S
C531 C532 1.366 . S
C531 C533 1.388 . S
C532 C531 1.366 . S
C532 C536 1.385 . S
C533 H508 0.951 . S
C533 C531 1.388 . S
C533 C534 1.366 . S
C534 C533 1.366 . S
C534 C535 1.414 . S
C534 C537 1.499 . S
C535 H509 0.950 . S
C535 C534 1.414 . S
C535 C536 1.374 . S
C536 H510 0.950 . S
C536 C532 1.385 . S
C536 C535 1.374 . S
C537 C534 1.499 . S
C537 C538 1.373 . S
C537 C539 1.389 . S
C538 H511 0.950 . S
C538 C524 1.377 . S
C538 C537 1.373 . S
C539 C523 1.377 . S
C539 C537 1.389 . S
C539 C540 1.524 . S
C540 C539 1.524 . S
C540 C541 1.397 . S
C540 C545 1.363 . S
C541 H512 0.950 . S
C541 C540 1.397 . S
C541 C542 1.334 . S
C542 H513 0.950 . S
C542 C541 1.334 . S
C542 C543 1.287 . S
C543 C542 1.287 . S
C543 C544 1.524 . S
C543 H546 0.999 . S
C544 H514 0.950 . S
C544 C543 1.524 . S
C544 C545 1.415 . S
C545 H515 0.950 . S
C545 C540 1.363 . S
C545 C544 1.415 . S
H546 C543 0.999 . S
H547 C528 0.913 . S
H548 C566 0.951 . S
H549 C568 0.951 . S
H550 C570 0.950 . S
H551 C571 0.950 . S
H552 C573 0.950 . S
H553 C576 0.950 . S
H554 C577 0.950 . S
H555 C579 0.950 . S
H556 C580 0.950 . S
H557 C581 0.951 . S
H558 C583 0.951 . S
H559 C585 0.950 . S
H560 C586 0.950 . S
H561 C588 0.950 . S
H562 C591 0.950 . S
H563 C592 0.950 . S
H564 C594 0.950 . S
H565 C595 0.950 . S
C566 H548 0.951 . S
C566 C567 1.366 . S
C566 C568 1.388 . S
C567 C566 1.366 . S
C567 C571 1.385 . S
C568 H549 0.951 . S
C568 C566 1.388 . S
C568 C569 1.366 . S
C569 C568 1.366 . S
C569 C570 1.414 . S
C569 C572 1.499 . S
C570 H550 0.950 . S
C570 C569 1.414 . S
C570 C571 1.374 . S
C571 H551 0.950 . S
C571 C567 1.385 . S
C571 C570 1.374 . S
C572 C569 1.499 . S
C572 C573 1.373 . S
C572 C574 1.389 . S
C573 H552 0.950 . S
C573 C572 1.373 . S
C573 C589 1.377 . S
C574 C572 1.389 . S
C574 C575 1.524 . S
C574 C588 1.377 . S
C575 C574 1.524 . S
C575 C576 1.397 . S
C575 C580 1.363 . S
C576 H553 0.950 . S
C576 C575 1.397 . S
C576 C577 1.334 . S
C577 H554 0.950 . S
C577 C576 1.334 . S
C577 C578 1.287 . S
C578 C577 1.287 . S
C578 C579 1.524 . S
C578 H597 0.913 . S
C579 H555 0.950 . S
C579 C578 1.524 . S
C579 C580 1.415 . S
C580 H556 0.950 . S
C580 C575 1.363 . S
C580 C579 1.415 . S
C581 H557 0.951 . S
C581 C582 1.366 . S
C581 C583 1.388 . S
C582 C581 1.366 . S
C582 C586 1.385 . S
C583 H558 0.951 . S
C583 C581 1.388 . S
C583 C584 1.366 . S
C584 C583 1.366 . S
C584 C585 1.414 . S
C584 C587 1.499 . S
C585 H559 0.950 . S
C585 C584 1.414 . S
C585 C586 1.374 . S
C586 H560 0.950 . S
C586 C582 1.385 . S
C586 C585 1.374 . S
C587 C584 1.499 . S
C587 C588 1.373 . S
C587 C589 1.389 . S
C588 H561 0.950 . S
C588 C574 1.377 . S
C588 C587 1.373 . S
C589 C573 1.377 . S
C589 C587 1.389 . S
C589 C590 1.524 . S
C590 C589 1.524 . S
C590 C591 1.397 . S
C590 C595 1.363 . S
C591 H562 0.950 . S
C591 C590 1.397 . S
C591 C592 1.334 . S
C592 H563 0.950 . S
C592 C591 1.334 . S
C592 C593 1.287 . S
C593 C592 1.287 . S
C593 C594 1.524 . S
C593 H596 0.999 . S
C594 H564 0.950 . S
C594 C593 1.524 . S
C594 C595 1.415 . S
C595 H565 0.950 . S
C595 C590 1.363 . S
C595 C594 1.415 . S
H596 C593 0.999 . S
H597 C578 0.913 . S
H598 C616 0.951 . S
H599 C618 0.951 . S
H600 C620 0.950 . S
H601 C621 0.950 . S
H602 C623 0.950 . S
H603 C626 0.950 . S
H604 C627 0.950 . S
H605 C629 0.950 . S
H606 C630 0.950 . S
H607 C631 0.951 . S
H608 C633 0.951 . S
H609 C635 0.950 . S
H610 C636 0.950 . S
H611 C638 0.950 . S
H612 C641 0.950 . S
H613 C642 0.950 . S
H614 C644 0.950 . S
H615 C645 0.950 . S
C616 H598 0.951 . S
C616 C617 1.366 . S
C616 C618 1.388 . S
C617 C616 1.366 . S
C617 C621 1.385 . S
C618 H599 0.951 . S
C618 C616 1.388 . S
C618 C619 1.366 . S
C619 C618 1.366 . S
C619 C620 1.414 . S
C619 C622 1.499 . S
C620 H600 0.950 . S
C620 C619 1.414 . S
C620 C621 1.374 . S
C621 H601 0.950 . S
C621 C617 1.385 . S
C621 C620 1.374 . S
C622 C619 1.499 . S
C622 C623 1.373 . S
C622 C624 1.389 . S
C623 H602 0.950 . S
C623 C622 1.373 . S
C623 C639 1.377 . S
C624 C622 1.389 . S
C624 C625 1.524 . S
C624 C638 1.377 . S
C625 C624 1.524 . S
C625 C626 1.397 . S
C625 C630 1.363 . S
C626 H603 0.950 . S
C626 C625 1.397 . S
C626 C627 1.334 . S
C627 H604 0.950 . S
C627 C626 1.334 . S
C627 C628 1.287 . S
C628 C627 1.287 . S
C628 C629 1.524 . S
C628 H647 0.913 . S
C629 H605 0.950 . S
C629 C628 1.524 . S
C629 C630 1.415 . S
C630 H606 0.950 . S
C630 C625 1.363 . S
C630 C629 1.415 . S
C631 H607 0.951 . S
C631 C632 1.366 . S
C631 C633 1.388 . S
C632 C631 1.366 . S
C632 C636 1.385 . S
C633 H608 0.951 . S
C633 C631 1.388 . S
C633 C634 1.366 . S
C634 C633 1.366 . S
C634 C635 1.414 . S
C634 C637 1.499 . S
C635 H609 0.950 . S
C635 C634 1.414 . S
C635 C636 1.374 . S
C636 H610 0.950 . S
C636 C632 1.385 . S
C636 C635 1.374 . S
C637 C634 1.499 . S
C637 C638 1.373 . S
C637 C639 1.389 . S
C638 H611 0.950 . S
C638 C624 1.377 . S
C638 C637 1.373 . S
C639 C623 1.377 . S
C639 C637 1.389 . S
C639 C640 1.524 . S
C640 C639 1.524 . S
C640 C641 1.397 . S
C640 C645 1.363 . S
C641 H612 0.950 . S
C641 C640 1.397 . S
C641 C642 1.334 . S
C642 H613 0.950 . S
C642 C641 1.334 . S
C642 C643 1.287 . S
C643 C642 1.287 . S
C643 C644 1.524 . S
C643 H646 0.999 . S
C644 H614 0.950 . S
C644 C643 1.524 . S
C644 C645 1.415 . S
C645 H615 0.950 . S
C645 C640 1.363 . S
C645 C644 1.415 . S
H646 C643 0.999 . S
H647 C628 0.913 . S
H648 C666 0.951 . S
H649 C668 0.951 . S
H650 C670 0.950 . S
H651 C671 0.950 . S
H652 C673 0.950 . S
H653 C676 0.950 1_545 S
H654 C677 0.950 . S
H655 C679 0.950 . S
H656 C680 0.950 . S
H657 C681 0.951 . S
H658 C683 0.951 . S
H659 C685 0.950 . S
H660 C686 0.950 . S
H661 C688 0.950 . S
H662 C691 0.950 1_565 S
H663 C692 0.950 . S
H664 C694 0.950 . S
H665 C695 0.950 . S
C666 H648 0.951 . S
C666 C667 1.355 1_565 S
C666 C668 1.388 . S
C667 C666 1.355 1_545 S
C667 C671 1.397 . S
C668 H649 0.951 . S
C668 C666 1.388 . S
C668 C669 1.321 1_565 S
C669 C668 1.321 1_545 S
C669 C670 1.453 . S
C669 C672 1.506 . S
C670 H650 0.950 . S
C670 C669 1.453 . S
C670 C671 1.374 . S
C671 H651 0.950 . S
C671 C667 1.397 . S
C671 C670 1.374 . S
C672 C669 1.506 . S
C672 C673 1.373 . S
C672 C674 1.389 1_545 S
C673 H652 0.950 . S
C673 C672 1.373 . S
C673 C689 1.377 1_554 S
C674 C672 1.389 1_565 S
C674 C675 1.524 . S
C674 C688 1.377 . S
C675 C674 1.524 . S
C675 C676 1.397 . S
C675 C680 1.363 . S
C676 H653 0.950 1_565 S
C676 C675 1.397 . S
C676 C677 1.334 . S
C677 H654 0.950 . S
C677 C676 1.334 . S
C677 C678 1.287 . S
C678 C677 1.287 . S
C678 C679 1.524 . S
C678 H697 0.913 . S
C679 H655 0.950 . S
C679 C678 1.524 . S
C679 C680 1.415 . S
C680 H656 0.950 . S
C680 C675 1.363 . S
C680 C679 1.415 . S
C681 H657 0.951 . S
C681 C682 1.366 . S
C681 C683 1.388 . S
C682 C681 1.366 . S
C682 C686 1.385 1_545 S
C683 H658 0.951 . S
C683 C681 1.388 . S
C683 C684 1.366 . S
C684 C683 1.366 . S
C684 C685 1.414 1_545 S
C684 C687 1.504 . S
C685 H659 0.950 . S
C685 C684 1.414 1_565 S
C685 C686 1.374 . S
C686 H660 0.950 . S
C686 C682 1.385 1_565 S
C686 C685 1.374 . S
C687 C684 1.504 . S
C687 C688 1.350 1_546 S
C687 C689 1.410 . S
C688 H661 0.950 . S
C688 C674 1.377 . S
C688 C687 1.350 1_564 S
C689 C673 1.377 1_556 S
C689 C687 1.410 . S
C689 C690 1.524 . S
C690 C689 1.524 . S
C690 C691 1.397 . S
C690 C695 1.363 . S
C691 H662 0.950 1_545 S
C691 C690 1.397 . S
C691 C692 1.334 . S
C692 H663 0.950 . S
C692 C691 1.334 . S
C692 C693 1.287 . S
C693 C692 1.287 . S
C693 C694 1.524 . S
C693 H696 0.999 . S
C694 H664 0.950 . S
C694 C693 1.524 . S
C694 C695 1.415 . S
C695 H665 0.950 . S
C695 C690 1.363 . S
C695 C694 1.415 . S
H696 C693 0.999 . S
H697 C678 0.913 . S
H698 C716 0.951 . S
H699 C718 0.951 . S
H700 C720 0.950 . S
H701 C721 0.950 . S
H702 C723 0.950 . S
H703 C726 0.950 . S
H704 C727 0.950 . S
H705 C729 0.950 . S
H706 C730 0.950 . S
H707 C731 0.951 . S
H708 C733 0.951 . S
H709 C735 0.950 . S
H710 C736 0.950 . S
H711 C738 0.950 . S
H712 C741 0.950 . S
H713 C742 0.950 . S
H714 C744 0.950 . S
H715 C745 0.950 . S
C716 H698 0.951 . S
C716 C717 1.366 . S
C716 C718 1.388 . S
C717 C716 1.366 . S
C717 C721 1.385 . S
C718 H699 0.951 . S
C718 C716 1.388 . S
C718 C719 1.366 . S
C719 C718 1.366 . S
C719 C720 1.414 . S
C719 C722 1.499 . S
C720 H700 0.950 . S
C720 C719 1.414 . S
C720 C721 1.374 . S
C721 H701 0.950 . S
C721 C717 1.385 . S
C721 C720 1.374 . S
C722 C719 1.499 . S
C722 C723 1.373 . S
C722 C724 1.389 . S
C723 H702 0.950 . S
C723 C722 1.373 . S
C723 C739 1.377 . S
C724 C722 1.389 . S
C724 C725 1.524 . S
C724 C738 1.377 . S
C725 C724 1.524 . S
C725 C726 1.397 . S
C725 C730 1.363 . S
C726 H703 0.950 . S
C726 C725 1.397 . S
C726 C727 1.334 . S
C727 H704 0.950 . S
C727 C726 1.334 . S
C727 C728 1.287 . S
C728 C727 1.287 . S
C728 C729 1.524 . S
C728 H747 0.913 . S
C729 H705 0.950 . S
C729 C728 1.524 . S
C729 C730 1.415 . S
C730 H706 0.950 . S
C730 C725 1.363 . S
C730 C729 1.415 . S
C731 H707 0.951 . S
C731 C732 1.366 . S
C731 C733 1.388 . S
C732 C731 1.366 . S
C732 C736 1.385 . S
C733 H708 0.951 . S
C733 C731 1.388 . S
C733 C734 1.366 . S
C734 C733 1.366 . S
C734 C735 1.414 . S
C734 C737 1.499 . S
C735 H709 0.950 . S
C735 C734 1.414 . S
C735 C736 1.374 . S
C736 H710 0.950 . S
C736 C732 1.385 . S
C736 C735 1.374 . S
C737 C734 1.499 . S
C737 C738 1.373 . S
C737 C739 1.389 . S
C738 H711 0.950 . S
C738 C724 1.377 . S
C738 C737 1.373 . S
C739 C723 1.377 . S
C739 C737 1.389 . S
C739 C740 1.524 . S
C740 C739 1.524 . S
C740 C741 1.397 . S
C740 C745 1.363 . S
C741 H712 0.950 . S
C741 C740 1.397 . S
C741 C742 1.334 . S
C742 H713 0.950 . S
C742 C741 1.334 . S
C742 C743 1.287 . S
C743 C742 1.287 . S
C743 C744 1.524 . S
C743 H746 0.999 . S
C744 H714 0.950 . S
C744 C743 1.524 . S
C744 C745 1.415 . S
C745 H715 0.950 . S
C745 C740 1.363 . S
C745 C744 1.415 . S
H746 C743 0.999 . S
H747 C728 0.913 . S
H748 C766 0.951 . S
H749 C768 0.951 . S
H750 C770 0.950 . S
H751 C771 0.950 . S
H752 C773 0.950 . S
H753 C776 0.950 . S
H754 C777 0.950 . S
H755 C779 0.950 . S
H756 C780 0.950 1_556 S
H757 C781 0.951 . S
H758 C783 0.951 . S
H759 C785 0.950 . S
H760 C786 0.950 . S
H761 C788 0.950 . S
H762 C791 0.950 . S
H763 C792 0.950 . S
H764 C794 0.950 . S
H765 C795 0.950 . S
C766 H748 0.951 . S
C766 C767 1.366 . S
C766 C768 1.388 . S
C767 C766 1.366 . S
C767 C771 1.385 . S
C768 H749 0.951 . S
C768 C766 1.388 . S
C768 C769 1.366 . S
C769 C768 1.366 . S
C769 C770 1.414 . S
C769 C772 1.499 . S
C770 H750 0.950 . S
C770 C769 1.414 . S
C770 C771 1.374 . S
C771 H751 0.950 . S
C771 C767 1.385 . S
C771 C770 1.374 . S
C772 C769 1.499 . S
C772 C773 1.373 . S
C772 C774 1.389 . S
C773 H752 0.950 . S
C773 C772 1.373 . S
C773 C789 1.377 . S
C774 C772 1.389 . S
C774 C775 1.524 . S
C774 C788 1.377 1_554 S
C775 C774 1.524 . S
C775 C776 1.397 . S
C775 C780 1.363 . S
C776 H753 0.950 . S
C776 C775 1.397 . S
C776 C777 1.334 . S
C777 H754 0.950 . S
C777 C776 1.334 . S
C777 C778 1.287 . S
C778 C777 1.287 . S
C778 C779 1.524 . S
C778 H797 0.913 . S
C779 H755 0.950 . S
C779 C778 1.524 . S
C779 C780 1.415 . S
C780 H756 0.950 1_554 S
C780 C775 1.363 . S
C780 C779 1.415 . S
C781 H757 0.951 . S
C781 C782 1.366 . S
C781 C783 1.388 . S
C782 C781 1.366 . S
C782 C786 1.385 . S
C783 H758 0.951 . S
C783 C781 1.388 . S
C783 C784 1.366 . S
C784 C783 1.366 . S
C784 C785 1.414 . S
C784 C787 1.499 . S
C785 H759 0.950 . S
C785 C784 1.414 . S
C785 C786 1.374 . S
C786 H760 0.950 . S
C786 C782 1.385 . S
C786 C785 1.374 . S
C787 C784 1.499 . S
C787 C788 1.373 . S
C787 C789 1.389 1_556 S
C788 H761 0.950 . S
C788 C774 1.377 1_556 S
C788 C787 1.373 . S
C789 C773 1.377 . S
C789 C787 1.389 1_554 S
C789 C790 1.524 1_554 S
C790 C789 1.524 1_556 S
C790 C791 1.397 . S
C790 C795 1.363 1_556 S
C791 H762 0.950 . S
C791 C790 1.397 . S
C791 C792 1.334 . S
C792 H763 0.950 . S
C792 C791 1.334 . S
C792 C793 1.287 . S
C793 C792 1.287 . S
C793 C794 1.524 1_556 S
C793 H796 0.999 . S
C794 H764 0.950 . S
C794 C793 1.524 1_554 S
C794 C795 1.415 . S
C795 H765 0.950 . S
C795 C790 1.363 1_554 S
C795 C794 1.415 . S
H796 C793 0.999 . S
H797 C778 0.913 . S
H798 C816 0.951 . S
H799 C818 0.951 . S
H800 C820 0.950 . S
H801 C821 0.950 . S
H802 C823 0.950 . S
H803 C826 0.950 . S
H804 C827 0.950 . S
H805 C829 0.944 1_455 S
H806 C830 0.950 1_455 S
H807 C831 0.951 . S
H808 C833 0.951 . S
H809 C835 0.950 . S
H810 C836 0.950 . S
H811 C838 0.950 . S
H812 C841 0.954 1_455 S
H813 C842 0.950 1_455 S
H814 C844 0.950 . S
H815 C845 0.950 . S
C816 H798 0.951 . S
C816 C817 1.366 . S
C816 C818 1.388 . S
C817 C816 1.366 . S
C817 C821 1.385 . S
C818 H799 0.951 . S
C818 C816 1.388 . S
C818 C819 1.366 . S
C819 C818 1.366 . S
C819 C820 1.414 . S
C819 C822 1.499 . S
C820 H800 0.950 . S
C820 C819 1.414 . S
C820 C821 1.374 . S
C821 H801 0.950 . S
C821 C817 1.385 . S
C821 C820 1.374 . S
C822 C819 1.499 . S
C822 C823 1.373 . S
C822 C824 1.389 1_554 S
C823 H802 0.950 . S
C823 C822 1.373 . S
C823 C839 1.377 . S
C824 C822 1.389 1_556 S
C824 C825 1.524 . S
C824 C838 1.377 . S
C825 C824 1.524 . S
C825 C826 1.397 . S
C825 C830 1.363 . S
C826 H803 0.950 . S
C826 C825 1.397 . S
C826 C827 1.334 . S
C827 H804 0.950 . S
C827 C826 1.334 . S
C827 C828 1.287 . S
C828 C827 1.287 . S
C828 C829 1.524 . S
C828 H847 0.913 . S
C829 H805 0.944 1_655 S
C829 C828 1.524 . S
C829 C830 1.415 . S
C830 H806 0.950 1_655 S
C830 C825 1.363 . S
C830 C829 1.415 . S
C831 H807 0.951 . S
C831 C832 1.366 . S
C831 C833 1.388 . S
C832 C831 1.366 . S
C832 C836 1.385 1_655 S
C833 H808 0.951 . S
C833 C831 1.388 . S
C833 C834 1.366 . S
C834 C833 1.366 . S
C834 C835 1.414 1_655 S
C834 C837 1.499 . S
C835 H809 0.950 . S
C835 C834 1.414 1_455 S
C835 C836 1.374 . S
C836 H810 0.950 . S
C836 C832 1.385 1_455 S
C836 C835 1.374 . S
C837 C834 1.499 . S
C837 C838 1.373 . S
C837 C839 1.389 1_556 S
C838 H811 0.950 . S
C838 C824 1.377 . S
C838 C837 1.373 . S
C839 C823 1.377 . S
C839 C837 1.389 1_554 S
C839 C840 1.524 . S
C840 C839 1.524 . S
C840 C841 1.397 . S
C840 C845 1.363 . S
C841 H812 0.954 1_655 S
C841 C840 1.397 . S
C841 C842 1.334 . S
C842 H813 0.950 1_655 S
C842 C841 1.334 . S
C842 C843 1.287 . S
C843 C842 1.287 . S
C843 C844 1.524 . S
C843 H846 0.999 . S
C844 H814 0.950 . S
C844 C843 1.524 . S
C844 C845 1.415 . S
C845 H815 0.950 . S
C845 C840 1.363 . S
C845 C844 1.415 . S
H846 C843 0.999 . S
H847 C828 0.913 . S
H848 C866 0.951 . S
H849 C868 0.951 . S
H850 C870 0.950 . S
H851 C871 0.950 . S
H852 C873 0.950 . S
H853 C876 0.950 . S
H854 C877 0.950 . S
H855 C879 0.950 . S
H856 C880 0.950 . S
H857 C881 0.951 . S
H858 C883 0.951 1_655 S
H859 C885 0.950 . S
H860 C886 0.950 . S
H861 C888 0.950 . S
H862 C891 0.950 1_455 S
H863 C892 0.950 . S
H864 C894 0.950 . S
H865 C895 0.950 . S
C866 H848 0.951 . S
C866 C867 1.366 . S
C866 C868 1.388 . S
C867 C866 1.366 . S
C867 C871 1.385 . S
C868 H849 0.951 . S
C868 C866 1.388 . S
C868 C869 1.366 . S
C869 C868 1.366 . S
C869 C870 1.414 . S
C869 C872 1.499 . S
C870 H850 0.950 . S
C870 C869 1.414 . S
C870 C871 1.374 . S
C871 H851 0.950 . S
C871 C867 1.385 . S
C871 C870 1.374 . S
C872 C869 1.499 . S
C872 C873 1.373 . S
C872 C874 1.389 . S
C873 H852 0.950 . S
C873 C872 1.373 . S
C873 C889 1.377 . S
C874 C872 1.389 . S
C874 C875 1.524 . S
C874 C888 1.377 . S
C875 C874 1.524 . S
C875 C876 1.397 . S
C875 C880 1.363 . S
C876 H853 0.950 . S
C876 C875 1.397 . S
C876 C877 1.334 . S
C877 H854 0.950 . S
C877 C876 1.334 . S
C877 C878 1.287 . S
C878 C877 1.287 . S
C878 C879 1.524 . S
C878 H897 0.913 . S
C879 H855 0.950 . S
C879 C878 1.524 . S
C879 C880 1.415 . S
C880 H856 0.950 . S
C880 C875 1.363 . S
C880 C879 1.415 . S
C881 H857 0.951 . S
C881 C882 1.359 1_655 S
C881 C883 1.388 1_655 S
C882 C881 1.359 1_455 S
C882 C886 1.398 . S
C883 H858 0.951 1_455 S
C883 C881 1.388 1_455 S
C883 C884 1.366 . S
C884 C883 1.366 . S
C884 C885 1.414 . S
C884 C887 1.499 . S
C885 H859 0.950 . S
C885 C884 1.414 . S
C885 C886 1.374 . S
C886 H860 0.950 . S
C886 C882 1.398 . S
C886 C885 1.374 . S
C887 C884 1.499 . S
C887 C888 1.373 . S
C887 C889 1.389 . S
C888 H861 0.950 . S
C888 C874 1.377 . S
C888 C887 1.373 . S
C889 C873 1.377 . S
C889 C887 1.389 . S
C889 C890 1.564 . S
C890 C889 1.564 . S
C890 C891 1.391 1_455 S
C890 C895 1.333 1_455 S
C891 H862 0.950 1_655 S
C891 C890 1.391 1_655 S
C891 C892 1.334 . S
C892 H863 0.950 . S
C892 C891 1.334 . S
C892 C893 1.287 . S
C893 C892 1.287 . S
C893 C894 1.524 . S
C893 H896 0.999 . S
C894 H864 0.950 . S
C894 C893 1.524 . S
C894 C895 1.415 . S
C895 H865 0.950 . S
C895 C890 1.333 1_655 S
C895 C894 1.415 . S
H896 C893 0.999 . S
H897 C878 0.913 . S
H898 C916 0.951 . S
H899 C918 0.951 . S
H900 C920 0.950 . S
H901 C921 0.950 . S
H902 C923 0.950 . S
H903 C926 0.950 . S
H904 C927 0.950 . S
H905 C929 0.950 . S
H906 C930 0.950 . S
H907 C931 0.951 1_545 S
H908 C933 0.951 1_545 S
H909 C935 0.950 . S
H910 C936 0.950 . S
H911 C938 0.950 . S
H912 C941 0.950 1_565 S
H913 C942 0.950 . S
H914 C944 0.950 . S
H915 C945 0.950 . S
C916 H898 0.951 . S
C916 C917 1.366 1_565 S
C916 C918 1.388 . S
C917 C916 1.366 1_545 S
C917 C921 1.385 . S
C918 H899 0.951 . S
C918 C916 1.388 . S
C918 C919 1.366 . S
C919 C918 1.366 . S
C919 C920 1.414 1_565 S
C919 C922 1.499 . S
C920 H900 0.950 . S
C920 C919 1.414 1_545 S
C920 C921 1.374 . S
C921 H901 0.950 . S
C921 C917 1.385 . S
C921 C920 1.374 . S
C922 C919 1.499 . S
C922 C923 1.373 1_565 S
C922 C924 1.389 . S
C923 H902 0.950 . S
C923 C922 1.373 1_545 S
C923 C939 1.377 . S
C924 C922 1.389 . S
C924 C925 1.524 . S
C924 C938 1.377 . S
C925 C924 1.524 . S
C925 C926 1.397 . S
C925 C930 1.363 . S
C926 H903 0.950 . S
C926 C925 1.397 . S
C926 C927 1.334 . S
C927 H904 0.950 . S
C927 C926 1.334 . S
C927 C928 1.287 . S
C928 C927 1.287 . S
C928 C929 1.524 . S
C928 H947 0.913 . S
C929 H905 0.950 . S
C929 C928 1.524 . S
C929 C930 1.415 . S
C930 H906 0.950 . S
C930 C925 1.363 . S
C930 C929 1.415 . S
C931 H907 0.951 1_565 S
C931 C932 1.366 . S
C931 C933 1.388 . S
C932 C931 1.366 . S
C932 C936 1.385 . S
C933 H908 0.951 1_565 S
C933 C931 1.388 . S
C933 C934 1.366 . S
C934 C933 1.366 . S
C934 C935 1.414 . S
C934 C937 1.499 . S
C935 H909 0.950 . S
C935 C934 1.414 . S
C935 C936 1.374 . S
C936 H910 0.950 . S
C936 C932 1.385 . S
C936 C935 1.374 . S
C937 C934 1.499 . S
C937 C938 1.373 . S
C937 C939 1.389 1_565 S
C938 H911 0.950 . S
C938 C924 1.377 . S
C938 C937 1.373 . S
C939 C923 1.377 . S
C939 C937 1.389 1_545 S
C939 C940 1.524 . S
C940 C939 1.524 . S
C940 C941 1.397 . S
C940 C945 1.363 . S
C941 H912 0.950 1_545 S
C941 C940 1.397 . S
C941 C942 1.334 . S
C942 H913 0.950 . S
C942 C941 1.334 . S
C942 C943 1.287 . S
C943 C942 1.287 . S
C943 C944 1.524 . S
C943 H946 0.999 . S
C944 H914 0.950 . S
C944 C943 1.524 . S
C944 C945 1.415 . S
C945 H915 0.950 . S
C945 C940 1.363 . S
C945 C944 1.415 . S
H946 C943 0.999 . S
H947 C928 0.913 . S
H948 C966 0.951 . S
H949 C968 0.951 . S
H950 C970 0.950 . S
H951 C971 0.950 . S
H952 C973 0.950 . S
H953 C976 0.950 . S
H954 C977 0.950 . S
H955 C979 0.950 . S
H956 C980 0.950 . S
H957 C981 0.951 . S
H958 C983 0.951 . S
H959 C985 0.950 . S
H960 C986 0.950 . S
H961 C988 0.950 . S
H962 C991 0.950 . S
H963 C992 0.950 . S
H964 C994 0.950 . S
H965 C995 0.950 . S
C966 H948 0.951 . S
C966 C967 1.366 . S
C966 C968 1.388 . S
C967 C966 1.366 . S
C967 C971 1.385 . S
C968 H949 0.951 . S
C968 C966 1.388 . S
C968 C969 1.366 . S
C969 C968 1.366 . S
C969 C970 1.414 . S
C969 C972 1.499 . S
C970 H950 0.950 . S
C970 C969 1.414 . S
C970 C971 1.374 . S
C971 H951 0.950 . S
C971 C967 1.385 . S
C971 C970 1.374 . S
C972 C969 1.499 . S
C972 C973 1.373 . S
C972 C974 1.389 . S
C973 H952 0.950 . S
C973 C972 1.373 . S
C973 C989 1.377 . S
C974 C972 1.389 . S
C974 C975 1.524 . S
C974 C988 1.377 . S
C975 C974 1.524 . S
C975 C976 1.397 . S
C975 C980 1.363 . S
C976 H953 0.950 . S
C976 C975 1.397 . S
C976 C977 1.334 . S
C977 H954 0.950 . S
C977 C976 1.334 . S
C977 C978 1.287 . S
C978 C977 1.287 . S
C978 C979 1.524 . S
C978 H997 0.913 . S
C979 H955 0.950 . S
C979 C978 1.524 . S
C979 C980 1.415 . S
C980 H956 0.950 . S
C980 C975 1.363 . S
C980 C979 1.415 . S
C981 H957 0.951 . S
C981 C982 1.366 . S
C981 C983 1.388 . S
C982 C981 1.366 . S
C982 C986 1.385 . S
C983 H958 0.951 . S
C983 C981 1.388 . S
C983 C984 1.366 . S
C984 C983 1.366 . S
C984 C985 1.414 . S
C984 C987 1.499 . S
C985 H959 0.950 . S
C985 C984 1.414 . S
C985 C986 1.374 . S
C986 H960 0.950 . S
C986 C982 1.385 . S
C986 C985 1.374 . S
C987 C984 1.499 . S
C987 C988 1.373 . S
C987 C989 1.389 . S
C988 H961 0.950 . S
C988 C974 1.377 . S
C988 C987 1.373 . S
C989 C973 1.377 . S
C989 C987 1.389 . S
C989 C990 1.524 . S
C990 C989 1.524 . S
C990 C991 1.397 . S
C990 C995 1.363 . S
C991 H962 0.950 . S
C991 C990 1.397 . S
C991 C992 1.334 . S
C992 H963 0.950 . S
C992 C991 1.334 . S
C992 C993 1.287 . S
C993 C992 1.287 . S
C993 C994 1.524 . S
C993 H996 0.999 . S
C994 H964 0.950 . S
C994 C993 1.524 . S
C994 C995 1.415 . S
C995 H965 0.950 . S
C995 C990 1.363 . S
C995 C994 1.415 . S
H996 C993 0.999 . S
H997 C978 0.913 . S
H998 C1016 0.951 . S
H999 C1018 0.951 . S
H1000 C1020 0.950 . S
H1001 C1021 0.950 . S
H1002 C1023 0.950 . S
H1003 C1026 0.950 . S
H1004 C1027 0.950 . S
H1005 C1029 0.950 . S
H1006 C1030 0.950 . S
H1007 C1031 0.951 . S
H1008 C1033 0.951 . S
H1009 C1035 0.950 . S
H1010 C1036 0.950 . S
H1011 C1038 0.950 . S
H1012 C1041 0.950 . S
H1013 C1042 0.950 . S
H1014 C1044 0.950 . S
H1015 C1045 0.950 . S
C1016 H998 0.951 . S
C1016 C1017 1.366 . S
C1016 C1018 1.388 . S
C1017 C1016 1.366 . S
C1017 C1021 1.385 . S
C1018 H999 0.951 . S
C1018 C1016 1.388 . S
C1018 C1019 1.366 . S
C1019 C1018 1.366 . S
C1019 C1020 1.414 . S
C1019 C1022 1.499 . S
C1020 H1000 0.950 . S
C1020 C1019 1.414 . S
C1020 C1021 1.374 . S
C1021 H1001 0.950 . S
C1021 C1017 1.385 . S
C1021 C1020 1.374 . S
C1022 C1019 1.499 . S
C1022 C1023 1.373 . S
C1022 C1024 1.389 . S
C1023 H1002 0.950 . S
C1023 C1022 1.373 . S
C1023 C1039 1.377 . S
C1024 C1022 1.389 . S
C1024 C1025 1.524 . S
C1024 C1038 1.377 . S
C1025 C1024 1.524 . S
C1025 C1026 1.397 . S
C1025 C1030 1.363 . S
C1026 H1003 0.950 . S
C1026 C1025 1.397 . S
C1026 C1027 1.334 . S
C1027 H1004 0.950 . S
C1027 C1026 1.334 . S
C1027 C1028 1.287 . S
C1028 C1027 1.287 . S
C1028 C1029 1.524 . S
C1028 H1047 0.913 . S
C1029 H1005 0.950 . S
C1029 C1028 1.524 . S
C1029 C1030 1.415 . S
C1030 H1006 0.950 . S
C1030 C1025 1.363 . S
C1030 C1029 1.415 . S
C1031 H1007 0.951 . S
C1031 C1032 1.366 . S
C1031 C1033 1.388 . S
C1032 C1031 1.366 . S
C1032 C1036 1.385 . S
C1033 H1008 0.951 . S
C1033 C1031 1.388 . S
C1033 C1034 1.366 . S
C1034 C1033 1.366 . S
C1034 C1035 1.414 . S
C1034 C1037 1.499 . S
C1035 H1009 0.950 . S
C1035 C1034 1.414 . S
C1035 C1036 1.374 . S
C1036 H1010 0.950 . S
C1036 C1032 1.385 . S
C1036 C1035 1.374 . S
C1037 C1034 1.499 . S
C1037 C1038 1.373 . S
C1037 C1039 1.389 . S
C1038 H1011 0.950 . S
C1038 C1024 1.377 . S
C1038 C1037 1.373 . S
C1039 C1023 1.377 . S
C1039 C1037 1.389 . S
C1039 C1040 1.524 . S
C1040 C1039 1.524 . S
C1040 C1041 1.397 . S
C1040 C1045 1.363 . S
C1041 H1012 0.950 . S
C1041 C1040 1.397 . S
C1041 C1042 1.334 . S
C1042 H1013 0.950 . S
C1042 C1041 1.334 . S
C1042 C1043 1.287 . S
C1043 C1042 1.287 . S
C1043 C1044 1.524 . S
C1043 H1046 0.999 . S
C1044 H1014 0.950 . S
C1044 C1043 1.524 . S
C1044 C1045 1.415 . S
C1045 H1015 0.950 . S
C1045 C1040 1.363 . S
C1045 C1044 1.415 . S
H1046 C1043 0.999 . S
H1047 C1028 0.913 . S
H1048 C1066 0.951 . S
H1049 C1068 0.951 . S
H1050 C1070 0.950 . S
H1051 C1071 0.950 . S
H1052 C1073 0.950 . S
H1053 C1076 0.950 . S
H1054 C1077 0.950 1_655 S
H1055 C1079 0.950 . S
H1056 C1080 0.950 . S
H1057 C1081 0.951 1_655 S
H1058 C1083 0.951 . S
H1059 C1085 0.950 . S
H1060 C1086 0.950 . S
H1061 C1088 0.950 . S
H1062 C1091 0.950 . S
H1063 C1092 0.950 . S
H1064 C1094 0.950 . S
H1065 C1095 0.950 . S
C1066 H1048 0.951 . S
C1066 C1067 1.366 . S
C1066 C1068 1.388 . S
C1067 C1066 1.366 . S
C1067 C1071 1.385 . S
C1068 H1049 0.951 . S
C1068 C1066 1.388 . S
C1068 C1069 1.366 . S
C1069 C1068 1.366 . S
C1069 C1070 1.414 . S
C1069 C1072 1.499 . S
C1070 H1050 0.950 . S
C1070 C1069 1.414 . S
C1070 C1071 1.374 . S
C1071 H1051 0.950 . S
C1071 C1067 1.385 . S
C1071 C1070 1.374 . S
C1072 C1069 1.499 . S
C1072 C1073 1.373 1_554 S
C1072 C1074 1.389 . S
C1073 H1052 0.950 . S
C1073 C1072 1.373 1_556 S
C1073 C1089 1.377 . S
C1074 C1072 1.389 . S
C1074 C1075 1.524 1_655 S
C1074 C1088 1.377 1_655 S
C1075 C1074 1.524 1_455 S
C1075 C1076 1.397 1_455 S
C1075 C1080 1.363 . S
C1076 H1053 0.950 . S
C1076 C1075 1.397 1_655 S
C1076 C1077 1.334 1_655 S
C1077 H1054 0.950 1_455 S
C1077 C1076 1.334 1_455 S
C1077 C1078 1.287 . S
C1078 C1077 1.287 . S
C1078 C1079 1.524 . S
C1078 H1097 0.913 . S
C1079 H1055 0.950 . S
C1079 C1078 1.524 . S
C1079 C1080 1.415 . S
C1080 H1056 0.950 . S
C1080 C1075 1.363 . S
C1080 C1079 1.415 . S
C1081 H1057 0.951 1_455 S
C1081 C1082 1.366 . S
C1081 C1083 1.388 1_455 S
C1082 C1081 1.366 . S
C1082 C1086 1.385 . S
C1083 H1058 0.951 . S
C1083 C1081 1.388 1_655 S
C1083 C1084 1.366 1_655 S
C1084 C1083 1.366 1_455 S
C1084 C1085 1.414 . S
C1084 C1087 1.499 1_455 S
C1085 H1059 0.950 . S
C1085 C1084 1.414 . S
C1085 C1086 1.374 . S
C1086 H1060 0.950 . S
C1086 C1082 1.385 . S
C1086 C1085 1.374 . S
C1087 C1084 1.499 1_655 S
C1087 C1088 1.373 1_656 S
C1087 C1089 1.389 . S
C1088 H1061 0.950 . S
C1088 C1074 1.377 1_455 S
C1088 C1087 1.373 1_454 S
C1089 C1073 1.377 . S
C1089 C1087 1.389 . S
C1089 C1090 1.524 . S
C1090 C1089 1.524 . S
C1090 C1091 1.397 . S
C1090 C1095 1.363 . S
C1091 H1062 0.950 . S
C1091 C1090 1.397 . S
C1091 C1092 1.334 . S
C1092 H1063 0.950 . S
C1092 C1091 1.334 . S
C1092 C1093 1.287 . S
C1093 C1092 1.287 . S
C1093 C1094 1.524 . S
C1093 H1096 0.999 . S
C1094 H1064 0.950 . S
C1094 C1093 1.524 . S
C1094 C1095 1.415 . S
C1095 H1065 0.950 . S
C1095 C1090 1.363 . S
C1095 C1094 1.415 . S
H1096 C1093 0.999 . S
H1097 C1078 0.913 . S
H1098 C1116 0.951 . S
H1099 C1118 0.951 . S
H1100 C1120 0.950 . S
H1101 C1121 0.950 . S
H1102 C1123 0.950 . S
H1103 C1126 0.950 . S
H1104 C1127 0.950 . S
H1105 C1129 0.950 . S
H1106 C1130 0.950 . S
H1107 C1131 0.915 1_565 S
H1108 C1133 0.951 1_564 S
H1109 C1135 0.950 . S
H1110 C1136 0.950 . S
H1111 C1138 0.950 . S
H1112 C1141 0.950 . S
H1113 C1142 0.950 . S
H1114 C1144 0.950 . S
H1115 C1145 0.950 1_554 S
C1116 H1098 0.951 . S
C1116 C1117 1.366 1_545 S
C1116 C1118 1.388 . S
C1117 C1116 1.366 1_565 S
C1117 C1121 1.385 . S
C1118 H1099 0.951 . S
C1118 C1116 1.388 . S
C1118 C1119 1.366 . S
C1119 C1118 1.366 . S
C1119 C1120 1.414 1_545 S
C1119 C1122 1.499 . S
C1120 H1100 0.950 . S
C1120 C1119 1.414 1_565 S
C1120 C1121 1.374 . S
C1121 H1101 0.950 . S
C1121 C1117 1.385 . S
C1121 C1120 1.374 . S
C1122 C1119 1.499 . S
C1122 C1123 1.373 1_545 S
C1122 C1124 1.389 . S
C1123 H1102 0.950 . S
C1123 C1122 1.373 1_565 S
C1123 C1139 1.377 . S
C1124 C1122 1.389 . S
C1124 C1125 1.524 . S
C1124 C1138 1.377 . S
C1125 C1124 1.524 . S
C1125 C1126 1.397 . S
C1125 C1130 1.363 . S
C1126 H1103 0.950 . S
C1126 C1125 1.397 . S
C1126 C1127 1.334 . S
C1127 H1104 0.950 . S
C1127 C1126 1.334 . S
C1127 C1128 1.287 . S
C1128 C1127 1.287 . S
C1128 C1129 1.524 . S
C1128 H1147 0.913 . S
C1129 H1105 0.950 . S
C1129 C1128 1.524 . S
C1129 C1130 1.415 . S
C1130 H1106 0.950 . S
C1130 C1125 1.363 . S
C1130 C1129 1.415 . S
C1131 H1107 0.915 1_545 S
C1131 C1132 1.366 . S
C1131 C1133 1.388 . S
C1132 C1131 1.366 . S
C1132 C1136 1.385 . S
C1133 H1108 0.951 1_546 S
C1133 C1131 1.388 . S
C1133 C1134 1.366 . S
C1134 C1133 1.366 . S
C1134 C1135 1.414 . S
C1134 C1137 1.499 1_556 S
C1135 H1109 0.950 . S
C1135 C1134 1.414 . S
C1135 C1136 1.374 . S
C1136 H1110 0.950 . S
C1136 C1132 1.385 . S
C1136 C1135 1.374 . S
C1137 C1134 1.499 1_554 S
C1137 C1138 1.373 . S
C1137 C1139 1.389 1_545 S
C1138 H1111 0.950 . S
C1138 C1124 1.377 . S
C1138 C1137 1.373 . S
C1139 C1123 1.377 . S
C1139 C1137 1.389 1_565 S
C1139 C1140 1.524 1_554 S
C1140 C1139 1.524 1_556 S
C1140 C1141 1.397 . S
C1140 C1145 1.363 . S
C1141 H1112 0.950 . S
C1141 C1140 1.397 . S
C1141 C1142 1.334 . S
C1142 H1113 0.950 . S
C1142 C1141 1.334 . S
C1142 C1143 1.287 . S
C1143 C1142 1.287 . S
C1143 C1144 1.524 . S
C1143 H1146 0.999 . S
C1144 H1114 0.950 . S
C1144 C1143 1.524 . S
C1144 C1145 1.415 . S
C1145 H1115 0.950 1_556 S
C1145 C1140 1.363 . S
C1145 C1144 1.415 . S
H1146 C1143 0.999 . S
H1147 C1128 0.913 . S
H1148 C1166 0.951 . S
H1149 C1168 0.951 . S
H1150 C1170 0.950 . S
H1151 C1171 0.950 . S
H1152 C1173 0.950 . S
H1153 C1176 0.950 . S
H1154 C1177 0.950 . S
H1155 C1179 0.950 . S
H1156 C1180 0.950 . S
H1157 C1181 0.951 . S
H1158 C1183 0.951 . S
H1159 C1185 0.950 . S
H1160 C1186 0.950 . S
H1161 C1188 0.950 . S
H1162 C1191 0.950 . S
H1163 C1192 0.950 . S
H1164 C1194 0.950 . S
H1165 C1195 0.950 . S
C1166 H1148 0.951 . S
C1166 C1167 1.366 . S
C1166 C1168 1.388 . S
C1167 C1166 1.366 . S
C1167 C1171 1.385 . S
C1168 H1149 0.951 . S
C1168 C1166 1.388 . S
C1168 C1169 1.366 . S
C1169 C1168 1.366 . S
C1169 C1170 1.414 . S
C1169 C1172 1.499 . S
C1170 H1150 0.950 . S
C1170 C1169 1.414 . S
C1170 C1171 1.374 . S
C1171 H1151 0.950 . S
C1171 C1167 1.385 . S
C1171 C1170 1.374 . S
C1172 C1169 1.499 . S
C1172 C1173 1.373 . S
C1172 C1174 1.389 . S
C1173 H1152 0.950 . S
C1173 C1172 1.373 . S
C1173 C1189 1.377 . S
C1174 C1172 1.389 . S
C1174 C1175 1.524 . S
C1174 C1188 1.377 . S
C1175 C1174 1.524 . S
C1175 C1176 1.397 . S
C1175 C1180 1.363 . S
C1176 H1153 0.950 . S
C1176 C1175 1.397 . S
C1176 C1177 1.334 . S
C1177 H1154 0.950 . S
C1177 C1176 1.334 . S
C1177 C1178 1.287 . S
C1178 C1177 1.287 . S
C1178 C1179 1.524 . S
C1178 H1197 0.913 . S
C1179 H1155 0.950 . S
C1179 C1178 1.524 . S
C1179 C1180 1.415 . S
C1180 H1156 0.950 . S
C1180 C1175 1.363 . S
C1180 C1179 1.415 . S
C1181 H1157 0.951 . S
C1181 C1182 1.366 . S
C1181 C1183 1.388 . S
C1182 C1181 1.366 . S
C1182 C1186 1.385 . S
C1183 H1158 0.951 . S
C1183 C1181 1.388 . S
C1183 C1184 1.366 . S
C1184 C1183 1.366 . S
C1184 C1185 1.414 . S
C1184 C1187 1.499 . S
C1185 H1159 0.950 . S
C1185 C1184 1.414 . S
C1185 C1186 1.374 . S
C1186 H1160 0.950 . S
C1186 C1182 1.385 . S
C1186 C1185 1.374 . S
C1187 C1184 1.499 . S
C1187 C1188 1.373 . S
C1187 C1189 1.389 . S
C1188 H1161 0.950 . S
C1188 C1174 1.377 . S
C1188 C1187 1.373 . S
C1189 C1173 1.377 . S
C1189 C1187 1.389 . S
C1189 C1190 1.524 . S
C1190 C1189 1.524 . S
C1190 C1191 1.397 . S
C1190 C1195 1.363 . S
C1191 H1162 0.950 . S
C1191 C1190 1.397 . S
C1191 C1192 1.334 . S
C1192 H1163 0.950 . S
C1192 C1191 1.334 . S
C1192 C1193 1.287 . S
C1193 C1192 1.287 . S
C1193 C1194 1.524 . S
C1193 H1196 0.999 . S
C1194 H1164 0.950 . S
C1194 C1193 1.524 . S
C1194 C1195 1.415 . S
C1195 H1165 0.950 . S
C1195 C1190 1.363 . S
C1195 C1194 1.415 . S
H1196 C1193 0.999 . S
H1197 C1178 0.913 . S
H1198 C1216 0.951 . S
H1199 C1218 0.951 . S
H1200 C1220 0.950 . S
H1201 C1221 0.950 . S
H1202 C1223 0.950 . S
H1203 C1226 0.950 . S
H1204 C1227 0.950 . S
H1205 C1229 0.950 . S
H1206 C1230 0.950 . S
H1207 C1231 0.951 . S
H1208 C1233 0.951 1_554 S
H1209 C1235 0.950 . S
H1210 C1236 0.950 . S
H1211 C1238 0.950 . S
H1212 C1241 0.950 1_556 S
H1213 C1242 0.950 . S
H1214 C1244 0.950 . S
H1215 C1245 0.950 . S
C1216 H1198 0.951 . S
C1216 C1217 1.366 . S
C1216 C1218 1.388 . S
C1217 C1216 1.366 . S
C1217 C1221 1.385 . S
C1218 H1199 0.951 . S
C1218 C1216 1.388 . S
C1218 C1219 1.366 . S
C1219 C1218 1.366 . S
C1219 C1220 1.414 . S
C1219 C1222 1.499 . S
C1220 H1200 0.950 . S
C1220 C1219 1.414 . S
C1220 C1221 1.374 . S
C1221 H1201 0.950 . S
C1221 C1217 1.385 . S
C1221 C1220 1.374 . S
C1222 C1219 1.499 . S
C1222 C1223 1.373 . S
C1222 C1224 1.389 . S
C1223 H1202 0.950 . S
C1223 C1222 1.373 . S
C1223 C1239 1.377 . S
C1224 C1222 1.389 . S
C1224 C1225 1.524 1_554 S
C1224 C1238 1.377 1_554 S
C1225 C1224 1.524 1_556 S
C1225 C1226 1.397 1_556 S
C1225 C1230 1.363 . S
C1226 H1203 0.950 . S
C1226 C1225 1.397 1_554 S
C1226 C1227 1.334 . S
C1227 H1204 0.950 . S
C1227 C1226 1.334 . S
C1227 C1228 1.287 1_554 S
C1228 C1227 1.287 1_556 S
C1228 C1229 1.524 . S
C1228 H1247 0.913 . S
C1229 H1205 0.950 . S
C1229 C1228 1.524 . S
C1229 C1230 1.415 . S
C1230 H1206 0.950 . S
C1230 C1225 1.363 . S
C1230 C1229 1.415 . S
C1231 H1207 0.951 . S
C1231 C1232 1.366 . S
C1231 C1233 1.388 . S
C1232 C1231 1.366 . S
C1232 C1236 1.385 . S
C1233 H1208 0.951 1_556 S
C1233 C1231 1.388 . S
C1233 C1234 1.366 . S
C1234 C1233 1.366 . S
C1234 C1235 1.414 . S
C1234 C1237 1.508 . S
C1235 H1209 0.950 . S
C1235 C1234 1.414 . S
C1235 C1236 1.374 . S
C1236 H1210 0.950 . S
C1236 C1232 1.385 . S
C1236 C1235 1.374 . S
C1237 C1234 1.508 . S
C1237 C1238 1.378 . S
C1237 C1239 1.375 1_556 S
C1238 H1211 0.950 . S
C1238 C1224 1.377 1_556 S
C1238 C1237 1.378 . S
C1239 C1223 1.377 . S
C1239 C1237 1.375 1_554 S
C1239 C1240 1.524 . S
C1240 C1239 1.524 . S
C1240 C1241 1.397 . S
C1240 C1245 1.363 . S
C1241 H1212 0.950 1_554 S
C1241 C1240 1.397 . S
C1241 C1242 1.334 . S
C1242 H1213 0.950 . S
C1242 C1241 1.334 . S
C1242 C1243 1.287 . S
C1243 C1242 1.287 . S
C1243 C1244 1.524 . S
C1243 H1246 0.999 . S
C1244 H1214 0.950 . S
C1244 C1243 1.524 . S
C1244 C1245 1.415 . S
C1245 H1215 0.950 . S
C1245 C1240 1.363 . S
C1245 C1244 1.415 . S
H1246 C1243 0.999 . S
H1247 C1228 0.913 . S
H1248 C1266 0.951 . S
H1249 C1268 0.951 . S
H1250 C1270 0.950 . S
H1251 C1271 0.950 1_554 S
H1252 C1273 0.950 . S
H1253 C1276 0.950 . S
H1254 C1277 0.950 . S
H1255 C1279 0.950 . S
H1256 C1280 0.950 . S
H1257 C1281 0.951 . S
H1258 C1283 0.951 . S
H1259 C1285 0.950 . S
H1260 C1286 0.950 . S
H1261 C1288 0.950 . S
H1262 C1291 0.950 . S
H1263 C1292 0.950 . S
H1264 C1294 0.950 . S
H1265 C1295 0.950 . S
C1266 H1248 0.951 . S
C1266 C1267 1.366 . S
C1266 C1268 1.388 . S
C1267 C1266 1.366 . S
C1267 C1271 1.385 . S
C1268 H1249 0.951 . S
C1268 C1266 1.388 . S
C1268 C1269 1.366 . S
C1269 C1268 1.366 . S
C1269 C1270 1.414 . S
C1269 C1272 1.499 . S
C1270 H1250 0.950 . S
C1270 C1269 1.414 . S
C1270 C1271 1.374 . S
C1271 H1251 0.950 1_556 S
C1271 C1267 1.385 . S
C1271 C1270 1.374 . S
C1272 C1269 1.499 . S
C1272 C1273 1.373 . S
C1272 C1274 1.389 . S
C1273 H1252 0.950 . S
C1273 C1272 1.373 . S
C1273 C1289 1.377 . S
C1274 C1272 1.389 . S
C1274 C1275 1.524 . S
C1274 C1288 1.377 . S
C1275 C1274 1.524 . S
C1275 C1276 1.397 . S
C1275 C1280 1.363 . S
C1276 H1253 0.950 . S
C1276 C1275 1.397 . S
C1276 C1277 1.334 . S
C1277 H1254 0.950 . S
C1277 C1276 1.334 . S
C1277 C1278 1.287 . S
C1278 C1277 1.287 . S
C1278 C1279 1.524 . S
C1278 H1297 0.913 . S
C1279 H1255 0.950 . S
C1279 C1278 1.524 . S
C1279 C1280 1.415 . S
C1280 H1256 0.950 . S
C1280 C1275 1.363 . S
C1280 C1279 1.415 . S
C1281 H1257 0.951 . S
C1281 C1282 1.366 . S
C1281 C1283 1.388 . S
C1282 C1281 1.366 . S
C1282 C1286 1.385 . S
C1283 H1258 0.951 . S
C1283 C1281 1.388 . S
C1283 C1284 1.366 . S
C1284 C1283 1.366 . S
C1284 C1285 1.414 . S
C1284 C1287 1.499 . S
C1285 H1259 0.950 . S
C1285 C1284 1.414 . S
C1285 C1286 1.374 . S
C1286 H1260 0.950 . S
C1286 C1282 1.385 . S
C1286 C1285 1.374 . S
C1287 C1284 1.499 . S
C1287 C1288 1.373 . S
C1287 C1289 1.389 . S
C1288 H1261 0.950 . S
C1288 C1274 1.377 . S
C1288 C1287 1.373 . S
C1289 C1273 1.377 . S
C1289 C1287 1.389 . S
C1289 C1290 1.524 . S
C1290 C1289 1.524 . S
C1290 C1291 1.397 . S
C1290 C1295 1.363 1_556 S
C1291 H1262 0.950 . S
C1291 C1290 1.397 . S
C1291 C1292 1.334 . S
C1292 H1263 0.950 . S
C1292 C1291 1.334 . S
C1292 C1293 1.287 1_556 S
C1293 C1292 1.287 1_554 S
C1293 C1294 1.524 . S
C1293 H1296 0.999 . S
C1294 H1264 0.950 . S
C1294 C1293 1.524 . S
C1294 C1295 1.415 . S
C1295 H1265 0.950 . S
C1295 C1290 1.363 1_554 S
C1295 C1294 1.415 . S
H1296 C1293 0.999 . S
H1297 C1278 0.913 . S
H1298 C1316 0.950 . S
H1299 C1318 0.949 . S
H1300 C1320 0.950 . S
H1301 C1321 0.950 . S
H1302 C1323 0.950 . S
H1303 C1326 0.950 . S
H1304 C1327 0.950 . S
H1305 C1329 0.950 . S
H1306 C1330 0.950 . S
H1307 C1331 0.951 . S
H1308 C1333 0.951 . S
H1309 C1335 0.950 . S
H1310 C1336 0.950 . S
H1311 C1338 0.950 . S
H1312 C1341 0.950 . S
H1313 C1342 0.950 . S
H1314 C1344 0.950 1_554 S
H1315 C1345 0.950 . S
C1316 H1298 0.950 . S
C1316 C1317 1.371 1_565 S
C1316 C1318 1.388 . S
C1317 C1316 1.371 1_545 S
C1317 C1321 1.384 . S
C1318 H1299 0.949 . S
C1318 C1316 1.388 . S
C1318 C1319 1.369 1_565 S
C1319 C1318 1.369 1_545 S
C1319 C1320 1.413 . S
C1319 C1322 1.498 . S
C1320 H1300 0.950 . S
C1320 C1319 1.413 . S
C1320 C1321 1.374 . S
C1321 H1301 0.950 . S
C1321 C1317 1.384 . S
C1321 C1320 1.374 . S
C1322 C1319 1.498 . S
C1322 C1323 1.409 . S
C1322 C1324 1.361 1_545 S
C1323 H1302 0.950 . S
C1323 C1322 1.409 . S
C1323 C1339 1.377 . S
C1324 C1322 1.361 1_565 S
C1324 C1325 1.524 . S
C1324 C1338 1.377 . S
C1325 C1324 1.524 . S
C1325 C1326 1.397 . S
C1325 C1330 1.363 . S
C1326 H1303 0.950 . S
C1326 C1325 1.397 . S
C1326 C1327 1.334 . S
C1327 H1304 0.950 . S
C1327 C1326 1.334 . S
C1327 C1328 1.287 . S
C1328 C1327 1.287 . S
C1328 C1329 1.524 . S
C1328 H1347 0.913 . S
C1329 H1305 0.950 . S
C1329 C1328 1.524 . S
C1329 C1330 1.415 . S
C1330 H1306 0.950 . S
C1330 C1325 1.363 . S
C1330 C1329 1.415 . S
C1331 H1307 0.951 . S
C1331 C1332 1.366 . S
C1331 C1333 1.388 . S
C1332 C1331 1.366 . S
C1332 C1336 1.385 . S
C1333 H1308 0.951 . S
C1333 C1331 1.388 . S
C1333 C1334 1.366 . S
C1334 C1333 1.366 . S
C1334 C1335 1.414 . S
C1334 C1337 1.499 . S
C1335 H1309 0.950 . S
C1335 C1334 1.414 . S
C1335 C1336 1.374 . S
C1336 H1310 0.950 . S
C1336 C1332 1.385 . S
C1336 C1335 1.374 . S
C1337 C1334 1.499 . S
C1337 C1338 1.373 1_545 S
C1337 C1339 1.389 . S
C1338 H1311 0.950 . S
C1338 C1324 1.377 . S
C1338 C1337 1.373 1_565 S
C1339 C1323 1.377 . S
C1339 C1337 1.389 . S
C1339 C1340 1.524 . S
C1340 C1339 1.524 . S
C1340 C1341 1.397 . S
C1340 C1345 1.363 . S
C1341 H1312 0.950 . S
C1341 C1340 1.397 . S
C1341 C1342 1.334 . S
C1342 H1313 0.950 . S
C1342 C1341 1.334 . S
C1342 C1343 1.287 . S
C1343 C1342 1.287 . S
C1343 C1344 1.524 . S
C1343 H1346 0.999 . S
C1344 H1314 0.950 1_556 S
C1344 C1343 1.524 . S
C1344 C1345 1.415 . S
C1345 H1315 0.950 . S
C1345 C1340 1.363 . S
C1345 C1344 1.415 . S
H1346 C1343 0.999 . S
H1347 C1328 0.913 . S
H1348 C1366 0.951 . S
H1349 C1368 0.951 . S
H1350 C1370 0.950 . S
H1351 C1371 0.950 . S
H1352 C1373 0.950 . S
H1353 C1376 0.950 . S
H1354 C1377 0.950 . S
H1355 C1379 0.950 . S
H1356 C1380 0.950 . S
H1357 C1381 0.951 . S
H1358 C1383 0.951 . S
H1359 C1385 0.950 . S
H1360 C1386 0.950 . S
H1361 C1388 0.950 . S
H1362 C1391 0.950 . S
H1363 C1392 0.950 . S
H1364 C1394 0.950 . S
H1365 C1395 0.950 . S
C1366 H1348 0.951 . S
C1366 C1367 1.366 . S
C1366 C1368 1.388 . S
C1367 C1366 1.366 . S
C1367 C1371 1.385 . S
C1368 H1349 0.951 . S
C1368 C1366 1.388 . S
C1368 C1369 1.366 . S
C1369 C1368 1.366 . S
C1369 C1370 1.414 . S
C1369 C1372 1.499 . S
C1370 H1350 0.950 . S
C1370 C1369 1.414 . S
C1370 C1371 1.374 . S
C1371 H1351 0.950 . S
C1371 C1367 1.385 . S
C1371 C1370 1.374 . S
C1372 C1369 1.499 . S
C1372 C1373 1.373 . S
C1372 C1374 1.389 . S
C1373 H1352 0.950 . S
C1373 C1372 1.373 . S
C1373 C1389 1.377 . S
C1374 C1372 1.389 . S
C1374 C1375 1.524 . S
C1374 C1388 1.377 . S
C1375 C1374 1.524 . S
C1375 C1376 1.397 . S
C1375 C1380 1.363 . S
C1376 H1353 0.950 . S
C1376 C1375 1.397 . S
C1376 C1377 1.334 . S
C1377 H1354 0.950 . S
C1377 C1376 1.334 . S
C1377 C1378 1.287 . S
C1378 C1377 1.287 . S
C1378 C1379 1.524 . S
C1378 H1397 0.913 1_554 S
C1379 H1355 0.950 . S
C1379 C1378 1.524 . S
C1379 C1380 1.415 . S
C1380 H1356 0.950 . S
C1380 C1375 1.363 . S
C1380 C1379 1.415 . S
C1381 H1357 0.951 . S
C1381 C1382 1.366 1_554 S
C1381 C1383 1.388 . S
C1382 C1381 1.366 1_556 S
C1382 C1386 1.385 1_556 S
C1383 H1358 0.951 . S
C1383 C1381 1.388 . S
C1383 C1384 1.366 . S
C1384 C1383 1.366 . S
C1384 C1385 1.414 . S
C1384 C1387 1.499 . S
C1385 H1359 0.950 . S
C1385 C1384 1.414 . S
C1385 C1386 1.374 . S
C1386 H1360 0.950 . S
C1386 C1382 1.385 1_554 S
C1386 C1385 1.374 . S
C1387 C1384 1.499 . S
C1387 C1388 1.373 . S
C1387 C1389 1.389 . S
C1388 H1361 0.950 . S
C1388 C1374 1.377 . S
C1388 C1387 1.373 . S
C1389 C1373 1.377 . S
C1389 C1387 1.389 . S
C1389 C1390 1.524 . S
C1390 C1389 1.524 . S
C1390 C1391 1.397 . S
C1390 C1395 1.363 . S
C1391 H1362 0.950 . S
C1391 C1390 1.397 . S
C1391 C1392 1.334 . S
C1392 H1363 0.950 . S
C1392 C1391 1.334 . S
C1392 C1393 1.287 . S
C1393 C1392 1.287 . S
C1393 C1394 1.524 . S
C1393 H1396 0.999 . S
C1394 H1364 0.950 . S
C1394 C1393 1.524 . S
C1394 C1395 1.415 . S
C1395 H1365 0.950 . S
C1395 C1390 1.363 . S
C1395 C1394 1.415 . S
H1396 C1393 0.999 . S
H1397 C1378 0.913 1_556 S
H1398 C1416 0.951 . S
H1399 C1418 0.951 . S
H1400 C1420 0.950 . S
H1401 C1421 0.950 . S
H1402 C1423 0.950 . S
H1403 C1426 0.950 . S
H1404 C1427 0.950 . S
H1405 C1429 0.950 . S
H1406 C1430 0.950 . S
H1407 C1431 0.951 . S
H1408 C1433 0.951 . S
H1409 C1435 0.950 . S
H1410 C1436 0.950 . S
H1411 C1438 0.950 . S
H1412 C1441 0.950 . S
H1413 C1442 0.950 . S
H1414 C1444 0.950 1_554 S
H1415 C1445 0.950 . S
C1416 H1398 0.951 . S
C1416 C1417 1.366 . S
C1416 C1418 1.388 . S
C1417 C1416 1.366 . S
C1417 C1421 1.385 . S
C1418 H1399 0.951 . S
C1418 C1416 1.388 . S
C1418 C1419 1.366 . S
C1419 C1418 1.366 . S
C1419 C1420 1.414 . S
C1419 C1422 1.499 . S
C1420 H1400 0.950 . S
C1420 C1419 1.414 . S
C1420 C1421 1.374 . S
C1421 H1401 0.950 . S
C1421 C1417 1.385 . S
C1421 C1420 1.374 . S
C1422 C1419 1.499 . S
C1422 C1423 1.373 . S
C1422 C1424 1.389 . S
C1423 H1402 0.950 . S
C1423 C1422 1.373 . S
C1423 C1439 1.377 . S
C1424 C1422 1.389 . S
C1424 C1425 1.524 . S
C1424 C1438 1.377 . S
C1425 C1424 1.524 . S
C1425 C1426 1.397 . S
C1425 C1430 1.363 . S
C1426 H1403 0.950 . S
C1426 C1425 1.397 . S
C1426 C1427 1.334 . S
C1427 H1404 0.950 . S
C1427 C1426 1.334 . S
C1427 C1428 1.287 . S
C1428 C1427 1.287 . S
C1428 C1429 1.524 . S
C1428 H1447 0.913 . S
C1429 H1405 0.950 . S
C1429 C1428 1.524 . S
C1429 C1430 1.415 . S
C1430 H1406 0.950 . S
C1430 C1425 1.363 . S
C1430 C1429 1.415 . S
C1431 H1407 0.951 . S
C1431 C1432 1.366 . S
C1431 C1433 1.388 . S
C1432 C1431 1.366 . S
C1432 C1436 1.385 . S
C1433 H1408 0.951 . S
C1433 C1431 1.388 . S
C1433 C1434 1.366 . S
C1434 C1433 1.366 . S
C1434 C1435 1.414 . S
C1434 C1437 1.499 . S
C1435 H1409 0.950 . S
C1435 C1434 1.414 . S
C1435 C1436 1.374 . S
C1436 H1410 0.950 . S
C1436 C1432 1.385 . S
C1436 C1435 1.374 . S
C1437 C1434 1.499 . S
C1437 C1438 1.373 . S
C1437 C1439 1.389 . S
C1438 H1411 0.950 . S
C1438 C1424 1.377 . S
C1438 C1437 1.373 . S
C1439 C1423 1.377 . S
C1439 C1437 1.389 . S
C1439 C1440 1.524 . S
C1440 C1439 1.524 . S
C1440 C1441 1.397 . S
C1440 C1445 1.363 . S
C1441 H1412 0.950 . S
C1441 C1440 1.397 . S
C1441 C1442 1.334 . S
C1442 H1413 0.950 . S
C1442 C1441 1.334 . S
C1442 C1443 1.287 . S
C1443 C1442 1.287 . S
C1443 C1444 1.524 . S
C1443 H1446 0.999 . S
C1444 H1414 0.950 1_556 S
C1444 C1443 1.524 . S
C1444 C1445 1.415 . S
C1445 H1415 0.950 . S
C1445 C1440 1.363 . S
C1445 C1444 1.415 . S
H1446 C1443 0.999 . S
H1447 C1428 0.913 . S
H1448 C1466 0.951 . S
H1449 C1468 0.951 . S
H1450 C1470 0.950 . S
H1451 C1471 0.950 . S
H1452 C1473 0.950 . S
H1453 C1476 0.950 . S
H1454 C1477 0.950 . S
H1455 C1479 0.950 . S
H1456 C1480 0.950 . S
H1457 C1481 0.951 . S
H1458 C1483 0.951 . S
H1459 C1485 0.950 1_455 S
H1460 C1486 0.950 . S
H1461 C1488 0.950 . S
H1462 C1491 0.950 . S
H1463 C1492 0.950 . S
H1464 C1494 0.950 . S
H1465 C1495 0.950 . S
C1466 H1448 0.951 . S
C1466 C1467 1.366 . S
C1466 C1468 1.388 . S
C1467 C1466 1.366 . S
C1467 C1471 1.385 . S
C1468 H1449 0.951 . S
C1468 C1466 1.388 . S
C1468 C1469 1.366 . S
C1469 C1468 1.366 . S
C1469 C1470 1.414 . S
C1469 C1472 1.499 . S
C1470 H1450 0.950 . S
C1470 C1469 1.414 . S
C1470 C1471 1.374 . S
C1471 H1451 0.950 . S
C1471 C1467 1.385 . S
C1471 C1470 1.374 . S
C1472 C1469 1.499 . S
C1472 C1473 1.373 . S
C1472 C1474 1.389 . S
C1473 H1452 0.950 . S
C1473 C1472 1.373 . S
C1473 C1489 1.377 . S
C1474 C1472 1.389 . S
C1474 C1475 1.524 . S
C1474 C1488 1.377 . S
C1475 C1474 1.524 . S
C1475 C1476 1.397 . S
C1475 C1480 1.363 1_655 S
C1476 H1453 0.950 . S
C1476 C1475 1.397 . S
C1476 C1477 1.334 . S
C1477 H1454 0.950 . S
C1477 C1476 1.334 . S
C1477 C1478 1.287 1_655 S
C1478 C1477 1.287 1_455 S
C1478 C1479 1.524 . S
C1478 H1497 0.913 . S
C1479 H1455 0.950 . S
C1479 C1478 1.524 . S
C1479 C1480 1.415 . S
C1480 H1456 0.950 . S
C1480 C1475 1.363 1_455 S
C1480 C1479 1.415 . S
C1481 H1457 0.951 . S
C1481 C1482 1.366 . S
C1481 C1483 1.388 . S
C1482 C1481 1.366 . S
C1482 C1486 1.385 1_655 S
C1483 H1458 0.951 . S
C1483 C1481 1.388 . S
C1483 C1484 1.366 . S
C1484 C1483 1.366 . S
C1484 C1485 1.414 . S
C1484 C1487 1.499 . S
C1485 H1459 0.950 1_655 S
C1485 C1484 1.414 . S
C1485 C1486 1.374 1_655 S
C1486 H1460 0.950 . S
C1486 C1482 1.385 1_455 S
C1486 C1485 1.374 1_455 S
C1487 C1484 1.499 . S
C1487 C1488 1.373 . S
C1487 C1489 1.389 . S
C1488 H1461 0.950 . S
C1488 C1474 1.377 . S
C1488 C1487 1.373 . S
C1489 C1473 1.377 . S
C1489 C1487 1.389 . S
C1489 C1490 1.524 . S
C1490 C1489 1.524 . S
C1490 C1491 1.397 . S
C1490 C1495 1.363 . S
C1491 H1462 0.950 . S
C1491 C1490 1.397 . S
C1491 C1492 1.334 . S
C1492 H1463 0.950 . S
C1492 C1491 1.334 . S
C1492 C1493 1.287 . S
C1493 C1492 1.287 . S
C1493 C1494 1.524 . S
C1493 H1496 0.999 . S
C1494 H1464 0.950 . S
C1494 C1493 1.524 . S
C1494 C1495 1.415 . S
C1495 H1465 0.950 . S
C1495 C1490 1.363 . S
C1495 C1494 1.415 . S
H1496 C1493 0.999 . S
H1497 C1478 0.913 . S
H1498 C1516 0.951 . S
H1499 C1518 0.951 . S
H1500 C1520 0.950 . S
H1501 C1521 0.950 . S
H1502 C1523 0.950 . S
H1503 C1526 0.950 . S
H1504 C1527 0.950 . S
H1505 C1529 0.950 . S
H1506 C1530 0.950 . S
H1507 C1531 0.951 . S
H1508 C1533 0.951 . S
H1509 C1535 0.950 . S
H1510 C1536 0.950 . S
H1511 C1538 0.950 . S
H1512 C1541 0.950 . S
H1513 C1542 0.950 . S
H1514 C1544 0.950 . S
H1515 C1545 0.950 . S
C1516 H1498 0.951 . S
C1516 C1517 1.355 1_545 S
C1516 C1518 1.388 . S
C1517 C1516 1.355 1_565 S
C1517 C1521 1.396 . S
C1518 H1499 0.951 . S
C1518 C1516 1.388 . S
C1518 C1519 1.360 1_545 S
C1519 C1518 1.360 1_565 S
C1519 C1520 1.420 . S
C1519 C1522 1.497 . S
C1520 H1500 0.950 . S
C1520 C1519 1.420 . S
C1520 C1521 1.374 . S
C1521 H1501 0.950 . S
C1521 C1517 1.396 . S
C1521 C1520 1.374 . S
C1522 C1519 1.497 . S
C1522 C1523 1.419 . S
C1522 C1524 1.349 1_565 S
C1523 H1502 0.950 . S
C1523 C1522 1.419 . S
C1523 C1539 1.377 . S
C1524 C1522 1.349 1_545 S
C1524 C1525 1.524 . S
C1524 C1538 1.377 . S
C1525 C1524 1.524 . S
C1525 C1526 1.397 . S
C1525 C1530 1.363 . S
C1526 H1503 0.950 . S
C1526 C1525 1.397 . S
C1526 C1527 1.334 . S
C1527 H1504 0.950 . S
C1527 C1526 1.334 . S
C1527 C1528 1.287 . S
C1528 C1527 1.287 . S
C1528 C1529 1.524 . S
C1528 H1547 0.913 . S
C1529 H1505 0.950 . S
C1529 C1528 1.524 . S
C1529 C1530 1.415 . S
C1530 H1506 0.950 . S
C1530 C1525 1.363 . S
C1530 C1529 1.415 . S
C1531 H1507 0.951 . S
C1531 C1532 1.366 . S
C1531 C1533 1.388 . S
C1532 C1531 1.366 . S
C1532 C1536 1.385 1_565 S
C1533 H1508 0.951 . S
C1533 C1531 1.388 . S
C1533 C1534 1.366 . S
C1534 C1533 1.366 . S
C1534 C1535 1.414 1_565 S
C1534 C1537 1.499 . S
C1535 H1509 0.950 . S
C1535 C1534 1.414 1_545 S
C1535 C1536 1.374 . S
C1536 H1510 0.950 . S
C1536 C1532 1.385 1_545 S
C1536 C1535 1.374 . S
C1537 C1534 1.499 . S
C1537 C1538 1.373 1_565 S
C1537 C1539 1.389 . S
C1538 H1511 0.950 . S
C1538 C1524 1.377 . S
C1538 C1537 1.373 1_545 S
C1539 C1523 1.377 . S
C1539 C1537 1.389 . S
C1539 C1540 1.524 . S
C1540 C1539 1.524 . S
C1540 C1541 1.397 . S
C1540 C1545 1.363 . S
C1541 H1512 0.950 . S
C1541 C1540 1.397 . S
C1541 C1542 1.334 . S
C1542 H1513 0.950 . S
C1542 C1541 1.334 . S
C1542 C1543 1.287 . S
C1543 C1542 1.287 . S
C1543 C1544 1.524 . S
C1543 H1546 0.999 . S
C1544 H1514 0.950 . S
C1544 C1543 1.524 . S
C1544 C1545 1.415 . S
C1545 H1515 0.950 . S
C1545 C1540 1.363 . S
C1545 C1544 1.415 . S
H1546 C1543 0.999 . S
H1547 C1528 0.913 . S
H1548 C1566 0.951 . S
H1549 C1568 0.951 . S
H1550 C1570 0.950 . S
H1551 C1571 0.950 . S
H1552 C1573 0.950 . S
H1553 C1576 0.950 . S
H1554 C1577 0.950 . S
H1555 C1579 0.950 . S
H1556 C1580 0.950 . S
H1557 C1581 0.951 . S
H1558 C1583 0.951 . S
H1559 C1585 0.950 . S
H1560 C1586 0.950 . S
H1561 C1588 0.950 . S
H1562 C1591 0.950 . S
H1563 C1592 0.950 . S
H1564 C1594 0.950 . S
H1565 C1595 0.950 . S
C1566 H1548 0.951 . S
C1566 C1567 1.366 . S
C1566 C1568 1.388 . S
C1567 C1566 1.366 . S
C1567 C1571 1.385 . S
C1568 H1549 0.951 . S
C1568 C1566 1.388 . S
C1568 C1569 1.366 . S
C1569 C1568 1.366 . S
C1569 C1570 1.414 . S
C1569 C1572 1.499 . S
C1570 H1550 0.950 . S
C1570 C1569 1.414 . S
C1570 C1571 1.374 . S
C1571 H1551 0.950 . S
C1571 C1567 1.385 . S
C1571 C1570 1.374 . S
C1572 C1569 1.499 . S
C1572 C1573 1.373 . S
C1572 C1574 1.389 . S
C1573 H1552 0.950 . S
C1573 C1572 1.373 . S
C1573 C1589 1.377 . S
C1574 C1572 1.389 . S
C1574 C1575 1.524 . S
C1574 C1588 1.377 . S
C1575 C1574 1.524 . S
C1575 C1576 1.397 . S
C1575 C1580 1.363 . S
C1576 H1553 0.950 . S
C1576 C1575 1.397 . S
C1576 C1577 1.334 . S
C1577 H1554 0.950 . S
C1577 C1576 1.334 . S
C1577 C1578 1.287 . S
C1578 C1577 1.287 . S
C1578 C1579 1.524 . S
C1578 H1597 0.913 . S
C1579 H1555 0.950 . S
C1579 C1578 1.524 . S
C1579 C1580 1.415 . S
C1580 H1556 0.950 . S
C1580 C1575 1.363 . S
C1580 C1579 1.415 . S
C1581 H1557 0.951 . S
C1581 C1582 1.366 . S
C1581 C1583 1.388 . S
C1582 C1581 1.366 . S
C1582 C1586 1.385 . S
C1583 H1558 0.951 . S
C1583 C1581 1.388 . S
C1583 C1584 1.366 . S
C1584 C1583 1.366 . S
C1584 C1585 1.414 . S
C1584 C1587 1.499 . S
C1585 H1559 0.950 . S
C1585 C1584 1.414 . S
C1585 C1586 1.374 . S
C1586 H1560 0.950 . S
C1586 C1582 1.385 . S
C1586 C1585 1.374 . S
C1587 C1584 1.499 . S
C1587 C1588 1.373 . S
C1587 C1589 1.389 . S
C1588 H1561 0.950 . S
C1588 C1574 1.377 . S
C1588 C1587 1.373 . S
C1589 C1573 1.377 . S
C1589 C1587 1.389 . S
C1589 C1590 1.524 . S
C1590 C1589 1.524 . S
C1590 C1591 1.397 . S
C1590 C1595 1.363 . S
C1591 H1562 0.950 . S
C1591 C1590 1.397 . S
C1591 C1592 1.334 . S
C1592 H1563 0.950 . S
C1592 C1591 1.334 . S
C1592 C1593 1.287 . S
C1593 C1592 1.287 . S
C1593 C1594 1.524 . S
C1593 H1596 0.999 . S
C1594 H1564 0.950 . S
C1594 C1593 1.524 . S
C1594 C1595 1.415 . S
C1595 H1565 0.950 . S
C1595 C1590 1.363 . S
C1595 C1594 1.415 . S
H1596 C1593 0.999 . S
H1597 C1578 0.913 . S
H1598 C1616 0.951 . S
H1599 C1618 0.951 . S
H1600 C1620 0.950 . S
H1601 C1621 0.950 . S
H1602 C1623 0.950 . S
H1603 C1626 0.950 . S
H1604 C1627 0.950 . S
H1605 C1629 0.950 . S
H1606 C1630 0.950 . S
H1607 C1631 0.951 . S
H1608 C1633 0.951 . S
H1609 C1635 0.950 . S
H1610 C1636 0.950 . S
H1611 C1638 0.950 . S
H1612 C1641 0.950 . S
H1613 C1642 0.950 . S
H1614 C1644 0.950 . S
H1615 C1645 0.950 . S
C1616 H1598 0.951 . S
C1616 C1617 1.366 . S
C1616 C1618 1.388 . S
C1617 C1616 1.366 . S
C1617 C1621 1.385 . S
C1618 H1599 0.951 . S
C1618 C1616 1.388 . S
C1618 C1619 1.366 . S
C1619 C1618 1.366 . S
C1619 C1620 1.414 . S
C1619 C1622 1.499 . S
C1620 H1600 0.950 . S
C1620 C1619 1.414 . S
C1620 C1621 1.374 . S
C1621 H1601 0.950 . S
C1621 C1617 1.385 . S
C1621 C1620 1.374 . S
C1622 C1619 1.499 . S
C1622 C1623 1.373 . S
C1622 C1624 1.389 . S
C1623 H1602 0.950 . S
C1623 C1622 1.373 . S
C1623 C1639 1.377 . S
C1624 C1622 1.389 . S
C1624 C1625 1.524 . S
C1624 C1638 1.377 . S
C1625 C1624 1.524 . S
C1625 C1626 1.397 . S
C1625 C1630 1.363 . S
C1626 H1603 0.950 . S
C1626 C1625 1.397 . S
C1626 C1627 1.334 . S
C1627 H1604 0.950 . S
C1627 C1626 1.334 . S
C1627 C1628 1.287 . S
C1628 C1627 1.287 . S
C1628 C1629 1.524 . S
C1628 H1647 0.913 . S
C1629 H1605 0.950 . S
C1629 C1628 1.524 . S
C1629 C1630 1.415 . S
C1630 H1606 0.950 . S
C1630 C1625 1.363 . S
C1630 C1629 1.415 . S
C1631 H1607 0.951 . S
C1631 C1632 1.366 . S
C1631 C1633 1.388 . S
C1632 C1631 1.366 . S
C1632 C1636 1.385 . S
C1633 H1608 0.951 . S
C1633 C1631 1.388 . S
C1633 C1634 1.366 . S
C1634 C1633 1.366 . S
C1634 C1635 1.414 . S
C1634 C1637 1.499 . S
C1635 H1609 0.950 . S
C1635 C1634 1.414 . S
C1635 C1636 1.374 . S
C1636 H1610 0.950 . S
C1636 C1632 1.385 . S
C1636 C1635 1.374 . S
C1637 C1634 1.499 . S
C1637 C1638 1.373 . S
C1637 C1639 1.389 . S
C1638 H1611 0.950 . S
C1638 C1624 1.377 . S
C1638 C1637 1.373 . S
C1639 C1623 1.377 . S
C1639 C1637 1.389 . S
C1639 C1640 1.524 . S
C1640 C1639 1.524 . S
C1640 C1641 1.397 . S
C1640 C1645 1.363 . S
C1641 H1612 0.950 . S
C1641 C1640 1.397 . S
C1641 C1642 1.334 . S
C1642 H1613 0.950 . S
C1642 C1641 1.334 . S
C1642 C1643 1.287 . S
C1643 C1642 1.287 . S
C1643 C1644 1.524 . S
C1643 H1646 0.999 . S
C1644 H1614 0.950 . S
C1644 C1643 1.524 . S
C1644 C1645 1.415 . S
C1645 H1615 0.950 . S
C1645 C1640 1.363 . S
C1645 C1644 1.415 . S
H1646 C1643 0.999 . S
H1647 C1628 0.913 . S
C467 C241 1.854 1_565 S
C482 C311 1.997 . S
C532 C351 1.560 . S
C517 C277 1.507 . S
C582 C370 2.074 . S
C567 C169 1.914 . S
C632 C431 1.645 . S
C617 C205 1.549 . S
C682 C290 1.997 . S
C667 C97 1.852 . S
C717 C133 1.552 . S
C732 C330 1.567 . S
C767 C25 1.929 . S
C782 C391 2.074 . S
C817 C61 1.513 . S
C832 C410 1.645 1_655 S
C882 C292 0.529 . S
C867 C211 0.486 . S
C932 C332 0.349 . S
C917 C247 0.319 . S
C982 C388 0.533 . S
C967 C253 0.613 . S
C1017 C175 0.279 . S
C1032 C412 0.272 . S
C1067 C67 0.549 . S
C1082 C313 0.530 . S
C1132 C353 0.350 . S
C1117 C103 0.395 1_565 S
C1182 C399 0.533 . S
C1167 C109 0.584 . S
C1217 C31 0.292 . S
C1232 C433 0.272 . S
C1267 C181 2.200 1_556 S
C1282 C308 2.383 . S
C1317 C217 2.637 . S
C1332 C348 2.875 . S
C1382 C372 1.851 . S
C1367 C283 1.756 . S
C1432 C428 2.835 . S
C1417 C145 2.594 . S
C1467 C37 2.174 . S
C1482 C319 2.395 . S
C1532 C359 2.876 . S
C1517 C73 2.633 1_565 S
C1582 C393 1.851 . S
C1567 C139 1.769 . S
C1617 C1 2.613 . S
C1632 C439 2.834 . S
