# Generated by pormake.
# Topology pyr, (3,6)-cn, num edge types: 1
# Building blocks:
#     Node 0, Type 0, BuildingBlock: ESEHIV_clean_linker_0, # of connection points: 3
#     Node 1, Type 0, BuildingBlock: ESEHIV_clean_linker_0, # of connection points: 3
#     Node 2, Type 0, BuildingBlock: ESEHIV_clean_linker_0, # of connection points: 3
#     Node 3, Type 0, BuildingBlock: ESEHIV_clean_linker_0, # of connection points: 3
#     Node 4, Type 0, BuildingBlock: ESEHIV_clean_linker_0, # of connection points: 3
#     Node 5, Type 0, BuildingBlock: ESEHIV_clean_linker_0, # of connection points: 3
#     Node 6, Type 0, BuildingBlock: ESEHIV_clean_linker_0, # of connection points: 3
#     Node 7, Type 0, BuildingBlock: ESEHIV_clean_linker_0, # of connection points: 3
#     Node 8, Type 1, BuildingBlock: FUNLAD_clean_sbu_0, # of connection points: 6
#     Node 9, Type 1, BuildingBlock: FUNLAD_clean_sbu_0, # of connection points: 6
#     Node 10, Type 1, BuildingBlock: FUNLAD_clean_sbu_0, # of connection points: 6
#     Node 11, Type 1, BuildingBlock: FUNLAD_clean_sbu_0, # of connection points: 6
#     Edge 12, Type (0, 1), BuildingBlock: UVAHIK_clean_linker_0, # of connection points: 2
#     Edge 13, Type (0, 1), BuildingBlock: UVAHIK_clean_linker_0, # of connection points: 2
#     Edge 14, Type (0, 1), BuildingBlock: UVAHIK_clean_linker_0, # of connection points: 2
#     Edge 15, Type (0, 1), BuildingBlock: UVAHIK_clean_linker_0, # of connection points: 2
#     Edge 16, Type (0, 1), BuildingBlock: UVAHIK_clean_linker_0, # of connection points: 2
#     Edge 17, Type (0, 1), BuildingBlock: UVAHIK_clean_linker_0, # of connection points: 2
#     Edge 18, Type (0, 1), BuildingBlock: UVAHIK_clean_linker_0, # of connection points: 2
#     Edge 19, Type (0, 1), BuildingBlock: UVAHIK_clean_linker_0, # of connection points: 2
#     Edge 20, Type (0, 1), BuildingBlock: UVAHIK_clean_linker_0, # of connection points: 2
#     Edge 21, Type (0, 1), BuildingBlock: UVAHIK_clean_linker_0, # of connection points: 2
#     Edge 22, Type (0, 1), BuildingBlock: UVAHIK_clean_linker_0, # of connection points: 2
#     Edge 23, Type (0, 1), BuildingBlock: UVAHIK_clean_linker_0, # of connection points: 2
#     Edge 24, Type (0, 1), BuildingBlock: UVAHIK_clean_linker_0, # of connection points: 2
#     Edge 25, Type (0, 1), BuildingBlock: UVAHIK_clean_linker_0, # of connection points: 2
#     Edge 26, Type (0, 1), BuildingBlock: UVAHIK_clean_linker_0, # of connection points: 2
#     Edge 27, Type (0, 1), BuildingBlock: UVAHIK_clean_linker_0, # of connection points: 2
#     Edge 28, Type (0, 1), BuildingBlock: UVAHIK_clean_linker_0, # of connection points: 2
#     Edge 29, Type (0, 1), BuildingBlock: UVAHIK_clean_linker_0, # of connection points: 2
#     Edge 30, Type (0, 1), BuildingBlock: UVAHIK_clean_linker_0, # of connection points: 2
#     Edge 31, Type (0, 1), BuildingBlock: UVAHIK_clean_linker_0, # of connection points: 2
#     Edge 32, Type (0, 1), BuildingBlock: UVAHIK_clean_linker_0, # of connection points: 2
#     Edge 33, Type (0, 1), BuildingBlock: UVAHIK_clean_linker_0, # of connection points: 2
#     Edge 34, Type (0, 1), BuildingBlock: UVAHIK_clean_linker_0, # of connection points: 2
#     Edge 35, Type (0, 1), BuildingBlock: UVAHIK_clean_linker_0, # of connection points: 2
# Relax obj value: 0.055
# Max RMSD: 0.062
# Mean RMSD: 0.029
data_MOF--net-pry--node1-FUNLAD_clean_sbu_0--node2-ESEHIV_clean_linker_0--edge1-UVAHIK_clean_linker_0
_symmetry_space_group_name_H-M    P1
_symmetry_Int_Tables_number       1
_symmetry_cell_setting            triclinic
loop_
_symmetry_equiv_pos_as_xyz
'x, y, z'
_cell_length_a     44.421422
_cell_length_b     47.041544
_cell_length_c     47.272522
_cell_angle_alpha  90.248303
_cell_angle_beta   90.024532
_cell_angle_gamma 85.90345
loop_
_atom_site_label
_atom_site_type_symbol
_atom_site_fract_x
_atom_site_fract_y
_atom_site_fract_z
_atom_type_partial_charge
H0 H 0.10817 0.19387 0.20452 0.0
H1 H 0.17614 0.12404 0.20041 0.0
H2 H 0.17714 0.19292 0.14078 0.0
C3 C 0.12809 0.18352 0.19467 0.0
C4 C 0.14094 0.19628 0.17105 0.0
C5 C 0.1409 0.15756 0.20568 0.0
C6 C 0.16655 0.14418 0.19229 0.0
C7 C 0.17997 0.15659 0.16874 0.0
C8 C 0.16701 0.18282 0.1586 0.0
H9 H 0.3378 0.89783 0.70141 0.0
H10 H 0.40853 0.83034 0.70356 0.0
H11 H 0.34165 0.83207 0.63773 0.0
C12 C 0.34889 0.87876 0.69213 0.0
C13 C 0.33638 0.86661 0.66792 0.0
C14 C 0.37497 0.86598 0.70518 0.0
C15 C 0.38855 0.84046 0.69367 0.0
C16 C 0.37636 0.82785 0.66952 0.0
C17 C 0.35048 0.84124 0.65681 0.0
H18 H 0.63507 0.42117 0.99234 0.0
H19 H 0.62565 0.4789 0.92206 0.0
H20 H 0.55876 0.41913 0.9368 0.0
C21 C 0.62178 0.43035 0.97498 0.0
C22 C 0.59509 0.41817 0.96703 0.0
C23 C 0.63282 0.45249 0.95901 0.0
C24 C 0.61651 0.46279 0.93523 0.0
C25 C 0.58984 0.45071 0.92701 0.0
C26 C 0.57878 0.42915 0.94363 0.0
H27 H 0.87997 0.60782 0.4937 0.0
H28 H 0.9555 0.60261 0.43684 0.0
H29 H 0.88418 0.54635 0.42615 0.0
C30 C 0.89248 0.59711 0.47655 0.0
C31 C 0.87998 0.57465 0.4621 0.0
C32 C 0.91978 0.60728 0.46758 0.0
C33 C 0.93504 0.59406 0.44457 0.0
C34 C 0.92218 0.57245 0.4291 0.0
C35 C 0.89505 0.56212 0.43858 0.0
H36 H 0.83869 0.89799 0.82504 0.0
H37 H 0.90927 0.83021 0.82356 0.0
H38 H 0.84216 0.83385 0.88948 0.0
C39 C 0.84954 0.8788 0.83417 0.0
C40 C 0.83758 0.86769 0.85899 0.0
C41 C 0.87539 0.86549 0.8211 0.0
C42 C 0.88911 0.84035 0.83317 0.0
C43 C 0.87763 0.82895 0.85824 0.0
C44 C 0.85179 0.84283 0.87076 0.0
H45 H 0.60742 0.1903 0.32403 0.0
H46 H 0.67886 0.12344 0.32665 0.0
H47 H 0.67369 0.18866 0.39065 0.0
C48 C 0.62759 0.18057 0.33392 0.0
C49 C 0.63861 0.19257 0.35896 0.0
C50 C 0.6418 0.15543 0.32216 0.0
C51 C 0.66763 0.14264 0.33558 0.0
C52 C 0.67912 0.15433 0.36043 0.0
C53 C 0.66443 0.17921 0.3719 0.0
H54 H 0.37937 0.6071 0.02696 0.0
H55 H 0.37418 0.55833 0.10354 0.0
H56 H 0.44827 0.61042 0.09037 0.0
C57 C 0.38898 0.5998 0.04695 0.0
C58 C 0.41584 0.61062 0.05645 0.0
C59 C 0.3738 0.58069 0.06366 0.0
C60 C 0.38639 0.57183 0.08976 0.0
C61 C 0.41326 0.58251 0.09944 0.0
C62 C 0.42809 0.60142 0.08244 0.0
H63 H 0.06781 0.42417 0.60002 0.0
H64 H 0.13557 0.41467 0.53543 0.0
H65 H 0.13691 0.4836 0.59513 0.0
C66 C 0.08642 0.4327 0.58882 0.0
C67 C 0.1 0.45644 0.5999 0.0
C68 C 0.09905 0.41755 0.56558 0.0
C69 C 0.12501 0.42687 0.55273 0.0
C70 C 0.13868 0.45068 0.5633 0.0
C71 C 0.12565 0.46586 0.58636 0.0
C72 C 0.03387 0.0311 0.46379 0.0
N73 N 0.01756 0.07161 0.54201 0.0
C74 C 0.04445 0.08268 0.53689 0.0
C75 C 0.0488 0.11075 0.5442 0.0
C76 C 0.0253 0.12772 0.55706 0.0
C77 C 0.9982 0.11536 0.56329 0.0
C78 C 0.99477 0.08707 0.55549 0.0
Zn79 Zn 0.01126 0.0328 0.52491 0.0
C80 C 0.95232 0.03297 0.49417 0.0
N81 N 0.99982 0.95293 0.48612 0.0
C82 C 0.02287 0.93719 0.47332 0.0
C83 C 0.97275 0.94205 0.49086 0.0
C84 C 0.96845 0.91389 0.48383 0.0
C85 C 0.99222 0.89666 0.47177 0.0
C86 C 0.01954 0.90879 0.46593 0.0
Zn87 Zn 0.00611 0.99175 0.50312 0.0
O88 O 0.03059 0.04649 0.48593 0.0
C89 C 0.06501 0.99153 0.53388 0.0
O90 O 0.0258 1.00568 0.46454 0.0
H91 H 0.95485 0.95483 0.50134 0.0
H92 H 0.06217 0.0701 0.52593 0.0
H93 H 0.04422 0.94632 0.46984 0.0
O94 O 0.05476 0.01678 0.53983 0.0
O95 O 0.04934 0.97613 0.51834 0.0
H96 H 0.97356 0.0778 0.55928 0.0
O97 O 0.98669 0.97808 0.5419 0.0
O98 O 0.99162 0.01871 0.56358 0.0
O99 O 0.96274 0.00779 0.48813 0.0
O100 O 0.96787 0.04841 0.50979 0.0
C101 C 0.98347 0.99331 0.56414 0.0
H102 H 0.06988 0.11943 0.53847 0.0
H103 H 0.97962 0.12758 0.57345 0.0
H104 H 0.94718 0.90535 0.48918 0.0
H105 H 0.03832 0.8963 0.4564 0.0
C106 C 0.56434 0.99093 0.99254 0.0
N107 N 0.51681 0.07126 0.98827 0.0
C108 C 0.54406 0.08152 0.99379 0.0
C109 C 0.54895 0.1098 0.98818 0.0
C110 C 0.52561 0.12787 0.97668 0.0
C111 C 0.49801 0.11649 0.97015 0.0
C112 C 0.49407 0.08791 0.97616 0.0
Zn113 Zn 0.51032 0.03166 1.00308 0.0
C114 C 0.48249 0.99406 0.9629 0.0
N115 N 0.49975 0.95041 0.03859 0.0
C116 C 0.52321 0.93358 0.04929 0.0
C117 C 0.47309 0.93958 0.03179 0.0
C118 C 0.47014 0.91039 0.03323 0.0
C119 C 0.49471 0.89231 0.04211 0.0
C120 C 0.52106 0.90415 0.05144 0.0
Zn121 Zn 0.50595 0.99026 0.02421 0.0
O122 O 0.55395 0.01629 0.98747 0.0
C123 C 0.5338 0.0279 0.06434 0.0
O124 O 0.54887 0.97515 1.00771 0.0
H125 H 0.4548 0.95331 0.0232 0.0
H126 H 0.5617 0.06806 1.00375 0.0
H127 H 0.54428 0.94265 0.0543 0.0
O128 O 0.52959 0.04369 0.04271 0.0
O129 O 0.52637 1.00228 0.0631 0.0
H130 H 0.47255 0.07929 0.97207 0.0
O131 O 0.46302 1.0059 0.04077 0.0
O132 O 0.46666 0.04638 0.01865 0.0
O133 O 0.48579 0.97858 0.98482 0.0
O134 O 0.49087 0.01935 0.96386 0.0
C135 C 0.45193 0.03083 0.03479 0.0
H136 H 0.57039 0.11771 0.99407 0.0
H137 H 0.47952 0.12963 0.96102 0.0
H138 H 0.44942 0.90184 0.02607 0.0
H139 H 0.54043 0.89065 0.05834 0.0
C140 C 0.52397 0.45737 0.49099 0.0
N141 N 0.52281 0.49014 0.57399 0.0
C142 C 0.50961 0.46793 0.58604 0.0
C143 C 0.51338 0.46242 0.61492 0.0
C144 C 0.53117 0.47974 0.63128 0.0
C145 C 0.54524 0.50188 0.61807 0.0
C146 C 0.54059 0.50683 0.58936 0.0
Zn147 Zn 0.51371 0.50235 0.53341 0.0
C148 C 0.56862 0.52368 0.50581 0.0
N149 N 0.49519 0.53364 0.45063 0.0
C150 C 0.47754 0.51658 0.43557 0.0
C151 C 0.50773 0.55607 0.43832 0.0
C152 C 0.50336 0.56146 0.40946 0.0
C153 C 0.48593 0.54357 0.3933 0.0
C154 C 0.47242 0.52131 0.40692 0.0
Zn155 Zn 0.50452 0.52155 0.49121 0.0
O156 O 0.52501 0.46043 0.51772 0.0
C157 C 0.44957 0.50031 0.51864 0.0
O158 O 0.51599 0.47891 0.47583 0.0
H159 H 0.52182 0.56926 0.45067 0.0
H160 H 0.49547 0.45501 0.57344 0.0
H161 H 0.46799 0.4987 0.44561 0.0
O162 O 0.4681 0.49282 0.53815 0.0
O163 O 0.45893 0.51262 0.49684 0.0
H164 H 0.55041 0.52472 0.57957 0.0
O165 O 0.49343 0.56366 0.50704 0.0
O166 O 0.502 0.54475 0.54882 0.0
O167 O 0.55 0.53088 0.48629 0.0
O168 O 0.55942 0.51158 0.52782 0.0
C169 C 0.4942 0.56644 0.53382 0.0
H170 H 0.50228 0.44504 0.62442 0.0
H171 H 0.55873 0.51599 0.63004 0.0
H172 H 0.51432 0.5788 0.39976 0.0
H173 H 0.45827 0.50736 0.39549 0.0
C174 C 0.98849 0.56469 0.99271 0.0
N175 N 0.98911 0.53086 0.07553 0.0
C176 C 1.00177 0.55307 0.08834 0.0
C177 C 0.99755 0.55803 0.11731 0.0
C178 C 0.97983 0.54017 0.13295 0.0
C179 C 0.96622 0.51812 0.11896 0.0
C180 C 0.97136 0.51368 0.09021 0.0
Zn181 Zn 0.99941 0.51913 0.03491 0.0
C182 C 0.94561 0.49685 1.00582 0.0
N183 N 0.02023 0.48938 0.95171 0.0
C184 C 0.0379 0.50674 0.93718 0.0
C185 C 0.0088 0.46644 0.93906 0.0
C186 C 0.01472 0.46054 0.91047 0.0
C187 C 0.03283 0.47827 0.89509 0.0
C188 C 0.04464 0.50146 0.90886 0.0
Zn189 Zn 0.00967 0.50125 0.99221 0.0
O190 O 0.98708 0.5612 0.01937 0.0
C191 C 0.06347 0.52362 0.02113 0.0
O192 O 0.9973 0.54353 0.97721 0.0
H193 H 0.99467 0.45303 0.95098 0.0
H194 H 0.01592 0.56637 0.0763 0.0
H195 H 0.04629 0.52519 0.94739 0.0
O196 O 0.04455 0.52972 0.04075 0.0
O197 O 0.05471 0.51175 0.99872 0.0
H198 H 0.96204 0.49576 0.07987 0.0
O199 O 0.02187 0.45905 1.00786 0.0
O200 O 0.01208 0.47712 0.04992 0.0
O201 O 0.96457 0.49094 0.98618 0.0
O202 O 0.95433 0.50841 0.02843 0.0
C203 C 0.02084 0.45584 0.03458 0.0
H204 H 0.0083 0.57535 0.12744 0.0
H205 H 0.95279 0.50363 0.13039 0.0
H206 H 0.00527 0.44241 0.9005 0.0
H207 H 0.05825 0.51592 0.8976 0.0
C208 C 0.11953 0.16136 0.25522 0.0
C209 C 0.12803 0.14452 0.23148 0.0
C210 C 0.10904 0.14893 0.27996 0.0
C211 C 0.108 0.07872 0.31696 0.0
H212 H 0.04682 0.11921 0.36318 0.0
C213 C 0.05087 0.02643 0.41281 0.0
C214 C 0.04578 0.04328 0.43726 0.0
C215 C 0.06103 0.03839 0.38767 0.0
C216 C 0.06414 0.10768 0.35068 0.0
H217 H 0.13108 0.10134 0.21502 0.0
H218 H 0.11235 0.07976 0.25773 0.0
H219 H 0.06337 0.14067 0.31957 0.0
H220 H 0.04775 0.08603 0.45425 0.0
H221 H 0.06535 0.10673 0.41063 0.0
H222 H 0.10842 0.04558 0.34804 0.0
C223 C 0.11452 0.10254 0.25765 0.0
C224 C 0.07373 0.12006 0.32559 0.0
C225 C 0.12519 0.11495 0.233 0.0
C226 C 0.05135 0.07234 0.43591 0.0
C227 C 0.06127 0.08431 0.41076 0.0
C228 C 0.09825 0.06627 0.34196 0.0
C229 C 0.10652 0.11927 0.28165 0.0
C230 C 0.09591 0.10584 0.30833 0.0
C231 C 0.06613 0.06757 0.38622 0.0
C232 C 0.07627 0.08061 0.35927 0.0
H233 H 0.12178 0.18413 0.25499 0.0
H234 H 0.10361 0.16259 0.298 0.0
H235 H 0.12549 0.06721 0.30466 0.0
H236 H 0.04679 1.004 0.41301 0.0
H237 H 0.06428 0.02486 0.36917 0.0
C238 C 0.39654 0.86251 0.75461 0.0
C239 C 0.38746 0.87921 0.73109 0.0
C240 C 0.40695 0.87519 0.77935 0.0
C241 C 0.40703 0.94556 0.81673 0.0
H242 H 0.46966 0.90621 0.86189 0.0
C243 C 0.46503 0.99874 0.91209 0.0
C244 C 0.4703 0.98194 0.9364 0.0
C245 C 0.45468 0.98669 0.88697 0.0
C246 C 0.45196 0.91741 0.84966 0.0
H247 H 0.38317 0.92237 0.71497 0.0
H248 H 0.40185 0.94438 0.75766 0.0
H249 H 0.45291 0.88434 0.81837 0.0
H250 H 0.46845 0.93923 0.9532 0.0
H251 H 0.45059 0.9184 0.90961 0.0
H252 H 0.40649 0.97881 0.84799 0.0
C253 C 0.40019 0.92153 0.75743 0.0
C254 C 0.44225 0.9048 0.82465 0.0
C255 C 0.38956 0.90888 0.73282 0.0
C256 C 0.46472 0.95288 0.93496 0.0
C257 C 0.45465 0.94083 0.90984 0.0
C258 C 0.41694 0.95826 0.84164 0.0
C259 C 0.40884 0.90494 0.78121 0.0
C260 C 0.41952 0.9186 0.80781 0.0
C261 C 0.44963 0.9575 0.88544 0.0
C262 C 0.43943 0.9443 0.85854 0.0
H263 H 0.39486 0.83966 0.75418 0.0
H264 H 0.41288 0.86164 0.79724 0.0
H265 H 0.38913 0.95673 0.80474 0.0
H266 H 0.46912 0.02117 0.91239 0.0
H267 H 0.45126 1.00014 0.86854 0.0
C268 C 0.57316 0.48477 0.88816 0.0
C269 C 0.5766 0.45685 0.89869 0.0
C270 C 0.56335 0.48974 0.86035 0.0
C271 C 0.52855 0.45487 0.79869 0.0
H272 H 0.5739 0.5066 0.75486 0.0
C273 C 0.5082 0.47331 0.67897 0.0
C274 C 0.53395 0.47604 0.66225 0.0
C275 C 0.51048 0.47268 0.70845 0.0
C276 C 0.56114 0.49196 0.76678 0.0
H277 H 0.57269 0.41227 0.88825 0.0
H278 H 0.55582 0.42086 0.84018 0.0
H279 H 0.58187 0.50316 0.8057 0.0
H280 H 0.58238 0.47908 0.66304 0.0
H281 H 0.58656 0.47724 0.7144 0.0
H282 H 0.50898 0.44258 0.75957 0.0
C283 C 0.55982 0.43905 0.85343 0.0
C284 C 0.56535 0.49033 0.79601 0.0
C285 C 0.56951 0.43412 0.88109 0.0
C286 C 0.56212 0.4773 0.67548 0.0
C287 C 0.56445 0.47646 0.70489 0.0
C288 C 0.52447 0.45637 0.76944 0.0
C289 C 0.55698 0.46684 0.84257 0.0
C290 C 0.54957 0.47133 0.81222 0.0
C291 C 0.5386 0.47459 0.72175 0.0
C292 C 0.54118 0.47451 0.75307 0.0
H293 H 0.57839 0.50269 0.90129 0.0
H294 H 0.56112 0.51144 0.85266 0.0
H295 H 0.51571 0.44032 0.81065 0.0
H296 H 0.48614 0.47269 0.6693 0.0
H297 H 0.4901 0.47145 0.72082 0.0
C298 C 0.94115 0.58723 0.38221 0.0
C299 C 0.93381 0.56517 0.40037 0.0
C300 C 0.95019 0.58142 0.35452 0.0
C301 C 0.94356 0.52936 0.29754 0.0
H302 H 1.00196 0.57502 0.26168 0.0
C303 C 0.94849 0.5418 0.17692 0.0
C304 C 0.97679 0.54317 0.16399 0.0
C305 C 0.94591 0.54225 0.20633 0.0
C306 C 0.98592 0.56175 0.27135 0.0
H307 H 0.93017 0.51963 0.40364 0.0
H308 H 0.94632 0.50928 0.35478 0.0
H309 H 0.99482 0.5779 0.3126 0.0
H310 H 0.02459 0.546 0.17154 0.0
H311 H 0.02023 0.54641 0.223 0.0
H312 H 0.93494 0.51294 0.2563 0.0
C313 C 0.94495 0.53115 0.36221 0.0
C314 C 0.98158 0.56364 0.30054 0.0
C315 C 0.9358 0.53701 0.39013 0.0
C316 C 1.00244 0.54536 0.181 0.0
C317 C 0.99992 0.54553 0.21046 0.0
C318 C 0.94807 0.5273 0.26834 0.0
C319 C 0.9521 0.55337 0.34408 0.0
C320 C 0.95978 0.54806 0.31387 0.0
C321 C 0.97164 0.54377 0.22348 0.0
C322 C 0.96877 0.54401 0.2548 0.0
H323 H 0.93892 0.60927 0.38909 0.0
H324 H 0.95464 0.59915 0.34097 0.0
H325 H 0.92649 0.51718 0.3071 0.0
H326 H 0.92834 0.54034 0.16424 0.0
H327 H 0.92369 0.54158 0.2156 0.0
C328 C 0.21213 0.14484 0.12541 0.0
C329 C 0.20749 0.14234 0.15475 0.0
C330 C 0.23813 0.13227 0.11241 0.0
C331 C 0.31569 0.0991 0.12898 0.0
H332 H 0.31274 0.07499 0.05054 0.0
C333 C 0.41237 0.03051 0.07273 0.0
C334 C 0.4229 0.04214 0.04753 0.0
C335 C 0.38591 0.04219 0.08569 0.0
C336 C 0.31389 0.08172 0.07243 0.0
H337 H 0.2273 0.1241 0.19319 0.0
H338 H 0.27127 0.10069 0.1704 0.0
H339 H 0.26697 0.09527 0.07352 0.0
H340 H 0.41345 0.07478 0.01587 0.0
H341 H 0.36659 0.09451 0.03806 0.0
H342 H 0.36254 0.08429 0.12788 0.0
C343 C 0.25531 0.11325 0.15742 0.0
C344 C 0.28767 0.0936 0.08567 0.0
C345 C 0.22957 0.12633 0.17053 0.0
C346 C 0.40597 0.06533 0.03527 0.0
C347 C 0.37912 0.07658 0.0479 0.0
C348 C 0.34173 0.08664 0.11589 0.0
C349 C 0.26019 0.11617 0.12814 0.0
C350 C 0.28813 0.10274 0.11414 0.0
C351 C 0.36901 0.06535 0.07342 0.0
C352 C 0.34116 0.07801 0.08743 0.0
H353 H 0.19558 0.15643 0.11223 0.0
H354 H 0.24098 0.13558 0.08996 0.0
H355 H 0.31747 0.10632 0.15064 0.0
H356 H 0.42495 0.01275 0.0828 0.0
H357 H 0.37856 0.03303 0.10528 0.0
C358 C 0.28664 0.8633 0.64265 0.0
C359 C 0.30848 0.88017 0.65434 0.0
C360 C 0.26077 0.87584 0.62952 0.0
C361 C 0.22887 0.94426 0.59813 0.0
H362 H 0.15343 0.9081 0.6045 0.0
C363 C 0.11314 0.99718 0.56085 0.0
C364 C 0.09409 0.97964 0.54607 0.0
C365 C 0.13977 0.98558 0.57354 0.0
C366 C 0.17438 0.91834 0.60231 0.0
H367 H 0.31984 0.92378 0.66118 0.0
H368 H 0.27425 0.9456 0.63938 0.0
H369 H 0.19829 0.88725 0.62831 0.0
H370 H 0.08839 0.93613 0.53281 0.0
H371 H 0.13462 0.91598 0.55509 0.0
H372 H 0.20451 0.9757 0.57254 0.0
C373 C 0.27742 0.92258 0.63981 0.0
C374 C 0.20022 0.90633 0.61591 0.0
C375 C 0.30346 0.91001 0.65274 0.0
C376 C 0.1025 0.95029 0.54401 0.0
C377 C 0.12892 0.93869 0.55695 0.0
C378 C 0.2029 0.95644 0.58476 0.0
C379 C 0.2557 0.90568 0.62792 0.0
C380 C 0.22794 0.91898 0.61389 0.0
C381 C 0.14779 0.95614 0.57202 0.0
C382 C 0.17539 0.94352 0.58653 0.0
H383 H 0.28935 0.84028 0.64378 0.0
H384 H 0.24491 0.862 0.62033 0.0
H385 H 0.24979 0.95445 0.59563 0.0
H386 H 0.10737 0.01986 0.56286 0.0
H387 H 0.15372 0.99959 0.58514 0.0
C388 C 0.68428 0.46283 0.94231 0.0
C389 C 0.66355 0.46158 0.96463 0.0
C390 C 0.71415 0.46852 0.94763 0.0
C391 C 0.77108 0.46467 1.00461 0.0
H392 H 0.81605 0.50814 0.95178 0.0
C393 C 0.89325 0.49516 0.02491 0.0
C394 C 0.91344 0.49163 1.00206 0.0
C395 C 0.86253 0.49182 0.02107 0.0
C396 C 0.80382 0.49577 0.96659 0.0
H397 H 0.6576 0.46608 0.00994 0.0
H398 H 0.7098 0.47663 0.01929 0.0
H399 H 0.76229 0.50379 0.94418 0.0
H400 H 0.91731 0.48139 0.95735 0.0
H401 H 0.86356 0.47567 0.95066 0.0
H402 H 0.81271 0.4569 0.02711 0.0
C403 C 0.70306 0.47268 0.99769 0.0
C404 C 0.77302 0.49326 0.96226 0.0
C405 C 0.67316 0.46681 0.99236 0.0
C406 C 0.90233 0.48426 0.97537 0.0
C407 C 0.87155 0.48118 0.97149 0.0
C408 C 0.80184 0.46738 1.00906 0.0
C409 C 0.72402 0.47321 0.97541 0.0
C410 C 0.75633 0.47743 0.98105 0.0
C411 C 0.85133 0.48514 0.99426 0.0
C412 C 0.81857 0.48271 0.98993 0.0
H413 H 0.67775 0.45826 0.92077 0.0
H414 H 0.72974 0.46821 0.93002 0.0
H415 H 0.75906 0.45193 0.01925 0.0
H416 H 0.90112 0.50081 0.04575 0.0
H417 H 0.84742 0.49515 0.03895 0.0
C418 C 0.84169 0.54105 0.47692 0.0
C419 C 0.84867 0.56824 0.46825 0.0
C420 C 0.81173 0.53554 0.48262 0.0
C421 C 0.73578 0.57315 0.49537 0.0
H422 H 0.7072 0.49908 0.47794 0.0
C423 C 0.61 0.5499 0.48451 0.0
C424 C 0.60085 0.52861 0.5027 0.0
C425 C 0.64058 0.5544 0.48155 0.0
C426 C 0.71504 0.51979 0.48299 0.0
H427 H 0.83035 0.61071 0.45764 0.0
H428 H 0.77815 0.60096 0.46612 0.0
H429 H 0.76019 0.50741 0.47007 0.0
H430 H 0.61639 0.49507 0.5317 0.0
H431 H 0.67004 0.50245 0.52573 0.0
H432 H 0.69009 0.58572 0.50697 0.0
C433 C 0.79553 0.58408 0.46988 0.0
C434 C 0.7454 0.52457 0.47871 0.0
C435 C 0.82541 0.58968 0.46479 0.0
C436 C 0.62283 0.51173 0.51765 0.0
C437 C 0.65344 0.51582 0.51417 0.0
C438 C 0.70535 0.56852 0.49904 0.0
C439 C 0.78822 0.55702 0.47913 0.0
C440 C 0.75617 0.55139 0.4847 0.0
C441 C 0.66249 0.53727 0.49622 0.0
C442 C 0.69477 0.54187 0.49281 0.0
H443 H 0.85942 0.52425 0.47966 0.0
H444 H 0.80712 0.51455 0.49004 0.0
H445 H 0.74325 0.59384 0.50097 0.0
H446 H 0.59351 0.56323 0.47278 0.0
H447 H 0.64719 0.57102 0.46753 0.0
C448 C 0.14556 0.24553 0.15143 0.0
C449 C 0.12725 0.22354 0.15892 0.0
C450 C 0.13317 0.27043 0.13847 0.0
C451 C 0.06818 0.29868 0.09564 0.0
H452 H 0.09398 0.37234 0.11858 0.0
C453 C 0.03945 0.4037 0.03225 0.0
C454 C 0.03099 0.42827 0.04827 0.0
C455 C 0.05015 0.37829 0.0456 0.0
C456 C 0.08641 0.35197 0.11196 0.0
H457 H 0.08139 0.2107 0.15869 0.0
H458 H 0.05968 0.25421 0.13597 0.0
H459 H 0.11412 0.32939 0.1428 0.0
H460 H 0.02689 0.44502 0.09108 0.0
H461 H 0.04556 0.40108 0.11409 0.0
H462 H 0.04048 0.32139 0.06473 0.0
C463 C 0.08372 0.25209 0.1401 0.0
C464 C 0.09816 0.32728 0.12572 0.0
C465 C 0.0961 0.22729 0.15339 0.0
C466 C 0.03322 0.42663 0.07795 0.0
C467 C 0.04414 0.40141 0.09121 0.0
C468 C 0.05666 0.32339 0.08163 0.0
C469 C 0.10212 0.27396 0.13236 0.0
C470 C 0.08919 0.30029 0.11782 0.0
C471 C 0.05296 0.37693 0.07527 0.0
C472 C 0.06553 0.3504 0.08969 0.0
H473 H 0.16961 0.24345 0.15554 0.0
H474 H 0.14807 0.28669 0.13267 0.0
H475 H 0.06097 0.27824 0.08881 0.0
H476 H 0.03807 0.40415 0.00938 0.0
H477 H 0.0569 0.35988 0.03265 0.0
C478 C 0.5574 0.3847 0.98377 0.0
C479 C 0.58757 0.39034 0.97859 0.0
C480 C 0.54952 0.35667 0.98719 0.0
C481 C 0.57401 0.28744 0.95979 0.0
H482 H 0.52137 0.25617 0.01518 0.0
C483 C 0.55774 0.16781 0.96492 0.0
C484 C 0.52975 0.15871 0.97352 0.0
C485 C 0.56311 0.19663 0.9655 0.0
C486 C 0.53568 0.26473 0.99926 0.0
H487 H 0.63337 0.37131 0.97499 0.0
H488 H 0.6196 0.32254 0.98114 0.0
H489 H 0.5346 0.30561 0.01982 0.0
H490 H 0.48497 0.17297 0.98841 0.0
H491 H 0.49392 0.22351 0.98825 0.0
H492 H 0.57461 0.24725 0.93865 0.0
C493 C 0.60209 0.33976 0.9824 0.0
C494 C 0.54341 0.29292 1.0021 0.0
C495 C 0.60998 0.36771 0.97923 0.0
C496 C 0.50672 0.17927 0.98144 0.0
C497 C 0.51202 0.20821 0.98179 0.0
C498 C 0.56599 0.25951 0.95671 0.0
C499 C 0.57169 0.33394 0.9852 0.0
C500 C 0.56303 0.3043 0.98261 0.0
C501 C 0.54047 0.21718 0.97434 0.0
C502 C 0.54709 0.24763 0.97661 0.0
H503 H 0.53972 0.4018 0.98343 0.0
H504 H 0.52593 0.35266 0.98937 0.0
H505 H 0.58861 0.296 0.94408 0.0
H506 H 0.57583 0.15256 0.95833 0.0
H507 H 0.5854 0.20264 0.95988 0.0
C508 C 0.95945 0.64008 0.48157 0.0
C509 C 0.92886 0.63538 0.4773 0.0
C510 C 0.96861 0.66786 0.48347 0.0
C511 C 0.94673 0.73633 0.45361 0.0
H512 H 0.99854 0.76918 0.50904 0.0
C513 C 0.96141 0.85615 0.45845 0.0
C514 C 0.98899 0.86578 0.46765 0.0
C515 C 0.95674 0.82718 0.45853 0.0
C516 C 0.98454 0.76014 0.49307 0.0
H517 H 0.88373 0.65593 0.4735 0.0
H518 H 0.89975 0.70422 0.47698 0.0
H519 H 0.98485 0.72004 0.51469 0.0
H520 H 0.03383 0.85237 0.48291 0.0
H521 H 0.02606 0.80159 0.48196 0.0
H522 H 0.94669 0.77583 0.43158 0.0
C523 C 0.91658 0.68647 0.47875 0.0
C524 C 0.97656 0.73213 0.49649 0.0
C525 C 0.90741 0.65881 0.47713 0.0
C526 C 0.01238 0.84564 0.47549 0.0
C527 C 0.00778 0.81656 0.47538 0.0
C528 C 0.955 0.76408 0.44997 0.0
C529 C 0.94732 0.69121 0.48081 0.0
C530 C 0.95708 0.72028 0.47707 0.0
C531 C 0.97966 0.80706 0.46751 0.0
C532 C 0.9735 0.77656 0.46994 0.0
H533 H 0.97641 0.62235 0.4818 0.0
H534 H 0.99245 0.67109 0.48512 0.0
H535 H 0.93222 0.72735 0.438 0.0
H536 H 0.94308 0.87111 0.45192 0.0
H537 H 0.93469 0.82072 0.45259 0.0
C538 C 0.42158 0.79653 0.65286 0.0
C539 C 0.39026 0.80063 0.65734 0.0
C540 C 0.43414 0.77149 0.63991 0.0
C541 C 0.41908 0.69645 0.62506 0.0
H542 H 0.47859 0.70091 0.56553 0.0
C543 C 0.47755 0.61895 0.53205 0.0
C544 C 0.48487 0.59412 0.54785 0.0
C545 C 0.46751 0.64454 0.54559 0.0
C546 C 0.46192 0.69931 0.58204 0.0
H547 H 0.34776 0.78119 0.65247 0.0
H548 H 0.36959 0.73763 0.63016 0.0
H549 H 0.45831 0.74452 0.58929 0.0
H550 H 0.48773 0.57706 0.59044 0.0
H551 H 0.47017 0.62139 0.61381 0.0
H552 H 0.42247 0.65136 0.61779 0.0
C553 C 0.38449 0.75375 0.63652 0.0
C554 C 0.45051 0.72428 0.59586 0.0
C555 C 0.37194 0.77884 0.64913 0.0
C556 C 0.48225 0.59567 0.57751 0.0
C557 C 0.47199 0.6211 0.59096 0.0
C558 C 0.4307 0.67151 0.61148 0.0
C559 C 0.41572 0.74979 0.63152 0.0
C560 C 0.4288 0.72319 0.61744 0.0
C561 C 0.46426 0.64584 0.57521 0.0
C562 C 0.45218 0.67258 0.58972 0.0
H563 H 0.4363 0.81296 0.65877 0.0
H564 H 0.45831 0.76904 0.63661 0.0
H565 H 0.40257 0.69477 0.64171 0.0
H566 H 0.47928 0.61857 0.5092 0.0
H567 H 0.46157 0.66314 0.53278 0.0
C568 C 0.89026 0.90793 0.79322 0.0
C569 C 0.88803 0.87828 0.79508 0.0
C570 C 0.90101 0.92023 0.76859 0.0
C571 C 0.91071 0.90753 0.69168 0.0
H572 H 0.96498 0.96835 0.69634 0.0
C573 C 0.96617 0.95175 0.59157 0.0
C574 C 0.97145 0.98088 0.5905 0.0
C575 C 0.95596 0.9395 0.61644 0.0
C576 C 0.94947 0.9517 0.69454 0.0
H577 H 0.89566 0.83838 0.77227 0.0
H578 H 0.91445 0.85984 0.72922 0.0
H579 H 0.94796 0.94637 0.73956 0.0
H580 H 0.96962 0.02001 0.61499 0.0
H581 H 0.95109 0.99888 0.65818 0.0
H582 H 0.91172 0.91306 0.64678 0.0
C583 C 0.90771 0.8736 0.74687 0.0
C584 C 0.93978 0.93898 0.71943 0.0
C585 C 0.8972 0.86124 0.77166 0.0
C586 C 0.9659 0.9975 0.61501 0.0
C587 C 0.95547 0.98527 0.63991 0.0
C588 C 0.9202 0.92038 0.6668 0.0
C589 C 0.90967 0.9033 0.74495 0.0
C590 C 0.9203 0.91666 0.71837 0.0
C591 C 0.95045 0.95601 0.64108 0.0
C592 C 0.93983 0.94264 0.66779 0.0
H593 H 0.88371 0.92171 0.81092 0.0
H594 H 0.90197 0.94316 0.76788 0.0
H595 H 0.89533 0.89074 0.69 0.0
H596 H 0.97035 0.93816 0.57322 0.0
H597 H 0.95297 0.91687 0.61643 0.0
C598 C 0.6205 0.15908 0.27261 0.0
C599 C 0.62973 0.14226 0.29601 0.0
C600 C 0.61027 0.14648 0.24776 0.0
C601 C 0.57893 0.08077 0.22003 0.0
H602 H 0.6066 0.10698 0.14758 0.0
C603 C 0.55228 0.02298 0.11483 0.0
C604 C 0.54615 0.03997 0.0908 0.0
C605 C 0.56301 0.03493 0.13985 0.0
C606 C 0.59826 0.09957 0.16756 0.0
H607 H 0.63456 0.09895 0.31175 0.0
H608 H 0.61681 0.07703 0.26853 0.0
H609 H 0.62311 0.12922 0.19099 0.0
H610 H 0.54653 0.08299 0.07448 0.0
H611 H 0.56445 0.10376 0.1179 0.0
H612 H 0.55372 0.05139 0.19667 0.0
C613 C 0.61748 0.09999 0.26934 0.0
C614 C 0.60781 0.11238 0.19252 0.0
C615 C 0.62795 0.11255 0.29406 0.0
C616 C 0.55115 0.06914 0.09244 0.0
C617 C 0.56167 0.08108 0.11743 0.0
C618 C 0.56919 0.06809 0.19504 0.0
C619 C 0.6087 0.11673 0.24575 0.0
C620 C 0.59827 0.10318 0.21912 0.0
C621 C 0.56776 0.06422 0.14158 0.0
C622 C 0.57865 0.07731 0.16838 0.0
H623 H 0.62173 0.18199 0.27329 0.0
H624 H 0.60341 0.16008 0.23014 0.0
H625 H 0.57083 0.07334 0.2401 0.0
H626 H 0.54877 1.00044 0.11434 0.0
H627 H 0.56781 0.0211 0.15778 0.0
C628 C 0.42614 0.54933 0.13982 0.0
C629 C 0.42374 0.57703 0.12876 0.0
C630 C 0.43539 0.54469 0.16781 0.0
C631 C 0.47255 0.57953 0.22802 0.0
H632 H 0.43234 0.5248 0.2729 0.0
C633 C 0.47788 0.5746 0.35035 0.0
C634 C 0.48229 0.54731 0.3623 0.0
C635 C 0.47296 0.57772 0.32127 0.0
C636 C 0.44396 0.53997 0.26053 0.0
H637 H 0.42822 0.62165 0.13835 0.0
H638 H 0.44372 0.6137 0.18712 0.0
H639 H 0.41953 0.53069 0.22304 0.0
H640 H 0.48659 0.50198 0.35283 0.0
H641 H 0.47739 0.50749 0.30234 0.0
H642 H 0.49634 0.58929 0.26588 0.0
C643 C 0.43949 0.5954 0.17411 0.0
C644 C 0.43673 0.54326 0.23194 0.0
C645 C 0.43053 0.59998 0.14617 0.0
C646 C 0.48248 0.52329 0.34445 0.0
C647 C 0.47732 0.5264 0.31551 0.0
C648 C 0.47955 0.57642 0.25668 0.0
C649 C 0.44206 0.56772 0.18531 0.0
C650 C 0.45082 0.56319 0.21537 0.0
C651 C 0.4722 0.55361 0.30369 0.0
C652 C 0.46525 0.55668 0.27321 0.0
H653 H 0.42109 0.5313 0.12676 0.0
H654 H 0.43746 0.52305 0.17568 0.0
H655 H 0.48423 0.59472 0.21576 0.0
H656 H 0.47739 0.59351 0.36354 0.0
H657 H 0.46887 0.59895 0.31266 0.0
C658 C 0.11336 0.47166 0.64882 0.0
C659 C 0.09103 0.46719 0.62851 0.0
C660 C 0.10572 0.47549 0.67723 0.0
C661 C 0.04248 0.48866 0.72781 0.0
H662 H 0.09585 0.44278 0.77729 0.0
C663 C 0.01505 0.46946 0.84571 0.0
C664 C 0.03879 0.47361 0.86459 0.0
C665 C 0.02036 0.46829 0.81655 0.0
C666 C 0.08085 0.45584 0.76379 0.0
H667 H 0.04284 0.46576 0.62187 0.0
H668 H 0.02955 0.47178 0.67175 0.0
H669 H 0.107 0.44471 0.72701 0.0
H670 H 0.08678 0.47859 0.86803 0.0
H671 H 0.09608 0.47649 0.81725 0.0
H672 H 0.01623 0.49957 0.76485 0.0
C673 C 0.05298 0.47241 0.66561 0.0
C674 C 0.08731 0.4571 0.735 0.0
C675 C 0.06061 0.46877 0.63706 0.0
C676 C 0.06806 0.47554 0.8539 0.0
C677 C 0.07339 0.47417 0.82487 0.0
C678 C 0.03596 0.48734 0.75671 0.0
C679 C 0.07562 0.47468 0.6861 0.0
C680 C 0.0684 0.47375 0.71671 0.0
C681 C 0.04955 0.47095 0.80586 0.0
C682 C 0.05526 0.4711 0.775 0.0
H683 H 0.13705 0.47031 0.64318 0.0
H684 H 0.1236 0.47788 0.69246 0.0
H685 H 0.02754 0.50174 0.71428 0.0
H686 H 0.99224 0.46814 0.85342 0.0
H687 H 1.00163 0.4655 0.80237 0.0
C688 C 0.80906 0.88566 0.90229 0.0
C689 C 0.81022 0.88195 0.87277 0.0
C690 C 0.78322 0.89841 0.9154 0.0
C691 C 0.71178 0.94282 0.90081 0.0
H692 H 0.68838 0.91418 0.97373 0.0
C693 C 0.61194 0.99711 0.96492 0.0
C694 C 0.59348 0.97942 0.98003 0.0
C695 C 0.63883 0.98591 0.95232 0.0
C696 C 0.69435 0.92233 0.95326 0.0
H697 H 0.7849 0.8887 0.83391 0.0
H698 H 0.73961 0.91047 0.85672 0.0
H699 H 0.73338 0.89311 0.95042 0.0
H700 H 0.58897 0.93595 0.99364 0.0
H701 H 0.63527 0.91639 0.97129 0.0
H702 H 0.67207 0.97134 0.90321 0.0
C703 C 0.75892 0.9041 0.86979 0.0
C704 C 0.72054 0.91047 0.94001 0.0
C705 C 0.7849 0.89153 0.85666 0.0
C706 C 0.60269 0.95029 0.98235 0.0
C707 C 0.62944 0.93906 0.96961 0.0
C708 C 0.68546 0.95458 0.914 0.0
C709 C 0.75763 0.90764 0.8994 0.0
C710 C 0.72968 0.92051 0.91357 0.0
C711 C 0.64791 0.95667 0.95433 0.0
C712 C 0.6763 0.94448 0.94042 0.0
H713 H 0.82833 0.87893 0.9153 0.0
H714 H 0.78346 0.90126 0.93814 0.0
H715 H 0.71817 0.95142 0.88066 0.0
H716 H 0.60561 0.01967 0.96278 0.0
H717 H 0.6526 1.00029 0.94117 0.0
C718 C 0.73211 0.13133 0.35853 0.0
C719 C 0.70655 0.14071 0.37446 0.0
C720 C 0.75811 0.1192 0.37184 0.0
C721 C 0.79603 0.11344 0.44226 0.0
H722 H 0.84486 0.05254 0.40543 0.0
C723 C 0.91387 0.07369 0.48482 0.0
C724 C 0.92306 0.04457 0.48213 0.0
C725 C 0.88708 0.08494 0.47223 0.0
C726 C 0.83137 0.06931 0.41624 0.0
H727 H 0.68808 0.14397 0.41686 0.0
H728 H 0.73305 0.12235 0.44002 0.0
H729 H 0.79886 0.07218 0.38276 0.0
H730 H 0.9108 1.00434 0.46456 0.0
H731 H 0.86378 0.02374 0.44328 0.0
H732 H 0.82802 0.10997 0.47615 0.0
C733 C 0.73342 0.12501 0.41729 0.0
C734 C 0.80511 0.08092 0.40297 0.0
C735 C 0.70753 0.13734 0.404 0.0
C736 C 0.90451 0.0269 0.46695 0.0
C737 C 0.8776 0.03811 0.45453 0.0
C738 C 0.82218 0.10172 0.4556 0.0
C739 C 0.75919 0.11589 0.40144 0.0
C740 C 0.78708 0.10323 0.41574 0.0
C741 C 0.86859 0.06736 0.45677 0.0
C742 C 0.84033 0.07953 0.44276 0.0
H743 H 0.73225 0.13394 0.33578 0.0
H744 H 0.77759 0.11293 0.3589 0.0
H745 H 0.78306 0.13082 0.45267 0.0
H746 H 0.92767 0.08798 0.49621 0.0
H747 H 0.88126 0.10762 0.47412 0.0
C748 C 0.33411 0.54519 0.06087 0.0
C749 C 0.34317 0.57271 0.05559 0.0
C750 C 0.30442 0.53863 0.05556 0.0
C751 C 0.23554 0.5625 0.01618 0.0
H752 H 0.19425 0.52304 0.07488 0.0
C753 C 0.10648 0.53931 0.05028 0.0
C754 C 0.09552 0.52953 0.02438 0.0
C755 C 0.13704 0.54392 0.05345 0.0
C756 C 0.20546 0.53419 0.05838 0.0
H757 H 0.32801 0.61487 0.04048 0.0
H758 H 0.27658 0.60325 0.03079 0.0
H759 H 0.24748 0.5316 0.08074 0.0
H760 H 0.10795 0.51723 0.98139 0.0
H761 H 0.16118 0.52533 0.98696 0.0
H762 H 0.19341 0.56551 0.99402 0.0
C763 C 0.29249 0.58667 0.03875 0.0
C764 C 0.236 0.53878 0.06157 0.0
C765 C 0.32206 0.59328 0.04422 0.0
C766 C 0.11567 0.52478 1.00164 0.0
C767 C 0.14614 0.52954 1.00476 0.0
C768 C 0.20505 0.55776 0.01291 0.0
C769 C 0.28325 0.55941 0.0447 0.0
C770 C 0.2513 0.55316 0.04059 0.0
C771 C 0.15719 0.53902 0.03073 0.0
C772 C 0.18965 0.54372 0.03406 0.0
H773 H 0.3499 0.52879 0.06935 0.0
H774 H 0.29799 0.51733 0.06001 0.0
H775 H 0.2468 0.57348 0.99958 0.0
H776 H 0.09153 0.54318 0.0682 0.0
H777 H 0.14487 0.55155 0.07362 0.0
C778 C 0.19241 0.43436 0.55524 0.0
C779 C 0.16937 0.45631 0.55386 0.0
C780 C 0.22212 0.43969 0.54899 0.0
C781 C 0.27248 0.49916 0.54291 0.0
H782 H 0.32777 0.43903 0.51264 0.0
C783 C 0.39563 0.51271 0.5064 0.0
C784 C 0.41729 0.49547 0.52135 0.0
C785 C 0.36498 0.50856 0.50913 0.0
C786 C 0.31249 0.45593 0.52113 0.0
H787 H 0.15892 0.50085 0.5444 0.0
H788 H 0.2108 0.51009 0.53196 0.0
H789 H 0.27436 0.43107 0.51728 0.0
H790 H 0.42403 0.46018 0.55056 0.0
H791 H 0.37019 0.45228 0.55451 0.0
H792 H 0.3109 0.52423 0.54565 0.0
C793 C 0.20615 0.48888 0.53869 0.0
C794 C 0.28193 0.4514 0.52399 0.0
C795 C 0.1764 0.48362 0.54553 0.0
C796 C 0.40778 0.47379 0.53886 0.0
C797 C 0.37712 0.46922 0.54106 0.0
C798 C 0.30296 0.50387 0.53943 0.0
C799 C 0.22949 0.46704 0.54072 0.0
C800 C 0.26157 0.47277 0.53541 0.0
C801 C 0.35555 0.48669 0.52633 0.0
C802 C 0.3232 0.48213 0.52893 0.0
H803 H 0.1876 0.41324 0.5622 0.0
H804 H 0.23939 0.42247 0.55156 0.0
H805 H 0.25774 0.51598 0.55222 0.0
H806 H 0.40235 0.52967 0.49286 0.0
H807 H 0.34863 0.52221 0.49757 0.0
C808 C 0.89448 0.80066 0.90139 0.0
C809 C 0.89229 0.80267 0.87172 0.0
C810 C 0.90626 0.77556 0.91436 0.0
C811 C 0.9527 0.70776 0.9014 0.0
H812 H 0.91222 0.68275 0.96855 0.0
C813 C 0.97986 0.59566 0.94977 0.0
C814 C 0.97925 0.59269 0.97939 0.0
C815 C 0.97034 0.62154 0.9369 0.0
C816 C 0.92414 0.68955 0.95008 0.0
H817 H 0.90159 0.77963 0.83253 0.0
H818 H 0.92231 0.73582 0.85516 0.0
H819 H 0.89406 0.7269 0.94552 0.0
H820 H 0.96839 0.61507 0.01865 0.0
H821 H 0.9522 0.66035 0.99628 0.0
H822 H 0.98282 0.67041 0.90597 0.0
C823 C 0.91499 0.75384 0.8684 0.0
C824 C 0.91365 0.71495 0.93678 0.0
C825 C 0.90312 0.77902 0.85539 0.0
C826 C 0.96911 0.61649 0.99581 0.0
C827 C 0.95961 0.64246 0.98291 0.0
C828 C 0.96326 0.68237 0.91474 0.0
C829 C 0.91636 0.75163 0.89812 0.0
C830 C 0.92775 0.72446 0.91223 0.0
C831 C 0.95995 0.64535 0.95322 0.0
C832 C 0.94911 0.67282 0.93928 0.0
H833 H 0.88705 0.81859 0.91472 0.0
H834 H 0.90755 0.77499 0.93723 0.0
H835 H 0.96443 0.71453 0.88279 0.0
H836 H 0.9874 0.57782 0.93636 0.0
H837 H 0.97056 0.62265 0.91403 0.0
C838 C 0.45976 0.63666 0.03963 0.0
C839 C 0.42841 0.63508 0.04215 0.0
C840 C 0.47169 0.66228 0.03217 0.0
C841 C 0.45042 0.73635 1.00749 0.0
H842 H 0.5152 0.75567 0.05747 0.0
C843 C 0.48817 0.85024 0.01148 0.0
C844 C 0.49373 0.86129 0.03843 0.0
C845 C 0.48554 0.82114 1.00767 0.0
C846 C 0.49703 0.75067 0.04344 0.0
H847 H 0.38493 0.65853 0.03724 0.0
H848 H 0.40551 0.70307 0.02459 0.0
H849 H 0.49992 0.70708 0.05625 0.0
H850 H 0.50187 0.85095 0.08241 0.0
H851 H 0.49593 0.79998 0.07619 0.0
H852 H 0.44593 0.78028 0.99624 0.0
C853 C 0.42105 0.68458 0.02783 0.0
C854 C 0.4886 0.72265 0.04234 0.0
C855 C 0.40917 0.65896 0.03509 0.0
C856 C 0.49754 0.84275 0.06146 0.0
C857 C 0.49437 0.81359 0.05776 0.0
C858 C 0.4586 0.76441 1.00883 0.0
C859 C 0.45246 0.68683 0.02729 0.0
C860 C 0.46467 0.71531 0.02488 0.0
C861 C 0.48787 0.8025 0.03086 0.0
C862 C 0.48155 0.77207 0.0273 0.0
H863 H 0.47507 0.61843 0.04471 0.0
H864 H 0.49597 0.66315 0.03135 0.0
H865 H 0.43222 0.73137 0.99348 0.0
H866 H 0.48568 0.86422 0.99334 0.0
H867 H 0.48132 0.81333 0.98656 0.0
C868 C 0.05746 0.38523 0.5565 0.0
C869 C 0.08842 0.3893 0.5584 0.0
C870 C 0.04762 0.35777 0.55361 0.0
C871 C 0.07515 0.28265 0.53785 0.0
H872 H 0.00744 0.26413 0.58446 0.0
C873 C 0.0566 0.16828 0.56933 0.0
C874 C 0.02853 0.15861 0.56153 0.0
C875 C 0.06121 0.19727 0.56886 0.0
C876 C 0.02622 0.26914 0.57122 0.0
H877 H 0.13333 0.36796 0.5586 0.0
H878 H 0.11637 0.32036 0.55398 0.0
H879 H 0.02052 0.31363 0.58103 0.0
H880 H 0.98273 0.17208 0.54884 0.0
H881 H 0.99068 0.22297 0.54904 0.0
H882 H 0.08158 0.23797 0.52911 0.0
C883 C 0.09957 0.33821 0.55389 0.0
C884 C 0.03361 0.29745 0.56904 0.0
C885 C 0.10935 0.36556 0.55653 0.0
C886 C 1.00456 0.17878 0.5552 0.0
C887 C 0.00909 0.20789 0.55512 0.0
C888 C 0.06805 0.25441 0.54039 0.0
C889 C 0.06858 0.3339 0.55284 0.0
C890 C 0.05852 0.30446 0.5527 0.0
C891 C 0.03773 0.21721 0.56105 0.0
C892 C 0.04386 0.24738 0.55744 0.0
H893 H 0.04089 0.40322 0.55784 0.0
H894 H 0.02362 0.35524 0.55244 0.0
H895 H 0.09399 0.28733 0.52454 0.0
H896 H 0.07533 0.15338 0.57497 0.0
H897 H 0.08335 0.20409 0.57401 0.0
C898 C 0.61267 0.24208 0.35489 0.0
C899 C 0.62349 0.21903 0.37182 0.0
C900 C 0.60003 0.26738 0.36723 0.0
C901 C 0.56745 0.29752 0.43479 0.0
H902 H 0.58727 0.36961 0.40291 0.0
C903 C 0.54269 0.4055 0.49355 0.0
C904 C 0.53293 0.42941 0.47733 0.0
C905 C 0.55226 0.37959 0.48044 0.0
C906 C 0.58116 0.3497 0.41193 0.0
H907 H 0.62834 0.2044 0.41515 0.0
H908 H 0.60704 0.24844 0.43656 0.0
H909 H 0.60607 0.32518 0.38035 0.0
H910 H 0.52519 0.4445 0.43444 0.0
H911 H 0.54159 0.39947 0.41171 0.0
H912 H 0.54278 0.32211 0.46654 0.0
C913 C 0.60807 0.24702 0.41371 0.0
C914 C 0.59195 0.32413 0.39892 0.0
C915 C 0.62068 0.22179 0.40139 0.0
C916 C 0.53265 0.42662 0.44767 0.0
C917 C 0.54227 0.40077 0.43458 0.0
C918 C 0.55671 0.3231 0.44783 0.0
C919 C 0.59776 0.27031 0.39685 0.0
C920 C 0.58536 0.29764 0.41021 0.0
C921 C 0.55241 0.37692 0.45074 0.0
C922 C 0.56348 0.34957 0.43664 0.0
H923 H 0.61459 0.24085 0.33207 0.0
H924 H 0.592 0.28466 0.3535 0.0
H925 H 0.56144 0.27762 0.44389 0.0
H926 H 0.5433 0.40685 0.51642 0.0
H927 H 0.5602 0.36182 0.4936 0.0
loop_
_geom_bond_atom_site_label_1
_geom_bond_atom_site_label_2
_geom_bond_distance
_geom_bond_site_symmetry_2
_ccdc_geom_bond_type
H0 C3 0.931 . S
H1 C6 0.928 . S
H2 C8 0.930 . S
C3 H0 0.931 . S
C3 C4 1.413 . S
C3 C5 1.360 . S
C4 C3 1.413 . S
C4 C8 1.429 . S
C5 C3 1.360 . S
C5 C6 1.372 . S
C6 H1 0.928 . S
C6 C5 1.372 . S
C6 C7 1.404 . S
C7 C6 1.404 . S
C7 C8 1.391 . S
C8 H2 0.930 . S
C8 C4 1.429 . S
C8 C7 1.391 . S
H9 C12 0.931 . S
H10 C15 0.928 . S
H11 C17 0.930 . S
C12 H9 0.931 . S
C12 C13 1.413 . S
C12 C14 1.360 . S
C13 C12 1.413 . S
C13 C17 1.429 . S
C14 C12 1.360 . S
C14 C15 1.372 . S
C15 H10 0.928 . S
C15 C14 1.372 . S
C15 C16 1.404 . S
C16 C15 1.404 . S
C16 C17 1.391 . S
C17 H11 0.930 . S
C17 C13 1.429 . S
C17 C16 1.391 . S
H18 C21 0.931 . S
H19 C24 0.928 . S
H20 C26 0.930 . S
C21 H18 0.931 . S
C21 C22 1.413 . S
C21 C23 1.360 . S
C22 C21 1.413 . S
C22 C26 1.429 . S
C23 C21 1.360 . S
C23 C24 1.372 . S
C24 H19 0.928 . S
C24 C23 1.372 . S
C24 C25 1.404 . S
C25 C24 1.404 . S
C25 C26 1.391 . S
C26 H20 0.930 . S
C26 C22 1.429 . S
C26 C25 1.391 . S
H27 C30 0.931 . S
H28 C33 0.928 . S
H29 C35 0.930 . S
C30 H27 0.931 . S
C30 C31 1.413 . S
C30 C32 1.360 . S
C31 C30 1.413 . S
C31 C35 1.429 . S
C32 C30 1.360 . S
C32 C33 1.372 . S
C33 H28 0.928 . S
C33 C32 1.372 . S
C33 C34 1.404 . S
C34 C33 1.404 . S
C34 C35 1.391 . S
C35 H29 0.930 . S
C35 C31 1.429 . S
C35 C34 1.391 . S
H36 C39 0.931 . S
H37 C42 0.928 . S
H38 C44 0.930 . S
C39 H36 0.931 . S
C39 C40 1.413 . S
C39 C41 1.360 . S
C40 C39 1.413 . S
C40 C44 1.429 . S
C41 C39 1.360 . S
C41 C42 1.372 . S
C42 H37 0.928 . S
C42 C41 1.372 . S
C42 C43 1.404 . S
C43 C42 1.404 . S
C43 C44 1.391 . S
C44 H38 0.930 . S
C44 C40 1.429 . S
C44 C43 1.391 . S
H45 C48 0.931 . S
H46 C51 0.928 . S
H47 C53 0.930 . S
C48 H45 0.931 . S
C48 C49 1.413 . S
C48 C50 1.360 . S
C49 C48 1.413 . S
C49 C53 1.429 . S
C50 C48 1.360 . S
C50 C51 1.372 . S
C51 H46 0.928 . S
C51 C50 1.372 . S
C51 C52 1.404 . S
C52 C51 1.404 . S
C52 C53 1.391 . S
C53 H47 0.930 . S
C53 C49 1.429 . S
C53 C52 1.391 . S
H54 C57 0.931 . S
H55 C60 0.928 . S
H56 C62 0.930 . S
C57 H54 0.931 . S
C57 C58 1.413 . S
C57 C59 1.360 . S
C58 C57 1.413 . S
C58 C62 1.429 . S
C59 C57 1.360 . S
C59 C60 1.372 . S
C60 H55 0.928 . S
C60 C59 1.372 . S
C60 C61 1.404 . S
C61 C60 1.404 . S
C61 C62 1.391 . S
C62 H56 0.930 . S
C62 C58 1.429 . S
C62 C61 1.391 . S
H63 C66 0.931 . S
H64 C69 0.928 . S
H65 C71 0.930 . S
C66 H63 0.931 . S
C66 C67 1.413 . S
C66 C68 1.360 . S
C67 C66 1.413 . S
C67 C71 1.429 . S
C68 C66 1.360 . S
C68 C69 1.372 . S
C69 H64 0.928 . S
C69 C68 1.372 . S
C69 C70 1.404 . S
C70 C69 1.404 . S
C70 C71 1.391 . S
C71 H65 0.930 . S
C71 C67 1.429 . S
C71 C70 1.391 . S
C72 O88 1.251 . S
C72 O90 1.254 1_545 S
N73 C74 1.333 . S
N73 C78 1.307 . S
N73 Zn79 2.020 . S
C74 N73 1.333 . S
C74 C75 1.379 . S
C74 H92 0.952 . S
C75 C74 1.379 . S
C75 C76 1.390 . S
C75 H102 0.949 . S
C76 C75 1.390 . S
C76 C77 1.357 . S
C77 C76 1.357 . S
C77 C78 1.370 . S
C77 H103 0.950 . S
C78 N73 1.307 . S
C78 C77 1.370 . S
C78 H96 0.948 1_455 S
Zn79 N73 2.020 . S
Zn79 O88 2.039 . S
Zn79 O94 2.034 . S
Zn79 O98 2.025 1_455 S
Zn79 O100 2.024 1_455 S
C80 O99 1.246 1_545 S
C80 O100 1.249 . S
N81 C82 1.307 . S
N81 C83 1.333 . S
N81 Zn87 2.020 . S
C82 N81 1.307 . S
C82 C86 1.370 . S
C82 H93 0.948 1_655 S
C83 N81 1.333 . S
C83 C84 1.379 . S
C83 H91 0.952 . S
C84 C83 1.379 . S
C84 C85 1.390 . S
C84 H104 0.949 . S
C85 C84 1.390 . S
C85 C86 1.357 . S
C86 C82 1.370 . S
C86 C85 1.357 . S
C86 H105 0.939 1_655 S
Zn87 N81 2.020 . S
Zn87 O90 2.025 1_655 S
Zn87 O95 2.024 1_655 S
Zn87 O97 2.039 . S
Zn87 O99 2.034 . S
O88 C72 1.251 . S
O88 Zn79 2.039 . S
C89 O94 1.246 1_565 S
C89 O95 1.249 . S
O90 C72 1.254 1_565 S
O90 Zn87 2.025 1_455 S
H91 C83 0.952 . S
H92 C74 0.952 . S
H93 C82 0.948 1_455 S
O94 Zn79 2.034 . S
O94 C89 1.246 1_545 S
O95 Zn87 2.024 1_455 S
O95 C89 1.249 . S
H96 C78 0.948 1_655 S
O97 Zn87 2.039 . S
O97 C101 1.251 . S
O98 Zn79 2.025 1_655 S
O98 C101 1.254 1_545 S
O99 C80 1.246 1_565 S
O99 Zn87 2.034 . S
O100 Zn79 2.024 1_655 S
O100 C80 1.249 . S
C101 O97 1.251 . S
C101 O98 1.254 1_565 S
H102 C75 0.949 . S
H103 C77 0.950 . S
H104 C84 0.949 . S
H105 C86 0.939 1_455 S
C106 O122 1.251 1_565 S
C106 O124 1.264 . S
N107 C108 1.333 . S
N107 C112 1.307 . S
N107 Zn113 2.020 . S
C108 N107 1.333 . S
C108 C109 1.379 . S
C108 H126 0.952 . S
C109 C108 1.379 . S
C109 C110 1.390 . S
C109 H136 0.949 . S
C110 C109 1.390 . S
C110 C111 1.357 . S
C111 C110 1.357 . S
C111 C112 1.370 . S
C111 H137 0.950 . S
C112 N107 1.307 . S
C112 C111 1.370 . S
C112 H130 0.948 . S
Zn113 N107 2.020 . S
Zn113 O122 2.039 . S
Zn113 O128 2.034 1_556 S
Zn113 O132 2.025 1_556 S
Zn113 O134 2.024 . S
C114 O133 1.246 . S
C114 O134 1.249 1_565 S
N115 C116 1.307 . S
N115 C117 1.333 . S
N115 Zn121 2.020 . S
C116 N115 1.307 . S
C116 C120 1.370 . S
C116 H127 0.948 . S
C117 N115 1.333 . S
C117 C118 1.379 . S
C117 H125 0.952 . S
C118 C117 1.379 . S
C118 C119 1.390 . S
C118 H138 0.949 . S
C119 C118 1.390 . S
C119 C120 1.357 . S
C120 C116 1.370 . S
C120 C119 1.357 . S
C120 H139 0.950 . S
Zn121 N115 2.020 . S
Zn121 O124 2.018 1_554 S
Zn121 O129 2.024 . S
Zn121 O131 2.039 . S
Zn121 O133 2.034 1_554 S
O122 C106 1.251 1_545 S
O122 Zn113 2.039 . S
C123 O128 1.246 . S
C123 O129 1.249 1_545 S
O124 C106 1.264 . S
O124 Zn121 2.018 1_556 S
H125 C117 0.952 . S
H126 C108 0.952 . S
H127 C116 0.948 . S
O128 Zn113 2.034 1_554 S
O128 C123 1.246 . S
O129 Zn121 2.024 . S
O129 C123 1.249 1_565 S
H130 C112 0.948 . S
O131 Zn121 2.039 . S
O131 C135 1.251 1_565 S
O132 Zn113 2.025 1_554 S
O132 C135 1.254 . S
O133 C114 1.246 . S
O133 Zn121 2.034 1_556 S
O134 Zn113 2.024 . S
O134 C114 1.249 1_545 S
C135 O131 1.251 1_545 S
C135 O132 1.254 . S
H136 C109 0.949 . S
H137 C111 0.950 . S
H138 C118 0.949 . S
H139 C120 0.950 . S
C140 O156 1.251 . S
C140 O158 1.254 . S
N141 C142 1.333 . S
N141 C146 1.307 . S
N141 Zn147 2.020 . S
C142 N141 1.333 . S
C142 C143 1.379 . S
C142 H160 0.952 . S
C143 C142 1.379 . S
C143 C144 1.390 . S
C143 H170 0.949 . S
C144 C143 1.390 . S
C144 C145 1.357 . S
C145 C144 1.357 . S
C145 C146 1.370 . S
C145 H171 0.950 . S
C146 N141 1.307 . S
C146 C145 1.370 . S
C146 H164 0.948 . S
Zn147 N141 2.020 . S
Zn147 O156 2.039 . S
Zn147 O162 2.034 . S
Zn147 O166 2.025 . S
Zn147 O168 2.024 . S
C148 O167 1.246 . S
C148 O168 1.249 . S
N149 C150 1.307 . S
N149 C151 1.333 . S
N149 Zn155 2.020 . S
C150 N149 1.307 . S
C150 C154 1.370 . S
C150 H161 0.948 . S
C151 N149 1.333 . S
C151 C152 1.379 . S
C151 H159 0.952 . S
C152 C151 1.379 . S
C152 C153 1.390 . S
C152 H172 0.949 . S
C153 C152 1.390 . S
C153 C154 1.357 . S
C154 C150 1.370 . S
C154 C153 1.357 . S
C154 H173 0.950 . S
Zn155 N149 2.020 . S
Zn155 O158 2.025 . S
Zn155 O163 2.024 . S
Zn155 O165 2.039 . S
Zn155 O167 2.034 . S
O156 C140 1.251 . S
O156 Zn147 2.039 . S
C157 O162 1.246 . S
C157 O163 1.249 . S
O158 C140 1.254 . S
O158 Zn155 2.025 . S
H159 C151 0.952 . S
H160 C142 0.952 . S
H161 C150 0.948 . S
O162 Zn147 2.034 . S
O162 C157 1.246 . S
O163 Zn155 2.024 . S
O163 C157 1.249 . S
H164 C146 0.948 . S
O165 Zn155 2.039 . S
O165 C169 1.251 . S
O166 Zn147 2.025 . S
O166 C169 1.254 . S
O167 C148 1.246 . S
O167 Zn155 2.034 . S
O168 Zn147 2.024 . S
O168 C148 1.249 . S
C169 O165 1.251 . S
C169 O166 1.254 . S
H170 C143 0.949 . S
H171 C145 0.950 . S
H172 C152 0.949 . S
H173 C154 0.950 . S
C174 O190 1.251 1_556 S
C174 O192 1.254 . S
N175 C176 1.333 . S
N175 C180 1.307 . S
N175 Zn181 2.020 . S
C176 N175 1.333 . S
C176 C177 1.379 . S
C176 H194 0.952 . S
C177 C176 1.379 . S
C177 C178 1.390 . S
C177 H204 0.949 . S
C178 C177 1.390 . S
C178 C179 1.357 . S
C179 C178 1.357 . S
C179 C180 1.370 . S
C179 H205 0.950 . S
C180 N175 1.307 . S
C180 C179 1.370 . S
C180 H198 0.948 . S
Zn181 N175 2.020 . S
Zn181 O190 2.039 . S
Zn181 O196 2.034 1_655 S
Zn181 O200 2.025 1_655 S
Zn181 O202 2.024 . S
C182 O201 1.246 . S
C182 O202 1.249 1_556 S
N183 C184 1.307 . S
N183 C185 1.333 . S
N183 Zn189 2.020 . S
C184 N183 1.307 . S
C184 C188 1.370 . S
C184 H195 0.948 . S
C185 N183 1.333 . S
C185 C186 1.379 . S
C185 H193 0.952 . S
C186 C185 1.379 . S
C186 C187 1.390 . S
C186 H206 0.949 . S
C187 C186 1.390 . S
C187 C188 1.357 . S
C188 C184 1.370 . S
C188 C187 1.357 . S
C188 H207 0.950 . S
Zn189 N183 2.020 . S
Zn189 O192 2.025 1_455 S
Zn189 O197 2.024 . S
Zn189 O199 2.039 . S
Zn189 O201 2.034 1_455 S
O190 C174 1.251 1_554 S
O190 Zn181 2.039 . S
C191 O196 1.246 . S
C191 O197 1.249 1_554 S
O192 C174 1.254 . S
O192 Zn189 2.025 1_655 S
H193 C185 0.952 . S
H194 C176 0.952 . S
H195 C184 0.948 . S
O196 Zn181 2.034 1_455 S
O196 C191 1.246 . S
O197 Zn189 2.024 . S
O197 C191 1.249 1_556 S
H198 C180 0.948 . S
O199 Zn189 2.039 . S
O199 C203 1.251 1_556 S
O200 Zn181 2.025 1_455 S
O200 C203 1.254 . S
O201 C182 1.246 . S
O201 Zn189 2.034 1_655 S
O202 Zn181 2.024 . S
O202 C182 1.249 1_554 S
C203 O199 1.251 1_554 S
C203 O200 1.254 . S
H204 C177 0.949 . S
H205 C179 0.950 . S
H206 C186 0.949 . S
H207 C188 0.950 . S
C208 C209 1.349 . S
C208 C210 1.327 . S
C208 H233 0.950 . S
C209 C208 1.349 . S
C209 C225 1.349 . S
C210 C208 1.327 . S
C210 C229 1.429 . S
C210 H234 0.950 . S
C211 C228 1.574 . S
C211 C230 1.368 . S
C211 H235 0.949 . S
H212 C216 0.949 . S
C213 C214 1.349 . S
C213 C215 1.327 . S
C213 H236 0.950 1_545 S
C214 C213 1.349 . S
C214 C226 1.349 . S
C215 C213 1.327 . S
C215 C231 1.429 . S
C215 H237 0.950 . S
C216 H212 0.949 . S
C216 C224 1.574 . S
C216 C232 1.368 . S
H217 C225 0.950 . S
H218 C223 0.950 . S
H219 C224 0.949 . S
H220 C226 0.950 . S
H221 C227 0.950 . S
H222 C228 0.949 . S
C223 H218 0.950 . S
C223 C225 1.327 . S
C223 C229 1.429 . S
C224 C216 1.574 . S
C224 H219 0.949 . S
C224 C230 1.368 . S
C225 C209 1.349 . S
C225 H217 0.950 . S
C225 C223 1.327 . S
C226 C214 1.349 . S
C226 H220 0.950 . S
C226 C227 1.327 . S
C227 H221 0.950 . S
C227 C226 1.327 . S
C227 C231 1.429 . S
C228 C211 1.574 . S
C228 H222 0.949 . S
C228 C232 1.368 . S
C229 C210 1.429 . S
C229 C223 1.429 . S
C229 C230 1.523 . S
C230 C211 1.368 . S
C230 C224 1.368 . S
C230 C229 1.523 . S
C231 C215 1.429 . S
C231 C227 1.429 . S
C231 C232 1.523 . S
C232 C216 1.368 . S
C232 C228 1.368 . S
C232 C231 1.523 . S
H233 C208 0.950 . S
H234 C210 0.950 . S
H235 C211 0.949 . S
H236 C213 0.950 1_565 S
H237 C215 0.950 . S
C238 C239 1.349 . S
C238 C240 1.327 . S
C238 H263 0.950 . S
C239 C238 1.349 . S
C239 C255 1.349 . S
C240 C238 1.327 . S
C240 C259 1.429 . S
C240 H264 0.950 . S
C241 C258 1.574 . S
C241 C260 1.368 . S
C241 H265 0.949 . S
H242 C246 0.949 . S
C243 C244 1.349 . S
C243 C245 1.327 . S
C243 H266 0.950 1_565 S
C244 C243 1.349 . S
C244 C256 1.349 . S
C245 C243 1.327 . S
C245 C261 1.429 . S
C245 H267 0.950 . S
C246 H242 0.949 . S
C246 C254 1.574 . S
C246 C262 1.368 . S
H247 C255 0.950 . S
H248 C253 0.950 . S
H249 C254 0.949 . S
H250 C256 0.950 . S
H251 C257 0.950 . S
H252 C258 0.949 . S
C253 H248 0.950 . S
C253 C255 1.327 . S
C253 C259 1.429 . S
C254 C246 1.574 . S
C254 H249 0.949 . S
C254 C260 1.368 . S
C255 C239 1.349 . S
C255 H247 0.950 . S
C255 C253 1.327 . S
C256 C244 1.349 . S
C256 H250 0.950 . S
C256 C257 1.327 . S
C257 H251 0.950 . S
C257 C256 1.327 . S
C257 C261 1.429 . S
C258 C241 1.574 . S
C258 H252 0.949 . S
C258 C262 1.368 . S
C259 C240 1.429 . S
C259 C253 1.429 . S
C259 C260 1.523 . S
C260 C241 1.368 . S
C260 C254 1.368 . S
C260 C259 1.523 . S
C261 C245 1.429 . S
C261 C257 1.429 . S
C261 C262 1.523 . S
C262 C246 1.368 . S
C262 C258 1.368 . S
C262 C261 1.523 . S
H263 C238 0.950 . S
H264 C240 0.950 . S
H265 C241 0.949 . S
H266 C243 0.950 1_545 S
H267 C245 0.950 . S
C268 C269 1.349 . S
C268 C270 1.327 . S
C268 H293 0.950 . S
C269 C268 1.349 . S
C269 C285 1.349 . S
C270 C268 1.327 . S
C270 C289 1.429 . S
C270 H294 0.950 . S
C271 C288 1.574 . S
C271 C290 1.368 . S
C271 H295 0.949 . S
H272 C276 0.949 . S
C273 C274 1.349 . S
C273 C275 1.327 . S
C273 H296 0.950 . S
C274 C273 1.349 . S
C274 C286 1.349 . S
C275 C273 1.327 . S
C275 C291 1.429 . S
C275 H297 0.950 . S
C276 H272 0.949 . S
C276 C284 1.574 . S
C276 C292 1.368 . S
H277 C285 0.950 . S
H278 C283 0.950 . S
H279 C284 0.949 . S
H280 C286 0.950 . S
H281 C287 0.950 . S
H282 C288 0.949 . S
C283 H278 0.950 . S
C283 C285 1.327 . S
C283 C289 1.429 . S
C284 C276 1.574 . S
C284 H279 0.949 . S
C284 C290 1.368 . S
C285 C269 1.349 . S
C285 H277 0.950 . S
C285 C283 1.327 . S
C286 C274 1.349 . S
C286 H280 0.950 . S
C286 C287 1.327 . S
C287 H281 0.950 . S
C287 C286 1.327 . S
C287 C291 1.429 . S
C288 C271 1.574 . S
C288 H282 0.949 . S
C288 C292 1.368 . S
C289 C270 1.429 . S
C289 C283 1.429 . S
C289 C290 1.523 . S
C290 C271 1.368 . S
C290 C284 1.368 . S
C290 C289 1.523 . S
C291 C275 1.429 . S
C291 C287 1.429 . S
C291 C292 1.523 . S
C292 C276 1.368 . S
C292 C288 1.368 . S
C292 C291 1.523 . S
H293 C268 0.950 . S
H294 C270 0.950 . S
H295 C271 0.949 . S
H296 C273 0.950 . S
H297 C275 0.950 . S
C298 C299 1.349 . S
C298 C300 1.327 . S
C298 H323 0.950 . S
C299 C298 1.349 . S
C299 C315 1.349 . S
C300 C298 1.327 . S
C300 C319 1.429 . S
C300 H324 0.950 . S
C301 C318 1.574 . S
C301 C320 1.368 . S
C301 H325 0.949 . S
H302 C306 0.949 . S
C303 C304 1.349 . S
C303 C305 1.327 . S
C303 H326 0.950 . S
C304 C303 1.349 . S
C304 C316 1.349 . S
C305 C303 1.327 . S
C305 C321 1.429 . S
C305 H327 0.950 . S
C306 H302 0.949 . S
C306 C314 1.574 . S
C306 C322 1.368 . S
H307 C315 0.950 . S
H308 C313 0.950 . S
H309 C314 0.949 . S
H310 C316 0.950 . S
H311 C317 0.950 . S
H312 C318 0.949 . S
C313 H308 0.950 . S
C313 C315 1.327 . S
C313 C319 1.429 . S
C314 C306 1.574 . S
C314 H309 0.949 . S
C314 C320 1.368 . S
C315 C299 1.349 . S
C315 H307 0.950 . S
C315 C313 1.327 . S
C316 C304 1.349 . S
C316 H310 0.950 . S
C316 C317 1.327 . S
C317 H311 0.950 . S
C317 C316 1.327 . S
C317 C321 1.429 . S
C318 C301 1.574 . S
C318 H312 0.949 . S
C318 C322 1.368 . S
C319 C300 1.429 . S
C319 C313 1.429 . S
C319 C320 1.523 . S
C320 C301 1.368 . S
C320 C314 1.368 . S
C320 C319 1.523 . S
C321 C305 1.429 . S
C321 C317 1.429 . S
C321 C322 1.523 . S
C322 C306 1.368 . S
C322 C318 1.368 . S
C322 C321 1.523 . S
H323 C298 0.950 . S
H324 C300 0.950 . S
H325 C301 0.949 . S
H326 C303 0.950 . S
H327 C305 0.950 . S
C328 C329 1.349 . S
C328 C330 1.327 . S
C328 H353 0.950 . S
C329 C328 1.349 . S
C329 C345 1.349 . S
C330 C328 1.327 . S
C330 C349 1.429 . S
C330 H354 0.950 . S
C331 C348 1.574 . S
C331 C350 1.368 . S
C331 H355 0.949 . S
H332 C336 0.949 . S
C333 C334 1.349 . S
C333 C335 1.327 . S
C333 H356 0.950 . S
C334 C333 1.349 . S
C334 C346 1.349 . S
C335 C333 1.327 . S
C335 C351 1.429 . S
C335 H357 0.950 . S
C336 H332 0.949 . S
C336 C344 1.574 . S
C336 C352 1.368 . S
H337 C345 0.950 . S
H338 C343 0.950 . S
H339 C344 0.949 . S
H340 C346 0.950 1_556 S
H341 C347 0.950 . S
H342 C348 0.949 . S
C343 H338 0.950 . S
C343 C345 1.327 . S
C343 C349 1.429 . S
C344 C336 1.574 . S
C344 H339 0.949 . S
C344 C350 1.368 . S
C345 C329 1.349 . S
C345 H337 0.950 . S
C345 C343 1.327 . S
C346 C334 1.349 . S
C346 H340 0.950 1_554 S
C346 C347 1.327 . S
C347 H341 0.950 . S
C347 C346 1.327 . S
C347 C351 1.429 . S
C348 C331 1.574 . S
C348 H342 0.949 . S
C348 C352 1.368 . S
C349 C330 1.429 . S
C349 C343 1.429 . S
C349 C350 1.523 . S
C350 C331 1.368 . S
C350 C344 1.368 . S
C350 C349 1.523 . S
C351 C335 1.429 . S
C351 C347 1.429 . S
C351 C352 1.523 . S
C352 C336 1.368 . S
C352 C348 1.368 . S
C352 C351 1.523 . S
H353 C328 0.950 . S
H354 C330 0.950 . S
H355 C331 0.949 . S
H356 C333 0.950 . S
H357 C335 0.950 . S
C358 C359 1.349 . S
C358 C360 1.327 . S
C358 H383 0.950 . S
C359 C358 1.349 . S
C359 C375 1.349 . S
C360 C358 1.327 . S
C360 C379 1.429 . S
C360 H384 0.950 . S
C361 C378 1.574 . S
C361 C380 1.368 . S
C361 H385 0.949 . S
H362 C366 0.949 . S
C363 C364 1.349 . S
C363 C365 1.327 . S
C363 H386 0.950 1_565 S
C364 C363 1.349 . S
C364 C376 1.349 . S
C365 C363 1.327 . S
C365 C381 1.429 . S
C365 H387 0.950 . S
C366 H362 0.949 . S
C366 C374 1.574 . S
C366 C382 1.368 . S
H367 C375 0.950 . S
H368 C373 0.950 . S
H369 C374 0.949 . S
H370 C376 0.950 . S
H371 C377 0.950 . S
H372 C378 0.949 . S
C373 H368 0.950 . S
C373 C375 1.327 . S
C373 C379 1.429 . S
C374 C366 1.574 . S
C374 H369 0.949 . S
C374 C380 1.368 . S
C375 C359 1.349 . S
C375 H367 0.950 . S
C375 C373 1.327 . S
C376 C364 1.349 . S
C376 H370 0.950 . S
C376 C377 1.327 . S
C377 H371 0.950 . S
C377 C376 1.327 . S
C377 C381 1.429 . S
C378 C361 1.574 . S
C378 H372 0.949 . S
C378 C382 1.368 . S
C379 C360 1.429 . S
C379 C373 1.429 . S
C379 C380 1.523 . S
C380 C361 1.368 . S
C380 C374 1.368 . S
C380 C379 1.523 . S
C381 C365 1.429 . S
C381 C377 1.429 . S
C381 C382 1.523 . S
C382 C366 1.368 . S
C382 C378 1.368 . S
C382 C381 1.523 . S
H383 C358 0.950 . S
H384 C360 0.950 . S
H385 C361 0.949 . S
H386 C363 0.950 1_545 S
H387 C365 0.950 . S
C388 C389 1.349 . S
C388 C390 1.327 . S
C388 H413 0.950 . S
C389 C388 1.349 . S
C389 C405 1.349 . S
C390 C388 1.327 . S
C390 C409 1.429 . S
C390 H414 0.950 . S
C391 C408 1.574 . S
C391 C410 1.368 . S
C391 H415 0.949 . S
H392 C396 0.949 . S
C393 C394 1.349 . S
C393 C395 1.327 . S
C393 H416 0.950 1_556 S
C394 C393 1.349 . S
C394 C406 1.349 . S
C395 C393 1.327 . S
C395 C411 1.429 . S
C395 H417 0.944 1_556 S
C396 H392 0.949 . S
C396 C404 1.574 . S
C396 C412 1.368 . S
H397 C405 0.950 . S
H398 C403 0.950 . S
H399 C404 0.949 . S
H400 C406 0.950 . S
H401 C407 0.950 . S
H402 C408 0.949 . S
C403 H398 0.950 . S
C403 C405 1.327 . S
C403 C409 1.429 . S
C404 C396 1.574 . S
C404 H399 0.949 . S
C404 C410 1.368 . S
C405 C389 1.349 . S
C405 H397 0.950 . S
C405 C403 1.327 . S
C406 C394 1.349 . S
C406 H400 0.950 . S
C406 C407 1.327 . S
C407 H401 0.950 . S
C407 C406 1.327 . S
C407 C411 1.429 . S
C408 C391 1.574 . S
C408 H402 0.949 . S
C408 C412 1.368 . S
C409 C390 1.429 . S
C409 C403 1.429 . S
C409 C410 1.523 . S
C410 C391 1.368 . S
C410 C404 1.368 . S
C410 C409 1.523 . S
C411 C395 1.429 . S
C411 C407 1.429 . S
C411 C412 1.523 . S
C412 C396 1.368 . S
C412 C408 1.368 . S
C412 C411 1.523 . S
H413 C388 0.950 . S
H414 C390 0.950 . S
H415 C391 0.949 . S
H416 C393 0.950 1_554 S
H417 C395 0.944 1_554 S
C418 C419 1.349 . S
C418 C420 1.327 . S
C418 H443 0.950 . S
C419 C418 1.349 . S
C419 C435 1.349 . S
C420 C418 1.327 . S
C420 C439 1.429 . S
C420 H444 0.950 . S
C421 C438 1.574 . S
C421 C440 1.368 . S
C421 H445 0.949 . S
H422 C426 0.949 . S
C423 C424 1.349 . S
C423 C425 1.327 . S
C423 H446 0.950 . S
C424 C423 1.349 . S
C424 C436 1.349 . S
C425 C423 1.327 . S
C425 C441 1.429 . S
C425 H447 0.950 . S
C426 H422 0.949 . S
C426 C434 1.574 . S
C426 C442 1.368 . S
H427 C435 0.950 . S
H428 C433 0.950 . S
H429 C434 0.949 . S
H430 C436 0.950 . S
H431 C437 0.950 . S
H432 C438 0.949 . S
C433 H428 0.950 . S
C433 C435 1.327 . S
C433 C439 1.429 . S
C434 C426 1.574 . S
C434 H429 0.949 . S
C434 C440 1.368 . S
C435 C419 1.349 . S
C435 H427 0.950 . S
C435 C433 1.327 . S
C436 C424 1.349 . S
C436 H430 0.950 . S
C436 C437 1.327 . S
C437 H431 0.950 . S
C437 C436 1.327 . S
C437 C441 1.429 . S
C438 C421 1.574 . S
C438 H432 0.949 . S
C438 C442 1.368 . S
C439 C420 1.429 . S
C439 C433 1.429 . S
C439 C440 1.523 . S
C440 C421 1.368 . S
C440 C434 1.368 . S
C440 C439 1.523 . S
C441 C425 1.429 . S
C441 C437 1.429 . S
C441 C442 1.523 . S
C442 C426 1.368 . S
C442 C438 1.368 . S
C442 C441 1.523 . S
H443 C418 0.950 . S
H444 C420 0.950 . S
H445 C421 0.949 . S
H446 C423 0.950 . S
H447 C425 0.950 . S
C448 C449 1.349 . S
C448 C450 1.327 . S
C448 H473 0.950 . S
C449 C448 1.349 . S
C449 C465 1.349 . S
C450 C448 1.327 . S
C450 C469 1.429 . S
C450 H474 0.950 . S
C451 C468 1.574 . S
C451 C470 1.368 . S
C451 H475 0.949 . S
H452 C456 0.949 . S
C453 C454 1.349 . S
C453 C455 1.327 . S
C453 H476 0.950 1_455 S
C454 C453 1.349 . S
C454 C466 1.349 . S
C455 C453 1.327 . S
C455 C471 1.429 . S
C455 H477 0.950 . S
C456 H452 0.949 . S
C456 C464 1.574 . S
C456 C472 1.368 . S
H457 C465 0.950 . S
H458 C463 0.950 . S
H459 C464 0.949 . S
H460 C466 0.950 . S
H461 C467 0.950 . S
H462 C468 0.949 . S
C463 H458 0.950 . S
C463 C465 1.327 . S
C463 C469 1.429 . S
C464 C456 1.574 . S
C464 H459 0.949 . S
C464 C470 1.368 . S
C465 C449 1.349 . S
C465 H457 0.950 . S
C465 C463 1.327 . S
C466 C454 1.349 . S
C466 H460 0.950 . S
C466 C467 1.327 . S
C467 H461 0.950 . S
C467 C466 1.327 . S
C467 C471 1.429 . S
C468 C451 1.574 . S
C468 H462 0.949 . S
C468 C472 1.368 . S
C469 C450 1.429 . S
C469 C463 1.429 . S
C469 C470 1.523 . S
C470 C451 1.368 . S
C470 C464 1.368 . S
C470 C469 1.523 . S
C471 C455 1.429 . S
C471 C467 1.429 . S
C471 C472 1.523 . S
C472 C456 1.368 . S
C472 C468 1.368 . S
C472 C471 1.523 . S
H473 C448 0.950 . S
H474 C450 0.950 . S
H475 C451 0.949 . S
H476 C453 0.950 1_655 S
H477 C455 0.950 . S
C478 C479 1.349 . S
C478 C480 1.327 . S
C478 H503 0.950 . S
C479 C478 1.349 . S
C479 C495 1.349 . S
C480 C478 1.327 . S
C480 C499 1.429 . S
C480 H504 0.950 . S
C481 C498 1.574 . S
C481 C500 1.368 . S
C481 H505 0.949 . S
H482 C486 0.949 . S
C483 C484 1.349 . S
C483 C485 1.327 . S
C483 H506 0.950 . S
C484 C483 1.349 . S
C484 C496 1.349 . S
C485 C483 1.327 . S
C485 C501 1.429 . S
C485 H507 0.950 . S
C486 H482 0.949 . S
C486 C494 1.574 . S
C486 C502 1.368 . S
H487 C495 0.950 . S
H488 C493 0.950 . S
H489 C494 0.949 . S
H490 C496 0.950 . S
H491 C497 0.950 . S
H492 C498 0.949 . S
C493 H488 0.950 . S
C493 C495 1.327 . S
C493 C499 1.429 . S
C494 C486 1.574 . S
C494 H489 0.949 . S
C494 C500 1.368 . S
C495 C479 1.349 . S
C495 H487 0.950 . S
C495 C493 1.327 . S
C496 C484 1.349 . S
C496 H490 0.950 . S
C496 C497 1.327 . S
C497 H491 0.950 . S
C497 C496 1.327 . S
C497 C501 1.429 . S
C498 C481 1.574 . S
C498 H492 0.949 . S
C498 C502 1.368 . S
C499 C480 1.429 . S
C499 C493 1.429 . S
C499 C500 1.523 . S
C500 C481 1.368 . S
C500 C494 1.368 . S
C500 C499 1.523 . S
C501 C485 1.429 . S
C501 C497 1.429 . S
C501 C502 1.523 . S
C502 C486 1.368 . S
C502 C498 1.368 . S
C502 C501 1.523 . S
H503 C478 0.950 . S
H504 C480 0.950 . S
H505 C481 0.949 . S
H506 C483 0.950 . S
H507 C485 0.950 . S
C508 C509 1.349 . S
C508 C510 1.327 . S
C508 H533 0.950 . S
C509 C508 1.349 . S
C509 C525 1.349 . S
C510 C508 1.327 . S
C510 C529 1.429 . S
C510 H534 0.950 . S
C511 C528 1.574 . S
C511 C530 1.368 . S
C511 H535 0.949 . S
H512 C516 0.949 . S
C513 C514 1.349 . S
C513 C515 1.327 . S
C513 H536 0.950 . S
C514 C513 1.349 . S
C514 C526 1.349 . S
C515 C513 1.327 . S
C515 C531 1.429 . S
C515 H537 0.950 . S
C516 H512 0.949 . S
C516 C524 1.574 . S
C516 C532 1.368 . S
H517 C525 0.950 . S
H518 C523 0.950 . S
H519 C524 0.949 . S
H520 C526 0.950 . S
H521 C527 0.950 . S
H522 C528 0.949 . S
C523 H518 0.950 . S
C523 C525 1.327 . S
C523 C529 1.429 . S
C524 C516 1.574 . S
C524 H519 0.949 . S
C524 C530 1.368 . S
C525 C509 1.349 . S
C525 H517 0.950 . S
C525 C523 1.327 . S
C526 C514 1.349 . S
C526 H520 0.950 . S
C526 C527 1.327 . S
C527 H521 0.950 . S
C527 C526 1.327 . S
C527 C531 1.429 . S
C528 C511 1.574 . S
C528 H522 0.949 . S
C528 C532 1.368 . S
C529 C510 1.429 . S
C529 C523 1.429 . S
C529 C530 1.523 . S
C530 C511 1.368 . S
C530 C524 1.368 . S
C530 C529 1.523 . S
C531 C515 1.429 . S
C531 C527 1.429 . S
C531 C532 1.523 . S
C532 C516 1.368 . S
C532 C528 1.368 . S
C532 C531 1.523 . S
H533 C508 0.950 . S
H534 C510 0.950 . S
H535 C511 0.949 . S
H536 C513 0.950 . S
H537 C515 0.950 . S
C538 C539 1.349 . S
C538 C540 1.327 . S
C538 H563 0.950 . S
C539 C538 1.349 . S
C539 C555 1.349 . S
C540 C538 1.327 . S
C540 C559 1.429 . S
C540 H564 0.950 . S
C541 C558 1.574 . S
C541 C560 1.368 . S
C541 H565 0.949 . S
H542 C546 0.949 . S
C543 C544 1.349 . S
C543 C545 1.327 . S
C543 H566 0.950 . S
C544 C543 1.349 . S
C544 C556 1.349 . S
C545 C543 1.327 . S
C545 C561 1.429 . S
C545 H567 0.950 . S
C546 H542 0.949 . S
C546 C554 1.574 . S
C546 C562 1.368 . S
H547 C555 0.950 . S
H548 C553 0.950 . S
H549 C554 0.949 . S
H550 C556 0.950 . S
H551 C557 0.950 . S
H552 C558 0.949 . S
C553 H548 0.950 . S
C553 C555 1.327 . S
C553 C559 1.429 . S
C554 C546 1.574 . S
C554 H549 0.949 . S
C554 C560 1.368 . S
C555 C539 1.349 . S
C555 H547 0.950 . S
C555 C553 1.327 . S
C556 C544 1.349 . S
C556 H550 0.950 . S
C556 C557 1.327 . S
C557 H551 0.950 . S
C557 C556 1.327 . S
C557 C561 1.429 . S
C558 C541 1.574 . S
C558 H552 0.949 . S
C558 C562 1.368 . S
C559 C540 1.429 . S
C559 C553 1.429 . S
C559 C560 1.523 . S
C560 C541 1.368 . S
C560 C554 1.368 . S
C560 C559 1.523 . S
C561 C545 1.429 . S
C561 C557 1.429 . S
C561 C562 1.523 . S
C562 C546 1.368 . S
C562 C558 1.368 . S
C562 C561 1.523 . S
H563 C538 0.950 . S
H564 C540 0.950 . S
H565 C541 0.949 . S
H566 C543 0.950 . S
H567 C545 0.950 . S
C568 C569 1.349 . S
C568 C570 1.327 . S
C568 H593 0.950 . S
C569 C568 1.349 . S
C569 C585 1.349 . S
C570 C568 1.327 . S
C570 C589 1.429 . S
C570 H594 0.950 . S
C571 C588 1.574 . S
C571 C590 1.368 . S
C571 H595 0.949 . S
H572 C576 0.949 . S
C573 C574 1.349 . S
C573 C575 1.327 . S
C573 H596 0.950 . S
C574 C573 1.349 . S
C574 C586 1.349 . S
C575 C573 1.327 . S
C575 C591 1.429 . S
C575 H597 0.950 . S
C576 H572 0.949 . S
C576 C584 1.574 . S
C576 C592 1.368 . S
H577 C585 0.950 . S
H578 C583 0.950 . S
H579 C584 0.949 . S
H580 C586 0.946 1_445 S
H581 C587 0.950 . S
H582 C588 0.949 . S
C583 H578 0.950 . S
C583 C585 1.327 . S
C583 C589 1.429 . S
C584 C576 1.574 . S
C584 H579 0.949 . S
C584 C590 1.368 . S
C585 C569 1.349 . S
C585 H577 0.950 . S
C585 C583 1.327 . S
C586 C574 1.349 . S
C586 H580 0.946 1_665 S
C586 C587 1.327 . S
C587 H581 0.950 . S
C587 C586 1.327 . S
C587 C591 1.429 . S
C588 C571 1.574 . S
C588 H582 0.949 . S
C588 C592 1.368 . S
C589 C570 1.429 . S
C589 C583 1.429 . S
C589 C590 1.523 . S
C590 C571 1.368 . S
C590 C584 1.368 . S
C590 C589 1.523 . S
C591 C575 1.429 . S
C591 C587 1.429 . S
C591 C592 1.523 . S
C592 C576 1.368 . S
C592 C588 1.368 . S
C592 C591 1.523 . S
H593 C568 0.950 . S
H594 C570 0.950 . S
H595 C571 0.949 . S
H596 C573 0.950 . S
H597 C575 0.950 . S
C598 C599 1.349 . S
C598 C600 1.327 . S
C598 H623 0.950 . S
C599 C598 1.349 . S
C599 C615 1.349 . S
C600 C598 1.327 . S
C600 C619 1.429 . S
C600 H624 0.950 . S
C601 C618 1.574 . S
C601 C620 1.368 . S
C601 H625 0.949 . S
H602 C606 0.949 . S
C603 C604 1.349 . S
C603 C605 1.327 . S
C603 H626 0.950 . S
C604 C603 1.349 . S
C604 C616 1.349 . S
C605 C603 1.327 . S
C605 C621 1.429 . S
C605 H627 0.950 . S
C606 H602 0.949 . S
C606 C614 1.574 . S
C606 C622 1.368 . S
H607 C615 0.950 . S
H608 C613 0.950 . S
H609 C614 0.949 . S
H610 C616 0.950 . S
H611 C617 0.950 . S
H612 C618 0.949 . S
C613 H608 0.950 . S
C613 C615 1.327 . S
C613 C619 1.429 . S
C614 C606 1.574 . S
C614 H609 0.949 . S
C614 C620 1.368 . S
C615 C599 1.349 . S
C615 H607 0.950 . S
C615 C613 1.327 . S
C616 C604 1.349 . S
C616 H610 0.950 . S
C616 C617 1.327 . S
C617 H611 0.950 . S
C617 C616 1.327 . S
C617 C621 1.429 . S
C618 C601 1.574 . S
C618 H612 0.949 . S
C618 C622 1.368 . S
C619 C600 1.429 . S
C619 C613 1.429 . S
C619 C620 1.523 . S
C620 C601 1.368 . S
C620 C614 1.368 . S
C620 C619 1.523 . S
C621 C605 1.429 . S
C621 C617 1.429 . S
C621 C622 1.523 . S
C622 C606 1.368 . S
C622 C618 1.368 . S
C622 C621 1.523 . S
H623 C598 0.950 . S
H624 C600 0.950 . S
H625 C601 0.949 . S
H626 C603 0.950 . S
H627 C605 0.950 . S
C628 C629 1.349 . S
C628 C630 1.327 . S
C628 H653 0.950 . S
C629 C628 1.349 . S
C629 C645 1.349 . S
C630 C628 1.327 . S
C630 C649 1.429 . S
C630 H654 0.950 . S
C631 C648 1.574 . S
C631 C650 1.368 . S
C631 H655 0.949 . S
H632 C636 0.949 . S
C633 C634 1.349 . S
C633 C635 1.327 . S
C633 H656 0.950 . S
C634 C633 1.349 . S
C634 C646 1.349 . S
C635 C633 1.327 . S
C635 C651 1.429 . S
C635 H657 0.950 . S
C636 H632 0.949 . S
C636 C644 1.574 . S
C636 C652 1.368 . S
H637 C645 0.950 . S
H638 C643 0.950 . S
H639 C644 0.949 . S
H640 C646 0.950 . S
H641 C647 0.950 . S
H642 C648 0.949 . S
C643 H638 0.950 . S
C643 C645 1.327 . S
C643 C649 1.429 . S
C644 C636 1.574 . S
C644 H639 0.949 . S
C644 C650 1.368 . S
C645 C629 1.349 . S
C645 H637 0.950 . S
C645 C643 1.327 . S
C646 C634 1.349 . S
C646 H640 0.950 . S
C646 C647 1.327 . S
C647 H641 0.950 . S
C647 C646 1.327 . S
C647 C651 1.429 . S
C648 C631 1.574 . S
C648 H642 0.949 . S
C648 C652 1.368 . S
C649 C630 1.429 . S
C649 C643 1.429 . S
C649 C650 1.523 . S
C650 C631 1.368 . S
C650 C644 1.368 . S
C650 C649 1.523 . S
C651 C635 1.429 . S
C651 C647 1.429 . S
C651 C652 1.523 . S
C652 C636 1.368 . S
C652 C648 1.368 . S
C652 C651 1.523 . S
H653 C628 0.950 . S
H654 C630 0.950 . S
H655 C631 0.949 . S
H656 C633 0.950 . S
H657 C635 0.950 . S
C658 C659 1.349 . S
C658 C660 1.327 . S
C658 H683 0.950 . S
C659 C658 1.349 . S
C659 C675 1.349 . S
C660 C658 1.327 . S
C660 C679 1.429 . S
C660 H684 0.950 . S
C661 C678 1.574 . S
C661 C680 1.368 . S
C661 H685 0.949 . S
H662 C666 0.949 . S
C663 C664 1.349 . S
C663 C665 1.327 . S
C663 H686 0.950 . S
C664 C663 1.349 . S
C664 C676 1.349 . S
C665 C663 1.327 . S
C665 C681 1.429 . S
C665 H687 0.950 . S
C666 H662 0.949 . S
C666 C674 1.574 . S
C666 C682 1.368 . S
H667 C675 0.950 . S
H668 C673 0.950 . S
H669 C674 0.949 . S
H670 C676 0.950 . S
H671 C677 0.950 . S
H672 C678 0.949 . S
C673 H668 0.950 . S
C673 C675 1.327 . S
C673 C679 1.429 . S
C674 C666 1.574 . S
C674 H669 0.949 . S
C674 C680 1.368 . S
C675 C659 1.349 . S
C675 H667 0.950 . S
C675 C673 1.327 . S
C676 C664 1.349 . S
C676 H670 0.950 . S
C676 C677 1.327 . S
C677 H671 0.950 . S
C677 C676 1.327 . S
C677 C681 1.429 . S
C678 C661 1.574 . S
C678 H672 0.949 . S
C678 C682 1.368 . S
C679 C660 1.429 . S
C679 C673 1.429 . S
C679 C680 1.523 . S
C680 C661 1.368 . S
C680 C674 1.368 . S
C680 C679 1.523 . S
C681 C665 1.429 . S
C681 C677 1.429 . S
C681 C682 1.523 . S
C682 C666 1.368 . S
C682 C678 1.368 . S
C682 C681 1.523 . S
H683 C658 0.950 . S
H684 C660 0.950 . S
H685 C661 0.949 . S
H686 C663 0.950 . S
H687 C665 0.950 . S
C688 C689 1.349 . S
C688 C690 1.327 . S
C688 H713 0.950 . S
C689 C688 1.349 . S
C689 C705 1.349 . S
C690 C688 1.327 . S
C690 C709 1.429 . S
C690 H714 0.950 . S
C691 C708 1.574 . S
C691 C710 1.368 . S
C691 H715 0.949 . S
H692 C696 0.949 . S
C693 C694 1.349 . S
C693 C695 1.327 . S
C693 H716 0.950 . S
C694 C693 1.349 . S
C694 C706 1.349 . S
C695 C693 1.327 . S
C695 C711 1.429 . S
C695 H717 0.950 . S
C696 H692 0.949 . S
C696 C704 1.574 . S
C696 C712 1.368 . S
H697 C705 0.950 . S
H698 C703 0.950 . S
H699 C704 0.949 . S
H700 C706 0.950 1_554 S
H701 C707 0.950 . S
H702 C708 0.949 . S
C703 H698 0.950 . S
C703 C705 1.327 . S
C703 C709 1.429 . S
C704 C696 1.574 . S
C704 H699 0.949 . S
C704 C710 1.368 . S
C705 C689 1.349 . S
C705 H697 0.950 . S
C705 C703 1.327 . S
C706 C694 1.349 . S
C706 H700 0.950 1_556 S
C706 C707 1.327 . S
C707 H701 0.950 . S
C707 C706 1.327 . S
C707 C711 1.429 . S
C708 C691 1.574 . S
C708 H702 0.949 . S
C708 C712 1.368 . S
C709 C690 1.429 . S
C709 C703 1.429 . S
C709 C710 1.523 . S
C710 C691 1.368 . S
C710 C704 1.368 . S
C710 C709 1.523 . S
C711 C695 1.429 . S
C711 C707 1.429 . S
C711 C712 1.523 . S
C712 C696 1.368 . S
C712 C708 1.368 . S
C712 C711 1.523 . S
H713 C688 0.950 . S
H714 C690 0.950 . S
H715 C691 0.949 . S
H716 C693 0.950 . S
H717 C695 0.950 . S
C718 C719 1.349 . S
C718 C720 1.327 . S
C718 H743 0.950 . S
C719 C718 1.349 . S
C719 C735 1.349 . S
C720 C718 1.327 . S
C720 C739 1.429 . S
C720 H744 0.950 . S
C721 C738 1.574 . S
C721 C740 1.368 . S
C721 H745 0.949 . S
H722 C726 0.949 . S
C723 C724 1.349 . S
C723 C725 1.327 . S
C723 H746 0.950 . S
C724 C723 1.349 . S
C724 C736 1.349 . S
C725 C723 1.327 . S
C725 C741 1.429 . S
C725 H747 0.950 . S
C726 H722 0.949 . S
C726 C734 1.574 . S
C726 C742 1.368 . S
H727 C735 0.950 . S
H728 C733 0.950 . S
H729 C734 0.949 . S
H730 C736 0.950 . S
H731 C737 0.950 . S
H732 C738 0.949 . S
C733 H728 0.950 . S
C733 C735 1.327 . S
C733 C739 1.429 . S
C734 C726 1.574 . S
C734 H729 0.949 . S
C734 C740 1.368 . S
C735 C719 1.349 . S
C735 H727 0.950 . S
C735 C733 1.327 . S
C736 C724 1.349 . S
C736 H730 0.950 . S
C736 C737 1.327 . S
C737 H731 0.950 . S
C737 C736 1.327 . S
C737 C741 1.429 . S
C738 C721 1.574 . S
C738 H732 0.949 . S
C738 C742 1.368 . S
C739 C720 1.429 . S
C739 C733 1.429 . S
C739 C740 1.523 . S
C740 C721 1.368 . S
C740 C734 1.368 . S
C740 C739 1.523 . S
C741 C725 1.429 . S
C741 C737 1.429 . S
C741 C742 1.523 . S
C742 C726 1.368 . S
C742 C738 1.368 . S
C742 C741 1.523 . S
H743 C718 0.950 . S
H744 C720 0.950 . S
H745 C721 0.949 . S
H746 C723 0.950 . S
H747 C725 0.950 . S
C748 C749 1.349 . S
C748 C750 1.327 . S
C748 H773 0.950 . S
C749 C748 1.349 . S
C749 C765 1.349 . S
C750 C748 1.327 . S
C750 C769 1.429 . S
C750 H774 0.950 . S
C751 C768 1.574 . S
C751 C770 1.368 . S
C751 H775 0.949 . S
H752 C756 0.949 . S
C753 C754 1.349 . S
C753 C755 1.327 . S
C753 H776 0.950 . S
C754 C753 1.349 . S
C754 C766 1.349 . S
C755 C753 1.327 . S
C755 C771 1.429 . S
C755 H777 0.950 . S
C756 H752 0.949 . S
C756 C764 1.574 . S
C756 C772 1.368 . S
H757 C765 0.950 . S
H758 C763 0.950 . S
H759 C764 0.949 . S
H760 C766 0.950 . S
H761 C767 0.950 . S
H762 C768 0.949 . S
C763 H758 0.950 . S
C763 C765 1.327 . S
C763 C769 1.429 . S
C764 C756 1.574 . S
C764 H759 0.949 . S
C764 C770 1.368 . S
C765 C749 1.349 . S
C765 H757 0.950 . S
C765 C763 1.327 . S
C766 C754 1.349 . S
C766 H760 0.950 . S
C766 C767 1.327 . S
C767 H761 0.950 . S
C767 C766 1.327 . S
C767 C771 1.429 . S
C768 C751 1.574 . S
C768 H762 0.949 . S
C768 C772 1.368 . S
C769 C750 1.429 . S
C769 C763 1.429 . S
C769 C770 1.523 . S
C770 C751 1.368 . S
C770 C764 1.368 . S
C770 C769 1.523 . S
C771 C755 1.429 . S
C771 C767 1.429 . S
C771 C772 1.523 . S
C772 C756 1.368 . S
C772 C768 1.368 . S
C772 C771 1.523 . S
H773 C748 0.950 . S
H774 C750 0.950 . S
H775 C751 0.949 . S
H776 C753 0.950 . S
H777 C755 0.950 . S
C778 C779 1.349 . S
C778 C780 1.327 . S
C778 H803 0.950 . S
C779 C778 1.349 . S
C779 C795 1.349 . S
C780 C778 1.327 . S
C780 C799 1.429 . S
C780 H804 0.950 . S
C781 C798 1.574 . S
C781 C800 1.368 . S
C781 H805 0.949 . S
H782 C786 0.949 . S
C783 C784 1.349 . S
C783 C785 1.327 . S
C783 H806 0.950 . S
C784 C783 1.349 . S
C784 C796 1.349 . S
C785 C783 1.327 . S
C785 C801 1.429 . S
C785 H807 0.950 . S
C786 H782 0.949 . S
C786 C794 1.574 . S
C786 C802 1.368 . S
H787 C795 0.950 . S
H788 C793 0.950 . S
H789 C794 0.949 . S
H790 C796 0.950 . S
H791 C797 0.950 . S
H792 C798 0.949 . S
C793 H788 0.950 . S
C793 C795 1.327 . S
C793 C799 1.429 . S
C794 C786 1.574 . S
C794 H789 0.949 . S
C794 C800 1.368 . S
C795 C779 1.349 . S
C795 H787 0.950 . S
C795 C793 1.327 . S
C796 C784 1.349 . S
C796 H790 0.950 . S
C796 C797 1.327 . S
C797 H791 0.950 . S
C797 C796 1.327 . S
C797 C801 1.429 . S
C798 C781 1.574 . S
C798 H792 0.949 . S
C798 C802 1.368 . S
C799 C780 1.429 . S
C799 C793 1.429 . S
C799 C800 1.523 . S
C800 C781 1.368 . S
C800 C794 1.368 . S
C800 C799 1.523 . S
C801 C785 1.429 . S
C801 C797 1.429 . S
C801 C802 1.523 . S
C802 C786 1.368 . S
C802 C798 1.368 . S
C802 C801 1.523 . S
H803 C778 0.950 . S
H804 C780 0.950 . S
H805 C781 0.949 . S
H806 C783 0.950 . S
H807 C785 0.950 . S
C808 C809 1.349 . S
C808 C810 1.327 . S
C808 H833 0.950 . S
C809 C808 1.349 . S
C809 C825 1.349 . S
C810 C808 1.327 . S
C810 C829 1.429 . S
C810 H834 0.950 . S
C811 C828 1.574 . S
C811 C830 1.368 . S
C811 H835 0.949 . S
H812 C816 0.949 . S
C813 C814 1.349 . S
C813 C815 1.327 . S
C813 H836 0.950 . S
C814 C813 1.349 . S
C814 C826 1.349 . S
C815 C813 1.327 . S
C815 C831 1.429 . S
C815 H837 0.950 . S
C816 H812 0.949 . S
C816 C824 1.574 . S
C816 C832 1.368 . S
H817 C825 0.950 . S
H818 C823 0.950 . S
H819 C824 0.949 . S
H820 C826 0.950 1_554 S
H821 C827 0.950 . S
H822 C828 0.949 . S
C823 H818 0.950 . S
C823 C825 1.327 . S
C823 C829 1.429 . S
C824 C816 1.574 . S
C824 H819 0.949 . S
C824 C830 1.368 . S
C825 C809 1.349 . S
C825 H817 0.950 . S
C825 C823 1.327 . S
C826 C814 1.349 . S
C826 H820 0.950 1_556 S
C826 C827 1.327 . S
C827 H821 0.950 . S
C827 C826 1.327 . S
C827 C831 1.429 . S
C828 C811 1.574 . S
C828 H822 0.949 . S
C828 C832 1.368 . S
C829 C810 1.429 . S
C829 C823 1.429 . S
C829 C830 1.523 . S
C830 C811 1.368 . S
C830 C824 1.368 . S
C830 C829 1.523 . S
C831 C815 1.429 . S
C831 C827 1.429 . S
C831 C832 1.523 . S
C832 C816 1.368 . S
C832 C828 1.368 . S
C832 C831 1.523 . S
H833 C808 0.950 . S
H834 C810 0.950 . S
H835 C811 0.949 . S
H836 C813 0.950 . S
H837 C815 0.950 . S
C838 C839 1.349 . S
C838 C840 1.327 . S
C838 H863 0.950 . S
C839 C838 1.349 . S
C839 C855 1.349 . S
C840 C838 1.327 . S
C840 C859 1.429 . S
C840 H864 0.950 . S
C841 C858 1.574 . S
C841 C860 1.368 . S
C841 H865 0.949 . S
H842 C846 0.949 . S
C843 C844 1.349 . S
C843 C845 1.327 . S
C843 H866 0.950 . S
C844 C843 1.349 . S
C844 C856 1.349 . S
C845 C843 1.327 . S
C845 C861 1.429 . S
C845 H867 0.950 . S
C846 H842 0.949 . S
C846 C854 1.574 . S
C846 C862 1.368 . S
H847 C855 0.950 . S
H848 C853 0.950 . S
H849 C854 0.949 . S
H850 C856 0.950 . S
H851 C857 0.950 . S
H852 C858 0.949 . S
C853 H848 0.950 . S
C853 C855 1.327 . S
C853 C859 1.429 . S
C854 C846 1.574 . S
C854 H849 0.949 . S
C854 C860 1.368 . S
C855 C839 1.349 . S
C855 H847 0.950 . S
C855 C853 1.327 . S
C856 C844 1.349 . S
C856 H850 0.950 . S
C856 C857 1.327 . S
C857 H851 0.950 . S
C857 C856 1.327 . S
C857 C861 1.429 . S
C858 C841 1.574 . S
C858 H852 0.949 . S
C858 C862 1.368 . S
C859 C840 1.429 . S
C859 C853 1.429 . S
C859 C860 1.523 . S
C860 C841 1.368 . S
C860 C854 1.368 . S
C860 C859 1.523 . S
C861 C845 1.429 . S
C861 C857 1.429 . S
C861 C862 1.523 . S
C862 C846 1.368 . S
C862 C858 1.368 . S
C862 C861 1.523 . S
H863 C838 0.950 . S
H864 C840 0.950 . S
H865 C841 0.949 . S
H866 C843 0.950 . S
H867 C845 0.950 . S
C868 C869 1.349 . S
C868 C870 1.327 . S
C868 H893 0.950 . S
C869 C868 1.349 . S
C869 C885 1.349 . S
C870 C868 1.327 . S
C870 C889 1.429 . S
C870 H894 0.950 . S
C871 C888 1.574 . S
C871 C890 1.368 . S
C871 H895 0.949 . S
H872 C876 0.949 . S
C873 C874 1.349 . S
C873 C875 1.327 . S
C873 H896 0.950 . S
C874 C873 1.349 . S
C874 C886 1.349 . S
C875 C873 1.327 . S
C875 C891 1.429 . S
C875 H897 0.950 . S
C876 H872 0.949 . S
C876 C884 1.574 . S
C876 C892 1.368 . S
H877 C885 0.950 . S
H878 C883 0.950 . S
H879 C884 0.949 . S
H880 C886 0.950 . S
H881 C887 0.950 . S
H882 C888 0.949 . S
C883 H878 0.950 . S
C883 C885 1.327 . S
C883 C889 1.429 . S
C884 C876 1.574 . S
C884 H879 0.949 . S
C884 C890 1.368 . S
C885 C869 1.349 . S
C885 H877 0.950 . S
C885 C883 1.327 . S
C886 C874 1.349 . S
C886 H880 0.950 . S
C886 C887 1.327 . S
C887 H881 0.950 . S
C887 C886 1.327 . S
C887 C891 1.429 . S
C888 C871 1.574 . S
C888 H882 0.949 . S
C888 C892 1.368 . S
C889 C870 1.429 . S
C889 C883 1.429 . S
C889 C890 1.523 . S
C890 C871 1.368 . S
C890 C884 1.368 . S
C890 C889 1.523 . S
C891 C875 1.429 . S
C891 C887 1.429 . S
C891 C892 1.523 . S
C892 C876 1.368 . S
C892 C888 1.368 . S
C892 C891 1.523 . S
H893 C868 0.950 . S
H894 C870 0.950 . S
H895 C871 0.949 . S
H896 C873 0.950 . S
H897 C875 0.950 . S
C898 C899 1.349 . S
C898 C900 1.327 . S
C898 H923 0.950 . S
C899 C898 1.349 . S
C899 C915 1.349 . S
C900 C898 1.327 . S
C900 C919 1.429 . S
C900 H924 0.950 . S
C901 C918 1.574 . S
C901 C920 1.368 . S
C901 H925 0.949 . S
H902 C906 0.949 . S
C903 C904 1.349 . S
C903 C905 1.327 . S
C903 H926 0.950 . S
C904 C903 1.349 . S
C904 C916 1.349 . S
C905 C903 1.327 . S
C905 C921 1.429 . S
C905 H927 0.950 . S
C906 H902 0.949 . S
C906 C914 1.574 . S
C906 C922 1.368 . S
H907 C915 0.950 . S
H908 C913 0.950 . S
H909 C914 0.949 . S
H910 C916 0.950 . S
H911 C917 0.950 . S
H912 C918 0.949 . S
C913 H908 0.950 . S
C913 C915 1.327 . S
C913 C919 1.429 . S
C914 C906 1.574 . S
C914 H909 0.949 . S
C914 C920 1.368 . S
C915 C899 1.349 . S
C915 H907 0.950 . S
C915 C913 1.327 . S
C916 C904 1.349 . S
C916 H910 0.950 . S
C916 C917 1.327 . S
C917 H911 0.950 . S
C917 C916 1.327 . S
C917 C921 1.429 . S
C918 C901 1.574 . S
C918 H912 0.949 . S
C918 C922 1.368 . S
C919 C900 1.429 . S
C919 C913 1.429 . S
C919 C920 1.523 . S
C920 C901 1.368 . S
C920 C914 1.368 . S
C920 C919 1.523 . S
C921 C905 1.429 . S
C921 C917 1.429 . S
C921 C922 1.523 . S
C922 C906 1.368 . S
C922 C918 1.368 . S
C922 C921 1.523 . S
H923 C898 0.950 . S
H924 C900 0.950 . S
H925 C901 0.949 . S
H926 C903 0.950 . S
H927 C905 0.950 . S
C209 C5 2.294 . S
C214 C72 2.305 . S
C239 C14 2.244 . S
C244 C114 2.249 . S
C274 C144 0.907 . S
C269 C25 0.906 . S
C299 C34 0.947 . S
C304 C178 0.951 . S
C334 C135 1.812 . S
C329 C7 1.802 . S
C364 C89 1.830 . S
C359 C13 1.824 . S
C394 C182 1.272 . S
C389 C23 1.265 . S
C424 C148 1.312 . S
C419 C31 1.301 . S
C449 C4 2.168 . S
C454 C203 2.178 . S
C484 C110 1.051 . S
C479 C22 1.047 . S
C509 C32 1.046 . S
C514 C85 1.056 . S
C539 C16 2.131 . S
C544 C169 2.137 . S
C574 C101 2.289 . S
C569 C41 2.279 . S
C599 C50 2.252 . S
C604 C123 2.257 . S
C629 C61 0.900 . S
C634 C153 0.902 . S
C659 C67 0.961 . S
C664 C187 0.964 . S
C689 C40 1.820 . S
C694 C106 1.831 . S
C724 C80 1.808 . S
C719 C52 1.803 . S
C754 C191 1.280 . S
C749 C59 1.269 . S
C784 C157 1.307 . S
C779 C70 1.295 . S
C809 C43 2.167 . S
C814 C174 2.177 . S
C844 C119 1.058 . S
C839 C58 1.053 . S
C874 C76 1.047 . S
C869 C68 1.038 . S
C899 C49 2.140 . S
C904 C140 2.147 . S
