# Generated by pormake.
# Topology nom, (4,4)-cn, num edge types: 1
# Building blocks:
#     Node 0, Type 0, BuildingBlock: KUFVIS_clean_linker_0, # of connection points: 4
#     Node 1, Type 0, BuildingBlock: KUFVIS_clean_linker_0, # of connection points: 4
#     Node 2, Type 0, BuildingBlock: KUFVIS_clean_linker_0, # of connection points: 4
#     Node 3, Type 0, BuildingBlock: KUFVIS_clean_linker_0, # of connection points: 4
#     Node 4, Type 0, BuildingBlock: KUFVIS_clean_linker_0, # of connection points: 4
#     Node 5, Type 0, BuildingBlock: KUFVIS_clean_linker_0, # of connection points: 4
#     Node 6, Type 1, BuildingBlock: QUQFOY_clean_sbu_3, # of connection points: 4
#     Node 7, Type 1, BuildingBlock: QUQFOY_clean_sbu_3, # of connection points: 4
#     Node 8, Type 1, BuildingBlock: QUQFOY_clean_sbu_3, # of connection points: 4
#     Node 9, Type 1, BuildingBlock: QUQFOY_clean_sbu_3, # of connection points: 4
#     Node 10, Type 1, BuildingBlock: QUQFOY_clean_sbu_3, # of connection points: 4
#     Node 11, Type 1, BuildingBlock: QUQFOY_clean_sbu_3, # of connection points: 4
#     Edge 12, Type (0, 1), BuildingBlock: TEMPAE_clean_linker_10, # of connection points: 2
#     Edge 13, Type (0, 1), BuildingBlock: TEMPAE_clean_linker_10, # of connection points: 2
#     Edge 14, Type (0, 1), BuildingBlock: TEMPAE_clean_linker_10, # of connection points: 2
#     Edge 15, Type (0, 1), BuildingBlock: TEMPAE_clean_linker_10, # of connection points: 2
#     Edge 16, Type (0, 1), BuildingBlock: TEMPAE_clean_linker_10, # of connection points: 2
#     Edge 17, Type (0, 1), BuildingBlock: TEMPAE_clean_linker_10, # of connection points: 2
#     Edge 18, Type (0, 1), BuildingBlock: TEMPAE_clean_linker_10, # of connection points: 2
#     Edge 19, Type (0, 1), BuildingBlock: TEMPAE_clean_linker_10, # of connection points: 2
#     Edge 20, Type (0, 1), BuildingBlock: TEMPAE_clean_linker_10, # of connection points: 2
#     Edge 21, Type (0, 1), BuildingBlock: TEMPAE_clean_linker_10, # of connection points: 2
#     Edge 22, Type (0, 1), BuildingBlock: TEMPAE_clean_linker_10, # of connection points: 2
#     Edge 23, Type (0, 1), BuildingBlock: TEMPAE_clean_linker_10, # of connection points: 2
#     Edge 24, Type (0, 1), BuildingBlock: TEMPAE_clean_linker_10, # of connection points: 2
#     Edge 25, Type (0, 1), BuildingBlock: TEMPAE_clean_linker_10, # of connection points: 2
#     Edge 26, Type (0, 1), BuildingBlock: TEMPAE_clean_linker_10, # of connection points: 2
#     Edge 27, Type (0, 1), BuildingBlock: TEMPAE_clean_linker_10, # of connection points: 2
#     Edge 28, Type (0, 1), BuildingBlock: TEMPAE_clean_linker_10, # of connection points: 2
#     Edge 29, Type (0, 1), BuildingBlock: TEMPAE_clean_linker_10, # of connection points: 2
#     Edge 30, Type (0, 1), BuildingBlock: TEMPAE_clean_linker_10, # of connection points: 2
#     Edge 31, Type (0, 1), BuildingBlock: TEMPAE_clean_linker_10, # of connection points: 2
#     Edge 32, Type (0, 1), BuildingBlock: TEMPAE_clean_linker_10, # of connection points: 2
#     Edge 33, Type (0, 1), BuildingBlock: TEMPAE_clean_linker_10, # of connection points: 2
#     Edge 34, Type (0, 1), BuildingBlock: TEMPAE_clean_linker_10, # of connection points: 2
#     Edge 35, Type (0, 1), BuildingBlock: TEMPAE_clean_linker_10, # of connection points: 2
# Relax obj value: 0.003
# Max RMSD: 0.047
# Mean RMSD: 0.035
data_MOF--net-nom--node1-QUQFOY_clean_sbu_3--node2-KUFVIS_clean_linker_0--edge1-TEMPAE_clean_linker_10
_symmetry_space_group_name_H-M    P1
_symmetry_Int_Tables_number       1
_symmetry_cell_setting            triclinic
loop_
_symmetry_equiv_pos_as_xyz
'x, y, z'
_cell_length_a     46.729172
_cell_length_b     47.579153
_cell_length_c     48.258446
_cell_angle_alpha  89.917796
_cell_angle_beta   89.920481
_cell_angle_gamma 120.09557
loop_
_atom_site_label
_atom_site_type_symbol
_atom_site_fract_x
_atom_site_fract_y
_atom_site_fract_z
_atom_type_partial_charge
H0 H 0.11955 0.59869 0.32375 0.0
H1 H 0.0441 0.5675 0.26227 0.0
H2 H 0.01859 0.5421 0.34898 0.0
H3 H 0.97204 0.53925 0.33799 0.0
H4 H 0.89612 0.49203 0.27736 0.0
H5 H 0.99625 0.52468 0.25424 0.0
C6 C 0.0935 0.58544 0.31831 0.0
C7 C 0.06985 0.57177 0.33928 0.0
C8 C 0.08432 0.58302 0.29057 0.0
C9 C 0.05057 0.5673 0.28373 0.0
C10 C 0.02584 0.55178 0.3045 0.0
C11 C 0.03624 0.55383 0.33238 0.0
C12 C 0.98957 0.53431 0.29725 0.0
C13 C 0.96523 0.52993 0.31717 0.0
C14 C 0.93157 0.51447 0.31006 0.0
C15 C 0.92211 0.50399 0.28289 0.0
C16 C 0.94544 0.50851 0.26269 0.0
C17 C 0.97886 0.52257 0.27005 0.0
H18 H 0.51569 0.11819 0.49081 0.0
H19 H 0.47699 0.04252 0.43048 0.0
H20 H 0.48567 0.02135 0.51674 0.0
H21 H 0.44354 0.97326 0.50757 0.0
H22 H 0.41853 0.89862 0.44757 0.0
H23 H 0.4777 0.99779 0.42243 0.0
C24 C 0.50502 0.09262 0.48582 0.0
C25 C 0.50005 0.0705 0.50688 0.0
C26 C 0.49741 0.08271 0.45834 0.0
C27 C 0.48402 0.04973 0.45175 0.0
C28 C 0.4789 0.02655 0.47267 0.0
C29 C 0.48803 0.03777 0.50023 0.0
C30 C 0.46329 0.99088 0.46602 0.0
C31 C 0.44595 0.96675 0.48659 0.0
C32 C 0.43018 0.93359 0.47993 0.0
C33 C 0.43094 0.92428 0.45269 0.0
C34 C 0.44726 0.94733 0.43191 0.0
C35 C 0.46433 0.98046 0.43872 0.0
H36 H 0.51893 0.40674 0.63088 0.0
H37 H 0.48181 0.44517 0.69198 0.0
H38 H 0.48496 0.47083 0.60503 0.0
H39 H 0.44291 0.47646 0.61508 0.0
H40 H 0.41719 0.52647 0.67454 0.0
H41 H 0.4793 0.48899 0.69958 0.0
C42 C 0.50799 0.42153 0.63603 0.0
C43 C 0.50112 0.4373 0.61492 0.0
C44 C 0.50176 0.42495 0.6637 0.0
C45 C 0.48778 0.4442 0.67049 0.0
C46 C 0.48072 0.46087 0.64949 0.0
C47 C 0.48868 0.4578 0.62169 0.0
C48 C 0.4641 0.48026 0.65624 0.0
C49 C 0.44566 0.48596 0.63584 0.0
C50 C 0.42907 0.50286 0.64235 0.0
C51 C 0.43007 0.51347 0.66943 0.0
C52 C 0.44732 0.50768 0.69013 0.0
C53 C 0.46522 0.49215 0.68337 0.0
H54 H 0.13355 0.53456 0.78088 0.0
H55 H 0.05526 0.49433 0.84091 0.0
H56 H 0.03395 0.49919 0.75424 0.0
H57 H 0.98836 0.45129 0.76549 0.0
H58 H 0.909 0.43152 0.82082 0.0
H59 H 0.00857 0.49918 0.84534 0.0
C60 C 0.1074 0.52329 0.78577 0.0
C61 C 0.08479 0.51694 0.76446 0.0
C62 C 0.09703 0.51553 0.81329 0.0
C63 C 0.06319 0.50127 0.81967 0.0
C64 C 0.03973 0.4947 0.79843 0.0
C65 C 0.05115 0.5034 0.77088 0.0
C66 C 1.00341 0.47768 0.8046 0.0
C67 C 0.98022 0.45616 0.78499 0.0
C68 C 0.94626 0.43971 0.7909 0.0
C69 C 0.93531 0.44473 0.81628 0.0
C70 C 0.95747 0.4661 0.83594 0.0
C71 C 0.99156 0.48244 0.83015 0.0
H72 H 0.49673 0.90941 -0.01539 0.0
H73 H 0.55619 0.98726 0.92929 0.0
H74 H 0.52636 0.00706 0.00872 0.0
H75 H 0.5767 0.05358 0.00496 0.0
H76 H 0.61549 0.13025 0.94475 0.0
H77 H 0.5545 0.03216 0.91769 0.0
C78 C 0.50949 0.93525 0.98009 0.0
C79 C 0.50945 0.95694 -0.00039 0.0
C80 C 0.52562 0.946 0.95471 0.0
C81 C 0.54303 0.97935 0.94879 0.0
C82 C 0.54409 1.00215 0.96832 0.0
C83 C 0.52689 0.99042 -0.00627 0.0
C84 C 0.56307 0.03791 0.96215 0.0
C85 C 0.57848 0.06116 -0.01644 0.0
C86 C 0.59744 0.09445 0.97722 0.0
C87 C 0.60113 0.10452 0.9496 0.0
C88 C 0.5862 0.08219 0.92816 0.0
C89 C 0.5666 0.04908 0.93449 0.0
H90 H 0.51116 0.62153 0.12702 0.0
H91 H 0.54448 0.58243 0.19075 0.0
H92 H 0.54247 0.55425 0.10478 0.0
H93 H 0.58452 0.54873 0.11679 0.0
H94 H 0.60534 0.49745 0.17894 0.0
H95 H 0.54362 0.53681 0.19972 0.0
C96 C 0.52119 0.60621 0.1331 0.0
C97 C 0.52767 0.58926 0.11285 0.0
C98 C 0.52653 0.60324 0.16109 0.0
C99 C 0.5392 0.58318 0.16905 0.0
C100 C 0.54593 0.56543 0.14892 0.0
C101 C 0.53893 0.56812 0.12078 0.0
C102 C 0.56124 0.54524 0.15694 0.0
C103 C 0.58041 0.53906 0.13762 0.0
C104 C 0.59604 0.52158 0.14541 0.0
C105 C 0.59314 0.51075 0.1727 0.0
C106 C 0.57504 0.51697 0.19228 0.0
C107 C 0.55825 0.53318 0.18429 0.0
C108 C 0.71467 0.43697 0.40493 0.0
O109 O 0.70931 0.45684 0.41832 0.0
Cd110 Cd 0.65621 0.44905 0.43078 0.0
O111 O 0.69063 0.40932 0.39774 0.0
Cd112 Cd 0.62881 0.37824 0.4041 0.0
C113 C 0.61833 0.43245 0.36673 0.0
O114 O 0.62493 0.39654 0.45043 0.0
O115 O 0.58033 0.37584 0.42614 0.0
O116 O 0.62661 0.32788 0.4182 0.0
C117 C 0.59439 0.38736 0.44913 0.0
O118 O 0.62897 0.45059 0.38806 0.0
C119 C 0.60626 0.30994 0.3998 0.0
O120 O 0.61829 0.40563 0.36571 0.0
O121 O 0.59732 0.324 0.38229 0.0
C122 C 0.29601 0.58115 0.54153 0.0
O123 O 0.27008 0.56044 0.52899 0.0
Cd124 Cd 0.22337 0.56629 0.51835 0.0
O125 O 0.29975 0.60876 0.54826 0.0
Cd126 Cd 0.26824 0.63841 0.542 0.0
C127 C 0.20647 0.58498 0.58323 0.0
O128 O 0.24252 0.61759 0.49698 0.0
O129 O 0.21981 0.63819 0.52247 0.0
O130 O 0.31597 0.68888 0.52577 0.0
C131 C 0.22084 0.62602 0.49942 0.0
O132 O 0.19753 0.56566 0.56265 0.0
C133 C 0.31394 0.70718 0.54385 0.0
O134 O 0.2331 0.61245 0.58232 0.0
O135 O 0.29142 0.69331 0.56206 0.0
C136 C 0.72863 0.29322 0.70363 0.0
O137 O 0.72318 0.26759 0.69105 0.0
Cd138 Cd 0.66992 0.2215 0.68213 0.0
O139 O 0.70455 0.29677 0.71164 0.0
Cd140 Cd 0.64243 0.26527 0.70854 0.0
C141 C 0.63738 0.20441 0.74829 0.0
O142 O 0.63571 0.24028 0.66308 0.0
O143 O 0.59313 0.21779 0.68997 0.0
O144 O 0.63676 0.31143 0.69376 0.0
C145 C 0.60552 0.21899 0.66633 0.0
O146 O 0.6472 0.19584 0.72695 0.0
C147 C 0.6181 0.30992 0.71356 0.0
O148 O 0.6358 0.23041 0.74816 0.0
O149 O 0.6117 0.28837 0.73192 0.0
C150 C 0.31347 0.59422 0.90684 0.0
O151 O 0.31794 0.57393 0.92051 0.0
Cd152 Cd 0.37042 0.57918 0.93097 0.0
O153 O 0.33817 0.62099 0.89863 0.0
Cd154 Cd 0.40019 0.64987 0.90379 0.0
C155 C 0.40589 0.59348 0.86574 0.0
O156 O 0.40453 0.63147 0.95004 0.0
O157 O 0.44809 0.6499 0.92443 0.0
O158 O 0.40409 0.70103 0.91759 0.0
C159 C 0.43465 0.63925 0.94784 0.0
O160 O 0.39495 0.57554 0.88725 0.0
C161 C 0.42522 0.71866 0.89942 0.0
O162 O 0.4078 0.62118 0.86493 0.0
O163 O 0.43386 0.7041 0.88219 0.0
C164 C 0.73547 0.4479 0.04669 0.0
O165 O 0.76251 0.46984 0.0362 0.0
Cd166 Cd 0.80957 0.4663 0.02152 0.0
O167 O 0.73019 0.41903 0.05036 0.0
Cd168 Cd 0.76024 0.38823 0.04128 0.0
C169 C 0.82624 0.43848 0.08213 0.0
O170 O 0.78619 0.41612 -0.00136 0.0
O171 O 0.80146 0.38282 0.01285 0.0
O172 O 0.71076 0.33901 0.02534 0.0
C173 C 0.80423 0.40362 -0.00493 0.0
O174 O 0.83483 0.46022 0.06345 0.0
C175 C 0.71261 0.31989 0.04273 0.0
O176 O 0.79932 0.41132 0.08021 0.0
O177 O 0.73576 0.33278 0.06043 0.0
C178 C 0.30379 0.73929 0.21205 0.0
O179 O 0.3069 0.76587 0.20329 0.0
Cd180 Cd 0.35696 0.81395 0.18924 0.0
O181 O 0.32879 0.73549 0.21517 0.0
Cd182 Cd 0.39041 0.76832 0.20869 0.0
C183 C 0.40095 0.83157 0.25021 0.0
O184 O 0.38728 0.79356 0.16621 0.0
O185 O 0.43676 0.80914 0.18008 0.0
O186 O 0.39404 0.72103 0.19369 0.0
C187 C 0.41805 0.81175 0.16259 0.0
O188 O 0.3869 0.83936 0.23155 0.0
C189 C 0.41461 0.7235 0.21209 0.0
O190 O 0.40328 0.80605 0.24792 0.0
O191 O 0.42314 0.74621 0.22964 0.0
C192 C 0.11448 0.62455 0.25355 0.0
C193 C 0.11114 0.59859 0.26968 0.0
C194 C 0.14446 0.64527 0.23984 0.0
C195 C 0.17154 0.63983 0.24257 0.0
C196 C 0.16711 0.6119 0.2568 0.0
C197 C 0.13693 0.59157 0.27008 0.0
C198 C 0.148 0.67446 0.22444 0.0
C199 C 0.19517 0.60506 0.26026 0.0
C200 C 0.25102 0.68873 0.20095 0.0
C201 C 0.27064 0.71307 0.2199 0.0
C202 C 0.21843 0.66485 0.20778 0.0
C203 C 0.20549 0.66543 0.23421 0.0
C204 C 0.22551 0.69008 0.25339 0.0
C205 C 0.2578 0.71373 0.2459 0.0
C206 C 0.19783 0.63914 0.18676 0.0
C207 C 0.21285 0.69144 0.28189 0.0
H208 H 0.09464 0.63011 0.25336 0.0
H209 H 0.13424 0.57137 0.28252 0.0
H210 H 0.16291 0.69661 0.23702 0.0
H211 H 0.16118 0.67778 0.2045 0.0
H212 H 0.12361 0.67231 0.22022 0.0
H213 H 0.18652 0.58027 0.26854 0.0
H214 H 0.20797 0.60774 0.24023 0.0
H215 H 0.21362 0.62294 0.27487 0.0
H216 H 0.26105 0.68866 0.18069 0.0
H217 H 0.27308 0.73287 0.26035 0.0
H218 H 0.1749 0.63984 0.18233 0.0
H219 H 0.1902 0.61469 0.19523 0.0
H220 H 0.21137 0.64236 0.167 0.0
H221 H 0.19037 0.69362 0.2801 0.0
H222 H 0.23153 0.7122 0.29429 0.0
H223 H 0.20575 0.66861 0.29333 0.0
C224 C 0.4918 0.12873 0.44082 0.0
C225 C 0.50499 0.10824 0.43731 0.0
C226 C 0.50683 0.15964 0.42858 0.0
C227 C 0.53569 0.17021 0.41226 0.0
C228 C 0.54675 0.14809 0.40603 0.0
C229 C 0.53132 0.11729 0.41879 0.0
C230 C 0.494 0.18221 0.43578 0.0
C231 C 0.57685 0.15804 0.38815 0.0
C232 C 0.56899 0.25421 0.38014 0.0
C233 C 0.5915 0.27407 0.40049 0.0
C234 C 0.55196 0.22011 0.3827 0.0
C235 C 0.55716 0.20563 0.40638 0.0
C236 C 0.58097 0.22557 0.4263 0.0
C237 C 0.59796 0.25943 0.423 0.0
C238 C 0.52738 0.19972 0.3607 0.0
C239 C 0.58727 0.21127 0.45198 0.0
H240 H 0.47147 0.1217 0.45524 0.0
H241 H 0.5417 0.10155 0.41623 0.0
H242 H 0.51118 0.20082 0.45063 0.0
H243 H 0.49283 0.19513 0.41707 0.0
H244 H 0.46903 0.16906 0.44541 0.0
H245 H 0.57787 0.13659 0.38037 0.0
H246 H 0.57718 0.17284 0.37023 0.0
H247 H 0.59947 0.17315 0.40052 0.0
H248 H 0.56398 0.2653 0.36257 0.0
H249 H 0.61535 0.27451 0.43879 0.0
H250 H 0.50189 0.19036 0.36866 0.0
H251 H 0.52998 0.17842 0.35543 0.0
H252 H 0.5304 0.21389 0.34151 0.0
H253 H 0.56451 0.19927 0.46488 0.0
H254 H 0.60768 0.22994 0.46479 0.0
H255 H 0.59356 0.19246 0.44619 0.0
C256 C 0.37748 0.50183 0.6278 0.0
C257 C 0.4099 0.50952 0.62151 0.0
C258 C 0.36081 0.51334 0.61139 0.0
C259 C 0.37692 0.533 0.588 0.0
C260 C 0.40896 0.53925 0.58056 0.0
C261 C 0.42513 0.52738 0.59747 0.0
C262 C 0.32655 0.50578 0.61996 0.0
C263 C 0.4268 0.55983 0.55564 0.0
C264 C 0.31818 0.54291 0.54023 0.0
C265 C 0.32052 0.5717 0.55026 0.0
C266 C 0.33801 0.53107 0.55103 0.0
C267 C 0.36058 0.54827 0.57255 0.0
C268 C 0.36448 0.57832 0.58161 0.0
C269 C 0.34449 0.58975 0.57029 0.0
C270 C 0.33338 0.49918 0.54052 0.0
C271 C 0.38832 0.59744 0.60451 0.0
H272 H 0.36563 0.48782 0.64632 0.0
H273 H 0.4503 0.53353 0.59272 0.0
H274 H 0.32704 0.52857 0.62579 0.0
H275 H 0.30911 0.49495 0.6024 0.0
H276 H 0.31686 0.48874 0.63783 0.0
H277 H 0.44959 0.55901 0.55067 0.0
H278 H 0.41038 0.55171 0.53725 0.0
H279 H 0.4338 0.58543 0.55971 0.0
H280 H 0.30003 0.52895 0.5245 0.0
H281 H 0.3466 0.61205 0.57811 0.0
H282 H 0.3206 0.48014 0.55657 0.0
H283 H 0.35766 0.50109 0.53645 0.0
H284 H 0.31844 0.49118 0.52125 0.0
H285 H 0.37947 0.58387 0.62432 0.0
H286 H 0.39089 0.62179 0.60724 0.0
H287 H 0.41309 0.60061 0.60017 0.0
C288 C 0.91507 0.42881 0.74647 0.0
C289 C 0.92104 0.41711 0.77115 0.0
C290 C 0.88583 0.4098 0.73137 0.0
C291 C 0.86223 0.37854 0.74134 0.0
C292 C 0.86945 0.36588 0.7652 0.0
C293 C 0.89876 0.38534 0.7798 0.0
C294 C 0.87922 0.42401 0.70587 0.0
C295 C 0.84517 0.33263 0.77648 0.0
C296 C 0.77003 0.34266 0.72966 0.0
C297 C 0.76328 0.31792 0.71055 0.0
C298 C 0.80247 0.36363 0.73884 0.0
C299 C 0.82883 0.35996 0.72852 0.0
C300 C 0.82243 0.33626 0.70808 0.0
C301 C 0.78976 0.31547 0.69942 0.0
C302 C 0.80826 0.38864 0.76068 0.0
C303 C 0.84985 0.3318 0.69634 0.0
H304 H 0.93215 0.45355 0.74002 0.0
H305 H 0.90341 0.37644 0.799 0.0
H306 H 0.86966 0.40599 0.68882 0.0
H307 H 0.85997 0.43045 0.71064 0.0
H308 H 0.90178 0.44624 0.69855 0.0
H309 H 0.85569 0.32538 0.79386 0.0
H310 H 0.82267 0.33251 0.78404 0.0
H311 H 0.83737 0.3141 0.7599 0.0
H312 H 0.74982 0.34485 0.73832 0.0
H313 H 0.7849 0.29667 0.68441 0.0
H314 H 0.82841 0.41295 0.75412 0.0
H315 H 0.81619 0.38233 0.78026 0.0
H316 H 0.78571 0.39017 0.76493 0.0
H317 H 0.87111 0.35553 0.68992 0.0
H318 H 0.84154 0.31517 0.67824 0.0
H319 H 0.85886 0.32156 0.71253 0.0
C320 C 0.49899 0.91131 0.91354 0.0
C321 C 0.52234 0.92092 0.93484 0.0
C322 C 0.48567 0.88033 0.90151 0.0
C323 C 0.49587 0.85861 0.91127 0.0
C324 C 0.5221 0.86973 0.93061 0.0
C325 C 0.53498 0.90077 0.9422 0.0
C326 C 0.45823 0.86972 0.88058 0.0
C327 C 0.53398 0.8476 0.94152 0.0
C328 C 0.43197 0.76949 0.92065 0.0
C329 C 0.44082 0.75462 0.89993 0.0
C330 C 0.44894 0.80335 0.92378 0.0
C331 C 0.4754 0.82306 0.90561 0.0
C332 C 0.48346 0.80838 0.88376 0.0
C333 C 0.46615 0.77428 0.88124 0.0
C334 C 0.43942 0.81792 0.94738 0.0
C335 C 0.51117 0.82853 0.86377 0.0
H336 H 0.48889 0.92673 0.90814 0.0
H337 H 0.55277 0.90813 0.95893 0.0
H338 H 0.46058 0.85483 0.86404 0.0
H339 H 0.43408 0.85449 0.89105 0.0
H340 H 0.45804 0.89084 0.87093 0.0
H341 H 0.55765 0.86124 0.953 0.0
H342 H 0.51509 0.82948 0.95581 0.0
H343 H 0.53742 0.83409 0.92436 0.0
H344 H 0.41237 0.75456 0.93512 0.0
H345 H 0.47312 0.76302 0.86511 0.0
H346 H 0.43414 0.83673 0.93943 0.0
H347 H 0.46032 0.82998 0.96215 0.0
H348 H 0.41735 0.7994 0.95889 0.0
H349 H 0.5092 0.8495 0.85612 0.0
H350 H 0.51124 0.81409 0.84573 0.0
H351 H 0.53524 0.83843 0.87458 0.0
C352 C 0.60318 0.49871 0.10073 0.0
C353 C 0.61638 0.51483 0.12582 0.0
C354 C 0.6204 0.48738 0.08452 0.0
C355 C 0.65143 0.49237 0.09371 0.0
C356 C 0.66544 0.51003 0.11836 0.0
C357 C 0.64781 0.5211 0.13402 0.0
C358 C 0.60483 0.46895 0.05821 0.0
C359 C 0.69856 0.5162 0.12884 0.0
C360 C 0.68525 0.43714 0.07427 0.0
C361 C 0.71082 0.45698 0.05591 0.0
C362 C 0.66445 0.44763 0.08562 0.0
C363 C 0.66919 0.47855 0.07828 0.0
C364 C 0.69365 0.49778 0.0585 0.0
C365 C 0.71421 0.48684 0.04766 0.0
C366 C 0.63864 0.4264 0.10667 0.0
C367 C 0.6993 0.53071 0.04987 0.0
H368 H 0.57878 0.49365 0.09447 0.0
H369 H 0.65818 0.53386 0.15329 0.0
H370 H 0.62272 0.47895 0.04078 0.0
H371 H 0.59802 0.44316 0.06087 0.0
H372 H 0.58225 0.46982 0.05256 0.0
H373 H 0.70643 0.53123 0.14793 0.0
H374 H 0.69728 0.49273 0.1334 0.0
H375 H 0.71781 0.52873 0.1127 0.0
H376 H 0.68234 0.41401 0.0807 0.0
H377 H 0.7336 0.5022 0.0332 0.0
H378 H 0.61433 0.42376 0.10134 0.0
H379 H 0.64569 0.43801 0.12737 0.0
H380 H 0.63584 0.40184 0.10811 0.0
H381 H 0.67551 0.52924 0.04449 0.0
H382 H 0.71633 0.5408 0.03185 0.0
H383 H 0.71012 0.54792 0.06742 0.0
C384 C 0.42952 0.90022 0.52014 0.0
C385 C 0.41207 0.90747 0.50055 0.0
C386 C 0.41453 0.8697 0.53339 0.0
C387 C 0.38155 0.84607 0.52658 0.0
C388 C 0.36301 0.85466 0.50884 0.0
C389 C 0.37852 0.88527 0.49605 0.0
C390 C 0.43495 0.8618 0.55261 0.0
C391 C 0.32778 0.83042 0.50104 0.0
C392 C 0.35663 0.75731 0.5197 0.0
C393 C 0.33482 0.7431 0.54208 0.0
C394 C 0.37321 0.791 0.51529 0.0
C395 C 0.36817 0.81118 0.53386 0.0
C396 C 0.34776 0.79723 0.55744 0.0
C397 C 0.33115 0.7633 0.5612 0.0
C398 C 0.39474 0.80477 0.48983 0.0
C399 C 0.34219 0.81792 0.57797 0.0
H400 H 0.45557 0.91729 0.52339 0.0
H401 H 0.36516 0.89091 0.48075 0.0
H402 H 0.42005 0.84737 0.57064 0.0
H403 H 0.44344 0.84695 0.54138 0.0
H404 H 0.45709 0.88413 0.56023 0.0
H405 H 0.31556 0.84207 0.49002 0.0
H406 H 0.3276 0.81167 0.48727 0.0
H407 H 0.313 0.81785 0.51971 0.0
H408 H 0.35978 0.74196 0.50488 0.0
H409 H 0.31448 0.75256 0.57865 0.0
H410 H 0.41961 0.82481 0.49567 0.0
H411 H 0.38364 0.81505 0.47562 0.0
H412 H 0.39769 0.78613 0.47838 0.0
H413 H 0.36594 0.83996 0.58329 0.0
H414 H 0.3303 0.8044 0.59733 0.0
H415 H 0.32596 0.82613 0.56858 0.0
C416 C 0.53966 0.42619 0.70052 0.0
C417 C 0.51114 0.40821 0.68459 0.0
C418 C 0.55649 0.41131 0.71195 0.0
C419 C 0.54457 0.37788 0.70695 0.0
C420 C 0.51375 0.35908 0.69351 0.0
C421 C 0.49737 0.3745 0.68257 0.0
C422 C 0.58876 0.43207 0.7268 0.0
C423 C 0.49996 0.3234 0.68771 0.0
C424 C 0.60554 0.34959 0.69061 0.0
C425 C 0.60245 0.33047 0.7138 0.0
C426 C 0.58779 0.3661 0.68872 0.0
C427 C 0.56667 0.36392 0.71076 0.0
C428 C 0.56482 0.34614 0.73492 0.0
C429 C 0.58251 0.32937 0.73607 0.0
C430 C 0.59044 0.38463 0.66245 0.0
C431 C 0.54317 0.34376 0.75907 0.0
H432 H 0.5505 0.45233 0.70185 0.0
H433 H 0.4754 0.36068 0.67005 0.0
H434 H 0.59138 0.41882 0.74465 0.0
H435 H 0.6096 0.43822 0.71236 0.0
H436 H 0.59088 0.4551 0.73431 0.0
H437 H 0.4738 0.3114 0.68076 0.0
H438 H 0.51487 0.3206 0.67116 0.0
H439 H 0.50146 0.31062 0.70639 0.0
H440 H 0.6209 0.35066 0.67332 0.0
H441 H 0.58012 0.3148 0.75415 0.0
H442 H 0.59749 0.41005 0.66742 0.0
H443 H 0.56605 0.37334 0.65196 0.0
H444 H 0.60893 0.38503 0.64772 0.0
H445 H 0.54654 0.36798 0.76412 0.0
H446 H 0.5485 0.33365 0.77785 0.0
H447 H 0.51681 0.32773 0.75349 0.0
C448 C 0.12866 0.54422 0.85601 0.0
C449 C 0.12255 0.52217 0.8345 0.0
C450 C 0.15769 0.55645 0.87199 0.0
C451 C 0.18097 0.54642 0.86609 0.0
C452 C 0.17365 0.5225 0.84559 0.0
C453 C 0.14451 0.51062 0.83016 0.0
C454 C 0.16434 0.58147 0.89398 0.0
C455 C 0.19757 0.51091 0.83867 0.0
C456 C 0.27341 0.60088 0.87684 0.0
C457 C 0.27922 0.58534 0.89902 0.0
C458 C 0.24119 0.58954 0.86687 0.0
C459 C 0.2141 0.56229 0.87962 0.0
C460 C 0.21961 0.54794 0.90318 0.0
C461 C 0.25208 0.55946 0.91247 0.0
C462 C 0.23641 0.60548 0.84161 0.0
C463 C 0.19141 0.51926 0.91768 0.0
H464 H 0.11181 0.55334 0.85921 0.0
H465 H 0.13967 0.49348 0.81354 0.0
H466 H 0.1734 0.57583 0.91326 0.0
H467 H 0.18396 0.60568 0.88665 0.0
H468 H 0.14191 0.58297 0.89892 0.0
H469 H 0.18726 0.49084 0.82332 0.0
H470 H 0.2207 0.53138 0.83003 0.0
H471 H 0.20429 0.5024 0.85766 0.0
H472 H 0.29417 0.6209 0.86637 0.0
H473 H 0.25626 0.54756 0.92988 0.0
H474 H 0.2166 0.6114 0.84538 0.0
H475 H 0.2285 0.58838 0.82389 0.0
H476 H 0.25941 0.6281 0.83565 0.0
H477 H 0.1705 0.52366 0.92119 0.0
H478 H 0.19905 0.51399 0.93792 0.0
H479 H 0.18216 0.4974 0.90441 0.0
C480 C 0.59503 0.12752 0.01642 0.0
C481 C 0.61388 0.12003 -0.00147 0.0
C482 C 0.60932 0.15786 0.02983 0.0
C483 C 0.64302 0.18113 0.02487 0.0
C484 C 0.66274 0.17223 0.00898 0.0
C485 C 0.64793 0.14175 -0.00389 0.0
C486 C 0.58764 0.16601 0.04723 0.0
C487 C 0.69874 0.19607 0.0031 0.0
C488 C 0.67067 0.27058 0.01734 0.0
C489 C 0.6909 0.28408 0.04063 0.0
C490 C 0.65367 0.23692 0.01275 0.0
C491 C 0.65649 0.21604 0.03214 0.0
C492 C 0.67511 0.22929 0.05662 0.0
C493 C 0.69236 0.2632 0.06047 0.0
C494 C 0.63425 0.22394 -0.01375 0.0
C495 C 0.67812 0.20786 0.07811 0.0
H496 H 0.56864 0.11084 0.01812 0.0
H497 H 0.66245 0.13592 -0.01781 0.0
H498 H 0.60107 0.18008 0.06584 0.0
H499 H 0.58054 0.18127 0.03493 0.0
H500 H 0.56466 0.14379 0.05392 0.0
H501 H 0.71146 0.18424 -0.00681 0.0
H502 H 0.70062 0.21538 -0.01101 0.0
H503 H 0.71197 0.208 0.02246 0.0
H504 H 0.6693 0.28646 0.00193 0.0
H505 H 0.70774 0.27339 0.07865 0.0
H506 H 0.6087 0.20429 -0.00909 0.0
H507 H 0.64599 0.21333 0.97317 0.0
H508 H 0.63295 0.2431 0.97408 0.0
H509 H 0.65368 0.18605 0.08226 0.0
H510 H 0.68838 0.22095 0.09792 0.0
H511 H 0.69476 0.19932 0.07026 0.0
C512 C 0.53129 0.65472 0.17766 0.0
C513 C 0.51749 0.62112 0.18109 0.0
C514 C 0.51557 0.67088 0.18839 0.0
C515 C 0.48542 0.65301 0.2031 0.0
C516 C 0.47344 0.61979 0.20929 0.0
C517 C 0.48959 0.60412 0.19805 0.0
C518 C 0.52938 0.70629 0.18127 0.0
C519 C 0.44187 0.60003 0.22547 0.0
C520 C 0.45089 0.70406 0.23309 0.0
C521 C 0.42975 0.70251 0.21173 0.0
C522 C 0.46789 0.68665 0.23141 0.0
C523 C 0.46411 0.66774 0.2076 0.0
C524 C 0.44184 0.66516 0.1865 0.0
C525 C 0.4248 0.68235 0.18893 0.0
C526 C 0.49084 0.68952 0.25458 0.0
C527 C 0.43716 0.64545 0.16063 0.0
H528 H 0.5528 0.66778 0.16441 0.0
H529 H 0.47873 0.57808 0.20049 0.0
H530 H 0.51352 0.70852 0.16533 0.0
H531 H 0.52934 0.72013 0.19972 0.0
H532 H 0.55501 0.71763 0.17302 0.0
H533 H 0.43968 0.57711 0.23343 0.0
H534 H 0.44046 0.61415 0.24317 0.0
H535 H 0.4204 0.59371 0.21181 0.0
H536 H 0.4547 0.71941 0.25089 0.0
H537 H 0.40852 0.68095 0.17235 0.0
H538 H 0.51687 0.70448 0.24757 0.0
H539 H 0.48692 0.66524 0.26031 0.0
H540 H 0.48733 0.70102 0.27331 0.0
H541 H 0.46081 0.65596 0.14896 0.0
H542 H 0.41789 0.64479 0.14674 0.0
H543 H 0.43007 0.62015 0.16622 0.0
C544 C 0.90046 0.4902 0.3542 0.0
C545 C 0.90534 0.50889 0.33033 0.0
C546 C 0.87141 0.47878 0.37012 0.0
C547 C 0.84689 0.48628 0.36184 0.0
C548 C 0.85285 0.50691 0.33875 0.0
C549 C 0.882 0.518 0.32335 0.0
C550 C 0.86616 0.45721 0.39481 0.0
C551 C 0.82757 0.51576 0.32927 0.0
C552 C 0.7554 0.42986 0.37612 0.0
C553 C 0.74911 0.44717 0.3964 0.0
C554 C 0.78751 0.44153 0.36566 0.0
C555 C 0.81402 0.47106 0.37588 0.0
C556 C 0.80814 0.48766 0.39743 0.0
C557 C 0.77578 0.47561 0.40733 0.0
C558 C 0.79275 0.42311 0.34263 0.0
C559 C 0.83575 0.51898 0.40912 0.0
H560 H 0.91838 0.48295 0.35948 0.0
H561 H 0.88591 0.53262 0.30495 0.0
H562 H 0.85725 0.46506 0.41289 0.0
H563 H 0.84687 0.43192 0.38986 0.0
H564 H 0.88915 0.45724 0.40071 0.0
H565 H 0.83689 0.53364 0.31199 0.0
H566 H 0.80491 0.49359 0.32221 0.0
H567 H 0.82034 0.52609 0.34671 0.0
H568 H 0.73504 0.40784 0.3676 0.0
H569 H 0.77129 0.48902 0.42324 0.0
H570 H 0.81347 0.41897 0.34777 0.0
H571 H 0.79956 0.43773 0.32328 0.0
H572 H 0.77027 0.39927 0.33859 0.0
H573 H 0.85746 0.5164 0.41419 0.0
H574 H 0.82799 0.52669 0.42806 0.0
H575 H 0.84385 0.53854 0.39337 0.0
C576 C 0.077 0.55212 0.38544 0.0
C577 C 0.08159 0.57774 0.36823 0.0
C578 C 0.09537 0.55833 0.41 0.0
C579 C 0.11884 0.59083 0.41707 0.0
C580 C 0.12132 0.61676 0.40087 0.0
C581 C 0.10251 0.60986 0.37671 0.0
C582 C 0.09154 0.5301 0.42713 0.0
C583 C 0.14603 0.65174 0.40757 0.0
C584 C 0.16456 0.61506 0.48569 0.0
C585 C 0.19446 0.6166 0.47861 0.0
C586 C 0.13905 0.60541 0.46621 0.0
C587 C 0.1439 0.59781 0.43891 0.0
C588 C 0.17399 0.59918 0.43172 0.0
C589 C 0.19879 0.60828 0.45174 0.0
C590 C 0.10711 0.6037 0.47471 0.0
C591 C 0.18035 0.59178 0.40266 0.0
H592 H 0.06085 0.5273 0.37878 0.0
H593 H 0.1058 0.62963 0.36335 0.0
H594 H 0.11301 0.52665 0.4234 0.0
H595 H 0.0911 0.53498 0.44956 0.0
H596 H 0.06861 0.50716 0.4218 0.0
H597 H 0.14221 0.669 0.39476 0.0
H598 H 0.14445 0.65689 0.42974 0.0
H599 H 0.17144 0.65632 0.40371 0.0
H600 H 0.16095 0.6211 0.50657 0.0
H601 H 0.22184 0.60942 0.44622 0.0
H602 H 0.08576 0.57962 0.46931 0.0
H603 H 0.1041 0.62225 0.4632 0.0
H604 H 0.10624 0.60784 0.49726 0.0
H605 H 0.16078 0.56707 0.39651 0.0
H606 H 0.20476 0.59327 0.40064 0.0
H607 H 0.17948 0.6092 0.38784 0.0
C608 C 0.53111 0.07887 0.55125 0.0
C609 C 0.50822 0.08291 0.53559 0.0
C610 C 0.54473 0.09706 0.57551 0.0
C611 C 0.53532 0.11983 0.58392 0.0
C612 C 0.51023 0.12194 0.56934 0.0
C613 C 0.49681 0.10324 0.54548 0.0
C614 C 0.57088 0.09364 0.59093 0.0
C615 C 0.4995 0.14592 0.5775 0.0
C616 C 0.55978 0.16379 0.65301 0.0
C617 C 0.58767 0.19337 0.64547 0.0
C618 C 0.54314 0.139 0.63344 0.0
C619 C 0.55429 0.14427 0.60563 0.0
C620 C 0.58252 0.17407 0.59797 0.0
C621 C 0.59904 0.19813 0.61806 0.0
C622 C 0.51351 0.10735 0.64244 0.0
C623 C 0.59485 0.18085 0.5684 0.0
H624 H 0.53995 0.06316 0.54359 0.0
H625 H 0.47876 0.10602 0.53349 0.0
H626 H 0.59553 0.11504 0.58653 0.0
H627 H 0.56672 0.09287 0.61363 0.0
H628 H 0.57137 0.07141 0.58471 0.0
H629 H 0.47744 0.14218 0.56573 0.0
H630 H 0.49374 0.14403 0.59995 0.0
H631 H 0.52002 0.171 0.57347 0.0
H632 H 0.55113 0.15985 0.67428 0.0
H633 H 0.6206 0.22095 0.61218 0.0
H634 H 0.51665 0.08664 0.63613 0.0
H635 H 0.49095 0.10422 0.63203 0.0
H636 H 0.50952 0.10618 0.66521 0.0
H637 H 0.60035 0.16194 0.56115 0.0
H638 H 0.61751 0.205 0.56599 0.0
H639 H 0.57536 0.17993 0.55468 0.0
C640 C 0.41324 0.50712 0.7298 0.0
C641 C 0.44468 0.5169 0.71889 0.0
C642 C 0.40948 0.51938 0.755 0.0
C643 C 0.43791 0.54188 0.76981 0.0
C644 C 0.4698 0.55053 0.75968 0.0
C645 C 0.47283 0.53787 0.7342 0.0
C646 C 0.37502 0.50934 0.7651 0.0
C647 C 0.50064 0.57419 0.77509 0.0
C648 C 0.42294 0.59775 0.81592 0.0
C649 C 0.41653 0.58177 0.84156 0.0
C650 C 0.43142 0.5858 0.79261 0.0
C651 C 0.43381 0.55737 0.79507 0.0
C652 C 0.42875 0.54194 0.82114 0.0
C653 C 0.42001 0.55421 0.84402 0.0
C654 C 0.43642 0.60282 0.76509 0.0
C655 C 0.43135 0.51175 0.82463 0.0
H656 H 0.39146 0.49059 0.71803 0.0
H657 H 0.49713 0.54551 0.72567 0.0
H658 H 0.37145 0.49979 0.78658 0.0
H659 H 0.37161 0.5308 0.76549 0.0
H660 H 0.35553 0.49046 0.75175 0.0
H661 H 0.52326 0.57573 0.76605 0.0
H662 H 0.50334 0.59872 0.77443 0.0
H663 H 0.49876 0.56706 0.79721 0.0
H664 H 0.42048 0.61913 0.81385 0.0
H665 H 0.41554 0.54192 0.86383 0.0
H666 H 0.41649 0.58672 0.7506 0.0
H667 H 0.46027 0.60806 0.75568 0.0
H668 H 0.4362 0.62597 0.76706 0.0
H669 H 0.41076 0.49123 0.81345 0.0
H670 H 0.43029 0.50476 0.84674 0.0
H671 H 0.45479 0.51547 0.81546 0.0
C672 C 0.95544 0.46418 0.88784 0.0
C673 C 0.9438 0.46935 0.86271 0.0
C674 C 0.93689 0.45822 0.91234 0.0
C675 C 0.90585 0.45674 0.9113 0.0
C676 C 0.89558 0.46483 0.88646 0.0
C677 C 0.91503 0.47166 0.86263 0.0
C678 C 0.94935 0.45116 0.93876 0.0
C679 C 0.86254 0.46326 0.88427 0.0
C680 C 0.83561 0.39633 0.95691 0.0
C681 C 0.83137 0.41704 0.97478 0.0
C682 C 0.86039 0.40898 0.9365 0.0
C683 C 0.88219 0.44303 0.93482 0.0
C684 C 0.87909 0.46384 0.95397 0.0
C685 C 0.85319 0.45061 0.97338 0.0
C686 C 0.86229 0.38601 0.91599 0.0
C687 C 0.90268 0.50005 0.95362 0.0
H688 H 0.97775 0.46252 0.88802 0.0
H689 H 0.90639 0.47635 0.84327 0.0
H690 H 0.94456 0.46272 0.95676 0.0
H691 H 0.93608 0.42457 0.94252 0.0
H692 H 0.97627 0.45984 0.93765 0.0
H693 H 0.85935 0.47248 0.86402 0.0
H694 H 0.84236 0.43768 0.88673 0.0
H695 H 0.85966 0.47755 0.90103 0.0
H696 H 0.81871 0.37036 0.95821 0.0
H697 H 0.85024 0.46652 -0.01234 0.0
H698 H 0.88729 0.38875 0.91635 0.0
H699 H 0.85809 0.39207 0.89471 0.0
H700 H 0.84375 0.36021 0.92036 0.0
H701 H 0.92863 0.50531 0.95249 0.0
H702 H 0.89983 0.51214 0.97225 0.0
H703 H 0.89817 0.51092 0.93498 0.0
C704 C 0.50726 0.9564 0.05165 0.0
C705 C 0.49177 0.94348 0.02623 0.0
C706 C 0.49412 0.93899 0.07644 0.0
C707 C 0.4655 0.90772 0.07549 0.0
C708 C 0.44837 0.89591 0.05019 0.0
C709 C 0.46131 0.91432 0.02604 0.0
C710 C 0.51215 0.95308 0.10328 0.0
C711 C 0.41808 0.86251 0.04804 0.0
C712 C 0.45815 0.84249 0.12505 0.0
C713 C 0.43131 0.8375 0.14144 0.0
C714 C 0.47 0.86585 0.10384 0.0
C715 C 0.45553 0.88557 0.09984 0.0
C716 C 0.42958 0.88177 0.11746 0.0
C717 C 0.41722 0.85718 0.13767 0.0
C718 C 0.49702 0.86841 0.08496 0.0
C719 C 0.41454 0.90327 0.11468 0.0
H720 H 0.53067 0.97903 0.052 0.0
H721 H 0.44874 0.9047 0.00651 0.0
H722 H 0.49439 0.94825 0.12042 0.0
H723 H 0.52685 0.94147 0.10882 0.0
H724 H 0.52927 0.97971 0.10162 0.0
H725 H 0.40664 0.85778 0.02715 0.0
H726 H 0.42504 0.84382 0.05245 0.0
H727 H 0.39926 0.85947 0.06359 0.0
H728 H 0.46898 0.82721 0.12813 0.0
H729 H 0.3968 0.85361 0.15078 0.0
H730 H 0.51847 0.89348 0.08527 0.0
H731 H 0.48785 0.86308 0.06331 0.0
H732 H 0.50568 0.85135 0.09095 0.0
H733 H 0.43426 0.92914 0.11313 0.0
H734 H 0.39818 0.90044 0.13248 0.0
H735 H 0.39972 0.89717 0.09542 0.0
C736 C 0.6073 0.52076 0.23405 0.0
C737 C 0.57634 0.50807 0.22136 0.0
C738 C 0.61082 0.50836 0.25928 0.0
C739 C 0.58259 0.48261 0.27218 0.0
C740 C 0.5509 0.471 0.26028 0.0
C741 C 0.54812 0.48392 0.23484 0.0
C742 C 0.64504 0.52157 0.27127 0.0
C743 C 0.52024 0.44383 0.27363 0.0
C744 C 0.60317 0.42939 0.31662 0.0
C745 C 0.60613 0.44308 0.3429 0.0
C746 C 0.59394 0.44103 0.29356 0.0
C747 C 0.58708 0.46666 0.29697 0.0
C748 C 0.58833 0.47938 0.32368 0.0
C749 C 0.59809 0.46762 0.3463 0.0
C750 C 0.59314 0.42701 0.26533 0.0
C751 C 0.58072 0.50636 0.32821 0.0
H752 H 0.62906 0.5395 0.22348 0.0
H753 H 0.52426 0.47401 0.2248 0.0
H754 H 0.6455 0.52884 0.29317 0.0
H755 H 0.65191 0.50238 0.27103 0.0
H756 H 0.66407 0.5429 0.25951 0.0
H757 H 0.49726 0.44057 0.26385 0.0
H758 H 0.52057 0.42076 0.27166 0.0
H759 H 0.51964 0.44852 0.29607 0.0
H760 H 0.60921 0.41034 0.31386 0.0
H761 H 0.5998 0.47798 0.36664 0.0
H762 H 0.6131 0.44578 0.25217 0.0
H763 H 0.5693 0.41975 0.2549 0.0
H764 H 0.59657 0.40556 0.26647 0.0
H765 H 0.60059 0.52918 0.31885 0.0
H766 H 0.57878 0.51074 0.35056 0.0
H767 H 0.55722 0.50058 0.31785 0.0
C768 C 0.41302 0.91366 0.39267 0.0
C769 C 0.44439 0.93591 0.40297 0.0
C770 C 0.40929 0.89914 0.36676 0.0
C771 C 0.43767 0.9072 0.35058 0.0
C772 C 0.4694 0.93067 0.36034 0.0
C773 C 0.47241 0.94485 0.38654 0.0
C774 C 0.37497 0.87446 0.35708 0.0
C775 C 0.50015 0.93999 0.34352 0.0
C776 C 0.42289 0.84146 0.29879 0.0
C777 C 0.41407 0.85242 0.27509 0.0
C778 C 0.43254 0.86 0.32319 0.0
C779 C 0.4336 0.89028 0.32377 0.0
C780 C 0.42654 0.90228 0.29946 0.0
C781 C 0.41673 0.88316 0.27547 0.0
C782 C 0.4398 0.84635 0.34876 0.0
C783 C 0.42766 0.93456 0.29918 0.0
H784 H 0.3913 0.90709 0.40526 0.0
H785 H 0.49667 0.96197 0.39459 0.0
H786 H 0.36983 0.88184 0.33672 0.0
H787 H 0.37326 0.85052 0.35424 0.0
H788 H 0.35547 0.87147 0.37195 0.0
H789 H 0.52262 0.96034 0.35304 0.0
H790 H 0.50379 0.91876 0.34163 0.0
H791 H 0.49738 0.94713 0.32223 0.0
H792 H 0.42111 0.81785 0.29864 0.0
H793 H 0.41046 0.8921 0.25712 0.0
H794 H 0.41995 0.83994 0.36434 0.0
H795 H 0.46341 0.8648 0.35828 0.0
H796 H 0.44132 0.82426 0.34417 0.0
H797 H 0.40689 0.93274 0.31176 0.0
H798 H 0.42567 0.94227 0.27787 0.0
H799 H 0.45096 0.9537 0.30862 0.0
C800 C 0.49583 0.39958 0.57718 0.0
C801 C 0.50737 0.43156 0.58597 0.0
C802 C 0.50729 0.39312 0.55258 0.0
C803 C 0.53054 0.41934 0.53616 0.0
C804 C 0.54005 0.45166 0.54367 0.0
C805 C 0.52839 0.45744 0.56867 0.0
C806 C 0.49652 0.35831 0.54541 0.0
C807 C 0.56429 0.48019 0.52635 0.0
C808 C 0.59182 0.40349 0.49776 0.0
C809 C 0.57796 0.3956 0.47122 0.0
C810 C 0.57688 0.41183 0.51892 0.0
C811 C 0.54767 0.41284 0.51324 0.0
C812 C 0.53392 0.40555 0.48632 0.0
C813 C 0.54906 0.39669 0.46566 0.0
C814 C 0.59201 0.41891 0.54751 0.0
C815 C 0.50311 0.40688 0.47943 0.0
H816 H 0.47918 0.37956 0.59046 0.0
H817 H 0.53732 0.48217 0.57548 0.0
H818 H 0.48861 0.35321 0.52346 0.0
H819 H 0.51771 0.35416 0.54801 0.0
H820 H 0.47586 0.34073 0.55877 0.0
H821 H 0.56498 0.50302 0.53245 0.0
H822 H 0.58945 0.48365 0.52894 0.0
H823 H 0.55792 0.47561 0.50405 0.0
H824 H 0.61417 0.4027 0.50211 0.0
H825 H 0.53847 0.39098 0.44505 0.0
H826 H 0.57409 0.40116 0.56261 0.0
H827 H 0.59768 0.44344 0.55427 0.0
H828 H 0.61511 0.41768 0.54834 0.0
H829 H 0.48186 0.38821 0.49156 0.0
H830 H 0.49685 0.4027 0.45705 0.0
H831 H 0.50639 0.43087 0.48528 0.0
C832 C 0.08925 0.54239 0.7179 0.0
C833 C 0.09701 0.52377 0.73553 0.0
C834 C 0.10429 0.55214 0.69169 0.0
C835 C 0.12745 0.54293 0.68314 0.0
C836 C 0.13413 0.52289 0.70043 0.0
C837 C 0.11876 0.51349 0.72636 0.0
C838 C 0.09641 0.5733 0.67365 0.0
C839 C 0.15849 0.51235 0.69203 0.0
C840 C 0.15422 0.54692 0.60839 0.0
C841 C 0.18543 0.57526 0.6084 0.0
C842 C 0.13438 0.53682 0.63227 0.0
C843 C 0.14611 0.55536 0.65679 0.0
C844 C 0.17716 0.58443 0.65677 0.0
C845 C 0.19641 0.59409 0.63254 0.0
C846 C 0.10132 0.50578 0.63148 0.0
C847 C 0.19056 0.60476 0.68261 0.0
H848 H 0.07251 0.5504 0.72503 0.0
H849 H 0.12435 0.49864 0.73986 0.0
H850 H 0.11859 0.59783 0.6718 0.0
H851 H 0.08978 0.56309 0.65245 0.0
H852 H 0.07574 0.57588 0.68218 0.0
H853 H 0.15975 0.49556 0.70737 0.0
H854 H 0.15161 0.50006 0.67161 0.0
H855 H 0.18354 0.53397 0.68982 0.0
H856 H 0.14533 0.53237 0.58976 0.0
H857 H 0.22039 0.61608 0.63272 0.0
H858 H 0.08162 0.51003 0.63968 0.0
H859 H 0.10208 0.48725 0.64495 0.0
H860 H 0.09448 0.49575 0.6102 0.0
H861 H 0.17221 0.61074 0.69117 0.0
H862 H 0.21409 0.62775 0.67869 0.0
H863 H 0.19504 0.59073 0.6987 0.0
C864 C 0.56541 0.08654 0.88138 0.0
C865 C 0.59194 0.09432 0.89925 0.0
C866 C 0.57075 0.1018 0.85539 0.0
C867 C 0.60334 0.12521 0.84729 0.0
C868 C 0.63029 0.13188 0.86477 0.0
C869 C 0.62424 0.1163 0.8905 0.0
C870 C 0.54146 0.09396 0.83718 0.0
C871 C 0.66543 0.1565 0.85685 0.0
C872 C 0.62598 0.15339 0.77283 0.0
C873 C 0.62734 0.18355 0.77337 0.0
C874 C 0.61704 0.13356 0.79648 0.0
C875 C 0.60945 0.1442 0.82131 0.0
C876 C 0.61009 0.17427 0.82188 0.0
C877 C 0.61896 0.19356 0.79789 0.0
C878 C 0.6165 0.10159 0.79507 0.0
C879 C 0.60228 0.18649 0.84806 0.0
H880 H 0.54042 0.06965 0.88822 0.0
H881 H 0.6448 0.12199 0.90422 0.0
H882 H 0.53819 0.11545 0.83577 0.0
H883 H 0.5458 0.08823 0.81584 0.0
H884 H 0.5182 0.07312 0.84527 0.0
H885 H 0.6837 0.15753 0.87212 0.0
H886 H 0.67153 0.15065 0.83621 0.0
H887 H 0.6681 0.18098 0.85533 0.0
H888 H 0.63212 0.14527 0.75393 0.0
H889 H 0.61979 0.21673 0.7985 0.0
H890 H 0.59243 0.0816 0.80273 0.0
H891 H 0.63601 0.10245 0.80872 0.0
H892 H 0.62065 0.09572 0.7737 0.0
H893 H 0.57778 0.168 0.8563 0.0
H894 H 0.60214 0.20953 0.84468 0.0
H895 H 0.62092 0.19067 0.86418 0.0
C896 C 0.49964 0.56819 0.06721 0.0
C897 C 0.52199 0.59428 0.08357 0.0
C898 C 0.48802 0.57379 0.04213 0.0
C899 C 0.49891 0.60615 0.03361 0.0
C900 C 0.52362 0.6324 0.04895 0.0
C901 C 0.535 0.6261 0.07366 0.0
C902 C 0.46223 0.54518 0.02595 0.0
C903 C 0.5359 0.66726 0.04068 0.0
C904 C 0.47883 0.6277 0.96324 0.0
C905 C 0.45111 0.6306 0.96958 0.0
C906 C 0.49403 0.61855 -0.01638 0.0
C907 C 0.48158 0.61288 0.01104 0.0
C908 C 0.45355 0.61573 0.0175 0.0
C909 C 0.43848 0.62428 -0.00338 0.0
C910 C 0.5235 0.61521 0.97591 0.0
C911 C 0.43986 0.61043 0.04663 0.0
H912 H 0.48958 0.54359 0.07491 0.0
H913 H 0.5526 0.64624 0.08626 0.0
H914 H 0.43767 0.54294 0.02929 0.0
H915 H 0.46764 0.54875 0.00342 0.0
H916 H 0.46071 0.52206 0.03247 0.0
H917 H 0.55771 0.68463 0.05303 0.0
H918 H 0.54268 0.67108 0.01841 0.0
H919 H 0.51586 0.67301 0.04386 0.0
H920 H 0.48844 0.6322 0.94225 0.0
H921 H 0.41705 0.62648 0.00156 0.0
H922 H 0.51926 0.59101 -0.01765 0.0
H923 H 0.54576 0.63369 -0.01295 0.0
H924 H 0.52869 0.61824 0.9533 0.0
H925 H 0.43322 0.58579 0.05399 0.0
H926 H 0.41759 0.61307 0.04808 0.0
H927 H 0.45899 0.62819 0.06087 0.0
C928 C 0.91365 0.51034 0.22228 0.0
C929 C 0.9341 0.49966 0.23373 0.0
C930 C 0.89879 0.49929 0.19644 0.0
C931 C 0.9047 0.47713 0.18149 0.0
C932 C 0.92657 0.46737 0.19232 0.0
C933 C 0.94109 0.4788 0.21845 0.0
C934 C 0.87586 0.51055 0.18558 0.0
C935 C 0.93367 0.44404 0.17677 0.0
C936 C 0.83564 0.42715 0.13101 0.0
C937 C 0.84774 0.44563 0.10671 0.0
C938 C 0.85483 0.436 0.15522 0.0
C939 C 0.88693 0.46376 0.15498 0.0
C940 C 0.90003 0.48123 0.13004 0.0
C941 C 0.88022 0.47207 0.10625 0.0
C942 C 0.83995 0.41683 0.18149 0.0
C943 C 0.93428 0.51072 0.12885 0.0
H944 H 0.90864 0.52686 0.23398 0.0
H945 H 0.95683 0.47049 0.22738 0.0
H946 H 0.8842 0.52181 0.16483 0.0
H947 H 0.85055 0.48941 0.18321 0.0
H948 H 0.8746 0.52846 0.19952 0.0
H949 H 0.95355 0.44128 0.18673 0.0
H950 H 0.91092 0.41984 0.17587 0.0
H951 H 0.94105 0.45242 0.15511 0.0
H952 H 0.81066 0.40659 0.13149 0.0
H953 H 0.89 0.48618 0.08741 0.0
H954 H 0.83509 0.43179 0.19629 0.0
H955 H 0.85747 0.41075 0.19159 0.0
H956 H 0.81632 0.39397 0.17758 0.0
H957 H 0.93443 0.53106 0.1402 0.0
H958 H 0.94253 0.51875 0.10722 0.0
H959 H 0.95245 0.50563 0.13908 0.0
loop_
_geom_bond_atom_site_label_1
_geom_bond_atom_site_label_2
_geom_bond_distance
_geom_bond_site_symmetry_2
_ccdc_geom_bond_type
H0 C6 0.930 . S
H1 C9 0.931 . S
H2 C11 0.931 . S
H3 C13 0.930 . S
H4 C15 0.930 . S
H5 C17 0.919 1_455 S
C6 H0 0.930 . S
C6 C7 1.380 . S
C6 C8 1.394 . S
C7 C6 1.380 . S
C7 C11 1.382 . S
C8 C6 1.394 . S
C8 C9 1.400 . S
C9 H1 0.931 . S
C9 C8 1.400 . S
C9 C10 1.375 . S
C10 C9 1.375 . S
C10 C11 1.415 . S
C10 C12 1.501 1_455 S
C11 H2 0.931 . S
C11 C7 1.382 . S
C11 C10 1.415 . S
C12 C10 1.501 1_655 S
C12 C13 1.384 . S
C12 C17 1.408 . S
C13 H3 0.930 . S
C13 C12 1.384 . S
C13 C14 1.389 . S
C14 C13 1.389 . S
C14 C15 1.405 . S
C15 H4 0.930 . S
C15 C14 1.405 . S
C15 C16 1.364 . S
C16 C15 1.364 . S
C16 C17 1.400 . S
C17 H5 0.919 1_655 S
C17 C12 1.408 . S
C17 C16 1.400 . S
H18 C24 0.930 . S
H19 C27 0.931 . S
H20 C29 0.931 . S
H21 C31 0.930 . S
H22 C33 0.930 . S
H23 C35 0.919 1_545 S
C24 H18 0.930 . S
C24 C25 1.380 . S
C24 C26 1.394 . S
C25 C24 1.380 . S
C25 C29 1.382 . S
C26 C24 1.394 . S
C26 C27 1.400 . S
C27 H19 0.931 . S
C27 C26 1.400 . S
C27 C28 1.375 . S
C28 C27 1.375 . S
C28 C29 1.415 . S
C28 C30 1.501 1_545 S
C29 H20 0.931 . S
C29 C25 1.382 . S
C29 C28 1.415 . S
C30 C28 1.501 1_565 S
C30 C31 1.384 . S
C30 C35 1.408 . S
C31 H21 0.930 . S
C31 C30 1.384 . S
C31 C32 1.389 . S
C32 C31 1.389 . S
C32 C33 1.405 . S
C33 H22 0.930 . S
C33 C32 1.405 . S
C33 C34 1.364 . S
C34 C33 1.364 . S
C34 C35 1.400 . S
C35 H23 0.919 1_565 S
C35 C30 1.408 . S
C35 C34 1.400 . S
H36 C42 0.930 . S
H37 C45 0.931 . S
H38 C47 0.931 . S
H39 C49 0.930 . S
H40 C51 0.930 . S
H41 C53 0.931 . S
C42 H36 0.930 . S
C42 C43 1.380 . S
C42 C44 1.394 . S
C43 C42 1.380 . S
C43 C47 1.382 . S
C44 C42 1.394 . S
C44 C45 1.400 . S
C45 H37 0.931 . S
C45 C44 1.400 . S
C45 C46 1.375 . S
C46 C45 1.375 . S
C46 C47 1.415 . S
C46 C48 1.501 . S
C47 H38 0.931 . S
C47 C43 1.382 . S
C47 C46 1.415 . S
C48 C46 1.501 . S
C48 C49 1.384 . S
C48 C53 1.408 . S
C49 H39 0.930 . S
C49 C48 1.384 . S
C49 C50 1.389 . S
C50 C49 1.389 . S
C50 C51 1.405 . S
C51 H40 0.930 . S
C51 C50 1.405 . S
C51 C52 1.364 . S
C52 C51 1.364 . S
C52 C53 1.400 . S
C53 H41 0.931 . S
C53 C48 1.408 . S
C53 C52 1.400 . S
H54 C60 0.930 . S
H55 C63 0.931 . S
H56 C65 0.931 . S
H57 C67 0.930 . S
H58 C69 0.930 . S
H59 C71 0.931 . S
C60 H54 0.930 . S
C60 C61 1.380 . S
C60 C62 1.394 . S
C61 C60 1.380 . S
C61 C65 1.382 . S
C62 C60 1.394 . S
C62 C63 1.400 . S
C63 H55 0.931 . S
C63 C62 1.400 . S
C63 C64 1.375 . S
C64 C63 1.375 . S
C64 C65 1.415 . S
C64 C66 1.501 1_455 S
C65 H56 0.931 . S
C65 C61 1.382 . S
C65 C64 1.415 . S
C66 C64 1.501 1_655 S
C66 C67 1.384 . S
C66 C71 1.408 . S
C67 H57 0.930 . S
C67 C66 1.384 . S
C67 C68 1.389 . S
C68 C67 1.389 . S
C68 C69 1.405 . S
C69 H58 0.930 . S
C69 C68 1.405 . S
C69 C70 1.364 . S
C70 C69 1.364 . S
C70 C71 1.400 . S
C71 H59 0.931 . S
C71 C66 1.408 . S
C71 C70 1.400 . S
H72 C78 0.930 . S
H73 C81 0.931 . S
H74 C83 0.931 . S
H75 C85 0.930 . S
H76 C87 0.930 . S
H77 C89 0.931 . S
C78 H72 0.930 . S
C78 C79 1.380 . S
C78 C80 1.394 1_554 S
C79 C78 1.380 . S
C79 C83 1.382 . S
C80 C78 1.394 1_556 S
C80 C81 1.400 . S
C81 H73 0.931 . S
C81 C80 1.400 . S
C81 C82 1.375 . S
C82 C81 1.375 . S
C82 C83 1.415 1_556 S
C82 C84 1.501 1_565 S
C83 H74 0.931 . S
C83 C79 1.382 . S
C83 C82 1.415 1_554 S
C84 C82 1.501 1_545 S
C84 C85 1.384 1_556 S
C84 C89 1.408 . S
C85 H75 0.930 . S
C85 C84 1.384 1_554 S
C85 C86 1.389 1_554 S
C86 C85 1.389 1_556 S
C86 C87 1.405 . S
C87 H76 0.930 . S
C87 C86 1.405 . S
C87 C88 1.364 . S
C88 C87 1.364 . S
C88 C89 1.400 . S
C89 H77 0.931 . S
C89 C84 1.408 . S
C89 C88 1.400 . S
H90 C96 0.930 . S
H91 C99 0.931 . S
H92 C101 0.931 . S
H93 C103 0.930 . S
H94 C105 0.930 . S
H95 C107 0.931 . S
C96 H90 0.930 . S
C96 C97 1.380 . S
C96 C98 1.394 . S
C97 C96 1.380 . S
C97 C101 1.382 . S
C98 C96 1.394 . S
C98 C99 1.400 . S
C99 H91 0.931 . S
C99 C98 1.400 . S
C99 C100 1.375 . S
C100 C99 1.375 . S
C100 C101 1.415 . S
C100 C102 1.501 . S
C101 H92 0.931 . S
C101 C97 1.382 . S
C101 C100 1.415 . S
C102 C100 1.501 . S
C102 C103 1.384 . S
C102 C107 1.408 . S
C103 H93 0.930 . S
C103 C102 1.384 . S
C103 C104 1.389 . S
C104 C103 1.389 . S
C104 C105 1.405 . S
C105 H94 0.930 . S
C105 C104 1.405 . S
C105 C106 1.364 . S
C106 C105 1.364 . S
C106 C107 1.400 . S
C107 H95 0.931 . S
C107 C102 1.408 . S
C107 C106 1.400 . S
C108 O109 1.306 . S
C108 O111 1.160 . S
O109 C108 1.306 . S
O109 Cd110 2.228 . S
Cd110 O109 2.228 . S
Cd110 O114 2.273 . S
Cd110 O118 2.277 . S
O111 C108 1.160 . S
O111 Cd112 2.203 . S
Cd112 O111 2.203 . S
Cd112 O114 2.411 . S
Cd112 O115 2.333 . S
Cd112 O116 2.352 . S
Cd112 O120 2.277 . S
Cd112 O121 2.356 . S
C113 O118 1.209 . S
C113 O120 1.226 . S
O114 Cd110 2.273 . S
O114 Cd112 2.411 . S
O114 C117 1.320 . S
O115 Cd112 2.333 . S
O115 C117 1.214 . S
O116 Cd112 2.352 . S
O116 C119 1.258 . S
C117 O114 1.320 . S
C117 O115 1.214 . S
O118 Cd110 2.277 . S
O118 C113 1.209 . S
C119 O116 1.258 . S
C119 O121 1.282 . S
O120 Cd112 2.277 . S
O120 C113 1.226 . S
O121 Cd112 2.356 . S
O121 C119 1.282 . S
C122 O123 1.306 . S
C122 O125 1.160 . S
O123 C122 1.306 . S
O123 Cd124 2.228 . S
Cd124 O123 2.228 . S
Cd124 O128 2.273 . S
Cd124 O132 2.277 . S
O125 C122 1.160 . S
O125 Cd126 2.203 . S
Cd126 O125 2.203 . S
Cd126 O128 2.411 . S
Cd126 O129 2.333 . S
Cd126 O130 2.352 . S
Cd126 O134 2.277 . S
Cd126 O135 2.356 . S
C127 O132 1.209 . S
C127 O134 1.226 . S
O128 Cd124 2.273 . S
O128 Cd126 2.411 . S
O128 C131 1.320 . S
O129 Cd126 2.333 . S
O129 C131 1.214 . S
O130 Cd126 2.352 . S
O130 C133 1.258 . S
C131 O128 1.320 . S
C131 O129 1.214 . S
O132 Cd124 2.277 . S
O132 C127 1.209 . S
C133 O130 1.258 . S
C133 O135 1.282 . S
O134 Cd126 2.277 . S
O134 C127 1.226 . S
O135 Cd126 2.356 . S
O135 C133 1.282 . S
C136 O137 1.306 . S
C136 O139 1.160 . S
O137 C136 1.306 . S
O137 Cd138 2.228 . S
Cd138 O137 2.228 . S
Cd138 O142 2.273 . S
Cd138 O146 2.277 . S
O139 C136 1.160 . S
O139 Cd140 2.203 . S
Cd140 O139 2.203 . S
Cd140 O142 2.411 . S
Cd140 O143 2.333 . S
Cd140 O144 2.352 . S
Cd140 O148 2.277 . S
Cd140 O149 2.356 . S
C141 O146 1.209 . S
C141 O148 1.226 . S
O142 Cd138 2.273 . S
O142 Cd140 2.411 . S
O142 C145 1.320 . S
O143 Cd140 2.333 . S
O143 C145 1.214 . S
O144 Cd140 2.352 . S
O144 C147 1.258 . S
C145 O142 1.320 . S
C145 O143 1.214 . S
O146 Cd138 2.277 . S
O146 C141 1.209 . S
C147 O144 1.258 . S
C147 O149 1.282 . S
O148 Cd140 2.277 . S
O148 C141 1.226 . S
O149 Cd140 2.356 . S
O149 C147 1.282 . S
C150 O151 1.306 . S
C150 O153 1.160 . S
O151 C150 1.306 . S
O151 Cd152 2.228 . S
Cd152 O151 2.228 . S
Cd152 O156 2.273 . S
Cd152 O160 2.277 . S
O153 C150 1.160 . S
O153 Cd154 2.203 . S
Cd154 O153 2.203 . S
Cd154 O156 2.411 . S
Cd154 O157 2.333 . S
Cd154 O158 2.352 . S
Cd154 O162 2.277 . S
Cd154 O163 2.356 . S
C155 O160 1.209 . S
C155 O162 1.226 . S
O156 Cd152 2.273 . S
O156 Cd154 2.411 . S
O156 C159 1.320 . S
O157 Cd154 2.333 . S
O157 C159 1.214 . S
O158 Cd154 2.352 . S
O158 C161 1.258 . S
C159 O156 1.320 . S
C159 O157 1.214 . S
O160 Cd152 2.277 . S
O160 C155 1.209 . S
C161 O158 1.258 . S
C161 O163 1.282 . S
O162 Cd154 2.277 . S
O162 C155 1.226 . S
O163 Cd154 2.356 . S
O163 C161 1.282 . S
C164 O165 1.306 . S
C164 O167 1.160 . S
O165 C164 1.306 . S
O165 Cd166 2.228 . S
Cd166 O165 2.228 . S
Cd166 O170 2.273 . S
Cd166 O174 2.277 . S
O167 C164 1.160 . S
O167 Cd168 2.203 . S
Cd168 O167 2.203 . S
Cd168 O170 2.411 . S
Cd168 O171 2.333 . S
Cd168 O172 2.352 . S
Cd168 O176 2.277 . S
Cd168 O177 2.356 . S
C169 O174 1.209 . S
C169 O176 1.226 . S
O170 Cd166 2.273 . S
O170 Cd168 2.411 . S
O170 C173 1.320 . S
O171 Cd168 2.333 . S
O171 C173 1.214 . S
O172 Cd168 2.352 . S
O172 C175 1.258 . S
C173 O170 1.320 . S
C173 O171 1.214 . S
O174 Cd166 2.277 . S
O174 C169 1.209 . S
C175 O172 1.258 . S
C175 O177 1.282 . S
O176 Cd168 2.277 . S
O176 C169 1.226 . S
O177 Cd168 2.356 . S
O177 C175 1.282 . S
C178 O179 1.306 . S
C178 O181 1.160 . S
O179 C178 1.306 . S
O179 Cd180 2.228 . S
Cd180 O179 2.228 . S
Cd180 O184 2.273 . S
Cd180 O188 2.277 . S
O181 C178 1.160 . S
O181 Cd182 2.203 . S
Cd182 O181 2.203 . S
Cd182 O184 2.411 . S
Cd182 O185 2.333 . S
Cd182 O186 2.352 . S
Cd182 O190 2.277 . S
Cd182 O191 2.356 . S
C183 O188 1.209 . S
C183 O190 1.226 . S
O184 Cd180 2.273 . S
O184 Cd182 2.411 . S
O184 C187 1.320 . S
O185 Cd182 2.333 . S
O185 C187 1.214 . S
O186 Cd182 2.352 . S
O186 C189 1.258 . S
C187 O184 1.320 . S
C187 O185 1.214 . S
O188 Cd180 2.277 . S
O188 C183 1.209 . S
C189 O186 1.258 . S
C189 O191 1.282 . S
O190 Cd182 2.277 . S
O190 C183 1.226 . S
O191 Cd182 2.356 . S
O191 C189 1.282 . S
C192 C193 1.391 . S
C192 C194 1.394 . S
C192 H208 0.931 . S
C193 C192 1.391 . S
C193 C197 1.376 . S
C194 C192 1.394 . S
C194 C195 1.369 . S
C194 C198 1.531 . S
C195 C194 1.369 . S
C195 C196 1.410 . S
C195 C203 1.503 . S
C196 C195 1.410 . S
C196 C197 1.392 . S
C196 C199 1.511 . S
C197 C193 1.376 . S
C197 C196 1.392 . S
C197 H209 0.929 . S
C198 C194 1.531 . S
C198 H210 0.960 . S
C198 H211 0.962 . S
C198 H212 0.960 . S
C199 C196 1.511 . S
C199 H213 0.961 . S
C199 H214 0.961 . S
C199 H215 0.961 . S
C200 C201 1.370 . S
C200 C202 1.363 . S
C200 H216 0.931 . S
C201 C200 1.370 . S
C201 C205 1.408 . S
C202 C200 1.363 . S
C202 C203 1.370 . S
C202 C206 1.524 . S
C203 C195 1.503 . S
C203 C202 1.370 . S
C203 C204 1.403 . S
C204 C203 1.403 . S
C204 C205 1.404 . S
C204 C207 1.539 . S
C205 C201 1.408 . S
C205 C204 1.404 . S
C205 H217 0.930 . S
C206 C202 1.524 . S
C206 H218 0.956 . S
C206 H219 0.961 . S
C206 H220 0.961 . S
C207 C204 1.539 . S
C207 H221 0.958 . S
C207 H222 0.961 . S
C207 H223 0.960 . S
H208 C192 0.931 . S
H209 C197 0.929 . S
H210 C198 0.960 . S
H211 C198 0.962 . S
H212 C198 0.960 . S
H213 C199 0.961 . S
H214 C199 0.961 . S
H215 C199 0.961 . S
H216 C200 0.931 . S
H217 C205 0.930 . S
H218 C206 0.956 . S
H219 C206 0.961 . S
H220 C206 0.961 . S
H221 C207 0.958 . S
H222 C207 0.961 . S
H223 C207 0.960 . S
C224 C225 1.391 . S
C224 C226 1.394 . S
C224 H240 0.931 . S
C225 C224 1.391 . S
C225 C229 1.376 . S
C226 C224 1.394 . S
C226 C227 1.369 . S
C226 C230 1.531 . S
C227 C226 1.369 . S
C227 C228 1.410 . S
C227 C235 1.503 . S
C228 C227 1.410 . S
C228 C229 1.392 . S
C228 C231 1.511 . S
C229 C225 1.376 . S
C229 C228 1.392 . S
C229 H241 0.929 . S
C230 C226 1.531 . S
C230 H242 0.960 . S
C230 H243 0.962 . S
C230 H244 0.960 . S
C231 C228 1.511 . S
C231 H245 0.961 . S
C231 H246 0.961 . S
C231 H247 0.961 . S
C232 C233 1.370 . S
C232 C234 1.363 . S
C232 H248 0.931 . S
C233 C232 1.370 . S
C233 C237 1.408 . S
C234 C232 1.363 . S
C234 C235 1.370 . S
C234 C238 1.524 . S
C235 C227 1.503 . S
C235 C234 1.370 . S
C235 C236 1.403 . S
C236 C235 1.403 . S
C236 C237 1.404 . S
C236 C239 1.539 . S
C237 C233 1.408 . S
C237 C236 1.404 . S
C237 H249 0.930 . S
C238 C234 1.524 . S
C238 H250 0.956 . S
C238 H251 0.961 . S
C238 H252 0.961 . S
C239 C236 1.539 . S
C239 H253 0.958 . S
C239 H254 0.961 . S
C239 H255 0.960 . S
H240 C224 0.931 . S
H241 C229 0.929 . S
H242 C230 0.960 . S
H243 C230 0.962 . S
H244 C230 0.960 . S
H245 C231 0.961 . S
H246 C231 0.961 . S
H247 C231 0.961 . S
H248 C232 0.931 . S
H249 C237 0.930 . S
H250 C238 0.956 . S
H251 C238 0.961 . S
H252 C238 0.961 . S
H253 C239 0.958 . S
H254 C239 0.961 . S
H255 C239 0.960 . S
C256 C257 1.391 . S
C256 C258 1.394 . S
C256 H272 0.931 . S
C257 C256 1.391 . S
C257 C261 1.376 . S
C258 C256 1.394 . S
C258 C259 1.369 . S
C258 C262 1.531 . S
C259 C258 1.369 . S
C259 C260 1.410 . S
C259 C267 1.503 . S
C260 C259 1.410 . S
C260 C261 1.392 . S
C260 C263 1.511 . S
C261 C257 1.376 . S
C261 C260 1.392 . S
C261 H273 0.929 . S
C262 C258 1.531 . S
C262 H274 0.960 . S
C262 H275 0.962 . S
C262 H276 0.960 . S
C263 C260 1.511 . S
C263 H277 0.961 . S
C263 H278 0.961 . S
C263 H279 0.961 . S
C264 C265 1.370 . S
C264 C266 1.363 . S
C264 H280 0.931 . S
C265 C264 1.370 . S
C265 C269 1.408 . S
C266 C264 1.363 . S
C266 C267 1.370 . S
C266 C270 1.524 . S
C267 C259 1.503 . S
C267 C266 1.370 . S
C267 C268 1.403 . S
C268 C267 1.403 . S
C268 C269 1.404 . S
C268 C271 1.539 . S
C269 C265 1.408 . S
C269 C268 1.404 . S
C269 H281 0.930 . S
C270 C266 1.524 . S
C270 H282 0.956 . S
C270 H283 0.961 . S
C270 H284 0.961 . S
C271 C268 1.539 . S
C271 H285 0.958 . S
C271 H286 0.961 . S
C271 H287 0.960 . S
H272 C256 0.931 . S
H273 C261 0.929 . S
H274 C262 0.960 . S
H275 C262 0.962 . S
H276 C262 0.960 . S
H277 C263 0.961 . S
H278 C263 0.961 . S
H279 C263 0.961 . S
H280 C264 0.931 . S
H281 C269 0.930 . S
H282 C270 0.956 . S
H283 C270 0.961 . S
H284 C270 0.961 . S
H285 C271 0.958 . S
H286 C271 0.961 . S
H287 C271 0.960 . S
C288 C289 1.391 . S
C288 C290 1.394 . S
C288 H304 0.931 . S
C289 C288 1.391 . S
C289 C293 1.376 . S
C290 C288 1.394 . S
C290 C291 1.369 . S
C290 C294 1.531 . S
C291 C290 1.369 . S
C291 C292 1.410 . S
C291 C299 1.503 . S
C292 C291 1.410 . S
C292 C293 1.392 . S
C292 C295 1.511 . S
C293 C289 1.376 . S
C293 C292 1.392 . S
C293 H305 0.929 . S
C294 C290 1.531 . S
C294 H306 0.960 . S
C294 H307 0.962 . S
C294 H308 0.960 . S
C295 C292 1.511 . S
C295 H309 0.961 . S
C295 H310 0.961 . S
C295 H311 0.961 . S
C296 C297 1.370 . S
C296 C298 1.363 . S
C296 H312 0.931 . S
C297 C296 1.370 . S
C297 C301 1.408 . S
C298 C296 1.363 . S
C298 C299 1.370 . S
C298 C302 1.524 . S
C299 C291 1.503 . S
C299 C298 1.370 . S
C299 C300 1.403 . S
C300 C299 1.403 . S
C300 C301 1.404 . S
C300 C303 1.539 . S
C301 C297 1.408 . S
C301 C300 1.404 . S
C301 H313 0.930 . S
C302 C298 1.524 . S
C302 H314 0.956 . S
C302 H315 0.961 . S
C302 H316 0.961 . S
C303 C300 1.539 . S
C303 H317 0.958 . S
C303 H318 0.961 . S
C303 H319 0.960 . S
H304 C288 0.931 . S
H305 C293 0.929 . S
H306 C294 0.960 . S
H307 C294 0.962 . S
H308 C294 0.960 . S
H309 C295 0.961 . S
H310 C295 0.961 . S
H311 C295 0.961 . S
H312 C296 0.931 . S
H313 C301 0.930 . S
H314 C302 0.956 . S
H315 C302 0.961 . S
H316 C302 0.961 . S
H317 C303 0.958 . S
H318 C303 0.961 . S
H319 C303 0.960 . S
C320 C321 1.391 . S
C320 C322 1.394 . S
C320 H336 0.931 . S
C321 C320 1.391 . S
C321 C325 1.376 . S
C322 C320 1.394 . S
C322 C323 1.369 . S
C322 C326 1.531 . S
C323 C322 1.369 . S
C323 C324 1.410 . S
C323 C331 1.503 . S
C324 C323 1.410 . S
C324 C325 1.392 . S
C324 C327 1.511 . S
C325 C321 1.376 . S
C325 C324 1.392 . S
C325 H337 0.929 . S
C326 C322 1.531 . S
C326 H338 0.960 . S
C326 H339 0.962 . S
C326 H340 0.960 . S
C327 C324 1.511 . S
C327 H341 0.961 1_556 S
C327 H342 0.961 . S
C327 H343 0.961 . S
C328 C329 1.370 . S
C328 C330 1.363 . S
C328 H344 0.931 . S
C329 C328 1.370 . S
C329 C333 1.408 . S
C330 C328 1.363 . S
C330 C331 1.370 . S
C330 C334 1.524 . S
C331 C323 1.503 . S
C331 C330 1.370 . S
C331 C332 1.403 . S
C332 C331 1.403 . S
C332 C333 1.404 . S
C332 C335 1.539 . S
C333 C329 1.408 . S
C333 C332 1.404 . S
C333 H345 0.930 . S
C334 C330 1.524 . S
C334 H346 0.956 . S
C334 H347 0.961 . S
C334 H348 0.961 . S
C335 C332 1.539 . S
C335 H349 0.958 . S
C335 H350 0.961 . S
C335 H351 0.960 . S
H336 C320 0.931 . S
H337 C325 0.929 . S
H338 C326 0.960 . S
H339 C326 0.962 . S
H340 C326 0.960 . S
H341 C327 0.961 1_554 S
H342 C327 0.961 . S
H343 C327 0.961 . S
H344 C328 0.931 . S
H345 C333 0.930 . S
H346 C334 0.956 . S
H347 C334 0.961 . S
H348 C334 0.961 . S
H349 C335 0.958 . S
H350 C335 0.961 . S
H351 C335 0.960 . S
C352 C353 1.391 . S
C352 C354 1.394 . S
C352 H368 0.931 . S
C353 C352 1.391 . S
C353 C357 1.376 . S
C354 C352 1.394 . S
C354 C355 1.369 . S
C354 C358 1.531 . S
C355 C354 1.369 . S
C355 C356 1.410 . S
C355 C363 1.503 . S
C356 C355 1.410 . S
C356 C357 1.392 . S
C356 C359 1.511 . S
C357 C353 1.376 . S
C357 C356 1.392 . S
C357 H369 0.929 . S
C358 C354 1.531 . S
C358 H370 0.960 . S
C358 H371 0.962 . S
C358 H372 0.960 . S
C359 C356 1.511 . S
C359 H373 0.961 . S
C359 H374 0.961 . S
C359 H375 0.961 . S
C360 C361 1.370 . S
C360 C362 1.363 . S
C360 H376 0.931 . S
C361 C360 1.370 . S
C361 C365 1.408 . S
C362 C360 1.363 . S
C362 C363 1.370 . S
C362 C366 1.524 . S
C363 C355 1.503 . S
C363 C362 1.370 . S
C363 C364 1.403 . S
C364 C363 1.403 . S
C364 C365 1.404 . S
C364 C367 1.539 . S
C365 C361 1.408 . S
C365 C364 1.404 . S
C365 H377 0.930 . S
C366 C362 1.524 . S
C366 H378 0.956 . S
C366 H379 0.961 . S
C366 H380 0.961 . S
C367 C364 1.539 . S
C367 H381 0.958 . S
C367 H382 0.961 . S
C367 H383 0.960 . S
H368 C352 0.931 . S
H369 C357 0.929 . S
H370 C358 0.960 . S
H371 C358 0.962 . S
H372 C358 0.960 . S
H373 C359 0.961 . S
H374 C359 0.961 . S
H375 C359 0.961 . S
H376 C360 0.931 . S
H377 C365 0.930 . S
H378 C366 0.956 . S
H379 C366 0.961 . S
H380 C366 0.961 . S
H381 C367 0.958 . S
H382 C367 0.961 . S
H383 C367 0.960 . S
C384 C385 1.391 . S
C384 C386 1.394 . S
C384 H400 0.931 . S
C385 C384 1.391 . S
C385 C389 1.376 . S
C386 C384 1.394 . S
C386 C387 1.369 . S
C386 C390 1.531 . S
C387 C386 1.369 . S
C387 C388 1.410 . S
C387 C395 1.503 . S
C388 C387 1.410 . S
C388 C389 1.392 . S
C388 C391 1.511 . S
C389 C385 1.376 . S
C389 C388 1.392 . S
C389 H401 0.929 . S
C390 C386 1.531 . S
C390 H402 0.960 . S
C390 H403 0.962 . S
C390 H404 0.960 . S
C391 C388 1.511 . S
C391 H405 0.961 . S
C391 H406 0.961 . S
C391 H407 0.961 . S
C392 C393 1.370 . S
C392 C394 1.363 . S
C392 H408 0.931 . S
C393 C392 1.370 . S
C393 C397 1.408 . S
C394 C392 1.363 . S
C394 C395 1.370 . S
C394 C398 1.524 . S
C395 C387 1.503 . S
C395 C394 1.370 . S
C395 C396 1.403 . S
C396 C395 1.403 . S
C396 C397 1.404 . S
C396 C399 1.539 . S
C397 C393 1.408 . S
C397 C396 1.404 . S
C397 H409 0.930 . S
C398 C394 1.524 . S
C398 H410 0.956 . S
C398 H411 0.961 . S
C398 H412 0.961 . S
C399 C396 1.539 . S
C399 H413 0.958 . S
C399 H414 0.961 . S
C399 H415 0.960 . S
H400 C384 0.931 . S
H401 C389 0.929 . S
H402 C390 0.960 . S
H403 C390 0.962 . S
H404 C390 0.960 . S
H405 C391 0.961 . S
H406 C391 0.961 . S
H407 C391 0.961 . S
H408 C392 0.931 . S
H409 C397 0.930 . S
H410 C398 0.956 . S
H411 C398 0.961 . S
H412 C398 0.961 . S
H413 C399 0.958 . S
H414 C399 0.961 . S
H415 C399 0.960 . S
C416 C417 1.391 . S
C416 C418 1.394 . S
C416 H432 0.931 . S
C417 C416 1.391 . S
C417 C421 1.376 . S
C418 C416 1.394 . S
C418 C419 1.369 . S
C418 C422 1.531 . S
C419 C418 1.369 . S
C419 C420 1.410 . S
C419 C427 1.503 . S
C420 C419 1.410 . S
C420 C421 1.392 . S
C420 C423 1.511 . S
C421 C417 1.376 . S
C421 C420 1.392 . S
C421 H433 0.929 . S
C422 C418 1.531 . S
C422 H434 0.960 . S
C422 H435 0.962 . S
C422 H436 0.960 . S
C423 C420 1.511 . S
C423 H437 0.961 . S
C423 H438 0.961 . S
C423 H439 0.961 . S
C424 C425 1.370 . S
C424 C426 1.363 . S
C424 H440 0.931 . S
C425 C424 1.370 . S
C425 C429 1.408 . S
C426 C424 1.363 . S
C426 C427 1.370 . S
C426 C430 1.524 . S
C427 C419 1.503 . S
C427 C426 1.370 . S
C427 C428 1.403 . S
C428 C427 1.403 . S
C428 C429 1.404 . S
C428 C431 1.539 . S
C429 C425 1.408 . S
C429 C428 1.404 . S
C429 H441 0.930 . S
C430 C426 1.524 . S
C430 H442 0.956 . S
C430 H443 0.961 . S
C430 H444 0.961 . S
C431 C428 1.539 . S
C431 H445 0.958 . S
C431 H446 0.961 . S
C431 H447 0.960 . S
H432 C416 0.931 . S
H433 C421 0.929 . S
H434 C422 0.960 . S
H435 C422 0.962 . S
H436 C422 0.960 . S
H437 C423 0.961 . S
H438 C423 0.961 . S
H439 C423 0.961 . S
H440 C424 0.931 . S
H441 C429 0.930 . S
H442 C430 0.956 . S
H443 C430 0.961 . S
H444 C430 0.961 . S
H445 C431 0.958 . S
H446 C431 0.961 . S
H447 C431 0.960 . S
C448 C449 1.391 . S
C448 C450 1.394 . S
C448 H464 0.931 . S
C449 C448 1.391 . S
C449 C453 1.376 . S
C450 C448 1.394 . S
C450 C451 1.369 . S
C450 C454 1.531 . S
C451 C450 1.369 . S
C451 C452 1.410 . S
C451 C459 1.503 . S
C452 C451 1.410 . S
C452 C453 1.392 . S
C452 C455 1.511 . S
C453 C449 1.376 . S
C453 C452 1.392 . S
C453 H465 0.929 . S
C454 C450 1.531 . S
C454 H466 0.960 . S
C454 H467 0.962 . S
C454 H468 0.960 . S
C455 C452 1.511 . S
C455 H469 0.961 . S
C455 H470 0.961 . S
C455 H471 0.961 . S
C456 C457 1.370 . S
C456 C458 1.363 . S
C456 H472 0.931 . S
C457 C456 1.370 . S
C457 C461 1.408 . S
C458 C456 1.363 . S
C458 C459 1.370 . S
C458 C462 1.524 . S
C459 C451 1.503 . S
C459 C458 1.370 . S
C459 C460 1.403 . S
C460 C459 1.403 . S
C460 C461 1.404 . S
C460 C463 1.539 . S
C461 C457 1.408 . S
C461 C460 1.404 . S
C461 H473 0.930 . S
C462 C458 1.524 . S
C462 H474 0.956 . S
C462 H475 0.961 . S
C462 H476 0.961 . S
C463 C460 1.539 . S
C463 H477 0.958 . S
C463 H478 0.961 . S
C463 H479 0.960 . S
H464 C448 0.931 . S
H465 C453 0.929 . S
H466 C454 0.960 . S
H467 C454 0.962 . S
H468 C454 0.960 . S
H469 C455 0.961 . S
H470 C455 0.961 . S
H471 C455 0.961 . S
H472 C456 0.931 . S
H473 C461 0.930 . S
H474 C462 0.956 . S
H475 C462 0.961 . S
H476 C462 0.961 . S
H477 C463 0.958 . S
H478 C463 0.961 . S
H479 C463 0.960 . S
C480 C481 1.391 . S
C480 C482 1.394 . S
C480 H496 0.931 . S
C481 C480 1.391 . S
C481 C485 1.376 1_554 S
C482 C480 1.394 . S
C482 C483 1.369 . S
C482 C486 1.531 . S
C483 C482 1.369 . S
C483 C484 1.410 . S
C483 C491 1.503 . S
C484 C483 1.410 . S
C484 C485 1.393 1_554 S
C484 C487 1.511 1_554 S
C485 C481 1.376 1_556 S
C485 C484 1.393 1_556 S
C485 H497 0.928 . S
C486 C482 1.531 . S
C486 H498 0.960 . S
C486 H499 0.962 . S
C486 H500 0.960 . S
C487 C484 1.511 1_556 S
C487 H501 0.961 . S
C487 H502 0.961 . S
C487 H503 0.960 1_556 S
C488 C489 1.370 . S
C488 C490 1.363 . S
C488 H504 0.931 . S
C489 C488 1.370 . S
C489 C493 1.408 . S
C490 C488 1.363 . S
C490 C491 1.370 . S
C490 C494 1.524 . S
C491 C483 1.503 . S
C491 C490 1.370 . S
C491 C492 1.403 . S
C492 C491 1.403 . S
C492 C493 1.404 . S
C492 C495 1.539 . S
C493 C489 1.408 . S
C493 C492 1.404 . S
C493 H505 0.930 . S
C494 C490 1.524 . S
C494 H506 0.956 . S
C494 H507 0.961 1_554 S
C494 H508 0.961 1_554 S
C495 C492 1.539 . S
C495 H509 0.958 . S
C495 H510 0.961 . S
C495 H511 0.960 . S
H496 C480 0.931 . S
H497 C485 0.928 . S
H498 C486 0.960 . S
H499 C486 0.962 . S
H500 C486 0.960 . S
H501 C487 0.961 . S
H502 C487 0.961 . S
H503 C487 0.960 1_554 S
H504 C488 0.931 . S
H505 C493 0.930 . S
H506 C494 0.956 . S
H507 C494 0.961 1_556 S
H508 C494 0.961 1_556 S
H509 C495 0.958 . S
H510 C495 0.961 . S
H511 C495 0.960 . S
C512 C513 1.391 . S
C512 C514 1.394 . S
C512 H528 0.931 . S
C513 C512 1.391 . S
C513 C517 1.376 . S
C514 C512 1.394 . S
C514 C515 1.369 . S
C514 C518 1.531 . S
C515 C514 1.369 . S
C515 C516 1.410 . S
C515 C523 1.503 . S
C516 C515 1.410 . S
C516 C517 1.392 . S
C516 C519 1.511 . S
C517 C513 1.376 . S
C517 C516 1.392 . S
C517 H529 0.929 . S
C518 C514 1.531 . S
C518 H530 0.960 . S
C518 H531 0.962 . S
C518 H532 0.960 . S
C519 C516 1.511 . S
C519 H533 0.961 . S
C519 H534 0.961 . S
C519 H535 0.961 . S
C520 C521 1.370 . S
C520 C522 1.363 . S
C520 H536 0.931 . S
C521 C520 1.370 . S
C521 C525 1.408 . S
C522 C520 1.363 . S
C522 C523 1.370 . S
C522 C526 1.524 . S
C523 C515 1.503 . S
C523 C522 1.370 . S
C523 C524 1.403 . S
C524 C523 1.403 . S
C524 C525 1.404 . S
C524 C527 1.539 . S
C525 C521 1.408 . S
C525 C524 1.404 . S
C525 H537 0.930 . S
C526 C522 1.524 . S
C526 H538 0.956 . S
C526 H539 0.961 . S
C526 H540 0.961 . S
C527 C524 1.539 . S
C527 H541 0.958 . S
C527 H542 0.961 . S
C527 H543 0.960 . S
H528 C512 0.931 . S
H529 C517 0.929 . S
H530 C518 0.960 . S
H531 C518 0.962 . S
H532 C518 0.960 . S
H533 C519 0.961 . S
H534 C519 0.961 . S
H535 C519 0.961 . S
H536 C520 0.931 . S
H537 C525 0.930 . S
H538 C526 0.956 . S
H539 C526 0.961 . S
H540 C526 0.961 . S
H541 C527 0.958 . S
H542 C527 0.961 . S
H543 C527 0.960 . S
C544 C545 1.391 . S
C544 C546 1.394 . S
C544 H560 0.931 . S
C545 C544 1.391 . S
C545 C549 1.376 . S
C546 C544 1.394 . S
C546 C547 1.369 . S
C546 C550 1.531 . S
C547 C546 1.369 . S
C547 C548 1.410 . S
C547 C555 1.503 . S
C548 C547 1.410 . S
C548 C549 1.392 . S
C548 C551 1.511 . S
C549 C545 1.376 . S
C549 C548 1.392 . S
C549 H561 0.929 . S
C550 C546 1.531 . S
C550 H562 0.960 . S
C550 H563 0.962 . S
C550 H564 0.960 . S
C551 C548 1.511 . S
C551 H565 0.961 . S
C551 H566 0.961 . S
C551 H567 0.961 . S
C552 C553 1.370 . S
C552 C554 1.363 . S
C552 H568 0.931 . S
C553 C552 1.370 . S
C553 C557 1.408 . S
C554 C552 1.363 . S
C554 C555 1.370 . S
C554 C558 1.524 . S
C555 C547 1.503 . S
C555 C554 1.370 . S
C555 C556 1.403 . S
C556 C555 1.403 . S
C556 C557 1.404 . S
C556 C559 1.539 . S
C557 C553 1.408 . S
C557 C556 1.404 . S
C557 H569 0.930 . S
C558 C554 1.524 . S
C558 H570 0.956 . S
C558 H571 0.961 . S
C558 H572 0.961 . S
C559 C556 1.539 . S
C559 H573 0.958 . S
C559 H574 0.961 . S
C559 H575 0.960 . S
H560 C544 0.931 . S
H561 C549 0.929 . S
H562 C550 0.960 . S
H563 C550 0.962 . S
H564 C550 0.960 . S
H565 C551 0.961 . S
H566 C551 0.961 . S
H567 C551 0.961 . S
H568 C552 0.931 . S
H569 C557 0.930 . S
H570 C558 0.956 . S
H571 C558 0.961 . S
H572 C558 0.961 . S
H573 C559 0.958 . S
H574 C559 0.961 . S
H575 C559 0.960 . S
C576 C577 1.391 . S
C576 C578 1.394 . S
C576 H592 0.931 . S
C577 C576 1.391 . S
C577 C581 1.376 . S
C578 C576 1.394 . S
C578 C579 1.369 . S
C578 C582 1.531 . S
C579 C578 1.369 . S
C579 C580 1.410 . S
C579 C587 1.503 . S
C580 C579 1.410 . S
C580 C581 1.392 . S
C580 C583 1.511 . S
C581 C577 1.376 . S
C581 C580 1.392 . S
C581 H593 0.929 . S
C582 C578 1.531 . S
C582 H594 0.960 . S
C582 H595 0.962 . S
C582 H596 0.960 . S
C583 C580 1.511 . S
C583 H597 0.961 . S
C583 H598 0.961 . S
C583 H599 0.961 . S
C584 C585 1.370 . S
C584 C586 1.363 . S
C584 H600 0.931 . S
C585 C584 1.370 . S
C585 C589 1.408 . S
C586 C584 1.363 . S
C586 C587 1.370 . S
C586 C590 1.524 . S
C587 C579 1.503 . S
C587 C586 1.370 . S
C587 C588 1.403 . S
C588 C587 1.403 . S
C588 C589 1.404 . S
C588 C591 1.539 . S
C589 C585 1.408 . S
C589 C588 1.404 . S
C589 H601 0.930 . S
C590 C586 1.524 . S
C590 H602 0.956 . S
C590 H603 0.961 . S
C590 H604 0.961 . S
C591 C588 1.539 . S
C591 H605 0.958 . S
C591 H606 0.961 . S
C591 H607 0.960 . S
H592 C576 0.931 . S
H593 C581 0.929 . S
H594 C582 0.960 . S
H595 C582 0.962 . S
H596 C582 0.960 . S
H597 C583 0.961 . S
H598 C583 0.961 . S
H599 C583 0.961 . S
H600 C584 0.931 . S
H601 C589 0.930 . S
H602 C590 0.956 . S
H603 C590 0.961 . S
H604 C590 0.961 . S
H605 C591 0.958 . S
H606 C591 0.961 . S
H607 C591 0.960 . S
C608 C609 1.391 . S
C608 C610 1.394 . S
C608 H624 0.931 . S
C609 C608 1.391 . S
C609 C613 1.376 . S
C610 C608 1.394 . S
C610 C611 1.369 . S
C610 C614 1.531 . S
C611 C610 1.369 . S
C611 C612 1.410 . S
C611 C619 1.503 . S
C612 C611 1.410 . S
C612 C613 1.392 . S
C612 C615 1.511 . S
C613 C609 1.376 . S
C613 C612 1.392 . S
C613 H625 0.929 . S
C614 C610 1.531 . S
C614 H626 0.960 . S
C614 H627 0.962 . S
C614 H628 0.960 . S
C615 C612 1.511 . S
C615 H629 0.961 . S
C615 H630 0.961 . S
C615 H631 0.961 . S
C616 C617 1.370 . S
C616 C618 1.363 . S
C616 H632 0.931 . S
C617 C616 1.370 . S
C617 C621 1.408 . S
C618 C616 1.363 . S
C618 C619 1.370 . S
C618 C622 1.524 . S
C619 C611 1.503 . S
C619 C618 1.370 . S
C619 C620 1.403 . S
C620 C619 1.403 . S
C620 C621 1.404 . S
C620 C623 1.539 . S
C621 C617 1.408 . S
C621 C620 1.404 . S
C621 H633 0.930 . S
C622 C618 1.524 . S
C622 H634 0.956 . S
C622 H635 0.961 . S
C622 H636 0.961 . S
C623 C620 1.539 . S
C623 H637 0.958 . S
C623 H638 0.961 . S
C623 H639 0.960 . S
H624 C608 0.931 . S
H625 C613 0.929 . S
H626 C614 0.960 . S
H627 C614 0.962 . S
H628 C614 0.960 . S
H629 C615 0.961 . S
H630 C615 0.961 . S
H631 C615 0.961 . S
H632 C616 0.931 . S
H633 C621 0.930 . S
H634 C622 0.956 . S
H635 C622 0.961 . S
H636 C622 0.961 . S
H637 C623 0.958 . S
H638 C623 0.961 . S
H639 C623 0.960 . S
C640 C641 1.391 . S
C640 C642 1.394 . S
C640 H656 0.931 . S
C641 C640 1.391 . S
C641 C645 1.376 . S
C642 C640 1.394 . S
C642 C643 1.369 . S
C642 C646 1.531 . S
C643 C642 1.369 . S
C643 C644 1.410 . S
C643 C651 1.503 . S
C644 C643 1.410 . S
C644 C645 1.392 . S
C644 C647 1.511 . S
C645 C641 1.376 . S
C645 C644 1.392 . S
C645 H657 0.929 . S
C646 C642 1.531 . S
C646 H658 0.960 . S
C646 H659 0.962 . S
C646 H660 0.960 . S
C647 C644 1.511 . S
C647 H661 0.961 . S
C647 H662 0.961 . S
C647 H663 0.961 . S
C648 C649 1.370 . S
C648 C650 1.363 . S
C648 H664 0.931 . S
C649 C648 1.370 . S
C649 C653 1.408 . S
C650 C648 1.363 . S
C650 C651 1.370 . S
C650 C654 1.524 . S
C651 C643 1.503 . S
C651 C650 1.370 . S
C651 C652 1.403 . S
C652 C651 1.403 . S
C652 C653 1.404 . S
C652 C655 1.539 . S
C653 C649 1.408 . S
C653 C652 1.404 . S
C653 H665 0.930 . S
C654 C650 1.524 . S
C654 H666 0.956 . S
C654 H667 0.961 . S
C654 H668 0.961 . S
C655 C652 1.539 . S
C655 H669 0.958 . S
C655 H670 0.961 . S
C655 H671 0.960 . S
H656 C640 0.931 . S
H657 C645 0.929 . S
H658 C646 0.960 . S
H659 C646 0.962 . S
H660 C646 0.960 . S
H661 C647 0.961 . S
H662 C647 0.961 . S
H663 C647 0.961 . S
H664 C648 0.931 . S
H665 C653 0.930 . S
H666 C654 0.956 . S
H667 C654 0.961 . S
H668 C654 0.961 . S
H669 C655 0.958 . S
H670 C655 0.961 . S
H671 C655 0.960 . S
C672 C673 1.391 . S
C672 C674 1.394 . S
C672 H688 0.931 . S
C673 C672 1.391 . S
C673 C677 1.376 . S
C674 C672 1.394 . S
C674 C675 1.369 . S
C674 C678 1.531 . S
C675 C674 1.369 . S
C675 C676 1.410 . S
C675 C683 1.503 . S
C676 C675 1.410 . S
C676 C677 1.392 . S
C676 C679 1.511 . S
C677 C673 1.376 . S
C677 C676 1.392 . S
C677 H689 0.929 . S
C678 C674 1.531 . S
C678 H690 0.960 . S
C678 H691 0.962 . S
C678 H692 0.960 . S
C679 C676 1.511 . S
C679 H693 0.961 . S
C679 H694 0.961 . S
C679 H695 0.961 . S
C680 C681 1.370 1_556 S
C680 C682 1.363 . S
C680 H696 0.931 . S
C681 C680 1.370 1_554 S
C681 C685 1.408 . S
C682 C680 1.363 . S
C682 C683 1.370 . S
C682 C686 1.524 . S
C683 C675 1.503 . S
C683 C682 1.370 . S
C683 C684 1.403 . S
C684 C683 1.403 . S
C684 C685 1.404 1_556 S
C684 C687 1.539 . S
C685 C681 1.408 . S
C685 C684 1.404 1_554 S
C685 H697 0.930 . S
C686 C682 1.524 . S
C686 H698 0.956 . S
C686 H699 0.961 . S
C686 H700 0.961 . S
C687 C684 1.539 . S
C687 H701 0.958 . S
C687 H702 0.961 . S
C687 H703 0.960 . S
H688 C672 0.931 . S
H689 C677 0.929 . S
H690 C678 0.960 . S
H691 C678 0.962 . S
H692 C678 0.960 . S
H693 C679 0.961 . S
H694 C679 0.961 . S
H695 C679 0.961 . S
H696 C680 0.931 . S
H697 C685 0.930 . S
H698 C686 0.956 . S
H699 C686 0.961 . S
H700 C686 0.961 . S
H701 C687 0.958 . S
H702 C687 0.961 . S
H703 C687 0.960 . S
C704 C705 1.391 . S
C704 C706 1.394 . S
C704 H720 0.931 . S
C705 C704 1.391 . S
C705 C709 1.376 . S
C706 C704 1.394 . S
C706 C707 1.369 . S
C706 C710 1.531 . S
C707 C706 1.369 . S
C707 C708 1.410 . S
C707 C715 1.503 . S
C708 C707 1.410 . S
C708 C709 1.392 . S
C708 C711 1.511 . S
C709 C705 1.376 . S
C709 C708 1.392 . S
C709 H721 0.929 . S
C710 C706 1.531 . S
C710 H722 0.960 . S
C710 H723 0.962 . S
C710 H724 0.960 . S
C711 C708 1.511 . S
C711 H725 0.961 . S
C711 H726 0.961 . S
C711 H727 0.961 . S
C712 C713 1.370 . S
C712 C714 1.363 . S
C712 H728 0.931 . S
C713 C712 1.370 . S
C713 C717 1.408 . S
C714 C712 1.363 . S
C714 C715 1.370 . S
C714 C718 1.524 . S
C715 C707 1.503 . S
C715 C714 1.370 . S
C715 C716 1.403 . S
C716 C715 1.403 . S
C716 C717 1.404 . S
C716 C719 1.539 . S
C717 C713 1.408 . S
C717 C716 1.404 . S
C717 H729 0.930 . S
C718 C714 1.524 . S
C718 H730 0.956 . S
C718 H731 0.961 . S
C718 H732 0.961 . S
C719 C716 1.539 . S
C719 H733 0.958 . S
C719 H734 0.961 . S
C719 H735 0.960 . S
H720 C704 0.931 . S
H721 C709 0.929 . S
H722 C710 0.960 . S
H723 C710 0.962 . S
H724 C710 0.960 . S
H725 C711 0.961 . S
H726 C711 0.961 . S
H727 C711 0.961 . S
H728 C712 0.931 . S
H729 C717 0.930 . S
H730 C718 0.956 . S
H731 C718 0.961 . S
H732 C718 0.961 . S
H733 C719 0.958 . S
H734 C719 0.961 . S
H735 C719 0.960 . S
C736 C737 1.391 . S
C736 C738 1.394 . S
C736 H752 0.931 . S
C737 C736 1.391 . S
C737 C741 1.376 . S
C738 C736 1.394 . S
C738 C739 1.369 . S
C738 C742 1.531 . S
C739 C738 1.369 . S
C739 C740 1.410 . S
C739 C747 1.503 . S
C740 C739 1.410 . S
C740 C741 1.392 . S
C740 C743 1.511 . S
C741 C737 1.376 . S
C741 C740 1.392 . S
C741 H753 0.929 . S
C742 C738 1.531 . S
C742 H754 0.960 . S
C742 H755 0.962 . S
C742 H756 0.960 . S
C743 C740 1.511 . S
C743 H757 0.961 . S
C743 H758 0.961 . S
C743 H759 0.961 . S
C744 C745 1.370 . S
C744 C746 1.363 . S
C744 H760 0.931 . S
C745 C744 1.370 . S
C745 C749 1.408 . S
C746 C744 1.363 . S
C746 C747 1.370 . S
C746 C750 1.524 . S
C747 C739 1.503 . S
C747 C746 1.370 . S
C747 C748 1.403 . S
C748 C747 1.403 . S
C748 C749 1.404 . S
C748 C751 1.539 . S
C749 C745 1.408 . S
C749 C748 1.404 . S
C749 H761 0.930 . S
C750 C746 1.524 . S
C750 H762 0.956 . S
C750 H763 0.961 . S
C750 H764 0.961 . S
C751 C748 1.539 . S
C751 H765 0.958 . S
C751 H766 0.961 . S
C751 H767 0.960 . S
H752 C736 0.931 . S
H753 C741 0.929 . S
H754 C742 0.960 . S
H755 C742 0.962 . S
H756 C742 0.960 . S
H757 C743 0.961 . S
H758 C743 0.961 . S
H759 C743 0.961 . S
H760 C744 0.931 . S
H761 C749 0.930 . S
H762 C750 0.956 . S
H763 C750 0.961 . S
H764 C750 0.961 . S
H765 C751 0.958 . S
H766 C751 0.961 . S
H767 C751 0.960 . S
C768 C769 1.391 . S
C768 C770 1.394 . S
C768 H784 0.931 . S
C769 C768 1.391 . S
C769 C773 1.376 . S
C770 C768 1.394 . S
C770 C771 1.369 . S
C770 C774 1.531 . S
C771 C770 1.369 . S
C771 C772 1.410 . S
C771 C779 1.503 . S
C772 C771 1.410 . S
C772 C773 1.392 . S
C772 C775 1.511 . S
C773 C769 1.376 . S
C773 C772 1.392 . S
C773 H785 0.929 . S
C774 C770 1.531 . S
C774 H786 0.960 . S
C774 H787 0.962 . S
C774 H788 0.960 . S
C775 C772 1.511 . S
C775 H789 0.961 . S
C775 H790 0.961 . S
C775 H791 0.961 . S
C776 C777 1.370 . S
C776 C778 1.363 . S
C776 H792 0.931 . S
C777 C776 1.370 . S
C777 C781 1.408 . S
C778 C776 1.363 . S
C778 C779 1.370 . S
C778 C782 1.524 . S
C779 C771 1.503 . S
C779 C778 1.370 . S
C779 C780 1.403 . S
C780 C779 1.403 . S
C780 C781 1.404 . S
C780 C783 1.539 . S
C781 C777 1.408 . S
C781 C780 1.404 . S
C781 H793 0.930 . S
C782 C778 1.524 . S
C782 H794 0.956 . S
C782 H795 0.961 . S
C782 H796 0.961 . S
C783 C780 1.539 . S
C783 H797 0.958 . S
C783 H798 0.961 . S
C783 H799 0.960 . S
H784 C768 0.931 . S
H785 C773 0.929 . S
H786 C774 0.960 . S
H787 C774 0.962 . S
H788 C774 0.960 . S
H789 C775 0.961 . S
H790 C775 0.961 . S
H791 C775 0.961 . S
H792 C776 0.931 . S
H793 C781 0.930 . S
H794 C782 0.956 . S
H795 C782 0.961 . S
H796 C782 0.961 . S
H797 C783 0.958 . S
H798 C783 0.961 . S
H799 C783 0.960 . S
C800 C801 1.391 . S
C800 C802 1.394 . S
C800 H816 0.931 . S
C801 C800 1.391 . S
C801 C805 1.376 . S
C802 C800 1.394 . S
C802 C803 1.369 . S
C802 C806 1.531 . S
C803 C802 1.369 . S
C803 C804 1.410 . S
C803 C811 1.503 . S
C804 C803 1.410 . S
C804 C805 1.392 . S
C804 C807 1.511 . S
C805 C801 1.376 . S
C805 C804 1.392 . S
C805 H817 0.929 . S
C806 C802 1.531 . S
C806 H818 0.960 . S
C806 H819 0.962 . S
C806 H820 0.960 . S
C807 C804 1.511 . S
C807 H821 0.961 . S
C807 H822 0.961 . S
C807 H823 0.961 . S
C808 C809 1.370 . S
C808 C810 1.363 . S
C808 H824 0.931 . S
C809 C808 1.370 . S
C809 C813 1.408 . S
C810 C808 1.363 . S
C810 C811 1.370 . S
C810 C814 1.524 . S
C811 C803 1.503 . S
C811 C810 1.370 . S
C811 C812 1.403 . S
C812 C811 1.403 . S
C812 C813 1.404 . S
C812 C815 1.539 . S
C813 C809 1.408 . S
C813 C812 1.404 . S
C813 H825 0.930 . S
C814 C810 1.524 . S
C814 H826 0.956 . S
C814 H827 0.961 . S
C814 H828 0.961 . S
C815 C812 1.539 . S
C815 H829 0.958 . S
C815 H830 0.961 . S
C815 H831 0.960 . S
H816 C800 0.931 . S
H817 C805 0.929 . S
H818 C806 0.960 . S
H819 C806 0.962 . S
H820 C806 0.960 . S
H821 C807 0.961 . S
H822 C807 0.961 . S
H823 C807 0.961 . S
H824 C808 0.931 . S
H825 C813 0.930 . S
H826 C814 0.956 . S
H827 C814 0.961 . S
H828 C814 0.961 . S
H829 C815 0.958 . S
H830 C815 0.961 . S
H831 C815 0.960 . S
C832 C833 1.391 . S
C832 C834 1.394 . S
C832 H848 0.931 . S
C833 C832 1.391 . S
C833 C837 1.376 . S
C834 C832 1.394 . S
C834 C835 1.369 . S
C834 C838 1.531 . S
C835 C834 1.369 . S
C835 C836 1.410 . S
C835 C843 1.503 . S
C836 C835 1.410 . S
C836 C837 1.392 . S
C836 C839 1.511 . S
C837 C833 1.376 . S
C837 C836 1.392 . S
C837 H849 0.929 . S
C838 C834 1.531 . S
C838 H850 0.960 . S
C838 H851 0.962 . S
C838 H852 0.960 . S
C839 C836 1.511 . S
C839 H853 0.961 . S
C839 H854 0.961 . S
C839 H855 0.961 . S
C840 C841 1.370 . S
C840 C842 1.363 . S
C840 H856 0.931 . S
C841 C840 1.370 . S
C841 C845 1.408 . S
C842 C840 1.363 . S
C842 C843 1.370 . S
C842 C846 1.524 . S
C843 C835 1.503 . S
C843 C842 1.370 . S
C843 C844 1.403 . S
C844 C843 1.403 . S
C844 C845 1.404 . S
C844 C847 1.539 . S
C845 C841 1.408 . S
C845 C844 1.404 . S
C845 H857 0.930 . S
C846 C842 1.524 . S
C846 H858 0.956 . S
C846 H859 0.961 . S
C846 H860 0.961 . S
C847 C844 1.539 . S
C847 H861 0.958 . S
C847 H862 0.961 . S
C847 H863 0.960 . S
H848 C832 0.931 . S
H849 C837 0.929 . S
H850 C838 0.960 . S
H851 C838 0.962 . S
H852 C838 0.960 . S
H853 C839 0.961 . S
H854 C839 0.961 . S
H855 C839 0.961 . S
H856 C840 0.931 . S
H857 C845 0.930 . S
H858 C846 0.956 . S
H859 C846 0.961 . S
H860 C846 0.961 . S
H861 C847 0.958 . S
H862 C847 0.961 . S
H863 C847 0.960 . S
C864 C865 1.391 . S
C864 C866 1.394 . S
C864 H880 0.931 . S
C865 C864 1.391 . S
C865 C869 1.376 . S
C866 C864 1.394 . S
C866 C867 1.369 . S
C866 C870 1.531 . S
C867 C866 1.369 . S
C867 C868 1.410 . S
C867 C875 1.503 . S
C868 C867 1.410 . S
C868 C869 1.392 . S
C868 C871 1.511 . S
C869 C865 1.376 . S
C869 C868 1.392 . S
C869 H881 0.929 . S
C870 C866 1.531 . S
C870 H882 0.960 . S
C870 H883 0.962 . S
C870 H884 0.960 . S
C871 C868 1.511 . S
C871 H885 0.961 . S
C871 H886 0.961 . S
C871 H887 0.961 . S
C872 C873 1.370 . S
C872 C874 1.363 . S
C872 H888 0.931 . S
C873 C872 1.370 . S
C873 C877 1.408 . S
C874 C872 1.363 . S
C874 C875 1.370 . S
C874 C878 1.524 . S
C875 C867 1.503 . S
C875 C874 1.370 . S
C875 C876 1.403 . S
C876 C875 1.403 . S
C876 C877 1.404 . S
C876 C879 1.539 . S
C877 C873 1.408 . S
C877 C876 1.404 . S
C877 H889 0.930 . S
C878 C874 1.524 . S
C878 H890 0.956 . S
C878 H891 0.961 . S
C878 H892 0.961 . S
C879 C876 1.539 . S
C879 H893 0.958 . S
C879 H894 0.961 . S
C879 H895 0.960 . S
H880 C864 0.931 . S
H881 C869 0.929 . S
H882 C870 0.960 . S
H883 C870 0.962 . S
H884 C870 0.960 . S
H885 C871 0.961 . S
H886 C871 0.961 . S
H887 C871 0.961 . S
H888 C872 0.931 . S
H889 C877 0.930 . S
H890 C878 0.956 . S
H891 C878 0.961 . S
H892 C878 0.961 . S
H893 C879 0.958 . S
H894 C879 0.961 . S
H895 C879 0.960 . S
C896 C897 1.391 . S
C896 C898 1.394 . S
C896 H912 0.931 . S
C897 C896 1.391 . S
C897 C901 1.376 . S
C898 C896 1.394 . S
C898 C899 1.369 . S
C898 C902 1.531 . S
C899 C898 1.369 . S
C899 C900 1.410 . S
C899 C907 1.503 . S
C900 C899 1.410 . S
C900 C901 1.392 . S
C900 C903 1.511 . S
C901 C897 1.376 . S
C901 C900 1.392 . S
C901 H913 0.929 . S
C902 C898 1.531 . S
C902 H914 0.960 1_554 S
C902 H915 0.962 1_554 S
C902 H916 0.960 . S
C903 C900 1.511 . S
C903 H917 0.961 . S
C903 H918 0.961 . S
C903 H919 0.961 . S
C904 C905 1.370 . S
C904 C906 1.363 1_556 S
C904 H920 0.931 . S
C905 C904 1.370 . S
C905 C909 1.408 . S
C906 C904 1.363 1_554 S
C906 C907 1.370 . S
C906 C910 1.524 . S
C907 C899 1.503 . S
C907 C906 1.370 . S
C907 C908 1.403 . S
C908 C907 1.403 . S
C908 C909 1.404 1_554 S
C908 C911 1.539 . S
C909 C905 1.408 . S
C909 C908 1.404 1_556 S
C909 H921 0.930 . S
C910 C906 1.524 . S
C910 H922 0.956 . S
C910 H923 0.961 . S
C910 H924 0.961 . S
C911 C908 1.539 . S
C911 H925 0.958 . S
C911 H926 0.961 . S
C911 H927 0.960 . S
H912 C896 0.931 . S
H913 C901 0.929 . S
H914 C902 0.960 1_556 S
H915 C902 0.962 1_556 S
H916 C902 0.960 . S
H917 C903 0.961 . S
H918 C903 0.961 . S
H919 C903 0.961 . S
H920 C904 0.931 . S
H921 C909 0.930 . S
H922 C910 0.956 . S
H923 C910 0.961 . S
H924 C910 0.961 . S
H925 C911 0.958 . S
H926 C911 0.961 . S
H927 C911 0.960 . S
C928 C929 1.391 . S
C928 C930 1.394 . S
C928 H944 0.931 . S
C929 C928 1.391 . S
C929 C933 1.376 . S
C930 C928 1.394 . S
C930 C931 1.369 . S
C930 C934 1.531 . S
C931 C930 1.369 . S
C931 C932 1.410 . S
C931 C939 1.503 . S
C932 C931 1.410 . S
C932 C933 1.392 . S
C932 C935 1.511 . S
C933 C929 1.376 . S
C933 C932 1.392 . S
C933 H945 0.929 . S
C934 C930 1.531 . S
C934 H946 0.960 . S
C934 H947 0.962 . S
C934 H948 0.960 . S
C935 C932 1.511 . S
C935 H949 0.961 . S
C935 H950 0.961 . S
C935 H951 0.961 . S
C936 C937 1.370 . S
C936 C938 1.363 . S
C936 H952 0.931 . S
C937 C936 1.370 . S
C937 C941 1.408 . S
C938 C936 1.363 . S
C938 C939 1.370 . S
C938 C942 1.524 . S
C939 C931 1.503 . S
C939 C938 1.370 . S
C939 C940 1.403 . S
C940 C939 1.403 . S
C940 C941 1.404 . S
C940 C943 1.539 . S
C941 C937 1.408 . S
C941 C940 1.404 . S
C941 H953 0.930 . S
C942 C938 1.524 . S
C942 H954 0.956 . S
C942 H955 0.961 . S
C942 H956 0.961 . S
C943 C940 1.539 . S
C943 H957 0.958 . S
C943 H958 0.961 . S
C943 H959 0.960 . S
H944 C928 0.931 . S
H945 C933 0.929 . S
H946 C934 0.960 . S
H947 C934 0.962 . S
H948 C934 0.960 . S
H949 C935 0.961 . S
H950 C935 0.961 . S
H951 C935 0.961 . S
H952 C936 0.931 . S
H953 C941 0.930 . S
H954 C942 0.956 . S
H955 C942 0.961 . S
H956 C942 0.961 . S
H957 C943 0.958 . S
H958 C943 0.961 . S
H959 C943 0.960 . S
C201 C178 1.583 . S
C193 C8 1.513 . S
C225 C26 1.506 . S
C233 C119 1.584 . S
C257 C50 1.495 . S
C265 C122 1.579 . S
C289 C68 1.531 . S
C297 C136 1.584 . S
C329 C161 1.578 . S
C321 C80 1.540 . S
C353 C104 1.538 . S
C361 C164 1.569 . S
C385 C32 1.537 . S
C393 C133 1.563 . S
C417 C44 1.530 . S
C425 C147 1.568 . S
C449 C62 1.520 . S
C457 C150 1.552 . S
C489 C175 1.556 . S
C481 C86 1.515 1_554 S
C521 C189 1.572 . S
C513 C98 1.502 . S
C553 C108 1.561 . S
C545 C14 1.539 . S
C577 C7 1.434 . S
C585 C131 1.502 . S
C609 C25 1.428 . S
C617 C145 1.511 . S
C649 C155 1.510 . S
C641 C52 1.464 . S
C673 C70 1.467 . S
C681 C173 1.503 . S
C713 C187 1.513 . S
C705 C79 1.484 . S
C745 C113 1.511 . S
C737 C106 1.479 . S
C777 C183 1.533 . S
C769 C34 1.507 . S
C801 C43 1.462 . S
C809 C117 1.516 . S
C841 C127 1.527 . S
C833 C61 1.444 . S
C865 C88 1.455 . S
C873 C141 1.537 . S
C897 C97 1.461 . S
C905 C159 1.521 . S
C929 C16 1.497 . S
C937 C169 1.524 . S
