# Generated by pormake.
# Topology tsx, (6,3)-cn, num edge types: 1
# Building blocks:
#     Node 0, Type 0, BuildingBlock: JUFBIX_clean_sbu_0, # of connection points: 6
#     Node 1, Type 0, BuildingBlock: JUFBIX_clean_sbu_0, # of connection points: 6
#     Node 2, Type 1, BuildingBlock: QEWDON_clean_linker_0, # of connection points: 3
#     Node 3, Type 1, BuildingBlock: QEWDON_clean_linker_0, # of connection points: 3
#     Node 4, Type 1, BuildingBlock: QEWDON_clean_linker_0, # of connection points: 3
#     Node 5, Type 1, BuildingBlock: QEWDON_clean_linker_0, # of connection points: 3
#     Edge 6, Type (0, 1), BuildingBlock: EZIPEK_clean_linker_0, # of connection points: 2
#     Edge 7, Type (0, 1), BuildingBlock: EZIPEK_clean_linker_0, # of connection points: 2
#     Edge 8, Type (0, 1), BuildingBlock: EZIPEK_clean_linker_0, # of connection points: 2
#     Edge 9, Type (0, 1), BuildingBlock: EZIPEK_clean_linker_0, # of connection points: 2
#     Edge 10, Type (0, 1), BuildingBlock: EZIPEK_clean_linker_0, # of connection points: 2
#     Edge 11, Type (0, 1), BuildingBlock: EZIPEK_clean_linker_0, # of connection points: 2
#     Edge 12, Type (0, 1), BuildingBlock: EZIPEK_clean_linker_0, # of connection points: 2
#     Edge 13, Type (0, 1), BuildingBlock: EZIPEK_clean_linker_0, # of connection points: 2
#     Edge 14, Type (0, 1), BuildingBlock: EZIPEK_clean_linker_0, # of connection points: 2
#     Edge 15, Type (0, 1), BuildingBlock: EZIPEK_clean_linker_0, # of connection points: 2
#     Edge 16, Type (0, 1), BuildingBlock: EZIPEK_clean_linker_0, # of connection points: 2
#     Edge 17, Type (0, 1), BuildingBlock: EZIPEK_clean_linker_0, # of connection points: 2
# Relax obj value: 0.109
# Max RMSD: 0.166
# Mean RMSD: 0.145
data_MOF--net-tsx--node1-JUFBIX_clean_sbu_0--node2-QEWDON_clean_linker_0--edge1-EZIPEK_clean_linker_0
_symmetry_space_group_name_H-M    P1
_symmetry_Int_Tables_number       1
_symmetry_cell_setting            triclinic
loop_
_symmetry_equiv_pos_as_xyz
'x, y, z'
_cell_length_a     14.692338
_cell_length_b     18.721079
_cell_length_c     20.480497
_cell_angle_alpha  90.454896
_cell_angle_beta   107.18505
_cell_angle_gamma 102.20887
loop_
_atom_site_label
_atom_site_type_symbol
_atom_site_fract_x
_atom_site_fract_y
_atom_site_fract_z
_atom_type_partial_charge
Co0 Co 0.19668 0.97258 1.03928 0.0
C1 C 1.0998 1.01653 0.90916 0.0
Co2 Co 1.06407 1.01735 1.03423 0.0
C3 C 0.34832 0.87874 0.07549 0.0
C4 C 0.39507 0.98216 1.03899 0.0
N5 N 0.31399 0.93701 1.04533 0.0
N6 N 0.44784 0.8878 0.09038 0.0
C7 C 0.47551 0.95414 0.06808 0.0
H8 H 0.30197 0.83264 0.08995 0.0
H9 H 0.39798 0.03557 1.01922 0.0
C10 C 0.16311 0.97726 0.16658 0.0
N11 N 0.95731 0.05644 1.03958 0.0
C12 C 0.95096 0.12772 1.04297 0.0
C13 C 0.88495 1.02063 1.06325 0.0
N14 N 0.87957 0.13754 0.06934 0.0
C15 C 0.83801 0.07002 0.08209 0.0
C16 C 1.01551 0.86847 0.99764 0.0
O17 O 0.2205 0.96003 0.13632 0.0
O18 O 1.08955 0.9999 0.13026 0.0
O19 O 0.98411 0.92403 1.00872 0.0
O20 O 0.10845 0.8735 1.01306 0.0
O21 O 1.04146 0.03258 0.93963 0.0
H22 H 0.87275 0.96307 0.07203 0.0
H23 H 1.00266 0.17265 1.03186 0.0
O24 O 0.17158 0.98944 0.94307 0.0
O25 O 0.27485 0.07209 1.06017 0.0
O26 O 0.14341 0.11136 1.0552 0.0
C27 C 0.23298 0.12513 1.0595 0.0
H28 H 0.55022 0.98279 0.07483 0.0
H29 H 0.78135 0.05784 0.10684 0.0
Co30 Co 0.68988 0.48927 0.58702 0.0
C31 C 0.57778 0.51386 0.45609 0.0
Co32 Co 0.57197 0.54303 0.58893 0.0
C33 C 0.83145 0.39284 0.63361 0.0
C34 C 0.87175 0.4728 0.56733 0.0
N35 N 0.79767 0.44481 0.59238 0.0
N36 N 0.92424 0.38941 0.63626 0.0
C37 C 0.94818 0.43934 0.59364 0.0
H38 H 0.78921 0.35859 0.66157 0.0
H39 H 0.87165 0.51602 0.53298 0.0
C40 C 0.68786 0.52268 0.72027 0.0
N41 N 0.47295 0.58628 0.59741 0.0
C42 C 0.45729 0.65361 0.58276 0.0
C43 C 0.42194 0.56432 0.64181 0.0
N44 N 0.3992 0.67344 0.61646 0.0
C45 C 0.37635 0.61753 0.65333 0.0
C46 C 0.50542 0.39263 0.57088 0.0
O47 O 0.72473 0.48667 0.6861 0.0
O48 O 0.62087 0.55334 0.68766 0.0
O49 O 0.49241 0.45311 0.58933 0.0
O50 O 0.59254 0.39171 0.57018 0.0
O51 O 0.52487 0.53291 0.48983 0.0
H52 H 0.42783 0.5172 0.67132 0.0
H53 H 0.49466 0.69011 0.55342 0.0
O54 O 0.65601 0.49446 0.48966 0.0
O55 O 0.77636 0.58833 0.59517 0.0
O56 O 0.64749 0.63351 0.58369 0.0
C57 C 0.73535 0.64303 0.58418 0.0
H58 H 1.01552 0.44886 0.58018 0.0
H59 H 0.33661 0.61803 0.69016 0.0
H60 H 0.24043 0.10388 0.47499 0.0
C61 C 0.26443 0.06205 0.50523 0.0
C62 C 0.26979 0.99721 0.46978 0.0
C63 C 0.29412 0.07341 0.57888 0.0
H64 H 0.34579 0.90881 0.48982 0.0
C65 C 0.32195 0.95153 0.51139 0.0
C66 C 0.3384 0.95536 0.58223 0.0
C67 C 0.32649 1.01639 0.61622 0.0
C68 C 0.30002 0.14469 0.61871 0.0
H69 H 0.34321 1.01958 0.67151 0.0
C70 C 0.2216 0.16017 0.64001 0.0
C71 C 0.22717 0.22879 0.67488 0.0
C72 C 0.39002 0.19515 0.64239 0.0
H73 H 0.45322 0.18479 0.63025 0.0
C74 C 0.40033 0.25881 0.68298 0.0
H75 H 0.15713 0.1186 0.62834 0.0
C76 C 0.31995 0.27605 0.69807 0.0
H77 H 0.32948 0.32843 0.725 0.0
H78 H 0.4708 0.29672 0.70064 0.0
H79 H 1.01336 0.1334 0.58072 0.0
C80 C 0.98343 0.07733 0.56433 0.0
C81 C 0.97796 0.02656 0.61412 0.0
C82 C 0.95697 0.05557 0.49385 0.0
H83 H 0.927 0.91502 0.63017 0.0
C84 C 0.93259 0.95429 0.59193 0.0
C85 C 0.89248 0.93091 0.52251 0.0
C86 C 0.90626 0.98126 0.47254 0.0
C87 C 0.98902 0.11027 0.44567 0.0
H88 H 0.87949 0.96278 0.41865 0.0
C89 C 1.08754 0.15105 0.46202 0.0
C90 C 0.12238 0.20328 0.41927 0.0
C91 C 0.92394 0.12203 0.38334 0.0
H92 H 0.84829 0.09239 0.36824 0.0
C93 C 0.95628 0.17224 0.33977 0.0
H94 H 0.13618 0.14387 0.51038 0.0
C95 C 1.05382 0.21232 0.35749 0.0
H96 H 1.07531 0.25182 0.32358 0.0
H97 H 0.90499 0.18062 0.29183 0.0
H98 H 0.80143 0.61854 1.05705 0.0
C99 C 0.80307 0.56453 0.07018 0.0
C100 C 0.79754 0.51207 1.01855 0.0
C101 C 0.80733 0.54723 0.13784 0.0
H102 H 0.80449 0.40143 0.9981 0.0
C103 C 0.80816 0.44233 1.03722 0.0
C104 C 0.82177 0.42384 0.10507 0.0
C105 C 0.8207 0.47603 0.15548 0.0
C106 C 0.7995 0.60412 0.1889 0.0
H107 H 0.82883 0.46073 0.20737 0.0
C108 C 0.72751 0.64735 0.17178 0.0
C109 C 0.72636 0.70646 0.21657 0.0
C110 C 0.86776 0.61855 0.25438 0.0
H111 H 0.92435 0.58782 0.27001 0.0
C112 C 0.86689 0.67505 0.29945 0.0
H113 H 0.67589 0.6371 0.12168 0.0
C114 C 0.79738 0.71838 0.28106 0.0
H115 H 0.8007 0.76265 0.31668 0.0
H116 H 0.92293 0.68677 0.3485 0.0
H117 H 0.52587 0.62704 0.13391 0.0
C118 C 0.5005 0.57112 0.11258 0.0
C119 C 0.49073 0.51409 0.15673 0.0
C120 C 0.48031 0.55551 1.04089 0.0
H121 H 0.4452 0.399 0.1619 0.0
C122 C 0.45322 0.44271 0.12803 0.0
C123 C 0.41661 0.42656 1.05716 0.0
C124 C 0.43211 0.48286 1.01308 0.0
C125 C 0.50681 0.61554 0.9959 0.0
H126 H 0.40557 0.47065 0.95808 0.0
C127 C 0.59981 0.63205 0.98469 0.0
C128 C 0.63201 0.6951 0.95141 0.0
C129 C 0.44217 0.66048 0.96815 0.0
H130 H 0.37069 0.65019 0.97562 0.0
C131 C 0.4697 0.71989 0.93141 0.0
H132 H 0.64774 0.59718 1.00489 0.0
C133 C 0.56361 0.73757 0.92382 0.0
H134 H 0.58422 0.78654 0.89892 0.0
H135 H 0.41893 0.75431 0.91076 0.0
C136 C 0.3343 0.22094 1.0058 0.0
C137 C 0.2809 0.20237 1.05361 0.0
C138 C 0.27771 0.33135 0.06661 0.0
C139 C 0.35229 0.35158 1.03523 0.0
N140 N 0.45445 0.31311 0.97552 0.0
N141 N 0.22207 0.24624 0.14115 0.0
C142 C 0.38106 0.29562 1.00434 0.0
C143 C 0.25733 0.25935 0.08681 0.0
N144 N 0.33682 0.16892 0.9597 0.0
N145 N 0.23131 0.38247 0.08119 0.0
H146 H 0.21315 0.19516 0.16123 0.0
H147 H 0.2151 0.28856 0.17141 0.0
H148 H 0.24596 0.43613 0.06691 0.0
H149 H 0.1724 0.36904 0.10078 0.0
H150 H 0.36724 0.18155 0.9201 0.0
H151 H 0.29878 0.11475 0.9557 0.0
H152 H 0.48343 0.27421 0.9566 0.0
H153 H 0.49038 0.36693 0.97519 0.0
C154 C 0.60593 0.84662 0.11149 0.0
C155 C 0.51601 0.84249 0.1262 0.0
C156 C 0.57046 0.75503 0.21292 0.0
C157 C 0.65761 0.75966 0.19452 0.0
N158 N 0.77656 0.85649 0.17015 0.0
N159 N 0.43867 0.81512 0.21478 0.0
C160 C 0.68191 0.82048 0.15802 0.0
C161 C 0.50461 0.80245 0.18377 0.0
N162 N 0.61896 0.87175 1.05194 0.0
N163 N 0.55425 0.70948 0.26153 0.0
H164 H 0.40157 0.85697 0.20153 0.0
H165 H 0.43085 0.79207 0.25938 0.0
H166 H 0.60462 0.67935 0.2868 0.0
H167 H 0.49096 0.70144 0.27582 0.0
H168 H 0.68417 0.87353 1.04058 0.0
H169 H 0.56134 0.88079 1.01119 0.0
H170 H 0.83342 0.84181 0.20792 0.0
H171 H 0.7951 0.90454 0.14702 0.0
C172 C 0.91231 0.76278 1.02798 0.0
C173 C 0.93973 0.79847 0.97513 0.0
C174 C 0.77214 0.74408 0.8983 0.0
C175 C 0.73999 0.72499 0.9563 0.0
N176 N 0.78374 0.74474 0.07785 0.0
N177 N 0.8942 0.82349 0.85629 0.0
C178 C 0.81168 0.74202 1.02133 0.0
C179 C 0.86935 0.78831 0.9086 0.0
N180 N 0.98191 0.75617 0.08736 0.0
N181 N 0.71071 0.7206 0.83417 0.0
H182 H 0.96502 0.85381 0.8628 0.0
H183 H 0.84417 0.82479 0.80837 0.0
H184 H 0.64087 0.68774 0.82607 0.0
H185 H 0.73257 0.728 0.79028 0.0
H186 H 0.96528 0.72623 0.12671 0.0
H187 H 1.0564 0.77384 0.09313 0.0
H188 H 0.71065 0.73954 0.07374 0.0
H189 H 0.83432 0.75771 0.12633 0.0
C190 C 0.76706 0.22126 0.06659 0.0
C191 C 0.86183 0.20653 0.09008 0.0
C192 C 0.92738 0.33255 0.14343 0.0
C193 C 0.83299 0.34733 0.11861 0.0
N194 N 0.65969 0.29928 0.07906 0.0
N195 N 1.022 0.23962 0.17205 0.0
C196 C 0.75166 0.28908 0.08809 0.0
C197 C 0.93905 0.25969 0.13513 0.0
N198 N 0.69324 0.17297 1.02005 0.0
N199 N 1.00637 0.38847 0.17236 0.0
H200 H 1.03008 0.18589 0.1694 0.0
H201 H 1.07704 0.274 0.21047 0.0
H202 H 0.99976 0.44178 0.18134 0.0
H203 H 1.07827 0.38252 0.18438 0.0
H204 H 0.62508 0.18421 0.99639 0.0
H205 H 0.70296 0.12464 1.00029 0.0
H206 H 0.59809 0.25623 1.06479 0.0
H207 H 0.64719 0.34897 0.09386 0.0
C208 C 0.74665 0.77817 0.57885 0.0
C209 C 0.77951 0.71599 0.5629 0.0
C210 C 0.87163 0.79457 0.49645 0.0
C211 C 0.83202 0.85403 0.50958 0.0
N212 N 0.70259 0.89142 0.5402 0.0
N213 N 0.84628 0.66227 0.4846 0.0
C214 C 0.75694 0.84055 0.54091 0.0
C215 C 0.83459 0.72305 0.51527 0.0
N216 N 0.71177 0.78016 0.63347 0.0
N217 N 0.94466 0.8064 0.46675 0.0
H218 H 0.80919 0.60982 0.48938 0.0
H219 H 0.88229 0.66444 0.44772 0.0
H220 H 0.96962 0.85735 0.45026 0.0
H221 H 0.98255 0.76666 0.46139 0.0
H222 H 0.69626 0.82753 0.65043 0.0
H223 H 0.71135 0.7384 0.66686 0.0
H224 H 0.64352 0.88263 0.55984 0.0
H225 H 0.7117 0.9387 0.51387 0.0
C226 C 0.97938 0.2845 0.60597 0.0
C227 C 0.97707 0.33168 0.65803 0.0
C228 C 0.12393 0.29313 0.73242 0.0
C229 C 0.13644 0.259 0.67385 0.0
N230 N 1.09348 0.26342 0.55265 0.0
N231 N 1.05115 0.38387 0.77387 0.0
C232 C 1.06809 0.26522 0.61017 0.0
C233 C 1.05022 0.33644 0.72286 0.0
N234 N 0.90151 0.26642 0.54809 0.0
N235 N 0.18215 0.28508 0.79615 0.0
H236 H 0.99695 0.41374 0.76744 0.0
H237 H 0.10698 0.39541 0.82031 0.0
H238 H 0.23415 0.25315 0.80362 0.0
H239 H 0.17302 0.30471 0.841 0.0
H240 H 0.90013 0.22981 0.50887 0.0
H241 H 0.83623 0.28271 0.54316 0.0
H242 H 0.16316 0.25838 0.55562 0.0
H243 H 1.04903 0.2749 0.50575 0.0
C244 C 0.40618 0.27236 0.49208 0.0
C245 C 0.41116 0.33527 0.53423 0.0
C246 C 0.23555 0.32544 0.47502 0.0
C247 C 0.22463 0.25536 0.44429 0.0
N248 N 0.30804 0.18278 0.39635 0.0
N249 N 0.3111 0.39311 0.58352 0.0
C250 C 0.31286 0.23426 0.44522 0.0
C251 C 0.32043 0.35429 0.5302 0.0
N252 N 0.48781 0.2454 0.50025 0.0
N253 N 0.16304 0.36296 0.45561 0.0
H254 H 0.36429 0.40141 0.6312 0.0
H255 H 0.24488 0.40481 0.58395 0.0
H256 H 1.09891 0.34357 0.41566 0.0
H257 H 0.17168 0.41617 0.4759 0.0
H258 H 0.48774 0.19663 0.47552 0.0
H259 H 0.55348 0.26688 0.53807 0.0
H260 H 0.36848 0.16789 0.38839 0.0
H261 H 0.24202 0.16053 0.35929 0.0
C262 C 0.45794 0.8037 0.65765 0.0
C263 C 0.38058 0.74467 0.62268 0.0
C264 C 0.26902 0.82673 0.59562 0.0
C265 C 0.35064 0.88712 0.6156 0.0
N266 N 0.52307 0.93495 0.66801 0.0
N267 N 0.21189 0.69763 0.55886 0.0
C268 C 0.44523 0.87636 0.64882 0.0
C269 C 0.2852 0.75519 0.59328 0.0
N270 N 0.54224 0.78971 0.6999 0.0
N271 N 0.1765 0.83844 0.57604 0.0
H272 H 0.22225 0.64446 0.55551 0.0
H273 H 0.14291 0.70336 0.52966 0.0
H274 H 0.16259 0.89078 0.57239 0.0
H275 H 0.11461 0.7966 0.56953 0.0
H276 H 0.59788 0.83011 0.732 0.0
H277 H 0.55212 0.73644 0.7072 0.0
H278 H 0.59538 0.92974 0.68513 0.0
H279 H 0.51478 0.98889 0.66381 0.0
C280 C 0.15089 1.02407 0.28058 0.0
C281 C 0.18284 0.97454 0.24381 0.0
C282 C 0.23683 0.9173 0.35384 0.0
C283 C 0.22727 0.97918 0.39074 0.0
N284 N 1.0844 0.02489 0.37359 0.0
N285 N 0.24297 0.86304 0.24765 0.0
C286 C 0.15856 1.01547 0.35056 0.0
C287 C 0.22346 0.91842 0.28119 0.0
N288 N 0.1146 0.081 0.25059 0.0
N289 N 0.23185 0.85156 0.3825 0.0
H290 H 0.21978 0.85349 0.19456 0.0
H291 H 0.28337 0.8267 0.27344 0.0
H292 H 0.20988 0.8433 0.42642 0.0
H293 H 0.23032 0.80274 0.35706 0.0
H294 H 1.08855 0.11598 0.27668 0.0
H295 H 0.12251 0.09924 0.20442 0.0
H296 H 1.02171 0.03706 0.34026 0.0
H297 H 1.07924 1.00654 0.42066 0.0
C298 C 0.10757 0.98211 0.79033 0.0
C299 C 1.08307 0.02911 0.83429 0.0
C300 C 1.00044 0.08744 0.7324 0.0
C301 C 1.02926 0.04232 0.68993 0.0
N302 N 0.14411 0.97007 0.68387 0.0
N303 N 1.03902 0.14516 0.84653 0.0
C304 C 1.09547 0.99844 0.72127 0.0
C305 C 1.0396 0.08775 0.80523 0.0
N306 N 0.13423 0.9184 0.81145 0.0
N307 N 0.93352 0.12782 0.70397 0.0
H308 H 1.07531 0.15132 0.89904 0.0
H309 H 1.01381 0.19114 0.82739 0.0
H310 H 0.90373 0.12892 0.65117 0.0
H311 H 0.903 0.15606 0.73299 0.0
H312 H 0.14421 0.88032 0.77826 0.0
H313 H 0.13369 0.89812 0.85846 0.0
H314 H 0.19842 0.94171 0.70536 0.0
H315 H 0.13723 0.98265 0.63338 0.0
C316 C 0.80853 0.56643 0.83858 0.0
C317 C 0.71645 0.52445 0.79707 0.0
C318 C 0.67218 0.49152 0.90138 0.0
C319 C 0.76823 0.52498 0.94309 0.0
N320 N 0.93001 0.59318 0.95157 0.0
N321 N 0.56445 0.44006 0.78937 0.0
C322 C 0.83694 0.56269 0.9117 0.0
C323 C 0.64911 0.48566 0.82867 0.0
N324 N 0.86741 0.61154 0.8082 0.0
N325 N 0.60127 0.46703 0.9314 0.0
H326 H 0.54442 0.43397 0.73603 0.0
H327 H 0.51809 0.40338 0.80979 0.0
H328 H 0.61522 0.46857 0.98443 0.0
H329 H 0.52736 0.45336 0.90357 0.0
H330 H 0.93035 0.64958 0.83539 0.0
H331 H 0.84902 0.61499 0.75523 0.0
H332 H 0.98689 0.61496 0.93196 0.0
H333 H 0.95159 0.59334 1.0049 0.0
C334 C 0.59448 0.47429 0.34182 0.0
C335 C 0.55108 0.51498 0.37855 0.0
C336 C 0.45764 0.55017 0.26647 0.0
C337 C 0.51819 0.52398 0.23371 0.0
N338 N 0.65533 0.46848 0.24507 0.0
N339 N 0.45228 0.60593 0.37167 0.0
C340 C 0.59134 0.48972 0.27347 0.0
C341 C 0.48509 0.55679 0.33985 0.0
N342 N 0.6303 0.41572 0.36894 0.0
N343 N 0.37404 0.56879 0.22804 0.0
H344 H 0.48124 0.62295 0.42347 0.0
H345 H 0.40565 0.63797 0.34502 0.0
H346 H 0.35319 0.56667 0.17463 0.0
H347 H 0.32227 0.58094 0.24928 0.0
H348 H 0.65644 0.38175 0.34171 0.0
H349 H 0.61909 0.39365 0.41322 0.0
H350 H 0.71516 0.44899 0.27393 0.0
H351 H 0.65298 0.47643 0.19434 0.0
loop_
_geom_bond_atom_site_label_1
_geom_bond_atom_site_label_2
_geom_bond_distance
_geom_bond_site_symmetry_2
_ccdc_geom_bond_type
Co0 N5 2.057 . S
Co0 O17 2.021 . S
Co0 O20 2.062 1_455 S
Co0 O24 2.117 1_554 S
Co0 O25 2.020 1_565 S
C1 O21 1.259 1_455 S
C1 O24 1.258 1_545 S
Co2 N11 2.057 1_556 S
Co2 O18 2.117 1_656 S
Co2 O19 2.020 1_545 S
Co2 O21 2.021 . S
Co2 O26 2.062 1_656 S
C3 N5 1.316 . S
C3 N6 1.347 . S
C3 H8 0.931 . S
C4 N5 1.375 1_556 S
C4 C7 1.350 . S
C4 H9 0.930 . S
N5 Co0 2.057 . S
N5 C3 1.316 . S
N5 C4 1.375 1_554 S
N6 C3 1.347 . S
N6 C7 1.373 1_554 S
C7 C4 1.350 . S
C7 N6 1.373 1_556 S
C7 H28 0.931 . S
H8 C3 0.931 . S
H9 C4 0.930 . S
C10 O17 1.259 1_545 S
C10 O18 1.258 . S
N11 Co2 2.057 1_554 S
N11 C12 1.316 1_554 S
N11 C13 1.375 . S
C12 N11 1.316 1_556 S
C12 N14 1.347 . S
C12 H23 0.931 . S
C13 N11 1.375 . S
C13 C15 1.350 . S
C13 H22 0.930 . S
N14 C12 1.347 . S
N14 C15 1.373 1_556 S
C15 C13 1.350 . S
C15 N14 1.373 1_554 S
C15 H29 0.931 . S
C16 O19 1.256 . S
C16 O20 1.255 1_556 S
O17 Co0 2.021 . S
O17 C10 1.259 1_565 S
O18 Co2 2.117 1_454 S
O18 C10 1.258 . S
O19 Co2 2.020 1_565 S
O19 C16 1.256 . S
O20 Co0 2.062 1_655 S
O20 C16 1.255 1_554 S
O21 C1 1.259 1_655 S
O21 Co2 2.021 . S
H22 C13 0.930 . S
H23 C12 0.931 . S
O24 Co0 2.117 1_556 S
O24 C1 1.258 1_565 S
O25 Co0 2.020 1_545 S
O25 C27 1.256 . S
O26 Co2 2.062 1_454 S
O26 C27 1.255 . S
C27 O25 1.256 . S
C27 O26 1.255 . S
H28 C7 0.931 . S
H29 C15 0.931 . S
Co30 N35 2.057 . S
Co30 O47 2.021 . S
Co30 O50 2.062 . S
Co30 O54 2.117 . S
Co30 O55 2.020 . S
C31 O51 1.259 . S
C31 O54 1.258 . S
Co32 N41 2.057 . S
Co32 O48 2.117 . S
Co32 O49 2.020 . S
Co32 O51 2.021 . S
Co32 O56 2.062 . S
C33 N35 1.316 . S
C33 N36 1.347 . S
C33 H38 0.931 . S
C34 N35 1.375 . S
C34 C37 1.350 . S
C34 H39 0.930 . S
N35 Co30 2.057 . S
N35 C33 1.316 . S
N35 C34 1.375 . S
N36 C33 1.347 . S
N36 C37 1.373 . S
C37 C34 1.350 . S
C37 N36 1.373 . S
C37 H58 0.931 . S
H38 C33 0.931 . S
H39 C34 0.930 . S
C40 O47 1.259 . S
C40 O48 1.258 . S
N41 Co32 2.057 . S
N41 C42 1.316 . S
N41 C43 1.375 . S
C42 N41 1.316 . S
C42 N44 1.347 . S
C42 H53 0.931 . S
C43 N41 1.375 . S
C43 C45 1.350 . S
C43 H52 0.930 . S
N44 C42 1.347 . S
N44 C45 1.373 . S
C45 C43 1.350 . S
C45 N44 1.373 . S
C45 H59 0.931 . S
C46 O49 1.256 . S
C46 O50 1.255 . S
O47 Co30 2.021 . S
O47 C40 1.259 . S
O48 Co32 2.117 . S
O48 C40 1.258 . S
O49 Co32 2.020 . S
O49 C46 1.256 . S
O50 Co30 2.062 . S
O50 C46 1.255 . S
O51 C31 1.259 . S
O51 Co32 2.021 . S
H52 C43 0.930 . S
H53 C42 0.931 . S
O54 Co30 2.117 . S
O54 C31 1.258 . S
O55 Co30 2.020 . S
O55 C57 1.256 . S
O56 Co32 2.062 . S
O56 C57 1.255 . S
C57 O55 1.256 . S
C57 O56 1.255 . S
H58 C37 0.931 . S
H59 C45 0.931 . S
H60 C61 0.949 . S
C61 H60 0.949 . S
C61 C62 1.395 1_545 S
C61 C63 1.391 . S
C62 C61 1.395 1_565 S
C62 C65 1.390 . S
C63 C61 1.391 . S
C63 C67 1.387 1_545 S
C63 C68 1.491 . S
H64 C65 0.950 . S
C65 C62 1.390 . S
C65 H64 0.950 . S
C65 C66 1.378 . S
C66 C65 1.378 . S
C66 C67 1.409 . S
C67 C63 1.387 1_565 S
C67 C66 1.409 . S
C67 H69 0.951 . S
C68 C63 1.491 . S
C68 C70 1.382 1_455 S
C68 C72 1.404 . S
H69 C67 0.951 . S
C70 C68 1.382 1_655 S
C70 C71 1.390 . S
C70 H75 0.949 . S
C71 C70 1.390 . S
C71 C76 1.399 1_655 S
C72 C68 1.404 . S
C72 H73 0.950 . S
C72 C74 1.375 . S
H73 C72 0.950 . S
C74 C72 1.375 . S
C74 C76 1.382 . S
C74 H78 0.950 . S
H75 C70 0.949 . S
C76 C71 1.399 1_455 S
C76 C74 1.382 . S
C76 H77 0.952 . S
H77 C76 0.952 . S
H78 C74 0.950 . S
H79 C80 0.949 . S
C80 H79 0.949 . S
C80 C81 1.395 1_445 S
C80 C82 1.391 1_455 S
C81 C80 1.395 1_665 S
C81 C84 1.390 . S
C82 C80 1.391 1_655 S
C82 C86 1.387 1_545 S
C82 C87 1.491 1_655 S
H83 C84 0.950 . S
C84 C81 1.390 . S
C84 H83 0.950 . S
C84 C85 1.378 . S
C85 C84 1.378 . S
C85 C86 1.409 . S
C86 C82 1.387 1_565 S
C86 C85 1.409 . S
C86 H88 0.951 . S
C87 C82 1.491 1_455 S
C87 C89 1.382 . S
C87 C91 1.404 1_455 S
H88 C86 0.951 . S
C89 C87 1.382 . S
C89 C90 1.390 . S
C89 H94 0.949 . S
C90 C89 1.390 . S
C90 C95 1.399 . S
C91 C87 1.404 1_655 S
C91 H92 0.950 . S
C91 C93 1.375 . S
H92 C91 0.950 . S
C93 C91 1.375 . S
C93 C95 1.382 1_655 S
C93 H97 0.950 . S
H94 C89 0.949 . S
C95 C90 1.399 . S
C95 C93 1.382 1_455 S
C95 H96 0.952 . S
H96 C95 0.952 . S
H97 C93 0.950 . S
H98 C99 0.949 . S
C99 H98 0.949 . S
C99 C100 1.395 . S
C99 C101 1.391 . S
C100 C99 1.395 . S
C100 C103 1.390 . S
C101 C99 1.391 . S
C101 C105 1.387 1_556 S
C101 C106 1.491 1_556 S
H102 C103 0.950 . S
C103 C100 1.390 . S
C103 H102 0.950 . S
C103 C104 1.378 . S
C104 C103 1.378 . S
C104 C105 1.409 1_556 S
C105 C101 1.387 1_554 S
C105 C104 1.409 1_554 S
C105 H107 0.951 . S
C106 C101 1.491 1_554 S
C106 C108 1.382 . S
C106 C110 1.404 . S
H107 C105 0.951 . S
C108 C106 1.382 . S
C108 C109 1.398 . S
C108 H113 0.939 1_554 S
C109 C108 1.398 . S
C109 C114 1.399 . S
C110 C106 1.404 . S
C110 H111 0.950 . S
C110 C112 1.375 . S
H111 C110 0.950 . S
C112 C110 1.375 . S
C112 C114 1.382 . S
C112 H116 0.950 . S
H113 C108 0.939 1_556 S
C114 C109 1.399 . S
C114 C112 1.382 . S
C114 H115 0.952 . S
H115 C114 0.952 . S
H116 C112 0.950 . S
H117 C118 0.949 . S
C118 H117 0.949 . S
C118 C119 1.395 . S
C118 C120 1.391 . S
C119 C118 1.395 . S
C119 C122 1.390 . S
C120 C118 1.391 . S
C120 C124 1.389 . S
C120 C125 1.491 1_554 S
H121 C122 0.950 . S
C122 C119 1.390 . S
C122 H121 0.950 . S
C122 C123 1.378 . S
C123 C122 1.378 . S
C123 C124 1.414 . S
C124 C120 1.389 . S
C124 C123 1.414 . S
C124 H126 0.944 1_554 S
C125 C120 1.491 1_556 S
C125 C127 1.382 1_556 S
C125 C129 1.404 . S
H126 C124 0.944 1_556 S
C127 C125 1.382 1_554 S
C127 C128 1.390 1_554 S
C127 H132 0.949 . S
C128 C127 1.390 1_556 S
C128 C133 1.399 . S
C129 C125 1.404 . S
C129 H130 0.950 . S
C129 C131 1.375 . S
H130 C129 0.950 . S
C131 C129 1.375 . S
C131 C133 1.382 . S
C131 H135 0.950 . S
H132 C127 0.949 . S
C133 C128 1.399 . S
C133 C131 1.382 . S
C133 H134 0.952 . S
H134 C133 0.952 . S
H135 C131 0.950 . S
C136 C137 1.363 1_556 S
C136 C142 1.379 . S
C136 N144 1.356 . S
C137 C136 1.363 1_554 S
C137 C143 1.363 . S
C138 C139 1.363 . S
C138 C143 1.379 . S
C138 N145 1.356 . S
C139 C138 1.363 . S
C139 C142 1.363 1_554 S
N140 C142 1.356 . S
N140 H152 0.984 . S
N140 H153 0.985 . S
N141 C143 1.356 . S
N141 H146 0.984 . S
N141 H147 0.985 . S
C142 C136 1.379 . S
C142 C139 1.363 1_556 S
C142 N140 1.356 . S
C143 C137 1.363 . S
C143 C138 1.379 . S
C143 N141 1.356 . S
N144 C136 1.356 . S
N144 H150 0.984 . S
N144 H151 0.984 . S
N145 C138 1.356 . S
N145 H148 0.984 . S
N145 H149 0.985 . S
H146 N141 0.984 . S
H147 N141 0.985 . S
H148 N145 0.984 . S
H149 N145 0.985 . S
H150 N144 0.984 . S
H151 N144 0.984 . S
H152 N140 0.984 . S
H153 N140 0.985 . S
C154 C155 1.363 1_556 S
C154 C160 1.379 . S
C154 N162 1.356 . S
C155 C154 1.363 1_554 S
C155 C161 1.363 . S
C156 C157 1.363 . S
C156 C161 1.379 . S
C156 N163 1.356 . S
C157 C156 1.363 . S
C157 C160 1.363 1_554 S
N158 C160 1.356 . S
N158 H170 0.984 . S
N158 H171 0.985 . S
N159 C161 1.356 . S
N159 H164 0.984 . S
N159 H165 0.985 . S
C160 C154 1.379 . S
C160 C157 1.363 1_556 S
C160 N158 1.356 . S
C161 C155 1.363 . S
C161 C156 1.379 . S
C161 N159 1.356 . S
N162 C154 1.356 . S
N162 H168 0.984 . S
N162 H169 0.984 . S
N163 C156 1.356 . S
N163 H166 0.984 . S
N163 H167 0.985 . S
H164 N159 0.984 . S
H165 N159 0.985 . S
H166 N163 0.984 . S
H167 N163 0.985 . S
H168 N162 0.984 . S
H169 N162 0.984 . S
H170 N158 0.984 . S
H171 N158 0.985 . S
C172 C173 1.363 1_554 S
C172 C178 1.379 . S
C172 N180 1.356 . S
C173 C172 1.363 1_556 S
C173 C179 1.363 . S
C174 C175 1.363 . S
C174 C179 1.379 . S
C174 N181 1.356 . S
C175 C174 1.363 . S
C175 C178 1.363 1_556 S
N176 C178 1.356 . S
N176 H188 0.984 . S
N176 H189 0.985 . S
N177 C179 1.356 . S
N177 H182 0.984 . S
N177 H183 0.985 . S
C178 C172 1.379 . S
C178 C175 1.363 1_554 S
C178 N176 1.356 . S
C179 C173 1.363 . S
C179 C174 1.379 . S
C179 N177 1.356 . S
N180 C172 1.356 . S
N180 H186 0.984 . S
N180 H187 0.984 . S
N181 C174 1.356 . S
N181 H184 0.984 . S
N181 H185 0.985 . S
H182 N177 0.984 . S
H183 N177 0.985 . S
H184 N181 0.984 . S
H185 N181 0.985 . S
H186 N180 0.984 . S
H187 N180 0.984 . S
H188 N176 0.984 . S
H189 N176 0.985 . S
C190 C191 1.363 1_554 S
C190 C196 1.379 . S
C190 N198 1.356 . S
C191 C190 1.363 1_556 S
C191 C197 1.363 . S
C192 C193 1.363 . S
C192 C197 1.379 . S
C192 N199 1.356 . S
C193 C192 1.363 . S
C193 C196 1.363 1_556 S
N194 C196 1.356 . S
N194 H206 0.984 . S
N194 H207 0.985 . S
N195 C197 1.356 . S
N195 H200 0.984 . S
N195 H201 0.985 . S
C196 C190 1.379 . S
C196 C193 1.363 1_554 S
C196 N194 1.356 . S
C197 C191 1.363 . S
C197 C192 1.379 . S
C197 N195 1.356 . S
N198 C190 1.356 . S
N198 H204 0.984 . S
N198 H205 0.984 . S
N199 C192 1.356 . S
N199 H202 0.984 . S
N199 H203 0.985 . S
H200 N195 0.984 . S
H201 N195 0.985 . S
H202 N199 0.984 . S
H203 N199 0.985 . S
H204 N198 0.984 . S
H205 N198 0.984 . S
H206 N194 0.984 . S
H207 N194 0.985 . S
C208 C209 1.363 . S
C208 C214 1.379 . S
C208 N216 1.356 . S
C209 C208 1.363 . S
C209 C215 1.363 . S
C210 C211 1.363 . S
C210 C215 1.379 . S
C210 N217 1.356 . S
C211 C210 1.363 . S
C211 C214 1.363 . S
N212 C214 1.356 . S
N212 H224 0.984 . S
N212 H225 0.985 . S
N213 C215 1.356 . S
N213 H218 0.984 . S
N213 H219 0.985 . S
C214 C208 1.379 . S
C214 C211 1.363 . S
C214 N212 1.356 . S
C215 C209 1.363 . S
C215 C210 1.379 . S
C215 N213 1.356 . S
N216 C208 1.356 . S
N216 H222 0.984 . S
N216 H223 0.984 . S
N217 C210 1.356 . S
N217 H220 0.984 . S
N217 H221 0.985 . S
H218 N213 0.984 . S
H219 N213 0.985 . S
H220 N217 0.984 . S
H221 N217 0.985 . S
H222 N216 0.984 . S
H223 N216 0.984 . S
H224 N212 0.984 . S
H225 N212 0.985 . S
C226 C227 1.363 . S
C226 C232 1.379 . S
C226 N234 1.356 . S
C227 C226 1.363 . S
C227 C233 1.363 . S
C228 C229 1.363 . S
C228 C233 1.379 . S
C228 N235 1.356 . S
C229 C228 1.363 . S
C229 C232 1.363 . S
N230 C232 1.356 . S
N230 H242 0.984 . S
N230 H243 0.985 . S
N231 C233 1.356 . S
N231 H236 0.984 . S
N231 H237 0.985 . S
C232 C226 1.379 . S
C232 C229 1.363 . S
C232 N230 1.356 . S
C233 C227 1.363 . S
C233 C228 1.379 . S
C233 N231 1.356 . S
N234 C226 1.356 . S
N234 H240 0.984 . S
N234 H241 0.984 . S
N235 C228 1.356 . S
N235 H238 0.984 1_655 S
N235 H239 0.985 1_655 S
H236 N231 0.984 . S
H237 N231 0.985 . S
H238 N235 0.984 1_455 S
H239 N235 0.985 1_455 S
H240 N234 0.984 . S
H241 N234 0.984 . S
H242 N230 0.984 . S
H243 N230 0.985 . S
C244 C245 1.363 . S
C244 C250 1.379 . S
C244 N252 1.356 . S
C245 C244 1.363 . S
C245 C251 1.363 . S
C246 C247 1.363 . S
C246 C251 1.379 . S
C246 N253 1.356 . S
C247 C246 1.363 . S
C247 C250 1.363 . S
N248 C250 1.356 . S
N248 H260 0.984 . S
N248 H261 0.985 . S
N249 C251 1.356 . S
N249 H254 0.984 . S
N249 H255 0.985 . S
C250 C244 1.379 . S
C250 C247 1.363 . S
C250 N248 1.356 . S
C251 C245 1.363 . S
C251 C246 1.379 . S
C251 N249 1.356 . S
N252 C244 1.356 . S
N252 H258 0.984 . S
N252 H259 0.984 . S
N253 C246 1.356 . S
N253 H256 0.984 . S
N253 H257 0.985 . S
H254 N249 0.984 . S
H255 N249 0.985 . S
H256 N253 0.984 . S
H257 N253 0.985 . S
H258 N252 0.984 . S
H259 N252 0.984 . S
H260 N248 0.984 . S
H261 N248 0.985 . S
C262 C263 1.363 . S
C262 C268 1.379 . S
C262 N270 1.356 . S
C263 C262 1.363 . S
C263 C269 1.363 . S
C264 C265 1.363 . S
C264 C269 1.379 . S
C264 N271 1.356 . S
C265 C264 1.363 . S
C265 C268 1.363 . S
N266 C268 1.356 . S
N266 H278 0.984 . S
N266 H279 0.985 . S
N267 C269 1.356 . S
N267 H272 0.984 . S
N267 H273 0.985 . S
C268 C262 1.379 . S
C268 C265 1.363 . S
C268 N266 1.356 . S
C269 C263 1.363 . S
C269 C264 1.379 . S
C269 N267 1.356 . S
N270 C262 1.356 . S
N270 H276 0.984 . S
N270 H277 0.984 . S
N271 C264 1.356 . S
N271 H274 0.984 . S
N271 H275 0.985 . S
H272 N267 0.984 . S
H273 N267 0.985 . S
H274 N271 0.984 . S
H275 N271 0.985 . S
H276 N270 0.984 . S
H277 N270 0.984 . S
H278 N266 0.984 . S
H279 N266 0.985 . S
C280 C281 1.363 . S
C280 C286 1.379 . S
C280 N288 1.356 . S
C281 C280 1.363 . S
C281 C287 1.363 1_545 S
C282 C283 1.363 . S
C282 C287 1.379 . S
C282 N289 1.356 . S
C283 C282 1.363 . S
C283 C286 1.363 1_565 S
N284 C286 1.356 . S
N284 H296 0.984 . S
N284 H297 0.985 . S
N285 C287 1.356 . S
N285 H290 0.984 . S
N285 H291 0.985 . S
C286 C280 1.379 . S
C286 C283 1.363 1_545 S
C286 N284 1.356 . S
C287 C281 1.363 1_565 S
C287 C282 1.379 . S
C287 N285 1.356 . S
N288 C280 1.356 . S
N288 H294 0.984 . S
N288 H295 0.984 . S
N289 C282 1.356 . S
N289 H292 0.984 . S
N289 H293 0.985 . S
H290 N285 0.984 . S
H291 N285 0.985 . S
H292 N289 0.984 . S
H293 N289 0.985 . S
H294 N288 0.984 . S
H295 N288 0.984 . S
H296 N284 0.984 . S
H297 N284 0.985 . S
C298 C299 1.367 1_565 S
C298 C304 1.379 . S
C298 N306 1.356 . S
C299 C298 1.367 1_545 S
C299 C305 1.360 1_455 S
C300 C301 1.363 1_545 S
C300 C305 1.379 . S
C300 N307 1.356 . S
C301 C300 1.363 1_565 S
C301 C304 1.363 1_655 S
N302 C304 1.356 . S
N302 H314 0.984 . S
N302 H315 0.985 . S
N303 C305 1.356 . S
N303 H308 0.984 . S
N303 H309 0.985 . S
C304 C298 1.379 . S
C304 C301 1.363 1_455 S
C304 N302 1.356 . S
C305 C299 1.360 1_655 S
C305 C300 1.379 . S
C305 N303 1.356 . S
N306 C298 1.356 . S
N306 H312 0.984 . S
N306 H313 0.984 . S
N307 C300 1.356 . S
N307 H310 0.984 . S
N307 H311 0.985 . S
H308 N303 0.984 . S
H309 N303 0.985 . S
H310 N307 0.984 . S
H311 N307 0.985 . S
H312 N306 0.984 . S
H313 N306 0.984 . S
H314 N302 0.984 . S
H315 N302 0.985 . S
C316 C317 1.363 . S
C316 C322 1.379 . S
C316 N324 1.356 . S
C317 C316 1.363 . S
C317 C323 1.363 . S
C318 C319 1.363 . S
C318 C323 1.379 . S
C318 N325 1.356 . S
C319 C318 1.363 . S
C319 C322 1.363 . S
N320 C322 1.356 . S
N320 H332 0.984 . S
N320 H333 0.985 . S
N321 C323 1.356 . S
N321 H326 0.984 . S
N321 H327 0.985 . S
C322 C316 1.379 . S
C322 C319 1.363 . S
C322 N320 1.356 . S
C323 C317 1.363 . S
C323 C318 1.379 . S
C323 N321 1.356 . S
N324 C316 1.356 . S
N324 H330 0.984 . S
N324 H331 0.984 . S
N325 C318 1.356 . S
N325 H328 0.984 . S
N325 H329 0.985 . S
H326 N321 0.984 . S
H327 N321 0.985 . S
H328 N325 0.984 . S
H329 N325 0.985 . S
H330 N324 0.984 . S
H331 N324 0.984 . S
H332 N320 0.984 . S
H333 N320 0.985 . S
C334 C335 1.363 . S
C334 C340 1.379 . S
C334 N342 1.356 . S
C335 C334 1.363 . S
C335 C341 1.363 . S
C336 C337 1.363 . S
C336 C341 1.379 . S
C336 N343 1.356 . S
C337 C336 1.363 . S
C337 C340 1.363 . S
N338 C340 1.356 . S
N338 H350 0.984 . S
N338 H351 0.985 . S
N339 C341 1.356 . S
N339 H344 0.984 . S
N339 H345 0.985 . S
C340 C334 1.379 . S
C340 C337 1.363 . S
C340 N338 1.356 . S
C341 C335 1.363 . S
C341 C336 1.379 . S
C341 N339 1.356 . S
N342 C334 1.356 . S
N342 H348 0.984 . S
N342 H349 0.984 . S
N343 C336 1.356 . S
N343 H346 0.984 . S
N343 H347 0.985 . S
H344 N339 0.984 . S
H345 N339 0.985 . S
H346 N343 0.984 . S
H347 N343 0.985 . S
H348 N342 0.984 . S
H349 N342 0.984 . S
H350 N338 0.984 . S
H351 N338 0.985 . S
C139 C123 1.518 . S
C137 C27 1.546 . S
C155 N6 1.434 . S
C157 C109 1.451 . S
C173 C16 1.505 . S
C175 C128 1.477 . S
C191 N14 1.495 . S
C193 C104 1.503 . S
C209 C57 1.546 . S
C211 C85 1.517 . S
C227 N36 1.435 . S
C229 C71 1.451 . S
C247 C90 1.477 . S
C245 C46 1.505 . S
C265 C66 1.503 . S
C263 N44 1.495 . S
C281 C10 1.530 . S
C283 C62 1.528 . S
C299 C1 1.569 . S
C301 C81 1.565 . S
C319 C100 1.528 . S
C317 C40 1.530 . S
C335 C31 1.571 . S
C337 C119 1.565 . S
