# Generated by pormake.
# Topology eea, (3,6)-cn, num edge types: 1
# Building blocks:
#     Node 0, Type 0, BuildingBlock: PAMTOO_clean_linker_0, # of connection points: 3
#     Node 1, Type 0, BuildingBlock: PAMTOO_clean_linker_0, # of connection points: 3
#     Node 2, Type 0, BuildingBlock: PAMTOO_clean_linker_0, # of connection points: 3
#     Node 3, Type 0, BuildingBlock: PAMTOO_clean_linker_0, # of connection points: 3
#     Node 4, Type 0, BuildingBlock: PAMTOO_clean_linker_0, # of connection points: 3
#     Node 5, Type 0, BuildingBlock: PAMTOO_clean_linker_0, # of connection points: 3
#     Node 6, Type 0, BuildingBlock: PAMTOO_clean_linker_0, # of connection points: 3
#     Node 7, Type 0, BuildingBlock: PAMTOO_clean_linker_0, # of connection points: 3
#     Node 8, Type 0, BuildingBlock: PAMTOO_clean_linker_0, # of connection points: 3
#     Node 9, Type 0, BuildingBlock: PAMTOO_clean_linker_0, # of connection points: 3
#     Node 10, Type 0, BuildingBlock: PAMTOO_clean_linker_0, # of connection points: 3
#     Node 11, Type 0, BuildingBlock: PAMTOO_clean_linker_0, # of connection points: 3
#     Node 12, Type 0, BuildingBlock: PAMTOO_clean_linker_0, # of connection points: 3
#     Node 13, Type 0, BuildingBlock: PAMTOO_clean_linker_0, # of connection points: 3
#     Node 14, Type 0, BuildingBlock: PAMTOO_clean_linker_0, # of connection points: 3
#     Node 15, Type 0, BuildingBlock: PAMTOO_clean_linker_0, # of connection points: 3
#     Node 16, Type 0, BuildingBlock: PAMTOO_clean_linker_0, # of connection points: 3
#     Node 17, Type 0, BuildingBlock: PAMTOO_clean_linker_0, # of connection points: 3
#     Node 18, Type 1, BuildingBlock: CUKXOW_clean_sbu_0, # of connection points: 6
#     Node 19, Type 1, BuildingBlock: CUKXOW_clean_sbu_0, # of connection points: 6
#     Node 20, Type 1, BuildingBlock: CUKXOW_clean_sbu_0, # of connection points: 6
#     Node 21, Type 1, BuildingBlock: CUKXOW_clean_sbu_0, # of connection points: 6
#     Node 22, Type 1, BuildingBlock: CUKXOW_clean_sbu_0, # of connection points: 6
#     Node 23, Type 1, BuildingBlock: CUKXOW_clean_sbu_0, # of connection points: 6
#     Node 24, Type 1, BuildingBlock: CUKXOW_clean_sbu_0, # of connection points: 6
#     Node 25, Type 1, BuildingBlock: CUKXOW_clean_sbu_0, # of connection points: 6
#     Node 26, Type 1, BuildingBlock: CUKXOW_clean_sbu_0, # of connection points: 6
#     Edge 27, Type (0, 1), None
#     Edge 28, Type (0, 1), None
#     Edge 29, Type (0, 1), None
#     Edge 30, Type (0, 1), None
#     Edge 31, Type (0, 1), None
#     Edge 32, Type (0, 1), None
#     Edge 33, Type (0, 1), None
#     Edge 34, Type (0, 1), None
#     Edge 35, Type (0, 1), None
#     Edge 36, Type (0, 1), None
#     Edge 37, Type (0, 1), None
#     Edge 38, Type (0, 1), None
#     Edge 39, Type (0, 1), None
#     Edge 40, Type (0, 1), None
#     Edge 41, Type (0, 1), None
#     Edge 42, Type (0, 1), None
#     Edge 43, Type (0, 1), None
#     Edge 44, Type (0, 1), None
#     Edge 45, Type (0, 1), None
#     Edge 46, Type (0, 1), None
#     Edge 47, Type (0, 1), None
#     Edge 48, Type (0, 1), None
#     Edge 49, Type (0, 1), None
#     Edge 50, Type (0, 1), None
#     Edge 51, Type (0, 1), None
#     Edge 52, Type (0, 1), None
#     Edge 53, Type (0, 1), None
#     Edge 54, Type (0, 1), None
#     Edge 55, Type (0, 1), None
#     Edge 56, Type (0, 1), None
#     Edge 57, Type (0, 1), None
#     Edge 58, Type (0, 1), None
#     Edge 59, Type (0, 1), None
#     Edge 60, Type (0, 1), None
#     Edge 61, Type (0, 1), None
#     Edge 62, Type (0, 1), None
#     Edge 63, Type (0, 1), None
#     Edge 64, Type (0, 1), None
#     Edge 65, Type (0, 1), None
#     Edge 66, Type (0, 1), None
#     Edge 67, Type (0, 1), None
#     Edge 68, Type (0, 1), None
#     Edge 69, Type (0, 1), None
#     Edge 70, Type (0, 1), None
#     Edge 71, Type (0, 1), None
#     Edge 72, Type (0, 1), None
#     Edge 73, Type (0, 1), None
#     Edge 74, Type (0, 1), None
#     Edge 75, Type (0, 1), None
#     Edge 76, Type (0, 1), None
#     Edge 77, Type (0, 1), None
#     Edge 78, Type (0, 1), None
#     Edge 79, Type (0, 1), None
#     Edge 80, Type (0, 1), None
# Relax obj value: 0.036
# Max RMSD: 0.180
# Mean RMSD: 0.082
data_MOF--net-eea--node1-CUKXOW_clean_sbu_0--node2-PAMTOO_clean_linker_0--edge1-none
_symmetry_space_group_name_H-M    P1
_symmetry_Int_Tables_number       1
_symmetry_cell_setting            triclinic
loop_
_symmetry_equiv_pos_as_xyz
'x, y, z'
_cell_length_a     28.521387
_cell_length_b     24.649055
_cell_length_c     19.041588
_cell_angle_alpha  93.095064
_cell_angle_beta   91.676951
_cell_angle_gamma 119.3506
loop_
_atom_site_label
_atom_site_type_symbol
_atom_site_fract_x
_atom_site_fract_y
_atom_site_fract_z
_atom_type_partial_charge
H0 H 0.31607 0.05875 0.47443 0.0
H1 H 0.28521 0.20932 0.52851 0.0
H2 H 0.18149 0.06284 0.3716 0.0
H3 H 0.17953 0.16753 0.33215 0.0
C4 C 0.20903 0.20183 0.37349 0.0
O5 O 0.20354 0.17163 0.43441 0.0
H6 H 0.25032 0.21944 0.35471 0.0
C7 C 0.29325 0.08251 0.46491 0.0
C8 C 0.24823 0.0549 0.41622 0.0
C9 C 0.30616 0.13707 0.50676 0.0
C10 C 0.27553 0.1669 0.49675 0.0
C11 C 0.23141 0.1411 0.44657 0.0
C12 C 0.21663 0.0838 0.40837 0.0
H13 H 0.96127 0.26393 0.50481 0.0
H14 H 0.81572 0.08587 0.49185 0.0
H15 H 0.94124 0.11515 0.35539 0.0
H16 H 0.83047 0.01923 0.28747 0.0
C17 C 0.80953 0.01574 0.33671 0.0
O18 O 0.84665 0.0354 0.39317 0.0
H19 H 0.78905 0.04431 0.3352 0.0
C20 C 0.93683 0.21715 0.48005 0.0
C21 C 0.95748 0.19461 0.42668 0.0
C22 C 0.8854 0.17827 0.50339 0.0
C23 C 0.85444 0.11737 0.47227 0.0
C24 C 0.87474 0.09534 0.41883 0.0
C25 C 0.92583 0.13374 0.39582 0.0
H26 H 0.76741 0.68269 0.47691 0.0
H27 H 0.925 0.71076 0.53369 0.0
H28 H 0.90046 0.79639 0.35534 0.0
H29 H 0.96515 0.74515 0.32526 0.0
C30 C 0.98637 0.75006 0.37717 0.0
O31 O 0.97058 0.77887 0.42759 0.0
H32 H 0.97677 0.70295 0.39243 0.0
C33 C 0.80968 0.70233 0.46679 0.0
C34 C 0.82962 0.74003 0.41068 0.0
C35 C 0.84365 0.69338 0.51328 0.0
C36 C 0.89824 0.71861 0.49968 0.0
C37 C 0.91827 0.75455 0.44147 0.0
C38 C 0.88415 0.76625 0.39792 0.0
H39 H 0.0946 0.34215 0.55459 0.0
H40 H 0.22561 0.30143 0.57217 0.0
H41 H 0.10009 0.2263 0.71342 0.0
H42 H 0.19724 0.24101 0.78375 0.0
C43 C 0.22114 0.25548 0.73647 0.0
O44 O 0.18749 0.23128 0.67635 0.0
H45 H 0.24492 0.30734 0.73778 0.0
C46 C 0.11416 0.3194 0.57952 0.0
C47 C 0.09129 0.28357 0.63769 0.0
C48 C 0.16342 0.32677 0.55546 0.0
C49 C 0.18832 0.29749 0.58971 0.0
C50 C 0.16492 0.26155 0.64593 0.0
C51 C 0.11727 0.25508 0.66992 0.0
H52 H 0.73788 0.75497 0.55887 0.0
H53 H 0.78017 0.94804 0.55069 0.0
H54 H 0.86979 0.89871 0.69328 0.0
H55 H 0.87032 0.0149 0.7556 0.0
C56 C 0.84547 0.01488 0.70958 0.0
O57 O 0.85741 0.99053 0.65003 0.0
H58 H 0.80223 0.98591 0.7206 0.0
C59 C 0.76247 0.80354 0.57823 0.0
C60 C 0.80467 0.8209 0.63052 0.0
C61 C 0.75403 0.84946 0.54826 0.0
C62 C 0.78642 0.91232 0.57292 0.0
C63 C 0.82736 0.92978 0.62582 0.0
C64 C 0.83726 0.88441 0.65326 0.0
H65 H 0.28958 0.96149 0.58517 0.0
H66 H 0.12156 0.83016 0.54023 0.0
H67 H 0.17036 0.97575 0.70622 0.0
H68 H 0.0821 0.87248 0.74852 0.0
C69 C 0.06682 0.84145 0.69898 0.0
O70 O 0.08806 0.87642 0.64225 0.0
H71 H 0.07911 0.80503 0.70036 0.0
C72 C 0.24817 0.94235 0.59935 0.0
C73 C 0.23535 0.97386 0.65247 0.0
C74 C 0.20758 0.89171 0.55732 0.0
C75 C 0.15346 0.86892 0.57254 0.0
C76 C 0.14023 0.89807 0.62781 0.0
C77 C 0.1811 0.95143 0.66634 0.0
H78 H 0.98316 0.3925 0.80758 0.0
H79 H 0.95204 0.54288 0.86157 0.0
H80 H 0.84826 0.39607 0.70504 0.0
H81 H 0.84595 0.50056 0.66543 0.0
C82 C 0.87557 0.53495 0.70661 0.0
O83 O 0.87024 0.5049 0.76761 0.0
H84 H 0.91679 0.55249 0.68763 0.0
C85 C 0.96027 0.41617 0.79806 0.0
C86 C 0.91516 0.38838 0.74952 0.0
C87 C 0.97316 0.47078 0.83981 0.0
C88 C 0.94241 0.50047 0.82984 0.0
C89 C 0.89822 0.4745 0.77977 0.0
C90 C 0.88347 0.41716 0.74169 0.0
H91 H 0.62786 0.59723 0.83794 0.0
H92 H 0.4823 0.41918 0.82505 0.0
H93 H 0.60784 0.44835 0.68866 0.0
H94 H 0.49705 0.35236 0.62078 0.0
C95 C 0.47612 0.34893 0.67002 0.0
O96 O 0.51325 0.36863 0.72648 0.0
H97 H 0.45565 0.3775 0.66844 0.0
C98 C 0.60342 0.55044 0.8132 0.0
C99 C 0.62408 0.52787 0.75986 0.0
C100 C 0.55197 0.51158 0.83654 0.0
C101 C 0.52102 0.45067 0.80546 0.0
C102 C 0.54133 0.42859 0.75208 0.0
C103 C 0.59242 0.46697 0.72905 0.0
H104 H 0.43408 0.01619 0.8108 0.0
H105 H 0.59183 0.04455 0.86719 0.0
H106 H 0.5668 0.12955 0.68857 0.0
H107 H 0.63209 0.07903 0.65896 0.0
C108 C 0.65323 0.08384 0.71091 0.0
O109 O 0.63714 0.11258 0.76101 0.0
H110 H 0.6441 0.0372 0.72733 0.0
C111 C 0.47631 0.0358 0.80051 0.0
C112 C 0.4961 0.07329 0.74419 0.0
C113 C 0.51042 0.02703 0.84696 0.0
C114 C 0.56497 0.05226 0.83319 0.0
C115 C 0.58483 0.08804 0.77485 0.0
C116 C 0.5506 0.09951 0.73127 0.0
H117 H 0.7612 0.67503 0.88771 0.0
H118 H 0.8923 0.6345 0.9056 0.0
H119 H 0.76688 0.55971 0.04708 0.0
H120 H 0.86514 0.57605 0.11751 0.0
C121 C 0.88864 0.59002 0.06985 0.0
O122 O 0.85444 0.56488 1.01029 0.0
H123 H 0.91214 0.64189 0.07113 0.0
C124 C 0.78078 0.65234 0.91273 0.0
C125 C 0.75794 0.61664 0.97098 0.0
C126 C 0.83005 0.6597 0.88872 0.0
C127 C 0.85498 0.63051 0.92308 0.0
C128 C 0.83167 0.59477 0.97948 0.0
C129 C 0.784 0.58831 1.00342 0.0
H130 H 0.40425 0.08829 0.89265 0.0
H131 H 0.44653 0.28134 0.884 0.0
H132 H 0.53599 0.23223 0.02709 0.0
H133 H 0.53749 0.34883 0.08834 0.0
C134 C 0.51182 0.34833 0.04303 0.0
O135 O 0.5237 0.32395 0.98348 0.0
H136 H 0.46869 0.3193 0.0545 0.0
C137 C 0.42878 0.13687 0.91198 0.0
C138 C 0.47092 0.15432 0.96439 0.0
C139 C 0.42038 0.18275 0.88181 0.0
C140 C 0.45275 0.24564 0.90639 0.0
C141 C 0.49363 0.26318 0.95938 0.0
C142 C 0.50348 0.21786 0.98702 0.0
H143 H 0.95619 0.29494 0.9184 0.0
H144 H 0.78819 0.16316 0.87399 0.0
H145 H 0.83691 0.31015 0.03825 0.0
H146 H 0.74863 0.21158 0.0813 0.0
C147 C 0.7337 0.17819 0.03362 0.0
O148 O 0.75459 0.21039 0.97494 0.0
H149 H 0.74684 0.14288 0.03977 0.0
C150 C 0.91477 0.27587 0.93252 0.0
C151 C 0.90192 0.30771 0.98521 0.0
C152 C 0.8742 0.22497 0.89079 0.0
C153 C 0.82008 0.20214 0.90606 0.0
C154 C 0.80679 0.23174 0.9608 0.0
C155 C 0.84766 0.28547 0.99883 0.0
H156 H 0.64956 0.72553 0.14107 0.0
H157 H 0.61867 0.87607 0.19521 0.0
H158 H 0.5153 0.72997 0.03773 0.0
H159 H 0.51654 0.83678 0.99684 0.0
C160 C 0.54415 0.87011 0.04032 0.0
O161 O 0.53738 0.83876 0.10058 0.0
H162 H 0.58617 0.88881 0.02379 0.0
C163 C 0.62677 0.74933 0.13151 0.0
C164 C 0.58185 0.72182 0.08267 0.0
C165 C 0.63963 0.80384 0.17343 0.0
C166 C 0.60901 0.83367 0.16342 0.0
C167 C 0.56503 0.80802 0.11303 0.0
C168 C 0.55033 0.75081 0.07468 0.0
H169 H 0.29488 0.93046 0.17158 0.0
H170 H 0.14927 0.75246 0.15822 0.0
H171 H 0.27516 0.78164 0.02246 0.0
H172 H 0.16445 0.68572 0.95407 0.0
C173 C 0.14341 0.68237 1.00319 0.0
O174 O 0.18039 0.70195 0.05981 0.0
H175 H 0.12307 0.71108 1.00142 0.0
C176 C 0.27049 0.88367 0.14683 0.0
C177 C 0.29128 0.86111 0.09365 0.0
C178 C 0.21898 0.84482 0.16998 0.0
C179 C 0.18806 0.78393 0.1388 0.0
C180 C 0.20848 0.76188 0.08554 0.0
C181 C 0.25966 0.80024 0.06275 0.0
H182 H 0.10039 0.34894 0.14343 0.0
H183 H 0.25816 0.37764 0.20047 0.0
H184 H 0.23337 0.46276 1.02183 0.0
H185 H 0.29872 0.41247 0.99229 0.0
C186 C 0.31985 0.41726 0.04423 0.0
O187 O 0.30364 0.44579 0.09442 0.0
H188 H 0.31081 0.37061 0.06053 0.0
C189 C 0.14266 0.36864 0.13332 0.0
C190 C 0.16255 0.40628 0.07713 0.0
C191 C 0.17672 0.3599 0.17991 0.0
C192 C 0.23132 0.38527 0.16635 0.0
C193 C 0.25128 0.42114 0.10809 0.0
C194 C 0.2171 0.43262 0.06442 0.0
H195 H 0.42815 1.00912 0.22154 0.0
H196 H 0.55904 0.96819 0.23907 0.0
H197 H 0.43347 0.8931 0.38028 0.0
H198 H 0.53065 0.9076 0.45059 0.0
C199 C 0.55453 0.92211 0.40329 0.0
O200 O 0.52084 0.89797 0.34319 0.0
H201 H 0.57831 0.97397 0.40467 0.0
C202 C 0.44767 0.98632 0.24646 0.0
C203 C 0.42476 0.95046 0.30459 0.0
C204 C 0.49692 0.99363 0.2224 0.0
C205 C 0.52176 0.96428 0.25662 0.0
C206 C 0.49833 0.92833 0.31282 0.0
C207 C 0.45069 0.92191 0.3368 0.0
H208 H 0.07118 0.42176 0.22546 0.0
H209 H 0.11349 0.61486 0.21744 0.0
H210 H 0.20315 0.56544 0.35984 0.0
H211 H 0.2041 0.68181 0.42216 0.0
C212 C 0.17907 0.6817 0.3763 0.0
O213 O 0.19083 0.6573 0.31664 0.0
H214 H 0.13589 0.65272 0.38758 0.0
C215 C 0.09577 0.47032 0.24484 0.0
C216 C 0.13798 0.48765 0.29712 0.0
C217 C 0.08732 0.51626 0.21494 0.0
C218 C 0.11973 0.57911 0.23964 0.0
C219 C 0.16071 0.59655 0.29247 0.0
C220 C 0.1706 0.55116 0.31985 0.0
H221 H 0.62303 0.62823 0.25175 0.0
H222 H 0.45499 0.49694 0.20694 0.0
H223 H 0.50389 0.64251 0.37297 0.0
H224 H 0.41546 0.53916 0.41518 0.0
C225 C 0.40019 0.5082 0.36559 0.0
O226 O 0.42152 0.54325 0.30894 0.0
H227 H 0.41244 0.47174 0.36694 0.0
C228 C 0.58163 0.6091 0.26597 0.0
C229 C 0.56885 0.64061 0.31914 0.0
C230 C 0.54101 0.55848 0.22396 0.0
C231 C 0.48691 0.53569 0.23923 0.0
C232 C 0.4737 0.56484 0.29453 0.0
C233 C 0.5146 0.61818 0.33307 0.0
Tb234 Tb 0.5685 0.06605 0.04112 0.0
C235 C 0.5325 0.92324 0.0497 0.0
Tb236 Tb 0.44656 0.96938 0.03379 0.0
O237 O 0.57456 0.04966 0.15193 0.0
O238 O 0.503 0.03865 0.1083 0.0
O239 O 0.57069 0.97879 0.03303 0.0
C240 C 0.34665 0.89937 0.07256 0.0
O241 O 0.48236 0.91092 0.06064 0.0
C242 C 0.48689 0.99431 0.91035 0.0
C243 C 0.48327 0.10739 0.9928 0.0
O244 O 0.36919 0.88263 0.02402 0.0
O245 O 0.38071 0.95483 0.10004 0.0
O246 O 0.4357 0.96963 0.92042 0.0
O247 O 0.51125 0.99581 0.9675 0.0
O248 O 0.4427 0.05318 1.00928 0.0
O249 O 0.5347 0.12135 0.99863 0.0
C250 C 0.67339 0.14496 0.02838 0.0
O251 O 0.64323 0.09532 0.98706 0.0
O252 O 0.64414 0.15094 0.07587 0.0
C253 C 0.52461 0.03154 0.1631 0.0
Tb254 Tb 0.98824 0.51352 0.05432 0.0
C255 C 0.10319 0.61617 1.01051 0.0
Tb256 Tb 0.06751 0.47508 1.00446 0.0
O257 O 0.99964 0.49252 0.16264 0.0
O258 O 0.06124 0.5222 0.09613 0.0
O259 O 0.05315 0.60206 0.02315 0.0
C260 C 0.12665 0.42461 0.04183 0.0
O261 O 0.1203 0.57502 1.01069 0.0
C262 C 1.01322 0.4898 0.90001 0.0
C263 C 0.94441 0.36994 1.01461 0.0
O264 O 0.13694 0.46031 0.98962 0.0
O265 O 0.08306 0.41659 0.06946 0.0
O266 O 0.05859 0.48922 0.89332 0.0
O267 O 0.99782 0.47197 0.96012 0.0
O268 O 0.99537 0.38334 1.00983 0.0
O269 O 0.93144 0.41462 0.02524 0.0
C270 C 0.92658 0.56556 0.06794 0.0
O271 O 0.95953 0.57515 1.01881 0.0
O272 O 0.92679 0.52512 0.10848 0.0
C273 C 0.04755 0.50059 0.15494 0.0
Tb274 Tb 0.48405 0.51411 1.01943 0.0
C275 C 0.52402 0.41396 0.03437 0.0
Tb276 Tb 0.60487 0.55754 0.03739 0.0
O277 O 0.49111 0.53133 0.90671 0.0
O278 O 0.54275 0.50952 0.95891 0.0
O279 O 0.4839 0.42672 0.03809 0.0
C280 C 0.70571 0.60386 0.99777 0.0
O281 O 0.57436 0.45704 0.02483 0.0
C282 C 0.55525 0.54015 0.15636 0.0
C283 C 0.56598 0.6594 0.04819 0.0
O284 O 0.68773 0.57749 0.05592 0.0
O285 O 0.66694 0.60534 0.96237 0.0
O286 O 0.60084 0.54052 0.1498 0.0
O287 O 0.54552 0.55825 0.10015 0.0
O288 O 0.60581 0.64724 0.03571 0.0
O289 O 0.515 0.6139 0.05057 0.0
C290 C 0.37892 0.45595 0.03822 0.0
O291 O 0.41505 0.45224 0.07709 0.0
O292 O 0.40183 0.4934 0.98922 0.0
C293 C 0.53518 0.52842 0.90239 0.0
Tb294 Tb 0.2349 0.3985 0.37396 0.0
C295 C 0.19792 0.25538 0.38303 0.0
Tb296 Tb 0.11275 0.30253 0.36678 0.0
O297 O 0.24109 0.38293 0.48507 0.0
O298 O 0.16952 0.3716 0.44121 0.0
O299 O 0.23645 0.31081 0.36661 0.0
C300 C 1.0128 0.23285 0.40546 0.0
O301 O 0.14787 0.24347 0.39368 0.0
C302 C 0.15308 0.32717 0.24327 0.0
C303 C 0.15013 0.44056 0.3255 0.0
O304 O 0.03522 0.21604 0.35683 0.0
O305 O 0.04697 0.28822 0.43306 0.0
O306 O 0.10193 0.30283 0.2534 0.0
O307 O 0.17736 0.32851 0.30042 0.0
O308 O 0.10943 0.38667 0.3425 0.0
O309 O 0.20146 0.454 0.33084 0.0
C310 C 0.33991 0.47591 0.35989 0.0
O311 O 0.31074 0.48436 0.40566 0.0
O312 O 0.30958 0.42464 0.32114 0.0
C313 C 0.19111 0.36466 0.49614 0.0
Tb314 Tb 0.65469 0.84636 0.38785 0.0
C315 C 0.7695 0.94948 0.34404 0.0
Tb316 Tb 0.73432 0.80848 0.33787 0.0
O317 O 0.66614 0.82505 0.49596 0.0
O318 O 0.72791 0.85553 0.4295 0.0
O319 O 0.71949 0.93519 0.35714 0.0
C320 C 0.79372 0.7584 0.37543 0.0
O321 O 0.78678 0.90848 0.34382 0.0
C322 C 0.67971 0.82279 0.23358 0.0
C323 C 0.61131 0.70285 0.34857 0.0
O324 O 0.80387 0.79392 0.32307 0.0
O325 O 0.75013 0.75034 0.40309 0.0
O326 O 0.72519 0.8225 0.22676 0.0
O327 O 0.6644 0.80487 0.2937 0.0
O328 O 0.6623 0.71655 0.34314 0.0
O329 O 0.59811 0.74728 0.35976 0.0
C330 C 0.59236 0.89753 0.40078 0.0
O331 O 0.62349 0.9049 0.34988 0.0
O332 O 0.59502 0.86009 0.4439 0.0
C333 C 0.71426 0.83374 0.48825 0.0
Tb334 Tb 0.15072 0.84712 0.35269 0.0
C335 C 0.19109 0.74729 0.36781 0.0
Tb336 Tb 0.27162 0.89094 0.3709 0.0
O337 O 0.15793 0.86442 0.23998 0.0
O338 O 0.2096 0.84277 0.29233 0.0
O339 O 0.15084 0.75986 0.37136 0.0
C340 C 0.37253 0.93765 0.33141 0.0
O341 O 0.24138 0.79051 0.35834 0.0
C342 C 0.22186 0.87336 0.48978 0.0
C343 C 0.23242 0.9925 0.38167 0.0
O344 O 0.35456 0.91119 0.38952 0.0
O345 O 0.3337 0.93899 0.29598 0.0
O346 O 0.26753 0.8739 0.4833 0.0
O347 O 0.21209 0.89138 0.43353 0.0
O348 O 0.27233 0.98049 0.36915 0.0
O349 O 0.18146 0.94689 0.38398 0.0
C350 C 0.04544 0.78795 0.37047 0.0
O351 O 0.08161 0.78492 0.41003 0.0
O352 O 0.06845 0.82603 0.32204 0.0
C353 C 0.20206 0.86162 0.23577 0.0
Tb354 Tb 0.90155 0.73167 0.70733 0.0
C355 C 0.8645 0.58851 0.71618 0.0
Tb356 Tb 0.77938 0.63572 0.69997 0.0
O357 O 0.90772 0.7159 0.81836 0.0
O358 O 0.83615 0.70465 0.77454 0.0
O359 O 0.90306 0.64395 0.69982 0.0
C360 C 0.6794 0.56608 0.73862 0.0
O361 O 0.81445 0.57661 0.72682 0.0
C362 C 0.81989 0.66049 0.57653 0.0
C363 C 0.81682 0.7738 0.65892 0.0
O364 O 0.70183 0.54925 0.69002 0.0
O365 O 0.71359 0.62146 0.76619 0.0
O366 O 0.76872 0.63614 0.58655 0.0
O367 O 0.84407 0.66177 0.63372 0.0
O368 O 0.77609 0.71988 0.67577 0.0
O369 O 0.86815 0.78725 0.66433 0.0
C370 C 1.00655 0.8091 0.69335 0.0
O371 O 0.97738 0.81747 0.73919 0.0
O372 O 0.97623 0.75791 0.65448 0.0
C373 C 0.85773 0.69759 0.82941 0.0
Tb374 Tb 0.32121 0.17961 0.72118 0.0
C375 C 0.43606 0.28268 0.67742 0.0
Tb376 Tb 0.40078 0.14168 0.67132 0.0
O377 O 0.33255 0.15826 0.8293 0.0
O378 O 0.39439 0.18875 0.76295 0.0
O379 O 0.38605 0.26842 0.69048 0.0
C380 C 0.46014 0.09155 0.7089 0.0
O381 O 0.45332 0.24166 0.67725 0.0
C382 C 0.34623 0.15601 0.56694 0.0
C383 C 0.27779 0.0361 0.68193 0.0
O384 O 0.47028 0.12703 0.6565 0.0
O385 O 0.41658 0.08354 0.7366 0.0
O386 O 0.39171 0.15569 0.56017 0.0
O387 O 0.3309 0.1381 0.62705 0.0
O388 O 0.32878 0.04977 0.67661 0.0
O389 O 0.2646 0.08055 0.69302 0.0
C390 C 0.25898 0.2309 0.73407 0.0
O391 O 0.29019 0.23832 0.68325 0.0
O392 O 0.26149 0.19333 0.77711 0.0
C393 C 0.38068 0.16696 0.82169 0.0
Tb394 Tb 0.81743 0.18057 0.68625 0.0
C395 C 0.85757 0.08051 0.70112 0.0
Tb396 Tb 0.93825 0.22413 0.70434 0.0
O397 O 0.82455 0.19797 0.5736 0.0
O398 O 0.87619 0.17612 0.62575 0.0
O399 O 0.81737 0.09317 0.70466 0.0
C400 C 0.03908 0.27076 0.6646 0.0
O401 O 0.90791 0.12368 0.69177 0.0
C402 C 0.88848 0.20657 0.82326 0.0
C403 C 0.89931 0.32591 0.71518 0.0
O404 O 1.0212 0.24438 0.72279 0.0
O405 O 1.00021 0.27204 0.62923 0.0
O406 O 0.93412 0.20702 0.81676 0.0
O407 O 0.87881 0.22469 0.76703 0.0
O408 O 0.93917 0.3138 0.70274 0.0
O409 O 0.84833 0.28037 0.71748 0.0
C410 C 0.71229 0.12239 0.70486 0.0
O411 O 0.74839 0.11869 0.74382 0.0
O412 O 0.73524 0.15984 0.65588 0.0
C413 C 0.86862 0.19508 0.56927 0.0
loop_
_geom_bond_atom_site_label_1
_geom_bond_atom_site_label_2
_geom_bond_distance
_geom_bond_site_symmetry_2
_ccdc_geom_bond_type
H0 C7 0.929 . S
H1 C10 0.930 . S
H2 C12 0.929 . S
H3 C4 0.969 . S
C4 H3 0.969 . S
C4 O5 1.550 . S
C4 H6 0.973 . S
O5 C4 1.550 . S
O5 C11 1.412 . S
H6 C4 0.973 . S
C7 H0 0.929 . S
C7 C8 1.400 . S
C7 C9 1.364 . S
C8 C7 1.400 . S
C8 C12 1.377 . S
C9 C7 1.364 . S
C9 C10 1.374 . S
C10 H1 0.930 . S
C10 C9 1.374 . S
C10 C11 1.383 . S
C11 O5 1.412 . S
C11 C10 1.383 . S
C11 C12 1.394 . S
C12 H2 0.929 . S
C12 C8 1.377 . S
C12 C11 1.394 . S
H13 C20 0.929 . S
H14 C23 0.930 . S
H15 C25 0.929 . S
H16 C17 0.969 1_545 S
C17 H16 0.969 1_565 S
C17 O18 1.550 1_565 S
C17 H19 0.973 . S
O18 C17 1.550 1_545 S
O18 C24 1.412 . S
H19 C17 0.973 . S
C20 H13 0.929 . S
C20 C21 1.400 . S
C20 C22 1.364 . S
C21 C20 1.400 . S
C21 C25 1.377 . S
C22 C20 1.364 . S
C22 C23 1.374 . S
C23 H14 0.930 . S
C23 C22 1.374 . S
C23 C24 1.383 . S
C24 O18 1.412 . S
C24 C23 1.383 . S
C24 C25 1.394 . S
C25 H15 0.929 . S
C25 C21 1.377 . S
C25 C24 1.394 . S
H26 C33 0.929 . S
H27 C36 0.930 . S
H28 C38 0.929 . S
H29 C30 0.969 . S
C30 H29 0.969 . S
C30 O31 1.550 . S
C30 H32 0.973 . S
O31 C30 1.550 . S
O31 C37 1.412 . S
H32 C30 0.973 . S
C33 H26 0.929 . S
C33 C34 1.400 . S
C33 C35 1.364 . S
C34 C33 1.400 . S
C34 C38 1.377 . S
C35 C33 1.364 . S
C35 C36 1.374 . S
C36 H27 0.930 . S
C36 C35 1.374 . S
C36 C37 1.383 . S
C37 O31 1.412 . S
C37 C36 1.383 . S
C37 C38 1.394 . S
C38 H28 0.929 . S
C38 C34 1.377 . S
C38 C37 1.394 . S
H39 C46 0.929 . S
H40 C49 0.930 . S
H41 C51 0.929 . S
H42 C43 0.969 . S
C43 H42 0.969 . S
C43 O44 1.550 . S
C43 H45 0.973 . S
O44 C43 1.550 . S
O44 C50 1.412 . S
H45 C43 0.973 . S
C46 H39 0.929 . S
C46 C47 1.400 . S
C46 C48 1.364 . S
C47 C46 1.400 . S
C47 C51 1.377 . S
C48 C46 1.364 . S
C48 C49 1.374 . S
C49 H40 0.930 . S
C49 C48 1.374 . S
C49 C50 1.383 . S
C50 O44 1.412 . S
C50 C49 1.383 . S
C50 C51 1.394 . S
C51 H41 0.929 . S
C51 C47 1.377 . S
C51 C50 1.394 . S
H52 C59 0.929 . S
H53 C62 0.930 . S
H54 C64 0.929 . S
H55 C56 0.969 1_565 S
C56 H55 0.969 1_545 S
C56 O57 1.550 1_545 S
C56 H58 0.973 . S
O57 C56 1.550 1_565 S
O57 C63 1.412 . S
H58 C56 0.973 . S
C59 H52 0.929 . S
C59 C60 1.400 . S
C59 C61 1.364 . S
C60 C59 1.400 . S
C60 C64 1.377 . S
C61 C59 1.364 . S
C61 C62 1.374 . S
C62 H53 0.930 . S
C62 C61 1.374 . S
C62 C63 1.383 . S
C63 O57 1.412 . S
C63 C62 1.383 . S
C63 C64 1.394 . S
C64 H54 0.929 . S
C64 C60 1.377 . S
C64 C63 1.394 . S
H65 C72 0.929 . S
H66 C75 0.930 . S
H67 C77 0.929 . S
H68 C69 0.969 . S
C69 H68 0.969 . S
C69 O70 1.550 . S
C69 H71 0.973 . S
O70 C69 1.550 . S
O70 C76 1.412 . S
H71 C69 0.973 . S
C72 H65 0.929 . S
C72 C73 1.400 . S
C72 C74 1.364 . S
C73 C72 1.400 . S
C73 C77 1.377 . S
C74 C72 1.364 . S
C74 C75 1.374 . S
C75 H66 0.930 . S
C75 C74 1.374 . S
C75 C76 1.383 . S
C76 O70 1.412 . S
C76 C75 1.383 . S
C76 C77 1.394 . S
C77 H67 0.929 . S
C77 C73 1.377 . S
C77 C76 1.394 . S
H78 C85 0.929 . S
H79 C88 0.930 . S
H80 C90 0.929 . S
H81 C82 0.969 . S
C82 H81 0.969 . S
C82 O83 1.550 . S
C82 H84 0.973 . S
O83 C82 1.550 . S
O83 C89 1.412 . S
H84 C82 0.973 . S
C85 H78 0.929 . S
C85 C86 1.400 . S
C85 C87 1.364 . S
C86 C85 1.400 . S
C86 C90 1.377 . S
C87 C85 1.364 . S
C87 C88 1.374 . S
C88 H79 0.930 . S
C88 C87 1.374 . S
C88 C89 1.383 . S
C89 O83 1.412 . S
C89 C88 1.383 . S
C89 C90 1.394 . S
C90 H80 0.929 . S
C90 C86 1.377 . S
C90 C89 1.394 . S
H91 C98 0.929 . S
H92 C101 0.930 . S
H93 C103 0.929 . S
H94 C95 0.969 . S
C95 H94 0.969 . S
C95 O96 1.550 . S
C95 H97 0.973 . S
O96 C95 1.550 . S
O96 C102 1.412 . S
H97 C95 0.973 . S
C98 H91 0.929 . S
C98 C99 1.400 . S
C98 C100 1.364 . S
C99 C98 1.400 . S
C99 C103 1.377 . S
C100 C98 1.364 . S
C100 C101 1.374 . S
C101 H92 0.930 . S
C101 C100 1.374 . S
C101 C102 1.383 . S
C102 O96 1.412 . S
C102 C101 1.383 . S
C102 C103 1.394 . S
C103 H93 0.929 . S
C103 C99 1.377 . S
C103 C102 1.394 . S
H104 C111 0.929 . S
H105 C114 0.930 . S
H106 C116 0.929 . S
H107 C108 0.969 . S
C108 H107 0.969 . S
C108 O109 1.550 . S
C108 H110 0.973 . S
O109 C108 1.550 . S
O109 C115 1.412 . S
H110 C108 0.973 . S
C111 H104 0.929 . S
C111 C112 1.400 . S
C111 C113 1.364 . S
C112 C111 1.400 . S
C112 C116 1.377 . S
C113 C111 1.364 . S
C113 C114 1.374 . S
C114 H105 0.930 . S
C114 C113 1.374 . S
C114 C115 1.383 . S
C115 O109 1.412 . S
C115 C114 1.383 . S
C115 C116 1.394 . S
C116 H106 0.929 . S
C116 C112 1.377 . S
C116 C115 1.394 . S
H117 C124 0.929 . S
H118 C127 0.930 . S
H119 C129 0.929 1_554 S
H120 C121 0.969 . S
C121 H120 0.969 . S
C121 O122 1.550 . S
C121 H123 0.973 . S
O122 C121 1.550 . S
O122 C128 1.412 . S
H123 C121 0.973 . S
C124 H117 0.929 . S
C124 C125 1.400 . S
C124 C126 1.364 . S
C125 C124 1.400 . S
C125 C129 1.377 . S
C126 C124 1.364 . S
C126 C127 1.374 . S
C127 H118 0.930 . S
C127 C126 1.374 . S
C127 C128 1.383 . S
C128 O122 1.412 . S
C128 C127 1.383 . S
C128 C129 1.394 . S
C129 H119 0.929 1_556 S
C129 C125 1.377 . S
C129 C128 1.394 . S
H130 C137 0.929 . S
H131 C140 0.930 . S
H132 C142 0.929 1_554 S
H133 C134 0.969 1_554 S
C134 H133 0.969 1_556 S
C134 O135 1.553 . S
C134 H136 0.973 . S
O135 C134 1.553 . S
O135 C141 1.416 . S
H136 C134 0.973 . S
C137 H130 0.929 . S
C137 C138 1.400 . S
C137 C139 1.364 . S
C138 C137 1.400 . S
C138 C142 1.377 . S
C139 C137 1.364 . S
C139 C140 1.374 . S
C140 H131 0.930 . S
C140 C139 1.374 . S
C140 C141 1.383 . S
C141 O135 1.416 . S
C141 C140 1.383 . S
C141 C142 1.394 . S
C142 H132 0.929 1_556 S
C142 C138 1.377 . S
C142 C141 1.394 . S
H143 C150 0.929 . S
H144 C153 0.930 . S
H145 C155 0.929 1_554 S
H146 C147 0.969 . S
C147 H146 0.969 . S
C147 O148 1.550 . S
C147 H149 0.973 . S
O148 C147 1.550 . S
O148 C154 1.412 . S
H149 C147 0.973 . S
C150 H143 0.929 . S
C150 C151 1.400 . S
C150 C152 1.364 . S
C151 C150 1.400 . S
C151 C155 1.377 . S
C152 C150 1.364 . S
C152 C153 1.374 . S
C153 H144 0.930 . S
C153 C152 1.374 . S
C153 C154 1.383 . S
C154 O148 1.412 . S
C154 C153 1.383 . S
C154 C155 1.394 . S
C155 H145 0.929 1_556 S
C155 C151 1.377 . S
C155 C154 1.394 . S
H156 C163 0.929 . S
H157 C166 0.930 . S
H158 C168 0.929 1_556 S
H159 C160 0.969 . S
C160 H159 0.969 . S
C160 O161 1.550 . S
C160 H162 0.973 . S
O161 C160 1.550 . S
O161 C167 1.412 . S
H162 C160 0.973 . S
C163 H156 0.929 . S
C163 C164 1.400 . S
C163 C165 1.364 . S
C164 C163 1.400 . S
C164 C168 1.377 . S
C165 C163 1.364 . S
C165 C166 1.374 . S
C166 H157 0.930 . S
C166 C165 1.374 . S
C166 C167 1.383 . S
C167 O161 1.412 . S
C167 C166 1.383 . S
C167 C168 1.394 . S
C168 H158 0.929 1_554 S
C168 C164 1.377 . S
C168 C167 1.394 . S
H169 C176 0.929 . S
H170 C179 0.930 . S
H171 C181 0.929 1_556 S
H172 C173 0.969 . S
C173 H172 0.969 . S
C173 O174 1.550 . S
C173 H175 0.973 . S
O174 C173 1.550 . S
O174 C180 1.412 . S
H175 C173 0.973 . S
C176 H169 0.929 . S
C176 C177 1.400 . S
C176 C178 1.364 . S
C177 C176 1.400 . S
C177 C181 1.377 . S
C178 C176 1.364 . S
C178 C179 1.374 . S
C179 H170 0.930 . S
C179 C178 1.374 . S
C179 C180 1.383 . S
C180 O174 1.412 . S
C180 C179 1.383 . S
C180 C181 1.394 . S
C181 H171 0.929 1_554 S
C181 C177 1.377 . S
C181 C180 1.394 . S
H182 C189 0.929 . S
H183 C192 0.930 . S
H184 C194 0.929 . S
H185 C186 0.969 . S
C186 H185 0.969 . S
C186 O187 1.550 . S
C186 H188 0.973 . S
O187 C186 1.550 . S
O187 C193 1.412 . S
H188 C186 0.973 . S
C189 H182 0.929 . S
C189 C190 1.400 . S
C189 C191 1.364 . S
C190 C189 1.400 . S
C190 C194 1.377 . S
C191 C189 1.364 . S
C191 C192 1.374 . S
C192 H183 0.930 . S
C192 C191 1.374 . S
C192 C193 1.383 . S
C193 O187 1.412 . S
C193 C192 1.383 . S
C193 C194 1.394 . S
C194 H184 0.929 . S
C194 C190 1.377 . S
C194 C193 1.394 . S
H195 C202 0.929 . S
H196 C205 0.930 . S
H197 C207 0.929 . S
H198 C199 0.969 . S
C199 H198 0.969 . S
C199 O200 1.550 . S
C199 H201 0.973 . S
O200 C199 1.550 . S
O200 C206 1.412 . S
H201 C199 0.973 . S
C202 H195 0.929 . S
C202 C203 1.400 . S
C202 C204 1.364 . S
C203 C202 1.400 . S
C203 C207 1.377 . S
C204 C202 1.364 . S
C204 C205 1.374 . S
C205 H196 0.930 . S
C205 C204 1.374 . S
C205 C206 1.383 . S
C206 O200 1.412 . S
C206 C205 1.383 . S
C206 C207 1.394 . S
C207 H197 0.929 . S
C207 C203 1.377 . S
C207 C206 1.394 . S
H208 C215 0.929 . S
H209 C218 0.930 . S
H210 C220 0.929 . S
H211 C212 0.969 . S
C212 H211 0.969 . S
C212 O213 1.550 . S
C212 H214 0.973 . S
O213 C212 1.550 . S
O213 C219 1.412 . S
H214 C212 0.973 . S
C215 H208 0.929 . S
C215 C216 1.400 . S
C215 C217 1.364 . S
C216 C215 1.400 . S
C216 C220 1.377 . S
C217 C215 1.364 . S
C217 C218 1.374 . S
C218 H209 0.930 . S
C218 C217 1.374 . S
C218 C219 1.383 . S
C219 O213 1.412 . S
C219 C218 1.383 . S
C219 C220 1.394 . S
C220 H210 0.929 . S
C220 C216 1.377 . S
C220 C219 1.394 . S
H221 C228 0.929 . S
H222 C231 0.930 . S
H223 C233 0.929 . S
H224 C225 0.969 . S
C225 H224 0.969 . S
C225 O226 1.550 . S
C225 H227 0.973 . S
O226 C225 1.550 . S
O226 C232 1.412 . S
H227 C225 0.973 . S
C228 H221 0.929 . S
C228 C229 1.400 . S
C228 C230 1.364 . S
C229 C228 1.400 . S
C229 C233 1.377 . S
C230 C228 1.364 . S
C230 C231 1.374 . S
C231 H222 0.930 . S
C231 C230 1.374 . S
C231 C232 1.383 . S
C232 O226 1.412 . S
C232 C231 1.383 . S
C232 C233 1.394 . S
C233 H223 0.929 . S
C233 C229 1.377 . S
C233 C232 1.394 . S
Tb234 O237 2.453 . S
Tb234 O238 2.596 1_545 S
Tb234 O239 2.374 1_545 S
Tb234 O247 2.343 1_554 S
Tb234 O249 2.353 . S
Tb234 O251 2.427 . S
Tb234 O252 2.513 1_554 S
C235 O239 1.251 . S
C235 O241 1.263 1_554 S
Tb236 O238 2.343 1_556 S
Tb236 O241 2.353 . S
Tb236 O244 2.427 1_556 S
Tb236 O245 2.513 1_556 S
Tb236 O246 2.453 . S
Tb236 O247 2.596 1_565 S
Tb236 O248 2.374 1_565 S
O237 Tb234 2.453 . S
O237 C253 1.245 1_545 S
O238 Tb234 2.596 1_565 S
O238 Tb236 2.343 1_554 S
O238 C253 1.259 . S
O239 Tb234 2.374 1_565 S
O239 C235 1.251 . S
C240 O244 1.275 . S
C240 O245 1.246 . S
O241 C235 1.263 1_556 S
O241 Tb236 2.353 . S
C242 O246 1.245 1_545 S
C242 O247 1.259 . S
C243 O248 1.251 . S
C243 O249 1.261 1_556 S
O244 Tb236 2.427 1_554 S
O244 C240 1.275 . S
O245 Tb236 2.513 1_554 S
O245 C240 1.246 . S
O246 Tb236 2.453 . S
O246 C242 1.245 1_565 S
O247 Tb234 2.343 1_556 S
O247 Tb236 2.596 1_545 S
O247 C242 1.259 . S
O248 Tb236 2.374 1_545 S
O248 C243 1.251 . S
O249 Tb234 2.353 . S
O249 C243 1.261 1_554 S
C250 O251 1.275 1_556 S
C250 O252 1.246 . S
O251 Tb234 2.427 . S
O251 C250 1.275 1_554 S
O252 Tb234 2.513 1_556 S
O252 C250 1.246 . S
C253 O237 1.245 1_565 S
C253 O238 1.259 . S
Tb254 O257 2.453 . S
Tb254 O258 2.596 1_655 S
Tb254 O259 2.374 1_655 S
Tb254 O267 2.343 1_554 S
Tb254 O269 2.353 . S
Tb254 O271 2.427 1_554 S
Tb254 O272 2.513 1_554 S
C255 O259 1.251 . S
C255 O261 1.263 1_554 S
Tb256 O258 2.343 1_556 S
Tb256 O261 2.353 . S
Tb256 O264 2.427 1_556 S
Tb256 O265 2.513 1_556 S
Tb256 O266 2.453 . S
Tb256 O267 2.596 1_455 S
Tb256 O268 2.374 1_455 S
O257 Tb254 2.453 . S
O257 C273 1.245 1_655 S
O258 Tb254 2.596 1_455 S
O258 Tb256 2.343 1_554 S
O258 C273 1.259 . S
O259 Tb254 2.374 1_455 S
O259 C255 1.251 . S
C260 O264 1.275 . S
C260 O265 1.246 . S
O261 C255 1.263 1_556 S
O261 Tb256 2.353 . S
C262 O266 1.245 1_655 S
C262 O267 1.259 . S
C263 O268 1.250 . S
C263 O269 1.263 1_556 S
O264 Tb256 2.427 1_554 S
O264 C260 1.275 . S
O265 Tb256 2.513 1_554 S
O265 C260 1.246 . S
O266 Tb256 2.453 . S
O266 C262 1.245 1_455 S
O267 Tb254 2.343 1_556 S
O267 Tb256 2.596 1_655 S
O267 C262 1.259 . S
O268 Tb256 2.374 1_655 S
O268 C263 1.250 . S
O269 Tb254 2.353 . S
O269 C263 1.263 1_554 S
C270 O271 1.275 . S
C270 O272 1.246 . S
O271 Tb254 2.427 1_556 S
O271 C270 1.275 . S
O272 Tb254 2.513 1_556 S
O272 C270 1.246 . S
C273 O257 1.245 1_455 S
C273 O258 1.259 . S
Tb274 O277 2.453 . S
Tb274 O278 2.596 . S
Tb274 O279 2.374 . S
Tb274 O287 2.343 1_556 S
Tb274 O289 2.353 . S
Tb274 O291 2.427 1_556 S
Tb274 O292 2.513 1_556 S
C275 O279 1.251 . S
C275 O281 1.263 1_556 S
Tb276 O278 2.343 1_554 S
Tb276 O281 2.353 . S
Tb276 O284 2.427 1_554 S
Tb276 O285 2.513 1_554 S
Tb276 O286 2.453 . S
Tb276 O287 2.596 . S
Tb276 O288 2.374 . S
O277 Tb274 2.453 . S
O277 C293 1.245 . S
O278 Tb274 2.596 . S
O278 Tb276 2.343 1_556 S
O278 C293 1.259 . S
O279 Tb274 2.374 . S
O279 C275 1.251 . S
C280 O284 1.275 . S
C280 O285 1.246 . S
O281 C275 1.263 1_554 S
O281 Tb276 2.353 . S
C282 O286 1.245 . S
C282 O287 1.259 . S
C283 O288 1.250 . S
C283 O289 1.263 1_554 S
O284 Tb276 2.427 1_556 S
O284 C280 1.275 . S
O285 Tb276 2.513 1_556 S
O285 C280 1.246 . S
O286 Tb276 2.453 . S
O286 C282 1.245 . S
O287 Tb274 2.343 1_554 S
O287 Tb276 2.596 . S
O287 C282 1.259 . S
O288 Tb276 2.374 . S
O288 C283 1.250 . S
O289 Tb274 2.353 . S
O289 C283 1.263 1_556 S
C290 O291 1.275 . S
C290 O292 1.246 . S
O291 Tb274 2.427 1_554 S
O291 C290 1.275 . S
O292 Tb274 2.513 1_554 S
O292 C290 1.246 . S
C293 O277 1.245 . S
C293 O278 1.259 . S
Tb294 O297 2.453 . S
Tb294 O298 2.596 . S
Tb294 O299 2.374 . S
Tb294 O307 2.343 . S
Tb294 O309 2.353 . S
Tb294 O311 2.427 . S
Tb294 O312 2.513 . S
C295 O299 1.251 . S
C295 O301 1.263 . S
Tb296 O298 2.343 . S
Tb296 O301 2.353 . S
Tb296 O304 2.427 . S
Tb296 O305 2.513 . S
Tb296 O306 2.453 . S
Tb296 O307 2.596 . S
Tb296 O308 2.374 . S
O297 Tb294 2.453 . S
O297 C313 1.245 . S
O298 Tb294 2.596 . S
O298 Tb296 2.343 . S
O298 C313 1.259 . S
O299 Tb294 2.374 . S
O299 C295 1.251 . S
C300 O304 1.275 1_655 S
C300 O305 1.246 1_655 S
O301 C295 1.263 . S
O301 Tb296 2.353 . S
C302 O306 1.245 . S
C302 O307 1.259 . S
C303 O308 1.250 . S
C303 O309 1.263 . S
O304 Tb296 2.427 . S
O304 C300 1.275 1_455 S
O305 Tb296 2.513 . S
O305 C300 1.246 1_455 S
O306 Tb296 2.453 . S
O306 C302 1.245 . S
O307 Tb294 2.343 . S
O307 Tb296 2.596 . S
O307 C302 1.259 . S
O308 Tb296 2.374 . S
O308 C303 1.250 . S
O309 Tb294 2.353 . S
O309 C303 1.263 . S
C310 O311 1.275 . S
C310 O312 1.246 . S
O311 Tb294 2.427 . S
O311 C310 1.275 . S
O312 Tb294 2.513 . S
O312 C310 1.246 . S
C313 O297 1.245 . S
C313 O298 1.259 . S
Tb314 O317 2.453 . S
Tb314 O318 2.596 . S
Tb314 O319 2.374 . S
Tb314 O327 2.343 . S
Tb314 O329 2.353 . S
Tb314 O331 2.427 . S
Tb314 O332 2.513 . S
C315 O319 1.251 . S
C315 O321 1.263 . S
Tb316 O318 2.343 . S
Tb316 O321 2.353 . S
Tb316 O324 2.427 . S
Tb316 O325 2.513 . S
Tb316 O326 2.453 . S
Tb316 O327 2.596 . S
Tb316 O328 2.374 . S
O317 Tb314 2.453 . S
O317 C333 1.245 . S
O318 Tb314 2.596 . S
O318 Tb316 2.343 . S
O318 C333 1.259 . S
O319 Tb314 2.374 . S
O319 C315 1.251 . S
C320 O324 1.275 . S
C320 O325 1.246 . S
O321 C315 1.263 . S
O321 Tb316 2.353 . S
C322 O326 1.245 . S
C322 O327 1.259 . S
C323 O328 1.250 . S
C323 O329 1.263 . S
O324 Tb316 2.427 . S
O324 C320 1.275 . S
O325 Tb316 2.513 . S
O325 C320 1.246 . S
O326 Tb316 2.453 . S
O326 C322 1.245 . S
O327 Tb314 2.343 . S
O327 Tb316 2.596 . S
O327 C322 1.259 . S
O328 Tb316 2.374 . S
O328 C323 1.250 . S
O329 Tb314 2.353 . S
O329 C323 1.263 . S
C330 O331 1.275 . S
C330 O332 1.246 . S
O331 Tb314 2.427 . S
O331 C330 1.275 . S
O332 Tb314 2.513 . S
O332 C330 1.246 . S
C333 O317 1.245 . S
C333 O318 1.259 . S
Tb334 O337 2.453 . S
Tb334 O338 2.596 . S
Tb334 O339 2.374 . S
Tb334 O347 2.343 . S
Tb334 O349 2.353 . S
Tb334 O351 2.427 . S
Tb334 O352 2.513 . S
C335 O339 1.251 . S
C335 O341 1.263 . S
Tb336 O338 2.343 . S
Tb336 O341 2.353 . S
Tb336 O344 2.427 . S
Tb336 O345 2.513 . S
Tb336 O346 2.453 . S
Tb336 O347 2.596 . S
Tb336 O348 2.374 . S
O337 Tb334 2.453 . S
O337 C353 1.245 . S
O338 Tb334 2.596 . S
O338 Tb336 2.343 . S
O338 C353 1.259 . S
O339 Tb334 2.374 . S
O339 C335 1.251 . S
C340 O344 1.275 . S
C340 O345 1.246 . S
O341 C335 1.263 . S
O341 Tb336 2.353 . S
C342 O346 1.245 . S
C342 O347 1.259 . S
C343 O348 1.250 . S
C343 O349 1.263 . S
O344 Tb336 2.427 . S
O344 C340 1.275 . S
O345 Tb336 2.513 . S
O345 C340 1.246 . S
O346 Tb336 2.453 . S
O346 C342 1.245 . S
O347 Tb334 2.343 . S
O347 Tb336 2.596 . S
O347 C342 1.259 . S
O348 Tb336 2.374 . S
O348 C343 1.250 . S
O349 Tb334 2.353 . S
O349 C343 1.263 . S
C350 O351 1.275 . S
C350 O352 1.246 . S
O351 Tb334 2.427 . S
O351 C350 1.275 . S
O352 Tb334 2.513 . S
O352 C350 1.246 . S
C353 O337 1.245 . S
C353 O338 1.259 . S
Tb354 O357 2.453 . S
Tb354 O358 2.596 . S
Tb354 O359 2.374 . S
Tb354 O367 2.343 . S
Tb354 O369 2.353 . S
Tb354 O371 2.427 . S
Tb354 O372 2.513 . S
C355 O359 1.251 . S
C355 O361 1.263 . S
Tb356 O358 2.343 . S
Tb356 O361 2.353 . S
Tb356 O364 2.427 . S
Tb356 O365 2.513 . S
Tb356 O366 2.453 . S
Tb356 O367 2.596 . S
Tb356 O368 2.374 . S
O357 Tb354 2.453 . S
O357 C373 1.245 . S
O358 Tb354 2.596 . S
O358 Tb356 2.343 . S
O358 C373 1.259 . S
O359 Tb354 2.374 . S
O359 C355 1.251 . S
C360 O364 1.275 . S
C360 O365 1.246 . S
O361 C355 1.263 . S
O361 Tb356 2.353 . S
C362 O366 1.245 . S
C362 O367 1.259 . S
C363 O368 1.250 . S
C363 O369 1.263 . S
O364 Tb356 2.427 . S
O364 C360 1.275 . S
O365 Tb356 2.513 . S
O365 C360 1.246 . S
O366 Tb356 2.453 . S
O366 C362 1.245 . S
O367 Tb354 2.343 . S
O367 Tb356 2.596 . S
O367 C362 1.259 . S
O368 Tb356 2.374 . S
O368 C363 1.250 . S
O369 Tb354 2.353 . S
O369 C363 1.263 . S
C370 O371 1.275 . S
C370 O372 1.246 . S
O371 Tb354 2.427 . S
O371 C370 1.275 . S
O372 Tb354 2.513 . S
O372 C370 1.246 . S
C373 O357 1.245 . S
C373 O358 1.259 . S
Tb374 O377 2.453 . S
Tb374 O378 2.596 . S
Tb374 O379 2.374 . S
Tb374 O387 2.343 . S
Tb374 O389 2.353 . S
Tb374 O391 2.427 . S
Tb374 O392 2.513 . S
C375 O379 1.251 . S
C375 O381 1.263 . S
Tb376 O378 2.343 . S
Tb376 O381 2.353 . S
Tb376 O384 2.427 . S
Tb376 O385 2.513 . S
Tb376 O386 2.453 . S
Tb376 O387 2.596 . S
Tb376 O388 2.374 . S
O377 Tb374 2.453 . S
O377 C393 1.245 . S
O378 Tb374 2.596 . S
O378 Tb376 2.343 . S
O378 C393 1.259 . S
O379 Tb374 2.374 . S
O379 C375 1.251 . S
C380 O384 1.275 . S
C380 O385 1.246 . S
O381 C375 1.263 . S
O381 Tb376 2.353 . S
C382 O386 1.245 . S
C382 O387 1.259 . S
C383 O388 1.250 . S
C383 O389 1.263 . S
O384 Tb376 2.427 . S
O384 C380 1.275 . S
O385 Tb376 2.513 . S
O385 C380 1.246 . S
O386 Tb376 2.453 . S
O386 C382 1.245 . S
O387 Tb374 2.343 . S
O387 Tb376 2.596 . S
O387 C382 1.259 . S
O388 Tb376 2.374 . S
O388 C383 1.250 . S
O389 Tb374 2.353 . S
O389 C383 1.263 . S
C390 O391 1.275 . S
C390 O392 1.246 . S
O391 Tb374 2.427 . S
O391 C390 1.275 . S
O392 Tb374 2.513 . S
O392 C390 1.246 . S
C393 O377 1.245 . S
C393 O378 1.259 . S
Tb394 O397 2.453 . S
Tb394 O398 2.596 . S
Tb394 O399 2.374 . S
Tb394 O407 2.343 . S
Tb394 O409 2.353 . S
Tb394 O411 2.427 . S
Tb394 O412 2.513 . S
C395 O399 1.251 . S
C395 O401 1.263 . S
Tb396 O398 2.343 . S
Tb396 O401 2.353 . S
Tb396 O404 2.427 . S
Tb396 O405 2.521 . S
Tb396 O406 2.453 . S
Tb396 O407 2.596 . S
Tb396 O408 2.374 . S
O397 Tb394 2.453 . S
O397 C413 1.245 . S
O398 Tb394 2.596 . S
O398 Tb396 2.343 . S
O398 C413 1.259 . S
O399 Tb394 2.374 . S
O399 C395 1.251 . S
C400 O404 1.275 1_455 S
C400 O405 1.235 1_455 S
O401 C395 1.263 . S
O401 Tb396 2.353 . S
C402 O406 1.245 . S
C402 O407 1.259 . S
C403 O408 1.250 . S
C403 O409 1.263 . S
O404 Tb396 2.427 . S
O404 C400 1.275 1_655 S
O405 Tb396 2.521 . S
O405 C400 1.235 1_655 S
O406 Tb396 2.453 . S
O406 C402 1.245 . S
O407 Tb394 2.343 . S
O407 Tb396 2.596 . S
O407 C402 1.259 . S
O408 Tb396 2.374 . S
O408 C403 1.250 . S
O409 Tb394 2.353 . S
O409 C403 1.263 . S
C410 O411 1.275 . S
C410 O412 1.246 . S
O411 Tb394 2.427 . S
O411 C410 1.275 . S
O412 Tb394 2.513 . S
O412 C410 1.246 . S
C413 O397 1.245 . S
C413 O398 1.259 . S
C177 C240 1.599 . S
C190 C260 1.433 . S
C164 C283 1.526 . S
C151 C263 1.449 . S
C280 C125 1.509 . S
C138 C243 1.635 . S
C250 C147 1.742 . S
C270 C121 1.383 . S
C134 C275 1.420 . S
C173 C255 1.371 . S
C186 C290 1.621 . S
C235 C160 1.612 . S
C300 C21 1.599 . S
C34 C320 1.433 . S
C8 C343 1.526 1_545 S
C229 C323 1.449 . S
C203 C340 1.509 . S
C216 C303 1.633 . S
C225 C310 1.742 . S
C199 C330 1.383 . S
C335 C212 1.420 . S
C17 C315 1.372 . S
C350 C30 1.621 1_455 S
C4 C295 1.612 . S
C360 C99 1.599 . S
C112 C380 1.433 . S
C403 C86 1.526 . S
C383 C73 1.449 1_545 S
C400 C47 1.509 . S
C60 C363 1.633 . S
C69 C370 1.742 1_455 S
C43 C390 1.383 . S
C395 C56 1.420 . S
C95 C375 1.372 . S
C108 C410 1.621 . S
C82 C355 1.612 . S
C204 C253 1.389 . S
C273 C217 1.686 . S
C230 C282 1.435 . S
C87 C262 1.592 . S
C100 C293 1.565 . S
C242 C113 1.298 . S
C48 C313 1.389 . S
C61 C333 1.686 . S
C74 C342 1.435 . S
C165 C322 1.592 . S
C353 C178 1.565 . S
C191 C302 1.298 . S
C126 C373 1.389 . S
C139 C393 1.686 . S
C402 C152 1.435 . S
C9 C382 1.592 . S
C22 C413 1.565 . S
C35 C362 1.298 . S
