# Generated by pormake.
# Topology anh, (6,3)-cn, num edge types: 1
# Building blocks:
#     Node 0, Type 0, BuildingBlock: CUKXOW_clean_sbu_0, # of connection points: 6
#     Node 1, Type 0, BuildingBlock: CUKXOW_clean_sbu_0, # of connection points: 6
#     Node 2, Type 0, BuildingBlock: CUKXOW_clean_sbu_0, # of connection points: 6
#     Node 3, Type 1, BuildingBlock: BELTOD_clean_linker_0, # of connection points: 3
#     Node 4, Type 1, BuildingBlock: BELTOD_clean_linker_0, # of connection points: 3
#     Node 5, Type 1, BuildingBlock: BELTOD_clean_linker_0, # of connection points: 3
#     Node 6, Type 1, BuildingBlock: BELTOD_clean_linker_0, # of connection points: 3
#     Node 7, Type 1, BuildingBlock: BELTOD_clean_linker_0, # of connection points: 3
#     Node 8, Type 1, BuildingBlock: BELTOD_clean_linker_0, # of connection points: 3
#     Edge 9, Type (0, 1), BuildingBlock: TEMPAE_clean_linker_10, # of connection points: 2
#     Edge 10, Type (0, 1), BuildingBlock: TEMPAE_clean_linker_10, # of connection points: 2
#     Edge 11, Type (0, 1), BuildingBlock: TEMPAE_clean_linker_10, # of connection points: 2
#     Edge 12, Type (0, 1), BuildingBlock: TEMPAE_clean_linker_10, # of connection points: 2
#     Edge 13, Type (0, 1), BuildingBlock: TEMPAE_clean_linker_10, # of connection points: 2
#     Edge 14, Type (0, 1), BuildingBlock: TEMPAE_clean_linker_10, # of connection points: 2
#     Edge 15, Type (0, 1), BuildingBlock: TEMPAE_clean_linker_10, # of connection points: 2
#     Edge 16, Type (0, 1), BuildingBlock: TEMPAE_clean_linker_10, # of connection points: 2
#     Edge 17, Type (0, 1), BuildingBlock: TEMPAE_clean_linker_10, # of connection points: 2
#     Edge 18, Type (0, 1), BuildingBlock: TEMPAE_clean_linker_10, # of connection points: 2
#     Edge 19, Type (0, 1), BuildingBlock: TEMPAE_clean_linker_10, # of connection points: 2
#     Edge 20, Type (0, 1), BuildingBlock: TEMPAE_clean_linker_10, # of connection points: 2
#     Edge 21, Type (0, 1), BuildingBlock: TEMPAE_clean_linker_10, # of connection points: 2
#     Edge 22, Type (0, 1), BuildingBlock: TEMPAE_clean_linker_10, # of connection points: 2
#     Edge 23, Type (0, 1), BuildingBlock: TEMPAE_clean_linker_10, # of connection points: 2
#     Edge 24, Type (0, 1), BuildingBlock: TEMPAE_clean_linker_10, # of connection points: 2
#     Edge 25, Type (0, 1), BuildingBlock: TEMPAE_clean_linker_10, # of connection points: 2
#     Edge 26, Type (0, 1), BuildingBlock: TEMPAE_clean_linker_10, # of connection points: 2
# Relax obj value: 0.123
# Max RMSD: 0.188
# Mean RMSD: 0.130
data_MOF--net-anh--node1-CUKXOW_clean_sbu_0--node2-BELTOD_clean_linker_0--edge1-TEMPAE_clean_linker_10
_symmetry_space_group_name_H-M    P1
_symmetry_Int_Tables_number       1
_symmetry_cell_setting            triclinic
loop_
_symmetry_equiv_pos_as_xyz
'x, y, z'
_cell_length_a     33.475184
_cell_length_b     32.465046
_cell_length_c     60.003579
_cell_angle_alpha  95.883104
_cell_angle_beta   90.175127
_cell_angle_gamma 115.67338
loop_
_atom_site_label
_atom_site_type_symbol
_atom_site_fract_x
_atom_site_fract_y
_atom_site_fract_z
_atom_type_partial_charge
Tb0 Tb 0.06125 0.55641 0.1544 0.0
C1 C 0.02168 0.49855 0.1942 0.0
Tb2 Tb 0.99456 0.45238 0.14373 0.0
O3 O 0.01195 0.58544 0.15509 0.0
O4 O 0.99285 0.5163 0.14868 0.0
O5 O 0.05612 0.53391 0.18748 0.0
C6 C 0.92627 0.36942 0.14279 0.0
O7 O 0.99047 0.46652 0.18 0.0
C8 C 0.08 0.47263 0.14103 0.0
C9 C 0.0287 0.51217 0.10415 0.0
O10 O 0.96451 0.38258 0.15328 0.0
O11 O 0.92671 0.40279 0.13243 0.0
O12 O 0.04812 0.43767 0.12949 0.0
O13 O 0.06264 0.49161 0.15464 0.0
O14 O 0.99549 0.47547 0.11079 0.0
O15 O 0.06015 0.54435 0.11807 0.0
C16 C 0.13982 0.62923 0.1591 0.0
O17 O 0.12837 0.59432 0.14381 0.0
O18 O 0.10666 0.6236 0.17169 0.0
C19 C 0.9776 0.54569 0.15077 0.0
Tb20 Tb 0.47168 0.00413 0.50838 0.0
C21 C 0.52198 0.04077 0.46552 0.0
Tb22 Tb 0.56776 0.07674 0.51498 0.0
O23 O 0.45087 0.05468 0.49761 0.0
O24 O 0.50484 0.07489 0.52057 0.0
O25 O 0.48731 0.00737 0.47333 0.0
C26 C 0.64317 0.15334 0.51487 0.0
O27 O 0.55469 0.07301 0.47886 0.0
C28 C 0.55634 0.99171 0.51485 0.0
C29 C 0.51954 0.03734 0.55741 0.0
O30 O 0.63985 0.11185 0.5132 0.0
O31 O 0.60401 0.15179 0.51682 0.0
O32 O 0.58871 0.02673 0.52603 0.0
O33 O 0.53476 0.00586 0.50296 0.0
O34 O 0.55144 0.07381 0.54988 0.0
O35 O 0.48789 0.00413 0.54385 0.0
C36 C 0.39764 0.92561 0.50618 0.0
O37 O 0.40078 0.96571 0.51413 0.0
O38 O 0.43588 0.93002 0.49956 0.0
C39 C 0.48346 0.08941 0.50884 0.0
Tb40 Tb 0.5033 0.49784 0.82678 0.0
C41 C 0.5492 0.4993 0.873 0.0
Tb42 Tb 0.60469 0.51789 0.8295 0.0
O43 O 0.47534 0.42134 0.82124 0.0
O44 O 0.5422 0.463 0.82414 0.0
O45 O 0.51801 0.50699 0.86289 0.0
C46 C 0.68431 0.52037 0.83515 0.0
O47 O 0.58262 0.49601 0.86229 0.0
C48 C 0.58715 0.58909 0.82771 0.0
C49 C 0.55671 0.50446 0.78236 0.0
O50 O 0.66841 0.54376 0.84799 0.0
O51 O 0.65506 0.49494 0.81919 0.0
O52 O 0.62333 0.5877 0.8209 0.0
O53 O 0.56545 0.55371 0.83713 0.0
O54 O 0.5903 0.50286 0.79349 0.0
O55 O 0.52187 0.50651 0.79211 0.0
C56 C 0.4358 0.5198 0.82523 0.0
O57 O 0.47034 0.53553 0.81325 0.0
O58 O 0.4387 0.49064 0.83775 0.0
C59 C 0.51449 0.42171 0.82183 0.0
P60 P 0.59399 0.96781 0.22653 0.0
H61 H 0.55066 0.86784 0.21832 0.0
H62 H 0.47635 0.81297 0.20394 0.0
H63 H 0.44506 0.92568 0.19316 0.0
H64 H 0.52041 0.98034 0.20656 0.0
H65 H 0.65462 0.06227 0.24323 0.0
H66 H 0.69866 0.1292 0.22439 0.0
H67 H 0.63656 0.05283 0.16051 0.0
H68 H 0.59356 0.98519 0.17957 0.0
H69 H 0.6414 0.97281 0.26851 0.0
H70 H 0.52942 0.99529 0.24819 0.0
O71 O 0.62789 0.94226 0.22535 0.0
H72 H 0.62942 0.99001 0.30778 0.0
H73 H 0.51598 0.01056 0.28738 0.0
C74 C 0.54114 0.92808 0.21325 0.0
C75 C 0.5281 0.88073 0.21243 0.0
C76 C 0.48536 0.84938 0.20445 0.0
C77 C 0.4545 0.86486 0.19757 0.0
C78 C 0.46807 0.9125 0.19805 0.0
C79 C 0.51109 0.94383 0.2058 0.0
C80 C 0.62004 0.01908 0.21287 0.0
C81 C 0.64967 0.06016 0.22524 0.0
C82 C 0.67479 0.09858 0.2144 0.0
C83 C 0.671 0.09658 0.1909 0.0
C84 C 0.6405 0.05549 0.17859 0.0
C85 C 0.61553 0.01694 0.18949 0.0
C86 C 0.58568 0.98169 0.25543 0.0
C87 C 0.61396 0.98102 0.27249 0.0
C88 C 0.60691 0.99065 0.29497 0.0
C89 C 0.57135 0.00109 0.30079 0.0
C90 C 0.54382 0.00292 0.28354 0.0
C91 C 0.55116 0.99364 0.26107 0.0
P92 P 0.59624 0.57745 0.54486 0.0
H93 H 0.64378 0.52621 0.52663 0.0
H94 H 0.62023 0.44481 0.5155 0.0
H95 H 0.48312 0.42076 0.52 0.0
H96 H 0.5075 0.50299 0.53193 0.0
H97 H 0.5756 0.64579 0.5713 0.0
H98 H 0.55201 0.70263 0.56115 0.0
H99 H 0.54154 0.64961 0.49134 0.0
H100 H 0.56374 0.59078 0.50179 0.0
H101 H 0.65468 0.56906 0.5784 0.0
H102 H 0.52189 0.55865 0.57429 0.0
O103 O 0.65021 0.60745 0.54113 0.0
H104 H 0.64515 0.55174 0.61742 0.0
H105 H 0.51301 0.54319 0.61362 0.0
C106 C 0.57738 0.52095 0.52965 0.0
C107 C 0.60856 0.50383 0.52448 0.0
C108 C 0.59495 0.45694 0.51811 0.0
C109 C 0.54968 0.42585 0.51688 0.0
C110 C 0.51829 0.44352 0.52103 0.0
C111 C 0.53208 0.49065 0.5275 0.0
C112 C 0.56962 0.61249 0.53742 0.0
C113 C 0.56622 0.64462 0.55389 0.0
C114 C 0.55301 0.67755 0.54805 0.0
C115 C 0.54443 0.6803 0.52548 0.0
C116 C 0.54758 0.648 0.5089 0.0
C117 C 0.55995 0.61423 0.51486 0.0
C118 C 0.58967 0.56703 0.5738 0.0
C119 C 0.62379 0.56383 0.586 0.0
C120 C 0.61827 0.55363 0.60817 0.0
C121 C 0.57859 0.54675 0.61842 0.0
C122 C 0.5441 0.54904 0.60606 0.0
C123 C 0.54928 0.55816 0.58372 0.0
P124 P 0.1381 0.72004 0.89636 0.0
H125 H 0.22332 0.7672 0.87593 0.0
H126 H 0.27535 0.73926 0.85928 0.0
H127 H 0.19136 0.60296 0.87598 0.0
H128 H 0.14025 0.63083 0.89282 0.0
H129 H 0.06769 0.74871 0.89284 0.0
H130 H 0.99625 0.71278 0.87152 0.0
H131 H 0.03686 0.61743 0.83442 0.0
H132 H 0.10826 0.6537 0.85538 0.0
H133 H 0.16514 0.74404 0.94412 0.0
H134 H 0.062 0.63261 0.9021 0.0
O135 O 0.16176 0.77698 0.90308 0.0
H136 H 0.13733 0.70282 0.97695 0.0
H137 H 0.03414 0.59159 0.93472 0.0
C138 C 0.17836 0.70125 0.88592 0.0
C139 C 0.21651 0.73149 0.87627 0.0
C140 C 0.246 0.71555 0.8667 0.0
C141 C 0.23692 0.66899 0.86625 0.0
C142 C 0.19873 0.63891 0.87595 0.0
C143 C 0.16982 0.65498 0.8858 0.0
C144 C 0.09332 0.70399 0.87577 0.0
C145 C 0.06192 0.72132 0.87949 0.0
C146 C 0.02115 0.70075 0.86731 0.0
C147 C 0.01112 0.66217 0.85147 0.0
C148 C 0.04383 0.64699 0.84664 0.0
C149 C 0.08474 0.66787 0.85866 0.0
C150 C 0.11522 0.69187 0.92076 0.0
C151 C 0.13614 0.71113 0.94201 0.0
C152 C 0.12019 0.68758 0.96072 0.0
C153 C 0.08345 0.64407 0.95836 0.0
C154 C 0.06257 0.62495 0.93701 0.0
C155 C 0.07831 0.64865 0.91839 0.0
P156 P 0.05495 0.47214 0.43531 0.0
H157 H 0.13946 0.51251 0.46162 0.0
H158 H 0.18566 0.59033 0.47935 0.0
H159 H 0.08739 0.63376 0.45895 0.0
H160 H 0.0408 0.55528 0.44138 0.0
H161 H 0.02999 0.4177 0.47292 0.0
H162 H 0.95938 0.3782 0.49025 0.0
H163 H 0.89692 0.43173 0.44548 0.0
H164 H 0.96777 0.471 0.42813 0.0
H165 H 0.08968 0.54565 0.40544 0.0
H166 H 0.99888 0.40143 0.40034 0.0
O167 O 0.08233 0.44001 0.43687 0.0
H168 H 0.07556 0.54621 0.3656 0.0
H169 H 0.9854 0.40169 0.36016 0.0
C170 C 0.08712 0.52846 0.44989 0.0
C171 C 0.12757 0.53856 0.46114 0.0
C172 C 0.1538 0.58296 0.47142 0.0
C173 C 0.14007 0.618 0.47047 0.0
C174 C 0.09879 0.60738 0.4598 0.0
C175 C 0.07225 0.56271 0.44979 0.0
C176 C 1.00362 0.44599 0.44885 0.0
C177 C 1.00111 0.42102 0.4669 0.0
C178 C 0.96087 0.39889 0.47693 0.0
C179 C 0.92257 0.40166 0.46911 0.0
C180 C 0.92577 0.4285 0.45163 0.0
C181 C 0.96614 0.45082 0.44169 0.0
C182 C 0.04449 0.47368 0.40601 0.0
C183 C 0.0662 0.51423 0.3959 0.0
C184 C 0.05819 0.51455 0.37308 0.0
C185 C 0.02911 0.47409 0.35989 0.0
C186 C 1.00794 0.43335 0.36998 0.0
C187 C 0.01552 0.43322 0.39289 0.0
P188 P 0.61255 0.0277 0.79399 0.0
H189 H 0.67053 0.12453 0.80706 0.0
H190 H 0.65382 0.18986 0.81687 0.0
H191 H 0.51661 0.09723 0.82367 0.0
H192 H 0.53336 0.03123 0.81343 0.0
H193 H 0.65611 0.99161 0.82313 0.0
H194 H 0.6354 0.91538 0.83406 0.0
H195 H 0.5034 0.8699 0.804 0.0
H196 H 0.52533 0.94674 0.79236 0.0
H197 H 0.5856 0.08473 0.76828 0.0
H198 H 0.59038 0.95346 0.75707 0.0
O199 O 0.66711 0.04611 0.7916 0.0
H200 H 0.56065 0.07697 0.72954 0.0
H201 H 0.56434 0.94512 0.71791 0.0
C202 C 0.60327 0.07285 0.80974 0.0
C203 C 0.63715 0.11792 0.8115 0.0
C204 C 0.62755 0.15538 0.81691 0.0
C205 C 0.58392 0.14848 0.8208 0.0
C206 C 0.55058 0.10334 0.82086 0.0
C207 C 0.56016 0.06568 0.81518 0.0
C208 C 0.59258 0.97461 0.80655 0.0
C209 C 0.62246 0.96553 0.81918 0.0
C210 C 0.61034 0.92173 0.8256 0.0
C211 C 0.56771 0.88599 0.81977 0.0
C212 C 0.53676 0.89622 0.80842 0.0
C213 C 0.5491 0.94025 0.80191 0.0
C214 C 0.58876 0.01901 0.7659 0.0
C215 C 0.58021 0.05354 0.75772 0.0
C216 C 0.56576 0.04907 0.73542 0.0
C217 C 0.56002 0.01021 0.72066 0.0
C218 C 0.56849 0.97551 0.72887 0.0
C219 C 0.58299 0.98004 0.75129 0.0
P220 P 0.51247 0.46613 0.11545 0.0
H221 H 0.55206 0.42988 0.14768 0.0
H222 H 0.62906 0.44579 0.15625 0.0
H223 H 0.67347 0.56623 0.12112 0.0
H224 H 0.59628 0.55044 0.11279 0.0
H225 H 0.44569 0.47768 0.08843 0.0
H226 H 0.38248 0.49224 0.09714 0.0
H227 H 0.41743 0.50861 0.16781 0.0
H228 H 0.4831 0.4952 0.1588 0.0
H229 H 0.51615 0.40129 0.07853 0.0
H230 H 0.53257 0.54131 0.08779 0.0
O231 O 0.48688 0.41018 0.11847 0.0
H232 H 0.52714 0.40647 0.0385 0.0
H233 H 0.54219 0.5464 0.04771 0.0
C234 C 0.5677 0.48862 0.12936 0.0
C235 C 0.57816 0.46064 0.14241 0.0
C236 C 0.62254 0.46966 0.14723 0.0
C237 C 0.65782 0.50677 0.13897 0.0
C238 C 0.64731 0.53672 0.12735 0.0
C239 C 0.60289 0.52796 0.12278 0.0
C240 C 0.47146 0.48784 0.12285 0.0
C241 C 0.4418 0.48677 0.10585 0.0
C242 C 0.40474 0.49463 0.11087 0.0
C243 C 0.39476 0.5023 0.13318 0.0
C244 C 0.42415 0.50316 0.15039 0.0
C245 C 0.4621 0.49604 0.14526 0.0
C246 C 0.52251 0.47056 0.08603 0.0
C247 C 0.52186 0.43308 0.07193 0.0
C248 C 0.52799 0.43605 0.04901 0.0
C249 C 0.53504 0.47668 0.03979 0.0
C250 C 0.53721 0.5147 0.05421 0.0
C251 C 0.53142 0.51176 0.07712 0.0
C252 C 0.16006 0.51741 0.15585 0.0
C253 C 0.12786 0.48182 0.14123 0.0
C254 C 0.20509 0.52526 0.15617 0.0
C255 C 0.2183 0.49617 0.14189 0.0
C256 C 0.18576 0.4602 0.12714 0.0
C257 C 0.14128 0.45371 0.12691 0.0
C258 C 0.23855 0.56472 0.17177 0.0
C259 C 0.19788 0.42827 0.11158 0.0
C260 C 0.33785 0.53126 0.12481 0.0
C261 C 0.35221 0.50612 0.13789 0.0
C262 C 0.29543 0.53024 0.12676 0.0
C263 C 0.26592 0.50306 0.14203 0.0
C264 C 0.28094 0.47932 0.15603 0.0
C265 C 0.32377 0.48126 0.15386 0.0
C266 C 0.28151 0.5566 0.11161 0.0
C267 C 0.2509 0.44999 0.17259 0.0
H268 H 0.15007 0.5391 0.16714 0.0
H269 H 0.11677 0.42608 0.11556 0.0
H270 H 0.2538 0.55139 0.18389 0.0
H271 H 0.26569 0.58793 0.16208 0.0
H272 H 0.22345 0.58515 0.18125 0.0
H273 H 0.16874 0.40162 0.10133 0.0
H274 H 0.22312 0.44829 0.10009 0.0
H275 H 0.2128 0.41082 0.12143 0.0
H276 H 0.35957 0.55111 0.1126 0.0
H277 H 0.33412 0.4614 0.16395 0.0
H278 H 0.26394 0.57446 0.12099 0.0
H279 H 0.25813 0.5322 0.09802 0.0
H280 H 0.3103 0.58241 0.1038 0.0
H281 H 0.23692 0.46995 0.18329 0.0
H282 H 0.26849 0.43686 0.18357 0.0
H283 H 0.22261 0.42018 0.16339 0.0
C284 C 0.68351 0.23775 0.51254 0.0
C285 C 0.68404 0.19474 0.51202 0.0
C286 C 0.72137 0.27646 0.50757 0.0
C287 C 0.76025 0.27163 0.50181 0.0
C288 C 0.76121 0.22849 0.50203 0.0
C289 C 0.72309 0.19059 0.50723 0.0
C290 C 0.71927 0.322 0.50773 0.0
C291 C 0.80194 0.22184 0.49587 0.0
C292 C 0.84236 0.3469 0.46312 0.0
C293 C 0.87895 0.37362 0.478 0.0
C294 C 0.80251 0.31528 0.47085 0.0
C295 C 0.79916 0.31048 0.49405 0.0
C296 C 0.83507 0.33931 0.50931 0.0
C297 C 0.8747 0.37044 0.50108 0.0
C298 C 0.76505 0.28495 0.45401 0.0
C299 C 0.83248 0.33561 0.53419 0.0
H300 H 0.65322 0.24091 0.51628 0.0
H301 H 0.72347 0.1573 0.50684 0.0
H302 H 0.74792 0.34954 0.51786 0.0
H303 H 0.72137 0.33149 0.49039 0.0
H304 H 0.68807 0.32095 0.51458 0.0
H305 H 0.79781 0.18656 0.49777 0.0
H306 H 0.80919 0.22834 0.47819 0.0
H307 H 0.83123 0.24687 0.50653 0.0
H308 H 0.84562 0.34891 0.44524 0.0
H309 H 0.90278 0.39153 0.51266 0.0
H310 H 0.73337 0.28509 0.45927 0.0
H311 H 0.76075 0.24894 0.45317 0.0
H312 H 0.7713 0.29598 0.43693 0.0
H313 H 0.80102 0.33523 0.54019 0.0
H314 H 0.86076 0.36439 0.54402 0.0
H315 H 0.83272 0.30277 0.5376 0.0
C316 C 0.54003 0.63037 0.83756 0.0
C317 C 0.57674 0.62881 0.82701 0.0
C318 C 0.53101 0.66883 0.83724 0.0
C319 C 0.56006 0.70696 0.8266 0.0
C320 C 0.59706 0.70529 0.81586 0.0
C321 C 0.60473 0.66616 0.81608 0.0
C322 C 0.49061 0.66875 0.8483 0.0
C323 C 0.62911 0.74524 0.80445 0.0
C324 C 0.53383 0.80073 0.80733 0.0
C325 C 0.5577 0.83781 0.82374 0.0
C326 C 0.53105 0.75667 0.80899 0.0
C327 C 0.5534 0.74964 0.82724 0.0
C328 C 0.57468 0.78594 0.84466 0.0
C329 C 0.57617 0.82935 0.84281 0.0
C330 C 0.50694 0.71861 0.79033 0.0
C331 C 0.59877 0.77996 0.86448 0.0
H332 H 0.51861 0.60176 0.84626 0.0
H333 H 0.63317 0.66509 0.80791 0.0
H334 H 0.50076 0.69698 0.86228 0.0
H335 H 0.46973 0.67517 0.83603 0.0
H336 H 0.47023 0.63566 0.85497 0.0
H337 H 0.65618 0.73842 0.79684 0.0
H338 H 0.61118 0.75282 0.79108 0.0
H339 H 0.64419 0.77652 0.81677 0.0
H340 H 0.51946 0.80657 0.79247 0.0
H341 H 0.59352 0.85728 0.85594 0.0
H342 H 0.48834 0.68525 0.79706 0.0
H343 H 0.53146 0.71475 0.77895 0.0
H344 H 0.4834 0.72608 0.7803 0.0
H345 H 0.57736 0.74827 0.87193 0.0
H346 H 0.60947 0.80973 0.87772 0.0
H347 H 0.62864 0.77617 0.85878 0.0
C348 C 0.91989 0.57558 0.15423 0.0
C349 C 0.93019 0.53815 0.14932 0.0
C350 C 0.87572 0.57009 0.153 0.0
C351 C 0.84045 0.52603 0.14649 0.0
C352 C 0.85066 0.48801 0.14153 0.0
C353 C 0.89525 0.49453 0.14308 0.0
C354 C 0.86683 0.61165 0.15865 0.0
C355 C 0.8145 0.44042 0.13437 0.0
C356 C 0.72207 0.5057 0.16118 0.0
C357 C 0.70485 0.51237 0.14117 0.0
C358 C 0.76578 0.50977 0.16312 0.0
C359 C 0.79321 0.52019 0.14454 0.0
C360 C 0.77585 0.52649 0.12423 0.0
C361 C 0.73227 0.52279 0.12285 0.0
C362 C 0.78279 0.50333 0.18519 0.0
C363 C 0.80334 0.53702 0.10386 0.0
H364 H 0.94654 0.60948 0.15913 0.0
H365 H 0.90277 0.46553 0.13922 0.0
H366 H 0.851 0.61764 0.14384 0.0
H367 H 0.84333 0.60551 0.17231 0.0
H368 H 0.89761 0.64331 0.16401 0.0
H369 H 0.82764 0.41434 0.13144 0.0
H370 H 0.78965 0.42991 0.14739 0.0
H371 H 0.79687 0.44055 0.11871 0.0
H372 H 0.70149 0.49786 0.17551 0.0
H373 H 0.71929 0.52718 0.10716 0.0
H374 H 0.81234 0.53519 0.19176 0.0
H375 H 0.79343 0.4753 0.18273 0.0
H376 H 0.75738 0.4949 0.198 0.0
H377 H 0.83361 0.56992 0.10769 0.0
H378 H 0.78477 0.53968 0.08913 0.0
H379 H 0.8144 0.50973 0.09931 0.0
C380 C 0.31664 0.87978 0.5112 0.0
C381 C 0.35709 0.88191 0.50386 0.0
C382 C 0.27772 0.83823 0.50802 0.0
C383 C 0.27959 0.79834 0.4971 0.0
C384 C 0.32067 0.80035 0.49006 0.0
C385 C 0.35893 0.84209 0.49362 0.0
C386 C 0.2346 0.83712 0.51601 0.0
C387 C 0.32411 0.75866 0.47829 0.0
C388 C 0.19305 0.67625 0.50006 0.0
C389 C 0.17064 0.66603 0.47898 0.0
C390 C 0.22674 0.72036 0.5069 0.0
C391 C 0.23866 0.75465 0.49213 0.0
C392 C 0.21453 0.74514 0.47132 0.0
C393 C 0.18059 0.70094 0.46505 0.0
C394 C 0.2512 0.72946 0.52938 0.0
C395 C 0.22653 0.78063 0.455 0.0
H396 H 0.31533 0.91063 0.51921 0.0
H397 H 0.39028 0.84369 0.48802 0.0
H398 H 0.211 0.82931 0.50143 0.0
H399 H 0.21907 0.80936 0.52695 0.0
H400 H 0.23927 0.87032 0.52544 0.0
H401 H 0.35875 0.76592 0.47426 0.0
H402 H 0.31159 0.73009 0.48893 0.0
H403 H 0.30313 0.74659 0.46244 0.0
H404 H 0.18501 0.64934 0.51093 0.0
H405 H 0.16354 0.69297 0.44866 0.0
H406 H 0.25481 0.76253 0.53845 0.0
H407 H 0.28509 0.73235 0.52683 0.0
H408 H 0.23403 0.70155 0.54008 0.0
H409 H 0.22918 0.81373 0.46355 0.0
H410 H 0.20183 0.76936 0.44059 0.0
H411 H 0.25944 0.78714 0.44843 0.0
C412 C 0.56543 0.38711 0.83057 0.0
C413 C 0.52407 0.3815 0.82218 0.0
C414 C 0.57466 0.34904 0.83155 0.0
C415 C 0.54202 0.30441 0.8235 0.0
C416 C 0.50019 0.29867 0.81495 0.0
C417 C 0.49154 0.33729 0.81465 0.0
C418 C 0.61937 0.35661 0.84117 0.0
C419 C 0.4649 0.25187 0.80571 0.0
C420 C 0.58327 0.21525 0.80412 0.0
C421 C 0.57271 0.18805 0.82187 0.0
C422 C 0.57298 0.25281 0.80435 0.0
C423 C 0.55238 0.26406 0.82303 0.0
C424 C 0.54182 0.23678 0.8411 0.0
C425 C 0.5516 0.19862 0.84017 0.0
C426 C 0.58392 0.28027 0.78452 0.0
C427 C 0.52067 0.24825 0.8615 0.0
H428 H 0.59038 0.42125 0.8367 0.0
H429 H 0.45953 0.333 0.80818 0.0
H430 H 0.61493 0.33505 0.85501 0.0
H431 H 0.63742 0.34591 0.8281 0.0
H432 H 0.64026 0.39317 0.84769 0.0
H433 H 0.43404 0.25321 0.79981 0.0
H434 H 0.47763 0.23728 0.79145 0.0
H435 H 0.45657 0.22794 0.81872 0.0
H436 H 0.5991 0.20664 0.78983 0.0
H437 H 0.54354 0.17755 0.85389 0.0
H438 H 0.60759 0.31649 0.78998 0.0
H439 H 0.55342 0.28063 0.77744 0.0
H440 H 0.59875 0.26617 0.77104 0.0
H441 H 0.54201 0.28377 0.86926 0.0
H442 H 0.51529 0.22417 0.87428 0.0
H443 H 0.48824 0.24711 0.85652 0.0
C444 C 0.52002 0.90853 0.49872 0.0
C445 C 0.54943 0.94342 0.51458 0.0
C446 C 0.5138 0.86272 0.49856 0.0
C447 C 0.53851 0.85193 0.51427 0.0
C448 C 0.56852 0.88727 0.53018 0.0
C449 C 0.57338 0.93244 0.53022 0.0
C450 C 0.48086 0.82595 0.48162 0.0
C451 C 0.59589 0.8775 0.5471 0.0
C452 C 0.50697 0.73257 0.53122 0.0
C453 C 0.53689 0.71985 0.51953 0.0
C454 C 0.50492 0.77412 0.52849 0.0
C455 C 0.53408 0.80409 0.51404 0.0
C456 C 0.56265 0.79022 0.50129 0.0
C457 C 0.56349 0.74812 0.50408 0.0
C458 C 0.4733 0.78708 0.54203 0.0
C459 C 0.59454 0.82123 0.48584 0.0
H460 H 0.50233 0.91709 0.48624 0.0
H461 H 0.59624 0.95933 0.54248 0.0
H462 H 0.49773 0.80883 0.47108 0.0
H463 H 0.45498 0.79914 0.49043 0.0
H464 H 0.46439 0.84 0.47051 0.0
H465 H 0.61803 0.9089 0.55818 0.0
H466 H 0.57376 0.85174 0.55772 0.0
H467 H 0.6166 0.86266 0.53829 0.0
H468 H 0.48611 0.71061 0.54305 0.0
H469 H 0.58696 0.73866 0.49518 0.0
H470 H 0.45501 0.7997 0.53123 0.0
H471 H 0.49231 0.81547 0.55535 0.0
H472 H 0.4489 0.75769 0.5501 0.0
H473 H 0.57696 0.83368 0.47453 0.0
H474 H 0.61128 0.80364 0.47547 0.0
H475 H 0.62031 0.85189 0.49595 0.0
C476 C 0.75037 0.51848 0.81704 0.0
C477 C 0.73108 0.5289 0.83616 0.0
C478 C 0.79658 0.53453 0.8166 0.0
C479 C 0.82355 0.56087 0.83585 0.0
C480 C 0.80375 0.56862 0.85568 0.0
C481 C 0.75767 0.5528 0.85551 0.0
C482 C 0.8166 0.52578 0.79518 0.0
C483 C 0.83137 0.59574 0.87672 0.0
C484 C 0.94403 0.58718 0.84579 0.0
C485 C 0.96482 0.634 0.84283 0.0
C486 C 0.89803 0.5617 0.84207 0.0
C487 C 0.87254 0.58365 0.83507 0.0
C488 C 0.89388 0.62992 0.83032 0.0
C489 C 0.93987 0.65474 0.83446 0.0
C490 C 0.87646 0.51258 0.84748 0.0
C491 C 0.86781 0.65422 0.8224 0.0
H492 H 0.72964 0.5001 0.80203 0.0
H493 H 0.74257 0.56057 0.87032 0.0
H494 H 0.83336 0.5584 0.78755 0.0
H495 H 0.84213 0.51376 0.79865 0.0
H496 H 0.79114 0.4999 0.78277 0.0
H497 H 0.81062 0.59512 0.89121 0.0
H498 H 0.85493 0.58184 0.88122 0.0
H499 H 0.85127 0.63208 0.87372 0.0
H500 H 0.9633 0.57124 0.8525 0.0
H501 H 0.95611 0.69088 0.83204 0.0
H502 H 0.8507 0.49019 0.83433 0.0
H503 H 0.85978 0.51111 0.86353 0.0
H504 H 0.90105 0.49846 0.8492 0.0
H505 H 0.84358 0.63247 0.80851 0.0
H506 H 0.88968 0.6878 0.81659 0.0
H507 H 0.84877 0.66051 0.83637 0.0
C508 C 0.21998 0.66265 0.15166 0.0
C509 C 0.18498 0.66661 0.1629 0.0
C510 C 0.26383 0.69603 0.15626 0.0
C511 C 0.27267 0.73443 0.17232 0.0
C512 C 0.23719 0.73926 0.18322 0.0
C513 C 0.19367 0.70501 0.17848 0.0
C514 C 0.30077 0.68922 0.14456 0.0
C515 C 0.24535 0.78 0.20028 0.0
C516 C 0.38631 0.79297 0.20251 0.0
C517 C 0.40792 0.83143 0.19086 0.0
C518 C 0.34241 0.76105 0.19653 0.0
C519 C 0.31922 0.76809 0.17869 0.0
C520 C 0.34056 0.80694 0.16694 0.0
C521 C 0.38476 0.83805 0.17309 0.0
C522 C 0.32083 0.7198 0.20936 0.0
C523 C 0.31674 0.81548 0.14782 0.0
H524 H 0.21328 0.63267 0.13974 0.0
H525 H 0.1665 0.70801 0.18713 0.0
H526 H 0.32342 0.72106 0.13758 0.0
H527 H 0.32069 0.68152 0.15686 0.0
H528 H 0.28798 0.6605 0.13074 0.0
H529 H 0.21396 0.78017 0.20612 0.0
H530 H 0.26508 0.77942 0.21504 0.0
H531 H 0.26495 0.81255 0.19304 0.0
H532 H 0.40354 0.78802 0.21656 0.0
H533 H 0.40133 0.86734 0.16382 0.0
H534 H 0.3093 0.68761 0.19767 0.0
H535 H 0.2912 0.72016 0.21743 0.0
H536 H 0.34374 0.71892 0.22253 0.0
H537 H 0.30653 0.78642 0.13426 0.0
H538 H 0.33771 0.84786 0.14072 0.0
H539 H 0.28607 0.81731 0.15366 0.0
C540 C 0.46892 0.151 0.49384 0.0
C541 C 0.49189 0.13818 0.50919 0.0
C542 C 0.47662 0.1972 0.49395 0.0
C543 C 0.50832 0.23141 0.50968 0.0
C544 C 0.53168 0.21855 0.52517 0.0
C545 C 0.52275 0.17202 0.52492 0.0
C546 C 0.45077 0.2094 0.47728 0.0
C547 C 0.56614 0.25392 0.54204 0.0
C548 C 0.55893 0.35709 0.49877 0.0
C549 C 0.53609 0.37518 0.51328 0.0
C550 C 0.54986 0.31032 0.4972 0.0
C551 C 0.51667 0.28058 0.51019 0.0
C552 C 0.49242 0.29818 0.52426 0.0
C553 C 0.50253 0.34519 0.52572 0.0
C554 C 0.57671 0.29302 0.4821 0.0
C555 C 0.45666 0.26761 0.53834 0.0
H556 H 0.44488 0.12488 0.48171 0.0
H557 H 0.53982 0.16211 0.53715 0.0
H558 H 0.43171 0.22601 0.4863 0.0
H559 H 0.47391 0.23456 0.46671 0.0
H560 H 0.4273 0.17879 0.46617 0.0
H561 H 0.58214 0.23842 0.55255 0.0
H562 H 0.59228 0.28052 0.53325 0.0
H563 H 0.5506 0.27161 0.55319 0.0
H564 H 0.58446 0.37968 0.48883 0.0
H565 H 0.48514 0.35871 0.53727 0.0
H566 H 0.55434 0.26333 0.47019 0.0
H567 H 0.59617 0.28075 0.49232 0.0
H568 H 0.60002 0.32005 0.47237 0.0
H569 H 0.432 0.23718 0.52762 0.0
H570 H 0.43904 0.2859 0.54739 0.0
H571 H 0.47156 0.25472 0.55086 0.0
C572 C 0.37369 0.5275 0.84467 0.0
C573 C 0.40337 0.53901 0.82748 0.0
C574 C 0.34675 0.55016 0.84906 0.0
C575 C 0.34924 0.58462 0.83568 0.0
C576 C 0.37807 0.59521 0.81776 0.0
C577 C 0.40509 0.5724 0.81395 0.0
C578 C 0.317 0.53859 0.86861 0.0
C579 C 0.38142 0.63155 0.80308 0.0
C580 C 0.25072 0.61229 0.84023 0.0
C581 C 0.2673 0.65131 0.85612 0.0
C582 C 0.27794 0.59175 0.83239 0.0
C583 C 0.32236 0.61018 0.84107 0.0
C584 C 0.3397 0.65071 0.85648 0.0
C585 C 0.31197 0.67118 0.86361 0.0
C586 C 0.25867 0.5493 0.81551 0.0
C587 C 0.38708 0.67189 0.86594 0.0
H588 H 0.3727 0.50198 0.85526 0.0
H589 H 0.42842 0.58158 0.80075 0.0
H590 H 0.32693 0.56955 0.88104 0.0
H591 H 0.28209 0.52807 0.86281 0.0
H592 H 0.3185 0.51046 0.87715 0.0
H593 H 0.40076 0.6312 0.78811 0.0
H594 H 0.34789 0.62658 0.79742 0.0
H595 H 0.39802 0.66601 0.81287 0.0
H596 H 0.21617 0.59737 0.83429 0.0
H597 H 0.32463 0.70146 0.87587 0.0
H598 H 0.25605 0.51901 0.82356 0.0
H599 H 0.28086 0.55311 0.80138 0.0
H600 H 0.22517 0.54229 0.80868 0.0
H601 H 0.39654 0.64522 0.87095 0.0
H602 H 0.3927 0.69771 0.88072 0.0
H603 H 0.40946 0.6895 0.85286 0.0
C604 C 0.84585 0.31661 0.13476 0.0
C605 C 0.88684 0.32629 0.14532 0.0
C606 C 0.80722 0.27804 0.13914 0.0
C607 C 0.80985 0.24903 0.1546 0.0
C608 C 0.85152 0.25798 0.16471 0.0
C609 C 0.88954 0.2964 0.15985 0.0
C610 C 0.76348 0.26922 0.12782 0.0
C611 C 0.85574 0.22803 0.18138 0.0
C612 C 0.71334 0.18141 0.18895 0.0
C613 C 0.70143 0.1361 0.17939 0.0
C614 C 0.74708 0.21881 0.18027 0.0
C615 C 0.76907 0.21079 0.16139 0.0
C616 C 0.7551 0.16549 0.1507 0.0
C617 C 0.72164 0.12863 0.15991 0.0
C618 C 0.76101 0.26664 0.19218 0.0
C619 C 0.77728 0.15563 0.13033 0.0
H620 H 0.84378 0.33976 0.1235 0.0
H621 H 0.92124 0.3039 0.16805 0.0
H622 H 0.74627 0.23299 0.12005 0.0
H623 H 0.74159 0.27456 0.14047 0.0
H624 H 0.76772 0.29234 0.11468 0.0
H625 H 0.89077 0.23875 0.18711 0.0
H626 H 0.83663 0.22963 0.19626 0.0
H627 H 0.84153 0.19162 0.17383 0.0
H628 H 0.69721 0.18756 0.20369 0.0
H629 H 0.71297 0.09379 0.15247 0.0
H630 H 0.76249 0.29075 0.18003 0.0
H631 H 0.79482 0.27939 0.20017 0.0
H632 H 0.73808 0.26754 0.20536 0.0
H633 H 0.78099 0.17998 0.11791 0.0
H634 H 0.7584 0.11992 0.12208 0.0
H635 H 0.81106 0.16044 0.13539 0.0
C636 C 0.07336 0.54143 0.0716 0.0
C637 C 0.03146 0.51935 0.08027 0.0
C638 C 0.0779 0.55575 0.05017 0.0
C639 C 0.03954 0.54843 0.03721 0.0
C640 C 0.99691 0.52382 0.04536 0.0
C641 C 0.99334 0.50919 0.06684 0.0
C642 C 0.12394 0.58106 0.04197 0.0
C643 C 0.95531 0.51547 0.03201 0.0
C644 C 0.06303 0.64018 -0.00162 0.0
C645 C 0.06796 0.6181 0.97799 0.0
C646 C 0.05134 0.61694 0.01751 0.0
C647 C 0.04485 0.57062 0.01626 0.0
C648 C 0.04819 0.54761 0.99552 0.0
C649 C 0.05961 0.57163 0.97658 0.0
C650 C 0.04772 0.64257 0.03929 0.0
C651 C 0.0419 0.49842 0.99357 0.0
H652 H 0.10286 0.54877 0.08192 0.0
H653 H 0.96093 0.49228 0.07362 0.0
H654 H 0.12606 0.5662 0.02478 0.0
H655 H 0.1313 0.61765 0.0412 0.0
H656 H 0.14991 0.57983 0.0531 0.0
H657 H 0.92489 0.49099 0.03932 0.0
H658 H 0.95315 0.54854 0.03162 0.0
H659 H 0.95626 0.50184 0.01439 0.0
H660 H 0.06883 0.67588 -0.00059 0.0
H661 H 0.06369 0.55454 0.96086 0.0
H662 H 0.07496 0.64741 0.05139 0.0
H663 H 0.01592 0.62234 0.04689 0.0
H664 H 0.04971 0.67692 0.03698 0.0
H665 H 0.06995 0.49679 0.00271 0.0
H666 H 0.04041 0.48386 0.97584 0.0
H667 H 0.01102 0.47649 0.0014 0.0
C668 C 0.49089 0.01019 0.42608 0.0
C669 C 0.52648 0.03993 0.44095 0.0
C670 C 0.49614 0.00599 0.40288 0.0
C671 C 0.53811 0.03173 0.3944 0.0
C672 C 0.57371 0.06298 0.40924 0.0
C673 C 0.56739 0.06691 0.43231 0.0
C674 C 0.45721 0.97286 0.38752 0.0
C675 C 0.61906 0.09078 0.40087 0.0
C676 C 0.56735 0.98201 0.3404 0.0
C677 C 0.56253 0.00906 0.32476 0.0
C678 C 0.5594 0.98903 0.36307 0.0
C679 C 0.54574 0.02361 0.3703 0.0
C680 C 0.54025 0.05071 0.35461 0.0
C681 C 0.54894 0.04329 0.33204 0.0
C682 C 0.5658 0.95953 0.37932 0.0
C683 C 0.52546 0.0877 0.3617 0.0
H684 H 0.45905 0.98952 0.43258 0.0
H685 H 0.59514 0.08999 0.44364 0.0
H686 H 0.4524 0.99023 0.37346 0.0
H687 H 0.46393 0.94391 0.3801 0.0
H688 H 0.42591 0.95856 0.39646 0.0
H689 H 0.64242 0.11568 0.41436 0.0
H690 H 0.63329 0.06731 0.39393 0.0
H691 H 0.61649 0.10998 0.3871 0.0
H692 H 0.57696 0.95489 0.33487 0.0
H693 H 0.54561 0.06472 0.32015 0.0
H694 H 0.5343 0.94048 0.38742 0.0
H695 H 0.59091 0.98161 0.39282 0.0
H696 H 0.57681 0.93429 0.37101 0.0
H697 H 0.49355 0.07278 0.37004 0.0
H698 H 0.52118 0.10462 0.3473 0.0
H699 H 0.55021 0.11432 0.3741 0.0
C700 C 0.52018 0.48877 0.74408 0.0
C701 C 0.55908 0.50612 0.75791 0.0
C702 C 0.52206 0.4924 0.72096 0.0
C703 C 0.56379 0.51511 0.71164 0.0
C704 C 0.60319 0.53241 0.72553 0.0
C705 C 0.60037 0.52716 0.74847 0.0
C706 C 0.47942 0.47246 0.70657 0.0
C707 C 0.64825 0.55781 0.71631 0.0
C708 C 0.57632 0.4991 0.64887 0.0
C709 C 0.57348 0.53778 0.64209 0.0
C710 C 0.57214 0.49063 0.67142 0.0
C711 C 0.56625 0.52234 0.68753 0.0
C712 C 0.56357 0.5616 0.68068 0.0
C713 C 0.56665 0.56852 0.65794 0.0
C714 C 0.57406 0.44785 0.67801 0.0
C715 C 0.55835 0.59675 0.69742 0.0
H716 H 0.48822 0.47221 0.75134 0.0
H717 H 0.63049 0.54105 0.75918 0.0
H718 H 0.47462 0.50048 0.69964 0.0
H719 H 0.48114 0.44912 0.69214 0.0
H720 H 0.45 0.45302 0.71611 0.0
H721 H 0.67568 0.56864 0.72931 0.0
H722 H 0.65355 0.53578 0.70239 0.0
H723 H 0.64997 0.58887 0.70934 0.0
H724 H 0.58138 0.47532 0.63647 0.0
H725 H 0.5648 0.59857 0.65257 0.0
H726 H 0.54393 0.42762 0.68687 0.0
H727 H 0.60308 0.45748 0.68981 0.0
H728 H 0.57661 0.42557 0.66328 0.0
H729 H 0.52734 0.58023 0.70633 0.0
H730 H 0.55737 0.62565 0.68937 0.0
H731 H 0.58633 0.61096 0.71026 0.0
C732 C 0.49222 0.99073 0.58962 0.0
C733 C 0.52063 0.03217 0.58162 0.0
C734 C 0.49513 0.98414 0.61222 0.0
C735 C 0.5271 0.01989 0.62717 0.0
C736 C 0.55517 0.06215 0.61933 0.0
C737 C 0.55165 0.06775 0.59665 0.0
C738 C 0.46471 0.93858 0.61998 0.0
C739 C 0.58951 0.1012 0.63482 0.0
C740 C 0.51635 0.02252 0.69016 0.0
C741 C 0.54795 0.00776 0.69655 0.0
C742 C 0.50824 0.02537 0.66756 0.0
C743 C 0.53214 0.01293 0.65093 0.0
C744 C 0.56273 0.99618 0.65715 0.0
C745 C 0.57033 0.99388 0.6799 0.0
C746 C 0.47523 0.04321 0.66156 0.0
C747 C 0.58872 0.98241 0.63986 0.0
H748 H 0.46824 0.96293 0.57815 0.0
H749 H 0.57366 0.09993 0.59067 0.0
H750 H 0.48463 0.92159 0.62586 0.0
H751 H 0.4462 0.94408 0.63438 0.0
H752 H 0.44046 0.91496 0.60646 0.0
H753 H 0.60781 0.13235 0.62625 0.0
H754 H 0.57339 0.11051 0.64934 0.0
H755 H 0.6138 0.09022 0.64157 0.0
H756 H 0.49845 0.03263 0.70293 0.0
H757 H 0.59515 0.98294 0.68471 0.0
H758 H 0.45048 0.01877 0.64848 0.0
H759 H 0.4927 0.07636 0.65447 0.0
H760 H 0.45741 0.04873 0.6763 0.0
H761 H 0.56593 0.95726 0.62631 0.0
H762 H 0.60882 0.96701 0.64726 0.0
H763 H 0.61136 0.01306 0.63201 0.0
C764 C 0.51789 0.50666 0.91028 0.0
C765 C 0.54721 0.49506 0.89738 0.0
C766 C 0.51629 0.50355 0.93345 0.0
C767 C 0.5444 0.48811 0.94395 0.0
C768 C 0.57381 0.47599 0.93103 0.0
C769 C 0.57498 0.47977 0.90792 0.0
C770 C 0.4847 0.51708 0.94671 0.0
C771 C 0.60401 0.459 0.94161 0.0
C772 C 0.56894 0.51932 0.00689 0.0
C773 C 0.53877 0.47904 0.01519 0.0
C774 C 0.57126 0.52267 0.98374 0.0
C775 C 0.54304 0.48469 0.9685 0.0
C776 C 0.51309 0.44367 0.97671 0.0
C777 C 0.51116 0.44141 -6e-05 0.0
C778 C 0.6036 0.56704 0.97562 0.0
C779 C 0.48263 0.40235 0.96097 0.0
H780 H 0.49644 0.51868 0.90233 0.0
H781 H 0.59759 0.47047 0.89811 0.0
H782 H 0.46136 0.48757 0.95505 0.0
H783 H 0.50349 0.5454 0.96011 0.0
H784 H 0.46513 0.52851 0.93603 0.0
H785 H 0.62465 0.45056 0.92918 0.0
H786 H 0.62634 0.48553 0.95485 0.0
H787 H 0.58402 0.42781 0.9498 0.0
H788 H 0.59088 0.54831 0.0185 0.0
H789 H 0.48726 0.4104 0.00617 0.0
H790 H 0.58537 0.58138 0.96586 0.0
H791 H 0.62672 0.56042 0.96421 0.0
H792 H 0.62336 0.59332 0.98964 0.0
H793 H 0.45989 0.41132 0.95122 0.0
H794 H 0.46239 0.37247 0.97 0.0
H795 H 0.5023 0.39191 0.94875 0.0
C796 C 0.97938 0.46519 0.22746 0.0
C797 C 0.0193 0.49369 0.21848 0.0
C798 C 0.9773 0.46022 0.25048 0.0
C799 C 0.01621 0.48368 0.2647 0.0
C800 C 0.05661 0.51225 0.25567 0.0
C801 C 0.05757 0.5172 0.23273 0.0
C802 C 0.93351 0.43002 0.25959 0.0
C803 C 0.099 0.5373 0.27021 0.0
C804 C 0.01268 0.50842 0.32765 0.0
C805 C 0.02217 0.47428 0.33552 0.0
C806 C 0.0087 0.51067 0.30458 0.0
C807 C 0.01515 0.47846 0.28905 0.0
C808 C 0.02375 0.44326 0.29691 0.0
C809 C 0.02684 0.44141 0.32008 0.0
C810 C 0.9988 0.54824 0.29683 0.0
C811 C 0.03149 0.40873 0.28089 0.0
H812 H 0.94966 0.44708 0.21654 0.0
H813 H 0.08866 0.53894 0.2259 0.0
H814 H 0.93635 0.40172 0.26731 0.0
H815 H 0.9246 0.45033 0.27297 0.0
H816 H 0.90615 0.41479 0.24639 0.0
H817 H 0.12778 0.55759 0.2605 0.0
H818 H 0.09488 0.56096 0.28371 0.0
H819 H 0.10665 0.51225 0.27843 0.0
H820 H 0.00859 0.53354 0.33961 0.0
H821 H 0.03455 0.41522 0.32617 0.0
H822 H 0.97038 0.53335 0.28425 0.0
H823 H 0.02787 0.57241 0.28855 0.0
H824 H 0.99097 0.56806 0.31092 0.0
H825 H 1.0035 0.39153 0.26814 0.0
H826 H 0.03531 0.382 0.28964 0.0
H827 H 0.06197 0.42672 0.27181 0.0
loop_
_geom_bond_atom_site_label_1
_geom_bond_atom_site_label_2
_geom_bond_distance
_geom_bond_site_symmetry_2
_ccdc_geom_bond_type
Tb0 O3 2.453 1_455 S
Tb0 O4 2.596 1_455 S
Tb0 O5 2.374 . S
Tb0 O13 2.343 . S
Tb0 O15 2.353 . S
Tb0 O17 2.427 . S
Tb0 O18 2.513 . S
C1 O5 1.251 . S
C1 O7 1.263 . S
Tb2 O4 2.343 1_455 S
Tb2 O7 2.353 . S
Tb2 O10 2.427 1_455 S
Tb2 O11 2.513 1_455 S
Tb2 O12 2.453 . S
Tb2 O13 2.596 . S
Tb2 O14 2.374 . S
O3 Tb0 2.453 1_655 S
O3 C19 1.245 . S
O4 Tb0 2.596 1_655 S
O4 Tb2 2.343 1_655 S
O4 C19 1.259 . S
O5 Tb0 2.374 . S
O5 C1 1.251 . S
C6 O10 1.275 . S
C6 O11 1.246 . S
O7 C1 1.263 . S
O7 Tb2 2.353 . S
C8 O12 1.245 . S
C8 O13 1.259 . S
C9 O14 1.250 . S
C9 O15 1.263 . S
O10 Tb2 2.427 1_655 S
O10 C6 1.275 . S
O11 Tb2 2.513 1_655 S
O11 C6 1.246 . S
O12 Tb2 2.453 . S
O12 C8 1.245 . S
O13 Tb0 2.343 . S
O13 Tb2 2.596 . S
O13 C8 1.259 . S
O14 Tb2 2.374 . S
O14 C9 1.250 . S
O15 Tb0 2.353 . S
O15 C9 1.263 . S
C16 O17 1.275 . S
C16 O18 1.246 . S
O17 Tb0 2.427 . S
O17 C16 1.275 . S
O18 Tb0 2.513 . S
O18 C16 1.246 . S
C19 O3 1.245 . S
C19 O4 1.259 . S
Tb20 O23 2.453 . S
Tb20 O24 2.596 . S
Tb20 O25 2.374 . S
Tb20 O33 2.343 1_545 S
Tb20 O35 2.353 . S
Tb20 O37 2.427 1_545 S
Tb20 O38 2.513 1_545 S
C21 O25 1.251 . S
C21 O27 1.263 . S
Tb22 O24 2.343 . S
Tb22 O27 2.353 . S
Tb22 O30 2.427 . S
Tb22 O31 2.513 . S
Tb22 O32 2.453 1_545 S
Tb22 O33 2.596 1_545 S
Tb22 O34 2.374 . S
O23 Tb20 2.453 . S
O23 C39 1.245 . S
O24 Tb20 2.596 . S
O24 Tb22 2.343 . S
O24 C39 1.259 . S
O25 Tb20 2.374 . S
O25 C21 1.251 . S
C26 O30 1.275 . S
C26 O31 1.246 . S
O27 C21 1.263 . S
O27 Tb22 2.353 . S
C28 O32 1.245 . S
C28 O33 1.259 . S
C29 O34 1.250 . S
C29 O35 1.263 . S
O30 Tb22 2.427 . S
O30 C26 1.275 . S
O31 Tb22 2.513 . S
O31 C26 1.246 . S
O32 Tb22 2.453 1_565 S
O32 C28 1.245 . S
O33 Tb20 2.343 1_565 S
O33 Tb22 2.596 1_565 S
O33 C28 1.259 . S
O34 Tb22 2.374 . S
O34 C29 1.250 . S
O35 Tb20 2.353 . S
O35 C29 1.263 . S
C36 O37 1.275 . S
C36 O38 1.246 . S
O37 Tb20 2.427 1_565 S
O37 C36 1.275 . S
O38 Tb20 2.513 1_565 S
O38 C36 1.246 . S
C39 O23 1.245 . S
C39 O24 1.259 . S
Tb40 O43 2.453 . S
Tb40 O44 2.596 . S
Tb40 O45 2.374 . S
Tb40 O53 2.343 . S
Tb40 O55 2.353 . S
Tb40 O57 2.427 . S
Tb40 O58 2.513 . S
C41 O45 1.251 . S
C41 O47 1.263 . S
Tb42 O44 2.343 . S
Tb42 O47 2.353 . S
Tb42 O50 2.427 . S
Tb42 O51 2.513 . S
Tb42 O52 2.453 . S
Tb42 O53 2.596 . S
Tb42 O54 2.374 . S
O43 Tb40 2.453 . S
O43 C59 1.245 . S
O44 Tb40 2.596 . S
O44 Tb42 2.343 . S
O44 C59 1.259 . S
O45 Tb40 2.374 . S
O45 C41 1.251 . S
C46 O50 1.275 . S
C46 O51 1.246 . S
O47 C41 1.263 . S
O47 Tb42 2.353 . S
C48 O52 1.245 . S
C48 O53 1.259 . S
C49 O54 1.250 . S
C49 O55 1.263 . S
O50 Tb42 2.427 . S
O50 C46 1.275 . S
O51 Tb42 2.513 . S
O51 C46 1.246 . S
O52 Tb42 2.453 . S
O52 C48 1.245 . S
O53 Tb40 2.343 . S
O53 Tb42 2.596 . S
O53 C48 1.259 . S
O54 Tb42 2.374 . S
O54 C49 1.250 . S
O55 Tb40 2.353 . S
O55 C49 1.263 . S
C56 O57 1.275 . S
C56 O58 1.246 . S
O57 Tb40 2.427 . S
O57 C56 1.275 . S
O58 Tb40 2.513 . S
O58 C56 1.246 . S
C59 O43 1.245 . S
C59 O44 1.259 . S
P60 O71 1.490 1_545 S
P60 C74 1.812 1_545 S
P60 C80 1.803 . S
P60 C86 1.819 . S
H61 C75 0.941 . S
H62 C76 0.939 . S
H63 C78 0.940 . S
H64 C79 0.940 1_545 S
H65 C81 0.939 . S
H66 C82 0.942 . S
H67 C84 0.940 . S
H68 C85 0.939 . S
H69 C87 0.941 . S
H70 C91 0.939 . S
O71 P60 1.490 1_565 S
H72 C88 0.939 1_565 S
H73 C90 0.940 . S
C74 P60 1.812 1_565 S
C74 C75 1.389 . S
C74 C79 1.391 . S
C75 H61 0.941 . S
C75 C74 1.389 . S
C75 C76 1.397 . S
C76 H62 0.939 . S
C76 C75 1.397 . S
C76 C77 1.378 . S
C77 C76 1.378 . S
C77 C78 1.378 . S
C78 H63 0.940 . S
C78 C77 1.378 . S
C78 C79 1.396 . S
C79 H64 0.940 1_565 S
C79 C74 1.391 . S
C79 C78 1.396 . S
C80 P60 1.803 . S
C80 C81 1.378 . S
C80 C85 1.400 . S
C81 H65 0.939 . S
C81 C80 1.378 . S
C81 C82 1.361 . S
C82 H66 0.942 . S
C82 C81 1.361 . S
C82 C83 1.369 . S
C83 C82 1.369 . S
C83 C84 1.404 . S
C84 H67 0.940 . S
C84 C83 1.404 . S
C84 C85 1.389 . S
C85 H68 0.939 . S
C85 C80 1.400 . S
C85 C84 1.389 . S
C86 P60 1.819 . S
C86 C87 1.391 1_545 S
C86 C91 1.391 . S
C87 H69 0.941 . S
C87 C86 1.391 1_565 S
C87 C88 1.396 1_565 S
C88 H72 0.939 1_545 S
C88 C87 1.396 1_545 S
C88 C89 1.397 . S
C89 C88 1.397 . S
C89 C90 1.385 . S
C90 H73 0.940 . S
C90 C89 1.385 . S
C90 C91 1.388 . S
C91 H70 0.939 . S
C91 C86 1.391 . S
C91 C90 1.388 . S
P92 O103 1.490 . S
P92 C106 1.812 . S
P92 C112 1.803 . S
P92 C118 1.819 . S
H93 C107 0.941 . S
H94 C108 0.939 . S
H95 C110 0.940 . S
H96 C111 0.940 . S
H97 C113 0.939 . S
H98 C114 0.942 . S
H99 C116 0.940 . S
H100 C117 0.939 . S
H101 C119 0.941 . S
H102 C123 0.939 . S
O103 P92 1.490 . S
H104 C120 0.939 . S
H105 C122 0.940 . S
C106 P92 1.812 . S
C106 C107 1.389 . S
C106 C111 1.391 . S
C107 H93 0.941 . S
C107 C106 1.389 . S
C107 C108 1.397 . S
C108 H94 0.939 . S
C108 C107 1.397 . S
C108 C109 1.378 . S
C109 C108 1.378 . S
C109 C110 1.378 . S
C110 H95 0.940 . S
C110 C109 1.378 . S
C110 C111 1.396 . S
C111 H96 0.940 . S
C111 C106 1.391 . S
C111 C110 1.396 . S
C112 P92 1.803 . S
C112 C113 1.378 . S
C112 C117 1.400 . S
C113 H97 0.939 . S
C113 C112 1.378 . S
C113 C114 1.361 . S
C114 H98 0.942 . S
C114 C113 1.361 . S
C114 C115 1.369 . S
C115 C114 1.369 . S
C115 C116 1.404 . S
C116 H99 0.940 . S
C116 C115 1.404 . S
C116 C117 1.389 . S
C117 H100 0.939 . S
C117 C112 1.400 . S
C117 C116 1.389 . S
C118 P92 1.819 . S
C118 C119 1.391 . S
C118 C123 1.391 . S
C119 H101 0.941 . S
C119 C118 1.391 . S
C119 C120 1.396 . S
C120 H104 0.939 . S
C120 C119 1.396 . S
C120 C121 1.397 . S
C121 C120 1.397 . S
C121 C122 1.385 . S
C122 H105 0.940 . S
C122 C121 1.385 . S
C122 C123 1.388 . S
C123 H102 0.939 . S
C123 C118 1.391 . S
C123 C122 1.388 . S
P124 O135 1.490 . S
P124 C138 1.812 . S
P124 C144 1.803 . S
P124 C150 1.819 . S
H125 C139 0.941 . S
H126 C140 0.939 . S
H127 C142 0.940 . S
H128 C143 0.940 . S
H129 C145 0.939 . S
H130 C146 0.942 . S
H131 C148 0.940 . S
H132 C149 0.939 . S
H133 C151 0.941 . S
H134 C155 0.939 . S
O135 P124 1.490 . S
H136 C152 0.939 . S
H137 C154 0.940 . S
C138 P124 1.812 . S
C138 C139 1.389 . S
C138 C143 1.391 . S
C139 H125 0.941 . S
C139 C138 1.389 . S
C139 C140 1.397 . S
C140 H126 0.939 . S
C140 C139 1.397 . S
C140 C141 1.378 . S
C141 C140 1.378 . S
C141 C142 1.378 . S
C142 H127 0.940 . S
C142 C141 1.378 . S
C142 C143 1.396 . S
C143 H128 0.940 . S
C143 C138 1.391 . S
C143 C142 1.396 . S
C144 P124 1.803 . S
C144 C145 1.378 . S
C144 C149 1.400 . S
C145 H129 0.939 . S
C145 C144 1.378 . S
C145 C146 1.361 1_455 S
C146 H130 0.942 . S
C146 C145 1.361 1_655 S
C146 C147 1.369 . S
C147 C146 1.369 . S
C147 C148 1.404 . S
C148 H131 0.940 . S
C148 C147 1.404 . S
C148 C149 1.389 1_655 S
C149 H132 0.939 . S
C149 C144 1.400 . S
C149 C148 1.389 1_455 S
C150 P124 1.819 . S
C150 C151 1.391 . S
C150 C155 1.391 . S
C151 H133 0.941 . S
C151 C150 1.391 . S
C151 C152 1.396 . S
C152 H136 0.939 . S
C152 C151 1.396 . S
C152 C153 1.397 . S
C153 C152 1.397 . S
C153 C154 1.385 . S
C154 H137 0.940 . S
C154 C153 1.385 . S
C154 C155 1.388 . S
C155 H134 0.939 . S
C155 C150 1.391 . S
C155 C154 1.388 . S
P156 O167 1.490 . S
P156 C170 1.812 . S
P156 C176 1.803 1_455 S
P156 C182 1.819 . S
H157 C171 0.941 . S
H158 C172 0.939 . S
H159 C174 0.940 . S
H160 C175 0.940 . S
H161 C177 0.939 . S
H162 C178 0.942 . S
H163 C180 0.940 . S
H164 C181 0.939 . S
H165 C183 0.941 . S
H166 C187 0.939 . S
O167 P156 1.490 . S
H168 C184 0.939 . S
H169 C186 0.940 . S
C170 P156 1.812 . S
C170 C171 1.389 . S
C170 C175 1.391 . S
C171 H157 0.941 . S
C171 C170 1.389 . S
C171 C172 1.397 . S
C172 H158 0.939 . S
C172 C171 1.397 . S
C172 C173 1.378 . S
C173 C172 1.378 . S
C173 C174 1.378 . S
C174 H159 0.940 . S
C174 C173 1.378 . S
C174 C175 1.396 . S
C175 H160 0.940 . S
C175 C170 1.391 . S
C175 C174 1.396 . S
C176 P156 1.803 1_655 S
C176 C177 1.378 . S
C176 C181 1.400 . S
C177 H161 0.939 . S
C177 C176 1.378 . S
C177 C178 1.361 . S
C178 H162 0.942 . S
C178 C177 1.361 . S
C178 C179 1.369 . S
C179 C178 1.369 . S
C179 C180 1.404 . S
C180 H163 0.940 . S
C180 C179 1.404 . S
C180 C181 1.389 . S
C181 H164 0.939 . S
C181 C176 1.400 . S
C181 C180 1.389 . S
C182 P156 1.819 . S
C182 C183 1.391 . S
C182 C187 1.391 1_455 S
C183 H165 0.941 . S
C183 C182 1.391 . S
C183 C184 1.396 . S
C184 H168 0.939 . S
C184 C183 1.396 . S
C184 C185 1.397 . S
C185 C184 1.397 . S
C185 C186 1.385 1_455 S
C186 H169 0.940 . S
C186 C185 1.385 1_655 S
C186 C187 1.388 . S
C187 H166 0.939 . S
C187 C182 1.391 1_655 S
C187 C186 1.388 . S
P188 O199 1.490 . S
P188 C202 1.812 . S
P188 C208 1.803 1_545 S
P188 C214 1.819 . S
H189 C203 0.941 . S
H190 C204 0.939 . S
H191 C206 0.940 . S
H192 C207 0.940 . S
H193 C209 0.939 . S
H194 C210 0.942 . S
H195 C212 0.940 . S
H196 C213 0.939 . S
H197 C215 0.941 . S
H198 C219 0.939 . S
O199 P188 1.490 . S
H200 C216 0.939 . S
H201 C218 0.940 . S
C202 P188 1.812 . S
C202 C203 1.389 . S
C202 C207 1.391 . S
C203 H189 0.941 . S
C203 C202 1.389 . S
C203 C204 1.397 . S
C204 H190 0.939 . S
C204 C203 1.397 . S
C204 C205 1.378 . S
C205 C204 1.378 . S
C205 C206 1.378 . S
C206 H191 0.940 . S
C206 C205 1.378 . S
C206 C207 1.396 . S
C207 H192 0.940 . S
C207 C202 1.391 . S
C207 C206 1.396 . S
C208 P188 1.803 1_565 S
C208 C209 1.378 . S
C208 C213 1.400 . S
C209 H193 0.939 . S
C209 C208 1.378 . S
C209 C210 1.361 . S
C210 H194 0.942 . S
C210 C209 1.361 . S
C210 C211 1.369 . S
C211 C210 1.369 . S
C211 C212 1.404 . S
C212 H195 0.940 . S
C212 C211 1.404 . S
C212 C213 1.389 . S
C213 H196 0.939 . S
C213 C208 1.400 . S
C213 C212 1.389 . S
C214 P188 1.819 . S
C214 C215 1.391 . S
C214 C219 1.391 1_545 S
C215 H197 0.941 . S
C215 C214 1.391 . S
C215 C216 1.396 . S
C216 H200 0.939 . S
C216 C215 1.396 . S
C216 C217 1.397 . S
C217 C216 1.397 . S
C217 C218 1.385 1_545 S
C218 H201 0.940 . S
C218 C217 1.385 1_565 S
C218 C219 1.388 . S
C219 H198 0.939 . S
C219 C214 1.391 1_565 S
C219 C218 1.388 . S
P220 O231 1.490 . S
P220 C234 1.812 . S
P220 C240 1.803 . S
P220 C246 1.819 . S
H221 C235 0.941 . S
H222 C236 0.939 . S
H223 C238 0.940 . S
H224 C239 0.940 . S
H225 C241 0.939 . S
H226 C242 0.942 . S
H227 C244 0.940 . S
H228 C245 0.939 . S
H229 C247 0.941 . S
H230 C251 0.939 . S
O231 P220 1.490 . S
H232 C248 0.939 . S
H233 C250 0.940 . S
C234 P220 1.812 . S
C234 C235 1.389 . S
C234 C239 1.391 . S
C235 H221 0.941 . S
C235 C234 1.389 . S
C235 C236 1.397 . S
C236 H222 0.939 . S
C236 C235 1.397 . S
C236 C237 1.378 . S
C237 C236 1.378 . S
C237 C238 1.378 . S
C238 H223 0.940 . S
C238 C237 1.378 . S
C238 C239 1.396 . S
C239 H224 0.940 . S
C239 C234 1.391 . S
C239 C238 1.396 . S
C240 P220 1.803 . S
C240 C241 1.378 . S
C240 C245 1.400 . S
C241 H225 0.939 . S
C241 C240 1.378 . S
C241 C242 1.361 . S
C242 H226 0.942 . S
C242 C241 1.361 . S
C242 C243 1.369 . S
C243 C242 1.369 . S
C243 C244 1.404 . S
C244 H227 0.940 . S
C244 C243 1.404 . S
C244 C245 1.389 . S
C245 H228 0.939 . S
C245 C240 1.400 . S
C245 C244 1.389 . S
C246 P220 1.819 . S
C246 C247 1.391 . S
C246 C251 1.391 . S
C247 H229 0.941 . S
C247 C246 1.391 . S
C247 C248 1.396 . S
C248 H232 0.939 . S
C248 C247 1.396 . S
C248 C249 1.397 . S
C249 C248 1.397 . S
C249 C250 1.385 . S
C250 H233 0.940 . S
C250 C249 1.385 . S
C250 C251 1.388 . S
C251 H230 0.939 . S
C251 C246 1.391 . S
C251 C250 1.388 . S
C252 C253 1.391 . S
C252 C254 1.394 . S
C252 H268 0.931 . S
C253 C252 1.391 . S
C253 C257 1.376 . S
C254 C252 1.394 . S
C254 C255 1.369 . S
C254 C258 1.531 . S
C255 C254 1.369 . S
C255 C256 1.410 . S
C255 C263 1.503 . S
C256 C255 1.410 . S
C256 C257 1.392 . S
C256 C259 1.511 . S
C257 C253 1.376 . S
C257 C256 1.392 . S
C257 H269 0.929 . S
C258 C254 1.531 . S
C258 H270 0.960 . S
C258 H271 0.962 . S
C258 H272 0.960 . S
C259 C256 1.511 . S
C259 H273 0.961 . S
C259 H274 0.961 . S
C259 H275 0.961 . S
C260 C261 1.370 . S
C260 C262 1.363 . S
C260 H276 0.931 . S
C261 C260 1.370 . S
C261 C265 1.408 . S
C262 C260 1.363 . S
C262 C263 1.370 . S
C262 C266 1.524 . S
C263 C255 1.503 . S
C263 C262 1.370 . S
C263 C264 1.403 . S
C264 C263 1.403 . S
C264 C265 1.404 . S
C264 C267 1.539 . S
C265 C261 1.408 . S
C265 C264 1.404 . S
C265 H277 0.930 . S
C266 C262 1.524 . S
C266 H278 0.956 . S
C266 H279 0.961 . S
C266 H280 0.961 . S
C267 C264 1.539 . S
C267 H281 0.958 . S
C267 H282 0.961 . S
C267 H283 0.960 . S
H268 C252 0.931 . S
H269 C257 0.929 . S
H270 C258 0.960 . S
H271 C258 0.962 . S
H272 C258 0.960 . S
H273 C259 0.961 . S
H274 C259 0.961 . S
H275 C259 0.961 . S
H276 C260 0.931 . S
H277 C265 0.930 . S
H278 C266 0.956 . S
H279 C266 0.961 . S
H280 C266 0.961 . S
H281 C267 0.958 . S
H282 C267 0.961 . S
H283 C267 0.960 . S
C284 C285 1.391 . S
C284 C286 1.394 . S
C284 H300 0.931 . S
C285 C284 1.391 . S
C285 C289 1.376 . S
C286 C284 1.394 . S
C286 C287 1.369 . S
C286 C290 1.531 . S
C287 C286 1.369 . S
C287 C288 1.410 . S
C287 C295 1.503 . S
C288 C287 1.410 . S
C288 C289 1.392 . S
C288 C291 1.511 . S
C289 C285 1.376 . S
C289 C288 1.392 . S
C289 H301 0.929 . S
C290 C286 1.531 . S
C290 H302 0.960 . S
C290 H303 0.962 . S
C290 H304 0.960 . S
C291 C288 1.511 . S
C291 H305 0.961 . S
C291 H306 0.961 . S
C291 H307 0.961 . S
C292 C293 1.370 . S
C292 C294 1.363 . S
C292 H308 0.931 . S
C293 C292 1.370 . S
C293 C297 1.408 . S
C294 C292 1.363 . S
C294 C295 1.370 . S
C294 C298 1.524 . S
C295 C287 1.503 . S
C295 C294 1.370 . S
C295 C296 1.403 . S
C296 C295 1.403 . S
C296 C297 1.404 . S
C296 C299 1.539 . S
C297 C293 1.408 . S
C297 C296 1.404 . S
C297 H309 0.930 . S
C298 C294 1.524 . S
C298 H310 0.956 . S
C298 H311 0.961 . S
C298 H312 0.961 . S
C299 C296 1.539 . S
C299 H313 0.958 . S
C299 H314 0.961 . S
C299 H315 0.960 . S
H300 C284 0.931 . S
H301 C289 0.929 . S
H302 C290 0.960 . S
H303 C290 0.962 . S
H304 C290 0.960 . S
H305 C291 0.961 . S
H306 C291 0.961 . S
H307 C291 0.961 . S
H308 C292 0.931 . S
H309 C297 0.930 . S
H310 C298 0.956 . S
H311 C298 0.961 . S
H312 C298 0.961 . S
H313 C299 0.958 . S
H314 C299 0.961 . S
H315 C299 0.960 . S
C316 C317 1.391 . S
C316 C318 1.394 . S
C316 H332 0.931 . S
C317 C316 1.391 . S
C317 C321 1.376 . S
C318 C316 1.394 . S
C318 C319 1.369 . S
C318 C322 1.531 . S
C319 C318 1.369 . S
C319 C320 1.410 . S
C319 C327 1.503 . S
C320 C319 1.410 . S
C320 C321 1.392 . S
C320 C323 1.511 . S
C321 C317 1.376 . S
C321 C320 1.392 . S
C321 H333 0.929 . S
C322 C318 1.531 . S
C322 H334 0.960 . S
C322 H335 0.962 . S
C322 H336 0.960 . S
C323 C320 1.511 . S
C323 H337 0.961 . S
C323 H338 0.961 . S
C323 H339 0.961 . S
C324 C325 1.370 . S
C324 C326 1.363 . S
C324 H340 0.931 . S
C325 C324 1.370 . S
C325 C329 1.408 . S
C326 C324 1.363 . S
C326 C327 1.370 . S
C326 C330 1.524 . S
C327 C319 1.503 . S
C327 C326 1.370 . S
C327 C328 1.403 . S
C328 C327 1.403 . S
C328 C329 1.404 . S
C328 C331 1.539 . S
C329 C325 1.408 . S
C329 C328 1.404 . S
C329 H341 0.930 . S
C330 C326 1.524 . S
C330 H342 0.956 . S
C330 H343 0.961 . S
C330 H344 0.961 . S
C331 C328 1.539 . S
C331 H345 0.958 . S
C331 H346 0.961 . S
C331 H347 0.960 . S
H332 C316 0.931 . S
H333 C321 0.929 . S
H334 C322 0.960 . S
H335 C322 0.962 . S
H336 C322 0.960 . S
H337 C323 0.961 . S
H338 C323 0.961 . S
H339 C323 0.961 . S
H340 C324 0.931 . S
H341 C329 0.930 . S
H342 C330 0.956 . S
H343 C330 0.961 . S
H344 C330 0.961 . S
H345 C331 0.958 . S
H346 C331 0.961 . S
H347 C331 0.960 . S
C348 C349 1.391 . S
C348 C350 1.394 . S
C348 H364 0.931 . S
C349 C348 1.391 . S
C349 C353 1.376 . S
C350 C348 1.394 . S
C350 C351 1.369 . S
C350 C354 1.531 . S
C351 C350 1.369 . S
C351 C352 1.410 . S
C351 C359 1.503 . S
C352 C351 1.410 . S
C352 C353 1.392 . S
C352 C355 1.511 . S
C353 C349 1.376 . S
C353 C352 1.392 . S
C353 H365 0.929 . S
C354 C350 1.531 . S
C354 H366 0.960 . S
C354 H367 0.962 . S
C354 H368 0.960 . S
C355 C352 1.511 . S
C355 H369 0.961 . S
C355 H370 0.961 . S
C355 H371 0.961 . S
C356 C357 1.370 . S
C356 C358 1.363 . S
C356 H372 0.931 . S
C357 C356 1.370 . S
C357 C361 1.408 . S
C358 C356 1.363 . S
C358 C359 1.370 . S
C358 C362 1.524 . S
C359 C351 1.503 . S
C359 C358 1.370 . S
C359 C360 1.403 . S
C360 C359 1.403 . S
C360 C361 1.404 . S
C360 C363 1.539 . S
C361 C357 1.408 . S
C361 C360 1.404 . S
C361 H373 0.930 . S
C362 C358 1.524 . S
C362 H374 0.956 . S
C362 H375 0.961 . S
C362 H376 0.961 . S
C363 C360 1.539 . S
C363 H377 0.958 . S
C363 H378 0.961 . S
C363 H379 0.960 . S
H364 C348 0.931 . S
H365 C353 0.929 . S
H366 C354 0.960 . S
H367 C354 0.962 . S
H368 C354 0.960 . S
H369 C355 0.961 . S
H370 C355 0.961 . S
H371 C355 0.961 . S
H372 C356 0.931 . S
H373 C361 0.930 . S
H374 C362 0.956 . S
H375 C362 0.961 . S
H376 C362 0.961 . S
H377 C363 0.958 . S
H378 C363 0.961 . S
H379 C363 0.960 . S
C380 C381 1.391 . S
C380 C382 1.394 . S
C380 H396 0.931 . S
C381 C380 1.391 . S
C381 C385 1.376 . S
C382 C380 1.394 . S
C382 C383 1.369 . S
C382 C386 1.531 . S
C383 C382 1.369 . S
C383 C384 1.410 . S
C383 C391 1.503 . S
C384 C383 1.410 . S
C384 C385 1.392 . S
C384 C387 1.511 . S
C385 C381 1.376 . S
C385 C384 1.392 . S
C385 H397 0.929 . S
C386 C382 1.531 . S
C386 H398 0.960 . S
C386 H399 0.962 . S
C386 H400 0.960 . S
C387 C384 1.511 . S
C387 H401 0.961 . S
C387 H402 0.961 . S
C387 H403 0.961 . S
C388 C389 1.370 . S
C388 C390 1.363 . S
C388 H404 0.931 . S
C389 C388 1.370 . S
C389 C393 1.408 . S
C390 C388 1.363 . S
C390 C391 1.370 . S
C390 C394 1.524 . S
C391 C383 1.503 . S
C391 C390 1.370 . S
C391 C392 1.403 . S
C392 C391 1.403 . S
C392 C393 1.404 . S
C392 C395 1.539 . S
C393 C389 1.408 . S
C393 C392 1.404 . S
C393 H405 0.930 . S
C394 C390 1.524 . S
C394 H406 0.956 . S
C394 H407 0.961 . S
C394 H408 0.961 . S
C395 C392 1.539 . S
C395 H409 0.958 . S
C395 H410 0.961 . S
C395 H411 0.960 . S
H396 C380 0.931 . S
H397 C385 0.929 . S
H398 C386 0.960 . S
H399 C386 0.962 . S
H400 C386 0.960 . S
H401 C387 0.961 . S
H402 C387 0.961 . S
H403 C387 0.961 . S
H404 C388 0.931 . S
H405 C393 0.930 . S
H406 C394 0.956 . S
H407 C394 0.961 . S
H408 C394 0.961 . S
H409 C395 0.958 . S
H410 C395 0.961 . S
H411 C395 0.960 . S
C412 C413 1.391 . S
C412 C414 1.394 . S
C412 H428 0.931 . S
C413 C412 1.391 . S
C413 C417 1.376 . S
C414 C412 1.394 . S
C414 C415 1.369 . S
C414 C418 1.531 . S
C415 C414 1.369 . S
C415 C416 1.410 . S
C415 C423 1.503 . S
C416 C415 1.410 . S
C416 C417 1.392 . S
C416 C419 1.511 . S
C417 C413 1.376 . S
C417 C416 1.392 . S
C417 H429 0.929 . S
C418 C414 1.531 . S
C418 H430 0.960 . S
C418 H431 0.962 . S
C418 H432 0.960 . S
C419 C416 1.511 . S
C419 H433 0.961 . S
C419 H434 0.961 . S
C419 H435 0.961 . S
C420 C421 1.370 . S
C420 C422 1.363 . S
C420 H436 0.931 . S
C421 C420 1.370 . S
C421 C425 1.408 . S
C422 C420 1.363 . S
C422 C423 1.370 . S
C422 C426 1.524 . S
C423 C415 1.503 . S
C423 C422 1.370 . S
C423 C424 1.403 . S
C424 C423 1.403 . S
C424 C425 1.404 . S
C424 C427 1.539 . S
C425 C421 1.408 . S
C425 C424 1.404 . S
C425 H437 0.930 . S
C426 C422 1.524 . S
C426 H438 0.956 . S
C426 H439 0.961 . S
C426 H440 0.961 . S
C427 C424 1.539 . S
C427 H441 0.958 . S
C427 H442 0.961 . S
C427 H443 0.960 . S
H428 C412 0.931 . S
H429 C417 0.929 . S
H430 C418 0.960 . S
H431 C418 0.962 . S
H432 C418 0.960 . S
H433 C419 0.961 . S
H434 C419 0.961 . S
H435 C419 0.961 . S
H436 C420 0.931 . S
H437 C425 0.930 . S
H438 C426 0.956 . S
H439 C426 0.961 . S
H440 C426 0.961 . S
H441 C427 0.958 . S
H442 C427 0.961 . S
H443 C427 0.960 . S
C444 C445 1.391 . S
C444 C446 1.394 . S
C444 H460 0.931 . S
C445 C444 1.391 . S
C445 C449 1.376 . S
C446 C444 1.394 . S
C446 C447 1.369 . S
C446 C450 1.531 . S
C447 C446 1.369 . S
C447 C448 1.410 . S
C447 C455 1.503 . S
C448 C447 1.410 . S
C448 C449 1.392 . S
C448 C451 1.511 . S
C449 C445 1.376 . S
C449 C448 1.392 . S
C449 H461 0.929 . S
C450 C446 1.531 . S
C450 H462 0.960 . S
C450 H463 0.962 . S
C450 H464 0.960 . S
C451 C448 1.511 . S
C451 H465 0.961 . S
C451 H466 0.961 . S
C451 H467 0.961 . S
C452 C453 1.370 . S
C452 C454 1.363 . S
C452 H468 0.931 . S
C453 C452 1.370 . S
C453 C457 1.408 . S
C454 C452 1.363 . S
C454 C455 1.370 . S
C454 C458 1.524 . S
C455 C447 1.503 . S
C455 C454 1.370 . S
C455 C456 1.403 . S
C456 C455 1.403 . S
C456 C457 1.404 . S
C456 C459 1.539 . S
C457 C453 1.408 . S
C457 C456 1.404 . S
C457 H469 0.930 . S
C458 C454 1.524 . S
C458 H470 0.956 . S
C458 H471 0.961 . S
C458 H472 0.961 . S
C459 C456 1.539 . S
C459 H473 0.958 . S
C459 H474 0.961 . S
C459 H475 0.960 . S
H460 C444 0.931 . S
H461 C449 0.929 . S
H462 C450 0.960 . S
H463 C450 0.962 . S
H464 C450 0.960 . S
H465 C451 0.961 . S
H466 C451 0.961 . S
H467 C451 0.961 . S
H468 C452 0.931 . S
H469 C457 0.930 . S
H470 C458 0.956 . S
H471 C458 0.961 . S
H472 C458 0.961 . S
H473 C459 0.958 . S
H474 C459 0.961 . S
H475 C459 0.960 . S
C476 C477 1.391 . S
C476 C478 1.394 . S
C476 H492 0.931 . S
C477 C476 1.391 . S
C477 C481 1.376 . S
C478 C476 1.394 . S
C478 C479 1.369 . S
C478 C482 1.531 . S
C479 C478 1.369 . S
C479 C480 1.410 . S
C479 C487 1.503 . S
C480 C479 1.410 . S
C480 C481 1.392 . S
C480 C483 1.511 . S
C481 C477 1.376 . S
C481 C480 1.392 . S
C481 H493 0.929 . S
C482 C478 1.531 . S
C482 H494 0.960 . S
C482 H495 0.962 . S
C482 H496 0.960 . S
C483 C480 1.511 . S
C483 H497 0.961 . S
C483 H498 0.961 . S
C483 H499 0.961 . S
C484 C485 1.370 . S
C484 C486 1.363 . S
C484 H500 0.931 . S
C485 C484 1.370 . S
C485 C489 1.408 . S
C486 C484 1.363 . S
C486 C487 1.370 . S
C486 C490 1.524 . S
C487 C479 1.503 . S
C487 C486 1.370 . S
C487 C488 1.403 . S
C488 C487 1.403 . S
C488 C489 1.404 . S
C488 C491 1.539 . S
C489 C485 1.408 . S
C489 C488 1.404 . S
C489 H501 0.930 . S
C490 C486 1.524 . S
C490 H502 0.956 . S
C490 H503 0.961 . S
C490 H504 0.961 . S
C491 C488 1.539 . S
C491 H505 0.958 . S
C491 H506 0.961 . S
C491 H507 0.960 . S
H492 C476 0.931 . S
H493 C481 0.929 . S
H494 C482 0.960 . S
H495 C482 0.962 . S
H496 C482 0.960 . S
H497 C483 0.961 . S
H498 C483 0.961 . S
H499 C483 0.961 . S
H500 C484 0.931 . S
H501 C489 0.930 . S
H502 C490 0.956 . S
H503 C490 0.961 . S
H504 C490 0.961 . S
H505 C491 0.958 . S
H506 C491 0.961 . S
H507 C491 0.960 . S
C508 C509 1.391 . S
C508 C510 1.394 . S
C508 H524 0.931 . S
C509 C508 1.391 . S
C509 C513 1.376 . S
C510 C508 1.394 . S
C510 C511 1.369 . S
C510 C514 1.531 . S
C511 C510 1.369 . S
C511 C512 1.410 . S
C511 C519 1.503 . S
C512 C511 1.410 . S
C512 C513 1.392 . S
C512 C515 1.511 . S
C513 C509 1.376 . S
C513 C512 1.392 . S
C513 H525 0.929 . S
C514 C510 1.531 . S
C514 H526 0.960 . S
C514 H527 0.962 . S
C514 H528 0.960 . S
C515 C512 1.511 . S
C515 H529 0.961 . S
C515 H530 0.961 . S
C515 H531 0.961 . S
C516 C517 1.370 . S
C516 C518 1.363 . S
C516 H532 0.931 . S
C517 C516 1.370 . S
C517 C521 1.408 . S
C518 C516 1.363 . S
C518 C519 1.370 . S
C518 C522 1.524 . S
C519 C511 1.503 . S
C519 C518 1.370 . S
C519 C520 1.403 . S
C520 C519 1.403 . S
C520 C521 1.404 . S
C520 C523 1.539 . S
C521 C517 1.408 . S
C521 C520 1.404 . S
C521 H533 0.930 . S
C522 C518 1.524 . S
C522 H534 0.956 . S
C522 H535 0.961 . S
C522 H536 0.961 . S
C523 C520 1.539 . S
C523 H537 0.958 . S
C523 H538 0.961 . S
C523 H539 0.960 . S
H524 C508 0.931 . S
H525 C513 0.929 . S
H526 C514 0.960 . S
H527 C514 0.962 . S
H528 C514 0.960 . S
H529 C515 0.961 . S
H530 C515 0.961 . S
H531 C515 0.961 . S
H532 C516 0.931 . S
H533 C521 0.930 . S
H534 C522 0.956 . S
H535 C522 0.961 . S
H536 C522 0.961 . S
H537 C523 0.958 . S
H538 C523 0.961 . S
H539 C523 0.960 . S
C540 C541 1.391 . S
C540 C542 1.394 . S
C540 H556 0.931 . S
C541 C540 1.391 . S
C541 C545 1.376 . S
C542 C540 1.394 . S
C542 C543 1.369 . S
C542 C546 1.531 . S
C543 C542 1.369 . S
C543 C544 1.410 . S
C543 C551 1.503 . S
C544 C543 1.410 . S
C544 C545 1.392 . S
C544 C547 1.511 . S
C545 C541 1.376 . S
C545 C544 1.392 . S
C545 H557 0.929 . S
C546 C542 1.531 . S
C546 H558 0.960 . S
C546 H559 0.962 . S
C546 H560 0.960 . S
C547 C544 1.511 . S
C547 H561 0.961 . S
C547 H562 0.961 . S
C547 H563 0.961 . S
C548 C549 1.370 . S
C548 C550 1.363 . S
C548 H564 0.931 . S
C549 C548 1.370 . S
C549 C553 1.408 . S
C550 C548 1.363 . S
C550 C551 1.370 . S
C550 C554 1.524 . S
C551 C543 1.503 . S
C551 C550 1.370 . S
C551 C552 1.403 . S
C552 C551 1.403 . S
C552 C553 1.404 . S
C552 C555 1.539 . S
C553 C549 1.408 . S
C553 C552 1.404 . S
C553 H565 0.930 . S
C554 C550 1.524 . S
C554 H566 0.956 . S
C554 H567 0.961 . S
C554 H568 0.961 . S
C555 C552 1.539 . S
C555 H569 0.958 . S
C555 H570 0.961 . S
C555 H571 0.960 . S
H556 C540 0.931 . S
H557 C545 0.929 . S
H558 C546 0.960 . S
H559 C546 0.962 . S
H560 C546 0.960 . S
H561 C547 0.961 . S
H562 C547 0.961 . S
H563 C547 0.961 . S
H564 C548 0.931 . S
H565 C553 0.930 . S
H566 C554 0.956 . S
H567 C554 0.961 . S
H568 C554 0.961 . S
H569 C555 0.958 . S
H570 C555 0.961 . S
H571 C555 0.960 . S
C572 C573 1.391 . S
C572 C574 1.394 . S
C572 H588 0.931 . S
C573 C572 1.391 . S
C573 C577 1.376 . S
C574 C572 1.394 . S
C574 C575 1.369 . S
C574 C578 1.531 . S
C575 C574 1.369 . S
C575 C576 1.410 . S
C575 C583 1.503 . S
C576 C575 1.410 . S
C576 C577 1.392 . S
C576 C579 1.511 . S
C577 C573 1.376 . S
C577 C576 1.392 . S
C577 H589 0.929 . S
C578 C574 1.531 . S
C578 H590 0.960 . S
C578 H591 0.962 . S
C578 H592 0.960 . S
C579 C576 1.511 . S
C579 H593 0.961 . S
C579 H594 0.961 . S
C579 H595 0.961 . S
C580 C581 1.370 . S
C580 C582 1.363 . S
C580 H596 0.931 . S
C581 C580 1.370 . S
C581 C585 1.408 . S
C582 C580 1.363 . S
C582 C583 1.370 . S
C582 C586 1.524 . S
C583 C575 1.503 . S
C583 C582 1.370 . S
C583 C584 1.403 . S
C584 C583 1.403 . S
C584 C585 1.404 . S
C584 C587 1.539 . S
C585 C581 1.408 . S
C585 C584 1.404 . S
C585 H597 0.930 . S
C586 C582 1.524 . S
C586 H598 0.956 . S
C586 H599 0.961 . S
C586 H600 0.961 . S
C587 C584 1.539 . S
C587 H601 0.958 . S
C587 H602 0.961 . S
C587 H603 0.960 . S
H588 C572 0.931 . S
H589 C577 0.929 . S
H590 C578 0.960 . S
H591 C578 0.962 . S
H592 C578 0.960 . S
H593 C579 0.961 . S
H594 C579 0.961 . S
H595 C579 0.961 . S
H596 C580 0.931 . S
H597 C585 0.930 . S
H598 C586 0.956 . S
H599 C586 0.961 . S
H600 C586 0.961 . S
H601 C587 0.958 . S
H602 C587 0.961 . S
H603 C587 0.960 . S
C604 C605 1.391 . S
C604 C606 1.394 . S
C604 H620 0.931 . S
C605 C604 1.391 . S
C605 C609 1.376 . S
C606 C604 1.394 . S
C606 C607 1.369 . S
C606 C610 1.531 . S
C607 C606 1.369 . S
C607 C608 1.410 . S
C607 C615 1.503 . S
C608 C607 1.410 . S
C608 C609 1.392 . S
C608 C611 1.511 . S
C609 C605 1.376 . S
C609 C608 1.392 . S
C609 H621 0.929 . S
C610 C606 1.531 . S
C610 H622 0.960 . S
C610 H623 0.962 . S
C610 H624 0.960 . S
C611 C608 1.511 . S
C611 H625 0.961 . S
C611 H626 0.961 . S
C611 H627 0.961 . S
C612 C613 1.370 . S
C612 C614 1.363 . S
C612 H628 0.931 . S
C613 C612 1.370 . S
C613 C617 1.408 . S
C614 C612 1.363 . S
C614 C615 1.370 . S
C614 C618 1.524 . S
C615 C607 1.503 . S
C615 C614 1.370 . S
C615 C616 1.403 . S
C616 C615 1.403 . S
C616 C617 1.404 . S
C616 C619 1.539 . S
C617 C613 1.408 . S
C617 C616 1.404 . S
C617 H629 0.930 . S
C618 C614 1.524 . S
C618 H630 0.956 . S
C618 H631 0.961 . S
C618 H632 0.961 . S
C619 C616 1.539 . S
C619 H633 0.958 . S
C619 H634 0.961 . S
C619 H635 0.960 . S
H620 C604 0.931 . S
H621 C609 0.929 . S
H622 C610 0.960 . S
H623 C610 0.962 . S
H624 C610 0.960 . S
H625 C611 0.961 . S
H626 C611 0.961 . S
H627 C611 0.961 . S
H628 C612 0.931 . S
H629 C617 0.930 . S
H630 C618 0.956 . S
H631 C618 0.961 . S
H632 C618 0.961 . S
H633 C619 0.958 . S
H634 C619 0.961 . S
H635 C619 0.960 . S
C636 C637 1.391 . S
C636 C638 1.394 . S
C636 H652 0.931 . S
C637 C636 1.391 . S
C637 C641 1.376 . S
C638 C636 1.394 . S
C638 C639 1.369 . S
C638 C642 1.531 . S
C639 C638 1.369 . S
C639 C640 1.410 . S
C639 C647 1.503 . S
C640 C639 1.410 . S
C640 C641 1.392 . S
C640 C643 1.511 1_455 S
C641 C637 1.376 . S
C641 C640 1.392 . S
C641 H653 0.929 . S
C642 C638 1.531 . S
C642 H654 0.960 . S
C642 H655 0.962 . S
C642 H656 0.960 . S
C643 C640 1.511 1_655 S
C643 H657 0.961 . S
C643 H658 0.961 1_655 S
C643 H659 0.961 . S
C644 C645 1.370 . S
C644 C646 1.363 1_556 S
C644 H660 0.931 . S
C645 C644 1.370 . S
C645 C649 1.408 . S
C646 C644 1.363 1_554 S
C646 C647 1.370 . S
C646 C650 1.524 . S
C647 C639 1.503 . S
C647 C646 1.370 . S
C647 C648 1.403 . S
C648 C647 1.403 . S
C648 C649 1.404 1_554 S
C648 C651 1.539 1_455 S
C649 C645 1.408 . S
C649 C648 1.404 1_556 S
C649 H661 0.930 . S
C650 C646 1.524 . S
C650 H662 0.956 . S
C650 H663 0.961 . S
C650 H664 0.961 . S
C651 C648 1.539 1_655 S
C651 H665 0.958 . S
C651 H666 0.961 . S
C651 H667 0.960 . S
H652 C636 0.931 . S
H653 C641 0.929 . S
H654 C642 0.960 . S
H655 C642 0.962 . S
H656 C642 0.960 . S
H657 C643 0.961 . S
H658 C643 0.961 1_455 S
H659 C643 0.961 . S
H660 C644 0.931 . S
H661 C649 0.930 . S
H662 C650 0.956 . S
H663 C650 0.961 . S
H664 C650 0.961 . S
H665 C651 0.958 . S
H666 C651 0.961 . S
H667 C651 0.960 . S
C668 C669 1.391 . S
C668 C670 1.394 . S
C668 H684 0.931 . S
C669 C668 1.391 . S
C669 C673 1.376 . S
C670 C668 1.394 . S
C670 C671 1.369 . S
C670 C674 1.531 . S
C671 C670 1.369 . S
C671 C672 1.410 . S
C671 C679 1.503 . S
C672 C671 1.410 . S
C672 C673 1.392 . S
C672 C675 1.511 . S
C673 C669 1.376 . S
C673 C672 1.392 . S
C673 H685 0.929 . S
C674 C670 1.531 . S
C674 H686 0.960 . S
C674 H687 0.962 . S
C674 H688 0.960 . S
C675 C672 1.511 . S
C675 H689 0.961 . S
C675 H690 0.961 . S
C675 H691 0.961 . S
C676 C677 1.370 . S
C676 C678 1.363 . S
C676 H692 0.931 1_545 S
C677 C676 1.370 . S
C677 C681 1.408 . S
C678 C676 1.363 . S
C678 C679 1.370 . S
C678 C682 1.524 1_545 S
C679 C671 1.503 . S
C679 C678 1.370 . S
C679 C680 1.403 . S
C680 C679 1.403 . S
C680 C681 1.404 . S
C680 C683 1.539 . S
C681 C677 1.408 . S
C681 C680 1.404 . S
C681 H693 0.930 . S
C682 C678 1.524 1_565 S
C682 H694 0.956 . S
C682 H695 0.961 . S
C682 H696 0.961 . S
C683 C680 1.539 . S
C683 H697 0.958 . S
C683 H698 0.961 . S
C683 H699 0.960 . S
H684 C668 0.931 . S
H685 C673 0.929 . S
H686 C674 0.960 . S
H687 C674 0.962 . S
H688 C674 0.960 . S
H689 C675 0.961 . S
H690 C675 0.961 . S
H691 C675 0.961 . S
H692 C676 0.931 1_565 S
H693 C681 0.930 . S
H694 C682 0.956 . S
H695 C682 0.961 . S
H696 C682 0.961 . S
H697 C683 0.958 . S
H698 C683 0.961 . S
H699 C683 0.960 . S
C700 C701 1.391 . S
C700 C702 1.394 . S
C700 H716 0.931 . S
C701 C700 1.391 . S
C701 C705 1.376 . S
C702 C700 1.394 . S
C702 C703 1.369 . S
C702 C706 1.531 . S
C703 C702 1.369 . S
C703 C704 1.410 . S
C703 C711 1.503 . S
C704 C703 1.410 . S
C704 C705 1.392 . S
C704 C707 1.511 . S
C705 C701 1.376 . S
C705 C704 1.392 . S
C705 H717 0.929 . S
C706 C702 1.531 . S
C706 H718 0.960 . S
C706 H719 0.962 . S
C706 H720 0.960 . S
C707 C704 1.511 . S
C707 H721 0.961 . S
C707 H722 0.961 . S
C707 H723 0.961 . S
C708 C709 1.370 . S
C708 C710 1.363 . S
C708 H724 0.931 . S
C709 C708 1.370 . S
C709 C713 1.408 . S
C710 C708 1.363 . S
C710 C711 1.370 . S
C710 C714 1.524 . S
C711 C703 1.503 . S
C711 C710 1.370 . S
C711 C712 1.403 . S
C712 C711 1.403 . S
C712 C713 1.404 . S
C712 C715 1.539 . S
C713 C709 1.408 . S
C713 C712 1.404 . S
C713 H725 0.930 . S
C714 C710 1.524 . S
C714 H726 0.956 . S
C714 H727 0.961 . S
C714 H728 0.961 . S
C715 C712 1.539 . S
C715 H729 0.958 . S
C715 H730 0.961 . S
C715 H731 0.960 . S
H716 C700 0.931 . S
H717 C705 0.929 . S
H718 C706 0.960 . S
H719 C706 0.962 . S
H720 C706 0.960 . S
H721 C707 0.961 . S
H722 C707 0.961 . S
H723 C707 0.961 . S
H724 C708 0.931 . S
H725 C713 0.930 . S
H726 C714 0.956 . S
H727 C714 0.961 . S
H728 C714 0.961 . S
H729 C715 0.958 . S
H730 C715 0.961 . S
H731 C715 0.960 . S
C732 C733 1.391 1_565 S
C732 C734 1.394 . S
C732 H748 0.931 . S
C733 C732 1.391 1_545 S
C733 C737 1.376 . S
C734 C732 1.394 . S
C734 C735 1.369 1_565 S
C734 C738 1.531 . S
C735 C734 1.369 1_545 S
C735 C736 1.410 . S
C735 C743 1.503 . S
C736 C735 1.410 . S
C736 C737 1.392 . S
C736 C739 1.511 . S
C737 C733 1.376 . S
C737 C736 1.392 . S
C737 H749 0.929 . S
C738 C734 1.531 . S
C738 H750 0.960 . S
C738 H751 0.962 . S
C738 H752 0.960 . S
C739 C736 1.511 . S
C739 H753 0.961 . S
C739 H754 0.961 . S
C739 H755 0.961 . S
C740 C741 1.370 . S
C740 C742 1.363 . S
C740 H756 0.931 . S
C741 C740 1.370 . S
C741 C745 1.408 1_545 S
C742 C740 1.363 . S
C742 C743 1.370 . S
C742 C746 1.524 . S
C743 C735 1.503 . S
C743 C742 1.370 . S
C743 C744 1.403 1_545 S
C744 C743 1.403 1_565 S
C744 C745 1.404 . S
C744 C747 1.539 . S
C745 C741 1.408 1_565 S
C745 C744 1.404 . S
C745 H757 0.930 . S
C746 C742 1.524 . S
C746 H758 0.956 . S
C746 H759 0.961 . S
C746 H760 0.961 . S
C747 C744 1.539 . S
C747 H761 0.958 . S
C747 H762 0.961 . S
C747 H763 0.960 . S
H748 C732 0.931 . S
H749 C737 0.929 . S
H750 C738 0.960 . S
H751 C738 0.962 . S
H752 C738 0.960 . S
H753 C739 0.961 . S
H754 C739 0.961 . S
H755 C739 0.961 . S
H756 C740 0.931 . S
H757 C745 0.930 . S
H758 C746 0.956 . S
H759 C746 0.961 . S
H760 C746 0.961 . S
H761 C747 0.958 . S
H762 C747 0.961 . S
H763 C747 0.960 . S
C764 C765 1.391 . S
C764 C766 1.394 . S
C764 H780 0.931 . S
C765 C764 1.391 . S
C765 C769 1.376 . S
C766 C764 1.394 . S
C766 C767 1.369 . S
C766 C770 1.531 . S
C767 C766 1.369 . S
C767 C768 1.410 . S
C767 C775 1.503 . S
C768 C767 1.410 . S
C768 C769 1.392 . S
C768 C771 1.511 . S
C769 C765 1.376 . S
C769 C768 1.392 . S
C769 H781 0.929 . S
C770 C766 1.531 . S
C770 H782 0.960 . S
C770 H783 0.962 . S
C770 H784 0.960 . S
C771 C768 1.511 . S
C771 H785 0.961 . S
C771 H786 0.961 . S
C771 H787 0.961 . S
C772 C773 1.370 . S
C772 C774 1.363 1_554 S
C772 H788 0.931 . S
C773 C772 1.370 . S
C773 C777 1.408 . S
C774 C772 1.363 1_556 S
C774 C775 1.370 . S
C774 C778 1.524 . S
C775 C767 1.503 . S
C775 C774 1.370 . S
C775 C776 1.403 . S
C776 C775 1.403 . S
C776 C777 1.404 1_556 S
C776 C779 1.539 . S
C777 C773 1.408 . S
C777 C776 1.404 1_554 S
C777 H789 0.930 . S
C778 C774 1.524 . S
C778 H790 0.956 . S
C778 H791 0.961 . S
C778 H792 0.961 . S
C779 C776 1.539 . S
C779 H793 0.958 . S
C779 H794 0.961 . S
C779 H795 0.960 . S
H780 C764 0.931 . S
H781 C769 0.929 . S
H782 C770 0.960 . S
H783 C770 0.962 . S
H784 C770 0.960 . S
H785 C771 0.961 . S
H786 C771 0.961 . S
H787 C771 0.961 . S
H788 C772 0.931 . S
H789 C777 0.930 . S
H790 C778 0.956 . S
H791 C778 0.961 . S
H792 C778 0.961 . S
H793 C779 0.958 . S
H794 C779 0.961 . S
H795 C779 0.960 . S
C796 C797 1.391 1_655 S
C796 C798 1.394 . S
C796 H812 0.931 . S
C797 C796 1.391 1_455 S
C797 C801 1.376 . S
C798 C796 1.394 . S
C798 C799 1.369 1_655 S
C798 C802 1.531 . S
C799 C798 1.369 1_455 S
C799 C800 1.410 . S
C799 C807 1.503 . S
C800 C799 1.410 . S
C800 C801 1.392 . S
C800 C803 1.511 . S
C801 C797 1.376 . S
C801 C800 1.392 . S
C801 H813 0.929 . S
C802 C798 1.531 . S
C802 H814 0.960 . S
C802 H815 0.962 . S
C802 H816 0.960 . S
C803 C800 1.511 . S
C803 H817 0.961 . S
C803 H818 0.961 . S
C803 H819 0.961 . S
C804 C805 1.370 . S
C804 C806 1.363 . S
C804 H820 0.931 . S
C805 C804 1.370 . S
C805 C809 1.408 1_455 S
C806 C804 1.363 . S
C806 C807 1.370 . S
C806 C810 1.524 . S
C807 C799 1.503 . S
C807 C806 1.370 . S
C807 C808 1.403 1_455 S
C808 C807 1.403 1_655 S
C808 C809 1.404 . S
C808 C811 1.539 . S
C809 C805 1.408 1_655 S
C809 C808 1.404 . S
C809 H821 0.930 . S
C810 C806 1.524 . S
C810 H822 0.956 . S
C810 H823 0.961 . S
C810 H824 0.961 . S
C811 C808 1.539 . S
C811 H825 0.958 . S
C811 H826 0.961 . S
C811 H827 0.960 . S
H812 C796 0.931 . S
H813 C801 0.929 . S
H814 C802 0.960 . S
H815 C802 0.962 . S
H816 C802 0.960 . S
H817 C803 0.961 . S
H818 C803 0.961 . S
H819 C803 0.961 . S
H820 C804 0.931 . S
H821 C809 0.930 . S
H822 C810 0.956 . S
H823 C810 0.961 . S
H824 C810 0.961 . S
H825 C811 0.958 . S
H826 C811 0.961 . S
H827 C811 0.960 . S
C253 C8 1.928 . S
C261 C243 2.005 . S
C285 C26 1.309 . S
C293 C179 1.296 . S
C317 C48 1.454 . S
C325 C211 1.496 . S
C349 C19 1.774 . S
C357 C237 1.841 . S
C389 C173 1.428 . S
C381 C36 1.448 . S
C421 C205 1.684 . S
C413 C59 1.620 . S
C445 C28 1.485 . S
C453 C115 1.536 . S
C477 C46 1.141 . S
C485 C147 1.169 . S
C509 C16 1.485 . S
C517 C77 1.506 . S
C549 C109 1.637 . S
C541 C39 1.595 . S
C581 C141 1.009 . S
C573 C56 1.051 . S
C605 C6 1.367 . S
C613 C83 1.317 . S
C645 C153 1.424 . S
C637 C9 1.401 . S
C669 C21 1.502 . S
C677 C89 1.465 . S
C701 C49 1.483 . S
C709 C121 1.456 . S
C741 C217 1.433 . S
C733 C29 1.470 . S
C773 C249 1.558 . S
C765 C41 1.577 . S
C797 C1 1.496 . S
C805 C185 1.462 . S
