# Generated by pormake.
# Topology ptr, (4,4)-cn, num edge types: 1
# Building blocks:
#     Node 0, Type 0, BuildingBlock: QUQFOY_clean_sbu_1, # of connection points: 4
#     Node 1, Type 0, BuildingBlock: QUQFOY_clean_sbu_1, # of connection points: 4
#     Node 2, Type 0, BuildingBlock: QUQFOY_clean_sbu_1, # of connection points: 4
#     Node 3, Type 0, BuildingBlock: QUQFOY_clean_sbu_1, # of connection points: 4
#     Node 4, Type 0, BuildingBlock: QUQFOY_clean_sbu_1, # of connection points: 4
#     Node 5, Type 0, BuildingBlock: QUQFOY_clean_sbu_1, # of connection points: 4
#     Node 6, Type 0, BuildingBlock: QUQFOY_clean_sbu_1, # of connection points: 4
#     Node 7, Type 0, BuildingBlock: QUQFOY_clean_sbu_1, # of connection points: 4
#     Node 8, Type 0, BuildingBlock: QUQFOY_clean_sbu_1, # of connection points: 4
#     Node 9, Type 0, BuildingBlock: QUQFOY_clean_sbu_1, # of connection points: 4
#     Node 10, Type 0, BuildingBlock: QUQFOY_clean_sbu_1, # of connection points: 4
#     Node 11, Type 0, BuildingBlock: QUQFOY_clean_sbu_1, # of connection points: 4
#     Node 12, Type 0, BuildingBlock: QUQFOY_clean_sbu_1, # of connection points: 4
#     Node 13, Type 0, BuildingBlock: QUQFOY_clean_sbu_1, # of connection points: 4
#     Node 14, Type 0, BuildingBlock: QUQFOY_clean_sbu_1, # of connection points: 4
#     Node 15, Type 0, BuildingBlock: QUQFOY_clean_sbu_1, # of connection points: 4
#     Node 16, Type 0, BuildingBlock: QUQFOY_clean_sbu_1, # of connection points: 4
#     Node 17, Type 0, BuildingBlock: QUQFOY_clean_sbu_1, # of connection points: 4
#     Node 18, Type 1, BuildingBlock: NAWXER_clean_linker_0, # of connection points: 4
#     Node 19, Type 1, BuildingBlock: NAWXER_clean_linker_0, # of connection points: 4
#     Node 20, Type 1, BuildingBlock: NAWXER_clean_linker_0, # of connection points: 4
#     Node 21, Type 1, BuildingBlock: NAWXER_clean_linker_0, # of connection points: 4
#     Node 22, Type 1, BuildingBlock: NAWXER_clean_linker_0, # of connection points: 4
#     Node 23, Type 1, BuildingBlock: NAWXER_clean_linker_0, # of connection points: 4
#     Node 24, Type 1, BuildingBlock: NAWXER_clean_linker_0, # of connection points: 4
#     Node 25, Type 1, BuildingBlock: NAWXER_clean_linker_0, # of connection points: 4
#     Node 26, Type 1, BuildingBlock: NAWXER_clean_linker_0, # of connection points: 4
#     Node 27, Type 1, BuildingBlock: NAWXER_clean_linker_0, # of connection points: 4
#     Node 28, Type 1, BuildingBlock: NAWXER_clean_linker_0, # of connection points: 4
#     Node 29, Type 1, BuildingBlock: NAWXER_clean_linker_0, # of connection points: 4
#     Node 30, Type 1, BuildingBlock: NAWXER_clean_linker_0, # of connection points: 4
#     Node 31, Type 1, BuildingBlock: NAWXER_clean_linker_0, # of connection points: 4
#     Node 32, Type 1, BuildingBlock: NAWXER_clean_linker_0, # of connection points: 4
#     Node 33, Type 1, BuildingBlock: NAWXER_clean_linker_0, # of connection points: 4
#     Node 34, Type 1, BuildingBlock: NAWXER_clean_linker_0, # of connection points: 4
#     Node 35, Type 1, BuildingBlock: NAWXER_clean_linker_0, # of connection points: 4
#     Edge 36, Type (0, 1), BuildingBlock: AJUNOK_clean_linker_0, # of connection points: 2
#     Edge 37, Type (0, 1), BuildingBlock: AJUNOK_clean_linker_0, # of connection points: 2
#     Edge 38, Type (0, 1), BuildingBlock: AJUNOK_clean_linker_0, # of connection points: 2
#     Edge 39, Type (0, 1), BuildingBlock: AJUNOK_clean_linker_0, # of connection points: 2
#     Edge 40, Type (0, 1), BuildingBlock: AJUNOK_clean_linker_0, # of connection points: 2
#     Edge 41, Type (0, 1), BuildingBlock: AJUNOK_clean_linker_0, # of connection points: 2
#     Edge 42, Type (0, 1), BuildingBlock: AJUNOK_clean_linker_0, # of connection points: 2
#     Edge 43, Type (0, 1), BuildingBlock: AJUNOK_clean_linker_0, # of connection points: 2
#     Edge 44, Type (0, 1), BuildingBlock: AJUNOK_clean_linker_0, # of connection points: 2
#     Edge 45, Type (0, 1), BuildingBlock: AJUNOK_clean_linker_0, # of connection points: 2
#     Edge 46, Type (0, 1), BuildingBlock: AJUNOK_clean_linker_0, # of connection points: 2
#     Edge 47, Type (0, 1), BuildingBlock: AJUNOK_clean_linker_0, # of connection points: 2
#     Edge 48, Type (0, 1), BuildingBlock: AJUNOK_clean_linker_0, # of connection points: 2
#     Edge 49, Type (0, 1), BuildingBlock: AJUNOK_clean_linker_0, # of connection points: 2
#     Edge 50, Type (0, 1), BuildingBlock: AJUNOK_clean_linker_0, # of connection points: 2
#     Edge 51, Type (0, 1), BuildingBlock: AJUNOK_clean_linker_0, # of connection points: 2
#     Edge 52, Type (0, 1), BuildingBlock: AJUNOK_clean_linker_0, # of connection points: 2
#     Edge 53, Type (0, 1), BuildingBlock: AJUNOK_clean_linker_0, # of connection points: 2
#     Edge 54, Type (0, 1), BuildingBlock: AJUNOK_clean_linker_0, # of connection points: 2
#     Edge 55, Type (0, 1), BuildingBlock: AJUNOK_clean_linker_0, # of connection points: 2
#     Edge 56, Type (0, 1), BuildingBlock: AJUNOK_clean_linker_0, # of connection points: 2
#     Edge 57, Type (0, 1), BuildingBlock: AJUNOK_clean_linker_0, # of connection points: 2
#     Edge 58, Type (0, 1), BuildingBlock: AJUNOK_clean_linker_0, # of connection points: 2
#     Edge 59, Type (0, 1), BuildingBlock: AJUNOK_clean_linker_0, # of connection points: 2
#     Edge 60, Type (0, 1), BuildingBlock: AJUNOK_clean_linker_0, # of connection points: 2
#     Edge 61, Type (0, 1), BuildingBlock: AJUNOK_clean_linker_0, # of connection points: 2
#     Edge 62, Type (0, 1), BuildingBlock: AJUNOK_clean_linker_0, # of connection points: 2
#     Edge 63, Type (0, 1), BuildingBlock: AJUNOK_clean_linker_0, # of connection points: 2
#     Edge 64, Type (0, 1), BuildingBlock: AJUNOK_clean_linker_0, # of connection points: 2
#     Edge 65, Type (0, 1), BuildingBlock: AJUNOK_clean_linker_0, # of connection points: 2
#     Edge 66, Type (0, 1), BuildingBlock: AJUNOK_clean_linker_0, # of connection points: 2
#     Edge 67, Type (0, 1), BuildingBlock: AJUNOK_clean_linker_0, # of connection points: 2
#     Edge 68, Type (0, 1), BuildingBlock: AJUNOK_clean_linker_0, # of connection points: 2
#     Edge 69, Type (0, 1), BuildingBlock: AJUNOK_clean_linker_0, # of connection points: 2
#     Edge 70, Type (0, 1), BuildingBlock: AJUNOK_clean_linker_0, # of connection points: 2
#     Edge 71, Type (0, 1), BuildingBlock: AJUNOK_clean_linker_0, # of connection points: 2
#     Edge 72, Type (0, 1), BuildingBlock: AJUNOK_clean_linker_0, # of connection points: 2
#     Edge 73, Type (0, 1), BuildingBlock: AJUNOK_clean_linker_0, # of connection points: 2
#     Edge 74, Type (0, 1), BuildingBlock: AJUNOK_clean_linker_0, # of connection points: 2
#     Edge 75, Type (0, 1), BuildingBlock: AJUNOK_clean_linker_0, # of connection points: 2
#     Edge 76, Type (0, 1), BuildingBlock: AJUNOK_clean_linker_0, # of connection points: 2
#     Edge 77, Type (0, 1), BuildingBlock: AJUNOK_clean_linker_0, # of connection points: 2
#     Edge 78, Type (0, 1), BuildingBlock: AJUNOK_clean_linker_0, # of connection points: 2
#     Edge 79, Type (0, 1), BuildingBlock: AJUNOK_clean_linker_0, # of connection points: 2
#     Edge 80, Type (0, 1), BuildingBlock: AJUNOK_clean_linker_0, # of connection points: 2
#     Edge 81, Type (0, 1), BuildingBlock: AJUNOK_clean_linker_0, # of connection points: 2
#     Edge 82, Type (0, 1), BuildingBlock: AJUNOK_clean_linker_0, # of connection points: 2
#     Edge 83, Type (0, 1), BuildingBlock: AJUNOK_clean_linker_0, # of connection points: 2
#     Edge 84, Type (0, 1), BuildingBlock: AJUNOK_clean_linker_0, # of connection points: 2
#     Edge 85, Type (0, 1), BuildingBlock: AJUNOK_clean_linker_0, # of connection points: 2
#     Edge 86, Type (0, 1), BuildingBlock: AJUNOK_clean_linker_0, # of connection points: 2
#     Edge 87, Type (0, 1), BuildingBlock: AJUNOK_clean_linker_0, # of connection points: 2
#     Edge 88, Type (0, 1), BuildingBlock: AJUNOK_clean_linker_0, # of connection points: 2
#     Edge 89, Type (0, 1), BuildingBlock: AJUNOK_clean_linker_0, # of connection points: 2
#     Edge 90, Type (0, 1), BuildingBlock: AJUNOK_clean_linker_0, # of connection points: 2
#     Edge 91, Type (0, 1), BuildingBlock: AJUNOK_clean_linker_0, # of connection points: 2
#     Edge 92, Type (0, 1), BuildingBlock: AJUNOK_clean_linker_0, # of connection points: 2
#     Edge 93, Type (0, 1), BuildingBlock: AJUNOK_clean_linker_0, # of connection points: 2
#     Edge 94, Type (0, 1), BuildingBlock: AJUNOK_clean_linker_0, # of connection points: 2
#     Edge 95, Type (0, 1), BuildingBlock: AJUNOK_clean_linker_0, # of connection points: 2
#     Edge 96, Type (0, 1), BuildingBlock: AJUNOK_clean_linker_0, # of connection points: 2
#     Edge 97, Type (0, 1), BuildingBlock: AJUNOK_clean_linker_0, # of connection points: 2
#     Edge 98, Type (0, 1), BuildingBlock: AJUNOK_clean_linker_0, # of connection points: 2
#     Edge 99, Type (0, 1), BuildingBlock: AJUNOK_clean_linker_0, # of connection points: 2
#     Edge 100, Type (0, 1), BuildingBlock: AJUNOK_clean_linker_0, # of connection points: 2
#     Edge 101, Type (0, 1), BuildingBlock: AJUNOK_clean_linker_0, # of connection points: 2
#     Edge 102, Type (0, 1), BuildingBlock: AJUNOK_clean_linker_0, # of connection points: 2
#     Edge 103, Type (0, 1), BuildingBlock: AJUNOK_clean_linker_0, # of connection points: 2
#     Edge 104, Type (0, 1), BuildingBlock: AJUNOK_clean_linker_0, # of connection points: 2
#     Edge 105, Type (0, 1), BuildingBlock: AJUNOK_clean_linker_0, # of connection points: 2
#     Edge 106, Type (0, 1), BuildingBlock: AJUNOK_clean_linker_0, # of connection points: 2
#     Edge 107, Type (0, 1), BuildingBlock: AJUNOK_clean_linker_0, # of connection points: 2
# Relax obj value: 0.008
# Max RMSD: 0.054
# Mean RMSD: 0.038
data_MOF--net-ptr--node1-QUQFOY_clean_sbu_1--node2-NAWXER_clean_linker_0--edge1-AJUNOK_clean_linker_0
_symmetry_space_group_name_H-M    P1
_symmetry_Int_Tables_number       1
_symmetry_cell_setting            triclinic
loop_
_symmetry_equiv_pos_as_xyz
'x, y, z'
_cell_length_a     70.189724
_cell_length_b     70.172424
_cell_length_c     50.759867
_cell_angle_alpha  90.044862
_cell_angle_beta   89.916767
_cell_angle_gamma 119.86785
loop_
_atom_site_label
_atom_site_type_symbol
_atom_site_fract_x
_atom_site_fract_y
_atom_site_fract_z
_atom_type_partial_charge
O0 O 0.01791 0.38853 0.05291 0.0
Cd1 Cd 0.02795 0.37672 0.02172 0.0
Cd2 Cd 0.98372 0.35373 0.01411 0.0
O3 O 0.98227 0.36558 0.05103 0.0
O4 O 0.05889 0.3857 0.03093 0.0
O5 O 0.03259 0.35101 0.02903 0.0
C6 C 0.0528 0.36525 0.03427 0.0
C7 C 0.9602 0.31725 1.00159 0.0
C8 C 0.99878 0.38116 0.06253 0.0
C9 C 0.01165 0.3875 0.97303 0.0
O10 O 0.99271 0.37515 0.98278 0.0
O11 O 0.02862 0.38945 0.98456 0.0
O12 O 0.95316 0.3309 1.00486 0.0
O13 O 0.98056 0.324 1.00709 0.0
O14 O 0.61749 0.6304 0.05554 0.0
Cd15 Cd 0.62893 0.65121 0.02339 0.0
Cd16 Cd 0.65139 0.62947 0.01684 0.0
O17 O 0.6407 0.61791 0.05458 0.0
O18 O 0.62019 0.67353 0.03176 0.0
O19 O 0.65481 0.68156 0.02964 0.0
C20 C 0.64069 0.68779 0.0347 0.0
C21 C 0.68728 0.64093 1.00282 0.0
C22 C 0.6252 0.61918 0.06591 0.0
C23 C 0.61666 0.62215 0.9765 0.0
O24 O 0.62883 0.61558 0.98684 0.0
O25 O 0.61565 0.63819 0.98671 0.0
O26 O 0.67336 0.62057 1.00737 0.0
O27 O 0.68125 0.6552 1.00795 0.0
O28 O 0.39604 0.01952 0.99369 0.0
Cd29 Cd 0.37982 0.02576 0.02332 0.0
Cd30 Cd 0.35759 0.98289 0.02517 0.0
O31 O 0.36997 0.98525 0.98736 0.0
O32 O 0.38379 0.05552 0.01644 0.0
O33 O 0.35186 0.02471 0.01229 0.0
C34 C 0.36338 0.0458 1.0096 0.0
C35 C 0.32083 0.95867 0.03624 0.0
C36 C 0.38778 1.00201 0.98005 0.0
C37 C 0.38919 0.00686 0.06949 0.0
O38 O 0.37899 0.9892 0.05628 0.0
O39 O 0.38939 0.02411 0.06141 0.0
O40 O 0.3343 0.95174 0.0309 0.0
O41 O 0.32797 0.97948 0.03378 0.0
O42 O 0.99363 0.61898 0.98534 0.0
Cd43 Cd 0.98558 0.63186 0.01697 0.0
Cd44 Cd 0.02907 0.65179 0.02517 0.0
O45 O 0.02962 0.6395 0.988 0.0
O46 O 0.95571 0.62693 1.00867 0.0
O47 O 0.98535 0.65997 1.00996 0.0
C48 C 0.96462 0.64783 1.00511 0.0
C49 C 0.05205 0.68856 0.03697 0.0
C50 C 0.0126 0.62509 0.97596 0.0
C51 C 0.99978 0.61844 0.06545 0.0
O52 O 0.0192 0.63035 0.05676 0.0
O53 O 0.98355 0.61767 0.05336 0.0
O54 O 0.05949 0.67516 0.03421 0.0
O55 O 0.03159 0.68131 0.0315 0.0
O56 O 0.39125 0.38092 0.98081 0.0
Cd57 Cd 0.38146 0.35905 0.01192 0.0
Cd58 Cd 0.35775 0.37936 0.02371 0.0
O59 O 0.37025 0.39555 0.98835 0.0
O60 O 0.39004 0.33723 1.00037 0.0
O61 O 0.3555 0.32875 1.00628 0.0
C62 C 0.36944 0.32281 0.99901 0.0
C63 C 0.32097 0.3656 0.03575 0.0
C64 C 0.38448 0.39403 0.97437 0.0
C65 C 0.39229 0.38382 0.06285 0.0
O66 O 0.3786 0.38958 0.05552 0.0
O67 O 0.39552 0.3707 0.04873 0.0
O68 O 0.33467 0.38639 0.03455 0.0
O69 O 0.32788 0.35242 0.02854 0.0
O70 O 0.61667 0.98904 0.05387 0.0
Cd71 Cd 0.63036 0.98099 0.0229 0.0
Cd72 Cd 0.65308 0.02433 0.01863 0.0
O73 O 0.64097 0.02425 0.05607 0.0
O74 O 0.62161 0.94976 0.03013 0.0
O75 O 0.65607 0.97666 0.03118 0.0
C76 C 0.64195 0.95613 0.03484 0.0
C77 C 0.69005 0.04384 1.00687 0.0
C78 C 0.62428 0.00742 0.06555 0.0
C79 C 0.62072 0.99966 0.97565 0.0
O80 O 0.63212 0.01802 0.9872 0.0
O81 O 0.61936 0.98233 0.98543 0.0
O82 O 0.67922 0.05382 0.01197 0.0
O83 O 0.68026 0.02279 1.01012 0.0
O84 O 0.68101 0.72352 0.38993 0.0
Cd85 Cd 0.69084 0.71114 0.35927 0.0
Cd86 Cd 0.64684 0.68633 0.35325 0.0
O87 O 0.64599 0.69834 0.39037 0.0
O88 O 0.72182 0.72063 0.36848 0.0
O89 O 0.69572 0.68577 0.36755 0.0
C90 C 0.71583 0.70031 0.3728 0.0
C91 C 0.62297 0.64959 0.34184 0.0
C92 C 0.66221 0.71503 0.40075 0.0
C93 C 0.67305 0.71943 0.31054 0.0
O94 O 0.65453 0.70709 0.32128 0.0
O95 O 0.69057 0.72242 0.32162 0.0
O96 O 0.61606 0.6633 0.34543 0.0
O97 O 0.64352 0.65647 0.34626 0.0
O98 O 0.28398 0.96551 0.38777 0.0
Cd99 Cd 0.2963 0.98698 0.35633 0.0
Cd100 Cd 0.31964 0.96603 0.35014 0.0
O101 O 0.30713 0.95293 0.38695 0.0
O102 O 0.2883 0.00981 0.36473 0.0
O103 O 0.32263 0.01677 0.36346 0.0
C104 C 0.30889 0.02356 0.36818 0.0
C105 C 0.35616 0.97817 0.33853 0.0
C106 C 0.29136 0.95393 0.39795 0.0
C107 C 0.28683 0.96025 0.30769 0.0
O108 O 0.299 0.95373 0.31815 0.0
O109 O 0.28419 0.97496 0.31899 0.0
O110 O 0.34214 0.95761 0.34165 0.0
O111 O 0.34977 0.99214 0.34374 0.0
O112 O 0.05821 0.35036 0.32025 0.0
Cd113 Cd 0.0449 0.35884 0.35119 0.0
Cd114 Cd 0.02192 0.31488 0.35668 0.0
O115 O 0.03473 0.31481 0.31983 0.0
O116 O 0.05148 0.38914 0.34231 0.0
O117 O 0.01778 0.36064 0.34312 0.0
C118 C 0.03077 0.38122 0.33803 0.0
C119 C 0.98527 0.29022 0.36758 0.0
C120 C 0.05083 0.33164 0.30949 0.0
C121 C 0.05425 0.34159 0.39971 0.0
O122 O 0.04246 0.32301 0.38884 0.0
O123 O 0.05656 0.35893 0.38877 0.0
O124 O 0.99942 0.28383 0.36419 0.0
O125 O 0.99167 0.31068 0.36322 0.0
O126 O 0.65577 0.94919 0.32362 0.0
Cd127 Cd 0.64995 0.96405 0.35518 0.0
Cd128 Cd 0.69332 0.98309 0.35988 0.0
O129 O 0.69173 0.97047 0.32237 0.0
O130 O 0.62044 0.96061 0.34841 0.0
O131 O 0.65133 0.99267 0.34656 0.0
C132 C 0.63032 0.98133 0.34315 0.0
C133 C 0.71804 0.01967 0.37102 0.0
C134 C 0.67404 0.95543 0.31214 0.0
C135 C 0.66576 0.95132 0.40252 0.0
O136 O 0.68443 0.96166 0.39136 0.0
O137 O 0.64934 0.95165 0.39246 0.0
O138 O 0.72448 0.0056 0.36708 0.0
O139 O 0.6975 0.01319 0.36721 0.0
O140 O 0.05809 0.7092 0.31697 0.0
Cd141 Cd 0.04636 0.68763 0.34826 0.0
Cd142 Cd 0.02399 0.7092 0.35631 0.0
O143 O 0.03536 0.72224 0.31914 0.0
O144 O 0.05386 0.66478 0.33816 0.0
O145 O 0.01966 0.65798 0.34203 0.0
C146 C 0.03312 0.65116 0.33579 0.0
C147 C 0.98835 0.69835 0.37065 0.0
C148 C 0.05074 0.72102 0.30741 0.0
C149 C 0.05806 0.71444 0.39676 0.0
O150 O 0.04587 0.72131 0.38718 0.0
O151 O 0.05973 0.6993 0.38513 0.0
O152 O 1.00269 0.71868 0.36668 0.0
O153 O 0.99372 0.68379 0.36442 0.0
O154 O 0.28604 0.32339 0.38824 0.0
Cd155 Cd 0.29888 0.31475 0.35684 0.0
Cd156 Cd 0.3218 0.35862 0.35148 0.0
O157 O 0.30924 0.35901 0.38841 0.0
O158 O 0.29083 0.28387 0.36487 0.0
O159 O 0.32514 0.31116 0.36433 0.0
C160 C 0.31137 0.29065 0.36878 0.0
C161 C 0.3587 0.38133 0.34002 0.0
C162 C 0.2933 0.34214 0.39891 0.0
C163 C 0.28925 0.33242 0.30868 0.0
O164 O 0.30113 0.35098 0.31954 0.0
O165 O 0.28701 0.31506 0.31948 0.0
O166 O 0.34564 0.38908 0.3436 0.0
O167 O 0.35109 0.36069 0.34475 0.0
O168 O 0.34845 0.05668 0.72221 0.0
Cd169 Cd 0.35776 0.04395 0.69129 0.0
Cd170 Cd 0.3139 0.02015 0.6848 0.0
O171 O 0.31309 0.03249 0.72168 0.0
O172 O 0.3884 0.05148 0.69977 0.0
O173 O 0.36072 0.01733 0.69875 0.0
C174 C 0.38126 0.03082 0.70338 0.0
C175 C 0.2896 0.98351 0.6735 0.0
C176 C 0.32946 0.04875 0.73248 0.0
C177 C 0.34073 0.05306 0.64238 0.0
O178 O 0.32202 0.04085 0.65276 0.0
O179 O 0.35799 0.05571 0.65381 0.0
O180 O 0.28301 0.99751 0.67686 0.0
O181 O 0.31005 0.99005 0.67811 0.0
O182 O 0.95013 0.2943 0.72236 0.0
Cd183 Cd 0.96269 0.31619 0.69132 0.0
Cd184 Cd 0.98637 0.29581 0.68496 0.0
O185 O 0.97361 0.28215 0.72154 0.0
O186 O 0.95507 0.33929 0.70002 0.0
O187 O 0.98924 0.34576 0.69862 0.0
C188 C 0.97573 0.35281 0.7035 0.0
C189 C 0.02327 0.30952 0.6736 0.0
C190 C 0.95755 0.2827 0.7324 0.0
C191 C 0.95366 0.28988 0.64237 0.0
O192 O 0.96593 0.28342 0.65274 0.0
O193 O 0.95086 0.30443 0.65383 0.0
O194 O 0.00995 0.28878 0.67671 0.0
O195 O 0.01595 0.32276 0.67874 0.0
O196 O 0.72907 0.68713 0.65674 0.0
Cd197 Cd 0.71418 0.69369 0.6878 0.0
Cd198 Cd 0.69329 0.65059 0.69165 0.0
O199 O 0.70532 0.65174 0.65402 0.0
O200 O 0.71829 0.72355 0.68139 0.0
O201 O 0.68591 0.69307 0.67902 0.0
C202 C 0.69755 0.71415 0.67631 0.0
C203 C 0.65717 0.62604 0.70458 0.0
C204 C 0.72182 0.66889 0.64477 0.0
C205 C 0.72582 0.67644 0.73426 0.0
O206 O 0.71521 0.65825 0.72221 0.0
O207 O 0.72577 0.69334 0.72533 0.0
O208 O 0.67099 0.61951 0.69947 0.0
O209 O 0.66339 0.64649 0.70039 0.0
O210 O 0.32277 0.28259 0.65514 0.0
Cd211 Cd 0.31201 0.29288 0.68683 0.0
Cd212 Cd 0.35623 0.31503 0.69741 0.0
O213 O 0.35853 0.3031 0.66065 0.0
O214 O 0.28185 0.28575 0.67625 0.0
O215 O 0.30902 0.31977 0.68153 0.0
C216 C 0.28895 0.30655 0.67452 0.0
C217 C 0.38013 0.35148 0.70976 0.0
C218 C 0.34223 0.28912 0.6472 0.0
C219 C 0.32574 0.28018 0.73627 0.0
O220 O 0.34526 0.29367 0.72905 0.0
O221 O 0.30942 0.27756 0.72263 0.0
O222 O 0.38661 0.33725 0.70816 0.0
O223 O 0.36014 0.34525 0.70293 0.0
O224 O 0.72422 0.04219 0.65311 0.0
Cd225 Cd 0.71076 0.02132 0.68479 0.0
Cd226 Cd 0.68996 0.04468 0.68947 0.0
O227 O 0.70201 0.05586 0.65196 0.0
O228 O 0.71812 0.99793 0.67701 0.0
O229 O 0.68411 0.99195 0.67724 0.0
C230 C 0.69752 0.98471 0.67276 0.0
C231 C 0.65367 0.03349 0.70131 0.0
C232 C 0.71737 0.05373 0.64167 0.0
C233 C 0.72227 0.04984 0.73204 0.0
O234 O 0.7115 0.05761 0.72066 0.0
O235 O 0.72272 0.03343 0.72209 0.0
O236 O 0.66786 0.05384 0.69707 0.0
O237 O 0.65981 0.01915 0.69734 0.0
O238 O 0.95435 0.66288 0.72699 0.0
Cd239 Cd 0.96379 0.65153 0.69461 0.0
Cd240 Cd 0.98518 0.69559 0.68346 0.0
O241 O 0.97402 0.69865 0.72006 0.0
O242 O 0.95546 0.6209 0.7049 0.0
O243 O 0.98988 0.64704 0.69937 0.0
C244 C 0.97607 0.62706 0.70615 0.0
C245 C 0.02171 0.71782 0.67005 0.0
C246 C 0.96075 0.68251 0.73422 0.0
C247 C 0.95001 0.66549 0.64547 0.0
O248 O 0.96282 0.68503 0.65316 0.0
O249 O 0.94874 0.64934 0.65839 0.0
O250 O 0.00844 0.72545 0.67232 0.0
O251 O 0.01447 0.69759 0.67676 0.0
C252 C 0.24311 0.35236 0.11631 0.0
C253 C 0.24023 0.33934 0.094 0.0
C254 C 0.22527 0.34827 0.13228 0.0
C255 C 0.20414 0.33088 0.1265 0.0
C256 C 0.2191 0.32192 0.08814 0.0
C257 C 0.20118 0.31784 0.10418 0.0
C258 C 0.18496 0.32773 0.14222 0.0
C259 C 0.226 0.31399 0.20087 0.0
C260 C 0.23424 0.32932 0.22159 0.0
C261 C 0.21036 0.31368 0.1834 0.0
C262 C 0.2026 0.32855 0.18665 0.0
C263 C 0.22651 0.34419 0.22461 0.0
C264 C 0.21081 0.34374 0.20743 0.0
C265 C 0.1848 0.32763 0.17007 0.0
C266 C 0.09594 0.31459 0.20013 0.0
C267 C 0.10292 0.32872 0.22208 0.0
C268 C 0.11136 0.31462 0.18248 0.0
C269 C 0.13396 0.32884 0.18653 0.0
C270 C 0.12548 0.34315 0.2257 0.0
C271 C 0.14079 0.34313 0.20822 0.0
C272 C 0.1509 0.32792 0.16998 0.0
C273 C 0.11876 0.35405 0.11575 0.0
C274 C 0.10858 0.3411 0.09342 0.0
C275 C 0.13207 0.34948 0.13191 0.0
C276 C 0.13531 0.33169 0.1263 0.0
C277 C 0.11154 0.3231 0.08796 0.0
C278 C 0.12501 0.3186 0.10411 0.0
C279 C 0.15099 0.32808 0.14213 0.0
H280 H 0.25919 0.36592 0.12127 0.0
H281 H 0.22795 0.35912 0.14877 0.0
H282 H 0.21635 0.31187 0.07081 0.0
H283 H 0.18496 0.30461 0.09903 0.0
H284 H 0.23161 0.30225 0.19828 0.0
H285 H 0.20395 0.30153 0.16782 0.0
H286 H 0.23224 0.35589 0.24071 0.0
H287 H 0.20495 0.35523 0.21051 0.0
H288 H 0.07862 0.30344 0.19675 0.0
H289 H 0.10567 0.30316 0.16615 0.0
H290 H 0.13137 0.35409 0.24252 0.0
H291 H 0.15811 0.35417 0.21187 0.0
H292 H 0.11657 0.36788 0.12057 0.0
H293 H 0.1403 0.36025 0.14842 0.0
H294 H 0.1039 0.31291 0.07084 0.0
H295 H 0.12751 0.30497 0.09919 0.0
N296 N 0.16796 0.32782 0.12935 0.0
N297 N 0.1678 0.32774 0.18268 0.0
C298 C 0.65182 0.88946 0.11621 0.0
C299 C 0.66521 0.89984 0.09424 0.0
C300 C 0.65603 0.87595 0.13248 0.0
C301 C 0.67387 0.87269 0.12732 0.0
C302 C 0.68329 0.89692 0.08927 0.0
C303 C 0.68743 0.88323 0.10552 0.0
C304 C 0.67699 0.85667 0.14307 0.0
C305 C 0.69026 0.9109 0.20244 0.0
C306 C 0.67494 0.90374 0.22321 0.0
C307 C 0.69044 0.8957 0.1846 0.0
C308 C 0.67544 0.87313 0.18751 0.0
C309 C 0.65984 0.88122 0.22577 0.0
C310 C 0.66015 0.8661 0.20821 0.0
C311 C 0.67657 0.85635 0.17091 0.0
C312 C 0.69043 0.78133 0.20166 0.0
C313 C 0.675 0.77296 0.22229 0.0
C314 C 0.69062 0.79685 0.18407 0.0
C315 C 0.67555 0.80436 0.18713 0.0
C316 C 0.65984 0.78035 0.22502 0.0
C317 C 0.66018 0.79593 0.20773 0.0
C318 C 0.67662 0.82233 0.17073 0.0
C319 C 0.65157 0.76469 0.11579 0.0
C320 C 0.66482 0.76764 0.09367 0.0
C321 C 0.65591 0.78239 0.13217 0.0
C322 C 0.67376 0.80341 0.12698 0.0
C323 C 0.6829 0.78856 0.08866 0.0
C324 C 0.68718 0.80636 0.10503 0.0
C325 C 0.67699 0.82252 0.14289 0.0
H326 H 0.63789 0.8916 0.12062 0.0
H327 H 0.6449 0.86754 0.14867 0.0
H328 H 0.69382 0.90473 0.07243 0.0
H329 H 0.7011 0.88072 0.10094 0.0
H330 H 0.70217 0.92818 0.20019 0.0
H331 H 0.70267 0.90147 0.1691 0.0
H332 H 0.64816 0.87519 0.24189 0.0
H333 H 0.64856 0.84878 0.21102 0.0
H334 H 0.70239 0.77598 0.1993 0.0
H335 H 0.70291 0.80343 0.16864 0.0
H336 H 0.64805 0.7745 0.24104 0.0
H337 H 0.64853 0.80162 0.21064 0.0
H338 H 0.63766 0.74869 0.12025 0.0
H339 H 0.64488 0.77972 0.14846 0.0
H340 H 0.69333 0.79124 0.0717 0.0
H341 H 0.70084 0.82249 0.10043 0.0
N342 N 0.6773 0.83978 0.13016 0.0
N343 N 0.67639 0.83921 0.18349 0.0
C344 C 0.11732 0.7676 0.11596 0.0
C345 C 0.10702 0.77009 0.09356 0.0
C346 C 0.13093 0.78569 0.13162 0.0
C347 C 0.13439 0.80669 0.12542 0.0
C348 C 0.11056 0.79111 0.08721 0.0
C349 C 0.12425 0.80928 0.10293 0.0
C350 C 0.15003 0.82609 0.14105 0.0
C351 C 0.0949 0.78479 0.19903 0.0
C352 C 0.10195 0.77744 0.22073 0.0
C353 C 0.11029 0.80034 0.18153 0.0
C354 C 0.1329 0.80872 0.18554 0.0
C355 C 0.12454 0.78567 0.22437 0.0
C356 C 0.13981 0.80119 0.20709 0.0
C357 C 0.14981 0.82646 0.1689 0.0
C358 C 0.2243 0.91554 0.19931 0.0
C359 C 0.23267 0.90868 0.22012 0.0
C360 C 0.20885 0.90006 0.18183 0.0
C361 C 0.2014 0.87755 0.18522 0.0
C362 C 0.22532 0.8862 0.22322 0.0
C363 C 0.20979 0.87082 0.20607 0.0
C364 C 0.18366 0.86053 0.16879 0.0
C365 C 0.24223 0.89224 0.11517 0.0
C366 C 0.23978 0.90285 0.09306 0.0
C367 C 0.22421 0.87889 0.13108 0.0
C368 C 0.20335 0.87598 0.12536 0.0
C369 C 0.21901 0.90024 0.08749 0.0
C370 C 0.20087 0.88668 0.10336 0.0
C371 C 0.18397 0.86029 0.14097 0.0
H372 H 0.11495 0.75162 0.1213 0.0
H373 H 0.13914 0.7833 0.14827 0.0
H374 H 0.10315 0.79358 0.0698 0.0
H375 H 0.12703 0.82539 0.09746 0.0
H376 H 0.07756 0.77859 0.19568 0.0
H377 H 0.10456 0.80616 0.1653 0.0
H378 H 0.13046 0.78045 0.24102 0.0
H379 H 0.15714 0.80745 0.21069 0.0
H380 H 0.22964 0.9328 0.19667 0.0
H381 H 0.20231 0.9056 0.16617 0.0
H382 H 0.23123 0.88045 0.23936 0.0
H383 H 0.20416 0.85354 0.20922 0.0
H384 H 0.25812 0.89414 0.12002 0.0
H385 H 0.2265 0.87036 0.14747 0.0
H386 H 0.21673 0.90824 0.07052 0.0
H387 H 0.18487 0.88443 0.09838 0.0
N388 N 0.16706 0.84312 0.12817 0.0
N389 N 0.16664 0.84363 0.18151 0.0
C390 C 0.33673 0.10437 0.84241 0.0
C391 C 0.32015 0.09471 0.82325 0.0
C392 C 0.33658 0.1191 0.86085 0.0
C393 C 0.31961 0.12426 0.86084 0.0
C394 C 0.3029 0.09944 0.82365 0.0
C395 C 0.30266 0.11407 0.84223 0.0
C396 C 0.32122 0.14265 0.87705 0.0
C397 C 0.31788 0.09436 0.93894 0.0
C398 C 0.33851 0.10114 0.95058 0.0
C399 C 0.31453 0.10884 0.92321 0.0
C400 C 0.33156 0.13051 0.91935 0.0
C401 C 0.35547 0.12293 0.94655 0.0
C402 C 0.35193 0.13751 0.93143 0.0
C403 C 0.32809 0.14628 0.90365 0.0
C404 C 0.32517 0.2293 0.93067 0.0
C405 C 0.34363 0.2391 0.9473 0.0
C406 C 0.32019 0.21031 0.91637 0.0
C407 C 0.33388 0.20102 0.91785 0.0
C408 C 0.35698 0.22946 0.94923 0.0
C409 C 0.35214 0.21065 0.93473 0.0
C410 C 0.32897 0.1808 0.90299 0.0
C411 C 0.33986 0.22808 0.83544 0.0
C412 C 0.32 0.22395 0.82361 0.0
C413 C 0.34026 0.2133 0.85358 0.0
C414 C 0.32093 0.1938 0.85983 0.0
C415 C 0.30058 0.20453 0.83044 0.0
C416 C 0.3011 0.18947 0.84808 0.0
C417 C 0.32186 0.17704 0.87649 0.0
H418 H 0.3503 0.10113 0.84252 0.0
H419 H 0.35041 0.12732 0.87409 0.0
H420 H 0.29016 0.09274 0.80878 0.0
H421 H 0.28962 0.11806 0.84142 0.0
H422 H 0.3042 0.078 0.94227 0.0
H423 H 0.29854 0.10325 0.91448 0.0
H424 H 0.37162 0.12872 0.9549 0.0
H425 H 0.36526 0.1542 0.92877 0.0
H426 H 0.31472 0.23647 0.9284 0.0
H427 H 0.30551 0.20286 0.90437 0.0
H428 H 0.37122 0.23649 0.962 0.0
H429 H 0.36285 0.20372 0.93655 0.0
H430 H 0.35531 0.24232 0.82998 0.0
H431 H 0.35582 0.21667 0.86196 0.0
H432 H 0.28498 0.2008 0.82184 0.0
H433 H 0.28604 0.17438 0.85247 0.0
N434 N 0.31826 0.15815 0.86464 0.0
N435 N 0.33181 0.16523 0.91547 0.0
C436 C 0.89948 0.21525 0.95216 0.0
C437 C 0.90372 0.23627 0.94466 0.0
C438 C 0.88523 0.19678 0.93731 0.0
C439 C 0.87516 0.199 0.91454 0.0
C440 C 0.89351 0.23845 0.92194 0.0
C441 C 0.87931 0.22 0.90708 0.0
C442 C 0.85905 0.17915 0.90003 0.0
C443 C 0.88316 0.21496 0.81421 0.0
C444 C 0.90591 0.22479 0.81827 0.0
C445 C 0.86838 0.19961 0.83206 0.0
C446 C 0.87591 0.19383 0.8546 0.0
C447 C 0.91357 0.21902 0.84081 0.0
C448 C 0.89868 0.20361 0.85883 0.0
C449 C 0.85954 0.17675 0.87242 0.0
C450 C 0.77104 0.1029 0.84449 0.0
C451 C 0.7774 0.09464 0.82301 0.0
C452 C 0.78669 0.11743 0.8624 0.0
C453 C 0.80894 0.12353 0.85959 0.0
C454 C 0.79946 0.09992 0.82097 0.0
C455 C 0.81504 0.11426 0.83901 0.0
C456 C 0.82638 0.14198 0.87493 0.0
C457 C 0.78517 0.09226 0.93809 0.0
C458 C 0.77162 0.09901 0.95076 0.0
C459 C 0.80275 0.10691 0.92218 0.0
C460 C 0.80747 0.12871 0.91925 0.0
C461 C 0.77667 0.121 0.94781 0.0
C462 C 0.79455 0.13572 0.93256 0.0
C463 C 0.82579 0.14447 0.90248 0.0
H464 H 0.90677 0.21303 0.96986 0.0
H465 H 0.88197 0.18069 0.94369 0.0
H466 H 0.89642 0.25446 0.91576 0.0
H467 H 0.87124 0.22211 0.89008 0.0
H468 H 0.87676 0.21891 0.79692 0.0
H469 H 0.85093 0.19223 0.82824 0.0
H470 H 0.93102 0.22647 0.84453 0.0
H471 H 0.90494 0.19915 0.87581 0.0
H472 H 0.75409 0.09884 0.84684 0.0
H473 H 0.78148 0.1248 0.87744 0.0
H474 H 0.8049 0.09391 0.8046 0.0
H475 H 0.83211 0.11885 0.83622 0.0
H476 H 0.78234 0.07574 0.94056 0.0
H477 H 0.81277 0.10129 0.91235 0.0
H478 H 0.76654 0.12681 0.95691 0.0
H479 H 0.79794 0.1525 0.93053 0.0
N480 N 0.84216 0.16291 0.91394 0.0
N481 N 0.84322 0.15824 0.86112 0.0
C482 C 0.77977 0.68593 0.93286 0.0
C483 C 0.77081 0.66773 0.94995 0.0
C484 C 0.79887 0.69148 0.9184 0.0
C485 C 0.80912 0.67867 0.92041 0.0
C486 C 0.78189 0.65584 0.95312 0.0
C487 C 0.80072 0.66117 0.93845 0.0
C488 C 0.82877 0.68333 0.90447 0.0
C489 C 0.77657 0.66921 0.84303 0.0
C490 C 0.78233 0.68528 0.82335 0.0
C491 C 0.79219 0.67067 0.86121 0.0
C492 C 0.81373 0.68863 0.86069 0.0
C493 C 0.80369 0.70352 0.82329 0.0
C494 C 0.81923 0.70512 0.8417 0.0
C495 C 0.83127 0.68894 0.87732 0.0
C496 C 0.89755 0.67108 0.83539 0.0
C497 C 0.91404 0.69082 0.8242 0.0
C498 C 0.88274 0.6712 0.85369 0.0
C499 C 0.88374 0.69097 0.8608 0.0
C500 C 0.91533 0.71071 0.83201 0.0
C501 C 0.90015 0.71075 0.84994 0.0
C502 C 0.86603 0.6904 0.87709 0.0
C503 C 0.91435 0.69465 0.94081 0.0
C504 C 0.90883 0.67319 0.94838 0.0
C505 C 0.89982 0.6983 0.92564 0.0
C506 C 0.87935 0.68065 0.91833 0.0
C507 C 0.88833 0.65557 0.94061 0.0
C508 C 0.87366 0.6593 0.92599 0.0
C509 C 0.86335 0.68442 0.90381 0.0
H510 H 0.77174 0.69556 0.93022 0.0
H511 H 0.80544 0.70562 0.90549 0.0
H512 H 0.77586 0.64221 0.9668 0.0
H513 H 0.80849 0.65126 0.94087 0.0
H514 H 0.76014 0.65515 0.8439 0.0
H515 H 0.78759 0.65732 0.87501 0.0
H516 H 0.80867 0.71609 0.80829 0.0
H517 H 0.8358 0.71898 0.84062 0.0
H518 H 0.8954 0.65537 0.8292 0.0
H519 H 0.86984 0.65572 0.86143 0.0
H520 H 0.92781 0.72622 0.82386 0.0
H521 H 0.90098 0.72615 0.85501 0.0
H522 H 0.92967 0.70868 0.94702 0.0
H523 H 0.90432 0.71494 0.92015 0.0
H524 H 0.88361 0.63881 0.94576 0.0
H525 H 0.85788 0.64549 0.92052 0.0
N526 N 0.84491 0.68115 0.91651 0.0
N527 N 0.84992 0.69239 0.86484 0.0
C528 C 0.76382 0.65703 0.44501 0.0
C529 C 0.7729 0.67464 0.42704 0.0
C530 C 0.77744 0.65175 0.45973 0.0
C531 C 0.80043 0.66425 0.45709 0.0
C532 C 0.79577 0.68621 0.42334 0.0
C533 C 0.80935 0.68116 0.43826 0.0
C534 C 0.81558 0.65981 0.473 0.0
C535 C 0.77875 0.67548 0.53493 0.0
C536 C 0.7687 0.65968 0.55494 0.0
C537 C 0.79255 0.67364 0.51646 0.0
C538 C 0.7961 0.65561 0.51713 0.0
C539 C 0.7718 0.64138 0.55516 0.0
C540 C 0.78543 0.63943 0.53653 0.0
C541 C 0.81306 0.65498 0.50026 0.0
C542 C 0.90037 0.67078 0.53581 0.0
C543 C 0.89358 0.65446 0.55537 0.0
C544 C 0.88547 0.67025 0.51713 0.0
C545 C 0.86352 0.65311 0.51722 0.0
C546 C 0.87168 0.63717 0.5552 0.0
C547 C 0.85685 0.63652 0.53635 0.0
C548 C 0.84671 0.65397 0.5003 0.0
C549 C 0.89771 0.65518 0.44452 0.0
C550 C 0.9066 0.67309 0.42698 0.0
C551 C 0.87891 0.65017 0.45939 0.0
C552 C 0.86894 0.66323 0.45726 0.0
C553 C 0.89583 0.68526 0.42384 0.0
C554 C 0.87736 0.68048 0.43887 0.0
C555 C 0.84939 0.65907 0.47308 0.0
H556 H 0.74622 0.64765 0.44807 0.0
H557 H 0.76999 0.63803 0.47328 0.0
H558 H 0.80324 0.69937 0.40902 0.0
H559 H 0.82695 0.69082 0.43534 0.0
H560 H 0.7764 0.68959 0.53397 0.0
H561 H 0.80107 0.68675 0.5023 0.0
H562 H 0.76442 0.62901 0.57042 0.0
H563 H 0.78815 0.62555 0.53773 0.0
H564 H 0.9171 0.68438 0.53545 0.0
H565 H 0.89094 0.68374 0.50333 0.0
H566 H 0.86569 0.62468 0.57039 0.0
H567 H 0.8399 0.62339 0.53725 0.0
H568 H 0.90553 0.64534 0.44712 0.0
H569 H 0.87231 0.63621 0.4726 0.0
H570 H 0.90183 0.69869 0.40986 0.0
H571 H 0.86983 0.6906 0.43636 0.0
N572 N 0.83366 0.66168 0.46072 0.0
N573 N 0.82858 0.65201 0.51259 0.0
C574 C 0.32402 0.22634 0.45095 0.0
C575 C 0.33697 0.23642 0.42859 0.0
C576 C 0.32857 0.21307 0.46721 0.0
C577 C 0.34632 0.20975 0.46162 0.0
C578 C 0.35502 0.23354 0.42324 0.0
C579 C 0.35949 0.22008 0.43947 0.0
C580 C 0.34949 0.19364 0.47707 0.0
C581 C 0.3635 0.24769 0.53718 0.0
C582 C 0.3484 0.24041 0.55819 0.0
C583 C 0.3635 0.23257 0.51905 0.0
C584 C 0.34847 0.21 0.52182 0.0
C585 C 0.33316 0.2179 0.56049 0.0
C586 C 0.33329 0.20288 0.54264 0.0
C587 C 0.34934 0.19324 0.50491 0.0
C588 C 0.36063 0.11635 0.5343 0.0
C589 C 0.34506 0.10809 0.55478 0.0
C590 C 0.36146 0.13236 0.51705 0.0
C591 C 0.3469 0.14048 0.52031 0.0
C592 C 0.3304 0.11608 0.5577 0.0
C593 C 0.33139 0.13216 0.54076 0.0
C594 C 0.34858 0.15883 0.50421 0.0
C595 C 0.32174 0.10132 0.44903 0.0
C596 C 0.33492 0.10389 0.42697 0.0
C597 C 0.32657 0.11913 0.46543 0.0
C598 C 0.34486 0.13989 0.46031 0.0
C599 C 0.3534 0.12455 0.422 0.0
C600 C 0.35818 0.14248 0.43839 0.0
C601 C 0.34873 0.15913 0.47639 0.0
H602 H 0.31012 0.22846 0.45562 0.0
H603 H 0.3177 0.20479 0.48364 0.0
H604 H 0.36521 0.24112 0.40608 0.0
H605 H 0.37306 0.2175 0.43455 0.0
H606 H 0.37532 0.265 0.5349 0.0
H607 H 0.37559 0.23842 0.50337 0.0
H608 H 0.32144 0.21181 0.57657 0.0
H609 H 0.32161 0.18557 0.54528 0.0
H610 H 0.37221 0.11053 0.53181 0.0
H611 H 0.37384 0.13883 0.5017 0.0
H612 H 0.31852 0.11032 0.57362 0.0
H613 H 0.3201 0.13829 0.5438 0.0
H614 H 0.30752 0.08551 0.45346 0.0
H615 H 0.31562 0.11678 0.48171 0.0
H616 H 0.36378 0.12693 0.40508 0.0
H617 H 0.37218 0.15841 0.43386 0.0
N618 N 0.34932 0.17661 0.4639 0.0
N619 N 0.34888 0.17586 0.51723 0.0
C620 C 0.7853 0.09872 0.449 0.0
C621 C 0.77445 0.10099 0.42701 0.0
C622 C 0.79862 0.11682 0.46479 0.0
C623 C 0.80121 0.13758 0.45915 0.0
C624 C 0.77681 0.12167 0.42147 0.0
C625 C 0.7903 0.13989 0.43725 0.0
C626 C 0.81671 0.15703 0.47479 0.0
C627 C 0.76202 0.11561 0.53302 0.0
C628 C 0.76912 0.10756 0.55393 0.0
C629 C 0.77733 0.13127 0.51558 0.0
C630 C 0.79992 0.13921 0.51907 0.0
C631 C 0.79168 0.11542 0.55714 0.0
C632 C 0.8069 0.13112 0.53998 0.0
C633 C 0.81671 0.15714 0.50262 0.0
C634 C 0.89115 0.24603 0.53378 0.0
C635 C 0.89965 0.23897 0.55424 0.0
C636 C 0.87564 0.23074 0.51618 0.0
C637 C 0.86826 0.2082 0.5191 0.0
C638 C 0.89239 0.21646 0.55684 0.0
C639 C 0.8768 0.20127 0.53957 0.0
C640 C 0.85042 0.19133 0.50262 0.0
C641 C 0.9083 0.2241 0.44801 0.0
C642 C 0.9053 0.23439 0.42595 0.0
C643 C 0.8906 0.21065 0.46429 0.0
C644 C 0.86954 0.20738 0.45903 0.0
C645 C 0.88434 0.23147 0.42088 0.0
C646 C 0.86653 0.21784 0.43713 0.0
C647 C 0.85044 0.1914 0.47478 0.0
H648 H 0.78358 0.08291 0.45388 0.0
H649 H 0.80731 0.11465 0.48108 0.0
H650 H 0.76864 0.12383 0.40461 0.0
H651 H 0.7923 0.1558 0.43232 0.0
H652 H 0.74469 0.1099 0.53031 0.0
H653 H 0.77159 0.13759 0.49989 0.0
H654 H 0.79762 0.10982 0.5734 0.0
H655 H 0.82423 0.13713 0.5432 0.0
H656 H 0.89641 0.26331 0.53151 0.0
H657 H 0.86898 0.23644 0.50083 0.0
H658 H 0.89837 0.21053 0.57272 0.0
H659 H 0.87124 0.18396 0.54236 0.0
H660 H 0.92435 0.22625 0.45249 0.0
H661 H 0.89329 0.20228 0.48054 0.0
H662 H 0.88164 0.23921 0.40396 0.0
H663 H 0.85037 0.2153 0.43249 0.0
N664 N 0.83352 0.17427 0.46194 0.0
N665 N 0.83357 0.17422 0.5153 0.0
C666 C 0.97206 0.54633 0.16567 0.0
C667 C 0.99186 0.56139 0.1532 0.0
C668 C 0.97146 0.53079 0.18342 0.0
C669 C 0.99079 0.53068 0.19005 0.0
C670 C 0.01126 0.5614 0.16033 0.0
C671 C 0.01071 0.54623 0.1786 0.0
C672 C 0.98979 0.51232 0.20528 0.0
C673 C 0.01809 0.5577 0.28356 0.0
C674 C 0.00541 0.56807 0.28175 0.0
C675 C 0.01338 0.53958 0.26777 0.0
C676 C 0.99589 0.53136 0.24978 0.0
C677 C 0.98752 0.55949 0.26422 0.0
C678 C 0.98264 0.54113 0.24865 0.0
C679 C 0.99177 0.51237 0.23296 0.0
C680 C 0.01675 0.44425 0.25419 0.0
C681 C 0.00426 0.43436 0.27696 0.0
C682 C 0.01233 0.45799 0.23857 0.0
C683 C 0.99523 0.46201 0.24529 0.0
C684 C 0.98707 0.43827 0.28359 0.0
C685 C 0.9827 0.45208 0.26798 0.0
C686 C 0.99193 0.47836 0.23058 0.0
C687 C 0.97806 0.4244 0.17103 0.0
C688 C 0.99207 0.43202 0.14897 0.0
C689 C 0.9775 0.43934 0.18898 0.0
C690 C 0.991 0.46209 0.18514 0.0
C691 C 0.00555 0.45475 0.14533 0.0
C692 C 0.00494 0.46958 0.16311 0.0
C693 C 0.99024 0.47852 0.20284 0.0
H694 H 0.95691 0.54622 0.16134 0.0
H695 H 0.95583 0.51857 0.1916 0.0
H696 H 0.02676 0.57255 0.15099 0.0
H697 H 0.02571 0.54603 0.18298 0.0
H698 H 0.03183 0.56374 0.29706 0.0
H699 H 0.02372 0.53221 0.26933 0.0
H700 H 0.97756 0.56721 0.2621 0.0
H701 H 0.96843 0.53455 0.23596 0.0
H702 H 0.03014 0.44156 0.24867 0.0
H703 H 0.02274 0.46598 0.22169 0.0
H704 H 0.97746 0.43121 0.30128 0.0
H705 H 0.96971 0.45528 0.27384 0.0
H706 H 0.96761 0.40695 0.1744 0.0
H707 H 0.96632 0.43314 0.20557 0.0
H708 H 0.01636 0.46111 0.12841 0.0
H709 H 0.01543 0.48703 0.15961 0.0
N710 N 0.98926 0.49552 0.1914 0.0
N711 N 0.99269 0.49532 0.24446 0.0
C712 C 0.45469 0.42561 0.17272 0.0
C713 C 0.44661 0.43276 0.15186 0.0
C714 C 0.46965 0.44081 0.19084 0.0
C715 C 0.47677 0.46332 0.18818 0.0
C716 C 0.45346 0.4552 0.14969 0.0
C717 C 0.46846 0.4703 0.16751 0.0
C718 C 0.49423 0.48018 0.20507 0.0
C719 C 0.43587 0.44571 0.25872 0.0
C720 C 0.43895 0.43569 0.28101 0.0
C721 C 0.45362 0.4595 0.24268 0.0
C722 C 0.47486 0.46346 0.24842 0.0
C723 C 0.46017 0.43954 0.28675 0.0
C724 C 0.478 0.45345 0.27068 0.0
C725 C 0.49396 0.47978 0.2329 0.0
C726 C 0.55823 0.57211 0.26103 0.0
C727 C 0.56882 0.56943 0.28299 0.0
C728 C 0.54527 0.55435 0.2446 0.0
C729 C 0.5428 0.53356 0.24961 0.0
C730 C 0.56665 0.54874 0.28786 0.0
C731 C 0.55351 0.53086 0.27145 0.0
C732 C 0.5275 0.51437 0.23351 0.0
C733 C 0.58223 0.55736 0.17591 0.0
C734 C 0.57497 0.56454 0.15425 0.0
C735 C 0.56701 0.54164 0.19339 0.0
C736 C 0.54435 0.53293 0.18943 0.0
C737 C 0.55232 0.55613 0.15079 0.0
C738 C 0.53722 0.54046 0.16808 0.0
C739 C 0.52766 0.51467 0.20568 0.0
H740 H 0.44953 0.40836 0.1749 0.0
H741 H 0.47609 0.43508 0.2064 0.0
H742 H 0.44762 0.46118 0.13372 0.0
H743 H 0.47378 0.48757 0.16497 0.0
H744 H 0.41971 0.44307 0.25386 0.0
H745 H 0.45079 0.4676 0.22624 0.0
H746 H 0.46306 0.43232 0.30404 0.0
H747 H 0.4943 0.45661 0.27581 0.0
H748 H 0.55981 0.58796 0.2567 0.0
H749 H 0.53671 0.55678 0.22836 0.0
H750 H 0.57463 0.54628 0.3047 0.0
H751 H 0.55159 0.5149 0.27589 0.0
H752 H 0.59961 0.56373 0.17916 0.0
H753 H 0.57293 0.53584 0.20946 0.0
H754 H 0.54622 0.5612 0.13419 0.0
H755 H 0.51985 0.53395 0.16452 0.0
N756 N 0.51103 0.49758 0.19272 0.0
N757 N 0.51071 0.49686 0.24603 0.0
C758 C 0.44722 0.01898 0.26584 0.0
C759 C 0.43853 1.00201 0.28468 0.0
C760 C 0.46542 0.02282 0.25053 0.0
C761 C 0.47491 0.00937 0.25325 0.0
C762 C 0.44859 0.98916 0.288 0.0
C763 C 0.46653 0.9928 0.2725 0.0
C764 C 0.49397 0.01266 0.23705 0.0
C765 C 0.44074 0.99792 0.17688 0.0
C766 C 0.44647 0.01355 0.15666 0.0
C767 C 0.45661 0.99924 0.1946 0.0
C768 C 0.47843 0.01661 0.19298 0.0
C769 C 0.46819 0.03111 0.15538 0.0
C770 C 0.484 0.03256 0.17327 0.0
C771 C 0.49601 0.01699 0.20962 0.0
C772 C 0.56926 1.00199 0.17658 0.0
C773 C 0.57733 0.01682 0.15536 0.0
C774 C 0.55483 0.00287 0.19492 0.0
C775 C 0.54865 0.01905 0.19295 0.0
C776 C 0.5718 0.03348 0.15392 0.0
C777 C 0.55756 0.03452 0.17245 0.0
C778 C 0.53073 0.01814 0.20954 0.0
C779 C 0.58129 0.02574 0.27134 0.0
C780 C 0.57485 0.00565 0.28427 0.0
C781 C 0.56645 0.02829 0.25534 0.0
C782 C 0.54478 0.011 0.25254 0.0
C783 C 0.55308 0.98842 0.28121 0.0
C784 C 0.53815 0.99119 0.26585 0.0
C785 C 0.52852 0.01359 0.23683 0.0
H786 H 0.43969 0.02898 0.26248 0.0
H787 H 0.47196 0.03621 0.2365 0.0
H788 H 0.44246 0.97612 0.30253 0.0
H789 H 0.47367 0.98236 0.27532 0.0
H790 H 0.42407 0.98437 0.17867 0.0
H791 H 0.45192 0.98631 0.20904 0.0
H792 H 0.47317 0.04332 0.13993 0.0
H793 H 0.50075 0.04594 0.17134 0.0
H794 H 0.57349 0.98916 0.17849 0.0
H795 H 0.54768 0.99012 0.20973 0.0
H796 H 0.57766 0.04509 0.13774 0.0
H797 H 0.5529 0.04702 0.17023 0.0
H798 H 0.59767 0.03962 0.27385 0.0
H799 H 0.57173 0.04386 0.2456 0.0
H800 H 0.54754 0.97263 0.2905 0.0
H801 H 0.52146 0.97767 0.26399 0.0
N802 N 0.51028 0.01101 0.24939 0.0
N803 N 0.5144 0.01974 0.19715 0.0
C804 C 0.57689 0.02441 0.78175 0.0
C805 C 0.57399 0.01102 0.75982 0.0
C806 C 0.5591 0.02033 0.79784 0.0
C807 C 0.53806 0.0026 0.7925 0.0
C808 C 0.55303 0.99308 0.75465 0.0
C809 C 0.53515 0.98906 0.77071 0.0
C810 C 0.51889 0.99948 0.80817 0.0
C811 C 0.55995 0.98562 0.86615 0.0
C812 C 0.5669 0.99944 0.88838 0.0
C813 C 0.54473 0.98594 0.84853 0.0
C814 C 0.53638 1.00021 0.85277 0.0
C815 C 0.55878 0.01392 0.89224 0.0
C816 C 0.54365 0.01423 0.87472 0.0
C817 C 0.51875 0.99962 0.83606 0.0
C818 C 0.43372 0.98071 0.87689 0.0
C819 C 0.43817 1.00042 0.88944 0.0
C820 C 0.4482 0.98061 0.85793 0.0
C821 C 0.46749 1.00011 0.85155 0.0
C822 C 0.4571 0.02005 0.88199 0.0
C823 C 0.47179 0.01981 0.86361 0.0
C824 C 0.48474 0.99955 0.83558 0.0
C825 C 0.45104 0.02305 0.78012 0.0
C826 C 0.43925 0.00818 0.75984 0.0
C827 C 0.46547 0.01989 0.79592 0.0
C828 C 0.46829 1.00164 0.79205 0.0
C829 C 0.44215 0.98995 0.75579 0.0
C830 C 0.45669 0.9868 0.77168 0.0
C831 C 0.4847 0.99925 0.80782 0.0
H832 H 0.59293 0.03822 0.78631 0.0
H833 H 0.56172 0.03139 0.81408 0.0
H834 H 0.5504 0.98255 0.73782 0.0
H835 H 0.51901 0.97546 0.76603 0.0
H836 H 0.56612 0.97446 0.86253 0.0
H837 H 0.53908 0.97464 0.83205 0.0
H838 H 0.56367 0.02463 0.90928 0.0
H839 H 0.5374 0.02531 0.87855 0.0
H840 H 0.41968 0.9652 0.8826 0.0
H841 H 0.44492 0.96516 0.84924 0.0
H842 H 0.46096 0.03555 0.89101 0.0
H843 H 0.48681 0.03496 0.85923 0.0
H844 H 0.4492 0.03728 0.78365 0.0
H845 H 0.4749 0.03211 0.81068 0.0
H846 H 0.43358 0.97844 0.74 0.0
H847 H 0.45897 0.97286 0.768 0.0
N848 N 0.50175 0.99913 0.79513 0.0
N849 N 0.50166 0.99968 0.84856 0.0
C850 C 0.98746 0.55887 0.78336 0.0
C851 C 0.99998 0.5689 0.76068 0.0
C852 C 0.99151 0.54467 0.79852 0.0
C853 C 0.00836 0.54033 0.79157 0.0
C854 C 0.01671 0.5644 0.75352 0.0
C855 C 0.02076 0.55013 0.76875 0.0
C856 C 0.01189 0.52435 0.80696 0.0
C857 C 0.02837 0.57994 0.86565 0.0
C858 C 0.01425 0.57322 0.8876 0.0
C859 C 0.02763 0.56434 0.84772 0.0
C860 C 0.01278 0.54185 0.8516 0.0
C861 C 0.99919 0.55078 0.89105 0.0
C862 C 0.99856 0.53529 0.87337 0.0
C863 C 0.01293 0.52466 0.83478 0.0
C864 C 0.02782 0.44992 0.86412 0.0
C865 C 0.01376 0.44247 0.88614 0.0
C866 C 0.02725 0.4651 0.8466 0.0
C867 C 0.01263 0.47303 0.85092 0.0
C868 C 0.99896 0.45018 0.89006 0.0
C869 C 0.9985 0.46535 0.87276 0.0
C870 C 0.0129 0.49061 0.83445 0.0
C871 C 0.9872 0.43167 0.78184 0.0
C872 C 1.00005 0.43427 0.75944 0.0
C873 C 0.99124 0.44975 0.79733 0.0
C874 C 0.00839 0.47087 0.79091 0.0
C875 C 0.01711 0.45542 0.75285 0.0
C876 C 0.02113 0.47359 0.76837 0.0
C877 C 0.0119 0.49019 0.80663 0.0
H878 H 0.97442 0.56195 0.78935 0.0
H879 H 0.98112 0.53674 0.81544 0.0
H880 H 0.02633 0.57154 0.73586 0.0
H881 H 0.03356 0.54671 0.76269 0.0
H882 H 0.04003 0.59717 0.86245 0.0
H883 H 0.03901 0.56977 0.83131 0.0
H884 H 0.98823 0.54512 0.90789 0.0
H885 H 0.98706 0.51804 0.87688 0.0
H886 H 0.03927 0.4441 0.86054 0.0
H887 H 0.03858 0.47105 0.83013 0.0
H888 H 0.98806 0.44487 0.90695 0.0
H889 H 0.98716 0.47129 0.87662 0.0
H890 H 0.97391 0.41558 0.78736 0.0
H891 H 0.98066 0.44725 0.81406 0.0
H892 H 0.02701 0.45796 0.73542 0.0
H893 H 0.03418 0.48977 0.76276 0.0
N894 N 0.01158 0.50717 0.79395 0.0
N895 N 0.01335 0.50779 0.84725 0.0
C896 C 0.56513 0.57903 0.77536 0.0
C897 C 0.57391 0.56967 0.75809 0.0
C898 C 0.54609 0.56564 0.78997 0.0
C899 C 0.53573 0.5426 0.78799 0.0
C900 C 0.56273 0.54673 0.75497 0.0
C901 C 0.54399 0.53339 0.76982 0.0
C902 C 0.51604 0.52771 0.80394 0.0
C903 C 0.56743 0.56581 0.86648 0.0
C904 C 0.56119 0.57581 0.88611 0.0
C905 C 0.55223 0.55194 0.84775 0.0
C906 C 0.53065 0.54832 0.8477 0.0
C907 C 0.53985 0.57278 0.8855 0.0
C908 C 0.52473 0.55912 0.86657 0.0
C909 C 0.51337 0.53097 0.83097 0.0
C910 C 0.44859 0.44769 0.87503 0.0
C911 C 0.43223 0.4512 0.8863 0.0
C912 C 0.46302 0.46211 0.85608 0.0
C913 C 0.46162 0.48051 0.84825 0.0
C914 C 0.43025 0.46913 0.87732 0.0
C915 C 0.44512 0.48391 0.8589 0.0
C916 C 0.47893 0.49736 0.83138 0.0
C917 C 0.42918 0.44527 0.77781 0.0
C918 C 0.43769 0.43557 0.76068 0.0
C919 C 0.44327 0.4643 0.79195 0.0
C920 C 0.4662 0.47374 0.78976 0.0
C921 C 0.4606 0.44538 0.758 0.0
C922 C 0.47466 0.46423 0.77232 0.0
C923 C 0.48168 0.49387 0.8046 0.0
H924 H 0.57323 0.59667 0.77798 0.0
H925 H 0.53963 0.57332 0.80293 0.0
H926 H 0.56858 0.53903 0.74115 0.0
H927 H 0.53614 0.51573 0.76738 0.0
H928 H 0.58388 0.56814 0.86612 0.0
H929 H 0.55715 0.54335 0.83405 0.0
H930 H 0.5345 0.58015 0.90041 0.0
H931 H 0.50811 0.55637 0.86722 0.0
H932 H 0.4508 0.43422 0.88154 0.0
H933 H 0.47589 0.45942 0.84834 0.0
H934 H 0.41741 0.47196 0.88475 0.0
H935 H 0.44385 0.49809 0.85308 0.0
H936 H 0.41162 0.43798 0.78064 0.0
H937 H 0.43616 0.47167 0.80437 0.0
H938 H 0.46771 0.43845 0.74481 0.0
H939 H 0.49224 0.47123 0.76996 0.0
N940 N 0.50009 0.50924 0.79204 0.0
N941 N 0.49482 0.51571 0.84341 0.0
C942 C 0.66983 0.76987 0.51183 0.0
C943 C 0.65354 0.76057 0.49224 0.0
C944 C 0.66992 0.78501 0.52986 0.0
C945 C 0.65356 0.79098 0.52882 0.0
C946 C 0.63682 0.76603 0.49181 0.0
C947 C 0.63686 0.78109 0.50988 0.0
C948 C 0.6555 0.80985 0.54417 0.0
C949 C 0.65031 0.76163 0.60828 0.0
C950 C 0.67087 0.76922 0.62053 0.0
C951 C 0.64656 0.77555 0.59196 0.0
C952 C 0.6632 0.79737 0.5879 0.0
C953 C 0.68758 0.79098 0.61573 0.0
C954 C 0.68364 0.80497 0.60004 0.0
C955 C 0.65963 0.8127 0.57151 0.0
C956 C 0.65641 0.8832 0.62198 0.0
C957 C 0.6732 0.90423 0.61464 0.0
C958 C 0.65223 0.86481 0.60692 0.0
C959 C 0.66455 0.86714 0.58411 0.0
C960 C 0.68561 0.90652 0.59187 0.0
C961 C 0.68136 0.88815 0.57677 0.0
C962 C 0.66081 0.84734 0.56943 0.0
C963 C 0.67165 0.88297 0.48377 0.0
C964 C 0.65925 0.89335 0.48836 0.0
C965 C 0.67094 0.86742 0.50141 0.0
C966 C 0.65798 0.86195 0.52426 0.0
C967 C 0.64616 0.88787 0.5112 0.0
C968 C 0.64548 0.87223 0.529 0.0
C969 C 0.65727 0.84477 0.54194 0.0
H970 H 0.683 0.76606 0.51255 0.0
H971 H 0.68346 0.79292 0.54355 0.0
H972 H 0.62436 0.75963 0.4766 0.0
H973 H 0.62429 0.7857 0.50836 0.0
H974 H 0.63709 0.74498 0.61145 0.0
H975 H 0.63062 0.76941 0.58282 0.0
H976 H 0.7039 0.7972 0.62374 0.0
H977 H 0.69677 0.82169 0.59689 0.0
H978 H 0.64689 0.88091 0.63969 0.0
H979 H 0.63942 0.84871 0.61318 0.0
H980 H 0.6987 0.92255 0.58584 0.0
H981 H 0.6915 0.89031 0.55968 0.0
H982 H 0.68171 0.88667 0.46623 0.0
H983 H 0.68063 0.85966 0.49719 0.0
H984 H 0.63655 0.89572 0.51533 0.0
H985 H 0.63503 0.86802 0.54623 0.0
N986 N 0.65461 0.82606 0.53056 0.0
N987 N 0.66196 0.83125 0.58307 0.0
C988 C 0.11984 0.75915 0.50621 0.0
C989 C 0.11232 0.76593 0.48444 0.0
C990 C 0.13482 0.77471 0.52399 0.0
C991 C 0.14245 0.79722 0.52016 0.0
C992 C 0.11975 0.7884 0.481 0.0
C993 C 0.13472 0.80385 0.49855 0.0
C994 C 0.15972 0.81434 0.53697 0.0
C995 C 0.1005 0.78105 0.58922 0.0
C996 C 0.10297 0.77116 0.61203 0.0
C997 C 0.11863 0.79463 0.57359 0.0
C998 C 0.13968 0.79846 0.58021 0.0
C999 C 0.12401 0.77497 0.61873 0.0
C1000 C 0.14224 0.78863 0.60303 0.0
C1001 C 0.15914 0.81435 0.5648 0.0
C1002 C 0.22436 0.9065 0.59248 0.0
C1003 C 0.23474 0.90365 0.61455 0.0
C1004 C 0.21124 0.88877 0.57608 0.0
C1005 C 0.20841 0.86786 0.58124 0.0
C1006 C 0.23222 0.88283 0.61953 0.0
C1007 C 0.21893 0.865 0.60316 0.0
C1008 C 0.19292 0.84871 0.56524 0.0
C1009 C 0.24773 0.89133 0.50728 0.0
C1010 C 0.2404 0.89836 0.48554 0.0
C1011 C 0.23258 0.87569 0.5249 0.0
C1012 C 0.2099 0.86691 0.521 0.0
C1013 C 0.21774 0.88985 0.48212 0.0
C1014 C 0.2027 0.87427 0.49954 0.0
C1015 C 0.19323 0.84876 0.5374 0.0
H1016 H 0.11423 0.74189 0.50939 0.0
H1017 H 0.14082 0.76922 0.54029 0.0
H1018 H 0.11436 0.79411 0.4643 0.0
H1019 H 0.14042 0.82111 0.49509 0.0
H1020 H 0.08449 0.77847 0.58361 0.0
H1021 H 0.11623 0.80261 0.5567 0.0
H1022 H 0.12646 0.76788 0.63645 0.0
H1023 H 0.15837 0.79169 0.60884 0.0
H1024 H 0.22623 0.92244 0.58806 0.0
H1025 H 0.20284 0.89133 0.55976 0.0
H1026 H 0.24004 0.88024 0.63646 0.0
H1027 H 0.21672 0.84894 0.6077 0.0
H1028 H 0.26513 0.89779 0.51052 0.0
H1029 H 0.23855 0.87003 0.54105 0.0
H1030 H 0.21157 0.8948 0.46546 0.0
H1031 H 0.18531 0.8677 0.49601 0.0
N1032 N 0.17666 0.83155 0.52454 0.0
N1033 N 0.17591 0.83146 0.57785 0.0
C1034 C 0.24742 0.35905 0.50775 0.0
C1035 C 0.24056 0.34494 0.48577 0.0
C1036 C 0.23192 0.35892 0.52536 0.0
C1037 C 0.20934 0.34461 0.52129 0.0
C1038 C 0.218 0.33047 0.48208 0.0
C1039 C 0.20261 0.33039 0.49952 0.0
C1040 C 0.19231 0.34531 0.53795 0.0
C1041 C 0.22562 0.3203 0.59199 0.0
C1042 C 0.23527 0.33301 0.61465 0.0
C1043 C 0.21213 0.32459 0.57579 0.0
C1044 C 0.20815 0.34187 0.58169 0.0
C1045 C 0.2313 0.3503 0.6206 0.0
C1046 C 0.21775 0.35459 0.60435 0.0
C1047 C 0.1923 0.34519 0.56582 0.0
C1048 C 0.10032 0.32138 0.59234 0.0
C1049 C 0.10345 0.33454 0.6146 0.0
C1050 C 0.11801 0.32525 0.57619 0.0
C1051 C 0.13925 0.34253 0.58177 0.0
C1052 C 0.12469 0.35184 0.62024 0.0
C1053 C 0.14246 0.3557 0.60405 0.0
C1054 C 0.15829 0.34548 0.56589 0.0
C1055 C 0.11743 0.35964 0.50749 0.0
C1056 C 0.10897 0.34427 0.48683 0.0
C1057 C 0.13304 0.35978 0.52488 0.0
C1058 C 0.14055 0.34471 0.52159 0.0
C1059 C 0.11643 0.32918 0.48378 0.0
C1060 C 0.13211 0.32948 0.50087 0.0
C1061 C 0.15835 0.3455 0.53805 0.0
H1062 H 0.26472 0.37023 0.51121 0.0
H1063 H 0.23754 0.37034 0.54172 0.0
H1064 H 0.21219 0.31954 0.46523 0.0
H1065 H 0.18531 0.31929 0.49583 0.0
H1066 H 0.22833 0.30683 0.58694 0.0
H1067 H 0.20433 0.31397 0.55903 0.0
H1068 H 0.23819 0.3601 0.63819 0.0
H1069 H 0.21457 0.36772 0.6096 0.0
H1070 H 0.08414 0.30789 0.58755 0.0
H1071 H 0.11513 0.31432 0.55973 0.0
H1072 H 0.12764 0.362 0.63751 0.0
H1073 H 0.15876 0.36885 0.60904 0.0
H1074 H 0.11203 0.37153 0.5101 0.0
H1075 H 0.13963 0.37197 0.54041 0.0
H1076 H 0.11051 0.31745 0.46773 0.0
H1077 H 0.13778 0.31784 0.49777 0.0
N1078 N 0.17532 0.3454 0.52534 0.0
N1079 N 0.17535 0.34545 0.57866 0.0
C1080 C 0.01479 0.40744 0.10021 0.0
C1081 C 0.99601 0.3918 0.08651 0.0
C1082 C 0.01321 0.41962 0.12109 0.0
C1083 C 0.99279 0.41669 0.12928 0.0
H1084 H 0.03102 0.41077 0.0944 0.0
H1085 H 0.0282 0.43183 0.13055 0.0
S1086 S 0.93843 0.37717 0.1012 0.0
N1087 N 0.9561 0.37336 0.08367 0.0
N1088 N 0.95325 0.39648 0.12288 0.0
C1089 C 0.97376 0.40052 0.11661 0.0
C1090 C 0.97534 0.38804 0.09525 0.0
C1091 C 0.60023 0.61101 0.10464 0.0
C1092 C 0.61502 0.60673 0.09055 0.0
C1093 C 0.58824 0.59798 0.12607 0.0
C1094 C 0.5905 0.58011 0.1344 0.0
H1095 H 0.59739 0.62421 0.09867 0.0
H1096 H 0.57661 0.60156 0.13576 0.0
S1097 S 0.62782 0.5625 0.10545 0.0
N1098 N 0.63208 0.58391 0.08755 0.0
N1099 N 0.60928 0.55928 0.12772 0.0
C1100 C 0.60593 0.5762 0.12137 0.0
C1101 C 0.61823 0.58952 0.09949 0.0
C1102 C 0.41451 0.0275 0.10706 0.0
C1103 C 0.40211 0.00764 0.09319 0.0
C1104 C 0.42835 0.02914 0.12796 0.0
C1105 C 0.43032 0.01099 0.13595 0.0
H1106 H 0.41392 0.04208 0.10143 0.0
H1107 H 0.43778 0.04484 0.13777 0.0
S1108 S 0.40131 0.95514 0.10659 0.0
N1109 N 0.39242 0.9692 0.08963 0.0
N1110 N 0.41868 0.97252 0.12841 0.0
C1111 C 0.41769 0.99093 0.12269 0.0
C1112 C 0.40355 0.9892 0.10146 0.0
C1113 C 0.42284 0.01356 0.95615 0.0
C1114 C 0.39978 1.00108 0.95653 0.0
C1115 C 0.43492 0.01311 0.93447 0.0
C1116 C 0.42449 1.00048 0.91193 0.0
H1117 H 0.43171 0.02351 0.973 0.0
H1118 H 0.45268 0.02256 0.93561 0.0
S1119 S 0.36423 0.96601 0.90232 0.0
N1120 N 0.3668 0.97612 0.93233 0.0
N1121 N 0.38949 0.97593 0.89095 0.0
C1122 C 0.40135 0.98812 0.91188 0.0
C1123 C 0.38902 0.98828 0.93429 0.0
C1124 C 0.9943 0.39549 0.9348 0.0
C1125 C 0.01351 0.40029 0.9488 0.0
C1126 C 0.99478 0.40861 0.91376 0.0
C1127 C 0.01448 0.42707 0.90569 0.0
H1128 H 0.97853 0.38178 0.94053 0.0
H1129 H 0.97944 0.40458 0.90415 0.0
S1130 S 0.06964 0.44626 0.93444 0.0
N1131 N 0.05312 0.42432 0.95198 0.0
N1132 N 0.05389 0.44906 0.91245 0.0
C1133 C 0.034 0.43156 0.9186 0.0
C1134 C 0.03355 0.41817 0.94013 0.0
C1135 C 0.59225 0.61939 0.93861 0.0
C1136 C 0.60323 0.61054 0.9529 0.0
C1137 C 0.57902 0.60831 0.91678 0.0
C1138 C 0.57624 0.58796 0.90835 0.0
H1139 H 0.5938 0.63497 0.94434 0.0
H1140 H 0.57086 0.61574 0.90643 0.0
S1141 S 0.60038 0.55703 0.93963 0.0
N1142 N 0.60992 0.57976 0.95718 0.0
N1143 N 0.58484 0.55897 0.91666 0.0
C1144 C 0.58706 0.5789 0.92247 0.0
C1145 C 0.60058 0.59016 0.94458 0.0
C1146 C 0.99521 0.60062 0.93707 0.0
C1147 C 0.0144 0.61439 0.95147 0.0
C1148 C 0.99559 0.58825 0.91566 0.0
C1149 C 0.01516 0.58913 0.90758 0.0
H1150 H 0.97954 0.59887 0.94277 0.0
H1151 H 0.98027 0.57742 0.90574 0.0
S1152 S 0.07024 0.62344 0.93726 0.0
N1153 N 0.05387 0.62901 0.95502 0.0
N1154 N 0.05444 0.60554 0.91474 0.0
C1155 C 0.03468 0.60354 0.92089 0.0
C1156 C 0.03433 0.6162 0.94283 0.0
C1157 C 0.39903 0.40008 0.9284 0.0
C1158 C 0.39435 0.4084 0.95117 0.0
C1159 C 0.4104 0.41385 0.90712 0.0
C1160 C 0.41806 0.43662 0.90802 0.0
H1161 H 0.39404 0.3828 0.92711 0.0
H1162 H 0.41352 0.4066 0.88999 0.0
S1163 S 0.41066 0.46654 0.96402 0.0
N1164 N 0.39796 0.4406 0.97354 0.0
N1165 N 0.42039 0.46679 0.93431 0.0
C1166 C 0.41323 0.44506 0.93073 0.0
C1167 C 0.40115 0.43089 0.95211 0.0
C1168 C 0.61263 0.01827 0.93884 0.0
C1169 C 0.60826 0.99863 0.95147 0.0
C1170 C 0.59979 0.01824 0.91773 0.0
C1171 C 0.582 0.99858 0.90829 0.0
H1172 H 0.62582 0.03396 0.94566 0.0
H1173 H 0.60353 0.03384 0.90908 0.0
S1174 S 0.56397 0.94252 0.93355 0.0
N1175 N 0.58528 0.95877 0.95209 0.0
N1176 N 0.56099 0.95883 0.9126 0.0
C1177 C 0.57789 0.97872 0.91999 0.0
C1178 C 0.59104 0.97871 0.94151 0.0
C1179 C 0.62045 0.02969 0.10202 0.0
C1180 C 0.61293 0.00923 0.08951 0.0
C1181 C 0.60915 0.03198 0.12359 0.0
C1182 C 0.58995 0.0139 0.13362 0.0
H1183 H 0.635 0.04417 0.09489 0.0
H1184 H 0.61544 0.04808 0.13239 0.0
S1185 S 0.56308 0.95677 0.10807 0.0
N1186 N 0.58492 0.97043 0.08918 0.0
N1187 N 0.56368 0.97494 0.12917 0.0
C1188 C 0.58237 0.99333 0.12154 0.0
C1189 C 0.59384 0.99095 0.09966 0.0
C1190 C 0.01196 0.61176 0.10906 0.0
C1191 C 0.99617 0.60444 0.08887 0.0
C1192 C 0.00997 0.59806 0.13026 0.0
C1193 C 0.99234 0.5763 0.13187 0.0
H1194 H 0.02608 0.62818 0.10837 0.0
H1195 H 0.02255 0.6045 0.14532 0.0
S1196 S 0.9471 0.54897 0.08315 0.0
N1197 N 0.96234 0.57416 0.07167 0.0
N1198 N 0.95907 0.54801 0.11069 0.0
C1199 C 0.97633 0.56887 0.11181 0.0
C1200 C 0.97814 0.58302 0.09052 0.0
C1201 C 0.39931 0.40622 0.10375 0.0
C1202 C 0.40504 0.39356 0.08744 0.0
C1203 C 0.41226 0.41788 0.12533 0.0
C1204 C 0.43145 0.41735 0.1317 0.0
H1205 H 0.385 0.40771 0.09943 0.0
H1206 H 0.40755 0.42795 0.13672 0.0
S1207 S 0.45314 0.38568 0.09681 0.0
N1208 N 0.43072 0.38023 0.08031 0.0
N1209 N 0.4551 0.40234 0.12097 0.0
C1210 C 0.43687 0.40395 0.11651 0.0
C1211 C 0.42367 0.39204 0.09437 0.0
C1212 C 0.67759 0.74447 0.43519 0.0
C1213 C 0.65948 0.72524 0.42517 0.0
C1214 C 0.67561 0.75527 0.45732 0.0
C1215 C 0.65544 0.74736 0.4705 0.0
H1216 H 0.69348 0.75159 0.4256 0.0
H1217 H 0.68989 0.77038 0.46363 0.0
S1218 S 0.60333 0.69673 0.45397 0.0
N1219 N 0.62085 0.69807 0.43128 0.0
N1220 N 0.61726 0.71837 0.47309 0.0
C1221 C 0.63731 0.72782 0.4613 0.0
C1222 C 0.6393 0.71676 0.43866 0.0
C1223 C 0.26561 0.94498 0.43605 0.0
C1224 C 0.28068 0.94099 0.42217 0.0
C1225 C 0.25349 0.93176 0.4573 0.0
C1226 C 0.25588 0.91398 0.46566 0.0
H1227 H 0.26271 0.95814 0.43011 0.0
H1228 H 0.2417 0.93517 0.46688 0.0
S1229 S 0.29377 0.89695 0.43706 0.0
N1230 N 0.29802 0.91842 0.41927 0.0
N1231 N 0.27497 0.89344 0.4591 0.0
C1232 C 0.2715 0.91028 0.45276 0.0
C1233 C 0.28394 0.92379 0.43106 0.0
C1234 C 0.08515 0.3626 0.43168 0.0
C1235 C 0.06629 0.34284 0.42433 0.0
C1236 C 0.09834 0.36329 0.45291 0.0
C1237 C 0.0931 0.34426 0.46752 0.0
H1238 H 0.09034 0.37742 0.42027 0.0
H1239 H 0.11329 0.37854 0.45709 0.0
S1240 S 0.0437 0.28936 0.45924 0.0
N1241 N 0.04176 0.30442 0.43557 0.0
N1242 N 0.06655 0.30585 0.47525 0.0
C1243 C 0.0736 0.32481 0.46147 0.0
C1244 C 0.0602 0.32406 0.43995 0.0
C1245 C 0.07667 0.349 0.27171 0.0
C1246 C 0.06179 0.32976 0.28531 0.0
C1247 C 0.08907 0.34831 0.25049 0.0
C1248 C 0.08715 0.32838 0.24191 0.0
H1249 H 0.0792 0.36488 0.27782 0.0
H1250 H 0.10069 0.36363 0.2411 0.0
S1251 S 0.04991 0.27316 0.26977 0.0
N1252 N 0.04512 0.28997 0.28774 0.0
N1253 N 0.0687 0.28879 0.24796 0.0
C1254 C 0.07172 0.30889 0.25453 0.0
C1255 C 0.05899 0.30955 0.2762 0.0
C1256 C 0.69369 0.75009 0.27811 0.0
C1257 C 0.67403 0.73125 0.2858 0.0
C1258 C 0.69422 0.76295 0.25659 0.0
C1259 C 0.67512 0.7574 0.242 0.0
H1260 H 0.70858 0.7555 0.28943 0.0
H1261 H 0.70941 0.77789 0.25213 0.0
S1262 S 0.62039 0.70796 0.25119 0.0
N1263 N 0.63559 0.70642 0.27497 0.0
N1264 N 0.63673 0.73061 0.23473 0.0
C1265 C 0.65575 0.73794 0.24843 0.0
C1266 C 0.65516 0.72486 0.27025 0.0
C1267 C 0.2558 0.95025 0.27585 0.0
C1268 C 0.27486 0.9496 0.28299 0.0
C1269 C 0.24276 0.9379 0.25446 0.0
C1270 C 0.24837 0.92452 0.23951 0.0
H1271 H 0.25035 0.95958 0.28752 0.0
H1272 H 0.22765 0.93798 0.25042 0.0
S1273 S 0.29834 0.91978 0.2472 0.0
N1274 N 0.29995 0.9364 0.27121 0.0
N1275 N 0.27541 0.91328 0.23128 0.0
C1276 C 0.26805 0.92482 0.24537 0.0
C1277 C 0.28131 0.93733 0.26703 0.0
C1278 C 0.69422 0.94526 0.27911 0.0
C1279 C 0.67461 0.94433 0.28742 0.0
C1280 C 0.69449 0.93293 0.25742 0.0
C1281 C 0.67519 0.91929 0.24325 0.0
H1282 H 0.7093 0.95487 0.29003 0.0
H1283 H 0.7097 0.93331 0.25245 0.0
S1284 S 0.62039 0.91367 0.2542 0.0
N1285 N 0.63592 0.93046 0.27773 0.0
N1286 N 0.63658 0.90746 0.2371 0.0
C1287 C 0.65582 0.91923 0.25035 0.0
C1288 C 0.65549 0.9317 0.27238 0.0
C1289 C 0.07594 0.72993 0.26881 0.0
C1290 C 0.06121 0.73408 0.28322 0.0
C1291 C 0.08818 0.7434 0.24781 0.0
C1292 C 0.08622 0.7616 0.24021 0.0
H1293 H 0.07855 0.71647 0.27419 0.0
H1294 H 0.09976 0.73989 0.23786 0.0
S1295 S 0.04914 0.77908 0.27015 0.0
N1296 N 0.04453 0.75719 0.28729 0.0
N1297 N 0.06777 0.78261 0.24783 0.0
C1298 C 0.07085 0.76543 0.25352 0.0
C1299 C 0.05831 0.75166 0.27501 0.0
C1300 C 0.25839 0.3113 0.27668 0.0
C1301 C 0.27708 0.33116 0.28416 0.0
C1302 C 0.24516 0.3105 0.25545 0.0
C1303 C 0.25016 0.32952 0.24097 0.0
H1304 H 0.2534 0.29645 0.28795 0.0
H1305 H 0.23036 0.29514 0.25116 0.0
S1306 S 0.29901 0.38476 0.24966 0.0
N1307 N 0.30117 0.36974 0.27323 0.0
N1308 N 0.2763 0.3681 0.23353 0.0
C1309 C 0.26947 0.34912 0.24718 0.0
C1310 C 0.28292 0.34997 0.2687 0.0
C1311 C 0.26718 0.32474 0.4365 0.0
C1312 C 0.28221 0.34399 0.42302 0.0
C1313 C 0.25459 0.32539 0.45752 0.0
C1314 C 0.25644 0.3453 0.46606 0.0
H1315 H 0.26468 0.30885 0.4304 0.0
H1316 H 0.24288 0.31005 0.4668 0.0
S1317 S 0.294 0.40058 0.43853 0.0
N1318 N 0.29892 0.38379 0.4207 0.0
N1319 N 0.275 0.3849 0.46012 0.0
C1320 C 0.27201 0.36481 0.45358 0.0
C1321 C 0.28494 0.36418 0.4321 0.0
C1322 C 0.68217 0.94 0.43878 0.0
C1323 C 0.66327 0.93797 0.42646 0.0
C1324 C 0.68064 0.92613 0.45949 0.0
C1325 C 0.66015 0.90961 0.46888 0.0
H1326 H 0.69841 0.95208 0.432 0.0
H1327 H 0.69568 0.92803 0.46787 0.0
S1328 S 0.60556 0.89791 0.44456 0.0
N1329 N 0.62326 0.91863 0.42618 0.0
N1330 N 0.62048 0.89245 0.46502 0.0
C1331 C 0.64108 0.90791 0.45758 0.0
C1332 C 0.64261 0.92209 0.4364 0.0
C1333 C 0.06555 0.7389 0.43572 0.0
C1334 C 0.07073 0.72501 0.42109 0.0
C1335 C 0.07847 0.75117 0.45702 0.0
C1336 C 0.09712 0.75007 0.46468 0.0
H1337 H 0.05167 0.74082 0.43032 0.0
H1338 H 0.07417 0.76212 0.46713 0.0
S1339 S 0.11728 0.71535 0.43423 0.0
N1340 N 0.09529 0.71001 0.41686 0.0
N1341 N 0.11969 0.73331 0.4569 0.0
C1342 C 0.10199 0.73552 0.45114 0.0
C1343 C 0.08878 0.72295 0.42935 0.0
C1344 C 0.34444 0.07892 0.76604 0.0
C1345 C 0.3266 0.05923 0.75657 0.0
C1346 C 0.34225 0.0899 0.78787 0.0
C1347 C 0.32214 0.08169 0.80131 0.0
H1348 H 0.36025 0.08626 0.75624 0.0
H1349 H 0.35634 0.10531 0.79381 0.0
S1350 S 0.27073 0.02991 0.78612 0.0
N1351 N 0.28828 0.03139 0.76339 0.0
N1352 N 0.28433 0.052 0.80465 0.0
C1353 C 0.30427 0.06175 0.79258 0.0
C1354 C 0.30646 0.05053 0.77023 0.0
C1355 C 0.93008 0.27166 0.76898 0.0
C1356 C 0.94649 0.26912 0.75612 0.0
C1357 C 0.91772 0.25782 0.78969 0.0
C1358 C 0.92121 0.24084 0.79858 0.0
H1359 H 0.92633 0.28416 0.76266 0.0
H1360 H 0.90496 0.26016 0.79851 0.0
S1361 S 0.9627 0.22758 0.77271 0.0
N1362 N 0.96615 0.24868 0.75475 0.0
N1363 N 0.9427 0.22259 0.79362 0.0
C1364 C 0.93808 0.23855 0.7867 0.0
C1365 C 0.95074 0.25268 0.7655 0.0
C1366 C 0.75025 0.69777 0.77224 0.0
C1367 C 0.73904 0.67796 0.75796 0.0
C1368 C 0.76383 0.6999 0.79367 0.0
C1369 C 0.76672 0.68231 0.80175 0.0
H1370 H 0.74877 0.71186 0.76666 0.0
H1371 H 0.77224 0.7155 0.80392 0.0
S1372 S 0.74157 0.62708 0.77088 0.0
N1373 N 0.73188 0.64034 0.75372 0.0
N1374 N 0.75765 0.64461 0.79347 0.0
C1375 C 0.7555 0.66238 0.78785 0.0
C1376 C 0.74162 0.66015 0.76612 0.0
C1377 C 0.72463 0.6476 0.60653 0.0
C1378 C 0.73331 0.66743 0.62079 0.0
C1379 C 0.73588 0.64537 0.58491 0.0
C1380 C 0.75624 0.66288 0.5766 0.0
H1381 H 0.70914 0.63352 0.61229 0.0
H1382 H 0.72864 0.62973 0.57473 0.0
S1383 S 0.7864 0.71821 0.60716 0.0
N1384 N 0.76366 0.70503 0.6247 0.0
N1385 N 0.78481 0.70062 0.5845 0.0
C1386 C 0.76499 0.68288 0.5904 0.0
C1387 C 0.75354 0.68521 0.61235 0.0
C1388 C 0.36227 0.08377 0.61038 0.0
C1389 C 0.34227 0.06517 0.61772 0.0
C1390 C 0.36338 0.09699 0.58899 0.0
C1391 C 0.34455 0.09206 0.57419 0.0
H1392 H 0.37698 0.08873 0.6219 0.0
H1393 H 0.37882 0.11175 0.58483 0.0
S1394 S 0.2891 0.04343 0.5824 0.0
N1395 N 0.30379 0.0412 0.60631 0.0
N1396 N 0.30602 0.06609 0.56629 0.0
C1397 C 0.32483 0.07282 0.58023 0.0
C1398 C 0.32366 0.05937 0.60193 0.0
C1399 C 0.92273 0.28011 0.61044 0.0
C1400 C 0.94173 0.27934 0.61759 0.0
C1401 C 0.90975 0.26793 0.58894 0.0
C1402 C 0.91533 0.2546 0.57385 0.0
H1403 H 0.9173 0.28941 0.62218 0.0
H1404 H 0.89469 0.26811 0.5849 0.0
S1405 S 0.96515 0.24957 0.58153 0.0
N1406 N 0.96673 0.26605 0.60571 0.0
N1407 N 0.9423 0.24328 0.56553 0.0
C1408 C 0.93495 0.25476 0.57973 0.0
C1409 C 0.94815 0.2671 0.60153 0.0
C1410 C 0.32702 0.26639 0.60657 0.0
C1411 C 0.34537 0.27941 0.62262 0.0
C1412 C 0.32849 0.2548 0.58497 0.0
C1413 C 0.34838 0.25575 0.57835 0.0
H1414 H 0.31111 0.26458 0.61109 0.0
H1415 H 0.31374 0.24446 0.57377 0.0
S1416 S 0.4017 0.28843 0.61259 0.0
N1417 N 0.3845 0.29352 0.62928 0.0
N1418 N 0.38714 0.27152 0.58861 0.0
C1419 C 0.36715 0.26949 0.5933 0.0
C1420 C 0.36567 0.28136 0.61544 0.0
C1421 C 0.72695 0.08408 0.60899 0.0
C1422 C 0.72828 0.06556 0.61702 0.0
C1423 C 0.73934 0.09702 0.58758 0.0
C1424 C 0.75342 0.09185 0.57345 0.0
H1425 H 0.71703 0.0892 0.61999 0.0
H1426 H 0.73869 0.11174 0.58286 0.0
S1427 S 0.76014 0.04323 0.5836 0.0
N1428 N 0.74293 0.04137 0.607 0.0
N1429 N 0.76607 0.06569 0.5669 0.0
C1430 C 0.75384 0.07267 0.58019 0.0
C1431 C 0.7413 0.05952 0.60192 0.0
C1432 C 0.93437 0.67973 0.61159 0.0
C1433 C 0.93606 0.66196 0.62182 0.0
C1434 C 0.92096 0.67715 0.58994 0.0
C1435 C 0.90866 0.65671 0.57734 0.0
H1436 H 0.94317 0.69582 0.62066 0.0
H1437 H 0.91982 0.69125 0.58344 0.0
S1438 S 0.90843 0.60524 0.59483 0.0
N1439 N 0.92492 0.6233 0.61679 0.0
N1440 N 0.89998 0.61858 0.57572 0.0
C1441 C 0.91051 0.63886 0.5869 0.0
C1442 C 0.92413 0.64145 0.60916 0.0
C1443 C 0.94408 0.70163 0.75849 0.0
C1444 C 0.95144 0.68631 0.75848 0.0
C1445 C 0.93266 0.70349 0.78015 0.0
C1446 C 0.92851 0.69039 0.80284 0.0
H1447 H 0.94623 0.71149 0.74114 0.0
H1448 H 0.92625 0.71465 0.77859 0.0
S1449 S 0.94786 0.65049 0.8141 0.0
N1450 N 0.95574 0.65934 0.78371 0.0
N1451 N 0.93537 0.66363 0.82501 0.0
C1452 C 0.93711 0.67603 0.80362 0.0
C1453 C 0.94829 0.6738 0.78132 0.0
C1454 C 0.30822 0.24374 0.75889 0.0
C1455 C 0.32238 0.26657 0.75991 0.0
C1456 C 0.30712 0.23017 0.77984 0.0
C1457 C 0.31983 0.23896 0.80284 0.0
H1458 H 0.29874 0.23619 0.74126 0.0
H1459 H 0.29686 0.21256 0.77748 0.0
S1460 S 0.35676 0.29833 0.81661 0.0
N1461 N 0.34788 0.29771 0.78634 0.0
N1462 N 0.34492 0.27247 0.82637 0.0
C1463 C 0.33302 0.262 0.80462 0.0
C1464 C 0.33451 0.27572 0.78302 0.0
C1465 C 0.74746 0.05252 0.76888 0.0
C1466 C 0.73493 0.06056 0.75642 0.0
C1467 C 0.76063 0.06321 0.79086 0.0
C1468 C 0.76174 0.0823 0.80139 0.0
H1469 H 0.74744 0.03806 0.76135 0.0
H1470 H 0.77023 0.05661 0.79952 0.0
S1471 S 0.7322 0.11016 0.77642 0.0
N1472 N 0.7243 0.08877 0.75682 0.0
N1473 N 0.7493 0.10889 0.79766 0.0
C1474 C 0.74902 0.0903 0.78949 0.0
C1475 C 0.7356 0.07944 0.76715 0.0
C1476 C 0.06 0.33697 0.05524 0.0
C1477 C 0.06803 0.35863 0.04615 0.0
C1478 C 0.0734 0.33114 0.06973 0.0
C1479 C 0.09528 0.34679 0.07576 0.0
H1480 H 0.04301 0.32457 0.05201 0.0
H1481 H 0.06635 0.31451 0.07713 0.0
S1482 S 0.12523 0.40485 0.05368 0.0
N1483 N 0.1001 0.39519 0.04217 0.0
N1484 N 0.12505 0.38416 0.06935 0.0
C1485 C 0.10384 0.36814 0.06567 0.0
C1486 C 0.09029 0.37408 0.05087 0.0
C1487 C 0.66903 0.72311 0.05565 0.0
C1488 C 0.64747 0.70979 0.04616 0.0
C1489 C 0.67485 0.74234 0.07014 0.0
C1490 C 0.6593 0.74885 0.07575 0.0
H1491 H 0.6813 0.71823 0.05283 0.0
H1492 H 0.69136 0.75165 0.07794 0.0
S1493 S 0.60167 0.72173 0.05233 0.0
N1494 N 0.61121 0.70598 0.04119 0.0
N1495 N 0.62223 0.74195 0.06839 0.0
C1496 C 0.63811 0.73642 0.06515 0.0
C1497 C 0.63218 0.71696 0.05035 0.0
C1498 C 0.28545 0.95192 0.05705 0.0
C1499 C 0.29867 0.94354 0.04735 0.0
C1500 C 0.26591 0.93848 0.07093 0.0
C1501 C 0.25896 0.91624 0.07575 0.0
H1502 H 0.2906 0.96916 0.05477 0.0
H1503 H 0.25665 0.94576 0.07886 0.0
S1504 S 0.2858 0.88544 0.05182 0.0
N1505 N 0.302 0.91085 0.04152 0.0
N1506 N 0.26546 0.88586 0.06767 0.0
C1507 C 0.27133 0.90738 0.06505 0.0
C1508 C 0.29111 0.92095 0.05081 0.0
C1509 C 0.36157 0.08023 1.00414 0.0
C1510 C 0.35432 0.05843 0.99656 0.0
C1511 C 0.35561 0.09355 0.98981 0.0
C1512 C 0.34263 0.0858 0.96686 0.0
H1513 H 0.37222 0.08718 0.02107 0.0
H1514 H 0.36159 0.11022 0.99655 0.0
S1515 S 0.32012 0.02989 0.93828 0.0
N1516 N 0.33332 0.02946 0.96496 0.0
N1517 N 0.32303 0.05472 0.93717 0.0
C1518 C 0.33502 0.06382 0.95933 0.0
C1519 C 0.34067 0.05011 0.97435 0.0
C1520 C 0.92403 0.28957 0.98254 0.0
C1521 C 0.94565 0.29532 0.98964 0.0
C1522 C 0.91057 0.27032 0.96841 0.0
C1523 C 0.91805 0.2559 0.9609 0.0
H1524 H 0.91752 0.30027 0.98733 0.0
H1525 H 0.89417 0.26679 0.96312 0.0
S1526 S 0.97289 0.26267 0.97526 0.0
N1527 N 0.97363 0.28447 0.9887 0.0
N1528 N 0.94821 0.24826 0.96208 0.0
C1529 C 0.93933 0.26099 0.96851 0.0
C1530 C 0.95315 0.2807 0.98288 0.0
C1531 C 0.72567 0.66957 0.98996 0.0
C1532 C 0.70884 0.64741 0.99036 0.0
C1533 C 0.7457 0.67606 0.97699 0.0
C1534 C 0.74962 0.66066 0.96384 0.0
H1535 H 0.72336 0.68201 0.99969 0.0
H1536 H 0.75825 0.69325 0.97738 0.0
S1537 S 0.71032 0.60092 0.95719 0.0
N1538 N 0.69724 0.6102 0.97549 0.0
N1539 N 0.7345 0.6225 0.95074 0.0
C1540 C 0.73283 0.63852 0.96383 0.0
C1541 C 0.71257 0.63188 0.97718 0.0
C1542 C 0.92907 0.64717 0.99878 0.0
C1543 C 0.95163 0.65698 0.99328 0.0
C1544 C 0.91562 0.65319 0.98492 0.0
C1545 C 0.92408 0.6689 0.96452 0.0
H1546 H 0.92165 0.63442 0.0136 0.0
H1547 H 0.89833 0.64511 0.98992 0.0
S1548 S 0.98221 0.69909 0.94218 0.0
N1549 N 0.98206 0.68343 0.96653 0.0
N1550 N 0.95667 0.69406 0.93956 0.0
C1551 C 0.94678 0.67917 0.95921 0.0
C1552 C 0.96057 0.67335 0.97378 0.0
C1553 C 0.37776 0.29707 0.97416 0.0
C1554 C 0.36232 0.30076 0.98759 0.0
C1555 C 0.37155 0.2771 0.96147 0.0
C1556 C 0.34964 0.25983 0.96175 0.0
H1557 H 0.3948 0.30992 0.97285 0.0
H1558 H 0.38401 0.27538 0.95084 0.0
S1559 S 0.30307 0.26023 0.99602 0.0
N1560 N 0.32422 0.28497 1.00148 0.0
N1561 N 0.31265 0.24719 0.97809 0.0
C1562 C 0.33407 0.26302 0.97568 0.0
C1563 C 0.34039 0.28349 0.98851 0.0
C1564 C 0.72698 0.07749 1.00353 0.0
C1565 C 0.71217 0.0561 0.99493 0.0
C1566 C 0.74666 0.09075 0.98993 0.0
C1567 C 0.75201 0.08342 0.96666 0.0
H1568 H 0.72313 0.0842 0.02064 0.0
H1569 H 0.7575 0.10713 0.9974 0.0
S1570 S 0.71812 0.02858 0.93571 0.0
N1571 N 0.70416 0.02784 0.96226 0.0
N1572 N 0.74043 0.05307 0.93571 0.0
C1573 C 0.73743 0.06178 0.9582 0.0
C1574 C 0.71767 0.04808 0.97253 0.0
C1575 C 0.66989 0.94885 0.05652 0.0
C1576 C 0.64846 0.94079 0.04663 0.0
C1577 C 0.67551 0.93532 0.07108 0.0
C1578 C 0.65986 0.91329 0.07641 0.0
H1579 H 0.68225 0.96594 0.05387 0.0
H1580 H 0.69194 0.94237 0.07912 0.0
S1581 S 0.60245 0.88326 0.05218 0.0
N1582 N 0.61219 0.90857 0.04117 0.0
N1583 N 0.62282 0.88339 0.06854 0.0
C1584 C 0.63878 0.90472 0.06552 0.0
C1585 C 0.63307 0.91839 0.05062 0.0
C1586 C 0.08822 0.71743 0.0548 0.0
C1587 C 0.06628 0.71082 0.04834 0.0
C1588 C 0.10138 0.7369 0.06869 0.0
C1589 C 0.09324 0.7507 0.07665 0.0
H1590 H 0.09521 0.70718 0.04979 0.0
H1591 H 0.11801 0.74102 0.07365 0.0
S1592 S 0.03741 0.74179 0.06355 0.0
N1593 N 0.03735 0.72036 0.04997 0.0
N1594 N 0.06218 0.75696 0.07621 0.0
C1595 C 0.07167 0.74485 0.06944 0.0
C1596 C 0.05817 0.72492 0.05529 0.0
C1597 C 0.2921 0.37283 0.05392 0.0
C1598 C 0.29877 0.35753 0.04733 0.0
C1599 C 0.27282 0.36659 0.06824 0.0
C1600 C 0.2593 0.34477 0.07654 0.0
H1601 H 0.30216 0.39 0.04867 0.0
H1602 H 0.26866 0.37909 0.07329 0.0
S1603 S 0.26846 0.29796 0.06327 0.0
N1604 N 0.28958 0.31921 0.04918 0.0
N1605 N 0.25331 0.30756 0.07625 0.0
C1606 C 0.26517 0.32905 0.06917 0.0
C1607 C 0.2849 0.33541 0.05455 0.0
C1608 C 0.72578 0.67197 0.38674 0.0
C1609 C 0.73114 0.69415 0.38534 0.0
C1610 C 0.73934 0.66573 0.40013 0.0
C1611 C 0.75874 0.68142 0.41271 0.0
H1612 H 0.71093 0.65929 0.37754 0.0
H1613 H 0.73464 0.64851 0.40055 0.0
S1614 S 0.7795 0.74143 0.4165 0.0
N1615 N 0.75701 0.73174 0.39852 0.0
N1616 N 0.78203 0.71993 0.42404 0.0
C1617 C 0.76419 0.7036 0.41164 0.0
C1618 C 0.75053 0.70998 0.39788 0.0
C1619 C 0.33778 0.05851 0.38927 0.0
C1620 C 0.31617 0.04563 0.37971 0.0
C1621 C 0.34407 0.07787 0.40367 0.0
C1622 C 0.32895 0.08498 0.40912 0.0
H1623 H 0.34971 0.05317 0.38653 0.0
H1624 H 0.36059 0.08682 0.41152 0.0
S1625 S 0.27143 0.05917 0.38552 0.0
N1626 N 0.28037 0.04287 0.37454 0.0
N1627 N 0.29227 0.0791 0.40158 0.0
C1628 C 0.30773 0.07299 0.39847 0.0
C1629 C 0.30133 0.05338 0.38376 0.0
C1630 C 0.94988 0.28323 0.38848 0.0
C1631 C 0.96323 0.275 0.37882 0.0
C1632 C 0.93061 0.26979 0.40283 0.0
C1633 C 0.92409 0.2477 0.40812 0.0
H1634 H 0.95477 0.30039 0.3859 0.0
H1635 H 0.92127 0.27696 0.41079 0.0
S1636 S 0.95129 0.21725 0.38416 0.0
N1637 N 0.96705 0.24257 0.37333 0.0
N1638 N 0.93101 0.21756 0.4003 0.0
C1639 C 0.93654 0.23896 0.39734 0.0
C1640 C 0.95604 0.25253 0.38267 0.0
C1641 C 0.03814 0.41663 0.31752 0.0
C1642 C 0.02281 0.39499 0.32516 0.0
C1643 C 0.03189 0.42926 0.30233 0.0
C1644 C 0.01 0.42089 0.29428 0.0
H1645 H 0.05533 0.42377 0.32265 0.0
H1646 H 0.04437 0.44569 0.29664 0.0
S1647 S 0.96314 0.3657 0.30985 0.0
N1648 N 0.98443 0.36608 0.32421 0.0
N1649 N 0.97276 0.38995 0.29565 0.0
C1650 C 0.9943 0.39961 0.30247 0.0
C1651 C 1.00068 0.38664 0.31788 0.0
C1652 C 0.61699 0.61467 0.32058 0.0
C1653 C 0.60823 0.62751 0.3304 0.0
C1654 C 0.60395 0.59536 0.30614 0.0
C1655 C 0.58174 0.58828 0.30089 0.0
H1656 H 0.63425 0.62 0.32313 0.0
H1657 H 0.61152 0.58643 0.29808 0.0
S1658 S 0.55 0.61402 0.32518 0.0
N1659 N 0.5752 0.63027 0.33604 0.0
N1660 N 0.55094 0.59414 0.30888 0.0
C1661 C 0.57249 0.60023 0.31179 0.0
C1662 C 0.58566 0.61977 0.32657 0.0
C1663 C 0.38192 0.96892 0.31549 0.0
C1664 C 0.37808 0.98499 0.32692 0.0
C1665 C 0.40151 0.97464 0.30217 0.0
C1666 C 0.41827 0.99669 0.29983 0.0
H1667 H 0.36944 0.95171 0.31613 0.0
H1668 H 0.40329 0.96165 0.29306 0.0
S1669 S 0.41737 0.04501 0.3282 0.0
N1670 N 0.3932 0.02391 0.33614 0.0
N1671 N 0.43035 0.03463 0.31159 0.0
C1672 C 0.41498 0.01294 0.31179 0.0
C1673 C 0.39486 0.0071 0.32526 0.0
C1674 C 0.59648 0.98421 0.33877 0.0
C1675 C 0.61802 0.99091 0.33062 0.0
C1676 C 0.58311 0.99006 0.32441 0.0
C1677 C 0.59051 1.00227 0.30085 0.0
H1678 H 0.58973 0.97395 0.35606 0.0
H1679 H 0.56659 0.98443 0.33152 0.0
S1680 S 0.64578 0.02339 0.27095 0.0
N1681 N 0.64652 0.01081 0.29808 0.0
N1682 N 0.62109 0.02082 0.27019 0.0
C1683 C 0.61231 0.0095 0.29287 0.0
C1684 C 0.62611 0.00401 0.30794 0.0
C1685 C 0.04069 0.62486 0.31117 0.0
C1686 C 0.02542 0.62912 0.32407 0.0
C1687 C 0.03402 0.60507 0.29786 0.0
C1688 C 0.01181 0.58852 0.29702 0.0
H1689 H 0.05796 0.63717 0.31065 0.0
H1690 H 0.04639 0.60297 0.28758 0.0
S1691 S 0.96546 0.59049 0.32965 0.0
N1692 N 0.98713 0.6146 0.33633 0.0
N1693 N 0.97466 0.57707 0.31181 0.0
C1694 C 0.99639 0.59222 0.31048 0.0
C1695 C 1.00318 0.61255 0.32391 0.0
C1696 C 0.38747 0.41743 0.32193 0.0
C1697 C 0.38082 0.39544 0.32825 0.0
C1698 C 0.4066 0.43042 0.30735 0.0
C1699 C 0.42001 0.42208 0.2986 0.0
H1700 H 0.37746 0.42456 0.3275 0.0
H1701 H 0.41072 0.44708 0.30247 0.0
S1702 S 0.41101 0.36614 0.31116 0.0
N1703 N 0.39 0.36628 0.32568 0.0
N1704 N 0.42602 0.39086 0.29825 0.0
C1705 C 0.41421 0.4005 0.30572 0.0
C1706 C 0.3946 0.38715 0.32053 0.0
C1707 C 0.34013 0.28442 0.39009 0.0
C1708 C 0.31851 0.27582 0.38061 0.0
C1709 C 0.34632 0.27138 0.40477 0.0
C1710 C 0.33106 0.24935 0.41062 0.0
H1711 H 0.35219 0.30156 0.38703 0.0
H1712 H 0.36288 0.27884 0.41249 0.0
S1713 S 0.27339 0.21799 0.38754 0.0
N1714 N 0.2825 0.24306 0.37604 0.0
N1715 N 0.2942 0.21883 0.40365 0.0
C1716 C 0.3098 0.24023 0.40012 0.0
C1717 C 0.30351 0.25338 0.38509 0.0
C1718 C 0.72521 0.05536 0.39125 0.0
C1719 C 0.73334 0.04183 0.38196 0.0
C1720 C 0.73878 0.07496 0.40493 0.0
C1721 C 0.76095 0.08168 0.40992 0.0
H1722 H 0.70803 0.05041 0.38883 0.0
H1723 H 0.73166 0.08445 0.41258 0.0
S1724 S 0.79117 0.05399 0.38684 0.0
N1725 N 0.76574 0.03793 0.3766 0.0
N1726 N 0.79102 0.07462 0.40229 0.0
C1727 C 0.76958 0.06899 0.39957 0.0
C1728 C 0.75585 0.04912 0.38559 0.0
C1729 C 0.95016 0.67016 0.38488 0.0
C1730 C 0.96719 0.69223 0.38398 0.0
C1731 C 0.93061 0.66399 0.39884 0.0
C1732 C 0.92742 0.67965 0.4125 0.0
H1733 H 0.95194 0.65753 0.37478 0.0
H1734 H 0.91785 0.64688 0.39878 0.0
S1735 S 0.96754 0.73925 0.41824 0.0
N1736 N 0.97977 0.72961 0.39903 0.0
N1737 N 0.94343 0.71791 0.42558 0.0
C1738 C 0.94443 0.70168 0.41208 0.0
C1739 C 0.96418 0.70799 0.39774 0.0
C1740 C 0.41845 0.03884 0.71818 0.0
C1741 C 0.39604 0.0234 0.71459 0.0
C1742 C 0.43239 0.03346 0.73196 0.0
C1743 C 0.42458 0.0124 0.74272 0.0
H1744 H 0.42524 0.0555 0.71097 0.0
H1745 H 0.44938 0.04609 0.73471 0.0
S1746 S 0.36772 0.96547 0.73765 0.0
N1747 N 0.36698 0.98565 0.72182 0.0
N1748 N 0.39329 0.97566 0.74791 0.0
C1749 C 0.4025 0.99646 0.73832 0.0
C1750 C 0.38822 1.00193 0.72423 0.0
C1751 C 0.96743 0.38115 0.72118 0.0
C1752 C 0.98316 0.37498 0.71487 0.0
C1753 C 0.9732 0.40061 0.73489 0.0
C1754 C 0.99498 0.41485 0.7428 0.0
H1755 H 0.9503 0.37058 0.71617 0.0
H1756 H 0.9604 0.40438 0.73972 0.0
S1757 S 0.04278 0.40716 0.73011 0.0
N1758 N 0.02182 0.38538 0.71666 0.0
N1759 N 0.03258 0.42196 0.74253 0.0
C1760 C 0.01109 0.40941 0.73579 0.0
C1761 C 0.00521 0.38949 0.72183 0.0
C1762 C 0.61886 0.61645 0.71783 0.0
C1763 C 0.63558 0.61093 0.71692 0.0
C1764 C 0.59892 0.60303 0.731 0.0
C1765 C 0.595 0.58364 0.7439 0.0
H1766 H 0.62119 0.63131 0.70839 0.0
H1767 H 0.58646 0.60784 0.73101 0.0
S1768 S 0.63407 0.56265 0.74916 0.0
N1769 N 0.64707 0.58502 0.73097 0.0
N1770 N 0.61002 0.56029 0.75616 0.0
C1771 C 0.61167 0.57807 0.74336 0.0
C1772 C 0.63183 0.59156 0.72977 0.0
C1773 C 0.67406 0.71906 0.64321 0.0
C1774 C 0.68811 0.72707 0.66513 0.0
C1775 C 0.66793 0.73252 0.62941 0.0
C1776 C 0.67533 0.75438 0.6373 0.0
H1777 H 0.66877 0.7027 0.63577 0.0
H1778 H 0.65814 0.72603 0.61176 0.0
S1779 S 0.70917 0.78158 0.69653 0.0
N1780 N 0.70744 0.75723 0.69577 0.0
N1781 N 0.69494 0.78214 0.67096 0.0
C1782 C 0.6881 0.76194 0.66042 0.0
C1783 C 0.69474 0.7484 0.67404 0.0
C1784 C 0.28312 0.94838 0.65238 0.0
C1785 C 0.27463 0.9615 0.66206 0.0
C1786 C 0.26992 0.92915 0.63787 0.0
C1787 C 0.24782 0.92245 0.63244 0.0
H1788 H 0.3003 0.95343 0.65507 0.0
H1789 H 0.27729 0.91999 0.62993 0.0
S1790 S 0.21674 0.949 0.65635 0.0
N1791 N 0.24195 0.96491 0.66739 0.0
N1792 N 0.21738 0.92893 0.64012 0.0
C1793 C 0.23882 0.93466 0.64321 0.0
C1794 C 0.25215 0.95413 0.65804 0.0
C1795 C 0.05183 0.30178 0.6554 0.0
C1796 C 0.04538 0.31728 0.66186 0.0
C1797 C 0.07093 0.3077 0.64083 0.0
C1798 C 0.08454 0.32941 0.6322 0.0
H1799 H 0.04167 0.28468 0.66086 0.0
H1800 H 0.07489 0.29505 0.63586 0.0
S1801 S 0.07609 0.37671 0.64517 0.0
N1802 N 0.05496 0.35571 0.65959 0.0
N1803 N 0.09091 0.36676 0.63213 0.0
C1804 C 0.07893 0.34534 0.63947 0.0
C1805 C 0.05936 0.3393 0.65429 0.0
C1806 C 0.25327 0.2992 0.65495 0.0
C1807 C 0.27492 0.31456 0.66244 0.0
C1808 C 0.24046 0.30548 0.64019 0.0
C1809 C 0.24866 0.32741 0.63234 0.0
H1810 H 0.24627 0.28197 0.65982 0.0
H1811 H 0.22406 0.29295 0.63449 0.0
S1812 S 0.30377 0.37438 0.64792 0.0
N1813 N 0.3036 0.35303 0.66185 0.0
N1814 N 0.27943 0.36476 0.63399 0.0
C1815 C 0.2699 0.34316 0.64056 0.0
C1816 C 0.28304 0.33676 0.65561 0.0
C1817 C 0.70595 0.95694 0.65354 0.0
C1818 C 0.69015 0.96285 0.6606 0.0
C1819 C 0.70023 0.93785 0.63904 0.0
C1820 C 0.67844 0.92373 0.63115 0.0
H1821 H 0.72309 0.96744 0.6586 0.0
H1822 H 0.71304 0.93419 0.63378 0.0
S1823 S 0.63055 0.93094 0.64526 0.0
N1824 N 0.65149 0.95244 0.65919 0.0
N1825 N 0.64081 0.9165 0.63193 0.0
C1826 C 0.6623 0.92896 0.63872 0.0
C1827 C 0.66813 0.94851 0.65342 0.0
C1828 C 0.05045 0.75338 0.6507 0.0
C1829 C 0.04382 0.7316 0.65808 0.0
C1830 C 0.06986 0.76614 0.6365 0.0
C1831 C 0.08358 0.75775 0.62913 0.0
H1832 H 0.0403 0.76056 0.65529 0.0
H1833 H 0.074 0.78266 0.63089 0.0
S1834 S 0.07455 0.70221 0.64458 0.0
N1835 N 0.05322 0.70255 0.65785 0.0
N1836 N 0.08972 0.72664 0.63103 0.0
C1837 C 0.07769 0.73634 0.63719 0.0
C1838 C 0.05782 0.72325 0.65166 0.0
C1839 C 0.96732 0.5904 0.72412 0.0
C1840 C 0.98327 0.61199 0.71712 0.0
C1841 C 0.973 0.57648 0.73748 0.0
C1842 C 0.99491 0.58347 0.74439 0.0
H1843 H 0.95011 0.58428 0.71988 0.0
H1844 H 0.96004 0.56017 0.74281 0.0
S1845 S 0.04321 0.63799 0.72974 0.0
N1846 N 0.02221 0.63934 0.71724 0.0
N1847 N 0.03281 0.61313 0.74252 0.0
C1848 C 0.01119 0.60469 0.73671 0.0
C1849 C 0.0054 0.61894 0.72307 0.0
C1850 C 0.41432 0.37761 0.73383 0.0
C1851 C 0.39489 0.37362 0.721 0.0
C1852 C 0.42798 0.39765 0.74636 0.0
C1853 C 0.42295 0.41471 0.74652 0.0
H1854 H 0.41885 0.36495 0.7348 0.0
H1855 H 0.44242 0.39961 0.75651 0.0
S1856 S 0.37499 0.41345 0.71399 0.0
N1857 N 0.37182 0.38887 0.70822 0.0
N1858 N 0.39783 0.42679 0.73132 0.0
C1859 C 0.40386 0.41121 0.73324 0.0
C1860 C 0.3898 0.39065 0.72057 0.0
C1861 C 0.61827 0.00577 0.72269 0.0
C1862 C 0.63183 0.02719 0.71288 0.0
C1863 C 0.59909 1.00035 0.73705 0.0
C1864 C 0.59286 0.01619 0.74222 0.0
H1865 H 0.62289 0.99328 0.72014 0.0
H1866 H 0.58955 0.98392 0.74505 0.0
S1867 S 0.62077 0.07366 0.71804 0.0
N1868 N 0.63623 0.06367 0.70726 0.0
N1869 N 0.60034 0.05339 0.73426 0.0
C1870 C 0.60556 0.03726 0.73139 0.0
C1871 C 0.62498 0.04278 0.7167 0.0
loop_
_geom_bond_atom_site_label_1
_geom_bond_atom_site_label_2
_geom_bond_distance
_geom_bond_site_symmetry_2
_ccdc_geom_bond_type
O0 Cd1 2.223 . S
O0 C8 1.315 . S
Cd1 O0 2.223 . S
Cd1 O4 2.297 . S
Cd1 O5 2.439 . S
Cd1 O11 2.240 1_554 S
Cd2 O3 2.240 . S
Cd2 O10 2.223 1_554 S
Cd2 O12 2.297 1_554 S
Cd2 O13 2.439 1_554 S
O3 Cd2 2.240 . S
O3 C8 1.279 1_655 S
O4 Cd1 2.297 . S
O4 C6 1.247 . S
O5 Cd1 2.439 . S
O5 C6 1.208 . S
C6 O4 1.247 . S
C6 O5 1.208 . S
C7 O12 1.247 . S
C7 O13 1.208 . S
C8 O0 1.315 . S
C8 O3 1.279 1_455 S
C9 O10 1.315 . S
C9 O11 1.279 1_655 S
O10 Cd2 2.223 1_556 S
O10 C9 1.315 . S
O11 Cd1 2.240 1_556 S
O11 C9 1.279 1_455 S
O12 Cd2 2.297 1_556 S
O12 C7 1.247 . S
O13 Cd2 2.439 1_556 S
O13 C7 1.208 . S
O14 Cd15 2.223 . S
O14 C22 1.315 . S
Cd15 O14 2.223 . S
Cd15 O18 2.297 . S
Cd15 O19 2.439 . S
Cd15 O25 2.240 1_554 S
Cd16 O17 2.240 . S
Cd16 O24 2.223 1_554 S
Cd16 O26 2.297 1_554 S
Cd16 O27 2.439 1_554 S
O17 Cd16 2.240 . S
O17 C22 1.279 . S
O18 Cd15 2.297 . S
O18 C20 1.247 . S
O19 Cd15 2.439 . S
O19 C20 1.208 . S
C20 O18 1.247 . S
C20 O19 1.208 . S
C21 O26 1.247 . S
C21 O27 1.208 . S
C22 O14 1.315 . S
C22 O17 1.279 . S
C23 O24 1.315 . S
C23 O25 1.279 . S
O24 Cd16 2.223 1_556 S
O24 C23 1.315 . S
O25 Cd15 2.240 1_556 S
O25 C23 1.279 . S
O26 Cd16 2.297 1_556 S
O26 C21 1.247 . S
O27 Cd16 2.439 1_556 S
O27 C21 1.208 . S
O28 Cd29 2.223 1_556 S
O28 C36 1.315 . S
Cd29 O28 2.223 1_554 S
Cd29 O32 2.297 1_554 S
Cd29 O33 2.439 1_554 S
Cd29 O39 2.240 . S
Cd30 O31 2.240 1_554 S
Cd30 O38 2.223 . S
Cd30 O40 2.297 . S
Cd30 O41 2.439 . S
O31 Cd30 2.240 1_556 S
O31 C36 1.279 1_565 S
O32 Cd29 2.297 1_556 S
O32 C34 1.247 . S
O33 Cd29 2.439 1_556 S
O33 C34 1.208 . S
C34 O32 1.247 . S
C34 O33 1.208 . S
C35 O40 1.247 . S
C35 O41 1.208 . S
C36 O28 1.315 . S
C36 O31 1.279 1_545 S
C37 O38 1.315 . S
C37 O39 1.279 1_565 S
O38 Cd30 2.223 . S
O38 C37 1.315 . S
O39 Cd29 2.240 . S
O39 C37 1.279 1_545 S
O40 Cd30 2.297 . S
O40 C35 1.247 . S
O41 Cd30 2.439 . S
O41 C35 1.208 . S
O42 Cd43 2.223 1_556 S
O42 C50 1.315 . S
Cd43 O42 2.223 1_554 S
Cd43 O46 2.297 1_554 S
Cd43 O47 2.439 1_554 S
Cd43 O53 2.240 . S
Cd44 O45 2.240 1_554 S
Cd44 O52 2.223 . S
Cd44 O54 2.297 . S
Cd44 O55 2.439 . S
O45 Cd44 2.240 1_556 S
O45 C50 1.279 1_455 S
O46 Cd43 2.297 1_556 S
O46 C48 1.247 . S
O47 Cd43 2.439 1_556 S
O47 C48 1.208 . S
C48 O46 1.247 . S
C48 O47 1.208 . S
C49 O54 1.247 . S
C49 O55 1.208 . S
C50 O42 1.315 . S
C50 O45 1.279 1_655 S
C51 O52 1.315 . S
C51 O53 1.279 1_455 S
O52 Cd44 2.223 . S
O52 C51 1.315 . S
O53 Cd43 2.240 . S
O53 C51 1.279 1_655 S
O54 Cd44 2.297 . S
O54 C49 1.247 . S
O55 Cd44 2.439 . S
O55 C49 1.208 . S
O56 Cd57 2.223 1_556 S
O56 C64 1.315 . S
Cd57 O56 2.223 1_554 S
Cd57 O60 2.297 1_554 S
Cd57 O61 2.439 1_554 S
Cd57 O67 2.240 . S
Cd58 O59 2.240 1_554 S
Cd58 O66 2.223 . S
Cd58 O68 2.297 . S
Cd58 O69 2.439 . S
O59 Cd58 2.240 1_556 S
O59 C64 1.279 . S
O60 Cd57 2.297 1_556 S
O60 C62 1.247 . S
O61 Cd57 2.439 1_556 S
O61 C62 1.208 . S
C62 O60 1.247 . S
C62 O61 1.208 . S
C63 O68 1.247 . S
C63 O69 1.208 . S
C64 O56 1.315 . S
C64 O59 1.279 . S
C65 O66 1.315 . S
C65 O67 1.279 . S
O66 Cd58 2.223 . S
O66 C65 1.315 . S
O67 Cd57 2.240 . S
O67 C65 1.279 . S
O68 Cd58 2.297 . S
O68 C63 1.247 . S
O69 Cd58 2.439 . S
O69 C63 1.208 . S
O70 Cd71 2.223 . S
O70 C78 1.315 . S
Cd71 O70 2.223 . S
Cd71 O74 2.297 . S
Cd71 O75 2.439 . S
Cd71 O81 2.240 1_554 S
Cd72 O73 2.240 . S
Cd72 O80 2.223 1_554 S
Cd72 O82 2.297 1_554 S
Cd72 O83 2.439 1_554 S
O73 Cd72 2.240 . S
O73 C78 1.279 1_545 S
O74 Cd71 2.297 . S
O74 C76 1.247 . S
O75 Cd71 2.439 . S
O75 C76 1.208 . S
C76 O74 1.247 . S
C76 O75 1.208 . S
C77 O82 1.247 . S
C77 O83 1.208 . S
C78 O70 1.315 . S
C78 O73 1.279 1_565 S
C79 O80 1.315 . S
C79 O81 1.279 1_545 S
O80 Cd72 2.223 1_556 S
O80 C79 1.315 . S
O81 Cd71 2.240 1_556 S
O81 C79 1.279 1_565 S
O82 Cd72 2.297 1_556 S
O82 C77 1.247 . S
O83 Cd72 2.439 1_556 S
O83 C77 1.208 . S
O84 Cd85 2.223 . S
O84 C92 1.315 . S
Cd85 O84 2.223 . S
Cd85 O88 2.297 . S
Cd85 O89 2.439 . S
Cd85 O95 2.240 . S
Cd86 O87 2.240 . S
Cd86 O94 2.223 . S
Cd86 O96 2.297 . S
Cd86 O97 2.439 . S
O87 Cd86 2.240 . S
O87 C92 1.279 . S
O88 Cd85 2.297 . S
O88 C90 1.247 . S
O89 Cd85 2.439 . S
O89 C90 1.208 . S
C90 O88 1.247 . S
C90 O89 1.208 . S
C91 O96 1.247 . S
C91 O97 1.208 . S
C92 O84 1.315 . S
C92 O87 1.279 . S
C93 O94 1.315 . S
C93 O95 1.279 . S
O94 Cd86 2.223 . S
O94 C93 1.315 . S
O95 Cd85 2.240 . S
O95 C93 1.279 . S
O96 Cd86 2.297 . S
O96 C91 1.247 . S
O97 Cd86 2.439 . S
O97 C91 1.208 . S
O98 Cd99 2.223 . S
O98 C106 1.315 . S
Cd99 O98 2.223 . S
Cd99 O102 2.297 1_565 S
Cd99 O103 2.439 1_565 S
Cd99 O109 2.240 . S
Cd100 O101 2.240 . S
Cd100 O108 2.223 . S
Cd100 O110 2.297 . S
Cd100 O111 2.439 . S
O101 Cd100 2.240 . S
O101 C106 1.279 . S
O102 Cd99 2.297 1_545 S
O102 C104 1.247 . S
O103 Cd99 2.439 1_545 S
O103 C104 1.208 . S
C104 O102 1.247 . S
C104 O103 1.208 . S
C105 O110 1.247 . S
C105 O111 1.208 . S
C106 O98 1.315 . S
C106 O101 1.279 . S
C107 O108 1.315 . S
C107 O109 1.279 . S
O108 Cd100 2.223 . S
O108 C107 1.315 . S
O109 Cd99 2.240 . S
O109 C107 1.279 . S
O110 Cd100 2.297 . S
O110 C105 1.247 . S
O111 Cd100 2.439 . S
O111 C105 1.208 . S
O112 Cd113 2.223 . S
O112 C120 1.315 . S
Cd113 O112 2.223 . S
Cd113 O116 2.297 . S
Cd113 O117 2.439 . S
Cd113 O123 2.240 . S
Cd114 O115 2.240 . S
Cd114 O122 2.223 . S
Cd114 O124 2.297 1_455 S
Cd114 O125 2.439 1_455 S
O115 Cd114 2.240 . S
O115 C120 1.279 . S
O116 Cd113 2.297 . S
O116 C118 1.247 . S
O117 Cd113 2.439 . S
O117 C118 1.208 . S
C118 O116 1.247 . S
C118 O117 1.208 . S
C119 O124 1.247 . S
C119 O125 1.208 . S
C120 O112 1.315 . S
C120 O115 1.279 . S
C121 O122 1.315 . S
C121 O123 1.279 . S
O122 Cd114 2.223 . S
O122 C121 1.315 . S
O123 Cd113 2.240 . S
O123 C121 1.279 . S
O124 Cd114 2.297 1_655 S
O124 C119 1.247 . S
O125 Cd114 2.439 1_655 S
O125 C119 1.208 . S
O126 Cd127 2.223 . S
O126 C134 1.315 . S
Cd127 O126 2.223 . S
Cd127 O130 2.297 . S
Cd127 O131 2.439 . S
Cd127 O137 2.240 . S
Cd128 O129 2.240 . S
Cd128 O136 2.223 . S
Cd128 O138 2.297 1_565 S
Cd128 O139 2.439 1_565 S
O129 Cd128 2.240 . S
O129 C134 1.279 . S
O130 Cd127 2.297 . S
O130 C132 1.247 . S
O131 Cd127 2.439 . S
O131 C132 1.208 . S
C132 O130 1.247 . S
C132 O131 1.208 . S
C133 O138 1.247 . S
C133 O139 1.208 . S
C134 O126 1.315 . S
C134 O129 1.279 . S
C135 O136 1.315 . S
C135 O137 1.279 . S
O136 Cd128 2.223 . S
O136 C135 1.315 . S
O137 Cd127 2.240 . S
O137 C135 1.279 . S
O138 Cd128 2.297 1_545 S
O138 C133 1.247 . S
O139 Cd128 2.439 1_545 S
O139 C133 1.208 . S
O140 Cd141 2.223 . S
O140 C148 1.315 . S
Cd141 O140 2.223 . S
Cd141 O144 2.297 . S
Cd141 O145 2.439 . S
Cd141 O151 2.240 . S
Cd142 O143 2.240 . S
Cd142 O150 2.223 . S
Cd142 O152 2.297 1_455 S
Cd142 O153 2.439 1_455 S
O143 Cd142 2.240 . S
O143 C148 1.279 . S
O144 Cd141 2.297 . S
O144 C146 1.247 . S
O145 Cd141 2.439 . S
O145 C146 1.208 . S
C146 O144 1.247 . S
C146 O145 1.208 . S
C147 O152 1.247 . S
C147 O153 1.208 . S
C148 O140 1.315 . S
C148 O143 1.279 . S
C149 O150 1.315 . S
C149 O151 1.279 . S
O150 Cd142 2.223 . S
O150 C149 1.315 . S
O151 Cd141 2.240 . S
O151 C149 1.279 . S
O152 Cd142 2.297 1_655 S
O152 C147 1.247 . S
O153 Cd142 2.439 1_655 S
O153 C147 1.208 . S
O154 Cd155 2.223 . S
O154 C162 1.315 . S
Cd155 O154 2.223 . S
Cd155 O158 2.297 . S
Cd155 O159 2.439 . S
Cd155 O165 2.240 . S
Cd156 O157 2.240 . S
Cd156 O164 2.223 . S
Cd156 O166 2.297 . S
Cd156 O167 2.439 . S
O157 Cd156 2.240 . S
O157 C162 1.279 . S
O158 Cd155 2.297 . S
O158 C160 1.247 . S
O159 Cd155 2.439 . S
O159 C160 1.208 . S
C160 O158 1.247 . S
C160 O159 1.208 . S
C161 O166 1.247 . S
C161 O167 1.208 . S
C162 O154 1.315 . S
C162 O157 1.279 . S
C163 O164 1.315 . S
C163 O165 1.279 . S
O164 Cd156 2.223 . S
O164 C163 1.315 . S
O165 Cd155 2.240 . S
O165 C163 1.279 . S
O166 Cd156 2.297 . S
O166 C161 1.247 . S
O167 Cd156 2.439 . S
O167 C161 1.208 . S
O168 Cd169 2.223 . S
O168 C176 1.315 . S
Cd169 O168 2.223 . S
Cd169 O172 2.297 . S
Cd169 O173 2.439 . S
Cd169 O179 2.240 . S
Cd170 O171 2.240 . S
Cd170 O178 2.223 . S
Cd170 O180 2.297 1_545 S
Cd170 O181 2.439 1_545 S
O171 Cd170 2.240 . S
O171 C176 1.279 . S
O172 Cd169 2.297 . S
O172 C174 1.247 . S
O173 Cd169 2.439 . S
O173 C174 1.208 . S
C174 O172 1.247 . S
C174 O173 1.208 . S
C175 O180 1.247 . S
C175 O181 1.208 . S
C176 O168 1.315 . S
C176 O171 1.279 . S
C177 O178 1.315 . S
C177 O179 1.279 . S
O178 Cd170 2.223 . S
O178 C177 1.315 . S
O179 Cd169 2.240 . S
O179 C177 1.279 . S
O180 Cd170 2.297 1_565 S
O180 C175 1.247 . S
O181 Cd170 2.439 1_565 S
O181 C175 1.208 . S
O182 Cd183 2.223 . S
O182 C190 1.315 . S
Cd183 O182 2.223 . S
Cd183 O186 2.297 . S
Cd183 O187 2.439 . S
Cd183 O193 2.240 . S
Cd184 O185 2.240 . S
Cd184 O192 2.223 . S
Cd184 O194 2.297 1_655 S
Cd184 O195 2.439 1_655 S
O185 Cd184 2.240 . S
O185 C190 1.279 . S
O186 Cd183 2.297 . S
O186 C188 1.247 . S
O187 Cd183 2.439 . S
O187 C188 1.208 . S
C188 O186 1.247 . S
C188 O187 1.208 . S
C189 O194 1.247 . S
C189 O195 1.208 . S
C190 O182 1.315 . S
C190 O185 1.279 . S
C191 O192 1.315 . S
C191 O193 1.279 . S
O192 Cd184 2.223 . S
O192 C191 1.315 . S
O193 Cd183 2.240 . S
O193 C191 1.279 . S
O194 Cd184 2.297 1_455 S
O194 C189 1.247 . S
O195 Cd184 2.439 1_455 S
O195 C189 1.208 . S
O196 Cd197 2.223 . S
O196 C204 1.315 . S
Cd197 O196 2.223 . S
Cd197 O200 2.297 . S
Cd197 O201 2.439 . S
Cd197 O207 2.240 . S
Cd198 O199 2.240 . S
Cd198 O206 2.223 . S
Cd198 O208 2.297 . S
Cd198 O209 2.439 . S
O199 Cd198 2.240 . S
O199 C204 1.279 . S
O200 Cd197 2.297 . S
O200 C202 1.247 . S
O201 Cd197 2.439 . S
O201 C202 1.208 . S
C202 O200 1.247 . S
C202 O201 1.208 . S
C203 O208 1.247 . S
C203 O209 1.208 . S
C204 O196 1.315 . S
C204 O199 1.279 . S
C205 O206 1.315 . S
C205 O207 1.279 . S
O206 Cd198 2.223 . S
O206 C205 1.315 . S
O207 Cd197 2.240 . S
O207 C205 1.279 . S
O208 Cd198 2.297 . S
O208 C203 1.247 . S
O209 Cd198 2.439 . S
O209 C203 1.208 . S
O210 Cd211 2.223 . S
O210 C218 1.315 . S
Cd211 O210 2.223 . S
Cd211 O214 2.297 . S
Cd211 O215 2.439 . S
Cd211 O221 2.240 . S
Cd212 O213 2.240 . S
Cd212 O220 2.223 . S
Cd212 O222 2.297 . S
Cd212 O223 2.439 . S
O213 Cd212 2.240 . S
O213 C218 1.279 . S
O214 Cd211 2.297 . S
O214 C216 1.247 . S
O215 Cd211 2.439 . S
O215 C216 1.208 . S
C216 O214 1.247 . S
C216 O215 1.208 . S
C217 O222 1.247 . S
C217 O223 1.208 . S
C218 O210 1.315 . S
C218 O213 1.279 . S
C219 O220 1.315 . S
C219 O221 1.279 . S
O220 Cd212 2.223 . S
O220 C219 1.315 . S
O221 Cd211 2.240 . S
O221 C219 1.279 . S
O222 Cd212 2.297 . S
O222 C217 1.247 . S
O223 Cd212 2.439 . S
O223 C217 1.208 . S
O224 Cd225 2.223 . S
O224 C232 1.315 . S
Cd225 O224 2.223 . S
Cd225 O228 2.297 1_545 S
Cd225 O229 2.439 1_545 S
Cd225 O235 2.240 . S
Cd226 O227 2.240 . S
Cd226 O234 2.223 . S
Cd226 O236 2.297 . S
Cd226 O237 2.439 . S
O227 Cd226 2.240 . S
O227 C232 1.279 . S
O228 Cd225 2.297 1_565 S
O228 C230 1.247 . S
O229 Cd225 2.439 1_565 S
O229 C230 1.208 . S
C230 O228 1.247 . S
C230 O229 1.208 . S
C231 O236 1.247 . S
C231 O237 1.208 . S
C232 O224 1.315 . S
C232 O227 1.279 . S
C233 O234 1.315 . S
C233 O235 1.279 . S
O234 Cd226 2.223 . S
O234 C233 1.315 . S
O235 Cd225 2.240 . S
O235 C233 1.279 . S
O236 Cd226 2.297 . S
O236 C231 1.247 . S
O237 Cd226 2.439 . S
O237 C231 1.208 . S
O238 Cd239 2.223 . S
O238 C246 1.315 . S
Cd239 O238 2.223 . S
Cd239 O242 2.297 . S
Cd239 O243 2.439 . S
Cd239 O249 2.240 . S
Cd240 O241 2.240 . S
Cd240 O248 2.223 . S
Cd240 O250 2.297 1_655 S
Cd240 O251 2.439 1_655 S
O241 Cd240 2.240 . S
O241 C246 1.279 . S
O242 Cd239 2.297 . S
O242 C244 1.247 . S
O243 Cd239 2.439 . S
O243 C244 1.208 . S
C244 O242 1.247 . S
C244 O243 1.208 . S
C245 O250 1.247 . S
C245 O251 1.208 . S
C246 O238 1.315 . S
C246 O241 1.279 . S
C247 O248 1.315 . S
C247 O249 1.279 . S
O248 Cd240 2.223 . S
O248 C247 1.315 . S
O249 Cd239 2.240 . S
O249 C247 1.279 . S
O250 Cd240 2.297 1_455 S
O250 C245 1.247 . S
O251 Cd240 2.439 1_455 S
O251 C245 1.208 . S
C252 C253 1.384 . S
C252 C254 1.384 . S
C252 H280 0.931 . S
C253 C252 1.384 . S
C253 C256 1.382 . S
C254 C252 1.384 . S
C254 C255 1.381 . S
C254 H281 0.930 . S
C255 C254 1.381 . S
C255 C257 1.381 . S
C255 C258 1.487 . S
C256 C253 1.382 . S
C256 C257 1.387 . S
C256 H282 0.930 . S
C257 C255 1.381 . S
C257 C256 1.387 . S
C257 H283 0.931 . S
C258 C255 1.487 . S
C258 C265 1.399 . S
C258 N296 1.343 . S
C259 C260 1.384 . S
C259 C261 1.384 . S
C259 H284 0.931 . S
C260 C259 1.384 . S
C260 C263 1.382 . S
C261 C259 1.384 . S
C261 C262 1.381 . S
C261 H285 0.930 . S
C262 C261 1.381 . S
C262 C264 1.381 . S
C262 C265 1.487 . S
C263 C260 1.382 . S
C263 C264 1.387 . S
C263 H286 0.930 . S
C264 C262 1.381 . S
C264 C263 1.387 . S
C264 H287 0.931 . S
C265 C258 1.399 . S
C265 C262 1.487 . S
C265 N297 1.343 . S
C266 C267 1.384 . S
C266 C268 1.384 . S
C266 H288 0.931 . S
C267 C266 1.384 . S
C267 C270 1.382 . S
C268 C266 1.384 . S
C268 C269 1.381 . S
C268 H289 0.930 . S
C269 C268 1.381 . S
C269 C271 1.381 . S
C269 C272 1.487 . S
C270 C267 1.382 . S
C270 C271 1.387 . S
C270 H290 0.930 . S
C271 C269 1.381 . S
C271 C270 1.387 . S
C271 H291 0.931 . S
C272 C269 1.487 . S
C272 C279 1.399 . S
C272 N297 1.343 . S
C273 C274 1.384 . S
C273 C275 1.384 . S
C273 H292 0.931 . S
C274 C273 1.384 . S
C274 C277 1.382 . S
C275 C273 1.384 . S
C275 C276 1.381 . S
C275 H293 0.930 . S
C276 C275 1.381 . S
C276 C278 1.381 . S
C276 C279 1.487 . S
C277 C274 1.382 . S
C277 C278 1.387 . S
C277 H294 0.930 . S
C278 C276 1.381 . S
C278 C277 1.387 . S
C278 H295 0.931 . S
C279 C272 1.399 . S
C279 C276 1.487 . S
C279 N296 1.343 . S
H280 C252 0.931 . S
H281 C254 0.930 . S
H282 C256 0.930 . S
H283 C257 0.931 . S
H284 C259 0.931 . S
H285 C261 0.930 . S
H286 C263 0.930 . S
H287 C264 0.931 . S
H288 C266 0.931 . S
H289 C268 0.930 . S
H290 C270 0.930 . S
H291 C271 0.931 . S
H292 C273 0.931 . S
H293 C275 0.930 . S
H294 C277 0.930 . S
H295 C278 0.931 . S
N296 C258 1.343 . S
N296 C279 1.343 . S
N297 C265 1.343 . S
N297 C272 1.343 . S
C298 C299 1.384 . S
C298 C300 1.384 . S
C298 H326 0.931 . S
C299 C298 1.384 . S
C299 C302 1.382 . S
C300 C298 1.384 . S
C300 C301 1.381 . S
C300 H327 0.930 . S
C301 C300 1.381 . S
C301 C303 1.381 . S
C301 C304 1.487 . S
C302 C299 1.382 . S
C302 C303 1.387 . S
C302 H328 0.930 . S
C303 C301 1.381 . S
C303 C302 1.387 . S
C303 H329 0.931 . S
C304 C301 1.487 . S
C304 C311 1.399 . S
C304 N342 1.343 . S
C305 C306 1.384 . S
C305 C307 1.384 . S
C305 H330 0.931 . S
C306 C305 1.384 . S
C306 C309 1.382 . S
C307 C305 1.384 . S
C307 C308 1.381 . S
C307 H331 0.930 . S
C308 C307 1.381 . S
C308 C310 1.381 . S
C308 C311 1.487 . S
C309 C306 1.382 . S
C309 C310 1.387 . S
C309 H332 0.930 . S
C310 C308 1.381 . S
C310 C309 1.387 . S
C310 H333 0.931 . S
C311 C304 1.399 . S
C311 C308 1.487 . S
C311 N343 1.343 . S
C312 C313 1.384 . S
C312 C314 1.384 . S
C312 H334 0.931 . S
C313 C312 1.384 . S
C313 C316 1.382 . S
C314 C312 1.384 . S
C314 C315 1.381 . S
C314 H335 0.930 . S
C315 C314 1.381 . S
C315 C317 1.381 . S
C315 C318 1.487 . S
C316 C313 1.382 . S
C316 C317 1.387 . S
C316 H336 0.930 . S
C317 C315 1.381 . S
C317 C316 1.387 . S
C317 H337 0.931 . S
C318 C315 1.487 . S
C318 C325 1.399 . S
C318 N343 1.343 . S
C319 C320 1.384 . S
C319 C321 1.384 . S
C319 H338 0.931 . S
C320 C319 1.384 . S
C320 C323 1.382 . S
C321 C319 1.384 . S
C321 C322 1.381 . S
C321 H339 0.930 . S
C322 C321 1.381 . S
C322 C324 1.381 . S
C322 C325 1.487 . S
C323 C320 1.382 . S
C323 C324 1.387 . S
C323 H340 0.930 . S
C324 C322 1.381 . S
C324 C323 1.387 . S
C324 H341 0.931 . S
C325 C318 1.399 . S
C325 C322 1.487 . S
C325 N342 1.343 . S
H326 C298 0.931 . S
H327 C300 0.930 . S
H328 C302 0.930 . S
H329 C303 0.931 . S
H330 C305 0.931 . S
H331 C307 0.930 . S
H332 C309 0.930 . S
H333 C310 0.931 . S
H334 C312 0.931 . S
H335 C314 0.930 . S
H336 C316 0.930 . S
H337 C317 0.931 . S
H338 C319 0.931 . S
H339 C321 0.930 . S
H340 C323 0.930 . S
H341 C324 0.931 . S
N342 C304 1.343 . S
N342 C325 1.343 . S
N343 C311 1.343 . S
N343 C318 1.343 . S
C344 C345 1.384 . S
C344 C346 1.384 . S
C344 H372 0.931 . S
C345 C344 1.384 . S
C345 C348 1.382 . S
C346 C344 1.384 . S
C346 C347 1.381 . S
C346 H373 0.930 . S
C347 C346 1.381 . S
C347 C349 1.381 . S
C347 C350 1.487 . S
C348 C345 1.382 . S
C348 C349 1.387 . S
C348 H374 0.930 . S
C349 C347 1.381 . S
C349 C348 1.387 . S
C349 H375 0.931 . S
C350 C347 1.487 . S
C350 C357 1.399 . S
C350 N388 1.343 . S
C351 C352 1.384 . S
C351 C353 1.384 . S
C351 H376 0.931 . S
C352 C351 1.384 . S
C352 C355 1.382 . S
C353 C351 1.384 . S
C353 C354 1.381 . S
C353 H377 0.930 . S
C354 C353 1.381 . S
C354 C356 1.381 . S
C354 C357 1.487 . S
C355 C352 1.382 . S
C355 C356 1.387 . S
C355 H378 0.930 . S
C356 C354 1.381 . S
C356 C355 1.387 . S
C356 H379 0.931 . S
C357 C350 1.399 . S
C357 C354 1.487 . S
C357 N389 1.343 . S
C358 C359 1.384 . S
C358 C360 1.384 . S
C358 H380 0.931 . S
C359 C358 1.384 . S
C359 C362 1.382 . S
C360 C358 1.384 . S
C360 C361 1.381 . S
C360 H381 0.930 . S
C361 C360 1.381 . S
C361 C363 1.381 . S
C361 C364 1.487 . S
C362 C359 1.382 . S
C362 C363 1.387 . S
C362 H382 0.930 . S
C363 C361 1.381 . S
C363 C362 1.387 . S
C363 H383 0.931 . S
C364 C361 1.487 . S
C364 C371 1.399 . S
C364 N389 1.343 . S
C365 C366 1.384 . S
C365 C367 1.384 . S
C365 H384 0.931 . S
C366 C365 1.384 . S
C366 C369 1.382 . S
C367 C365 1.384 . S
C367 C368 1.381 . S
C367 H385 0.930 . S
C368 C367 1.381 . S
C368 C370 1.381 . S
C368 C371 1.487 . S
C369 C366 1.382 . S
C369 C370 1.387 . S
C369 H386 0.930 . S
C370 C368 1.381 . S
C370 C369 1.387 . S
C370 H387 0.931 . S
C371 C364 1.399 . S
C371 C368 1.487 . S
C371 N388 1.343 . S
H372 C344 0.931 . S
H373 C346 0.930 . S
H374 C348 0.930 . S
H375 C349 0.931 . S
H376 C351 0.931 . S
H377 C353 0.930 . S
H378 C355 0.930 . S
H379 C356 0.931 . S
H380 C358 0.931 . S
H381 C360 0.930 . S
H382 C362 0.930 . S
H383 C363 0.931 . S
H384 C365 0.931 . S
H385 C367 0.930 . S
H386 C369 0.930 . S
H387 C370 0.931 . S
N388 C350 1.343 . S
N388 C371 1.343 . S
N389 C357 1.343 . S
N389 C364 1.343 . S
C390 C391 1.384 . S
C390 C392 1.384 . S
C390 H418 0.931 . S
C391 C390 1.384 . S
C391 C394 1.382 . S
C392 C390 1.384 . S
C392 C393 1.381 . S
C392 H419 0.930 . S
C393 C392 1.381 . S
C393 C395 1.381 . S
C393 C396 1.487 . S
C394 C391 1.382 . S
C394 C395 1.387 . S
C394 H420 0.930 . S
C395 C393 1.381 . S
C395 C394 1.387 . S
C395 H421 0.931 . S
C396 C393 1.487 . S
C396 C403 1.399 . S
C396 N434 1.343 . S
C397 C398 1.384 . S
C397 C399 1.384 . S
C397 H422 0.931 . S
C398 C397 1.384 . S
C398 C401 1.382 . S
C399 C397 1.384 . S
C399 C400 1.381 . S
C399 H423 0.930 . S
C400 C399 1.381 . S
C400 C402 1.381 . S
C400 C403 1.487 . S
C401 C398 1.382 . S
C401 C402 1.387 . S
C401 H424 0.930 . S
C402 C400 1.381 . S
C402 C401 1.387 . S
C402 H425 0.931 . S
C403 C396 1.399 . S
C403 C400 1.487 . S
C403 N435 1.343 . S
C404 C405 1.384 . S
C404 C406 1.384 . S
C404 H426 0.931 . S
C405 C404 1.384 . S
C405 C408 1.382 . S
C406 C404 1.384 . S
C406 C407 1.381 . S
C406 H427 0.930 . S
C407 C406 1.381 . S
C407 C409 1.381 . S
C407 C410 1.487 . S
C408 C405 1.382 . S
C408 C409 1.387 . S
C408 H428 0.930 . S
C409 C407 1.381 . S
C409 C408 1.387 . S
C409 H429 0.931 . S
C410 C407 1.487 . S
C410 C417 1.399 . S
C410 N435 1.343 . S
C411 C412 1.384 . S
C411 C413 1.384 . S
C411 H430 0.931 . S
C412 C411 1.384 . S
C412 C415 1.382 . S
C413 C411 1.384 . S
C413 C414 1.381 . S
C413 H431 0.930 . S
C414 C413 1.381 . S
C414 C416 1.381 . S
C414 C417 1.487 . S
C415 C412 1.382 . S
C415 C416 1.387 . S
C415 H432 0.930 . S
C416 C414 1.381 . S
C416 C415 1.387 . S
C416 H433 0.931 . S
C417 C410 1.399 . S
C417 C414 1.487 . S
C417 N434 1.343 . S
H418 C390 0.931 . S
H419 C392 0.930 . S
H420 C394 0.930 . S
H421 C395 0.931 . S
H422 C397 0.931 . S
H423 C399 0.930 . S
H424 C401 0.930 . S
H425 C402 0.931 . S
H426 C404 0.931 . S
H427 C406 0.930 . S
H428 C408 0.930 . S
H429 C409 0.931 . S
H430 C411 0.931 . S
H431 C413 0.930 . S
H432 C415 0.930 . S
H433 C416 0.931 . S
N434 C396 1.343 . S
N434 C417 1.343 . S
N435 C403 1.343 . S
N435 C410 1.343 . S
C436 C437 1.384 . S
C436 C438 1.384 . S
C436 H464 0.931 . S
C437 C436 1.384 . S
C437 C440 1.382 . S
C438 C436 1.384 . S
C438 C439 1.381 . S
C438 H465 0.930 . S
C439 C438 1.381 . S
C439 C441 1.381 . S
C439 C442 1.487 . S
C440 C437 1.382 . S
C440 C441 1.387 . S
C440 H466 0.930 . S
C441 C439 1.381 . S
C441 C440 1.387 . S
C441 H467 0.931 . S
C442 C439 1.487 . S
C442 C449 1.399 . S
C442 N480 1.343 . S
C443 C444 1.384 . S
C443 C445 1.384 . S
C443 H468 0.931 . S
C444 C443 1.384 . S
C444 C447 1.382 . S
C445 C443 1.384 . S
C445 C446 1.381 . S
C445 H469 0.930 . S
C446 C445 1.381 . S
C446 C448 1.381 . S
C446 C449 1.487 . S
C447 C444 1.382 . S
C447 C448 1.387 . S
C447 H470 0.930 . S
C448 C446 1.381 . S
C448 C447 1.387 . S
C448 H471 0.931 . S
C449 C442 1.399 . S
C449 C446 1.487 . S
C449 N481 1.343 . S
C450 C451 1.384 . S
C450 C452 1.384 . S
C450 H472 0.931 . S
C451 C450 1.384 . S
C451 C454 1.382 . S
C452 C450 1.384 . S
C452 C453 1.381 . S
C452 H473 0.930 . S
C453 C452 1.381 . S
C453 C455 1.381 . S
C453 C456 1.487 . S
C454 C451 1.382 . S
C454 C455 1.387 . S
C454 H474 0.930 . S
C455 C453 1.381 . S
C455 C454 1.387 . S
C455 H475 0.931 . S
C456 C453 1.487 . S
C456 C463 1.399 . S
C456 N481 1.343 . S
C457 C458 1.384 . S
C457 C459 1.384 . S
C457 H476 0.931 . S
C458 C457 1.384 . S
C458 C461 1.382 . S
C459 C457 1.384 . S
C459 C460 1.381 . S
C459 H477 0.930 . S
C460 C459 1.381 . S
C460 C462 1.381 . S
C460 C463 1.487 . S
C461 C458 1.382 . S
C461 C462 1.387 . S
C461 H478 0.930 . S
C462 C460 1.381 . S
C462 C461 1.387 . S
C462 H479 0.931 . S
C463 C456 1.399 . S
C463 C460 1.487 . S
C463 N480 1.343 . S
H464 C436 0.931 . S
H465 C438 0.930 . S
H466 C440 0.930 . S
H467 C441 0.931 . S
H468 C443 0.931 . S
H469 C445 0.930 . S
H470 C447 0.930 . S
H471 C448 0.931 . S
H472 C450 0.931 . S
H473 C452 0.930 . S
H474 C454 0.930 . S
H475 C455 0.931 . S
H476 C457 0.931 . S
H477 C459 0.930 . S
H478 C461 0.930 . S
H479 C462 0.931 . S
N480 C442 1.343 . S
N480 C463 1.343 . S
N481 C449 1.343 . S
N481 C456 1.343 . S
C482 C483 1.384 . S
C482 C484 1.384 . S
C482 H510 0.931 . S
C483 C482 1.384 . S
C483 C486 1.382 . S
C484 C482 1.384 . S
C484 C485 1.381 . S
C484 H511 0.930 . S
C485 C484 1.381 . S
C485 C487 1.381 . S
C485 C488 1.487 . S
C486 C483 1.382 . S
C486 C487 1.387 . S
C486 H512 0.930 . S
C487 C485 1.381 . S
C487 C486 1.387 . S
C487 H513 0.931 . S
C488 C485 1.487 . S
C488 C495 1.399 . S
C488 N526 1.343 . S
C489 C490 1.384 . S
C489 C491 1.384 . S
C489 H514 0.931 . S
C490 C489 1.384 . S
C490 C493 1.382 . S
C491 C489 1.384 . S
C491 C492 1.381 . S
C491 H515 0.930 . S
C492 C491 1.381 . S
C492 C494 1.381 . S
C492 C495 1.487 . S
C493 C490 1.382 . S
C493 C494 1.387 . S
C493 H516 0.930 . S
C494 C492 1.381 . S
C494 C493 1.387 . S
C494 H517 0.931 . S
C495 C488 1.399 . S
C495 C492 1.487 . S
C495 N527 1.343 . S
C496 C497 1.384 . S
C496 C498 1.384 . S
C496 H518 0.931 . S
C497 C496 1.384 . S
C497 C500 1.382 . S
C498 C496 1.384 . S
C498 C499 1.381 . S
C498 H519 0.930 . S
C499 C498 1.381 . S
C499 C501 1.381 . S
C499 C502 1.487 . S
C500 C497 1.382 . S
C500 C501 1.387 . S
C500 H520 0.930 . S
C501 C499 1.381 . S
C501 C500 1.387 . S
C501 H521 0.931 . S
C502 C499 1.487 . S
C502 C509 1.399 . S
C502 N527 1.343 . S
C503 C504 1.384 . S
C503 C505 1.384 . S
C503 H522 0.931 . S
C504 C503 1.384 . S
C504 C507 1.382 . S
C505 C503 1.384 . S
C505 C506 1.381 . S
C505 H523 0.930 . S
C506 C505 1.381 . S
C506 C508 1.381 . S
C506 C509 1.487 . S
C507 C504 1.382 . S
C507 C508 1.387 . S
C507 H524 0.930 . S
C508 C506 1.381 . S
C508 C507 1.387 . S
C508 H525 0.931 . S
C509 C502 1.399 . S
C509 C506 1.487 . S
C509 N526 1.343 . S
H510 C482 0.931 . S
H511 C484 0.930 . S
H512 C486 0.930 . S
H513 C487 0.931 . S
H514 C489 0.931 . S
H515 C491 0.930 . S
H516 C493 0.930 . S
H517 C494 0.931 . S
H518 C496 0.931 . S
H519 C498 0.930 . S
H520 C500 0.930 . S
H521 C501 0.931 . S
H522 C503 0.931 . S
H523 C505 0.930 . S
H524 C507 0.930 . S
H525 C508 0.931 . S
N526 C488 1.343 . S
N526 C509 1.343 . S
N527 C495 1.343 . S
N527 C502 1.343 . S
C528 C529 1.384 . S
C528 C530 1.384 . S
C528 H556 0.931 . S
C529 C528 1.384 . S
C529 C532 1.382 . S
C530 C528 1.384 . S
C530 C531 1.381 . S
C530 H557 0.930 . S
C531 C530 1.381 . S
C531 C533 1.381 . S
C531 C534 1.487 . S
C532 C529 1.382 . S
C532 C533 1.387 . S
C532 H558 0.930 . S
C533 C531 1.381 . S
C533 C532 1.387 . S
C533 H559 0.931 . S
C534 C531 1.487 . S
C534 C541 1.399 . S
C534 N572 1.343 . S
C535 C536 1.384 . S
C535 C537 1.384 . S
C535 H560 0.931 . S
C536 C535 1.384 . S
C536 C539 1.382 . S
C537 C535 1.384 . S
C537 C538 1.381 . S
C537 H561 0.930 . S
C538 C537 1.381 . S
C538 C540 1.381 . S
C538 C541 1.487 . S
C539 C536 1.382 . S
C539 C540 1.387 . S
C539 H562 0.930 . S
C540 C538 1.381 . S
C540 C539 1.387 . S
C540 H563 0.931 . S
C541 C534 1.399 . S
C541 C538 1.487 . S
C541 N573 1.343 . S
C542 C543 1.384 . S
C542 C544 1.384 . S
C542 H564 0.931 . S
C543 C542 1.384 . S
C543 C546 1.382 . S
C544 C542 1.384 . S
C544 C545 1.381 . S
C544 H565 0.930 . S
C545 C544 1.381 . S
C545 C547 1.381 . S
C545 C548 1.487 . S
C546 C543 1.382 . S
C546 C547 1.387 . S
C546 H566 0.930 . S
C547 C545 1.381 . S
C547 C546 1.387 . S
C547 H567 0.931 . S
C548 C545 1.487 . S
C548 C555 1.399 . S
C548 N573 1.343 . S
C549 C550 1.384 . S
C549 C551 1.384 . S
C549 H568 0.931 . S
C550 C549 1.384 . S
C550 C553 1.382 . S
C551 C549 1.384 . S
C551 C552 1.381 . S
C551 H569 0.930 . S
C552 C551 1.381 . S
C552 C554 1.381 . S
C552 C555 1.487 . S
C553 C550 1.382 . S
C553 C554 1.387 . S
C553 H570 0.930 . S
C554 C552 1.381 . S
C554 C553 1.387 . S
C554 H571 0.931 . S
C555 C548 1.399 . S
C555 C552 1.487 . S
C555 N572 1.343 . S
H556 C528 0.931 . S
H557 C530 0.930 . S
H558 C532 0.930 . S
H559 C533 0.931 . S
H560 C535 0.931 . S
H561 C537 0.930 . S
H562 C539 0.930 . S
H563 C540 0.931 . S
H564 C542 0.931 . S
H565 C544 0.930 . S
H566 C546 0.930 . S
H567 C547 0.931 . S
H568 C549 0.931 . S
H569 C551 0.930 . S
H570 C553 0.930 . S
H571 C554 0.931 . S
N572 C534 1.343 . S
N572 C555 1.343 . S
N573 C541 1.343 . S
N573 C548 1.343 . S
C574 C575 1.384 . S
C574 C576 1.384 . S
C574 H602 0.931 . S
C575 C574 1.384 . S
C575 C578 1.382 . S
C576 C574 1.384 . S
C576 C577 1.381 . S
C576 H603 0.930 . S
C577 C576 1.381 . S
C577 C579 1.381 . S
C577 C580 1.487 . S
C578 C575 1.382 . S
C578 C579 1.387 . S
C578 H604 0.930 . S
C579 C577 1.381 . S
C579 C578 1.387 . S
C579 H605 0.931 . S
C580 C577 1.487 . S
C580 C587 1.399 . S
C580 N618 1.343 . S
C581 C582 1.384 . S
C581 C583 1.384 . S
C581 H606 0.931 . S
C582 C581 1.384 . S
C582 C585 1.382 . S
C583 C581 1.384 . S
C583 C584 1.381 . S
C583 H607 0.930 . S
C584 C583 1.381 . S
C584 C586 1.381 . S
C584 C587 1.487 . S
C585 C582 1.382 . S
C585 C586 1.387 . S
C585 H608 0.930 . S
C586 C584 1.381 . S
C586 C585 1.387 . S
C586 H609 0.931 . S
C587 C580 1.399 . S
C587 C584 1.487 . S
C587 N619 1.343 . S
C588 C589 1.384 . S
C588 C590 1.384 . S
C588 H610 0.931 . S
C589 C588 1.384 . S
C589 C592 1.382 . S
C590 C588 1.384 . S
C590 C591 1.381 . S
C590 H611 0.930 . S
C591 C590 1.381 . S
C591 C593 1.381 . S
C591 C594 1.487 . S
C592 C589 1.382 . S
C592 C593 1.387 . S
C592 H612 0.930 . S
C593 C591 1.381 . S
C593 C592 1.387 . S
C593 H613 0.931 . S
C594 C591 1.487 . S
C594 C601 1.399 . S
C594 N619 1.343 . S
C595 C596 1.384 . S
C595 C597 1.384 . S
C595 H614 0.931 . S
C596 C595 1.384 . S
C596 C599 1.382 . S
C597 C595 1.384 . S
C597 C598 1.381 . S
C597 H615 0.930 . S
C598 C597 1.381 . S
C598 C600 1.381 . S
C598 C601 1.487 . S
C599 C596 1.382 . S
C599 C600 1.387 . S
C599 H616 0.930 . S
C600 C598 1.381 . S
C600 C599 1.387 . S
C600 H617 0.931 . S
C601 C594 1.399 . S
C601 C598 1.487 . S
C601 N618 1.343 . S
H602 C574 0.931 . S
H603 C576 0.930 . S
H604 C578 0.930 . S
H605 C579 0.931 . S
H606 C581 0.931 . S
H607 C583 0.930 . S
H608 C585 0.930 . S
H609 C586 0.931 . S
H610 C588 0.931 . S
H611 C590 0.930 . S
H612 C592 0.930 . S
H613 C593 0.931 . S
H614 C595 0.931 . S
H615 C597 0.930 . S
H616 C599 0.930 . S
H617 C600 0.931 . S
N618 C580 1.343 . S
N618 C601 1.343 . S
N619 C587 1.343 . S
N619 C594 1.343 . S
C620 C621 1.384 . S
C620 C622 1.384 . S
C620 H648 0.931 . S
C621 C620 1.384 . S
C621 C624 1.382 . S
C622 C620 1.384 . S
C622 C623 1.381 . S
C622 H649 0.930 . S
C623 C622 1.381 . S
C623 C625 1.381 . S
C623 C626 1.487 . S
C624 C621 1.382 . S
C624 C625 1.387 . S
C624 H650 0.930 . S
C625 C623 1.381 . S
C625 C624 1.387 . S
C625 H651 0.931 . S
C626 C623 1.487 . S
C626 C633 1.399 . S
C626 N664 1.343 . S
C627 C628 1.384 . S
C627 C629 1.384 . S
C627 H652 0.931 . S
C628 C627 1.384 . S
C628 C631 1.382 . S
C629 C627 1.384 . S
C629 C630 1.381 . S
C629 H653 0.930 . S
C630 C629 1.381 . S
C630 C632 1.381 . S
C630 C633 1.487 . S
C631 C628 1.382 . S
C631 C632 1.387 . S
C631 H654 0.930 . S
C632 C630 1.381 . S
C632 C631 1.387 . S
C632 H655 0.931 . S
C633 C626 1.399 . S
C633 C630 1.487 . S
C633 N665 1.343 . S
C634 C635 1.384 . S
C634 C636 1.384 . S
C634 H656 0.931 . S
C635 C634 1.384 . S
C635 C638 1.382 . S
C636 C634 1.384 . S
C636 C637 1.381 . S
C636 H657 0.930 . S
C637 C636 1.381 . S
C637 C639 1.381 . S
C637 C640 1.487 . S
C638 C635 1.382 . S
C638 C639 1.387 . S
C638 H658 0.930 . S
C639 C637 1.381 . S
C639 C638 1.387 . S
C639 H659 0.931 . S
C640 C637 1.487 . S
C640 C647 1.399 . S
C640 N665 1.343 . S
C641 C642 1.384 . S
C641 C643 1.384 . S
C641 H660 0.931 . S
C642 C641 1.384 . S
C642 C645 1.382 . S
C643 C641 1.384 . S
C643 C644 1.381 . S
C643 H661 0.930 . S
C644 C643 1.381 . S
C644 C646 1.381 . S
C644 C647 1.487 . S
C645 C642 1.382 . S
C645 C646 1.387 . S
C645 H662 0.930 . S
C646 C644 1.381 . S
C646 C645 1.387 . S
C646 H663 0.931 . S
C647 C640 1.399 . S
C647 C644 1.487 . S
C647 N664 1.343 . S
H648 C620 0.931 . S
H649 C622 0.930 . S
H650 C624 0.930 . S
H651 C625 0.931 . S
H652 C627 0.931 . S
H653 C629 0.930 . S
H654 C631 0.930 . S
H655 C632 0.931 . S
H656 C634 0.931 . S
H657 C636 0.930 . S
H658 C638 0.930 . S
H659 C639 0.931 . S
H660 C641 0.931 . S
H661 C643 0.930 . S
H662 C645 0.930 . S
H663 C646 0.931 . S
N664 C626 1.343 . S
N664 C647 1.343 . S
N665 C633 1.343 . S
N665 C640 1.343 . S
C666 C667 1.384 . S
C666 C668 1.384 . S
C666 H694 0.931 . S
C667 C666 1.384 . S
C667 C670 1.382 1_655 S
C668 C666 1.384 . S
C668 C669 1.385 . S
C668 H695 0.930 . S
C669 C668 1.385 . S
C669 C671 1.379 1_655 S
C669 C672 1.477 1_655 S
C670 C667 1.382 1_455 S
C670 C671 1.387 . S
C670 H696 0.930 . S
C671 C669 1.379 1_455 S
C671 C670 1.387 . S
C671 H697 0.931 . S
C672 C669 1.477 1_455 S
C672 C679 1.399 1_455 S
C672 N710 1.352 . S
C673 C674 1.384 . S
C673 C675 1.384 . S
C673 H698 0.931 . S
C674 C673 1.384 . S
C674 C677 1.382 1_455 S
C675 C673 1.384 . S
C675 C676 1.383 . S
C675 H699 0.930 . S
C676 C675 1.383 . S
C676 C678 1.375 1_455 S
C676 C679 1.495 1_455 S
C677 C674 1.382 1_655 S
C677 C678 1.387 . S
C677 H700 0.930 . S
C678 C676 1.375 1_655 S
C678 C677 1.387 . S
C678 H701 0.931 . S
C679 C672 1.399 1_655 S
C679 C676 1.495 1_655 S
C679 N711 1.365 . S
C680 C681 1.384 . S
C680 C682 1.384 . S
C680 H702 0.931 . S
C681 C680 1.384 . S
C681 C684 1.382 1_455 S
C682 C680 1.384 . S
C682 C683 1.398 . S
C682 H703 0.930 . S
C683 C682 1.398 . S
C683 C685 1.372 1_455 S
C683 C686 1.477 1_455 S
C684 C681 1.382 1_655 S
C684 C685 1.387 . S
C684 H704 0.930 . S
C685 C683 1.372 1_655 S
C685 C684 1.387 . S
C685 H705 0.931 . S
C686 C683 1.477 1_655 S
C686 C693 1.399 1_655 S
C686 N711 1.318 . S
C687 C688 1.384 . S
C687 C689 1.384 . S
C687 H706 0.931 . S
C688 C687 1.384 . S
C688 C691 1.382 1_655 S
C689 C687 1.384 . S
C689 C690 1.381 . S
C689 H707 0.930 . S
C690 C689 1.381 . S
C690 C692 1.383 1_655 S
C690 C693 1.495 1_655 S
C691 C688 1.382 1_455 S
C691 C692 1.387 . S
C691 H708 0.930 . S
C692 C690 1.383 1_455 S
C692 C691 1.387 . S
C692 H709 0.931 . S
C693 C686 1.399 1_455 S
C693 C690 1.495 1_455 S
C693 N710 1.334 . S
H694 C666 0.931 . S
H695 C668 0.930 . S
H696 C670 0.930 . S
H697 C671 0.931 . S
H698 C673 0.931 . S
H699 C675 0.930 . S
H700 C677 0.930 . S
H701 C678 0.931 . S
H702 C680 0.931 . S
H703 C682 0.930 . S
H704 C684 0.930 . S
H705 C685 0.931 . S
H706 C687 0.931 . S
H707 C689 0.930 . S
H708 C691 0.930 . S
H709 C692 0.931 . S
N710 C672 1.352 . S
N710 C693 1.334 . S
N711 C679 1.365 . S
N711 C686 1.318 . S
C712 C713 1.384 . S
C712 C714 1.384 . S
C712 H740 0.931 . S
C713 C712 1.384 . S
C713 C716 1.382 . S
C714 C712 1.384 . S
C714 C715 1.381 . S
C714 H741 0.930 . S
C715 C714 1.381 . S
C715 C717 1.381 . S
C715 C718 1.487 . S
C716 C713 1.382 . S
C716 C717 1.387 . S
C716 H742 0.930 . S
C717 C715 1.381 . S
C717 C716 1.387 . S
C717 H743 0.931 . S
C718 C715 1.487 . S
C718 C725 1.399 . S
C718 N756 1.343 . S
C719 C720 1.384 . S
C719 C721 1.384 . S
C719 H744 0.931 . S
C720 C719 1.384 . S
C720 C723 1.382 . S
C721 C719 1.384 . S
C721 C722 1.381 . S
C721 H745 0.930 . S
C722 C721 1.381 . S
C722 C724 1.381 . S
C722 C725 1.487 . S
C723 C720 1.382 . S
C723 C724 1.387 . S
C723 H746 0.930 . S
C724 C722 1.381 . S
C724 C723 1.387 . S
C724 H747 0.931 . S
C725 C718 1.399 . S
C725 C722 1.487 . S
C725 N757 1.343 . S
C726 C727 1.384 . S
C726 C728 1.384 . S
C726 H748 0.931 . S
C727 C726 1.384 . S
C727 C730 1.382 . S
C728 C726 1.384 . S
C728 C729 1.381 . S
C728 H749 0.930 . S
C729 C728 1.381 . S
C729 C731 1.381 . S
C729 C732 1.487 . S
C730 C727 1.382 . S
C730 C731 1.387 . S
C730 H750 0.930 . S
C731 C729 1.381 . S
C731 C730 1.387 . S
C731 H751 0.931 . S
C732 C729 1.487 . S
C732 C739 1.399 . S
C732 N757 1.343 . S
C733 C734 1.384 . S
C733 C735 1.384 . S
C733 H752 0.931 . S
C734 C733 1.384 . S
C734 C737 1.382 . S
C735 C733 1.384 . S
C735 C736 1.381 . S
C735 H753 0.930 . S
C736 C735 1.381 . S
C736 C738 1.381 . S
C736 C739 1.487 . S
C737 C734 1.382 . S
C737 C738 1.387 . S
C737 H754 0.930 . S
C738 C736 1.381 . S
C738 C737 1.387 . S
C738 H755 0.931 . S
C739 C732 1.399 . S
C739 C736 1.487 . S
C739 N756 1.343 . S
H740 C712 0.931 . S
H741 C714 0.930 . S
H742 C716 0.930 . S
H743 C717 0.931 . S
H744 C719 0.931 . S
H745 C721 0.930 . S
H746 C723 0.930 . S
H747 C724 0.931 . S
H748 C726 0.931 . S
H749 C728 0.930 . S
H750 C730 0.930 . S
H751 C731 0.931 . S
H752 C733 0.931 . S
H753 C735 0.930 . S
H754 C737 0.930 . S
H755 C738 0.931 . S
N756 C718 1.343 . S
N756 C739 1.343 . S
N757 C725 1.343 . S
N757 C732 1.343 . S
C758 C759 1.384 1_545 S
C758 C760 1.384 . S
C758 H786 0.931 . S
C759 C758 1.384 1_565 S
C759 C762 1.382 . S
C760 C758 1.384 . S
C760 C761 1.381 1_545 S
C760 H787 0.930 . S
C761 C760 1.381 1_565 S
C761 C763 1.381 . S
C761 C764 1.487 . S
C762 C759 1.382 . S
C762 C763 1.387 . S
C762 H788 0.930 . S
C763 C761 1.381 . S
C763 C762 1.387 . S
C763 H789 0.931 . S
C764 C761 1.487 . S
C764 C771 1.399 1_565 S
C764 N802 1.343 . S
C765 C766 1.384 1_565 S
C765 C767 1.384 . S
C765 H790 0.931 . S
C766 C765 1.384 1_545 S
C766 C769 1.382 . S
C767 C765 1.384 . S
C767 C768 1.381 1_565 S
C767 H791 0.930 . S
C768 C767 1.381 1_545 S
C768 C770 1.381 . S
C768 C771 1.487 . S
C769 C766 1.382 . S
C769 C770 1.387 . S
C769 H792 0.930 . S
C770 C768 1.381 . S
C770 C769 1.387 . S
C770 H793 0.931 . S
C771 C764 1.399 1_545 S
C771 C768 1.487 . S
C771 N803 1.343 . S
C772 C773 1.384 1_565 S
C772 C774 1.384 . S
C772 H794 0.931 . S
C773 C772 1.384 1_545 S
C773 C776 1.382 . S
C774 C772 1.384 . S
C774 C775 1.381 1_565 S
C774 H795 0.930 . S
C775 C774 1.381 1_545 S
C775 C777 1.381 . S
C775 C778 1.487 . S
C776 C773 1.382 . S
C776 C777 1.387 . S
C776 H796 0.930 . S
C777 C775 1.381 . S
C777 C776 1.387 . S
C777 H797 0.931 . S
C778 C775 1.487 . S
C778 C785 1.399 1_545 S
C778 N803 1.343 . S
C779 C780 1.384 1_545 S
C779 C781 1.384 . S
C779 H798 0.931 . S
C780 C779 1.384 1_565 S
C780 C783 1.382 . S
C781 C779 1.384 . S
C781 C782 1.381 1_545 S
C781 H799 0.930 . S
C782 C781 1.381 1_565 S
C782 C784 1.381 . S
C782 C785 1.487 . S
C783 C780 1.382 . S
C783 C784 1.387 . S
C783 H800 0.930 . S
C784 C782 1.381 . S
C784 C783 1.387 . S
C784 H801 0.931 . S
C785 C778 1.399 1_565 S
C785 C782 1.487 . S
C785 N802 1.343 . S
H786 C758 0.931 . S
H787 C760 0.930 . S
H788 C762 0.930 . S
H789 C763 0.931 . S
H790 C765 0.931 . S
H791 C767 0.930 . S
H792 C769 0.930 . S
H793 C770 0.931 . S
H794 C772 0.931 . S
H795 C774 0.930 . S
H796 C776 0.930 . S
H797 C777 0.931 . S
H798 C779 0.931 . S
H799 C781 0.930 . S
H800 C783 0.930 . S
H801 C784 0.931 . S
N802 C764 1.343 . S
N802 C785 1.343 . S
N803 C771 1.343 . S
N803 C778 1.343 . S
C804 C805 1.384 . S
C804 C806 1.384 . S
C804 H832 0.931 . S
C805 C804 1.384 . S
C805 C808 1.382 1_545 S
C806 C804 1.384 . S
C806 C807 1.383 . S
C806 H833 0.930 . S
C807 C806 1.383 . S
C807 C809 1.375 1_545 S
C807 C810 1.495 1_545 S
C808 C805 1.382 1_565 S
C808 C809 1.387 . S
C808 H834 0.930 . S
C809 C807 1.375 1_565 S
C809 C808 1.387 . S
C809 H835 0.931 . S
C810 C807 1.495 1_565 S
C810 C817 1.399 1_565 S
C810 N848 1.365 . S
C811 C812 1.384 . S
C811 C813 1.384 . S
C811 H836 0.931 . S
C812 C811 1.384 . S
C812 C815 1.382 1_565 S
C813 C811 1.384 . S
C813 C814 1.385 . S
C813 H837 0.930 . S
C814 C813 1.385 . S
C814 C816 1.379 1_565 S
C814 C817 1.477 1_565 S
C815 C812 1.382 1_545 S
C815 C816 1.387 . S
C815 H838 0.930 . S
C816 C814 1.379 1_545 S
C816 C815 1.387 . S
C816 H839 0.931 . S
C817 C810 1.399 1_545 S
C817 C814 1.477 1_545 S
C817 N849 1.352 . S
C818 C819 1.384 . S
C818 C820 1.384 . S
C818 H840 0.931 . S
C819 C818 1.384 . S
C819 C822 1.382 1_565 S
C820 C818 1.384 . S
C820 C821 1.381 . S
C820 H841 0.930 . S
C821 C820 1.381 . S
C821 C823 1.383 1_565 S
C821 C824 1.495 1_565 S
C822 C819 1.382 1_545 S
C822 C823 1.387 . S
C822 H842 0.930 . S
C823 C821 1.383 1_545 S
C823 C822 1.387 . S
C823 H843 0.931 . S
C824 C821 1.495 1_545 S
C824 C831 1.399 1_545 S
C824 N849 1.334 . S
C825 C826 1.384 . S
C825 C827 1.384 . S
C825 H844 0.931 . S
C826 C825 1.384 . S
C826 C829 1.382 1_545 S
C827 C825 1.384 . S
C827 C828 1.398 . S
C827 H845 0.930 . S
C828 C827 1.398 . S
C828 C830 1.373 1_545 S
C828 C831 1.477 1_545 S
C829 C826 1.382 1_565 S
C829 C830 1.387 . S
C829 H846 0.930 . S
C830 C828 1.373 1_565 S
C830 C829 1.387 . S
C830 H847 0.931 . S
C831 C824 1.399 1_565 S
C831 C828 1.477 1_565 S
C831 N848 1.318 . S
H832 C804 0.931 . S
H833 C806 0.930 . S
H834 C808 0.930 . S
H835 C809 0.931 . S
H836 C811 0.931 . S
H837 C813 0.930 . S
H838 C815 0.930 . S
H839 C816 0.931 . S
H840 C818 0.931 . S
H841 C820 0.930 . S
H842 C822 0.930 . S
H843 C823 0.931 . S
H844 C825 0.931 . S
H845 C827 0.930 . S
H846 C829 0.930 . S
H847 C830 0.931 . S
N848 C810 1.365 . S
N848 C831 1.318 . S
N849 C817 1.352 . S
N849 C824 1.334 . S
C850 C851 1.384 . S
C850 C852 1.384 . S
C850 H878 0.931 . S
C851 C850 1.384 . S
C851 C854 1.382 1_655 S
C852 C850 1.384 . S
C852 C853 1.402 . S
C852 H879 0.930 . S
C853 C852 1.402 . S
C853 C855 1.371 1_655 S
C853 C856 1.476 1_655 S
C854 C851 1.382 1_455 S
C854 C855 1.387 . S
C854 H880 0.930 . S
C855 C853 1.371 1_455 S
C855 C854 1.387 . S
C855 H881 0.931 . S
C856 C853 1.476 1_455 S
C856 C863 1.399 1_455 S
C856 N894 1.318 . S
C857 C858 1.384 . S
C857 C859 1.384 . S
C857 H882 0.931 . S
C858 C857 1.384 . S
C858 C861 1.382 1_455 S
C859 C857 1.384 . S
C859 C860 1.381 . S
C859 H883 0.930 . S
C860 C859 1.381 . S
C860 C862 1.381 1_455 S
C860 C863 1.495 1_455 S
C861 C858 1.382 1_655 S
C861 C862 1.387 . S
C861 H884 0.930 . S
C862 C860 1.381 1_655 S
C862 C861 1.387 . S
C862 H885 0.931 . S
C863 C856 1.399 1_655 S
C863 C860 1.495 1_655 S
C863 N895 1.335 . S
C864 C865 1.384 . S
C864 C866 1.384 . S
C864 H886 0.931 . S
C865 C864 1.384 . S
C865 C868 1.382 1_455 S
C866 C864 1.384 . S
C866 C867 1.389 . S
C866 H887 0.930 . S
C867 C866 1.389 . S
C867 C869 1.377 1_455 S
C867 C870 1.476 1_455 S
C868 C865 1.382 1_655 S
C868 C869 1.387 . S
C868 H888 0.930 . S
C869 C867 1.377 1_655 S
C869 C868 1.387 . S
C869 H889 0.931 . S
C870 C867 1.476 1_655 S
C870 C877 1.399 1_655 S
C870 N895 1.351 . S
C871 C872 1.384 . S
C871 C873 1.384 . S
C871 H890 0.931 . S
C872 C871 1.384 . S
C872 C875 1.382 1_655 S
C873 C871 1.384 . S
C873 C874 1.384 . S
C873 H891 0.930 . S
C874 C873 1.384 . S
C874 C876 1.373 1_655 S
C874 C877 1.495 1_655 S
C875 C872 1.382 1_455 S
C875 C876 1.387 . S
C875 H892 0.930 . S
C876 C874 1.373 1_455 S
C876 C875 1.387 . S
C876 H893 0.931 . S
C877 C870 1.399 1_455 S
C877 C874 1.495 1_455 S
C877 N894 1.365 . S
H878 C850 0.931 . S
H879 C852 0.930 . S
H880 C854 0.930 . S
H881 C855 0.931 . S
H882 C857 0.931 . S
H883 C859 0.930 . S
H884 C861 0.930 . S
H885 C862 0.931 . S
H886 C864 0.931 . S
H887 C866 0.930 . S
H888 C868 0.930 . S
H889 C869 0.931 . S
H890 C871 0.931 . S
H891 C873 0.930 . S
H892 C875 0.930 . S
H893 C876 0.931 . S
N894 C856 1.318 . S
N894 C877 1.365 . S
N895 C863 1.335 . S
N895 C870 1.351 . S
C896 C897 1.384 . S
C896 C898 1.384 . S
C896 H924 0.931 . S
C897 C896 1.384 . S
C897 C900 1.382 . S
C898 C896 1.384 . S
C898 C899 1.381 . S
C898 H925 0.930 . S
C899 C898 1.381 . S
C899 C901 1.381 . S
C899 C902 1.487 . S
C900 C897 1.382 . S
C900 C901 1.387 . S
C900 H926 0.930 . S
C901 C899 1.381 . S
C901 C900 1.387 . S
C901 H927 0.931 . S
C902 C899 1.487 . S
C902 C909 1.399 . S
C902 N940 1.343 . S
C903 C904 1.384 . S
C903 C905 1.384 . S
C903 H928 0.931 . S
C904 C903 1.384 . S
C904 C907 1.382 . S
C905 C903 1.384 . S
C905 C906 1.381 . S
C905 H929 0.930 . S
C906 C905 1.381 . S
C906 C908 1.381 . S
C906 C909 1.487 . S
C907 C904 1.382 . S
C907 C908 1.387 . S
C907 H930 0.930 . S
C908 C906 1.381 . S
C908 C907 1.387 . S
C908 H931 0.931 . S
C909 C902 1.399 . S
C909 C906 1.487 . S
C909 N941 1.343 . S
C910 C911 1.384 . S
C910 C912 1.384 . S
C910 H932 0.931 . S
C911 C910 1.384 . S
C911 C914 1.382 . S
C912 C910 1.384 . S
C912 C913 1.381 . S
C912 H933 0.930 . S
C913 C912 1.381 . S
C913 C915 1.381 . S
C913 C916 1.487 . S
C914 C911 1.382 . S
C914 C915 1.387 . S
C914 H934 0.930 . S
C915 C913 1.381 . S
C915 C914 1.387 . S
C915 H935 0.931 . S
C916 C913 1.487 . S
C916 C923 1.399 . S
C916 N941 1.343 . S
C917 C918 1.384 . S
C917 C919 1.384 . S
C917 H936 0.931 . S
C918 C917 1.384 . S
C918 C921 1.382 . S
C919 C917 1.384 . S
C919 C920 1.381 . S
C919 H937 0.930 . S
C920 C919 1.381 . S
C920 C922 1.381 . S
C920 C923 1.487 . S
C921 C918 1.382 . S
C921 C922 1.387 . S
C921 H938 0.930 . S
C922 C920 1.381 . S
C922 C921 1.387 . S
C922 H939 0.931 . S
C923 C916 1.399 . S
C923 C920 1.487 . S
C923 N940 1.343 . S
H924 C896 0.931 . S
H925 C898 0.930 . S
H926 C900 0.930 . S
H927 C901 0.931 . S
H928 C903 0.931 . S
H929 C905 0.930 . S
H930 C907 0.930 . S
H931 C908 0.931 . S
H932 C910 0.931 . S
H933 C912 0.930 . S
H934 C914 0.930 . S
H935 C915 0.931 . S
H936 C917 0.931 . S
H937 C919 0.930 . S
H938 C921 0.930 . S
H939 C922 0.931 . S
N940 C902 1.343 . S
N940 C923 1.343 . S
N941 C909 1.343 . S
N941 C916 1.343 . S
C942 C943 1.384 . S
C942 C944 1.384 . S
C942 H970 0.931 . S
C943 C942 1.384 . S
C943 C946 1.382 . S
C944 C942 1.384 . S
C944 C945 1.381 . S
C944 H971 0.930 . S
C945 C944 1.381 . S
C945 C947 1.381 . S
C945 C948 1.487 . S
C946 C943 1.382 . S
C946 C947 1.387 . S
C946 H972 0.930 . S
C947 C945 1.381 . S
C947 C946 1.387 . S
C947 H973 0.931 . S
C948 C945 1.487 . S
C948 C955 1.399 . S
C948 N986 1.343 . S
C949 C950 1.384 . S
C949 C951 1.384 . S
C949 H974 0.931 . S
C950 C949 1.384 . S
C950 C953 1.382 . S
C951 C949 1.384 . S
C951 C952 1.381 . S
C951 H975 0.930 . S
C952 C951 1.381 . S
C952 C954 1.381 . S
C952 C955 1.487 . S
C953 C950 1.382 . S
C953 C954 1.387 . S
C953 H976 0.930 . S
C954 C952 1.381 . S
C954 C953 1.387 . S
C954 H977 0.931 . S
C955 C948 1.399 . S
C955 C952 1.487 . S
C955 N987 1.343 . S
C956 C957 1.384 . S
C956 C958 1.384 . S
C956 H978 0.931 . S
C957 C956 1.384 . S
C957 C960 1.382 . S
C958 C956 1.384 . S
C958 C959 1.381 . S
C958 H979 0.930 . S
C959 C958 1.381 . S
C959 C961 1.381 . S
C959 C962 1.487 . S
C960 C957 1.382 . S
C960 C961 1.387 . S
C960 H980 0.930 . S
C961 C959 1.381 . S
C961 C960 1.387 . S
C961 H981 0.931 . S
C962 C959 1.487 . S
C962 C969 1.399 . S
C962 N987 1.343 . S
C963 C964 1.384 . S
C963 C965 1.384 . S
C963 H982 0.931 . S
C964 C963 1.384 . S
C964 C967 1.382 . S
C965 C963 1.384 . S
C965 C966 1.381 . S
C965 H983 0.930 . S
C966 C965 1.381 . S
C966 C968 1.381 . S
C966 C969 1.487 . S
C967 C964 1.382 . S
C967 C968 1.387 . S
C967 H984 0.930 . S
C968 C966 1.381 . S
C968 C967 1.387 . S
C968 H985 0.931 . S
C969 C962 1.399 . S
C969 C966 1.487 . S
C969 N986 1.343 . S
H970 C942 0.931 . S
H971 C944 0.930 . S
H972 C946 0.930 . S
H973 C947 0.931 . S
H974 C949 0.931 . S
H975 C951 0.930 . S
H976 C953 0.930 . S
H977 C954 0.931 . S
H978 C956 0.931 . S
H979 C958 0.930 . S
H980 C960 0.930 . S
H981 C961 0.931 . S
H982 C963 0.931 . S
H983 C965 0.930 . S
H984 C967 0.930 . S
H985 C968 0.931 . S
N986 C948 1.343 . S
N986 C969 1.343 . S
N987 C955 1.343 . S
N987 C962 1.343 . S
C988 C989 1.384 . S
C988 C990 1.384 . S
C988 H1016 0.931 . S
C989 C988 1.384 . S
C989 C992 1.382 . S
C990 C988 1.384 . S
C990 C991 1.381 . S
C990 H1017 0.930 . S
C991 C990 1.381 . S
C991 C993 1.381 . S
C991 C994 1.487 . S
C992 C989 1.382 . S
C992 C993 1.387 . S
C992 H1018 0.930 . S
C993 C991 1.381 . S
C993 C992 1.387 . S
C993 H1019 0.931 . S
C994 C991 1.487 . S
C994 C1001 1.399 . S
C994 N1032 1.343 . S
C995 C996 1.384 . S
C995 C997 1.384 . S
C995 H1020 0.931 . S
C996 C995 1.384 . S
C996 C999 1.382 . S
C997 C995 1.384 . S
C997 C998 1.381 . S
C997 H1021 0.930 . S
C998 C997 1.381 . S
C998 C1000 1.381 . S
C998 C1001 1.487 . S
C999 C996 1.382 . S
C999 C1000 1.387 . S
C999 H1022 0.930 . S
C1000 C998 1.381 . S
C1000 C999 1.387 . S
C1000 H1023 0.931 . S
C1001 C994 1.399 . S
C1001 C998 1.487 . S
C1001 N1033 1.343 . S
C1002 C1003 1.384 . S
C1002 C1004 1.384 . S
C1002 H1024 0.931 . S
C1003 C1002 1.384 . S
C1003 C1006 1.382 . S
C1004 C1002 1.384 . S
C1004 C1005 1.381 . S
C1004 H1025 0.930 . S
C1005 C1004 1.381 . S
C1005 C1007 1.381 . S
C1005 C1008 1.487 . S
C1006 C1003 1.382 . S
C1006 C1007 1.387 . S
C1006 H1026 0.930 . S
C1007 C1005 1.381 . S
C1007 C1006 1.387 . S
C1007 H1027 0.931 . S
C1008 C1005 1.487 . S
C1008 C1015 1.399 . S
C1008 N1033 1.343 . S
C1009 C1010 1.384 . S
C1009 C1011 1.384 . S
C1009 H1028 0.931 . S
C1010 C1009 1.384 . S
C1010 C1013 1.382 . S
C1011 C1009 1.384 . S
C1011 C1012 1.381 . S
C1011 H1029 0.930 . S
C1012 C1011 1.381 . S
C1012 C1014 1.381 . S
C1012 C1015 1.487 . S
C1013 C1010 1.382 . S
C1013 C1014 1.387 . S
C1013 H1030 0.930 . S
C1014 C1012 1.381 . S
C1014 C1013 1.387 . S
C1014 H1031 0.931 . S
C1015 C1008 1.399 . S
C1015 C1012 1.487 . S
C1015 N1032 1.343 . S
H1016 C988 0.931 . S
H1017 C990 0.930 . S
H1018 C992 0.930 . S
H1019 C993 0.931 . S
H1020 C995 0.931 . S
H1021 C997 0.930 . S
H1022 C999 0.930 . S
H1023 C1000 0.931 . S
H1024 C1002 0.931 . S
H1025 C1004 0.930 . S
H1026 C1006 0.930 . S
H1027 C1007 0.931 . S
H1028 C1009 0.931 . S
H1029 C1011 0.930 . S
H1030 C1013 0.930 . S
H1031 C1014 0.931 . S
N1032 C994 1.343 . S
N1032 C1015 1.343 . S
N1033 C1001 1.343 . S
N1033 C1008 1.343 . S
C1034 C1035 1.384 . S
C1034 C1036 1.384 . S
C1034 H1062 0.931 . S
C1035 C1034 1.384 . S
C1035 C1038 1.382 . S
C1036 C1034 1.384 . S
C1036 C1037 1.381 . S
C1036 H1063 0.930 . S
C1037 C1036 1.381 . S
C1037 C1039 1.381 . S
C1037 C1040 1.487 . S
C1038 C1035 1.382 . S
C1038 C1039 1.387 . S
C1038 H1064 0.930 . S
C1039 C1037 1.381 . S
C1039 C1038 1.387 . S
C1039 H1065 0.931 . S
C1040 C1037 1.487 . S
C1040 C1047 1.399 . S
C1040 N1078 1.343 . S
C1041 C1042 1.384 . S
C1041 C1043 1.384 . S
C1041 H1066 0.931 . S
C1042 C1041 1.384 . S
C1042 C1045 1.382 . S
C1043 C1041 1.384 . S
C1043 C1044 1.381 . S
C1043 H1067 0.930 . S
C1044 C1043 1.381 . S
C1044 C1046 1.381 . S
C1044 C1047 1.487 . S
C1045 C1042 1.382 . S
C1045 C1046 1.387 . S
C1045 H1068 0.930 . S
C1046 C1044 1.381 . S
C1046 C1045 1.387 . S
C1046 H1069 0.931 . S
C1047 C1040 1.399 . S
C1047 C1044 1.487 . S
C1047 N1079 1.343 . S
C1048 C1049 1.384 . S
C1048 C1050 1.384 . S
C1048 H1070 0.931 . S
C1049 C1048 1.384 . S
C1049 C1052 1.382 . S
C1050 C1048 1.384 . S
C1050 C1051 1.381 . S
C1050 H1071 0.930 . S
C1051 C1050 1.381 . S
C1051 C1053 1.381 . S
C1051 C1054 1.487 . S
C1052 C1049 1.382 . S
C1052 C1053 1.387 . S
C1052 H1072 0.930 . S
C1053 C1051 1.381 . S
C1053 C1052 1.387 . S
C1053 H1073 0.931 . S
C1054 C1051 1.487 . S
C1054 C1061 1.399 . S
C1054 N1079 1.343 . S
C1055 C1056 1.384 . S
C1055 C1057 1.384 . S
C1055 H1074 0.931 . S
C1056 C1055 1.384 . S
C1056 C1059 1.382 . S
C1057 C1055 1.384 . S
C1057 C1058 1.381 . S
C1057 H1075 0.930 . S
C1058 C1057 1.381 . S
C1058 C1060 1.381 . S
C1058 C1061 1.487 . S
C1059 C1056 1.382 . S
C1059 C1060 1.387 . S
C1059 H1076 0.930 . S
C1060 C1058 1.381 . S
C1060 C1059 1.387 . S
C1060 H1077 0.931 . S
C1061 C1054 1.399 . S
C1061 C1058 1.487 . S
C1061 N1078 1.343 . S
H1062 C1034 0.931 . S
H1063 C1036 0.930 . S
H1064 C1038 0.930 . S
H1065 C1039 0.931 . S
H1066 C1041 0.931 . S
H1067 C1043 0.930 . S
H1068 C1045 0.930 . S
H1069 C1046 0.931 . S
H1070 C1048 0.931 . S
H1071 C1050 0.930 . S
H1072 C1052 0.930 . S
H1073 C1053 0.931 . S
H1074 C1055 0.931 . S
H1075 C1057 0.930 . S
H1076 C1059 0.930 . S
H1077 C1060 0.931 . S
N1078 C1040 1.343 . S
N1078 C1061 1.343 . S
N1079 C1047 1.343 . S
N1079 C1054 1.343 . S
C1080 C1081 1.369 . S
C1080 C1082 1.419 . S
C1080 H1084 0.930 . S
C1081 C1080 1.369 . S
C1081 C1090 1.429 1_655 S
C1082 C1080 1.419 . S
C1082 C1083 1.363 . S
C1082 H1085 0.929 . S
C1083 C1082 1.363 . S
C1083 C1089 1.428 1_655 S
H1084 C1080 0.930 . S
H1085 C1082 0.929 . S
S1086 N1087 1.613 . S
S1086 N1088 1.610 . S
N1087 S1086 1.613 . S
N1087 C1090 1.350 . S
N1088 S1086 1.610 . S
N1088 C1089 1.351 . S
C1089 C1083 1.428 1_455 S
C1089 N1088 1.351 . S
C1089 C1090 1.434 . S
C1090 C1081 1.429 1_455 S
C1090 N1087 1.350 . S
C1090 C1089 1.434 . S
C1091 C1092 1.369 . S
C1091 C1093 1.419 . S
C1091 H1095 0.930 . S
C1092 C1091 1.369 . S
C1092 C1101 1.429 . S
C1093 C1091 1.419 . S
C1093 C1094 1.363 . S
C1093 H1096 0.929 . S
C1094 C1093 1.363 . S
C1094 C1100 1.428 . S
H1095 C1091 0.930 . S
H1096 C1093 0.929 . S
S1097 N1098 1.613 . S
S1097 N1099 1.610 . S
N1098 S1097 1.613 . S
N1098 C1101 1.350 . S
N1099 S1097 1.610 . S
N1099 C1100 1.351 . S
C1100 C1094 1.428 . S
C1100 N1099 1.351 . S
C1100 C1101 1.434 . S
C1101 C1092 1.429 . S
C1101 N1098 1.350 . S
C1101 C1100 1.434 . S
C1102 C1103 1.369 . S
C1102 C1104 1.419 . S
C1102 H1106 0.930 . S
C1103 C1102 1.369 . S
C1103 C1112 1.429 1_545 S
C1104 C1102 1.419 . S
C1104 C1105 1.363 . S
C1104 H1107 0.929 . S
C1105 C1104 1.363 . S
C1105 C1111 1.428 1_545 S
H1106 C1102 0.930 . S
H1107 C1104 0.929 . S
S1108 N1109 1.613 . S
S1108 N1110 1.610 . S
N1109 S1108 1.613 . S
N1109 C1112 1.350 . S
N1110 S1108 1.610 . S
N1110 C1111 1.351 . S
C1111 C1105 1.428 1_565 S
C1111 N1110 1.351 . S
C1111 C1112 1.434 . S
C1112 C1103 1.429 1_565 S
C1112 N1109 1.350 . S
C1112 C1111 1.434 . S
C1113 C1114 1.369 1_545 S
C1113 C1115 1.419 . S
C1113 H1117 0.930 . S
C1114 C1113 1.369 1_565 S
C1114 C1123 1.429 . S
C1115 C1113 1.419 . S
C1115 C1116 1.363 1_545 S
C1115 H1118 0.929 . S
C1116 C1115 1.363 1_565 S
C1116 C1122 1.428 . S
H1117 C1113 0.930 . S
H1118 C1115 0.929 . S
S1119 N1120 1.613 . S
S1119 N1121 1.610 . S
N1120 S1119 1.613 . S
N1120 C1123 1.350 . S
N1121 S1119 1.610 . S
N1121 C1122 1.351 . S
C1122 C1116 1.428 . S
C1122 N1121 1.351 . S
C1122 C1123 1.434 . S
C1123 C1114 1.429 . S
C1123 N1120 1.350 . S
C1123 C1122 1.434 . S
C1124 C1125 1.369 1_655 S
C1124 C1126 1.419 . S
C1124 H1128 0.930 . S
C1125 C1124 1.369 1_455 S
C1125 C1134 1.429 . S
C1126 C1124 1.419 . S
C1126 C1127 1.363 1_655 S
C1126 H1129 0.929 . S
C1127 C1126 1.363 1_455 S
C1127 C1133 1.428 . S
H1128 C1124 0.930 . S
H1129 C1126 0.929 . S
S1130 N1131 1.613 . S
S1130 N1132 1.610 . S
N1131 S1130 1.613 . S
N1131 C1134 1.350 . S
N1132 S1130 1.610 . S
N1132 C1133 1.351 . S
C1133 C1127 1.428 . S
C1133 N1132 1.351 . S
C1133 C1134 1.434 . S
C1134 C1125 1.429 . S
C1134 N1131 1.350 . S
C1134 C1133 1.434 . S
C1135 C1136 1.369 . S
C1135 C1137 1.419 . S
C1135 H1139 0.930 . S
C1136 C1135 1.369 . S
C1136 C1145 1.429 . S
C1137 C1135 1.419 . S
C1137 C1138 1.363 . S
C1137 H1140 0.929 . S
C1138 C1137 1.363 . S
C1138 C1144 1.428 . S
H1139 C1135 0.930 . S
H1140 C1137 0.929 . S
S1141 N1142 1.613 . S
S1141 N1143 1.610 . S
N1142 S1141 1.613 . S
N1142 C1145 1.350 . S
N1143 S1141 1.610 . S
N1143 C1144 1.351 . S
C1144 C1138 1.428 . S
C1144 N1143 1.351 . S
C1144 C1145 1.434 . S
C1145 C1136 1.429 . S
C1145 N1142 1.350 . S
C1145 C1144 1.434 . S
C1146 C1147 1.369 1_655 S
C1146 C1148 1.419 . S
C1146 H1150 0.930 . S
C1147 C1146 1.369 1_455 S
C1147 C1156 1.429 . S
C1148 C1146 1.419 . S
C1148 C1149 1.363 1_655 S
C1148 H1151 0.929 . S
C1149 C1148 1.363 1_455 S
C1149 C1155 1.428 . S
H1150 C1146 0.930 . S
H1151 C1148 0.929 . S
S1152 N1153 1.613 . S
S1152 N1154 1.610 . S
N1153 S1152 1.613 . S
N1153 C1156 1.350 . S
N1154 S1152 1.610 . S
N1154 C1155 1.351 . S
C1155 C1149 1.428 . S
C1155 N1154 1.351 . S
C1155 C1156 1.434 . S
C1156 C1147 1.429 . S
C1156 N1153 1.350 . S
C1156 C1155 1.434 . S
C1157 C1158 1.369 . S
C1157 C1159 1.419 . S
C1157 H1161 0.930 . S
C1158 C1157 1.369 . S
C1158 C1167 1.429 . S
C1159 C1157 1.419 . S
C1159 C1160 1.363 . S
C1159 H1162 0.929 . S
C1160 C1159 1.363 . S
C1160 C1166 1.428 . S
H1161 C1157 0.930 . S
H1162 C1159 0.929 . S
S1163 N1164 1.613 . S
S1163 N1165 1.610 . S
N1164 S1163 1.613 . S
N1164 C1167 1.350 . S
N1165 S1163 1.610 . S
N1165 C1166 1.351 . S
C1166 C1160 1.428 . S
C1166 N1165 1.351 . S
C1166 C1167 1.434 . S
C1167 C1158 1.429 . S
C1167 N1164 1.350 . S
C1167 C1166 1.434 . S
C1168 C1169 1.369 1_545 S
C1168 C1170 1.419 . S
C1168 H1172 0.930 . S
C1169 C1168 1.369 1_565 S
C1169 C1178 1.429 . S
C1170 C1168 1.419 . S
C1170 C1171 1.363 1_545 S
C1170 H1173 0.929 . S
C1171 C1170 1.363 1_565 S
C1171 C1177 1.428 . S
H1172 C1168 0.930 . S
H1173 C1170 0.929 . S
S1174 N1175 1.613 . S
S1174 N1176 1.610 . S
N1175 S1174 1.613 . S
N1175 C1178 1.350 . S
N1176 S1174 1.610 . S
N1176 C1177 1.351 . S
C1177 C1171 1.428 . S
C1177 N1176 1.351 . S
C1177 C1178 1.434 . S
C1178 C1169 1.429 . S
C1178 N1175 1.350 . S
C1178 C1177 1.434 . S
C1179 C1180 1.369 . S
C1179 C1181 1.419 . S
C1179 H1183 0.930 . S
C1180 C1179 1.369 . S
C1180 C1189 1.429 1_545 S
C1181 C1179 1.419 . S
C1181 C1182 1.363 . S
C1181 H1184 0.929 . S
C1182 C1181 1.363 . S
C1182 C1188 1.428 1_545 S
H1183 C1179 0.930 . S
H1184 C1181 0.929 . S
S1185 N1186 1.613 . S
S1185 N1187 1.610 . S
N1186 S1185 1.613 . S
N1186 C1189 1.350 . S
N1187 S1185 1.610 . S
N1187 C1188 1.351 . S
C1188 C1182 1.428 1_565 S
C1188 N1187 1.351 . S
C1188 C1189 1.434 . S
C1189 C1180 1.429 1_565 S
C1189 N1186 1.350 . S
C1189 C1188 1.434 . S
C1190 C1191 1.369 1_455 S
C1190 C1192 1.419 . S
C1190 H1194 0.930 . S
C1191 C1190 1.369 1_655 S
C1191 C1200 1.429 . S
C1192 C1190 1.419 . S
C1192 C1193 1.363 1_455 S
C1192 H1195 0.929 . S
C1193 C1192 1.363 1_655 S
C1193 C1199 1.428 . S
H1194 C1190 0.930 . S
H1195 C1192 0.929 . S
S1196 N1197 1.613 . S
S1196 N1198 1.610 . S
N1197 S1196 1.613 . S
N1197 C1200 1.350 . S
N1198 S1196 1.610 . S
N1198 C1199 1.351 . S
C1199 C1193 1.428 . S
C1199 N1198 1.351 . S
C1199 C1200 1.434 . S
C1200 C1191 1.429 . S
C1200 N1197 1.350 . S
C1200 C1199 1.434 . S
C1201 C1202 1.369 . S
C1201 C1203 1.419 . S
C1201 H1205 0.930 . S
C1202 C1201 1.369 . S
C1202 C1211 1.429 . S
C1203 C1201 1.419 . S
C1203 C1204 1.363 . S
C1203 H1206 0.929 . S
C1204 C1203 1.363 . S
C1204 C1210 1.428 . S
H1205 C1201 0.930 . S
H1206 C1203 0.929 . S
S1207 N1208 1.613 . S
S1207 N1209 1.610 . S
N1208 S1207 1.613 . S
N1208 C1211 1.350 . S
N1209 S1207 1.610 . S
N1209 C1210 1.351 . S
C1210 C1204 1.428 . S
C1210 N1209 1.351 . S
C1210 C1211 1.434 . S
C1211 C1202 1.429 . S
C1211 N1208 1.350 . S
C1211 C1210 1.434 . S
C1212 C1213 1.369 . S
C1212 C1214 1.419 . S
C1212 H1216 0.930 . S
C1213 C1212 1.369 . S
C1213 C1222 1.429 . S
C1214 C1212 1.419 . S
C1214 C1215 1.363 . S
C1214 H1217 0.929 . S
C1215 C1214 1.363 . S
C1215 C1221 1.428 . S
H1216 C1212 0.930 . S
H1217 C1214 0.929 . S
S1218 N1219 1.613 . S
S1218 N1220 1.610 . S
N1219 S1218 1.613 . S
N1219 C1222 1.350 . S
N1220 S1218 1.610 . S
N1220 C1221 1.351 . S
C1221 C1215 1.428 . S
C1221 N1220 1.351 . S
C1221 C1222 1.434 . S
C1222 C1213 1.429 . S
C1222 N1219 1.350 . S
C1222 C1221 1.434 . S
C1223 C1224 1.369 . S
C1223 C1225 1.419 . S
C1223 H1227 0.930 . S
C1224 C1223 1.369 . S
C1224 C1233 1.429 . S
C1225 C1223 1.419 . S
C1225 C1226 1.363 . S
C1225 H1228 0.929 . S
C1226 C1225 1.363 . S
C1226 C1232 1.428 . S
H1227 C1223 0.930 . S
H1228 C1225 0.929 . S
S1229 N1230 1.613 . S
S1229 N1231 1.610 . S
N1230 S1229 1.613 . S
N1230 C1233 1.350 . S
N1231 S1229 1.610 . S
N1231 C1232 1.351 . S
C1232 C1226 1.428 . S
C1232 N1231 1.351 . S
C1232 C1233 1.434 . S
C1233 C1224 1.429 . S
C1233 N1230 1.350 . S
C1233 C1232 1.434 . S
C1234 C1235 1.369 . S
C1234 C1236 1.419 . S
C1234 H1238 0.930 . S
C1235 C1234 1.369 . S
C1235 C1244 1.429 . S
C1236 C1234 1.419 . S
C1236 C1237 1.363 . S
C1236 H1239 0.929 . S
C1237 C1236 1.363 . S
C1237 C1243 1.428 . S
H1238 C1234 0.930 . S
H1239 C1236 0.929 . S
S1240 N1241 1.613 . S
S1240 N1242 1.610 . S
N1241 S1240 1.613 . S
N1241 C1244 1.350 . S
N1242 S1240 1.610 . S
N1242 C1243 1.351 . S
C1243 C1237 1.428 . S
C1243 N1242 1.351 . S
C1243 C1244 1.434 . S
C1244 C1235 1.429 . S
C1244 N1241 1.350 . S
C1244 C1243 1.434 . S
C1245 C1246 1.369 . S
C1245 C1247 1.419 . S
C1245 H1249 0.930 . S
C1246 C1245 1.369 . S
C1246 C1255 1.429 . S
C1247 C1245 1.419 . S
C1247 C1248 1.363 . S
C1247 H1250 0.929 . S
C1248 C1247 1.363 . S
C1248 C1254 1.428 . S
H1249 C1245 0.930 . S
H1250 C1247 0.929 . S
S1251 N1252 1.613 . S
S1251 N1253 1.610 . S
N1252 S1251 1.613 . S
N1252 C1255 1.350 . S
N1253 S1251 1.610 . S
N1253 C1254 1.351 . S
C1254 C1248 1.428 . S
C1254 N1253 1.351 . S
C1254 C1255 1.434 . S
C1255 C1246 1.429 . S
C1255 N1252 1.350 . S
C1255 C1254 1.434 . S
C1256 C1257 1.369 . S
C1256 C1258 1.419 . S
C1256 H1260 0.930 . S
C1257 C1256 1.369 . S
C1257 C1266 1.429 . S
C1258 C1256 1.419 . S
C1258 C1259 1.363 . S
C1258 H1261 0.929 . S
C1259 C1258 1.363 . S
C1259 C1265 1.428 . S
H1260 C1256 0.930 . S
H1261 C1258 0.929 . S
S1262 N1263 1.613 . S
S1262 N1264 1.610 . S
N1263 S1262 1.613 . S
N1263 C1266 1.350 . S
N1264 S1262 1.610 . S
N1264 C1265 1.351 . S
C1265 C1259 1.428 . S
C1265 N1264 1.351 . S
C1265 C1266 1.434 . S
C1266 C1257 1.429 . S
C1266 N1263 1.350 . S
C1266 C1265 1.434 . S
C1267 C1268 1.369 . S
C1267 C1269 1.419 . S
C1267 H1271 0.930 . S
C1268 C1267 1.369 . S
C1268 C1277 1.429 . S
C1269 C1267 1.419 . S
C1269 C1270 1.363 . S
C1269 H1272 0.929 . S
C1270 C1269 1.363 . S
C1270 C1276 1.428 . S
H1271 C1267 0.930 . S
H1272 C1269 0.929 . S
S1273 N1274 1.613 . S
S1273 N1275 1.610 . S
N1274 S1273 1.613 . S
N1274 C1277 1.350 . S
N1275 S1273 1.610 . S
N1275 C1276 1.351 . S
C1276 C1270 1.428 . S
C1276 N1275 1.351 . S
C1276 C1277 1.434 . S
C1277 C1268 1.429 . S
C1277 N1274 1.350 . S
C1277 C1276 1.434 . S
C1278 C1279 1.369 . S
C1278 C1280 1.419 . S
C1278 H1282 0.930 . S
C1279 C1278 1.369 . S
C1279 C1288 1.429 . S
C1280 C1278 1.419 . S
C1280 C1281 1.363 . S
C1280 H1283 0.929 . S
C1281 C1280 1.363 . S
C1281 C1287 1.428 . S
H1282 C1278 0.930 . S
H1283 C1280 0.929 . S
S1284 N1285 1.613 . S
S1284 N1286 1.610 . S
N1285 S1284 1.613 . S
N1285 C1288 1.350 . S
N1286 S1284 1.610 . S
N1286 C1287 1.351 . S
C1287 C1281 1.428 . S
C1287 N1286 1.351 . S
C1287 C1288 1.434 . S
C1288 C1279 1.429 . S
C1288 N1285 1.350 . S
C1288 C1287 1.434 . S
C1289 C1290 1.369 . S
C1289 C1291 1.419 . S
C1289 H1293 0.930 . S
C1290 C1289 1.369 . S
C1290 C1299 1.429 . S
C1291 C1289 1.419 . S
C1291 C1292 1.363 . S
C1291 H1294 0.929 . S
C1292 C1291 1.363 . S
C1292 C1298 1.428 . S
H1293 C1289 0.930 . S
H1294 C1291 0.929 . S
S1295 N1296 1.613 . S
S1295 N1297 1.610 . S
N1296 S1295 1.613 . S
N1296 C1299 1.350 . S
N1297 S1295 1.610 . S
N1297 C1298 1.351 . S
C1298 C1292 1.428 . S
C1298 N1297 1.351 . S
C1298 C1299 1.434 . S
C1299 C1290 1.429 . S
C1299 N1296 1.350 . S
C1299 C1298 1.434 . S
C1300 C1301 1.369 . S
C1300 C1302 1.419 . S
C1300 H1304 0.930 . S
C1301 C1300 1.369 . S
C1301 C1310 1.429 . S
C1302 C1300 1.419 . S
C1302 C1303 1.363 . S
C1302 H1305 0.929 . S
C1303 C1302 1.363 . S
C1303 C1309 1.428 . S
H1304 C1300 0.930 . S
H1305 C1302 0.929 . S
S1306 N1307 1.613 . S
S1306 N1308 1.610 . S
N1307 S1306 1.613 . S
N1307 C1310 1.350 . S
N1308 S1306 1.610 . S
N1308 C1309 1.351 . S
C1309 C1303 1.428 . S
C1309 N1308 1.351 . S
C1309 C1310 1.434 . S
C1310 C1301 1.429 . S
C1310 N1307 1.350 . S
C1310 C1309 1.434 . S
C1311 C1312 1.369 . S
C1311 C1313 1.419 . S
C1311 H1315 0.930 . S
C1312 C1311 1.369 . S
C1312 C1321 1.429 . S
C1313 C1311 1.419 . S
C1313 C1314 1.363 . S
C1313 H1316 0.929 . S
C1314 C1313 1.363 . S
C1314 C1320 1.428 . S
H1315 C1311 0.930 . S
H1316 C1313 0.929 . S
S1317 N1318 1.613 . S
S1317 N1319 1.610 . S
N1318 S1317 1.613 . S
N1318 C1321 1.350 . S
N1319 S1317 1.610 . S
N1319 C1320 1.351 . S
C1320 C1314 1.428 . S
C1320 N1319 1.351 . S
C1320 C1321 1.434 . S
C1321 C1312 1.429 . S
C1321 N1318 1.350 . S
C1321 C1320 1.434 . S
C1322 C1323 1.369 . S
C1322 C1324 1.419 . S
C1322 H1326 0.930 . S
C1323 C1322 1.369 . S
C1323 C1332 1.429 . S
C1324 C1322 1.419 . S
C1324 C1325 1.363 . S
C1324 H1327 0.929 . S
C1325 C1324 1.363 . S
C1325 C1331 1.428 . S
H1326 C1322 0.930 . S
H1327 C1324 0.929 . S
S1328 N1329 1.613 . S
S1328 N1330 1.610 . S
N1329 S1328 1.613 . S
N1329 C1332 1.350 . S
N1330 S1328 1.610 . S
N1330 C1331 1.351 . S
C1331 C1325 1.428 . S
C1331 N1330 1.351 . S
C1331 C1332 1.434 . S
C1332 C1323 1.429 . S
C1332 N1329 1.350 . S
C1332 C1331 1.434 . S
C1333 C1334 1.369 . S
C1333 C1335 1.419 . S
C1333 H1337 0.930 . S
C1334 C1333 1.369 . S
C1334 C1343 1.429 . S
C1335 C1333 1.419 . S
C1335 C1336 1.363 . S
C1335 H1338 0.929 . S
C1336 C1335 1.363 . S
C1336 C1342 1.428 . S
H1337 C1333 0.930 . S
H1338 C1335 0.929 . S
S1339 N1340 1.613 . S
S1339 N1341 1.610 . S
N1340 S1339 1.613 . S
N1340 C1343 1.350 . S
N1341 S1339 1.610 . S
N1341 C1342 1.351 . S
C1342 C1336 1.428 . S
C1342 N1341 1.351 . S
C1342 C1343 1.434 . S
C1343 C1334 1.429 . S
C1343 N1340 1.350 . S
C1343 C1342 1.434 . S
C1344 C1345 1.369 . S
C1344 C1346 1.419 . S
C1344 H1348 0.930 . S
C1345 C1344 1.369 . S
C1345 C1354 1.429 . S
C1346 C1344 1.419 . S
C1346 C1347 1.363 . S
C1346 H1349 0.929 . S
C1347 C1346 1.363 . S
C1347 C1353 1.428 . S
H1348 C1344 0.930 . S
H1349 C1346 0.929 . S
S1350 N1351 1.613 . S
S1350 N1352 1.610 . S
N1351 S1350 1.613 . S
N1351 C1354 1.350 . S
N1352 S1350 1.610 . S
N1352 C1353 1.351 . S
C1353 C1347 1.428 . S
C1353 N1352 1.351 . S
C1353 C1354 1.434 . S
C1354 C1345 1.429 . S
C1354 N1351 1.350 . S
C1354 C1353 1.434 . S
C1355 C1356 1.369 . S
C1355 C1357 1.419 . S
C1355 H1359 0.930 . S
C1356 C1355 1.369 . S
C1356 C1365 1.429 . S
C1357 C1355 1.419 . S
C1357 C1358 1.363 . S
C1357 H1360 0.929 . S
C1358 C1357 1.363 . S
C1358 C1364 1.428 . S
H1359 C1355 0.930 . S
H1360 C1357 0.929 . S
S1361 N1362 1.613 . S
S1361 N1363 1.610 . S
N1362 S1361 1.613 . S
N1362 C1365 1.350 . S
N1363 S1361 1.610 . S
N1363 C1364 1.351 . S
C1364 C1358 1.428 . S
C1364 N1363 1.351 . S
C1364 C1365 1.434 . S
C1365 C1356 1.429 . S
C1365 N1362 1.350 . S
C1365 C1364 1.434 . S
C1366 C1367 1.369 . S
C1366 C1368 1.419 . S
C1366 H1370 0.930 . S
C1367 C1366 1.369 . S
C1367 C1376 1.429 . S
C1368 C1366 1.419 . S
C1368 C1369 1.363 . S
C1368 H1371 0.929 . S
C1369 C1368 1.363 . S
C1369 C1375 1.428 . S
H1370 C1366 0.930 . S
H1371 C1368 0.929 . S
S1372 N1373 1.613 . S
S1372 N1374 1.610 . S
N1373 S1372 1.613 . S
N1373 C1376 1.350 . S
N1374 S1372 1.610 . S
N1374 C1375 1.351 . S
C1375 C1369 1.428 . S
C1375 N1374 1.351 . S
C1375 C1376 1.434 . S
C1376 C1367 1.429 . S
C1376 N1373 1.350 . S
C1376 C1375 1.434 . S
C1377 C1378 1.369 . S
C1377 C1379 1.419 . S
C1377 H1381 0.930 . S
C1378 C1377 1.369 . S
C1378 C1387 1.429 . S
C1379 C1377 1.419 . S
C1379 C1380 1.363 . S
C1379 H1382 0.929 . S
C1380 C1379 1.363 . S
C1380 C1386 1.428 . S
H1381 C1377 0.930 . S
H1382 C1379 0.929 . S
S1383 N1384 1.613 . S
S1383 N1385 1.610 . S
N1384 S1383 1.613 . S
N1384 C1387 1.350 . S
N1385 S1383 1.610 . S
N1385 C1386 1.351 . S
C1386 C1380 1.428 . S
C1386 N1385 1.351 . S
C1386 C1387 1.434 . S
C1387 C1378 1.429 . S
C1387 N1384 1.350 . S
C1387 C1386 1.434 . S
C1388 C1389 1.369 . S
C1388 C1390 1.419 . S
C1388 H1392 0.930 . S
C1389 C1388 1.369 . S
C1389 C1398 1.429 . S
C1390 C1388 1.419 . S
C1390 C1391 1.363 . S
C1390 H1393 0.929 . S
C1391 C1390 1.363 . S
C1391 C1397 1.428 . S
H1392 C1388 0.930 . S
H1393 C1390 0.929 . S
S1394 N1395 1.613 . S
S1394 N1396 1.610 . S
N1395 S1394 1.613 . S
N1395 C1398 1.350 . S
N1396 S1394 1.610 . S
N1396 C1397 1.351 . S
C1397 C1391 1.428 . S
C1397 N1396 1.351 . S
C1397 C1398 1.434 . S
C1398 C1389 1.429 . S
C1398 N1395 1.350 . S
C1398 C1397 1.434 . S
C1399 C1400 1.369 . S
C1399 C1401 1.419 . S
C1399 H1403 0.930 . S
C1400 C1399 1.369 . S
C1400 C1409 1.429 . S
C1401 C1399 1.419 . S
C1401 C1402 1.363 . S
C1401 H1404 0.929 . S
C1402 C1401 1.363 . S
C1402 C1408 1.428 . S
H1403 C1399 0.930 . S
H1404 C1401 0.929 . S
S1405 N1406 1.613 . S
S1405 N1407 1.610 . S
N1406 S1405 1.613 . S
N1406 C1409 1.350 . S
N1407 S1405 1.610 . S
N1407 C1408 1.351 . S
C1408 C1402 1.428 . S
C1408 N1407 1.351 . S
C1408 C1409 1.434 . S
C1409 C1400 1.429 . S
C1409 N1406 1.350 . S
C1409 C1408 1.434 . S
C1410 C1411 1.369 . S
C1410 C1412 1.419 . S
C1410 H1414 0.930 . S
C1411 C1410 1.369 . S
C1411 C1420 1.429 . S
C1412 C1410 1.419 . S
C1412 C1413 1.363 . S
C1412 H1415 0.929 . S
C1413 C1412 1.363 . S
C1413 C1419 1.428 . S
H1414 C1410 0.930 . S
H1415 C1412 0.929 . S
S1416 N1417 1.613 . S
S1416 N1418 1.610 . S
N1417 S1416 1.613 . S
N1417 C1420 1.350 . S
N1418 S1416 1.610 . S
N1418 C1419 1.351 . S
C1419 C1413 1.428 . S
C1419 N1418 1.351 . S
C1419 C1420 1.434 . S
C1420 C1411 1.429 . S
C1420 N1417 1.350 . S
C1420 C1419 1.434 . S
C1421 C1422 1.369 . S
C1421 C1423 1.419 . S
C1421 H1425 0.930 . S
C1422 C1421 1.369 . S
C1422 C1431 1.429 . S
C1423 C1421 1.419 . S
C1423 C1424 1.363 . S
C1423 H1426 0.929 . S
C1424 C1423 1.363 . S
C1424 C1430 1.428 . S
H1425 C1421 0.930 . S
H1426 C1423 0.929 . S
S1427 N1428 1.613 . S
S1427 N1429 1.610 . S
N1428 S1427 1.613 . S
N1428 C1431 1.350 . S
N1429 S1427 1.610 . S
N1429 C1430 1.351 . S
C1430 C1424 1.428 . S
C1430 N1429 1.351 . S
C1430 C1431 1.434 . S
C1431 C1422 1.429 . S
C1431 N1428 1.350 . S
C1431 C1430 1.434 . S
C1432 C1433 1.369 . S
C1432 C1434 1.419 . S
C1432 H1436 0.930 . S
C1433 C1432 1.369 . S
C1433 C1442 1.429 . S
C1434 C1432 1.419 . S
C1434 C1435 1.363 . S
C1434 H1437 0.929 . S
C1435 C1434 1.363 . S
C1435 C1441 1.428 . S
H1436 C1432 0.930 . S
H1437 C1434 0.929 . S
S1438 N1439 1.613 . S
S1438 N1440 1.610 . S
N1439 S1438 1.613 . S
N1439 C1442 1.350 . S
N1440 S1438 1.610 . S
N1440 C1441 1.351 . S
C1441 C1435 1.428 . S
C1441 N1440 1.351 . S
C1441 C1442 1.434 . S
C1442 C1433 1.429 . S
C1442 N1439 1.350 . S
C1442 C1441 1.434 . S
C1443 C1444 1.369 . S
C1443 C1445 1.419 . S
C1443 H1447 0.930 . S
C1444 C1443 1.369 . S
C1444 C1453 1.429 . S
C1445 C1443 1.419 . S
C1445 C1446 1.363 . S
C1445 H1448 0.929 . S
C1446 C1445 1.363 . S
C1446 C1452 1.428 . S
H1447 C1443 0.930 . S
H1448 C1445 0.929 . S
S1449 N1450 1.613 . S
S1449 N1451 1.610 . S
N1450 S1449 1.613 . S
N1450 C1453 1.350 . S
N1451 S1449 1.610 . S
N1451 C1452 1.351 . S
C1452 C1446 1.428 . S
C1452 N1451 1.351 . S
C1452 C1453 1.434 . S
C1453 C1444 1.429 . S
C1453 N1450 1.350 . S
C1453 C1452 1.434 . S
C1454 C1455 1.369 . S
C1454 C1456 1.419 . S
C1454 H1458 0.930 . S
C1455 C1454 1.369 . S
C1455 C1464 1.429 . S
C1456 C1454 1.419 . S
C1456 C1457 1.363 . S
C1456 H1459 0.929 . S
C1457 C1456 1.363 . S
C1457 C1463 1.428 . S
H1458 C1454 0.930 . S
H1459 C1456 0.929 . S
S1460 N1461 1.613 . S
S1460 N1462 1.610 . S
N1461 S1460 1.613 . S
N1461 C1464 1.350 . S
N1462 S1460 1.610 . S
N1462 C1463 1.351 . S
C1463 C1457 1.428 . S
C1463 N1462 1.351 . S
C1463 C1464 1.434 . S
C1464 C1455 1.429 . S
C1464 N1461 1.350 . S
C1464 C1463 1.434 . S
C1465 C1466 1.369 . S
C1465 C1467 1.419 . S
C1465 H1469 0.930 . S
C1466 C1465 1.369 . S
C1466 C1475 1.429 . S
C1467 C1465 1.419 . S
C1467 C1468 1.363 . S
C1467 H1470 0.929 . S
C1468 C1467 1.363 . S
C1468 C1474 1.428 . S
H1469 C1465 0.930 . S
H1470 C1467 0.929 . S
S1471 N1472 1.613 . S
S1471 N1473 1.610 . S
N1472 S1471 1.613 . S
N1472 C1475 1.350 . S
N1473 S1471 1.610 . S
N1473 C1474 1.351 . S
C1474 C1468 1.428 . S
C1474 N1473 1.351 . S
C1474 C1475 1.434 . S
C1475 C1466 1.429 . S
C1475 N1472 1.350 . S
C1475 C1474 1.434 . S
C1476 C1477 1.369 . S
C1476 C1478 1.419 . S
C1476 H1480 0.930 . S
C1477 C1476 1.369 . S
C1477 C1486 1.429 . S
C1478 C1476 1.419 . S
C1478 C1479 1.363 . S
C1478 H1481 0.929 . S
C1479 C1478 1.363 . S
C1479 C1485 1.428 . S
H1480 C1476 0.930 . S
H1481 C1478 0.929 . S
S1482 N1483 1.613 . S
S1482 N1484 1.610 . S
N1483 S1482 1.613 . S
N1483 C1486 1.350 . S
N1484 S1482 1.610 . S
N1484 C1485 1.351 . S
C1485 C1479 1.428 . S
C1485 N1484 1.351 . S
C1485 C1486 1.434 . S
C1486 C1477 1.429 . S
C1486 N1483 1.350 . S
C1486 C1485 1.434 . S
C1487 C1488 1.369 . S
C1487 C1489 1.419 . S
C1487 H1491 0.930 . S
C1488 C1487 1.369 . S
C1488 C1497 1.429 . S
C1489 C1487 1.419 . S
C1489 C1490 1.363 . S
C1489 H1492 0.929 . S
C1490 C1489 1.363 . S
C1490 C1496 1.428 . S
H1491 C1487 0.930 . S
H1492 C1489 0.929 . S
S1493 N1494 1.613 . S
S1493 N1495 1.610 . S
N1494 S1493 1.613 . S
N1494 C1497 1.350 . S
N1495 S1493 1.610 . S
N1495 C1496 1.351 . S
C1496 C1490 1.428 . S
C1496 N1495 1.351 . S
C1496 C1497 1.434 . S
C1497 C1488 1.429 . S
C1497 N1494 1.350 . S
C1497 C1496 1.434 . S
C1498 C1499 1.369 . S
C1498 C1500 1.419 . S
C1498 H1502 0.930 . S
C1499 C1498 1.369 . S
C1499 C1508 1.429 . S
C1500 C1498 1.419 . S
C1500 C1501 1.363 . S
C1500 H1503 0.929 . S
C1501 C1500 1.363 . S
C1501 C1507 1.428 . S
H1502 C1498 0.930 . S
H1503 C1500 0.929 . S
S1504 N1505 1.613 . S
S1504 N1506 1.610 . S
N1505 S1504 1.613 . S
N1505 C1508 1.350 . S
N1506 S1504 1.610 . S
N1506 C1507 1.351 . S
C1507 C1501 1.428 . S
C1507 N1506 1.351 . S
C1507 C1508 1.434 . S
C1508 C1499 1.429 . S
C1508 N1505 1.350 . S
C1508 C1507 1.434 . S
C1509 C1510 1.369 . S
C1509 C1511 1.419 . S
C1509 H1513 0.930 . S
C1510 C1509 1.369 . S
C1510 C1519 1.429 . S
C1511 C1509 1.419 . S
C1511 C1512 1.363 . S
C1511 H1514 0.929 . S
C1512 C1511 1.363 . S
C1512 C1518 1.428 . S
H1513 C1509 0.930 . S
H1514 C1511 0.929 . S
S1515 N1516 1.613 . S
S1515 N1517 1.610 . S
N1516 S1515 1.613 . S
N1516 C1519 1.350 . S
N1517 S1515 1.610 . S
N1517 C1518 1.351 . S
C1518 C1512 1.428 . S
C1518 N1517 1.351 . S
C1518 C1519 1.434 . S
C1519 C1510 1.429 . S
C1519 N1516 1.350 . S
C1519 C1518 1.434 . S
C1520 C1521 1.369 . S
C1520 C1522 1.419 . S
C1520 H1524 0.930 . S
C1521 C1520 1.369 . S
C1521 C1530 1.429 . S
C1522 C1520 1.419 . S
C1522 C1523 1.363 . S
C1522 H1525 0.929 . S
C1523 C1522 1.363 . S
C1523 C1529 1.428 . S
H1524 C1520 0.930 . S
H1525 C1522 0.929 . S
S1526 N1527 1.613 . S
S1526 N1528 1.610 . S
N1527 S1526 1.613 . S
N1527 C1530 1.350 . S
N1528 S1526 1.610 . S
N1528 C1529 1.351 . S
C1529 C1523 1.428 . S
C1529 N1528 1.351 . S
C1529 C1530 1.434 . S
C1530 C1521 1.429 . S
C1530 N1527 1.350 . S
C1530 C1529 1.434 . S
C1531 C1532 1.369 . S
C1531 C1533 1.419 . S
C1531 H1535 0.930 . S
C1532 C1531 1.369 . S
C1532 C1541 1.429 . S
C1533 C1531 1.419 . S
C1533 C1534 1.363 . S
C1533 H1536 0.929 . S
C1534 C1533 1.363 . S
C1534 C1540 1.428 . S
H1535 C1531 0.930 . S
H1536 C1533 0.929 . S
S1537 N1538 1.613 . S
S1537 N1539 1.610 . S
N1538 S1537 1.613 . S
N1538 C1541 1.350 . S
N1539 S1537 1.610 . S
N1539 C1540 1.351 . S
C1540 C1534 1.428 . S
C1540 N1539 1.351 . S
C1540 C1541 1.434 . S
C1541 C1532 1.429 . S
C1541 N1538 1.350 . S
C1541 C1540 1.434 . S
C1542 C1543 1.369 . S
C1542 C1544 1.419 . S
C1542 H1546 0.930 . S
C1543 C1542 1.369 . S
C1543 C1552 1.429 . S
C1544 C1542 1.419 . S
C1544 C1545 1.363 . S
C1544 H1547 0.929 . S
C1545 C1544 1.363 . S
C1545 C1551 1.428 . S
H1546 C1542 0.930 . S
H1547 C1544 0.929 . S
S1548 N1549 1.613 . S
S1548 N1550 1.610 . S
N1549 S1548 1.613 . S
N1549 C1552 1.350 . S
N1550 S1548 1.610 . S
N1550 C1551 1.351 . S
C1551 C1545 1.428 . S
C1551 N1550 1.351 . S
C1551 C1552 1.434 . S
C1552 C1543 1.429 . S
C1552 N1549 1.350 . S
C1552 C1551 1.434 . S
C1553 C1554 1.369 . S
C1553 C1555 1.419 . S
C1553 H1557 0.930 . S
C1554 C1553 1.369 . S
C1554 C1563 1.429 . S
C1555 C1553 1.419 . S
C1555 C1556 1.363 . S
C1555 H1558 0.929 . S
C1556 C1555 1.363 . S
C1556 C1562 1.428 . S
H1557 C1553 0.930 . S
H1558 C1555 0.929 . S
S1559 N1560 1.613 . S
S1559 N1561 1.610 . S
N1560 S1559 1.613 . S
N1560 C1563 1.350 . S
N1561 S1559 1.610 . S
N1561 C1562 1.351 . S
C1562 C1556 1.428 . S
C1562 N1561 1.351 . S
C1562 C1563 1.434 . S
C1563 C1554 1.429 . S
C1563 N1560 1.350 . S
C1563 C1562 1.434 . S
C1564 C1565 1.369 . S
C1564 C1566 1.419 . S
C1564 H1568 0.930 . S
C1565 C1564 1.369 . S
C1565 C1574 1.429 . S
C1566 C1564 1.419 . S
C1566 C1567 1.363 . S
C1566 H1569 0.929 . S
C1567 C1566 1.363 . S
C1567 C1573 1.428 . S
H1568 C1564 0.930 . S
H1569 C1566 0.929 . S
S1570 N1571 1.613 . S
S1570 N1572 1.610 . S
N1571 S1570 1.613 . S
N1571 C1574 1.350 . S
N1572 S1570 1.610 . S
N1572 C1573 1.351 . S
C1573 C1567 1.428 . S
C1573 N1572 1.351 . S
C1573 C1574 1.434 . S
C1574 C1565 1.429 . S
C1574 N1571 1.350 . S
C1574 C1573 1.434 . S
C1575 C1576 1.369 . S
C1575 C1577 1.419 . S
C1575 H1579 0.930 . S
C1576 C1575 1.369 . S
C1576 C1585 1.429 . S
C1577 C1575 1.419 . S
C1577 C1578 1.363 . S
C1577 H1580 0.929 . S
C1578 C1577 1.363 . S
C1578 C1584 1.428 . S
H1579 C1575 0.930 . S
H1580 C1577 0.929 . S
S1581 N1582 1.613 . S
S1581 N1583 1.610 . S
N1582 S1581 1.613 . S
N1582 C1585 1.350 . S
N1583 S1581 1.610 . S
N1583 C1584 1.351 . S
C1584 C1578 1.428 . S
C1584 N1583 1.351 . S
C1584 C1585 1.434 . S
C1585 C1576 1.429 . S
C1585 N1582 1.350 . S
C1585 C1584 1.434 . S
C1586 C1587 1.369 . S
C1586 C1588 1.419 . S
C1586 H1590 0.930 . S
C1587 C1586 1.369 . S
C1587 C1596 1.429 . S
C1588 C1586 1.419 . S
C1588 C1589 1.363 . S
C1588 H1591 0.929 . S
C1589 C1588 1.363 . S
C1589 C1595 1.428 . S
H1590 C1586 0.930 . S
H1591 C1588 0.929 . S
S1592 N1593 1.613 . S
S1592 N1594 1.610 . S
N1593 S1592 1.613 . S
N1593 C1596 1.350 . S
N1594 S1592 1.610 . S
N1594 C1595 1.351 . S
C1595 C1589 1.428 . S
C1595 N1594 1.351 . S
C1595 C1596 1.434 . S
C1596 C1587 1.429 . S
C1596 N1593 1.350 . S
C1596 C1595 1.434 . S
C1597 C1598 1.369 . S
C1597 C1599 1.419 . S
C1597 H1601 0.930 . S
C1598 C1597 1.369 . S
C1598 C1607 1.429 . S
C1599 C1597 1.419 . S
C1599 C1600 1.363 . S
C1599 H1602 0.929 . S
C1600 C1599 1.363 . S
C1600 C1606 1.428 . S
H1601 C1597 0.930 . S
H1602 C1599 0.929 . S
S1603 N1604 1.613 . S
S1603 N1605 1.610 . S
N1604 S1603 1.613 . S
N1604 C1607 1.350 . S
N1605 S1603 1.610 . S
N1605 C1606 1.351 . S
C1606 C1600 1.428 . S
C1606 N1605 1.351 . S
C1606 C1607 1.434 . S
C1607 C1598 1.429 . S
C1607 N1604 1.350 . S
C1607 C1606 1.434 . S
C1608 C1609 1.369 . S
C1608 C1610 1.419 . S
C1608 H1612 0.930 . S
C1609 C1608 1.369 . S
C1609 C1618 1.429 . S
C1610 C1608 1.419 . S
C1610 C1611 1.363 . S
C1610 H1613 0.929 . S
C1611 C1610 1.363 . S
C1611 C1617 1.428 . S
H1612 C1608 0.930 . S
H1613 C1610 0.929 . S
S1614 N1615 1.613 . S
S1614 N1616 1.610 . S
N1615 S1614 1.613 . S
N1615 C1618 1.350 . S
N1616 S1614 1.610 . S
N1616 C1617 1.351 . S
C1617 C1611 1.428 . S
C1617 N1616 1.351 . S
C1617 C1618 1.434 . S
C1618 C1609 1.429 . S
C1618 N1615 1.350 . S
C1618 C1617 1.434 . S
C1619 C1620 1.369 . S
C1619 C1621 1.419 . S
C1619 H1623 0.930 . S
C1620 C1619 1.369 . S
C1620 C1629 1.429 . S
C1621 C1619 1.419 . S
C1621 C1622 1.363 . S
C1621 H1624 0.929 . S
C1622 C1621 1.363 . S
C1622 C1628 1.428 . S
H1623 C1619 0.930 . S
H1624 C1621 0.929 . S
S1625 N1626 1.613 . S
S1625 N1627 1.610 . S
N1626 S1625 1.613 . S
N1626 C1629 1.350 . S
N1627 S1625 1.610 . S
N1627 C1628 1.351 . S
C1628 C1622 1.428 . S
C1628 N1627 1.351 . S
C1628 C1629 1.434 . S
C1629 C1620 1.429 . S
C1629 N1626 1.350 . S
C1629 C1628 1.434 . S
C1630 C1631 1.369 . S
C1630 C1632 1.419 . S
C1630 H1634 0.930 . S
C1631 C1630 1.369 . S
C1631 C1640 1.429 . S
C1632 C1630 1.419 . S
C1632 C1633 1.363 . S
C1632 H1635 0.929 . S
C1633 C1632 1.363 . S
C1633 C1639 1.428 . S
H1634 C1630 0.930 . S
H1635 C1632 0.929 . S
S1636 N1637 1.613 . S
S1636 N1638 1.610 . S
N1637 S1636 1.613 . S
N1637 C1640 1.350 . S
N1638 S1636 1.610 . S
N1638 C1639 1.351 . S
C1639 C1633 1.428 . S
C1639 N1638 1.351 . S
C1639 C1640 1.434 . S
C1640 C1631 1.429 . S
C1640 N1637 1.350 . S
C1640 C1639 1.434 . S
C1641 C1642 1.369 . S
C1641 C1643 1.419 . S
C1641 H1645 0.930 . S
C1642 C1641 1.369 . S
C1642 C1651 1.429 1_455 S
C1643 C1641 1.419 . S
C1643 C1644 1.363 . S
C1643 H1646 0.929 . S
C1644 C1643 1.363 . S
C1644 C1650 1.428 1_455 S
H1645 C1641 0.930 . S
H1646 C1643 0.929 . S
S1647 N1648 1.613 . S
S1647 N1649 1.610 . S
N1648 S1647 1.613 . S
N1648 C1651 1.350 . S
N1649 S1647 1.610 . S
N1649 C1650 1.351 . S
C1650 C1644 1.428 1_655 S
C1650 N1649 1.351 . S
C1650 C1651 1.434 . S
C1651 C1642 1.429 1_655 S
C1651 N1648 1.350 . S
C1651 C1650 1.434 . S
C1652 C1653 1.369 . S
C1652 C1654 1.419 . S
C1652 H1656 0.930 . S
C1653 C1652 1.369 . S
C1653 C1662 1.429 . S
C1654 C1652 1.419 . S
C1654 C1655 1.363 . S
C1654 H1657 0.929 . S
C1655 C1654 1.363 . S
C1655 C1661 1.428 . S
H1656 C1652 0.930 . S
H1657 C1654 0.929 . S
S1658 N1659 1.613 . S
S1658 N1660 1.610 . S
N1659 S1658 1.613 . S
N1659 C1662 1.350 . S
N1660 S1658 1.610 . S
N1660 C1661 1.351 . S
C1661 C1655 1.428 . S
C1661 N1660 1.351 . S
C1661 C1662 1.434 . S
C1662 C1653 1.429 . S
C1662 N1659 1.350 . S
C1662 C1661 1.434 . S
C1663 C1664 1.369 . S
C1663 C1665 1.419 . S
C1663 H1667 0.930 . S
C1664 C1663 1.369 . S
C1664 C1673 1.429 1_565 S
C1665 C1663 1.419 . S
C1665 C1666 1.363 . S
C1665 H1668 0.929 . S
C1666 C1665 1.363 . S
C1666 C1672 1.428 1_565 S
H1667 C1663 0.930 . S
H1668 C1665 0.929 . S
S1669 N1670 1.613 . S
S1669 N1671 1.610 . S
N1670 S1669 1.613 . S
N1670 C1673 1.350 . S
N1671 S1669 1.610 . S
N1671 C1672 1.351 . S
C1672 C1666 1.428 1_545 S
C1672 N1671 1.351 . S
C1672 C1673 1.434 . S
C1673 C1664 1.429 1_545 S
C1673 N1670 1.350 . S
C1673 C1672 1.434 . S
C1674 C1675 1.369 . S
C1674 C1676 1.419 . S
C1674 H1678 0.930 . S
C1675 C1674 1.369 . S
C1675 C1684 1.429 1_565 S
C1676 C1674 1.419 . S
C1676 C1677 1.363 . S
C1676 H1679 0.929 . S
C1677 C1676 1.363 . S
C1677 C1683 1.428 1_565 S
H1678 C1674 0.930 . S
H1679 C1676 0.929 . S
S1680 N1681 1.613 . S
S1680 N1682 1.610 . S
N1681 S1680 1.613 . S
N1681 C1684 1.350 . S
N1682 S1680 1.610 . S
N1682 C1683 1.351 . S
C1683 C1677 1.428 1_545 S
C1683 N1682 1.351 . S
C1683 C1684 1.434 . S
C1684 C1675 1.429 1_545 S
C1684 N1681 1.350 . S
C1684 C1683 1.434 . S
C1685 C1686 1.369 . S
C1685 C1687 1.419 . S
C1685 H1689 0.930 . S
C1686 C1685 1.369 . S
C1686 C1695 1.429 1_455 S
C1687 C1685 1.419 . S
C1687 C1688 1.363 . S
C1687 H1690 0.929 . S
C1688 C1687 1.363 . S
C1688 C1694 1.428 1_455 S
H1689 C1685 0.930 . S
H1690 C1687 0.929 . S
S1691 N1692 1.613 . S
S1691 N1693 1.610 . S
N1692 S1691 1.613 . S
N1692 C1695 1.350 . S
N1693 S1691 1.610 . S
N1693 C1694 1.351 . S
C1694 C1688 1.428 1_655 S
C1694 N1693 1.351 . S
C1694 C1695 1.434 . S
C1695 C1686 1.429 1_655 S
C1695 N1692 1.350 . S
C1695 C1694 1.434 . S
C1696 C1697 1.369 . S
C1696 C1698 1.419 . S
C1696 H1700 0.930 . S
C1697 C1696 1.369 . S
C1697 C1706 1.429 . S
C1698 C1696 1.419 . S
C1698 C1699 1.363 . S
C1698 H1701 0.929 . S
C1699 C1698 1.363 . S
C1699 C1705 1.428 . S
H1700 C1696 0.930 . S
H1701 C1698 0.929 . S
S1702 N1703 1.613 . S
S1702 N1704 1.610 . S
N1703 S1702 1.613 . S
N1703 C1706 1.350 . S
N1704 S1702 1.610 . S
N1704 C1705 1.351 . S
C1705 C1699 1.428 . S
C1705 N1704 1.351 . S
C1705 C1706 1.434 . S
C1706 C1697 1.429 . S
C1706 N1703 1.350 . S
C1706 C1705 1.434 . S
C1707 C1708 1.369 . S
C1707 C1709 1.419 . S
C1707 H1711 0.930 . S
C1708 C1707 1.369 . S
C1708 C1717 1.429 . S
C1709 C1707 1.419 . S
C1709 C1710 1.363 . S
C1709 H1712 0.929 . S
C1710 C1709 1.363 . S
C1710 C1716 1.428 . S
H1711 C1707 0.930 . S
H1712 C1709 0.929 . S
S1713 N1714 1.613 . S
S1713 N1715 1.610 . S
N1714 S1713 1.613 . S
N1714 C1717 1.350 . S
N1715 S1713 1.610 . S
N1715 C1716 1.351 . S
C1716 C1710 1.428 . S
C1716 N1715 1.351 . S
C1716 C1717 1.434 . S
C1717 C1708 1.429 . S
C1717 N1714 1.350 . S
C1717 C1716 1.434 . S
C1718 C1719 1.369 . S
C1718 C1720 1.419 . S
C1718 H1722 0.930 . S
C1719 C1718 1.369 . S
C1719 C1728 1.429 . S
C1720 C1718 1.419 . S
C1720 C1721 1.363 . S
C1720 H1723 0.929 . S
C1721 C1720 1.363 . S
C1721 C1727 1.428 . S
H1722 C1718 0.930 . S
H1723 C1720 0.929 . S
S1724 N1725 1.613 . S
S1724 N1726 1.610 . S
N1725 S1724 1.613 . S
N1725 C1728 1.350 . S
N1726 S1724 1.610 . S
N1726 C1727 1.351 . S
C1727 C1721 1.428 . S
C1727 N1726 1.351 . S
C1727 C1728 1.434 . S
C1728 C1719 1.429 . S
C1728 N1725 1.350 . S
C1728 C1727 1.434 . S
C1729 C1730 1.369 . S
C1729 C1731 1.419 . S
C1729 H1733 0.930 . S
C1730 C1729 1.369 . S
C1730 C1739 1.429 . S
C1731 C1729 1.419 . S
C1731 C1732 1.363 . S
C1731 H1734 0.929 . S
C1732 C1731 1.363 . S
C1732 C1738 1.428 . S
H1733 C1729 0.930 . S
H1734 C1731 0.929 . S
S1735 N1736 1.613 . S
S1735 N1737 1.610 . S
N1736 S1735 1.613 . S
N1736 C1739 1.350 . S
N1737 S1735 1.610 . S
N1737 C1738 1.351 . S
C1738 C1732 1.428 . S
C1738 N1737 1.351 . S
C1738 C1739 1.434 . S
C1739 C1730 1.429 . S
C1739 N1736 1.350 . S
C1739 C1738 1.434 . S
C1740 C1741 1.369 . S
C1740 C1742 1.419 . S
C1740 H1744 0.930 . S
C1741 C1740 1.369 . S
C1741 C1750 1.429 1_545 S
C1742 C1740 1.419 . S
C1742 C1743 1.363 . S
C1742 H1745 0.929 . S
C1743 C1742 1.363 . S
C1743 C1749 1.428 1_545 S
H1744 C1740 0.930 . S
H1745 C1742 0.929 . S
S1746 N1747 1.613 . S
S1746 N1748 1.610 . S
N1747 S1746 1.613 . S
N1747 C1750 1.350 . S
N1748 S1746 1.610 . S
N1748 C1749 1.351 . S
C1749 C1743 1.428 1_565 S
C1749 N1748 1.351 . S
C1749 C1750 1.434 . S
C1750 C1741 1.429 1_565 S
C1750 N1747 1.350 . S
C1750 C1749 1.434 . S
C1751 C1752 1.369 . S
C1751 C1753 1.419 . S
C1751 H1755 0.930 . S
C1752 C1751 1.369 . S
C1752 C1761 1.429 1_655 S
C1753 C1751 1.419 . S
C1753 C1754 1.363 . S
C1753 H1756 0.929 . S
C1754 C1753 1.363 . S
C1754 C1760 1.428 1_655 S
H1755 C1751 0.930 . S
H1756 C1753 0.929 . S
S1757 N1758 1.613 . S
S1757 N1759 1.610 . S
N1758 S1757 1.613 . S
N1758 C1761 1.350 . S
N1759 S1757 1.610 . S
N1759 C1760 1.351 . S
C1760 C1754 1.428 1_455 S
C1760 N1759 1.351 . S
C1760 C1761 1.434 . S
C1761 C1752 1.429 1_455 S
C1761 N1758 1.350 . S
C1761 C1760 1.434 . S
C1762 C1763 1.369 . S
C1762 C1764 1.419 . S
C1762 H1766 0.930 . S
C1763 C1762 1.369 . S
C1763 C1772 1.429 . S
C1764 C1762 1.419 . S
C1764 C1765 1.363 . S
C1764 H1767 0.929 . S
C1765 C1764 1.363 . S
C1765 C1771 1.428 . S
H1766 C1762 0.930 . S
H1767 C1764 0.929 . S
S1768 N1769 1.613 . S
S1768 N1770 1.610 . S
N1769 S1768 1.613 . S
N1769 C1772 1.350 . S
N1770 S1768 1.610 . S
N1770 C1771 1.351 . S
C1771 C1765 1.428 . S
C1771 N1770 1.351 . S
C1771 C1772 1.434 . S
C1772 C1763 1.429 . S
C1772 N1769 1.350 . S
C1772 C1771 1.434 . S
C1773 C1774 1.369 . S
C1773 C1775 1.419 . S
C1773 H1777 0.930 . S
C1774 C1773 1.369 . S
C1774 C1783 1.429 . S
C1775 C1773 1.419 . S
C1775 C1776 1.363 . S
C1775 H1778 0.929 . S
C1776 C1775 1.363 . S
C1776 C1782 1.428 . S
H1777 C1773 0.930 . S
H1778 C1775 0.929 . S
S1779 N1780 1.613 . S
S1779 N1781 1.610 . S
N1780 S1779 1.613 . S
N1780 C1783 1.350 . S
N1781 S1779 1.610 . S
N1781 C1782 1.351 . S
C1782 C1776 1.428 . S
C1782 N1781 1.351 . S
C1782 C1783 1.434 . S
C1783 C1774 1.429 . S
C1783 N1780 1.350 . S
C1783 C1782 1.434 . S
C1784 C1785 1.369 . S
C1784 C1786 1.419 . S
C1784 H1788 0.930 . S
C1785 C1784 1.369 . S
C1785 C1794 1.429 . S
C1786 C1784 1.419 . S
C1786 C1787 1.363 . S
C1786 H1789 0.929 . S
C1787 C1786 1.363 . S
C1787 C1793 1.428 . S
H1788 C1784 0.930 . S
H1789 C1786 0.929 . S
S1790 N1791 1.613 . S
S1790 N1792 1.610 . S
N1791 S1790 1.613 . S
N1791 C1794 1.350 . S
N1792 S1790 1.610 . S
N1792 C1793 1.351 . S
C1793 C1787 1.428 . S
C1793 N1792 1.351 . S
C1793 C1794 1.434 . S
C1794 C1785 1.429 . S
C1794 N1791 1.350 . S
C1794 C1793 1.434 . S
C1795 C1796 1.369 . S
C1795 C1797 1.419 . S
C1795 H1799 0.930 . S
C1796 C1795 1.369 . S
C1796 C1805 1.429 . S
C1797 C1795 1.419 . S
C1797 C1798 1.363 . S
C1797 H1800 0.929 . S
C1798 C1797 1.363 . S
C1798 C1804 1.428 . S
H1799 C1795 0.930 . S
H1800 C1797 0.929 . S
S1801 N1802 1.613 . S
S1801 N1803 1.610 . S
N1802 S1801 1.613 . S
N1802 C1805 1.350 . S
N1803 S1801 1.610 . S
N1803 C1804 1.351 . S
C1804 C1798 1.428 . S
C1804 N1803 1.351 . S
C1804 C1805 1.434 . S
C1805 C1796 1.429 . S
C1805 N1802 1.350 . S
C1805 C1804 1.434 . S
C1806 C1807 1.369 . S
C1806 C1808 1.419 . S
C1806 H1810 0.930 . S
C1807 C1806 1.369 . S
C1807 C1816 1.429 . S
C1808 C1806 1.419 . S
C1808 C1809 1.363 . S
C1808 H1811 0.929 . S
C1809 C1808 1.363 . S
C1809 C1815 1.428 . S
H1810 C1806 0.930 . S
H1811 C1808 0.929 . S
S1812 N1813 1.613 . S
S1812 N1814 1.610 . S
N1813 S1812 1.613 . S
N1813 C1816 1.350 . S
N1814 S1812 1.610 . S
N1814 C1815 1.351 . S
C1815 C1809 1.428 . S
C1815 N1814 1.351 . S
C1815 C1816 1.434 . S
C1816 C1807 1.429 . S
C1816 N1813 1.350 . S
C1816 C1815 1.434 . S
C1817 C1818 1.369 . S
C1817 C1819 1.419 . S
C1817 H1821 0.930 . S
C1818 C1817 1.369 . S
C1818 C1827 1.429 . S
C1819 C1817 1.419 . S
C1819 C1820 1.363 . S
C1819 H1822 0.929 . S
C1820 C1819 1.363 . S
C1820 C1826 1.428 . S
H1821 C1817 0.930 . S
H1822 C1819 0.929 . S
S1823 N1824 1.613 . S
S1823 N1825 1.610 . S
N1824 S1823 1.613 . S
N1824 C1827 1.350 . S
N1825 S1823 1.610 . S
N1825 C1826 1.351 . S
C1826 C1820 1.428 . S
C1826 N1825 1.351 . S
C1826 C1827 1.434 . S
C1827 C1818 1.429 . S
C1827 N1824 1.350 . S
C1827 C1826 1.434 . S
C1828 C1829 1.369 . S
C1828 C1830 1.419 . S
C1828 H1832 0.930 . S
C1829 C1828 1.369 . S
C1829 C1838 1.429 . S
C1830 C1828 1.419 . S
C1830 C1831 1.363 . S
C1830 H1833 0.929 . S
C1831 C1830 1.363 . S
C1831 C1837 1.428 . S
H1832 C1828 0.930 . S
H1833 C1830 0.929 . S
S1834 N1835 1.613 . S
S1834 N1836 1.610 . S
N1835 S1834 1.613 . S
N1835 C1838 1.350 . S
N1836 S1834 1.610 . S
N1836 C1837 1.351 . S
C1837 C1831 1.428 . S
C1837 N1836 1.351 . S
C1837 C1838 1.434 . S
C1838 C1829 1.429 . S
C1838 N1835 1.350 . S
C1838 C1837 1.434 . S
C1839 C1840 1.369 . S
C1839 C1841 1.419 . S
C1839 H1843 0.930 . S
C1840 C1839 1.369 . S
C1840 C1849 1.429 1_655 S
C1841 C1839 1.419 . S
C1841 C1842 1.363 . S
C1841 H1844 0.929 . S
C1842 C1841 1.363 . S
C1842 C1848 1.428 1_655 S
H1843 C1839 0.930 . S
H1844 C1841 0.929 . S
S1845 N1846 1.613 . S
S1845 N1847 1.610 . S
N1846 S1845 1.613 . S
N1846 C1849 1.350 . S
N1847 S1845 1.610 . S
N1847 C1848 1.351 . S
C1848 C1842 1.428 1_455 S
C1848 N1847 1.351 . S
C1848 C1849 1.434 . S
C1849 C1840 1.429 1_455 S
C1849 N1846 1.350 . S
C1849 C1848 1.434 . S
C1850 C1851 1.369 . S
C1850 C1852 1.419 . S
C1850 H1854 0.930 . S
C1851 C1850 1.369 . S
C1851 C1860 1.429 . S
C1852 C1850 1.419 . S
C1852 C1853 1.363 . S
C1852 H1855 0.929 . S
C1853 C1852 1.363 . S
C1853 C1859 1.428 . S
H1854 C1850 0.930 . S
H1855 C1852 0.929 . S
S1856 N1857 1.613 . S
S1856 N1858 1.610 . S
N1857 S1856 1.613 . S
N1857 C1860 1.350 . S
N1858 S1856 1.610 . S
N1858 C1859 1.351 . S
C1859 C1853 1.428 . S
C1859 N1858 1.351 . S
C1859 C1860 1.434 . S
C1860 C1851 1.429 . S
C1860 N1857 1.350 . S
C1860 C1859 1.434 . S
C1861 C1862 1.369 1_565 S
C1861 C1863 1.419 . S
C1861 H1865 0.930 . S
C1862 C1861 1.369 1_545 S
C1862 C1871 1.429 . S
C1863 C1861 1.419 . S
C1863 C1864 1.363 1_565 S
C1863 H1866 0.929 . S
C1864 C1863 1.363 1_545 S
C1864 C1870 1.428 . S
H1865 C1861 0.930 . S
H1866 C1863 0.929 . S
S1867 N1868 1.613 . S
S1867 N1869 1.610 . S
N1868 S1867 1.613 . S
N1868 C1871 1.350 . S
N1869 S1867 1.610 . S
N1869 C1870 1.351 . S
C1870 C1864 1.428 . S
C1870 N1869 1.351 . S
C1870 C1871 1.434 . S
C1871 C1862 1.429 . S
C1871 N1868 1.350 . S
C1871 C1870 1.434 . S
C1081 C8 1.461 1_655 S
C1083 C688 1.486 . S
C1092 C22 1.578 . S
C1094 C734 1.561 . S
C1105 C766 1.495 . S
C1103 C37 1.463 1_545 S
C1114 C36 1.467 1_565 S
C1116 C819 1.487 . S
C1125 C9 1.468 1_455 S
C1127 C865 1.497 . S
C1136 C23 1.577 . S
C1138 C904 1.571 . S
C1147 C50 1.460 1_455 S
C1149 C858 1.480 . S
C1160 C911 1.573 . S
C1158 C64 1.579 . S
C1171 C812 1.499 . S
C1169 C79 1.475 1_565 S
C1180 C78 1.454 1_545 S
C1182 C773 1.481 . S
C1193 C667 1.499 . S
C1191 C51 1.475 1_655 S
C1202 C65 1.578 . S
C1204 C713 1.562 . S
C1213 C92 1.622 . S
C1215 C943 1.614 . S
C1224 C106 1.636 . S
C1226 C1010 1.611 . S
C1237 C1056 1.584 . S
C1235 C121 1.605 . S
C1246 C120 1.563 . S
C1248 C267 1.544 . S
C1257 C93 1.588 . S
C1259 C313 1.570 . S
C1268 C107 1.604 . S
C1270 C359 1.582 . S
C1279 C134 1.562 . S
C1281 C306 1.543 . S
C1290 C148 1.606 . S
C1292 C352 1.583 . S
C1303 C260 1.570 . S
C1301 C163 1.588 . S
C1314 C1035 1.606 . S
C1312 C162 1.624 . S
C1325 C964 1.594 . S
C1323 C135 1.604 . S
C1336 C989 1.613 . S
C1334 C149 1.637 . S
C1345 C176 1.566 . S
C1347 C391 1.559 . S
C1356 C190 1.605 . S
C1358 C444 1.593 . S
C1367 C205 1.589 . S
C1369 C490 1.582 . S
C1378 C204 1.620 . S
C1380 C536 1.612 . S
C1391 C589 1.580 . S
C1389 C177 1.604 . S
C1402 C635 1.610 . S
C1400 C191 1.634 . S
C1413 C582 1.605 . S
C1411 C218 1.624 . S
C1424 C628 1.608 . S
C1422 C232 1.635 . S
C1433 C247 1.603 . S
C1435 C543 1.594 . S
C1446 C497 1.557 . S
C1444 C246 1.564 . S
C1455 C219 1.589 . S
C1457 C412 1.584 . S
C1468 C451 1.593 . S
C1466 C233 1.604 . S
C1479 C274 1.559 . S
C1477 C6 1.558 . S
C1488 C20 1.518 . S
C1490 C320 1.523 . S
C1501 C366 1.564 . S
C1499 C35 1.568 . S
C1512 C398 1.550 . S
C1510 C34 1.561 . S
C1523 C437 1.554 . S
C1521 C7 1.571 . S
C1534 C483 1.510 . S
C1532 C21 1.518 . S
C1543 C48 1.564 . S
C1545 C504 1.558 . S
C1554 C62 1.521 . S
C1556 C405 1.514 . S
C1565 C77 1.570 . S
C1567 C458 1.550 . S
C1576 C76 1.561 . S
C1578 C299 1.569 . S
C1589 C345 1.565 . S
C1587 C49 1.570 . S
C1598 C63 1.519 . S
C1600 C253 1.520 . S
C1611 C529 1.533 . S
C1609 C90 1.535 . S
C1620 C104 1.567 . S
C1622 C596 1.582 . S
C1631 C119 1.572 . S
C1633 C642 1.584 . S
C1644 C681 1.489 . S
C1642 C118 1.448 . S
C1653 C91 1.542 . S
C1655 C727 1.551 . S
C1664 C105 1.453 . S
C1666 C759 1.492 . S
C1675 C132 1.449 . S
C1677 C780 1.482 . S
C1686 C146 1.451 . S
C1688 C674 1.494 . S
C1699 C720 1.553 . S
C1697 C161 1.544 . S
C1708 C160 1.538 . S
C1710 C575 1.547 . S
C1719 C133 1.569 . S
C1721 C621 1.582 . S
C1732 C550 1.569 . S
C1730 C147 1.567 . S
C1743 C826 1.488 . S
C1741 C174 1.447 . S
C1752 C188 1.453 . S
C1754 C872 1.492 . S
C1763 C203 1.540 . S
C1765 C897 1.539 . S
C1776 C950 1.536 . S
C1774 C202 1.536 . S
C1787 C1003 1.584 . S
C1785 C175 1.573 . S
C1796 C189 1.571 . S
C1798 C1049 1.581 . S
C1807 C216 1.543 . S
C1809 C1042 1.548 . S
C1818 C230 1.570 . S
C1820 C957 1.570 . S
C1831 C996 1.583 . S
C1829 C245 1.571 . S
C1842 C851 1.485 . S
C1840 C244 1.445 . S
C1853 C918 1.543 . S
C1851 C217 1.542 . S
C1862 C231 1.447 . S
C1864 C805 1.494 . S
