# Generated by pormake.
# Topology anh, (6,3)-cn, num edge types: 1
# Building blocks:
#     Node 0, Type 0, BuildingBlock: BETDEL_clean_sbu_0, # of connection points: 6
#     Node 1, Type 0, BuildingBlock: BETDEL_clean_sbu_0, # of connection points: 6
#     Node 2, Type 0, BuildingBlock: BETDEL_clean_sbu_0, # of connection points: 6
#     Node 3, Type 1, BuildingBlock: KAKCAD_clean_linker_0, # of connection points: 3
#     Node 4, Type 1, BuildingBlock: KAKCAD_clean_linker_0, # of connection points: 3
#     Node 5, Type 1, BuildingBlock: KAKCAD_clean_linker_0, # of connection points: 3
#     Node 6, Type 1, BuildingBlock: KAKCAD_clean_linker_0, # of connection points: 3
#     Node 7, Type 1, BuildingBlock: KAKCAD_clean_linker_0, # of connection points: 3
#     Node 8, Type 1, BuildingBlock: KAKCAD_clean_linker_0, # of connection points: 3
#     Edge 9, Type (0, 1), BuildingBlock: AJUNOK_clean_linker_0, # of connection points: 2
#     Edge 10, Type (0, 1), BuildingBlock: AJUNOK_clean_linker_0, # of connection points: 2
#     Edge 11, Type (0, 1), BuildingBlock: AJUNOK_clean_linker_0, # of connection points: 2
#     Edge 12, Type (0, 1), BuildingBlock: AJUNOK_clean_linker_0, # of connection points: 2
#     Edge 13, Type (0, 1), BuildingBlock: AJUNOK_clean_linker_0, # of connection points: 2
#     Edge 14, Type (0, 1), BuildingBlock: AJUNOK_clean_linker_0, # of connection points: 2
#     Edge 15, Type (0, 1), BuildingBlock: AJUNOK_clean_linker_0, # of connection points: 2
#     Edge 16, Type (0, 1), BuildingBlock: AJUNOK_clean_linker_0, # of connection points: 2
#     Edge 17, Type (0, 1), BuildingBlock: AJUNOK_clean_linker_0, # of connection points: 2
#     Edge 18, Type (0, 1), BuildingBlock: AJUNOK_clean_linker_0, # of connection points: 2
#     Edge 19, Type (0, 1), BuildingBlock: AJUNOK_clean_linker_0, # of connection points: 2
#     Edge 20, Type (0, 1), BuildingBlock: AJUNOK_clean_linker_0, # of connection points: 2
#     Edge 21, Type (0, 1), BuildingBlock: AJUNOK_clean_linker_0, # of connection points: 2
#     Edge 22, Type (0, 1), BuildingBlock: AJUNOK_clean_linker_0, # of connection points: 2
#     Edge 23, Type (0, 1), BuildingBlock: AJUNOK_clean_linker_0, # of connection points: 2
#     Edge 24, Type (0, 1), BuildingBlock: AJUNOK_clean_linker_0, # of connection points: 2
#     Edge 25, Type (0, 1), BuildingBlock: AJUNOK_clean_linker_0, # of connection points: 2
#     Edge 26, Type (0, 1), BuildingBlock: AJUNOK_clean_linker_0, # of connection points: 2
# Relax obj value: 0.148
# Max RMSD: 0.167
# Mean RMSD: 0.135
data_MOF--net-anh--node1-BETDEL_clean_sbu_0--node2-KAKCAD_clean_linker_0--edge1-AJUNOK_clean_linker_0
_symmetry_space_group_name_H-M    P1
_symmetry_Int_Tables_number       1
_symmetry_cell_setting            triclinic
loop_
_symmetry_equiv_pos_as_xyz
'x, y, z'
_cell_length_a     28.148016
_cell_length_b     28.168508
_cell_length_c     50.992312
_cell_angle_alpha  90.154293
_cell_angle_beta   90.338691
_cell_angle_gamma 120.12891
loop_
_atom_site_label
_atom_site_type_symbol
_atom_site_fract_x
_atom_site_fract_y
_atom_site_fract_z
_atom_type_partial_charge
Dy0 Dy 0.07851 0.48954 0.15831 0.0
C1 C 0.94851 0.58046 0.17966 0.0
C2 C 0.15057 0.45584 0.14608 0.0
Dy3 Dy 1.01996 0.54808 0.16356 0.0
O4 O 0.11841 0.43942 0.16611 0.0
O5 O 0.14166 0.48923 0.13227 0.0
O6 O 0.05738 0.45869 0.19948 0.0
O7 O 0.07296 0.53759 0.19059 0.0
C8 C 0.05815 0.5022 0.20827 0.0
C9 C 0.04498 0.54189 0.11361 0.0
O10 O 0.10342 0.61997 0.17291 0.0
O11 O 0.14904 0.57847 0.15599 0.0
O12 O 0.9827 0.60199 0.16045 0.0
O13 O 0.95433 0.54196 0.19025 0.0
O14 O 0.04364 0.58337 0.12374 0.0
O15 O 0.02794 0.50285 0.12987 0.0
O16 O 0.9951 0.41496 0.15225 0.0
O17 O 0.95135 0.45953 0.16772 0.0
C18 C 0.14961 0.62331 0.16475 0.0
C19 C 0.95001 0.41341 0.16074 0.0
Dy20 Dy 0.47429 0.02317 0.5009 0.0
C21 C 0.70184 0.14754 0.51225 0.0
C22 C 0.36528 0.95058 0.50414 0.0
Dy23 Dy 0.59455 0.07888 0.49875 0.0
O24 O 0.40183 0.95816 0.52161 0.0
O25 O 0.38821 0.98334 0.48439 0.0
O26 O 0.48324 0.06788 0.53845 0.0
O27 O 0.53757 0.03917 0.53017 0.0
C28 C 0.52571 0.06543 0.54633 0.0
C29 C 0.56295 0.06747 0.44839 0.0
O30 O 0.58069 0.99409 0.50492 0.0
O31 O 0.48854 0.9514 0.49441 0.0
O32 O 0.68396 0.10644 0.49595 0.0
O33 O 0.65964 0.14661 0.52291 0.0
O34 O 0.61328 0.08953 0.4564 0.0
O35 O 0.53017 0.05111 0.46763 0.0
O36 O 0.48623 0.10685 0.49237 0.0
O37 O 0.57812 0.1495 0.50315 0.0
C38 C 0.53349 0.94885 0.49973 0.0
C39 C 0.53331 0.15216 0.49784 0.0
Dy40 Dy 0.6163 0.62823 0.82373 0.0
C41 C 0.52191 0.40737 0.84866 0.0
C42 C 0.64822 0.73277 0.81014 0.0
Dy43 Dy 0.55463 0.50847 0.82893 0.0
O44 O 0.66316 0.71874 0.83143 0.0
O45 O 0.61802 0.68967 0.79582 0.0
O46 O 0.64936 0.63597 0.86465 0.0
O47 O 0.56924 0.57401 0.85522 0.0
C48 C 0.60539 0.59286 0.87284 0.0
C49 C 0.55965 0.54121 0.77953 0.0
O50 O 0.48313 0.52103 0.83658 0.0
O51 O 0.52757 0.61095 0.82277 0.0
O52 O 0.50393 0.41679 0.82689 0.0
O53 O 0.55729 0.45335 0.8596 0.0
O54 O 0.51829 0.49731 0.78904 0.0
O55 O 0.59908 0.56244 0.79587 0.0
O56 O 0.68932 0.61705 0.81811 0.0
O57 O 0.64299 0.52624 0.83081 0.0
C58 C 0.48175 0.5658 0.82995 0.0
C59 C 0.68956 0.57179 0.82502 0.0
C60 C 0.53303 0.08115 0.3185 0.0
C61 C 0.52484 0.03862 0.33558 0.0
C62 C 0.53588 0.0754 0.29141 0.0
C63 C 0.52969 0.02662 0.28063 0.0
C64 C 0.51794 0.98269 0.29751 0.0
C65 C 0.51571 0.9887 0.32474 0.0
C66 C 0.53739 0.02286 0.25196 0.0
C67 C 0.58298 0.06547 0.2394 0.0
C68 C 0.59006 0.0659 0.21197 0.0
C69 C 0.54996 0.01995 0.19717 0.0
C70 C 0.5046 0.9753 0.20985 0.0
C71 C 0.49915 0.97776 0.23715 0.0
C72 C 0.46089 0.92537 0.19577 0.0
C73 C 0.42377 0.92866 0.17831 0.0
C74 C 0.44947 0.87292 0.20385 0.0
C75 C 0.4012 0.82534 0.1958 0.0
C76 C 0.36222 0.82858 0.17964 0.0
C77 C 0.63957 0.11518 0.20003 0.0
C78 C 0.6609 0.16748 0.2118 0.0
C79 C 0.66845 0.11106 0.17842 0.0
C80 C 0.71777 0.15716 0.16969 0.0
C81 C 0.74037 0.20871 0.18256 0.0
C82 C 0.71045 0.21255 0.2037 0.0
C83 C 0.37503 0.88088 0.17036 0.0
H84 H 0.53879 0.11961 0.32617 0.0
H85 H 0.5437 0.10951 0.27886 0.0
H86 H 0.51279 0.94453 0.28975 0.0
H87 H 0.50936 0.95522 0.33739 0.0
H88 H 0.61369 0.09835 0.25149 0.0
H89 H 0.46387 0.9448 0.24688 0.0
H90 H 0.55381 0.0188 0.17609 0.0
H91 H 0.43084 0.96836 0.172 0.0
H92 H 0.47683 0.86892 0.21754 0.0
H93 H 0.39305 0.78611 0.20339 0.0
H94 H 0.63965 0.17399 0.22779 0.0
H95 H 0.65372 0.072 0.16856 0.0
H96 H 0.34669 0.88507 0.15746 0.0
H97 H 0.72559 0.25059 0.21456 0.0
H98 H 0.73781 0.15214 0.15275 0.0
C99 C 0.53296 0.598 0.654 0.0
C100 C 0.5632 0.57804 0.66734 0.0
C101 C 0.52755 0.59405 0.62665 0.0
C102 C 0.55307 0.5709 0.6119 0.0
C103 C 0.58583 0.55379 0.62523 0.0
C104 C 0.59059 0.55707 0.65257 0.0
C105 C 0.54498 0.56354 0.58284 0.0
C106 C 0.54108 0.60245 0.56737 0.0
C107 C 0.534 0.59612 0.54003 0.0
C108 C 0.53361 0.55046 0.52769 0.0
C109 C 0.53799 0.51056 0.54304 0.0
C110 C 0.54116 0.51715 0.57056 0.0
C111 C 0.54062 0.46201 0.53179 0.0
C112 C 0.50926 0.43112 0.50991 0.0
C113 C 0.57242 0.44333 0.54489 0.0
C114 C 0.57045 0.39447 0.53773 0.0
C115 C 0.5395 0.3633 0.51595 0.0
C116 C 0.5267 0.63861 0.5258 0.0
C117 C 0.48301 0.64671 0.53291 0.0
C118 C 0.56852 0.67857 0.5101 0.0
C119 C 0.56766 0.72644 0.5027 0.0
C120 C 0.52491 0.73555 0.51076 0.0
C121 C 0.48213 0.69425 0.52558 0.0
C122 C 0.50883 0.38252 0.50206 0.0
H123 H 0.51248 0.61571 0.66475 0.0
H124 H 0.50197 0.60769 0.61722 0.0
H125 H 0.60743 0.53717 0.61457 0.0
H126 H 0.6143 0.54143 0.66221 0.0
H127 H 0.54407 0.63858 0.57659 0.0
H128 H 0.54027 0.48539 0.58281 0.0
H129 H 0.52999 0.54622 0.50655 0.0
H130 H 0.48396 0.44359 0.49927 0.0
H131 H 0.59848 0.46594 0.56138 0.0
H132 H 0.59272 0.38074 0.54993 0.0
H133 H 0.45086 0.61746 0.54555 0.0
H134 H 0.60346 0.67436 0.50485 0.0
H135 H 0.48426 0.35988 0.48519 0.0
H136 H 0.44925 0.69991 0.53288 0.0
H137 H 0.60138 0.75713 0.49128 0.0
C138 C 0.1207 0.56595 0.98752 0.0
C139 C 0.07021 0.53521 0.00037 0.0
C140 C 0.12291 0.56991 0.96017 0.0
C141 C 0.07478 0.54229 0.94475 0.0
C142 C 0.02453 0.50942 0.95762 0.0
C143 C 1.02228 0.50605 0.98507 0.0
C144 C 0.07705 0.54877 0.91552 0.0
C145 C 0.12236 0.55461 0.90144 0.0
C146 C 0.1268 0.56321 0.87416 0.0
C147 C 0.0828 0.5638 0.86048 0.0
C148 C 0.03583 0.55692 0.87427 0.0
C149 C 0.03458 0.55048 0.90174 0.0
C150 C 0.98701 0.5563 0.86128 0.0
C151 C 0.99267 0.59663 0.84325 0.0
C152 C 0.93341 0.51798 0.86946 0.0
C153 C 0.88758 0.52138 0.86116 0.0
C154 C 0.89304 0.56301 0.84408 0.0
C155 C 0.17849 0.57125 0.86132 0.0
C156 C 0.23002 0.60777 0.87276 0.0
C157 C 0.1772 0.5374 0.84064 0.0
C158 C 0.22558 0.53793 0.83276 0.0
C159 C 0.27662 0.57235 0.84533 0.0
C160 C 0.27808 0.60838 0.86491 0.0
C161 C 0.94639 0.59991 0.83476 0.0
H162 H 0.15861 0.58788 -0.00133 0.0
H163 H 0.1624 0.59598 0.95121 0.0
H164 H 0.98669 0.48647 0.94653 0.0
H165 H 0.98274 0.48188 0.99434 0.0
H166 H 0.15458 0.55177 0.91177 0.0
H167 H 1.00051 0.54806 0.91262 0.0
H168 H 0.08511 0.56956 0.83944 0.0
H169 H 0.03306 0.62694 0.83648 0.0
H170 H 0.9269 0.48582 0.88307 0.0
H171 H 0.84779 0.49209 0.86896 0.0
H172 H 0.23283 0.63458 0.88871 0.0
H173 H 0.13842 0.50856 0.83145 0.0
H174 H 0.95261 0.63168 0.82101 0.0
H175 H 0.31615 0.63555 0.87511 0.0
H176 H 0.22273 0.51055 0.81712 0.0
C177 C 1.01345 0.54259 0.32957 0.0
C178 C 0.06202 0.54954 0.31861 0.0
C179 C 1.00958 0.5464 0.35659 0.0
C180 C 0.05451 0.558 0.37285 0.0
C181 C 0.10384 0.56693 0.36187 0.0
C182 C 0.10739 0.56212 0.33479 0.0
C183 C 0.0478 0.55668 0.40135 0.0
C184 C 1.00904 0.5079 0.41314 0.0
C185 C 0.99705 0.50632 0.43998 0.0
C186 C 0.0259 0.55475 0.4549 0.0
C187 C 0.06716 0.6026 0.44336 0.0
C188 C 0.07805 0.60374 0.41658 0.0
C189 C 0.10151 0.65077 0.45952 0.0
C190 C 0.08085 0.68313 0.46957 0.0
C191 C 0.15645 0.66583 0.46371 0.0
C192 C 0.19121 0.71401 0.47714 0.0
C193 C 0.17146 0.74786 0.48628 0.0
C194 C 0.95475 0.4543 0.45209 0.0
C195 C 0.91166 0.41426 0.43664 0.0
C196 C 0.95728 0.4434 0.47889 0.0
C197 C 0.91677 0.39453 0.48995 0.0
C198 C 0.87417 0.35489 0.47424 0.0
C199 C 0.87349 0.3645 0.44731 0.0
C200 C 0.11604 0.7321 0.48271 0.0
H201 H 0.97799 0.53241 0.3173 0.0
H202 H 0.97121 0.53932 0.36488 0.0
H203 H 0.13867 0.57559 0.37429 0.0
H204 H 0.14508 0.5674 0.32649 0.0
H205 H 0.98899 0.47126 0.40105 0.0
H206 H 0.10932 0.64132 0.4076 0.0
H207 H 1.0173 0.55562 0.4755 0.0
H208 H 0.0383 0.6716 0.46635 0.0
H209 H 0.17268 0.64098 0.456 0.0
H210 H 0.23419 0.72619 0.4793 0.0
H211 H 0.90664 0.42084 0.41617 0.0
H212 H 0.99048 0.47219 0.49144 0.0
H213 H 0.10058 0.75826 0.48946 0.0
H214 H 0.84298 0.33372 0.4343 0.0
H215 H 0.91862 0.38797 0.51076 0.0
C216 C 0.56041 0.05463 0.66841 0.0
C217 C 0.58809 0.10444 0.65493 0.0
C218 C 0.56224 0.05384 0.69562 0.0
C219 C 0.59226 0.10284 0.71002 0.0
C220 C 0.61977 0.15294 0.69661 0.0
C221 C 0.61774 0.15373 0.66918 0.0
C222 C 0.59486 0.10023 0.73892 0.0
C223 C 0.60175 0.05884 0.75017 0.0
C224 C 0.59612 0.04941 0.77719 0.0
C225 C 0.58646 0.08359 0.79338 0.0
C226 C 0.58173 0.12661 0.78257 0.0
C227 C 0.58608 0.13513 0.7553 0.0
C228 C 0.5703 0.16124 0.79988 0.0
C229 C 0.52575 0.13729 0.81721 0.0
C230 C 0.60429 0.2183 0.79936 0.0
C231 C 0.59343 0.25122 0.81571 0.0
C232 C 0.54813 0.22747 0.83259 0.0
C233 C 0.59768 1.00191 0.78793 0.0
C234 C 0.57038 0.95177 0.77438 0.0
C235 C 0.62819 1.00666 0.81067 0.0
C236 C 0.63409 0.96256 0.81873 0.0
C237 C 0.60997 0.91378 0.80392 0.0
C238 C 0.57696 0.90839 0.78211 0.0
C239 C 0.51435 0.17035 0.83332 0.0
H240 H 0.53631 0.01622 0.65788 0.0
H241 H 0.53957 1.01468 0.70543 0.0
H242 H 0.64338 0.19121 0.70728 0.0
H243 H 0.63944 0.19264 0.6591 0.0
H244 H 0.61043 0.03294 0.73767 0.0
H245 H 0.5801 0.16706 0.74687 0.0
H246 H 0.58177 0.07626 0.81432 0.0
H247 H 0.499 0.09315 0.81776 0.0
H248 H 0.63899 0.23734 0.78622 0.0
H249 H 0.61912 0.29542 0.8144 0.0
H250 H 0.54527 0.9466 0.75723 0.0
H251 H 0.64915 0.04493 0.82156 0.0
H252 H 0.47869 0.15158 0.84587 0.0
H253 H 0.55789 0.8713 0.77027 0.0
H254 H 0.65846 0.96707 0.83606 0.0
C255 C 0.59608 0.50822 0.99521 0.0
C256 C 0.56883 0.53022 0.9812 0.0
C257 C 0.59175 0.50418 0.0224 0.0
C258 C 0.561 0.52317 0.03587 0.0
C259 C 0.53234 0.5436 0.02155 0.0
C260 C 0.53603 0.5468 0.99436 0.0
C261 C 0.56144 0.52477 0.06479 0.0
C262 C 0.61029 0.54133 0.07874 0.0
C263 C 0.61141 0.54395 0.10624 0.0
C264 C 0.5635 0.53182 0.11978 0.0
C265 C 0.51525 0.51749 0.10588 0.0
C266 C 0.51391 0.51259 0.07853 0.0
C267 C 0.46695 0.5116 0.11939 0.0
C268 C 0.44327 0.47507 0.14034 0.0
C269 C 0.44291 0.54147 0.11018 0.0
C270 C 0.39396 0.53263 0.12062 0.0
C271 C 0.3683 0.49395 0.14057 0.0
C272 C 0.66227 0.55769 0.12066 0.0
C273 C 0.69507 0.53653 0.11179 0.0
C274 C 0.67753 0.59007 0.14363 0.0
C275 C 0.72387 0.59939 0.15797 0.0
C276 C 0.75508 0.57646 0.14934 0.0
C277 C 0.74133 0.5463 0.12588 0.0
C278 C 0.39377 0.4661 0.15089 0.0
H279 H 0.62146 0.4952 0.98515 0.0
H280 H 0.61338 0.48729 0.03292 0.0
H281 H 0.50896 0.55926 0.03138 0.0
H282 H 0.51528 0.56448 0.98369 0.0
H283 H 0.64786 0.55329 0.06814 0.0
H284 H 0.47577 0.49986 0.06798 0.0
H285 H 0.5637 0.53414 0.141 0.0
H286 H 0.46179 0.45205 0.14774 0.0
H287 H 0.46123 0.57054 0.09432 0.0
H288 H 0.37489 0.55435 0.1122 0.0
H289 H 0.68412 0.51086 0.09441 0.0
H290 H 0.65345 0.60768 0.15065 0.0
H291 H 0.37477 0.43659 0.1665 0.0
H292 H 0.76557 0.5288 0.1189 0.0
H293 H 0.73443 0.62299 0.17603 0.0
C294 C 0.24939 0.51466 0.15196 0.0
C295 C 0.20471 0.46184 0.14756 0.0
C296 C 0.30267 0.5238 0.1526 0.0
C297 C 0.31281 0.48047 0.14824 0.0
H298 H 0.24316 0.54937 0.15438 0.0
H299 H 0.33638 0.56557 0.15486 0.0
S300 S 0.20831 0.33339 0.13942 0.0
N301 N 0.17222 0.36471 0.14223 0.0
N302 N 0.27351 0.38193 0.14199 0.0
C303 C 0.26802 0.4267 0.14575 0.0
C304 C 0.21344 0.41735 0.14564 0.0
C305 C 0.80029 0.22251 0.51306 0.0
C306 C 0.74635 0.20053 0.5038 0.0
C307 C 0.84175 0.27353 0.50392 0.0
C308 C 0.82978 0.3037 0.48563 0.0
H309 H 0.81049 0.19998 0.527 0.0
H310 H 0.8835 0.2887 0.51068 0.0
S311 S 0.69325 0.26255 0.45629 0.0
N312 N 0.68288 0.21077 0.47513 0.0
N313 N 0.75874 0.30874 0.46023 0.0
C314 C 0.77514 0.28235 0.47715 0.0
C315 C 0.73393 0.23005 0.48562 0.0
C316 C 0.58755 0.77111 0.80698 0.0
C317 C 0.64117 0.78038 0.80945 0.0
C318 C 0.57753 0.81461 0.80743 0.0
C319 C 0.62103 0.86901 0.80955 0.0
H320 H 0.55291 0.7298 0.80487 0.0
H321 H 0.53552 0.80569 0.80519 0.0
S322 S 0.76865 0.91379 0.81865 0.0
N323 N 0.73766 0.84614 0.81667 0.0
N324 N 0.71969 0.92952 0.81563 0.0
C325 C 0.67482 0.87863 0.81316 0.0
C326 C 0.68472 0.8338 0.81346 0.0
C327 C 0.8984 0.63132 0.17466 0.0
C328 C 0.89769 0.58241 0.18089 0.0
C329 C 0.85004 0.63038 0.16706 0.0
C330 C 0.80048 0.58033 0.16505 0.0
H331 H 0.93703 0.66971 0.17377 0.0
H332 H 0.85233 0.66802 0.16049 0.0
S333 S 0.77616 0.44207 0.18124 0.0
N334 N 0.84233 0.48365 0.18693 0.0
N335 N 0.75204 0.48196 0.17183 0.0
C336 C 0.79849 0.53203 0.17327 0.0
C337 C 0.84717 0.53305 0.18145 0.0
C338 C 0.27127 0.89841 0.48509 0.0
C339 C 0.30939 0.90334 0.50431 0.0
C340 C 0.22252 0.84855 0.48123 0.0
C341 C 0.21127 0.80244 0.4963 0.0
H342 H 0.28066 0.9321 0.47194 0.0
H343 H 0.19592 0.84475 0.46494 0.0
S344 S 0.2944 0.7959 0.55111 0.0
N345 N 0.32966 0.85967 0.54053 0.0
N346 N 0.23842 0.76572 0.53266 0.0
C347 C 0.24674 0.80809 0.51693 0.0
C348 C 0.2959 0.85881 0.52112 0.0
C349 C 0.47704 0.30727 0.84194 0.0
C350 C 0.51849 0.35484 0.85426 0.0
C351 C 0.4837 0.26187 0.838 0.0
C352 C 0.53229 0.26348 0.84601 0.0
H353 H 0.44187 0.30709 0.83306 0.0
H354 H 0.45359 0.22809 0.82608 0.0
S355 S 0.64738 0.3736 0.88407 0.0
N356 N 0.60492 0.39702 0.8787 0.0
N357 N 0.61785 0.3118 0.87059 0.0
C358 C 0.57065 0.30786 0.86125 0.0
C359 C 0.56353 0.35371 0.86564 0.0
C360 C 0.57771 0.89057 0.50735 0.0
C361 C 0.53065 0.89389 0.50073 0.0
C362 C 0.57583 0.83972 0.50972 0.0
C363 C 0.52678 0.78935 0.50565 0.0
H364 H 0.61647 0.92765 0.51123 0.0
H365 H 0.61299 0.83996 0.51561 0.0
S366 S 0.39246 0.77429 0.48593 0.0
N367 N 0.43367 0.84123 0.48889 0.0
N368 N 0.43051 0.7465 0.49294 0.0
C369 C 0.47972 0.79199 0.49828 0.0
C370 C 0.48157 0.8438 0.4959 0.0
C371 C 0.74302 0.52156 0.82801 0.0
C372 C 0.74305 0.57166 0.82746 0.0
C373 C 0.79154 0.51952 0.83239 0.0
C374 C 0.84295 0.5674 0.83681 0.0
H375 H 0.70489 0.48316 0.82527 0.0
H376 H 0.78844 0.47962 0.83255 0.0
S377 S 0.86593 0.70947 0.83824 0.0
N378 N 0.79964 0.67078 0.8318 0.0
N379 N 0.88999 0.6669 0.84071 0.0
C380 C 0.84374 0.61796 0.83601 0.0
C381 C 0.79424 0.62008 0.83124 0.0
C382 C 0.25381 0.67894 0.16321 0.0
C383 C 0.20321 0.67689 0.16718 0.0
C384 C 0.3046 0.72796 0.1667 0.0
C385 C 0.30752 0.77775 0.17398 0.0
H386 H 0.25443 0.64209 0.15779 0.0
H387 H 0.34206 0.72676 0.16376 0.0
S388 S 0.1876 0.79582 0.1864 0.0
N389 N 0.15992 0.73032 0.17845 0.0
N390 N 0.2547 0.82161 0.18495 0.0
C391 C 0.25731 0.77663 0.1775 0.0
C392 C 0.20556 0.72663 0.17415 0.0
C393 C 0.48889 0.21216 0.49687 0.0
C394 C 0.53592 0.20698 0.50049 0.0
C395 C 0.49045 0.26276 0.50095 0.0
C396 C 0.53925 0.3109 0.50861 0.0
H397 H 0.45006 0.17653 0.49144 0.0
H398 H 0.45259 0.26363 0.49888 0.0
S399 S 0.67519 0.32128 0.51886 0.0
N400 N 0.63314 0.25589 0.51209 0.0
N401 N 0.63713 0.35047 0.51708 0.0
C402 C 0.58703 0.3067 0.51107 0.0
C403 C 0.58509 0.25513 0.50774 0.0
C404 C 0.42855 0.6165 0.83362 0.0
C405 C 0.42861 0.56647 0.83221 0.0
C406 C 0.37954 0.61801 0.83724 0.0
C407 C 0.32784 0.56959 0.83929 0.0
H408 H 0.4669 0.65508 0.83251 0.0
H409 H 0.38231 0.6577 0.83859 0.0
S410 S 0.30453 0.42762 0.83588 0.0
N411 N 0.37153 0.46699 0.83235 0.0
N412 N 0.28033 0.46989 0.8392 0.0
C413 C 0.3272 0.51929 0.83728 0.0
C414 C 0.37713 0.51774 0.83379 0.0
C415 C 0.84958 0.36018 0.17216 0.0
C416 C 0.89683 0.35958 0.16381 0.0
C417 C 0.79968 0.31181 0.17704 0.0
C418 C 0.79383 0.25919 0.17442 0.0
H419 H 0.85115 0.39877 0.17524 0.0
H420 H 0.76529 0.31618 0.18312 0.0
S421 S 0.90465 0.23338 0.15209 0.0
N422 N 0.93383 0.30095 0.1519 0.0
N423 N 0.841 0.20997 0.16204 0.0
C424 C 0.84056 0.25756 0.16546 0.0
C425 C 0.89159 0.30743 0.16007 0.0
C426 C 0.03049 0.489 0.07141 0.0
C427 C 0.05532 0.53907 0.08531 0.0
C428 C 0.03592 0.48776 0.04398 0.0
C429 C 0.0671 0.53645 0.02959 0.0
H430 H 1.00531 0.45081 0.08164 0.0
H431 H 1.01529 0.44848 0.03392 0.0
S432 S 0.14253 0.67775 0.05726 0.0
N433 N 0.11411 0.63808 0.08291 0.0
N434 N 0.12386 0.6359 0.03173 0.0
C435 C 0.09331 0.58647 0.04353 0.0
C436 C 0.08753 0.58771 0.07127 0.0
C437 C 0.50097 0.01804 0.40964 0.0
C438 C 0.54867 0.06324 0.42009 0.0
C439 C 0.49271 1.01047 0.38226 0.0
C440 C 0.53138 0.04838 0.36451 0.0
H441 H 0.47117 0.98722 0.42262 0.0
H442 H 0.45623 0.9744 0.37491 0.0
S443 S 0.66159 0.17493 0.38225 0.0
N444 N 0.63369 0.14746 0.41064 0.0
N445 N 0.61842 0.13327 0.35968 0.0
C446 C 0.57818 0.09457 0.37491 0.0
C447 C 0.5867 0.10198 0.40256 0.0
C448 C 0.61147 0.58216 0.7379 0.0
C449 C 0.56185 0.55726 0.75179 0.0
C450 C 0.61199 0.59047 0.71067 0.0
C451 C 0.56303 0.575 0.69654 0.0
H452 H 0.64974 0.59312 0.74789 0.0
H453 H 0.65085 0.60818 0.70053 0.0
S454 S 0.42312 0.51296 0.72466 0.0
N455 N 0.46334 0.52108 0.74999 0.0
N456 N 0.46404 0.53615 0.69907 0.0
C457 C 0.51361 0.5525 0.7106 0.0
C458 C 0.51312 0.54377 0.73815 0.0
C459 C 0.57652 0.05753 0.58458 0.0
C460 C 0.55047 0.08323 0.57252 0.0
C461 C 0.59195 0.06733 0.61106 0.0
C462 C 0.58256 0.10376 0.62612 0.0
H463 H 0.58219 0.02739 0.57396 0.0
H464 H 0.60916 0.04452 0.62015 0.0
S465 S 0.52316 0.18725 0.60237 0.0
N466 N 0.52156 0.15102 0.57652 0.0
N467 N 0.55062 0.16947 0.62638 0.0
C468 C 0.56042 0.13279 0.61369 0.0
C469 C 0.54426 0.12244 0.58682 0.0
C470 C 0.63915 0.59736 0.91835 0.0
C471 C 0.59606 0.57297 0.89993 0.0
C472 C 0.63047 0.5814 0.94461 0.0
C473 C 0.57844 0.5409 0.95313 0.0
H474 H 0.67953 0.62967 0.91258 0.0
H475 H 0.66409 0.60215 0.95852 0.0
S476 S 0.45324 0.46154 0.91257 0.0
N477 N 0.50021 0.50385 0.89185 0.0
N478 N 0.48423 0.47459 0.94146 0.0
C479 C 0.5355 0.51498 0.93491 0.0
C480 C 0.54428 0.53082 0.90816 0.0
C481 C 0.06465 0.48204 0.25518 0.0
C482 C 0.05902 0.51511 0.23626 0.0
C483 C 0.06737 0.49458 0.2819 0.0
C484 C 0.06363 0.53997 0.29044 0.0
H485 H 0.06741 0.4465 0.24935 0.0
H486 H 0.0713 0.46802 0.29601 0.0
S487 S 0.04874 0.63943 0.24896 0.0
N488 N 0.05067 0.59572 0.22795 0.0
N489 N 0.05419 0.61812 0.27838 0.0
C490 C 0.05788 0.57328 0.27184 0.0
C491 C 0.056 0.56112 0.24464 0.0
loop_
_geom_bond_atom_site_label_1
_geom_bond_atom_site_label_2
_geom_bond_distance
_geom_bond_site_symmetry_2
_ccdc_geom_bond_type
Dy0 O4 2.398 . S
Dy0 O5 2.491 . S
Dy0 O6 2.403 . S
Dy0 O7 2.664 . S
Dy0 O11 2.326 . S
Dy0 O15 2.310 . S
Dy0 O16 2.351 1_455 S
C1 O12 1.185 . S
C1 O13 1.355 . S
C2 O4 1.185 . S
C2 O5 1.355 . S
Dy3 O7 2.310 1_655 S
Dy3 O10 2.351 1_655 S
Dy3 O12 2.398 . S
Dy3 O13 2.491 . S
Dy3 O14 2.403 1_655 S
Dy3 O15 2.664 1_655 S
Dy3 O17 2.326 . S
O4 Dy0 2.398 . S
O4 C2 1.185 . S
O5 Dy0 2.491 . S
O5 C2 1.355 . S
O6 Dy0 2.403 . S
O6 C8 1.254 . S
O7 Dy0 2.664 . S
O7 Dy3 2.310 1_455 S
O7 C8 1.268 . S
C8 O6 1.254 . S
C8 O7 1.268 . S
C9 O14 1.254 . S
C9 O15 1.268 . S
O10 Dy3 2.351 1_455 S
O10 C18 1.249 . S
O11 Dy0 2.326 . S
O11 C18 1.267 . S
O12 C1 1.185 . S
O12 Dy3 2.398 . S
O13 C1 1.355 . S
O13 Dy3 2.491 . S
O14 Dy3 2.403 1_455 S
O14 C9 1.254 . S
O15 Dy0 2.310 . S
O15 Dy3 2.664 1_455 S
O15 C9 1.268 . S
O16 Dy0 2.351 1_655 S
O16 C19 1.249 . S
O17 Dy3 2.326 . S
O17 C19 1.267 . S
C18 O10 1.249 . S
C18 O11 1.267 . S
C19 O16 1.249 . S
C19 O17 1.267 . S
Dy20 O24 2.398 . S
Dy20 O25 2.491 . S
Dy20 O26 2.403 1_565 S
Dy20 O27 2.664 1_565 S
Dy20 O31 2.326 . S
Dy20 O35 2.310 1_565 S
Dy20 O36 2.351 1_565 S
C21 O32 1.185 . S
C21 O33 1.355 . S
C22 O24 1.185 . S
C22 O25 1.355 . S
Dy23 O27 2.310 . S
Dy23 O30 2.351 1_545 S
Dy23 O32 2.398 . S
Dy23 O33 2.491 . S
Dy23 O34 2.403 . S
Dy23 O35 2.664 . S
Dy23 O37 2.326 . S
O24 Dy20 2.398 . S
O24 C22 1.185 . S
O25 Dy20 2.491 . S
O25 C22 1.355 . S
O26 Dy20 2.403 1_545 S
O26 C28 1.254 . S
O27 Dy20 2.664 1_545 S
O27 Dy23 2.310 . S
O27 C28 1.268 . S
C28 O26 1.254 . S
C28 O27 1.268 . S
C29 O34 1.254 . S
C29 O35 1.268 . S
O30 Dy23 2.351 1_565 S
O30 C38 1.249 . S
O31 Dy20 2.326 . S
O31 C38 1.267 . S
O32 C21 1.185 . S
O32 Dy23 2.398 . S
O33 C21 1.355 . S
O33 Dy23 2.491 . S
O34 Dy23 2.403 . S
O34 C29 1.254 . S
O35 Dy20 2.310 1_545 S
O35 Dy23 2.664 . S
O35 C29 1.268 . S
O36 Dy20 2.351 1_545 S
O36 C39 1.249 . S
O37 Dy23 2.326 . S
O37 C39 1.267 . S
C38 O30 1.249 . S
C38 O31 1.267 . S
C39 O36 1.249 . S
C39 O37 1.267 . S
Dy40 O44 2.398 . S
Dy40 O45 2.491 . S
Dy40 O46 2.403 . S
Dy40 O47 2.664 . S
Dy40 O51 2.326 . S
Dy40 O55 2.310 . S
Dy40 O56 2.351 . S
C41 O52 1.185 . S
C41 O53 1.355 . S
C42 O44 1.185 . S
C42 O45 1.355 . S
Dy43 O47 2.310 . S
Dy43 O50 2.351 . S
Dy43 O52 2.398 . S
Dy43 O53 2.491 . S
Dy43 O54 2.403 . S
Dy43 O55 2.664 . S
Dy43 O57 2.326 . S
O44 Dy40 2.398 . S
O44 C42 1.185 . S
O45 Dy40 2.491 . S
O45 C42 1.355 . S
O46 Dy40 2.403 . S
O46 C48 1.254 . S
O47 Dy40 2.664 . S
O47 Dy43 2.310 . S
O47 C48 1.268 . S
C48 O46 1.254 . S
C48 O47 1.268 . S
C49 O54 1.254 . S
C49 O55 1.268 . S
O50 Dy43 2.351 . S
O50 C58 1.249 . S
O51 Dy40 2.326 . S
O51 C58 1.267 . S
O52 C41 1.185 . S
O52 Dy43 2.398 . S
O53 C41 1.355 . S
O53 Dy43 2.491 . S
O54 Dy43 2.403 . S
O54 C49 1.254 . S
O55 Dy40 2.310 . S
O55 Dy43 2.664 . S
O55 C49 1.268 . S
O56 Dy40 2.351 . S
O56 C59 1.249 . S
O57 Dy43 2.326 . S
O57 C59 1.267 . S
C58 O50 1.249 . S
C58 O51 1.267 . S
C59 O56 1.249 . S
C59 O57 1.267 . S
C60 C61 1.386 . S
C60 C62 1.397 . S
C60 H84 0.931 . S
C61 C60 1.386 . S
C61 C65 1.397 1_545 S
C62 C60 1.397 . S
C62 C63 1.384 . S
C62 H85 0.930 . S
C63 C62 1.384 . S
C63 C64 1.377 1_545 S
C63 C66 1.481 . S
C64 C63 1.377 1_565 S
C64 C65 1.389 . S
C64 H86 0.929 . S
C65 C61 1.397 1_565 S
C65 C64 1.389 . S
C65 H87 0.931 . S
C66 C63 1.481 . S
C66 C67 1.387 . S
C66 C71 1.390 1_545 S
C67 C66 1.387 . S
C67 C68 1.401 . S
C67 H88 0.930 . S
C68 C67 1.401 . S
C68 C69 1.376 . S
C68 C77 1.511 . S
C69 C68 1.376 . S
C69 C70 1.392 1_545 S
C69 H90 0.931 . S
C70 C69 1.392 1_565 S
C70 C71 1.361 . S
C70 C72 1.500 . S
C71 C66 1.390 1_565 S
C71 C70 1.361 . S
C71 H89 0.931 . S
C72 C70 1.500 . S
C72 C73 1.371 . S
C72 C74 1.365 . S
C73 C72 1.371 . S
C73 C83 1.386 . S
C73 H91 0.931 . S
C74 C72 1.365 . S
C74 C75 1.409 . S
C74 H92 0.929 . S
C75 C74 1.409 . S
C75 C76 1.380 . S
C75 H93 0.930 . S
C76 C75 1.380 . S
C76 C83 1.357 . S
C77 C68 1.511 . S
C77 C78 1.341 . S
C77 C79 1.371 . S
C78 C77 1.341 . S
C78 C82 1.394 . S
C78 H94 0.930 . S
C79 C77 1.371 . S
C79 C80 1.392 . S
C79 H95 0.931 . S
C80 C79 1.392 . S
C80 C81 1.331 . S
C80 H98 0.932 . S
C81 C80 1.331 . S
C81 C82 1.336 . S
C82 C78 1.394 . S
C82 C81 1.336 . S
C82 H97 0.929 . S
C83 C73 1.386 . S
C83 C76 1.357 . S
C83 H96 0.928 . S
H84 C60 0.931 . S
H85 C62 0.930 . S
H86 C64 0.929 . S
H87 C65 0.931 . S
H88 C67 0.930 . S
H89 C71 0.931 . S
H90 C69 0.931 . S
H91 C73 0.931 . S
H92 C74 0.929 . S
H93 C75 0.930 . S
H94 C78 0.930 . S
H95 C79 0.931 . S
H96 C83 0.928 . S
H97 C82 0.929 . S
H98 C80 0.932 . S
C99 C100 1.386 . S
C99 C101 1.397 . S
C99 H123 0.931 . S
C100 C99 1.386 . S
C100 C104 1.397 . S
C101 C99 1.397 . S
C101 C102 1.384 . S
C101 H124 0.930 . S
C102 C101 1.384 . S
C102 C103 1.377 . S
C102 C105 1.481 . S
C103 C102 1.377 . S
C103 C104 1.389 . S
C103 H125 0.929 . S
C104 C100 1.397 . S
C104 C103 1.389 . S
C104 H126 0.931 . S
C105 C102 1.481 . S
C105 C106 1.387 . S
C105 C110 1.390 . S
C106 C105 1.387 . S
C106 C107 1.401 . S
C106 H127 0.930 . S
C107 C106 1.401 . S
C107 C108 1.376 . S
C107 C116 1.511 . S
C108 C107 1.376 . S
C108 C109 1.392 . S
C108 H129 0.931 . S
C109 C108 1.392 . S
C109 C110 1.361 . S
C109 C111 1.500 . S
C110 C105 1.390 . S
C110 C109 1.361 . S
C110 H128 0.931 . S
C111 C109 1.500 . S
C111 C112 1.371 . S
C111 C113 1.365 . S
C112 C111 1.371 . S
C112 C122 1.386 . S
C112 H130 0.931 . S
C113 C111 1.365 . S
C113 C114 1.409 . S
C113 H131 0.929 . S
C114 C113 1.409 . S
C114 C115 1.380 . S
C114 H132 0.930 . S
C115 C114 1.380 . S
C115 C122 1.357 . S
C116 C107 1.511 . S
C116 C117 1.341 . S
C116 C118 1.371 . S
C117 C116 1.341 . S
C117 C121 1.394 . S
C117 H133 0.930 . S
C118 C116 1.371 . S
C118 C119 1.392 . S
C118 H134 0.931 . S
C119 C118 1.392 . S
C119 C120 1.331 . S
C119 H137 0.932 . S
C120 C119 1.331 . S
C120 C121 1.336 . S
C121 C117 1.394 . S
C121 C120 1.336 . S
C121 H136 0.929 . S
C122 C112 1.386 . S
C122 C115 1.357 . S
C122 H135 0.928 . S
H123 C99 0.931 . S
H124 C101 0.930 . S
H125 C103 0.929 . S
H126 C104 0.931 . S
H127 C106 0.930 . S
H128 C110 0.931 . S
H129 C108 0.931 . S
H130 C112 0.931 . S
H131 C113 0.929 . S
H132 C114 0.930 . S
H133 C117 0.930 . S
H134 C118 0.931 . S
H135 C122 0.928 . S
H136 C121 0.929 . S
H137 C119 0.932 . S
C138 C139 1.386 1_556 S
C138 C140 1.397 . S
C138 H162 0.946 . S
C139 C138 1.386 1_554 S
C139 C143 1.397 1_554 S
C140 C138 1.397 . S
C140 C141 1.384 . S
C140 H163 0.930 . S
C141 C140 1.384 . S
C141 C142 1.377 . S
C141 C144 1.481 . S
C142 C141 1.377 . S
C142 C143 1.389 . S
C142 H164 0.929 1_455 S
C143 C139 1.397 1_556 S
C143 C142 1.389 . S
C143 H165 0.931 1_455 S
C144 C141 1.481 . S
C144 C145 1.387 . S
C144 C149 1.390 . S
C145 C144 1.387 . S
C145 C146 1.401 . S
C145 H166 0.930 . S
C146 C145 1.401 . S
C146 C147 1.376 . S
C146 C155 1.511 . S
C147 C146 1.376 . S
C147 C148 1.392 . S
C147 H168 0.931 . S
C148 C147 1.392 . S
C148 C149 1.361 . S
C148 C150 1.500 1_455 S
C149 C144 1.390 . S
C149 C148 1.361 . S
C149 H167 0.931 1_455 S
C150 C148 1.500 1_655 S
C150 C151 1.371 . S
C150 C152 1.365 . S
C151 C150 1.371 . S
C151 C161 1.386 . S
C151 H169 0.931 1_655 S
C152 C150 1.365 . S
C152 C153 1.409 . S
C152 H170 0.929 . S
C153 C152 1.409 . S
C153 C154 1.380 . S
C153 H171 0.930 . S
C154 C153 1.380 . S
C154 C161 1.357 . S
C155 C146 1.511 . S
C155 C156 1.341 . S
C155 C157 1.371 . S
C156 C155 1.341 . S
C156 C160 1.394 . S
C156 H172 0.930 . S
C157 C155 1.371 . S
C157 C158 1.392 . S
C157 H173 0.931 . S
C158 C157 1.392 . S
C158 C159 1.331 . S
C158 H176 0.932 . S
C159 C158 1.331 . S
C159 C160 1.336 . S
C160 C156 1.394 . S
C160 C159 1.336 . S
C160 H175 0.929 . S
C161 C151 1.386 . S
C161 C154 1.357 . S
C161 H174 0.928 . S
H162 C138 0.946 . S
H163 C140 0.930 . S
H164 C142 0.929 1_655 S
H165 C143 0.931 1_655 S
H166 C145 0.930 . S
H167 C149 0.931 1_655 S
H168 C147 0.931 . S
H169 C151 0.931 1_455 S
H170 C152 0.929 . S
H171 C153 0.930 . S
H172 C156 0.930 . S
H173 C157 0.931 . S
H174 C161 0.928 . S
H175 C160 0.929 . S
H176 C158 0.932 . S
C177 C178 1.386 1_655 S
C177 C179 1.397 . S
C177 H201 0.931 . S
C178 C177 1.386 1_455 S
C178 C182 1.397 . S
C179 C177 1.397 . S
C179 C180 1.384 1_655 S
C179 H202 0.930 . S
C180 C179 1.384 1_455 S
C180 C181 1.377 . S
C180 C183 1.481 . S
C181 C180 1.377 . S
C181 C182 1.389 . S
C181 H203 0.929 . S
C182 C178 1.397 . S
C182 C181 1.389 . S
C182 H204 0.931 . S
C183 C180 1.481 . S
C183 C184 1.387 1_455 S
C183 C188 1.390 . S
C184 C183 1.387 1_655 S
C184 C185 1.401 . S
C184 H205 0.930 . S
C185 C184 1.401 . S
C185 C186 1.376 1_655 S
C185 C194 1.511 . S
C186 C185 1.376 1_455 S
C186 C187 1.392 . S
C186 H207 0.931 . S
C187 C186 1.392 . S
C187 C188 1.361 . S
C187 C189 1.500 . S
C188 C183 1.390 . S
C188 C187 1.361 . S
C188 H206 0.931 . S
C189 C187 1.500 . S
C189 C190 1.371 . S
C189 C191 1.365 . S
C190 C189 1.371 . S
C190 C200 1.386 . S
C190 H208 0.931 . S
C191 C189 1.365 . S
C191 C192 1.409 . S
C191 H209 0.929 . S
C192 C191 1.409 . S
C192 C193 1.380 . S
C192 H210 0.930 . S
C193 C192 1.380 . S
C193 C200 1.357 . S
C194 C185 1.511 . S
C194 C195 1.341 . S
C194 C196 1.371 . S
C195 C194 1.341 . S
C195 C199 1.394 . S
C195 H211 0.930 . S
C196 C194 1.371 . S
C196 C197 1.392 . S
C196 H212 0.931 . S
C197 C196 1.392 . S
C197 C198 1.331 . S
C197 H215 0.932 . S
C198 C197 1.331 . S
C198 C199 1.336 . S
C199 C195 1.394 . S
C199 C198 1.336 . S
C199 H214 0.929 . S
C200 C190 1.386 . S
C200 C193 1.357 . S
C200 H213 0.928 . S
H201 C177 0.931 . S
H202 C179 0.930 . S
H203 C181 0.929 . S
H204 C182 0.931 . S
H205 C184 0.930 . S
H206 C188 0.931 . S
H207 C186 0.931 . S
H208 C190 0.931 . S
H209 C191 0.929 . S
H210 C192 0.930 . S
H211 C195 0.930 . S
H212 C196 0.931 . S
H213 C200 0.928 . S
H214 C199 0.929 . S
H215 C197 0.932 . S
C216 C217 1.386 . S
C216 C218 1.397 . S
C216 H240 0.931 1_545 S
C217 C216 1.386 . S
C217 C221 1.397 . S
C218 C216 1.397 . S
C218 C219 1.384 . S
C218 H241 0.930 1_545 S
C219 C218 1.384 . S
C219 C220 1.377 . S
C219 C222 1.481 . S
C220 C219 1.377 . S
C220 C221 1.389 . S
C220 H242 0.929 . S
C221 C217 1.397 . S
C221 C220 1.389 . S
C221 H243 0.931 . S
C222 C219 1.481 . S
C222 C223 1.387 . S
C222 C227 1.390 . S
C223 C222 1.387 . S
C223 C224 1.401 . S
C223 H244 0.930 1_545 S
C224 C223 1.401 . S
C224 C225 1.376 . S
C224 C233 1.511 1_545 S
C225 C224 1.376 . S
C225 C226 1.392 . S
C225 H246 0.931 . S
C226 C225 1.392 . S
C226 C227 1.361 . S
C226 C228 1.500 . S
C227 C222 1.390 . S
C227 C226 1.361 . S
C227 H245 0.931 . S
C228 C226 1.500 . S
C228 C229 1.371 . S
C228 C230 1.365 . S
C229 C228 1.371 . S
C229 C239 1.386 . S
C229 H247 0.931 . S
C230 C228 1.365 . S
C230 C231 1.409 . S
C230 H248 0.929 . S
C231 C230 1.409 . S
C231 C232 1.380 . S
C231 H249 0.930 . S
C232 C231 1.380 . S
C232 C239 1.357 . S
C233 C224 1.511 1_565 S
C233 C234 1.341 . S
C233 C235 1.371 . S
C234 C233 1.341 . S
C234 C238 1.394 . S
C234 H250 0.930 . S
C235 C233 1.371 . S
C235 C236 1.392 . S
C235 H251 0.931 1_565 S
C236 C235 1.392 . S
C236 C237 1.331 . S
C236 H254 0.932 . S
C237 C236 1.331 . S
C237 C238 1.336 . S
C238 C234 1.394 . S
C238 C237 1.336 . S
C238 H253 0.929 . S
C239 C229 1.386 . S
C239 C232 1.357 . S
C239 H252 0.928 . S
H240 C216 0.931 1_565 S
H241 C218 0.930 1_565 S
H242 C220 0.929 . S
H243 C221 0.931 . S
H244 C223 0.930 1_565 S
H245 C227 0.931 . S
H246 C225 0.931 . S
H247 C229 0.931 . S
H248 C230 0.929 . S
H249 C231 0.930 . S
H250 C234 0.930 . S
H251 C235 0.931 1_545 S
H252 C239 0.928 . S
H253 C238 0.929 . S
H254 C236 0.932 . S
C255 C256 1.386 1_554 S
C255 C257 1.397 . S
C255 H279 0.931 1_554 S
C256 C255 1.386 1_556 S
C256 C260 1.397 1_556 S
C257 C255 1.397 . S
C257 C258 1.384 . S
C257 H280 0.930 . S
C258 C257 1.384 . S
C258 C259 1.377 . S
C258 C261 1.481 . S
C259 C258 1.377 . S
C259 C260 1.389 . S
C259 H281 0.929 . S
C260 C256 1.397 1_554 S
C260 C259 1.389 . S
C260 H282 0.931 . S
C261 C258 1.481 . S
C261 C262 1.387 . S
C261 C266 1.390 . S
C262 C261 1.387 . S
C262 C263 1.401 . S
C262 H283 0.930 . S
C263 C262 1.401 . S
C263 C264 1.376 . S
C263 C272 1.511 . S
C264 C263 1.376 . S
C264 C265 1.392 . S
C264 H285 0.931 . S
C265 C264 1.392 . S
C265 C266 1.361 . S
C265 C267 1.500 . S
C266 C261 1.390 . S
C266 C265 1.361 . S
C266 H284 0.931 . S
C267 C265 1.500 . S
C267 C268 1.371 . S
C267 C269 1.365 . S
C268 C267 1.371 . S
C268 C278 1.386 . S
C268 H286 0.931 . S
C269 C267 1.365 . S
C269 C270 1.409 . S
C269 H287 0.929 . S
C270 C269 1.409 . S
C270 C271 1.380 . S
C270 H288 0.930 . S
C271 C270 1.380 . S
C271 C278 1.357 . S
C272 C263 1.511 . S
C272 C273 1.341 . S
C272 C274 1.371 . S
C273 C272 1.341 . S
C273 C277 1.394 . S
C273 H289 0.930 . S
C274 C272 1.371 . S
C274 C275 1.392 . S
C274 H290 0.931 . S
C275 C274 1.392 . S
C275 C276 1.331 . S
C275 H293 0.932 . S
C276 C275 1.331 . S
C276 C277 1.336 . S
C277 C273 1.394 . S
C277 C276 1.336 . S
C277 H292 0.929 . S
C278 C268 1.386 . S
C278 C271 1.357 . S
C278 H291 0.928 . S
H279 C255 0.931 1_556 S
H280 C257 0.930 . S
H281 C259 0.929 . S
H282 C260 0.931 . S
H283 C262 0.930 . S
H284 C266 0.931 . S
H285 C264 0.931 . S
H286 C268 0.931 . S
H287 C269 0.929 . S
H288 C270 0.930 . S
H289 C273 0.930 . S
H290 C274 0.931 . S
H291 C278 0.928 . S
H292 C277 0.929 . S
H293 C275 0.932 . S
C294 C295 1.369 . S
C294 C296 1.419 . S
C294 H298 0.930 . S
C295 C294 1.369 . S
C295 C304 1.429 . S
C296 C294 1.419 . S
C296 C297 1.363 . S
C296 H299 0.929 . S
C297 C296 1.363 . S
C297 C303 1.428 . S
H298 C294 0.930 . S
H299 C296 0.929 . S
S300 N301 1.613 . S
S300 N302 1.610 . S
N301 S300 1.613 . S
N301 C304 1.350 . S
N302 S300 1.610 . S
N302 C303 1.351 . S
C303 C297 1.428 . S
C303 N302 1.351 . S
C303 C304 1.434 . S
C304 C295 1.429 . S
C304 N301 1.350 . S
C304 C303 1.434 . S
C305 C306 1.369 . S
C305 C307 1.419 . S
C305 H309 0.930 . S
C306 C305 1.369 . S
C306 C315 1.429 . S
C307 C305 1.419 . S
C307 C308 1.363 . S
C307 H310 0.929 . S
C308 C307 1.363 . S
C308 C314 1.428 . S
H309 C305 0.930 . S
H310 C307 0.929 . S
S311 N312 1.613 . S
S311 N313 1.610 . S
N312 S311 1.613 . S
N312 C315 1.350 . S
N313 S311 1.610 . S
N313 C314 1.351 . S
C314 C308 1.428 . S
C314 N313 1.351 . S
C314 C315 1.434 . S
C315 C306 1.429 . S
C315 N312 1.350 . S
C315 C314 1.434 . S
C316 C317 1.369 . S
C316 C318 1.419 . S
C316 H320 0.930 . S
C317 C316 1.369 . S
C317 C326 1.429 . S
C318 C316 1.419 . S
C318 C319 1.363 . S
C318 H321 0.929 . S
C319 C318 1.363 . S
C319 C325 1.428 . S
H320 C316 0.930 . S
H321 C318 0.929 . S
S322 N323 1.613 . S
S322 N324 1.610 . S
N323 S322 1.613 . S
N323 C326 1.350 . S
N324 S322 1.610 . S
N324 C325 1.351 . S
C325 C319 1.428 . S
C325 N324 1.351 . S
C325 C326 1.434 . S
C326 C317 1.429 . S
C326 N323 1.350 . S
C326 C325 1.434 . S
C327 C328 1.369 . S
C327 C329 1.419 . S
C327 H331 0.930 . S
C328 C327 1.369 . S
C328 C337 1.429 . S
C329 C327 1.419 . S
C329 C330 1.363 . S
C329 H332 0.929 . S
C330 C329 1.363 . S
C330 C336 1.428 . S
H331 C327 0.930 . S
H332 C329 0.929 . S
S333 N334 1.613 . S
S333 N335 1.610 . S
N334 S333 1.613 . S
N334 C337 1.350 . S
N335 S333 1.610 . S
N335 C336 1.351 . S
C336 C330 1.428 . S
C336 N335 1.351 . S
C336 C337 1.434 . S
C337 C328 1.429 . S
C337 N334 1.350 . S
C337 C336 1.434 . S
C338 C339 1.369 . S
C338 C340 1.419 . S
C338 H342 0.930 . S
C339 C338 1.369 . S
C339 C348 1.429 . S
C340 C338 1.419 . S
C340 C341 1.363 . S
C340 H343 0.929 . S
C341 C340 1.363 . S
C341 C347 1.428 . S
H342 C338 0.930 . S
H343 C340 0.929 . S
S344 N345 1.613 . S
S344 N346 1.610 . S
N345 S344 1.613 . S
N345 C348 1.350 . S
N346 S344 1.610 . S
N346 C347 1.351 . S
C347 C341 1.428 . S
C347 N346 1.351 . S
C347 C348 1.434 . S
C348 C339 1.429 . S
C348 N345 1.350 . S
C348 C347 1.434 . S
C349 C350 1.369 . S
C349 C351 1.419 . S
C349 H353 0.930 . S
C350 C349 1.369 . S
C350 C359 1.429 . S
C351 C349 1.419 . S
C351 C352 1.363 . S
C351 H354 0.929 . S
C352 C351 1.363 . S
C352 C358 1.428 . S
H353 C349 0.930 . S
H354 C351 0.929 . S
S355 N356 1.613 . S
S355 N357 1.610 . S
N356 S355 1.613 . S
N356 C359 1.350 . S
N357 S355 1.610 . S
N357 C358 1.351 . S
C358 C352 1.428 . S
C358 N357 1.351 . S
C358 C359 1.434 . S
C359 C350 1.429 . S
C359 N356 1.350 . S
C359 C358 1.434 . S
C360 C361 1.369 . S
C360 C362 1.419 . S
C360 H364 0.930 . S
C361 C360 1.369 . S
C361 C370 1.429 . S
C362 C360 1.419 . S
C362 C363 1.363 . S
C362 H365 0.929 . S
C363 C362 1.363 . S
C363 C369 1.428 . S
H364 C360 0.930 . S
H365 C362 0.929 . S
S366 N367 1.613 . S
S366 N368 1.610 . S
N367 S366 1.613 . S
N367 C370 1.350 . S
N368 S366 1.610 . S
N368 C369 1.351 . S
C369 C363 1.428 . S
C369 N368 1.351 . S
C369 C370 1.434 . S
C370 C361 1.429 . S
C370 N367 1.350 . S
C370 C369 1.434 . S
C371 C372 1.369 . S
C371 C373 1.419 . S
C371 H375 0.930 . S
C372 C371 1.369 . S
C372 C381 1.429 . S
C373 C371 1.419 . S
C373 C374 1.363 . S
C373 H376 0.929 . S
C374 C373 1.363 . S
C374 C380 1.428 . S
H375 C371 0.930 . S
H376 C373 0.929 . S
S377 N378 1.613 . S
S377 N379 1.610 . S
N378 S377 1.613 . S
N378 C381 1.350 . S
N379 S377 1.610 . S
N379 C380 1.351 . S
C380 C374 1.428 . S
C380 N379 1.351 . S
C380 C381 1.434 . S
C381 C372 1.429 . S
C381 N378 1.350 . S
C381 C380 1.434 . S
C382 C383 1.369 . S
C382 C384 1.419 . S
C382 H386 0.930 . S
C383 C382 1.369 . S
C383 C392 1.429 . S
C384 C382 1.419 . S
C384 C385 1.363 . S
C384 H387 0.929 . S
C385 C384 1.363 . S
C385 C391 1.428 . S
H386 C382 0.930 . S
H387 C384 0.929 . S
S388 N389 1.613 . S
S388 N390 1.610 . S
N389 S388 1.613 . S
N389 C392 1.350 . S
N390 S388 1.610 . S
N390 C391 1.351 . S
C391 C385 1.428 . S
C391 N390 1.351 . S
C391 C392 1.434 . S
C392 C383 1.429 . S
C392 N389 1.350 . S
C392 C391 1.434 . S
C393 C394 1.369 . S
C393 C395 1.419 . S
C393 H397 0.930 . S
C394 C393 1.369 . S
C394 C403 1.429 . S
C395 C393 1.419 . S
C395 C396 1.363 . S
C395 H398 0.929 . S
C396 C395 1.363 . S
C396 C402 1.428 . S
H397 C393 0.930 . S
H398 C395 0.929 . S
S399 N400 1.613 . S
S399 N401 1.610 . S
N400 S399 1.613 . S
N400 C403 1.350 . S
N401 S399 1.610 . S
N401 C402 1.351 . S
C402 C396 1.428 . S
C402 N401 1.351 . S
C402 C403 1.434 . S
C403 C394 1.429 . S
C403 N400 1.350 . S
C403 C402 1.434 . S
C404 C405 1.369 . S
C404 C406 1.419 . S
C404 H408 0.930 . S
C405 C404 1.369 . S
C405 C414 1.429 . S
C406 C404 1.419 . S
C406 C407 1.363 . S
C406 H409 0.929 . S
C407 C406 1.363 . S
C407 C413 1.428 . S
H408 C404 0.930 . S
H409 C406 0.929 . S
S410 N411 1.613 . S
S410 N412 1.610 . S
N411 S410 1.613 . S
N411 C414 1.350 . S
N412 S410 1.610 . S
N412 C413 1.351 . S
C413 C407 1.428 . S
C413 N412 1.351 . S
C413 C414 1.434 . S
C414 C405 1.429 . S
C414 N411 1.350 . S
C414 C413 1.434 . S
C415 C416 1.369 . S
C415 C417 1.419 . S
C415 H419 0.930 . S
C416 C415 1.369 . S
C416 C425 1.429 . S
C417 C415 1.419 . S
C417 C418 1.363 . S
C417 H420 0.929 . S
C418 C417 1.363 . S
C418 C424 1.428 . S
H419 C415 0.930 . S
H420 C417 0.929 . S
S421 N422 1.613 . S
S421 N423 1.610 . S
N422 S421 1.613 . S
N422 C425 1.350 . S
N423 S421 1.610 . S
N423 C424 1.351 . S
C424 C418 1.428 . S
C424 N423 1.351 . S
C424 C425 1.434 . S
C425 C416 1.429 . S
C425 N422 1.350 . S
C425 C424 1.434 . S
C426 C427 1.369 . S
C426 C428 1.419 . S
C426 H430 0.930 1_455 S
C427 C426 1.369 . S
C427 C436 1.429 . S
C428 C426 1.419 . S
C428 C429 1.363 . S
C428 H431 0.929 1_455 S
C429 C428 1.363 . S
C429 C435 1.428 . S
H430 C426 0.930 1_655 S
H431 C428 0.929 1_655 S
S432 N433 1.613 . S
S432 N434 1.610 . S
N433 S432 1.613 . S
N433 C436 1.350 . S
N434 S432 1.610 . S
N434 C435 1.351 . S
C435 C429 1.428 . S
C435 N434 1.351 . S
C435 C436 1.434 . S
C436 C427 1.429 . S
C436 N433 1.350 . S
C436 C435 1.434 . S
C437 C438 1.369 1_565 S
C437 C439 1.419 . S
C437 H441 0.930 . S
C438 C437 1.369 1_545 S
C438 C447 1.429 . S
C439 C437 1.419 . S
C439 C440 1.363 1_565 S
C439 H442 0.929 . S
C440 C439 1.363 1_545 S
C440 C446 1.428 . S
H441 C437 0.930 . S
H442 C439 0.929 . S
S443 N444 1.613 . S
S443 N445 1.610 . S
N444 S443 1.613 . S
N444 C447 1.350 . S
N445 S443 1.610 . S
N445 C446 1.351 . S
C446 C440 1.428 . S
C446 N445 1.351 . S
C446 C447 1.434 . S
C447 C438 1.429 . S
C447 N444 1.350 . S
C447 C446 1.434 . S
C448 C449 1.369 . S
C448 C450 1.419 . S
C448 H452 0.930 . S
C449 C448 1.369 . S
C449 C458 1.429 . S
C450 C448 1.419 . S
C450 C451 1.363 . S
C450 H453 0.929 . S
C451 C450 1.363 . S
C451 C457 1.428 . S
H452 C448 0.930 . S
H453 C450 0.929 . S
S454 N455 1.613 . S
S454 N456 1.610 . S
N455 S454 1.613 . S
N455 C458 1.350 . S
N456 S454 1.610 . S
N456 C457 1.351 . S
C457 C451 1.428 . S
C457 N456 1.351 . S
C457 C458 1.434 . S
C458 C449 1.429 . S
C458 N455 1.350 . S
C458 C457 1.434 . S
C459 C460 1.369 . S
C459 C461 1.419 . S
C459 H463 0.930 1_545 S
C460 C459 1.369 . S
C460 C469 1.429 . S
C461 C459 1.419 . S
C461 C462 1.363 . S
C461 H464 0.929 1_545 S
C462 C461 1.363 . S
C462 C468 1.428 . S
H463 C459 0.930 1_565 S
H464 C461 0.929 1_565 S
S465 N466 1.613 . S
S465 N467 1.610 . S
N466 S465 1.613 . S
N466 C469 1.350 . S
N467 S465 1.610 . S
N467 C468 1.351 . S
C468 C462 1.428 . S
C468 N467 1.351 . S
C468 C469 1.434 . S
C469 C460 1.429 . S
C469 N466 1.350 . S
C469 C468 1.434 . S
C470 C471 1.369 . S
C470 C472 1.419 . S
C470 H474 0.930 . S
C471 C470 1.369 . S
C471 C480 1.429 . S
C472 C470 1.419 . S
C472 C473 1.363 . S
C472 H475 0.929 . S
C473 C472 1.363 . S
C473 C479 1.428 . S
H474 C470 0.930 . S
H475 C472 0.929 . S
S476 N477 1.613 . S
S476 N478 1.610 . S
N477 S476 1.613 . S
N477 C480 1.350 . S
N478 S476 1.610 . S
N478 C479 1.351 . S
C479 C473 1.428 . S
C479 N478 1.351 . S
C479 C480 1.434 . S
C480 C471 1.429 . S
C480 N477 1.350 . S
C480 C479 1.434 . S
C481 C482 1.369 . S
C481 C483 1.419 . S
C481 H485 0.930 . S
C482 C481 1.369 . S
C482 C491 1.429 1_455 S
C483 C481 1.419 . S
C483 C484 1.363 . S
C483 H486 0.929 . S
C484 C483 1.363 . S
C484 C490 1.428 1_455 S
H485 C481 0.930 . S
H486 C483 0.929 . S
S487 N488 1.613 . S
S487 N489 1.610 . S
N488 S487 1.613 . S
N488 C491 1.350 . S
N489 S487 1.610 . S
N489 C490 1.351 . S
C490 C484 1.428 1_655 S
C490 N489 1.351 . S
C490 C491 1.434 . S
C491 C482 1.429 1_655 S
C491 N488 1.350 . S
C491 C490 1.434 . S
C295 C2 1.161 . S
C297 C271 1.148 . S
C306 C21 1.122 . S
C308 C198 1.099 . S
C317 C42 1.166 . S
C319 C237 1.153 . S
C328 C1 1.113 . S
C330 C276 1.087 . S
C341 C193 1.131 . S
C339 C22 1.156 . S
C352 C232 1.087 . S
C350 C41 1.111 . S
C361 C38 2.028 . S
C363 C120 1.957 . S
C372 C59 2.058 . S
C374 C154 1.999 . S
C383 C18 2.013 . S
C385 C76 1.941 . S
C396 C115 1.985 . S
C394 C39 2.049 . S
C407 C159 1.947 . S
C405 C58 2.018 . S
C416 C19 2.060 . S
C418 C81 2.004 . S
C429 C139 1.577 . S
C427 C9 1.505 . S
C438 C29 1.507 . S
C440 C61 1.578 . S
C449 C49 1.507 . S
C451 C100 1.576 . S
C462 C217 1.391 . S
C460 C28 1.370 . S
C473 C256 1.391 . S
C471 C48 1.367 . S
C482 C8 1.367 . S
C484 C178 1.389 . S
