# Generated by pormake.
# Topology zzz, (3,6)-cn, num edge types: 1
# Building blocks:
#     Node 0, Type 0, BuildingBlock: BELTOD_clean_linker_0, # of connection points: 3
#     Node 1, Type 0, BuildingBlock: BELTOD_clean_linker_0, # of connection points: 3
#     Node 2, Type 0, BuildingBlock: BELTOD_clean_linker_0, # of connection points: 3
#     Node 3, Type 0, BuildingBlock: BELTOD_clean_linker_0, # of connection points: 3
#     Node 4, Type 0, BuildingBlock: BELTOD_clean_linker_0, # of connection points: 3
#     Node 5, Type 0, BuildingBlock: BELTOD_clean_linker_0, # of connection points: 3
#     Node 6, Type 0, BuildingBlock: BELTOD_clean_linker_0, # of connection points: 3
#     Node 7, Type 0, BuildingBlock: BELTOD_clean_linker_0, # of connection points: 3
#     Node 8, Type 1, BuildingBlock: CUWYAW_clean_sbu_0, # of connection points: 6
#     Node 9, Type 1, BuildingBlock: CUWYAW_clean_sbu_0, # of connection points: 6
#     Node 10, Type 1, BuildingBlock: CUWYAW_clean_sbu_0, # of connection points: 6
#     Node 11, Type 1, BuildingBlock: CUWYAW_clean_sbu_0, # of connection points: 6
#     Edge 12, Type (0, 1), BuildingBlock: AJUNOK_clean_linker_0, # of connection points: 2
#     Edge 13, Type (0, 1), BuildingBlock: AJUNOK_clean_linker_0, # of connection points: 2
#     Edge 14, Type (0, 1), BuildingBlock: AJUNOK_clean_linker_0, # of connection points: 2
#     Edge 15, Type (0, 1), BuildingBlock: AJUNOK_clean_linker_0, # of connection points: 2
#     Edge 16, Type (0, 1), BuildingBlock: AJUNOK_clean_linker_0, # of connection points: 2
#     Edge 17, Type (0, 1), BuildingBlock: AJUNOK_clean_linker_0, # of connection points: 2
#     Edge 18, Type (0, 1), BuildingBlock: AJUNOK_clean_linker_0, # of connection points: 2
#     Edge 19, Type (0, 1), BuildingBlock: AJUNOK_clean_linker_0, # of connection points: 2
#     Edge 20, Type (0, 1), BuildingBlock: AJUNOK_clean_linker_0, # of connection points: 2
#     Edge 21, Type (0, 1), BuildingBlock: AJUNOK_clean_linker_0, # of connection points: 2
#     Edge 22, Type (0, 1), BuildingBlock: AJUNOK_clean_linker_0, # of connection points: 2
#     Edge 23, Type (0, 1), BuildingBlock: AJUNOK_clean_linker_0, # of connection points: 2
#     Edge 24, Type (0, 1), BuildingBlock: AJUNOK_clean_linker_0, # of connection points: 2
#     Edge 25, Type (0, 1), BuildingBlock: AJUNOK_clean_linker_0, # of connection points: 2
#     Edge 26, Type (0, 1), BuildingBlock: AJUNOK_clean_linker_0, # of connection points: 2
#     Edge 27, Type (0, 1), BuildingBlock: AJUNOK_clean_linker_0, # of connection points: 2
#     Edge 28, Type (0, 1), BuildingBlock: AJUNOK_clean_linker_0, # of connection points: 2
#     Edge 29, Type (0, 1), BuildingBlock: AJUNOK_clean_linker_0, # of connection points: 2
#     Edge 30, Type (0, 1), BuildingBlock: AJUNOK_clean_linker_0, # of connection points: 2
#     Edge 31, Type (0, 1), BuildingBlock: AJUNOK_clean_linker_0, # of connection points: 2
#     Edge 32, Type (0, 1), BuildingBlock: AJUNOK_clean_linker_0, # of connection points: 2
#     Edge 33, Type (0, 1), BuildingBlock: AJUNOK_clean_linker_0, # of connection points: 2
#     Edge 34, Type (0, 1), BuildingBlock: AJUNOK_clean_linker_0, # of connection points: 2
#     Edge 35, Type (0, 1), BuildingBlock: AJUNOK_clean_linker_0, # of connection points: 2
# Relax obj value: 0.484
# Max RMSD: 0.230
# Mean RMSD: 0.223
data_MOF--net-zzz--node1-CUWYAW_clean_sbu_0--node2-BELTOD_clean_linker_0--edge1-AJUNOK_clean_linker_0
_symmetry_space_group_name_H-M    P1
_symmetry_Int_Tables_number       1
_symmetry_cell_setting            triclinic
loop_
_symmetry_equiv_pos_as_xyz
'x, y, z'
_cell_length_a     41.868661
_cell_length_b     41.77692
_cell_length_c     13.79301
_cell_angle_alpha  89.984599
_cell_angle_beta   89.77101
_cell_angle_gamma 89.828036
loop_
_atom_site_label
_atom_site_type_symbol
_atom_site_fract_x
_atom_site_fract_y
_atom_site_fract_z
_atom_type_partial_charge
P0 P 0.72207 0.46813 0.44503 0.0
H1 H 0.73886 0.49353 0.63725 0.0
H2 H 0.7905 0.50799 0.7061 0.0
H3 H 0.83278 0.50407 0.42031 0.0
H4 H 0.78086 0.49139 0.35164 0.0
H5 H 0.65912 0.4488 0.38104 0.0
H6 H 0.62772 0.46 0.2363 0.0
H7 H 0.6979 0.52948 0.14533 0.0
H8 H 0.72971 0.51748 0.29022 0.0
H9 H 0.75269 0.41601 0.55003 0.0
H10 H 0.73936 0.44416 0.25202 0.0
O11 O 0.69865 0.45848 0.53872 0.0
H12 H 0.80029 0.38557 0.50346 0.0
H13 H 0.78699 0.41505 0.20615 0.0
C14 C 0.75547 0.49191 0.4885 0.0
C15 C 0.75883 0.4973 0.58854 0.0
C16 C 0.78868 0.50501 0.62833 0.0
C17 C 0.8161 0.50724 0.56925 0.0
C18 C 0.81228 0.50348 0.46835 0.0
C19 C 0.78233 0.49628 0.42855 0.0
C20 C 0.6967 0.4825 0.34746 0.0
C21 C 0.66752 0.46695 0.33107 0.0
C22 C 0.64951 0.47336 0.24787 0.0
C23 C 0.66037 0.49533 0.1779 0.0
C24 C 0.68909 0.51187 0.19638 0.0
C25 C 0.70718 0.50535 0.27996 0.0
C26 C 0.74266 0.43272 0.40483 0.0
C27 C 0.75893 0.41426 0.47392 0.0
C28 C 0.78643 0.39725 0.44748 0.0
C29 C 0.79804 0.39898 0.3519 0.0
C30 C 0.77885 0.41339 0.28062 0.0
C31 C 0.75135 0.43016 0.30696 0.0
P32 P 0.05128 0.7182 0.4566 0.0
H33 H 0.04304 0.74066 0.65534 0.0
H34 H 0.03085 0.79332 0.71789 0.0
H35 H 0.99485 0.82139 0.43744 0.0
H36 H 1.00958 0.76863 0.37292 0.0
H37 H 0.08537 0.66673 0.36824 0.0
H38 H 0.07409 0.6283 0.24089 0.0
H39 H 0.97823 0.66549 0.21732 0.0
H40 H 0.98986 0.70443 0.34831 0.0
H41 H 0.10199 0.7583 0.53283 0.0
H42 H 0.06513 0.73209 0.25204 0.0
O43 O 0.06847 0.69814 0.54718 0.0
H44 H 0.1264 0.80598 0.46125 0.0
H45 H 0.09046 0.77876 0.1809 0.0
C46 C 0.02665 0.7499 0.50927 0.0
C47 C 0.03122 0.75746 0.60763 0.0
C48 C 0.02416 0.78806 0.64393 0.0
C49 C 1.01163 0.81216 0.58353 0.0
C50 C 1.00478 0.80378 0.48647 0.0
C51 C 1.01245 0.77318 0.44968 0.0
C52 C 0.03839 0.68811 0.36959 0.0
C53 C 0.06155 0.6661 0.3382 0.0
C54 C 0.05513 0.64422 0.26452 0.0
C55 C 0.02522 0.64354 0.21899 0.0
C56 C 1.0014 0.66504 0.25189 0.0
C57 C 1.00802 0.68738 0.32644 0.0
C58 C 0.08165 0.74164 0.39805 0.0
C59 C 0.10088 0.76159 0.45502 0.0
C60 C 0.11497 0.78874 0.41419 0.0
C61 C 0.11019 0.79575 0.31597 0.0
C62 C 0.09471 0.77344 0.25668 0.0
C63 C 0.08014 0.74672 0.29768 0.0
P64 P 0.79967 0.04005 0.40821 0.0
H65 H 0.78299 0.01648 0.60332 0.0
H66 H 0.73139 1.00233 0.67438 0.0
H67 H 0.68981 1.00096 0.38857 0.0
H68 H 0.7416 1.01415 0.31797 0.0
H69 H 0.86743 0.05045 0.37246 0.0
H70 H 0.90237 0.03915 0.23519 0.0
H71 H 0.82766 0.98324 0.10321 0.0
H72 H 0.79221 0.99574 0.24036 0.0
H73 H 0.74801 0.08034 0.47984 0.0
H74 H 0.80736 0.07633 0.22355 0.0
O75 O 0.8211 0.05285 0.50227 0.0
H76 H 0.7078 0.10981 0.39072 0.0
H77 H 0.76849 0.10879 0.13648 0.0
C78 C 0.76669 0.0159 0.45456 0.0
C79 C 0.7632 1.01169 0.55523 0.0
C80 C 0.73338 1.00412 0.59625 0.0
C81 C 0.70612 1.00058 0.53776 0.0
C82 C 0.71017 1.00274 0.43634 0.0
C83 C 0.74008 1.01005 0.39537 0.0
C84 C 0.82718 0.02353 0.31832 0.0
C85 C 0.85868 0.03504 0.31541 0.0
C86 C 0.87877 0.02862 0.23618 0.0
C87 C 0.86791 1.01065 0.15668 0.0
C88 C 0.83674 0.99784 0.1617 0.0
C89 C 0.8165 1.0045 0.24114 0.0
C90 C 0.77969 0.07433 0.35678 0.0
C91 C 0.75305 0.08697 0.40541 0.0
C92 C 0.73008 0.10422 0.35431 0.0
C93 C 0.73412 0.11009 0.2546 0.0
C94 C 0.76385 0.10291 0.21168 0.0
C95 C 0.78627 0.08449 0.26186 0.0
P96 P 0.47642 0.7878 0.38036 0.0
H97 H 0.46705 0.75959 0.56977 0.0
H98 H 0.48142 0.70869 0.63973 0.0
H99 H 0.54384 0.68966 0.39609 0.0
H100 H 0.52655 0.74024 0.32123 0.0
H101 H 0.49683 0.85506 0.3876 0.0
H102 H 0.51384 0.89245 0.26415 0.0
H103 H 0.51734 0.81521 0.05551 0.0
H104 H 0.5078 0.77726 0.18591 0.0
H105 H 0.41741 0.76434 0.46798 0.0
H106 H 0.45665 0.76895 0.17889 0.0
O107 O 0.46297 0.81206 0.46776 0.0
H108 H 0.3827 0.72068 0.41743 0.0
H109 H 0.42535 0.72389 0.1318 0.0
C110 C 0.49637 0.75459 0.44106 0.0
C111 C 0.48457 0.74507 0.53203 0.0
C112 C 0.49314 0.71565 0.57299 0.0
C113 C 0.5147 0.69488 0.52589 0.0
C114 C 0.52726 0.70483 0.43534 0.0
C115 C 0.51783 0.73413 0.39281 0.0
C116 C 0.49821 0.81327 0.29483 0.0
C117 C 0.50187 0.84595 0.3157 0.0
C118 C 0.51064 0.86777 0.24312 0.0
C119 C 0.51393 0.85799 0.14559 0.0
C120 C 0.51389 0.8246 0.12782 0.0
C121 C 0.50748 0.80255 0.20252 0.0
C122 C 0.44148 0.76883 0.3294 0.0
C123 C 0.41832 0.75653 0.39318 0.0
C124 C 0.3987 0.73121 0.36453 0.0
C125 C 0.40279 0.71721 0.27259 0.0
C126 C 0.42203 0.73323 0.20438 0.0
C127 C 0.44096 0.75893 0.23244 0.0
P128 P 0.28503 0.49773 0.22757 0.0
H129 H 0.2483 0.44427 0.14706 0.0
H130 H 0.20313 0.44367 0.03724 0.0
H131 H 0.2246 0.54029 0.94896 0.0
H132 H 0.27098 0.54031 0.05593 0.0
H133 H 0.33192 0.44568 0.23957 0.0
H134 H 0.38197 0.44345 0.32988 0.0
H135 H 0.38303 0.54662 0.3439 0.0
H136 H 0.33436 0.54878 0.25091 0.0
H137 H 0.24907 0.50556 0.40808 0.0
H138 H 0.2866 0.56748 0.18446 0.0
O139 O 0.27384 0.46661 0.29573 0.0
H140 H 0.22053 0.55016 0.47802 0.0
H141 H 0.2576 0.61267 0.25504 0.0
C142 C 0.26281 0.49286 0.11421 0.0
C143 C 0.24423 0.46515 0.10231 0.0
C144 C 0.21796 0.46486 0.03955 0.0
C145 C 0.20944 0.49225 0.98605 0.0
C146 C 0.23014 0.51877 0.9894 0.0
C147 C 0.25671 0.51892 0.05204 0.0
C148 C 0.3284 0.49736 0.23975 0.0
C149 C 0.34368 0.46794 0.25769 0.0
C150 C 0.37219 0.46663 0.311 0.0
C151 C 0.38632 0.49479 0.34675 0.0
C152 C 0.37315 0.52433 0.31788 0.0
C153 C 0.34476 0.52558 0.26428 0.0
C154 C 0.2692 0.53266 0.28859 0.0
C155 C 0.25178 0.52882 0.37463 0.0
C156 C 0.23582 0.5547 0.41601 0.0
C157 C 0.237 0.58514 0.37247 0.0
C158 C 0.25629 0.58951 0.29013 0.0
C159 C 0.2724 0.56348 0.24882 0.0
P160 P 0.0428 0.30993 0.06669 0.0
H161 H 0.02563 0.28698 0.8726 0.0
H162 H 0.01495 0.23314 0.81523 0.0
H163 H 0.99893 0.20208 0.10985 0.0
H164 H 1.01067 0.25601 0.16666 0.0
H165 H 0.04586 0.37966 0.08743 0.0
H166 H 0.03525 0.41607 0.22183 0.0
H167 H 0.99851 0.33735 0.39096 0.0
H168 H 1.00809 0.30119 0.2548 0.0
H169 H 0.0845 0.26136 0.98096 0.0
H170 H 0.07922 0.31218 0.25246 0.0
O171 O 0.0539 0.33146 0.97039 0.0
H172 H 0.09881 0.2127 0.06654 0.0
H173 H 0.09671 0.26425 0.33725 0.0
C174 C 0.01854 0.27631 0.02472 0.0
C175 C 0.01829 0.26916 0.92505 0.0
C176 C 1.0123 0.23794 0.89194 0.0
C177 C 1.00602 0.21283 0.9575 0.0
C178 C 1.00387 0.22056 0.05682 0.0
C179 C 1.00995 0.25183 0.0897 0.0
C180 C 0.02747 0.33741 0.15924 0.0
C181 C 0.03483 0.37016 0.15239 0.0
C182 C 0.02925 0.39104 0.23042 0.0
C183 C 0.01682 0.37965 0.31885 0.0
C184 C 1.00811 0.3471 0.32423 0.0
C185 C 1.01343 0.32626 0.24559 0.0
C186 C 0.07766 0.28931 0.11154 0.0
C187 C 0.08857 0.26275 0.05833 0.0
C188 C 0.0971 0.23479 0.10741 0.0
C189 C 0.09635 0.23434 0.20911 0.0
C190 C 0.09554 0.26374 0.2588 0.0
C191 C 0.08531 0.29122 0.21019 0.0
P192 P 0.22573 0.05859 0.10898 0.0
H193 H 0.2365 0.03256 0.91224 0.0
H194 H 0.28544 1.01391 0.83391 0.0
H195 H 0.33189 1.01064 0.11298 0.0
H196 H 0.28186 0.02534 0.19109 0.0
H197 H 0.18856 0.0952 0.24795 0.0
H198 H 0.1504 0.08165 0.37443 0.0
H199 H 0.15743 0.98193 0.29327 0.0
H200 H 0.19764 0.99581 0.16998 0.0
H201 H 0.2636 0.10991 0.0213 0.0
H202 H 0.24775 0.0705 0.30629 0.0
O203 O 0.2051 0.07529 0.01882 0.0
H204 H 0.31585 0.12934 0.07256 0.0
H205 H 0.29958 0.08795 0.35589 0.0
C206 C 0.25521 0.0309 0.05807 0.0
C207 C 0.25675 0.02643 0.9572 0.0
C208 C 0.28534 0.01666 0.91188 0.0
C209 C 0.31362 1.01231 0.96579 0.0
C210 C 0.31105 1.01389 0.06779 0.0
C211 C 0.28212 0.02239 0.11317 0.0
C212 C 0.19706 0.04643 0.20169 0.0
C213 C 0.18236 0.07027 0.25828 0.0
C214 C 0.16004 0.06248 0.33023 0.0
C215 C 0.15087 0.03053 0.3465 0.0
C216 C 0.16455 1.00669 0.28615 0.0
C217 C 0.18749 1.01456 0.21479 0.0
C218 C 0.25183 0.08837 0.15946 0.0
C219 C 0.27057 0.10687 0.09628 0.0
C220 C 0.3008 0.11738 0.12515 0.0
C221 C 0.31282 0.10862 0.21655 0.0
C222 C 0.29161 0.09497 0.28438 0.0
C223 C 0.26142 0.08493 0.25599 0.0
P224 P 0.466 0.22036 0.10115 0.0
H225 H 0.48534 0.23101 0.8982 0.0
H226 H 0.50433 0.27981 0.82081 0.0
H227 H 0.52547 0.31953 0.10238 0.0
H228 H 0.50938 0.26943 0.17812 0.0
H229 H 0.43132 0.19328 0.26513 0.0
H230 H 0.44455 0.15437 0.38963 0.0
H231 H 0.53787 0.14154 0.25977 0.0
H232 H 0.52506 0.18289 0.13942 0.0
H233 H 0.42082 0.26244 1.00482 0.0
H234 H 0.45646 0.24815 0.29458 0.0
O235 O 0.44707 0.19948 0.0159 0.0
H236 H 0.4121 0.319 0.04069 0.0
H237 H 0.44667 0.30365 0.33135 0.0
C238 C 0.49557 0.2463 0.04459 0.0
C239 C 0.49557 0.24952 0.94322 0.0
C240 C 0.50553 0.2781 0.89898 0.0
C241 C 0.51475 0.30469 0.95517 0.0
C242 C 0.51818 0.30001 0.05595 0.0
C243 C 0.50916 0.27102 0.09978 0.0
C244 C 0.47777 0.19243 0.19581 0.0
C245 C 0.45506 0.18291 0.26511 0.0
C246 C 0.46251 0.16004 0.33566 0.0
C247 C 0.49262 0.14495 0.33711 0.0
C248 C 0.51493 0.15345 0.26435 0.0
C249 C 0.50761 0.17705 0.19478 0.0
C250 C 0.43941 0.25085 0.14672 0.0
C251 C 0.42438 0.27071 0.0784 0.0
C252 C 0.41962 0.30319 0.0986 0.0
C253 C 0.42903 0.31579 0.18835 0.0
C254 C 0.43878 0.29464 0.26183 0.0
C255 C 0.4442 0.26245 0.2409 0.0
C256 C 0.987 0.04055 0.48762 0.0
Eu257 Eu 0.99397 0.02235 0.66559 0.0
C258 C 1.00257 0.06811 0.44109 0.0
C259 C 1.00936 0.09508 0.49766 0.0
C260 C 0.02726 0.12006 0.46049 0.0
C261 C 0.03771 0.11951 0.36394 0.0
C262 C 0.03144 0.09242 0.30657 0.0
C263 C 1.01411 0.06664 0.34541 0.0
C264 C 0.95208 1.00889 0.81386 0.0
C265 C 1.00879 0.07877 0.82071 0.0
C266 C 0.0589 0.99814 0.02151 0.0
Eu267 Eu 0.03257 1.00457 0.85216 0.0
C268 C 0.08067 0.9757 0.0687 0.0
C269 C 0.08376 0.97643 0.16974 0.0
C270 C 0.09797 0.95073 0.21788 0.0
C271 C 0.10921 0.92425 0.16502 0.0
C272 C 0.10921 0.92524 0.06339 0.0
C273 C 0.09484 0.95085 0.01526 0.0
C274 C 0.06676 1.00908 0.68399 0.0
C275 C 1.00908 0.94676 0.71456 0.0
O276 O 1.00651 0.01742 0.5126 0.0
O277 O 0.96629 0.04758 0.55616 0.0
O278 O 0.94324 0.01603 0.72607 0.0
O279 O 0.98216 1.00802 0.81475 0.0
O280 O 1.00149 0.07175 0.72999 0.0
O281 O 0.01839 0.05638 0.88199 0.0
O282 O 0.0308 0.98644 0.99969 0.0
O283 O 0.07111 0.01565 0.95202 0.0
O284 O 0.07227 0.98807 0.75124 0.0
O285 O 0.04437 0.02753 0.711 0.0
O286 O 0.01775 0.9546 0.80413 0.0
O287 O 1.00199 0.96868 0.64822 0.0
H288 H 1.00122 0.09686 0.57157 0.0
H289 H 0.03249 0.1402 0.50725 0.0
H290 H 0.03942 0.09145 0.23183 0.0
H291 H 1.00979 0.04568 0.30119 0.0
H292 H 0.073 0.99558 0.21176 0.0
H293 H 0.09743 0.95012 0.29644 0.0
H294 H 0.11725 0.90474 0.02168 0.0
H295 H 0.09257 0.95004 0.93706 0.0
C296 C 0.48251 0.97549 0.47568 0.0
Eu297 Eu 0.49894 0.98401 0.65382 0.0
C298 C 0.46059 0.99556 0.41789 0.0
C299 C 0.4292 1.00094 0.45043 0.0
C300 C 0.41061 0.02493 0.40908 0.0
C301 C 0.42286 0.04424 0.33442 0.0
C302 C 0.45368 0.03797 0.29832 0.0
C303 C 0.47242 1.01379 0.33988 0.0
C304 C 0.51247 0.94457 0.80817 0.0
C305 C 0.44392 1.00485 0.80448 0.0
C306 C 0.52918 0.05416 0.99732 0.0
Eu307 Eu 0.51895 0.02515 0.83406 0.0
C308 C 0.55379 0.07673 0.02862 0.0
C309 C 0.57277 0.09235 0.95923 0.0
C310 C 0.60041 0.10832 0.98744 0.0
C311 C 0.6096 0.10847 0.08517 0.0
C312 C 0.58896 0.09544 0.15542 0.0
C313 C 0.56119 0.07954 0.12716 0.0
C314 C 0.51519 0.05673 0.66164 0.0
C315 C 0.57508 0.99786 0.69478 0.0
O316 O 0.50918 0.98972 0.50009 0.0
O317 O 0.46977 0.95914 0.54751 0.0
O318 O 0.5043 0.93392 0.72311 0.0
O319 O 0.51376 0.97454 0.80306 0.0
O320 O 0.45011 0.99743 0.7131 0.0
O321 O 0.46686 1.0125 0.86611 0.0
O322 O 0.53965 0.02517 0.97847 0.0
O323 O 0.50925 0.06488 0.93181 0.0
O324 O 0.53634 0.06259 0.72755 0.0
O325 O 0.49604 0.03561 0.69216 0.0
O326 O 0.56826 1.00923 0.78251 0.0
O327 O 0.55246 0.98958 0.63275 0.0
H328 H 0.41932 0.9876 0.51078 0.0
H329 H 0.38665 0.02876 0.43689 0.0
H330 H 0.46378 0.05259 0.24112 0.0
H331 H 0.49669 1.01039 0.3143 0.0
H332 H 0.56736 0.09045 0.88274 0.0
H333 H 0.61589 0.11839 0.93222 0.0
H334 H 0.59564 0.09516 0.23124 0.0
H335 H 0.5467 0.06768 0.18155 0.0
C336 C 0.56606 0.4701 0.47613 0.0
Eu337 Eu 0.55181 0.48899 0.65054 0.0
C338 C 0.54637 0.45718 0.39696 0.0
C339 C 0.5545 0.42777 0.35454 0.0
C340 C 0.53238 0.41164 0.29691 0.0
C341 C 0.50179 0.42466 0.28178 0.0
C342 C 0.49473 0.4553 0.31703 0.0
C343 C 0.517 0.47148 0.37364 0.0
C344 C 0.58872 0.49927 0.81285 0.0
C345 C 0.52662 0.43569 0.80333 0.0
C346 C 0.49096 0.52688 1.014 0.0
Eu347 Eu 0.5089 0.50983 0.84132 0.0
C348 C 0.46797 0.54832 0.06246 0.0
C349 C 0.43556 0.54985 0.03588 0.0
C350 C 0.41499 0.57193 0.08085 0.0
C351 C 0.42658 0.59257 0.15292 0.0
C352 C 0.45893 0.59058 0.17941 0.0
C353 C 0.47926 0.56851 0.13542 0.0
C354 C 0.47204 0.49845 0.67986 0.0
C355 C 0.53073 0.56449 0.68333 0.0
O356 O 0.56146 0.50025 0.49904 0.0
O357 O 0.5684 0.45154 0.55247 0.0
O358 O 0.60045 0.4916 0.72847 0.0
O359 O 0.55907 0.50181 0.80219 0.0
O360 O 0.53119 0.44231 0.71004 0.0
O361 O 0.52337 0.45836 0.8697 0.0
O362 O 0.51433 0.54089 0.96658 0.0
O363 O 0.47957 0.50165 0.96933 0.0
O364 O 0.4602 0.50682 0.76337 0.0
O365 O 0.50175 0.49639 0.68979 0.0
O366 O 0.51923 0.55821 0.77152 0.0
O367 O 0.54216 0.54195 0.6244 0.0
H368 H 0.57708 0.41632 0.37117 0.0
H369 H 0.53826 0.38791 0.27051 0.0
H370 H 0.47139 0.46584 0.30541 0.0
H371 H 0.51058 0.49431 0.40396 0.0
H372 H 0.42633 0.53456 0.97922 0.0
H373 H 0.3903 0.57336 0.05807 0.0
H374 H 0.4689 0.60695 0.23209 0.0
H375 H 0.50415 0.56779 0.15674 0.0
C376 C 0.03109 0.56513 0.54964 0.0
Eu377 Eu 0.02202 0.52988 0.7028 0.0
C378 C 0.05716 0.58583 0.51564 0.0
C379 C 0.06928 0.61073 0.5734 0.0
C380 C 0.09788 0.6258 0.54793 0.0
C381 C 0.11493 0.61583 0.46535 0.0
C382 C 0.10132 0.59259 0.4043 0.0
C383 C 0.0726 0.57801 0.42874 0.0
C384 C 0.02146 0.55815 0.88051 0.0
C385 C 0.07977 0.50107 0.82161 0.0
C386 C 0.99555 0.45281 1.01129 0.0
Eu387 Eu 1.00311 0.48571 0.85155 0.0
C388 C 0.97031 0.43947 0.07429 0.0
C389 C 0.96498 0.40626 0.0769 0.0
C390 C 0.94127 0.39343 0.13701 0.0
C391 C 0.92257 0.41363 0.19569 0.0
C392 C 0.92829 0.44677 0.19392 0.0
C393 C 0.95202 0.45953 0.13456 0.0
C394 C 1.00575 0.458 0.67249 0.0
C395 C 0.94617 0.51279 0.72873 0.0
O396 O 0.03786 0.53456 0.55302 0.0
O397 O 0.01494 0.5748 0.62545 0.0
O398 O 0.04322 0.56209 0.81477 0.0
O399 O 1.0 0.53914 0.85001 0.0
O400 O 0.07281 0.51534 0.73896 0.0
O401 O 0.05662 0.49028 0.87802 0.0
O402 O 0.99838 0.48395 1.00848 0.0
O403 O 0.99954 0.4397 0.92621 0.0
O404 O 0.9835 0.45267 0.73603 0.0
O405 O 0.02623 0.47714 0.70687 0.0
O406 O 0.95283 0.50144 0.81564 0.0
O407 O 0.96953 0.52101 0.66927 0.0
H408 H 0.05762 0.61748 0.64061 0.0
H409 H 0.10736 0.64411 0.59519 0.0
H410 H 0.11384 0.58404 0.34045 0.0
H411 H 0.06354 0.55907 0.38283 0.0
H412 H 0.97901 0.39023 0.03193 0.0
H413 H 0.93724 0.36783 0.13671 0.0
H414 H 0.91364 0.46309 0.23604 0.0
H415 H 0.95561 0.48519 0.13493 0.0
C416 C 0.10205 0.04362 0.44954 0.0
C417 C 0.12784 0.02279 0.42781 0.0
C418 C 0.0822 0.03887 0.53115 0.0
C419 C 0.08679 1.01283 0.59433 0.0
H420 H 0.09732 0.06415 0.40379 0.0
H421 H 0.06351 0.05612 0.5459 0.0
S422 S 0.14973 0.95041 0.56996 0.0
N423 N 0.15629 0.97472 0.47774 0.0
N424 N 0.11833 0.96516 0.62744 0.0
C425 C 0.1117 0.99123 0.572 0.0
C426 C 0.13222 0.99626 0.48971 0.0
C427 C 0.4763 0.09914 0.44697 0.0
C428 C 0.50009 0.1206 0.41457 0.0
C429 C 0.4816 0.07764 0.52398 0.0
C430 C 0.5109 0.07692 0.57329 0.0
H431 H 0.45309 0.09921 0.4132 0.0
H432 H 0.46224 0.06221 0.54688 0.0
S433 S 0.58178 0.12697 0.5171 0.0
N434 N 0.55462 0.13888 0.43842 0.0
N435 N 0.56464 0.09852 0.58183 0.0
C436 C 0.53525 0.09753 0.54048 0.0
C437 C 0.52989 0.1193 0.46168 0.0
C438 C 0.40721 0.47261 0.50442 0.0
C439 C 0.41135 0.49336 0.42452 0.0
C440 C 0.42764 0.47366 0.58521 0.0
C441 C 0.45332 0.49518 0.58918 0.0
H442 H 0.38715 0.45632 0.50668 0.0
H443 H 0.42288 0.45793 0.64603 0.0
S444 S 0.47536 0.5541 0.40012 0.0
N445 N 0.44429 0.53525 0.35418 0.0
N446 N 0.4816 0.53797 0.50771 0.0
C447 C 0.45812 0.51566 0.50986 0.0
C448 C 0.43746 0.51455 0.42721 0.0
C449 C 0.98661 0.40025 0.46569 0.0
C450 C 1.01405 0.40116 0.40622 0.0
C451 C 0.98407 0.41904 0.55023 0.0
C452 C 1.00887 0.43961 0.57969 0.0
H453 H 0.96681 0.38486 0.44673 0.0
H454 H 0.96245 0.41722 0.59327 0.0
S455 S 0.08597 0.45102 0.45095 0.0
N456 N 0.06682 0.42449 0.38435 0.0
N457 N 0.06171 0.45996 0.54169 0.0
C458 C 0.03625 0.44117 0.52044 0.0
C459 C 0.03891 0.42197 0.43433 0.0
C460 C 0.92171 1.0014 0.07542 0.0
C461 C 0.88856 1.00728 0.06742 0.0
C462 C 0.94199 1.00105 0.99338 0.0
C463 C 0.93008 1.00655 0.89951 0.0
H464 H 0.93222 0.99736 0.14601 0.0
H465 H 0.96728 0.99703 1.00394 0.0
S466 S 0.84537 0.02336 0.83752 0.0
N467 N 0.84509 0.01907 0.95648 0.0
N468 N 0.88278 0.01767 0.80338 0.0
C469 C 0.89695 1.0118 0.89012 0.0
C470 C 0.87634 1.01231 0.97351 0.0
C471 C 0.53105 0.87391 0.97432 0.0
C472 C 0.51587 0.88204 0.06295 0.0
C473 C 0.5303 0.89439 0.89307 0.0
C474 C 0.51567 0.92467 0.89738 0.0
H475 H 0.54347 0.85133 0.96637 0.0
H476 H 0.54134 0.88642 0.8261 0.0
S477 S 0.47279 0.95905 0.1087 0.0
N478 N 0.48447 0.92337 0.14579 0.0
N479 N 0.48651 0.96253 0.99696 0.0
C480 C 0.5017 0.93399 0.98562 0.0
C481 C 0.50102 0.91264 0.06724 0.0
C482 C 0.60889 0.50141 0.08322 0.0
C483 C 0.64257 0.49921 0.0841 0.0
C484 C 0.5916 0.50239 0.99566 0.0
C485 C 0.60721 0.50107 0.90514 0.0
H486 H 0.5957 0.50203 0.15093 0.0
H487 H 0.56578 0.50329 0.99907 0.0
S488 S 0.69485 0.49483 0.86618 0.0
N489 N 0.69064 0.49539 0.98521 0.0
N490 N 0.65839 0.49771 0.82192 0.0
C491 C 0.64082 0.49934 0.90488 0.0
C492 C 0.65841 0.49835 0.9938 0.0
C493 C 0.04445 0.62382 0.05774 0.0
C494 C 0.02116 0.62257 0.13143 0.0
C495 C 0.0438 0.60301 0.97816 0.0
C496 C 0.01975 0.57974 0.96722 0.0
H497 H 0.06374 0.641 0.06201 0.0
H498 H 0.06272 0.6052 0.92479 0.0
S499 S 0.95279 0.56623 0.13939 0.0
N500 N 0.97302 0.59604 0.18838 0.0
N501 N 0.97161 0.55691 0.03757 0.0
C502 C 0.99586 0.57838 0.03943 0.0
C503 C 0.99656 0.59981 0.12143 0.0
C504 C 0.09746 0.17489 0.24039 0.0
C505 C 0.08387 0.20525 0.25761 0.0
C506 C 0.0824 0.14688 0.27382 0.0
C507 C 0.05306 0.14849 0.32373 0.0
H508 H 0.1196 0.17281 0.2 0.0
H509 H 0.0938 0.12394 0.26103 0.0
S510 S 1.00576 0.22165 0.37745 0.0
N511 N 0.03847 0.23477 0.32402 0.0
N512 N 1.00977 0.18242 0.3815 0.0
C513 C 0.0389 0.17858 0.33883 0.0
C514 C 0.05443 0.20688 0.30733 0.0
C515 C 0.35912 0.10784 0.33021 0.0
C516 C 0.3478 0.10526 0.23453 0.0
C517 C 0.38576 0.09029 0.36063 0.0
C518 C 0.40261 0.07043 0.29572 0.0
H519 H 0.3452 0.12045 0.38454 0.0
H520 H 0.39159 0.09018 0.43712 0.0
S521 S 0.39101 0.06611 0.03035 0.0
N522 N 0.36117 0.08854 0.06968 0.0
N523 N 0.41192 0.05651 0.12721 0.0
C524 C 0.39529 0.07248 0.19688 0.0
C525 C 0.36778 0.08992 0.16592 0.0
C526 C 0.46097 0.36199 0.13102 0.0
C527 C 0.43821 0.34988 0.19697 0.0
C528 C 0.47999 0.38831 0.15506 0.0
C529 C 0.4762 0.40384 0.24459 0.0
H530 H 0.46644 0.34915 0.06481 0.0
H531 H 0.49922 0.39511 0.10651 0.0
S532 S 0.41597 0.38528 0.43402 0.0
N533 N 0.40993 0.35816 0.34895 0.0
N534 N 0.44527 0.40812 0.3936 0.0
C535 C 0.45108 0.39433 0.30602 0.0
C536 C 0.43208 0.36724 0.28218 0.0
C537 C 0.19139 0.62012 0.32896 0.0
C538 C 0.21262 0.60921 0.40059 0.0
C539 C 0.15991 0.62822 0.3531 0.0
C540 C 0.14876 0.62492 0.449 0.0
H541 H 0.19755 0.6182 0.25283 0.0
H542 H 0.14322 0.63275 0.29479 0.0
S543 S 0.19914 0.61079 0.66585 0.0
N544 N 0.22376 0.60641 0.57295 0.0
N545 N 0.16406 0.61985 0.61871 0.0
C546 C 0.17151 0.62047 0.52275 0.0
C547 C 0.20373 0.61296 0.49816 0.0
C548 C 0.14002 0.84431 0.25736 0.0
C549 C 0.11129 0.82923 0.28361 0.0
C550 C 0.1398 0.87582 0.22116 0.0
C551 C 0.11092 0.89288 0.21277 0.0
H552 H 0.16245 0.83144 0.26244 0.0
H553 H 0.16204 0.88669 0.19831 0.0
S554 S 0.02969 0.86349 0.27084 0.0
N555 N 0.05361 0.83341 0.29863 0.0
N556 N 0.05325 0.89239 0.23183 0.0
C557 C 0.08233 0.87808 0.24058 0.0
C558 C 0.08251 0.84626 0.27597 0.0
C559 C 0.68084 0.13669 0.22942 0.0
C560 C 0.7054 0.11658 0.19422 0.0
C561 C 0.65008 0.13584 0.18951 0.0
C562 C 0.64306 0.11543 0.11162 0.0
H563 H 0.68485 0.15165 0.2923 0.0
H564 H 0.63128 0.14997 0.22287 0.0
S565 S 0.69899 0.05988 0.98724 0.0
N566 N 0.72053 0.07683 0.07274 0.0
N567 N 0.66327 0.07635 0.99625 0.0
C568 C 0.66789 0.09719 0.07064 0.0
C569 C 0.69899 0.09758 0.11205 0.0
C570 C 0.38727 0.67312 0.15892 0.0
C571 C 0.39449 0.68305 0.25409 0.0
C572 C 0.39381 0.64177 0.12812 0.0
C573 C 0.40703 0.61925 0.19226 0.0
H574 H 0.38 0.69053 0.10507 0.0
H575 H 0.39187 0.63632 0.0516 0.0
S576 S 0.41989 0.62968 0.45575 0.0
N577 N 0.4087 0.66535 0.41709 0.0
N578 N 0.41871 0.60623 0.35967 0.0
C579 C 0.40864 0.6272 0.29094 0.0
C580 C 0.40281 0.65921 0.32204 0.0
C581 C 0.8409 0.37895 0.2404 0.0
C582 C 0.83227 0.39316 0.32928 0.0
C583 C 0.87157 0.38296 0.20137 0.0
C584 C 0.89464 0.40123 0.25013 0.0
H585 H 0.82305 0.36694 0.19704 0.0
H586 H 0.87625 0.37411 0.12885 0.0
S587 S 0.88639 0.4378 0.49372 0.0
N588 N 0.8509 0.42248 0.471 0.0
N589 N 0.90882 0.42871 0.39894 0.0
C590 C 0.88756 0.41224 0.344 0.0
C591 C 0.85629 0.40847 0.38345 0.0
C592 C 0.02088 0.15424 0.97511 0.0
C593 C 1.00467 0.1785 0.92351 0.0
C594 C 0.02178 0.1223 0.94202 0.0
C595 C 1.00666 0.11292 0.85527 0.0
H596 H 0.03376 0.16007 0.04074 0.0
H597 H 0.035 0.10493 0.9843 0.0
S598 S 0.95843 0.16635 0.69708 0.0
N599 N 0.97119 0.19013 0.7842 0.0
N600 N 0.97322 0.1306 0.72164 0.0
C601 C 0.98975 0.13678 0.80405 0.0
C602 C 0.98871 0.16931 0.83806 0.0
C603 C 0.36995 0.98925 0.96072 0.0
C604 C 0.34592 1.00823 0.9172 0.0
C605 C 0.40137 0.98805 0.92351 0.0
C606 C 0.41013 1.00501 0.83945 0.0
H607 H 0.3647 0.97552 0.02539 0.0
H608 H 0.41896 0.97367 0.96098 0.0
S609 S 0.35753 0.05823 0.69598 0.0
N610 N 0.33434 0.04515 0.78457 0.0
N611 N 0.39255 0.04086 0.71238 0.0
C612 C 0.38642 0.02309 0.79283 0.0
C613 C 0.3546 0.02514 0.83197 0.0
C614 C 0.54202 0.3589 0.94572 0.0
C615 C 0.51865 0.33753 0.9107 0.0
C616 C 0.54466 0.3904 0.90995 0.0
C617 C 0.52462 0.40177 0.83582 0.0
H618 H 0.55841 0.35135 1.00182 0.0
H619 H 0.56262 0.40601 0.9405 0.0
S620 S 0.45788 0.3575 0.72332 0.0
N621 N 0.4733 0.33185 0.80147 0.0
N622 N 0.47991 0.3901 0.73103 0.0
C623 C 0.50136 0.38095 0.79942 0.0
C624 C 0.498 0.34914 0.83744 0.0
C625 C 0.15002 0.48381 0.99012 0.0
C626 C 0.17717 0.4941 0.93827 0.0
C627 C 0.11919 0.48586 0.95092 0.0
C628 C 0.11359 0.49835 0.85741 0.0
H629 H 0.15248 0.47459 0.06313 0.0
H630 H 0.09947 0.47782 0.9957 0.0
S631 S 0.17659 0.52695 0.688 0.0
N632 N 0.19652 0.51617 0.78597 0.0
N633 N 0.13852 0.52019 0.71219 0.0
C634 C 0.14055 0.50842 0.80376 0.0
C635 C 0.17221 0.50635 0.84413 0.0
C636 C 0.01794 0.87186 0.55713 0.0
C637 C 1.0089 0.84642 0.61864 0.0
C638 C 0.01752 0.90394 0.58859 0.0
C639 C 1.00872 0.91231 0.68403 0.0
H640 H 0.02628 0.86699 0.48438 0.0
H641 H 0.02498 0.92233 0.53799 0.0
S642 S 0.98093 0.85579 0.8736 0.0
N643 N 0.9887 0.83268 0.77922 0.0
N644 N 0.98957 0.89263 0.8391 0.0
C645 C 0.9995 0.88736 0.74658 0.0
C646 C 0.99921 0.85463 0.71389 0.0
C647 C 0.66411 0.01666 0.66191 0.0
C648 C 0.67335 0.99731 0.58249 0.0
C649 C 0.63279 0.0159 0.70028 0.0
C650 C 0.60916 0.99588 0.6607 0.0
H651 H 0.68092 0.0334 0.6929 0.0
H652 H 0.62681 0.032 0.75921 0.0
S653 S 0.62181 0.93752 0.4605 0.0
N654 N 0.65675 0.95526 0.47218 0.0
N655 N 0.59818 0.95418 0.54236 0.0
C656 C 0.61842 0.97553 0.58373 0.0
C657 C 0.65031 0.97618 0.54516 0.0
C658 C 0.52487 0.63524 0.50719 0.0
C659 C 0.52195 0.66223 0.56809 0.0
C660 C 0.52896 0.60416 0.54503 0.0
C661 C 0.52926 0.59823 0.64573 0.0
H662 H 0.5231 0.63786 0.4293 0.0
H663 H 0.53108 0.5845 0.49441 0.0
S664 S 0.52761 0.66056 0.83743 0.0
N665 N 0.52432 0.6809 0.73532 0.0
N666 N 0.52958 0.62252 0.80561 0.0
C667 C 0.52757 0.62499 0.70758 0.0
C668 C 0.52443 0.65682 0.66911 0.0
C669 C 0.85747 0.49328 0.69626 0.0
C670 C 0.84874 0.51103 0.61322 0.0
C671 C 0.88855 0.4947 0.73509 0.0
C672 C 0.91246 0.51379 0.69236 0.0
H673 H 0.84041 0.47731 0.73004 0.0
H674 H 0.89411 0.47991 0.79732 0.0
S675 S 0.9014 0.56746 0.47991 0.0
N676 N 0.86623 0.55035 0.49466 0.0
N677 N 0.92445 0.55253 0.56564 0.0
C678 C 0.90381 0.53236 0.61102 0.0
C679 C 0.87213 0.53109 0.57199 0.0
loop_
_geom_bond_atom_site_label_1
_geom_bond_atom_site_label_2
_geom_bond_distance
_geom_bond_site_symmetry_2
_ccdc_geom_bond_type
P0 O11 1.490 . S
P0 C14 1.812 . S
P0 C20 1.803 . S
P0 C26 1.819 . S
H1 C15 0.941 . S
H2 C16 0.939 . S
H3 C18 0.940 . S
H4 C19 0.940 . S
H5 C21 0.939 . S
H6 C22 0.942 . S
H7 C24 0.940 . S
H8 C25 0.939 . S
H9 C27 0.941 . S
H10 C31 0.939 . S
O11 P0 1.490 . S
H12 C28 0.939 . S
H13 C30 0.940 . S
C14 P0 1.812 . S
C14 C15 1.389 . S
C14 C19 1.391 . S
C15 H1 0.941 . S
C15 C14 1.389 . S
C15 C16 1.397 . S
C16 H2 0.939 . S
C16 C15 1.397 . S
C16 C17 1.378 . S
C17 C16 1.378 . S
C17 C18 1.378 . S
C18 H3 0.940 . S
C18 C17 1.378 . S
C18 C19 1.396 . S
C19 H4 0.940 . S
C19 C14 1.391 . S
C19 C18 1.396 . S
C20 P0 1.803 . S
C20 C21 1.378 . S
C20 C25 1.400 . S
C21 H5 0.939 . S
C21 C20 1.378 . S
C21 C22 1.361 . S
C22 H6 0.942 . S
C22 C21 1.361 . S
C22 C23 1.369 . S
C23 C22 1.369 . S
C23 C24 1.404 . S
C24 H7 0.940 . S
C24 C23 1.404 . S
C24 C25 1.389 . S
C25 H8 0.939 . S
C25 C20 1.400 . S
C25 C24 1.389 . S
C26 P0 1.819 . S
C26 C27 1.391 . S
C26 C31 1.391 . S
C27 H9 0.941 . S
C27 C26 1.391 . S
C27 C28 1.396 . S
C28 H12 0.939 . S
C28 C27 1.396 . S
C28 C29 1.397 . S
C29 C28 1.397 . S
C29 C30 1.385 . S
C30 H13 0.940 . S
C30 C29 1.385 . S
C30 C31 1.388 . S
C31 H10 0.939 . S
C31 C26 1.391 . S
C31 C30 1.388 . S
P32 O43 1.490 . S
P32 C46 1.812 . S
P32 C52 1.803 . S
P32 C58 1.819 . S
H33 C47 0.941 . S
H34 C48 0.939 . S
H35 C50 0.940 . S
H36 C51 0.950 . S
H37 C53 0.939 . S
H38 C54 0.942 . S
H39 C56 0.940 . S
H40 C57 0.959 . S
H41 C59 0.941 . S
H42 C63 0.929 1_655 S
O43 P32 1.490 . S
H44 C60 0.939 . S
H45 C62 0.940 . S
C46 P32 1.812 . S
C46 C47 1.389 . S
C46 C51 1.375 1_455 S
C47 H33 0.941 . S
C47 C46 1.389 . S
C47 C48 1.397 . S
C48 H34 0.939 . S
C48 C47 1.397 . S
C48 C49 1.378 . S
C49 C48 1.378 . S
C49 C50 1.378 1_455 S
C50 H35 0.940 . S
C50 C49 1.378 1_655 S
C50 C51 1.403 . S
C51 H36 0.950 . S
C51 C46 1.375 1_655 S
C51 C50 1.403 . S
C52 P32 1.803 . S
C52 C53 1.378 . S
C52 C57 1.368 1_455 S
C53 H37 0.939 . S
C53 C52 1.378 . S
C53 C54 1.361 . S
C54 H38 0.942 . S
C54 C53 1.361 . S
C54 C55 1.369 . S
C55 C54 1.369 . S
C55 C56 1.404 1_455 S
C56 H39 0.940 . S
C56 C55 1.404 1_655 S
C56 C57 1.402 . S
C57 H40 0.959 . S
C57 C52 1.368 1_655 S
C57 C56 1.402 . S
C58 P32 1.819 . S
C58 C59 1.391 . S
C58 C63 1.391 . S
C59 H41 0.941 . S
C59 C58 1.391 . S
C59 C60 1.396 . S
C60 H44 0.939 . S
C60 C59 1.396 . S
C60 C61 1.397 . S
C61 C60 1.397 . S
C61 C62 1.385 1_455 S
C62 H45 0.940 . S
C62 C61 1.385 1_655 S
C62 C63 1.388 1_655 S
C63 H42 0.929 1_455 S
C63 C58 1.391 . S
C63 C62 1.388 1_455 S
P64 O75 1.490 . S
P64 C78 1.812 . S
P64 C84 1.803 . S
P64 C90 1.819 . S
H65 C79 0.941 . S
H66 C80 0.939 . S
H67 C82 0.940 . S
H68 C83 0.950 . S
H69 C85 0.939 . S
H70 C86 0.942 . S
H71 C88 0.940 . S
H72 C89 0.959 . S
H73 C91 0.941 . S
H74 C95 0.929 1_565 S
O75 P64 1.490 . S
H76 C92 0.939 . S
H77 C94 0.940 . S
C78 P64 1.812 . S
C78 C79 1.389 . S
C78 C83 1.375 1_545 S
C79 H65 0.941 . S
C79 C78 1.389 . S
C79 C80 1.397 . S
C80 H66 0.939 . S
C80 C79 1.397 . S
C80 C81 1.378 . S
C81 C80 1.378 . S
C81 C82 1.378 1_545 S
C82 H67 0.940 . S
C82 C81 1.378 1_565 S
C82 C83 1.402 . S
C83 H68 0.950 . S
C83 C78 1.375 1_565 S
C83 C82 1.402 . S
C84 P64 1.803 . S
C84 C85 1.378 . S
C84 C89 1.368 1_545 S
C85 H69 0.939 . S
C85 C84 1.378 . S
C85 C86 1.361 . S
C86 H70 0.942 . S
C86 C85 1.361 . S
C86 C87 1.369 . S
C87 C86 1.369 . S
C87 C88 1.404 1_545 S
C88 H71 0.940 . S
C88 C87 1.404 1_565 S
C88 C89 1.402 . S
C89 H72 0.959 . S
C89 C84 1.368 1_565 S
C89 C88 1.402 . S
C90 P64 1.819 . S
C90 C91 1.391 . S
C90 C95 1.391 . S
C91 H73 0.941 . S
C91 C90 1.391 . S
C91 C92 1.396 . S
C92 H76 0.939 . S
C92 C91 1.396 . S
C92 C93 1.397 . S
C93 C92 1.397 . S
C93 C94 1.385 1_545 S
C94 H77 0.940 . S
C94 C93 1.385 1_565 S
C94 C95 1.388 1_565 S
C95 H74 0.929 1_545 S
C95 C90 1.391 . S
C95 C94 1.388 1_545 S
P96 O107 1.490 . S
P96 C110 1.812 . S
P96 C116 1.803 . S
P96 C122 1.819 . S
H97 C111 0.941 . S
H98 C112 0.939 . S
H99 C114 0.940 . S
H100 C115 0.940 . S
H101 C117 0.939 . S
H102 C118 0.942 . S
H103 C120 0.940 . S
H104 C121 0.939 . S
H105 C123 0.941 . S
H106 C127 0.939 . S
O107 P96 1.490 . S
H108 C124 0.939 . S
H109 C126 0.940 . S
C110 P96 1.812 . S
C110 C111 1.389 . S
C110 C115 1.391 . S
C111 H97 0.941 . S
C111 C110 1.389 . S
C111 C112 1.397 . S
C112 H98 0.939 . S
C112 C111 1.397 . S
C112 C113 1.378 . S
C113 C112 1.378 . S
C113 C114 1.378 . S
C114 H99 0.940 . S
C114 C113 1.378 . S
C114 C115 1.396 . S
C115 H100 0.940 . S
C115 C110 1.391 . S
C115 C114 1.396 . S
C116 P96 1.803 . S
C116 C117 1.378 . S
C116 C121 1.400 . S
C117 H101 0.939 . S
C117 C116 1.378 . S
C117 C118 1.361 . S
C118 H102 0.942 . S
C118 C117 1.361 . S
C118 C119 1.369 . S
C119 C118 1.369 . S
C119 C120 1.404 . S
C120 H103 0.940 . S
C120 C119 1.404 . S
C120 C121 1.389 . S
C121 H104 0.939 . S
C121 C116 1.400 . S
C121 C120 1.389 . S
C122 P96 1.819 . S
C122 C123 1.391 . S
C122 C127 1.391 . S
C123 H105 0.941 . S
C123 C122 1.391 . S
C123 C124 1.396 . S
C124 H108 0.939 . S
C124 C123 1.396 . S
C124 C125 1.397 . S
C125 C124 1.397 . S
C125 C126 1.385 . S
C126 H109 0.940 . S
C126 C125 1.385 . S
C126 C127 1.388 . S
C127 H106 0.939 . S
C127 C122 1.391 . S
C127 C126 1.388 . S
P128 O139 1.490 . S
P128 C142 1.812 1_554 S
P128 C148 1.803 . S
P128 C154 1.819 . S
H129 C143 0.941 . S
H130 C144 0.939 . S
H131 C146 0.940 . S
H132 C147 0.940 . S
H133 C149 0.939 . S
H134 C150 0.942 . S
H135 C152 0.940 . S
H136 C153 0.939 . S
H137 C155 0.941 . S
H138 C159 0.939 . S
O139 P128 1.490 . S
H140 C156 0.939 . S
H141 C158 0.940 . S
C142 P128 1.812 1_556 S
C142 C143 1.389 . S
C142 C147 1.391 . S
C143 H129 0.941 . S
C143 C142 1.389 . S
C143 C144 1.397 . S
C144 H130 0.939 . S
C144 C143 1.397 . S
C144 C145 1.378 . S
C145 C144 1.378 . S
C145 C146 1.378 . S
C146 H131 0.940 . S
C146 C145 1.378 . S
C146 C147 1.396 . S
C147 H132 0.940 . S
C147 C142 1.391 . S
C147 C146 1.396 . S
C148 P128 1.803 . S
C148 C149 1.378 . S
C148 C153 1.400 . S
C149 H133 0.939 . S
C149 C148 1.378 . S
C149 C150 1.361 . S
C150 H134 0.942 . S
C150 C149 1.361 . S
C150 C151 1.369 . S
C151 C150 1.369 . S
C151 C152 1.404 . S
C152 H135 0.940 . S
C152 C151 1.404 . S
C152 C153 1.389 . S
C153 H136 0.939 . S
C153 C148 1.400 . S
C153 C152 1.389 . S
C154 P128 1.819 . S
C154 C155 1.391 . S
C154 C159 1.391 . S
C155 H137 0.941 . S
C155 C154 1.391 . S
C155 C156 1.396 . S
C156 H140 0.939 . S
C156 C155 1.396 . S
C156 C157 1.397 . S
C157 C156 1.397 . S
C157 C158 1.385 . S
C158 H141 0.940 . S
C158 C157 1.385 . S
C158 C159 1.388 . S
C159 H138 0.939 . S
C159 C154 1.391 . S
C159 C158 1.388 . S
P160 O171 1.490 . S
P160 C174 1.812 1_554 S
P160 C180 1.803 . S
P160 C186 1.819 . S
H161 C175 0.941 . S
H162 C176 0.939 . S
H163 C178 0.940 . S
H164 C179 0.945 . S
H165 C181 0.939 . S
H166 C182 0.942 . S
H167 C184 0.940 . S
H168 C185 0.954 . S
H169 C187 0.941 . S
H170 C191 0.932 1_655 S
O171 P160 1.490 . S
H172 C188 0.939 . S
H173 C190 0.940 . S
C174 P160 1.812 1_556 S
C174 C175 1.389 . S
C174 C179 1.383 1_455 S
C175 H161 0.941 . S
C175 C174 1.389 . S
C175 C176 1.397 . S
C176 H162 0.939 . S
C176 C175 1.397 . S
C176 C177 1.378 . S
C177 C176 1.378 . S
C177 C178 1.378 1_455 S
C178 H163 0.940 . S
C178 C177 1.378 1_655 S
C178 C179 1.400 . S
C179 H164 0.945 . S
C179 C174 1.383 1_655 S
C179 C178 1.400 . S
C180 P160 1.803 . S
C180 C181 1.378 . S
C180 C185 1.376 1_455 S
C181 H165 0.939 . S
C181 C180 1.378 . S
C181 C182 1.361 . S
C182 H166 0.942 . S
C182 C181 1.361 . S
C182 C183 1.369 . S
C183 C182 1.369 . S
C183 C184 1.404 1_455 S
C184 H167 0.940 . S
C184 C183 1.404 1_655 S
C184 C185 1.399 . S
C185 H168 0.954 . S
C185 C180 1.376 1_655 S
C185 C184 1.399 . S
C186 P160 1.819 . S
C186 C187 1.391 . S
C186 C191 1.391 . S
C187 H169 0.941 . S
C187 C186 1.391 . S
C187 C188 1.396 . S
C188 H172 0.939 . S
C188 C187 1.396 . S
C188 C189 1.397 . S
C189 C188 1.397 . S
C189 C190 1.385 1_455 S
C190 H173 0.940 . S
C190 C189 1.385 1_655 S
C190 C191 1.388 1_655 S
C191 H170 0.932 1_455 S
C191 C186 1.391 . S
C191 C190 1.388 1_455 S
P192 O203 1.490 . S
P192 C206 1.812 1_554 S
P192 C212 1.803 . S
P192 C218 1.819 . S
H193 C207 0.941 . S
H194 C208 0.939 . S
H195 C210 0.940 . S
H196 C211 0.945 . S
H197 C213 0.939 . S
H198 C214 0.942 . S
H199 C216 0.940 . S
H200 C217 0.954 . S
H201 C219 0.941 . S
H202 C223 0.932 1_565 S
O203 P192 1.490 . S
H204 C220 0.939 . S
H205 C222 0.940 . S
C206 P192 1.812 1_556 S
C206 C207 1.389 . S
C206 C211 1.383 1_545 S
C207 H193 0.941 . S
C207 C206 1.389 . S
C207 C208 1.397 . S
C208 H194 0.939 . S
C208 C207 1.397 . S
C208 C209 1.378 . S
C209 C208 1.378 . S
C209 C210 1.378 1_545 S
C210 H195 0.940 . S
C210 C209 1.378 1_565 S
C210 C211 1.400 . S
C211 H196 0.945 . S
C211 C206 1.383 1_565 S
C211 C210 1.400 . S
C212 P192 1.803 . S
C212 C213 1.378 . S
C212 C217 1.376 1_545 S
C213 H197 0.939 . S
C213 C212 1.378 . S
C213 C214 1.361 . S
C214 H198 0.942 . S
C214 C213 1.361 . S
C214 C215 1.369 . S
C215 C214 1.369 . S
C215 C216 1.404 1_545 S
C216 H199 0.940 . S
C216 C215 1.404 1_565 S
C216 C217 1.399 . S
C217 H200 0.954 . S
C217 C212 1.376 1_565 S
C217 C216 1.399 . S
C218 P192 1.819 . S
C218 C219 1.391 . S
C218 C223 1.391 . S
C219 H201 0.941 . S
C219 C218 1.391 . S
C219 C220 1.396 . S
C220 H204 0.939 . S
C220 C219 1.396 . S
C220 C221 1.397 . S
C221 C220 1.397 . S
C221 C222 1.385 1_545 S
C222 H205 0.940 . S
C222 C221 1.385 1_565 S
C222 C223 1.388 1_565 S
C223 H202 0.932 1_545 S
C223 C218 1.391 . S
C223 C222 1.388 1_545 S
P224 O235 1.490 . S
P224 C238 1.812 1_554 S
P224 C244 1.803 . S
P224 C250 1.819 . S
H225 C239 0.941 . S
H226 C240 0.939 . S
H227 C242 0.940 . S
H228 C243 0.940 . S
H229 C245 0.939 . S
H230 C246 0.942 . S
H231 C248 0.940 . S
H232 C249 0.939 . S
H233 C251 0.941 . S
H234 C255 0.939 . S
O235 P224 1.490 . S
H236 C252 0.939 . S
H237 C254 0.940 . S
C238 P224 1.812 1_556 S
C238 C239 1.389 . S
C238 C243 1.391 . S
C239 H225 0.941 . S
C239 C238 1.389 . S
C239 C240 1.397 . S
C240 H226 0.939 . S
C240 C239 1.397 . S
C240 C241 1.378 . S
C241 C240 1.378 . S
C241 C242 1.378 . S
C242 H227 0.940 . S
C242 C241 1.378 . S
C242 C243 1.396 . S
C243 H228 0.940 . S
C243 C238 1.391 . S
C243 C242 1.396 . S
C244 P224 1.803 . S
C244 C245 1.378 . S
C244 C249 1.400 . S
C245 H229 0.939 . S
C245 C244 1.378 . S
C245 C246 1.361 . S
C246 H230 0.942 . S
C246 C245 1.361 . S
C246 C247 1.369 . S
C247 C246 1.369 . S
C247 C248 1.404 . S
C248 H231 0.940 . S
C248 C247 1.404 . S
C248 C249 1.389 . S
C249 H232 0.939 . S
C249 C244 1.400 . S
C249 C248 1.389 . S
C250 P224 1.819 . S
C250 C251 1.391 . S
C250 C255 1.391 . S
C251 H233 0.941 . S
C251 C250 1.391 . S
C251 C252 1.396 . S
C252 H236 0.939 . S
C252 C251 1.396 . S
C252 C253 1.397 . S
C253 C252 1.397 . S
C253 C254 1.385 . S
C254 H237 0.940 . S
C254 C253 1.385 . S
C254 C255 1.388 . S
C255 H234 0.939 . S
C255 C250 1.391 . S
C255 C254 1.388 . S
C256 Eu257 2.835 . S
C256 C258 1.500 . S
C256 O276 1.257 . S
C256 O277 1.260 . S
Eu257 C256 2.835 . S
Eu257 O276 2.473 . S
Eu257 O277 2.480 . S
Eu257 O278 2.430 . S
Eu257 O279 2.670 1_545 S
Eu257 O280 2.394 . S
Eu257 O285 2.355 1_655 S
Eu257 O287 2.374 1_545 S
C258 C256 1.500 . S
C258 C259 1.377 . S
C258 C263 1.377 . S
C259 C258 1.377 . S
C259 C260 1.395 . S
C259 H288 0.931 . S
C260 C259 1.395 . S
C260 C261 1.383 . S
C260 H289 0.931 . S
C261 C260 1.383 . S
C261 C262 1.394 . S
C262 C261 1.394 . S
C262 C263 1.378 . S
C262 H290 0.934 . S
C263 C258 1.377 . S
C263 C262 1.378 . S
C263 H291 0.931 1_655 S
C264 O278 1.259 . S
C264 O279 1.270 1_545 S
C265 O280 1.251 1_455 S
C265 O281 1.251 . S
C266 Eu267 2.835 . S
C266 C268 1.500 . S
C266 O282 1.257 . S
C266 O283 1.260 . S
Eu267 C266 2.835 . S
Eu267 O279 2.355 1_455 S
Eu267 O281 2.374 1_565 S
Eu267 O282 2.473 . S
Eu267 O283 2.480 . S
Eu267 O284 2.430 . S
Eu267 O285 2.670 1_565 S
Eu267 O286 2.394 . S
C268 C266 1.500 . S
C268 C269 1.377 . S
C268 C273 1.377 1_556 S
C269 C268 1.377 . S
C269 C270 1.395 1_556 S
C269 H292 0.931 . S
C270 C269 1.395 1_554 S
C270 C271 1.383 . S
C270 H293 0.931 . S
C271 C270 1.383 . S
C271 C272 1.394 . S
C272 C271 1.394 . S
C272 C273 1.378 . S
C272 H294 0.941 . S
C273 C268 1.377 1_554 S
C273 C272 1.378 . S
C273 H295 0.931 1_455 S
C274 O284 1.259 . S
C274 O285 1.270 1_565 S
C275 O286 1.251 1_655 S
C275 O287 1.251 . S
O276 C256 1.257 . S
O276 Eu257 2.473 . S
O277 C256 1.260 . S
O277 Eu257 2.480 . S
O278 Eu257 2.430 . S
O278 C264 1.259 . S
O279 Eu257 2.670 1_565 S
O279 C264 1.270 1_565 S
O279 Eu267 2.355 1_655 S
O280 Eu257 2.394 . S
O280 C265 1.251 1_655 S
O281 C265 1.251 . S
O281 Eu267 2.374 1_545 S
O282 C266 1.257 . S
O282 Eu267 2.473 . S
O283 C266 1.260 . S
O283 Eu267 2.480 . S
O284 Eu267 2.430 . S
O284 C274 1.259 . S
O285 Eu257 2.355 1_455 S
O285 Eu267 2.670 1_545 S
O285 C274 1.270 1_545 S
O286 Eu267 2.394 . S
O286 C275 1.251 1_455 S
O287 Eu257 2.374 1_565 S
O287 C275 1.251 . S
H288 C259 0.931 . S
H289 C260 0.931 . S
H290 C262 0.934 . S
H291 C263 0.931 1_455 S
H292 C269 0.931 . S
H293 C270 0.931 . S
H294 C272 0.941 . S
H295 C273 0.931 1_655 S
C296 Eu297 2.835 . S
C296 C298 1.500 . S
C296 O316 1.257 . S
C296 O317 1.260 . S
Eu297 C296 2.835 . S
Eu297 O316 2.473 . S
Eu297 O317 2.480 . S
Eu297 O318 2.430 . S
Eu297 O319 2.670 . S
Eu297 O320 2.394 . S
Eu297 O325 2.355 1_565 S
Eu297 O327 2.374 . S
C298 C296 1.500 . S
C298 C299 1.377 . S
C298 C303 1.377 . S
C299 C298 1.377 . S
C299 C300 1.395 . S
C299 H328 0.931 . S
C300 C299 1.395 . S
C300 C301 1.383 . S
C300 H329 0.931 . S
C301 C300 1.383 . S
C301 C302 1.394 . S
C302 C301 1.394 . S
C302 C303 1.378 . S
C302 H330 0.931 1_565 S
C303 C298 1.377 . S
C303 C302 1.378 . S
C303 H331 0.931 1_565 S
C304 O318 1.259 . S
C304 O319 1.270 . S
C305 O320 1.251 1_545 S
C305 O321 1.251 . S
C306 Eu307 2.835 . S
C306 C308 1.500 . S
C306 O322 1.257 . S
C306 O323 1.260 . S
Eu307 C306 2.835 . S
Eu307 O319 2.355 1_545 S
Eu307 O321 2.374 . S
Eu307 O322 2.473 . S
Eu307 O323 2.480 . S
Eu307 O324 2.430 . S
Eu307 O325 2.670 . S
Eu307 O326 2.394 . S
C308 C306 1.500 . S
C308 C309 1.377 . S
C308 C313 1.377 1_556 S
C309 C308 1.377 . S
C309 C310 1.395 1_556 S
C309 H332 0.931 . S
C310 C309 1.395 1_554 S
C310 C311 1.383 . S
C310 H333 0.931 . S
C311 C310 1.383 . S
C311 C312 1.394 . S
C312 C311 1.394 . S
C312 C313 1.378 . S
C312 H334 0.931 1_545 S
C313 C308 1.377 1_554 S
C313 C312 1.378 . S
C313 H335 0.931 1_545 S
C314 O324 1.259 . S
C314 O325 1.270 . S
C315 O326 1.251 1_565 S
C315 O327 1.251 . S
O316 C296 1.257 . S
O316 Eu297 2.473 . S
O317 C296 1.260 . S
O317 Eu297 2.480 . S
O318 Eu297 2.430 . S
O318 C304 1.259 . S
O319 Eu297 2.670 . S
O319 C304 1.270 . S
O319 Eu307 2.355 1_565 S
O320 Eu297 2.394 . S
O320 C305 1.251 1_565 S
O321 C305 1.251 . S
O321 Eu307 2.374 . S
O322 C306 1.257 . S
O322 Eu307 2.473 . S
O323 C306 1.260 . S
O323 Eu307 2.480 . S
O324 Eu307 2.430 . S
O324 C314 1.259 . S
O325 Eu297 2.355 1_545 S
O325 Eu307 2.670 . S
O325 C314 1.270 . S
O326 Eu307 2.394 . S
O326 C315 1.251 1_545 S
O327 Eu297 2.374 . S
O327 C315 1.251 . S
H328 C299 0.931 . S
H329 C300 0.931 . S
H330 C302 0.931 1_545 S
H331 C303 0.931 1_545 S
H332 C309 0.931 . S
H333 C310 0.931 . S
H334 C312 0.931 1_565 S
H335 C313 0.931 1_565 S
C336 Eu337 2.835 . S
C336 C338 1.500 . S
C336 O356 1.257 . S
C336 O357 1.260 . S
Eu337 C336 2.835 . S
Eu337 O356 2.473 . S
Eu337 O357 2.480 . S
Eu337 O358 2.430 . S
Eu337 O359 2.670 . S
Eu337 O360 2.394 . S
Eu337 O365 2.355 . S
Eu337 O367 2.374 . S
C338 C336 1.500 . S
C338 C339 1.377 . S
C338 C343 1.377 . S
C339 C338 1.377 . S
C339 C340 1.395 . S
C339 H368 0.931 . S
C340 C339 1.395 . S
C340 C341 1.383 . S
C340 H369 0.931 . S
C341 C340 1.383 . S
C341 C342 1.394 . S
C342 C341 1.394 . S
C342 C343 1.378 . S
C342 H370 0.931 . S
C343 C338 1.377 . S
C343 C342 1.378 . S
C343 H371 0.931 . S
C344 O358 1.259 . S
C344 O359 1.270 . S
C345 O360 1.251 . S
C345 O361 1.251 . S
C346 Eu347 2.835 . S
C346 C348 1.500 . S
C346 O362 1.257 . S
C346 O363 1.260 . S
Eu347 C346 2.835 . S
Eu347 O359 2.355 . S
Eu347 O361 2.374 . S
Eu347 O362 2.473 . S
Eu347 O363 2.480 . S
Eu347 O364 2.430 . S
Eu347 O365 2.670 . S
Eu347 O366 2.394 . S
C348 C346 1.500 . S
C348 C349 1.377 . S
C348 C353 1.377 1_556 S
C349 C348 1.377 . S
C349 C350 1.395 1_556 S
C349 H372 0.931 . S
C350 C349 1.395 1_554 S
C350 C351 1.383 . S
C350 H373 0.931 . S
C351 C350 1.383 . S
C351 C352 1.394 . S
C352 C351 1.394 . S
C352 C353 1.378 . S
C352 H374 0.931 . S
C353 C348 1.377 1_554 S
C353 C352 1.378 . S
C353 H375 0.931 . S
C354 O364 1.259 . S
C354 O365 1.270 . S
C355 O366 1.251 . S
C355 O367 1.251 . S
O356 C336 1.257 . S
O356 Eu337 2.473 . S
O357 C336 1.260 . S
O357 Eu337 2.480 . S
O358 Eu337 2.430 . S
O358 C344 1.259 . S
O359 Eu337 2.670 . S
O359 C344 1.270 . S
O359 Eu347 2.355 . S
O360 Eu337 2.394 . S
O360 C345 1.251 . S
O361 C345 1.251 . S
O361 Eu347 2.374 . S
O362 C346 1.257 . S
O362 Eu347 2.473 . S
O363 C346 1.260 . S
O363 Eu347 2.480 . S
O364 Eu347 2.430 . S
O364 C354 1.259 . S
O365 Eu337 2.355 . S
O365 Eu347 2.670 . S
O365 C354 1.270 . S
O366 Eu347 2.394 . S
O366 C355 1.251 . S
O367 Eu337 2.374 . S
O367 C355 1.251 . S
H368 C339 0.931 . S
H369 C340 0.931 . S
H370 C342 0.931 . S
H371 C343 0.931 . S
H372 C349 0.931 . S
H373 C350 0.931 . S
H374 C352 0.931 . S
H375 C353 0.931 . S
C376 Eu377 2.835 . S
C376 C378 1.500 . S
C376 O396 1.257 . S
C376 O397 1.260 . S
Eu377 C376 2.835 . S
Eu377 O396 2.473 . S
Eu377 O397 2.480 . S
Eu377 O398 2.430 . S
Eu377 O399 2.670 1_455 S
Eu377 O400 2.394 . S
Eu377 O405 2.355 . S
Eu377 O407 2.374 1_455 S
C378 C376 1.500 . S
C378 C379 1.377 . S
C378 C383 1.377 . S
C379 C378 1.377 . S
C379 C380 1.395 . S
C379 H408 0.931 . S
C380 C379 1.395 . S
C380 C381 1.383 . S
C380 H409 0.931 . S
C381 C380 1.383 . S
C381 C382 1.394 . S
C382 C381 1.394 . S
C382 C383 1.378 . S
C382 H410 0.931 . S
C383 C378 1.377 . S
C383 C382 1.378 . S
C383 H411 0.931 . S
C384 O398 1.258 . S
C384 O399 1.271 1_455 S
C385 O400 1.251 . S
C385 O401 1.251 . S
C386 Eu387 2.835 . S
C386 C388 1.500 . S
C386 O402 1.257 . S
C386 O403 1.260 . S
Eu387 C386 2.835 . S
Eu387 O399 2.355 . S
Eu387 O401 2.374 1_655 S
Eu387 O402 2.473 . S
Eu387 O403 2.480 . S
Eu387 O404 2.430 . S
Eu387 O405 2.670 1_655 S
Eu387 O406 2.394 . S
C388 C386 1.500 . S
C388 C389 1.377 . S
C388 C393 1.377 1_556 S
C389 C388 1.377 . S
C389 C390 1.395 1_556 S
C389 H412 0.931 . S
C390 C389 1.395 1_554 S
C390 C391 1.383 . S
C390 H413 0.931 . S
C391 C390 1.383 . S
C391 C392 1.394 . S
C392 C391 1.394 . S
C392 C393 1.378 . S
C392 H414 0.931 . S
C393 C388 1.377 1_554 S
C393 C392 1.378 . S
C393 H415 0.931 . S
C394 O404 1.258 1_455 S
C394 O405 1.271 . S
C395 O406 1.251 . S
C395 O407 1.251 . S
O396 C376 1.257 . S
O396 Eu377 2.473 . S
O397 C376 1.260 . S
O397 Eu377 2.480 . S
O398 Eu377 2.430 . S
O398 C384 1.258 . S
O399 Eu377 2.670 1_655 S
O399 C384 1.271 1_655 S
O399 Eu387 2.355 . S
O400 Eu377 2.394 . S
O400 C385 1.251 . S
O401 C385 1.251 . S
O401 Eu387 2.374 1_455 S
O402 C386 1.257 . S
O402 Eu387 2.473 . S
O403 C386 1.260 . S
O403 Eu387 2.480 . S
O404 Eu387 2.430 . S
O404 C394 1.258 1_655 S
O405 Eu377 2.355 . S
O405 Eu387 2.670 1_455 S
O405 C394 1.271 . S
O406 Eu387 2.394 . S
O406 C395 1.251 . S
O407 Eu377 2.374 1_655 S
O407 C395 1.251 . S
H408 C379 0.931 . S
H409 C380 0.931 . S
H410 C382 0.931 . S
H411 C383 0.931 . S
H412 C389 0.931 . S
H413 C390 0.931 . S
H414 C392 0.931 . S
H415 C393 0.931 . S
C416 C417 1.369 . S
C416 C418 1.419 . S
C416 H420 0.930 . S
C417 C416 1.369 . S
C417 C426 1.429 1_565 S
C418 C416 1.419 . S
C418 C419 1.363 . S
C418 H421 0.929 . S
C419 C418 1.363 . S
C419 C425 1.428 1_565 S
H420 C416 0.930 . S
H421 C418 0.929 . S
S422 N423 1.613 . S
S422 N424 1.610 . S
N423 S422 1.613 . S
N423 C426 1.350 . S
N424 S422 1.610 . S
N424 C425 1.351 . S
C425 C419 1.428 1_545 S
C425 N424 1.351 . S
C425 C426 1.434 . S
C426 C417 1.429 1_545 S
C426 N423 1.350 . S
C426 C425 1.434 . S
C427 C428 1.369 . S
C427 C429 1.419 . S
C427 H431 0.930 . S
C428 C427 1.369 . S
C428 C437 1.429 . S
C429 C427 1.419 . S
C429 C430 1.363 . S
C429 H432 0.929 . S
C430 C429 1.363 . S
C430 C436 1.428 . S
H431 C427 0.930 . S
H432 C429 0.929 . S
S433 N434 1.613 . S
S433 N435 1.610 . S
N434 S433 1.613 . S
N434 C437 1.350 . S
N435 S433 1.610 . S
N435 C436 1.351 . S
C436 C430 1.428 . S
C436 N435 1.351 . S
C436 C437 1.434 . S
C437 C428 1.429 . S
C437 N434 1.350 . S
C437 C436 1.434 . S
C438 C439 1.369 . S
C438 C440 1.419 . S
C438 H442 0.930 . S
C439 C438 1.369 . S
C439 C448 1.429 . S
C440 C438 1.419 . S
C440 C441 1.363 . S
C440 H443 0.929 . S
C441 C440 1.363 . S
C441 C447 1.428 . S
H442 C438 0.930 . S
H443 C440 0.929 . S
S444 N445 1.613 . S
S444 N446 1.610 . S
N445 S444 1.613 . S
N445 C448 1.350 . S
N446 S444 1.610 . S
N446 C447 1.351 . S
C447 C441 1.428 . S
C447 N446 1.351 . S
C447 C448 1.434 . S
C448 C439 1.429 . S
C448 N445 1.350 . S
C448 C447 1.434 . S
C449 C450 1.352 1_655 S
C449 C451 1.419 . S
C449 H453 0.930 . S
C450 C449 1.352 1_455 S
C450 C459 1.446 . S
C451 C449 1.419 . S
C451 C452 1.363 1_655 S
C451 H454 0.929 . S
C452 C451 1.363 1_455 S
C452 C458 1.428 . S
H453 C449 0.930 . S
H454 C451 0.929 . S
S455 N456 1.613 . S
S455 N457 1.610 . S
N456 S455 1.613 . S
N456 C459 1.350 . S
N457 S455 1.610 . S
N457 C458 1.351 . S
C458 C452 1.428 . S
C458 N457 1.351 . S
C458 C459 1.434 . S
C459 C450 1.446 . S
C459 N456 1.350 . S
C459 C458 1.434 . S
C460 C461 1.366 1_545 S
C460 C462 1.419 . S
C460 H464 0.930 . S
C461 C460 1.366 1_565 S
C461 C470 1.432 . S
C462 C460 1.419 . S
C462 C463 1.365 1_545 S
C462 H465 0.929 . S
C463 C462 1.365 1_565 S
C463 C469 1.426 . S
H464 C460 0.930 . S
H465 C462 0.929 . S
S466 N467 1.613 . S
S466 N468 1.610 . S
N467 S466 1.613 . S
N467 C470 1.350 . S
N468 S466 1.610 . S
N468 C469 1.351 . S
C469 C463 1.426 . S
C469 N468 1.351 . S
C469 C470 1.434 . S
C470 C461 1.432 . S
C470 N467 1.350 . S
C470 C469 1.434 . S
C471 C472 1.369 . S
C471 C473 1.419 . S
C471 H475 0.930 . S
C472 C471 1.369 . S
C472 C481 1.429 . S
C473 C471 1.419 . S
C473 C474 1.363 . S
C473 H476 0.929 . S
C474 C473 1.363 . S
C474 C480 1.428 . S
H475 C471 0.930 . S
H476 C473 0.929 . S
S477 N478 1.613 . S
S477 N479 1.610 1_554 S
N478 S477 1.613 . S
N478 C481 1.350 . S
N479 S477 1.610 1_556 S
N479 C480 1.351 1_556 S
C480 C474 1.428 . S
C480 N479 1.351 1_554 S
C480 C481 1.434 . S
C481 C472 1.429 . S
C481 N478 1.350 . S
C481 C480 1.434 . S
C482 C483 1.369 . S
C482 C484 1.419 . S
C482 H486 0.930 . S
C483 C482 1.369 . S
C483 C492 1.429 . S
C484 C482 1.419 . S
C484 C485 1.363 . S
C484 H487 0.929 . S
C485 C484 1.363 . S
C485 C491 1.428 . S
H486 C482 0.930 . S
H487 C484 0.929 . S
S488 N489 1.613 . S
S488 N490 1.610 . S
N489 S488 1.613 . S
N489 C492 1.350 . S
N490 S488 1.610 . S
N490 C491 1.351 . S
C491 C485 1.428 . S
C491 N490 1.351 . S
C491 C492 1.434 . S
C492 C483 1.429 . S
C492 N489 1.350 . S
C492 C491 1.434 . S
C493 C494 1.349 1_455 S
C493 C495 1.419 . S
C493 H497 0.930 . S
C494 C493 1.349 1_655 S
C494 C503 1.450 . S
C495 C493 1.419 . S
C495 C496 1.363 1_455 S
C495 H498 0.929 . S
C496 C495 1.363 1_655 S
C496 C502 1.428 . S
H497 C493 0.930 . S
H498 C495 0.929 . S
S499 N500 1.613 . S
S499 N501 1.610 . S
N500 S499 1.613 . S
N500 C503 1.350 . S
N501 S499 1.610 . S
N501 C502 1.351 . S
C502 C496 1.428 . S
C502 N501 1.351 . S
C502 C503 1.434 . S
C503 C494 1.450 . S
C503 N500 1.350 . S
C503 C502 1.434 . S
C504 C505 1.366 1_455 S
C504 C506 1.419 1_455 S
C504 H508 0.930 . S
C505 C504 1.366 1_655 S
C505 C514 1.445 . S
C506 C504 1.419 1_655 S
C506 C507 1.363 . S
C506 H509 0.929 . S
C507 C506 1.363 . S
C507 C513 1.428 . S
H508 C504 0.930 . S
H509 C506 0.929 . S
S510 N511 1.613 . S
S510 N512 1.610 . S
N511 S510 1.613 . S
N511 C514 1.350 . S
N512 S510 1.610 . S
N512 C513 1.351 . S
C513 C507 1.428 . S
C513 N512 1.351 . S
C513 C514 1.434 . S
C514 C505 1.445 . S
C514 N511 1.350 . S
C514 C513 1.434 . S
C515 C516 1.370 1_565 S
C515 C517 1.419 . S
C515 H519 0.930 . S
C516 C515 1.370 1_545 S
C516 C525 1.429 . S
C517 C515 1.419 . S
C517 C518 1.363 . S
C517 H520 0.929 . S
C518 C517 1.363 . S
C518 C524 1.428 . S
H519 C515 0.930 . S
H520 C517 0.929 . S
S521 N522 1.613 . S
S521 N523 1.610 1_545 S
N522 S521 1.613 . S
N522 C525 1.363 . S
N523 S521 1.610 1_565 S
N523 C524 1.351 . S
C524 C518 1.428 . S
C524 N523 1.351 . S
C524 C525 1.420 1_565 S
C525 C516 1.429 . S
C525 N522 1.363 . S
C525 C524 1.420 1_545 S
C526 C527 1.369 . S
C526 C528 1.419 . S
C526 H530 0.930 . S
C527 C526 1.369 . S
C527 C536 1.429 . S
C528 C526 1.419 . S
C528 C529 1.363 . S
C528 H531 0.929 . S
C529 C528 1.363 . S
C529 C535 1.428 . S
H530 C526 0.930 . S
H531 C528 0.929 . S
S532 N533 1.613 . S
S532 N534 1.610 . S
N533 S532 1.613 . S
N533 C536 1.350 . S
N534 S532 1.610 . S
N534 C535 1.351 . S
C535 C529 1.428 . S
C535 N534 1.351 . S
C535 C536 1.434 . S
C536 C527 1.429 . S
C536 N533 1.350 . S
C536 C535 1.434 . S
C537 C538 1.369 . S
C537 C539 1.419 . S
C537 H541 0.930 . S
C538 C537 1.369 . S
C538 C547 1.429 . S
C539 C537 1.419 . S
C539 C540 1.363 . S
C539 H542 0.929 . S
C540 C539 1.363 . S
C540 C546 1.428 . S
H541 C537 0.930 . S
H542 C539 0.929 . S
S543 N544 1.613 . S
S543 N545 1.610 . S
N544 S543 1.613 . S
N544 C547 1.350 . S
N545 S543 1.610 . S
N545 C546 1.351 . S
C546 C540 1.428 . S
C546 N545 1.351 . S
C546 C547 1.434 . S
C547 C538 1.429 . S
C547 N544 1.350 . S
C547 C546 1.434 . S
C548 C549 1.371 1_455 S
C548 C550 1.419 . S
C548 H552 0.930 . S
C549 C548 1.371 1_655 S
C549 C558 1.428 . S
C550 C548 1.419 . S
C550 C551 1.363 . S
C550 H553 0.929 . S
C551 C550 1.363 . S
C551 C557 1.428 . S
H552 C548 0.930 . S
H553 C550 0.929 . S
S554 N555 1.613 . S
S554 N556 1.610 1_655 S
N555 S554 1.613 . S
N555 C558 1.350 . S
N556 S554 1.610 1_455 S
N556 C557 1.351 . S
C557 C551 1.428 . S
C557 N556 1.351 . S
C557 C558 1.434 1_455 S
C558 C549 1.428 . S
C558 N555 1.350 . S
C558 C557 1.434 1_655 S
C559 C560 1.373 1_545 S
C559 C561 1.419 . S
C559 H563 0.930 . S
C560 C559 1.373 1_565 S
C560 C569 1.428 . S
C561 C559 1.419 . S
C561 C562 1.363 . S
C561 H564 0.929 . S
C562 C561 1.363 . S
C562 C568 1.428 . S
H563 C559 0.930 . S
H564 C561 0.929 . S
S565 N566 1.613 1_556 S
S565 N567 1.610 1_565 S
N566 S565 1.613 1_554 S
N566 C569 1.350 . S
N567 S565 1.610 1_545 S
N567 C568 1.351 1_556 S
C568 C562 1.428 . S
C568 N567 1.351 1_554 S
C568 C569 1.434 1_545 S
C569 C560 1.428 . S
C569 N566 1.350 . S
C569 C568 1.434 1_565 S
C570 C571 1.369 . S
C570 C572 1.419 . S
C570 H574 0.930 . S
C571 C570 1.369 . S
C571 C580 1.429 . S
C572 C570 1.419 . S
C572 C573 1.363 . S
C572 H575 0.929 1_554 S
C573 C572 1.363 . S
C573 C579 1.428 . S
H574 C570 0.930 . S
H575 C572 0.929 1_556 S
S576 N577 1.613 . S
S576 N578 1.610 . S
N577 S576 1.613 . S
N577 C580 1.350 . S
N578 S576 1.610 . S
N578 C579 1.351 . S
C579 C573 1.428 . S
C579 N578 1.351 . S
C579 C580 1.434 . S
C580 C571 1.429 . S
C580 N577 1.350 . S
C580 C579 1.434 . S
C581 C582 1.369 . S
C581 C583 1.419 . S
C581 H585 0.930 . S
C582 C581 1.369 . S
C582 C591 1.429 . S
C583 C581 1.419 . S
C583 C584 1.363 . S
C583 H586 0.929 . S
C584 C583 1.363 . S
C584 C590 1.428 . S
H585 C581 0.930 . S
H586 C583 0.929 . S
S587 N588 1.613 . S
S587 N589 1.610 . S
N588 S587 1.613 . S
N588 C591 1.350 . S
N589 S587 1.610 . S
N589 C590 1.351 . S
C590 C584 1.428 . S
C590 N589 1.351 . S
C590 C591 1.434 . S
C591 C582 1.429 . S
C591 N588 1.350 . S
C591 C590 1.434 . S
C592 C593 1.369 1_655 S
C592 C594 1.419 . S
C592 H596 0.930 . S
C593 C592 1.369 1_455 S
C593 C602 1.429 . S
C594 C592 1.419 . S
C594 C595 1.363 1_655 S
C594 H597 0.929 . S
C595 C594 1.363 1_455 S
C595 C601 1.428 . S
H596 C592 0.930 . S
H597 C594 0.929 . S
S598 N599 1.613 . S
S598 N600 1.610 . S
N599 S598 1.613 . S
N599 C602 1.350 . S
N600 S598 1.610 . S
N600 C601 1.351 . S
C601 C595 1.428 . S
C601 N600 1.351 . S
C601 C602 1.434 . S
C602 C593 1.429 . S
C602 N599 1.350 . S
C602 C601 1.434 . S
C603 C604 1.369 1_565 S
C603 C605 1.419 . S
C603 H607 0.930 . S
C604 C603 1.369 1_545 S
C604 C613 1.429 . S
C605 C603 1.419 . S
C605 C606 1.363 1_565 S
C605 H608 0.929 . S
C606 C605 1.363 1_545 S
C606 C612 1.428 . S
H607 C603 0.930 . S
H608 C605 0.929 . S
S609 N610 1.613 . S
S609 N611 1.610 . S
N610 S609 1.613 . S
N610 C613 1.350 . S
N611 S609 1.610 . S
N611 C612 1.351 . S
C612 C606 1.428 . S
C612 N611 1.351 . S
C612 C613 1.434 . S
C613 C604 1.429 . S
C613 N610 1.350 . S
C613 C612 1.434 . S
C614 C615 1.369 . S
C614 C616 1.419 . S
C614 H618 0.930 . S
C615 C614 1.369 . S
C615 C624 1.429 . S
C616 C614 1.419 . S
C616 C617 1.363 . S
C616 H619 0.929 . S
C617 C616 1.363 . S
C617 C623 1.428 . S
H618 C614 0.930 . S
H619 C616 0.929 . S
S620 N621 1.613 1_554 S
S620 N622 1.610 1_554 S
N621 S620 1.613 1_556 S
N621 C624 1.350 . S
N622 S620 1.610 1_556 S
N622 C623 1.351 . S
C623 C617 1.428 . S
C623 N622 1.351 . S
C623 C624 1.434 . S
C624 C615 1.429 . S
C624 N621 1.350 . S
C624 C623 1.434 . S
C625 C626 1.369 . S
C625 C627 1.419 . S
C625 H629 0.930 . S
C626 C625 1.369 . S
C626 C635 1.429 . S
C627 C625 1.419 . S
C627 C628 1.363 . S
C627 H630 0.929 . S
C628 C627 1.363 . S
C628 C634 1.428 . S
H629 C625 0.930 . S
H630 C627 0.929 . S
S631 N632 1.613 . S
S631 N633 1.610 . S
N632 S631 1.613 . S
N632 C635 1.350 . S
N633 S631 1.610 . S
N633 C634 1.351 . S
C634 C628 1.428 . S
C634 N633 1.351 . S
C634 C635 1.434 . S
C635 C626 1.429 . S
C635 N632 1.350 . S
C635 C634 1.434 . S
C636 C637 1.369 . S
C636 C638 1.419 . S
C636 H640 0.930 . S
C637 C636 1.369 . S
C637 C646 1.423 1_655 S
C638 C636 1.419 . S
C638 C639 1.363 . S
C638 H641 0.929 . S
C639 C638 1.363 . S
C639 C645 1.428 . S
H640 C636 0.930 . S
H641 C638 0.929 . S
S642 N643 1.613 . S
S642 N644 1.610 . S
N643 S642 1.613 . S
N643 C646 1.358 . S
N644 S642 1.610 . S
N644 C645 1.351 1_455 S
C645 C639 1.428 . S
C645 N644 1.351 1_655 S
C645 C646 1.432 1_655 S
C646 C637 1.423 1_455 S
C646 N643 1.358 . S
C646 C645 1.432 1_455 S
C647 C648 1.369 1_545 S
C647 C649 1.419 . S
C647 H651 0.930 . S
C648 C647 1.369 1_565 S
C648 C657 1.429 . S
C649 C647 1.419 . S
C649 C650 1.363 1_545 S
C649 H652 0.929 . S
C650 C649 1.363 1_565 S
C650 C656 1.428 . S
H651 C647 0.930 . S
H652 C649 0.929 . S
S653 N654 1.613 . S
S653 N655 1.610 . S
N654 S653 1.613 . S
N654 C657 1.350 . S
N655 S653 1.610 . S
N655 C656 1.351 . S
C656 C650 1.428 . S
C656 N655 1.351 . S
C656 C657 1.434 . S
C657 C648 1.429 . S
C657 N654 1.350 . S
C657 C656 1.434 . S
C658 C659 1.369 . S
C658 C660 1.419 . S
C658 H662 0.930 . S
C659 C658 1.369 . S
C659 C668 1.429 . S
C660 C658 1.419 . S
C660 C661 1.363 . S
C660 H663 0.929 . S
C661 C660 1.363 . S
C661 C667 1.428 . S
H662 C658 0.930 . S
H663 C660 0.929 . S
S664 N665 1.613 . S
S664 N666 1.610 . S
N665 S664 1.613 . S
N665 C668 1.350 . S
N666 S664 1.610 . S
N666 C667 1.351 . S
C667 C661 1.428 . S
C667 N666 1.351 . S
C667 C668 1.434 . S
C668 C659 1.429 . S
C668 N665 1.350 . S
C668 C667 1.434 . S
C669 C670 1.369 . S
C669 C671 1.419 . S
C669 H673 0.930 . S
C670 C669 1.369 . S
C670 C679 1.429 . S
C671 C669 1.419 . S
C671 C672 1.363 . S
C671 H674 0.929 . S
C672 C671 1.363 . S
C672 C678 1.428 . S
H673 C669 0.930 . S
H674 C671 0.929 . S
S675 N676 1.613 . S
S675 N677 1.610 . S
N676 S675 1.613 . S
N676 C679 1.350 . S
N677 S675 1.610 . S
N677 C678 1.351 . S
C678 C672 1.428 . S
C678 N677 1.351 . S
C678 C679 1.434 . S
C679 C670 1.429 . S
C679 N676 1.350 . S
C679 C678 1.434 . S
C417 C215 2.329 1_565 S
C419 C274 2.639 . S
C430 C314 2.661 . S
C428 C247 2.331 . S
C441 C354 2.668 . S
C439 C151 2.344 . S
C452 C394 2.647 . S
C450 C183 2.337 . S
C463 C264 2.639 1_564 S
C461 C87 2.333 1_565 S
C472 C119 2.371 . S
C474 C304 2.662 1_554 S
C483 C23 2.388 . S
C485 C344 2.669 1_554 S
C494 C55 2.346 1_655 S
C496 C384 2.645 1_654 S
C507 C261 0.771 . S
C505 C189 0.754 1_655 S
C518 C301 0.752 . S
C516 C221 0.753 . S
C529 C341 0.718 . S
C527 C253 0.713 . S
C538 C157 0.719 . S
C540 C381 0.712 . S
C549 C61 0.774 1_655 S
C551 C271 0.752 . S
C562 C311 0.744 . S
C560 C93 0.764 1_565 S
C573 C351 0.723 . S
C571 C125 0.729 . S
C582 C29 0.748 . S
C584 C391 0.721 . S
C593 C177 2.824 . S
C595 C265 3.230 . S
C604 C209 2.774 . S
C606 C305 3.193 . S
C617 C345 3.178 . S
C615 C241 2.742 . S
C628 C385 3.220 . S
C626 C145 2.792 . S
C637 C49 2.863 1_655 S
C639 C275 3.239 . S
C650 C315 3.193 . S
C648 C81 2.813 1_565 S
C661 C355 3.176 . S
C659 C113 2.824 . S
C670 C17 2.858 . S
C672 C395 3.227 . S
