# Generated by pormake.
# Topology pyr, (3,6)-cn, num edge types: 1
# Building blocks:
#     Node 0, Type 0, BuildingBlock: CUQRIR_clean_linker_1, # of connection points: 3
#     Node 1, Type 0, BuildingBlock: CUQRIR_clean_linker_1, # of connection points: 3
#     Node 2, Type 0, BuildingBlock: CUQRIR_clean_linker_1, # of connection points: 3
#     Node 3, Type 0, BuildingBlock: CUQRIR_clean_linker_1, # of connection points: 3
#     Node 4, Type 0, BuildingBlock: CUQRIR_clean_linker_1, # of connection points: 3
#     Node 5, Type 0, BuildingBlock: CUQRIR_clean_linker_1, # of connection points: 3
#     Node 6, Type 0, BuildingBlock: CUQRIR_clean_linker_1, # of connection points: 3
#     Node 7, Type 0, BuildingBlock: CUQRIR_clean_linker_1, # of connection points: 3
#     Node 8, Type 1, BuildingBlock: INOVEN_clean_sbu_0, # of connection points: 6
#     Node 9, Type 1, BuildingBlock: INOVEN_clean_sbu_0, # of connection points: 6
#     Node 10, Type 1, BuildingBlock: INOVEN_clean_sbu_0, # of connection points: 6
#     Node 11, Type 1, BuildingBlock: INOVEN_clean_sbu_0, # of connection points: 6
#     Edge 12, Type (0, 1), BuildingBlock: XIVTED_clean_linker_0, # of connection points: 2
#     Edge 13, Type (0, 1), BuildingBlock: XIVTED_clean_linker_0, # of connection points: 2
#     Edge 14, Type (0, 1), BuildingBlock: XIVTED_clean_linker_0, # of connection points: 2
#     Edge 15, Type (0, 1), BuildingBlock: XIVTED_clean_linker_0, # of connection points: 2
#     Edge 16, Type (0, 1), BuildingBlock: XIVTED_clean_linker_0, # of connection points: 2
#     Edge 17, Type (0, 1), BuildingBlock: XIVTED_clean_linker_0, # of connection points: 2
#     Edge 18, Type (0, 1), BuildingBlock: XIVTED_clean_linker_0, # of connection points: 2
#     Edge 19, Type (0, 1), BuildingBlock: XIVTED_clean_linker_0, # of connection points: 2
#     Edge 20, Type (0, 1), BuildingBlock: XIVTED_clean_linker_0, # of connection points: 2
#     Edge 21, Type (0, 1), BuildingBlock: XIVTED_clean_linker_0, # of connection points: 2
#     Edge 22, Type (0, 1), BuildingBlock: XIVTED_clean_linker_0, # of connection points: 2
#     Edge 23, Type (0, 1), BuildingBlock: XIVTED_clean_linker_0, # of connection points: 2
#     Edge 24, Type (0, 1), BuildingBlock: XIVTED_clean_linker_0, # of connection points: 2
#     Edge 25, Type (0, 1), BuildingBlock: XIVTED_clean_linker_0, # of connection points: 2
#     Edge 26, Type (0, 1), BuildingBlock: XIVTED_clean_linker_0, # of connection points: 2
#     Edge 27, Type (0, 1), BuildingBlock: XIVTED_clean_linker_0, # of connection points: 2
#     Edge 28, Type (0, 1), BuildingBlock: XIVTED_clean_linker_0, # of connection points: 2
#     Edge 29, Type (0, 1), BuildingBlock: XIVTED_clean_linker_0, # of connection points: 2
#     Edge 30, Type (0, 1), BuildingBlock: XIVTED_clean_linker_0, # of connection points: 2
#     Edge 31, Type (0, 1), BuildingBlock: XIVTED_clean_linker_0, # of connection points: 2
#     Edge 32, Type (0, 1), BuildingBlock: XIVTED_clean_linker_0, # of connection points: 2
#     Edge 33, Type (0, 1), BuildingBlock: XIVTED_clean_linker_0, # of connection points: 2
#     Edge 34, Type (0, 1), BuildingBlock: XIVTED_clean_linker_0, # of connection points: 2
#     Edge 35, Type (0, 1), BuildingBlock: XIVTED_clean_linker_0, # of connection points: 2
# Relax obj value: 0.197
# Max RMSD: 0.257
# Mean RMSD: 0.169
data_MOF--net-pyr--node1-INOVEN_clean_sbu_0--node2-CUQRIR_clean_linker_1--edge1-XIVTED_clean_linker_0
_symmetry_space_group_name_H-M    P1
_symmetry_Int_Tables_number       1
_symmetry_cell_setting            triclinic
loop_
_symmetry_equiv_pos_as_xyz
'x, y, z'
_cell_length_a     35.784023
_cell_length_b     37.638042
_cell_length_c     33.377285
_cell_angle_alpha  90.179823
_cell_angle_beta   89.732974
_cell_angle_gamma 105.12832
loop_
_atom_site_label
_atom_site_type_symbol
_atom_site_fract_x
_atom_site_fract_y
_atom_site_fract_z
_atom_type_partial_charge
C0 C 0.35306 0.37524 0.21981 0.0
N1 N 0.37147 0.34899 0.22834 0.0
N2 N 0.36204 0.38856 0.18231 0.0
C3 C 0.32127 0.3832 0.24552 0.0
C4 C 0.386 0.36888 0.16805 0.0
N5 N 0.39185 0.34492 0.19606 0.0
C6 C 0.40248 0.37229 0.12636 0.0
H7 H 0.30189 0.39623 0.22854 0.0
H8 H 0.33463 0.4019 0.27027 0.0
H9 H 0.30309 0.35754 0.25899 0.0
H10 H 0.40545 0.40043 0.11454 0.0
H11 H 0.38256 0.35242 0.10648 0.0
H12 H 0.43106 0.36592 0.12594 0.0
C13 C 0.20516 0.85843 0.63728 0.0
N14 N 0.20054 0.87954 0.66887 0.0
N15 N 0.22964 0.83774 0.64637 0.0
C16 C 0.1915 0.86293 0.59543 0.0
C17 C 0.23903 0.84652 0.68507 0.0
N18 N 0.22194 0.87232 0.69866 0.0
C19 C 0.2707 0.83507 0.70698 0.0
H20 H 0.15975 0.85938 0.59554 0.0
H21 H 0.19836 0.84255 0.57447 0.0
H22 H 0.20545 0.89116 0.5846 0.0
H23 H 0.29912 0.85332 0.69791 0.0
H24 H 0.27047 0.80636 0.69908 0.0
H25 H 0.26734 0.83728 0.73989 0.0
C26 C 0.6265 0.39662 0.87463 0.0
N27 N 0.6513 0.39197 0.90395 0.0
N28 N 0.64061 0.42865 0.85438 0.0
C29 C 0.58796 0.37014 0.86637 0.0
C30 C 0.675 0.44349 0.87261 0.0
N31 N 0.68199 0.42127 0.9024 0.0
C32 C 0.70119 0.48057 0.86203 0.0
H33 H 0.59003 0.34136 0.86938 0.0
H34 H 0.57738 0.37432 0.83601 0.0
H35 H 0.56664 0.37459 0.88879 0.0
H36 H 0.68495 0.49846 0.84771 0.0
H37 H 0.72351 0.47674 0.84047 0.0
H38 H 0.71598 0.49464 0.88909 0.0
C39 C 0.84273 0.72139 0.37063 0.0
N40 N 0.87734 0.7459 0.36187 0.0
N41 N 0.82465 0.73275 0.40223 0.0
C42 C 0.82721 0.68531 0.34921 0.0
C43 C 0.84951 0.76532 0.41251 0.0
N44 N 0.88163 0.7736 0.38857 0.0
C45 C 0.84192 0.78974 0.44578 0.0
H46 H 0.81169 0.69023 0.32194 0.0
H47 H 0.80675 0.66522 0.36844 0.0
H48 H 0.85098 0.67321 0.33972 0.0
H49 H 0.8105 0.78442 0.45217 0.0
H50 H 0.85347 0.81923 0.43813 0.0
H51 H 0.85673 0.78421 0.47331 0.0
C52 C 0.65312 0.82453 0.89397 0.0
N53 N 0.68013 0.81917 0.8679 0.0
N54 N 0.63331 0.8474 0.87843 0.0
C55 C 0.65019 0.81205 0.93687 0.0
C56 C 0.64907 0.85512 0.84148 0.0
N57 N 0.67829 0.8389 0.8354 0.0
C58 C 0.63828 0.88182 0.81315 0.0
H59 H 0.65372 0.78367 0.93878 0.0
H60 H 0.62196 0.81297 0.95015 0.0
H61 H 0.67385 0.8304 0.95436 0.0
H62 H 0.65029 0.91033 0.82427 0.0
H63 H 0.60633 0.87672 0.81218 0.0
H64 H 0.64931 0.87926 0.78244 0.0
C65 C 0.83206 0.31306 0.52496 0.0
N66 N 0.84065 0.28857 0.499 0.0
N67 N 0.8133 0.33498 0.50596 0.0
C68 C 0.84186 0.3159 0.56878 0.0
C69 C 0.81041 0.32272 0.46762 0.0
N70 N 0.82746 0.29483 0.46329 0.0
C71 C 0.78624 0.3345 0.43586 0.0
H72 H 0.81792 0.29744 0.5859 0.0
H73 H 0.84522 0.34445 0.57967 0.0
H74 H 0.86887 0.30752 0.57444 0.0
H75 H 0.7627 0.34492 0.44918 0.0
H76 H 0.77298 0.31147 0.41537 0.0
H77 H 0.80517 0.3569 0.4179 0.0
C78 C 0.3473 0.73631 0.26695 0.0
N79 N 0.38133 0.76099 0.27655 0.0
N80 N 0.32826 0.74933 0.23769 0.0
C81 C 0.33193 0.69969 0.28728 0.0
C82 C 0.35189 0.78308 0.22969 0.0
N83 N 0.38415 0.79054 0.25308 0.0
C84 C 0.34364 0.80858 0.19812 0.0
H85 H 0.34458 0.67904 0.27252 0.0
H86 H 0.29994 0.69025 0.2851 0.0
H87 H 0.34023 0.70125 0.31934 0.0
H88 H 0.32734 0.82677 0.21212 0.0
H89 H 0.32589 0.79286 0.17358 0.0
H90 H 0.37052 0.82629 0.18496 0.0
C91 C 0.13379 0.40985 0.77153 0.0
N92 N 0.15765 0.40376 0.74144 0.0
N93 N 0.1461 0.44457 0.78708 0.0
C94 C 0.09681 0.38266 0.7839 0.0
C95 C 0.17862 0.45936 0.76503 0.0
N96 N 0.18571 0.43504 0.73736 0.0
C97 C 0.20419 0.49766 0.77112 0.0
H98 H 0.07548 0.39697 0.79541 0.0
H99 H 0.10319 0.36502 0.80812 0.0
H100 H 0.08389 0.36474 0.75839 0.0
H101 H 0.20231 0.50702 0.80243 0.0
H102 H 0.19462 0.51673 0.75071 0.0
H103 H 0.23485 0.49917 0.76404 0.0
Gd104 Gd 0.05218 0.10554 0.51514 0.0
Gd105 Gd 0.03349 0.06959 0.59434 0.0
C106 C 0.07239 0.15651 0.59643 0.0
C107 C 0.06906 0.14693 0.45269 0.0
C108 C 0.10701 0.16586 0.43573 0.0
C109 C 0.13737 0.14852 0.43536 0.0
C110 C 0.11374 0.20196 0.42146 0.0
C111 C 0.18039 0.20267 0.40543 0.0
C112 C 0.15023 0.2203 0.4065 0.0
C113 C 0.17363 0.16666 0.42011 0.0
C114 C 0.1076 0.07622 0.54649 0.0
C115 C 1.00804 1.02028 0.51158 0.0
C116 C 0.02435 1.02481 0.65415 0.0
C117 C 0.99132 0.99374 0.66377 0.0
C118 C 0.95998 0.98457 0.63722 0.0
C119 C 0.98871 0.97605 0.70093 0.0
C120 C 0.92183 0.94357 0.68683 0.0
C121 C 0.95413 0.95086 0.71235 0.0
C122 C 0.92549 0.9597 0.64867 0.0
C123 C 0.97795 0.09984 0.56764 0.0
O124 O 0.06155 0.15497 0.55826 0.0
O125 O 0.07024 0.12537 0.61611 0.0
O126 O 0.06001 0.11104 0.451 0.0
O127 O 0.06061 0.15924 0.48728 0.0
O128 O 0.09838 0.07437 0.5091 0.0
O129 O 0.08816 0.09437 0.56451 0.0
O130 O 0.0183 1.02065 0.54988 0.0
O131 O 1.01188 0.05199 0.49272 0.0
O132 O 0.01673 0.0569 0.65603 0.0
O133 O 0.04389 1.02094 0.62194 0.0
O134 O 0.98536 0.09653 0.6051 0.0
O135 O 0.99688 0.08323 0.54603 0.0
H136 H 0.13316 0.12088 0.44686 0.0
H137 H 0.09081 0.21591 0.42189 0.0
H138 H 0.15462 0.24796 0.39496 0.0
H139 H 0.19646 0.15259 0.41997 0.0
H140 H 0.96148 0.99814 0.60845 0.0
H141 H 1.01263 0.98303 0.72179 0.0
H142 H 0.95184 0.939 0.74208 0.0
H143 H 0.90104 0.9544 0.62846 0.0
Gd144 Gd 0.56264 0.09592 0.10597 0.0
Gd145 Gd 0.49123 0.08485 0.06534 0.0
C146 C 0.50067 0.13283 0.14284 0.0
C147 C 0.63368 0.11244 0.13051 0.0
C148 C 0.65701 0.12682 0.16613 0.0
C149 C 0.67917 0.10561 0.18432 0.0
C150 C 0.65944 0.16241 0.18072 0.0
C151 C 0.70685 0.15579 0.23009 0.0
C152 C 0.68421 0.17676 0.2123 0.0
C153 C 0.70371 0.11987 0.21625 0.0
C154 C 0.5072 1.03986 0.14075 0.0
C155 C 0.55057 1.04359 1.02836 0.0
C156 C 0.42548 0.06942 1.02834 0.0
C157 C 0.39972 1.04617 0.99899 0.0
C158 C 0.38017 0.06367 0.97237 0.0
C159 C 0.39515 1.00807 0.99572 0.0
C160 C 0.35315 1.0059 0.9379 0.0
C161 C 0.3717 0.98796 0.9654 0.0
C162 C 0.35724 1.04382 0.94209 0.0
C163 C 0.54042 0.15296 0.04992 0.0
O164 O 0.53806 0.13852 0.13611 0.0
O165 O 0.47619 0.1053 0.12479 0.0
O166 O 0.61065 0.07929 0.13285 0.0
O167 O 0.61829 0.13527 0.11125 0.0
O168 O 0.5306 0.06647 0.16007 0.0
O169 O 0.51267 1.04529 0.10335 0.0
O170 O 0.5149 0.04681 1.02681 0.0
O171 O 0.57519 0.06186 0.05504 0.0
O172 O 0.4573 0.09099 1.01392 0.0
O173 O 0.42992 0.0561 0.06371 0.0
O174 O 0.50438 0.14683 0.05964 0.0
O175 O 0.54962 0.1226 0.05024 0.0
H176 H 0.67797 0.0782 0.17336 0.0
H177 H 0.64266 0.17945 0.16745 0.0
H178 H 0.68561 0.20432 0.2229 0.0
H179 H 0.72093 0.1032 0.22944 0.0
H180 H 0.38327 0.09304 0.97454 0.0
H181 H 0.41016 0.99411 1.01594 0.0
H182 H 0.36914 0.95874 0.96258 0.0
H183 H 0.34296 0.05825 0.92159 0.0
Gd184 Gd 0.49689 0.55542 0.5373 0.0
Gd185 Gd 0.50505 0.61527 0.58844 0.0
C186 C 0.53277 0.55081 0.6267 0.0
C187 C 0.50896 0.50063 0.49705 0.0
C188 C 0.53741 0.47904 0.50286 0.0
C189 C 0.54172 0.46356 0.54031 0.0
C190 C 0.56409 0.47819 0.47222 0.0
C191 C 0.60118 0.45021 0.51749 0.0
C192 C 0.59573 0.46398 0.47947 0.0
C193 C 0.57327 0.44912 0.54749 0.0
C194 C 0.42916 0.5504 0.57827 0.0
C195 C 0.47208 0.6228 0.49789 0.0
C196 C 0.49767 0.67137 0.62961 0.0
C197 C 0.48767 0.70517 0.61803 0.0
C198 C 0.48948 0.71575 0.57758 0.0
C199 C 0.47023 0.72338 0.64617 0.0
C200 C 0.45036 0.75772 0.59256 0.0
C201 C 0.4519 0.74981 0.63352 0.0
C202 C 0.47043 0.74163 0.5648 0.0
C203 C 0.57247 0.61845 0.54783 0.0
O204 O 0.53397 0.5414 0.58846 0.0
O205 O 0.51694 0.57759 0.63598 0.0
O206 O 0.48153 0.49692 0.52383 0.0
O207 O 0.52392 0.53492 0.48724 0.0
O208 O 0.43176 0.5454 0.53997 0.0
O209 O 0.46305 0.55981 0.593 0.0
O210 O 0.47469 0.63477 0.53538 0.0
O211 O 0.48145 0.59191 0.48955 0.0
O212 O 0.53097 0.66776 0.61684 0.0
O213 O 0.46972 0.64144 0.62489 0.0
O214 O 0.57012 0.6242 0.58593 0.0
O215 O 0.53872 0.61023 0.53312 0.0
H216 H 0.5217 0.46401 0.56463 0.0
H217 H 0.56135 0.48999 0.44315 0.0
H218 H 0.61637 0.46441 0.45551 0.0
H219 H 0.57674 0.43866 0.57706 0.0
H220 H 0.50339 0.70232 0.55552 0.0
H221 H 0.4685 0.71541 0.67743 0.0
H222 H 0.43613 0.76175 0.65529 0.0
H223 H 0.46946 0.74749 0.53312 0.0
Gd224 Gd 1.00403 0.55408 0.09978 0.0
Gd225 Gd 0.9987 0.62474 0.05033 0.0
C226 C 0.0758 0.6273 0.10129 0.0
C227 C 0.0246 0.49597 0.12044 0.0
C228 C 0.0615 0.48566 0.11772 0.0
C229 C 0.07275 0.46653 0.14949 0.0
C230 C 0.08732 0.49773 0.0857 0.0
C231 C 0.13531 0.47213 0.11766 0.0
C232 C 0.12375 0.49051 0.08538 0.0
C233 C 0.10946 0.46004 0.14961 0.0
C234 C 0.97669 0.60206 0.14868 0.0
C235 C 0.92731 0.54854 0.04536 0.0
C236 C 0.97811 0.68331 1.03156 0.0
C237 C 0.95332 0.69527 1.00226 0.0
C238 C 0.96311 0.73194 0.98947 0.0
C239 C 0.9179 0.67159 0.99032 0.0
C240 C 0.9003 0.72244 0.95715 0.0
C241 C 0.89157 0.68508 0.96814 0.0
C242 C 0.93696 0.74539 0.96692 0.0
C243 C 0.03102 0.58057 1.00212 0.0
O244 O 0.06511 0.59084 0.10153 0.0
O245 O 0.05287 0.64689 0.08717 0.0
O246 O 0.02482 0.52308 0.14509 0.0
O247 O 1.00671 0.49831 0.08672 0.0
O248 O 0.98054 0.57012 0.15958 0.0
O249 O 0.98594 0.60491 0.1118 0.0
O250 O 0.94242 0.58305 1.03337 0.0
O251 O 0.94476 0.53194 0.07176 0.0
O252 O 1.01038 0.67694 1.01845 0.0
O253 O 0.9599 0.65918 0.05795 0.0
O254 O 0.02521 0.61193 0.99162 0.0
O255 O 0.01958 0.57507 0.0384 0.0
H256 H 0.0535 0.45748 0.17473 0.0
H257 H 0.07982 0.51361 0.06153 0.0
H258 H 0.14339 0.50041 0.06065 0.0
H259 H 0.11779 0.44572 0.17478 0.0
H260 H 0.99039 0.75058 0.99823 0.0
H261 H 0.90976 0.64307 0.99973 0.0
H262 H 0.86361 0.66659 0.96152 0.0
H263 H 0.94505 0.77407 0.95817 0.0
H264 H 0.33854 0.27648 0.21941 0.0
H265 H 0.2244 0.27314 0.41772 0.0
H266 H 0.37484 0.36161 0.3081 0.0
H267 H 0.2222 0.17392 0.35166 0.0
H268 H 0.28328 0.30474 0.38143 0.0
H269 H 0.30174 0.23586 0.2705 0.0
C270 C 0.34013 0.28601 0.25012 0.0
C271 C 0.35977 0.32228 0.25977 0.0
C272 C 0.27035 0.27585 0.37546 0.0
C273 C 0.31585 0.27687 0.31794 0.0
C274 C 0.23659 0.25797 0.39585 0.0
C275 C 0.21822 0.22108 0.38722 0.0
C276 C 0.28531 0.25685 0.34571 0.0
C277 C 0.23545 0.20242 0.35913 0.0
C278 C 0.31867 0.263 0.27926 0.0
C279 C 0.35984 0.33375 0.29975 0.0
N280 N 0.26767 0.2207 0.33886 0.0
N281 N 0.33726 0.31144 0.3273 0.0
H282 H 0.2873 0.92636 0.70059 0.0
H283 H 0.2958 0.9409 0.93751 0.0
H284 H 0.19085 0.86905 0.773 0.0
H285 H 0.3611 1.02628 0.85974 0.0
H286 H 0.25961 0.91021 0.87885 0.0
H287 H 0.31731 0.96052 0.75965 0.0
C288 C 0.27201 0.92198 0.72897 0.0
C289 C 0.23609 0.89613 0.73203 0.0
C290 C 0.28172 0.93578 0.87483 0.0
C291 C 0.27096 0.93328 0.80014 0.0
C292 C 0.30253 0.95305 0.90811 0.0
C293 C 0.33136 0.98613 0.90334 0.0
C294 C 0.29046 0.95145 0.83664 0.0
C295 C 0.33887 1.00096 0.86473 0.0
C296 C 0.28921 0.94105 0.76269 0.0
C297 C 0.21811 0.88967 0.76962 0.0
N298 N 0.31876 0.98341 0.8329 0.0
N299 N 0.23592 0.90795 0.80252 0.0
H300 H 0.60374 0.48297 0.85969 0.0
H301 H 0.57076 0.49516 0.62092 0.0
H302 H 0.63804 0.41114 0.77499 0.0
H303 H 0.53213 0.56239 0.70829 0.0
H304 H 0.59568 0.46418 0.67564 0.0
H305 H 0.5774 0.5121 0.80436 0.0
C306 C 0.6054 0.47319 0.82937 0.0
C307 C 0.62289 0.44445 0.822 0.0
C308 C 0.58171 0.48568 0.68288 0.0
C309 C 0.59307 0.478 0.75784 0.0
C310 C 0.56736 0.50343 0.65148 0.0
C311 C 0.54898 0.53156 0.65954 0.0
C312 C 0.57794 0.49603 0.72306 0.0
C313 C 0.54594 0.54101 0.70015 0.0
C314 C 0.59048 0.48987 0.79765 0.0
C315 C 0.62459 0.43304 0.78199 0.0
N316 N 0.56014 0.52346 0.73001 0.0
N317 N 0.61004 0.44979 0.75155 0.0
H318 H 0.936 0.71319 0.37084 0.0
H319 H 0.95037 0.66575 0.13444 0.0
H320 H 0.87443 0.75667 0.28139 0.0
H321 H 0.97893 0.6015 0.2304 0.0
H322 H 0.93197 0.70663 0.18486 0.0
H323 H 0.96295 0.68133 0.31784 0.0
C324 C 0.92965 0.71759 0.33985 0.0
C325 C 0.90393 0.7391 0.3309 0.0
C326 C 0.94249 0.68368 0.19487 0.0
C327 C 0.93358 0.70074 0.26903 0.0
C328 C 0.95316 0.66024 0.16587 0.0
C329 C 0.96632 0.62961 0.17761 0.0
C330 C 0.94561 0.67721 0.23632 0.0
C331 C 0.96889 0.62438 0.21935 0.0
C332 C 0.94439 0.69863 0.30944 0.0
C333 C 0.89519 0.7417 0.28988 0.0
N334 N 0.95895 0.64765 0.24669 0.0
N335 N 0.90971 0.72288 0.26082 0.0
H336 H 0.44875 0.33229 0.24205 0.0
H337 H 0.54124 0.19546 0.18185 0.0
H338 H 0.37712 0.29122 0.14015 0.0
H339 H 0.42597 0.13792 0.14422 0.0
H340 H 0.51727 0.24901 0.19901 0.0
H341 H 0.47761 0.27972 0.23655 0.0
C342 C 0.43974 0.31243 0.21814 0.0
C343 C 0.4114 0.31628 0.19088 0.0
C344 C 0.49712 0.22431 0.18791 0.0
C345 C 0.44325 0.2562 0.18479 0.0
C346 C 0.51075 0.19372 0.17813 0.0
C347 C 0.48562 0.1621 0.16151 0.0
C348 C 0.45826 0.22333 0.18043 0.0
C349 C 0.44647 0.16158 0.15696 0.0
C350 C 0.4561 0.2826 0.21498 0.0
C351 C 0.39974 0.28963 0.16092 0.0
N352 N 0.4342 0.19196 0.16562 0.0
N353 N 0.41545 0.26048 0.1589 0.0
H354 H 0.24053 0.95115 0.6675 0.0
H355 H 0.09707 1.00428 0.52636 0.0
H356 H 0.12613 0.87847 0.65776 0.0
H357 H 0.15057 0.08572 0.61426 0.0
H358 H 0.11622 0.95712 0.56602 0.0
H359 H 0.21593 1.00199 0.64341 0.0
C360 C 0.20987 0.94633 0.66229 0.0
C361 C 0.18497 0.91091 0.6657 0.0
C362 C 0.12379 0.98539 0.57642 0.0
C363 C 0.15753 0.96789 0.63512 0.0
C364 C 0.1135 1.01225 0.55361 0.0
C365 C 0.12291 0.04878 0.56701 0.0
C366 C 0.14446 0.99549 0.61208 0.0
C367 C 0.14331 0.05776 0.60296 0.0
C368 C 0.19602 0.97515 0.64782 0.0
C369 C 0.14589 0.90563 0.65597 0.0
N370 N 0.15402 1.03128 0.62415 0.0
N371 N 0.13344 0.93364 0.64005 0.0
H372 H 0.68794 0.42743 0.98416 0.0
H373 H 0.89999 0.55712 0.97044 0.0
H374 H 0.75594 0.43551 0.87635 0.0
H375 H 0.86951 0.49074 0.07659 0.0
H376 H 0.84085 0.52084 0.93814 0.0
H377 H 0.7479 0.45579 1.02191 0.0
C378 C 0.71551 0.43425 0.96863 0.0
C379 C 0.71684 0.42914 0.92692 0.0
C380 C 0.84702 0.51423 0.96855 0.0
C381 C 0.78515 0.46315 0.96946 0.0
C382 C 0.88075 0.53512 0.98718 0.0
C383 C 0.89008 0.52711 1.02643 0.0
C384 C 0.82137 0.48551 0.98943 0.0
C385 C 0.86375 0.4979 0.04627 0.0
C386 C 0.74966 0.45079 0.99008 0.0
C387 C 0.75346 0.43922 0.90832 0.0
N388 N 0.83047 0.47847 1.0278 0.0
N389 N 0.78575 0.45633 0.92936 0.0
H390 H 0.81406 0.71587 0.48124 0.0
H391 H 0.58329 0.62586 0.46551 0.0
H392 H 0.75273 0.70614 0.36952 0.0
H393 H 0.64646 0.64286 0.57654 0.0
H394 H 0.64438 0.65195 0.42907 0.0
H395 H 0.75312 0.68656 0.51569 0.0
C396 C 0.78768 0.70755 0.46395 0.0
C397 C 0.78865 0.71375 0.4224 0.0
C398 C 0.64492 0.64986 0.4614 0.0
C399 C 0.71802 0.67957 0.46181 0.0
C400 C 0.60997 0.63482 0.48226 0.0
C401 C 0.60946 0.6321 0.52434 0.0
C402 C 0.67993 0.66228 0.4826 0.0
C403 C 0.64516 0.64437 0.54421 0.0
C404 C 0.75277 0.69068 0.48362 0.0
C405 C 0.75345 0.70183 0.40151 0.0
N406 N 0.6786 0.65883 0.52334 0.0
N407 N 0.71972 0.6855 0.42134 0.0
H408 H 0.35889 0.4579 0.1977 0.0
H409 H 0.17029 0.43733 0.06248 0.0
H410 H 0.3157 0.36605 0.1186 0.0
H411 H 0.18946 0.4944 0.17572 0.0
H412 H 0.23388 0.42406 0.0686 0.0
H413 H 0.30816 0.48576 0.17392 0.0
C414 C 0.33957 0.44444 0.17414 0.0
C415 C 0.34113 0.40976 0.16009 0.0
C416 C 0.22429 0.43991 0.09177 0.0
C417 C 0.28302 0.44076 0.1333 0.0
C418 C 0.18818 0.44746 0.08829 0.0
C419 C 0.17466 0.46653 0.11892 0.0
C420 C 0.24714 0.45221 0.1257 0.0
C421 C 0.19876 0.47916 0.15178 0.0
C422 C 0.31046 0.46 0.16095 0.0
C423 C 0.31539 0.39294 0.1299 0.0
N424 N 0.23381 0.47171 0.15437 0.0
N425 N 0.28691 0.40835 0.11785 0.0
H426 H 0.59985 0.37954 0.96486 0.0
H427 H 0.60915 0.16998 1.00488 0.0
H428 H 0.68247 0.33292 0.90497 0.0
H429 H 0.52286 0.21905 0.05408 0.0
H430 H 0.64091 0.22957 0.97295 0.0
H431 H 0.57658 0.3224 1.00312 0.0
C432 C 0.61379 0.3575 0.9606 0.0
C433 C 0.6437 0.36143 0.93226 0.0
C434 C 0.61515 0.22732 0.99094 0.0
C435 C 0.61621 0.29458 0.97525 0.0
C436 C 0.59704 0.19323 1.00932 0.0
C437 C 0.563 0.18913 1.03222 0.0
C438 C 0.59939 0.25781 0.99565 0.0
C439 C 0.54879 0.22051 1.03662 0.0
C440 C 0.60023 0.32458 0.98214 0.0
C441 C 0.65996 0.33141 0.92714 0.0
N442 N 0.56683 0.25306 1.01865 0.0
N443 N 0.64594 0.29931 0.94814 0.0
H444 H 0.93798 0.78537 0.4444 0.0
H445 H 0.9759 1.00706 0.43535 0.0
H446 H 0.89207 0.83981 0.35123 0.0
H447 H 1.00493 0.94922 0.53686 0.0
H448 H 0.95184 0.94781 0.40041 0.0
H449 H 0.97104 0.84561 0.47299 0.0
C450 C 0.93652 0.81006 0.42863 0.0
C451 C 0.91313 0.80697 0.39424 0.0
C452 C 0.96352 0.94799 0.4303 0.0
C453 C 0.94964 0.8773 0.42853 0.0
C454 C 0.97732 0.98204 0.45047 0.0
C455 C 0.99253 0.98379 0.48962 0.0
C456 C 0.96508 0.91476 0.44882 0.0
C457 C 0.9934 0.94982 0.50702 0.0
C458 C 0.95469 0.84467 0.44563 0.0
C459 C 0.91081 0.84045 0.37672 0.0
N460 N 0.98009 0.91717 0.4867 0.0
N461 N 0.92833 0.87383 0.39406 0.0
H462 H 0.28311 0.88428 0.60208 0.0
H463 H 0.44891 0.82859 0.60712 0.0
H464 H 0.23671 0.7696 0.62969 0.0
H465 H 0.38561 0.72805 0.55034 0.0
H466 H 0.39173 0.85244 0.60188 0.0
H467 H 0.33874 0.86971 0.56905 0.0
C468 C 0.2842 0.85585 0.59982 0.0
C469 C 0.25589 0.82795 0.61857 0.0
C470 C 0.3908 0.82579 0.58896 0.0
C471 C 0.31915 0.81135 0.58223 0.0
C472 C 0.42336 0.81226 0.5921 0.0
C473 C 0.42164 0.77656 0.57902 0.0
C474 C 0.3562 0.80286 0.57384 0.0
C475 C 0.38783 0.7559 0.56045 0.0
C476 C 0.3159 0.84765 0.58143 0.0
C477 C 0.25829 0.79161 0.61553 0.0
N478 N 0.35586 0.7689 0.55956 0.0
N479 N 0.28986 0.7843 0.59813 0.0
H480 H 0.71268 0.79654 0.78981 0.0
H481 H 0.85659 0.96709 0.68468 0.0
H482 H 0.71795 0.90903 0.82041 0.0
H483 H 0.89954 0.87616 0.7243 0.0
H484 H 0.79415 0.93837 0.71586 0.0
H485 H 0.77179 0.81857 0.74869 0.0
C486 C 0.72587 0.82579 0.78721 0.0
C487 C 0.70998 0.8511 0.8076 0.0
C488 C 0.81711 0.92449 0.71718 0.0
C489 C 0.77625 0.87618 0.76065 0.0
C490 C 0.85258 0.94067 0.69927 0.0
C491 C 0.88313 0.92389 0.702 0.0
C492 C 0.81195 0.89105 0.7375 0.0
C493 C 0.87662 0.88995 0.7218 0.0
C494 C 0.75937 0.83823 0.76398 0.0
C495 C 0.72824 0.88872 0.80384 0.0
N496 N 0.84154 0.87449 0.73892 0.0
N497 N 0.76019 0.90014 0.78056 0.0
H498 H 0.85245 0.31199 0.3879 0.0
H499 H 0.71626 0.12436 0.30198 0.0
H500 H 0.7897 0.22287 0.46216 0.0
H501 H 0.75834 0.22339 0.23264 0.0
H502 H 0.75599 0.15416 0.35847 0.0
H503 H 0.83175 0.27362 0.3283 0.0
C504 C 0.83511 0.28392 0.39145 0.0
C505 C 0.82253 0.27035 0.4295 0.0
C506 C 0.75685 0.16917 0.33071 0.0
C507 C 0.79828 0.22668 0.36221 0.0
C508 C 0.73432 0.15217 0.2985 0.0
C509 C 0.73363 0.17173 0.26294 0.0
C510 C 0.77894 0.20583 0.32709 0.0
C511 C 0.75749 0.20767 0.2599 0.0
C512 C 0.82313 0.26214 0.35766 0.0
C513 C 0.80004 0.234 0.43311 0.0
N514 N 0.77895 0.22367 0.29167 0.0
N515 N 0.78815 0.21347 0.39977 0.0
H516 H 0.38663 0.78232 0.35464 0.0
H517 H 0.47777 0.61496 0.4157 0.0
H518 H 0.43051 0.71771 0.2692 0.0
H519 H 0.44146 0.68345 0.50331 0.0
H520 H 0.46275 0.65371 0.36235 0.0
H521 H 0.41062 0.75041 0.40944 0.0
C522 C 0.40305 0.76274 0.34733 0.0
C523 C 0.40773 0.75386 0.3069 0.0
C524 C 0.4581 0.66045 0.39321 0.0
C525 C 0.43348 0.71508 0.37001 0.0
C526 C 0.46651 0.63804 0.42392 0.0
C527 C 0.46107 0.64562 0.46461 0.0
C528 C 0.4438 0.69103 0.40263 0.0
C529 C 0.44655 0.67641 0.4727 0.0
C530 C 0.41603 0.74381 0.37872 0.0
C531 C 0.42741 0.72652 0.29964 0.0
N532 N 0.43841 0.69769 0.44229 0.0
N533 N 0.43906 0.70805 0.33052 0.0
H534 H 0.12981 0.51149 0.78426 0.0
H535 H 0.03619 0.50657 1.00699 0.0
H536 H 0.12078 0.419 0.86252 0.0
H537 H 0.06467 0.60136 0.92985 0.0
H538 H 0.06394 0.47231 0.95616 0.0
H539 H 0.10281 0.54256 0.83735 0.0
C540 C 0.12234 0.49767 0.81269 0.0
C541 C 0.12822 0.46249 0.81853 0.0
C542 C 0.06429 0.5007 0.95052 0.0
C543 C 0.096 0.49827 0.88062 0.0
C544 C 0.04868 0.52045 0.97988 0.0
C545 C 0.04842 0.55745 0.97353 0.0
C546 C 0.07944 0.51775 0.91402 0.0
C547 C 0.06412 0.57315 0.93675 0.0
C548 C 0.10663 0.51547 0.84323 0.0
C549 C 0.11681 0.44595 0.85623 0.0
N550 N 0.07863 0.5535 0.90892 0.0
N551 N 0.10143 0.46383 0.88558 0.0
H552 H 0.56119 0.85796 0.87541 0.0
H553 H 0.62288 1.03343 1.02051 0.0
H554 H 0.67258 0.89639 0.93136 0.0
H555 H 0.50576 0.99156 0.97801 0.0
H556 H 0.64159 0.98489 0.98399 0.0
H557 H 0.53957 0.90724 0.91004 0.0
C558 C 0.58072 0.87649 0.89551 0.0
C559 C 0.61831 0.87298 0.90139 0.0
C560 C 0.61177 0.98625 0.98246 0.0
C561 C 0.5946 0.92937 0.94003 0.0
C562 C 0.60107 1.01416 1.00323 0.0
C563 C 0.56262 1.01653 1.00252 0.0
C564 C 0.5839 0.96028 0.96069 0.0
C565 C 0.53575 0.99077 0.97938 0.0
C566 C 0.5686 0.9046 0.91502 0.0
C567 C 0.64307 0.89785 0.92695 0.0
N568 N 0.54686 0.96354 0.95949 0.0
N569 N 0.63083 0.92498 0.94524 0.0
H570 H 0.82021 0.23759 0.5575 0.0
H571 H 0.97568 0.12895 0.49276 0.0
H572 H 0.89956 0.27194 0.45912 0.0
H573 H 0.92452 0.12284 0.61064 0.0
H574 H 0.93932 0.17337 0.47341 0.0
H575 H 0.85032 0.18757 0.57159 0.0
C576 C 0.84437 0.23479 0.53928 0.0
C577 C 0.85825 0.25925 0.50784 0.0
C578 C 0.93587 0.16197 0.50336 0.0
C579 C 0.89186 0.20164 0.52266 0.0
C580 C 0.95634 0.13655 0.51426 0.0
C581 C 0.95308 0.12254 0.55333 0.0
C582 C 0.91177 0.17282 0.53167 0.0
C583 C 0.92792 0.13325 0.58027 0.0
C584 C 0.86125 0.20611 0.54697 0.0
C585 C 0.88846 0.25365 0.48386 0.0
N586 N 0.90825 0.15781 0.56896 0.0
N587 N 0.90442 0.22541 0.49179 0.0
H588 H 0.30841 0.68127 0.20382 0.0
H589 H 0.10382 0.70069 0.12113 0.0
H590 H 0.26524 0.77594 0.22695 0.0
H591 H 0.13543 0.59765 0.12313 0.0
H592 H 0.1651 0.73038 0.15428 0.0
H593 H 0.24745 0.65155 0.16973 0.0
C594 C 0.28596 0.69568 0.20192 0.0
C595 C 0.29195 0.73113 0.21832 0.0
C596 C 0.15868 0.70129 0.14737 0.0
C597 C 0.22217 0.69761 0.17853 0.0
C598 C 0.12369 0.6843 0.12818 0.0
C599 C 0.11416 0.64648 0.11915 0.0
C600 C 0.18478 0.68053 0.15742 0.0
C601 C 0.14126 0.62681 0.12944 0.0
C602 C 0.25122 0.67882 0.18227 0.0
C603 C 0.26203 0.74878 0.21441 0.0
N604 N 0.17516 0.64401 0.14785 0.0
N605 N 0.22863 0.73197 0.19486 0.0
H606 H 0.25837 0.43086 0.75477 0.0
H607 H 0.35402 0.53131 0.55133 0.0
H608 H 0.19091 0.46101 0.66097 0.0
H609 H 0.42015 0.52861 0.65822 0.0
H610 H 0.29479 0.49972 0.58759 0.0
H611 H 0.31788 0.45862 0.71641 0.0
C612 C 0.25602 0.44215 0.72538 0.0
C613 C 0.21933 0.44249 0.71062 0.0
C614 C 0.32217 0.50606 0.60326 0.0
C615 C 0.28788 0.47575 0.66663 0.0
C616 C 0.35618 0.52426 0.58252 0.0
C617 C 0.39252 0.53307 0.60156 0.0
C618 C 0.32401 0.49569 0.64356 0.0
C619 C 0.39302 0.52282 0.64214 0.0
C620 C 0.29009 0.45862 0.70372 0.0
C621 C 0.21832 0.45906 0.67302 0.0
N622 N 0.35959 0.50462 0.66152 0.0
N623 N 0.2518 0.47486 0.65247 0.0
H624 H 0.74584 0.85853 0.9016 0.0
H625 H 0.84451 0.69039 0.90179 0.0
H626 H 0.68845 0.75056 0.85809 0.0
H627 H 0.88653 0.78973 0.97129 0.0
H628 H 0.79137 0.71437 0.87783 0.0
H629 H 0.80216 0.8362 0.91992 0.0
C630 C 0.74541 0.83005 0.89607 0.0
C631 C 0.71296 0.80609 0.87873 0.0
C632 C 0.81241 0.73094 0.89814 0.0
C633 C 0.77664 0.78033 0.89902 0.0
C634 C 0.84273 0.71725 0.91194 0.0
C635 C 0.87012 0.73793 0.93881 0.0
C636 C 0.80953 0.76565 0.91108 0.0
C637 C 0.8666 0.77291 0.95021 0.0
C638 C 0.77731 0.8173 0.90638 0.0
C639 C 0.7132 0.76952 0.87167 0.0
N640 N 0.83685 0.78556 0.9364 0.0
N641 N 0.74467 0.75764 0.88184 0.0
H642 H 0.44431 0.80447 0.2011 0.0
H643 H 0.4841 1.02487 0.21891 0.0
H644 H 0.38964 0.85527 0.29139 0.0
H645 H 0.49317 0.96983 0.1074 0.0
H646 H 0.46068 0.96457 0.25164 0.0
H647 H 0.47605 0.86579 0.17399 0.0
C648 C 0.44073 0.82865 0.21669 0.0
C649 C 0.41501 0.82442 0.24948 0.0
C650 C 0.46775 0.96561 0.22002 0.0
C651 C 0.4502 0.89536 0.21736 0.0
C652 C 0.48104 1.00013 0.20118 0.0
C653 C 0.49037 1.0028 0.16005 0.0
C654 C 0.46455 0.93296 0.19806 0.0
C655 C 0.48599 0.96944 0.13897 0.0
C656 C 0.45803 0.86371 0.20048 0.0
C657 C 0.41004 0.85702 0.26697 0.0
N658 N 0.47379 0.93618 0.15815 0.0
N659 N 0.42711 0.89082 0.25072 0.0
H660 H 0.15461 0.33602 0.77134 0.0
H661 H 0.08316 0.22665 0.56472 0.0
H662 H 0.1466 0.39149 0.66062 0.0
H663 H 0.09662 0.17254 0.67524 0.0
H664 H 0.10721 0.28652 0.59811 0.0
H665 H 0.13566 0.27657 0.73611 0.0
C666 C 0.14953 0.33574 0.73938 0.0
C667 C 0.15282 0.36918 0.71905 0.0
C668 C 0.10503 0.26163 0.61514 0.0
C669 C 0.1299 0.30021 0.67794 0.0
C670 C 0.09115 0.22713 0.59601 0.0
C671 C 0.08755 0.19378 0.61686 0.0
C672 C 0.11561 0.26353 0.65588 0.0
C673 C 0.09865 0.19702 0.65754 0.0
C674 C 0.13841 0.30162 0.7192 0.0
C675 C 0.14524 0.36673 0.67756 0.0
N676 N 0.11192 0.23086 0.67547 0.0
N677 N 0.13399 0.33312 0.65861 0.0
H678 H 0.75509 0.31437 0.55914 0.0
H679 H 0.67559 0.48466 0.49648 0.0
H680 H 0.82007 0.40638 0.49018 0.0
H681 H 0.60749 0.389 0.5586 0.0
H682 H 0.73315 0.46244 0.50615 0.0
H683 H 0.70624 0.34788 0.57324 0.0
C684 C 0.75963 0.34227 0.5483 0.0
C685 C 0.79127 0.35787 0.5235 0.0
C686 C 0.70571 0.44644 0.51801 0.0
C687 C 0.73535 0.39577 0.53808 0.0
C688 C 0.67279 0.45895 0.51218 0.0
C689 C 0.63659 0.43821 0.52599 0.0
C690 C 0.70243 0.41279 0.53756 0.0
C691 C 0.63481 0.4057 0.54724 0.0
C692 C 0.73164 0.36121 0.55586 0.0
C693 C 0.79586 0.39371 0.50942 0.0
N694 N 0.66721 0.39372 0.55191 0.0
N695 N 0.76781 0.4113 0.51633 0.0
loop_
_geom_bond_atom_site_label_1
_geom_bond_atom_site_label_2
_geom_bond_distance
_geom_bond_site_symmetry_2
_ccdc_geom_bond_type
C0 N1 1.317 . S
C0 N2 1.348 . S
C0 C3 1.485 . S
N1 C0 1.317 . S
N1 N5 1.370 . S
N2 C0 1.348 . S
N2 C4 1.346 . S
C3 C0 1.485 . S
C3 H7 0.960 . S
C3 H8 0.961 . S
C3 H9 0.960 . S
C4 N2 1.346 . S
C4 N5 1.307 . S
C4 C6 1.486 . S
N5 N1 1.370 . S
N5 C4 1.307 . S
C6 C4 1.486 . S
C6 H10 0.960 . S
C6 H11 0.960 . S
C6 H12 0.959 . S
H7 C3 0.960 . S
H8 C3 0.961 . S
H9 C3 0.960 . S
H10 C6 0.960 . S
H11 C6 0.960 . S
H12 C6 0.959 . S
C13 N14 1.317 . S
C13 N15 1.348 . S
C13 C16 1.485 . S
N14 C13 1.317 . S
N14 N18 1.370 . S
N15 C13 1.348 . S
N15 C17 1.346 . S
C16 C13 1.485 . S
C16 H20 0.960 . S
C16 H21 0.961 . S
C16 H22 0.960 . S
C17 N15 1.346 . S
C17 N18 1.307 . S
C17 C19 1.486 . S
N18 N14 1.370 . S
N18 C17 1.307 . S
C19 C17 1.486 . S
C19 H23 0.960 . S
C19 H24 0.960 . S
C19 H25 0.959 . S
H20 C16 0.960 . S
H21 C16 0.961 . S
H22 C16 0.960 . S
H23 C19 0.960 . S
H24 C19 0.960 . S
H25 C19 0.959 . S
C26 N27 1.317 . S
C26 N28 1.348 . S
C26 C29 1.485 . S
N27 C26 1.317 . S
N27 N31 1.370 . S
N28 C26 1.348 . S
N28 C30 1.346 . S
C29 C26 1.485 . S
C29 H33 0.960 . S
C29 H34 0.961 . S
C29 H35 0.960 . S
C30 N28 1.346 . S
C30 N31 1.307 . S
C30 C32 1.486 . S
N31 N27 1.370 . S
N31 C30 1.307 . S
C32 C30 1.486 . S
C32 H36 0.960 . S
C32 H37 0.960 . S
C32 H38 0.959 . S
H33 C29 0.960 . S
H34 C29 0.961 . S
H35 C29 0.960 . S
H36 C32 0.960 . S
H37 C32 0.960 . S
H38 C32 0.959 . S
C39 N40 1.317 . S
C39 N41 1.348 . S
C39 C42 1.485 . S
N40 C39 1.317 . S
N40 N44 1.370 . S
N41 C39 1.348 . S
N41 C43 1.346 . S
C42 C39 1.485 . S
C42 H46 0.960 . S
C42 H47 0.961 . S
C42 H48 0.960 . S
C43 N41 1.346 . S
C43 N44 1.307 . S
C43 C45 1.486 . S
N44 N40 1.370 . S
N44 C43 1.307 . S
C45 C43 1.486 . S
C45 H49 0.960 . S
C45 H50 0.960 . S
C45 H51 0.959 . S
H46 C42 0.960 . S
H47 C42 0.961 . S
H48 C42 0.960 . S
H49 C45 0.960 . S
H50 C45 0.960 . S
H51 C45 0.959 . S
C52 N53 1.317 . S
C52 N54 1.348 . S
C52 C55 1.485 . S
N53 C52 1.317 . S
N53 N57 1.370 . S
N54 C52 1.348 . S
N54 C56 1.346 . S
C55 C52 1.485 . S
C55 H59 0.960 . S
C55 H60 0.961 . S
C55 H61 0.960 . S
C56 N54 1.346 . S
C56 N57 1.307 . S
C56 C58 1.486 . S
N57 N53 1.370 . S
N57 C56 1.307 . S
C58 C56 1.486 . S
C58 H62 0.960 . S
C58 H63 0.960 . S
C58 H64 0.959 . S
H59 C55 0.960 . S
H60 C55 0.961 . S
H61 C55 0.960 . S
H62 C58 0.960 . S
H63 C58 0.960 . S
H64 C58 0.959 . S
C65 N66 1.317 . S
C65 N67 1.348 . S
C65 C68 1.485 . S
N66 C65 1.317 . S
N66 N70 1.370 . S
N67 C65 1.348 . S
N67 C69 1.346 . S
C68 C65 1.485 . S
C68 H72 0.960 . S
C68 H73 0.961 . S
C68 H74 0.960 . S
C69 N67 1.346 . S
C69 N70 1.307 . S
C69 C71 1.486 . S
N70 N66 1.370 . S
N70 C69 1.307 . S
C71 C69 1.486 . S
C71 H75 0.960 . S
C71 H76 0.960 . S
C71 H77 0.959 . S
H72 C68 0.960 . S
H73 C68 0.961 . S
H74 C68 0.960 . S
H75 C71 0.960 . S
H76 C71 0.960 . S
H77 C71 0.959 . S
C78 N79 1.317 . S
C78 N80 1.348 . S
C78 C81 1.485 . S
N79 C78 1.317 . S
N79 N83 1.370 . S
N80 C78 1.348 . S
N80 C82 1.346 . S
C81 C78 1.485 . S
C81 H85 0.960 . S
C81 H86 0.961 . S
C81 H87 0.960 . S
C82 N80 1.346 . S
C82 N83 1.307 . S
C82 C84 1.486 . S
N83 N79 1.370 . S
N83 C82 1.307 . S
C84 C82 1.486 . S
C84 H88 0.960 . S
C84 H89 0.960 . S
C84 H90 0.959 . S
H85 C81 0.960 . S
H86 C81 0.961 . S
H87 C81 0.960 . S
H88 C84 0.960 . S
H89 C84 0.960 . S
H90 C84 0.959 . S
C91 N92 1.317 . S
C91 N93 1.348 . S
C91 C94 1.485 . S
N92 C91 1.317 . S
N92 N96 1.370 . S
N93 C91 1.348 . S
N93 C95 1.346 . S
C94 C91 1.485 . S
C94 H98 0.960 . S
C94 H99 0.961 . S
C94 H100 0.960 . S
C95 N93 1.346 . S
C95 N96 1.307 . S
C95 C97 1.486 . S
N96 N92 1.370 . S
N96 C95 1.307 . S
C97 C95 1.486 . S
C97 H101 0.960 . S
C97 H102 0.960 . S
C97 H103 0.959 . S
H98 C94 0.960 . S
H99 C94 0.961 . S
H100 C94 0.960 . S
H101 C97 0.960 . S
H102 C97 0.960 . S
H103 C97 0.959 . S
Gd104 C107 2.818 . S
Gd104 O124 2.377 . S
Gd104 O126 2.448 . S
Gd104 O127 2.506 . S
Gd104 O128 2.435 . S
Gd104 O129 2.717 . S
Gd104 O131 2.395 1_545 S
Gd104 O135 2.327 . S
Gd105 C116 2.818 1_445 S
Gd105 O125 2.395 . S
Gd105 O129 2.327 . S
Gd105 O130 2.377 1_445 S
Gd105 O132 2.448 1_445 S
Gd105 O133 2.506 1_445 S
Gd105 O134 2.435 1_455 S
Gd105 O135 2.717 . S
C106 O124 1.240 . S
C106 O125 1.240 . S
C107 Gd104 2.818 . S
C107 C108 1.510 . S
C107 O126 1.249 . S
C107 O127 1.252 . S
C108 C107 1.510 . S
C108 C109 1.404 . S
C108 C110 1.352 . S
C109 C108 1.404 . S
C109 C113 1.389 . S
C109 H136 0.930 . S
C110 C108 1.352 . S
C110 C112 1.374 . S
C110 H137 0.931 . S
C111 C112 1.359 . S
C111 C113 1.364 . S
C112 C110 1.374 . S
C112 C111 1.359 . S
C112 H138 0.931 . S
C113 C109 1.389 . S
C113 C111 1.364 . S
C113 H139 0.931 . S
C114 O128 1.256 1_565 S
C114 O129 1.257 1_565 S
C115 O130 1.240 . S
C115 O131 1.240 1_655 S
C116 Gd105 2.818 1_665 S
C116 C117 1.510 . S
C116 O132 1.249 . S
C116 O133 1.252 . S
C117 C116 1.510 . S
C117 C118 1.404 . S
C117 C119 1.352 . S
C118 C117 1.404 . S
C118 C122 1.389 . S
C118 H140 0.930 . S
C119 C117 1.352 . S
C119 C121 1.374 . S
C119 H141 0.931 . S
C120 C121 1.359 . S
C120 C122 1.364 . S
C121 C119 1.374 . S
C121 C120 1.359 . S
C121 H142 0.931 . S
C122 C118 1.389 . S
C122 C120 1.364 . S
C122 H143 0.931 . S
C123 O134 1.256 . S
C123 O135 1.257 1_655 S
O124 Gd104 2.377 . S
O124 C106 1.240 . S
O125 Gd105 2.395 . S
O125 C106 1.240 . S
O126 Gd104 2.448 . S
O126 C107 1.249 . S
O127 Gd104 2.506 . S
O127 C107 1.252 . S
O128 Gd104 2.435 . S
O128 C114 1.256 1_545 S
O129 Gd104 2.717 . S
O129 Gd105 2.327 . S
O129 C114 1.257 1_545 S
O130 Gd105 2.377 1_665 S
O130 C115 1.240 . S
O131 Gd104 2.395 1_565 S
O131 C115 1.240 1_455 S
O132 Gd105 2.448 1_665 S
O132 C116 1.249 . S
O133 Gd105 2.506 1_665 S
O133 C116 1.252 . S
O134 Gd105 2.435 1_655 S
O134 C123 1.256 . S
O135 Gd104 2.327 . S
O135 Gd105 2.717 . S
O135 C123 1.257 1_455 S
H136 C109 0.930 . S
H137 C110 0.931 . S
H138 C112 0.931 . S
H139 C113 0.931 . S
H140 C118 0.930 . S
H141 C119 0.931 . S
H142 C121 0.931 . S
H143 C122 0.931 . S
Gd144 C147 2.818 . S
Gd144 O164 2.377 . S
Gd144 O166 2.448 . S
Gd144 O167 2.506 . S
Gd144 O168 2.435 1_545 S
Gd144 O169 2.717 . S
Gd144 O171 2.395 . S
Gd144 O175 2.327 . S
Gd145 C156 2.818 1_554 S
Gd145 O165 2.395 . S
Gd145 O169 2.327 . S
Gd145 O170 2.377 1_554 S
Gd145 O172 2.448 1_554 S
Gd145 O173 2.506 1_544 S
Gd145 O174 2.435 1_554 S
Gd145 O175 2.717 . S
C146 O164 1.240 . S
C146 O165 1.240 . S
C147 Gd144 2.818 . S
C147 C148 1.510 . S
C147 O166 1.249 . S
C147 O167 1.252 . S
C148 C147 1.510 . S
C148 C149 1.404 . S
C148 C150 1.352 . S
C149 C148 1.404 . S
C149 C153 1.389 . S
C149 H176 0.930 . S
C150 C148 1.352 . S
C150 C152 1.374 . S
C150 H177 0.931 . S
C151 C152 1.359 . S
C151 C153 1.364 . S
C152 C150 1.374 . S
C152 C151 1.359 . S
C152 H178 0.931 . S
C153 C149 1.389 . S
C153 C151 1.364 . S
C153 H179 0.931 . S
C154 O168 1.256 . S
C154 O169 1.257 1_565 S
C155 O170 1.240 1_554 S
C155 O171 1.240 . S
C156 Gd145 2.818 1_556 S
C156 C157 1.510 1_545 S
C156 O172 1.249 . S
C156 O173 1.252 1_545 S
C157 C156 1.510 1_565 S
C157 C158 1.404 . S
C157 C159 1.352 . S
C158 C157 1.404 . S
C158 C162 1.389 . S
C158 H180 0.930 1_565 S
C159 C157 1.352 . S
C159 C161 1.374 . S
C159 H181 0.931 . S
C160 C161 1.359 . S
C160 C162 1.364 . S
C161 C159 1.374 . S
C161 C160 1.359 . S
C161 H182 0.931 . S
C162 C158 1.389 . S
C162 C160 1.364 . S
C162 H183 0.931 . S
C163 O174 1.256 1_554 S
C163 O175 1.257 . S
O164 Gd144 2.377 . S
O164 C146 1.240 . S
O165 Gd145 2.395 . S
O165 C146 1.240 . S
O166 Gd144 2.448 . S
O166 C147 1.249 . S
O167 Gd144 2.506 . S
O167 C147 1.252 . S
O168 Gd144 2.435 1_565 S
O168 C154 1.256 . S
O169 Gd144 2.717 . S
O169 Gd145 2.327 . S
O169 C154 1.257 1_545 S
O170 Gd145 2.377 1_556 S
O170 C155 1.240 1_556 S
O171 Gd144 2.395 . S
O171 C155 1.240 . S
O172 Gd145 2.448 1_556 S
O172 C156 1.249 . S
O173 Gd145 2.506 1_566 S
O173 C156 1.252 1_565 S
O174 Gd145 2.435 1_556 S
O174 C163 1.256 1_556 S
O175 Gd144 2.327 . S
O175 Gd145 2.717 . S
O175 C163 1.257 . S
H176 C149 0.930 . S
H177 C150 0.931 . S
H178 C152 0.931 . S
H179 C153 0.931 . S
H180 C158 0.930 1_545 S
H181 C159 0.931 . S
H182 C161 0.931 . S
H183 C162 0.931 . S
Gd184 C187 2.818 . S
Gd184 O204 2.377 . S
Gd184 O206 2.448 . S
Gd184 O207 2.506 . S
Gd184 O208 2.435 . S
Gd184 O209 2.717 . S
Gd184 O211 2.395 . S
Gd184 O215 2.327 . S
Gd185 C196 2.818 . S
Gd185 O205 2.395 . S
Gd185 O209 2.327 . S
Gd185 O210 2.377 . S
Gd185 O212 2.448 . S
Gd185 O213 2.506 . S
Gd185 O214 2.435 . S
Gd185 O215 2.717 . S
C186 O204 1.240 . S
C186 O205 1.240 . S
C187 Gd184 2.818 . S
C187 C188 1.510 . S
C187 O206 1.249 . S
C187 O207 1.252 . S
C188 C187 1.510 . S
C188 C189 1.404 . S
C188 C190 1.352 . S
C189 C188 1.404 . S
C189 C193 1.389 . S
C189 H216 0.930 . S
C190 C188 1.352 . S
C190 C192 1.374 . S
C190 H217 0.931 . S
C191 C192 1.359 . S
C191 C193 1.364 . S
C192 C190 1.374 . S
C192 C191 1.359 . S
C192 H218 0.931 . S
C193 C189 1.389 . S
C193 C191 1.364 . S
C193 H219 0.931 . S
C194 O208 1.256 . S
C194 O209 1.257 . S
C195 O210 1.240 . S
C195 O211 1.240 . S
C196 Gd185 2.818 . S
C196 C197 1.510 . S
C196 O212 1.249 . S
C196 O213 1.252 . S
C197 C196 1.510 . S
C197 C198 1.404 . S
C197 C199 1.352 . S
C198 C197 1.404 . S
C198 C202 1.389 . S
C198 H220 0.930 . S
C199 C197 1.352 . S
C199 C201 1.374 . S
C199 H221 0.931 . S
C200 C201 1.359 . S
C200 C202 1.364 . S
C201 C199 1.374 . S
C201 C200 1.359 . S
C201 H222 0.931 . S
C202 C198 1.389 . S
C202 C200 1.364 . S
C202 H223 0.931 . S
C203 O214 1.256 . S
C203 O215 1.257 . S
O204 Gd184 2.377 . S
O204 C186 1.240 . S
O205 Gd185 2.395 . S
O205 C186 1.240 . S
O206 Gd184 2.448 . S
O206 C187 1.249 . S
O207 Gd184 2.506 . S
O207 C187 1.252 . S
O208 Gd184 2.435 . S
O208 C194 1.256 . S
O209 Gd184 2.717 . S
O209 Gd185 2.327 . S
O209 C194 1.257 . S
O210 Gd185 2.377 . S
O210 C195 1.240 . S
O211 Gd184 2.395 . S
O211 C195 1.240 . S
O212 Gd185 2.448 . S
O212 C196 1.249 . S
O213 Gd185 2.506 . S
O213 C196 1.252 . S
O214 Gd185 2.435 . S
O214 C203 1.256 . S
O215 Gd184 2.327 . S
O215 Gd185 2.717 . S
O215 C203 1.257 . S
H216 C189 0.930 . S
H217 C190 0.931 . S
H218 C192 0.931 . S
H219 C193 0.931 . S
H220 C198 0.930 . S
H221 C199 0.931 . S
H222 C201 0.931 . S
H223 C202 0.931 . S
Gd224 C227 2.818 . S
Gd224 O244 2.377 . S
Gd224 O246 2.448 . S
Gd224 O247 2.506 . S
Gd224 O248 2.435 1_455 S
Gd224 O249 2.717 1_455 S
Gd224 O251 2.395 1_455 S
Gd224 O255 2.327 1_554 S
Gd225 C236 2.818 1_455 S
Gd225 O245 2.395 1_556 S
Gd225 O249 2.327 1_456 S
Gd225 O250 2.377 1_455 S
Gd225 O252 2.448 1_455 S
Gd225 O253 2.506 1_455 S
Gd225 O254 2.435 . S
Gd225 O255 2.717 . S
C226 O244 1.240 . S
C226 O245 1.240 . S
C227 Gd224 2.818 . S
C227 C228 1.510 . S
C227 O246 1.249 . S
C227 O247 1.252 . S
C228 C227 1.510 . S
C228 C229 1.404 . S
C228 C230 1.352 . S
C229 C228 1.404 . S
C229 C233 1.389 . S
C229 H256 0.930 . S
C230 C228 1.352 . S
C230 C232 1.374 . S
C230 H257 0.931 . S
C231 C232 1.359 . S
C231 C233 1.364 . S
C232 C230 1.374 . S
C232 C231 1.359 . S
C232 H258 0.931 . S
C233 C229 1.389 . S
C233 C231 1.364 . S
C233 H259 0.931 . S
C234 O248 1.256 . S
C234 O249 1.257 . S
C235 O250 1.240 . S
C235 O251 1.240 1_556 S
C236 Gd225 2.818 1_655 S
C236 C237 1.510 . S
C236 O252 1.249 . S
C236 O253 1.252 . S
C237 C236 1.510 . S
C237 C238 1.404 . S
C237 C239 1.352 . S
C238 C237 1.404 . S
C238 C242 1.389 . S
C238 H260 0.930 . S
C239 C237 1.352 . S
C239 C241 1.374 . S
C239 H261 0.931 . S
C240 C241 1.359 . S
C240 C242 1.364 . S
C241 C239 1.374 . S
C241 C240 1.359 . S
C241 H262 0.931 . S
C242 C238 1.389 . S
C242 C240 1.364 . S
C242 H263 0.931 . S
C243 O254 1.256 . S
C243 O255 1.257 . S
O244 Gd224 2.377 . S
O244 C226 1.240 . S
O245 Gd225 2.395 1_554 S
O245 C226 1.240 . S
O246 Gd224 2.448 . S
O246 C227 1.249 . S
O247 Gd224 2.506 . S
O247 C227 1.252 . S
O248 Gd224 2.435 1_655 S
O248 C234 1.256 . S
O249 Gd224 2.717 1_655 S
O249 Gd225 2.327 1_654 S
O249 C234 1.257 . S
O250 Gd225 2.377 1_655 S
O250 C235 1.240 . S
O251 Gd224 2.395 1_655 S
O251 C235 1.240 1_554 S
O252 Gd225 2.448 1_655 S
O252 C236 1.249 . S
O253 Gd225 2.506 1_655 S
O253 C236 1.252 . S
O254 Gd225 2.435 . S
O254 C243 1.256 . S
O255 Gd224 2.327 1_556 S
O255 Gd225 2.717 . S
O255 C243 1.257 . S
H256 C229 0.930 . S
H257 C230 0.931 . S
H258 C232 0.931 . S
H259 C233 0.931 . S
H260 C238 0.930 . S
H261 C239 0.931 . S
H262 C241 0.931 . S
H263 C242 0.931 . S
H264 C270 0.930 . S
H265 C274 0.930 . S
H266 C279 0.929 . S
H267 C277 0.929 . S
H268 C272 0.929 . S
H269 C278 0.929 . S
C270 H264 0.930 . S
C270 C271 1.367 . S
C270 C278 1.378 . S
C271 C270 1.367 . S
C271 C279 1.433 . S
C272 H268 0.929 . S
C272 C274 1.378 . S
C272 C276 1.350 . S
C273 C276 1.463 . S
C273 C278 1.350 . S
C273 N281 1.427 . S
C274 H265 0.930 . S
C274 C272 1.378 . S
C274 C275 1.367 . S
C275 C274 1.367 . S
C275 C277 1.433 . S
C276 C272 1.350 . S
C276 C273 1.463 . S
C276 N280 1.427 . S
C277 H267 0.929 . S
C277 C275 1.433 . S
C277 N280 1.384 . S
C278 H269 0.929 . S
C278 C270 1.378 . S
C278 C273 1.350 . S
C279 H266 0.929 . S
C279 C271 1.433 . S
C279 N281 1.384 . S
N280 C276 1.427 . S
N280 C277 1.384 . S
N281 C273 1.427 . S
N281 C279 1.384 . S
H282 C288 0.930 . S
H283 C292 0.930 . S
H284 C297 0.929 . S
H285 C295 0.929 . S
H286 C290 0.929 . S
H287 C296 0.929 . S
C288 H282 0.930 . S
C288 C289 1.367 . S
C288 C296 1.378 . S
C289 C288 1.367 . S
C289 C297 1.433 . S
C290 H286 0.929 . S
C290 C292 1.378 . S
C290 C294 1.350 . S
C291 C294 1.463 . S
C291 C296 1.350 . S
C291 N299 1.427 . S
C292 H283 0.930 . S
C292 C290 1.378 . S
C292 C293 1.367 . S
C293 C292 1.367 . S
C293 C295 1.433 . S
C294 C290 1.350 . S
C294 C291 1.463 . S
C294 N298 1.427 . S
C295 H285 0.929 . S
C295 C293 1.433 . S
C295 N298 1.384 . S
C296 H287 0.929 . S
C296 C288 1.378 . S
C296 C291 1.350 . S
C297 H284 0.929 . S
C297 C289 1.433 . S
C297 N299 1.384 . S
N298 C294 1.427 . S
N298 C295 1.384 . S
N299 C291 1.427 . S
N299 C297 1.384 . S
H300 C306 0.930 . S
H301 C310 0.930 . S
H302 C315 0.929 . S
H303 C313 0.929 . S
H304 C308 0.929 . S
H305 C314 0.929 . S
C306 H300 0.930 . S
C306 C307 1.367 . S
C306 C314 1.378 . S
C307 C306 1.367 . S
C307 C315 1.433 . S
C308 H304 0.929 . S
C308 C310 1.378 . S
C308 C312 1.350 . S
C309 C312 1.463 . S
C309 C314 1.350 . S
C309 N317 1.427 . S
C310 H301 0.930 . S
C310 C308 1.378 . S
C310 C311 1.367 . S
C311 C310 1.367 . S
C311 C313 1.433 . S
C312 C308 1.350 . S
C312 C309 1.463 . S
C312 N316 1.427 . S
C313 H303 0.929 . S
C313 C311 1.433 . S
C313 N316 1.384 . S
C314 H305 0.929 . S
C314 C306 1.378 . S
C314 C309 1.350 . S
C315 H302 0.929 . S
C315 C307 1.433 . S
C315 N317 1.384 . S
N316 C312 1.427 . S
N316 C313 1.384 . S
N317 C309 1.427 . S
N317 C315 1.384 . S
H318 C324 0.930 . S
H319 C328 0.930 . S
H320 C333 0.929 . S
H321 C331 0.929 . S
H322 C326 0.929 . S
H323 C332 0.929 . S
C324 H318 0.930 . S
C324 C325 1.367 . S
C324 C332 1.378 . S
C325 C324 1.367 . S
C325 C333 1.433 . S
C326 H322 0.929 . S
C326 C328 1.378 . S
C326 C330 1.350 . S
C327 C330 1.463 . S
C327 C332 1.350 . S
C327 N335 1.427 . S
C328 H319 0.930 . S
C328 C326 1.378 . S
C328 C329 1.367 . S
C329 C328 1.367 . S
C329 C331 1.433 . S
C330 C326 1.350 . S
C330 C327 1.463 . S
C330 N334 1.427 . S
C331 H321 0.929 . S
C331 C329 1.433 . S
C331 N334 1.384 . S
C332 H323 0.929 . S
C332 C324 1.378 . S
C332 C327 1.350 . S
C333 H320 0.929 . S
C333 C325 1.433 . S
C333 N335 1.384 . S
N334 C330 1.427 . S
N334 C331 1.384 . S
N335 C327 1.427 . S
N335 C333 1.384 . S
H336 C342 0.930 . S
H337 C346 0.930 . S
H338 C351 0.929 . S
H339 C349 0.929 . S
H340 C344 0.929 . S
H341 C350 0.929 . S
C342 H336 0.930 . S
C342 C343 1.367 . S
C342 C350 1.378 . S
C343 C342 1.367 . S
C343 C351 1.433 . S
C344 H340 0.929 . S
C344 C346 1.378 . S
C344 C348 1.350 . S
C345 C348 1.463 . S
C345 C350 1.350 . S
C345 N353 1.427 . S
C346 H337 0.930 . S
C346 C344 1.378 . S
C346 C347 1.367 . S
C347 C346 1.367 . S
C347 C349 1.433 . S
C348 C344 1.350 . S
C348 C345 1.463 . S
C348 N352 1.427 . S
C349 H339 0.929 . S
C349 C347 1.433 . S
C349 N352 1.384 . S
C350 H341 0.929 . S
C350 C342 1.378 . S
C350 C345 1.350 . S
C351 H338 0.929 . S
C351 C343 1.433 . S
C351 N353 1.384 . S
N352 C348 1.427 . S
N352 C349 1.384 . S
N353 C345 1.427 . S
N353 C351 1.384 . S
H354 C360 0.930 . S
H355 C364 0.930 . S
H356 C369 0.929 . S
H357 C367 0.929 1_545 S
H358 C362 0.929 . S
H359 C368 0.929 . S
C360 H354 0.930 . S
C360 C361 1.367 . S
C360 C368 1.378 . S
C361 C360 1.367 . S
C361 C369 1.433 . S
C362 H358 0.929 . S
C362 C364 1.378 . S
C362 C366 1.350 . S
C363 C366 1.463 . S
C363 C368 1.350 . S
C363 N371 1.427 . S
C364 H355 0.930 . S
C364 C362 1.378 . S
C364 C365 1.367 . S
C365 C364 1.367 . S
C365 C367 1.433 . S
C366 C362 1.350 . S
C366 C363 1.463 . S
C366 N370 1.427 . S
C367 H357 0.929 1_565 S
C367 C365 1.433 . S
C367 N370 1.384 . S
C368 H359 0.929 . S
C368 C360 1.378 . S
C368 C363 1.350 . S
C369 H356 0.929 . S
C369 C361 1.433 . S
C369 N371 1.384 . S
N370 C366 1.427 . S
N370 C367 1.384 . S
N371 C363 1.427 . S
N371 C369 1.384 . S
H372 C378 0.930 . S
H373 C382 0.930 . S
H374 C387 0.929 . S
H375 C385 0.929 1_554 S
H376 C380 0.929 . S
H377 C386 0.929 . S
C378 H372 0.930 . S
C378 C379 1.367 . S
C378 C386 1.378 . S
C379 C378 1.367 . S
C379 C387 1.433 . S
C380 H376 0.929 . S
C380 C382 1.378 . S
C380 C384 1.350 . S
C381 C384 1.463 . S
C381 C386 1.350 . S
C381 N389 1.427 . S
C382 H373 0.930 . S
C382 C380 1.378 . S
C382 C383 1.367 . S
C383 C382 1.367 . S
C383 C385 1.433 . S
C384 C380 1.350 . S
C384 C381 1.463 . S
C384 N388 1.427 . S
C385 H375 0.929 1_556 S
C385 C383 1.433 . S
C385 N388 1.384 . S
C386 H377 0.929 . S
C386 C378 1.378 . S
C386 C381 1.350 . S
C387 H374 0.929 . S
C387 C379 1.433 . S
C387 N389 1.384 . S
N388 C384 1.427 . S
N388 C385 1.384 . S
N389 C381 1.427 . S
N389 C387 1.384 . S
H390 C396 0.930 . S
H391 C400 0.930 . S
H392 C405 0.929 . S
H393 C403 0.929 . S
H394 C398 0.929 . S
H395 C404 0.929 . S
C396 H390 0.930 . S
C396 C397 1.367 . S
C396 C404 1.378 . S
C397 C396 1.367 . S
C397 C405 1.433 . S
C398 H394 0.929 . S
C398 C400 1.378 . S
C398 C402 1.350 . S
C399 C402 1.463 . S
C399 C404 1.350 . S
C399 N407 1.427 . S
C400 H391 0.930 . S
C400 C398 1.378 . S
C400 C401 1.367 . S
C401 C400 1.367 . S
C401 C403 1.433 . S
C402 C398 1.350 . S
C402 C399 1.463 . S
C402 N406 1.427 . S
C403 H393 0.929 . S
C403 C401 1.433 . S
C403 N406 1.384 . S
C404 H395 0.929 . S
C404 C396 1.378 . S
C404 C399 1.350 . S
C405 H392 0.929 . S
C405 C397 1.433 . S
C405 N407 1.384 . S
N406 C402 1.427 . S
N406 C403 1.384 . S
N407 C399 1.427 . S
N407 C405 1.384 . S
H408 C414 0.930 . S
H409 C418 0.930 . S
H410 C423 0.929 . S
H411 C421 0.929 . S
H412 C416 0.929 . S
H413 C422 0.929 . S
C414 H408 0.930 . S
C414 C415 1.367 . S
C414 C422 1.378 . S
C415 C414 1.367 . S
C415 C423 1.433 . S
C416 H412 0.929 . S
C416 C418 1.378 . S
C416 C420 1.350 . S
C417 C420 1.463 . S
C417 C422 1.350 . S
C417 N425 1.427 . S
C418 H409 0.930 . S
C418 C416 1.378 . S
C418 C419 1.367 . S
C419 C418 1.367 . S
C419 C421 1.433 . S
C420 C416 1.350 . S
C420 C417 1.463 . S
C420 N424 1.427 . S
C421 H411 0.929 . S
C421 C419 1.433 . S
C421 N424 1.384 . S
C422 H413 0.929 . S
C422 C414 1.378 . S
C422 C417 1.350 . S
C423 H410 0.929 . S
C423 C415 1.433 . S
C423 N425 1.384 . S
N424 C420 1.427 . S
N424 C421 1.384 . S
N425 C417 1.427 . S
N425 C423 1.384 . S
H426 C432 0.930 . S
H427 C436 0.930 . S
H428 C441 0.929 . S
H429 C439 0.929 1_554 S
H430 C434 0.929 . S
H431 C440 0.929 . S
C432 H426 0.930 . S
C432 C433 1.367 . S
C432 C440 1.378 . S
C433 C432 1.367 . S
C433 C441 1.433 . S
C434 H430 0.929 . S
C434 C436 1.378 . S
C434 C438 1.350 . S
C435 C438 1.463 . S
C435 C440 1.350 . S
C435 N443 1.427 . S
C436 H427 0.930 . S
C436 C434 1.378 . S
C436 C437 1.367 . S
C437 C436 1.367 . S
C437 C439 1.433 . S
C438 C434 1.350 . S
C438 C435 1.463 . S
C438 N442 1.427 . S
C439 H429 0.929 1_556 S
C439 C437 1.433 . S
C439 N442 1.384 . S
C440 H431 0.929 . S
C440 C432 1.378 . S
C440 C435 1.350 . S
C441 H428 0.929 . S
C441 C433 1.433 . S
C441 N443 1.384 . S
N442 C438 1.427 . S
N442 C439 1.384 . S
N443 C435 1.427 . S
N443 C441 1.384 . S
H444 C450 0.930 . S
H445 C454 0.930 . S
H446 C459 0.929 . S
H447 C457 0.929 1_455 S
H448 C452 0.929 . S
H449 C458 0.929 . S
C450 H444 0.930 . S
C450 C451 1.367 . S
C450 C458 1.378 . S
C451 C450 1.367 . S
C451 C459 1.433 . S
C452 H448 0.929 . S
C452 C454 1.378 . S
C452 C456 1.350 . S
C453 C456 1.463 . S
C453 C458 1.350 . S
C453 N461 1.427 . S
C454 H445 0.930 . S
C454 C452 1.378 . S
C454 C455 1.367 . S
C455 C454 1.367 . S
C455 C457 1.433 . S
C456 C452 1.350 . S
C456 C453 1.463 . S
C456 N460 1.427 . S
C457 H447 0.929 1_655 S
C457 C455 1.433 . S
C457 N460 1.384 . S
C458 H449 0.929 . S
C458 C450 1.378 . S
C458 C453 1.350 . S
C459 H446 0.929 . S
C459 C451 1.433 . S
C459 N461 1.384 . S
N460 C456 1.427 . S
N460 C457 1.384 . S
N461 C453 1.427 . S
N461 C459 1.384 . S
H462 C468 0.930 . S
H463 C472 0.930 . S
H464 C477 0.929 . S
H465 C475 0.929 . S
H466 C470 0.929 . S
H467 C476 0.929 . S
C468 H462 0.930 . S
C468 C469 1.367 . S
C468 C476 1.378 . S
C469 C468 1.367 . S
C469 C477 1.433 . S
C470 H466 0.929 . S
C470 C472 1.378 . S
C470 C474 1.350 . S
C471 C474 1.463 . S
C471 C476 1.350 . S
C471 N479 1.427 . S
C472 H463 0.930 . S
C472 C470 1.378 . S
C472 C473 1.367 . S
C473 C472 1.367 . S
C473 C475 1.433 . S
C474 C470 1.350 . S
C474 C471 1.463 . S
C474 N478 1.427 . S
C475 H465 0.929 . S
C475 C473 1.433 . S
C475 N478 1.384 . S
C476 H467 0.929 . S
C476 C468 1.378 . S
C476 C471 1.350 . S
C477 H464 0.929 . S
C477 C469 1.433 . S
C477 N479 1.384 . S
N478 C474 1.427 . S
N478 C475 1.384 . S
N479 C471 1.427 . S
N479 C477 1.384 . S
H480 C486 0.930 . S
H481 C490 0.930 . S
H482 C495 0.929 . S
H483 C493 0.929 . S
H484 C488 0.929 . S
H485 C494 0.929 . S
C486 H480 0.930 . S
C486 C487 1.367 . S
C486 C494 1.378 . S
C487 C486 1.367 . S
C487 C495 1.433 . S
C488 H484 0.929 . S
C488 C490 1.378 . S
C488 C492 1.350 . S
C489 C492 1.463 . S
C489 C494 1.350 . S
C489 N497 1.427 . S
C490 H481 0.930 . S
C490 C488 1.378 . S
C490 C491 1.367 . S
C491 C490 1.367 . S
C491 C493 1.433 . S
C492 C488 1.350 . S
C492 C489 1.463 . S
C492 N496 1.427 . S
C493 H483 0.929 . S
C493 C491 1.433 . S
C493 N496 1.384 . S
C494 H485 0.929 . S
C494 C486 1.378 . S
C494 C489 1.350 . S
C495 H482 0.929 . S
C495 C487 1.433 . S
C495 N497 1.384 . S
N496 C492 1.427 . S
N496 C493 1.384 . S
N497 C489 1.427 . S
N497 C495 1.384 . S
H498 C504 0.930 . S
H499 C508 0.930 . S
H500 C513 0.929 . S
H501 C511 0.929 . S
H502 C506 0.929 . S
H503 C512 0.929 . S
C504 H498 0.930 . S
C504 C505 1.367 . S
C504 C512 1.378 . S
C505 C504 1.367 . S
C505 C513 1.433 . S
C506 H502 0.929 . S
C506 C508 1.378 . S
C506 C510 1.350 . S
C507 C510 1.463 . S
C507 C512 1.350 . S
C507 N515 1.427 . S
C508 H499 0.930 . S
C508 C506 1.378 . S
C508 C509 1.367 . S
C509 C508 1.367 . S
C509 C511 1.433 . S
C510 C506 1.350 . S
C510 C507 1.463 . S
C510 N514 1.427 . S
C511 H501 0.929 . S
C511 C509 1.433 . S
C511 N514 1.384 . S
C512 H503 0.929 . S
C512 C504 1.378 . S
C512 C507 1.350 . S
C513 H500 0.929 . S
C513 C505 1.433 . S
C513 N515 1.384 . S
N514 C510 1.427 . S
N514 C511 1.384 . S
N515 C507 1.427 . S
N515 C513 1.384 . S
H516 C522 0.930 . S
H517 C526 0.930 . S
H518 C531 0.929 . S
H519 C529 0.929 . S
H520 C524 0.929 . S
H521 C530 0.929 . S
C522 H516 0.930 . S
C522 C523 1.367 . S
C522 C530 1.378 . S
C523 C522 1.367 . S
C523 C531 1.433 . S
C524 H520 0.929 . S
C524 C526 1.378 . S
C524 C528 1.350 . S
C525 C528 1.463 . S
C525 C530 1.350 . S
C525 N533 1.427 . S
C526 H517 0.930 . S
C526 C524 1.378 . S
C526 C527 1.367 . S
C527 C526 1.367 . S
C527 C529 1.433 . S
C528 C524 1.350 . S
C528 C525 1.463 . S
C528 N532 1.427 . S
C529 H519 0.929 . S
C529 C527 1.433 . S
C529 N532 1.384 . S
C530 H521 0.929 . S
C530 C522 1.378 . S
C530 C525 1.350 . S
C531 H518 0.929 . S
C531 C523 1.433 . S
C531 N533 1.384 . S
N532 C528 1.427 . S
N532 C529 1.384 . S
N533 C525 1.427 . S
N533 C531 1.384 . S
H534 C540 0.930 . S
H535 C544 0.930 . S
H536 C549 0.929 . S
H537 C547 0.929 . S
H538 C542 0.929 . S
H539 C548 0.929 . S
C540 H534 0.930 . S
C540 C541 1.367 . S
C540 C548 1.378 . S
C541 C540 1.367 . S
C541 C549 1.433 . S
C542 H538 0.929 . S
C542 C544 1.378 . S
C542 C546 1.350 . S
C543 C546 1.463 . S
C543 C548 1.350 . S
C543 N551 1.427 . S
C544 H535 0.930 . S
C544 C542 1.378 . S
C544 C545 1.367 . S
C545 C544 1.367 . S
C545 C547 1.433 . S
C546 C542 1.350 . S
C546 C543 1.463 . S
C546 N550 1.427 . S
C547 H537 0.929 . S
C547 C545 1.433 . S
C547 N550 1.384 . S
C548 H539 0.929 . S
C548 C540 1.378 . S
C548 C543 1.350 . S
C549 H536 0.929 . S
C549 C541 1.433 . S
C549 N551 1.384 . S
N550 C546 1.427 . S
N550 C547 1.384 . S
N551 C543 1.427 . S
N551 C549 1.384 . S
H552 C558 0.930 . S
H553 C562 0.930 . S
H554 C567 0.929 . S
H555 C565 0.929 . S
H556 C560 0.929 . S
H557 C566 0.929 . S
C558 H552 0.930 . S
C558 C559 1.367 . S
C558 C566 1.378 . S
C559 C558 1.367 . S
C559 C567 1.433 . S
C560 H556 0.929 . S
C560 C562 1.378 . S
C560 C564 1.350 . S
C561 C564 1.463 . S
C561 C566 1.350 . S
C561 N569 1.427 . S
C562 H553 0.930 . S
C562 C560 1.378 . S
C562 C563 1.367 . S
C563 C562 1.367 . S
C563 C565 1.433 . S
C564 C560 1.350 . S
C564 C561 1.463 . S
C564 N568 1.427 . S
C565 H555 0.929 . S
C565 C563 1.433 . S
C565 N568 1.384 . S
C566 H557 0.929 . S
C566 C558 1.378 . S
C566 C561 1.350 . S
C567 H554 0.929 . S
C567 C559 1.433 . S
C567 N569 1.384 . S
N568 C564 1.427 . S
N568 C565 1.384 . S
N569 C561 1.427 . S
N569 C567 1.384 . S
H570 C576 0.930 . S
H571 C580 0.930 . S
H572 C585 0.929 . S
H573 C583 0.929 . S
H574 C578 0.929 . S
H575 C584 0.929 . S
C576 H570 0.930 . S
C576 C577 1.367 . S
C576 C584 1.378 . S
C577 C576 1.367 . S
C577 C585 1.433 . S
C578 H574 0.929 . S
C578 C580 1.378 . S
C578 C582 1.350 . S
C579 C582 1.463 . S
C579 C584 1.350 . S
C579 N587 1.427 . S
C580 H571 0.930 . S
C580 C578 1.378 . S
C580 C581 1.367 . S
C581 C580 1.367 . S
C581 C583 1.433 . S
C582 C578 1.350 . S
C582 C579 1.463 . S
C582 N586 1.427 . S
C583 H573 0.929 . S
C583 C581 1.433 . S
C583 N586 1.384 . S
C584 H575 0.929 . S
C584 C576 1.378 . S
C584 C579 1.350 . S
C585 H572 0.929 . S
C585 C577 1.433 . S
C585 N587 1.384 . S
N586 C582 1.427 . S
N586 C583 1.384 . S
N587 C579 1.427 . S
N587 C585 1.384 . S
H588 C594 0.930 . S
H589 C598 0.930 . S
H590 C603 0.929 . S
H591 C601 0.929 . S
H592 C596 0.929 . S
H593 C602 0.929 . S
C594 H588 0.930 . S
C594 C595 1.367 . S
C594 C602 1.378 . S
C595 C594 1.367 . S
C595 C603 1.433 . S
C596 H592 0.929 . S
C596 C598 1.378 . S
C596 C600 1.350 . S
C597 C600 1.463 . S
C597 C602 1.350 . S
C597 N605 1.427 . S
C598 H589 0.930 . S
C598 C596 1.378 . S
C598 C599 1.367 . S
C599 C598 1.367 . S
C599 C601 1.433 . S
C600 C596 1.350 . S
C600 C597 1.463 . S
C600 N604 1.427 . S
C601 H591 0.929 . S
C601 C599 1.433 . S
C601 N604 1.384 . S
C602 H593 0.929 . S
C602 C594 1.378 . S
C602 C597 1.350 . S
C603 H590 0.929 . S
C603 C595 1.433 . S
C603 N605 1.384 . S
N604 C600 1.427 . S
N604 C601 1.384 . S
N605 C597 1.427 . S
N605 C603 1.384 . S
H606 C612 0.930 . S
H607 C616 0.930 . S
H608 C621 0.929 . S
H609 C619 0.929 . S
H610 C614 0.929 . S
H611 C620 0.929 . S
C612 H606 0.930 . S
C612 C613 1.367 . S
C612 C620 1.378 . S
C613 C612 1.367 . S
C613 C621 1.433 . S
C614 H610 0.929 . S
C614 C616 1.378 . S
C614 C618 1.350 . S
C615 C618 1.463 . S
C615 C620 1.350 . S
C615 N623 1.427 . S
C616 H607 0.930 . S
C616 C614 1.378 . S
C616 C617 1.367 . S
C617 C616 1.367 . S
C617 C619 1.433 . S
C618 C614 1.350 . S
C618 C615 1.463 . S
C618 N622 1.427 . S
C619 H609 0.929 . S
C619 C617 1.433 . S
C619 N622 1.384 . S
C620 H611 0.929 . S
C620 C612 1.378 . S
C620 C615 1.350 . S
C621 H608 0.929 . S
C621 C613 1.433 . S
C621 N623 1.384 . S
N622 C618 1.427 . S
N622 C619 1.384 . S
N623 C615 1.427 . S
N623 C621 1.384 . S
H624 C630 0.930 . S
H625 C634 0.930 . S
H626 C639 0.929 . S
H627 C637 0.929 . S
H628 C632 0.929 . S
H629 C638 0.929 . S
C630 H624 0.930 . S
C630 C631 1.367 . S
C630 C638 1.378 . S
C631 C630 1.367 . S
C631 C639 1.433 . S
C632 H628 0.929 . S
C632 C634 1.378 . S
C632 C636 1.350 . S
C633 C636 1.463 . S
C633 C638 1.350 . S
C633 N641 1.427 . S
C634 H625 0.930 . S
C634 C632 1.378 . S
C634 C635 1.367 . S
C635 C634 1.367 . S
C635 C637 1.433 . S
C636 C632 1.350 . S
C636 C633 1.463 . S
C636 N640 1.427 . S
C637 H627 0.929 . S
C637 C635 1.433 . S
C637 N640 1.384 . S
C638 H629 0.929 . S
C638 C630 1.378 . S
C638 C633 1.350 . S
C639 H626 0.929 . S
C639 C631 1.433 . S
C639 N641 1.384 . S
N640 C636 1.427 . S
N640 C637 1.384 . S
N641 C633 1.427 . S
N641 C639 1.384 . S
H642 C648 0.930 . S
H643 C652 0.930 . S
H644 C657 0.929 . S
H645 C655 0.929 . S
H646 C650 0.929 . S
H647 C656 0.929 . S
C648 H642 0.930 . S
C648 C649 1.367 . S
C648 C656 1.378 . S
C649 C648 1.367 . S
C649 C657 1.433 . S
C650 H646 0.929 . S
C650 C652 1.378 . S
C650 C654 1.350 . S
C651 C654 1.463 . S
C651 C656 1.350 . S
C651 N659 1.427 . S
C652 H643 0.930 . S
C652 C650 1.378 . S
C652 C653 1.367 . S
C653 C652 1.367 . S
C653 C655 1.433 . S
C654 C650 1.350 . S
C654 C651 1.463 . S
C654 N658 1.427 . S
C655 H645 0.929 . S
C655 C653 1.433 . S
C655 N658 1.384 . S
C656 H647 0.929 . S
C656 C648 1.378 . S
C656 C651 1.350 . S
C657 H644 0.929 . S
C657 C649 1.433 . S
C657 N659 1.384 . S
N658 C654 1.427 . S
N658 C655 1.384 . S
N659 C651 1.427 . S
N659 C657 1.384 . S
H660 C666 0.930 . S
H661 C670 0.930 . S
H662 C675 0.929 . S
H663 C673 0.929 . S
H664 C668 0.929 . S
H665 C674 0.929 . S
C666 H660 0.930 . S
C666 C667 1.367 . S
C666 C674 1.378 . S
C667 C666 1.367 . S
C667 C675 1.433 . S
C668 H664 0.929 . S
C668 C670 1.378 . S
C668 C672 1.350 . S
C669 C672 1.463 . S
C669 C674 1.350 . S
C669 N677 1.427 . S
C670 H661 0.930 . S
C670 C668 1.378 . S
C670 C671 1.367 . S
C671 C670 1.367 . S
C671 C673 1.433 . S
C672 C668 1.350 . S
C672 C669 1.463 . S
C672 N676 1.427 . S
C673 H663 0.929 . S
C673 C671 1.433 . S
C673 N676 1.384 . S
C674 H665 0.929 . S
C674 C666 1.378 . S
C674 C669 1.350 . S
C675 H662 0.929 . S
C675 C667 1.433 . S
C675 N677 1.384 . S
N676 C672 1.427 . S
N676 C673 1.384 . S
N677 C669 1.427 . S
N677 C675 1.384 . S
H678 C684 0.930 . S
H679 C688 0.930 . S
H680 C693 0.929 . S
H681 C691 0.929 . S
H682 C686 0.929 . S
H683 C692 0.929 . S
C684 H678 0.930 . S
C684 C685 1.367 . S
C684 C692 1.378 . S
C685 C684 1.367 . S
C685 C693 1.433 . S
C686 H682 0.929 . S
C686 C688 1.378 . S
C686 C690 1.350 . S
C687 C690 1.463 . S
C687 C692 1.350 . S
C687 N695 1.427 . S
C688 H679 0.930 . S
C688 C686 1.378 . S
C688 C689 1.367 . S
C689 C688 1.367 . S
C689 C691 1.433 . S
C690 C686 1.350 . S
C690 C687 1.463 . S
C690 N694 1.427 . S
C691 H681 0.929 . S
C691 C689 1.433 . S
C691 N694 1.384 . S
C692 H683 0.929 . S
C692 C684 1.378 . S
C692 C687 1.350 . S
C693 H680 0.929 . S
C693 C685 1.433 . S
C693 N695 1.384 . S
N694 C690 1.427 . S
N694 C691 1.384 . S
N695 C687 1.427 . S
N695 C693 1.384 . S
C271 N1 0.955 . S
C275 C111 0.976 . S
C289 N18 1.084 . S
C293 C160 1.132 . S
C311 C186 2.067 . S
C307 N28 2.098 . S
C325 N40 2.595 . S
C329 C234 2.594 . S
C347 C146 2.408 . S
C343 N5 2.357 . S
C365 C114 0.728 . S
C361 N14 0.735 . S
C383 C235 2.021 . S
C379 N31 2.015 . S
C401 C203 1.384 . S
C397 N41 1.412 . S
C415 N2 1.343 . S
C419 C231 1.369 . S
C437 C163 2.460 1_556 S
C433 N27 2.513 . S
C451 N44 2.401 . S
C455 C115 2.447 . S
C469 N15 0.729 . S
C473 C200 0.721 . S
C491 C120 1.464 . S
C487 N57 1.487 . S
C505 N70 0.917 . S
C509 C151 0.955 . S
C523 N79 2.277 . S
C527 C195 2.312 . S
C541 N93 2.393 . S
C545 C243 2.368 . S
C559 N54 1.925 . S
C563 C155 2.025 1_566 S
C581 C123 1.510 . S
C577 N66 1.581 . S
C599 C226 1.425 . S
C595 N80 1.462 . S
C617 C194 1.694 . S
C613 N96 1.698 . S
C631 N53 1.470 . S
C635 C240 1.497 . S
C653 C154 2.132 . S
C649 N83 2.122 . S
C671 C106 2.618 . S
C667 N92 2.604 . S
C685 N67 0.906 . S
C689 C191 0.917 . S
