# Generated by pormake.
# Topology hwx, (6,3)-cn, num edge types: 1
# Building blocks:
#     Node 0, Type 0, BuildingBlock: IZENUY_clean_sbu_0, # of connection points: 6
#     Node 1, Type 0, BuildingBlock: IZENUY_clean_sbu_0, # of connection points: 6
#     Node 2, Type 0, BuildingBlock: IZENUY_clean_sbu_0, # of connection points: 6
#     Node 3, Type 0, BuildingBlock: IZENUY_clean_sbu_0, # of connection points: 6
#     Node 4, Type 1, BuildingBlock: VETTIZ_charged_linker_0, # of connection points: 3
#     Node 5, Type 1, BuildingBlock: VETTIZ_charged_linker_0, # of connection points: 3
#     Node 6, Type 1, BuildingBlock: VETTIZ_charged_linker_0, # of connection points: 3
#     Node 7, Type 1, BuildingBlock: VETTIZ_charged_linker_0, # of connection points: 3
#     Node 8, Type 1, BuildingBlock: VETTIZ_charged_linker_0, # of connection points: 3
#     Node 9, Type 1, BuildingBlock: VETTIZ_charged_linker_0, # of connection points: 3
#     Node 10, Type 1, BuildingBlock: VETTIZ_charged_linker_0, # of connection points: 3
#     Node 11, Type 1, BuildingBlock: VETTIZ_charged_linker_0, # of connection points: 3
#     Edge 12, Type (0, 1), BuildingBlock: XUDNAN_clean_linker_2, # of connection points: 2
#     Edge 13, Type (0, 1), BuildingBlock: XUDNAN_clean_linker_2, # of connection points: 2
#     Edge 14, Type (0, 1), BuildingBlock: XUDNAN_clean_linker_2, # of connection points: 2
#     Edge 15, Type (0, 1), BuildingBlock: XUDNAN_clean_linker_2, # of connection points: 2
#     Edge 16, Type (0, 1), BuildingBlock: XUDNAN_clean_linker_2, # of connection points: 2
#     Edge 17, Type (0, 1), BuildingBlock: XUDNAN_clean_linker_2, # of connection points: 2
#     Edge 18, Type (0, 1), BuildingBlock: XUDNAN_clean_linker_2, # of connection points: 2
#     Edge 19, Type (0, 1), BuildingBlock: XUDNAN_clean_linker_2, # of connection points: 2
#     Edge 20, Type (0, 1), BuildingBlock: XUDNAN_clean_linker_2, # of connection points: 2
#     Edge 21, Type (0, 1), BuildingBlock: XUDNAN_clean_linker_2, # of connection points: 2
#     Edge 22, Type (0, 1), BuildingBlock: XUDNAN_clean_linker_2, # of connection points: 2
#     Edge 23, Type (0, 1), BuildingBlock: XUDNAN_clean_linker_2, # of connection points: 2
#     Edge 24, Type (0, 1), BuildingBlock: XUDNAN_clean_linker_2, # of connection points: 2
#     Edge 25, Type (0, 1), BuildingBlock: XUDNAN_clean_linker_2, # of connection points: 2
#     Edge 26, Type (0, 1), BuildingBlock: XUDNAN_clean_linker_2, # of connection points: 2
#     Edge 27, Type (0, 1), BuildingBlock: XUDNAN_clean_linker_2, # of connection points: 2
#     Edge 28, Type (0, 1), BuildingBlock: XUDNAN_clean_linker_2, # of connection points: 2
#     Edge 29, Type (0, 1), BuildingBlock: XUDNAN_clean_linker_2, # of connection points: 2
#     Edge 30, Type (0, 1), BuildingBlock: XUDNAN_clean_linker_2, # of connection points: 2
#     Edge 31, Type (0, 1), BuildingBlock: XUDNAN_clean_linker_2, # of connection points: 2
#     Edge 32, Type (0, 1), BuildingBlock: XUDNAN_clean_linker_2, # of connection points: 2
#     Edge 33, Type (0, 1), BuildingBlock: XUDNAN_clean_linker_2, # of connection points: 2
#     Edge 34, Type (0, 1), BuildingBlock: XUDNAN_clean_linker_2, # of connection points: 2
#     Edge 35, Type (0, 1), BuildingBlock: XUDNAN_clean_linker_2, # of connection points: 2
# Relax obj value: 0.054
# Max RMSD: 0.077
# Mean RMSD: 0.070
data_MOF--net-hwx--node1-IZENUY_clean_sbu_0--node2-VETTIZ_charged_linker_0--edge1-XUDNAN_clean_linker_2
_symmetry_space_group_name_H-M    P1
_symmetry_Int_Tables_number       1
_symmetry_cell_setting            triclinic
loop_
_symmetry_equiv_pos_as_xyz
'x, y, z'
_cell_length_a     57.421024
_cell_length_b     57.416525
_cell_length_c     28.075508
_cell_angle_alpha  90.038797
_cell_angle_beta   89.975404
_cell_angle_gamma 90.010462
loop_
_atom_site_label
_atom_site_type_symbol
_atom_site_fract_x
_atom_site_fract_y
_atom_site_fract_z
_atom_type_partial_charge
Fe0 Fe 0.23855 0.2257 0.05574 0.0
Fe1 Fe 0.2418 0.22668 0.94721 0.0
O2 O 0.2343 0.21192 0.00031 0.0
Fe3 Fe 0.22237 0.18354 0.99833 0.0
O4 O 0.19597 0.19292 0.02834 0.0
O5 O 0.2144 0.21089 0.08603 0.0
O6 O 0.21828 0.24861 0.04004 0.0
C7 C 0.22072 0.26159 0.00409 0.0
C8 C 0.25396 0.18206 0.07585 0.0
O9 O 0.23438 0.25584 0.97045 0.0
C10 C 0.25564 0.17991 0.92958 0.0
O11 O 0.26352 0.24309 0.03623 0.0
O12 O 0.27216 0.22945 0.96537 0.0
O13 O 0.23616 0.17409 0.0545 0.0
O14 O 0.25899 0.20343 0.07373 0.0
C15 C 0.20021 0.20688 0.92245 0.0
O16 O 0.2501 0.19999 0.91442 0.0
O17 O 0.24787 0.1724 0.96854 0.0
C18 C 0.27806 0.24 0.00294 0.0
O19 O 0.21209 0.22519 0.92648 0.0
O20 O 0.20665 0.188 0.94171 0.0
C21 C 0.19604 0.20199 0.06914 0.0
Fe22 Fe 0.24873 0.72687 0.55907 0.0
Fe23 Fe 0.27549 0.68452 0.52106 0.0
O24 O 0.25978 0.71057 0.51036 0.0
Fe25 Fe 0.25553 0.72031 0.4513 0.0
O26 O 0.2574 0.75133 0.46634 0.0
O27 O 0.26586 0.75227 0.54296 0.0
O28 O 0.27243 0.71877 0.60002 0.0
C29 C 0.29301 0.71231 0.59061 0.0
C30 C 0.21331 0.7313 0.48911 0.0
O31 O 0.29741 0.70024 0.55429 0.0
C32 C 0.24909 0.67115 0.44541 0.0
O33 O 0.23088 0.70256 0.57804 0.0
O34 O 0.25916 0.67686 0.57529 0.0
O35 O 0.22421 0.7201 0.45763 0.0
O36 O 0.22325 0.73796 0.52693 0.0
C37 C 0.30045 0.70514 0.44604 0.0
O38 O 0.2546 0.66747 0.48819 0.0
O39 O 0.25302 0.69073 0.42591 0.0
C40 C 0.23896 0.68284 0.58884 0.0
O41 O 0.29468 0.68708 0.46882 0.0
O42 O 0.28652 0.72178 0.44098 0.0
C43 C 0.26594 0.7616 0.50226 0.0
Fe44 Fe 0.75181 0.78392 0.92667 0.0
Fe45 Fe 0.75989 0.7839 0.03403 0.0
O46 O 0.76291 0.79776 0.97804 0.0
Fe47 Fe 0.77706 0.82522 0.97353 0.0
O48 O 0.75175 0.83885 0.9468 0.0
O49 O 0.7444 0.81084 0.89555 0.0
O50 O 0.72229 0.78382 0.95033 0.0
C51 C 0.71706 0.77364 0.98871 0.0
C52 C 0.79397 0.79992 0.89449 0.0
O53 O 0.73257 0.76923 0.01937 0.0
C54 C 0.80443 0.80467 0.04048 0.0
O55 O 0.75725 0.75447 0.94822 0.0
O56 O 0.77693 0.7586 0.01472 0.0
O57 O 0.79023 0.81923 0.91496 0.0
O58 O 0.78055 0.7828 0.90043 0.0
C59 C 0.74917 0.82904 0.05675 0.0
O60 O 0.78641 0.79625 0.05957 0.0
O61 O 0.80363 0.8139 -0.00011 0.0
C62 C 0.77127 0.74647 0.97885 0.0
O63 O 0.74264 0.80801 0.05617 0.0
O64 O 0.76617 0.83587 0.0314 0.0
C65 C 0.74119 0.83131 0.91064 0.0
Fe66 Fe 0.72647 0.32882 0.50292 0.0
Fe67 Fe 0.74302 0.28501 0.55517 0.0
O68 O 0.73831 0.30034 0.50155 0.0
Fe69 Fe 0.74494 0.28704 0.44639 0.0
O70 O 0.75281 0.31464 0.41662 0.0
O71 O 0.75198 0.34068 0.47407 0.0
O72 O 0.74009 0.33679 0.56038 0.0
C73 C 0.75722 0.32801 0.58259 0.0
C74 C 0.70347 0.3076 0.4256 0.0
O75 O 0.76285 0.30702 0.57646 0.0
C76 C 0.72567 0.25001 0.50004 0.0
O77 O 0.70018 0.31844 0.53166 0.0
O78 O 0.71826 0.29823 0.58694 0.0
O79 O 0.71492 0.28899 0.42797 0.0
O80 O 0.71061 0.32599 0.44587 0.0
C81 C 0.78218 0.2729 0.49818 0.0
O82 O 0.72328 0.26206 0.53723 0.0
O83 O 0.73833 0.25711 0.46604 0.0
C84 C 0.69993 0.30742 0.5704 0.0
O85 O 0.76863 0.26898 0.53293 0.0
O86 O 0.77528 0.28392 0.46205 0.0
C87 C 0.75912 0.33413 0.43379 0.0
C88 C 0.19268 0.56017 0.85603 0.0
C89 C 0.19341 0.58464 0.85539 0.0
C90 C 0.1941 0.597 0.89861 0.0
C91 C 0.19323 0.5608 0.94257 0.0
C92 C 0.19227 0.54862 0.9001 0.0
C93 C 0.19023 0.52273 0.90809 0.0
H94 H 0.1824 0.4328 0.06423 0.0
C95 C 0.19201 0.54391 0.98199 0.0
C96 C 0.18984 0.52154 0.96222 0.0
H97 H 0.18432 0.42911 0.91051 0.0
H98 H 0.18671 0.47116 0.90605 0.0
H99 H 0.2227 0.47214 0.07296 0.0
H100 H 0.14779 0.475 0.0728 0.0
H101 H 0.15725 0.49667 0.1125 0.0
H102 H 0.16383 0.46648 0.12477 0.0
H103 H 0.20495 0.46031 0.11974 0.0
H104 H 0.21376 0.49034 0.11994 0.0
C105 C 0.21218 0.51092 0.887 0.0
C106 C 0.16701 0.51433 0.88598 0.0
C107 C 0.20194 0.57199 0.15228 0.0
C108 C 0.2005 0.56081 0.19688 0.0
C109 C 0.19381 0.53712 0.19804 0.0
C110 C 0.18989 0.52462 0.15591 0.0
C111 C 0.19236 0.53587 0.11183 0.0
C112 C 0.19748 0.55935 0.11062 0.0
C113 C 0.19739 0.56889 0.06077 0.0
C114 C 0.19277 0.54692 0.03212 0.0
C115 C 0.19018 0.52761 0.06217 0.0
C116 C 0.2218 0.57913 0.05016 0.0
C117 C 0.17715 0.58673 0.05662 0.0
C118 C 0.18297 0.44104 0.02955 0.0
C119 C 0.18298 0.42763 0.98767 0.0
C120 C 0.18437 0.43906 0.9433 0.0
C121 C 0.1857 0.46347 0.94081 0.0
C122 C 0.18582 0.4766 0.98315 0.0
C123 C 0.18451 0.46529 0.02651 0.0
C124 C 0.18565 0.4818 0.06796 0.0
C125 C 0.18776 0.50497 0.04245 0.0
C126 C 0.18778 0.50188 0.99274 0.0
C127 C 0.2078 0.47591 0.0971 0.0
C128 C 0.16257 0.4799 0.09641 0.0
H129 H 0.19496 0.59564 0.97376 0.0
H130 H 0.19198 0.55035 0.82311 0.0
H131 H 0.15294 0.52729 0.89235 0.0
H132 H 0.16056 0.49799 0.90186 0.0
H133 H 0.16871 0.51194 0.84687 0.0
H134 H 0.22788 0.52192 0.89277 0.0
H135 H 0.21029 0.50814 0.84803 0.0
H136 H 0.2163 0.49414 0.90419 0.0
H137 H 0.20694 0.59009 0.14935 0.0
H138 H 0.1916 0.52809 0.23156 0.0
H139 H 0.18523 0.50661 0.15932 0.0
H140 H 0.23566 0.56707 0.06273 0.0
H141 H 0.22425 0.59607 0.06859 0.0
H142 H 0.22509 0.58169 0.01181 0.0
H143 H 0.16379 0.58416 0.08488 0.0
H144 H 0.16739 0.58486 0.02279 0.0
H145 H 0.18358 0.60491 0.05982 0.0
H146 H 0.19482 0.61586 0.8986 0.0
C147 C 0.19416 0.58523 0.94214 0.0
C148 C 0.04485 0.80214 0.50043 0.0
C149 C 0.05839 0.80137 0.45848 0.0
C150 C 0.04735 0.80549 0.41436 0.0
C151 C 0.01026 0.81028 0.45368 0.0
C152 C 0.02084 0.80645 0.49711 0.0
C153 C 0.00347 0.80641 0.53743 0.0
H154 H 0.89058 0.813 0.60873 0.0
C155 C 0.98506 0.81287 0.4617 0.0
C156 C 0.98082 0.81062 0.51067 0.0
H157 H 0.95126 0.80053 0.69583 0.0
H158 H 0.97618 0.80415 0.62657 0.0
H159 H 0.91423 0.85356 0.53602 0.0
H160 H 0.90424 0.77932 0.53117 0.0
H161 H 0.9026 0.78894 0.47203 0.0
H162 H 0.8814 0.79905 0.51487 0.0
H163 H 0.88625 0.8396 0.53358 0.0
H164 H 0.90242 0.84579 0.48016 0.0
C165 C 0.00946 0.82683 0.57126 0.0
C166 C 0.00404 0.7821 0.56134 0.0
C167 C 0.93195 0.82213 0.31906 0.0
C168 C 0.90763 0.82124 0.31344 0.0
C169 C 0.89354 0.82038 0.35473 0.0
C170 C 0.90351 0.8199 0.40033 0.0
C171 C 0.92785 0.8198 0.40496 0.0
C172 C 0.94159 0.82089 0.36466 0.0
C173 C 0.96704 0.8186 0.37575 0.0
C174 C 0.96635 0.81615 0.4295 0.0
C175 C 0.94343 0.81713 0.44652 0.0
C176 C 0.97928 0.84144 0.36028 0.0
C177 C 0.9763 0.79623 0.35085 0.0
C178 C 0.90929 0.81154 0.61286 0.0
C179 C 0.91911 0.80679 0.65755 0.0
C180 C 0.94343 0.80428 0.66157 0.0
C181 C 0.9578 0.80633 0.62137 0.0
C182 C 0.94768 0.81049 0.57657 0.0
C183 C 0.9238 0.81307 0.57292 0.0
C184 C 0.91589 0.81588 0.52222 0.0
C185 C 0.939 0.81515 0.4961 0.0
C186 C 0.95759 0.812 0.52806 0.0
C187 C 0.90392 0.8399 0.51743 0.0
C188 C 0.90009 0.79488 0.50916 0.0
H189 H 0.01642 0.81303 0.37712 0.0
H190 H 0.05263 0.79922 0.53503 0.0
H191 H 0.00737 0.76819 0.53456 0.0
H192 H 0.98729 0.77725 0.5779 0.0
H193 H 0.01803 0.78109 0.58857 0.0
H194 H 0.01463 0.84253 0.55058 0.0
H195 H 0.0242 0.82222 0.59508 0.0
H196 H 0.99453 0.83243 0.59322 0.0
H197 H 0.94347 0.82314 0.2886 0.0
H198 H 0.87478 0.81925 0.35204 0.0
H199 H 0.89186 0.81901 0.43016 0.0
H200 H 0.96829 0.85683 0.36897 0.0
H201 H 0.98249 0.84159 0.32126 0.0
H202 H 0.99591 0.84448 0.37903 0.0
H203 H 0.96208 0.7835 0.34382 0.0
H204 H 0.98881 0.78645 0.37314 0.0
H205 H 0.98457 0.80035 0.3161 0.0
H206 H 0.05692 0.80441 0.38121 0.0
C207 C 0.02357 0.81018 0.41185 0.0
C208 C 0.82015 0.45604 0.17224 0.0
C209 C 0.82382 0.43199 0.1794 0.0
C210 C 0.83226 0.41845 0.1412 0.0
C211 C 0.82891 0.45141 0.08821 0.0
C212 C 0.82301 0.4654 0.12637 0.0
C213 C 0.81926 0.49036 0.11132 0.0
H214 H 0.80947 0.56812 0.93065 0.0
C215 C 0.82707 0.46537 0.04435 0.0
C216 C 0.82193 0.48839 0.05751 0.0
H217 H 0.80529 0.58211 0.08203 0.0
H218 H 0.81286 0.54153 0.0985 0.0
H219 H 0.85121 0.52801 0.92845 0.0
H220 H 0.77653 0.52787 0.93589 0.0
H221 H 0.78391 0.50055 0.91216 0.0
H222 H 0.79128 0.52673 0.87978 0.0
H223 H 0.83176 0.53893 0.88351 0.0
H224 H 0.83934 0.50863 0.88554 0.0
C225 C 0.83875 0.50539 0.13385 0.0
C226 C 0.79432 0.49776 0.12574 0.0
C227 C 0.82283 0.42309 0.88636 0.0
C228 C 0.81329 0.4294 0.84195 0.0
C229 C 0.80925 0.4533 0.83305 0.0
C230 C 0.81326 0.47013 0.86855 0.0
C231 C 0.82061 0.46302 0.91405 0.0
C232 C 0.82532 0.43981 0.92216 0.0
C233 C 0.82967 0.43468 0.97388 0.0
C234 C 0.82679 0.45871 0.99564 0.0
C235 C 0.82202 0.47531 0.96036 0.0
C236 C 0.85493 0.42555 0.97922 0.0
C237 C 0.81053 0.4174 0.9907 0.0
C238 C 0.81001 0.56266 0.96751 0.0
C239 C 0.80664 0.57868 0.00496 0.0
C240 C 0.80811 0.57045 0.05228 0.0
C241 C 0.81233 0.54678 0.06184 0.0
C242 C 0.81479 0.53101 0.02378 0.0
C243 C 0.8135 0.5391 0.97756 0.0
C244 C 0.81436 0.51979 0.94139 0.0
C245 C 0.81837 0.49892 0.97334 0.0
C246 C 0.81842 0.5055 0.02162 0.0
C247 C 0.83522 0.524 0.90764 0.0
C248 C 0.79042 0.51864 0.91567 0.0
H249 H 0.84067 0.41663 0.06796 0.0
H250 H 0.81411 0.46707 0.20098 0.0
H251 H 0.78166 0.48369 0.11726 0.0
H252 H 0.78813 0.51327 0.10636 0.0
H253 H 0.79324 0.50133 0.16456 0.0
H254 H 0.85528 0.49539 0.13687 0.0
H255 H 0.83384 0.51125 0.17021 0.0
H256 H 0.84327 0.52072 0.11196 0.0
H257 H 0.8271 0.4052 0.89459 0.0
H258 H 0.80195 0.45906 0.79957 0.0
H259 H 0.80959 0.48793 0.85981 0.0
H260 H 0.8666 0.43328 0.95181 0.0
H261 H 0.85568 0.40632 0.97512 0.0
H262 H 0.86286 0.43051 0.01367 0.0
H263 H 0.79348 0.42157 0.97388 0.0
H264 H 0.80701 0.41803 0.02919 0.0
H265 H 0.81504 0.39921 0.98084 0.0
H266 H 0.8362 0.40016 0.14607 0.0
C267 C 0.83491 0.42804 0.09582 0.0
C268 C 0.06594 0.1873 0.34565 0.0
C269 C 0.09032 0.18892 0.34098 0.0
C270 C 0.10387 0.19071 0.3829 0.0
C271 C 0.06909 0.18991 0.43171 0.0
C272 C 0.05577 0.18833 0.39092 0.0
C273 C 0.03012 0.18957 0.40133 0.0
H274 H 0.94319 0.20655 0.56005 0.0
C275 C 0.05312 0.19173 0.47282 0.0
C276 C 0.03027 0.19192 0.45519 0.0
H277 H 0.93859 0.19918 0.40693 0.0
H278 H 0.97981 0.19256 0.40234 0.0
H279 H 0.98004 0.16407 0.57495 0.0
H280 H 0.98916 0.23822 0.56056 0.0
H281 H 0.00746 0.22856 0.60668 0.0
H282 H 0.9764 0.22514 0.61245 0.0
H283 H 0.97288 0.18396 0.62208 0.0
H284 H 0.00195 0.1725 0.61502 0.0
C285 C 0.01885 0.16636 0.38521 0.0
C286 C 0.02017 0.21159 0.37648 0.0
C287 C 0.08589 0.19558 0.64059 0.0
C288 C 0.07554 0.19871 0.68548 0.0
C289 C 0.05111 0.20035 0.68876 0.0
C290 C 0.03718 0.19909 0.64784 0.0
C291 C 0.0478 0.19644 0.60304 0.0
C292 C 0.07177 0.19464 0.60001 0.0
C293 C 0.08012 0.19293 0.54937 0.0
C294 C 0.05718 0.19332 0.52258 0.0
C295 C 0.03831 0.19547 0.55415 0.0
C296 C 0.09294 0.16941 0.54333 0.0
C297 C 0.0953 0.21465 0.53828 0.0
C298 C 0.95112 0.20359 0.52556 0.0
C299 C 0.93754 0.20339 0.48382 0.0
C300 C 0.94852 0.19912 0.43972 0.0
C301 C 0.97256 0.1955 0.43703 0.0
C302 C 0.98595 0.19629 0.47879 0.0
C303 C 0.97522 0.19996 0.5222 0.0
C304 C 0.99238 0.19999 0.56276 0.0
C305 C 0.01518 0.19637 0.53623 0.0
C306 C 0.01124 0.19433 0.48707 0.0
C307 C 0.98657 0.1792 0.59585 0.0
C308 C 0.99133 0.22412 0.58737 0.0
H309 H 0.10474 0.19244 0.45825 0.0
H310 H 0.05476 0.18566 0.31481 0.0
H311 H 0.03368 0.22538 0.37277 0.0
H312 H 0.00612 0.22004 0.3971 0.0
H313 H 0.01366 0.20747 0.34019 0.0
H314 H 0.0304 0.15137 0.39372 0.0
H315 H 0.01576 0.16626 0.34616 0.0
H316 H 0.00229 0.1626 0.40372 0.0
H317 H 0.10466 0.19477 0.63692 0.0
H318 H 0.0428 0.20274 0.72308 0.0
H319 H 0.0187 0.20059 0.65262 0.0
H320 H 0.0829 0.15511 0.56047 0.0
H321 H 0.11042 0.17001 0.56025 0.0
H322 H 0.09504 0.16421 0.50575 0.0
H323 H 0.09081 0.22958 0.56185 0.0
H324 H 0.09249 0.22136 0.50178 0.0
H325 H 0.11411 0.21088 0.54333 0.0
H326 H 0.12259 0.19264 0.38115 0.0
C327 C 0.09343 0.19095 0.42801 0.0
C328 C 0.6988 0.95205 0.64458 0.0
C329 C 0.6964 0.92772 0.64755 0.0
C330 C 0.69596 0.91444 0.60538 0.0
C331 C 0.70045 0.94941 0.55824 0.0
C332 C 0.70055 0.96251 0.59955 0.0
C333 C 0.70216 0.98821 0.58936 0.0
H334 H 0.70669 0.0761 0.42867 0.0
C335 C 0.70284 0.96544 0.51744 0.0
C336 C 0.7037 0.98821 0.53523 0.0
H337 H 0.70058 0.08021 0.58198 0.0
H338 H 0.70275 0.03852 0.58777 0.0
H339 H 0.7465 0.03447 0.429 0.0
H340 H 0.67161 0.03179 0.41452 0.0
H341 H 0.68484 0.0147 0.3698 0.0
H342 H 0.69014 0.04552 0.37123 0.0
H343 H 0.73213 0.04375 0.3755 0.0
H344 H 0.73942 0.01356 0.38558 0.0
C345 C 0.7248 0.99755 0.61246 0.0
C346 C 0.6795 0.99997 0.60764 0.0
C347 C 0.70653 0.93185 0.35107 0.0
C348 C 0.70984 0.94153 0.30575 0.0
C349 C 0.71321 0.96576 0.3015 0.0
C350 C 0.71259 0.9802 0.34207 0.0
C351 C 0.70882 0.97021 0.38725 0.0
C352 C 0.70627 0.94634 0.39099 0.0
C353 C 0.70354 0.93834 0.44148 0.0
C354 C 0.70455 0.96134 0.46777 0.0
C355 C 0.70736 0.98006 0.43604 0.0
C356 C 0.72457 0.92246 0.45374 0.0
C357 C 0.67936 0.9265 0.44638 0.0
C358 C 0.706 0.06792 0.4634 0.0
C359 C 0.70312 0.08142 0.50489 0.0
C360 C 0.70231 0.07018 0.54947 0.0
C361 C 0.70363 0.04594 0.55279 0.0
C362 C 0.70568 0.03261 0.51112 0.0
C363 C 0.70708 0.04354 0.46733 0.0
C364 C 0.709 0.02625 0.42702 0.0
C365 C 0.7077 0.00327 0.45387 0.0
C366 C 0.70589 0.00722 0.50318 0.0
C367 C 0.7329 0.02965 0.40253 0.0
C368 C 0.6879 0.02969 0.3935 0.0
H369 H 0.69769 0.91395 0.53024 0.0
H370 H 0.69896 0.96267 0.67648 0.0
H371 H 0.66468 0.98749 0.60843 0.0
H372 H 0.67347 0.01418 0.5841 0.0
H373 H 0.68175 0.00686 0.64433 0.0
H374 H 0.73937 0.98505 0.60714 0.0
H375 H 0.72251 1.00007 0.65142 0.0
H376 H 0.73084 0.01406 0.59658 0.0
H377 H 0.7044 0.91322 0.35548 0.0
H378 H 0.71591 0.97352 0.26678 0.0
H379 H 0.71496 0.99856 0.33675 0.0
H380 H 0.74058 0.92829 0.43483 0.0
H381 H 0.72119 0.90413 0.44312 0.0
H382 H 0.72932 0.92295 0.49184 0.0
H383 H 0.66635 0.93479 0.42243 0.0
H384 H 0.67182 0.92828 0.48242 0.0
H385 H 0.68026 0.90774 0.43688 0.0
H386 H 0.6944 0.89565 0.6069 0.0
C387 C 0.69803 0.92511 0.56086 0.0
C388 C 0.57 0.30567 0.15637 0.0
C389 C 0.59433 0.30794 0.15988 0.0
C390 C 0.60761 0.30976 0.11779 0.0
C391 C 0.57259 0.30621 0.07007 0.0
C392 C 0.55956 0.30489 0.11135 0.0
C393 C 0.53397 0.30219 0.10145 0.0
H394 H 0.44607 0.29103 0.94231 0.0
C395 C 0.55642 0.30446 0.02924 0.0
C396 C 0.53376 0.30227 0.04738 0.0
H397 H 0.44226 0.2914 0.0961 0.0
H398 H 0.48373 0.29676 0.10115 0.0
H399 H 0.47966 0.33276 0.93341 0.0
H400 H 0.49551 0.25943 0.93457 0.0
H401 H 0.50967 0.27294 0.88603 0.0
H402 H 0.47846 0.27353 0.88934 0.0
H403 H 0.477 0.31534 0.88064 0.0
H404 H 0.50422 0.32901 0.89694 0.0
C405 C 0.52117 0.32365 0.12241 0.0
C406 C 0.52597 0.27846 0.12212 0.0
C407 C 0.58833 0.3035 0.86063 0.0
C408 C 0.57782 0.30413 0.81524 0.0
C409 C 0.55322 0.30477 0.81276 0.0
C410 C 0.53955 0.30414 0.85415 0.0
C411 C 0.55043 0.30328 0.89886 0.0
C412 C 0.57442 0.3036 0.90155 0.0
C413 C 0.58302 0.30483 0.95207 0.0
C414 C 0.5602 0.30439 0.97929 0.0
C415 C 0.54118 0.30301 0.94797 0.0
C416 C 0.59622 0.3282 0.95877 0.0
C417 C 0.59788 0.28287 0.962 0.0
C418 C 0.4543 0.292 0.97697 0.0
C419 C 0.44093 0.29081 0.01887 0.0
C420 C 0.45217 0.29252 0.06334 0.0
C421 C 0.47629 0.29555 0.06621 0.0
C422 C 0.48945 0.29693 0.02416 0.0
C423 C 0.47848 0.29519 0.98046 0.0
C424 C 0.49534 0.29765 0.93967 0.0
C425 C 0.51822 0.30067 0.96624 0.0
C426 C 0.5146 0.30022 0.01568 0.0
C427 C 0.48876 0.3197 0.91077 0.0
C428 C 0.49477 0.27479 0.91048 0.0
H429 H 0.60797 0.30997 0.0423 0.0
H430 H 0.55928 0.30444 0.18803 0.0
H431 H 0.54003 0.26519 0.11906 0.0
H432 H 0.5111 0.27083 0.1027 0.0
H433 H 0.52139 0.28003 0.16043 0.0
H434 H 0.53201 0.33964 0.11893 0.0
H435 H 0.51732 0.32118 0.16085 0.0
H436 H 0.50485 0.3278 0.10345 0.0
H437 H 0.60703 0.30281 0.8648 0.0
H438 H 0.54436 0.30606 0.77887 0.0
H439 H 0.521 0.30453 0.84973 0.0
H440 H 0.58985 0.34174 0.93362 0.0
H441 H 0.6152 0.32604 0.95246 0.0
H442 H 0.59347 0.3359 0.99446 0.0
H443 H 0.58941 0.26712 0.94672 0.0
H444 H 0.59996 0.27918 0.00032 0.0
H445 H 0.61544 0.28448 0.94568 0.0
H446 H 0.62639 0.31123 0.11949 0.0
C447 C 0.59688 0.30888 0.07296 0.0
C448 C 0.29884 0.06091 0.34342 0.0
C449 C 0.30221 0.08515 0.34154 0.0
C450 C 0.30557 0.09764 0.38414 0.0
C451 C 0.30158 0.06212 0.42972 0.0
C452 C 0.29889 0.04974 0.38786 0.0
C453 C 0.29663 0.02397 0.39677 0.0
H454 H 0.296 0.93406 0.55324 0.0
C455 C 0.30034 0.04556 0.46978 0.0
C456 C 0.29775 0.02312 0.4509 0.0
H457 H 0.29215 0.93167 0.39933 0.0
H458 H 0.29278 0.97342 0.39593 0.0
H459 H 0.33346 0.9765 0.56243 0.0
H460 H 0.25832 0.97603 0.56272 0.0
H461 H 0.2675 0.99716 0.60385 0.0
H462 H 0.27484 0.96695 0.61367 0.0
H463 H 0.31648 0.96318 0.60877 0.0
H464 H 0.32314 0.99377 0.61 0.0
C465 C 0.31776 0.01165 0.37327 0.0
C466 C 0.27261 0.01593 0.37782 0.0
C467 C 0.30033 0.077 0.63813 0.0
C468 C 0.29733 0.06672 0.68309 0.0
C469 C 0.29569 0.04222 0.68608 0.0
C470 C 0.29648 0.02834 0.64483 0.0
C471 C 0.29881 0.03905 0.60004 0.0
C472 C 0.30075 0.063 0.59746 0.0
C473 C 0.30235 0.07166 0.5472 0.0
C474 C 0.30066 0.04901 0.51976 0.0
C475 C 0.29879 0.02988 0.5507 0.0
C476 C 0.32641 0.08356 0.54059 0.0
C477 C 0.28111 0.08773 0.53793 0.0
C478 C 0.29516 0.94253 0.51885 0.0
C479 C 0.29456 0.92937 0.47646 0.0
C480 C 0.29335 0.94123 0.4325 0.0
C481 C 0.29357 0.96556 0.43052 0.0
C482 C 0.29489 0.97842 0.47293 0.0
C483 C 0.29528 0.96696 0.51623 0.0
C484 C 0.29593 0.98373 0.55756 0.0
C485 C 0.29692 0.00698 0.53173 0.0
C486 C 0.29627 0.00369 0.48212 0.0
C487 C 0.31833 0.9791 0.58663 0.0
C488 C 0.2731 0.98085 0.58639 0.0
H489 H 0.30768 0.09686 0.45921 0.0
H490 H 0.29651 0.05089 0.31106 0.0
H491 H 0.25903 0.02924 0.38546 0.0
H492 H 0.26628 0.99985 0.39505 0.0
H493 H 0.2731 0.01322 0.33865 0.0
H494 H 0.33345 0.02302 0.37372 0.0
H495 H 0.31407 0.00717 0.33553 0.0
H496 H 0.3232 0.99577 0.39245 0.0
H497 H 0.30211 0.09569 0.6344 0.0
H498 H 0.2932 0.03378 0.72018 0.0
H499 H 0.29496 0.00984 0.64932 0.0
H500 H 0.33971 0.07598 0.56489 0.0
H501 H 0.32543 0.10252 0.54821 0.0
H502 H 0.33369 0.08093 0.50448 0.0
H503 H 0.26524 0.0808 0.55577 0.0
H504 H 0.27633 0.089 0.49997 0.0
H505 H 0.28426 0.10554 0.55199 0.0
H506 H 0.30804 0.11635 0.38343 0.0
C507 C 0.30524 0.08629 0.42813 0.0
C508 C 0.5421 0.71755 0.03665 0.0
C509 C 0.55489 0.71973 0.9942 0.0
C510 C 0.54306 0.71882 0.95027 0.0
C511 C 0.50629 0.71396 0.99162 0.0
C512 C 0.51799 0.71464 0.03454 0.0
C513 C 0.50194 0.71245 0.07655 0.0
H514 H 0.3924 0.70318 0.16254 0.0
C515 C 0.48121 0.71156 0.00215 0.0
C516 C 0.47857 0.71062 0.05181 0.0
H517 H 0.45675 0.70749 0.24176 0.0
H518 H 0.47864 0.70884 0.16833 0.0
H519 H 0.40385 0.74161 0.09333 0.0
H520 H 0.41202 0.66767 0.07532 0.0
H521 H 0.3984 0.6793 0.02424 0.0
H522 H 0.38443 0.68214 0.08131 0.0
H523 H 0.38002 0.7236 0.07475 0.0
H524 H 0.4 0.7363 0.03234 0.0
C525 C 0.50396 0.73499 0.10675 0.0
C526 C 0.50826 0.68977 0.10354 0.0
C527 C 0.42267 0.71164 0.86691 0.0
C528 C 0.39817 0.71267 0.86558 0.0
C529 C 0.38578 0.71181 0.90904 0.0
C530 C 0.39749 0.71002 0.95263 0.0
C531 C 0.42193 0.70951 0.95317 0.0
C532 C 0.4341 0.7105 0.9108 0.0
C533 C 0.45999 0.71157 0.91835 0.0
C534 C 0.46132 0.71081 0.97226 0.0
C535 C 0.439 0.70929 0.99242 0.0
C536 C 0.469 0.73501 0.89792 0.0
C537 C 0.47104 0.68967 0.8954 0.0
C538 C 0.41124 0.70394 0.16388 0.0
C539 C 0.42298 0.70501 0.20772 0.0
C540 C 0.44743 0.70665 0.20825 0.0
C541 C 0.46006 0.70743 0.1656 0.0
C542 C 0.44807 0.70687 0.12195 0.0
C543 C 0.42408 0.70507 0.12157 0.0
C544 C 0.41422 0.70589 0.07196 0.0
C545 C 0.43632 0.708 0.0426 0.0
C546 C 0.45604 0.70857 0.07208 0.0
C547 C 0.39857 0.72784 0.06761 0.0
C548 C 0.40144 0.68263 0.06243 0.0
H549 H 0.5108 0.71526 0.91427 0.0
H550 H 0.5506 0.71853 0.07103 0.0
H551 H 0.51375 0.67587 0.07827 0.0
H552 H 0.49337 0.68222 0.12307 0.0
H553 H 0.52285 0.69273 0.12878 0.0
H554 H 0.50705 0.75043 0.08365 0.0
H555 H 0.51868 0.73386 0.1323 0.0
H556 H 0.48785 0.73917 0.12647 0.0
H557 H 0.43294 0.71194 0.83459 0.0
H558 H 0.36698 0.71309 0.90971 0.0
H559 H 0.38706 0.70952 0.98429 0.0
H560 H 0.4555 0.74886 0.90065 0.0
H561 H 0.47377 0.73329 0.85974 0.0
H562 H 0.48403 0.74205 0.91781 0.0
H563 H 0.46002 0.67405 0.90189 0.0
H564 H 0.48823 0.68531 0.91056 0.0
H565 H 0.47283 0.69181 0.85625 0.0
H566 H 0.55258 0.72022 0.91707 0.0
C567 C 0.51883 0.71586 0.94875 0.0
H568 H 0.19658 0.18445 0.15857 0.0
H569 H 0.15062 0.21245 0.0505 0.0
H570 H 0.11746 0.21016 0.10715 0.0
H571 H 0.15356 0.14335 0.20865 0.0
H572 H 0.16434 0.14714 0.26844 0.0
H573 H 0.18385 0.15008 0.21851 0.0
H574 H 0.19548 0.19125 0.24777 0.0
H575 H 0.17591 0.18858 0.29753 0.0
H576 H 0.17316 0.21286 0.25724 0.0
H577 H 0.09107 0.20948 0.17917 0.0
H578 H 0.07213 0.20673 0.25733 0.0
H579 H 0.13441 0.17405 0.31493 0.0
C580 C 0.17944 0.18985 0.14684 0.0
C581 C 0.17594 0.19879 0.10066 0.0
C582 C 0.15341 0.20552 0.08593 0.0
C583 C 0.13459 0.2043 0.1178 0.0
C584 C 0.13867 0.19572 0.16356 0.0
C585 C 0.16044 0.18813 0.17765 0.0
C586 C 0.16029 0.17968 0.22866 0.0
C587 C 0.16583 0.15351 0.23119 0.0
C588 C 0.17721 0.19395 0.25961 0.0
C589 C 0.1352 0.18451 0.24177 0.0
C590 C 0.12304 0.19384 0.20387 0.0
C591 C 0.1002 0.20156 0.20872 0.0
C592 C 0.0895 0.19971 0.25348 0.0
C593 C 0.10148 0.18983 0.29289 0.0
C594 C 0.12459 0.18187 0.28623 0.0
H595 H 0.25409 0.6426 0.6315 0.0
H596 H 0.19503 0.68972 0.62448 0.0
H597 H 0.17502 0.66671 0.68637 0.0
H598 H 0.22048 0.58879 0.65448 0.0
H599 H 0.24213 0.5776 0.69491 0.0
H600 H 0.25072 0.59621 0.64628 0.0
H601 H 0.27079 0.62429 0.70583 0.0
H602 H 0.26228 0.60583 0.75455 0.0
H603 H 0.25419 0.63616 0.75464 0.0
H604 H 0.16341 0.64155 0.75491 0.0
H605 H 0.16092 0.61553 0.82498 0.0
H606 H 0.22685 0.58411 0.78636 0.0
C607 C 0.23676 0.64786 0.64226 0.0
C608 C 0.22614 0.66799 0.62306 0.0
C609 C 0.20355 0.67439 0.63864 0.0
C610 C 0.19199 0.66138 0.67365 0.0
C611 C 0.20316 0.64191 0.69246 0.0
C612 C 0.22498 0.63507 0.67715 0.0
C613 C 0.23385 0.61445 0.70549 0.0
C614 C 0.23697 0.59299 0.67336 0.0
C615 C 0.25661 0.62056 0.73168 0.0
C616 C 0.21386 0.61113 0.74 0.0
C617 C 0.19625 0.62706 0.73162 0.0
C618 C 0.17684 0.6287 0.76123 0.0
C619 C 0.17555 0.61392 0.80084 0.0
C620 C 0.19349 0.59769 0.8102 0.0
C621 C 0.21265 0.59599 0.77899 0.0
H622 H 0.80455 0.82664 0.12509 0.0
H623 H 0.84948 0.79127 0.02436 0.0
H624 H 0.88239 0.79436 0.08156 0.0
H625 H 0.84975 0.86707 0.17146 0.0
H626 H 0.83788 0.866 0.23087 0.0
H627 H 0.81896 0.86268 0.18013 0.0
H628 H 0.80413 0.82351 0.21425 0.0
H629 H 0.82319 0.82648 0.26469 0.0
H630 H 0.82476 0.8008 0.22786 0.0
H631 H 0.908 0.79635 0.15441 0.0
H632 H 0.92591 0.80014 0.23341 0.0
H633 H 0.86511 0.83819 0.28325 0.0
C634 C 0.82148 0.81992 0.11491 0.0
C635 C 0.82474 0.80863 0.07085 0.0
C636 C 0.84692 0.80005 0.05813 0.0
C637 C 0.86557 0.80172 0.09033 0.0
C638 C 0.86166 0.81253 0.1342 0.0
C639 C 0.84026 0.82192 0.14603 0.0
C640 C 0.84028 0.83202 0.19578 0.0
C641 C 0.83651 0.85852 0.19446 0.0
C642 C 0.82201 0.81997 0.22749 0.0
C643 C 0.86478 0.82599 0.21105 0.0
C644 C 0.87684 0.8148 0.17508 0.0
C645 C 0.89901 0.80573 0.18235 0.0
C646 C 0.9091 0.80815 0.22751 0.0
C647 C 0.89718 0.81984 0.26491 0.0
C648 C 0.8748 0.8291 0.25592 0.0
H649 H 0.77287 0.37338 0.59145 0.0
H650 H 0.76191 0.30915 0.6697 0.0
H651 H 0.77534 0.32815 0.74337 0.0
H652 H 0.82646 0.38923 0.65503 0.0
H653 H 0.82029 0.42001 0.6545 0.0
H654 H 0.80949 0.40163 0.60737 0.0
H655 H 0.76751 0.41589 0.62438 0.0
H656 H 0.77816 0.43422 0.6717 0.0
H657 H 0.7557 0.41307 0.68362 0.0
H658 H 0.78616 0.35426 0.80883 0.0
H659 H 0.79855 0.38492 0.86308 0.0
H660 H 0.80857 0.43175 0.74272 0.0
C661 C 0.77345 0.36343 0.62418 0.0
C662 C 0.76642 0.33984 0.62514 0.0
C663 C 0.76745 0.32718 0.66831 0.0
C664 C 0.77493 0.33783 0.71033 0.0
C665 C 0.78177 0.36105 0.70842 0.0
C666 C 0.78156 0.37367 0.66653 0.0
C667 C 0.79062 0.39821 0.67482 0.0
C668 C 0.81305 0.40252 0.64623 0.0
C669 C 0.77188 0.41642 0.66292 0.0
C670 C 0.79549 0.39739 0.72801 0.0
C671 C 0.78995 0.37582 0.74641 0.0
C672 C 0.7913 0.37104 0.79477 0.0
C673 C 0.79877 0.38869 0.82536 0.0
C674 C 0.8056 0.41088 0.8077 0.0
C675 C 0.80377 0.41514 0.75799 0.0
H676 H 0.69344 0.3366 0.35097 0.0
H677 H 0.66722 0.27799 0.43201 0.0
H678 H 0.63388 0.27446 0.37681 0.0
H679 H 0.636 0.36092 0.31317 0.0
H680 H 0.64657 0.36801 0.25448 0.0
H681 H 0.6662 0.36846 0.30458 0.0
H682 H 0.69353 0.33968 0.26068 0.0
H683 H 0.67395 0.33897 0.21069 0.0
H684 H 0.68209 0.31224 0.23989 0.0
H685 H 0.60568 0.27492 0.30988 0.0
H686 H 0.58501 0.27821 0.23323 0.0
H687 H 0.63023 0.33546 0.19261 0.0
C688 C 0.68021 0.32356 0.35771 0.0
C689 C 0.68243 0.30782 0.39598 0.0
C690 C 0.66547 0.29033 0.40303 0.0
C691 C 0.64651 0.28824 0.372 0.0
C692 C 0.64499 0.30364 0.33382 0.0
C693 C 0.66138 0.32094 0.32638 0.0
C694 C 0.65699 0.33349 0.27974 0.0
C695 C 0.65108 0.35925 0.28854 0.0
C696 C 0.67788 0.33093 0.24576 0.0
C697 C 0.63595 0.32018 0.26172 0.0
C698 C 0.6291 0.30333 0.29392 0.0
C699 C 0.61067 0.28824 0.28461 0.0
C700 C 0.59899 0.29029 0.24104 0.0
C701 C 0.60592 0.30715 0.20707 0.0
C702 C 0.62456 0.32238 0.21786 0.0
H703 H 0.25311 0.17649 0.83251 0.0
H704 H 0.2846 0.14495 0.9571 0.0
H705 H 0.30076 0.1135 0.90683 0.0
H706 H 0.23467 0.12417 0.78156 0.0
H707 H 0.2398 0.13275 0.72071 0.0
H708 H 0.23342 0.15448 0.76504 0.0
H709 H 0.27164 0.17626 0.74421 0.0
H710 H 0.27804 0.15469 0.69942 0.0
H711 H 0.29894 0.16077 0.74567 0.0
H712 H 0.31103 0.08397 0.84394 0.0
H713 H 0.31496 0.05883 0.77287 0.0
H714 H 0.27456 0.10859 0.69084 0.0
C715 C 0.26401 0.16335 0.84887 0.0
C716 C 0.26795 0.16327 0.89846 0.0
C717 C 0.2816 0.14536 0.91902 0.0
C718 C 0.29083 0.12745 0.89079 0.0
C719 C 0.28608 0.12763 0.84215 0.0
C720 C 0.27303 0.14513 0.82132 0.0
C721 C 0.26882 0.14022 0.76906 0.0
C722 C 0.24263 0.13776 0.7585 0.0
C723 C 0.28004 0.15911 0.73774 0.0
C724 C 0.28135 0.11715 0.76391 0.0
C725 C 0.29135 0.11026 0.80631 0.0
C726 C 0.30336 0.08925 0.81043 0.0
C727 C 0.30533 0.07498 0.76999 0.0
C728 C 0.29519 0.08172 0.72611 0.0
C729 C 0.28297 0.10309 0.72345 0.0
H730 H 0.31699 0.67482 0.37956 0.0
H731 H 0.33318 0.73865 0.45493 0.0
H732 H 0.36944 0.74283 0.40795 0.0
H733 H 0.3776 0.65402 0.35995 0.0
H734 H 0.37118 0.64396 0.30056 0.0
H735 H 0.34876 0.64379 0.34554 0.0
H736 H 0.32228 0.66864 0.29079 0.0
H737 H 0.34459 0.66896 0.2458 0.0
H738 H 0.33296 0.69601 0.26812 0.0
H739 H 0.40212 0.74156 0.34953 0.0
H740 H 0.42721 0.73708 0.27856 0.0
H741 H 0.38815 0.67574 0.23681 0.0
C742 C 0.32862 0.68924 0.38692 0.0
C743 C 0.32285 0.70617 0.42127 0.0
C744 C 0.33772 0.7254 0.42903 0.0
C745 C 0.3583 0.72784 0.40272 0.0
C746 C 0.36344 0.71106 0.3684 0.0
C747 C 0.34893 0.69224 0.36008 0.0
C748 C 0.3569 0.67837 0.31718 0.0
C749 C 0.36404 0.65356 0.33169 0.0
C750 C 0.33807 0.67799 0.27818 0.0
C751 C 0.37783 0.6926 0.30211 0.0
C752 C 0.38161 0.71105 0.33281 0.0
C753 C 0.39948 0.72707 0.32547 0.0
C754 C 0.41366 0.72437 0.28524 0.0
C755 C 0.40958 0.70605 0.25256 0.0
C756 C 0.39161 0.68985 0.26144 0.0
H757 H 0.75219 0.87526 0.88106 0.0
H758 H 0.69904 0.82189 0.87243 0.0
H759 H 0.67766 0.84532 0.81309 0.0
H760 H 0.71331 0.9274 0.85597 0.0
H761 H 0.73544 0.94091 0.81976 0.0
H762 H 0.74366 0.92287 0.86955 0.0
H763 H 0.76893 0.89745 0.81344 0.0
H764 H 0.76073 0.91526 0.76362 0.0
H765 H 0.75573 0.88428 0.76176 0.0
H766 H 0.66565 0.87058 0.7466 0.0
H767 H 0.6644 0.89542 0.67495 0.0
H768 H 0.72589 0.93223 0.72353 0.0
C769 C 0.73555 0.86909 0.86802 0.0
C770 C 0.7269 0.8471 0.8817 0.0
C771 C 0.70567 0.83889 0.86258 0.0
C772 C 0.69339 0.85212 0.82911 0.0
C773 C 0.7027 0.87343 0.81496 0.0
C774 C 0.72329 0.88194 0.83379 0.0
C775 C 0.7313 0.90352 0.8073 0.0
C776 C 0.73089 0.92494 0.84011 0.0
C777 C 0.75559 0.89989 0.78522 0.0
C778 C 0.7126 0.90515 0.76936 0.0
C779 C 0.69599 0.88793 0.77519 0.0
C780 C 0.67824 0.88443 0.74216 0.0
C781 C 0.67773 0.89852 0.70151 0.0
C782 C 0.69495 0.91577 0.69409 0.0
C783 C 0.71221 0.91952 0.72907 0.0
H784 H 0.81274 0.83225 0.83356 0.0
H785 H 0.82082 0.7614 0.88444 0.0
H786 H 0.85551 0.75649 0.83327 0.0
H787 H 0.82716 0.81905 0.71238 0.0
H788 H 0.84202 0.84622 0.70183 0.0
H789 H 0.81895 0.84478 0.74518 0.0
H790 H 0.84685 0.8611 0.8096 0.0
H791 H 0.87006 0.86247 0.76648 0.0
H792 H 0.87405 0.84646 0.82107 0.0
H793 H 0.88943 0.75938 0.77761 0.0
H794 H 0.91762 0.76819 0.7134 0.0
H795 H 0.88576 0.83595 0.69371 0.0
C796 C 0.82197 0.8158 0.83407 0.0
C797 C 0.81432 0.79723 0.86304 0.0
C798 C 0.82647 0.77578 0.86231 0.0
C799 C 0.84624 0.7729 0.83366 0.0
C800 C 0.85338 0.79151 0.80543 0.0
C801 C 0.84143 0.81242 0.80476 0.0
C802 C 0.85179 0.82902 0.76854 0.0
C803 C 0.83391 0.83511 0.72968 0.0
C804 C 0.86125 0.85106 0.79289 0.0
C805 C 0.87136 0.81414 0.74893 0.0
C806 C 0.87223 0.79274 0.77137 0.0
C807 C 0.88891 0.77605 0.75969 0.0
C808 C 0.90489 0.78122 0.72346 0.0
C809 C 0.90377 0.8027 0.69893 0.0
C810 C 0.8869 0.8194 0.71206 0.0
H811 H 0.76601 0.33235 0.33726 0.0
H812 H 0.78124 0.37407 0.46243 0.0
H813 H 0.80082 0.40327 0.41166 0.0
H814 H 0.81949 0.34448 0.27266 0.0
H815 H 0.805 0.34572 0.21579 0.0
H816 H 0.79353 0.32753 0.2625 0.0
H817 H 0.75363 0.34846 0.25586 0.0
H818 H 0.76499 0.36672 0.20922 0.0
H819 H 0.75236 0.3797 0.26168 0.0
H820 H 0.81753 0.42877 0.34606 0.0
H821 H 0.82988 0.44809 0.27134 0.0
H822 H 0.8022 0.38994 0.19026 0.0
C823 C 0.77375 0.34744 0.35415 0.0
C824 C 0.77218 0.35086 0.40384 0.0
C825 C 0.78223 0.37107 0.42439 0.0
C826 C 0.79342 0.38774 0.39587 0.0
C827 C 0.79436 0.38399 0.34688 0.0
C828 C 0.78478 0.36431 0.32624 0.0
C829 C 0.78716 0.36484 0.27263 0.0
C830 C 0.80219 0.34443 0.25487 0.0
C831 C 0.76311 0.36494 0.24845 0.0
C832 C 0.79954 0.38788 0.26627 0.0
C833 C 0.80364 0.39869 0.3094 0.0
C834 C 0.81448 0.42041 0.31207 0.0
C835 C 0.82132 0.43132 0.26947 0.0
C836 C 0.81726 0.42047 0.2249 0.0
C837 C 0.80613 0.3985 0.22368 0.0
H838 H 0.18487 0.17558 0.85542 0.0
H839 H 0.1676 0.2407 0.92526 0.0
H840 H 0.13192 0.24386 0.87651 0.0
H841 H 0.16817 0.19428 0.7401 0.0
H842 H 0.15688 0.16646 0.72132 0.0
H843 H 0.1796 0.16778 0.76539 0.0
H844 H 0.15408 0.14389 0.82373 0.0
H845 H 0.13125 0.14248 0.77979 0.0
H846 H 0.12521 0.15398 0.83826 0.0
H847 H 0.09898 0.24067 0.8193 0.0
H848 H 0.07248 0.23324 0.75168 0.0
H849 H 0.11225 0.17159 0.71466 0.0
C850 C 0.17329 0.19023 0.86085 0.0
C851 C 0.17867 0.20778 0.89428 0.0
C852 C 0.1636 0.22709 0.89978 0.0
C853 C 0.14329 0.22896 0.8725 0.0
C854 C 0.13853 0.21153 0.8394 0.0
C855 C 0.15318 0.19266 0.833 0.0
C856 C 0.14503 0.17752 0.79201 0.0
C857 C 0.16352 0.17646 0.75237 0.0
C858 C 0.1385 0.15301 0.80951 0.0
C859 C 0.12367 0.19097 0.77619 0.0
C860 C 0.12003 0.21029 0.80461 0.0
C861 C 0.10157 0.22555 0.79686 0.0
C862 C 0.08656 0.22115 0.75857 0.0
C863 C 0.09032 0.20184 0.72818 0.0
C864 C 0.10903 0.18649 0.73739 0.0
H865 H 0.22623 0.67247 0.35936 0.0
H866 H 0.25375 0.62489 0.46553 0.0
H867 H 0.24256 0.59155 0.41529 0.0
H868 H 0.17627 0.6358 0.32612 0.0
H869 H 0.17788 0.64382 0.26414 0.0
H870 H 0.18723 0.66405 0.30935 0.0
H871 H 0.22756 0.66726 0.26835 0.0
H872 H 0.21838 0.64696 0.22322 0.0
H873 H 0.24426 0.6412 0.25756 0.0
H874 H 0.23211 0.56371 0.35061 0.0
H875 H 0.2204 0.54281 0.27824 0.0
H876 H 0.19571 0.60792 0.21713 0.0
C877 C 0.22972 0.65502 0.37215 0.0
C878 C 0.24093 0.6513 0.41628 0.0
C879 C 0.24511 0.6282 0.43194 0.0
C880 C 0.23885 0.60912 0.40363 0.0
C881 C 0.22807 0.61339 0.36013 0.0
C882 C 0.22321 0.63571 0.3447 0.0
C883 C 0.21157 0.63538 0.29627 0.0
C884 C 0.18676 0.64535 0.29916 0.0
C885 C 0.22633 0.64847 0.25917 0.0
C886 C 0.21124 0.60942 0.28647 0.0
C887 C 0.22091 0.5971 0.32371 0.0
C888 C 0.22397 0.57308 0.32163 0.0
C889 C 0.21702 0.56132 0.2803 0.0
C890 C 0.20673 0.57347 0.24161 0.0
C891 C 0.20363 0.5979 0.24542 0.0
H892 H 0.29218 0.69866 0.68306 0.0
H893 H 0.33522 0.73238 0.5767 0.0
H894 H 0.36677 0.73715 0.63628 0.0
H895 H 0.3105 0.7317 0.78563 0.0
H896 H 0.31073 0.70686 0.82485 0.0
H897 H 0.29115 0.70754 0.77477 0.0
H898 H 0.30803 0.66838 0.7445 0.0
H899 H 0.32766 0.66755 0.79448 0.0
H900 H 0.33895 0.66576 0.73468 0.0
H901 H 0.39264 0.73941 0.70828 0.0
H902 H 0.41291 0.73587 0.78497 0.0
H903 H 0.3547 0.69583 0.841 0.0
C904 C 0.30819 0.70729 0.67274 0.0
C905 C 0.31138 0.71559 0.62601 0.0
C906 C 0.33262 0.72618 0.61277 0.0
C907 C 0.35051 0.72896 0.64625 0.0
C908 C 0.34691 0.72053 0.69223 0.0
C909 C 0.32643 0.70959 0.70528 0.0
C910 C 0.32755 0.70073 0.75596 0.0
C911 C 0.30887 0.71242 0.78713 0.0
C912 C 0.32543 0.67402 0.75746 0.0
C913 C 0.35177 0.70868 0.76961 0.0
C914 C 0.36251 0.7203 0.73258 0.0
C915 C 0.38459 0.72999 0.73731 0.0
C916 C 0.39607 0.72764 0.78105 0.0
C917 C 0.38569 0.71524 0.81934 0.0
C918 C 0.36319 0.70563 0.81306 0.0
H919 H 0.76674 0.87026 0.09152 0.0
H920 H 0.70668 0.82445 0.09932 0.0
H921 H 0.68854 0.8507 0.15819 0.0
H922 H 0.76925 0.88263 0.21406 0.0
H923 H 0.77795 0.91262 0.20736 0.0
H924 H 0.78533 0.89168 0.16211 0.0
H925 H 0.76506 0.917 0.09827 0.0
H926 H 0.75762 0.93819 0.14317 0.0
H927 H 0.73513 0.92557 0.10657 0.0
H928 H 0.67799 0.88012 0.21944 0.0
H929 H 0.6764 0.91015 0.28234 0.0
H930 H 0.74324 0.93708 0.23614 0.0
C931 C 0.7496 0.86597 0.10502 0.0
C932 C 0.73805 0.84536 0.09062 0.0
C933 C 0.71586 0.84012 0.10986 0.0
C934 C 0.70535 0.85499 0.14311 0.0
C935 C 0.71726 0.87503 0.15684 0.0
C936 C 0.73892 0.88055 0.13859 0.0
C937 C 0.74866 0.9023 0.16195 0.0
C938 C 0.77165 0.89698 0.18793 0.0
C939 C 0.75179 0.92193 0.1253 0.0
C940 C 0.72925 0.90791 0.19677 0.0
C941 C 0.71121 0.89206 0.19275 0.0
C942 C 0.69187 0.89278 0.22262 0.0
C943 C 0.69113 0.90985 0.2582 0.0
C944 C 0.70961 0.92595 0.26372 0.0
C945 C 0.72869 0.92525 0.23198 0.0
H946 H 0.69462 0.31985 0.66329 0.0
H947 H 0.65716 0.29356 0.54058 0.0
H948 H 0.62124 0.29028 0.58931 0.0
H949 H 0.66756 0.2856 0.7522 0.0
H950 H 0.66615 0.30858 0.79587 0.0
H951 H 0.68874 0.30879 0.75137 0.0
H952 H 0.67612 0.35011 0.72468 0.0
H953 H 0.65359 0.35011 0.76936 0.0
H954 H 0.64626 0.35524 0.70783 0.0
H955 H 0.5908 0.2865 0.65392 0.0
H956 H 0.56664 0.28663 0.72615 0.0
H957 H 0.62268 0.32113 0.80318 0.0
C958 C 0.67877 0.3135 0.64684 0.0
C959 C 0.67844 0.30674 0.5986 0.0
C960 C 0.65752 0.29879 0.57766 0.0
C961 C 0.63716 0.29683 0.60503 0.0
C962 C 0.63802 0.30349 0.65278 0.0
C963 C 0.65816 0.31214 0.67321 0.0
C964 C 0.65428 0.31881 0.72474 0.0
C965 C 0.67012 0.30459 0.75799 0.0
C966 C 0.65776 0.34513 0.73206 0.0
C967 C 0.62898 0.31198 0.7305 0.0
C968 C 0.61998 0.30297 0.68881 0.0
C969 C 0.59747 0.29406 0.6865 0.0
C970 C 0.58376 0.29444 0.72788 0.0
C971 C 0.59239 0.30412 0.77101 0.0
C972 C 0.61533 0.31323 0.77161 0.0
H973 H 0.23938 0.14157 0.1182 0.0
H974 H 0.29794 0.18918 0.10944 0.0
H975 H 0.31879 0.16618 0.17017 0.0
H976 H 0.2404 0.13571 0.24112 0.0
H977 H 0.23239 0.10536 0.24229 0.0
H978 H 0.22344 0.12341 0.19329 0.0
H979 H 0.2431 0.09497 0.13392 0.0
H980 H 0.25212 0.07674 0.18281 0.0
H981 H 0.27342 0.08766 0.14128 0.0
H982 H 0.33139 0.14101 0.23732 0.0
H983 H 0.33465 0.11556 0.30796 0.0
H984 H 0.26804 0.08418 0.27382 0.0
C985 C 0.25683 0.1468 0.12819 0.0
C986 C 0.26713 0.16706 0.10894 0.0
C987 C 0.28975 0.1737 0.12376 0.0
C988 C 0.30177 0.16068 0.15801 0.0
C989 C 0.29094 0.14107 0.17703 0.0
C990 C 0.269 0.1341 0.16266 0.0
C991 C 0.2604 0.11367 0.19196 0.0
C992 C 0.23784 0.11992 0.21875 0.0
C993 C 0.25707 0.09197 0.16061 0.0
C994 C 0.2807 0.11065 0.22585 0.0
C995 C 0.29824 0.12647 0.2162 0.0
C996 C 0.31798 0.12828 0.24477 0.0
C997 C 0.31965 0.11385 0.2848 0.0
C998 C 0.3017 0.09784 0.29581 0.0
C999 C 0.28223 0.09591 0.26541 0.0
H1000 H 0.23184 0.29919 0.94814 0.0
H1001 H 0.1849 0.27674 0.06037 0.0
H1002 H 0.16771 0.31612 0.06314 0.0
H1003 H 0.24371 0.35435 0.99648 0.0
H1004 H 0.24506 0.3692 0.93999 0.0
H1005 H 0.25205 0.3387 0.94346 0.0
H1006 H 0.22091 0.32969 0.87924 0.0
H1007 H 0.21378 0.3602 0.87563 0.0
H1008 H 0.19131 0.33917 0.8883 0.0
H1009 H 0.15737 0.35837 0.05744 0.0
H1010 H 0.15543 0.40092 0.04546 0.0
H1011 H 0.20964 0.39613 0.93816 0.0
C1012 C 0.21769 0.30244 0.97277 0.0
C1013 C 0.20966 0.28486 0.00396 0.0
C1014 C 0.19136 0.28994 0.03621 0.0
C1015 C 0.18141 0.31222 0.03788 0.0
C1016 C 0.18993 0.32923 0.00708 0.0
C1017 C 0.20767 0.32463 0.97516 0.0
C1018 C 0.21471 0.34639 0.94825 0.0
C1019 C 0.2404 0.35252 0.95763 0.0
C1020 C 0.20988 0.34369 0.89467 0.0
C1021 C 0.19847 0.36405 0.97069 0.0
C1022 C 0.18415 0.35372 0.00416 0.0
C1023 C 0.16838 0.36663 0.0311 0.0
C1024 C 0.16749 0.39078 0.02422 0.0
C1025 C 0.18237 0.40183 0.99087 0.0
C1026 C 0.19777 0.38815 0.96328 0.0
H1027 H 0.1719 0.72979 0.5375 0.0
H1028 H 0.20567 0.75824 0.41224 0.0
H1029 H 0.17039 0.78123 0.39407 0.0
H1030 H 0.11488 0.72369 0.48087 0.0
H1031 H 0.09908 0.73064 0.53453 0.0
H1032 H 0.12725 0.71698 0.53826 0.0
H1033 H 0.14156 0.75059 0.59251 0.0
H1034 H 0.11355 0.76458 0.58821 0.0
H1035 H 0.13955 0.78023 0.5717 0.0
H1036 H 0.13323 0.80332 0.39341 0.0
H1037 H 0.09313 0.81778 0.40005 0.0
H1038 H 0.08114 0.77115 0.51962 0.0
C1039 C 0.17162 0.74069 0.50604 0.0
C1040 C 0.19125 0.74234 0.47604 0.0
C1041 C 0.19055 0.75668 0.43515 0.0
C1042 C 0.17075 0.76992 0.42488 0.0
C1043 C 0.15173 0.76822 0.45543 0.0
C1044 C 0.15169 0.75353 0.49442 0.0
C1045 C 0.12835 0.75402 0.51964 0.0
C1046 C 0.1167 0.7299 0.51821 0.0
C1047 C 0.13092 0.76288 0.57107 0.0
C1048 C 0.11542 0.77144 0.48893 0.0
C1049 C 0.12945 0.77974 0.45278 0.0
C1050 C 0.12184 0.79657 0.42084 0.0
C1051 C 0.09892 0.80454 0.42478 0.0
C1052 C 0.08357 0.7952 0.45952 0.0
C1053 C 0.09225 0.77877 0.49267 0.0
H1054 H 0.79574 0.71789 0.04247 0.0
H1055 H 0.76115 0.71819 0.90457 0.0
H1056 H 0.76699 0.67628 0.89753 0.0
H1057 H 0.83945 0.67316 0.00838 0.0
H1058 H 0.83934 0.65953 0.06619 0.0
H1059 H 0.83336 0.69024 0.06084 0.0
H1060 H 0.7943 0.6844 0.10537 0.0
H1061 H 0.80003 0.65365 0.1104 0.0
H1062 H 0.77348 0.66361 0.08289 0.0
H1063 H 0.7718 0.63464 0.90777 0.0
H1064 H 0.78082 0.59453 0.92956 0.0
H1065 H 0.81675 0.61916 0.05652 0.0
C1066 C 0.7897 0.70914 0.01061 0.0
C1067 C 0.77767 0.72149 0.97446 0.0
C1068 C 0.77013 0.70932 0.93321 0.0
C1069 C 0.77335 0.68538 0.92868 0.0
C1070 C 0.78455 0.67366 0.96523 0.0
C1071 C 0.7931 0.68498 0.00499 0.0
C1072 C 0.80465 0.66764 0.03849 0.0
C1073 C 0.83075 0.67296 0.04378 0.0
C1074 C 0.79238 0.66731 0.08717 0.0
C1075 C 0.80069 0.64497 0.0115 0.0
C1076 C 0.78887 0.64907 0.96959 0.0
C1077 C 0.78173 0.63116 0.93973 0.0
C1078 C 0.78722 0.60832 0.95235 0.0
C1079 C 0.80033 0.60337 0.99398 0.0
C1080 C 0.80691 0.62212 0.02423 0.0
H1081 H 0.8237 0.27793 0.54522 0.0
H1082 H 0.78762 0.23611 0.44001 0.0
H1083 H 0.82266 0.21154 0.43003 0.0
H1084 H 0.87819 0.27848 0.48454 0.0
H1085 H 0.89565 0.27714 0.53782 0.0
H1086 H 0.86714 0.29015 0.53974 0.0
H1087 H 0.85532 0.26188 0.6075 0.0
H1088 H 0.88378 0.24869 0.60556 0.0
H1089 H 0.85813 0.23091 0.59854 0.0
H1090 H 0.8615 0.1925 0.42942 0.0
H1091 H 0.90294 0.18151 0.43389 0.0
H1092 H 0.91487 0.23678 0.53668 0.0
C1093 C 0.82329 0.26345 0.52049 0.0
C1094 C 0.80321 0.25869 0.49334 0.0
C1095 C 0.80305 0.23988 0.46086 0.0
C1096 C 0.82275 0.22582 0.4552 0.0
C1097 C 0.84245 0.23096 0.48216 0.0
C1098 C 0.84299 0.2494 0.5139 0.0
C1099 C 0.86694 0.25201 0.53597 0.0
C1100 C 0.87761 0.27586 0.52377 0.0
C1101 C 0.86597 0.24814 0.59011 0.0
C1102 C 0.87978 0.23236 0.5112 0.0
C1103 C 0.86521 0.22028 0.48083 0.0
C1104 C 0.87312 0.20181 0.45307 0.0
C1105 C 0.89671 0.19579 0.45566 0.0
C1106 C 0.91218 0.20835 0.48542 0.0
C1107 C 0.90343 0.22663 0.51411 0.0
H1108 H 0.74235 0.21214 0.45103 0.0
H1109 H 0.68803 0.23388 0.54895 0.0
H1110 H 0.67398 0.19332 0.55397 0.0
H1111 H 0.70882 0.16565 0.38979 0.0
H1112 H 0.73373 0.14663 0.38605 0.0
H1113 H 0.73769 0.17777 0.38513 0.0
H1114 H 0.7659 0.17477 0.45684 0.0
H1115 H 0.762 0.14369 0.45808 0.0
H1116 H 0.75624 0.16071 0.51075 0.0
H1117 H 0.66788 0.15051 0.55398 0.0
H1118 H 0.67063 0.10769 0.55079 0.0
H1119 H 0.72953 0.11303 0.45454 0.0
C1120 C 0.72714 0.20842 0.47256 0.0
C1121 C 0.71612 0.22614 0.49932 0.0
C1122 C 0.69667 0.22054 0.52812 0.0
C1123 C 0.68851 0.19759 0.53102 0.0
C1124 C 0.70004 0.18044 0.505 0.0
C1125 C 0.71893 0.18551 0.4763 0.0
C1126 C 0.7294 0.1635 0.45542 0.0
C1127 C 0.72727 0.16339 0.40085 0.0
C1128 C 0.75489 0.1605 0.47124 0.0
C1129 C 0.71376 0.14523 0.47775 0.0
C1130 C 0.69677 0.15547 0.50571 0.0
C1131 C 0.68097 0.14229 0.53191 0.0
C1132 C 0.68276 0.118 0.53009 0.0
C1133 C 0.70032 0.10707 0.50254 0.0
C1134 C 0.71574 0.12092 0.47536 0.0
H1135 H 0.31925 0.22972 0.95604 0.0
H1136 H 0.28819 0.27747 0.05798 0.0
H1137 H 0.32582 0.29718 0.06777 0.0
H1138 H 0.37266 0.22305 0.01778 0.0
H1139 H 0.39069 0.22182 0.96526 0.0
H1140 H 0.36079 0.21247 0.9624 0.0
H1141 H 0.35318 0.24151 0.89358 0.0
H1142 H 0.38309 0.25098 0.89625 0.0
H1143 H 0.35987 0.27193 0.90182 0.0
H1144 H 0.36647 0.31045 0.07089 0.0
H1145 H 0.409 0.31607 0.06834 0.0
H1146 H 0.41505 0.25986 0.96563 0.0
C1147 C 0.32037 0.24454 0.97982 0.0
C1148 C 0.30076 0.25206 0.00618 0.0
C1149 C 0.30296 0.27128 0.03757 0.0
C1150 C 0.32425 0.28272 0.04322 0.0
C1151 C 0.34328 0.27476 0.01735 0.0
C1152 C 0.34168 0.25612 0.98631 0.0
C1153 C 0.36535 0.25036 0.96526 0.0
C1154 C 0.37281 0.22545 0.97848 0.0
C1155 C 0.36537 0.25391 0.911 0.0
C1156 C 0.38042 0.26842 0.99002 0.0
C1157 C 0.36718 0.2824 0.01954 0.0
C1158 C 0.37706 0.29973 0.04772 0.0
C1159 C 0.40122 0.3027 0.04623 0.0
C1160 C 0.41526 0.28838 0.01692 0.0
C1161 C 0.40466 0.27124 0.9879 0.0
H1162 H 0.25778 0.80048 0.55693 0.0
H1163 H 0.29455 0.77583 0.43178 0.0
H1164 H 0.30871 0.81573 0.41609 0.0
H1165 H 0.23765 0.85236 0.50371 0.0
H1166 H 0.2401 0.87007 0.5565 0.0
H1167 H 0.2353 0.8392 0.5618 0.0
H1168 H 0.27214 0.83552 0.61452 0.0
H1169 H 0.27705 0.86643 0.6094 0.0
H1170 H 0.29964 0.84624 0.5926 0.0
H1171 H 0.31743 0.85798 0.4117 0.0
H1172 H 0.31817 0.90077 0.4152 0.0
H1173 H 0.27321 0.89914 0.53966 0.0
C1174 C 0.26923 0.80353 0.52691 0.0
C1175 C 0.27539 0.7852 0.49579 0.0
C1176 C 0.28979 0.78975 0.456 0.0
C1177 C 0.29798 0.81228 0.44698 0.0
C1178 C 0.29134 0.83011 0.47778 0.0
C1179 C 0.27716 0.8261 0.51675 0.0
C1180 C 0.27091 0.84878 0.54144 0.0
C1181 C 0.24442 0.85284 0.5408 0.0
C1182 C 0.28051 0.84927 0.59252 0.0
C1183 C 0.28352 0.86611 0.50985 0.0
C1184 C 0.29548 0.85486 0.47387 0.0
C1185 C 0.30809 0.86702 0.43963 0.0
C1186 C 0.30821 0.89137 0.4417 0.0
C1187 C 0.29549 0.90345 0.4773 0.0
C1188 C 0.28328 0.89051 0.51224 0.0
H1189 H 0.6765 0.78235 0.93862 0.0
H1190 H 0.70531 0.74034 0.0531 0.0
H1191 H 0.66765 0.72085 0.06321 0.0
H1192 H 0.62044 0.79063 0.99354 0.0
H1193 H 0.60443 0.78906 0.93842 0.0
H1194 H 0.63405 0.79937 0.93849 0.0
H1195 H 0.64498 0.76796 0.87606 0.0
H1196 H 0.61541 0.75743 0.87609 0.0
H1197 H 0.63907 0.73774 0.88861 0.0
H1198 H 0.62766 0.70561 0.06157 0.0
H1199 H 0.5858 0.69746 0.05217 0.0
H1200 H 0.58158 0.75002 0.9413 0.0
C1201 C 0.67485 0.76902 0.96568 0.0
C1202 C 0.69391 0.76286 0.99492 0.0
C1203 C 0.691 0.74546 0.03029 0.0
C1204 C 0.66969 0.73415 0.03622 0.0
C1205 C 0.65134 0.74047 0.00677 0.0
C1206 C 0.65351 0.75762 0.97252 0.0
C1207 C 0.63055 0.7616 0.94712 0.0
C1208 C 0.62186 0.78665 0.95488 0.0
C1209 C 0.63264 0.75583 0.89381 0.0
C1210 C 0.61527 0.74406 0.97271 0.0
C1211 C 0.62776 0.73195 0.00662 0.0
C1212 C 0.61759 0.71501 0.0353 0.0
C1213 C 0.59381 0.7106 0.02985 0.0
C1214 C 0.58042 0.72322 0.99629 0.0
C1215 C 0.59142 0.73993 0.96689 0.0
loop_
_geom_bond_atom_site_label_1
_geom_bond_atom_site_label_2
_geom_bond_distance
_geom_bond_site_symmetry_2
_ccdc_geom_bond_type
Fe0 O2 1.918 . S
Fe0 O5 1.997 . S
Fe0 O6 2.002 . S
Fe0 O11 1.976 . S
Fe0 O14 1.996 . S
Fe1 O2 1.918 1_556 S
Fe1 O9 1.997 . S
Fe1 O12 1.996 . S
Fe1 O16 1.976 . S
Fe1 O19 2.002 . S
O2 Fe0 1.918 . S
O2 Fe1 1.918 1_554 S
O2 Fe3 1.918 1_554 S
Fe3 O2 1.918 1_556 S
Fe3 O4 1.997 1_556 S
Fe3 O13 1.971 1_556 S
Fe3 O17 2.001 . S
Fe3 O20 2.002 . S
O4 Fe3 1.997 1_554 S
O4 C21 1.295 . S
O5 Fe0 1.997 . S
O5 C21 1.235 . S
O6 Fe0 2.002 . S
O6 C7 1.295 . S
C7 O6 1.295 . S
C7 O9 1.235 1_554 S
C8 O13 1.287 . S
C8 O14 1.255 . S
O9 Fe1 1.997 . S
O9 C7 1.235 1_556 S
C10 O16 1.287 . S
C10 O17 1.255 . S
O11 Fe0 1.976 . S
O11 C18 1.287 1_554 S
O12 Fe1 1.996 . S
O12 C18 1.255 . S
O13 Fe3 1.971 1_554 S
O13 C8 1.287 . S
O14 Fe0 1.996 . S
O14 C8 1.255 . S
C15 O19 1.295 . S
C15 O20 1.235 . S
O16 Fe1 1.976 . S
O16 C10 1.287 . S
O17 Fe3 2.001 . S
O17 C10 1.255 . S
C18 O11 1.287 1_556 S
C18 O12 1.255 . S
O19 Fe1 2.002 . S
O19 C15 1.295 . S
O20 Fe3 2.002 . S
O20 C15 1.235 . S
C21 O4 1.295 . S
C21 O5 1.235 . S
Fe22 O24 1.918 . S
Fe22 O27 1.997 . S
Fe22 O28 2.002 . S
Fe22 O33 1.976 . S
Fe22 O36 1.996 . S
Fe23 O24 1.918 . S
Fe23 O31 1.997 . S
Fe23 O34 1.996 . S
Fe23 O38 1.976 . S
Fe23 O41 2.002 . S
O24 Fe22 1.918 . S
O24 Fe23 1.918 . S
O24 Fe25 1.918 . S
Fe25 O24 1.918 . S
Fe25 O26 2.002 . S
Fe25 O35 1.976 . S
Fe25 O39 1.996 . S
Fe25 O42 1.997 . S
O26 Fe25 2.002 . S
O26 C43 1.295 . S
O27 Fe22 1.997 . S
O27 C43 1.235 . S
O28 Fe22 2.002 . S
O28 C29 1.295 . S
C29 O28 1.295 . S
C29 O31 1.235 . S
C30 O35 1.287 . S
C30 O36 1.255 . S
O31 Fe23 1.997 . S
O31 C29 1.235 . S
C32 O38 1.287 . S
C32 O39 1.255 . S
O33 Fe22 1.976 . S
O33 C40 1.287 . S
O34 Fe23 1.996 . S
O34 C40 1.255 . S
O35 Fe25 1.976 . S
O35 C30 1.287 . S
O36 Fe22 1.996 . S
O36 C30 1.255 . S
C37 O41 1.295 . S
C37 O42 1.235 . S
O38 Fe23 1.976 . S
O38 C32 1.287 . S
O39 Fe25 1.996 . S
O39 C32 1.255 . S
C40 O33 1.287 . S
C40 O34 1.255 . S
O41 Fe23 2.002 . S
O41 C37 1.295 . S
O42 Fe25 1.997 . S
O42 C37 1.235 . S
C43 O26 1.295 . S
C43 O27 1.235 . S
Fe44 O46 1.918 1_556 S
Fe44 O49 1.997 . S
Fe44 O50 2.002 . S
Fe44 O55 1.976 . S
Fe44 O58 1.996 . S
Fe45 O46 1.918 . S
Fe45 O53 1.997 . S
Fe45 O56 1.996 . S
Fe45 O60 1.976 . S
Fe45 O63 2.002 . S
O46 Fe44 1.918 1_554 S
O46 Fe45 1.918 . S
O46 Fe47 1.918 . S
Fe47 O46 1.918 . S
Fe47 O48 1.994 1_554 S
Fe47 O57 1.967 1_554 S
Fe47 O61 2.005 . S
Fe47 O64 2.006 . S
O48 Fe47 1.994 1_556 S
O48 C65 1.295 . S
O49 Fe44 1.997 . S
O49 C65 1.235 . S
O50 Fe44 2.002 . S
O50 C51 1.295 . S
C51 O50 1.295 . S
C51 O53 1.235 1_556 S
C52 O57 1.287 . S
C52 O58 1.255 . S
O53 Fe45 1.997 . S
O53 C51 1.235 1_554 S
C54 O60 1.287 . S
C54 O61 1.255 . S
O55 Fe44 1.976 . S
O55 C62 1.287 1_556 S
O56 Fe45 1.996 . S
O56 C62 1.255 . S
O57 Fe47 1.967 1_556 S
O57 C52 1.287 . S
O58 Fe44 1.996 . S
O58 C52 1.255 . S
C59 O63 1.295 . S
C59 O64 1.235 . S
O60 Fe45 1.976 . S
O60 C54 1.287 . S
O61 Fe47 2.005 . S
O61 C54 1.255 . S
C62 O55 1.287 1_554 S
C62 O56 1.255 . S
O63 Fe45 2.002 . S
O63 C59 1.295 . S
O64 Fe47 2.006 . S
O64 C59 1.235 . S
C65 O48 1.295 . S
C65 O49 1.235 . S
Fe66 O68 1.918 . S
Fe66 O71 1.997 . S
Fe66 O72 2.002 . S
Fe66 O77 1.976 . S
Fe66 O80 1.996 . S
Fe67 O68 1.918 . S
Fe67 O75 1.997 . S
Fe67 O78 1.996 . S
Fe67 O82 1.976 . S
Fe67 O85 2.002 . S
O68 Fe66 1.918 . S
O68 Fe67 1.918 . S
O68 Fe69 1.918 . S
Fe69 O68 1.918 . S
Fe69 O70 2.002 . S
Fe69 O79 1.976 . S
Fe69 O83 1.996 . S
Fe69 O86 1.997 . S
O70 Fe69 2.002 . S
O70 C87 1.295 . S
O71 Fe66 1.997 . S
O71 C87 1.235 . S
O72 Fe66 2.002 . S
O72 C73 1.295 . S
C73 O72 1.295 . S
C73 O75 1.235 . S
C74 O79 1.287 . S
C74 O80 1.255 . S
O75 Fe67 1.997 . S
O75 C73 1.235 . S
C76 O82 1.287 . S
C76 O83 1.255 . S
O77 Fe66 1.976 . S
O77 C84 1.287 . S
O78 Fe67 1.996 . S
O78 C84 1.255 . S
O79 Fe69 1.976 . S
O79 C74 1.287 . S
O80 Fe66 1.996 . S
O80 C74 1.255 . S
C81 O85 1.295 . S
C81 O86 1.235 . S
O82 Fe67 1.976 . S
O82 C76 1.287 . S
O83 Fe69 1.996 . S
O83 C76 1.255 . S
C84 O77 1.287 . S
C84 O78 1.255 . S
O85 Fe67 2.002 . S
O85 C81 1.295 . S
O86 Fe69 1.997 . S
O86 C81 1.235 . S
C87 O70 1.295 . S
C87 O71 1.235 . S
C88 C89 1.391 . S
C88 C92 1.391 . S
C88 H130 0.948 . S
C89 C88 1.391 . S
C89 C90 1.391 . S
C90 C89 1.391 . S
C90 H146 0.947 . S
C90 C147 1.392 . S
C91 C92 1.391 . S
C91 C95 1.397 . S
C91 C147 1.419 . S
C92 C88 1.391 . S
C92 C91 1.391 . S
C92 C93 1.399 . S
C93 C92 1.399 . S
C93 C96 1.396 . S
C93 C105 1.453 . S
C93 C106 1.684 . S
H94 C118 0.948 . S
C95 C91 1.397 . S
C95 C96 1.394 . S
C95 C114 1.723 1_556 S
C96 C93 1.396 . S
C96 C95 1.394 . S
C96 C126 1.723 . S
H97 C120 0.947 . S
H98 C121 0.948 . S
H99 C127 0.982 . S
H100 C128 0.979 . S
H101 C128 0.980 . S
H102 C128 0.983 . S
H103 C127 0.979 . S
H104 C127 0.977 . S
C105 C93 1.453 . S
C105 H134 0.982 . S
C105 H135 0.979 . S
C105 H136 0.977 . S
C106 C93 1.684 . S
C106 H131 0.979 . S
C106 H132 0.980 . S
C106 H133 0.983 . S
C107 C108 1.391 . S
C107 C112 1.391 . S
C107 H137 0.948 . S
C108 C107 1.391 . S
C108 C109 1.391 . S
C109 C108 1.391 . S
C109 C110 1.392 . S
C109 H138 0.947 . S
C110 C109 1.392 . S
C110 C111 1.419 . S
C110 H139 0.948 . S
C111 C110 1.419 . S
C111 C112 1.391 . S
C111 C115 1.397 . S
C112 C107 1.391 . S
C112 C111 1.391 . S
C112 C113 1.399 . S
C113 C112 1.399 . S
C113 C114 1.396 . S
C113 C116 1.453 . S
C113 C117 1.684 . S
C114 C95 1.723 1_554 S
C114 C113 1.396 . S
C114 C115 1.394 . S
C115 C111 1.397 . S
C115 C114 1.394 . S
C115 C125 1.723 . S
C116 C113 1.453 . S
C116 H140 0.982 . S
C116 H141 0.979 . S
C116 H142 0.977 1_554 S
C117 C113 1.684 . S
C117 H143 0.979 . S
C117 H144 0.980 1_554 S
C117 H145 0.983 . S
C118 H94 0.948 . S
C118 C119 1.391 1_554 S
C118 C123 1.391 . S
C119 C118 1.391 1_556 S
C119 C120 1.391 . S
C120 H97 0.947 . S
C120 C119 1.391 . S
C120 C121 1.392 . S
C121 H98 0.948 . S
C121 C120 1.392 . S
C121 C122 1.419 . S
C122 C121 1.419 . S
C122 C123 1.391 1_556 S
C122 C126 1.397 . S
C123 C118 1.391 . S
C123 C122 1.391 1_554 S
C123 C124 1.399 . S
C124 C123 1.399 . S
C124 C125 1.396 . S
C124 C127 1.453 . S
C124 C128 1.684 . S
C125 C115 1.723 . S
C125 C124 1.396 . S
C125 C126 1.394 1_554 S
C126 C96 1.723 . S
C126 C122 1.397 . S
C126 C125 1.394 1_556 S
C127 H99 0.982 . S
C127 H103 0.979 . S
C127 H104 0.977 . S
C127 C124 1.453 . S
C128 H100 0.979 . S
C128 H101 0.980 . S
C128 H102 0.983 . S
C128 C124 1.684 . S
H129 C147 0.948 . S
H130 C88 0.948 . S
H131 C106 0.979 . S
H132 C106 0.980 . S
H133 C106 0.983 . S
H134 C105 0.982 . S
H135 C105 0.979 . S
H136 C105 0.977 . S
H137 C107 0.948 . S
H138 C109 0.947 . S
H139 C110 0.948 . S
H140 C116 0.982 . S
H141 C116 0.979 . S
H142 C116 0.977 1_556 S
H143 C117 0.979 . S
H144 C117 0.980 1_556 S
H145 C117 0.983 . S
H146 C90 0.947 . S
C147 C90 1.392 . S
C147 C91 1.419 . S
C147 H129 0.948 . S
C148 C149 1.391 . S
C148 C152 1.391 . S
C148 H190 0.948 . S
C149 C148 1.391 . S
C149 C150 1.391 . S
C150 C149 1.391 . S
C150 H206 0.947 . S
C150 C207 1.392 . S
C151 C152 1.391 . S
C151 C155 1.397 . S
C151 C207 1.419 . S
C152 C148 1.391 . S
C152 C151 1.391 . S
C152 C153 1.399 . S
C153 C152 1.399 . S
C153 C156 1.421 . S
C153 C165 1.453 . S
C153 C166 1.684 . S
H154 C178 0.948 . S
C155 C151 1.397 . S
C155 C156 1.399 . S
C155 C174 1.723 1_455 S
C156 C153 1.421 . S
C156 C155 1.399 . S
C156 C186 1.693 1_455 S
H157 C180 0.947 . S
H158 C181 0.948 . S
H159 C187 0.982 . S
H160 C188 0.979 . S
H161 C188 0.980 . S
H162 C188 0.983 . S
H163 C187 0.979 . S
H164 C187 0.977 . S
C165 C153 1.453 . S
C165 H194 0.982 . S
C165 H195 0.979 . S
C165 H196 0.977 . S
C166 C153 1.684 . S
C166 H191 0.979 . S
C166 H192 0.980 . S
C166 H193 0.983 . S
C167 C168 1.391 . S
C167 C172 1.391 . S
C167 H197 0.948 . S
C168 C167 1.391 . S
C168 C169 1.391 . S
C169 C168 1.391 . S
C169 C170 1.392 . S
C169 H198 0.947 . S
C170 C169 1.392 . S
C170 C171 1.419 . S
C170 H199 0.948 . S
C171 C170 1.419 . S
C171 C172 1.391 . S
C171 C175 1.397 . S
C172 C167 1.391 . S
C172 C171 1.391 . S
C172 C173 1.399 . S
C173 C172 1.399 . S
C173 C174 1.396 . S
C173 C176 1.453 1_655 S
C173 C177 1.684 . S
C174 C155 1.723 1_655 S
C174 C173 1.396 . S
C174 C175 1.394 . S
C175 C171 1.397 . S
C175 C174 1.394 . S
C175 C185 1.723 . S
C176 C173 1.453 1_455 S
C176 H200 0.982 . S
C176 H201 0.979 . S
C176 H202 0.977 . S
C177 C173 1.684 . S
C177 H203 0.979 . S
C177 H204 0.980 1_655 S
C177 H205 0.983 . S
C178 H154 0.948 . S
C178 C179 1.391 . S
C178 C183 1.391 . S
C179 C178 1.391 . S
C179 C180 1.391 . S
C180 H157 0.947 . S
C180 C179 1.391 . S
C180 C181 1.392 . S
C181 H158 0.948 . S
C181 C180 1.392 . S
C181 C182 1.419 . S
C182 C181 1.419 . S
C182 C183 1.391 . S
C182 C186 1.397 . S
C183 C178 1.391 . S
C183 C182 1.391 . S
C183 C184 1.399 . S
C184 C183 1.399 . S
C184 C185 1.396 . S
C184 C187 1.453 . S
C184 C188 1.684 . S
C185 C175 1.723 . S
C185 C184 1.396 . S
C185 C186 1.394 . S
C186 C156 1.693 1_655 S
C186 C182 1.397 . S
C186 C185 1.394 . S
C187 H159 0.982 . S
C187 H163 0.979 . S
C187 H164 0.977 . S
C187 C184 1.453 . S
C188 H160 0.979 . S
C188 H161 0.980 . S
C188 H162 0.983 . S
C188 C184 1.684 . S
H189 C207 0.948 . S
H190 C148 0.948 . S
H191 C166 0.979 . S
H192 C166 0.980 . S
H193 C166 0.983 . S
H194 C165 0.982 . S
H195 C165 0.979 . S
H196 C165 0.977 . S
H197 C167 0.948 . S
H198 C169 0.947 . S
H199 C170 0.948 . S
H200 C176 0.982 . S
H201 C176 0.979 . S
H202 C176 0.977 . S
H203 C177 0.979 . S
H204 C177 0.980 1_455 S
H205 C177 0.983 . S
H206 C150 0.947 . S
C207 C150 1.392 . S
C207 C151 1.419 . S
C207 H189 0.948 . S
C208 C209 1.391 . S
C208 C212 1.391 . S
C208 H250 0.948 . S
C209 C208 1.391 . S
C209 C210 1.391 . S
C210 C209 1.391 . S
C210 H266 0.947 . S
C210 C267 1.392 . S
C211 C212 1.391 . S
C211 C215 1.397 . S
C211 C267 1.419 . S
C212 C208 1.391 . S
C212 C211 1.391 . S
C212 C213 1.399 . S
C213 C212 1.399 . S
C213 C216 1.396 . S
C213 C225 1.453 . S
C213 C226 1.684 . S
H214 C238 0.948 . S
C215 C211 1.397 . S
C215 C216 1.394 . S
C215 C234 1.723 1_554 S
C216 C213 1.396 . S
C216 C215 1.394 . S
C216 C246 1.723 . S
H217 C240 0.947 . S
H218 C241 0.948 . S
H219 C247 0.982 . S
H220 C248 0.979 . S
H221 C248 0.980 . S
H222 C248 0.983 . S
H223 C247 0.979 . S
H224 C247 0.977 . S
C225 C213 1.453 . S
C225 H254 0.982 . S
C225 H255 0.979 . S
C225 H256 0.977 . S
C226 C213 1.684 . S
C226 H251 0.979 . S
C226 H252 0.980 . S
C226 H253 0.983 . S
C227 C228 1.391 . S
C227 C232 1.391 . S
C227 H257 0.948 . S
C228 C227 1.391 . S
C228 C229 1.391 . S
C229 C228 1.391 . S
C229 C230 1.392 . S
C229 H258 0.947 . S
C230 C229 1.392 . S
C230 C231 1.419 . S
C230 H259 0.948 . S
C231 C230 1.419 . S
C231 C232 1.391 . S
C231 C235 1.397 . S
C232 C227 1.391 . S
C232 C231 1.391 . S
C232 C233 1.399 . S
C233 C232 1.399 . S
C233 C234 1.396 . S
C233 C236 1.453 . S
C233 C237 1.684 . S
C234 C215 1.723 1_556 S
C234 C233 1.396 . S
C234 C235 1.394 . S
C235 C231 1.397 . S
C235 C234 1.394 . S
C235 C245 1.723 . S
C236 C233 1.453 . S
C236 H260 0.982 . S
C236 H261 0.979 . S
C236 H262 0.977 1_556 S
C237 C233 1.684 . S
C237 H263 0.979 . S
C237 H264 0.980 1_556 S
C237 H265 0.983 . S
C238 H214 0.948 . S
C238 C239 1.391 1_556 S
C238 C243 1.391 . S
C239 C238 1.391 1_554 S
C239 C240 1.391 . S
C240 H217 0.947 . S
C240 C239 1.391 . S
C240 C241 1.392 . S
C241 H218 0.948 . S
C241 C240 1.392 . S
C241 C242 1.419 . S
C242 C241 1.419 . S
C242 C243 1.391 1_554 S
C242 C246 1.397 . S
C243 C238 1.391 . S
C243 C242 1.391 1_556 S
C243 C244 1.399 . S
C244 C243 1.399 . S
C244 C245 1.396 . S
C244 C247 1.453 . S
C244 C248 1.684 . S
C245 C235 1.723 . S
C245 C244 1.396 . S
C245 C246 1.394 1_556 S
C246 C216 1.723 . S
C246 C242 1.397 . S
C246 C245 1.394 1_554 S
C247 H219 0.982 . S
C247 H223 0.979 . S
C247 H224 0.977 . S
C247 C244 1.453 . S
C248 H220 0.979 . S
C248 H221 0.980 . S
C248 H222 0.983 . S
C248 C244 1.684 . S
H249 C267 0.948 . S
H250 C208 0.948 . S
H251 C226 0.979 . S
H252 C226 0.980 . S
H253 C226 0.983 . S
H254 C225 0.982 . S
H255 C225 0.979 . S
H256 C225 0.977 . S
H257 C227 0.948 . S
H258 C229 0.947 . S
H259 C230 0.948 . S
H260 C236 0.982 . S
H261 C236 0.979 . S
H262 C236 0.977 1_554 S
H263 C237 0.979 . S
H264 C237 0.980 1_554 S
H265 C237 0.983 . S
H266 C210 0.947 . S
C267 C210 1.392 . S
C267 C211 1.419 . S
C267 H249 0.948 . S
C268 C269 1.391 . S
C268 C272 1.391 . S
C268 H310 0.948 . S
C269 C268 1.391 . S
C269 C270 1.391 . S
C270 C269 1.391 . S
C270 H326 0.947 . S
C270 C327 1.392 . S
C271 C272 1.391 . S
C271 C275 1.397 . S
C271 C327 1.419 . S
C272 C268 1.391 . S
C272 C271 1.391 . S
C272 C273 1.399 . S
C273 C272 1.399 . S
C273 C276 1.396 . S
C273 C285 1.453 1_455 S
C273 C286 1.684 . S
H274 C298 0.948 . S
C275 C271 1.397 . S
C275 C276 1.394 . S
C275 C294 1.723 . S
C276 C273 1.396 . S
C276 C275 1.394 . S
C276 C306 1.723 1_455 S
H277 C300 0.947 . S
H278 C301 0.948 . S
H279 C307 0.982 . S
H280 C308 0.979 . S
H281 C308 0.980 . S
H282 C308 0.983 . S
H283 C307 0.979 . S
H284 C307 0.977 . S
C285 C273 1.453 1_655 S
C285 H314 0.980 1_655 S
C285 H315 0.979 . S
C285 H316 0.977 . S
C286 C273 1.684 . S
C286 H311 0.979 . S
C286 H312 0.980 1_455 S
C286 H313 0.983 . S
C287 C288 1.391 . S
C287 C292 1.391 . S
C287 H317 0.948 . S
C288 C287 1.391 . S
C288 C289 1.391 . S
C289 C288 1.391 . S
C289 C290 1.392 . S
C289 H318 0.947 . S
C290 C289 1.392 . S
C290 C291 1.419 . S
C290 H319 0.948 . S
C291 C290 1.419 . S
C291 C292 1.391 . S
C291 C295 1.397 . S
C292 C287 1.391 . S
C292 C291 1.391 . S
C292 C293 1.399 . S
C293 C292 1.399 . S
C293 C294 1.396 . S
C293 C296 1.453 . S
C293 C297 1.684 . S
C294 C275 1.723 . S
C294 C293 1.396 . S
C294 C295 1.394 . S
C295 C291 1.397 . S
C295 C294 1.394 . S
C295 C305 1.715 1_455 S
C296 C293 1.453 . S
C296 H320 0.982 . S
C296 H321 0.979 . S
C296 H322 0.977 . S
C297 C293 1.684 . S
C297 H323 0.979 . S
C297 H324 0.980 . S
C297 H325 0.983 . S
C298 H274 0.948 . S
C298 C299 1.391 . S
C298 C303 1.391 . S
C299 C298 1.391 . S
C299 C300 1.391 . S
C300 H277 0.947 . S
C300 C299 1.391 . S
C300 C301 1.392 . S
C301 H278 0.948 . S
C301 C300 1.392 . S
C301 C302 1.419 . S
C302 C301 1.419 . S
C302 C303 1.391 . S
C302 C306 1.397 . S
C303 C298 1.391 . S
C303 C302 1.391 . S
C303 C304 1.399 . S
C304 C303 1.399 . S
C304 C305 1.403 . S
C304 C307 1.453 . S
C304 C308 1.684 . S
C305 C295 1.715 1_655 S
C305 C304 1.403 . S
C305 C306 1.396 . S
C306 C276 1.723 1_655 S
C306 C302 1.397 . S
C306 C305 1.396 . S
C307 H279 0.982 . S
C307 H283 0.979 . S
C307 H284 0.977 . S
C307 C304 1.453 . S
C308 H280 0.979 . S
C308 H281 0.980 . S
C308 H282 0.983 . S
C308 C304 1.684 . S
H309 C327 0.948 . S
H310 C268 0.948 . S
H311 C286 0.979 . S
H312 C286 0.980 1_655 S
H313 C286 0.983 . S
H314 C285 0.980 1_455 S
H315 C285 0.979 . S
H316 C285 0.977 . S
H317 C287 0.948 . S
H318 C289 0.947 . S
H319 C290 0.948 . S
H320 C296 0.982 . S
H321 C296 0.979 . S
H322 C296 0.977 . S
H323 C297 0.979 . S
H324 C297 0.980 . S
H325 C297 0.983 . S
H326 C270 0.947 . S
C327 C270 1.392 . S
C327 C271 1.419 . S
C327 H309 0.948 . S
C328 C329 1.391 . S
C328 C332 1.391 . S
C328 H370 0.948 . S
C329 C328 1.391 . S
C329 C330 1.391 . S
C330 C329 1.391 . S
C330 H386 0.947 . S
C330 C387 1.392 . S
C331 C332 1.391 . S
C331 C335 1.397 . S
C331 C387 1.419 . S
C332 C328 1.391 . S
C332 C331 1.391 . S
C332 C333 1.399 . S
C333 C332 1.399 . S
C333 C336 1.396 . S
C333 C345 1.453 1_565 S
C333 C346 1.684 1_565 S
H334 C358 0.948 . S
C335 C331 1.397 . S
C335 C336 1.394 . S
C335 C354 1.723 . S
C336 C333 1.396 . S
C336 C335 1.394 . S
C336 C366 1.723 1_565 S
H337 C360 0.947 . S
H338 C361 0.948 . S
H339 C367 0.982 . S
H340 C368 0.979 . S
H341 C368 0.980 . S
H342 C368 0.983 . S
H343 C367 0.979 . S
H344 C367 0.977 . S
C345 C333 1.453 1_545 S
C345 H374 0.982 . S
C345 H375 0.979 . S
C345 H376 0.977 . S
C346 C333 1.684 1_545 S
C346 H371 0.979 . S
C346 H372 0.980 . S
C346 H373 0.983 . S
C347 C348 1.391 . S
C347 C352 1.391 . S
C347 H377 0.948 . S
C348 C347 1.391 . S
C348 C349 1.391 . S
C349 C348 1.391 . S
C349 C350 1.392 . S
C349 H378 0.947 . S
C350 C349 1.392 . S
C350 C351 1.419 . S
C350 H379 0.915 1_565 S
C351 C350 1.419 . S
C351 C352 1.391 . S
C351 C355 1.397 . S
C352 C347 1.391 . S
C352 C351 1.391 . S
C352 C353 1.399 . S
C353 C352 1.399 . S
C353 C354 1.396 . S
C353 C356 1.453 . S
C353 C357 1.684 . S
C354 C335 1.723 . S
C354 C353 1.396 . S
C354 C355 1.394 . S
C355 C351 1.397 . S
C355 C354 1.394 . S
C355 C365 1.723 1_565 S
C356 C353 1.453 . S
C356 H380 0.982 . S
C356 H381 0.979 . S
C356 H382 0.977 . S
C357 C353 1.684 . S
C357 H383 0.979 . S
C357 H384 0.980 . S
C357 H385 0.983 . S
C358 H334 0.948 . S
C358 C359 1.391 . S
C358 C363 1.391 . S
C359 C358 1.391 . S
C359 C360 1.391 . S
C360 H337 0.947 . S
C360 C359 1.391 . S
C360 C361 1.392 . S
C361 H338 0.948 . S
C361 C360 1.392 . S
C361 C362 1.419 . S
C362 C361 1.419 . S
C362 C363 1.391 . S
C362 C366 1.397 . S
C363 C358 1.391 . S
C363 C362 1.391 . S
C363 C364 1.399 . S
C364 C363 1.399 . S
C364 C365 1.396 . S
C364 C367 1.453 . S
C364 C368 1.684 . S
C365 C355 1.723 1_545 S
C365 C364 1.396 . S
C365 C366 1.394 . S
C366 C336 1.723 1_545 S
C366 C362 1.397 . S
C366 C365 1.394 . S
C367 H339 0.982 . S
C367 H343 0.979 . S
C367 H344 0.977 . S
C367 C364 1.453 . S
C368 H340 0.979 . S
C368 H341 0.980 . S
C368 H342 0.983 . S
C368 C364 1.684 . S
H369 C387 0.948 . S
H370 C328 0.948 . S
H371 C346 0.979 . S
H372 C346 0.980 . S
H373 C346 0.983 . S
H374 C345 0.982 . S
H375 C345 0.979 . S
H376 C345 0.977 . S
H377 C347 0.948 . S
H378 C349 0.947 . S
H379 C350 0.915 1_545 S
H380 C356 0.982 . S
H381 C356 0.979 . S
H382 C356 0.977 . S
H383 C357 0.979 . S
H384 C357 0.980 . S
H385 C357 0.983 . S
H386 C330 0.947 . S
C387 C330 1.392 . S
C387 C331 1.419 . S
C387 H369 0.948 . S
C388 C389 1.391 . S
C388 C392 1.391 . S
C388 H430 0.948 . S
C389 C388 1.391 . S
C389 C390 1.391 . S
C390 C389 1.391 . S
C390 H446 0.947 . S
C390 C447 1.392 . S
C391 C392 1.391 . S
C391 C395 1.397 . S
C391 C447 1.419 . S
C392 C388 1.391 . S
C392 C391 1.391 . S
C392 C393 1.399 . S
C393 C392 1.399 . S
C393 C396 1.396 . S
C393 C405 1.453 . S
C393 C406 1.684 . S
H394 C418 0.948 . S
C395 C391 1.397 . S
C395 C396 1.394 . S
C395 C414 1.723 1_554 S
C396 C393 1.396 . S
C396 C395 1.394 . S
C396 C426 1.723 . S
H397 C420 0.947 . S
H398 C421 0.948 . S
H399 C427 0.982 . S
H400 C428 0.979 . S
H401 C428 0.980 . S
H402 C428 0.983 . S
H403 C427 0.979 . S
H404 C427 0.977 . S
C405 C393 1.453 . S
C405 H434 0.982 . S
C405 H435 0.979 . S
C405 H436 0.977 . S
C406 C393 1.684 . S
C406 H431 0.979 . S
C406 H432 0.980 . S
C406 H433 0.983 . S
C407 C408 1.391 . S
C407 C412 1.391 . S
C407 H437 0.948 . S
C408 C407 1.391 . S
C408 C409 1.391 . S
C409 C408 1.391 . S
C409 C410 1.392 . S
C409 H438 0.947 . S
C410 C409 1.392 . S
C410 C411 1.419 . S
C410 H439 0.948 . S
C411 C410 1.419 . S
C411 C412 1.391 . S
C411 C415 1.397 . S
C412 C407 1.391 . S
C412 C411 1.391 . S
C412 C413 1.399 . S
C413 C412 1.399 . S
C413 C414 1.396 . S
C413 C416 1.453 . S
C413 C417 1.684 . S
C414 C395 1.723 1_556 S
C414 C413 1.396 . S
C414 C415 1.394 . S
C415 C411 1.397 . S
C415 C414 1.394 . S
C415 C425 1.723 . S
C416 C413 1.453 . S
C416 H440 0.982 . S
C416 H441 0.979 . S
C416 H442 0.977 1_556 S
C417 C413 1.684 . S
C417 H443 0.979 . S
C417 H444 0.980 1_556 S
C417 H445 0.983 . S
C418 H394 0.948 . S
C418 C419 1.391 1_556 S
C418 C423 1.391 . S
C419 C418 1.391 1_554 S
C419 C420 1.391 . S
C420 H397 0.947 . S
C420 C419 1.391 . S
C420 C421 1.392 . S
C421 H398 0.948 . S
C421 C420 1.392 . S
C421 C422 1.419 . S
C422 C421 1.419 . S
C422 C423 1.391 1_554 S
C422 C426 1.397 . S
C423 C418 1.391 . S
C423 C422 1.391 1_556 S
C423 C424 1.399 . S
C424 C423 1.399 . S
C424 C425 1.396 . S
C424 C427 1.453 . S
C424 C428 1.684 . S
C425 C415 1.723 . S
C425 C424 1.396 . S
C425 C426 1.394 1_556 S
C426 C396 1.723 . S
C426 C422 1.397 . S
C426 C425 1.394 1_554 S
C427 H399 0.982 . S
C427 H403 0.979 . S
C427 H404 0.977 . S
C427 C424 1.453 . S
C428 H400 0.979 . S
C428 H401 0.980 . S
C428 H402 0.983 . S
C428 C424 1.684 . S
H429 C447 0.948 . S
H430 C388 0.948 . S
H431 C406 0.979 . S
H432 C406 0.980 . S
H433 C406 0.983 . S
H434 C405 0.982 . S
H435 C405 0.979 . S
H436 C405 0.977 . S
H437 C407 0.948 . S
H438 C409 0.947 . S
H439 C410 0.948 . S
H440 C416 0.982 . S
H441 C416 0.979 . S
H442 C416 0.977 1_554 S
H443 C417 0.979 . S
H444 C417 0.980 1_554 S
H445 C417 0.983 . S
H446 C390 0.947 . S
C447 C390 1.392 . S
C447 C391 1.419 . S
C447 H429 0.948 . S
C448 C449 1.391 . S
C448 C452 1.391 . S
C448 H490 0.948 . S
C449 C448 1.391 . S
C449 C450 1.391 . S
C450 C449 1.391 . S
C450 H506 0.947 . S
C450 C507 1.392 . S
C451 C452 1.391 . S
C451 C455 1.397 . S
C451 C507 1.419 . S
C452 C448 1.391 . S
C452 C451 1.391 . S
C452 C453 1.399 . S
C453 C452 1.399 . S
C453 C456 1.396 . S
C453 C465 1.453 1_545 S
C453 C466 1.684 1_545 S
H454 C478 0.948 . S
C455 C451 1.397 . S
C455 C456 1.394 . S
C455 C474 1.723 . S
C456 C453 1.396 . S
C456 C455 1.394 . S
C456 C486 1.723 1_545 S
H457 C480 0.947 . S
H458 C481 0.948 . S
H459 C487 0.982 . S
H460 C488 0.979 . S
H461 C488 0.980 . S
H462 C488 0.983 . S
H463 C487 0.979 . S
H464 C487 0.977 . S
C465 C453 1.453 1_565 S
C465 H494 0.982 1_565 S
C465 H495 0.979 . S
C465 H496 0.977 . S
C466 C453 1.684 1_565 S
C466 H491 0.979 . S
C466 H492 0.980 . S
C466 H493 0.983 . S
C467 C468 1.391 . S
C467 C472 1.391 . S
C467 H497 0.948 . S
C468 C467 1.391 . S
C468 C469 1.391 . S
C469 C468 1.391 . S
C469 C470 1.392 . S
C469 H498 0.947 . S
C470 C469 1.392 . S
C470 C471 1.419 . S
C470 H499 0.948 . S
C471 C470 1.419 . S
C471 C472 1.391 . S
C471 C475 1.397 . S
C472 C467 1.391 . S
C472 C471 1.391 . S
C472 C473 1.399 . S
C473 C472 1.399 . S
C473 C474 1.396 . S
C473 C476 1.453 . S
C473 C477 1.684 . S
C474 C455 1.723 . S
C474 C473 1.396 . S
C474 C475 1.394 . S
C475 C471 1.397 . S
C475 C474 1.394 . S
C475 C485 1.723 1_545 S
C476 C473 1.453 . S
C476 H500 0.982 . S
C476 H501 0.979 . S
C476 H502 0.977 . S
C477 C473 1.684 . S
C477 H503 0.979 . S
C477 H504 0.980 . S
C477 H505 0.983 . S
C478 H454 0.948 . S
C478 C479 1.391 . S
C478 C483 1.391 . S
C479 C478 1.391 . S
C479 C480 1.391 . S
C480 H457 0.947 . S
C480 C479 1.391 . S
C480 C481 1.392 . S
C481 H458 0.948 . S
C481 C480 1.392 . S
C481 C482 1.419 . S
C482 C481 1.419 . S
C482 C483 1.391 . S
C482 C486 1.397 . S
C483 C478 1.391 . S
C483 C482 1.391 . S
C483 C484 1.399 . S
C484 C483 1.399 . S
C484 C485 1.396 . S
C484 C487 1.453 . S
C484 C488 1.684 . S
C485 C475 1.723 1_565 S
C485 C484 1.396 . S
C485 C486 1.394 . S
C486 C456 1.723 1_565 S
C486 C482 1.397 . S
C486 C485 1.394 . S
C487 H459 0.982 . S
C487 H463 0.979 . S
C487 H464 0.977 . S
C487 C484 1.453 . S
C488 H460 0.979 . S
C488 H461 0.980 . S
C488 H462 0.983 . S
C488 C484 1.684 . S
H489 C507 0.948 . S
H490 C448 0.948 . S
H491 C466 0.979 . S
H492 C466 0.980 . S
H493 C466 0.983 . S
H494 C465 0.982 1_545 S
H495 C465 0.979 . S
H496 C465 0.977 . S
H497 C467 0.948 . S
H498 C469 0.947 . S
H499 C470 0.948 . S
H500 C476 0.982 . S
H501 C476 0.979 . S
H502 C476 0.977 . S
H503 C477 0.979 . S
H504 C477 0.980 . S
H505 C477 0.983 . S
H506 C450 0.947 . S
C507 C450 1.392 . S
C507 C451 1.419 . S
C507 H489 0.948 . S
C508 C509 1.391 1_554 S
C508 C512 1.391 . S
C508 H550 0.948 . S
C509 C508 1.391 1_556 S
C509 C510 1.391 . S
C510 C509 1.391 . S
C510 H566 0.947 . S
C510 C567 1.392 . S
C511 C512 1.391 1_556 S
C511 C515 1.397 . S
C511 C567 1.419 . S
C512 C508 1.391 . S
C512 C511 1.391 1_554 S
C512 C513 1.399 . S
C513 C512 1.399 . S
C513 C516 1.396 . S
C513 C525 1.453 . S
C513 C526 1.684 . S
H514 C538 0.948 . S
C515 C511 1.397 . S
C515 C516 1.394 1_556 S
C515 C534 1.723 . S
C516 C513 1.396 . S
C516 C515 1.394 1_554 S
C516 C546 1.723 . S
H517 C540 0.947 . S
H518 C541 0.948 . S
H519 C547 0.982 . S
H520 C548 0.979 . S
H521 C548 0.980 1_556 S
H522 C548 0.983 . S
H523 C547 0.979 . S
H524 C547 0.977 1_556 S
C525 C513 1.453 . S
C525 H554 0.982 . S
C525 H555 0.979 . S
C525 H556 0.977 . S
C526 C513 1.684 . S
C526 H551 0.979 . S
C526 H552 0.980 . S
C526 H553 0.983 . S
C527 C528 1.391 . S
C527 C532 1.391 . S
C527 H557 0.948 . S
C528 C527 1.391 . S
C528 C529 1.391 . S
C529 C528 1.391 . S
C529 C530 1.392 . S
C529 H558 0.947 . S
C530 C529 1.392 . S
C530 C531 1.419 . S
C530 H559 0.948 . S
C531 C530 1.419 . S
C531 C532 1.391 . S
C531 C535 1.397 . S
C532 C527 1.391 . S
C532 C531 1.391 . S
C532 C533 1.399 . S
C533 C532 1.399 . S
C533 C534 1.396 . S
C533 C536 1.453 . S
C533 C537 1.684 . S
C534 C515 1.723 . S
C534 C533 1.396 . S
C534 C535 1.394 . S
C535 C531 1.397 . S
C535 C534 1.394 . S
C535 C545 1.723 1_556 S
C536 C533 1.453 . S
C536 H560 0.982 . S
C536 H561 0.979 . S
C536 H562 0.977 . S
C537 C533 1.684 . S
C537 H563 0.979 . S
C537 H564 0.980 . S
C537 H565 0.983 . S
C538 H514 0.948 . S
C538 C539 1.391 . S
C538 C543 1.391 . S
C539 C538 1.391 . S
C539 C540 1.391 . S
C540 H517 0.947 . S
C540 C539 1.391 . S
C540 C541 1.392 . S
C541 H518 0.948 . S
C541 C540 1.392 . S
C541 C542 1.419 . S
C542 C541 1.419 . S
C542 C543 1.391 . S
C542 C546 1.397 . S
C543 C538 1.391 . S
C543 C542 1.391 . S
C543 C544 1.399 . S
C544 C543 1.399 . S
C544 C545 1.396 . S
C544 C547 1.453 . S
C544 C548 1.684 . S
C545 C535 1.723 1_554 S
C545 C544 1.396 . S
C545 C546 1.394 . S
C546 C516 1.723 . S
C546 C542 1.397 . S
C546 C545 1.394 . S
C547 H519 0.982 . S
C547 H523 0.979 . S
C547 H524 0.977 1_554 S
C547 C544 1.453 . S
C548 H520 0.979 . S
C548 H521 0.980 1_554 S
C548 H522 0.983 . S
C548 C544 1.684 . S
H549 C567 0.948 . S
H550 C508 0.948 . S
H551 C526 0.979 . S
H552 C526 0.980 . S
H553 C526 0.983 . S
H554 C525 0.982 . S
H555 C525 0.979 . S
H556 C525 0.977 . S
H557 C527 0.948 . S
H558 C529 0.947 . S
H559 C530 0.948 . S
H560 C536 0.982 . S
H561 C536 0.979 . S
H562 C536 0.977 . S
H563 C537 0.979 . S
H564 C537 0.980 . S
H565 C537 0.983 . S
H566 C510 0.947 . S
C567 C510 1.392 . S
C567 C511 1.419 . S
C567 H549 0.948 . S
H568 C580 0.930 . S
H569 C582 0.930 . S
H570 C583 0.930 . S
H571 C587 0.959 . S
H572 C587 0.959 . S
H573 C587 0.961 . S
H574 C588 0.960 . S
H575 C588 0.961 . S
H576 C588 0.959 . S
H577 C591 0.929 . S
H578 C592 0.931 . S
H579 C594 0.930 . S
C580 H568 0.930 . S
C580 C581 1.399 . S
C580 C585 1.399 . S
C581 C580 1.399 . S
C581 C582 1.376 . S
C582 H569 0.930 . S
C582 C581 1.376 . S
C582 C583 1.388 . S
C583 H570 0.930 . S
C583 C582 1.388 . S
C583 C584 1.390 . S
C584 C583 1.390 . S
C584 C585 1.394 . S
C584 C590 1.465 . S
C585 C580 1.399 . S
C585 C584 1.394 . S
C585 C586 1.516 . S
C586 C585 1.516 . S
C586 C587 1.502 . S
C586 C588 1.561 . S
C586 C589 1.526 . S
C587 H571 0.959 . S
C587 H572 0.959 . S
C587 H573 0.961 . S
C587 C586 1.502 . S
C588 H574 0.960 . S
C588 H575 0.961 . S
C588 H576 0.959 . S
C588 C586 1.561 . S
C589 C586 1.526 . S
C589 C590 1.396 . S
C589 C594 1.390 . S
C590 C584 1.465 . S
C590 C589 1.396 . S
C590 C591 1.399 . S
C591 H577 0.929 . S
C591 C590 1.399 . S
C591 C592 1.385 . S
C592 H578 0.931 . S
C592 C591 1.385 . S
C592 C593 1.389 . S
C593 C592 1.389 . S
C593 C594 1.387 . S
C594 H579 0.930 . S
C594 C589 1.390 . S
C594 C593 1.387 . S
H595 C607 0.930 . S
H596 C609 0.930 . S
H597 C610 0.930 . S
H598 C614 0.959 . S
H599 C614 0.959 . S
H600 C614 0.961 . S
H601 C615 0.960 . S
H602 C615 0.961 . S
H603 C615 0.959 . S
H604 C618 0.929 . S
H605 C619 0.931 . S
H606 C621 0.930 . S
C607 H595 0.930 . S
C607 C608 1.399 . S
C607 C612 1.399 . S
C608 C607 1.399 . S
C608 C609 1.376 . S
C609 H596 0.930 . S
C609 C608 1.376 . S
C609 C610 1.388 . S
C610 H597 0.930 . S
C610 C609 1.388 . S
C610 C611 1.390 . S
C611 C610 1.390 . S
C611 C612 1.394 . S
C611 C617 1.465 . S
C612 C607 1.399 . S
C612 C611 1.394 . S
C612 C613 1.516 . S
C613 C612 1.516 . S
C613 C614 1.502 . S
C613 C615 1.561 . S
C613 C616 1.526 . S
C614 H598 0.959 . S
C614 H599 0.959 . S
C614 H600 0.961 . S
C614 C613 1.502 . S
C615 H601 0.960 . S
C615 H602 0.961 . S
C615 H603 0.959 . S
C615 C613 1.561 . S
C616 C613 1.526 . S
C616 C617 1.396 . S
C616 C621 1.390 . S
C617 C611 1.465 . S
C617 C616 1.396 . S
C617 C618 1.399 . S
C618 H604 0.929 . S
C618 C617 1.399 . S
C618 C619 1.385 . S
C619 H605 0.931 . S
C619 C618 1.385 . S
C619 C620 1.389 . S
C620 C619 1.389 . S
C620 C621 1.387 . S
C621 H606 0.930 . S
C621 C616 1.390 . S
C621 C620 1.387 . S
H622 C634 0.930 . S
H623 C636 0.930 . S
H624 C637 0.930 . S
H625 C641 0.959 . S
H626 C641 0.959 . S
H627 C641 0.961 . S
H628 C642 0.960 . S
H629 C642 0.961 . S
H630 C642 0.959 . S
H631 C645 0.929 . S
H632 C646 0.931 . S
H633 C648 0.930 . S
C634 H622 0.930 . S
C634 C635 1.399 . S
C634 C639 1.399 . S
C635 C634 1.399 . S
C635 C636 1.376 . S
C636 H623 0.930 . S
C636 C635 1.376 . S
C636 C637 1.388 . S
C637 H624 0.930 . S
C637 C636 1.388 . S
C637 C638 1.390 . S
C638 C637 1.390 . S
C638 C639 1.394 . S
C638 C644 1.465 . S
C639 C634 1.399 . S
C639 C638 1.394 . S
C639 C640 1.516 . S
C640 C639 1.516 . S
C640 C641 1.502 . S
C640 C642 1.561 . S
C640 C643 1.526 . S
C641 H625 0.959 . S
C641 H626 0.959 . S
C641 H627 0.961 . S
C641 C640 1.502 . S
C642 H628 0.960 . S
C642 H629 0.961 . S
C642 H630 0.959 . S
C642 C640 1.561 . S
C643 C640 1.526 . S
C643 C644 1.396 . S
C643 C648 1.390 . S
C644 C638 1.465 . S
C644 C643 1.396 . S
C644 C645 1.399 . S
C645 H631 0.929 . S
C645 C644 1.399 . S
C645 C646 1.385 . S
C646 H632 0.931 . S
C646 C645 1.385 . S
C646 C647 1.389 . S
C647 C646 1.389 . S
C647 C648 1.387 . S
C648 H633 0.930 . S
C648 C643 1.390 . S
C648 C647 1.387 . S
H649 C661 0.930 . S
H650 C663 0.930 . S
H651 C664 0.930 . S
H652 C668 0.959 . S
H653 C668 0.959 . S
H654 C668 0.961 . S
H655 C669 0.960 . S
H656 C669 0.961 . S
H657 C669 0.959 . S
H658 C672 0.929 . S
H659 C673 0.931 . S
H660 C675 0.930 . S
C661 H649 0.930 . S
C661 C662 1.399 . S
C661 C666 1.399 . S
C662 C661 1.399 . S
C662 C663 1.376 . S
C663 H650 0.930 . S
C663 C662 1.376 . S
C663 C664 1.388 . S
C664 H651 0.930 . S
C664 C663 1.388 . S
C664 C665 1.390 . S
C665 C664 1.390 . S
C665 C666 1.394 . S
C665 C671 1.465 . S
C666 C661 1.399 . S
C666 C665 1.394 . S
C666 C667 1.516 . S
C667 C666 1.516 . S
C667 C668 1.502 . S
C667 C669 1.561 . S
C667 C670 1.526 . S
C668 H652 0.959 . S
C668 H653 0.959 . S
C668 H654 0.961 . S
C668 C667 1.502 . S
C669 H655 0.960 . S
C669 H656 0.961 . S
C669 H657 0.959 . S
C669 C667 1.561 . S
C670 C667 1.526 . S
C670 C671 1.396 . S
C670 C675 1.390 . S
C671 C665 1.465 . S
C671 C670 1.396 . S
C671 C672 1.399 . S
C672 H658 0.929 . S
C672 C671 1.399 . S
C672 C673 1.385 . S
C673 H659 0.931 . S
C673 C672 1.385 . S
C673 C674 1.389 . S
C674 C673 1.389 . S
C674 C675 1.387 . S
C675 H660 0.930 . S
C675 C670 1.390 . S
C675 C674 1.387 . S
H676 C688 0.930 . S
H677 C690 0.930 . S
H678 C691 0.930 . S
H679 C695 0.959 . S
H680 C695 0.959 . S
H681 C695 0.961 . S
H682 C696 0.960 . S
H683 C696 0.961 . S
H684 C696 0.959 . S
H685 C699 0.929 . S
H686 C700 0.931 . S
H687 C702 0.930 . S
C688 H676 0.930 . S
C688 C689 1.399 . S
C688 C693 1.399 . S
C689 C688 1.399 . S
C689 C690 1.376 . S
C690 H677 0.930 . S
C690 C689 1.376 . S
C690 C691 1.388 . S
C691 H678 0.930 . S
C691 C690 1.388 . S
C691 C692 1.390 . S
C692 C691 1.390 . S
C692 C693 1.394 . S
C692 C698 1.465 . S
C693 C688 1.399 . S
C693 C692 1.394 . S
C693 C694 1.516 . S
C694 C693 1.516 . S
C694 C695 1.502 . S
C694 C696 1.561 . S
C694 C697 1.526 . S
C695 H679 0.959 . S
C695 H680 0.959 . S
C695 H681 0.961 . S
C695 C694 1.502 . S
C696 H682 0.960 . S
C696 H683 0.961 . S
C696 H684 0.959 . S
C696 C694 1.561 . S
C697 C694 1.526 . S
C697 C698 1.396 . S
C697 C702 1.390 . S
C698 C692 1.465 . S
C698 C697 1.396 . S
C698 C699 1.399 . S
C699 H685 0.929 . S
C699 C698 1.399 . S
C699 C700 1.385 . S
C700 H686 0.931 . S
C700 C699 1.385 . S
C700 C701 1.389 . S
C701 C700 1.389 . S
C701 C702 1.387 . S
C702 H687 0.930 . S
C702 C697 1.390 . S
C702 C701 1.387 . S
H703 C715 0.930 . S
H704 C717 0.930 . S
H705 C718 0.930 . S
H706 C722 0.959 . S
H707 C722 0.959 . S
H708 C722 0.961 . S
H709 C723 0.960 . S
H710 C723 0.961 . S
H711 C723 0.959 . S
H712 C726 0.929 . S
H713 C727 0.931 . S
H714 C729 0.930 . S
C715 H703 0.930 . S
C715 C716 1.399 . S
C715 C720 1.399 . S
C716 C715 1.399 . S
C716 C717 1.376 . S
C717 H704 0.930 . S
C717 C716 1.376 . S
C717 C718 1.388 . S
C718 H705 0.930 . S
C718 C717 1.388 . S
C718 C719 1.390 . S
C719 C718 1.390 . S
C719 C720 1.394 . S
C719 C725 1.465 . S
C720 C715 1.399 . S
C720 C719 1.394 . S
C720 C721 1.516 . S
C721 C720 1.516 . S
C721 C722 1.502 . S
C721 C723 1.561 . S
C721 C724 1.526 . S
C722 H706 0.959 . S
C722 H707 0.959 . S
C722 H708 0.961 . S
C722 C721 1.502 . S
C723 H709 0.960 . S
C723 H710 0.961 . S
C723 H711 0.959 . S
C723 C721 1.561 . S
C724 C721 1.526 . S
C724 C725 1.396 . S
C724 C729 1.390 . S
C725 C719 1.465 . S
C725 C724 1.396 . S
C725 C726 1.399 . S
C726 H712 0.929 . S
C726 C725 1.399 . S
C726 C727 1.385 . S
C727 H713 0.931 . S
C727 C726 1.385 . S
C727 C728 1.389 . S
C728 C727 1.389 . S
C728 C729 1.387 . S
C729 H714 0.930 . S
C729 C724 1.390 . S
C729 C728 1.387 . S
H730 C742 0.930 . S
H731 C744 0.930 . S
H732 C745 0.930 . S
H733 C749 0.959 . S
H734 C749 0.959 . S
H735 C749 0.961 . S
H736 C750 0.960 . S
H737 C750 0.961 . S
H738 C750 0.959 . S
H739 C753 0.929 . S
H740 C754 0.931 . S
H741 C756 0.930 . S
C742 H730 0.930 . S
C742 C743 1.399 . S
C742 C747 1.399 . S
C743 C742 1.399 . S
C743 C744 1.376 . S
C744 H731 0.930 . S
C744 C743 1.376 . S
C744 C745 1.388 . S
C745 H732 0.930 . S
C745 C744 1.388 . S
C745 C746 1.390 . S
C746 C745 1.390 . S
C746 C747 1.394 . S
C746 C752 1.465 . S
C747 C742 1.399 . S
C747 C746 1.394 . S
C747 C748 1.516 . S
C748 C747 1.516 . S
C748 C749 1.502 . S
C748 C750 1.561 . S
C748 C751 1.526 . S
C749 H733 0.959 . S
C749 H734 0.959 . S
C749 H735 0.961 . S
C749 C748 1.502 . S
C750 H736 0.960 . S
C750 H737 0.961 . S
C750 H738 0.959 . S
C750 C748 1.561 . S
C751 C748 1.526 . S
C751 C752 1.396 . S
C751 C756 1.390 . S
C752 C746 1.465 . S
C752 C751 1.396 . S
C752 C753 1.399 . S
C753 H739 0.929 . S
C753 C752 1.399 . S
C753 C754 1.385 . S
C754 H740 0.931 . S
C754 C753 1.385 . S
C754 C755 1.389 . S
C755 C754 1.389 . S
C755 C756 1.387 . S
C756 H741 0.930 . S
C756 C751 1.390 . S
C756 C755 1.387 . S
H757 C769 0.930 . S
H758 C771 0.930 . S
H759 C772 0.930 . S
H760 C776 0.959 . S
H761 C776 0.959 . S
H762 C776 0.961 . S
H763 C777 0.960 . S
H764 C777 0.961 . S
H765 C777 0.959 . S
H766 C780 0.929 . S
H767 C781 0.931 . S
H768 C783 0.930 . S
C769 H757 0.930 . S
C769 C770 1.399 . S
C769 C774 1.399 . S
C770 C769 1.399 . S
C770 C771 1.376 . S
C771 H758 0.930 . S
C771 C770 1.376 . S
C771 C772 1.388 . S
C772 H759 0.930 . S
C772 C771 1.388 . S
C772 C773 1.390 . S
C773 C772 1.390 . S
C773 C774 1.394 . S
C773 C779 1.465 . S
C774 C769 1.399 . S
C774 C773 1.394 . S
C774 C775 1.516 . S
C775 C774 1.516 . S
C775 C776 1.502 . S
C775 C777 1.561 . S
C775 C778 1.526 . S
C776 H760 0.959 . S
C776 H761 0.959 . S
C776 H762 0.961 . S
C776 C775 1.502 . S
C777 H763 0.960 . S
C777 H764 0.961 . S
C777 H765 0.959 . S
C777 C775 1.561 . S
C778 C775 1.526 . S
C778 C779 1.396 . S
C778 C783 1.390 . S
C779 C773 1.465 . S
C779 C778 1.396 . S
C779 C780 1.399 . S
C780 H766 0.929 . S
C780 C779 1.399 . S
C780 C781 1.385 . S
C781 H767 0.931 . S
C781 C780 1.385 . S
C781 C782 1.389 . S
C782 C781 1.389 . S
C782 C783 1.387 . S
C783 H768 0.930 . S
C783 C778 1.390 . S
C783 C782 1.387 . S
H784 C796 0.930 . S
H785 C798 0.930 . S
H786 C799 0.930 . S
H787 C803 0.959 . S
H788 C803 0.959 . S
H789 C803 0.961 . S
H790 C804 0.960 . S
H791 C804 0.961 . S
H792 C804 0.959 . S
H793 C807 0.929 . S
H794 C808 0.931 . S
H795 C810 0.930 . S
C796 H784 0.930 . S
C796 C797 1.399 . S
C796 C801 1.399 . S
C797 C796 1.399 . S
C797 C798 1.376 . S
C798 H785 0.930 . S
C798 C797 1.376 . S
C798 C799 1.388 . S
C799 H786 0.930 . S
C799 C798 1.388 . S
C799 C800 1.390 . S
C800 C799 1.390 . S
C800 C801 1.394 . S
C800 C806 1.465 . S
C801 C796 1.399 . S
C801 C800 1.394 . S
C801 C802 1.516 . S
C802 C801 1.516 . S
C802 C803 1.502 . S
C802 C804 1.561 . S
C802 C805 1.526 . S
C803 H787 0.959 . S
C803 H788 0.959 . S
C803 H789 0.961 . S
C803 C802 1.502 . S
C804 H790 0.960 . S
C804 H791 0.961 . S
C804 H792 0.959 . S
C804 C802 1.561 . S
C805 C802 1.526 . S
C805 C806 1.396 . S
C805 C810 1.390 . S
C806 C800 1.465 . S
C806 C805 1.396 . S
C806 C807 1.399 . S
C807 H793 0.929 . S
C807 C806 1.399 . S
C807 C808 1.385 . S
C808 H794 0.931 . S
C808 C807 1.385 . S
C808 C809 1.389 . S
C809 C808 1.389 . S
C809 C810 1.387 . S
C810 H795 0.930 . S
C810 C805 1.390 . S
C810 C809 1.387 . S
H811 C823 0.930 . S
H812 C825 0.930 . S
H813 C826 0.930 . S
H814 C830 0.959 . S
H815 C830 0.959 . S
H816 C830 0.961 . S
H817 C831 0.960 . S
H818 C831 0.961 . S
H819 C831 0.959 . S
H820 C834 0.929 . S
H821 C835 0.931 . S
H822 C837 0.930 . S
C823 H811 0.930 . S
C823 C824 1.399 . S
C823 C828 1.399 . S
C824 C823 1.399 . S
C824 C825 1.376 . S
C825 H812 0.930 . S
C825 C824 1.376 . S
C825 C826 1.388 . S
C826 H813 0.930 . S
C826 C825 1.388 . S
C826 C827 1.390 . S
C827 C826 1.390 . S
C827 C828 1.394 . S
C827 C833 1.465 . S
C828 C823 1.399 . S
C828 C827 1.394 . S
C828 C829 1.516 . S
C829 C828 1.516 . S
C829 C830 1.502 . S
C829 C831 1.561 . S
C829 C832 1.526 . S
C830 H814 0.959 . S
C830 H815 0.959 . S
C830 H816 0.961 . S
C830 C829 1.502 . S
C831 H817 0.960 . S
C831 H818 0.961 . S
C831 H819 0.959 . S
C831 C829 1.561 . S
C832 C829 1.526 . S
C832 C833 1.396 . S
C832 C837 1.390 . S
C833 C827 1.465 . S
C833 C832 1.396 . S
C833 C834 1.399 . S
C834 H820 0.929 . S
C834 C833 1.399 . S
C834 C835 1.385 . S
C835 H821 0.931 . S
C835 C834 1.385 . S
C835 C836 1.389 . S
C836 C835 1.389 . S
C836 C837 1.387 . S
C837 H822 0.930 . S
C837 C832 1.390 . S
C837 C836 1.387 . S
H838 C850 0.930 . S
H839 C852 0.930 . S
H840 C853 0.930 . S
H841 C857 0.959 . S
H842 C857 0.959 . S
H843 C857 0.961 . S
H844 C858 0.960 . S
H845 C858 0.961 . S
H846 C858 0.959 . S
H847 C861 0.929 . S
H848 C862 0.931 . S
H849 C864 0.930 . S
C850 H838 0.930 . S
C850 C851 1.399 . S
C850 C855 1.399 . S
C851 C850 1.399 . S
C851 C852 1.376 . S
C852 H839 0.930 . S
C852 C851 1.376 . S
C852 C853 1.388 . S
C853 H840 0.930 . S
C853 C852 1.388 . S
C853 C854 1.390 . S
C854 C853 1.390 . S
C854 C855 1.394 . S
C854 C860 1.465 . S
C855 C850 1.399 . S
C855 C854 1.394 . S
C855 C856 1.516 . S
C856 C855 1.516 . S
C856 C857 1.502 . S
C856 C858 1.561 . S
C856 C859 1.526 . S
C857 H841 0.959 . S
C857 H842 0.959 . S
C857 H843 0.961 . S
C857 C856 1.502 . S
C858 H844 0.960 . S
C858 H845 0.961 . S
C858 H846 0.959 . S
C858 C856 1.561 . S
C859 C856 1.526 . S
C859 C860 1.396 . S
C859 C864 1.390 . S
C860 C854 1.465 . S
C860 C859 1.396 . S
C860 C861 1.399 . S
C861 H847 0.929 . S
C861 C860 1.399 . S
C861 C862 1.385 . S
C862 H848 0.931 . S
C862 C861 1.385 . S
C862 C863 1.389 . S
C863 C862 1.389 . S
C863 C864 1.387 . S
C864 H849 0.930 . S
C864 C859 1.390 . S
C864 C863 1.387 . S
H865 C877 0.930 . S
H866 C879 0.930 . S
H867 C880 0.930 . S
H868 C884 0.959 . S
H869 C884 0.959 . S
H870 C884 0.961 . S
H871 C885 0.960 . S
H872 C885 0.961 . S
H873 C885 0.959 . S
H874 C888 0.929 . S
H875 C889 0.931 . S
H876 C891 0.930 . S
C877 H865 0.930 . S
C877 C878 1.399 . S
C877 C882 1.399 . S
C878 C877 1.399 . S
C878 C879 1.376 . S
C879 H866 0.930 . S
C879 C878 1.376 . S
C879 C880 1.388 . S
C880 H867 0.930 . S
C880 C879 1.388 . S
C880 C881 1.390 . S
C881 C880 1.390 . S
C881 C882 1.394 . S
C881 C887 1.465 . S
C882 C877 1.399 . S
C882 C881 1.394 . S
C882 C883 1.516 . S
C883 C882 1.516 . S
C883 C884 1.502 . S
C883 C885 1.561 . S
C883 C886 1.526 . S
C884 H868 0.959 . S
C884 H869 0.959 . S
C884 H870 0.961 . S
C884 C883 1.502 . S
C885 H871 0.960 . S
C885 H872 0.961 . S
C885 H873 0.959 . S
C885 C883 1.561 . S
C886 C883 1.526 . S
C886 C887 1.396 . S
C886 C891 1.390 . S
C887 C881 1.465 . S
C887 C886 1.396 . S
C887 C888 1.399 . S
C888 H874 0.929 . S
C888 C887 1.399 . S
C888 C889 1.385 . S
C889 H875 0.931 . S
C889 C888 1.385 . S
C889 C890 1.389 . S
C890 C889 1.389 . S
C890 C891 1.387 . S
C891 H876 0.930 . S
C891 C886 1.390 . S
C891 C890 1.387 . S
H892 C904 0.930 . S
H893 C906 0.930 . S
H894 C907 0.930 . S
H895 C911 0.959 . S
H896 C911 0.959 . S
H897 C911 0.961 . S
H898 C912 0.960 . S
H899 C912 0.961 . S
H900 C912 0.959 . S
H901 C915 0.929 . S
H902 C916 0.931 . S
H903 C918 0.930 . S
C904 H892 0.930 . S
C904 C905 1.399 . S
C904 C909 1.399 . S
C905 C904 1.399 . S
C905 C906 1.376 . S
C906 H893 0.930 . S
C906 C905 1.376 . S
C906 C907 1.388 . S
C907 H894 0.930 . S
C907 C906 1.388 . S
C907 C908 1.390 . S
C908 C907 1.390 . S
C908 C909 1.394 . S
C908 C914 1.465 . S
C909 C904 1.399 . S
C909 C908 1.394 . S
C909 C910 1.516 . S
C910 C909 1.516 . S
C910 C911 1.502 . S
C910 C912 1.561 . S
C910 C913 1.526 . S
C911 H895 0.959 . S
C911 H896 0.959 . S
C911 H897 0.961 . S
C911 C910 1.502 . S
C912 H898 0.960 . S
C912 H899 0.961 . S
C912 H900 0.959 . S
C912 C910 1.561 . S
C913 C910 1.526 . S
C913 C914 1.396 . S
C913 C918 1.390 . S
C914 C908 1.465 . S
C914 C913 1.396 . S
C914 C915 1.399 . S
C915 H901 0.929 . S
C915 C914 1.399 . S
C915 C916 1.385 . S
C916 H902 0.931 . S
C916 C915 1.385 . S
C916 C917 1.389 . S
C917 C916 1.389 . S
C917 C918 1.387 . S
C918 H903 0.930 . S
C918 C913 1.390 . S
C918 C917 1.387 . S
H919 C931 0.930 . S
H920 C933 0.930 . S
H921 C934 0.930 . S
H922 C938 0.959 . S
H923 C938 0.959 . S
H924 C938 0.961 . S
H925 C939 0.960 . S
H926 C939 0.961 . S
H927 C939 0.959 . S
H928 C942 0.929 . S
H929 C943 0.931 . S
H930 C945 0.930 . S
C931 H919 0.930 . S
C931 C932 1.399 . S
C931 C936 1.399 . S
C932 C931 1.399 . S
C932 C933 1.376 . S
C933 H920 0.930 . S
C933 C932 1.376 . S
C933 C934 1.388 . S
C934 H921 0.930 . S
C934 C933 1.388 . S
C934 C935 1.390 . S
C935 C934 1.390 . S
C935 C936 1.394 . S
C935 C941 1.465 . S
C936 C931 1.399 . S
C936 C935 1.394 . S
C936 C937 1.516 . S
C937 C936 1.516 . S
C937 C938 1.502 . S
C937 C939 1.561 . S
C937 C940 1.526 . S
C938 H922 0.959 . S
C938 H923 0.959 . S
C938 H924 0.961 . S
C938 C937 1.502 . S
C939 H925 0.960 . S
C939 H926 0.961 . S
C939 H927 0.959 . S
C939 C937 1.561 . S
C940 C937 1.526 . S
C940 C941 1.396 . S
C940 C945 1.390 . S
C941 C935 1.465 . S
C941 C940 1.396 . S
C941 C942 1.399 . S
C942 H928 0.929 . S
C942 C941 1.399 . S
C942 C943 1.385 . S
C943 H929 0.931 . S
C943 C942 1.385 . S
C943 C944 1.389 . S
C944 C943 1.389 . S
C944 C945 1.387 . S
C945 H930 0.930 . S
C945 C940 1.390 . S
C945 C944 1.387 . S
H946 C958 0.930 . S
H947 C960 0.930 . S
H948 C961 0.930 . S
H949 C965 0.959 . S
H950 C965 0.959 . S
H951 C965 0.961 . S
H952 C966 0.960 . S
H953 C966 0.961 . S
H954 C966 0.959 . S
H955 C969 0.929 . S
H956 C970 0.931 . S
H957 C972 0.930 . S
C958 H946 0.930 . S
C958 C959 1.399 . S
C958 C963 1.399 . S
C959 C958 1.399 . S
C959 C960 1.376 . S
C960 H947 0.930 . S
C960 C959 1.376 . S
C960 C961 1.388 . S
C961 H948 0.930 . S
C961 C960 1.388 . S
C961 C962 1.390 . S
C962 C961 1.390 . S
C962 C963 1.394 . S
C962 C968 1.465 . S
C963 C958 1.399 . S
C963 C962 1.394 . S
C963 C964 1.516 . S
C964 C963 1.516 . S
C964 C965 1.502 . S
C964 C966 1.561 . S
C964 C967 1.526 . S
C965 H949 0.959 . S
C965 H950 0.959 . S
C965 H951 0.961 . S
C965 C964 1.502 . S
C966 H952 0.960 . S
C966 H953 0.961 . S
C966 H954 0.959 . S
C966 C964 1.561 . S
C967 C964 1.526 . S
C967 C968 1.396 . S
C967 C972 1.390 . S
C968 C962 1.465 . S
C968 C967 1.396 . S
C968 C969 1.399 . S
C969 H955 0.929 . S
C969 C968 1.399 . S
C969 C970 1.385 . S
C970 H956 0.931 . S
C970 C969 1.385 . S
C970 C971 1.389 . S
C971 C970 1.389 . S
C971 C972 1.387 . S
C972 H957 0.930 . S
C972 C967 1.390 . S
C972 C971 1.387 . S
H973 C985 0.930 . S
H974 C987 0.930 . S
H975 C988 0.930 . S
H976 C992 0.959 . S
H977 C992 0.959 . S
H978 C992 0.961 . S
H979 C993 0.960 . S
H980 C993 0.961 . S
H981 C993 0.959 . S
H982 C996 0.929 . S
H983 C997 0.931 . S
H984 C999 0.930 . S
C985 H973 0.930 . S
C985 C986 1.399 . S
C985 C990 1.399 . S
C986 C985 1.399 . S
C986 C987 1.376 . S
C987 H974 0.930 . S
C987 C986 1.376 . S
C987 C988 1.388 . S
C988 H975 0.930 . S
C988 C987 1.388 . S
C988 C989 1.390 . S
C989 C988 1.390 . S
C989 C990 1.394 . S
C989 C995 1.465 . S
C990 C985 1.399 . S
C990 C989 1.394 . S
C990 C991 1.516 . S
C991 C990 1.516 . S
C991 C992 1.502 . S
C991 C993 1.561 . S
C991 C994 1.526 . S
C992 H976 0.959 . S
C992 H977 0.959 . S
C992 H978 0.961 . S
C992 C991 1.502 . S
C993 H979 0.960 . S
C993 H980 0.961 . S
C993 H981 0.959 . S
C993 C991 1.561 . S
C994 C991 1.526 . S
C994 C995 1.396 . S
C994 C999 1.390 . S
C995 C989 1.465 . S
C995 C994 1.396 . S
C995 C996 1.399 . S
C996 H982 0.929 . S
C996 C995 1.399 . S
C996 C997 1.385 . S
C997 H983 0.931 . S
C997 C996 1.385 . S
C997 C998 1.389 . S
C998 C997 1.389 . S
C998 C999 1.387 . S
C999 H984 0.930 . S
C999 C994 1.390 . S
C999 C998 1.387 . S
H1000 C1012 0.930 . S
H1001 C1014 0.930 . S
H1002 C1015 0.930 . S
H1003 C1019 0.959 . S
H1004 C1019 0.959 . S
H1005 C1019 0.961 . S
H1006 C1020 0.960 . S
H1007 C1020 0.961 . S
H1008 C1020 0.959 . S
H1009 C1023 0.929 . S
H1010 C1024 0.931 . S
H1011 C1026 0.930 . S
C1012 H1000 0.930 . S
C1012 C1013 1.399 1_556 S
C1012 C1017 1.399 . S
C1013 C1012 1.399 1_554 S
C1013 C1014 1.376 . S
C1014 H1001 0.930 . S
C1014 C1013 1.376 . S
C1014 C1015 1.388 . S
C1015 H1002 0.930 . S
C1015 C1014 1.388 . S
C1015 C1016 1.390 . S
C1016 C1015 1.390 . S
C1016 C1017 1.394 1_554 S
C1016 C1022 1.465 . S
C1017 C1012 1.399 . S
C1017 C1016 1.394 1_556 S
C1017 C1018 1.516 . S
C1018 C1017 1.516 . S
C1018 C1019 1.502 . S
C1018 C1020 1.561 . S
C1018 C1021 1.526 . S
C1019 H1003 0.959 . S
C1019 H1004 0.959 . S
C1019 H1005 0.961 . S
C1019 C1018 1.502 . S
C1020 H1006 0.960 . S
C1020 H1007 0.961 . S
C1020 H1008 0.959 . S
C1020 C1018 1.561 . S
C1021 C1018 1.526 . S
C1021 C1022 1.396 1_556 S
C1021 C1026 1.390 . S
C1022 C1016 1.465 . S
C1022 C1021 1.396 1_554 S
C1022 C1023 1.399 . S
C1023 H1009 0.929 . S
C1023 C1022 1.399 . S
C1023 C1024 1.385 . S
C1024 H1010 0.931 . S
C1024 C1023 1.385 . S
C1024 C1025 1.389 . S
C1025 C1024 1.389 . S
C1025 C1026 1.387 1_554 S
C1026 H1011 0.930 . S
C1026 C1021 1.390 . S
C1026 C1025 1.387 1_556 S
H1027 C1039 0.930 . S
H1028 C1041 0.930 . S
H1029 C1042 0.930 . S
H1030 C1046 0.959 . S
H1031 C1046 0.959 . S
H1032 C1046 0.961 . S
H1033 C1047 0.960 . S
H1034 C1047 0.961 . S
H1035 C1047 0.959 . S
H1036 C1050 0.929 . S
H1037 C1051 0.931 . S
H1038 C1053 0.930 . S
C1039 H1027 0.930 . S
C1039 C1040 1.399 . S
C1039 C1044 1.399 . S
C1040 C1039 1.399 . S
C1040 C1041 1.376 . S
C1041 H1028 0.930 . S
C1041 C1040 1.376 . S
C1041 C1042 1.388 . S
C1042 H1029 0.930 . S
C1042 C1041 1.388 . S
C1042 C1043 1.390 . S
C1043 C1042 1.390 . S
C1043 C1044 1.394 . S
C1043 C1049 1.465 . S
C1044 C1039 1.399 . S
C1044 C1043 1.394 . S
C1044 C1045 1.516 . S
C1045 C1044 1.516 . S
C1045 C1046 1.502 . S
C1045 C1047 1.561 . S
C1045 C1048 1.526 . S
C1046 H1030 0.959 . S
C1046 H1031 0.959 . S
C1046 H1032 0.961 . S
C1046 C1045 1.502 . S
C1047 H1033 0.960 . S
C1047 H1034 0.961 . S
C1047 H1035 0.959 . S
C1047 C1045 1.561 . S
C1048 C1045 1.526 . S
C1048 C1049 1.396 . S
C1048 C1053 1.390 . S
C1049 C1043 1.465 . S
C1049 C1048 1.396 . S
C1049 C1050 1.399 . S
C1050 H1036 0.929 . S
C1050 C1049 1.399 . S
C1050 C1051 1.385 . S
C1051 H1037 0.931 . S
C1051 C1050 1.385 . S
C1051 C1052 1.389 . S
C1052 C1051 1.389 . S
C1052 C1053 1.387 . S
C1053 H1038 0.930 . S
C1053 C1048 1.390 . S
C1053 C1052 1.387 . S
H1054 C1066 0.930 . S
H1055 C1068 0.930 . S
H1056 C1069 0.930 . S
H1057 C1073 0.959 1_556 S
H1058 C1073 0.959 . S
H1059 C1073 0.961 . S
H1060 C1074 0.960 . S
H1061 C1074 0.961 . S
H1062 C1074 0.959 . S
H1063 C1077 0.929 . S
H1064 C1078 0.931 . S
H1065 C1080 0.930 . S
C1066 H1054 0.930 . S
C1066 C1067 1.400 1_554 S
C1066 C1071 1.399 . S
C1067 C1066 1.400 1_556 S
C1067 C1068 1.376 . S
C1068 H1055 0.930 . S
C1068 C1067 1.376 . S
C1068 C1069 1.388 . S
C1069 H1056 0.930 . S
C1069 C1068 1.388 . S
C1069 C1070 1.390 . S
C1070 C1069 1.390 . S
C1070 C1071 1.394 1_556 S
C1070 C1076 1.465 . S
C1071 C1066 1.399 . S
C1071 C1070 1.394 1_554 S
C1071 C1072 1.516 . S
C1072 C1071 1.516 . S
C1072 C1073 1.502 . S
C1072 C1074 1.561 . S
C1072 C1075 1.526 . S
C1073 H1057 0.959 1_554 S
C1073 H1058 0.959 . S
C1073 H1059 0.961 . S
C1073 C1072 1.502 . S
C1074 H1060 0.960 . S
C1074 H1061 0.961 . S
C1074 H1062 0.959 . S
C1074 C1072 1.561 . S
C1075 C1072 1.526 . S
C1075 C1076 1.396 1_554 S
C1075 C1080 1.390 . S
C1076 C1070 1.465 . S
C1076 C1075 1.396 1_556 S
C1076 C1077 1.399 . S
C1077 H1063 0.929 . S
C1077 C1076 1.399 . S
C1077 C1078 1.385 . S
C1078 H1064 0.931 . S
C1078 C1077 1.385 . S
C1078 C1079 1.389 . S
C1079 C1078 1.389 . S
C1079 C1080 1.387 1_556 S
C1080 H1065 0.930 . S
C1080 C1075 1.390 . S
C1080 C1079 1.387 1_554 S
H1081 C1093 0.930 . S
H1082 C1095 0.930 . S
H1083 C1096 0.930 . S
H1084 C1100 0.959 . S
H1085 C1100 0.959 . S
H1086 C1100 0.961 . S
H1087 C1101 0.960 . S
H1088 C1101 0.961 . S
H1089 C1101 0.959 . S
H1090 C1104 0.929 . S
H1091 C1105 0.931 . S
H1092 C1107 0.930 . S
C1093 H1081 0.930 . S
C1093 C1094 1.399 . S
C1093 C1098 1.399 . S
C1094 C1093 1.399 . S
C1094 C1095 1.376 . S
C1095 H1082 0.930 . S
C1095 C1094 1.376 . S
C1095 C1096 1.388 . S
C1096 H1083 0.930 . S
C1096 C1095 1.388 . S
C1096 C1097 1.390 . S
C1097 C1096 1.390 . S
C1097 C1098 1.394 . S
C1097 C1103 1.465 . S
C1098 C1093 1.399 . S
C1098 C1097 1.394 . S
C1098 C1099 1.516 . S
C1099 C1098 1.516 . S
C1099 C1100 1.502 . S
C1099 C1101 1.561 . S
C1099 C1102 1.526 . S
C1100 H1084 0.959 . S
C1100 H1085 0.959 . S
C1100 H1086 0.961 . S
C1100 C1099 1.502 . S
C1101 H1087 0.960 . S
C1101 H1088 0.961 . S
C1101 H1089 0.959 . S
C1101 C1099 1.561 . S
C1102 C1099 1.526 . S
C1102 C1103 1.396 . S
C1102 C1107 1.390 . S
C1103 C1097 1.465 . S
C1103 C1102 1.396 . S
C1103 C1104 1.399 . S
C1104 H1090 0.929 . S
C1104 C1103 1.399 . S
C1104 C1105 1.385 . S
C1105 H1091 0.931 . S
C1105 C1104 1.385 . S
C1105 C1106 1.389 . S
C1106 C1105 1.389 . S
C1106 C1107 1.387 . S
C1107 H1092 0.930 . S
C1107 C1102 1.390 . S
C1107 C1106 1.387 . S
H1108 C1120 0.930 . S
H1109 C1122 0.930 . S
H1110 C1123 0.930 . S
H1111 C1127 0.959 . S
H1112 C1127 0.959 . S
H1113 C1127 0.961 . S
H1114 C1128 0.960 . S
H1115 C1128 0.961 . S
H1116 C1128 0.959 . S
H1117 C1131 0.929 . S
H1118 C1132 0.931 . S
H1119 C1134 0.930 . S
C1120 H1108 0.930 . S
C1120 C1121 1.399 . S
C1120 C1125 1.399 . S
C1121 C1120 1.399 . S
C1121 C1122 1.376 . S
C1122 H1109 0.930 . S
C1122 C1121 1.376 . S
C1122 C1123 1.388 . S
C1123 H1110 0.930 . S
C1123 C1122 1.388 . S
C1123 C1124 1.390 . S
C1124 C1123 1.390 . S
C1124 C1125 1.394 . S
C1124 C1130 1.465 . S
C1125 C1120 1.399 . S
C1125 C1124 1.394 . S
C1125 C1126 1.516 . S
C1126 C1125 1.516 . S
C1126 C1127 1.502 . S
C1126 C1128 1.561 . S
C1126 C1129 1.526 . S
C1127 H1111 0.959 . S
C1127 H1112 0.959 . S
C1127 H1113 0.961 . S
C1127 C1126 1.502 . S
C1128 H1114 0.960 . S
C1128 H1115 0.961 . S
C1128 H1116 0.959 . S
C1128 C1126 1.561 . S
C1129 C1126 1.526 . S
C1129 C1130 1.396 . S
C1129 C1134 1.390 . S
C1130 C1124 1.465 . S
C1130 C1129 1.396 . S
C1130 C1131 1.399 . S
C1131 H1117 0.929 . S
C1131 C1130 1.399 . S
C1131 C1132 1.385 . S
C1132 H1118 0.931 . S
C1132 C1131 1.385 . S
C1132 C1133 1.389 . S
C1133 C1132 1.389 . S
C1133 C1134 1.387 . S
C1134 H1119 0.930 . S
C1134 C1129 1.390 . S
C1134 C1133 1.387 . S
H1135 C1147 0.930 . S
H1136 C1149 0.930 . S
H1137 C1150 0.930 . S
H1138 C1154 0.959 . S
H1139 C1154 0.959 . S
H1140 C1154 0.961 . S
H1141 C1155 0.960 . S
H1142 C1155 0.961 . S
H1143 C1155 0.959 . S
H1144 C1158 0.929 . S
H1145 C1159 0.931 . S
H1146 C1161 0.930 . S
C1147 H1135 0.930 . S
C1147 C1148 1.399 1_556 S
C1147 C1152 1.399 . S
C1148 C1147 1.399 1_554 S
C1148 C1149 1.376 . S
C1149 H1136 0.930 . S
C1149 C1148 1.376 . S
C1149 C1150 1.388 . S
C1150 H1137 0.930 . S
C1150 C1149 1.388 . S
C1150 C1151 1.390 . S
C1151 C1150 1.390 . S
C1151 C1152 1.394 1_554 S
C1151 C1157 1.465 . S
C1152 C1147 1.399 . S
C1152 C1151 1.394 1_556 S
C1152 C1153 1.516 . S
C1153 C1152 1.516 . S
C1153 C1154 1.502 . S
C1153 C1155 1.561 . S
C1153 C1156 1.526 . S
C1154 H1138 0.959 . S
C1154 H1139 0.959 . S
C1154 H1140 0.961 . S
C1154 C1153 1.502 . S
C1155 H1141 0.960 . S
C1155 H1142 0.961 . S
C1155 H1143 0.959 . S
C1155 C1153 1.561 . S
C1156 C1153 1.526 . S
C1156 C1157 1.396 1_556 S
C1156 C1161 1.390 . S
C1157 C1151 1.465 . S
C1157 C1156 1.396 1_554 S
C1157 C1158 1.399 . S
C1158 H1144 0.929 . S
C1158 C1157 1.399 . S
C1158 C1159 1.385 . S
C1159 H1145 0.931 . S
C1159 C1158 1.385 . S
C1159 C1160 1.389 . S
C1160 C1159 1.389 . S
C1160 C1161 1.387 1_554 S
C1161 H1146 0.930 . S
C1161 C1156 1.390 . S
C1161 C1160 1.387 1_556 S
H1162 C1174 0.930 . S
H1163 C1176 0.930 . S
H1164 C1177 0.930 . S
H1165 C1181 0.959 . S
H1166 C1181 0.959 . S
H1167 C1181 0.961 . S
H1168 C1182 0.960 . S
H1169 C1182 0.961 . S
H1170 C1182 0.959 . S
H1171 C1185 0.929 . S
H1172 C1186 0.931 . S
H1173 C1188 0.930 . S
C1174 H1162 0.930 . S
C1174 C1175 1.399 . S
C1174 C1179 1.399 . S
C1175 C1174 1.399 . S
C1175 C1176 1.376 . S
C1176 H1163 0.930 . S
C1176 C1175 1.376 . S
C1176 C1177 1.388 . S
C1177 H1164 0.930 . S
C1177 C1176 1.388 . S
C1177 C1178 1.390 . S
C1178 C1177 1.390 . S
C1178 C1179 1.394 . S
C1178 C1184 1.465 . S
C1179 C1174 1.399 . S
C1179 C1178 1.394 . S
C1179 C1180 1.516 . S
C1180 C1179 1.516 . S
C1180 C1181 1.502 . S
C1180 C1182 1.561 . S
C1180 C1183 1.526 . S
C1181 H1165 0.959 . S
C1181 H1166 0.959 . S
C1181 H1167 0.961 . S
C1181 C1180 1.502 . S
C1182 H1168 0.960 . S
C1182 H1169 0.961 . S
C1182 H1170 0.959 . S
C1182 C1180 1.561 . S
C1183 C1180 1.526 . S
C1183 C1184 1.396 . S
C1183 C1188 1.390 . S
C1184 C1178 1.465 . S
C1184 C1183 1.396 . S
C1184 C1185 1.399 . S
C1185 H1171 0.929 . S
C1185 C1184 1.399 . S
C1185 C1186 1.385 . S
C1186 H1172 0.931 . S
C1186 C1185 1.385 . S
C1186 C1187 1.389 . S
C1187 C1186 1.389 . S
C1187 C1188 1.387 . S
C1188 H1173 0.930 . S
C1188 C1183 1.390 . S
C1188 C1187 1.387 . S
H1189 C1201 0.930 . S
H1190 C1203 0.930 . S
H1191 C1204 0.930 . S
H1192 C1208 0.959 . S
H1193 C1208 0.959 . S
H1194 C1208 0.961 . S
H1195 C1209 0.960 . S
H1196 C1209 0.961 . S
H1197 C1209 0.959 . S
H1198 C1212 0.929 . S
H1199 C1213 0.931 . S
H1200 C1215 0.930 . S
C1201 H1189 0.930 . S
C1201 C1202 1.399 1_556 S
C1201 C1206 1.399 . S
C1202 C1201 1.399 1_554 S
C1202 C1203 1.376 . S
C1203 H1190 0.930 . S
C1203 C1202 1.376 . S
C1203 C1204 1.388 . S
C1204 H1191 0.930 . S
C1204 C1203 1.388 . S
C1204 C1205 1.390 . S
C1205 C1204 1.390 . S
C1205 C1206 1.394 1_554 S
C1205 C1211 1.465 . S
C1206 C1201 1.399 . S
C1206 C1205 1.394 1_556 S
C1206 C1207 1.516 . S
C1207 C1206 1.516 . S
C1207 C1208 1.502 . S
C1207 C1209 1.561 . S
C1207 C1210 1.526 . S
C1208 H1192 0.959 . S
C1208 H1193 0.959 . S
C1208 H1194 0.961 . S
C1208 C1207 1.502 . S
C1209 H1195 0.960 . S
C1209 H1196 0.961 . S
C1209 H1197 0.959 . S
C1209 C1207 1.561 . S
C1210 C1207 1.526 . S
C1210 C1211 1.396 1_556 S
C1210 C1215 1.390 . S
C1211 C1205 1.465 . S
C1211 C1210 1.396 1_554 S
C1211 C1212 1.399 . S
C1212 H1198 0.929 . S
C1212 C1211 1.399 . S
C1212 C1213 1.385 . S
C1213 H1199 0.931 . S
C1213 C1212 1.385 . S
C1213 C1214 1.389 . S
C1214 C1213 1.389 . S
C1214 C1215 1.387 1_554 S
C1215 H1200 0.930 . S
C1215 C1210 1.390 . S
C1215 C1214 1.387 1_556 S
C581 C21 1.640 . S
C593 C269 1.542 . S
C608 C40 1.728 . S
C620 C89 1.661 . S
C647 C168 1.434 . S
C635 C54 1.595 . S
C662 C73 1.766 . S
C674 C228 1.661 . S
C701 C389 1.434 . S
C689 C74 1.595 . S
C728 C468 1.643 . S
C716 C10 1.734 . S
C755 C539 1.621 . S
C743 C37 1.624 . S
C782 C329 1.703 . S
C770 C65 1.771 . S
C797 C52 1.607 . S
C809 C179 1.495 . S
C824 C87 1.776 . S
C836 C209 1.636 . S
C851 C15 1.639 . S
C863 C288 1.544 . S
C890 C108 1.694 . S
C878 C32 1.736 . S
C905 C29 1.641 . S
C917 C528 1.606 . S
C944 C348 1.768 . S
C932 C59 1.777 . S
C971 C408 1.520 . S
C959 C84 1.603 . S
C986 C8 1.720 . S
C998 C449 1.586 . S
C1025 C119 1.827 1_554 S
C1013 C7 1.844 . S
C1052 C149 1.600 . S
C1040 C30 1.667 . S
C1067 C62 1.867 1_556 S
C1079 C239 1.707 1_556 S
C1094 C81 1.637 . S
C1106 C299 1.614 . S
C1133 C359 1.801 . S
C1121 C76 1.864 . S
C1148 C18 1.667 1_554 S
C1160 C419 1.602 . S
C1175 C43 1.844 . S
C1187 C479 1.714 . S
C1202 C51 1.638 1_554 S
C1214 C509 1.687 1_554 S
