# Generated by pormake.
# Topology llk, (3,12)-cn, num edge types: 1
# Building blocks:
#     Node 0, Type 0, BuildingBlock: BETDAH_clean_linker_0, # of connection points: 3
#     Node 1, Type 0, BuildingBlock: BETDAH_clean_linker_0, # of connection points: 3
#     Node 2, Type 0, BuildingBlock: BETDAH_clean_linker_0, # of connection points: 3
#     Node 3, Type 0, BuildingBlock: BETDAH_clean_linker_0, # of connection points: 3
#     Node 4, Type 0, BuildingBlock: BETDAH_clean_linker_0, # of connection points: 3
#     Node 5, Type 0, BuildingBlock: BETDAH_clean_linker_0, # of connection points: 3
#     Node 6, Type 0, BuildingBlock: BETDAH_clean_linker_0, # of connection points: 3
#     Node 7, Type 0, BuildingBlock: BETDAH_clean_linker_0, # of connection points: 3
#     Node 8, Type 0, BuildingBlock: BETDAH_clean_linker_0, # of connection points: 3
#     Node 9, Type 0, BuildingBlock: BETDAH_clean_linker_0, # of connection points: 3
#     Node 10, Type 0, BuildingBlock: BETDAH_clean_linker_0, # of connection points: 3
#     Node 11, Type 0, BuildingBlock: BETDAH_clean_linker_0, # of connection points: 3
#     Node 12, Type 0, BuildingBlock: BETDAH_clean_linker_0, # of connection points: 3
#     Node 13, Type 0, BuildingBlock: BETDAH_clean_linker_0, # of connection points: 3
#     Node 14, Type 0, BuildingBlock: BETDAH_clean_linker_0, # of connection points: 3
#     Node 15, Type 0, BuildingBlock: BETDAH_clean_linker_0, # of connection points: 3
#     Node 16, Type 0, BuildingBlock: BETDAH_clean_linker_0, # of connection points: 3
#     Node 17, Type 0, BuildingBlock: BETDAH_clean_linker_0, # of connection points: 3
#     Node 18, Type 0, BuildingBlock: BETDAH_clean_linker_0, # of connection points: 3
#     Node 19, Type 0, BuildingBlock: BETDAH_clean_linker_0, # of connection points: 3
#     Node 20, Type 0, BuildingBlock: BETDAH_clean_linker_0, # of connection points: 3
#     Node 21, Type 0, BuildingBlock: BETDAH_clean_linker_0, # of connection points: 3
#     Node 22, Type 0, BuildingBlock: BETDAH_clean_linker_0, # of connection points: 3
#     Node 23, Type 0, BuildingBlock: BETDAH_clean_linker_0, # of connection points: 3
#     Node 24, Type 1, BuildingBlock: EZIPEK_clean_sbu_0, # of connection points: 12
#     Node 25, Type 1, BuildingBlock: EZIPEK_clean_sbu_0, # of connection points: 12
#     Node 26, Type 1, BuildingBlock: EZIPEK_clean_sbu_0, # of connection points: 12
#     Node 27, Type 1, BuildingBlock: EZIPEK_clean_sbu_0, # of connection points: 12
#     Node 28, Type 1, BuildingBlock: EZIPEK_clean_sbu_0, # of connection points: 12
#     Node 29, Type 1, BuildingBlock: EZIPEK_clean_sbu_0, # of connection points: 12
#     Edge 30, Type (0, 1), BuildingBlock: EZIPEK_clean_linker_0, # of connection points: 2
#     Edge 31, Type (0, 1), BuildingBlock: EZIPEK_clean_linker_0, # of connection points: 2
#     Edge 32, Type (0, 1), BuildingBlock: EZIPEK_clean_linker_0, # of connection points: 2
#     Edge 33, Type (0, 1), BuildingBlock: EZIPEK_clean_linker_0, # of connection points: 2
#     Edge 34, Type (0, 1), BuildingBlock: EZIPEK_clean_linker_0, # of connection points: 2
#     Edge 35, Type (0, 1), BuildingBlock: EZIPEK_clean_linker_0, # of connection points: 2
#     Edge 36, Type (0, 1), BuildingBlock: EZIPEK_clean_linker_0, # of connection points: 2
#     Edge 37, Type (0, 1), BuildingBlock: EZIPEK_clean_linker_0, # of connection points: 2
#     Edge 38, Type (0, 1), BuildingBlock: EZIPEK_clean_linker_0, # of connection points: 2
#     Edge 39, Type (0, 1), BuildingBlock: EZIPEK_clean_linker_0, # of connection points: 2
#     Edge 40, Type (0, 1), BuildingBlock: EZIPEK_clean_linker_0, # of connection points: 2
#     Edge 41, Type (0, 1), BuildingBlock: EZIPEK_clean_linker_0, # of connection points: 2
#     Edge 42, Type (0, 1), BuildingBlock: EZIPEK_clean_linker_0, # of connection points: 2
#     Edge 43, Type (0, 1), BuildingBlock: EZIPEK_clean_linker_0, # of connection points: 2
#     Edge 44, Type (0, 1), BuildingBlock: EZIPEK_clean_linker_0, # of connection points: 2
#     Edge 45, Type (0, 1), BuildingBlock: EZIPEK_clean_linker_0, # of connection points: 2
#     Edge 46, Type (0, 1), BuildingBlock: EZIPEK_clean_linker_0, # of connection points: 2
#     Edge 47, Type (0, 1), BuildingBlock: EZIPEK_clean_linker_0, # of connection points: 2
#     Edge 48, Type (0, 1), BuildingBlock: EZIPEK_clean_linker_0, # of connection points: 2
#     Edge 49, Type (0, 1), BuildingBlock: EZIPEK_clean_linker_0, # of connection points: 2
#     Edge 50, Type (0, 1), BuildingBlock: EZIPEK_clean_linker_0, # of connection points: 2
#     Edge 51, Type (0, 1), BuildingBlock: EZIPEK_clean_linker_0, # of connection points: 2
#     Edge 52, Type (0, 1), BuildingBlock: EZIPEK_clean_linker_0, # of connection points: 2
#     Edge 53, Type (0, 1), BuildingBlock: EZIPEK_clean_linker_0, # of connection points: 2
#     Edge 54, Type (0, 1), BuildingBlock: EZIPEK_clean_linker_0, # of connection points: 2
#     Edge 55, Type (0, 1), BuildingBlock: EZIPEK_clean_linker_0, # of connection points: 2
#     Edge 56, Type (0, 1), BuildingBlock: EZIPEK_clean_linker_0, # of connection points: 2
#     Edge 57, Type (0, 1), BuildingBlock: EZIPEK_clean_linker_0, # of connection points: 2
#     Edge 58, Type (0, 1), BuildingBlock: EZIPEK_clean_linker_0, # of connection points: 2
#     Edge 59, Type (0, 1), BuildingBlock: EZIPEK_clean_linker_0, # of connection points: 2
#     Edge 60, Type (0, 1), BuildingBlock: EZIPEK_clean_linker_0, # of connection points: 2
#     Edge 61, Type (0, 1), BuildingBlock: EZIPEK_clean_linker_0, # of connection points: 2
#     Edge 62, Type (0, 1), BuildingBlock: EZIPEK_clean_linker_0, # of connection points: 2
#     Edge 63, Type (0, 1), BuildingBlock: EZIPEK_clean_linker_0, # of connection points: 2
#     Edge 64, Type (0, 1), BuildingBlock: EZIPEK_clean_linker_0, # of connection points: 2
#     Edge 65, Type (0, 1), BuildingBlock: EZIPEK_clean_linker_0, # of connection points: 2
#     Edge 66, Type (0, 1), BuildingBlock: EZIPEK_clean_linker_0, # of connection points: 2
#     Edge 67, Type (0, 1), BuildingBlock: EZIPEK_clean_linker_0, # of connection points: 2
#     Edge 68, Type (0, 1), BuildingBlock: EZIPEK_clean_linker_0, # of connection points: 2
#     Edge 69, Type (0, 1), BuildingBlock: EZIPEK_clean_linker_0, # of connection points: 2
#     Edge 70, Type (0, 1), BuildingBlock: EZIPEK_clean_linker_0, # of connection points: 2
#     Edge 71, Type (0, 1), BuildingBlock: EZIPEK_clean_linker_0, # of connection points: 2
#     Edge 72, Type (0, 1), BuildingBlock: EZIPEK_clean_linker_0, # of connection points: 2
#     Edge 73, Type (0, 1), BuildingBlock: EZIPEK_clean_linker_0, # of connection points: 2
#     Edge 74, Type (0, 1), BuildingBlock: EZIPEK_clean_linker_0, # of connection points: 2
#     Edge 75, Type (0, 1), BuildingBlock: EZIPEK_clean_linker_0, # of connection points: 2
#     Edge 76, Type (0, 1), BuildingBlock: EZIPEK_clean_linker_0, # of connection points: 2
#     Edge 77, Type (0, 1), BuildingBlock: EZIPEK_clean_linker_0, # of connection points: 2
#     Edge 78, Type (0, 1), BuildingBlock: EZIPEK_clean_linker_0, # of connection points: 2
#     Edge 79, Type (0, 1), BuildingBlock: EZIPEK_clean_linker_0, # of connection points: 2
#     Edge 80, Type (0, 1), BuildingBlock: EZIPEK_clean_linker_0, # of connection points: 2
#     Edge 81, Type (0, 1), BuildingBlock: EZIPEK_clean_linker_0, # of connection points: 2
#     Edge 82, Type (0, 1), BuildingBlock: EZIPEK_clean_linker_0, # of connection points: 2
#     Edge 83, Type (0, 1), BuildingBlock: EZIPEK_clean_linker_0, # of connection points: 2
#     Edge 84, Type (0, 1), BuildingBlock: EZIPEK_clean_linker_0, # of connection points: 2
#     Edge 85, Type (0, 1), BuildingBlock: EZIPEK_clean_linker_0, # of connection points: 2
#     Edge 86, Type (0, 1), BuildingBlock: EZIPEK_clean_linker_0, # of connection points: 2
#     Edge 87, Type (0, 1), BuildingBlock: EZIPEK_clean_linker_0, # of connection points: 2
#     Edge 88, Type (0, 1), BuildingBlock: EZIPEK_clean_linker_0, # of connection points: 2
#     Edge 89, Type (0, 1), BuildingBlock: EZIPEK_clean_linker_0, # of connection points: 2
#     Edge 90, Type (0, 1), BuildingBlock: EZIPEK_clean_linker_0, # of connection points: 2
#     Edge 91, Type (0, 1), BuildingBlock: EZIPEK_clean_linker_0, # of connection points: 2
#     Edge 92, Type (0, 1), BuildingBlock: EZIPEK_clean_linker_0, # of connection points: 2
#     Edge 93, Type (0, 1), BuildingBlock: EZIPEK_clean_linker_0, # of connection points: 2
#     Edge 94, Type (0, 1), BuildingBlock: EZIPEK_clean_linker_0, # of connection points: 2
#     Edge 95, Type (0, 1), BuildingBlock: EZIPEK_clean_linker_0, # of connection points: 2
#     Edge 96, Type (0, 1), BuildingBlock: EZIPEK_clean_linker_0, # of connection points: 2
#     Edge 97, Type (0, 1), BuildingBlock: EZIPEK_clean_linker_0, # of connection points: 2
#     Edge 98, Type (0, 1), BuildingBlock: EZIPEK_clean_linker_0, # of connection points: 2
#     Edge 99, Type (0, 1), BuildingBlock: EZIPEK_clean_linker_0, # of connection points: 2
#     Edge 100, Type (0, 1), BuildingBlock: EZIPEK_clean_linker_0, # of connection points: 2
#     Edge 101, Type (0, 1), BuildingBlock: EZIPEK_clean_linker_0, # of connection points: 2
# Relax obj value: 0.071
# Max RMSD: 0.165
# Mean RMSD: 0.122
data_MOF--net-llk--node1-EZIPEK_clean_sbu_0--node2-BETDAH_clean_linker_0--edge1-EZIPEK_clean_linker_0
_symmetry_space_group_name_H-M    P1
_symmetry_Int_Tables_number       1
_symmetry_cell_setting            triclinic
loop_
_symmetry_equiv_pos_as_xyz
'x, y, z'
_cell_length_a     35.652014
_cell_length_b     35.98951
_cell_length_c     36.226676
_cell_angle_alpha  89.996099
_cell_angle_beta   90.02108
_cell_angle_gamma 90.030991
loop_
_atom_site_label
_atom_site_type_symbol
_atom_site_fract_x
_atom_site_fract_y
_atom_site_fract_z
_atom_type_partial_charge
H0 H 0.02082 0.25022 0.3697 0.0
H1 H 0.02056 0.31404 0.26973 0.0
H2 H 0.01842 0.19418 0.26477 0.0
C3 C 0.02088 0.25115 0.33976 0.0
C4 C 0.01982 0.21802 0.31957 0.0
C5 C 0.02091 0.28554 0.32178 0.0
C6 C 0.02063 0.28715 0.28316 0.0
C7 C 0.02011 0.25423 0.26223 0.0
C8 C 0.01946 0.21966 0.28065 0.0
N9 N 0.0198 0.2551 0.2229 0.0
C10 C 0.01883 0.28767 0.2019 0.0
H11 H 0.65631 0.00292 0.25742 0.0
H12 H 0.75826 0.00491 0.32015 0.0
H13 H 0.76242 0.01129 0.20133 0.0
C14 C 0.6867 0.0042 0.25824 0.0
C15 C 0.70704 0.00713 0.2253 0.0
C16 C 0.70524 0.00333 0.29229 0.0
C17 C 0.74446 0.00509 0.29353 0.0
C18 C 0.76543 0.00762 0.26076 0.0
C19 C 0.74649 0.00895 0.2267 0.0
N20 N 0.80533 0.0089 0.26119 0.0
C21 C 0.82688 0.00821 0.29334 0.0
H22 H 0.02025 0.64186 0.25579 0.0
H23 H 0.01585 0.742 0.31989 0.0
H24 H 0.01317 0.74763 0.20091 0.0
C25 C 0.01912 0.67196 0.25702 0.0
C26 C 0.01684 0.69246 0.22428 0.0
C27 C 0.01834 0.68976 0.2914 0.0
C28 C 0.01655 0.72863 0.29312 0.0
C29 C 0.01528 0.74988 0.26055 0.0
C30 C 0.01499 0.73155 0.22613 0.0
N31 N 0.01366 0.78944 0.26159 0.0
C32 C 0.01563 0.8105 0.29394 0.0
H33 H 0.26672 0.00595 0.36944 0.0
H34 H 0.32949 0.00983 0.26853 0.0
H35 H 0.20838 0.00715 0.26553 0.0
C36 C 0.26725 0.00675 0.3395 0.0
C37 C 0.23359 0.00643 0.31976 0.0
C38 C 0.30162 0.00805 0.32103 0.0
C39 C 0.30259 0.00894 0.28239 0.0
C40 C 0.26891 0.00857 0.26205 0.0
C41 C 0.23442 0.00742 0.28096 0.0
N42 N 0.26885 0.00924 0.2228 0.0
C43 C 0.30123 0.00824 0.20127 0.0
H44 H 0.01896 0.75319 0.64906 0.0
H45 H 0.02466 0.68915 0.74878 0.0
H46 H 0.02784 0.80895 0.75375 0.0
C47 C 0.02067 0.75215 0.67895 0.0
C48 C 0.02333 0.78519 0.69911 0.0
C49 C 0.02135 0.7177 0.69683 0.0
C50 C 0.02386 0.71605 0.7354 0.0
C51 C 0.02561 0.74897 0.75631 0.0
C52 C 0.02578 0.7835 0.73791 0.0
N53 N 0.02752 0.74824 0.79559 0.0
C54 C 0.02712 0.71584 0.8168 0.0
H55 H 0.26652 0.00244 0.64925 0.0
H56 H 0.33009 0.01603 0.74888 0.0
H57 H 0.20944 0.02423 0.75163 0.0
C58 C 0.26733 0.00722 0.6788 0.0
C59 C 0.23386 0.01221 0.69838 0.0
C60 C 0.30188 0.00883 0.6971 0.0
C61 C 0.30311 0.01506 0.73522 0.0
C62 C 0.26985 0.02119 0.7551 0.0
C63 C 0.23522 0.01959 0.7365 0.0
N64 N 0.27041 0.02988 0.79339 0.0
C65 C 0.30239 0.02817 0.81552 0.0
H66 H 0.01656 0.3634 0.76036 0.0
H67 H 0.00988 0.26275 0.69738 0.0
H68 H 0.01642 0.25781 0.81619 0.0
C69 C 0.01559 0.33328 0.75949 0.0
C70 C 0.0167 0.31293 0.79242 0.0
C71 C 0.01331 0.31514 0.72539 0.0
C72 C 0.01178 0.2763 0.724 0.0
C73 C 0.01275 0.25532 0.75671 0.0
C74 C 0.01544 0.27382 0.79088 0.0
N75 N 0.01088 0.21582 0.75608 0.0
C76 C 0.01145 0.19454 0.72388 0.0
H77 H 0.76814 0.99838 0.65107 0.0
H78 H 0.70534 0.99826 0.75205 0.0
H79 H 0.82639 0.99606 0.75507 0.0
C80 C 0.76759 0.99792 0.68101 0.0
C81 C 0.80125 0.9971 0.70079 0.0
C82 C 0.73323 0.99818 0.69955 0.0
C83 C 0.73225 0.99782 0.73819 0.0
C84 C 0.76588 0.99713 0.75855 0.0
C85 C 0.80036 0.99663 0.73962 0.0
N86 N 0.76587 0.99712 0.79782 0.0
C87 C 0.73343 0.99864 0.81926 0.0
H88 H 0.3764 0.25277 0.00766 0.0
H89 H 0.27259 0.31251 0.01452 0.0
H90 H 0.27264 0.19265 0.01867 0.0
C91 C 0.34607 0.25262 0.01005 0.0
C92 C 0.32686 0.2188 0.01302 0.0
C93 C 0.32644 0.28627 0.01056 0.0
C94 C 0.28728 0.2862 0.01391 0.0
C95 C 0.26754 0.25237 0.01662 0.0
C96 C 0.28758 0.21877 0.01626 0.0
N97 N 0.22779 0.25129 0.01989 0.0
C98 C 0.20537 0.28295 0.02018 0.0
H99 H 0.37472 0.75308 0.01564 0.0
H100 H 0.27276 0.69114 0.02813 0.0
H101 H 0.26935 0.81092 0.02268 0.0
C102 C 0.34443 0.75255 0.01838 0.0
C103 C 0.32433 0.78594 0.01916 0.0
C104 C 0.32579 0.7185 0.02166 0.0
C105 C 0.28671 0.71775 0.02546 0.0
C106 C 0.26597 0.75103 0.02517 0.0
C107 C 0.28504 0.78514 0.02244 0.0
N108 N 0.22613 0.75086 0.02726 0.0
C109 C 0.20497 0.71838 0.02531 0.0
H110 H 0.76594 0.36094 0.01958 0.0
H111 H 0.70458 0.2585 0.01524 0.0
H112 H 0.82566 0.25746 0.01244 0.0
C113 C 0.76578 0.3308 0.01875 0.0
C114 C 0.79969 0.31146 0.01662 0.0
C115 C 0.73161 0.31172 0.01809 0.0
C116 C 0.73127 0.27284 0.01613 0.0
C117 C 0.76527 0.25295 0.01424 0.0
C118 C 0.79942 0.2725 0.01449 0.0
N119 N 0.76601 0.2136 0.01098 0.0
C120 C 0.73398 0.19147 0.0105 0.0
H121 H 0.76716 0.64299 0.0231 0.0
H122 H 0.70487 0.7448 0.02323 0.0
H123 H 0.82592 0.74749 0.02285 0.0
C124 C 0.76679 0.67312 0.02396 0.0
C125 C 0.80062 0.69294 0.02365 0.0
C126 C 0.73247 0.69188 0.02359 0.0
C127 C 0.73173 0.73075 0.0238 0.0
C128 C 0.76546 0.75114 0.02389 0.0
C129 C 0.79985 0.73201 0.02372 0.0
N130 N 0.76558 0.79065 0.02309 0.0
C131 C 0.73301 0.81192 0.02116 0.0
H132 H 0.5165 0.7538 0.86718 0.0
H133 H 0.51668 0.8138 0.76502 0.0
H134 H 0.53168 0.69481 0.76497 0.0
C135 C 0.51858 0.75374 0.8373 0.0
C136 C 0.52375 0.72009 0.81857 0.0
C137 C 0.51675 0.78744 0.81817 0.0
C138 C 0.51861 0.78756 0.77952 0.0
C139 C 0.52394 0.75414 0.76003 0.0
C140 C 0.52707 0.72056 0.77979 0.0
N141 N 0.52647 0.75346 0.7208 0.0
C142 C 0.52521 0.78508 0.69853 0.0
H143 H 0.15574 0.51068 0.75989 0.0
H144 H 0.25888 0.51617 0.82054 0.0
H145 H 0.26036 0.52158 0.70155 0.0
C146 C 0.18607 0.51298 0.76005 0.0
C147 C 0.20561 0.51609 0.72665 0.0
C148 C 0.20539 0.51308 0.79369 0.0
C149 C 0.24451 0.516 0.7942 0.0
C150 C 0.26469 0.51883 0.76097 0.0
C151 C 0.24502 0.51918 0.72726 0.0
N152 N 0.30454 0.5213 0.76068 0.0
C153 C 0.32655 0.5201 0.7925 0.0
H154 H 0.50892 0.1407 0.76075 0.0
H155 H 0.5085 0.24294 0.82143 0.0
H156 H 0.50552 0.2448 0.70235 0.0
C157 C 0.50769 0.17082 0.76093 0.0
C158 C 0.50715 0.19033 0.72745 0.0
C159 C 0.50813 0.18982 0.79465 0.0
C160 C 0.50741 0.22872 0.79513 0.0
C161 C 0.50564 0.24885 0.76189 0.0
C162 C 0.50584 0.22945 0.72808 0.0
N163 N 0.50411 0.28838 0.76156 0.0
C164 C 0.50585 0.31064 0.79309 0.0
H165 H 0.76949 0.49068 0.86832 0.0
H166 H 0.82971 0.49583 0.76597 0.0
H167 H 0.70865 0.49296 0.76573 0.0
C168 C 0.76927 0.49094 0.83837 0.0
C169 C 0.73505 0.49094 0.8194 0.0
C170 C 0.8032 0.49279 0.81909 0.0
C171 C 0.80319 0.49405 0.78045 0.0
C172 C 0.76908 0.49384 0.76086 0.0
C173 C 0.73505 0.49232 0.78056 0.0
N174 N 0.76813 0.49611 0.72165 0.0
C175 C 0.8 0.49785 0.69936 0.0
H176 H 0.51629 0.25137 0.14752 0.0
H177 H 0.51668 0.19016 0.24915 0.0
H178 H 0.50618 0.30962 0.25073 0.0
C179 C 0.51503 0.25108 0.17744 0.0
C180 C 0.51174 0.28456 0.19677 0.0
C181 C 0.5166 0.21719 0.19631 0.0
C182 C 0.51516 0.2166 0.23498 0.0
C183 C 0.51087 0.24985 0.25492 0.0
C184 C 0.50931 0.28384 0.2356 0.0
N185 N 0.50755 0.24993 0.29411 0.0
C186 C 0.50906 0.21818 0.31629 0.0
H187 H 0.76352 0.49657 0.1491 0.0
H188 H 0.82893 0.49566 0.2485 0.0
H189 H 0.70803 0.49189 0.25443 0.0
C190 C 0.76488 0.4955 0.179 0.0
C191 C 0.73173 0.49418 0.1996 0.0
C192 C 0.79978 0.49607 0.19665 0.0
C193 C 0.80169 0.49508 0.23527 0.0
C194 C 0.76862 0.49328 0.25643 0.0
C195 C 0.73364 0.49291 0.23837 0.0
N196 N 0.76972 0.49199 0.29568 0.0
C197 C 0.80276 0.49367 0.31621 0.0
H198 H 0.51701 0.86309 0.25881 0.0
H199 H 0.51231 0.76108 0.19787 0.0
H200 H 0.50966 0.75905 0.31695 0.0
C201 C 0.51577 0.83297 0.25855 0.0
C202 C 0.51385 0.81347 0.29196 0.0
C203 C 0.51474 0.81408 0.22477 0.0
C204 C 0.51289 0.77521 0.22423 0.0
C205 C 0.51129 0.75499 0.2574 0.0
C206 C 0.51149 0.77436 0.29126 0.0
N207 N 0.50878 0.71547 0.25749 0.0
C208 C 0.51008 0.69341 0.22577 0.0
H209 H 0.26468 0.49285 0.15119 0.0
H210 H 0.20478 0.49357 0.25379 0.0
H211 H 0.32594 0.49383 0.2535 0.0
C212 C 0.265 0.49275 0.18115 0.0
C213 C 0.29926 0.4928 0.19995 0.0
C214 C 0.23113 0.4933 0.20054 0.0
C215 C 0.23129 0.49331 0.2392 0.0
C216 C 0.26553 0.49342 0.25862 0.0
C217 C 0.29948 0.49325 0.23878 0.0
N218 N 0.26665 0.49418 0.29787 0.0
C219 C 0.2347 0.49476 0.32001 0.0
H220 H 0.87664 0.75285 0.50524 0.0
H221 H 0.77284 0.81264 0.4987 0.0
H222 H 0.77192 0.69373 0.51329 0.0
C223 C 0.84621 0.75279 0.50528 0.0
C224 C 0.8267 0.71922 0.50922 0.0
C225 C 0.82672 0.78633 0.50174 0.0
C226 C 0.78744 0.78641 0.50155 0.0
C227 C 0.76737 0.75303 0.50595 0.0
C228 C 0.78721 0.71954 0.5099 0.0
N229 N 0.72748 0.75246 0.50681 0.0
C230 C 0.70572 0.78458 0.50613 0.0
H231 H 0.87662 0.25249 0.50477 0.0
H232 H 0.77487 0.19019 0.4927 0.0
H233 H 0.77148 0.31007 0.49295 0.0
C234 C 0.84642 0.25193 0.50116 0.0
C235 C 0.82635 0.2853 0.49893 0.0
C236 C 0.82775 0.21784 0.49913 0.0
C237 C 0.78879 0.21689 0.49444 0.0
C238 C 0.76817 0.25019 0.49206 0.0
C239 C 0.78717 0.28433 0.49448 0.0
N240 N 0.72855 0.25011 0.48746 0.0
C241 C 0.7071 0.21777 0.48786 0.0
H242 H 0.26621 0.86062 0.49515 0.0
H243 H 0.20537 0.75787 0.49737 0.0
H244 H 0.32643 0.75707 0.49454 0.0
C245 C 0.26623 0.83048 0.49448 0.0
C246 C 0.30037 0.81125 0.49413 0.0
C247 C 0.23217 0.81124 0.49591 0.0
C248 C 0.23198 0.77234 0.49596 0.0
C249 C 0.266 0.7525 0.49496 0.0
C250 C 0.30014 0.77216 0.49422 0.0
N251 N 0.26674 0.713 0.49572 0.0
C252 C 0.23469 0.69098 0.49838 0.0
H253 H 0.27033 0.14384 0.49695 0.0
H254 H 0.20592 0.24442 0.50039 0.0
H255 H 0.32687 0.2491 0.50417 0.0
C256 C 0.26926 0.17397 0.4975 0.0
C257 C 0.30259 0.19427 0.50021 0.0
C258 C 0.23446 0.192 0.49772 0.0
C259 C 0.23302 0.23086 0.49959 0.0
C260 C 0.26641 0.25177 0.50138 0.0
C261 C 0.30113 0.23325 0.50179 0.0
N262 N 0.26591 0.29118 0.50397 0.0
C263 C 0.23303 0.31192 0.50613 0.0
C264 C 0.01871 0.91142 0.59977 0.0
C265 C 0.01772 0.91076 0.41951 0.0
C266 C 0.01602 0.09103 0.60075 0.0
C267 C 0.01779 0.09215 0.41996 0.0
C268 C 0.92651 0.09206 0.5095 0.0
C269 C 0.92388 0.91354 0.50397 0.0
C270 C 0.10944 0.08985 0.50544 0.0
C271 C 0.10614 0.9104 0.50791 0.0
C272 C 0.10909 1.00093 0.4215 0.0
C273 C 0.92656 0.00537 0.41893 0.0
C274 C 0.10676 0.00402 0.59995 0.0
C275 C 0.92594 0.99857 0.59927 0.0
Eu276 Eu 0.01559 0.93075 0.50942 0.0
O277 O 0.98319 0.96894 0.47638 0.0
O278 O 0.0492 0.96776 0.54246 0.0
Eu279 Eu 0.94579 0.0025 0.50907 0.0
Eu280 Eu 0.08738 1.00054 0.51001 0.0
O281 O 0.98243 0.96845 0.54229 0.0
O282 O 0.0494 0.96813 0.47691 0.0
Eu283 Eu 0.01621 1.00123 0.5795 0.0
Eu284 Eu 0.01713 1.0016 0.43937 0.0
O285 O 0.98378 0.03512 0.54224 0.0
O286 O 0.98475 0.03507 0.4771 0.0
O287 O 0.05021 0.03413 0.47727 0.0
O288 O 0.05057 0.03433 0.54314 0.0
Eu289 Eu 0.01811 0.0725 0.51023 0.0
O290 O 0.01524 0.89993 0.56472 0.0
O291 O 0.02068 0.89988 0.45467 0.0
O292 O 0.02213 0.10245 0.56603 0.0
O293 O 0.01934 0.10343 0.45518 0.0
O294 O 0.91461 0.057 0.50996 0.0
O295 O 0.91319 0.94899 0.5038 0.0
O296 O 0.11957 0.05425 0.50376 0.0
O297 O 0.11793 0.94556 0.50796 0.0
O298 O 0.07361 0.00209 0.40945 0.0
O299 O 0.96221 0.00298 0.408 0.0
O300 O 0.07111 0.00389 0.61105 0.0
O301 O 0.96145 0.99779 0.61068 0.0
O302 O 0.07436 0.10243 0.50905 0.0
O303 O 0.96226 0.10348 0.50993 0.0
O304 O 0.07054 0.89898 0.5095 0.0
O305 O 0.9592 0.90118 0.50593 0.0
O306 O 0.01414 0.94617 0.40864 0.0
O307 O 0.01591 0.05682 0.40864 0.0
O308 O 0.02112 0.94676 0.61065 0.0
O309 O 0.01 0.05576 0.61053 0.0
O310 O 0.9144 1.00048 0.56415 0.0
O311 O 0.91478 0.00646 0.45399 0.0
O312 O 0.11856 0.00248 0.56496 0.0
O313 O 0.12002 0.99965 0.45662 0.0
C314 C 0.51499 0.91057 0.09768 0.0
C315 C 0.51852 0.09054 0.09916 0.0
C316 C 0.51435 0.91238 0.91814 0.0
C317 C 0.5164 0.09174 0.91996 0.0
C318 C 0.60861 1.00049 0.92066 0.0
C319 C 0.60808 0.0037 0.09854 0.0
C320 C 0.42399 0.00935 0.92051 0.0
C321 C 0.42397 0.00243 0.09755 0.0
C322 C 0.42737 0.09283 0.01135 0.0
C323 C 0.60887 0.09022 0.00913 0.0
C324 C 0.42582 0.91092 0.00854 0.0
C325 C 0.60666 0.9104 0.01264 0.0
Eu326 Eu 0.5165 1.00085 0.07932 0.0
O327 O 0.55002 0.03376 0.04216 0.0
O328 O 0.48325 0.96854 0.04148 0.0
Eu329 Eu 0.58735 1.00068 0.00929 0.0
Eu330 Eu 0.44555 0.00207 0.00917 0.0
O331 O 0.5496 0.96766 0.04194 0.0
O332 O 0.48378 0.0345 0.04212 0.0
Eu333 Eu 0.51623 0.931 0.00831 0.0
Eu334 Eu 0.5176 0.07171 0.00937 0.0
O335 O 0.54962 0.9683 0.97552 0.0
O336 O 0.55 0.034 0.97613 0.0
O337 O 0.48388 0.03463 0.97663 0.0
O338 O 0.4825 0.96857 0.9757 0.0
Eu339 Eu 0.51604 1.00169 0.93857 0.0
O340 O 0.51768 0.94568 0.10929 0.0
O341 O 0.51959 0.05527 0.11044 0.0
O342 O 0.51049 0.94758 0.90742 0.0
O343 O 0.51593 0.05658 0.90834 0.0
O344 O 0.61954 1.00016 0.95579 0.0
O345 O 0.61906 0.00545 0.06339 0.0
O346 O 0.41388 0.01041 0.95589 0.0
O347 O 0.41301 0.00199 0.06245 0.0
O348 O 0.46305 0.10367 0.00913 0.0
O349 O 0.57346 0.10232 0.01015 0.0
O350 O 0.4614 0.89965 0.00797 0.0
O351 O 0.57106 0.89905 0.01138 0.0
O352 O 0.45931 0.00501 0.90835 0.0
O353 O 0.57298 1.00054 0.90855 0.0
O354 O 0.45964 0.00236 0.10949 0.0
O355 O 0.57248 1.00079 0.11 0.0
O356 O 0.51705 0.10211 0.06417 0.0
O357 O 0.51771 0.10316 0.95501 0.0
O358 O 0.5126 0.89954 0.06256 0.0
O359 O 0.5188 0.90091 0.95301 0.0
O360 O 0.61839 0.94562 0.01208 0.0
O361 O 0.61967 0.05478 0.00806 0.0
O362 O 0.4141 0.94633 0.00842 0.0
O363 O 0.41519 0.05771 0.01267 0.0
C364 C 0.01614 0.41078 0.09888 0.0
C365 C 0.01906 0.41069 0.91982 0.0
C366 C 0.0164 0.59237 0.09882 0.0
C367 C 0.02098 0.59202 0.91912 0.0
C368 C 0.92668 0.59226 0.01232 0.0
C369 C 0.92485 0.41324 0.00932 0.0
C370 C 0.10985 0.5906 0.01322 0.0
C371 C 0.10837 0.41088 0.01434 0.0
C372 C 0.10892 0.50216 0.92056 0.0
C373 C 0.92915 0.50224 0.9175 0.0
C374 C 0.10652 0.50014 0.1003 0.0
C375 C 0.9257 0.5013 0.09718 0.0
Eu376 Eu 0.01718 0.43083 0.00918 0.0
O377 O 0.98458 0.46856 0.9759 0.0
O378 O 0.04991 0.46846 0.04239 0.0
Eu379 Eu 0.9468 0.50225 0.00798 0.0
Eu380 Eu 0.08863 0.50115 0.01039 0.0
O381 O 0.98377 0.46882 0.04135 0.0
O382 O 0.05152 0.46804 0.97677 0.0
Eu383 Eu 0.01649 0.50156 0.0793 0.0
Eu384 Eu 0.01869 0.50155 0.93946 0.0
O385 O 0.98427 0.53485 0.04141 0.0
O386 O 0.98472 0.53547 0.97549 0.0
O387 O 0.05136 0.53453 0.97731 0.0
O388 O 0.05036 0.53459 0.04244 0.0
Eu389 Eu 0.0178 0.57259 0.00919 0.0
O390 O 0.01757 0.39961 0.06372 0.0
O391 O 0.02054 0.39939 0.95489 0.0
O392 O 0.01542 0.60379 0.06373 0.0
O393 O 0.01725 0.60338 0.95413 0.0
O394 O 0.91546 0.55686 0.01238 0.0
O395 O 0.91405 0.44862 0.00818 0.0
O396 O 0.1211 0.55527 0.01271 0.0
O397 O 0.11964 0.44623 0.01572 0.0
O398 O 0.07354 0.5011 0.90903 0.0
O399 O 0.96485 0.50258 0.90679 0.0
O400 O 0.07086 0.4994 0.11122 0.0
O401 O 0.96095 0.50287 0.10931 0.0
O402 O 0.07429 0.60249 0.01185 0.0
O403 O 0.96223 0.60393 0.01009 0.0
O404 O 0.07274 0.39968 0.0109 0.0
O405 O 0.96034 0.40093 0.00942 0.0
O406 O 0.01744 0.44615 0.90871 0.0
O407 O 0.0236 0.55654 0.90841 0.0
O408 O 0.01468 0.44616 0.11024 0.0
O409 O 0.01756 0.55694 0.11004 0.0
O410 O 0.91475 0.50029 0.06196 0.0
O411 O 0.91678 0.50243 0.95235 0.0
O412 O 0.11873 0.50149 0.06551 0.0
O413 O 0.12056 0.5021 0.95569 0.0
C414 C 0.51309 0.40983 0.09587 0.0
C415 C 0.51489 0.59028 0.10164 0.0
C416 C 0.51458 0.41557 0.91554 0.0
C417 C 0.52078 0.59529 0.92153 0.0
C418 C 0.60946 0.4973 0.92137 0.0
C419 C 0.6056 0.50012 0.09961 0.0
C420 C 0.42726 0.51164 0.91698 0.0
C421 C 0.42264 0.49736 0.09615 0.0
C422 C 0.42498 0.59236 0.015 0.0
C423 C 0.60609 0.5932 0.01182 0.0
C424 C 0.42464 0.413 1.00335 0.0
C425 C 0.60615 0.41219 0.01239 0.0
Eu426 Eu 0.51396 0.50059 0.07887 0.0
O427 O 0.5483 0.53453 0.04341 0.0
O428 O 0.48203 0.46871 0.0394 0.0
Eu429 Eu 0.58676 0.5025 0.01035 0.0
Eu430 Eu 0.44479 0.50269 0.00694 0.0
O431 O 0.54793 0.46877 0.04114 0.0
O432 O 0.48163 0.5347 0.04174 0.0
Eu433 Eu 0.51597 0.432 0.0063 0.0
Eu434 Eu 0.51583 0.57311 0.01102 0.0
O435 O 0.55003 0.47048 0.97547 0.0
O436 O 0.54994 0.5367 0.97771 0.0
O437 O 0.48353 0.53664 0.9761 0.0
O438 O 0.48341 0.47062 0.97403 0.0
Eu439 Eu 0.51772 0.50476 0.93856 0.0
O440 O 0.51192 0.4448 0.1082 0.0
O441 O 0.50786 0.55495 0.1107 0.0
O442 O 0.50784 0.45099 0.90687 0.0
O443 O 0.52725 0.5605 0.91041 0.0
O444 O 0.6198 0.49859 0.95682 0.0
O445 O 0.6176 0.50177 0.06483 0.0
O446 O 0.41473 0.50775 0.95158 0.0
O447 O 0.41217 0.49768 0.06071 0.0
O448 O 0.46057 0.60388 0.01559 0.0
O449 O 0.57059 0.60468 0.01127 0.0
O450 O 0.46022 0.40137 0.00397 0.0
O451 O 0.57083 0.40055 0.00878 0.0
O452 O 0.46325 0.5123 0.90664 0.0
O453 O 0.57412 0.49881 0.90893 0.0
O454 O 0.45789 0.49868 0.10853 0.0
O455 O 0.56969 0.49955 0.11055 0.0
O456 O 0.52169 0.6018 0.06716 0.0
O457 O 0.51246 0.60493 0.95631 0.0
O458 O 0.51487 0.39946 0.06041 0.0
O459 O 0.52215 0.40385 0.94982 0.0
O460 O 0.61757 0.4475 0.0139 0.0
O461 O 0.61779 0.55791 0.01135 0.0
O462 O 0.41308 0.44824 1.00329 0.0
O463 O 0.41335 0.55724 0.01188 0.0
C464 C 0.014 0.41325 0.59952 0.0
C465 C 0.01815 0.41038 0.42096 0.0
C466 C 0.01678 0.59349 0.59606 0.0
C467 C 0.01786 0.59042 0.41714 0.0
C468 C 0.9254 0.59162 0.51054 0.0
C469 C 0.92564 0.41178 0.50689 0.0
C470 C 0.10971 0.5896 0.50638 0.0
C471 C 0.10659 0.41039 0.51191 0.0
C472 C 0.10973 0.4988 0.42091 0.0
C473 C 0.92764 0.50101 0.41669 0.0
C474 C 0.10654 0.50731 0.59962 0.0
C475 C 0.9224 0.50209 0.59494 0.0
Eu476 Eu 0.01633 0.43146 0.50995 0.0
O477 O 0.98413 0.46833 0.47551 0.0
O478 O 0.04952 0.4687 0.54331 0.0
Eu479 Eu 0.9458 0.50187 0.50687 0.0
Eu480 Eu 0.08756 0.50096 0.51003 0.0
O481 O 0.98254 0.46952 0.54141 0.0
O482 O 0.05042 0.4679 0.47685 0.0
Eu483 Eu 0.01528 0.50297 0.57876 0.0
Eu484 Eu 0.0183 0.50057 0.43832 0.0
O485 O 0.98337 0.5352 0.53968 0.0
O486 O 0.98392 0.53458 0.47386 0.0
O487 O 0.0509 0.53394 0.47576 0.0
O488 O 0.04892 0.53487 0.54088 0.0
Eu489 Eu 0.01698 0.57236 0.50679 0.0
O490 O 0.01198 0.40133 0.5647 0.0
O491 O 0.01832 0.39963 0.45619 0.0
O492 O 0.01609 0.60421 0.56075 0.0
O493 O 0.01358 0.60232 0.45178 0.0
O494 O 0.91443 0.55626 0.51216 0.0
O495 O 0.91409 0.44706 0.50729 0.0
O496 O 0.12035 0.55426 0.50814 0.0
O497 O 0.11841 0.44563 0.51221 0.0
O498 O 0.07442 0.49797 0.40858 0.0
O499 O 0.96351 0.50014 0.40601 0.0
O500 O 0.07072 0.50472 0.6105 0.0
O501 O 0.95777 0.50356 0.60764 0.0
O502 O 0.0742 0.60202 0.50518 0.0
O503 O 0.96099 0.60318 0.50756 0.0
O504 O 0.07091 0.39922 0.51169 0.0
O505 O 0.96121 0.40036 0.50721 0.0
O506 O 0.01751 0.44528 0.4086 0.0
O507 O 0.02202 0.55501 0.40686 0.0
O508 O 0.01652 0.44864 0.6103 0.0
O509 O 0.01709 0.55847 0.60826 0.0
O510 O 0.91222 0.50096 0.55961 0.0
O511 O 0.91547 0.50244 0.45155 0.0
O512 O 0.11819 0.50762 0.56462 0.0
O513 O 0.12025 0.50022 0.45626 0.0
C514 C 0.52015 0.90963 0.5971 0.0
C515 C 0.51574 0.91451 0.41727 0.0
C516 C 0.5168 0.09033 0.60176 0.0
C517 C 0.51652 0.09622 0.42248 0.0
C518 C 0.42849 0.09389 0.51016 0.0
C519 C 0.4257 0.91361 0.50406 0.0
C520 C 0.61094 0.09084 0.50298 0.0
C521 C 0.60893 0.91192 0.50709 0.0
C522 C 0.60816 1.00031 0.4193 0.0
C523 C 0.42604 0.00676 0.42206 0.0
C524 C 0.60896 1.00183 0.59877 0.0
C525 C 0.42902 0.99983 0.60031 0.0
Eu526 Eu 0.51711 0.93164 0.50762 0.0
O527 O 0.48473 0.97112 0.47624 0.0
O528 O 0.55123 0.96798 0.54093 0.0
Eu529 Eu 0.44752 0.0033 0.51033 0.0
Eu530 Eu 0.58914 1.00154 0.50888 0.0
O531 O 0.48446 0.96836 0.54211 0.0
O532 O 0.55046 0.96998 0.47562 0.0
Eu533 Eu 0.51886 1.00045 0.57934 0.0
Eu534 Eu 0.51781 0.00477 0.43933 0.0
O535 O 0.48582 0.03517 0.5435 0.0
O536 O 0.48549 0.03667 0.47816 0.0
O537 O 0.5516 0.0362 0.47744 0.0
O538 O 0.55252 0.03465 0.54317 0.0
Eu539 Eu 0.51915 0.07331 0.51146 0.0
O540 O 0.51571 0.89934 0.56184 0.0
O541 O 0.51457 0.90215 0.45207 0.0
O542 O 0.51996 0.10296 0.56715 0.0
O543 O 0.51121 0.1052 0.45783 0.0
O544 O 0.41679 0.05862 0.50921 0.0
O545 O 0.4152 0.94923 0.5044 0.0
O546 O 0.62165 0.05534 0.50313 0.0
O547 O 0.62074 0.94702 0.50886 0.0
O548 O 0.57268 0.00378 0.40821 0.0
O549 O 0.4614 0.00687 0.40975 0.0
O550 O 0.57357 1.00192 0.61037 0.0
O551 O 0.46458 0.99787 0.61133 0.0
O552 O 0.57558 0.10299 0.5061 0.0
O553 O 0.46412 0.10516 0.51245 0.0
O554 O 0.57313 0.90069 0.50581 0.0
O555 O 0.46101 0.9013 0.50612 0.0
O556 O 0.51754 0.95025 0.40703 0.0
O557 O 0.52274 0.06148 0.41063 0.0
O558 O 0.52378 0.94468 0.60878 0.0
O559 O 0.51515 0.05457 0.61168 0.0
O560 O 0.41701 0.00229 0.56546 0.0
O561 O 0.4151 0.00584 0.45714 0.0
O562 O 0.62052 0.00203 0.56367 0.0
O563 O 0.61993 0.99772 0.45418 0.0
C564 C 0.17404 0.16712 0.47071 0.0
C565 C 0.1998 0.16934 0.5005 0.0
C566 C 0.16828 0.11796 0.5315 0.0
C567 C 0.14021 0.11763 0.50362 0.0
N568 N 0.11409 0.1447 0.44816 0.0
N569 N 0.21487 0.15432 0.56363 0.0
C570 C 0.14213 0.14341 0.47386 0.0
C571 C 0.1948 0.14708 0.53225 0.0
N572 N 0.18108 0.18609 0.43876 0.0
N573 N 0.17073 0.08992 0.55673 0.0
H574 H 0.23391 0.17625 0.56563 0.0
H575 H 0.20958 0.1412 0.58875 0.0
H576 H 0.15186 0.06801 0.55805 0.0
H577 H 0.1936 0.08673 0.57439 0.0
H578 H 0.16579 0.18233 0.41456 0.0
H579 H 0.20411 0.20367 0.43554 0.0
H580 H 0.11176 0.16561 0.42843 0.0
H581 H 0.09197 0.12581 0.44755 0.0
C582 C 0.86096 0.17047 0.53786 0.0
C583 C 0.8494 0.18292 0.50244 0.0
C584 C 0.88062 0.12998 0.47345 0.0
C585 C 0.89719 0.12105 0.50787 0.0
N586 N 0.89972 0.1281 0.57377 0.0
N587 N 0.84989 0.17668 0.43612 0.0
C588 C 0.88623 0.13993 0.54048 0.0
C589 C 0.85934 0.16305 0.47012 0.0
N590 N 0.84739 0.1878 0.56873 0.0
N591 N 0.88435 0.10629 0.44422 0.0
H592 H 0.83379 0.20059 0.43247 0.0
H593 H 0.86032 0.16587 0.41151 0.0
H594 H 0.89981 0.0818 0.44574 0.0
H595 H 0.86964 0.10926 0.41955 0.0
H596 H 0.85288 0.17943 0.59564 0.0
H597 H 0.82867 0.21003 0.56752 0.0
H598 H 0.89518 0.14148 0.59879 0.0
H599 H 0.91671 0.10468 0.57626 0.0
C600 C 0.84819 0.84537 0.5314 0.0
C601 C 0.8477 0.82182 0.50002 0.0
C602 C 0.89169 0.86325 0.46805 0.0
C603 C 0.89407 0.88508 0.50053 0.0
N604 N 0.86317 0.90583 0.55601 0.0
N605 N 0.86681 0.80824 0.43766 0.0
C606 C 0.86878 0.87897 0.53004 0.0
C607 C 0.86846 0.83104 0.46782 0.0
N608 N 0.831 0.83457 0.56342 0.0
N609 N 0.90988 0.87484 0.43691 0.0
H610 H 0.84835 0.78581 0.43585 0.0
H611 H 0.88428 0.81058 0.4148 0.0
H612 H 0.92729 0.89814 0.4365 0.0
H613 H 0.90618 0.86309 0.41093 0.0
H614 H 0.83452 0.84847 0.58842 0.0
H615 H 0.81584 0.80993 0.56603 0.0
H616 H 0.84173 0.90461 0.57551 0.0
H617 H 0.87699 0.93126 0.55559 0.0
C618 C 0.18941 0.85014 0.53429 0.0
C619 C 0.19686 0.83249 0.50012 0.0
C620 C 0.14024 0.86021 0.47349 0.0
C621 C 0.13569 0.88165 0.50614 0.0
N622 N 0.15808 0.90021 0.56633 0.0
N623 N 0.1819 0.82257 0.436 0.0
C624 C 0.16084 0.87746 0.53623 0.0
C625 C 0.17271 0.83764 0.46945 0.0
N626 N 0.20919 0.84014 0.56508 0.0
N627 N 0.11388 0.8618 0.44612 0.0
H628 H 0.20517 0.80547 0.43213 0.0
H629 H 0.16806 0.82897 0.4115 0.0
H630 H 0.09116 0.87993 0.44677 0.0
H631 H 0.11328 0.84374 0.42369 0.0
H632 H 0.20252 0.84919 0.59157 0.0
H633 H 0.23012 0.81989 0.56468 0.0
H634 H 0.17834 0.90158 0.587 0.0
H635 H 0.13671 0.91966 0.56952 0.0
C636 C 0.4879 0.15765 0.17388 0.0
C637 C 0.519 0.18217 0.17497 0.0
C638 C 0.55102 0.14531 0.12778 0.0
C639 C 0.52047 0.11989 0.12778 0.0
N640 N 0.46502 0.09651 0.15849 0.0
N641 N 0.58364 0.19471 0.16008 0.0
C642 C 0.49068 0.1242 0.15342 0.0
C643 C 0.55169 0.17457 0.15405 0.0
N644 N 0.45488 0.16723 0.19056 0.0
N645 N 0.57929 0.14167 0.10257 0.0
H646 H 0.58518 0.21602 0.17955 0.0
H647 H 0.60949 0.18811 0.14842 0.0
H648 H 0.58134 0.11915 0.08465 0.0
H649 H 0.59973 0.16187 0.09815 0.0
H650 H 0.43002 0.15246 0.18682 0.0
H651 H 0.45127 0.19178 0.2054 0.0
H652 H 0.44537 0.09673 0.17978 0.0
H653 H 0.4654 0.07172 0.1438 0.0
C654 C 0.85758 0.46676 0.1699 0.0
C655 C 0.83437 0.49847 0.17415 0.0
C656 C 0.87164 0.53243 0.12848 0.0
C657 C 0.89574 0.5012 0.12529 0.0
N658 N 0.91652 0.44157 0.14818 0.0
N659 N 0.82361 0.56381 0.16412 0.0
C660 C 0.8904 0.46938 0.14787 0.0
C661 C 0.84271 0.53206 0.15538 0.0
N662 N 0.84718 0.43361 0.18527 0.0
N663 N 0.87615 0.56228 0.10555 0.0
H664 H 0.80241 0.56457 0.18396 0.0
H665 H 0.83089 0.59001 0.15424 0.0
H666 H 0.89843 0.56469 0.0871 0.0
H667 H 0.85678 0.58381 0.10334 0.0
H668 H 0.86045 0.40852 0.17945 0.0
H669 H 0.82331 0.43049 0.20162 0.0
H670 H 0.9163 0.41983 0.16716 0.0
H671 H 0.93993 0.44129 0.13099 0.0
C672 C 0.54325 0.8342 0.1644 0.0
C673 C 0.5131 0.83551 0.18985 0.0
C674 C 0.48273 0.88403 0.15331 0.0
C675 C 0.51222 0.88185 0.12698 0.0
N676 N 0.56457 0.84695 0.10241 0.0
N677 N 0.44936 0.85357 0.203 0.0
C678 C 0.54048 0.85427 0.13075 0.0
C679 C 0.48134 0.85799 0.18262 0.0
N680 N 0.57537 0.81539 0.17311 0.0
N681 N 0.45612 0.91117 0.1506 0.0
H682 H 0.44697 0.83399 0.2241 0.0
H683 H 0.42405 0.8665 0.19656 0.0
H684 H 0.45426 0.92903 0.1281 0.0
H685 H 0.43711 0.9172 0.1716 0.0
H686 H 0.59982 0.81709 0.15745 0.0
H687 H 0.57878 0.80076 0.19773 0.0
H688 H 0.58306 0.82454 0.10251 0.0
H689 H 0.5638 0.86093 0.07731 0.0
C690 C 0.17497 0.52731 0.17576 0.0
C691 C 0.19554 0.49376 0.17949 0.0
C692 C 0.15653 0.46395 0.13255 0.0
C693 C 0.1354 0.49722 0.12933 0.0
N694 N 0.11873 0.55763 0.15321 0.0
N695 N 0.20081 0.42797 0.16861 0.0
C696 C 0.14262 0.52791 0.15285 0.0
C697 C 0.18467 0.46135 0.16008 0.0
N698 N 0.1875 0.55906 0.19246 0.0
N699 N 0.1501 0.43505 0.1089 0.0
H700 H 0.22137 0.42516 0.18893 0.0
H701 H 0.19153 0.40264 0.15813 0.0
H702 H 0.12817 0.43497 0.08991 0.0
H703 H 0.16757 0.41198 0.10673 0.0
H704 H 0.17638 0.58527 0.18716 0.0
H705 H 0.21092 0.55973 0.20969 0.0
H706 H 0.1203 0.57898 0.17254 0.0
H707 H 0.09557 0.55978 0.13578 0.0
C708 C 0.48259 0.82708 0.86382 0.0
C709 C 0.51334 0.82247 0.83955 0.0
C710 C 0.53832 0.88248 0.85952 0.0
C711 C 0.51206 0.88319 0.88909 0.0
N712 N 0.45987 0.85394 0.92048 0.0
N713 N 0.5745 0.84307 0.81912 0.0
C714 C 0.48438 0.8548 0.89158 0.0
C715 C 0.54219 0.84956 0.83839 0.0
N716 N 0.45126 0.80554 0.85976 0.0
N717 N 0.55956 0.91288 0.85117 0.0
H718 H 0.57947 0.8187 0.80439 0.0
H719 H 0.59794 0.86032 0.82093 0.0
H720 H 0.55847 0.9377 0.86574 0.0
H721 H 0.5759 0.9145 0.82736 0.0
H722 H 0.42655 0.81003 0.87444 0.0
H723 H 0.44865 0.7857 0.8389 0.0
H724 H 0.44245 0.83136 0.92602 0.0
H725 H 0.45848 0.87481 0.94021 0.0
C726 C 0.17971 0.47607 0.84663 0.0
C727 C 0.18412 0.51082 0.82867 0.0
C728 C 0.14051 0.54001 0.87188 0.0
C729 C 0.13724 0.5057 0.891 0.0
N730 N 0.15534 0.44179 0.89909 0.0
N731 N 0.17514 0.57717 0.82774 0.0
C732 C 0.1577 0.47401 0.87932 0.0
C733 C 0.16649 0.54322 0.84245 0.0
N734 N 0.19514 0.44484 0.83137 0.0
N735 N 0.11764 0.56912 0.88087 0.0
H736 H 0.19379 0.58053 0.8058 0.0
H737 H 0.16642 0.60225 0.83921 0.0
H738 H 0.09913 0.56844 0.9031 0.0
H739 H 0.11524 0.59313 0.86501 0.0
H740 H 0.18964 0.41797 0.84048 0.0
H741 H 0.21201 0.44548 0.80786 0.0
H742 H 0.17233 0.41874 0.89461 0.0
H743 H 0.13704 0.4386 0.92127 0.0
C744 C 0.54579 0.15089 0.83804 0.0
C745 C 0.51133 0.1685 0.82952 0.0
C746 C 0.48284 0.14202 0.88522 0.0
C747 C 0.51572 0.12048 0.89081 0.0
N748 N 0.57748 0.10165 0.87105 0.0
N749 N 0.44582 0.17878 0.8425 0.0
C750 C 0.54698 0.12423 0.86684 0.0
C751 C 0.47957 0.1639 0.85267 0.0
N752 N 0.57756 0.16034 0.81908 0.0
N753 N 0.4545 0.14109 0.91063 0.0
H754 H 0.44239 0.19519 0.81901 0.0
H755 H 0.42063 0.17276 0.85574 0.0
H756 H 0.45482 0.12373 0.93364 0.0
H757 H 0.43172 0.15917 0.91026 0.0
H758 H 0.60429 0.15133 0.82644 0.0
H759 H 0.57774 0.18006 0.79797 0.0
H760 H 0.59914 0.09982 0.85185 0.0
H761 H 0.57998 0.08279 0.89268 0.0
C762 C 0.8509 0.53105 0.85256 0.0
C763 C 0.83881 0.49569 0.83992 0.0
C764 C 0.89114 0.46571 0.87209 0.0
C765 C 0.90059 0.50048 0.88795 0.0
N766 N 0.89865 0.56708 0.88405 0.0
N767 N 0.84573 0.42911 0.83788 0.0
C768 C 0.8831 0.53349 0.87551 0.0
C769 C 0.8588 0.46295 0.8493 0.0
N770 N 0.83052 0.56208 0.84397 0.0
N771 N 0.91414 0.43583 0.87748 0.0
H772 H 0.82282 0.42615 0.82019 0.0
H773 H 0.85608 0.40386 0.84751 0.0
H774 H 0.93837 0.43719 0.89355 0.0
H775 H 0.91126 0.41064 0.86365 0.0
H776 H 0.8348 0.58792 0.85617 0.0
H777 H 0.80772 0.56166 0.82592 0.0
H778 H 0.89016 0.59218 0.87247 0.0
H779 H 0.92222 0.56958 0.90091 0.0
C780 C 0.68482 0.65898 0.98487 0.0
C781 C 0.69721 0.6704 0.02034 0.0
C782 C 0.64524 0.63683 0.04939 0.0
C783 C 0.63526 0.62234 0.01436 0.0
N784 N 0.63721 0.62801 0.94831 0.0
N785 N 0.69133 0.66941 0.0866 0.0
C786 C 0.65269 0.63581 0.98189 0.0
C787 C 0.67772 0.65949 0.05269 0.0
N788 N 0.70482 0.66898 0.9542 0.0
N789 N 0.62256 0.63036 0.07909 0.0
H790 H 0.71437 0.68696 0.09001 0.0
H791 H 0.68134 0.65856 0.11135 0.0
H792 H 0.59807 0.61465 0.07726 0.0
H793 H 0.62586 0.64324 0.10461 0.0
H794 H 0.7004 0.65775 0.92809 0.0
H795 H 0.72746 0.68733 0.95508 0.0
H796 H 0.64548 0.64046 0.92369 0.0
H797 H 0.61379 0.61091 0.94536 0.0
C798 C 0.34796 0.66096 0.98919 0.0
C799 C 0.3477 0.68348 0.02137 0.0
C800 C 0.39243 0.64166 0.05164 0.0
C801 C 0.39584 0.6215 0.01817 0.0
N802 N 0.37654 0.61001 0.95548 0.0
N803 N 0.36858 0.69606 0.08344 0.0
C804 C 0.37302 0.63024 0.98722 0.0
C805 C 0.36941 0.67384 0.05279 0.0
N806 N 0.32441 0.66921 0.96048 0.0
N807 N 0.41024 0.62914 0.08267 0.0
H808 H 0.35012 0.71835 0.08636 0.0
H809 H 0.38711 0.69355 0.10547 0.0
H810 H 0.42843 0.60645 0.08254 0.0
H811 H 0.40538 0.63948 0.10905 0.0
H812 H 0.3199 0.65199 0.93787 0.0
H813 H 0.30759 0.69288 0.95978 0.0
H814 H 0.36418 0.61698 0.93043 0.0
H815 H 0.39312 0.5863 0.95372 0.0
C816 C 0.36138 0.33331 0.97299 0.0
C817 C 0.34742 0.32172 0.00779 0.0
C818 C 0.37646 0.37572 0.03734 0.0
C819 C 0.39531 0.38387 1.00381 0.0
N820 N 0.40567 0.37166 0.93926 0.0
N821 N 0.34358 0.32965 0.0738 0.0
C822 C 0.38758 0.3631 0.97139 0.0
C823 C 0.3551 0.34255 0.04014 0.0
N824 N 0.34913 0.31602 0.94159 0.0
N825 N 0.37877 0.39977 0.06645 0.0
H826 H 0.32747 0.30567 0.07701 0.0
H827 H 0.35228 0.34114 0.09876 0.0
H828 H 0.39517 0.42371 0.06591 0.0
H829 H 0.36235 0.39745 0.0901 0.0
H830 H 0.35538 0.32505 0.91501 0.0
H831 H 0.33001 0.29406 0.942 0.0
H832 H 0.40394 0.35586 0.91528 0.0
H833 H 0.4245 0.39371 0.93713 0.0
C834 C 0.68883 0.35297 0.9825 0.0
C835 C 0.69637 0.33333 0.01555 0.0
C836 C 0.64 0.35979 0.04395 0.0
C837 C 0.6358 0.38348 0.01285 0.0
N838 N 0.65781 0.40498 0.95356 0.0
N839 N 0.6816 0.31982 0.07907 0.0
C840 C 0.66065 0.38068 0.98238 0.0
C841 C 0.6724 0.33686 0.04658 0.0
N842 N 0.70809 0.34444 0.95096 0.0
N843 N 0.61328 0.35937 0.071 0.0
H844 H 0.70488 0.3025 0.08186 0.0
H845 H 0.66778 0.32484 0.10389 0.0
H846 H 0.59012 0.37702 0.07094 0.0
H847 H 0.61274 0.33997 0.09231 0.0
H848 H 0.70125 0.35509 0.92509 0.0
H849 H 0.7287 0.32389 0.94993 0.0
H850 H 0.67809 0.40753 0.93302 0.0
H851 H 0.63634 0.42442 0.95145 0.0
C852 C 0.98913 0.66038 0.67289 0.0
C853 C 0.02138 0.68337 0.67429 0.0
C854 C 0.05029 0.64786 0.62434 0.0
C855 C 0.01896 0.62341 0.62416 0.0
N856 N 0.96204 0.60195 0.65359 0.0
N857 N 0.08617 0.6936 0.65836 0.0
C858 C 0.98958 0.62811 0.65029 0.0
C859 C 0.05304 0.67546 0.6521 0.0
N860 N 0.95744 0.67033 0.69168 0.0
N861 N 0.07739 0.64506 0.59784 0.0
H862 H 0.08937 0.7136 0.67897 0.0
H863 H 0.11134 0.68625 0.64575 0.0
H864 H 0.07801 0.62385 0.57838 0.0
H865 H 0.09806 0.66511 0.59376 0.0
H866 H 0.93165 0.65718 0.68817 0.0
H867 H 0.95602 0.6937 0.70865 0.0
H868 H 0.94245 0.60187 0.67491 0.0
H869 H 0.96045 0.57858 0.6368 0.0
C870 C 0.34965 0.97038 0.66371 0.0
C871 C 0.33716 0.00578 0.67583 0.0
C872 C 0.39033 0.03578 0.64516 0.0
C873 C 0.40013 1.00112 0.62945 0.0
N874 N 0.39735 0.93447 0.63186 0.0
N875 N 0.3432 0.07263 0.67627 0.0
C876 C 0.38213 0.96803 0.64106 0.0
C877 C 0.35715 0.0386 0.66653 0.0
N878 N 0.32955 0.9393 0.67278 0.0
N879 N 0.41365 0.06562 0.64085 0.0
H880 H 0.31904 0.07602 0.69213 0.0
H881 H 0.35389 0.09765 0.6664 0.0
H882 H 0.43822 0.0644 0.62531 0.0
H883 H 0.41044 0.09058 0.65503 0.0
H884 H 0.33419 0.9132 0.66133 0.0
H885 H 0.30677 0.93984 0.69083 0.0
H886 H 0.38842 0.90913 0.64253 0.0
H887 H 0.42081 0.93211 0.61486 0.0
C888 C 0.04302 0.33738 0.66656 0.0
C889 C 0.01199 0.33733 0.69101 0.0
C890 C 0.98167 0.38613 0.65481 0.0
C891 C 0.01187 0.385 0.62922 0.0
N892 N 0.06675 0.3531 0.60608 0.0
N893 N 0.94798 0.35461 0.70371 0.0
C894 C 0.04099 0.35841 0.63347 0.0
C895 C 0.98012 0.35961 0.6837 0.0
N896 N 0.07522 0.31897 0.67584 0.0
N897 N 0.95462 0.4128 0.65183 0.0
H898 H 0.94569 0.33501 0.72481 0.0
H899 H 0.92257 0.36727 0.69715 0.0
H900 H 0.95328 0.43123 0.62976 0.0
H901 H 0.93482 0.41806 0.67231 0.0
H902 H 0.10021 0.32164 0.66119 0.0
H903 H 0.07808 0.30356 0.70005 0.0
H904 H 0.08597 0.3313 0.60612 0.0
H905 H 0.06694 0.36831 0.5817 0.0
C906 C 0.68581 0.03446 0.66397 0.0
C907 C 0.69818 0.99975 0.67786 0.0
C908 C 0.64671 0.96803 0.64622 0.0
C909 C 0.63809 1.00169 0.62771 0.0
N910 N 0.64713 0.0675 0.61968 0.0
N911 N 0.69252 0.93307 0.6813 0.0
C912 C 0.6569 0.03517 0.63694 0.0
C913 C 0.67898 0.96641 0.66906 0.0
N914 N 0.70164 0.06655 0.67697 0.0
N915 N 0.62365 0.93789 0.64255 0.0
H916 H 0.71554 0.93084 0.69895 0.0
H917 H 0.68253 0.90751 0.67207 0.0
H918 H 0.60007 0.93779 0.62553 0.0
H919 H 0.62617 0.91391 0.65845 0.0
H920 H 0.69208 0.09307 0.67062 0.0
H921 H 0.72307 0.06675 0.69659 0.0
H922 H 0.66099 0.09267 0.62321 0.0
H923 H 0.6255 0.06901 0.60035 0.0
C924 C 0.98553 0.32925 0.36229 0.0
C925 C 0.01942 0.31995 0.34406 0.0
C926 C 0.05054 0.37398 0.37149 0.0
C927 C 0.018 0.38053 0.39311 0.0
N928 N 0.95553 0.36281 0.41205 0.0
N929 N 0.08539 0.33041 0.33369 0.0
C930 C 0.98574 0.35771 0.38935 0.0
C931 C 0.05223 0.34168 0.349 0.0
N932 N 0.95295 0.31146 0.35297 0.0
N933 N 0.0799 0.39842 0.37266 0.0
H934 H 0.08764 0.3071 0.31673 0.0
H935 H 0.11119 0.34245 0.33986 0.0
H936 H 0.08063 0.42128 0.39029 0.0
H937 H 0.10257 0.39745 0.35459 0.0
H938 H 0.92663 0.31958 0.36242 0.0
H939 H 0.95174 0.29057 0.33304 0.0
H940 H 0.9332 0.34423 0.41381 0.0
H941 H 0.95363 0.38463 0.43085 0.0
C942 C 0.68169 0.03208 0.35094 0.0
C943 C 0.68317 1.00106 0.32687 0.0
C944 C 0.63669 0.96844 0.36462 0.0
C945 C 0.6367 0.99874 0.38974 0.0
N946 N 0.66579 0.0553 0.4115 0.0
N947 N 0.66906 0.93662 0.31501 0.0
C948 C 0.6615 0.02915 0.38453 0.0
C949 C 0.66274 0.96824 0.33498 0.0
N950 N 0.69777 0.06506 0.34082 0.0
N951 N 0.61148 0.94009 0.36874 0.0
H952 H 0.68835 0.93539 0.29339 0.0
H953 H 0.65787 0.91082 0.32197 0.0
H954 H 0.59341 0.93805 0.39125 0.0
H955 H 0.60703 0.91965 0.34887 0.0
H956 H 0.69382 0.08975 0.3553 0.0
H957 H 0.71226 0.06871 0.31609 0.0
H958 H 0.68642 0.07581 0.41076 0.0
H959 H 0.65106 0.05463 0.43625 0.0
C960 C 0.04605 0.66877 0.35201 0.0
C961 C 0.01678 0.66705 0.32559 0.0
C962 C 0.98824 0.61532 0.35906 0.0
C963 C 0.0161 0.61854 0.38704 0.0
N964 N 0.0653 0.6559 0.41455 0.0
N965 N 0.95436 0.64634 0.31015 0.0
C966 C 0.04293 0.64777 0.38507 0.0
C967 C 0.98615 0.6426 0.33097 0.0
N968 N 0.07774 0.6889 0.34485 0.0
N969 N 0.96373 0.5862 0.35898 0.0
H970 H 0.95118 0.66704 0.29023 0.0
H971 H 0.92973 0.63167 0.31539 0.0
H972 H 0.96232 0.56684 0.38015 0.0
H973 H 0.94633 0.58002 0.33668 0.0
H974 H 0.10164 0.6877 0.36138 0.0
H975 H 0.08158 0.70401 0.32058 0.0
H976 H 0.08229 0.67945 0.41561 0.0
H977 H 0.06458 0.64126 0.43925 0.0
C978 C 0.34972 0.97358 0.35713 0.0
C979 C 0.33653 0.00785 0.34304 0.0
C980 C 0.38406 0.04155 0.37877 0.0
C981 C 0.39566 0.00728 0.39444 0.0
N982 N 0.38379 0.94221 0.40564 0.0
N983 N 0.33829 0.07474 0.34142 0.0
C984 C 0.37698 0.97366 0.38556 0.0
C985 C 0.35314 0.04201 0.35388 0.0
N986 N 0.33643 0.9409 0.34297 0.0
N987 N 0.402 0.07364 0.38863 0.0
H988 H 0.31636 0.07589 0.32238 0.0
H989 H 0.34633 0.10086 0.35081 0.0
H990 H 0.42273 0.07443 0.40892 0.0
H991 H 0.39771 0.09923 0.376 0.0
H992 H 0.34791 0.91507 0.34931 0.0
H993 H 0.3161 0.93981 0.32226 0.0
H994 H 0.36788 0.91805 0.40332 0.0
H995 H 0.40356 0.94109 0.42681 0.0
C996 C 0.985 0.17514 0.36214 0.0
C997 C 0.01729 0.18217 0.34034 0.0
C998 C 0.0463 0.12534 0.36487 0.0
C999 C 0.01665 0.12177 0.39095 0.0
N1000 N 0.95855 0.1453 0.41598 0.0
N1001 N 0.08087 0.16639 0.32408 0.0
C1002 C 0.98621 0.14729 0.39 0.0
C1003 C 0.04843 0.15771 0.34224 0.0
N1004 N 0.95277 0.19463 0.35553 0.0
N1005 N 0.07254 0.09794 0.36159 0.0
H1006 H 0.08356 0.18966 0.30714 0.0
H1007 H 0.106 0.15218 0.3281 0.0
H1008 H 0.07265 0.07427 0.37805 0.0
H1009 H 0.09232 0.09715 0.34045 0.0
H1010 H 0.92715 0.18837 0.36786 0.0
H1011 H 0.95076 0.21472 0.33485 0.0
H1012 H 0.9385 0.16599 0.41973 0.0
H1013 H 0.9569 0.124 0.43533 0.0
C1014 C 0.84536 0.98096 0.35389 0.0
C1015 C 0.85055 0.00834 0.32618 0.0
C1016 C 0.90081 0.03715 0.36264 0.0
C1017 C 0.898 0.00793 0.38893 0.0
N1018 N 0.86913 0.95075 0.40904 0.0
N1019 N 0.88498 0.06041 0.3017 0.0
C1020 C 0.87032 0.97974 0.38469 0.0
C1021 C 0.87867 0.03595 0.32995 0.0
N1022 N 0.81653 0.95607 0.35071 0.0
N1023 N 0.92379 0.06677 0.36964 0.0
H1024 H 0.86864 0.06112 0.2778 0.0
H1025 H 0.90788 0.07832 0.30062 0.0
H1026 H 0.94013 0.06879 0.3934 0.0
H1027 H 0.92422 0.09092 0.35384 0.0
H1028 H 0.8079 0.93848 0.37186 0.0
H1029 H 0.79975 0.95414 0.32721 0.0
H1030 H 0.85297 0.92697 0.40531 0.0
H1031 H 0.88601 0.94935 0.43241 0.0
C1032 C 0.99363 0.82765 0.35697 0.0
C1033 C 0.01824 0.83373 0.32695 0.0
C1034 C 0.0451 0.88778 0.35887 0.0
C1035 C 0.02055 0.88171 0.38951 0.0
N1036 N 0.98053 0.83737 0.42151 0.0
N1037 N 0.07278 0.86408 0.30219 0.0
C1038 C 0.99771 0.84904 0.38987 0.0
C1039 C 0.04559 0.86217 0.32878 0.0
N1040 N 0.9653 0.80222 0.35371 0.0
N1041 N 0.06837 0.91792 0.35855 0.0
H1042 H 0.07359 0.84619 0.27954 0.0
H1043 H 0.09621 0.88127 0.30388 0.0
H1044 H 0.073 0.93438 0.38166 0.0
H1045 H 0.08252 0.92723 0.33518 0.0
H1046 H 0.94358 0.7998 0.37279 0.0
H1047 H 0.96166 0.78566 0.33034 0.0
H1048 H 0.9679 0.81138 0.42402 0.0
H1049 H 0.98097 0.85174 0.4463 0.0
C1050 C 0.18211 0.03851 0.35437 0.0
C1051 C 0.19791 0.00498 0.34097 0.0
C1052 C 0.15571 0.96867 0.38057 0.0
C1053 C 0.13948 0.00221 0.39357 0.0
N1054 N 0.14363 0.06861 0.40072 0.0
N1055 N 0.19671 0.9383 0.33633 0.0
C1056 C 0.15418 0.0371 0.38237 0.0
C1057 C 0.1837 0.97007 0.35257 0.0
N1058 N 0.19349 0.07168 0.33975 0.0
N1059 N 0.14651 0.93578 0.39716 0.0
H1060 H 0.21752 0.93843 0.31609 0.0
H1061 H 0.18492 0.91218 0.34053 0.0
H1062 H 0.12722 0.93404 0.41872 0.0
H1063 H 0.16001 0.9107 0.39193 0.0
H1064 H 0.18037 0.09692 0.34525 0.0
H1065 H 0.21423 0.07364 0.31953 0.0
H1066 H 0.15636 0.09438 0.3971 0.0
H1067 H 0.12381 0.0685 0.42188 0.0
C1068 C 0.99385 0.84586 0.67912 0.0
C1069 C 0.02475 0.82109 0.67844 0.0
C1070 C 0.05309 0.85703 0.62789 0.0
C1071 C 0.02234 0.88217 0.62889 0.0
N1072 N 0.96992 0.90668 0.66357 0.0
N1073 N 0.08807 0.80839 0.65911 0.0
C1074 C 0.99485 0.87866 0.65716 0.0
C1075 C 0.05573 0.82836 0.65488 0.0
N1076 N 0.96256 0.83717 0.69914 0.0
N1077 N 0.07987 0.86057 0.60114 0.0
H1078 H 0.0911 0.7878 0.67918 0.0
H1079 H 0.11295 0.81448 0.64536 0.0
H1080 H 0.0808 0.883 0.58302 0.0
H1081 H 0.10023 0.84053 0.59585 0.0
H1082 H 0.93746 0.85184 0.69704 0.0
H1083 H 0.96055 0.81348 0.71558 0.0
H1084 H 0.95203 0.90717 0.6863 0.0
H1085 H 0.96947 0.93118 0.6484 0.0
C1086 C 0.18275 0.04382 0.66249 0.0
C1087 C 0.19758 0.01073 0.67804 0.0
C1088 C 0.14862 0.97392 0.6471 0.0
C1089 C 0.13597 0.0066 0.6291 0.0
N1090 N 0.13324 0.07341 0.6272 0.0
N1091 N 0.19621 0.94418 0.68502 0.0
C1092 C 0.15075 0.04182 0.63907 0.0
C1093 C 0.18061 0.97576 0.67068 0.0
N1094 N 0.20066 0.07692 0.66844 0.0
N1095 N 0.12907 0.94151 0.64267 0.0
H1096 H 0.21855 0.94468 0.70364 0.0
H1097 H 0.18842 0.91742 0.67732 0.0
H1098 H 0.10529 0.93952 0.626 0.0
H1099 H 0.13439 0.91728 0.65741 0.0
H1100 H 0.19455 0.10125 0.65414 0.0
H1101 H 0.22337 0.07974 0.68638 0.0
H1102 H 0.13937 0.09988 0.63706 0.0
H1103 H 0.11071 0.07301 0.60883 0.0
C1104 C 0.04021 0.14098 0.69182 0.0
C1105 C 0.01377 0.17014 0.69179 0.0
C1106 C 0.99317 0.15178 0.62963 0.0
C1107 C 0.01635 0.1194 0.63142 0.0
N1108 N 0.05857 0.08131 0.66822 0.0
N1109 N 0.96133 0.2009 0.66337 0.0
C1110 C 0.03882 0.11346 0.66368 0.0
C1111 C 0.98931 0.17499 0.6614 0.0
N1112 N 0.06749 0.13993 0.7184 0.0
N1113 N 0.97465 0.1607 0.59785 0.0
H1114 H 0.95792 0.21853 0.68598 0.0
H1115 H 0.93969 0.20283 0.64415 0.0
H1116 H 0.9737 0.14373 0.5747 0.0
H1117 H 0.96177 0.18631 0.59357 0.0
H1118 H 0.0905 0.12213 0.71726 0.0
H1119 H 0.06913 0.1592 0.73986 0.0
H1120 H 0.0705 0.07335 0.69326 0.0
H1121 H 0.06164 0.06136 0.64789 0.0
C1122 C 0.85503 0.03088 0.67108 0.0
C1123 C 0.83718 0.99673 0.67989 0.0
C1124 C 0.88082 0.96317 0.63933 0.0
C1125 C 0.89676 0.9976 0.62849 0.0
N1126 N 0.90715 0.06242 0.64137 0.0
N1127 N 0.83174 0.93042 0.67264 0.0
C1128 C 0.88626 0.03098 0.64658 0.0
C1129 C 0.8501 0.96278 0.66447 0.0
N1130 N 0.84082 0.06341 0.68468 0.0
N1131 N 0.89623 0.93082 0.62675 0.0
H1132 H 0.81048 0.92884 0.69237 0.0
H1133 H 0.8362 0.9054 0.65896 0.0
H1134 H 0.91819 0.93022 0.60773 0.0
H1135 H 0.88909 0.90457 0.63653 0.0
H1136 H 0.84924 0.0896 0.67574 0.0
H1137 H 0.81885 0.06434 0.70367 0.0
H1138 H 0.90357 0.08681 0.65637 0.0
H1139 H 0.93052 0.06321 0.62409 0.0
C1140 C 0.35207 0.0399 0.16639 0.0
C1141 C 0.33379 0.00663 0.17706 0.0
C1142 C 0.37372 0.97079 0.13503 0.0
C1143 C 0.39319 0.00381 0.12533 0.0
N1144 N 0.39303 0.07059 0.12255 0.0
N1145 N 0.33084 0.93979 0.17696 0.0
C1146 C 0.38042 0.03866 0.13872 0.0
C1147 C 0.34568 0.97188 0.16295 0.0
N1148 N 0.34303 0.07257 0.18349 0.0
N1149 N 0.37983 0.93902 0.11535 0.0
H1150 H 0.30994 0.93959 0.19713 0.0
H1151 H 0.34138 0.91349 0.171 0.0
H1152 H 0.39865 0.93794 0.09342 0.0
H1153 H 0.36382 0.91499 0.11817 0.0
H1154 H 0.35818 0.09707 0.18008 0.0
H1155 H 0.32212 0.07447 0.20356 0.0
H1156 H 0.38184 0.09677 0.1278 0.0
H1157 H 0.4128 0.07048 0.10137 0.0
C1158 C 0.98495 0.32666 0.15618 0.0
C1159 C 0.01715 0.32057 0.17826 0.0
C1160 C 0.04637 0.37695 0.15261 0.0
C1161 C 0.01576 0.38084 0.12761 0.0
N1162 N 0.95748 0.35716 0.10313 0.0
N1163 N 0.07966 0.33779 0.19656 0.0
C1164 C 0.98549 0.35504 0.12877 0.0
C1165 C 0.04811 0.34529 0.1764 0.0
N1166 N 0.95343 0.30577 0.162 0.0
N1167 N 0.07394 0.40335 0.15345 0.0
H1168 H 0.0813 0.31571 0.21517 0.0
H1169 H 0.10494 0.3519 0.19343 0.0
H1170 H 0.07499 0.42555 0.13507 0.0
H1171 H 0.09475 0.40459 0.17356 0.0
H1172 H 0.92758 0.31148 0.14988 0.0
H1173 H 0.95219 0.28447 0.18151 0.0
H1174 H 0.93729 0.3366 0.09935 0.0
H1175 H 0.95574 0.37849 0.08384 0.0
C1176 C 0.6622 0.03956 0.18259 0.0
C1177 C 0.68617 0.00891 0.18965 0.0
C1178 C 0.66675 0.98082 0.13099 0.0
C1179 C 0.63759 0.00757 0.12764 0.0
N1180 N 0.60845 0.0639 0.14966 0.0
N1181 N 0.70801 0.9478 0.17264 0.0
C1182 C 0.63561 0.03741 0.15334 0.0
C1183 C 0.68791 0.97901 0.16423 0.0
N1184 N 0.66574 0.07119 0.20324 0.0
N1185 N 0.67487 0.9574 0.10249 0.0
H1186 H 0.72356 0.94496 0.19685 0.0
H1187 H 0.70654 0.92345 0.15714 0.0
H1188 H 0.66029 0.95729 0.07766 0.0
H1189 H 0.69852 0.94039 0.10219 0.0
H1190 H 0.65176 0.09587 0.19733 0.0
H1191 H 0.68551 0.07389 0.22432 0.0
H1192 H 0.60219 0.0834 0.16997 0.0
H1193 H 0.59118 0.06559 0.12657 0.0
C1194 C 0.04636 0.66977 0.16496 0.0
C1195 C 0.01468 0.67184 0.18853 0.0
C1196 C 0.98332 0.62306 0.15231 0.0
C1197 C 0.01473 0.6215 0.12818 0.0
N1198 N 0.07195 0.64992 0.10634 0.0
N1199 N 0.94972 0.65743 0.19958 0.0
C1200 C 0.04482 0.64708 0.13275 0.0
C1201 C 0.98212 0.65057 0.18058 0.0
N1202 N 0.0787 0.68789 0.17434 0.0
N1203 N 0.95468 0.5981 0.14841 0.0
H1204 H 0.94782 0.67786 0.21992 0.0
H1205 H 0.92395 0.64559 0.19288 0.0
H1206 H 0.95312 0.57935 0.12657 0.0
H1207 H 0.93335 0.59468 0.16774 0.0
H1208 H 0.10416 0.6837 0.16088 0.0
H1209 H 0.08085 0.70513 0.19738 0.0
H1210 H 0.09195 0.67102 0.106 0.0
H1211 H 0.07268 0.6331 0.08301 0.0
C1212 C 0.32761 0.002 0.87348 0.0
C1213 C 0.33315 0.02415 0.84173 0.0
C1214 C 0.39645 0.0402 0.86338 0.0
C1215 C 0.39287 0.01419 0.89286 0.0
N1216 N 0.35516 0.96713 0.92326 0.0
N1217 N 0.37337 0.06242 0.80426 0.0
C1218 C 0.35839 0.99437 0.89724 0.0
C1219 C 0.36782 0.04251 0.83591 0.0
N1220 N 0.29249 0.98893 0.88158 0.0
N1221 N 0.42568 0.06475 0.86308 0.0
H1222 H 0.35223 0.06682 0.78484 0.0
H1223 H 0.39947 0.07261 0.79622 0.0
H1224 H 0.44566 0.0659 0.88398 0.0
H1225 H 0.42786 0.08672 0.8445 0.0
H1226 H 0.28546 0.97687 0.90678 0.0
H1227 H 0.26933 0.993 0.86444 0.0
H1228 H 0.33275 0.94859 0.92441 0.0
H1229 H 0.37606 0.9608 0.94209 0.0
C1230 C 0.98942 0.33346 0.8536 0.0
C1231 C 0.01964 0.33349 0.82815 0.0
C1232 C 0.05073 0.38258 0.86403 0.0
C1233 C 0.02105 0.38167 0.89027 0.0
N1234 N 0.96842 0.3475 0.91536 0.0
N1235 N 0.08338 0.35088 0.81442 0.0
C1236 C 0.9925 0.35423 0.88688 0.0
C1237 C 0.05165 0.35591 0.83502 0.0
N1238 N 0.95676 0.31545 0.84515 0.0
N1239 N 0.07813 0.40896 0.86673 0.0
H1240 H 0.08526 0.33096 0.79358 0.0
H1241 H 0.10887 0.36373 0.82028 0.0
H1242 H 0.08037 0.42686 0.88917 0.0
H1243 H 0.0975 0.41429 0.84587 0.0
H1244 H 0.93233 0.3183 0.86068 0.0
H1245 H 0.95291 0.3004 0.82086 0.0
H1246 H 0.95002 0.32498 0.91566 0.0
H1247 H 0.96919 0.36189 0.94019 0.0
C1248 C 0.6938 0.03231 0.86481 0.0
C1249 C 0.7005 1.00023 0.84302 0.0
C1250 C 0.64865 0.96788 0.8736 0.0
C1251 C 0.63953 1.00084 0.89305 0.0
N1252 N 0.65313 0.06474 0.90798 0.0
N1253 N 0.681 0.93976 0.82186 0.0
C1254 C 0.66206 0.03322 0.88883 0.0
C1255 C 0.67682 0.96876 0.84587 0.0
N1256 N 0.71847 0.06141 0.86327 0.0
N1257 N 0.63245 0.93503 0.88362 0.0
H1258 H 0.70174 0.93919 0.80153 0.0
H1259 H 0.66196 0.91785 0.82008 0.0
H1260 H 0.61249 0.93322 0.90456 0.0
H1261 H 0.64106 0.90933 0.87348 0.0
H1262 H 0.71788 0.08408 0.88106 0.0
H1263 H 0.74118 0.06209 0.84511 0.0
H1264 H 0.66545 0.09053 0.90341 0.0
H1265 H 0.63176 0.06564 0.92757 0.0
C1266 C 0.05527 0.67921 0.86794 0.0
C1267 C 0.02713 0.68308 0.84063 0.0
C1268 C 0.99979 0.62326 0.85937 0.0
C1269 C 0.02472 0.62177 0.89018 0.0
N1270 N 0.07659 0.6489 0.92373 0.0
N1271 N 0.9703 0.66124 0.8121 0.0
C1272 C 0.05255 0.64999 0.89439 0.0
C1273 C 0.99886 0.65571 0.83672 0.0
N1274 N 0.08529 0.70292 0.86795 0.0
N1275 N 0.97733 0.59365 0.85111 0.0
H1276 H 0.96914 0.68415 0.79448 0.0
H1277 H 0.9463 0.64477 0.81107 0.0
H1278 H 0.97622 0.56955 0.8668 0.0
H1279 H 0.96201 0.59153 0.82673 0.0
H1280 H 0.10904 0.69919 0.88426 0.0
H1281 H 0.08791 0.72492 0.84935 0.0
H1282 H 0.09343 0.67116 0.93164 0.0
H1283 H 0.0789 0.62603 0.94113 0.0
C1284 C 0.15601 0.3221 0.04893 0.0
C1285 C 0.18256 0.31643 0.02042 0.0
C1286 C 0.16826 0.37784 0.99497 0.0
C1287 C 0.13716 0.38099 0.01942 0.0
N1288 N 0.10327 0.35752 0.07222 0.0
N1289 N 0.21119 0.33641 0.96355 0.0
C1290 C 0.13161 0.35343 0.04718 0.0
C1291 C 0.18798 0.34361 0.99274 0.0
N1292 N 0.15476 0.29797 0.0781 0.0
N1293 N 0.18017 0.40762 0.97481 0.0
H1294 H 0.22635 0.31176 0.96097 0.0
H1295 H 0.21279 0.35342 0.94031 0.0
H1296 H 0.16796 0.43374 0.9762 0.0
H1297 H 0.2051 0.40763 0.95981 0.0
H1298 H 0.13894 0.30241 0.10182 0.0
H1299 H 0.17175 0.27443 0.07979 0.0
H1300 H 0.09411 0.33648 0.08975 0.0
H1301 H 0.08833 0.38218 0.07509 0.0
C1302 C 0.17626 0.66875 0.98701 0.0
C1303 C 0.18426 0.68368 0.0224 0.0
C1304 C 0.15108 0.63177 0.05179 0.0
C1305 C 0.13943 0.61948 0.01646 0.0
N1306 N 0.15265 0.61642 0.95162 0.0
N1307 N 0.17994 0.68036 0.08872 0.0
C1308 C 0.15544 0.63513 0.98428 0.0
C1309 C 0.17229 0.66516 0.05493 0.0
N1310 N 0.18744 0.68741 0.95601 0.0
N1311 N 0.1435 0.6103 0.08199 0.0
H1312 H 0.19636 0.70414 0.09202 0.0
H1313 H 0.16845 0.67076 0.11334 0.0
H1314 H 0.12846 0.5855 0.08015 0.0
H1315 H 0.1543 0.61536 0.10819 0.0
H1316 H 0.17866 0.68048 0.92948 0.0
H1317 H 0.20384 0.71141 0.95695 0.0
H1318 H 0.16635 0.62427 0.92749 0.0
H1319 H 0.13928 0.59073 0.94975 0.0
C1320 C 0.35186 0.16153 0.98151 0.0
C1321 C 0.34874 0.18365 0.0138 0.0
C1322 C 0.39717 0.14634 0.04435 0.0
C1323 C 0.39896 0.12289 0.01282 0.0
N1324 N 0.37525 0.10512 0.95293 0.0
N1325 N 0.36225 0.19295 0.07829 0.0
C1326 C 0.37515 0.12936 0.982 0.0
C1327 C 0.36953 0.17471 0.04596 0.0
N1328 N 0.33411 0.1724 0.94983 0.0
N1329 N 0.42256 0.14225 0.07236 0.0
H1330 H 0.34214 0.2139 0.08045 0.0
H1331 H 0.37353 0.18511 0.10364 0.0
H1332 H 0.44245 0.12108 0.07304 0.0
H1333 H 0.42562 0.16124 0.09384 0.0
H1334 H 0.33875 0.16022 0.92418 0.0
H1335 H 0.31642 0.19543 0.94858 0.0
H1336 H 0.35565 0.10575 0.93164 0.0
H1337 H 0.39382 0.08287 0.95097 0.0
C1338 C 0.85029 0.34804 0.0475 0.0
C1339 C 0.83505 0.33318 0.01457 0.0
C1340 C 0.88007 0.3694 0.97788 0.0
C1341 C 0.89416 0.38537 0.01094 0.0
N1342 N 0.88512 0.39822 0.07562 0.0
N1343 N 0.83246 0.33113 0.94816 0.0
C1344 C 0.87727 0.37693 0.04537 0.0
C1345 C 0.84935 0.34403 0.97959 0.0
N1346 N 0.83908 0.3343 0.0809 0.0
N1347 N 0.89533 0.37967 0.94486 0.0
H1348 H 0.81062 0.31183 0.94852 0.0
H1349 H 0.83875 0.34024 0.92165 0.0
H1350 H 0.91583 0.4002 0.94286 0.0
H1351 H 0.88893 0.36741 0.91966 0.0
H1352 H 0.85203 0.3413 0.10573 0.0
H1353 H 0.81909 0.31325 0.08342 0.0
H1354 H 0.87044 0.3962 0.10039 0.0
H1355 H 0.9042 0.42017 0.07496 0.0
C1356 C 0.6839 0.84376 0.9842 0.0
C1357 C 0.69884 0.8339 0.01914 0.0
C1358 C 0.65087 0.87135 0.05023 0.0
C1359 C 0.63609 0.88142 0.01523 0.0
N1360 N 0.63156 0.86978 0.94998 0.0
N1361 N 0.69266 0.83119 0.08527 0.0
C1362 C 0.65048 0.8653 0.98249 0.0
C1363 C 0.68101 0.84543 0.05218 0.0
N1364 N 0.70216 0.83329 0.95268 0.0
N1365 N 0.63642 0.88707 0.08148 0.0
H1366 H 0.71493 0.81252 0.08752 0.0
H1367 H 0.67875 0.83547 0.11014 0.0
H1368 H 0.61396 0.90565 0.08099 0.0
H1369 H 0.64766 0.88349 0.10774 0.0
H1370 H 0.69521 0.84315 0.92654 0.0
H1371 H 0.72594 0.8164 0.95287 0.0
H1372 H 0.63845 0.85589 0.92571 0.0
H1373 H 0.60659 0.88475 0.94814 0.0
C1374 C 0.86112 0.66742 0.04991 0.0
C1375 C 0.83631 0.6719 0.01959 0.0
C1376 C 0.87013 0.62396 0.98521 0.0
C1377 C 0.8966 0.62092 0.01438 0.0
N1378 N 0.92023 0.64324 0.07283 0.0
N1379 N 0.82288 0.66162 0.95523 0.0
C1380 C 0.89324 0.64408 0.04606 0.0
C1381 C 0.84271 0.65243 0.98624 0.0
N1382 N 0.85288 0.68382 0.08296 0.0
N1383 N 0.87021 0.59889 0.95698 0.0
H1384 H 0.80291 0.68281 0.95484 0.0
H1385 H 0.82892 0.65096 0.92917 0.0
H1386 H 0.89012 0.57795 0.95468 0.0
H1387 H 0.84862 0.59687 0.93769 0.0
H1388 H 0.8672 0.6781 0.10736 0.0
H1389 H 0.8299 0.70133 0.08664 0.0
H1390 H 0.92163 0.66227 0.09442 0.0
H1391 H 0.94263 0.62472 0.07236 0.0
C1392 C 0.36382 0.83479 0.04897 0.0
C1393 C 0.34549 0.82147 0.01692 0.0
C1394 C 0.37692 0.86927 0.97959 0.0
C1395 C 0.39722 0.8809 0.01135 0.0
N1396 N 0.41621 0.86899 0.07424 0.0
N1397 N 0.33588 0.82333 0.9512 0.0
C1398 C 0.39231 0.86215 0.04553 0.0
C1399 C 0.35206 0.83827 0.98207 0.0
N1400 N 0.35369 0.82142 0.08287 0.0
N1401 N 0.38249 0.88708 0.94679 0.0
H1402 H 0.31673 0.80143 0.95227 0.0
H1403 H 0.34246 0.83118 0.92434 0.0
H1404 H 0.4035 0.90684 0.94317 0.0
H1405 H 0.36607 0.8831 0.92338 0.0
H1406 H 0.3631 0.83282 0.10762 0.0
H1407 H 0.3331 0.80109 0.08635 0.0
H1408 H 0.41703 0.85302 0.09821 0.0
H1409 H 0.43728 0.889 0.07314 0.0
C1410 C 0.69804 0.13996 0.03884 0.0
C1411 C 0.70129 0.16731 0.0109 0.0
C1412 C 0.64355 0.14465 0.98158 0.0
C1413 C 0.63933 0.11834 0.01055 0.0
N1414 N 0.65818 0.09572 0.07047 0.0
N1415 N 0.6752 0.19988 0.95878 0.0
C1416 C 0.66539 0.11734 0.04024 0.0
C1417 C 0.67336 0.17099 0.98325 0.0
N1418 N 0.72663 0.13499 0.06356 0.0
N1419 N 0.62023 0.14328 0.95162 0.0
H1420 H 0.69739 0.21878 0.95832 0.0
H1421 H 0.65362 0.20671 0.94065 0.0
H1422 H 0.59806 0.12454 0.94938 0.0
H1423 H 0.62443 0.15869 0.92766 0.0
H1424 H 0.72805 0.11266 0.08178 0.0
H1425 H 0.75048 0.15179 0.06417 0.0
H1426 H 0.67377 0.09678 0.09475 0.0
H1427 H 0.63438 0.07909 0.0727 0.0
C1428 C 0.50086 0.65544 0.83586 0.0
C1429 C 0.52645 0.68514 0.84085 0.0
C1430 C 0.54646 0.65767 0.89948 0.0
C1431 C 0.52358 0.62571 0.89303 0.0
N1432 N 0.48714 0.59108 0.8475 0.0
N1433 N 0.58246 0.70692 0.87107 0.0
C1434 C 0.50369 0.62336 0.85873 0.0
C1435 C 0.5521 0.68373 0.87062 0.0
N1436 N 0.47217 0.65849 0.81103 0.0
N1437 N 0.56255 0.6642 0.93304 0.0
H1438 H 0.58824 0.72541 0.8496 0.0
H1439 H 0.60394 0.70467 0.89049 0.0
H1440 H 0.56118 0.64609 0.9552 0.0
H1441 H 0.57545 0.68936 0.93963 0.0
H1442 H 0.45048 0.63915 0.80931 0.0
H1443 H 0.46773 0.68201 0.79486 0.0
H1444 H 0.47654 0.58754 0.82089 0.0
H1445 H 0.48582 0.56704 0.8632 0.0
C1446 C 0.37309 0.54965 0.83434 0.0
C1447 C 0.3499 0.51891 0.82553 0.0
C1448 C 0.37584 0.48389 0.87779 0.0
C1449 C 0.39874 0.51488 0.88704 0.0
N1450 N 0.41301 0.57983 0.8795 0.0
N1451 N 0.32362 0.45954 0.84202 0.0
C1452 C 0.39558 0.54853 0.86683 0.0
C1453 C 0.34952 0.48688 0.8483 0.0
N1454 N 0.3744 0.57956 0.8111 0.0
N1455 N 0.38038 0.4511 0.89624 0.0
H1456 H 0.3047 0.46035 0.82006 0.0
H1457 H 0.31892 0.43743 0.85996 0.0
H1458 H 0.39853 0.44828 0.91857 0.0
H1459 H 0.36803 0.42617 0.88819 0.0
H1460 H 0.39382 0.601 0.81361 0.0
H1461 H 0.35751 0.58188 0.78768 0.0
H1462 H 0.40819 0.60627 0.86885 0.0
H1463 H 0.43062 0.5798 0.9025 0.0
C1464 C 0.53169 0.36794 0.82131 0.0
C1465 C 0.50882 0.33609 0.82435 0.0
C1466 C 0.49454 0.35247 0.88864 0.0
C1467 C 0.51361 0.38738 0.88445 0.0
N1468 N 0.54605 0.42959 0.84226 0.0
N1469 N 0.46261 0.30137 0.85815 0.0
C1470 C 0.53077 0.39553 0.84948 0.0
C1471 C 0.4887 0.32924 0.85723 0.0
N1472 N 0.55533 0.37158 0.79177 0.0
N1473 N 0.48177 0.34081 0.92226 0.0
H1474 H 0.45729 0.28406 0.83565 0.0
H1475 H 0.44374 0.29777 0.87982 0.0
H1476 H 0.48071 0.3571 0.94581 0.0
H1477 H 0.47332 0.31354 0.92724 0.0
H1478 H 0.57632 0.3917 0.79035 0.0
H1479 H 0.55636 0.35243 0.77017 0.0
H1480 H 0.55278 0.43841 0.81567 0.0
H1481 H 0.55107 0.44994 0.86185 0.0
C1482 C 0.67796 0.46059 0.84802 0.0
C1483 C 0.69966 0.49298 0.84125 0.0
C1484 C 0.66415 0.52669 0.8884 0.0
C1485 C 0.64033 0.49546 0.89346 0.0
N1486 N 0.62324 0.4328 0.87699 0.0
N1487 N 0.70834 0.55886 0.84898 0.0
C1488 C 0.64661 0.46253 0.87258 0.0
C1489 C 0.69105 0.52664 0.85956 0.0
N1490 N 0.68847 0.42766 0.83232 0.0
N1491 N 0.66237 0.55593 0.91224 0.0
H1492 H 0.72817 0.55993 0.82782 0.0
H1493 H 0.70038 0.58497 0.85862 0.0
H1494 H 0.64318 0.55712 0.93377 0.0
H1495 H 0.68237 0.57704 0.91294 0.0
H1496 H 0.67681 0.40207 0.83919 0.0
H1497 H 0.71066 0.42557 0.81368 0.0
H1498 H 0.62354 0.40945 0.86005 0.0
H1499 H 0.60215 0.43211 0.8969 0.0
C1500 C 0.5427 0.34275 0.17248 0.0
C1501 C 0.51035 0.31992 0.17526 0.0
C1502 C 0.47991 0.35579 0.12591 0.0
C1503 C 0.51161 0.3797 0.12416 0.0
N1504 N 0.57023 0.40025 0.15063 0.0
N1505 N 0.4454 0.30921 0.16055 0.0
C1506 C 0.54197 0.37465 0.14916 0.0
C1507 C 0.47809 0.32789 0.15373 0.0
N1508 N 0.57483 0.33286 0.19059 0.0
N1509 N 0.45169 0.35937 0.10063 0.0
H1510 H 0.44313 0.28883 0.18092 0.0
H1511 H 0.4198 0.31617 0.14856 0.0
H1512 H 0.45089 0.38066 0.08119 0.0
H1513 H 0.43024 0.33999 0.09743 0.0
H1514 H 0.60069 0.34552 0.18602 0.0
H1515 H 0.57638 0.31009 0.20833 0.0
H1516 H 0.59085 0.4004 0.17101 0.0
H1517 H 0.57164 0.42308 0.13307 0.0
C1518 C 0.67878 0.53 0.17081 0.0
C1519 C 0.69534 0.49521 0.17948 0.0
C1520 C 0.65335 0.46391 0.13577 0.0
C1521 C 0.63536 0.4983 0.12836 0.0
N1522 N 0.62999 0.56411 0.13856 0.0
N1523 N 0.69452 0.42847 0.17583 0.0
C1524 C 0.64761 0.53133 0.14615 0.0
C1525 C 0.68125 0.46196 0.16377 0.0
N1526 N 0.69413 0.56186 0.18488 0.0
N1527 N 0.64532 0.43352 0.11456 0.0
H1528 H 0.71523 0.42618 0.19607 0.0
H1529 H 0.68278 0.40307 0.1683 0.0
H1530 H 0.62511 0.43386 0.09376 0.0
H1531 H 0.66056 0.40888 0.11558 0.0
H1532 H 0.68651 0.58852 0.17675 0.0
H1533 H 0.71603 0.56174 0.20398 0.0
H1534 H 0.63424 0.58861 0.1532 0.0
H1535 H 0.60941 0.56636 0.11828 0.0
C1536 C 0.53589 0.63703 0.19556 0.0
C1537 C 0.51242 0.66857 0.19392 0.0
C1538 C 0.49637 0.65335 0.12969 0.0
C1539 C 0.51568 0.61851 0.13271 0.0
N1540 N 0.55146 0.5765 0.17206 0.0
N1541 N 0.46514 0.70368 0.16202 0.0
C1542 C 0.53464 0.61016 0.16668 0.0
C1543 C 0.49132 0.67592 0.16171 0.0
N1544 N 0.56037 0.63309 0.22441 0.0
N1545 N 0.48282 0.66564 0.09658 0.0
H1546 H 0.46033 0.72048 0.18501 0.0
H1547 H 0.44578 0.70775 0.14087 0.0
H1548 H 0.48217 0.65011 0.07251 0.0
H1549 H 0.47374 0.69283 0.0924 0.0
H1550 H 0.58171 0.61334 0.2249 0.0
H1551 H 0.56159 0.65171 0.24646 0.0
H1552 H 0.55989 0.567 0.19794 0.0
H1553 H 0.556 0.55712 0.15142 0.0
C1554 C 0.35704 0.46296 0.17247 0.0
C1555 C 0.33439 0.49493 0.17784 0.0
C1556 C 0.36788 0.52721 0.12832 0.0
C1557 C 0.39232 0.49629 0.12438 0.0
N1558 N 0.4135 0.43636 0.14597 0.0
N1559 N 0.32392 0.56016 0.16736 0.0
C1560 C 0.38814 0.46477 0.14775 0.0
C1561 C 0.34169 0.5279 0.15777 0.0
N1562 N 0.34769 0.43035 0.18951 0.0
N1563 N 0.36883 0.55561 0.10336 0.0
H1564 H 0.30482 0.56171 0.18912 0.0
H1565 H 0.33087 0.58598 0.1563 0.0
H1566 H 0.38786 0.55664 0.08168 0.0
H1567 H 0.3487 0.57655 0.10225 0.0
H1568 H 0.36019 0.40496 0.18336 0.0
H1569 H 0.32552 0.42816 0.20816 0.0
H1570 H 0.4145 0.41469 0.16499 0.0
H1571 H 0.43501 0.4354 0.12654 0.0
C1572 C 0.84821 0.53359 0.66446 0.0
C1573 C 0.83202 0.49898 0.67434 0.0
C1574 C 0.87354 0.4668 0.63084 0.0
C1575 C 0.89113 0.50114 0.6222 0.0
N1576 N 0.88746 0.56787 0.62152 0.0
N1577 N 0.83281 0.43212 0.67199 0.0
C1578 C 0.87653 0.53481 0.63668 0.0
C1579 C 0.84566 0.46543 0.65892 0.0
N1580 N 0.8372 0.56518 0.6824 0.0
N1581 N 0.88149 0.43596 0.61029 0.0
H1582 H 0.81209 0.43005 0.69222 0.0
H1583 H 0.84482 0.40667 0.66514 0.0
H1584 H 0.90095 0.43617 0.58885 0.0
H1585 H 0.86664 0.41112 0.61222 0.0
H1586 H 0.8507 0.59068 0.67958 0.0
H1587 H 0.81621 0.56529 0.70248 0.0
H1588 H 0.87521 0.59333 0.62786 0.0
H1589 H 0.90668 0.5695 0.59989 0.0
C1590 C 0.49634 0.8445 0.67773 0.0
C1591 C 0.52484 0.81737 0.67418 0.0
C1592 C 0.55065 0.85072 0.62082 0.0
C1593 C 0.52313 0.87913 0.62527 0.0
N1594 N 0.47547 0.90689 0.66417 0.0
N1595 N 0.58316 0.79765 0.64713 0.0
C1596 C 0.4978 0.87729 0.65569 0.0
C1597 C 0.55317 0.82137 0.64711 0.0
N1598 N 0.46704 0.83842 0.70135 0.0
N1599 N 0.57454 0.85169 0.59141 0.0
H1600 H 0.58559 0.77544 0.66549 0.0
H1601 H 0.60703 0.80157 0.63104 0.0
H1602 H 0.57673 0.87447 0.57392 0.0
H1603 H 0.59118 0.82931 0.58343 0.0
H1604 H 0.44308 0.85494 0.70202 0.0
H1605 H 0.46515 0.81491 0.7181 0.0
H1606 H 0.45984 0.90863 0.68839 0.0
H1607 H 0.47483 0.9313 0.64891 0.0
C1608 C 0.18596 0.4853 0.66706 0.0
C1609 C 0.18405 0.51618 0.69129 0.0
C1610 C 0.13328 0.54291 0.65377 0.0
C1611 C 0.1356 0.51217 0.62913 0.0
N1612 N 0.17289 0.46087 0.60639 0.0
N1613 N 0.1625 0.57844 0.70306 0.0
C1614 C 0.16476 0.48558 0.63379 0.0
C1615 C 0.15961 0.54623 0.68323 0.0
N1616 N 0.20642 0.45466 0.67667 0.0
N1617 N 0.10609 0.56916 0.64883 0.0
H1618 H 0.1819 0.58195 0.72435 0.0
H1619 H 0.14824 0.60278 0.69643 0.0
H1620 H 0.08915 0.57002 0.62544 0.0
H1621 H 0.09948 0.58935 0.66835 0.0
H1622 H 0.20512 0.42964 0.66225 0.0
H1623 H 0.22215 0.45302 0.70088 0.0
H1624 H 0.19659 0.44394 0.60679 0.0
H1625 H 0.15839 0.45973 0.58155 0.0
C1626 C 0.54424 0.14877 0.68568 0.0
C1627 C 0.51075 0.16895 0.69222 0.0
C1628 C 0.4835 0.14225 0.63568 0.0
C1629 C 0.51511 0.11835 0.63216 0.0
N1630 N 0.57293 0.09486 0.65792 0.0
N1631 N 0.44646 0.1817 0.67605 0.0
C1632 C 0.54472 0.12048 0.65835 0.0
C1633 C 0.47989 0.16515 0.6677 0.0
N1634 N 0.57597 0.15724 0.70517 0.0
N1635 N 0.45658 0.14269 0.60883 0.0
H1636 H 0.44276 0.19866 0.6991 0.0
H1637 H 0.42166 0.17642 0.66179 0.0
H1638 H 0.45682 0.12471 0.58631 0.0
H1639 H 0.43518 0.16234 0.60769 0.0
H1640 H 0.60221 0.14607 0.69912 0.0
H1641 H 0.57686 0.17838 0.72487 0.0
H1642 H 0.59282 0.09246 0.67887 0.0
H1643 H 0.57459 0.07384 0.63834 0.0
C1644 C 0.84902 0.53117 0.35138 0.0
C1645 C 0.83682 0.49606 0.33833 0.0
C1646 C 0.88975 0.46593 0.3696 0.0
C1647 C 0.89844 0.50006 0.38731 0.0
N1648 N 0.88711 0.56558 0.3952 0.0
N1649 N 0.84395 0.42957 0.33557 0.0
C1650 C 0.87836 0.53288 0.37809 0.0
C1651 C 0.8569 0.46331 0.34736 0.0
N1652 N 0.8328 0.5628 0.33782 0.0
N1653 N 0.91323 0.43619 0.37354 0.0
H1654 H 0.82081 0.42675 0.31814 0.0
H1655 H 0.85457 0.4043 0.34486 0.0
H1656 H 0.93719 0.43698 0.39 0.0
H1657 H 0.91066 0.41172 0.35842 0.0
H1658 H 0.84258 0.58949 0.3432 0.0
H1659 H 0.81104 0.56232 0.31855 0.0
H1660 H 0.87208 0.5901 0.39187 0.0
H1661 H 0.90869 0.5679 0.4145 0.0
C1662 C 0.48086 0.85767 0.33463 0.0
C1663 C 0.51257 0.8351 0.32719 0.0
C1664 C 0.54333 0.85958 0.38287 0.0
C1665 C 0.51401 0.88607 0.38714 0.0
N1666 N 0.45589 0.91224 0.36486 0.0
N1667 N 0.57612 0.81754 0.34166 0.0
C1668 C 0.48307 0.88565 0.36234 0.0
C1669 C 0.54428 0.83656 0.35082 0.0
N1670 N 0.44819 0.85163 0.31578 0.0
N1671 N 0.57044 0.85633 0.40928 0.0
H1672 H 0.57788 0.8002 0.31867 0.0
H1673 H 0.60166 0.82115 0.35517 0.0
H1674 H 0.57196 0.87366 0.4322 0.0
H1675 H 0.58976 0.83464 0.40991 0.0
H1676 H 0.42291 0.86447 0.3224 0.0
H1677 H 0.44546 0.83089 0.29582 0.0
H1678 H 0.43528 0.91624 0.34487 0.0
H1679 H 0.45531 0.93202 0.38578 0.0
C1680 C 0.19302 0.46323 0.36494 0.0
C1681 C 0.20164 0.49507 0.34359 0.0
C1682 C 0.14665 0.52745 0.36882 0.0
C1683 C 0.14029 0.49697 0.39303 0.0
N1684 N 0.15868 0.43685 0.41634 0.0
N1685 N 0.18893 0.55832 0.32594 0.0
C1686 C 0.16385 0.46513 0.39167 0.0
C1687 C 0.17894 0.52737 0.34556 0.0
N1688 N 0.21213 0.43083 0.35893 0.0
N1689 N 0.12183 0.55641 0.36805 0.0
H1690 H 0.21156 0.55875 0.30768 0.0
H1691 H 0.17636 0.5842 0.32919 0.0
H1692 H 0.09896 0.5584 0.38583 0.0
H1693 H 0.12242 0.57753 0.34845 0.0
H1694 H 0.20454 0.40543 0.37048 0.0
H1695 H 0.23399 0.42861 0.3399 0.0
H1696 H 0.17765 0.4152 0.42008 0.0
H1697 H 0.13625 0.436 0.43473 0.0
C1698 C 0.49042 0.15429 0.33606 0.0
C1699 C 0.51147 0.18703 0.34211 0.0
C1700 C 0.53312 0.16246 0.40168 0.0
C1701 C 0.51502 0.12752 0.39441 0.0
N1702 N 0.47864 0.09009 0.35125 0.0
N1703 N 0.55776 0.22031 0.37716 0.0
C1704 C 0.49459 0.12334 0.36049 0.0
C1705 C 0.53414 0.19048 0.37388 0.0
N1706 N 0.46504 0.15326 0.30773 0.0
N1707 N 0.54913 0.1698 0.43518 0.0
H1708 H 0.55897 0.24175 0.3578 0.0
H1709 H 0.57841 0.22241 0.39738 0.0
H1710 H 0.55453 0.15013 0.45534 0.0
H1711 H 0.55626 0.19652 0.44376 0.0
H1712 H 0.4452 0.13227 0.30445 0.0
H1713 H 0.46156 0.17512 0.28912 0.0
H1714 H 0.46918 0.08393 0.32474 0.0
H1715 H 0.4756 0.06789 0.36923 0.0
C1716 C 0.67241 0.8347 0.47217 0.0
C1717 C 0.68417 0.81889 0.50614 0.0
C1718 C 0.65371 0.86947 0.54016 0.0
C1719 C 0.63827 0.88262 0.50659 0.0
N1720 N 0.6444 0.88751 0.4408 0.0
N1721 N 0.68582 0.81982 0.57267 0.0
C1722 C 0.65089 0.86801 0.4725 0.0
C1723 C 0.67516 0.83613 0.54021 0.0
N1724 N 0.68068 0.81714 0.43971 0.0
N1725 N 0.64956 0.89007 0.57154 0.0
H1726 H 0.70256 0.79607 0.57376 0.0
H1727 H 0.67626 0.82835 0.59846 0.0
H1728 H 0.63471 0.91501 0.57188 0.0
H1729 H 0.66325 0.88433 0.59626 0.0
H1730 H 0.66927 0.8247 0.41435 0.0
H1731 H 0.69739 0.79337 0.43839 0.0
H1732 H 0.65584 0.88067 0.41527 0.0
H1733 H 0.62997 0.91271 0.44077 0.0
C1734 C 0.68954 0.1601 0.52096 0.0
C1735 C 0.68587 0.18331 0.48958 0.0
C1736 C 0.63961 0.14042 0.463 0.0
C1737 C 0.64037 0.11949 0.49619 0.0
N1738 N 0.67755 0.09998 0.54824 0.0
N1739 N 0.65883 0.19613 0.43001 0.0
C1740 C 0.66877 0.12645 0.52273 0.0
C1741 C 0.66169 0.17334 0.46009 0.0
N1742 N 0.71176 0.17091 0.54984 0.0
N1743 N 0.6197 0.12724 0.43352 0.0
H1744 H 0.67532 0.21986 0.42666 0.0
H1745 H 0.63915 0.19267 0.4091 0.0
H1746 H 0.60359 0.10306 0.43488 0.0
H1747 H 0.62102 0.13844 0.40709 0.0
H1748 H 0.71189 0.15755 0.57534 0.0
H1749 H 0.72812 0.19495 0.54934 0.0
H1750 H 0.70081 0.10166 0.56556 0.0
H1751 H 0.66446 0.07419 0.54907 0.0
C1752 C 0.87254 0.67819 0.54297 0.0
C1753 C 0.84824 0.68388 0.51242 0.0
C1754 C 0.86609 0.62306 0.48785 0.0
C1755 C 0.89584 0.62085 0.51394 0.0
N1756 N 0.92591 0.64528 0.56854 0.0
N1757 N 0.82616 0.66395 0.45257 0.0
C1758 C 0.89864 0.6482 0.54217 0.0
C1759 C 0.84589 0.65679 0.48415 0.0
N1760 N 0.86972 0.70073 0.57323 0.0
N1761 N 0.85621 0.59305 0.46699 0.0
H1762 H 0.81169 0.68869 0.44799 0.0
H1763 H 0.82723 0.64678 0.42941 0.0
H1764 H 0.8696 0.56749 0.46828 0.0
H1765 H 0.83189 0.59246 0.451 0.0
H1766 H 0.88405 0.69606 0.59783 0.0
H1767 H 0.85026 0.7223 0.57499 0.0
H1768 H 0.93274 0.66655 0.58683 0.0
H1769 H 0.94258 0.6217 0.57148 0.0
C1770 C 0.34191 0.8533 0.53054 0.0
C1771 C 0.3358 0.833 0.49762 0.0
C1772 C 0.39212 0.86156 0.47051 0.0
C1773 C 0.39517 0.88533 0.5018 0.0
N1774 N 0.3678 0.90831 0.55843 0.0
N1775 N 0.35237 0.82038 0.4344 0.0
C1776 C 0.36859 0.88248 0.53089 0.0
C1777 C 0.36041 0.8375 0.46714 0.0
N1778 N 0.32261 0.84415 0.56187 0.0
N1779 N 0.41897 0.86251 0.44361 0.0
H1780 H 0.32968 0.80238 0.4311 0.0
H1781 H 0.36651 0.82594 0.40988 0.0
H1782 H 0.44084 0.8817 0.44347 0.0
H1783 H 0.42069 0.8431 0.42237 0.0
H1784 H 0.32857 0.85555 0.58766 0.0
H1785 H 0.30337 0.82231 0.56286 0.0
H1786 H 0.34592 0.91027 0.5774 0.0
H1787 H 0.38709 0.92986 0.56044 0.0
C1788 C 0.18955 0.35149 0.54224 0.0
C1789 C 0.19871 0.33356 0.50858 0.0
C1790 C 0.14335 0.36091 0.47874 0.0
C1791 C 0.13598 0.38119 0.5116 0.0
N1792 N 0.14444 0.38767 0.57711 0.0
N1793 N 0.18576 0.32057 0.44463 0.0
C1794 C 0.15696 0.37417 0.5441 0.0
C1795 C 0.17568 0.33767 0.47689 0.0
N1796 N 0.21297 0.34808 0.57198 0.0
N1797 N 0.11889 0.36324 0.44974 0.0
H1798 H 0.20843 0.30234 0.44275 0.0
H1799 H 0.17303 0.32552 0.41927 0.0
H1800 H 0.09554 0.38062 0.44987 0.0
H1801 H 0.12018 0.34662 0.4263 0.0
H1802 H 0.21064 0.36402 0.59584 0.0
H1803 H 0.23634 0.33063 0.57206 0.0
H1804 H 0.15539 0.37985 0.60258 0.0
H1805 H 0.12096 0.4048 0.57929 0.0
C1806 C 0.36228 0.16845 0.47327 0.0
C1807 C 0.33852 0.17366 0.50421 0.0
C1808 C 0.37436 0.1275 0.53936 0.0
C1809 C 0.39896 0.123 0.50888 0.0
N1810 N 0.42032 0.14341 0.44895 0.0
N1811 N 0.32664 0.16503 0.56908 0.0
C1812 C 0.39433 0.14507 0.4766 0.0
C1813 C 0.34612 0.15531 0.53804 0.0
N1814 N 0.35309 0.1843 0.44018 0.0
N1815 N 0.37736 0.10451 0.56923 0.0
H1816 H 0.30599 0.18558 0.56906 0.0
H1817 H 0.33324 0.15542 0.59539 0.0
H1818 H 0.39852 0.08474 0.57177 0.0
H1819 H 0.35755 0.10327 0.5903 0.0
H1820 H 0.36641 0.17792 0.41542 0.0
H1821 H 0.33036 0.20226 0.43696 0.0
H1822 H 0.42099 0.16173 0.42673 0.0
H1823 H 0.4428 0.12501 0.44929 0.0
C1824 C 0.8524 0.34402 0.47085 0.0
C1825 C 0.84713 0.321 0.50223 0.0
C1826 C 0.89264 0.35816 0.53709 0.0
C1827 C 0.89658 0.38229 0.5063 0.0
N1828 N 0.87472 0.40265 0.4465 0.0
N1829 N 0.85492 0.31125 0.56759 0.0
C1830 C 0.87442 0.37682 0.47414 0.0
C1831 C 0.865 0.32973 0.53613 0.0
N1832 N 0.83835 0.33341 0.43734 0.0
N1833 N 0.91579 0.36182 0.56698 0.0
H1834 H 0.83436 0.29061 0.56791 0.0
H1835 H 0.86416 0.3188 0.59381 0.0
H1836 H 0.93533 0.38319 0.56964 0.0
H1837 H 0.91727 0.34236 0.58821 0.0
H1838 H 0.8452 0.34658 0.41264 0.0
H1839 H 0.82222 0.30953 0.43364 0.0
H1840 H 0.85596 0.40226 0.42446 0.0
H1841 H 0.89187 0.42607 0.44689 0.0
C1842 C 0.17927 0.66097 0.46972 0.0
C1843 C 0.20188 0.66705 0.50127 0.0
C1844 C 0.16252 0.62419 0.53722 0.0
C1845 C 0.14085 0.61701 0.505 0.0
N1846 N 0.13631 0.61935 0.43872 0.0
N1847 N 0.21795 0.65295 0.56429 0.0
C1848 C 0.15118 0.633 0.47072 0.0
C1849 C 0.19423 0.64834 0.53493 0.0
N1850 N 0.18432 0.68218 0.43881 0.0
N1851 N 0.15296 0.60751 0.56981 0.0
H1852 H 0.24064 0.67128 0.5638 0.0
H1853 H 0.21656 0.63761 0.58857 0.0
H1854 H 0.13175 0.58767 0.57182 0.0
H1855 H 0.16466 0.61418 0.59526 0.0
H1856 H 0.16599 0.68162 0.4164 0.0
H1857 H 0.20497 0.70265 0.43689 0.0
H1858 H 0.14591 0.6269 0.41262 0.0
H1859 H 0.11653 0.59799 0.43831 0.0
loop_
_geom_bond_atom_site_label_1
_geom_bond_atom_site_label_2
_geom_bond_distance
_geom_bond_site_symmetry_2
_ccdc_geom_bond_type
H0 C3 0.929 . S
H1 C6 0.929 . S
H2 C8 0.930 . S
C3 H0 0.929 . S
C3 C4 1.398 . S
C3 C5 1.396 . S
C4 C3 1.398 . S
C4 C8 1.407 . S
C5 C3 1.396 . S
C5 C6 1.394 . S
C6 H1 0.929 . S
C6 C5 1.394 . S
C6 C7 1.382 . S
C7 C6 1.382 . S
C7 C8 1.392 . S
C7 N9 1.420 . S
C8 H2 0.930 . S
C8 C4 1.407 . S
C8 C7 1.392 . S
N9 C7 1.420 . S
N9 C10 1.244 . S
C10 N9 1.244 . S
H11 C14 0.929 . S
H12 C17 0.929 . S
H13 C19 0.930 . S
C14 H11 0.929 . S
C14 C15 1.396 1_545 S
C14 C16 1.395 1_545 S
C15 C14 1.396 1_565 S
C15 C19 1.412 . S
C16 C14 1.395 1_565 S
C16 C17 1.395 . S
C17 H12 0.929 . S
C17 C16 1.395 . S
C17 C18 1.382 . S
C18 C17 1.382 . S
C18 C19 1.392 . S
C18 N20 1.420 . S
C19 H13 0.930 . S
C19 C15 1.412 . S
C19 C18 1.392 . S
N20 C18 1.420 . S
N20 C21 1.244 1_565 S
C21 N20 1.244 1_545 S
H22 C25 0.929 . S
H23 C28 0.929 . S
H24 C30 0.930 . S
C25 H22 0.929 . S
C25 C26 1.398 . S
C25 C27 1.396 . S
C26 C25 1.398 . S
C26 C30 1.407 . S
C27 C25 1.396 . S
C27 C28 1.394 . S
C28 H23 0.929 . S
C28 C27 1.394 . S
C28 C29 1.382 . S
C29 C28 1.382 . S
C29 C30 1.392 . S
C29 N31 1.420 . S
C30 H24 0.930 . S
C30 C26 1.407 . S
C30 C29 1.392 . S
N31 C29 1.420 . S
N31 C32 1.244 . S
C32 N31 1.244 . S
H33 C36 0.929 . S
H34 C39 0.929 . S
H35 C41 0.930 . S
C36 H33 0.929 . S
C36 C37 1.396 1_545 S
C36 C38 1.395 1_545 S
C37 C36 1.396 1_565 S
C37 C41 1.411 . S
C38 C36 1.395 1_565 S
C38 C39 1.395 . S
C39 H34 0.929 . S
C39 C38 1.395 . S
C39 C40 1.382 . S
C40 C39 1.382 . S
C40 C41 1.392 . S
C40 N42 1.420 . S
C41 H35 0.930 . S
C41 C37 1.411 . S
C41 C40 1.392 . S
N42 C40 1.420 . S
N42 C43 1.244 1_565 S
C43 N42 1.244 1_545 S
H44 C47 0.929 . S
H45 C50 0.929 . S
H46 C52 0.930 . S
C47 H44 0.929 . S
C47 C48 1.398 . S
C47 C49 1.396 . S
C48 C47 1.398 . S
C48 C52 1.407 . S
C49 C47 1.396 . S
C49 C50 1.394 . S
C50 H45 0.929 . S
C50 C49 1.394 . S
C50 C51 1.382 . S
C51 C50 1.382 . S
C51 C52 1.392 . S
C51 N53 1.420 . S
C52 H46 0.930 . S
C52 C48 1.407 . S
C52 C51 1.392 . S
N53 C51 1.420 . S
N53 C54 1.244 . S
C54 N53 1.244 . S
H55 C58 0.929 . S
H56 C61 0.929 . S
H57 C63 0.930 . S
C58 H55 0.929 . S
C58 C59 1.398 1_565 S
C58 C60 1.393 1_565 S
C59 C58 1.398 1_545 S
C59 C63 1.407 . S
C60 C58 1.393 1_545 S
C60 C61 1.400 . S
C61 H56 0.929 . S
C61 C60 1.400 . S
C61 C62 1.382 . S
C62 C61 1.382 . S
C62 C63 1.392 . S
C62 N64 1.420 . S
C63 H57 0.930 . S
C63 C59 1.407 . S
C63 C62 1.392 . S
N64 C62 1.420 . S
N64 C65 1.238 1_545 S
C65 N64 1.238 1_565 S
H66 C69 0.929 . S
H67 C72 0.929 . S
H68 C74 0.930 . S
C69 H66 0.929 . S
C69 C70 1.398 . S
C69 C71 1.396 . S
C70 C69 1.398 . S
C70 C74 1.407 . S
C71 C69 1.396 . S
C71 C72 1.394 . S
C72 H67 0.929 . S
C72 C71 1.394 . S
C72 C73 1.382 . S
C73 C72 1.382 . S
C73 C74 1.392 . S
C73 N75 1.420 . S
C74 H68 0.930 . S
C74 C70 1.407 . S
C74 C73 1.392 . S
N75 C73 1.420 . S
N75 C76 1.244 . S
C76 N75 1.244 . S
H77 C80 0.929 . S
H78 C83 0.929 . S
H79 C85 0.930 . S
C80 H77 0.929 . S
C80 C81 1.396 1_545 S
C80 C82 1.395 1_545 S
C81 C80 1.396 1_565 S
C81 C85 1.413 . S
C82 C80 1.395 1_565 S
C82 C83 1.396 . S
C83 H78 0.929 . S
C83 C82 1.396 . S
C83 C84 1.382 . S
C84 C83 1.382 . S
C84 C85 1.392 . S
C84 N86 1.420 . S
C85 H79 0.930 . S
C85 C81 1.413 . S
C85 C84 1.392 . S
N86 C84 1.420 . S
N86 C87 1.244 1_565 S
C87 N86 1.244 1_545 S
H88 C91 0.929 . S
H89 C94 0.929 . S
H90 C96 0.930 . S
C91 H88 0.929 . S
C91 C92 1.398 . S
C91 C93 1.396 . S
C92 C91 1.398 . S
C92 C96 1.407 1_554 S
C93 C91 1.396 . S
C93 C94 1.394 1_554 S
C94 H89 0.929 . S
C94 C93 1.394 1_556 S
C94 C95 1.382 . S
C95 C94 1.382 . S
C95 C96 1.392 . S
C95 N97 1.420 . S
C96 H90 0.930 . S
C96 C92 1.407 1_556 S
C96 C95 1.392 . S
N97 C95 1.420 . S
N97 C98 1.244 1_556 S
C98 N97 1.244 1_554 S
H99 C102 0.929 1_556 S
H100 C105 0.929 . S
H101 C107 0.930 . S
C102 H99 0.929 1_554 S
C102 C103 1.398 . S
C102 C104 1.396 . S
C103 C102 1.398 . S
C103 C107 1.407 . S
C104 C102 1.396 . S
C104 C105 1.394 . S
C105 H100 0.929 . S
C105 C104 1.394 . S
C105 C106 1.382 . S
C106 C105 1.382 . S
C106 C107 1.392 . S
C106 N108 1.420 . S
C107 H101 0.930 . S
C107 C103 1.407 . S
C107 C106 1.392 . S
N108 C106 1.420 . S
N108 C109 1.244 . S
C109 N108 1.244 . S
H110 C113 0.929 . S
H111 C116 0.929 . S
H112 C118 0.930 . S
C113 H110 0.929 . S
C113 C114 1.398 . S
C113 C115 1.396 . S
C114 C113 1.398 . S
C114 C118 1.407 1_554 S
C115 C113 1.396 . S
C115 C116 1.394 1_554 S
C116 H111 0.929 . S
C116 C115 1.394 1_556 S
C116 C117 1.382 . S
C117 C116 1.382 . S
C117 C118 1.392 . S
C117 N119 1.420 . S
C118 H112 0.930 . S
C118 C114 1.407 1_556 S
C118 C117 1.392 . S
N119 C117 1.420 . S
N119 C120 1.244 1_556 S
C120 N119 1.244 1_554 S
H121 C124 0.929 1_556 S
H122 C127 0.929 . S
H123 C129 0.930 . S
C124 H121 0.929 1_554 S
C124 C125 1.398 . S
C124 C126 1.396 . S
C125 C124 1.398 . S
C125 C129 1.407 . S
C126 C124 1.396 . S
C126 C127 1.394 . S
C127 H122 0.929 . S
C127 C126 1.394 . S
C127 C128 1.382 . S
C128 C127 1.382 . S
C128 C129 1.392 . S
C128 N130 1.420 . S
C129 H123 0.930 . S
C129 C125 1.407 . S
C129 C128 1.392 . S
N130 C128 1.420 . S
N130 C131 1.244 . S
C131 N130 1.244 . S
H132 C135 0.929 . S
H133 C138 0.929 . S
H134 C140 0.930 . S
C135 H132 0.929 . S
C135 C136 1.398 . S
C135 C137 1.396 . S
C136 C135 1.398 . S
C136 C140 1.407 . S
C137 C135 1.396 . S
C137 C138 1.394 . S
C138 H133 0.929 . S
C138 C137 1.394 . S
C138 C139 1.382 . S
C139 C138 1.382 . S
C139 C140 1.392 . S
C139 N141 1.420 . S
C140 H134 0.930 . S
C140 C136 1.407 . S
C140 C139 1.392 . S
N141 C139 1.420 . S
N141 C142 1.244 . S
C142 N141 1.244 . S
H143 C146 0.929 . S
H144 C149 0.929 . S
H145 C151 0.930 . S
C146 H143 0.929 . S
C146 C147 1.398 . S
C146 C148 1.396 . S
C147 C146 1.398 . S
C147 C151 1.407 . S
C148 C146 1.396 . S
C148 C149 1.394 . S
C149 H144 0.929 . S
C149 C148 1.394 . S
C149 C150 1.382 . S
C150 C149 1.382 . S
C150 C151 1.392 . S
C150 N152 1.420 . S
C151 H145 0.930 . S
C151 C147 1.407 . S
C151 C150 1.392 . S
N152 C150 1.420 . S
N152 C153 1.244 . S
C153 N152 1.244 . S
H154 C157 0.929 . S
H155 C160 0.929 . S
H156 C162 0.930 . S
C157 H154 0.929 . S
C157 C158 1.398 . S
C157 C159 1.396 . S
C158 C157 1.398 . S
C158 C162 1.407 . S
C159 C157 1.396 . S
C159 C160 1.394 . S
C160 H155 0.929 . S
C160 C159 1.394 . S
C160 C161 1.382 . S
C161 C160 1.382 . S
C161 C162 1.392 . S
C161 N163 1.420 . S
C162 H156 0.930 . S
C162 C158 1.407 . S
C162 C161 1.392 . S
N163 C161 1.420 . S
N163 C164 1.244 . S
C164 N163 1.244 . S
H165 C168 0.929 . S
H166 C171 0.929 . S
H167 C173 0.930 . S
C168 H165 0.929 . S
C168 C169 1.398 . S
C168 C170 1.396 . S
C169 C168 1.398 . S
C169 C173 1.407 . S
C170 C168 1.396 . S
C170 C171 1.394 . S
C171 H166 0.929 . S
C171 C170 1.394 . S
C171 C172 1.382 . S
C172 C171 1.382 . S
C172 C173 1.392 . S
C172 N174 1.420 . S
C173 H167 0.930 . S
C173 C169 1.407 . S
C173 C172 1.392 . S
N174 C172 1.420 . S
N174 C175 1.244 . S
C175 N174 1.244 . S
H176 C179 0.929 . S
H177 C182 0.929 . S
H178 C184 0.930 . S
C179 H176 0.929 . S
C179 C180 1.398 . S
C179 C181 1.396 . S
C180 C179 1.398 . S
C180 C184 1.407 . S
C181 C179 1.396 . S
C181 C182 1.394 . S
C182 H177 0.929 . S
C182 C181 1.394 . S
C182 C183 1.382 . S
C183 C182 1.382 . S
C183 C184 1.392 . S
C183 N185 1.420 . S
C184 H178 0.930 . S
C184 C180 1.407 . S
C184 C183 1.392 . S
N185 C183 1.420 . S
N185 C186 1.244 . S
C186 N185 1.244 . S
H187 C190 0.929 . S
H188 C193 0.929 . S
H189 C195 0.930 . S
C190 H187 0.929 . S
C190 C191 1.398 . S
C190 C192 1.396 . S
C191 C190 1.398 . S
C191 C195 1.407 . S
C192 C190 1.396 . S
C192 C193 1.394 . S
C193 H188 0.929 . S
C193 C192 1.394 . S
C193 C194 1.382 . S
C194 C193 1.382 . S
C194 C195 1.392 . S
C194 N196 1.420 . S
C195 H189 0.930 . S
C195 C191 1.407 . S
C195 C194 1.392 . S
N196 C194 1.420 . S
N196 C197 1.244 . S
C197 N196 1.244 . S
H198 C201 0.929 . S
H199 C204 0.929 . S
H200 C206 0.930 . S
C201 H198 0.929 . S
C201 C202 1.398 . S
C201 C203 1.396 . S
C202 C201 1.398 . S
C202 C206 1.407 . S
C203 C201 1.396 . S
C203 C204 1.394 . S
C204 H199 0.929 . S
C204 C203 1.394 . S
C204 C205 1.382 . S
C205 C204 1.382 . S
C205 C206 1.392 . S
C205 N207 1.420 . S
C206 H200 0.930 . S
C206 C202 1.407 . S
C206 C205 1.392 . S
N207 C205 1.420 . S
N207 C208 1.244 . S
C208 N207 1.244 . S
H209 C212 0.929 . S
H210 C215 0.929 . S
H211 C217 0.930 . S
C212 H209 0.929 . S
C212 C213 1.398 . S
C212 C214 1.396 . S
C213 C212 1.398 . S
C213 C217 1.407 . S
C214 C212 1.396 . S
C214 C215 1.394 . S
C215 H210 0.929 . S
C215 C214 1.394 . S
C215 C216 1.382 . S
C216 C215 1.382 . S
C216 C217 1.392 . S
C216 N218 1.420 . S
C217 H211 0.930 . S
C217 C213 1.407 . S
C217 C216 1.392 . S
N218 C216 1.420 . S
N218 C219 1.244 . S
C219 N218 1.244 . S
H220 C223 0.929 . S
H221 C226 0.929 . S
H222 C228 0.930 . S
C223 H220 0.929 . S
C223 C224 1.398 . S
C223 C225 1.396 . S
C224 C223 1.398 . S
C224 C228 1.407 . S
C225 C223 1.396 . S
C225 C226 1.394 . S
C226 H221 0.929 . S
C226 C225 1.394 . S
C226 C227 1.382 . S
C227 C226 1.382 . S
C227 C228 1.392 . S
C227 N229 1.420 . S
C228 H222 0.930 . S
C228 C224 1.407 . S
C228 C227 1.392 . S
N229 C227 1.420 . S
N229 C230 1.244 . S
C230 N229 1.244 . S
H231 C234 0.929 . S
H232 C237 0.929 . S
H233 C239 0.930 . S
C234 H231 0.929 . S
C234 C235 1.398 . S
C234 C236 1.396 . S
C235 C234 1.398 . S
C235 C239 1.407 . S
C236 C234 1.396 . S
C236 C237 1.394 . S
C237 H232 0.929 . S
C237 C236 1.394 . S
C237 C238 1.382 . S
C238 C237 1.382 . S
C238 C239 1.392 . S
C238 N240 1.420 . S
C239 H233 0.930 . S
C239 C235 1.407 . S
C239 C238 1.392 . S
N240 C238 1.420 . S
N240 C241 1.244 . S
C241 N240 1.244 . S
H242 C245 0.929 . S
H243 C248 0.929 . S
H244 C250 0.930 . S
C245 H242 0.929 . S
C245 C246 1.398 . S
C245 C247 1.396 . S
C246 C245 1.398 . S
C246 C250 1.407 . S
C247 C245 1.396 . S
C247 C248 1.394 . S
C248 H243 0.929 . S
C248 C247 1.394 . S
C248 C249 1.382 . S
C249 C248 1.382 . S
C249 C250 1.392 . S
C249 N251 1.420 . S
C250 H244 0.930 . S
C250 C246 1.407 . S
C250 C249 1.392 . S
N251 C249 1.420 . S
N251 C252 1.244 . S
C252 N251 1.244 . S
H253 C256 0.929 . S
H254 C259 0.929 . S
H255 C261 0.930 . S
C256 H253 0.929 . S
C256 C257 1.398 . S
C256 C258 1.396 . S
C257 C256 1.398 . S
C257 C261 1.407 . S
C258 C256 1.396 . S
C258 C259 1.394 . S
C259 H254 0.929 . S
C259 C258 1.394 . S
C259 C260 1.382 . S
C260 C259 1.382 . S
C260 C261 1.392 . S
C260 N262 1.420 . S
C261 H255 0.930 . S
C261 C257 1.407 . S
C261 C260 1.392 . S
N262 C260 1.420 . S
N262 C263 1.244 . S
C263 N262 1.244 . S
C264 O290 1.283 . S
C264 O308 1.283 . S
C265 O291 1.283 . S
C265 O306 1.283 . S
C266 O292 1.283 . S
C266 O309 1.283 . S
C267 O293 1.283 . S
C267 O307 1.283 . S
C268 O294 1.283 . S
C268 O303 1.283 . S
C269 O295 1.283 . S
C269 O305 1.283 . S
C270 O296 1.283 . S
C270 O302 1.283 . S
C271 O297 1.283 . S
C271 O304 1.283 . S
C272 O298 1.283 . S
C272 O313 1.283 . S
C273 O299 1.283 . S
C273 O311 1.283 . S
C274 O300 1.283 . S
C274 O312 1.283 . S
C275 O301 1.283 . S
C275 O310 1.283 . S
Eu276 O277 2.370 1_455 S
Eu276 O278 2.370 . S
Eu276 O281 2.370 1_455 S
Eu276 O282 2.370 . S
Eu276 O290 2.363 . S
Eu276 O291 2.363 . S
Eu276 O304 2.363 . S
Eu276 O305 2.363 1_455 S
O277 Eu276 2.370 1_655 S
O277 Eu279 2.364 1_565 S
O277 Eu284 2.364 1_665 S
O278 Eu276 2.370 . S
O278 Eu280 2.364 1_565 S
O278 Eu283 2.365 1_565 S
Eu279 O277 2.364 1_545 S
Eu279 O281 2.364 1_545 S
Eu279 O285 2.376 . S
Eu279 O286 2.376 . S
Eu279 O294 2.373 . S
Eu279 O295 2.353 1_545 S
Eu279 O310 2.363 . S
Eu279 O311 2.363 . S
Eu280 O278 2.364 1_545 S
Eu280 O282 2.364 1_545 S
Eu280 O287 2.376 . S
Eu280 O288 2.376 . S
Eu280 O296 2.373 . S
Eu280 O297 2.353 1_545 S
Eu280 O312 2.363 . S
Eu280 O313 2.363 . S
O281 Eu276 2.370 1_655 S
O281 Eu279 2.364 1_565 S
O281 Eu283 2.365 1_665 S
O282 Eu276 2.370 . S
O282 Eu280 2.364 1_565 S
O282 Eu284 2.364 1_565 S
Eu283 O278 2.365 1_545 S
Eu283 O281 2.365 1_445 S
Eu283 O285 2.376 1_455 S
Eu283 O288 2.376 . S
Eu283 O300 2.363 . S
Eu283 O301 2.363 1_455 S
Eu283 O308 2.354 1_545 S
Eu283 O309 2.372 . S
Eu284 O277 2.364 1_445 S
Eu284 O282 2.364 1_545 S
Eu284 O286 2.376 1_455 S
Eu284 O287 2.376 . S
Eu284 O298 2.363 . S
Eu284 O299 2.363 1_455 S
Eu284 O306 2.353 1_545 S
Eu284 O307 2.373 . S
O285 Eu279 2.376 . S
O285 Eu283 2.376 1_655 S
O285 Eu289 2.370 1_655 S
O286 Eu279 2.376 . S
O286 Eu284 2.376 1_655 S
O286 Eu289 2.370 1_655 S
O287 Eu280 2.376 . S
O287 Eu284 2.376 . S
O287 Eu289 2.370 . S
O288 Eu280 2.376 . S
O288 Eu283 2.376 . S
O288 Eu289 2.370 . S
Eu289 O285 2.370 1_455 S
Eu289 O286 2.370 1_455 S
Eu289 O287 2.370 . S
Eu289 O288 2.370 . S
Eu289 O292 2.363 . S
Eu289 O293 2.363 . S
Eu289 O302 2.363 . S
Eu289 O303 2.363 1_455 S
O290 C264 1.283 . S
O290 Eu276 2.363 . S
O291 C265 1.283 . S
O291 Eu276 2.363 . S
O292 C266 1.283 . S
O292 Eu289 2.363 . S
O293 C267 1.283 . S
O293 Eu289 2.363 . S
O294 C268 1.283 . S
O294 Eu279 2.373 . S
O295 C269 1.283 . S
O295 Eu279 2.353 1_565 S
O296 C270 1.283 . S
O296 Eu280 2.373 . S
O297 C271 1.283 . S
O297 Eu280 2.353 1_565 S
O298 C272 1.283 . S
O298 Eu284 2.363 . S
O299 C273 1.283 . S
O299 Eu284 2.363 1_655 S
O300 C274 1.283 . S
O300 Eu283 2.363 . S
O301 C275 1.283 . S
O301 Eu283 2.363 1_655 S
O302 C270 1.283 . S
O302 Eu289 2.363 . S
O303 C268 1.283 . S
O303 Eu289 2.363 1_655 S
O304 C271 1.283 . S
O304 Eu276 2.363 . S
O305 C269 1.283 . S
O305 Eu276 2.363 1_655 S
O306 C265 1.283 . S
O306 Eu284 2.353 1_565 S
O307 C267 1.283 . S
O307 Eu284 2.373 . S
O308 C264 1.283 . S
O308 Eu283 2.354 1_565 S
O309 C266 1.283 . S
O309 Eu283 2.372 . S
O310 C275 1.283 . S
O310 Eu279 2.363 . S
O311 C273 1.283 . S
O311 Eu279 2.363 . S
O312 C274 1.283 . S
O312 Eu280 2.363 . S
O313 C272 1.283 . S
O313 Eu280 2.363 . S
C314 O340 1.283 . S
C314 O358 1.283 . S
C315 O341 1.283 . S
C315 O356 1.283 . S
C316 O342 1.283 . S
C316 O359 1.283 . S
C317 O343 1.283 . S
C317 O357 1.283 . S
C318 O344 1.283 . S
C318 O353 1.283 . S
C319 O345 1.283 . S
C319 O355 1.283 . S
C320 O346 1.283 . S
C320 O352 1.283 . S
C321 O347 1.283 . S
C321 O354 1.283 . S
C322 O348 1.283 . S
C322 O363 1.283 . S
C323 O349 1.283 . S
C323 O361 1.283 . S
C324 O350 1.283 . S
C324 O362 1.283 . S
C325 O351 1.283 . S
C325 O360 1.283 . S
Eu326 O327 2.380 . S
Eu326 O328 2.360 1_545 S
Eu326 O331 2.360 1_545 S
Eu326 O332 2.380 . S
Eu326 O340 2.346 1_545 S
Eu326 O341 2.380 . S
Eu326 O354 2.363 . S
Eu326 O355 2.363 . S
O327 Eu326 2.380 . S
O327 Eu329 2.376 . S
O327 Eu334 2.370 . S
O328 Eu326 2.360 1_565 S
O328 Eu330 2.364 1_565 S
O328 Eu333 2.370 . S
Eu329 O327 2.376 . S
Eu329 O331 2.365 1_545 S
Eu329 O335 2.365 1_544 S
Eu329 O336 2.376 1_554 S
Eu329 O344 2.363 1_554 S
Eu329 O345 2.363 . S
Eu329 O360 2.354 1_545 S
Eu329 O361 2.372 . S
Eu330 O328 2.364 1_545 S
Eu330 O332 2.376 . S
Eu330 O337 2.376 1_554 S
Eu330 O338 2.364 1_544 S
Eu330 O346 2.363 1_554 S
Eu330 O347 2.363 . S
Eu330 O362 2.353 1_545 S
Eu330 O363 2.372 . S
O331 Eu326 2.360 1_565 S
O331 Eu329 2.365 1_565 S
O331 Eu333 2.370 . S
O332 Eu326 2.380 . S
O332 Eu330 2.376 . S
O332 Eu334 2.370 . S
Eu333 O328 2.370 . S
Eu333 O331 2.370 . S
Eu333 O335 2.370 1_554 S
Eu333 O338 2.370 1_554 S
Eu333 O350 2.363 . S
Eu333 O351 2.363 . S
Eu333 O358 2.363 . S
Eu333 O359 2.363 1_554 S
Eu334 O327 2.370 . S
Eu334 O332 2.370 . S
Eu334 O336 2.370 1_554 S
Eu334 O337 2.370 1_554 S
Eu334 O348 2.363 . S
Eu334 O349 2.363 . S
Eu334 O356 2.363 . S
Eu334 O357 2.363 1_554 S
O335 Eu329 2.365 1_566 S
O335 Eu333 2.370 1_556 S
O335 Eu339 2.369 1_565 S
O336 Eu329 2.376 1_556 S
O336 Eu334 2.370 1_556 S
O336 Eu339 2.371 . S
O337 Eu330 2.376 1_556 S
O337 Eu334 2.370 1_556 S
O337 Eu339 2.371 . S
O338 Eu330 2.364 1_566 S
O338 Eu333 2.370 1_556 S
O338 Eu339 2.369 1_565 S
Eu339 O335 2.369 1_545 S
Eu339 O336 2.371 . S
Eu339 O337 2.371 . S
Eu339 O338 2.369 1_545 S
Eu339 O342 2.361 1_545 S
Eu339 O343 2.364 . S
Eu339 O352 2.363 . S
Eu339 O353 2.363 . S
O340 C314 1.283 . S
O340 Eu326 2.346 1_565 S
O341 C315 1.283 . S
O341 Eu326 2.380 . S
O342 C316 1.283 . S
O342 Eu339 2.361 1_565 S
O343 C317 1.283 . S
O343 Eu339 2.364 . S
O344 C318 1.283 . S
O344 Eu329 2.363 1_556 S
O345 C319 1.283 . S
O345 Eu329 2.363 . S
O346 C320 1.283 . S
O346 Eu330 2.363 1_556 S
O347 C321 1.283 . S
O347 Eu330 2.363 . S
O348 C322 1.283 . S
O348 Eu334 2.363 . S
O349 C323 1.283 . S
O349 Eu334 2.363 . S
O350 C324 1.283 . S
O350 Eu333 2.363 . S
O351 C325 1.283 . S
O351 Eu333 2.363 . S
O352 C320 1.283 . S
O352 Eu339 2.363 . S
O353 C318 1.283 . S
O353 Eu339 2.363 . S
O354 C321 1.283 . S
O354 Eu326 2.363 . S
O355 C319 1.283 . S
O355 Eu326 2.363 . S
O356 C315 1.283 . S
O356 Eu334 2.363 . S
O357 C317 1.283 . S
O357 Eu334 2.363 1_556 S
O358 C314 1.283 . S
O358 Eu333 2.363 . S
O359 C316 1.283 . S
O359 Eu333 2.363 1_556 S
O360 C325 1.283 . S
O360 Eu329 2.354 1_565 S
O361 C323 1.283 . S
O361 Eu329 2.372 . S
O362 C324 1.283 . S
O362 Eu330 2.353 1_565 S
O363 C322 1.283 . S
O363 Eu330 2.372 . S
C364 O390 1.283 . S
C364 O408 1.283 . S
C365 O391 1.283 . S
C365 O406 1.283 . S
C366 O392 1.283 . S
C366 O409 1.283 . S
C367 O393 1.283 . S
C367 O407 1.283 . S
C368 O394 1.283 . S
C368 O403 1.283 . S
C369 O395 1.283 . S
C369 O405 1.283 . S
C370 O396 1.283 . S
C370 O402 1.283 . S
C371 O397 1.283 . S
C371 O404 1.283 . S
C372 O398 1.283 . S
C372 O413 1.283 . S
C373 O399 1.283 . S
C373 O411 1.283 . S
C374 O400 1.283 . S
C374 O412 1.283 . S
C375 O401 1.283 . S
C375 O410 1.283 . S
Eu376 O377 2.370 1_454 S
Eu376 O378 2.370 . S
Eu376 O381 2.370 1_455 S
Eu376 O382 2.370 1_554 S
Eu376 O390 2.363 . S
Eu376 O391 2.363 1_554 S
Eu376 O404 2.363 . S
Eu376 O405 2.363 1_455 S
O377 Eu376 2.370 1_656 S
O377 Eu379 2.370 1_556 S
O377 Eu384 2.370 1_655 S
O378 Eu376 2.370 . S
O378 Eu380 2.370 . S
O378 Eu383 2.370 . S
Eu379 O377 2.370 1_554 S
Eu379 O381 2.370 . S
Eu379 O385 2.370 . S
Eu379 O386 2.370 1_554 S
Eu379 O394 2.363 . S
Eu379 O395 2.363 . S
Eu379 O410 2.363 . S
Eu379 O411 2.363 1_554 S
Eu380 O378 2.370 . S
Eu380 O382 2.370 1_554 S
Eu380 O387 2.370 1_554 S
Eu380 O388 2.370 . S
Eu380 O396 2.363 . S
Eu380 O397 2.363 . S
Eu380 O412 2.363 . S
Eu380 O413 2.363 1_554 S
O381 Eu376 2.370 1_655 S
O381 Eu379 2.370 . S
O381 Eu383 2.370 1_655 S
O382 Eu376 2.370 1_556 S
O382 Eu380 2.370 1_556 S
O382 Eu384 2.370 . S
Eu383 O378 2.370 . S
Eu383 O381 2.370 1_455 S
Eu383 O385 2.370 1_455 S
Eu383 O388 2.370 . S
Eu383 O400 2.363 . S
Eu383 O401 2.363 1_455 S
Eu383 O408 2.363 . S
Eu383 O409 2.363 . S
Eu384 O377 2.370 1_455 S
Eu384 O382 2.370 . S
Eu384 O386 2.370 1_455 S
Eu384 O387 2.370 . S
Eu384 O398 2.363 . S
Eu384 O399 2.363 1_455 S
Eu384 O406 2.363 . S
Eu384 O407 2.363 . S
O385 Eu379 2.370 . S
O385 Eu383 2.370 1_655 S
O385 Eu389 2.370 1_655 S
O386 Eu379 2.370 1_556 S
O386 Eu384 2.370 1_655 S
O386 Eu389 2.370 1_656 S
O387 Eu380 2.370 1_556 S
O387 Eu384 2.370 . S
O387 Eu389 2.370 1_556 S
O388 Eu380 2.370 . S
O388 Eu383 2.370 . S
O388 Eu389 2.370 . S
Eu389 O385 2.370 1_455 S
Eu389 O386 2.370 1_454 S
Eu389 O387 2.370 1_554 S
Eu389 O388 2.370 . S
Eu389 O392 2.363 . S
Eu389 O393 2.363 1_554 S
Eu389 O402 2.363 . S
Eu389 O403 2.363 1_455 S
O390 C364 1.283 . S
O390 Eu376 2.363 . S
O391 C365 1.283 . S
O391 Eu376 2.363 1_556 S
O392 C366 1.283 . S
O392 Eu389 2.363 . S
O393 C367 1.283 . S
O393 Eu389 2.363 1_556 S
O394 C368 1.283 . S
O394 Eu379 2.363 . S
O395 C369 1.283 . S
O395 Eu379 2.363 . S
O396 C370 1.283 . S
O396 Eu380 2.363 . S
O397 C371 1.283 . S
O397 Eu380 2.363 . S
O398 C372 1.283 . S
O398 Eu384 2.363 . S
O399 C373 1.283 . S
O399 Eu384 2.363 1_655 S
O400 C374 1.283 . S
O400 Eu383 2.363 . S
O401 C375 1.283 . S
O401 Eu383 2.363 1_655 S
O402 C370 1.283 . S
O402 Eu389 2.363 . S
O403 C368 1.283 . S
O403 Eu389 2.363 1_655 S
O404 C371 1.283 . S
O404 Eu376 2.363 . S
O405 C369 1.283 . S
O405 Eu376 2.363 1_655 S
O406 C365 1.283 . S
O406 Eu384 2.363 . S
O407 C367 1.283 . S
O407 Eu384 2.363 . S
O408 C364 1.283 . S
O408 Eu383 2.363 . S
O409 C366 1.283 . S
O409 Eu383 2.363 . S
O410 C375 1.283 . S
O410 Eu379 2.363 . S
O411 C373 1.283 . S
O411 Eu379 2.363 1_556 S
O412 C374 1.283 . S
O412 Eu380 2.363 . S
O413 C372 1.283 . S
O413 Eu380 2.363 1_556 S
C414 O440 1.283 . S
C414 O458 1.283 . S
C415 O441 1.283 . S
C415 O456 1.283 . S
C416 O442 1.283 . S
C416 O459 1.283 . S
C417 O443 1.283 . S
C417 O457 1.283 . S
C418 O444 1.283 . S
C418 O453 1.283 . S
C419 O445 1.283 . S
C419 O455 1.283 . S
C420 O446 1.283 . S
C420 O452 1.283 . S
C421 O447 1.283 . S
C421 O454 1.283 . S
C422 O448 1.283 . S
C422 O463 1.283 . S
C423 O449 1.283 . S
C423 O461 1.283 . S
C424 O450 1.283 . S
C424 O462 1.283 . S
C425 O451 1.283 . S
C425 O460 1.283 . S
Eu426 O427 2.370 . S
Eu426 O428 2.370 . S
Eu426 O431 2.370 . S
Eu426 O432 2.370 . S
Eu426 O440 2.363 . S
Eu426 O441 2.363 . S
Eu426 O454 2.363 . S
Eu426 O455 2.363 . S
O427 Eu426 2.370 . S
O427 Eu429 2.370 . S
O427 Eu434 2.370 . S
O428 Eu426 2.370 . S
O428 Eu430 2.370 . S
O428 Eu433 2.370 . S
Eu429 O427 2.370 . S
Eu429 O431 2.370 . S
Eu429 O435 2.370 1_554 S
Eu429 O436 2.370 1_554 S
Eu429 O444 2.363 1_554 S
Eu429 O445 2.363 . S
Eu429 O460 2.363 . S
Eu429 O461 2.363 . S
Eu430 O428 2.370 . S
Eu430 O432 2.370 . S
Eu430 O437 2.370 1_554 S
Eu430 O438 2.370 1_554 S
Eu430 O446 2.363 1_554 S
Eu430 O447 2.363 . S
Eu430 O462 2.363 . S
Eu430 O463 2.363 . S
O431 Eu426 2.370 . S
O431 Eu429 2.370 . S
O431 Eu433 2.370 . S
O432 Eu426 2.370 . S
O432 Eu430 2.370 . S
O432 Eu434 2.370 . S
Eu433 O428 2.370 . S
Eu433 O431 2.370 . S
Eu433 O435 2.370 1_554 S
Eu433 O438 2.370 1_554 S
Eu433 O450 2.363 . S
Eu433 O451 2.363 . S
Eu433 O458 2.363 . S
Eu433 O459 2.363 1_554 S
Eu434 O427 2.370 . S
Eu434 O432 2.370 . S
Eu434 O436 2.370 1_554 S
Eu434 O437 2.370 1_554 S
Eu434 O448 2.363 . S
Eu434 O449 2.363 . S
Eu434 O456 2.363 . S
Eu434 O457 2.363 1_554 S
O435 Eu429 2.370 1_556 S
O435 Eu433 2.370 1_556 S
O435 Eu439 2.370 . S
O436 Eu429 2.370 1_556 S
O436 Eu434 2.370 1_556 S
O436 Eu439 2.370 . S
O437 Eu430 2.370 1_556 S
O437 Eu434 2.370 1_556 S
O437 Eu439 2.370 . S
O438 Eu430 2.370 1_556 S
O438 Eu433 2.370 1_556 S
O438 Eu439 2.370 . S
Eu439 O435 2.370 . S
Eu439 O436 2.370 . S
Eu439 O437 2.370 . S
Eu439 O438 2.370 . S
Eu439 O442 2.363 . S
Eu439 O443 2.363 . S
Eu439 O452 2.363 . S
Eu439 O453 2.363 . S
O440 C414 1.283 . S
O440 Eu426 2.363 . S
O441 C415 1.283 . S
O441 Eu426 2.363 . S
O442 C416 1.283 . S
O442 Eu439 2.363 . S
O443 C417 1.283 . S
O443 Eu439 2.363 . S
O444 C418 1.283 . S
O444 Eu429 2.363 1_556 S
O445 C419 1.283 . S
O445 Eu429 2.363 . S
O446 C420 1.283 . S
O446 Eu430 2.363 1_556 S
O447 C421 1.283 . S
O447 Eu430 2.363 . S
O448 C422 1.283 . S
O448 Eu434 2.363 . S
O449 C423 1.283 . S
O449 Eu434 2.363 . S
O450 C424 1.283 . S
O450 Eu433 2.363 . S
O451 C425 1.283 . S
O451 Eu433 2.363 . S
O452 C420 1.283 . S
O452 Eu439 2.363 . S
O453 C418 1.283 . S
O453 Eu439 2.363 . S
O454 C421 1.283 . S
O454 Eu426 2.363 . S
O455 C419 1.283 . S
O455 Eu426 2.363 . S
O456 C415 1.283 . S
O456 Eu434 2.363 . S
O457 C417 1.283 . S
O457 Eu434 2.363 1_556 S
O458 C414 1.283 . S
O458 Eu433 2.363 . S
O459 C416 1.283 . S
O459 Eu433 2.363 1_556 S
O460 C425 1.283 . S
O460 Eu429 2.363 . S
O461 C423 1.283 . S
O461 Eu429 2.363 . S
O462 C424 1.283 . S
O462 Eu430 2.363 . S
O463 C422 1.283 . S
O463 Eu430 2.363 . S
C464 O490 1.283 . S
C464 O508 1.283 . S
C465 O491 1.283 . S
C465 O506 1.283 . S
C466 O492 1.283 . S
C466 O509 1.283 . S
C467 O493 1.283 . S
C467 O507 1.283 . S
C468 O494 1.283 . S
C468 O503 1.283 . S
C469 O495 1.283 . S
C469 O505 1.283 . S
C470 O496 1.283 . S
C470 O502 1.283 . S
C471 O497 1.283 . S
C471 O504 1.283 . S
C472 O498 1.283 . S
C472 O513 1.283 . S
C473 O499 1.283 . S
C473 O511 1.283 . S
C474 O500 1.283 . S
C474 O512 1.283 . S
C475 O501 1.283 . S
C475 O510 1.283 . S
Eu476 O477 2.370 1_455 S
Eu476 O478 2.370 . S
Eu476 O481 2.370 1_455 S
Eu476 O482 2.370 . S
Eu476 O490 2.363 . S
Eu476 O491 2.363 . S
Eu476 O504 2.363 . S
Eu476 O505 2.363 1_455 S
O477 Eu476 2.370 1_655 S
O477 Eu479 2.370 . S
O477 Eu484 2.370 1_655 S
O478 Eu476 2.370 . S
O478 Eu480 2.370 . S
O478 Eu483 2.370 . S
Eu479 O477 2.370 . S
Eu479 O481 2.370 . S
Eu479 O485 2.370 . S
Eu479 O486 2.370 . S
Eu479 O494 2.363 . S
Eu479 O495 2.363 . S
Eu479 O510 2.363 . S
Eu479 O511 2.363 . S
Eu480 O478 2.370 . S
Eu480 O482 2.370 . S
Eu480 O487 2.370 . S
Eu480 O488 2.370 . S
Eu480 O496 2.363 . S
Eu480 O497 2.363 . S
Eu480 O512 2.363 . S
Eu480 O513 2.363 . S
O481 Eu476 2.370 1_655 S
O481 Eu479 2.370 . S
O481 Eu483 2.370 1_655 S
O482 Eu476 2.370 . S
O482 Eu480 2.370 . S
O482 Eu484 2.370 . S
Eu483 O478 2.370 . S
Eu483 O481 2.370 1_455 S
Eu483 O485 2.370 1_455 S
Eu483 O488 2.370 . S
Eu483 O500 2.363 . S
Eu483 O501 2.363 1_455 S
Eu483 O508 2.363 . S
Eu483 O509 2.363 . S
Eu484 O477 2.370 1_455 S
Eu484 O482 2.370 . S
Eu484 O486 2.370 1_455 S
Eu484 O487 2.370 . S
Eu484 O498 2.363 . S
Eu484 O499 2.363 1_455 S
Eu484 O506 2.363 . S
Eu484 O507 2.363 . S
O485 Eu479 2.370 . S
O485 Eu483 2.370 1_655 S
O485 Eu489 2.370 1_655 S
O486 Eu479 2.370 . S
O486 Eu484 2.370 1_655 S
O486 Eu489 2.370 1_655 S
O487 Eu480 2.370 . S
O487 Eu484 2.370 . S
O487 Eu489 2.370 . S
O488 Eu480 2.370 . S
O488 Eu483 2.370 . S
O488 Eu489 2.370 . S
Eu489 O485 2.370 1_455 S
Eu489 O486 2.370 1_455 S
Eu489 O487 2.370 . S
Eu489 O488 2.370 . S
Eu489 O492 2.363 . S
Eu489 O493 2.363 . S
Eu489 O502 2.363 . S
Eu489 O503 2.363 1_455 S
O490 C464 1.283 . S
O490 Eu476 2.363 . S
O491 C465 1.283 . S
O491 Eu476 2.363 . S
O492 C466 1.283 . S
O492 Eu489 2.363 . S
O493 C467 1.283 . S
O493 Eu489 2.363 . S
O494 C468 1.283 . S
O494 Eu479 2.363 . S
O495 C469 1.283 . S
O495 Eu479 2.363 . S
O496 C470 1.283 . S
O496 Eu480 2.363 . S
O497 C471 1.283 . S
O497 Eu480 2.363 . S
O498 C472 1.283 . S
O498 Eu484 2.363 . S
O499 C473 1.283 . S
O499 Eu484 2.363 1_655 S
O500 C474 1.283 . S
O500 Eu483 2.363 . S
O501 C475 1.283 . S
O501 Eu483 2.363 1_655 S
O502 C470 1.283 . S
O502 Eu489 2.363 . S
O503 C468 1.283 . S
O503 Eu489 2.363 1_655 S
O504 C471 1.283 . S
O504 Eu476 2.363 . S
O505 C469 1.283 . S
O505 Eu476 2.363 1_655 S
O506 C465 1.283 . S
O506 Eu484 2.363 . S
O507 C467 1.283 . S
O507 Eu484 2.363 . S
O508 C464 1.283 . S
O508 Eu483 2.363 . S
O509 C466 1.283 . S
O509 Eu483 2.363 . S
O510 C475 1.283 . S
O510 Eu479 2.363 . S
O511 C473 1.283 . S
O511 Eu479 2.363 . S
O512 C474 1.283 . S
O512 Eu480 2.363 . S
O513 C472 1.283 . S
O513 Eu480 2.363 . S
C514 O540 1.283 . S
C514 O558 1.283 . S
C515 O541 1.283 . S
C515 O556 1.283 . S
C516 O542 1.283 . S
C516 O559 1.283 . S
C517 O543 1.283 . S
C517 O557 1.283 . S
C518 O544 1.283 . S
C518 O553 1.283 . S
C519 O545 1.283 . S
C519 O555 1.283 . S
C520 O546 1.283 . S
C520 O552 1.283 . S
C521 O547 1.283 . S
C521 O554 1.283 . S
C522 O548 1.283 . S
C522 O563 1.283 . S
C523 O549 1.283 . S
C523 O561 1.283 . S
C524 O550 1.283 . S
C524 O562 1.283 . S
C525 O551 1.283 . S
C525 O560 1.283 . S
Eu526 O527 2.370 . S
Eu526 O528 2.370 . S
Eu526 O531 2.370 . S
Eu526 O532 2.370 . S
Eu526 O540 2.363 . S
Eu526 O541 2.363 . S
Eu526 O554 2.363 . S
Eu526 O555 2.363 . S
O527 Eu526 2.370 . S
O527 Eu529 2.365 1_565 S
O527 Eu534 2.364 1_565 S
O528 Eu526 2.370 . S
O528 Eu530 2.365 1_565 S
O528 Eu533 2.365 1_565 S
Eu529 O527 2.365 1_545 S
Eu529 O531 2.365 1_545 S
Eu529 O535 2.376 . S
Eu529 O536 2.376 . S
Eu529 O544 2.372 . S
Eu529 O545 2.354 1_545 S
Eu529 O560 2.363 . S
Eu529 O561 2.363 . S
Eu530 O528 2.365 1_545 S
Eu530 O532 2.365 1_545 S
Eu530 O537 2.375 . S
Eu530 O538 2.375 . S
Eu530 O546 2.372 . S
Eu530 O547 2.354 1_545 S
Eu530 O562 2.363 . S
Eu530 O563 2.363 . S
O531 Eu526 2.370 . S
O531 Eu529 2.365 1_565 S
O531 Eu533 2.365 1_565 S
O532 Eu526 2.370 . S
O532 Eu530 2.365 1_565 S
O532 Eu534 2.364 1_565 S
Eu533 O528 2.365 1_545 S
Eu533 O531 2.365 1_545 S
Eu533 O535 2.375 . S
Eu533 O538 2.375 . S
Eu533 O550 2.363 . S
Eu533 O551 2.363 . S
Eu533 O558 2.355 1_545 S
Eu533 O559 2.371 . S
Eu534 O527 2.364 1_545 S
Eu534 O532 2.364 1_545 S
Eu534 O536 2.376 . S
Eu534 O537 2.376 . S
Eu534 O548 2.363 . S
Eu534 O549 2.363 . S
Eu534 O556 2.353 1_545 S
Eu534 O557 2.373 . S
O535 Eu529 2.376 . S
O535 Eu533 2.375 . S
O535 Eu539 2.370 . S
O536 Eu529 2.376 . S
O536 Eu534 2.376 . S
O536 Eu539 2.370 . S
O537 Eu530 2.375 . S
O537 Eu534 2.376 . S
O537 Eu539 2.370 . S
O538 Eu530 2.375 . S
O538 Eu533 2.375 . S
O538 Eu539 2.370 . S
Eu539 O535 2.370 . S
Eu539 O536 2.370 . S
Eu539 O537 2.370 . S
Eu539 O538 2.370 . S
Eu539 O542 2.363 . S
Eu539 O543 2.363 . S
Eu539 O552 2.363 . S
Eu539 O553 2.363 . S
O540 C514 1.283 . S
O540 Eu526 2.363 . S
O541 C515 1.283 . S
O541 Eu526 2.363 . S
O542 C516 1.283 . S
O542 Eu539 2.363 . S
O543 C517 1.283 . S
O543 Eu539 2.363 . S
O544 C518 1.283 . S
O544 Eu529 2.372 . S
O545 C519 1.283 . S
O545 Eu529 2.354 1_565 S
O546 C520 1.283 . S
O546 Eu530 2.372 . S
O547 C521 1.283 . S
O547 Eu530 2.354 1_565 S
O548 C522 1.283 . S
O548 Eu534 2.363 . S
O549 C523 1.283 . S
O549 Eu534 2.363 . S
O550 C524 1.283 . S
O550 Eu533 2.363 . S
O551 C525 1.283 . S
O551 Eu533 2.363 . S
O552 C520 1.283 . S
O552 Eu539 2.363 . S
O553 C518 1.283 . S
O553 Eu539 2.363 . S
O554 C521 1.283 . S
O554 Eu526 2.363 . S
O555 C519 1.283 . S
O555 Eu526 2.363 . S
O556 C515 1.283 . S
O556 Eu534 2.353 1_565 S
O557 C517 1.283 . S
O557 Eu534 2.373 . S
O558 C514 1.283 . S
O558 Eu533 2.355 1_565 S
O559 C516 1.283 . S
O559 Eu533 2.371 . S
O560 C525 1.283 . S
O560 Eu529 2.363 . S
O561 C523 1.283 . S
O561 Eu529 2.363 . S
O562 C524 1.283 . S
O562 Eu530 2.363 . S
O563 C522 1.283 . S
O563 Eu530 2.363 . S
C564 C565 1.363 . S
C564 C570 1.379 . S
C564 N572 1.356 . S
C565 C564 1.363 . S
C565 C571 1.363 . S
C566 C567 1.363 . S
C566 C571 1.379 . S
C566 N573 1.356 . S
C567 C566 1.363 . S
C567 C570 1.363 . S
N568 C570 1.356 . S
N568 H580 0.984 . S
N568 H581 0.985 . S
N569 C571 1.356 . S
N569 H574 0.984 . S
N569 H575 0.985 . S
C570 C564 1.379 . S
C570 C567 1.363 . S
C570 N568 1.356 . S
C571 C565 1.363 . S
C571 C566 1.379 . S
C571 N569 1.356 . S
N572 C564 1.356 . S
N572 H578 0.984 . S
N572 H579 0.984 . S
N573 C566 1.356 . S
N573 H576 0.984 . S
N573 H577 0.985 . S
H574 N569 0.984 . S
H575 N569 0.985 . S
H576 N573 0.984 . S
H577 N573 0.985 . S
H578 N572 0.984 . S
H579 N572 0.984 . S
H580 N568 0.984 . S
H581 N568 0.985 . S
C582 C583 1.363 . S
C582 C588 1.379 . S
C582 N590 1.356 . S
C583 C582 1.363 . S
C583 C589 1.363 . S
C584 C585 1.363 . S
C584 C589 1.379 . S
C584 N591 1.356 . S
C585 C584 1.363 . S
C585 C588 1.363 . S
N586 C588 1.356 . S
N586 H598 0.984 . S
N586 H599 0.985 . S
N587 C589 1.356 . S
N587 H592 0.984 . S
N587 H593 0.985 . S
C588 C582 1.379 . S
C588 C585 1.363 . S
C588 N586 1.356 . S
C589 C583 1.363 . S
C589 C584 1.379 . S
C589 N587 1.356 . S
N590 C582 1.356 . S
N590 H596 0.984 . S
N590 H597 0.984 . S
N591 C584 1.356 . S
N591 H594 0.984 . S
N591 H595 0.985 . S
H592 N587 0.984 . S
H593 N587 0.985 . S
H594 N591 0.984 . S
H595 N591 0.985 . S
H596 N590 0.984 . S
H597 N590 0.984 . S
H598 N586 0.984 . S
H599 N586 0.985 . S
C600 C601 1.363 . S
C600 C606 1.379 . S
C600 N608 1.356 . S
C601 C600 1.363 . S
C601 C607 1.363 . S
C602 C603 1.363 . S
C602 C607 1.379 . S
C602 N609 1.356 . S
C603 C602 1.363 . S
C603 C606 1.363 . S
N604 C606 1.356 . S
N604 H616 0.984 . S
N604 H617 0.985 . S
N605 C607 1.356 . S
N605 H610 0.984 . S
N605 H611 0.985 . S
C606 C600 1.379 . S
C606 C603 1.363 . S
C606 N604 1.356 . S
C607 C601 1.363 . S
C607 C602 1.379 . S
C607 N605 1.356 . S
N608 C600 1.356 . S
N608 H614 0.984 . S
N608 H615 0.984 . S
N609 C602 1.356 . S
N609 H612 0.984 . S
N609 H613 0.985 . S
H610 N605 0.984 . S
H611 N605 0.985 . S
H612 N609 0.984 . S
H613 N609 0.985 . S
H614 N608 0.984 . S
H615 N608 0.984 . S
H616 N604 0.984 . S
H617 N604 0.985 . S
C618 C619 1.363 . S
C618 C624 1.379 . S
C618 N626 1.356 . S
C619 C618 1.363 . S
C619 C625 1.363 . S
C620 C621 1.363 . S
C620 C625 1.379 . S
C620 N627 1.356 . S
C621 C620 1.363 . S
C621 C624 1.363 . S
N622 C624 1.356 . S
N622 H634 0.984 . S
N622 H635 0.985 . S
N623 C625 1.356 . S
N623 H628 0.984 . S
N623 H629 0.985 . S
C624 C618 1.379 . S
C624 C621 1.363 . S
C624 N622 1.356 . S
C625 C619 1.363 . S
C625 C620 1.379 . S
C625 N623 1.356 . S
N626 C618 1.356 . S
N626 H632 0.984 . S
N626 H633 0.984 . S
N627 C620 1.356 . S
N627 H630 0.984 . S
N627 H631 0.985 . S
H628 N623 0.984 . S
H629 N623 0.985 . S
H630 N627 0.984 . S
H631 N627 0.985 . S
H632 N626 0.984 . S
H633 N626 0.984 . S
H634 N622 0.984 . S
H635 N622 0.985 . S
C636 C637 1.363 . S
C636 C642 1.379 . S
C636 N644 1.356 . S
C637 C636 1.363 . S
C637 C643 1.363 . S
C638 C639 1.363 . S
C638 C643 1.379 . S
C638 N645 1.356 . S
C639 C638 1.363 . S
C639 C642 1.363 . S
N640 C642 1.356 . S
N640 H652 0.984 . S
N640 H653 0.985 . S
N641 C643 1.356 . S
N641 H646 0.984 . S
N641 H647 0.985 . S
C642 C636 1.379 . S
C642 C639 1.363 . S
C642 N640 1.356 . S
C643 C637 1.363 . S
C643 C638 1.379 . S
C643 N641 1.356 . S
N644 C636 1.356 . S
N644 H650 0.984 . S
N644 H651 0.984 . S
N645 C638 1.356 . S
N645 H648 0.984 . S
N645 H649 0.985 . S
H646 N641 0.984 . S
H647 N641 0.985 . S
H648 N645 0.984 . S
H649 N645 0.985 . S
H650 N644 0.984 . S
H651 N644 0.984 . S
H652 N640 0.984 . S
H653 N640 0.985 . S
C654 C655 1.363 . S
C654 C660 1.379 . S
C654 N662 1.356 . S
C655 C654 1.363 . S
C655 C661 1.363 . S
C656 C657 1.363 . S
C656 C661 1.379 . S
C656 N663 1.356 . S
C657 C656 1.363 . S
C657 C660 1.363 . S
N658 C660 1.356 . S
N658 H670 0.984 . S
N658 H671 0.985 . S
N659 C661 1.356 . S
N659 H664 0.984 . S
N659 H665 0.985 . S
C660 C654 1.379 . S
C660 C657 1.363 . S
C660 N658 1.356 . S
C661 C655 1.363 . S
C661 C656 1.379 . S
C661 N659 1.356 . S
N662 C654 1.356 . S
N662 H668 0.984 . S
N662 H669 0.984 . S
N663 C656 1.356 . S
N663 H666 0.984 . S
N663 H667 0.985 . S
H664 N659 0.984 . S
H665 N659 0.985 . S
H666 N663 0.984 . S
H667 N663 0.985 . S
H668 N662 0.984 . S
H669 N662 0.984 . S
H670 N658 0.984 . S
H671 N658 0.985 . S
C672 C673 1.363 . S
C672 C678 1.379 . S
C672 N680 1.356 . S
C673 C672 1.363 . S
C673 C679 1.363 . S
C674 C675 1.363 . S
C674 C679 1.379 . S
C674 N681 1.356 . S
C675 C674 1.363 . S
C675 C678 1.363 . S
N676 C678 1.356 . S
N676 H688 0.984 . S
N676 H689 0.985 . S
N677 C679 1.356 . S
N677 H682 0.984 . S
N677 H683 0.985 . S
C678 C672 1.379 . S
C678 C675 1.363 . S
C678 N676 1.356 . S
C679 C673 1.363 . S
C679 C674 1.379 . S
C679 N677 1.356 . S
N680 C672 1.356 . S
N680 H686 0.984 . S
N680 H687 0.984 . S
N681 C674 1.356 . S
N681 H684 0.984 . S
N681 H685 0.985 . S
H682 N677 0.984 . S
H683 N677 0.985 . S
H684 N681 0.984 . S
H685 N681 0.985 . S
H686 N680 0.984 . S
H687 N680 0.984 . S
H688 N676 0.984 . S
H689 N676 0.985 . S
C690 C691 1.363 . S
C690 C696 1.379 . S
C690 N698 1.356 . S
C691 C690 1.363 . S
C691 C697 1.363 . S
C692 C693 1.363 . S
C692 C697 1.379 . S
C692 N699 1.356 . S
C693 C692 1.363 . S
C693 C696 1.363 . S
N694 C696 1.356 . S
N694 H706 0.984 . S
N694 H707 0.985 . S
N695 C697 1.356 . S
N695 H700 0.984 . S
N695 H701 0.985 . S
C696 C690 1.379 . S
C696 C693 1.363 . S
C696 N694 1.356 . S
C697 C691 1.363 . S
C697 C692 1.379 . S
C697 N695 1.356 . S
N698 C690 1.356 . S
N698 H704 0.984 . S
N698 H705 0.984 . S
N699 C692 1.356 . S
N699 H702 0.984 . S
N699 H703 0.985 . S
H700 N695 0.984 . S
H701 N695 0.985 . S
H702 N699 0.984 . S
H703 N699 0.985 . S
H704 N698 0.984 . S
H705 N698 0.984 . S
H706 N694 0.984 . S
H707 N694 0.985 . S
C708 C709 1.363 . S
C708 C714 1.379 . S
C708 N716 1.356 . S
C709 C708 1.363 . S
C709 C715 1.363 . S
C710 C711 1.363 . S
C710 C715 1.379 . S
C710 N717 1.356 . S
C711 C710 1.363 . S
C711 C714 1.363 . S
N712 C714 1.356 . S
N712 H724 0.984 . S
N712 H725 0.985 . S
N713 C715 1.356 . S
N713 H718 0.984 . S
N713 H719 0.985 . S
C714 C708 1.379 . S
C714 C711 1.363 . S
C714 N712 1.356 . S
C715 C709 1.363 . S
C715 C710 1.379 . S
C715 N713 1.356 . S
N716 C708 1.356 . S
N716 H722 0.984 . S
N716 H723 0.984 . S
N717 C710 1.356 . S
N717 H720 0.984 . S
N717 H721 0.985 . S
H718 N713 0.984 . S
H719 N713 0.985 . S
H720 N717 0.984 . S
H721 N717 0.985 . S
H722 N716 0.984 . S
H723 N716 0.984 . S
H724 N712 0.984 . S
H725 N712 0.985 . S
C726 C727 1.363 . S
C726 C732 1.379 . S
C726 N734 1.356 . S
C727 C726 1.363 . S
C727 C733 1.363 . S
C728 C729 1.363 . S
C728 C733 1.379 . S
C728 N735 1.356 . S
C729 C728 1.363 . S
C729 C732 1.363 . S
N730 C732 1.356 . S
N730 H742 0.984 . S
N730 H743 0.985 . S
N731 C733 1.356 . S
N731 H736 0.984 . S
N731 H737 0.985 . S
C732 C726 1.379 . S
C732 C729 1.363 . S
C732 N730 1.356 . S
C733 C727 1.363 . S
C733 C728 1.379 . S
C733 N731 1.356 . S
N734 C726 1.356 . S
N734 H740 0.984 . S
N734 H741 0.984 . S
N735 C728 1.356 . S
N735 H738 0.984 . S
N735 H739 0.985 . S
H736 N731 0.984 . S
H737 N731 0.985 . S
H738 N735 0.984 . S
H739 N735 0.985 . S
H740 N734 0.984 . S
H741 N734 0.984 . S
H742 N730 0.984 . S
H743 N730 0.985 . S
C744 C745 1.363 . S
C744 C750 1.379 . S
C744 N752 1.356 . S
C745 C744 1.363 . S
C745 C751 1.363 . S
C746 C747 1.363 . S
C746 C751 1.379 . S
C746 N753 1.356 . S
C747 C746 1.363 . S
C747 C750 1.363 . S
N748 C750 1.356 . S
N748 H760 0.984 . S
N748 H761 0.985 . S
N749 C751 1.356 . S
N749 H754 0.984 . S
N749 H755 0.985 . S
C750 C744 1.379 . S
C750 C747 1.363 . S
C750 N748 1.356 . S
C751 C745 1.363 . S
C751 C746 1.379 . S
C751 N749 1.356 . S
N752 C744 1.356 . S
N752 H758 0.984 . S
N752 H759 0.984 . S
N753 C746 1.356 . S
N753 H756 0.984 . S
N753 H757 0.985 . S
H754 N749 0.984 . S
H755 N749 0.985 . S
H756 N753 0.984 . S
H757 N753 0.985 . S
H758 N752 0.984 . S
H759 N752 0.984 . S
H760 N748 0.984 . S
H761 N748 0.985 . S
C762 C763 1.363 . S
C762 C768 1.379 . S
C762 N770 1.356 . S
C763 C762 1.363 . S
C763 C769 1.363 . S
C764 C765 1.363 . S
C764 C769 1.379 . S
C764 N771 1.356 . S
C765 C764 1.363 . S
C765 C768 1.363 . S
N766 C768 1.356 . S
N766 H778 0.984 . S
N766 H779 0.985 . S
N767 C769 1.356 . S
N767 H772 0.984 . S
N767 H773 0.985 . S
C768 C762 1.379 . S
C768 C765 1.363 . S
C768 N766 1.356 . S
C769 C763 1.363 . S
C769 C764 1.379 . S
C769 N767 1.356 . S
N770 C762 1.356 . S
N770 H776 0.984 . S
N770 H777 0.984 . S
N771 C764 1.356 . S
N771 H774 0.984 . S
N771 H775 0.985 . S
H772 N767 0.984 . S
H773 N767 0.985 . S
H774 N771 0.984 . S
H775 N771 0.985 . S
H776 N770 0.984 . S
H777 N770 0.984 . S
H778 N766 0.984 . S
H779 N766 0.985 . S
C780 C781 1.363 1_556 S
C780 C786 1.379 . S
C780 N788 1.356 . S
C781 C780 1.363 1_554 S
C781 C787 1.363 . S
C782 C783 1.363 . S
C782 C787 1.379 . S
C782 N789 1.356 . S
C783 C782 1.363 . S
C783 C786 1.363 1_554 S
N784 C786 1.356 . S
N784 H796 0.984 . S
N784 H797 0.985 . S
N785 C787 1.356 . S
N785 H790 0.984 . S
N785 H791 0.985 . S
C786 C780 1.379 . S
C786 C783 1.363 1_556 S
C786 N784 1.356 . S
C787 C781 1.363 . S
C787 C782 1.379 . S
C787 N785 1.356 . S
N788 C780 1.356 . S
N788 H794 0.984 . S
N788 H795 0.984 . S
N789 C782 1.356 . S
N789 H792 0.984 . S
N789 H793 0.985 . S
H790 N785 0.984 . S
H791 N785 0.985 . S
H792 N789 0.984 . S
H793 N789 0.985 . S
H794 N788 0.984 . S
H795 N788 0.984 . S
H796 N784 0.984 . S
H797 N784 0.985 . S
C798 C799 1.363 1_556 S
C798 C804 1.379 . S
C798 N806 1.356 . S
C799 C798 1.363 1_554 S
C799 C805 1.363 . S
C800 C801 1.363 . S
C800 C805 1.379 . S
C800 N807 1.356 . S
C801 C800 1.363 . S
C801 C804 1.363 1_554 S
N802 C804 1.356 . S
N802 H814 0.984 . S
N802 H815 0.985 . S
N803 C805 1.356 . S
N803 H808 0.984 . S
N803 H809 0.985 . S
C804 C798 1.379 . S
C804 C801 1.363 1_556 S
C804 N802 1.356 . S
C805 C799 1.363 . S
C805 C800 1.379 . S
C805 N803 1.356 . S
N806 C798 1.356 . S
N806 H812 0.984 . S
N806 H813 0.984 . S
N807 C800 1.356 . S
N807 H810 0.984 . S
N807 H811 0.985 . S
H808 N803 0.984 . S
H809 N803 0.985 . S
H810 N807 0.984 . S
H811 N807 0.985 . S
H812 N806 0.984 . S
H813 N806 0.984 . S
H814 N802 0.984 . S
H815 N802 0.985 . S
C816 C817 1.363 1_556 S
C816 C822 1.379 . S
C816 N824 1.356 . S
C817 C816 1.363 1_554 S
C817 C823 1.363 . S
C818 C819 1.363 . S
C818 C823 1.379 . S
C818 N825 1.356 . S
C819 C818 1.363 . S
C819 C822 1.363 1_554 S
N820 C822 1.356 . S
N820 H832 0.984 . S
N820 H833 0.985 . S
N821 C823 1.356 . S
N821 H826 0.984 . S
N821 H827 0.985 . S
C822 C816 1.379 . S
C822 C819 1.363 1_556 S
C822 N820 1.356 . S
C823 C817 1.363 . S
C823 C818 1.379 . S
C823 N821 1.356 . S
N824 C816 1.356 . S
N824 H830 0.984 . S
N824 H831 0.984 . S
N825 C818 1.356 . S
N825 H828 0.984 . S
N825 H829 0.985 . S
H826 N821 0.984 . S
H827 N821 0.985 . S
H828 N825 0.984 . S
H829 N825 0.985 . S
H830 N824 0.984 . S
H831 N824 0.984 . S
H832 N820 0.984 . S
H833 N820 0.985 . S
C834 C835 1.363 1_556 S
C834 C840 1.379 . S
C834 N842 1.356 . S
C835 C834 1.363 1_554 S
C835 C841 1.363 . S
C836 C837 1.363 . S
C836 C841 1.379 . S
C836 N843 1.356 . S
C837 C836 1.363 . S
C837 C840 1.363 1_554 S
N838 C840 1.356 . S
N838 H850 0.984 . S
N838 H851 0.985 . S
N839 C841 1.356 . S
N839 H844 0.984 . S
N839 H845 0.985 . S
C840 C834 1.379 . S
C840 C837 1.363 1_556 S
C840 N838 1.356 . S
C841 C835 1.363 . S
C841 C836 1.379 . S
C841 N839 1.356 . S
N842 C834 1.356 . S
N842 H848 0.984 . S
N842 H849 0.984 . S
N843 C836 1.356 . S
N843 H846 0.984 . S
N843 H847 0.985 . S
H844 N839 0.984 . S
H845 N839 0.985 . S
H846 N843 0.984 . S
H847 N843 0.985 . S
H848 N842 0.984 . S
H849 N842 0.984 . S
H850 N838 0.984 . S
H851 N838 0.985 . S
C852 C853 1.363 . S
C852 C858 1.379 . S
C852 N860 1.356 1_455 S
C853 C852 1.363 . S
C853 C859 1.363 . S
C854 C855 1.363 . S
C854 C859 1.379 . S
C854 N861 1.356 . S
C855 C854 1.363 . S
C855 C858 1.363 . S
N856 C858 1.356 1_655 S
N856 H868 0.984 . S
N856 H869 0.987 . S
N857 C859 1.356 . S
N857 H862 0.984 . S
N857 H863 0.985 . S
C858 C852 1.379 . S
C858 C855 1.363 . S
C858 N856 1.356 1_455 S
C859 C853 1.363 . S
C859 C854 1.379 . S
C859 N857 1.356 . S
N860 C852 1.356 1_655 S
N860 H866 0.984 . S
N860 H867 0.986 . S
N861 C854 1.356 . S
N861 H864 0.984 . S
N861 H865 0.985 . S
H862 N857 0.984 . S
H863 N857 0.985 . S
H864 N861 0.984 . S
H865 N861 0.985 . S
H866 N860 0.984 . S
H867 N860 0.986 . S
H868 N856 0.984 . S
H869 N856 0.987 . S
C870 C871 1.358 1_565 S
C870 C876 1.379 . S
C870 N878 1.356 . S
C871 C870 1.358 1_545 S
C871 C877 1.368 . S
C872 C873 1.369 . S
C872 C877 1.379 . S
C872 N879 1.356 . S
C873 C872 1.369 . S
C873 C876 1.357 1_545 S
N874 C876 1.356 . S
N874 H886 0.984 . S
N874 H887 0.985 . S
N875 C877 1.356 . S
N875 H880 0.984 . S
N875 H881 0.985 . S
C876 C870 1.379 . S
C876 C873 1.357 1_565 S
C876 N874 1.356 . S
C877 C871 1.368 . S
C877 C872 1.379 . S
C877 N875 1.356 . S
N878 C870 1.356 . S
N878 H884 0.984 . S
N878 H885 0.984 . S
N879 C872 1.356 . S
N879 H882 0.984 . S
N879 H883 0.985 . S
H880 N875 0.984 . S
H881 N875 0.985 . S
H882 N879 0.984 . S
H883 N879 0.985 . S
H884 N878 0.984 . S
H885 N878 0.984 . S
H886 N874 0.984 . S
H887 N874 0.985 . S
C888 C889 1.363 . S
C888 C894 1.379 . S
C888 N896 1.356 . S
C889 C888 1.363 . S
C889 C895 1.363 . S
C890 C891 1.363 . S
C890 C895 1.379 . S
C890 N897 1.356 1_455 S
C891 C890 1.363 . S
C891 C894 1.363 . S
N892 C894 1.356 . S
N892 H904 0.984 . S
N892 H905 0.985 . S
N893 C895 1.356 1_655 S
N893 H898 0.984 . S
N893 H899 0.985 . S
C894 C888 1.379 . S
C894 C891 1.363 . S
C894 N892 1.356 . S
C895 C889 1.363 . S
C895 C890 1.379 . S
C895 N893 1.356 1_455 S
N896 C888 1.356 . S
N896 H902 0.984 . S
N896 H903 0.984 . S
N897 C890 1.356 1_655 S
N897 H900 0.984 . S
N897 H901 0.985 . S
H898 N893 0.984 . S
H899 N893 0.985 . S
H900 N897 0.984 . S
H901 N897 0.985 . S
H902 N896 0.984 . S
H903 N896 0.984 . S
H904 N892 0.984 . S
H905 N892 0.985 . S
C906 C907 1.368 . S
C906 C912 1.379 . S
C906 N914 1.356 . S
C907 C906 1.368 . S
C907 C913 1.358 1_545 S
C908 C909 1.357 1_565 S
C908 C913 1.379 . S
C908 N915 1.356 . S
C909 C908 1.357 1_545 S
C909 C912 1.369 . S
N910 C912 1.356 . S
N910 H922 0.984 . S
N910 H923 0.985 . S
N911 C913 1.356 . S
N911 H916 0.984 . S
N911 H917 0.985 . S
C912 C906 1.379 . S
C912 C909 1.369 . S
C912 N910 1.356 . S
C913 C907 1.358 1_565 S
C913 C908 1.379 . S
C913 N911 1.356 . S
N914 C906 1.356 . S
N914 H920 0.984 . S
N914 H921 0.984 . S
N915 C908 1.356 . S
N915 H918 0.984 . S
N915 H919 0.985 . S
H916 N911 0.984 . S
H917 N911 0.985 . S
H918 N915 0.984 . S
H919 N915 0.985 . S
H920 N914 0.984 . S
H921 N914 0.984 . S
H922 N910 0.984 . S
H923 N910 0.985 . S
C924 C925 1.363 . S
C924 C930 1.379 . S
C924 N932 1.356 1_455 S
C925 C924 1.363 . S
C925 C931 1.363 . S
C926 C927 1.363 . S
C926 C931 1.379 . S
C926 N933 1.356 . S
C927 C926 1.363 . S
C927 C930 1.363 . S
N928 C930 1.356 1_655 S
N928 H940 0.984 . S
N928 H941 0.986 . S
N929 C931 1.356 . S
N929 H934 0.984 . S
N929 H935 0.985 . S
C930 C924 1.379 . S
C930 C927 1.363 . S
C930 N928 1.356 1_455 S
C931 C925 1.363 . S
C931 C926 1.379 . S
C931 N929 1.356 . S
N932 C924 1.356 1_655 S
N932 H938 0.984 . S
N932 H939 0.985 . S
N933 C926 1.356 . S
N933 H936 0.984 . S
N933 H937 0.985 . S
H934 N929 0.984 . S
H935 N929 0.985 . S
H936 N933 0.984 . S
H937 N933 0.985 . S
H938 N932 0.984 . S
H939 N932 0.985 . S
H940 N928 0.984 . S
H941 N928 0.986 . S
C942 C943 1.370 . S
C942 C948 1.379 . S
C942 N950 1.356 . S
C943 C942 1.370 . S
C943 C949 1.356 1_545 S
C944 C945 1.355 1_565 S
C944 C949 1.379 . S
C944 N951 1.356 . S
C945 C944 1.355 1_545 S
C945 C948 1.371 . S
N946 C948 1.356 . S
N946 H958 0.984 . S
N946 H959 0.985 . S
N947 C949 1.356 . S
N947 H952 0.984 . S
N947 H953 0.985 . S
C948 C942 1.379 . S
C948 C945 1.371 . S
C948 N946 1.356 . S
C949 C943 1.356 1_565 S
C949 C944 1.379 . S
C949 N947 1.356 . S
N950 C942 1.356 . S
N950 H956 0.984 . S
N950 H957 0.984 . S
N951 C944 1.356 . S
N951 H954 0.984 . S
N951 H955 0.985 . S
H952 N947 0.984 . S
H953 N947 0.985 . S
H954 N951 0.984 . S
H955 N951 0.985 . S
H956 N950 0.984 . S
H957 N950 0.984 . S
H958 N946 0.984 . S
H959 N946 0.985 . S
C960 C961 1.363 . S
C960 C966 1.379 . S
C960 N968 1.356 . S
C961 C960 1.363 . S
C961 C967 1.363 1_455 S
C962 C963 1.363 1_655 S
C962 C967 1.379 . S
C962 N969 1.356 . S
C963 C962 1.363 1_455 S
C963 C966 1.363 . S
N964 C966 1.356 . S
N964 H976 0.984 . S
N964 H977 0.985 . S
N965 C967 1.356 . S
N965 H970 0.984 . S
N965 H971 0.985 . S
C966 C960 1.379 . S
C966 C963 1.363 . S
C966 N964 1.356 . S
C967 C961 1.363 1_655 S
C967 C962 1.379 . S
C967 N965 1.356 . S
N968 C960 1.356 . S
N968 H974 0.984 . S
N968 H975 0.984 . S
N969 C962 1.356 . S
N969 H972 0.984 . S
N969 H973 0.985 . S
H970 N965 0.984 . S
H971 N965 0.985 . S
H972 N969 0.984 . S
H973 N969 0.985 . S
H974 N968 0.984 . S
H975 N968 0.984 . S
H976 N964 0.984 . S
H977 N964 0.985 . S
C978 C979 1.354 1_565 S
C978 C984 1.379 . S
C978 N986 1.356 . S
C979 C978 1.354 1_545 S
C979 C985 1.373 . S
C980 C981 1.371 . S
C980 C985 1.379 . S
C980 N987 1.356 . S
C981 C980 1.371 . S
C981 C984 1.355 1_545 S
N982 C984 1.356 . S
N982 H994 0.984 . S
N982 H995 0.985 . S
N983 C985 1.356 . S
N983 H988 0.984 . S
N983 H989 0.985 . S
C984 C978 1.379 . S
C984 C981 1.355 1_565 S
C984 N982 1.356 . S
C985 C979 1.373 . S
C985 C980 1.379 . S
C985 N983 1.356 . S
N986 C978 1.356 . S
N986 H992 0.984 . S
N986 H993 0.984 . S
N987 C980 1.356 . S
N987 H990 0.984 . S
N987 H991 0.985 . S
H988 N983 0.984 . S
H989 N983 0.985 . S
H990 N987 0.984 . S
H991 N987 0.985 . S
H992 N986 0.984 . S
H993 N986 0.984 . S
H994 N982 0.984 . S
H995 N982 0.985 . S
C996 C997 1.363 1_655 S
C996 C1002 1.379 . S
C996 N1004 1.356 . S
C997 C996 1.363 1_455 S
C997 C1003 1.363 . S
C998 C999 1.363 . S
C998 C1003 1.379 . S
C998 N1005 1.356 . S
C999 C998 1.363 . S
C999 C1002 1.363 1_455 S
N1000 C1002 1.356 . S
N1000 H1012 0.984 . S
N1000 H1013 0.985 . S
N1001 C1003 1.356 . S
N1001 H1006 0.984 . S
N1001 H1007 0.985 . S
C1002 C996 1.379 . S
C1002 C999 1.363 1_655 S
C1002 N1000 1.356 . S
C1003 C997 1.363 . S
C1003 C998 1.379 . S
C1003 N1001 1.356 . S
N1004 C996 1.356 . S
N1004 H1010 0.984 . S
N1004 H1011 0.984 . S
N1005 C998 1.356 . S
N1005 H1008 0.984 . S
N1005 H1009 0.985 . S
H1006 N1001 0.984 . S
H1007 N1001 0.985 . S
H1008 N1005 0.984 . S
H1009 N1005 0.985 . S
H1010 N1004 0.984 . S
H1011 N1004 0.984 . S
H1012 N1000 0.984 . S
H1013 N1000 0.985 . S
C1014 C1015 1.356 1_565 S
C1014 C1020 1.379 . S
C1014 N1022 1.356 . S
C1015 C1014 1.356 1_545 S
C1015 C1021 1.371 . S
C1016 C1017 1.371 . S
C1016 C1021 1.379 . S
C1016 N1023 1.356 . S
C1017 C1016 1.371 . S
C1017 C1020 1.355 1_545 S
N1018 C1020 1.356 . S
N1018 H1030 0.984 . S
N1018 H1031 0.985 . S
N1019 C1021 1.356 . S
N1019 H1024 0.984 . S
N1019 H1025 0.985 . S
C1020 C1014 1.379 . S
C1020 C1017 1.355 1_565 S
C1020 N1018 1.356 . S
C1021 C1015 1.371 . S
C1021 C1016 1.379 . S
C1021 N1019 1.356 . S
N1022 C1014 1.356 . S
N1022 H1028 0.984 . S
N1022 H1029 0.984 . S
N1023 C1016 1.356 . S
N1023 H1026 0.984 . S
N1023 H1027 0.985 . S
H1024 N1019 0.984 . S
H1025 N1019 0.985 . S
H1026 N1023 0.984 . S
H1027 N1023 0.985 . S
H1028 N1022 0.984 . S
H1029 N1022 0.984 . S
H1030 N1018 0.984 . S
H1031 N1018 0.985 . S
C1032 C1033 1.363 . S
C1032 C1038 1.379 . S
C1032 N1040 1.356 . S
C1033 C1032 1.363 . S
C1033 C1039 1.363 . S
C1034 C1035 1.363 . S
C1034 C1039 1.379 . S
C1034 N1041 1.356 . S
C1035 C1034 1.363 . S
C1035 C1038 1.363 . S
N1036 C1038 1.356 . S
N1036 H1048 0.984 . S
N1036 H1049 0.985 . S
N1037 C1039 1.356 . S
N1037 H1042 0.984 . S
N1037 H1043 0.985 . S
C1038 C1032 1.379 . S
C1038 C1035 1.363 . S
C1038 N1036 1.356 . S
C1039 C1033 1.363 . S
C1039 C1034 1.379 . S
C1039 N1037 1.356 . S
N1040 C1032 1.356 . S
N1040 H1046 0.978 1_455 S
N1040 H1047 0.984 . S
N1041 C1034 1.356 . S
N1041 H1044 0.984 . S
N1041 H1045 0.985 . S
H1042 N1037 0.984 . S
H1043 N1037 0.985 . S
H1044 N1041 0.984 . S
H1045 N1041 0.985 . S
H1046 N1040 0.978 1_655 S
H1047 N1040 0.984 . S
H1048 N1036 0.984 . S
H1049 N1036 0.985 . S
C1050 C1051 1.373 . S
C1050 C1056 1.379 . S
C1050 N1058 1.356 . S
C1051 C1050 1.373 . S
C1051 C1057 1.353 1_545 S
C1052 C1053 1.355 1_565 S
C1052 C1057 1.379 . S
C1052 N1059 1.356 . S
C1053 C1052 1.355 1_545 S
C1053 C1056 1.371 . S
N1054 C1056 1.356 . S
N1054 H1066 0.984 . S
N1054 H1067 0.985 . S
N1055 C1057 1.356 . S
N1055 H1060 0.984 . S
N1055 H1061 0.985 . S
C1056 C1050 1.379 . S
C1056 C1053 1.371 . S
C1056 N1054 1.356 . S
C1057 C1051 1.353 1_565 S
C1057 C1052 1.379 . S
C1057 N1055 1.356 . S
N1058 C1050 1.356 . S
N1058 H1064 0.984 . S
N1058 H1065 0.984 . S
N1059 C1052 1.356 . S
N1059 H1062 0.984 . S
N1059 H1063 0.985 . S
H1060 N1055 0.984 . S
H1061 N1055 0.985 . S
H1062 N1059 0.984 . S
H1063 N1059 0.985 . S
H1064 N1058 0.984 . S
H1065 N1058 0.984 . S
H1066 N1054 0.984 . S
H1067 N1054 0.985 . S
C1068 C1069 1.363 . S
C1068 C1074 1.379 . S
C1068 N1076 1.356 . S
C1069 C1068 1.363 . S
C1069 C1075 1.363 . S
C1070 C1071 1.363 . S
C1070 C1075 1.379 . S
C1070 N1077 1.356 . S
C1071 C1070 1.363 . S
C1071 C1074 1.363 . S
N1072 C1074 1.356 . S
N1072 H1084 0.984 . S
N1072 H1085 0.985 . S
N1073 C1075 1.356 . S
N1073 H1078 0.984 . S
N1073 H1079 0.985 . S
C1074 C1068 1.379 . S
C1074 C1071 1.363 . S
C1074 N1072 1.356 . S
C1075 C1069 1.363 . S
C1075 C1070 1.379 . S
C1075 N1073 1.356 . S
N1076 C1068 1.356 . S
N1076 H1082 0.984 1_455 S
N1076 H1083 0.984 . S
N1077 C1070 1.356 . S
N1077 H1080 0.984 . S
N1077 H1081 0.985 . S
H1078 N1073 0.984 . S
H1079 N1073 0.985 . S
H1080 N1077 0.984 . S
H1081 N1077 0.985 . S
H1082 N1076 0.984 1_655 S
H1083 N1076 0.984 . S
H1084 N1072 0.984 . S
H1085 N1072 0.985 . S
C1086 C1087 1.368 . S
C1086 C1092 1.379 . S
C1086 N1094 1.356 . S
C1087 C1086 1.368 . S
C1087 C1093 1.358 1_545 S
C1088 C1089 1.356 1_565 S
C1088 C1093 1.379 . S
C1088 N1095 1.356 . S
C1089 C1088 1.356 1_545 S
C1089 C1092 1.370 . S
N1090 C1092 1.356 . S
N1090 H1102 0.984 . S
N1090 H1103 0.985 . S
N1091 C1093 1.356 . S
N1091 H1096 0.984 . S
N1091 H1097 0.985 . S
C1092 C1086 1.379 . S
C1092 C1089 1.370 . S
C1092 N1090 1.356 . S
C1093 C1087 1.358 1_565 S
C1093 C1088 1.379 . S
C1093 N1091 1.356 . S
N1094 C1086 1.356 . S
N1094 H1100 0.984 . S
N1094 H1101 0.984 . S
N1095 C1088 1.356 . S
N1095 H1098 0.984 . S
N1095 H1099 0.985 . S
H1096 N1091 0.984 . S
H1097 N1091 0.985 . S
H1098 N1095 0.984 . S
H1099 N1095 0.985 . S
H1100 N1094 0.984 . S
H1101 N1094 0.984 . S
H1102 N1090 0.984 . S
H1103 N1090 0.985 . S
C1104 C1105 1.363 . S
C1104 C1110 1.379 . S
C1104 N1112 1.356 . S
C1105 C1104 1.363 . S
C1105 C1111 1.363 1_455 S
C1106 C1107 1.363 1_655 S
C1106 C1111 1.379 . S
C1106 N1113 1.356 . S
C1107 C1106 1.363 1_455 S
C1107 C1110 1.363 . S
N1108 C1110 1.356 . S
N1108 H1120 0.984 . S
N1108 H1121 0.985 . S
N1109 C1111 1.356 . S
N1109 H1114 0.984 . S
N1109 H1115 0.985 . S
C1110 C1104 1.379 . S
C1110 C1107 1.363 . S
C1110 N1108 1.356 . S
C1111 C1105 1.363 1_655 S
C1111 C1106 1.379 . S
C1111 N1109 1.356 . S
N1112 C1104 1.356 . S
N1112 H1118 0.984 . S
N1112 H1119 0.984 . S
N1113 C1106 1.356 . S
N1113 H1116 0.984 . S
N1113 H1117 0.985 . S
H1114 N1109 0.984 . S
H1115 N1109 0.985 . S
H1116 N1113 0.984 . S
H1117 N1113 0.985 . S
H1118 N1112 0.984 . S
H1119 N1112 0.984 . S
H1120 N1108 0.984 . S
H1121 N1108 0.985 . S
C1122 C1123 1.369 . S
C1122 C1128 1.379 . S
C1122 N1130 1.356 . S
C1123 C1122 1.369 . S
C1123 C1129 1.357 1_545 S
C1124 C1125 1.356 1_565 S
C1124 C1129 1.379 . S
C1124 N1131 1.356 . S
C1125 C1124 1.356 1_545 S
C1125 C1128 1.370 . S
N1126 C1128 1.356 . S
N1126 H1138 0.984 . S
N1126 H1139 0.985 . S
N1127 C1129 1.356 . S
N1127 H1132 0.984 . S
N1127 H1133 0.985 . S
C1128 C1122 1.379 . S
C1128 C1125 1.370 . S
C1128 N1126 1.356 . S
C1129 C1123 1.357 1_565 S
C1129 C1124 1.379 . S
C1129 N1127 1.356 . S
N1130 C1122 1.356 . S
N1130 H1136 0.984 . S
N1130 H1137 0.984 . S
N1131 C1124 1.356 . S
N1131 H1134 0.984 . S
N1131 H1135 0.985 . S
H1132 N1127 0.984 . S
H1133 N1127 0.985 . S
H1134 N1131 0.984 . S
H1135 N1131 0.985 . S
H1136 N1130 0.984 . S
H1137 N1130 0.984 . S
H1138 N1126 0.984 . S
H1139 N1126 0.985 . S
C1140 C1141 1.374 . S
C1140 C1146 1.379 . S
C1140 N1148 1.356 . S
C1141 C1140 1.374 . S
C1141 C1147 1.352 1_545 S
C1142 C1143 1.348 1_565 S
C1142 C1147 1.379 . S
C1142 N1149 1.356 . S
C1143 C1142 1.348 1_545 S
C1143 C1146 1.378 . S
N1144 C1146 1.356 . S
N1144 H1156 0.984 . S
N1144 H1157 0.985 . S
N1145 C1147 1.356 . S
N1145 H1150 0.984 . S
N1145 H1151 0.985 . S
C1146 C1140 1.379 . S
C1146 C1143 1.378 . S
C1146 N1144 1.356 . S
C1147 C1141 1.352 1_565 S
C1147 C1142 1.379 . S
C1147 N1145 1.356 . S
N1148 C1140 1.356 . S
N1148 H1154 0.984 . S
N1148 H1155 0.984 . S
N1149 C1142 1.356 . S
N1149 H1152 0.984 . S
N1149 H1153 0.985 . S
H1150 N1145 0.984 . S
H1151 N1145 0.985 . S
H1152 N1149 0.984 . S
H1153 N1149 0.985 . S
H1154 N1148 0.984 . S
H1155 N1148 0.984 . S
H1156 N1144 0.984 . S
H1157 N1144 0.985 . S
C1158 C1159 1.363 1_655 S
C1158 C1164 1.379 . S
C1158 N1166 1.356 . S
C1159 C1158 1.363 1_455 S
C1159 C1165 1.363 . S
C1160 C1161 1.363 . S
C1160 C1165 1.379 . S
C1160 N1167 1.356 . S
C1161 C1160 1.363 . S
C1161 C1164 1.363 1_455 S
N1162 C1164 1.356 . S
N1162 H1174 0.984 . S
N1162 H1175 0.985 . S
N1163 C1165 1.356 . S
N1163 H1168 0.984 . S
N1163 H1169 0.985 . S
C1164 C1158 1.379 . S
C1164 C1161 1.363 1_655 S
C1164 N1162 1.356 . S
C1165 C1159 1.363 . S
C1165 C1160 1.379 . S
C1165 N1163 1.356 . S
N1166 C1158 1.356 . S
N1166 H1172 0.984 . S
N1166 H1173 0.984 . S
N1167 C1160 1.356 . S
N1167 H1170 0.984 . S
N1167 H1171 0.985 . S
H1168 N1163 0.984 . S
H1169 N1163 0.985 . S
H1170 N1167 0.984 . S
H1171 N1167 0.985 . S
H1172 N1166 0.984 . S
H1173 N1166 0.984 . S
H1174 N1162 0.984 . S
H1175 N1162 0.985 . S
C1176 C1177 1.372 . S
C1176 C1182 1.379 . S
C1176 N1184 1.356 . S
C1177 C1176 1.372 . S
C1177 C1183 1.354 1_545 S
C1178 C1179 1.349 1_565 S
C1178 C1183 1.379 . S
C1178 N1185 1.356 . S
C1179 C1178 1.349 1_545 S
C1179 C1182 1.377 . S
N1180 C1182 1.356 . S
N1180 H1192 0.984 . S
N1180 H1193 0.985 . S
N1181 C1183 1.356 . S
N1181 H1186 0.984 . S
N1181 H1187 0.985 . S
C1182 C1176 1.379 . S
C1182 C1179 1.377 . S
C1182 N1180 1.356 . S
C1183 C1177 1.354 1_565 S
C1183 C1178 1.379 . S
C1183 N1181 1.356 . S
N1184 C1176 1.356 . S
N1184 H1190 0.984 . S
N1184 H1191 0.984 . S
N1185 C1178 1.356 . S
N1185 H1188 0.984 . S
N1185 H1189 0.985 . S
H1186 N1181 0.984 . S
H1187 N1181 0.985 . S
H1188 N1185 0.984 . S
H1189 N1185 0.985 . S
H1190 N1184 0.984 . S
H1191 N1184 0.984 . S
H1192 N1180 0.984 . S
H1193 N1180 0.985 . S
C1194 C1195 1.363 . S
C1194 C1200 1.379 . S
C1194 N1202 1.356 . S
C1195 C1194 1.363 . S
C1195 C1201 1.363 . S
C1196 C1197 1.363 . S
C1196 C1201 1.379 . S
C1196 N1203 1.356 1_455 S
C1197 C1196 1.363 . S
C1197 C1200 1.363 . S
N1198 C1200 1.356 . S
N1198 H1210 0.984 . S
N1198 H1211 0.985 . S
N1199 C1201 1.356 . S
N1199 H1204 0.984 . S
N1199 H1205 0.985 . S
C1200 C1194 1.379 . S
C1200 C1197 1.363 . S
C1200 N1198 1.356 . S
C1201 C1195 1.363 . S
C1201 C1196 1.379 . S
C1201 N1199 1.356 . S
N1202 C1194 1.356 . S
N1202 H1208 0.984 . S
N1202 H1209 0.984 . S
N1203 C1196 1.356 1_655 S
N1203 H1206 0.984 . S
N1203 H1207 0.985 . S
H1204 N1199 0.984 . S
H1205 N1199 0.985 . S
H1206 N1203 0.984 . S
H1207 N1203 0.985 . S
H1208 N1202 0.984 . S
H1209 N1202 0.984 . S
H1210 N1198 0.984 . S
H1211 N1198 0.985 . S
C1212 C1213 1.359 1_565 S
C1212 C1218 1.379 . S
C1212 N1220 1.356 . S
C1213 C1212 1.359 1_545 S
C1213 C1219 1.367 . S
C1214 C1215 1.363 . S
C1214 C1219 1.379 . S
C1214 N1221 1.356 . S
C1215 C1214 1.363 . S
C1215 C1218 1.363 1_545 S
N1216 C1218 1.356 . S
N1216 H1228 0.984 . S
N1216 H1229 0.985 . S
N1217 C1219 1.356 . S
N1217 H1222 0.984 . S
N1217 H1223 0.985 . S
C1218 C1212 1.379 . S
C1218 C1215 1.363 1_565 S
C1218 N1216 1.356 . S
C1219 C1213 1.367 . S
C1219 C1214 1.379 . S
C1219 N1217 1.356 . S
N1220 C1212 1.356 . S
N1220 H1226 0.984 . S
N1220 H1227 0.984 . S
N1221 C1214 1.356 . S
N1221 H1224 0.984 . S
N1221 H1225 0.985 . S
H1222 N1217 0.984 . S
H1223 N1217 0.985 . S
H1224 N1221 0.984 . S
H1225 N1221 0.985 . S
H1226 N1220 0.984 . S
H1227 N1220 0.984 . S
H1228 N1216 0.984 . S
H1229 N1216 0.985 . S
C1230 C1231 1.363 1_655 S
C1230 C1236 1.379 . S
C1230 N1238 1.356 . S
C1231 C1230 1.363 1_455 S
C1231 C1237 1.363 . S
C1232 C1233 1.363 . S
C1232 C1237 1.379 . S
C1232 N1239 1.356 . S
C1233 C1232 1.363 . S
C1233 C1236 1.363 1_455 S
N1234 C1236 1.356 . S
N1234 H1246 0.984 . S
N1234 H1247 0.985 . S
N1235 C1237 1.356 . S
N1235 H1240 0.984 . S
N1235 H1241 0.985 . S
C1236 C1230 1.379 . S
C1236 C1233 1.363 1_655 S
C1236 N1234 1.356 . S
C1237 C1231 1.363 . S
C1237 C1232 1.379 . S
C1237 N1235 1.356 . S
N1238 C1230 1.356 . S
N1238 H1244 0.984 . S
N1238 H1245 0.984 . S
N1239 C1232 1.356 . S
N1239 H1242 0.984 . S
N1239 H1243 0.985 . S
H1240 N1235 0.984 . S
H1241 N1235 0.985 . S
H1242 N1239 0.984 . S
H1243 N1239 0.985 . S
H1244 N1238 0.984 . S
H1245 N1238 0.984 . S
H1246 N1234 0.984 . S
H1247 N1234 0.985 . S
C1248 C1249 1.367 . S
C1248 C1254 1.379 . S
C1248 N1256 1.356 . S
C1249 C1248 1.367 . S
C1249 C1255 1.359 1_545 S
C1250 C1251 1.363 1_565 S
C1250 C1255 1.379 . S
C1250 N1257 1.356 . S
C1251 C1250 1.363 1_545 S
C1251 C1254 1.363 . S
N1252 C1254 1.356 . S
N1252 H1264 0.984 . S
N1252 H1265 0.985 . S
N1253 C1255 1.356 . S
N1253 H1258 0.984 . S
N1253 H1259 0.985 . S
C1254 C1248 1.379 . S
C1254 C1251 1.363 . S
C1254 N1252 1.356 . S
C1255 C1249 1.359 1_565 S
C1255 C1250 1.379 . S
C1255 N1253 1.356 . S
N1256 C1248 1.356 . S
N1256 H1262 0.984 . S
N1256 H1263 0.984 . S
N1257 C1250 1.356 . S
N1257 H1260 0.984 . S
N1257 H1261 0.985 . S
H1258 N1253 0.984 . S
H1259 N1253 0.985 . S
H1260 N1257 0.984 . S
H1261 N1257 0.985 . S
H1262 N1256 0.984 . S
H1263 N1256 0.984 . S
H1264 N1252 0.984 . S
H1265 N1252 0.985 . S
C1266 C1267 1.363 . S
C1266 C1272 1.379 . S
C1266 N1274 1.356 . S
C1267 C1266 1.363 . S
C1267 C1273 1.363 1_455 S
C1268 C1269 1.363 1_655 S
C1268 C1273 1.379 . S
C1268 N1275 1.356 . S
C1269 C1268 1.363 1_455 S
C1269 C1272 1.363 . S
N1270 C1272 1.356 . S
N1270 H1282 0.984 . S
N1270 H1283 0.985 . S
N1271 C1273 1.356 . S
N1271 H1276 0.984 . S
N1271 H1277 0.985 . S
C1272 C1266 1.379 . S
C1272 C1269 1.363 . S
C1272 N1270 1.356 . S
C1273 C1267 1.363 1_655 S
C1273 C1268 1.379 . S
C1273 N1271 1.356 . S
N1274 C1266 1.356 . S
N1274 H1280 0.984 . S
N1274 H1281 0.984 . S
N1275 C1268 1.356 . S
N1275 H1278 0.984 . S
N1275 H1279 0.985 . S
H1276 N1271 0.984 . S
H1277 N1271 0.985 . S
H1278 N1275 0.984 . S
H1279 N1275 0.985 . S
H1280 N1274 0.984 . S
H1281 N1274 0.984 . S
H1282 N1270 0.984 . S
H1283 N1270 0.985 . S
C1284 C1285 1.363 . S
C1284 C1290 1.379 . S
C1284 N1292 1.356 . S
C1285 C1284 1.363 . S
C1285 C1291 1.363 1_554 S
C1286 C1287 1.363 1_556 S
C1286 C1291 1.379 . S
C1286 N1293 1.356 . S
C1287 C1286 1.363 1_554 S
C1287 C1290 1.363 . S
N1288 C1290 1.356 . S
N1288 H1300 0.984 . S
N1288 H1301 0.985 . S
N1289 C1291 1.356 . S
N1289 H1294 0.984 . S
N1289 H1295 0.985 . S
C1290 C1284 1.379 . S
C1290 C1287 1.363 . S
C1290 N1288 1.356 . S
C1291 C1285 1.363 1_556 S
C1291 C1286 1.379 . S
C1291 N1289 1.356 . S
N1292 C1284 1.356 . S
N1292 H1298 0.984 . S
N1292 H1299 0.984 . S
N1293 C1286 1.356 . S
N1293 H1296 0.984 . S
N1293 H1297 0.985 . S
H1294 N1289 0.984 . S
H1295 N1289 0.985 . S
H1296 N1293 0.984 . S
H1297 N1293 0.985 . S
H1298 N1292 0.984 . S
H1299 N1292 0.984 . S
H1300 N1288 0.984 . S
H1301 N1288 0.985 . S
C1302 C1303 1.363 1_556 S
C1302 C1308 1.379 . S
C1302 N1310 1.356 . S
C1303 C1302 1.363 1_554 S
C1303 C1309 1.363 . S
C1304 C1305 1.363 . S
C1304 C1309 1.379 . S
C1304 N1311 1.356 . S
C1305 C1304 1.363 . S
C1305 C1308 1.363 1_554 S
N1306 C1308 1.356 . S
N1306 H1318 0.984 . S
N1306 H1319 0.985 . S
N1307 C1309 1.356 . S
N1307 H1312 0.984 . S
N1307 H1313 0.985 . S
C1308 C1302 1.379 . S
C1308 C1305 1.363 1_556 S
C1308 N1306 1.356 . S
C1309 C1303 1.363 . S
C1309 C1304 1.379 . S
C1309 N1307 1.356 . S
N1310 C1302 1.356 . S
N1310 H1316 0.984 . S
N1310 H1317 0.984 . S
N1311 C1304 1.356 . S
N1311 H1314 0.984 . S
N1311 H1315 0.985 . S
H1312 N1307 0.984 . S
H1313 N1307 0.985 . S
H1314 N1311 0.984 . S
H1315 N1311 0.985 . S
H1316 N1310 0.984 . S
H1317 N1310 0.984 . S
H1318 N1306 0.984 . S
H1319 N1306 0.985 . S
C1320 C1321 1.363 1_556 S
C1320 C1326 1.379 . S
C1320 N1328 1.356 . S
C1321 C1320 1.363 1_554 S
C1321 C1327 1.363 . S
C1322 C1323 1.363 . S
C1322 C1327 1.379 . S
C1322 N1329 1.356 . S
C1323 C1322 1.363 . S
C1323 C1326 1.363 1_554 S
N1324 C1326 1.356 . S
N1324 H1336 0.984 . S
N1324 H1337 0.985 . S
N1325 C1327 1.356 . S
N1325 H1330 0.984 . S
N1325 H1331 0.985 . S
C1326 C1320 1.379 . S
C1326 C1323 1.363 1_556 S
C1326 N1324 1.356 . S
C1327 C1321 1.363 . S
C1327 C1322 1.379 . S
C1327 N1325 1.356 . S
N1328 C1320 1.356 . S
N1328 H1334 0.984 . S
N1328 H1335 0.984 . S
N1329 C1322 1.356 . S
N1329 H1332 0.984 . S
N1329 H1333 0.985 . S
H1330 N1325 0.984 . S
H1331 N1325 0.985 . S
H1332 N1329 0.984 . S
H1333 N1329 0.985 . S
H1334 N1328 0.984 . S
H1335 N1328 0.984 . S
H1336 N1324 0.984 . S
H1337 N1324 0.985 . S
C1338 C1339 1.363 . S
C1338 C1344 1.379 . S
C1338 N1346 1.356 . S
C1339 C1338 1.363 . S
C1339 C1345 1.363 1_554 S
C1340 C1341 1.363 1_556 S
C1340 C1345 1.379 . S
C1340 N1347 1.356 . S
C1341 C1340 1.363 1_554 S
C1341 C1344 1.363 . S
N1342 C1344 1.356 . S
N1342 H1354 0.984 . S
N1342 H1355 0.985 . S
N1343 C1345 1.356 . S
N1343 H1348 0.984 . S
N1343 H1349 0.985 . S
C1344 C1338 1.379 . S
C1344 C1341 1.363 . S
C1344 N1342 1.356 . S
C1345 C1339 1.363 1_556 S
C1345 C1340 1.379 . S
C1345 N1343 1.356 . S
N1346 C1338 1.356 . S
N1346 H1352 0.984 . S
N1346 H1353 0.984 . S
N1347 C1340 1.356 . S
N1347 H1350 0.984 . S
N1347 H1351 0.985 . S
H1348 N1343 0.984 . S
H1349 N1343 0.985 . S
H1350 N1347 0.984 . S
H1351 N1347 0.985 . S
H1352 N1346 0.984 . S
H1353 N1346 0.984 . S
H1354 N1342 0.984 . S
H1355 N1342 0.985 . S
C1356 C1357 1.363 1_556 S
C1356 C1362 1.379 . S
C1356 N1364 1.356 . S
C1357 C1356 1.363 1_554 S
C1357 C1363 1.363 . S
C1358 C1359 1.363 . S
C1358 C1363 1.379 . S
C1358 N1365 1.356 . S
C1359 C1358 1.363 . S
C1359 C1362 1.363 1_554 S
N1360 C1362 1.356 . S
N1360 H1372 0.984 . S
N1360 H1373 0.985 . S
N1361 C1363 1.356 . S
N1361 H1366 0.984 . S
N1361 H1367 0.985 . S
C1362 C1356 1.379 . S
C1362 C1359 1.363 1_556 S
C1362 N1360 1.356 . S
C1363 C1357 1.363 . S
C1363 C1358 1.379 . S
C1363 N1361 1.356 . S
N1364 C1356 1.356 . S
N1364 H1370 0.984 . S
N1364 H1371 0.984 . S
N1365 C1358 1.356 . S
N1365 H1368 0.984 . S
N1365 H1369 0.985 . S
H1366 N1361 0.984 . S
H1367 N1361 0.985 . S
H1368 N1365 0.984 . S
H1369 N1365 0.985 . S
H1370 N1364 0.984 . S
H1371 N1364 0.984 . S
H1372 N1360 0.984 . S
H1373 N1360 0.985 . S
C1374 C1375 1.363 . S
C1374 C1380 1.379 . S
C1374 N1382 1.356 . S
C1375 C1374 1.363 . S
C1375 C1381 1.363 1_554 S
C1376 C1377 1.363 1_556 S
C1376 C1381 1.379 . S
C1376 N1383 1.356 . S
C1377 C1376 1.363 1_554 S
C1377 C1380 1.363 . S
N1378 C1380 1.356 . S
N1378 H1390 0.984 . S
N1378 H1391 0.985 . S
N1379 C1381 1.356 . S
N1379 H1384 0.984 . S
N1379 H1385 0.985 . S
C1380 C1374 1.379 . S
C1380 C1377 1.363 . S
C1380 N1378 1.356 . S
C1381 C1375 1.363 1_556 S
C1381 C1376 1.379 . S
C1381 N1379 1.356 . S
N1382 C1374 1.356 . S
N1382 H1388 0.984 . S
N1382 H1389 0.984 . S
N1383 C1376 1.356 . S
N1383 H1386 0.984 . S
N1383 H1387 0.985 . S
H1384 N1379 0.984 . S
H1385 N1379 0.985 . S
H1386 N1383 0.984 . S
H1387 N1383 0.985 . S
H1388 N1382 0.984 . S
H1389 N1382 0.984 . S
H1390 N1378 0.984 . S
H1391 N1378 0.985 . S
C1392 C1393 1.363 . S
C1392 C1398 1.379 . S
C1392 N1400 1.356 . S
C1393 C1392 1.363 . S
C1393 C1399 1.363 1_554 S
C1394 C1395 1.363 1_556 S
C1394 C1399 1.379 . S
C1394 N1401 1.356 . S
C1395 C1394 1.363 1_554 S
C1395 C1398 1.363 . S
N1396 C1398 1.356 . S
N1396 H1408 0.984 . S
N1396 H1409 0.985 . S
N1397 C1399 1.356 . S
N1397 H1402 0.984 . S
N1397 H1403 0.985 . S
C1398 C1392 1.379 . S
C1398 C1395 1.363 . S
C1398 N1396 1.356 . S
C1399 C1393 1.363 1_556 S
C1399 C1394 1.379 . S
C1399 N1397 1.356 . S
N1400 C1392 1.356 . S
N1400 H1406 0.984 . S
N1400 H1407 0.984 . S
N1401 C1394 1.356 . S
N1401 H1404 0.984 . S
N1401 H1405 0.985 . S
H1402 N1397 0.984 . S
H1403 N1397 0.985 . S
H1404 N1401 0.984 . S
H1405 N1401 0.985 . S
H1406 N1400 0.984 . S
H1407 N1400 0.984 . S
H1408 N1396 0.984 . S
H1409 N1396 0.985 . S
C1410 C1411 1.363 . S
C1410 C1416 1.379 . S
C1410 N1418 1.356 . S
C1411 C1410 1.363 . S
C1411 C1417 1.363 1_554 S
C1412 C1413 1.363 1_556 S
C1412 C1417 1.379 . S
C1412 N1419 1.356 . S
C1413 C1412 1.363 1_554 S
C1413 C1416 1.363 . S
N1414 C1416 1.356 . S
N1414 H1426 0.984 . S
N1414 H1427 0.985 . S
N1415 C1417 1.356 . S
N1415 H1420 0.984 . S
N1415 H1421 0.985 . S
C1416 C1410 1.379 . S
C1416 C1413 1.363 . S
C1416 N1414 1.356 . S
C1417 C1411 1.363 1_556 S
C1417 C1412 1.379 . S
C1417 N1415 1.356 . S
N1418 C1410 1.356 . S
N1418 H1424 0.984 . S
N1418 H1425 0.984 . S
N1419 C1412 1.356 . S
N1419 H1422 0.984 . S
N1419 H1423 0.985 . S
H1420 N1415 0.984 . S
H1421 N1415 0.985 . S
H1422 N1419 0.984 . S
H1423 N1419 0.985 . S
H1424 N1418 0.984 . S
H1425 N1418 0.984 . S
H1426 N1414 0.984 . S
H1427 N1414 0.985 . S
C1428 C1429 1.363 . S
C1428 C1434 1.379 . S
C1428 N1436 1.356 . S
C1429 C1428 1.363 . S
C1429 C1435 1.363 . S
C1430 C1431 1.363 . S
C1430 C1435 1.379 . S
C1430 N1437 1.356 . S
C1431 C1430 1.363 . S
C1431 C1434 1.363 . S
N1432 C1434 1.356 . S
N1432 H1444 0.984 . S
N1432 H1445 0.985 . S
N1433 C1435 1.356 . S
N1433 H1438 0.984 . S
N1433 H1439 0.985 . S
C1434 C1428 1.379 . S
C1434 C1431 1.363 . S
C1434 N1432 1.356 . S
C1435 C1429 1.363 . S
C1435 C1430 1.379 . S
C1435 N1433 1.356 . S
N1436 C1428 1.356 . S
N1436 H1442 0.984 . S
N1436 H1443 0.984 . S
N1437 C1430 1.356 . S
N1437 H1440 0.984 . S
N1437 H1441 0.985 . S
H1438 N1433 0.984 . S
H1439 N1433 0.985 . S
H1440 N1437 0.984 . S
H1441 N1437 0.985 . S
H1442 N1436 0.984 . S
H1443 N1436 0.984 . S
H1444 N1432 0.984 . S
H1445 N1432 0.985 . S
C1446 C1447 1.363 . S
C1446 C1452 1.379 . S
C1446 N1454 1.356 . S
C1447 C1446 1.363 . S
C1447 C1453 1.363 . S
C1448 C1449 1.363 . S
C1448 C1453 1.379 . S
C1448 N1455 1.356 . S
C1449 C1448 1.363 . S
C1449 C1452 1.363 . S
N1450 C1452 1.356 . S
N1450 H1462 0.984 . S
N1450 H1463 0.985 . S
N1451 C1453 1.356 . S
N1451 H1456 0.984 . S
N1451 H1457 0.985 . S
C1452 C1446 1.379 . S
C1452 C1449 1.363 . S
C1452 N1450 1.356 . S
C1453 C1447 1.363 . S
C1453 C1448 1.379 . S
C1453 N1451 1.356 . S
N1454 C1446 1.356 . S
N1454 H1460 0.984 . S
N1454 H1461 0.984 . S
N1455 C1448 1.356 . S
N1455 H1458 0.984 . S
N1455 H1459 0.985 . S
H1456 N1451 0.984 . S
H1457 N1451 0.985 . S
H1458 N1455 0.984 . S
H1459 N1455 0.985 . S
H1460 N1454 0.984 . S
H1461 N1454 0.984 . S
H1462 N1450 0.984 . S
H1463 N1450 0.985 . S
C1464 C1465 1.363 . S
C1464 C1470 1.379 . S
C1464 N1472 1.356 . S
C1465 C1464 1.363 . S
C1465 C1471 1.363 . S
C1466 C1467 1.363 . S
C1466 C1471 1.379 . S
C1466 N1473 1.356 . S
C1467 C1466 1.363 . S
C1467 C1470 1.363 . S
N1468 C1470 1.356 . S
N1468 H1480 0.984 . S
N1468 H1481 0.985 . S
N1469 C1471 1.356 . S
N1469 H1474 0.984 . S
N1469 H1475 0.985 . S
C1470 C1464 1.379 . S
C1470 C1467 1.363 . S
C1470 N1468 1.356 . S
C1471 C1465 1.363 . S
C1471 C1466 1.379 . S
C1471 N1469 1.356 . S
N1472 C1464 1.356 . S
N1472 H1478 0.984 . S
N1472 H1479 0.984 . S
N1473 C1466 1.356 . S
N1473 H1476 0.984 . S
N1473 H1477 0.985 . S
H1474 N1469 0.984 . S
H1475 N1469 0.985 . S
H1476 N1473 0.984 . S
H1477 N1473 0.985 . S
H1478 N1472 0.984 . S
H1479 N1472 0.984 . S
H1480 N1468 0.984 . S
H1481 N1468 0.985 . S
C1482 C1483 1.363 . S
C1482 C1488 1.379 . S
C1482 N1490 1.356 . S
C1483 C1482 1.363 . S
C1483 C1489 1.363 . S
C1484 C1485 1.363 . S
C1484 C1489 1.379 . S
C1484 N1491 1.356 . S
C1485 C1484 1.363 . S
C1485 C1488 1.363 . S
N1486 C1488 1.356 . S
N1486 H1498 0.984 . S
N1486 H1499 0.985 . S
N1487 C1489 1.356 . S
N1487 H1492 0.984 . S
N1487 H1493 0.985 . S
C1488 C1482 1.379 . S
C1488 C1485 1.363 . S
C1488 N1486 1.356 . S
C1489 C1483 1.363 . S
C1489 C1484 1.379 . S
C1489 N1487 1.356 . S
N1490 C1482 1.356 . S
N1490 H1496 0.984 . S
N1490 H1497 0.984 . S
N1491 C1484 1.356 . S
N1491 H1494 0.984 . S
N1491 H1495 0.985 . S
H1492 N1487 0.984 . S
H1493 N1487 0.985 . S
H1494 N1491 0.984 . S
H1495 N1491 0.985 . S
H1496 N1490 0.984 . S
H1497 N1490 0.984 . S
H1498 N1486 0.984 . S
H1499 N1486 0.985 . S
C1500 C1501 1.363 . S
C1500 C1506 1.379 . S
C1500 N1508 1.356 . S
C1501 C1500 1.363 . S
C1501 C1507 1.363 . S
C1502 C1503 1.363 . S
C1502 C1507 1.379 . S
C1502 N1509 1.356 . S
C1503 C1502 1.363 . S
C1503 C1506 1.363 . S
N1504 C1506 1.356 . S
N1504 H1516 0.984 . S
N1504 H1517 0.985 . S
N1505 C1507 1.356 . S
N1505 H1510 0.984 . S
N1505 H1511 0.985 . S
C1506 C1500 1.379 . S
C1506 C1503 1.363 . S
C1506 N1504 1.356 . S
C1507 C1501 1.363 . S
C1507 C1502 1.379 . S
C1507 N1505 1.356 . S
N1508 C1500 1.356 . S
N1508 H1514 0.984 . S
N1508 H1515 0.984 . S
N1509 C1502 1.356 . S
N1509 H1512 0.984 . S
N1509 H1513 0.985 . S
H1510 N1505 0.984 . S
H1511 N1505 0.985 . S
H1512 N1509 0.984 . S
H1513 N1509 0.985 . S
H1514 N1508 0.984 . S
H1515 N1508 0.984 . S
H1516 N1504 0.984 . S
H1517 N1504 0.985 . S
C1518 C1519 1.363 . S
C1518 C1524 1.379 . S
C1518 N1526 1.356 . S
C1519 C1518 1.363 . S
C1519 C1525 1.363 . S
C1520 C1521 1.363 . S
C1520 C1525 1.379 . S
C1520 N1527 1.356 . S
C1521 C1520 1.363 . S
C1521 C1524 1.363 . S
N1522 C1524 1.356 . S
N1522 H1534 0.984 . S
N1522 H1535 0.985 . S
N1523 C1525 1.356 . S
N1523 H1528 0.984 . S
N1523 H1529 0.985 . S
C1524 C1518 1.379 . S
C1524 C1521 1.363 . S
C1524 N1522 1.356 . S
C1525 C1519 1.363 . S
C1525 C1520 1.379 . S
C1525 N1523 1.356 . S
N1526 C1518 1.356 . S
N1526 H1532 0.984 . S
N1526 H1533 0.984 . S
N1527 C1520 1.356 . S
N1527 H1530 0.984 . S
N1527 H1531 0.985 . S
H1528 N1523 0.984 . S
H1529 N1523 0.985 . S
H1530 N1527 0.984 . S
H1531 N1527 0.985 . S
H1532 N1526 0.984 . S
H1533 N1526 0.984 . S
H1534 N1522 0.984 . S
H1535 N1522 0.985 . S
C1536 C1537 1.363 . S
C1536 C1542 1.379 . S
C1536 N1544 1.356 . S
C1537 C1536 1.363 . S
C1537 C1543 1.363 . S
C1538 C1539 1.363 . S
C1538 C1543 1.379 . S
C1538 N1545 1.356 . S
C1539 C1538 1.363 . S
C1539 C1542 1.363 . S
N1540 C1542 1.356 . S
N1540 H1552 0.984 . S
N1540 H1553 0.985 . S
N1541 C1543 1.356 . S
N1541 H1546 0.984 . S
N1541 H1547 0.985 . S
C1542 C1536 1.379 . S
C1542 C1539 1.363 . S
C1542 N1540 1.356 . S
C1543 C1537 1.363 . S
C1543 C1538 1.379 . S
C1543 N1541 1.356 . S
N1544 C1536 1.356 . S
N1544 H1550 0.984 . S
N1544 H1551 0.984 . S
N1545 C1538 1.356 . S
N1545 H1548 0.984 . S
N1545 H1549 0.985 . S
H1546 N1541 0.984 . S
H1547 N1541 0.985 . S
H1548 N1545 0.984 . S
H1549 N1545 0.985 . S
H1550 N1544 0.984 . S
H1551 N1544 0.984 . S
H1552 N1540 0.984 . S
H1553 N1540 0.985 . S
C1554 C1555 1.363 . S
C1554 C1560 1.379 . S
C1554 N1562 1.356 . S
C1555 C1554 1.363 . S
C1555 C1561 1.363 . S
C1556 C1557 1.363 . S
C1556 C1561 1.379 . S
C1556 N1563 1.356 . S
C1557 C1556 1.363 . S
C1557 C1560 1.363 . S
N1558 C1560 1.356 . S
N1558 H1570 0.984 . S
N1558 H1571 0.985 . S
N1559 C1561 1.356 . S
N1559 H1564 0.984 . S
N1559 H1565 0.985 . S
C1560 C1554 1.379 . S
C1560 C1557 1.363 . S
C1560 N1558 1.356 . S
C1561 C1555 1.363 . S
C1561 C1556 1.379 . S
C1561 N1559 1.356 . S
N1562 C1554 1.356 . S
N1562 H1568 0.984 . S
N1562 H1569 0.984 . S
N1563 C1556 1.356 . S
N1563 H1566 0.984 . S
N1563 H1567 0.985 . S
H1564 N1559 0.984 . S
H1565 N1559 0.985 . S
H1566 N1563 0.984 . S
H1567 N1563 0.985 . S
H1568 N1562 0.984 . S
H1569 N1562 0.984 . S
H1570 N1558 0.984 . S
H1571 N1558 0.985 . S
C1572 C1573 1.363 . S
C1572 C1578 1.379 . S
C1572 N1580 1.356 . S
C1573 C1572 1.363 . S
C1573 C1579 1.363 . S
C1574 C1575 1.363 . S
C1574 C1579 1.379 . S
C1574 N1581 1.356 . S
C1575 C1574 1.363 . S
C1575 C1578 1.363 . S
N1576 C1578 1.356 . S
N1576 H1588 0.984 . S
N1576 H1589 0.985 . S
N1577 C1579 1.356 . S
N1577 H1582 0.984 . S
N1577 H1583 0.985 . S
C1578 C1572 1.379 . S
C1578 C1575 1.363 . S
C1578 N1576 1.356 . S
C1579 C1573 1.363 . S
C1579 C1574 1.379 . S
C1579 N1577 1.356 . S
N1580 C1572 1.356 . S
N1580 H1586 0.984 . S
N1580 H1587 0.984 . S
N1581 C1574 1.356 . S
N1581 H1584 0.984 . S
N1581 H1585 0.985 . S
H1582 N1577 0.984 . S
H1583 N1577 0.985 . S
H1584 N1581 0.984 . S
H1585 N1581 0.985 . S
H1586 N1580 0.984 . S
H1587 N1580 0.984 . S
H1588 N1576 0.984 . S
H1589 N1576 0.985 . S
C1590 C1591 1.363 . S
C1590 C1596 1.379 . S
C1590 N1598 1.356 . S
C1591 C1590 1.363 . S
C1591 C1597 1.363 . S
C1592 C1593 1.363 . S
C1592 C1597 1.379 . S
C1592 N1599 1.356 . S
C1593 C1592 1.363 . S
C1593 C1596 1.363 . S
N1594 C1596 1.356 . S
N1594 H1606 0.984 . S
N1594 H1607 0.985 . S
N1595 C1597 1.356 . S
N1595 H1600 0.984 . S
N1595 H1601 0.985 . S
C1596 C1590 1.379 . S
C1596 C1593 1.363 . S
C1596 N1594 1.356 . S
C1597 C1591 1.363 . S
C1597 C1592 1.379 . S
C1597 N1595 1.356 . S
N1598 C1590 1.356 . S
N1598 H1604 0.984 . S
N1598 H1605 0.984 . S
N1599 C1592 1.356 . S
N1599 H1602 0.984 . S
N1599 H1603 0.985 . S
H1600 N1595 0.984 . S
H1601 N1595 0.985 . S
H1602 N1599 0.984 . S
H1603 N1599 0.985 . S
H1604 N1598 0.984 . S
H1605 N1598 0.984 . S
H1606 N1594 0.984 . S
H1607 N1594 0.985 . S
C1608 C1609 1.363 . S
C1608 C1614 1.379 . S
C1608 N1616 1.356 . S
C1609 C1608 1.363 . S
C1609 C1615 1.363 . S
C1610 C1611 1.363 . S
C1610 C1615 1.379 . S
C1610 N1617 1.356 . S
C1611 C1610 1.363 . S
C1611 C1614 1.363 . S
N1612 C1614 1.356 . S
N1612 H1624 0.984 . S
N1612 H1625 0.985 . S
N1613 C1615 1.356 . S
N1613 H1618 0.984 . S
N1613 H1619 0.985 . S
C1614 C1608 1.379 . S
C1614 C1611 1.363 . S
C1614 N1612 1.356 . S
C1615 C1609 1.363 . S
C1615 C1610 1.379 . S
C1615 N1613 1.356 . S
N1616 C1608 1.356 . S
N1616 H1622 0.984 . S
N1616 H1623 0.984 . S
N1617 C1610 1.356 . S
N1617 H1620 0.984 . S
N1617 H1621 0.985 . S
H1618 N1613 0.984 . S
H1619 N1613 0.985 . S
H1620 N1617 0.984 . S
H1621 N1617 0.985 . S
H1622 N1616 0.984 . S
H1623 N1616 0.984 . S
H1624 N1612 0.984 . S
H1625 N1612 0.985 . S
C1626 C1627 1.363 . S
C1626 C1632 1.379 . S
C1626 N1634 1.356 . S
C1627 C1626 1.363 . S
C1627 C1633 1.363 . S
C1628 C1629 1.363 . S
C1628 C1633 1.379 . S
C1628 N1635 1.356 . S
C1629 C1628 1.363 . S
C1629 C1632 1.363 . S
N1630 C1632 1.356 . S
N1630 H1642 0.984 . S
N1630 H1643 0.985 . S
N1631 C1633 1.356 . S
N1631 H1636 0.984 . S
N1631 H1637 0.985 . S
C1632 C1626 1.379 . S
C1632 C1629 1.363 . S
C1632 N1630 1.356 . S
C1633 C1627 1.363 . S
C1633 C1628 1.379 . S
C1633 N1631 1.356 . S
N1634 C1626 1.356 . S
N1634 H1640 0.984 . S
N1634 H1641 0.984 . S
N1635 C1628 1.356 . S
N1635 H1638 0.984 . S
N1635 H1639 0.985 . S
H1636 N1631 0.984 . S
H1637 N1631 0.985 . S
H1638 N1635 0.984 . S
H1639 N1635 0.985 . S
H1640 N1634 0.984 . S
H1641 N1634 0.984 . S
H1642 N1630 0.984 . S
H1643 N1630 0.985 . S
C1644 C1645 1.363 . S
C1644 C1650 1.379 . S
C1644 N1652 1.356 . S
C1645 C1644 1.363 . S
C1645 C1651 1.363 . S
C1646 C1647 1.363 . S
C1646 C1651 1.379 . S
C1646 N1653 1.356 . S
C1647 C1646 1.363 . S
C1647 C1650 1.363 . S
N1648 C1650 1.356 . S
N1648 H1660 0.984 . S
N1648 H1661 0.985 . S
N1649 C1651 1.356 . S
N1649 H1654 0.984 . S
N1649 H1655 0.985 . S
C1650 C1644 1.379 . S
C1650 C1647 1.363 . S
C1650 N1648 1.356 . S
C1651 C1645 1.363 . S
C1651 C1646 1.379 . S
C1651 N1649 1.356 . S
N1652 C1644 1.356 . S
N1652 H1658 0.984 . S
N1652 H1659 0.984 . S
N1653 C1646 1.356 . S
N1653 H1656 0.984 . S
N1653 H1657 0.985 . S
H1654 N1649 0.984 . S
H1655 N1649 0.985 . S
H1656 N1653 0.984 . S
H1657 N1653 0.985 . S
H1658 N1652 0.984 . S
H1659 N1652 0.984 . S
H1660 N1648 0.984 . S
H1661 N1648 0.985 . S
C1662 C1663 1.363 . S
C1662 C1668 1.379 . S
C1662 N1670 1.356 . S
C1663 C1662 1.363 . S
C1663 C1669 1.363 . S
C1664 C1665 1.363 . S
C1664 C1669 1.379 . S
C1664 N1671 1.356 . S
C1665 C1664 1.363 . S
C1665 C1668 1.363 . S
N1666 C1668 1.356 . S
N1666 H1678 0.984 . S
N1666 H1679 0.985 . S
N1667 C1669 1.356 . S
N1667 H1672 0.984 . S
N1667 H1673 0.985 . S
C1668 C1662 1.379 . S
C1668 C1665 1.363 . S
C1668 N1666 1.356 . S
C1669 C1663 1.363 . S
C1669 C1664 1.379 . S
C1669 N1667 1.356 . S
N1670 C1662 1.356 . S
N1670 H1676 0.984 . S
N1670 H1677 0.984 . S
N1671 C1664 1.356 . S
N1671 H1674 0.984 . S
N1671 H1675 0.985 . S
H1672 N1667 0.984 . S
H1673 N1667 0.985 . S
H1674 N1671 0.984 . S
H1675 N1671 0.985 . S
H1676 N1670 0.984 . S
H1677 N1670 0.984 . S
H1678 N1666 0.984 . S
H1679 N1666 0.985 . S
C1680 C1681 1.363 . S
C1680 C1686 1.379 . S
C1680 N1688 1.356 . S
C1681 C1680 1.363 . S
C1681 C1687 1.363 . S
C1682 C1683 1.363 . S
C1682 C1687 1.379 . S
C1682 N1689 1.356 . S
C1683 C1682 1.363 . S
C1683 C1686 1.363 . S
N1684 C1686 1.356 . S
N1684 H1696 0.984 . S
N1684 H1697 0.985 . S
N1685 C1687 1.356 . S
N1685 H1690 0.984 . S
N1685 H1691 0.985 . S
C1686 C1680 1.379 . S
C1686 C1683 1.363 . S
C1686 N1684 1.356 . S
C1687 C1681 1.363 . S
C1687 C1682 1.379 . S
C1687 N1685 1.356 . S
N1688 C1680 1.356 . S
N1688 H1694 0.984 . S
N1688 H1695 0.984 . S
N1689 C1682 1.356 . S
N1689 H1692 0.984 . S
N1689 H1693 0.985 . S
H1690 N1685 0.984 . S
H1691 N1685 0.985 . S
H1692 N1689 0.984 . S
H1693 N1689 0.985 . S
H1694 N1688 0.984 . S
H1695 N1688 0.984 . S
H1696 N1684 0.984 . S
H1697 N1684 0.985 . S
C1698 C1699 1.363 . S
C1698 C1704 1.379 . S
C1698 N1706 1.356 . S
C1699 C1698 1.363 . S
C1699 C1705 1.363 . S
C1700 C1701 1.363 . S
C1700 C1705 1.379 . S
C1700 N1707 1.356 . S
C1701 C1700 1.363 . S
C1701 C1704 1.363 . S
N1702 C1704 1.356 . S
N1702 H1714 0.984 . S
N1702 H1715 0.985 . S
N1703 C1705 1.356 . S
N1703 H1708 0.984 . S
N1703 H1709 0.985 . S
C1704 C1698 1.379 . S
C1704 C1701 1.363 . S
C1704 N1702 1.356 . S
C1705 C1699 1.363 . S
C1705 C1700 1.379 . S
C1705 N1703 1.356 . S
N1706 C1698 1.356 . S
N1706 H1712 0.984 . S
N1706 H1713 0.984 . S
N1707 C1700 1.356 . S
N1707 H1710 0.984 . S
N1707 H1711 0.985 . S
H1708 N1703 0.984 . S
H1709 N1703 0.985 . S
H1710 N1707 0.984 . S
H1711 N1707 0.985 . S
H1712 N1706 0.984 . S
H1713 N1706 0.984 . S
H1714 N1702 0.984 . S
H1715 N1702 0.985 . S
C1716 C1717 1.363 . S
C1716 C1722 1.379 . S
C1716 N1724 1.356 . S
C1717 C1716 1.363 . S
C1717 C1723 1.363 . S
C1718 C1719 1.363 . S
C1718 C1723 1.379 . S
C1718 N1725 1.356 . S
C1719 C1718 1.363 . S
C1719 C1722 1.363 . S
N1720 C1722 1.356 . S
N1720 H1732 0.984 . S
N1720 H1733 0.985 . S
N1721 C1723 1.356 . S
N1721 H1726 0.984 . S
N1721 H1727 0.985 . S
C1722 C1716 1.379 . S
C1722 C1719 1.363 . S
C1722 N1720 1.356 . S
C1723 C1717 1.363 . S
C1723 C1718 1.379 . S
C1723 N1721 1.356 . S
N1724 C1716 1.356 . S
N1724 H1730 0.984 . S
N1724 H1731 0.984 . S
N1725 C1718 1.356 . S
N1725 H1728 0.984 . S
N1725 H1729 0.985 . S
H1726 N1721 0.984 . S
H1727 N1721 0.985 . S
H1728 N1725 0.984 . S
H1729 N1725 0.985 . S
H1730 N1724 0.984 . S
H1731 N1724 0.984 . S
H1732 N1720 0.984 . S
H1733 N1720 0.985 . S
C1734 C1735 1.363 . S
C1734 C1740 1.379 . S
C1734 N1742 1.356 . S
C1735 C1734 1.363 . S
C1735 C1741 1.363 . S
C1736 C1737 1.363 . S
C1736 C1741 1.379 . S
C1736 N1743 1.356 . S
C1737 C1736 1.363 . S
C1737 C1740 1.363 . S
N1738 C1740 1.356 . S
N1738 H1750 0.984 . S
N1738 H1751 0.985 . S
N1739 C1741 1.356 . S
N1739 H1744 0.984 . S
N1739 H1745 0.985 . S
C1740 C1734 1.379 . S
C1740 C1737 1.363 . S
C1740 N1738 1.356 . S
C1741 C1735 1.363 . S
C1741 C1736 1.379 . S
C1741 N1739 1.356 . S
N1742 C1734 1.356 . S
N1742 H1748 0.984 . S
N1742 H1749 0.984 . S
N1743 C1736 1.356 . S
N1743 H1746 0.984 . S
N1743 H1747 0.985 . S
H1744 N1739 0.984 . S
H1745 N1739 0.985 . S
H1746 N1743 0.984 . S
H1747 N1743 0.985 . S
H1748 N1742 0.984 . S
H1749 N1742 0.984 . S
H1750 N1738 0.984 . S
H1751 N1738 0.985 . S
C1752 C1753 1.363 . S
C1752 C1758 1.379 . S
C1752 N1760 1.356 . S
C1753 C1752 1.363 . S
C1753 C1759 1.363 . S
C1754 C1755 1.363 . S
C1754 C1759 1.379 . S
C1754 N1761 1.356 . S
C1755 C1754 1.363 . S
C1755 C1758 1.363 . S
N1756 C1758 1.356 . S
N1756 H1768 0.984 . S
N1756 H1769 0.985 . S
N1757 C1759 1.356 . S
N1757 H1762 0.984 . S
N1757 H1763 0.985 . S
C1758 C1752 1.379 . S
C1758 C1755 1.363 . S
C1758 N1756 1.356 . S
C1759 C1753 1.363 . S
C1759 C1754 1.379 . S
C1759 N1757 1.356 . S
N1760 C1752 1.356 . S
N1760 H1766 0.984 . S
N1760 H1767 0.984 . S
N1761 C1754 1.356 . S
N1761 H1764 0.984 . S
N1761 H1765 0.985 . S
H1762 N1757 0.984 . S
H1763 N1757 0.985 . S
H1764 N1761 0.984 . S
H1765 N1761 0.985 . S
H1766 N1760 0.984 . S
H1767 N1760 0.984 . S
H1768 N1756 0.984 . S
H1769 N1756 0.985 . S
C1770 C1771 1.363 . S
C1770 C1776 1.379 . S
C1770 N1778 1.356 . S
C1771 C1770 1.363 . S
C1771 C1777 1.363 . S
C1772 C1773 1.363 . S
C1772 C1777 1.379 . S
C1772 N1779 1.356 . S
C1773 C1772 1.363 . S
C1773 C1776 1.363 . S
N1774 C1776 1.356 . S
N1774 H1786 0.984 . S
N1774 H1787 0.985 . S
N1775 C1777 1.356 . S
N1775 H1780 0.984 . S
N1775 H1781 0.985 . S
C1776 C1770 1.379 . S
C1776 C1773 1.363 . S
C1776 N1774 1.356 . S
C1777 C1771 1.363 . S
C1777 C1772 1.379 . S
C1777 N1775 1.356 . S
N1778 C1770 1.356 . S
N1778 H1784 0.984 . S
N1778 H1785 0.984 . S
N1779 C1772 1.356 . S
N1779 H1782 0.984 . S
N1779 H1783 0.985 . S
H1780 N1775 0.984 . S
H1781 N1775 0.985 . S
H1782 N1779 0.984 . S
H1783 N1779 0.985 . S
H1784 N1778 0.984 . S
H1785 N1778 0.984 . S
H1786 N1774 0.984 . S
H1787 N1774 0.985 . S
C1788 C1789 1.363 . S
C1788 C1794 1.379 . S
C1788 N1796 1.356 . S
C1789 C1788 1.363 . S
C1789 C1795 1.363 . S
C1790 C1791 1.363 . S
C1790 C1795 1.379 . S
C1790 N1797 1.356 . S
C1791 C1790 1.363 . S
C1791 C1794 1.363 . S
N1792 C1794 1.356 . S
N1792 H1804 0.984 . S
N1792 H1805 0.985 . S
N1793 C1795 1.356 . S
N1793 H1798 0.984 . S
N1793 H1799 0.985 . S
C1794 C1788 1.379 . S
C1794 C1791 1.363 . S
C1794 N1792 1.356 . S
C1795 C1789 1.363 . S
C1795 C1790 1.379 . S
C1795 N1793 1.356 . S
N1796 C1788 1.356 . S
N1796 H1802 0.984 . S
N1796 H1803 0.984 . S
N1797 C1790 1.356 . S
N1797 H1800 0.984 . S
N1797 H1801 0.985 . S
H1798 N1793 0.984 . S
H1799 N1793 0.985 . S
H1800 N1797 0.984 . S
H1801 N1797 0.985 . S
H1802 N1796 0.984 . S
H1803 N1796 0.984 . S
H1804 N1792 0.984 . S
H1805 N1792 0.985 . S
C1806 C1807 1.363 . S
C1806 C1812 1.379 . S
C1806 N1814 1.356 . S
C1807 C1806 1.363 . S
C1807 C1813 1.363 . S
C1808 C1809 1.363 . S
C1808 C1813 1.379 . S
C1808 N1815 1.356 . S
C1809 C1808 1.363 . S
C1809 C1812 1.363 . S
N1810 C1812 1.356 . S
N1810 H1822 0.984 . S
N1810 H1823 0.985 . S
N1811 C1813 1.356 . S
N1811 H1816 0.984 . S
N1811 H1817 0.985 . S
C1812 C1806 1.379 . S
C1812 C1809 1.363 . S
C1812 N1810 1.356 . S
C1813 C1807 1.363 . S
C1813 C1808 1.379 . S
C1813 N1811 1.356 . S
N1814 C1806 1.356 . S
N1814 H1820 0.984 . S
N1814 H1821 0.984 . S
N1815 C1808 1.356 . S
N1815 H1818 0.984 . S
N1815 H1819 0.985 . S
H1816 N1811 0.984 . S
H1817 N1811 0.985 . S
H1818 N1815 0.984 . S
H1819 N1815 0.985 . S
H1820 N1814 0.984 . S
H1821 N1814 0.984 . S
H1822 N1810 0.984 . S
H1823 N1810 0.985 . S
C1824 C1825 1.363 . S
C1824 C1830 1.379 . S
C1824 N1832 1.356 . S
C1825 C1824 1.363 . S
C1825 C1831 1.363 . S
C1826 C1827 1.363 . S
C1826 C1831 1.379 . S
C1826 N1833 1.356 . S
C1827 C1826 1.363 . S
C1827 C1830 1.363 . S
N1828 C1830 1.356 . S
N1828 H1840 0.984 . S
N1828 H1841 0.985 . S
N1829 C1831 1.356 . S
N1829 H1834 0.984 . S
N1829 H1835 0.985 . S
C1830 C1824 1.379 . S
C1830 C1827 1.363 . S
C1830 N1828 1.356 . S
C1831 C1825 1.363 . S
C1831 C1826 1.379 . S
C1831 N1829 1.356 . S
N1832 C1824 1.356 . S
N1832 H1838 0.984 . S
N1832 H1839 0.984 . S
N1833 C1826 1.356 . S
N1833 H1836 0.984 . S
N1833 H1837 0.985 . S
H1834 N1829 0.984 . S
H1835 N1829 0.985 . S
H1836 N1833 0.984 . S
H1837 N1833 0.985 . S
H1838 N1832 0.984 . S
H1839 N1832 0.984 . S
H1840 N1828 0.984 . S
H1841 N1828 0.985 . S
C1842 C1843 1.363 . S
C1842 C1848 1.379 . S
C1842 N1850 1.356 . S
C1843 C1842 1.363 . S
C1843 C1849 1.363 . S
C1844 C1845 1.363 . S
C1844 C1849 1.379 . S
C1844 N1851 1.356 . S
C1845 C1844 1.363 . S
C1845 C1848 1.363 . S
N1846 C1848 1.356 . S
N1846 H1858 0.984 . S
N1846 H1859 0.985 . S
N1847 C1849 1.356 . S
N1847 H1852 0.984 . S
N1847 H1853 0.985 . S
C1848 C1842 1.379 . S
C1848 C1845 1.363 . S
C1848 N1846 1.356 . S
C1849 C1843 1.363 . S
C1849 C1844 1.379 . S
C1849 N1847 1.356 . S
N1850 C1842 1.356 . S
N1850 H1856 0.984 . S
N1850 H1857 0.984 . S
N1851 C1844 1.356 . S
N1851 H1854 0.984 . S
N1851 H1855 0.985 . S
H1852 N1847 0.984 . S
H1853 N1847 0.985 . S
H1854 N1851 0.984 . S
H1855 N1851 0.985 . S
H1856 N1850 0.984 . S
H1857 N1850 0.984 . S
H1858 N1846 0.984 . S
H1859 N1846 0.985 . S
C567 C270 1.410 . S
C565 C258 1.410 . S
C583 C236 1.629 . S
C585 C268 1.629 . S
C603 C269 1.629 . S
C601 C225 1.629 . S
C619 C247 1.410 . S
C621 C271 1.410 . S
C639 C315 1.528 . S
C637 C181 1.531 . S
C657 C375 1.462 . S
C655 C192 1.460 . S
C673 C203 1.525 . S
C675 C314 1.523 . S
C693 C374 1.693 . S
C691 C214 1.697 . S
C709 C137 1.592 . S
C711 C316 1.591 . S
C729 C372 1.610 . S
C727 C148 1.609 . S
C745 C159 1.608 . S
C747 C317 1.604 . S
C763 C170 1.391 . S
C765 C373 1.390 . S
C783 C423 1.410 . S
C781 C126 1.410 . S
C799 C104 1.629 . S
C801 C422 1.629 . S
C817 C93 1.629 . S
C819 C424 1.629 . S
C837 C425 1.410 . S
C835 C115 1.410 . S
C853 C49 1.531 . S
C855 C466 1.528 . S
C871 C60 1.460 . S
C873 C525 1.462 . S
C889 C71 1.525 . S
C891 C464 1.523 . S
C907 C82 1.696 1_545 S
C909 C524 1.693 . S
C927 C465 1.591 . S
C925 C5 1.592 . S
C945 C522 1.609 . S
C943 C16 1.609 1_545 S
C961 C27 1.608 . S
C963 C467 1.604 . S
C981 C523 1.390 . S
C979 C38 1.391 1_545 S
C999 C267 1.635 . S
C997 C4 1.587 . S
C1015 C21 1.404 . S
C1017 C273 1.520 . S
C1033 C32 1.376 . S
C1035 C265 1.508 . S
C1051 C37 1.397 1_545 S
C1053 C272 1.461 . S
C1069 C48 1.574 . S
C1071 C264 1.622 . S
C1089 C274 1.500 . S
C1087 C59 1.436 . S
C1105 C76 1.366 . S
C1107 C266 1.499 . S
C1125 C275 1.714 . S
C1123 C81 1.678 1_545 S
C1143 C321 1.448 . S
C1141 C43 1.317 . S
C1159 C10 1.424 . S
C1161 C364 1.546 . S
C1179 C319 1.626 . S
C1177 C15 1.579 1_545 S
C1197 C366 1.695 . S
C1195 C26 1.658 . S
C1213 C65 1.357 1_545 S
C1215 C320 1.475 . S
C1233 C365 1.610 . S
C1231 C70 1.564 . S
C1251 C318 1.531 . S
C1249 C87 1.412 . S
C1269 C367 1.490 . S
C1267 C54 1.355 . S
C1287 C371 1.501 . S
C1285 C98 1.387 . S
C1303 C109 1.387 . S
C1305 C370 1.502 . S
C1323 C322 1.626 . S
C1321 C92 1.582 . S
C1341 C369 1.471 . S
C1339 C114 1.408 . S
C1357 C131 1.289 . S
C1359 C325 1.415 . S
C1375 C125 1.409 . S
C1377 C368 1.471 . S
C1395 C324 1.627 . S
C1393 C103 1.582 . S
C1413 C323 1.415 . S
C1411 C120 1.289 . S
C1431 C417 1.635 . S
C1429 C136 1.587 . S
C1449 C420 1.520 . S
C1447 C153 1.403 . S
C1465 C164 1.376 . S
C1467 C416 1.508 . S
C1485 C418 1.461 . S
C1483 C169 1.398 . S
C1503 C414 1.622 . S
C1501 C180 1.575 . S
C1519 C191 1.435 . S
C1521 C419 1.500 . S
C1537 C208 1.367 . S
C1539 C415 1.499 . S
C1557 C421 1.714 . S
C1555 C213 1.678 . S
C1575 C475 1.448 . S
C1573 C175 1.317 . S
C1591 C142 1.424 . S
C1593 C514 1.546 . S
C1611 C474 1.626 . S
C1609 C147 1.579 . S
C1629 C516 1.695 . S
C1627 C158 1.658 . S
C1647 C473 1.475 . S
C1645 C197 1.357 . S
C1663 C202 1.564 . S
C1665 C515 1.610 . S
C1683 C472 1.531 . S
C1681 C219 1.412 . S
C1701 C517 1.490 . S
C1699 C186 1.355 . S
C1719 C521 1.501 . S
C1717 C230 1.387 . S
C1735 C241 1.387 . S
C1737 C520 1.502 . S
C1755 C468 1.626 . S
C1753 C224 1.582 . S
C1771 C246 1.408 . S
C1773 C519 1.471 . S
C1791 C471 1.415 . S
C1789 C263 1.289 . S
C1809 C518 1.471 . S
C1807 C257 1.409 . S
C1827 C469 1.627 . S
C1825 C235 1.582 . S
C1843 C252 1.289 . S
C1845 C470 1.415 . S
