# Generated by pormake.
# Topology anh, (6,3)-cn, num edge types: 1
# Building blocks:
#     Node 0, Type 0, BuildingBlock: BETGAK_clean_sbu_0, # of connection points: 6
#     Node 1, Type 0, BuildingBlock: BETGAK_clean_sbu_0, # of connection points: 6
#     Node 2, Type 0, BuildingBlock: BETGAK_clean_sbu_0, # of connection points: 6
#     Node 3, Type 1, BuildingBlock: MIDCAF_clean_linker_0, # of connection points: 3
#     Node 4, Type 1, BuildingBlock: MIDCAF_clean_linker_0, # of connection points: 3
#     Node 5, Type 1, BuildingBlock: MIDCAF_clean_linker_0, # of connection points: 3
#     Node 6, Type 1, BuildingBlock: MIDCAF_clean_linker_0, # of connection points: 3
#     Node 7, Type 1, BuildingBlock: MIDCAF_clean_linker_0, # of connection points: 3
#     Node 8, Type 1, BuildingBlock: MIDCAF_clean_linker_0, # of connection points: 3
#     Edge 9, Type (0, 1), BuildingBlock: UVAHIK_clean_linker_0, # of connection points: 2
#     Edge 10, Type (0, 1), BuildingBlock: UVAHIK_clean_linker_0, # of connection points: 2
#     Edge 11, Type (0, 1), BuildingBlock: UVAHIK_clean_linker_0, # of connection points: 2
#     Edge 12, Type (0, 1), BuildingBlock: UVAHIK_clean_linker_0, # of connection points: 2
#     Edge 13, Type (0, 1), BuildingBlock: UVAHIK_clean_linker_0, # of connection points: 2
#     Edge 14, Type (0, 1), BuildingBlock: UVAHIK_clean_linker_0, # of connection points: 2
#     Edge 15, Type (0, 1), BuildingBlock: UVAHIK_clean_linker_0, # of connection points: 2
#     Edge 16, Type (0, 1), BuildingBlock: UVAHIK_clean_linker_0, # of connection points: 2
#     Edge 17, Type (0, 1), BuildingBlock: UVAHIK_clean_linker_0, # of connection points: 2
#     Edge 18, Type (0, 1), BuildingBlock: UVAHIK_clean_linker_0, # of connection points: 2
#     Edge 19, Type (0, 1), BuildingBlock: UVAHIK_clean_linker_0, # of connection points: 2
#     Edge 20, Type (0, 1), BuildingBlock: UVAHIK_clean_linker_0, # of connection points: 2
#     Edge 21, Type (0, 1), BuildingBlock: UVAHIK_clean_linker_0, # of connection points: 2
#     Edge 22, Type (0, 1), BuildingBlock: UVAHIK_clean_linker_0, # of connection points: 2
#     Edge 23, Type (0, 1), BuildingBlock: UVAHIK_clean_linker_0, # of connection points: 2
#     Edge 24, Type (0, 1), BuildingBlock: UVAHIK_clean_linker_0, # of connection points: 2
#     Edge 25, Type (0, 1), BuildingBlock: UVAHIK_clean_linker_0, # of connection points: 2
#     Edge 26, Type (0, 1), BuildingBlock: UVAHIK_clean_linker_0, # of connection points: 2
# Relax obj value: 0.166
# Max RMSD: 0.197
# Mean RMSD: 0.150
data_MOF--net-anh--node1-BETGAK_clean_sbu_0--node2-MIDCAF_clean_linker_0--edge1-UVAHIK_clean_linker_0
_symmetry_space_group_name_H-M    P1
_symmetry_Int_Tables_number       1
_symmetry_cell_setting            triclinic
loop_
_symmetry_equiv_pos_as_xyz
'x, y, z'
_cell_length_a     45.235129
_cell_length_b     52.307142
_cell_length_c     81.94296
_cell_angle_alpha  92.399474
_cell_angle_beta   89.467254
_cell_angle_gamma 127.03299
loop_
_atom_site_label
_atom_site_type_symbol
_atom_site_fract_x
_atom_site_fract_y
_atom_site_fract_z
_atom_type_partial_charge
La0 La 0.08419 0.51109 0.14921 0.0
La1 La 1.04331 0.53565 0.16251 0.0
C2 C 0.12781 0.50541 0.13338 0.0
C3 C 0.16756 0.52217 0.13625 0.0
C4 C 0.18331 0.53666 0.15171 0.0
C5 C 0.22062 0.55119 0.15492 0.0
C6 C 0.24291 0.55194 0.14264 0.0
C7 C 0.22752 0.53873 0.12694 0.0
C8 C 0.18994 0.52378 0.12378 0.0
C9 C 0.07781 0.51004 0.18112 0.0
C10 C 0.12725 0.58696 0.1579 0.0
C11 C 1.0004 0.54062 0.17951 0.0
C12 C 0.96114 0.51657 0.18348 0.0
C13 C 0.93436 0.49807 0.17103 0.0
C14 C 0.89778 0.47384 0.17488 0.0
C15 C 0.8871 0.46725 0.19125 0.0
C16 C 0.91395 0.4858 0.20372 0.0
C17 C 0.95063 0.51026 0.19984 0.0
C18 C 0.05101 0.53714 0.13063 0.0
C19 C 1.00029 0.46044 0.15383 0.0
O20 O 0.10656 0.48623 0.14484 0.0
O21 O 0.11847 0.52345 0.12892 0.0
O22 O 0.07904 0.48954 0.1724 0.0
O23 O 0.08356 0.53149 0.17218 0.0
O24 O 0.12699 0.56375 0.15047 0.0
O25 O 0.09778 0.58095 0.16537 0.0
O26 O 1.00763 0.54866 0.16426 0.0
O27 O 1.02326 0.53592 0.18568 0.0
O28 O 0.05094 0.55838 0.13935 0.0
O29 O 1.04421 0.5153 0.13956 0.0
O30 O 1.00222 0.4832 0.16269 0.0
O31 O 1.02841 0.46712 0.14485 0.0
H32 H 0.16651 0.5361 0.16141 0.0
H33 H 0.23197 0.56139 0.16706 0.0
H34 H 0.24419 0.53885 0.11732 0.0
H35 H 0.17824 0.51298 0.11176 0.0
H36 H 0.94162 0.50204 0.15828 0.0
H37 H 0.87776 0.46056 0.16496 0.0
H38 H 0.90671 0.48124 0.21644 0.0
H39 H 0.97095 0.52397 0.20964 0.0
La40 La 0.59079 0.01432 0.49042 0.0
La41 La 0.53892 0.03033 0.48253 0.0
C42 C 0.62202 0.9933 0.50358 0.0
C43 C 0.61498 0.96245 0.5063 0.0
C44 C 0.59277 0.93571 0.49547 0.0
C45 C 0.58879 0.90739 0.49779 0.0
C46 C 0.60694 0.90538 0.51099 0.0
C47 C 0.62811 0.93197 0.52206 0.0
C48 C 0.63214 0.9602 0.5197 0.0
C49 C 0.58619 0.02254 0.4594 0.0
C50 C 0.50435 0.95813 0.48338 0.0
C51 C 0.50915 0.05383 0.47089 0.0
C52 C 0.51346 0.08394 0.47407 0.0
C53 C 0.51487 0.09529 0.49012 0.0
C54 C 0.51805 0.12339 0.49296 0.0
C55 C 0.52033 0.14096 0.47985 0.0
C56 C 0.51979 0.12998 0.4638 0.0
C57 C 0.51621 0.10163 0.46095 0.0
C58 C 0.54542 0.02386 0.51371 0.0
C59 C 0.6262 0.08667 0.48814 0.0
O60 O 0.62711 1.00208 0.48847 0.0
O61 O 0.60124 0.9991 0.51152 0.0
O62 O 0.61594 0.02973 0.46651 0.0
O63 O 0.5598 0.00886 0.4692 0.0
O64 O 0.53582 0.9672 0.49041 0.0
O65 O 0.50129 0.97911 0.47676 0.0
O66 O 0.49499 0.0336 0.48263 0.0
O67 O 0.53726 0.05655 0.4642 0.0
O68 O 0.5154 0.0166 0.50695 0.0
O69 O 0.57077 0.03675 0.50348 0.0
O70 O 0.59364 0.07737 0.48239 0.0
O71 O 0.63064 0.06606 0.49414 0.0
H72 H 0.57913 0.93694 0.48506 0.0
H73 H 0.5724 0.88745 0.489 0.0
H74 H 0.64179 0.93106 0.53255 0.0
H75 H 0.64916 0.98051 0.52825 0.0
H76 H 0.51336 0.08241 0.5005 0.0
H77 H 0.51898 0.13151 0.50545 0.0
H78 H 0.52134 0.14295 0.45346 0.0
H79 H 0.51536 0.0934 0.44849 0.0
La80 La 0.60621 0.55105 0.84182 0.0
La81 La 0.55628 0.48067 0.84761 0.0
C82 C 0.635 0.60582 0.83115 0.0
C83 C 0.62467 0.62764 0.8294 0.0
C84 C 0.63686 0.65268 0.84111 0.0
C85 C 0.6287 0.67427 0.83922 0.0
C86 C 0.60842 0.67155 0.82548 0.0
C87 C 0.59603 0.64636 0.81381 0.0
C88 C 0.60411 0.6247 0.81572 0.0
C89 C 0.60161 0.53568 0.87232 0.0
C90 C 0.51866 0.51476 0.84714 0.0
C91 C 0.52838 0.42602 0.85821 0.0
C92 C 0.53689 0.40312 0.85574 0.0
C93 C 0.56087 0.40726 0.84336 0.0
C94 C 0.56809 0.38495 0.8407 0.0
C95 C 0.55156 0.3581 0.85041 0.0
C96 C 0.52801 0.35441 0.863 0.0
C97 C 0.52075 0.37675 0.86562 0.0
C98 C 0.56149 0.49529 0.81685 0.0
C99 C 0.64437 0.51741 0.84301 0.0
O100 O 0.64017 0.60097 0.84605 0.0
O101 O 0.61715 0.57938 0.8219 0.0
O102 O 0.6316 0.5598 0.86603 0.0
O103 O 0.57547 0.5226 0.862 0.0
O104 O 0.55019 0.53942 0.84108 0.0
O105 O 0.51632 0.49031 0.85293 0.0
O106 O 0.51589 0.43085 0.84529 0.0
O107 O 0.55361 0.45289 0.86621 0.0
O108 O 0.53206 0.47064 0.82311 0.0
O109 O 0.58738 0.50899 0.82734 0.0
O110 O 0.61205 0.492 0.84804 0.0
O111 O 0.64771 0.54271 0.83784 0.0
H112 H 0.65302 0.65579 0.85172 0.0
H113 H 0.6383 0.69311 0.84856 0.0
H114 H 0.58085 0.64383 0.80295 0.0
H115 H 0.59466 0.60594 0.80635 0.0
H116 H 0.57361 0.42753 0.83561 0.0
H117 H 0.58593 0.38838 0.83076 0.0
H118 H 0.51526 0.33432 0.87086 0.0
H119 H 0.50235 0.37332 0.8753 0.0
C120 C 0.44581 0.92062 0.19971 0.0
C121 C 0.44832 0.91225 0.18354 0.0
C122 C 0.48078 0.93384 0.1749 0.0
C123 C 0.51004 0.96331 0.18234 0.0
H124 H 0.61414 0.06262 0.17538 0.0
H125 H 0.66264 0.11285 0.16259 0.0
H126 H 0.68255 0.16522 0.20839 0.0
H127 H 0.63493 0.116 0.22102 0.0
H128 H 0.61626 0.08034 0.25338 0.0
H129 H 0.61672 0.08219 0.28312 0.0
H130 H 0.51815 0.98401 0.2824 0.0
H131 H 0.51717 0.98218 0.25268 0.0
H132 H 0.4718 0.95491 0.21969 0.0
H133 H 0.42145 0.90438 0.20679 0.0
H134 H 0.48343 0.92802 0.16239 0.0
H135 H 0.53479 0.97946 0.17547 0.0
N136 N 0.56511 0.02775 0.19907 0.0
N137 N 0.59232 0.056 0.22418 0.0
N138 N 0.53943 0.00285 0.22388 0.0
C139 C 0.59211 0.05532 0.20758 0.0
C140 C 0.56626 0.02992 0.23243 0.0
C141 C 0.53848 1.00139 0.20728 0.0
C142 C 0.62058 0.08516 0.19924 0.0
C143 C 0.62881 0.08492 0.18265 0.0
C144 C 0.65664 0.11361 0.17535 0.0
C145 C 0.67618 0.14302 0.18446 0.0
C146 C 0.66766 0.14309 0.20096 0.0
C147 C 0.64043 0.11466 0.20824 0.0
C148 C 0.56669 0.0311 0.25057 0.0
C149 C 0.59462 0.05912 0.25952 0.0
C150 C 0.59501 0.06016 0.2766 0.0
C151 C 0.56748 0.03325 0.28513 0.0
C152 C 0.53949 0.00529 0.2762 0.0
C153 C 0.53911 0.00421 0.25913 0.0
C154 C 0.50753 0.97132 0.19864 0.0
C155 C 0.47495 0.9496 0.20716 0.0
C156 C 0.55056 0.42021 0.55305 0.0
C157 C 0.55383 0.42069 0.53599 0.0
C158 C 0.56341 0.44804 0.52808 0.0
C159 C 0.56947 0.47429 0.53708 0.0
H160 H 0.56387 0.5551 0.5356 0.0
H161 H 0.56833 0.60001 0.52436 0.0
H162 H 0.62194 0.65633 0.56908 0.0
H163 H 0.6177 0.61198 0.58024 0.0
H164 H 0.60771 0.57685 0.61253 0.0
H165 H 0.60843 0.5755 0.64227 0.0
H166 H 0.56394 0.47567 0.63827 0.0
H167 H 0.56301 0.47678 0.60862 0.0
H168 H 0.5541 0.44492 0.57515 0.0
H169 H 0.54382 0.39978 0.55957 0.0
H170 H 0.56594 0.44906 0.51492 0.0
H171 H 0.5769 0.49502 0.53065 0.0
N172 N 0.57859 0.52694 0.55694 0.0
N173 N 0.58837 0.55229 0.58281 0.0
N174 N 0.57625 0.50207 0.58063 0.0
C175 C 0.58588 0.55238 0.5663 0.0
C176 C 0.58349 0.52722 0.59008 0.0
C177 C 0.5739 0.50168 0.56409 0.0
C178 C 0.59033 0.57987 0.55884 0.0
C179 C 0.57691 0.57718 0.54295 0.0
C180 C 0.57923 0.60279 0.53656 0.0
C181 C 0.59554 0.6317 0.54583 0.0
C182 C 0.60961 0.63452 0.56155 0.0
C183 C 0.60692 0.60894 0.56799 0.0
C184 C 0.58516 0.52689 0.60814 0.0
C185 C 0.59814 0.5546 0.61797 0.0
C186 C 0.59877 0.55393 0.63501 0.0
C187 C 0.5861 0.52545 0.64258 0.0
C188 C 0.57348 0.49786 0.63277 0.0
C189 C 0.57316 0.49859 0.61576 0.0
C190 C 0.56641 0.47379 0.55419 0.0
C191 C 0.55677 0.44634 0.56201 0.0
C192 C 1.00186 0.55423 0.86944 0.0
C193 C 0.97388 0.52969 0.85881 0.0
C194 C 0.97879 0.5073 0.85188 0.0
C195 C 1.00943 0.50814 0.85648 0.0
H196 H 0.15188 0.54551 0.85103 0.0
H197 H 0.20467 0.54506 0.84386 0.0
H198 H 0.17806 0.48286 0.8834 0.0
H199 H 0.12645 0.4836 0.89053 0.0
H200 H 0.12447 0.52099 0.9249 0.0
H201 H 0.12155 0.52276 0.9546 0.0
H202 H 1.03718 0.53699 0.95122 0.0
H203 H 1.03955 0.53475 0.92157 0.0
H204 H 0.05185 0.57325 0.88298 0.0
H205 H 0.99979 0.57241 0.87473 0.0
H206 H 0.95788 0.48802 0.84365 0.0
H207 H 1.01104 0.4893 0.85188 0.0
N208 N 0.0853 0.52297 0.86923 0.0
N209 N 0.10644 0.52119 0.89507 0.0
N210 N 0.06147 0.52954 0.89344 0.0
C211 C 0.10793 0.51967 0.8785 0.0
C212 C 0.08346 0.52614 0.90265 0.0
C213 C 0.0618 0.52789 0.87687 0.0
C214 C 0.13499 0.51482 0.87145 0.0
C215 C 0.15689 0.53118 0.85791 0.0
C216 C 0.18729 0.53103 0.85387 0.0
C217 C 0.19639 0.51456 0.86331 0.0
C218 C 0.17285 0.49663 0.87613 0.0
C219 C 0.14287 0.49684 0.88014 0.0
C220 C 0.08219 0.52766 0.92077 0.0
C221 C 0.10527 0.52451 0.93046 0.0
C222 C 0.10377 0.5257 0.94751 0.0
C223 C 0.0791 0.52997 0.95529 0.0
C224 C 0.05614 0.53323 0.94562 0.0
C225 C 0.05768 0.53212 0.92858 0.0
C226 C 1.0358 0.53144 0.86805 0.0
C227 C 1.03211 0.55498 0.87402 0.0
C228 C 0.19243 0.61435 0.44374 0.0
C229 C 0.18846 0.62811 0.45785 0.0
C230 C 0.15354 0.61173 0.46514 0.0
C231 C 0.12301 0.58246 0.45819 0.0
H232 H 1.03024 0.47248 0.46554 0.0
H233 H 0.97709 0.42429 0.47789 0.0
H234 H 0.91251 0.40058 0.43369 0.0
H235 H 0.96489 0.44823 0.42148 0.0
H236 H 1.0111 0.46729 0.3883 0.0
H237 H 1.01059 0.4664 0.35855 0.0
H238 H 0.11595 0.56043 0.35976 0.0
H239 H 0.11644 0.56166 0.38949 0.0
H240 H 0.1657 0.5762 0.42543 0.0
H241 H 0.21889 0.62653 0.43777 0.0
H242 H 0.14978 0.6218 0.47606 0.0
H243 H 0.0962 0.57072 0.46378 0.0
N244 N 0.06433 0.51698 0.44282 0.0
N245 N 1.03468 0.49115 0.41761 0.0
N246 N 0.09373 0.54018 0.41817 0.0
C247 C 1.03447 0.49164 0.43421 0.0
C248 C 0.06411 0.51527 0.40948 0.0
C249 C 0.09413 0.54134 0.43476 0.0
C250 C 1.00193 0.46419 0.4425 0.0
C251 C 1.00452 0.45715 0.45857 0.0
C252 C 0.9742 0.42947 0.4656 0.0
C253 C 0.94056 0.40863 0.45678 0.0
C254 C 0.93781 0.41627 0.44091 0.0
C255 C 0.96805 0.44356 0.43386 0.0
C256 C 0.06382 0.51455 0.39136 0.0
C257 C 1.03419 0.48783 0.38226 0.0
C258 C 1.03395 0.48722 0.36519 0.0
C259 C 0.06321 0.51335 0.35681 0.0
C260 C 0.09277 0.54008 0.36587 0.0
C261 C 0.09312 0.54066 0.38294 0.0
C262 C 0.12677 0.56957 0.44362 0.0
C263 C 0.16191 0.5856 0.43663 0.0
C264 C 0.60259 0.12036 0.77761 0.0
C265 C 0.58995 0.11593 0.79371 0.0
C266 C 0.57658 0.087 0.80097 0.0
C267 C 0.57546 0.06282 0.79222 0.0
H268 H 0.58938 0.98731 0.79595 0.0
H269 H 0.5864 0.94369 0.80784 0.0
H270 H 0.54737 0.89029 0.76149 0.0
H271 H 0.55006 0.93343 0.74964 0.0
H272 H 0.55158 0.96671 0.71794 0.0
H273 H 0.54992 0.96754 0.68832 0.0
H274 H 0.60635 0.06994 0.69189 0.0
H275 H 0.60649 0.06879 0.72153 0.0
H276 H 0.61048 0.10025 0.75634 0.0
H277 H 0.61269 0.14225 0.77162 0.0
H278 H 0.56687 0.08302 0.8134 0.0
H279 H 0.56453 0.04063 0.79807 0.0
N280 N 0.57866 0.01551 0.77334 0.0
N281 N 0.57419 0.99197 0.74755 0.0
N282 N 0.58383 0.04126 0.74952 0.0
C283 C 0.57416 0.99109 0.7641 0.0
C284 C 0.57911 0.01698 0.74017 0.0
C285 C 0.58343 0.04067 0.76609 0.0
C286 C 0.57013 0.96399 0.77181 0.0
C287 C 0.57981 0.96613 0.78834 0.0
C288 C 0.57832 0.94124 0.79514 0.0
C289 C 0.56666 0.91357 0.7856 0.0
C290 C 0.55607 0.91112 0.76921 0.0
C291 C 0.5579 0.93603 0.76239 0.0
C292 C 0.57905 0.01766 0.72212 0.0
C293 C 0.56369 0.98942 0.7124 0.0
C294 C 0.56294 0.98994 0.69537 0.0
C295 C 0.578 0.01881 0.68762 0.0
C296 C 0.59382 0.04713 0.69739 0.0
C297 C 0.5941 0.04653 0.71441 0.0
C298 C 0.58716 0.06695 0.77594 0.0
C299 C 0.60106 0.09614 0.76882 0.0
C300 C 0.56754 0.36162 0.12784 0.0
C301 C 0.55336 0.35337 0.14371 0.0
C302 C 0.52529 0.35613 0.14828 0.0
C303 C 0.51433 0.36963 0.13788 0.0
H304 H 0.50695 0.44595 0.14528 0.0
H305 H 0.49917 0.48403 0.15887 0.0
H306 H 0.50125 0.52004 0.11204 0.0
H307 H 0.50951 0.48283 0.09857 0.0
H308 H 0.49905 0.44219 0.06685 0.0
H309 H 0.51255 0.45225 0.03815 0.0
H310 H 0.5739 0.41337 0.03916 0.0
H311 H 0.55972 0.40263 0.06814 0.0
H312 H 0.56894 0.38222 0.10554 0.0
H313 H 0.58949 0.3603 0.12385 0.0
H314 H 0.51293 0.34922 0.16019 0.0
H315 H 0.49409 0.37302 0.14209 0.0
N316 N 0.51699 0.41855 0.12075 0.0
N317 N 0.51692 0.43867 0.09584 0.0
N318 N 0.52792 0.4003 0.09635 0.0
C319 C 0.51368 0.43847 0.11229 0.0
C320 C 0.52382 0.4197 0.08775 0.0
C321 C 0.52393 0.39931 0.11287 0.0
C322 C 0.5087 0.46116 0.12081 0.0
C323 C 0.50591 0.46211 0.13791 0.0
C324 C 0.50153 0.48395 0.14571 0.0
C325 C 0.50006 0.50532 0.13656 0.0
C326 C 0.5032 0.50449 0.11951 0.0
C327 C 0.50746 0.48275 0.11175 0.0
C328 C 0.52877 0.42203 0.06986 0.0
C329 C 0.51525 0.43555 0.06099 0.0
C330 C 0.52313 0.44147 0.04453 0.0
C331 C 0.54496 0.43425 0.03647 0.0
C332 C 0.55701 0.41922 0.04506 0.0
C333 C 0.54893 0.4131 0.06164 0.0
C334 C 0.53051 0.37992 0.12253 0.0
C335 C 0.55596 0.37448 0.11731 0.0
C336 C 0.3107 0.58564 0.13676 0.0
C337 C 0.28109 0.56372 0.1466 0.0
C338 C 0.34592 0.59377 0.13958 0.0
C339 C 0.3999 0.58005 0.16788 0.0
H340 H 0.44288 0.57763 0.12728 0.0
C341 C 0.46372 0.51466 0.15576 0.0
C342 C 0.49203 0.52663 0.14431 0.0
C343 C 0.44993 0.53172 0.16008 0.0
C344 C 0.43195 0.57917 0.13879 0.0
H345 H 0.26497 0.53395 0.16737 0.0
H346 H 0.32549 0.54666 0.17182 0.0
H347 H 0.39488 0.58473 0.12669 0.0
H348 H 0.53134 0.56766 0.13006 0.0
H349 H 0.5066 0.59709 0.13732 0.0
H350 H 0.43507 0.57137 0.17969 0.0
C351 C 0.32242 0.5587 0.16231 0.0
C352 C 0.40432 0.58335 0.13847 0.0
C353 C 0.2875 0.55112 0.1597 0.0
C354 C 0.50884 0.55747 0.13859 0.0
C355 C 0.49489 0.57441 0.14281 0.0
C356 C 0.42716 0.57528 0.16815 0.0
C357 C 0.35192 0.57947 0.15202 0.0
C358 C 0.38679 0.5825 0.15294 0.0
C359 C 0.46413 0.56095 0.15295 0.0
C360 C 0.44242 0.57363 0.15352 0.0
H361 H 0.30641 0.59596 0.12671 0.0
H362 H 0.36811 0.61043 0.13164 0.0
H363 H 0.38782 0.58019 0.17932 0.0
H364 H 0.45011 0.49096 0.16036 0.0
H365 H 0.42602 0.52067 0.16784 0.0
C366 C 0.65351 0.1435 0.48218 0.0
C367 C 0.65828 0.12109 0.48773 0.0
C368 C 0.68391 0.17555 0.48067 0.0
C369 C 0.78258 0.23692 0.49307 0.0
H370 H 0.7846 0.27688 0.45385 0.0
C371 C 0.91385 0.35766 0.4713 0.0
C372 C 0.90866 0.37824 0.4636 0.0
C373 C 0.88334 0.32731 0.47587 0.0
C374 C 0.78431 0.26633 0.465 0.0
H375 H 0.69888 0.11515 0.49641 0.0
H376 H 0.75201 0.17106 0.49362 0.0
H377 H 0.7316 0.22225 0.45874 0.0
H378 H 0.86745 0.38395 0.45564 0.0
H379 H 0.81441 0.33138 0.46374 0.0
H380 H 0.83567 0.28113 0.49919 0.0
C381 C 0.72464 0.16387 0.49059 0.0
C382 C 0.75384 0.23491 0.46781 0.0
C383 C 0.69416 0.13175 0.49213 0.0
C384 C 0.87237 0.36842 0.46128 0.0
C385 C 0.84196 0.33822 0.46587 0.0
C386 C 0.81316 0.26847 0.49025 0.0
C387 C 0.71995 0.18607 0.48461 0.0
C388 C 0.75249 0.21977 0.48188 0.0
C389 C 0.84698 0.31694 0.47286 0.0
C390 C 0.81437 0.28359 0.47619 0.0
H391 H 0.62629 0.13628 0.47879 0.0
H392 H 0.67916 0.19208 0.47633 0.0
H393 H 0.7823 0.22611 0.50411 0.0
H394 H 0.94144 0.3644 0.47313 0.0
H395 H 0.88826 0.3115 0.48112 0.0
C396 C 0.56706 0.68584 0.81659 0.0
C397 C 0.60117 0.69542 0.82311 0.0
C398 C 0.56081 0.70847 0.81389 0.0
C399 C 0.59439 0.79121 0.82542 0.0
H400 H 0.54937 0.78526 0.78402 0.0
C401 C 0.59758 0.89539 0.80154 0.0
C402 C 0.56695 0.88779 0.79236 0.0
C403 C 0.59941 0.87113 0.80657 0.0
C404 C 0.56141 0.78704 0.79577 0.0
H405 H 0.6555 0.73651 0.83184 0.0
H406 H 0.64444 0.77584 0.82725 0.0
H407 H 0.55669 0.7443 0.7904 0.0
H408 H 0.51336 0.84876 0.782 0.0
H409 H 0.51622 0.80643 0.79098 0.0
H410 H 0.59927 0.83404 0.83076 0.0
C411 C 0.62236 0.75076 0.82442 0.0
C412 C 0.56566 0.76354 0.7994 0.0
C413 C 0.62867 0.72816 0.82706 0.0
C414 C 0.53759 0.85538 0.78884 0.0
C415 C 0.53931 0.83114 0.79394 0.0
C416 C 0.59 0.81467 0.82181 0.0
C417 C 0.58846 0.74121 0.81769 0.0
C418 C 0.58246 0.76547 0.81421 0.0
C419 C 0.57054 0.83871 0.80262 0.0
C420 C 0.5737 0.81301 0.80688 0.0
H421 H 0.54505 0.66078 0.81366 0.0
H422 H 0.5342 0.70029 0.8089 0.0
H423 H 0.607 0.79314 0.83703 0.0
H424 H 0.62083 0.92015 0.80428 0.0
H425 H 0.62409 0.87791 0.81305 0.0
C426 C 0.82571 0.41416 0.1851 0.0
C427 C 0.8476 0.44232 0.19508 0.0
C428 C 0.78726 0.39395 0.18647 0.0
C429 C 0.71647 0.40376 0.19779 0.0
H430 H 0.65035 0.31536 0.18137 0.0
C431 C 0.57742 0.35934 0.17219 0.0
C432 C 0.57168 0.34669 0.15603 0.0
C433 C 0.60218 0.36031 0.18271 0.0
C434 C 0.66838 0.33998 0.1861 0.0
H435 H 0.84655 0.4693 0.21563 0.0
H436 H 0.77965 0.43338 0.21846 0.0
H437 H 0.71328 0.33752 0.19035 0.0
H438 H 0.58373 0.32109 0.13916 0.0
H439 H 0.6285 0.32451 0.15715 0.0
H440 H 0.67291 0.4071 0.19275 0.0
C441 C 0.7921 0.4275 0.20916 0.0
C442 C 0.70443 0.35269 0.19123 0.0
C443 C 0.83056 0.44796 0.20764 0.0
C444 C 0.58836 0.33198 0.15132 0.0
C445 C 0.61364 0.33345 0.16177 0.0
C446 C 0.68061 0.3911 0.19273 0.0
C447 C 0.76985 0.40125 0.19801 0.0
C448 C 0.7294 0.38516 0.19647 0.0
C449 C 0.62236 0.34926 0.17725 0.0
C450 C 0.65661 0.35948 0.18617 0.0
H451 H 0.83811 0.40859 0.17561 0.0
H452 H 0.77118 0.374 0.17766 0.0
H453 H 0.73487 0.42897 0.20148 0.0
H454 H 0.56521 0.37091 0.17639 0.0
H455 H 0.60754 0.37191 0.19472 0.0
C456 C 0.47698 0.89991 0.48514 0.0
C457 C 0.47235 0.92366 0.48233 0.0
C458 C 0.44666 0.86739 0.484 0.0
C459 C 0.34522 0.81239 0.48645 0.0
H460 H 0.35261 0.75362 0.45972 0.0
C461 C 0.21634 0.68493 0.46685 0.0
C462 C 0.2203 0.66047 0.46411 0.0
C463 C 0.24726 0.71644 0.4707 0.0
C464 C 0.35012 0.76943 0.46752 0.0
H465 H 0.43209 0.93184 0.4764 0.0
H466 H 0.37921 0.87516 0.47467 0.0
H467 H 0.40636 0.80951 0.46344 0.0
H468 H 0.25934 0.64939 0.46409 0.0
H469 H 0.31309 0.70398 0.47145 0.0
H470 H 0.28927 0.77244 0.49079 0.0
C471 C 0.40631 0.88172 0.47768 0.0
C472 C 0.381 0.80158 0.46957 0.0
C473 C 0.43667 0.91417 0.47857 0.0
C474 C 0.25556 0.66787 0.46599 0.0
C475 C 0.2864 0.69926 0.47007 0.0
C476 C 0.31447 0.78014 0.4846 0.0
C477 C 0.41098 0.85796 0.48031 0.0
C478 C 0.37876 0.82348 0.47889 0.0
C479 C 0.28288 0.72419 0.47211 0.0
C480 C 0.3163 0.75822 0.47495 0.0
H481 H 0.50408 0.90639 0.48806 0.0
H482 H 0.45104 0.8496 0.48616 0.0
H483 H 0.34284 0.82868 0.49387 0.0
H484 H 0.18956 0.67999 0.46527 0.0
H485 H 0.24332 0.73488 0.47191 0.0
C486 C 0.52895 0.30078 0.84802 0.0
C487 C 0.55808 0.33366 0.84707 0.0
C488 C 0.53457 0.27776 0.84402 0.0
C489 C 0.59417 0.2663 0.81936 0.0
H490 H 0.55198 0.19058 0.84438 0.0
C491 C 0.61977 0.17354 0.80184 0.0
C492 C 0.58937 0.14104 0.80249 0.0
C493 C 0.61802 0.19741 0.80884 0.0
C494 C 0.56367 0.21143 0.83717 0.0
H495 H 0.6164 0.36803 0.84179 0.0
H496 H 0.62601 0.32783 0.83462 0.0
H497 H 0.54485 0.23153 0.85368 0.0
H498 H 0.53353 0.10806 0.81127 0.0
H499 H 0.53016 0.14968 0.82327 0.0
H500 H 0.61218 0.24606 0.80262 0.0
C501 C 0.59871 0.3199 0.83828 0.0
C502 C 0.55962 0.23492 0.84252 0.0
C503 C 0.59316 0.34293 0.84235 0.0
C504 C 0.55756 0.13288 0.81072 0.0
C505 C 0.55568 0.15679 0.81762 0.0
C506 C 0.59801 0.24277 0.81396 0.0
C507 C 0.56939 0.28705 0.83891 0.0
C508 C 0.57473 0.26256 0.83364 0.0
C509 C 0.58569 0.1894 0.81654 0.0
C510 C 0.5827 0.21495 0.82275 0.0
H511 H 0.50145 0.29272 0.85136 0.0
H512 H 0.51131 0.25262 0.84444 0.0
H513 H 0.6056 0.28706 0.81209 0.0
H514 H 0.64486 0.18052 0.79578 0.0
H515 H 0.64198 0.22221 0.80808 0.0
C516 C 0.63647 0.87913 0.51811 0.0
C517 C 0.60487 0.87616 0.51305 0.0
C518 C 0.63471 0.85199 0.52056 0.0
C519 C 0.58076 0.76526 0.51046 0.0
H520 H 0.62988 0.76657 0.54936 0.0
C521 C 0.5658 0.65348 0.53222 0.0
C522 C 0.59715 0.65875 0.53953 0.0
C523 C 0.56634 0.67939 0.5279 0.0
C524 C 0.61646 0.76591 0.53831 0.0
H525 H 0.54666 0.84207 0.50632 0.0
H526 H 0.54367 0.79452 0.51052 0.0
H527 H 0.63116 0.81257 0.544 0.0
H528 H 0.65428 0.69515 0.54712 0.0
H529 H 0.6555 0.74021 0.53936 0.0
H530 H 0.56621 0.71852 0.50477 0.0
C531 C 0.56986 0.818 0.51252 0.0
C532 C 0.61712 0.79231 0.53526 0.0
C533 C 0.5716 0.84524 0.51011 0.0
C534 C 0.62948 0.69036 0.54178 0.0
C535 C 0.6301 0.71618 0.53739 0.0
C536 C 0.58021 0.7388 0.51349 0.0
C537 C 0.60134 0.8211 0.51795 0.0
C538 C 0.59952 0.79243 0.52125 0.0
C539 C 0.59831 0.71111 0.53073 0.0
C540 C 0.59831 0.73891 0.52741 0.0
H541 H 0.6628 0.90251 0.52009 0.0
H542 H 0.65965 0.85523 0.52442 0.0
H543 H 0.56718 0.76472 0.4995 0.0
H544 H 0.54038 0.62939 0.53045 0.0
H545 H 0.54128 0.67459 0.5229 0.0
C546 C 0.71213 0.54324 0.83775 0.0
C547 C 0.67735 0.51712 0.84315 0.0
C548 C 0.74324 0.54328 0.83847 0.0
C549 C 0.77962 0.50547 0.85979 0.0
H550 H 0.85346 0.54234 0.82606 0.0
C551 C 0.92288 0.53224 0.86921 0.0
C552 C 0.93894 0.52663 0.85608 0.0
C553 C 0.89063 0.52993 0.86699 0.0
C554 C 0.83301 0.5317 0.83555 0.0
H555 H 0.64843 0.47024 0.85333 0.0
H556 H 0.70227 0.47029 0.85452 0.0
H557 H 0.79828 0.54031 0.82319 0.0
H558 H 0.93278 0.51387 0.83019 0.0
H559 H 0.87629 0.50978 0.82628 0.0
H560 H 0.81411 0.49673 0.87213 0.0
C561 C 0.70573 0.49101 0.84989 0.0
C562 C 0.80145 0.53086 0.83399 0.0
C563 C 0.67463 0.4909 0.84911 0.0
C564 C 0.92132 0.51831 0.84061 0.0
C565 C 0.88904 0.51624 0.83834 0.0
C566 C 0.81122 0.50651 0.8614 0.0
C567 C 0.74066 0.51728 0.84469 0.0
C568 C 0.77424 0.5178 0.84612 0.0
C569 C 0.87313 0.52197 0.85153 0.0
C570 C 0.8386 0.51979 0.84936 0.0
H571 H 0.71549 0.56392 0.8331 0.0
H572 H 0.76959 0.56412 0.83449 0.0
H573 H 0.75968 0.4955 0.8695 0.0
H574 H 0.93509 0.53819 0.88137 0.0
H575 H 0.87968 0.53487 0.87744 0.0
C576 C 0.16148 0.64579 0.16431 0.0
C577 C 0.16174 0.62041 0.1582 0.0
C578 C 0.19366 0.6774 0.16444 0.0
C579 C 0.29539 0.72611 0.16423 0.0
H580 H 0.28843 0.79378 0.15332 0.0
C581 C 0.42325 0.86002 0.16813 0.0
C582 C 0.41707 0.88064 0.17618 0.0
C583 C 0.39333 0.82862 0.16323 0.0
C584 C 0.29087 0.77521 0.15648 0.0
H585 H 0.19634 0.60848 0.14751 0.0
H586 H 0.25265 0.66381 0.14781 0.0
H587 H 0.2339 0.738 0.15035 0.0
H588 H 0.37474 0.88515 0.18453 0.0
H589 H 0.32286 0.83067 0.17616 0.0
H590 H 0.35216 0.76341 0.17077 0.0
C591 C 0.22744 0.65913 0.15252 0.0
C592 C 0.25958 0.74322 0.15479 0.0
C593 C 0.19511 0.62744 0.15229 0.0
C594 C 0.38041 0.86974 0.17849 0.0
C595 C 0.35062 0.83854 0.17355 0.0
C596 C 0.32673 0.75819 0.16598 0.0
C597 C 0.22704 0.68451 0.15853 0.0
C598 C 0.26124 0.7183 0.15896 0.0
C599 C 0.35664 0.81732 0.16614 0.0
C600 C 0.32466 0.78318 0.16244 0.0
H601 H 0.13634 0.64133 0.16896 0.0
H602 H 0.19249 0.69629 0.1694 0.0
H603 H 0.29757 0.70752 0.16766 0.0
H604 H 0.4512 0.8677 0.16625 0.0
H605 H 0.39893 0.81302 0.15739 0.0
C606 C 0.54829 0.19849 0.47479 0.0
C607 C 0.52265 0.17031 0.48299 0.0
C608 C 0.55098 0.2263 0.47819 0.0
C609 C 0.49912 0.25449 0.49573 0.0
H610 H 0.59608 0.33503 0.50432 0.0
C611 C 0.51878 0.36137 0.53087 0.0
C612 C 0.54779 0.39276 0.52672 0.0
C613 C 0.51482 0.33504 0.52329 0.0
C614 C 0.56881 0.3129 0.50167 0.0
H615 H 0.47908 0.14897 0.50082 0.0
H616 H 0.48376 0.19737 0.50675 0.0
H617 H 0.59101 0.28749 0.49519 0.0
H618 H 0.59479 0.42098 0.51095 0.0
H619 H 0.58749 0.37483 0.49744 0.0
H620 H 0.47683 0.27968 0.50233 0.0
C621 C 0.50178 0.19803 0.49769 0.0
C622 C 0.56593 0.28563 0.49647 0.0
C623 C 0.49935 0.17039 0.49442 0.0
C624 C 0.57203 0.39711 0.51437 0.0
C625 C 0.56809 0.37068 0.50676 0.0
C626 C 0.502 0.28176 0.50084 0.0
C627 C 0.52774 0.22637 0.48969 0.0
C628 C 0.53102 0.25598 0.49375 0.0
C629 C 0.5397 0.33932 0.51129 0.0
C630 C 0.53685 0.31118 0.5042 0.0
H631 H 0.56674 0.19919 0.46598 0.0
H632 H 0.57112 0.24772 0.47177 0.0
H633 H 0.47185 0.23212 0.49345 0.0
H634 H 0.49933 0.35715 0.54019 0.0
H635 H 0.49288 0.31133 0.52724 0.0
C636 C 0.45159 0.48875 0.85371 0.0
C637 C 0.48577 0.51516 0.84804 0.0
C638 C 0.42073 0.48902 0.85463 0.0
C639 C 0.38285 0.53149 0.83994 0.0
H640 H 0.31574 0.48952 0.87578 0.0
C641 C 0.2429 0.51556 0.84488 0.0
C642 C 0.23094 0.51689 0.86062 0.0
C643 C 0.27421 0.51599 0.84278 0.0
C644 C 0.33425 0.50167 0.86573 0.0
H645 H 0.51377 0.56269 0.8388 0.0
H646 H 0.46036 0.56341 0.84066 0.0
H647 H 0.36934 0.48962 0.8735 0.0
H648 H 0.24445 0.5217 0.88643 0.0
H649 H 0.2985 0.5228 0.88282 0.0
H650 H 0.34804 0.54425 0.83247 0.0
C651 C 0.45713 0.54214 0.84418 0.0
C652 C 0.36495 0.50131 0.86428 0.0
C653 C 0.48801 0.54183 0.84322 0.0
C654 C 0.25199 0.51974 0.87411 0.0
C655 C 0.28318 0.5203 0.87203 0.0
C656 C 0.35205 0.53188 0.84141 0.0
C657 C 0.42292 0.51578 0.84997 0.0
C658 C 0.38989 0.51622 0.85138 0.0
C659 C 0.29462 0.51794 0.85635 0.0
C660 C 0.32728 0.51711 0.85439 0.0
H661 H 0.44851 0.46765 0.85742 0.0
H662 H 0.39494 0.46794 0.85885 0.0
H663 H 0.40094 0.54295 0.8297 0.0
H664 H 0.22746 0.51327 0.83418 0.0
H665 H 0.2818 0.51395 0.83049 0.0
C666 C 0.93425 0.4212 0.16184 0.0
C667 C 0.96561 0.42716 0.15412 0.0
C668 C 0.90212 0.38993 0.16316 0.0
C669 C 0.85307 0.30556 0.14742 0.0
H670 H 0.80324 0.28738 0.1888 0.0
C671 C 0.73442 0.17689 0.1682 0.0
C672 C 0.70591 0.17385 0.17721 0.0
C673 C 0.76516 0.20715 0.16357 0.0
C674 C 0.81649 0.29208 0.17708 0.0
H675 H 0.98736 0.40474 0.14138 0.0
H676 H 0.93127 0.34986 0.14397 0.0
H677 H 0.85866 0.341 0.18434 0.0
H678 H 0.68585 0.19967 0.18727 0.0
H679 H 0.73898 0.25209 0.17913 0.0
H680 H 0.81076 0.25613 0.14036 0.0
C681 C 0.93146 0.36954 0.14881 0.0
C682 C 0.84835 0.32293 0.17451 0.0
C683 C 0.96368 0.401 0.14738 0.0
C684 C 0.70772 0.20132 0.18063 0.0
C685 C 0.73824 0.23139 0.17601 0.0
C686 C 0.8211 0.2745 0.15004 0.0
C687 C 0.90046 0.3636 0.15696 0.0
C688 C 0.86692 0.33025 0.15959 0.0
C689 C 0.76788 0.23486 0.16786 0.0
C690 C 0.80222 0.26751 0.16486 0.0
H691 H 0.93453 0.4407 0.16705 0.0
H692 H 0.87858 0.38643 0.16917 0.0
H693 H 0.86651 0.31037 0.13575 0.0
H694 H 0.73386 0.15617 0.16545 0.0
H695 H 0.78754 0.209 0.15733 0.0
C696 C 0.052 0.51127 0.10454 0.0
C697 C 0.05549 0.53707 0.11277 0.0
C698 C 0.05563 0.51083 0.0876 0.0
C699 C 0.09316 0.56302 0.05233 0.0
H700 H 1.0242 0.48332 0.02734 0.0
C701 C 0.1095 0.54757 0.98321 0.0
C702 C 0.07708 0.53083 0.97342 0.0
C703 C 0.10751 0.54851 0.00025 0.0
C704 C 1.04354 0.50582 0.03413 0.0
H705 H 0.06586 0.58279 0.10987 0.0
H706 H 0.07192 0.58197 0.08019 0.0
H707 H 1.01947 0.485 0.05696 0.0
H708 H 1.01712 0.50155 0.97389 0.0
H709 H 1.01368 0.50356 0.00357 0.0
H710 H 0.1168 0.58395 0.02943 0.0
C711 C 0.06672 0.5622 0.08683 0.0
C712 C 1.0411 0.50669 0.05113 0.0
C713 C 0.06303 0.5626 0.1038 0.0
C714 C 1.04264 0.51494 0.98107 0.0
C715 C 1.04065 0.5158 0.99809 0.0
C716 C 0.09568 0.56212 0.03532 0.0
C717 C 0.06286 0.53621 0.07852 0.0
C718 C 0.06581 0.53531 0.06044 0.0
C719 C 0.07305 0.53261 0.00789 0.0
C720 C 0.07081 0.53352 0.02601 0.0
H721 H 1.04632 0.49131 0.11118 0.0
H722 H 0.05301 0.49068 0.08161 0.0
H723 H 0.11285 0.58537 0.05915 0.0
H724 H 0.13649 0.5603 0.9777 0.0
H725 H 0.13298 0.56143 0.00745 0.0
C726 C 0.61434 0.0414 0.43216 0.0
C727 C 0.58287 0.02614 0.44192 0.0
C728 C 0.61136 0.044 0.41546 0.0
C729 C 0.54445 0.00617 0.38106 0.0
H730 H 0.62002 0.08347 0.35935 0.0
C731 C 0.53528 0.02015 0.31205 0.0
C732 C 0.56818 0.03419 0.30329 0.0
C733 C 0.53592 0.02053 0.32911 0.0
C734 C 0.59885 0.06162 0.36521 0.0
H735 H 0.52369 1.00212 0.44207 0.0
H736 H 0.51839 0.00673 0.41281 0.0
H737 H 0.62305 0.08197 0.38896 0.0
H738 H 0.62751 0.05938 0.3056 0.0
H739 H 0.62863 0.05996 0.33534 0.0
H740 H 0.52056 0.98563 0.35729 0.0
C741 C 0.54534 0.01641 0.41803 0.0
C742 C 0.60056 0.06078 0.38217 0.0
C743 C 0.54837 0.0139 0.43477 0.0
C744 C 0.60176 0.0488 0.31199 0.0
C745 C 0.60239 0.04915 0.32904 0.0
C746 C 0.54276 0.00699 0.36408 0.0
C747 C 0.57679 0.03133 0.40817 0.0
C748 C 0.57362 0.03292 0.39027 0.0
C749 C 0.56948 0.03494 0.33781 0.0
C750 C 0.57018 0.03461 0.35593 0.0
H751 H 0.64128 0.05106 0.43738 0.0
H752 H 0.63603 0.05526 0.40819 0.0
H753 H 0.52353 0.9842 0.3869 0.0
H754 H 0.50904 0.00912 0.30572 0.0
H755 H 0.51015 0.00976 0.3355 0.0
C756 C 0.53529 0.48168 0.78855 0.0
C757 C 0.56581 0.50129 0.79926 0.0
C758 C 0.53924 0.48588 0.77176 0.0
C759 C 0.59625 0.54338 0.74059 0.0
H760 H 0.55334 0.467 0.71238 0.0
C761 C 0.61572 0.54845 0.67038 0.0
C762 C 0.58524 0.52421 0.66065 0.0
C763 C 0.61492 0.54674 0.6874 0.0
C764 C 0.56507 0.48856 0.72004 0.0
H765 H 0.6243 0.54099 0.8009 0.0
H766 H 0.63112 0.54875 0.77142 0.0
H767 H 0.54887 0.46247 0.74188 0.0
H768 H 0.52962 0.47979 0.6611 0.0
H769 H 0.52784 0.47706 0.69069 0.0
H770 H 0.61176 0.56942 0.71872 0.0
C771 C 0.60416 0.53013 0.77607 0.0
C772 C 0.56261 0.48594 0.73695 0.0
C773 C 0.60027 0.52569 0.79291 0.0
C774 C 0.55378 0.49853 0.66827 0.0
C775 C 0.55285 0.49695 0.68525 0.0
C776 C 0.59843 0.54599 0.72361 0.0
C777 C 0.57375 0.50995 0.76532 0.0
C778 C 0.57787 0.51326 0.7474 0.0
C779 C 0.58351 0.52087 0.69504 0.0
C780 C 0.58255 0.51854 0.71312 0.0
H781 H 0.50837 0.46277 0.79312 0.0
H782 H 0.51523 0.47027 0.76379 0.0
H783 H 0.60806 0.56481 0.74837 0.0
H784 H 0.64046 0.56841 0.66482 0.0
H785 H 0.6392 0.56539 0.69453 0.0
C786 C 0.58606 0.03891 0.53826 0.0
C787 C 0.55041 0.02189 0.53123 0.0
C788 C 0.59065 0.038 0.55502 0.0
C789 C 0.54438 0.99056 0.59089 0.0
H790 H 0.60938 0.07127 0.61575 0.0
C791 C 0.58097 0.99915 0.65948 0.0
C792 C 0.57681 0.01932 0.66947 0.0
C793 C 0.57907 0.9992 0.64246 0.0
C794 C 0.59118 0.04857 0.60894 0.0
H795 H 0.49165 0.99004 0.53595 0.0
H796 H 0.49965 0.98803 0.56525 0.0
H797 H 0.60357 0.07121 0.58608 0.0
H798 H 0.56703 0.05519 0.66919 0.0
H799 H 0.5649 0.0559 0.63953 0.0
H800 H 0.53193 0.96794 0.61377 0.0
C801 C 0.524 1.00214 0.55783 0.0
C802 C 0.58807 0.04852 0.59199 0.0
C803 C 0.51943 0.00342 0.54112 0.0
C804 C 0.57111 0.03979 0.66196 0.0
C805 C 0.56972 0.04014 0.64495 0.0
C806 C 0.54792 0.99058 0.60782 0.0
C807 C 0.55964 0.01967 0.56497 0.0
C808 C 0.56435 0.01954 0.58283 0.0
C809 C 0.57349 0.01973 0.63505 0.0
C810 C 0.57105 0.01961 0.61702 0.0
H811 H 0.6104 0.05334 0.53086 0.0
H812 H 0.61842 0.05155 0.56021 0.0
H813 H 0.52606 0.96788 0.58409 0.0
H814 H 0.58609 0.9835 0.66478 0.0
H815 H 0.58242 0.98346 0.63508 0.0
C816 C 0.63112 0.53602 0.89797 0.0
C817 C 0.59897 0.52398 0.88869 0.0
C818 C 0.62862 0.52476 0.91347 0.0
C819 C 0.56381 0.45839 0.94062 0.0
H820 H 0.62822 0.52087 0.97501 0.0
C821 C 0.56715 0.474 0.01481 0.0
C822 C 0.55623 0.4439 0.01941 0.0
C823 C 0.57601 0.48292 0.99869 0.0
C824 C 0.60997 0.50311 0.96556 0.0
H825 H 0.53904 0.49085 0.88819 0.0
H826 H 0.53448 0.47171 0.91541 0.0
H827 H 0.63544 0.53766 0.94713 0.0
H828 H 0.54708 0.39987 0.01077 0.0
H829 H 0.56321 0.41573 0.98246 0.0
H830 H 0.53716 0.42419 0.95925 0.0
C831 C 0.56172 0.48929 0.91064 0.0
C832 C 0.61441 0.51266 0.94951 0.0
C833 C 0.56427 0.50044 0.89511 0.0
C834 C 0.55544 0.42324 0.00758 0.0
C835 C 0.56435 0.43221 0.99136 0.0
C836 C 0.55925 0.44886 0.9567 0.0
C837 C 0.59386 0.50138 0.92005 0.0
C838 C 0.59098 0.49055 0.93688 0.0
C839 C 0.57444 0.46208 0.98672 0.0
C840 C 0.58183 0.47126 0.96941 0.0
H841 H 0.65824 0.55402 0.89321 0.0
H842 H 0.65395 0.53428 0.92027 0.0
H843 H 0.54569 0.44062 0.93114 0.0
H844 H 0.56867 0.49071 0.02369 0.0
H845 H 0.58317 0.50592 0.99554 0.0
C846 C 0.06489 0.48342 0.20749 0.0
C847 C 0.0748 0.51023 0.19903 0.0
C848 C 0.06248 0.48351 0.22449 0.0
C849 C 0.05374 0.5247 0.25997 0.0
H850 H 0.09116 0.48724 0.28424 0.0
C851 C 0.07382 0.53986 0.33028 0.0
C852 C 0.06309 0.51265 0.33867 0.0
C853 C 0.07424 0.53933 0.31321 0.0
C854 C 0.08022 0.49748 0.27763 0.0
H855 H 0.09016 0.55825 0.20158 0.0
H856 H 0.08638 0.55865 0.23136 0.0
H857 H 0.09394 0.48696 0.25454 0.0
H858 H 1.04449 0.46359 0.33571 0.0
H859 H 1.04492 0.46259 0.30591 0.0
H860 H 1.0404 0.53549 0.28315 0.0
C861 C 0.07984 0.5373 0.22486 0.0
C862 C 0.08177 0.4973 0.2606 0.0
C863 C 0.08214 0.53715 0.20783 0.0
C864 C 0.05261 0.48486 0.3296 0.0
C865 C 0.05321 0.48439 0.31254 0.0
C866 C 0.05232 0.52498 0.27703 0.0
C867 C 0.07014 0.51052 0.23341 0.0
C868 C 0.06849 0.51084 0.25155 0.0
C869 C 0.06414 0.51165 0.30416 0.0
C870 C 0.0655 0.51133 0.28604 0.0
H871 H 0.05889 0.46228 0.20095 0.0
H872 H 0.05434 0.46228 0.23064 0.0
H873 H 1.04278 0.53492 0.25337 0.0
H874 H 0.0817 0.56153 0.33692 0.0
H875 H 0.08308 0.5608 0.30711 0.0
loop_
_geom_bond_atom_site_label_1
_geom_bond_atom_site_label_2
_geom_bond_distance
_geom_bond_site_symmetry_2
_ccdc_geom_bond_type
La0 C2 2.928 . S
La0 O20 2.521 . S
La0 O21 2.628 . S
La0 O22 2.554 . S
La0 O23 2.757 . S
La0 O24 2.470 . S
La0 O29 2.482 . S
La0 O31 2.503 1_455 S
La1 C11 2.928 . S
La1 O23 2.482 1_655 S
La1 O25 2.503 1_655 S
La1 O26 2.521 . S
La1 O27 2.628 . S
La1 O28 2.551 1_655 S
La1 O29 2.757 1_655 S
La1 O30 2.470 . S
C2 La0 2.928 . S
C2 C3 1.503 . S
C2 O20 1.261 . S
C2 O21 1.243 . S
C3 C2 1.503 . S
C3 C4 1.394 . S
C3 C8 1.373 . S
C4 C3 1.394 . S
C4 C5 1.380 . S
C4 H32 0.930 . S
C5 C4 1.380 . S
C5 C6 1.376 . S
C5 H33 0.930 . S
C6 C5 1.376 . S
C6 C7 1.370 . S
C7 C6 1.370 . S
C7 C8 1.396 . S
C7 H34 0.929 . S
C8 C3 1.373 . S
C8 C7 1.396 . S
C8 H35 0.929 . S
C9 O22 1.240 . S
C9 O23 1.289 . S
C10 O24 1.258 . S
C10 O25 1.256 . S
C11 La1 2.928 . S
C11 C12 1.503 . S
C11 O26 1.261 . S
C11 O27 1.243 . S
C12 C11 1.503 . S
C12 C13 1.394 . S
C12 C17 1.373 . S
C13 C12 1.394 . S
C13 C14 1.380 . S
C13 H36 0.930 . S
C14 C13 1.380 . S
C14 C15 1.376 . S
C14 H37 0.930 . S
C15 C14 1.376 . S
C15 C16 1.370 . S
C16 C15 1.370 . S
C16 C17 1.396 . S
C16 H38 0.929 . S
C17 C12 1.373 . S
C17 C16 1.396 . S
C17 H39 0.929 . S
C18 O28 1.252 . S
C18 O29 1.289 . S
C19 O30 1.258 . S
C19 O31 1.256 . S
O20 La0 2.521 . S
O20 C2 1.261 . S
O21 La0 2.628 . S
O21 C2 1.243 . S
O22 La0 2.554 . S
O22 C9 1.240 . S
O23 La0 2.757 . S
O23 La1 2.482 1_455 S
O23 C9 1.289 . S
O24 La0 2.470 . S
O24 C10 1.258 . S
O25 La1 2.503 1_455 S
O25 C10 1.256 . S
O26 La1 2.521 . S
O26 C11 1.261 . S
O27 La1 2.628 . S
O27 C11 1.243 . S
O28 La1 2.551 1_455 S
O28 C18 1.252 . S
O29 La0 2.482 . S
O29 La1 2.757 1_455 S
O29 C18 1.289 . S
O30 La1 2.470 . S
O30 C19 1.258 . S
O31 La0 2.503 1_655 S
O31 C19 1.256 . S
H32 C4 0.930 . S
H33 C5 0.930 . S
H34 C7 0.929 . S
H35 C8 0.929 . S
H36 C13 0.930 . S
H37 C14 0.930 . S
H38 C16 0.929 . S
H39 C17 0.929 . S
La40 C42 2.928 . S
La40 O60 2.521 . S
La40 O61 2.628 . S
La40 O62 2.554 . S
La40 O63 2.757 1_565 S
La40 O64 2.470 . S
La40 O69 2.485 . S
La40 O71 2.503 1_565 S
La41 C51 2.928 . S
La41 O63 2.482 . S
La41 O65 2.503 1_545 S
La41 O66 2.521 . S
La41 O67 2.628 . S
La41 O68 2.554 . S
La41 O69 2.752 1_545 S
La41 O70 2.470 . S
C42 La40 2.928 . S
C42 C43 1.503 . S
C42 O60 1.261 . S
C42 O61 1.243 . S
C43 C42 1.503 . S
C43 C44 1.394 . S
C43 C48 1.373 . S
C44 C43 1.394 . S
C44 C45 1.380 . S
C44 H72 0.930 . S
C45 C44 1.380 . S
C45 C46 1.376 . S
C45 H73 0.930 . S
C46 C45 1.376 . S
C46 C47 1.370 . S
C47 C46 1.370 . S
C47 C48 1.396 . S
C47 H74 0.929 . S
C48 C43 1.373 . S
C48 C47 1.396 . S
C48 H75 0.929 . S
C49 O62 1.240 1_545 S
C49 O63 1.289 . S
C50 O64 1.258 . S
C50 O65 1.256 . S
C51 La41 2.928 . S
C51 C52 1.503 . S
C51 O66 1.261 . S
C51 O67 1.243 . S
C52 C51 1.503 . S
C52 C53 1.394 . S
C52 C57 1.373 . S
C53 C52 1.394 . S
C53 C54 1.380 . S
C53 H76 0.930 . S
C54 C53 1.380 . S
C54 C55 1.376 . S
C54 H77 0.930 . S
C55 C54 1.376 . S
C55 C56 1.370 . S
C56 C55 1.370 . S
C56 C57 1.396 . S
C56 H78 0.929 . S
C57 C52 1.373 . S
C57 C56 1.396 . S
C57 H79 0.929 . S
C58 O68 1.240 . S
C58 O69 1.287 1_545 S
C59 O70 1.258 . S
C59 O71 1.256 . S
O60 La40 2.521 . S
O60 C42 1.261 . S
O61 La40 2.628 . S
O61 C42 1.243 . S
O62 La40 2.554 . S
O62 C49 1.240 1_565 S
O63 La40 2.757 1_545 S
O63 La41 2.482 . S
O63 C49 1.289 . S
O64 La40 2.470 . S
O64 C50 1.258 . S
O65 La41 2.503 1_565 S
O65 C50 1.256 . S
O66 La41 2.521 . S
O66 C51 1.261 . S
O67 La41 2.628 . S
O67 C51 1.243 . S
O68 La41 2.554 . S
O68 C58 1.240 . S
O69 La40 2.485 . S
O69 La41 2.752 1_565 S
O69 C58 1.287 1_565 S
O70 La41 2.470 . S
O70 C59 1.258 . S
O71 La40 2.503 1_545 S
O71 C59 1.256 . S
H72 C44 0.930 . S
H73 C45 0.930 . S
H74 C47 0.929 . S
H75 C48 0.929 . S
H76 C53 0.930 . S
H77 C54 0.930 . S
H78 C56 0.929 . S
H79 C57 0.929 . S
La80 C82 2.928 . S
La80 O100 2.521 . S
La80 O101 2.628 . S
La80 O102 2.554 . S
La80 O103 2.757 . S
La80 O104 2.470 . S
La80 O109 2.482 . S
La80 O111 2.503 . S
La81 C91 2.928 . S
La81 O103 2.482 . S
La81 O105 2.503 . S
La81 O106 2.521 . S
La81 O107 2.628 . S
La81 O108 2.554 . S
La81 O109 2.757 . S
La81 O110 2.470 . S
C82 La80 2.928 . S
C82 C83 1.503 . S
C82 O100 1.261 . S
C82 O101 1.243 . S
C83 C82 1.503 . S
C83 C84 1.394 . S
C83 C88 1.373 . S
C84 C83 1.394 . S
C84 C85 1.380 . S
C84 H112 0.930 . S
C85 C84 1.380 . S
C85 C86 1.376 . S
C85 H113 0.930 . S
C86 C85 1.376 . S
C86 C87 1.370 . S
C87 C86 1.370 . S
C87 C88 1.396 . S
C87 H114 0.929 . S
C88 C83 1.373 . S
C88 C87 1.396 . S
C88 H115 0.929 . S
C89 O102 1.240 . S
C89 O103 1.289 . S
C90 O104 1.258 . S
C90 O105 1.256 . S
C91 La81 2.928 . S
C91 C92 1.503 . S
C91 O106 1.261 . S
C91 O107 1.243 . S
C92 C91 1.503 . S
C92 C93 1.394 . S
C92 C97 1.373 . S
C93 C92 1.394 . S
C93 C94 1.380 . S
C93 H116 0.930 . S
C94 C93 1.380 . S
C94 C95 1.376 . S
C94 H117 0.930 . S
C95 C94 1.376 . S
C95 C96 1.370 . S
C96 C95 1.370 . S
C96 C97 1.396 . S
C96 H118 0.929 . S
C97 C92 1.373 . S
C97 C96 1.396 . S
C97 H119 0.929 . S
C98 O108 1.240 . S
C98 O109 1.289 . S
C99 O110 1.258 . S
C99 O111 1.256 . S
O100 La80 2.521 . S
O100 C82 1.261 . S
O101 La80 2.628 . S
O101 C82 1.243 . S
O102 La80 2.554 . S
O102 C89 1.240 . S
O103 La80 2.757 . S
O103 La81 2.482 . S
O103 C89 1.289 . S
O104 La80 2.470 . S
O104 C90 1.258 . S
O105 La81 2.503 . S
O105 C90 1.256 . S
O106 La81 2.521 . S
O106 C91 1.261 . S
O107 La81 2.628 . S
O107 C91 1.243 . S
O108 La81 2.554 . S
O108 C98 1.240 . S
O109 La80 2.482 . S
O109 La81 2.757 . S
O109 C98 1.289 . S
O110 La81 2.470 . S
O110 C99 1.258 . S
O111 La80 2.503 . S
O111 C99 1.256 . S
H112 C84 0.930 . S
H113 C85 0.930 . S
H114 C87 0.929 . S
H115 C88 0.929 . S
H116 C93 0.930 . S
H117 C94 0.930 . S
H118 C96 0.929 . S
H119 C97 0.929 . S
C120 C121 1.384 . S
C120 H133 0.947 . S
C120 C155 1.382 . S
C121 C120 1.384 . S
C121 C122 1.378 . S
C122 C121 1.378 . S
C122 C123 1.378 . S
C122 H134 0.952 . S
C123 C122 1.378 . S
C123 H135 0.950 . S
C123 C154 1.383 . S
H124 C143 0.947 . S
H125 C144 0.946 . S
H126 C146 0.953 . S
H127 C147 0.945 . S
H128 C149 0.952 . S
H129 C150 0.949 . S
H130 C152 0.950 . S
H131 C153 0.948 . S
H132 C155 0.951 . S
H133 C120 0.947 . S
H134 C122 0.952 . S
H135 C123 0.950 . S
N136 C139 1.382 . S
N136 C141 1.363 1_545 S
N137 C139 1.371 . S
N137 C140 1.372 . S
N138 C140 1.361 1_565 S
N138 C141 1.377 . S
C139 N136 1.382 . S
C139 N137 1.371 . S
C139 C142 1.480 . S
C140 N137 1.372 . S
C140 N138 1.361 1_545 S
C140 C148 1.457 . S
C141 N136 1.363 1_565 S
C141 N138 1.377 . S
C141 C154 1.479 . S
C142 C139 1.480 . S
C142 C143 1.383 . S
C142 C147 1.385 . S
C143 H124 0.947 . S
C143 C142 1.383 . S
C143 C144 1.388 . S
C144 H125 0.946 . S
C144 C143 1.388 . S
C144 C145 1.384 . S
C145 C144 1.384 . S
C145 C146 1.377 . S
C146 H126 0.953 . S
C146 C145 1.377 . S
C146 C147 1.369 . S
C147 H127 0.945 . S
C147 C142 1.385 . S
C147 C146 1.369 . S
C148 C140 1.457 . S
C148 C149 1.372 . S
C148 C153 1.364 1_545 S
C149 H128 0.952 . S
C149 C148 1.372 . S
C149 C150 1.389 . S
C150 H129 0.949 . S
C150 C149 1.389 . S
C150 C151 1.387 . S
C151 C150 1.387 . S
C151 C152 1.372 1_545 S
C152 H130 0.950 . S
C152 C151 1.372 1_565 S
C152 C153 1.379 . S
C153 H131 0.948 . S
C153 C148 1.364 1_565 S
C153 C152 1.379 . S
C154 C123 1.383 . S
C154 C141 1.479 . S
C154 C155 1.398 . S
C155 C120 1.382 . S
C155 H132 0.951 . S
C155 C154 1.398 . S
C156 C157 1.384 . S
C156 H169 0.947 . S
C156 C191 1.382 . S
C157 C156 1.384 . S
C157 C158 1.378 . S
C158 C157 1.378 . S
C158 C159 1.378 . S
C158 H170 0.952 . S
C159 C158 1.378 . S
C159 H171 0.950 . S
C159 C190 1.383 . S
H160 C179 0.947 . S
H161 C180 0.946 . S
H162 C182 0.953 . S
H163 C183 0.945 . S
H164 C185 0.952 . S
H165 C186 0.949 . S
H166 C188 0.950 . S
H167 C189 0.948 . S
H168 C191 0.951 . S
H169 C156 0.947 . S
H170 C158 0.952 . S
H171 C159 0.950 . S
N172 C175 1.382 . S
N172 C177 1.363 . S
N173 C175 1.371 . S
N173 C176 1.372 . S
N174 C176 1.361 . S
N174 C177 1.377 . S
C175 N172 1.382 . S
C175 N173 1.371 . S
C175 C178 1.480 . S
C176 N173 1.372 . S
C176 N174 1.361 . S
C176 C184 1.457 . S
C177 N172 1.363 . S
C177 N174 1.377 . S
C177 C190 1.479 . S
C178 C175 1.480 . S
C178 C179 1.383 . S
C178 C183 1.385 . S
C179 H160 0.947 . S
C179 C178 1.383 . S
C179 C180 1.388 . S
C180 H161 0.946 . S
C180 C179 1.388 . S
C180 C181 1.384 . S
C181 C180 1.384 . S
C181 C182 1.377 . S
C182 H162 0.953 . S
C182 C181 1.377 . S
C182 C183 1.369 . S
C183 H163 0.945 . S
C183 C178 1.385 . S
C183 C182 1.369 . S
C184 C176 1.457 . S
C184 C185 1.372 . S
C184 C189 1.364 . S
C185 H164 0.952 . S
C185 C184 1.372 . S
C185 C186 1.389 . S
C186 H165 0.949 . S
C186 C185 1.389 . S
C186 C187 1.387 . S
C187 C186 1.387 . S
C187 C188 1.372 . S
C188 H166 0.950 . S
C188 C187 1.372 . S
C188 C189 1.379 . S
C189 H167 0.948 . S
C189 C184 1.364 . S
C189 C188 1.379 . S
C190 C159 1.383 . S
C190 C177 1.479 . S
C190 C191 1.398 . S
C191 C156 1.382 . S
C191 H168 0.951 . S
C191 C190 1.398 . S
C192 C193 1.384 . S
C192 H205 0.947 . S
C192 C227 1.382 . S
C193 C192 1.384 . S
C193 C194 1.378 . S
C194 C193 1.378 . S
C194 C195 1.378 . S
C194 H206 0.952 . S
C195 C194 1.378 . S
C195 H207 0.950 1_655 S
C195 C226 1.383 . S
H196 C215 0.947 . S
H197 C216 0.946 . S
H198 C218 0.953 . S
H199 C219 0.945 . S
H200 C221 0.952 . S
H201 C222 0.949 . S
H202 C224 0.950 1_655 S
H203 C225 0.948 1_655 S
H204 C227 0.951 . S
H205 C192 0.947 . S
H206 C194 0.952 . S
H207 C195 0.950 1_455 S
N208 C211 1.382 . S
N208 C213 1.363 . S
N209 C211 1.371 . S
N209 C212 1.372 . S
N210 C212 1.361 . S
N210 C213 1.377 . S
C211 N208 1.382 . S
C211 N209 1.371 . S
C211 C214 1.480 . S
C212 N209 1.372 . S
C212 N210 1.361 . S
C212 C220 1.457 . S
C213 N208 1.363 . S
C213 N210 1.377 . S
C213 C226 1.479 1_455 S
C214 C211 1.480 . S
C214 C215 1.383 . S
C214 C219 1.385 . S
C215 H196 0.947 . S
C215 C214 1.383 . S
C215 C216 1.388 . S
C216 H197 0.946 . S
C216 C215 1.388 . S
C216 C217 1.384 . S
C217 C216 1.384 . S
C217 C218 1.377 . S
C218 H198 0.953 . S
C218 C217 1.377 . S
C218 C219 1.369 . S
C219 H199 0.945 . S
C219 C214 1.385 . S
C219 C218 1.369 . S
C220 C212 1.457 . S
C220 C221 1.372 . S
C220 C225 1.364 . S
C221 H200 0.952 . S
C221 C220 1.372 . S
C221 C222 1.389 . S
C222 H201 0.949 . S
C222 C221 1.389 . S
C222 C223 1.387 . S
C223 C222 1.387 . S
C223 C224 1.372 . S
C224 H202 0.950 1_455 S
C224 C223 1.372 . S
C224 C225 1.379 . S
C225 H203 0.948 1_455 S
C225 C220 1.364 . S
C225 C224 1.379 . S
C226 C195 1.383 . S
C226 C213 1.479 1_655 S
C226 C227 1.398 . S
C227 C192 1.382 . S
C227 H204 0.951 . S
C227 C226 1.398 . S
C228 C229 1.384 . S
C228 H241 0.947 . S
C228 C263 1.382 . S
C229 C228 1.384 . S
C229 C230 1.378 . S
C230 C229 1.378 . S
C230 C231 1.378 . S
C230 H242 0.952 . S
C231 C230 1.378 . S
C231 H243 0.950 . S
C231 C262 1.383 . S
H232 C251 0.947 . S
H233 C252 0.946 . S
H234 C254 0.953 . S
H235 C255 0.945 . S
H236 C257 0.952 . S
H237 C258 0.949 . S
H238 C260 0.950 . S
H239 C261 0.948 . S
H240 C263 0.951 . S
H241 C228 0.947 . S
H242 C230 0.952 . S
H243 C231 0.950 . S
N244 C247 1.382 1_455 S
N244 C249 1.363 . S
N245 C247 1.371 . S
N245 C248 1.372 1_655 S
N246 C248 1.361 . S
N246 C249 1.377 . S
C247 N244 1.382 1_655 S
C247 N245 1.371 . S
C247 C250 1.480 . S
C248 N245 1.372 1_455 S
C248 N246 1.361 . S
C248 C256 1.457 . S
C249 N244 1.363 . S
C249 N246 1.377 . S
C249 C262 1.479 . S
C250 C247 1.480 . S
C250 C251 1.383 . S
C250 C255 1.385 . S
C251 H232 0.947 . S
C251 C250 1.383 . S
C251 C252 1.388 . S
C252 H233 0.946 . S
C252 C251 1.388 . S
C252 C253 1.384 . S
C253 C252 1.384 . S
C253 C254 1.377 . S
C254 H234 0.953 . S
C254 C253 1.377 . S
C254 C255 1.369 . S
C255 H235 0.945 . S
C255 C250 1.385 . S
C255 C254 1.369 . S
C256 C248 1.457 . S
C256 C257 1.372 1_455 S
C256 C261 1.364 . S
C257 H236 0.952 . S
C257 C256 1.372 1_655 S
C257 C258 1.389 . S
C258 H237 0.949 . S
C258 C257 1.389 . S
C258 C259 1.387 1_655 S
C259 C258 1.387 1_455 S
C259 C260 1.372 . S
C260 H238 0.950 . S
C260 C259 1.372 . S
C260 C261 1.379 . S
C261 H239 0.948 . S
C261 C256 1.364 . S
C261 C260 1.379 . S
C262 C231 1.383 . S
C262 C249 1.479 . S
C262 C263 1.398 . S
C263 C228 1.382 . S
C263 H240 0.951 . S
C263 C262 1.398 . S
C264 C265 1.384 . S
C264 H277 0.947 . S
C264 C299 1.382 . S
C265 C264 1.384 . S
C265 C266 1.378 . S
C266 C265 1.378 . S
C266 C267 1.378 . S
C266 H278 0.952 . S
C267 C266 1.378 . S
C267 H279 0.950 . S
C267 C298 1.383 . S
H268 C287 0.947 . S
H269 C288 0.946 . S
H270 C290 0.953 . S
H271 C291 0.945 . S
H272 C293 0.952 . S
H273 C294 0.949 . S
H274 C296 0.950 . S
H275 C297 0.948 . S
H276 C299 0.951 . S
H277 C264 0.947 . S
H278 C266 0.952 . S
H279 C267 0.950 . S
N280 C283 1.382 1_545 S
N280 C285 1.363 . S
N281 C283 1.371 . S
N281 C284 1.372 1_565 S
N282 C284 1.361 . S
N282 C285 1.377 . S
C283 N280 1.382 1_565 S
C283 N281 1.371 . S
C283 C286 1.480 . S
C284 N281 1.372 1_545 S
C284 N282 1.361 . S
C284 C292 1.457 . S
C285 N280 1.363 . S
C285 N282 1.377 . S
C285 C298 1.479 . S
C286 C283 1.480 . S
C286 C287 1.383 . S
C286 C291 1.385 . S
C287 H268 0.947 . S
C287 C286 1.383 . S
C287 C288 1.388 . S
C288 H269 0.946 . S
C288 C287 1.388 . S
C288 C289 1.384 . S
C289 C288 1.384 . S
C289 C290 1.377 . S
C290 H270 0.953 . S
C290 C289 1.377 . S
C290 C291 1.369 . S
C291 H271 0.945 . S
C291 C286 1.385 . S
C291 C290 1.369 . S
C292 C284 1.457 . S
C292 C293 1.372 1_545 S
C292 C297 1.364 . S
C293 H272 0.952 . S
C293 C292 1.372 1_565 S
C293 C294 1.389 . S
C294 H273 0.949 . S
C294 C293 1.389 . S
C294 C295 1.359 1_565 S
C295 C294 1.359 1_545 S
C295 C296 1.398 . S
C296 H274 0.950 . S
C296 C295 1.398 . S
C296 C297 1.379 . S
C297 H275 0.948 . S
C297 C292 1.364 . S
C297 C296 1.379 . S
C298 C267 1.383 . S
C298 C285 1.479 . S
C298 C299 1.398 . S
C299 C264 1.382 . S
C299 H276 0.951 . S
C299 C298 1.398 . S
C300 C301 1.384 . S
C300 H313 0.947 . S
C300 C335 1.382 . S
C301 C300 1.384 . S
C301 C302 1.378 . S
C302 C301 1.378 . S
C302 C303 1.378 . S
C302 H314 0.952 . S
C303 C302 1.378 . S
C303 H315 0.950 . S
C303 C334 1.383 . S
H304 C323 0.947 . S
H305 C324 0.946 . S
H306 C326 0.953 . S
H307 C327 0.945 . S
H308 C329 0.952 . S
H309 C330 0.949 . S
H310 C332 0.950 . S
H311 C333 0.948 . S
H312 C335 0.951 . S
H313 C300 0.947 . S
H314 C302 0.952 . S
H315 C303 0.950 . S
N316 C319 1.382 . S
N316 C321 1.363 . S
N317 C319 1.371 . S
N317 C320 1.372 . S
N318 C320 1.361 . S
N318 C321 1.377 . S
C319 N316 1.382 . S
C319 N317 1.371 . S
C319 C322 1.480 . S
C320 N317 1.372 . S
C320 N318 1.361 . S
C320 C328 1.457 . S
C321 N316 1.363 . S
C321 N318 1.377 . S
C321 C334 1.479 . S
C322 C319 1.480 . S
C322 C323 1.383 . S
C322 C327 1.385 . S
C323 H304 0.947 . S
C323 C322 1.383 . S
C323 C324 1.388 . S
C324 H305 0.946 . S
C324 C323 1.388 . S
C324 C325 1.384 . S
C325 C324 1.384 . S
C325 C326 1.377 . S
C326 H306 0.953 . S
C326 C325 1.377 . S
C326 C327 1.369 . S
C327 H307 0.945 . S
C327 C322 1.385 . S
C327 C326 1.369 . S
C328 C320 1.457 . S
C328 C329 1.372 . S
C328 C333 1.364 . S
C329 H308 0.952 . S
C329 C328 1.372 . S
C329 C330 1.389 . S
C330 H309 0.949 . S
C330 C329 1.389 . S
C330 C331 1.387 . S
C331 C330 1.387 . S
C331 C332 1.372 . S
C332 H310 0.950 . S
C332 C331 1.372 . S
C332 C333 1.379 . S
C333 H311 0.948 . S
C333 C328 1.364 . S
C333 C332 1.379 . S
C334 C303 1.383 . S
C334 C321 1.479 . S
C334 C335 1.398 . S
C335 C300 1.382 . S
C335 H312 0.951 . S
C335 C334 1.398 . S
C336 C337 1.349 . S
C336 C338 1.327 . S
C336 H361 0.950 . S
C337 C336 1.349 . S
C337 C353 1.349 . S
C338 C336 1.327 . S
C338 C357 1.429 . S
C338 H362 0.950 . S
C339 C356 1.574 . S
C339 C358 1.368 . S
C339 H363 0.949 . S
H340 C344 0.949 . S
C341 C342 1.349 . S
C341 C343 1.327 . S
C341 H364 0.950 . S
C342 C341 1.349 . S
C342 C354 1.349 . S
C343 C341 1.327 . S
C343 C359 1.429 . S
C343 H365 0.950 . S
C344 H340 0.949 . S
C344 C352 1.574 . S
C344 C360 1.368 . S
H345 C353 0.950 . S
H346 C351 0.950 . S
H347 C352 0.949 . S
H348 C354 0.950 . S
H349 C355 0.950 . S
H350 C356 0.949 . S
C351 H346 0.950 . S
C351 C353 1.327 . S
C351 C357 1.429 . S
C352 C344 1.574 . S
C352 H347 0.949 . S
C352 C358 1.368 . S
C353 C337 1.349 . S
C353 H345 0.950 . S
C353 C351 1.327 . S
C354 C342 1.349 . S
C354 H348 0.950 . S
C354 C355 1.327 . S
C355 H349 0.950 . S
C355 C354 1.327 . S
C355 C359 1.429 . S
C356 C339 1.574 . S
C356 H350 0.949 . S
C356 C360 1.368 . S
C357 C338 1.429 . S
C357 C351 1.429 . S
C357 C358 1.523 . S
C358 C339 1.368 . S
C358 C352 1.368 . S
C358 C357 1.523 . S
C359 C343 1.429 . S
C359 C355 1.429 . S
C359 C360 1.523 . S
C360 C344 1.368 . S
C360 C356 1.368 . S
C360 C359 1.523 . S
H361 C336 0.950 . S
H362 C338 0.950 . S
H363 C339 0.949 . S
H364 C341 0.950 . S
H365 C343 0.950 . S
C366 C367 1.349 . S
C366 C368 1.327 . S
C366 H391 0.950 . S
C367 C366 1.349 . S
C367 C383 1.349 . S
C368 C366 1.327 . S
C368 C387 1.429 . S
C368 H392 0.950 . S
C369 C386 1.574 . S
C369 C388 1.368 . S
C369 H393 0.949 . S
H370 C374 0.949 . S
C371 C372 1.349 . S
C371 C373 1.327 . S
C371 H394 0.950 . S
C372 C371 1.349 . S
C372 C384 1.349 . S
C373 C371 1.327 . S
C373 C389 1.429 . S
C373 H395 0.950 . S
C374 H370 0.949 . S
C374 C382 1.574 . S
C374 C390 1.368 . S
H375 C383 0.950 . S
H376 C381 0.950 . S
H377 C382 0.949 . S
H378 C384 0.950 . S
H379 C385 0.950 . S
H380 C386 0.949 . S
C381 H376 0.950 . S
C381 C383 1.327 . S
C381 C387 1.429 . S
C382 C374 1.574 . S
C382 H377 0.949 . S
C382 C388 1.368 . S
C383 C367 1.349 . S
C383 H375 0.950 . S
C383 C381 1.327 . S
C384 C372 1.349 . S
C384 H378 0.950 . S
C384 C385 1.327 . S
C385 H379 0.950 . S
C385 C384 1.327 . S
C385 C389 1.429 . S
C386 C369 1.574 . S
C386 H380 0.949 . S
C386 C390 1.368 . S
C387 C368 1.429 . S
C387 C381 1.429 . S
C387 C388 1.523 . S
C388 C369 1.368 . S
C388 C382 1.368 . S
C388 C387 1.523 . S
C389 C373 1.429 . S
C389 C385 1.429 . S
C389 C390 1.523 . S
C390 C374 1.368 . S
C390 C386 1.368 . S
C390 C389 1.523 . S
H391 C366 0.950 . S
H392 C368 0.950 . S
H393 C369 0.949 . S
H394 C371 0.950 . S
H395 C373 0.950 . S
C396 C397 1.349 . S
C396 C398 1.327 . S
C396 H421 0.950 . S
C397 C396 1.349 . S
C397 C413 1.349 . S
C398 C396 1.327 . S
C398 C417 1.429 . S
C398 H422 0.950 . S
C399 C416 1.574 . S
C399 C418 1.368 . S
C399 H423 0.949 . S
H400 C404 0.949 . S
C401 C402 1.349 . S
C401 C403 1.327 . S
C401 H424 0.950 . S
C402 C401 1.349 . S
C402 C414 1.349 . S
C403 C401 1.327 . S
C403 C419 1.429 . S
C403 H425 0.950 . S
C404 H400 0.949 . S
C404 C412 1.574 . S
C404 C420 1.368 . S
H405 C413 0.950 . S
H406 C411 0.950 . S
H407 C412 0.949 . S
H408 C414 0.950 . S
H409 C415 0.950 . S
H410 C416 0.949 . S
C411 H406 0.950 . S
C411 C413 1.327 . S
C411 C417 1.429 . S
C412 C404 1.574 . S
C412 H407 0.949 . S
C412 C418 1.368 . S
C413 C397 1.349 . S
C413 H405 0.950 . S
C413 C411 1.327 . S
C414 C402 1.349 . S
C414 H408 0.950 . S
C414 C415 1.327 . S
C415 H409 0.950 . S
C415 C414 1.327 . S
C415 C419 1.429 . S
C416 C399 1.574 . S
C416 H410 0.949 . S
C416 C420 1.368 . S
C417 C398 1.429 . S
C417 C411 1.429 . S
C417 C418 1.523 . S
C418 C399 1.368 . S
C418 C412 1.368 . S
C418 C417 1.523 . S
C419 C403 1.429 . S
C419 C415 1.429 . S
C419 C420 1.523 . S
C420 C404 1.368 . S
C420 C416 1.368 . S
C420 C419 1.523 . S
H421 C396 0.950 . S
H422 C398 0.950 . S
H423 C399 0.949 . S
H424 C401 0.950 . S
H425 C403 0.950 . S
C426 C427 1.349 . S
C426 C428 1.327 . S
C426 H451 0.950 . S
C427 C426 1.349 . S
C427 C443 1.349 . S
C428 C426 1.327 . S
C428 C447 1.429 . S
C428 H452 0.950 . S
C429 C446 1.574 . S
C429 C448 1.368 . S
C429 H453 0.949 . S
H430 C434 0.949 . S
C431 C432 1.349 . S
C431 C433 1.327 . S
C431 H454 0.950 . S
C432 C431 1.349 . S
C432 C444 1.349 . S
C433 C431 1.327 . S
C433 C449 1.429 . S
C433 H455 0.950 . S
C434 H430 0.949 . S
C434 C442 1.574 . S
C434 C450 1.368 . S
H435 C443 0.950 . S
H436 C441 0.950 . S
H437 C442 0.949 . S
H438 C444 0.950 . S
H439 C445 0.950 . S
H440 C446 0.949 . S
C441 H436 0.950 . S
C441 C443 1.327 . S
C441 C447 1.429 . S
C442 C434 1.574 . S
C442 H437 0.949 . S
C442 C448 1.368 . S
C443 C427 1.349 . S
C443 H435 0.950 . S
C443 C441 1.327 . S
C444 C432 1.349 . S
C444 H438 0.950 . S
C444 C445 1.327 . S
C445 H439 0.950 . S
C445 C444 1.327 . S
C445 C449 1.429 . S
C446 C429 1.574 . S
C446 H440 0.949 . S
C446 C450 1.368 . S
C447 C428 1.429 . S
C447 C441 1.429 . S
C447 C448 1.523 . S
C448 C429 1.368 . S
C448 C442 1.368 . S
C448 C447 1.523 . S
C449 C433 1.429 . S
C449 C445 1.429 . S
C449 C450 1.523 . S
C450 C434 1.368 . S
C450 C446 1.368 . S
C450 C449 1.523 . S
H451 C426 0.950 . S
H452 C428 0.950 . S
H453 C429 0.949 . S
H454 C431 0.950 . S
H455 C433 0.950 . S
C456 C457 1.349 . S
C456 C458 1.327 . S
C456 H481 0.950 . S
C457 C456 1.349 . S
C457 C473 1.349 . S
C458 C456 1.327 . S
C458 C477 1.429 . S
C458 H482 0.950 . S
C459 C476 1.574 . S
C459 C478 1.368 . S
C459 H483 0.949 . S
H460 C464 0.949 . S
C461 C462 1.349 . S
C461 C463 1.327 . S
C461 H484 0.950 . S
C462 C461 1.349 . S
C462 C474 1.349 . S
C463 C461 1.327 . S
C463 C479 1.429 . S
C463 H485 0.950 . S
C464 H460 0.949 . S
C464 C472 1.574 . S
C464 C480 1.368 . S
H465 C473 0.950 . S
H466 C471 0.950 . S
H467 C472 0.949 . S
H468 C474 0.950 . S
H469 C475 0.950 . S
H470 C476 0.949 . S
C471 H466 0.950 . S
C471 C473 1.327 . S
C471 C477 1.429 . S
C472 C464 1.574 . S
C472 H467 0.949 . S
C472 C478 1.368 . S
C473 C457 1.349 . S
C473 H465 0.950 . S
C473 C471 1.327 . S
C474 C462 1.349 . S
C474 H468 0.950 . S
C474 C475 1.327 . S
C475 H469 0.950 . S
C475 C474 1.327 . S
C475 C479 1.429 . S
C476 C459 1.574 . S
C476 H470 0.949 . S
C476 C480 1.368 . S
C477 C458 1.429 . S
C477 C471 1.429 . S
C477 C478 1.523 . S
C478 C459 1.368 . S
C478 C472 1.368 . S
C478 C477 1.523 . S
C479 C463 1.429 . S
C479 C475 1.429 . S
C479 C480 1.523 . S
C480 C464 1.368 . S
C480 C476 1.368 . S
C480 C479 1.523 . S
H481 C456 0.950 . S
H482 C458 0.950 . S
H483 C459 0.949 . S
H484 C461 0.950 . S
H485 C463 0.950 . S
C486 C487 1.349 . S
C486 C488 1.327 . S
C486 H511 0.950 . S
C487 C486 1.349 . S
C487 C503 1.349 . S
C488 C486 1.327 . S
C488 C507 1.429 . S
C488 H512 0.950 . S
C489 C506 1.574 . S
C489 C508 1.368 . S
C489 H513 0.949 . S
H490 C494 0.949 . S
C491 C492 1.349 . S
C491 C493 1.327 . S
C491 H514 0.950 . S
C492 C491 1.349 . S
C492 C504 1.349 . S
C493 C491 1.327 . S
C493 C509 1.429 . S
C493 H515 0.950 . S
C494 H490 0.949 . S
C494 C502 1.574 . S
C494 C510 1.368 . S
H495 C503 0.950 . S
H496 C501 0.950 . S
H497 C502 0.949 . S
H498 C504 0.950 . S
H499 C505 0.950 . S
H500 C506 0.949 . S
C501 H496 0.950 . S
C501 C503 1.327 . S
C501 C507 1.429 . S
C502 C494 1.574 . S
C502 H497 0.949 . S
C502 C508 1.368 . S
C503 C487 1.349 . S
C503 H495 0.950 . S
C503 C501 1.327 . S
C504 C492 1.349 . S
C504 H498 0.950 . S
C504 C505 1.327 . S
C505 H499 0.950 . S
C505 C504 1.327 . S
C505 C509 1.429 . S
C506 C489 1.574 . S
C506 H500 0.949 . S
C506 C510 1.368 . S
C507 C488 1.429 . S
C507 C501 1.429 . S
C507 C508 1.523 . S
C508 C489 1.368 . S
C508 C502 1.368 . S
C508 C507 1.523 . S
C509 C493 1.429 . S
C509 C505 1.429 . S
C509 C510 1.523 . S
C510 C494 1.368 . S
C510 C506 1.368 . S
C510 C509 1.523 . S
H511 C486 0.950 . S
H512 C488 0.950 . S
H513 C489 0.949 . S
H514 C491 0.950 . S
H515 C493 0.950 . S
C516 C517 1.349 . S
C516 C518 1.327 . S
C516 H541 0.950 . S
C517 C516 1.349 . S
C517 C533 1.349 . S
C518 C516 1.327 . S
C518 C537 1.429 . S
C518 H542 0.950 . S
C519 C536 1.574 . S
C519 C538 1.368 . S
C519 H543 0.949 . S
H520 C524 0.949 . S
C521 C522 1.349 . S
C521 C523 1.327 . S
C521 H544 0.950 . S
C522 C521 1.349 . S
C522 C534 1.349 . S
C523 C521 1.327 . S
C523 C539 1.429 . S
C523 H545 0.950 . S
C524 H520 0.949 . S
C524 C532 1.574 . S
C524 C540 1.368 . S
H525 C533 0.950 . S
H526 C531 0.950 . S
H527 C532 0.949 . S
H528 C534 0.950 . S
H529 C535 0.950 . S
H530 C536 0.949 . S
C531 H526 0.950 . S
C531 C533 1.327 . S
C531 C537 1.429 . S
C532 C524 1.574 . S
C532 H527 0.949 . S
C532 C538 1.368 . S
C533 C517 1.349 . S
C533 H525 0.950 . S
C533 C531 1.327 . S
C534 C522 1.349 . S
C534 H528 0.950 . S
C534 C535 1.327 . S
C535 H529 0.950 . S
C535 C534 1.327 . S
C535 C539 1.429 . S
C536 C519 1.574 . S
C536 H530 0.949 . S
C536 C540 1.368 . S
C537 C518 1.429 . S
C537 C531 1.429 . S
C537 C538 1.523 . S
C538 C519 1.368 . S
C538 C532 1.368 . S
C538 C537 1.523 . S
C539 C523 1.429 . S
C539 C535 1.429 . S
C539 C540 1.523 . S
C540 C524 1.368 . S
C540 C536 1.368 . S
C540 C539 1.523 . S
H541 C516 0.950 . S
H542 C518 0.950 . S
H543 C519 0.949 . S
H544 C521 0.950 . S
H545 C523 0.950 . S
C546 C547 1.349 . S
C546 C548 1.327 . S
C546 H571 0.950 . S
C547 C546 1.349 . S
C547 C563 1.349 . S
C548 C546 1.327 . S
C548 C567 1.429 . S
C548 H572 0.950 . S
C549 C566 1.574 . S
C549 C568 1.368 . S
C549 H573 0.949 . S
H550 C554 0.949 . S
C551 C552 1.349 . S
C551 C553 1.327 . S
C551 H574 0.950 . S
C552 C551 1.349 . S
C552 C564 1.349 . S
C553 C551 1.327 . S
C553 C569 1.429 . S
C553 H575 0.950 . S
C554 H550 0.949 . S
C554 C562 1.574 . S
C554 C570 1.368 . S
H555 C563 0.950 . S
H556 C561 0.950 . S
H557 C562 0.949 . S
H558 C564 0.950 . S
H559 C565 0.950 . S
H560 C566 0.949 . S
C561 H556 0.950 . S
C561 C563 1.327 . S
C561 C567 1.429 . S
C562 C554 1.574 . S
C562 H557 0.949 . S
C562 C568 1.368 . S
C563 C547 1.349 . S
C563 H555 0.950 . S
C563 C561 1.327 . S
C564 C552 1.349 . S
C564 H558 0.950 . S
C564 C565 1.327 . S
C565 H559 0.950 . S
C565 C564 1.327 . S
C565 C569 1.429 . S
C566 C549 1.574 . S
C566 H560 0.949 . S
C566 C570 1.368 . S
C567 C548 1.429 . S
C567 C561 1.429 . S
C567 C568 1.523 . S
C568 C549 1.368 . S
C568 C562 1.368 . S
C568 C567 1.523 . S
C569 C553 1.429 . S
C569 C565 1.429 . S
C569 C570 1.523 . S
C570 C554 1.368 . S
C570 C566 1.368 . S
C570 C569 1.523 . S
H571 C546 0.950 . S
H572 C548 0.950 . S
H573 C549 0.949 . S
H574 C551 0.950 . S
H575 C553 0.950 . S
C576 C577 1.349 . S
C576 C578 1.327 . S
C576 H601 0.950 . S
C577 C576 1.349 . S
C577 C593 1.349 . S
C578 C576 1.327 . S
C578 C597 1.429 . S
C578 H602 0.950 . S
C579 C596 1.574 . S
C579 C598 1.368 . S
C579 H603 0.949 . S
H580 C584 0.949 . S
C581 C582 1.349 . S
C581 C583 1.327 . S
C581 H604 0.950 . S
C582 C581 1.349 . S
C582 C594 1.349 . S
C583 C581 1.327 . S
C583 C599 1.429 . S
C583 H605 0.950 . S
C584 H580 0.949 . S
C584 C592 1.574 . S
C584 C600 1.368 . S
H585 C593 0.950 . S
H586 C591 0.950 . S
H587 C592 0.949 . S
H588 C594 0.950 . S
H589 C595 0.950 . S
H590 C596 0.949 . S
C591 H586 0.950 . S
C591 C593 1.327 . S
C591 C597 1.429 . S
C592 C584 1.574 . S
C592 H587 0.949 . S
C592 C598 1.368 . S
C593 C577 1.349 . S
C593 H585 0.950 . S
C593 C591 1.327 . S
C594 C582 1.349 . S
C594 H588 0.950 . S
C594 C595 1.327 . S
C595 H589 0.950 . S
C595 C594 1.327 . S
C595 C599 1.429 . S
C596 C579 1.574 . S
C596 H590 0.949 . S
C596 C600 1.368 . S
C597 C578 1.429 . S
C597 C591 1.429 . S
C597 C598 1.523 . S
C598 C579 1.368 . S
C598 C592 1.368 . S
C598 C597 1.523 . S
C599 C583 1.429 . S
C599 C595 1.429 . S
C599 C600 1.523 . S
C600 C584 1.368 . S
C600 C596 1.368 . S
C600 C599 1.523 . S
H601 C576 0.950 . S
H602 C578 0.950 . S
H603 C579 0.949 . S
H604 C581 0.950 . S
H605 C583 0.950 . S
C606 C607 1.349 . S
C606 C608 1.327 . S
C606 H631 0.950 . S
C607 C606 1.349 . S
C607 C623 1.349 . S
C608 C606 1.327 . S
C608 C627 1.429 . S
C608 H632 0.950 . S
C609 C626 1.574 . S
C609 C628 1.368 . S
C609 H633 0.949 . S
H610 C614 0.949 . S
C611 C612 1.349 . S
C611 C613 1.327 . S
C611 H634 0.950 . S
C612 C611 1.349 . S
C612 C624 1.349 . S
C613 C611 1.327 . S
C613 C629 1.429 . S
C613 H635 0.950 . S
C614 H610 0.949 . S
C614 C622 1.574 . S
C614 C630 1.368 . S
H615 C623 0.950 . S
H616 C621 0.950 . S
H617 C622 0.949 . S
H618 C624 0.950 . S
H619 C625 0.950 . S
H620 C626 0.949 . S
C621 H616 0.950 . S
C621 C623 1.327 . S
C621 C627 1.429 . S
C622 C614 1.574 . S
C622 H617 0.949 . S
C622 C628 1.368 . S
C623 C607 1.349 . S
C623 H615 0.950 . S
C623 C621 1.327 . S
C624 C612 1.349 . S
C624 H618 0.950 . S
C624 C625 1.327 . S
C625 H619 0.950 . S
C625 C624 1.327 . S
C625 C629 1.429 . S
C626 C609 1.574 . S
C626 H620 0.949 . S
C626 C630 1.368 . S
C627 C608 1.429 . S
C627 C621 1.429 . S
C627 C628 1.523 . S
C628 C609 1.368 . S
C628 C622 1.368 . S
C628 C627 1.523 . S
C629 C613 1.429 . S
C629 C625 1.429 . S
C629 C630 1.523 . S
C630 C614 1.368 . S
C630 C626 1.368 . S
C630 C629 1.523 . S
H631 C606 0.950 . S
H632 C608 0.950 . S
H633 C609 0.949 . S
H634 C611 0.950 . S
H635 C613 0.950 . S
C636 C637 1.349 . S
C636 C638 1.327 . S
C636 H661 0.950 . S
C637 C636 1.349 . S
C637 C653 1.349 . S
C638 C636 1.327 . S
C638 C657 1.429 . S
C638 H662 0.950 . S
C639 C656 1.574 . S
C639 C658 1.368 . S
C639 H663 0.949 . S
H640 C644 0.949 . S
C641 C642 1.349 . S
C641 C643 1.327 . S
C641 H664 0.950 . S
C642 C641 1.349 . S
C642 C654 1.349 . S
C643 C641 1.327 . S
C643 C659 1.429 . S
C643 H665 0.950 . S
C644 H640 0.949 . S
C644 C652 1.574 . S
C644 C660 1.368 . S
H645 C653 0.950 . S
H646 C651 0.950 . S
H647 C652 0.949 . S
H648 C654 0.950 . S
H649 C655 0.950 . S
H650 C656 0.949 . S
C651 H646 0.950 . S
C651 C653 1.327 . S
C651 C657 1.429 . S
C652 C644 1.574 . S
C652 H647 0.949 . S
C652 C658 1.368 . S
C653 C637 1.349 . S
C653 H645 0.950 . S
C653 C651 1.327 . S
C654 C642 1.349 . S
C654 H648 0.950 . S
C654 C655 1.327 . S
C655 H649 0.950 . S
C655 C654 1.327 . S
C655 C659 1.429 . S
C656 C639 1.574 . S
C656 H650 0.949 . S
C656 C660 1.368 . S
C657 C638 1.429 . S
C657 C651 1.429 . S
C657 C658 1.523 . S
C658 C639 1.368 . S
C658 C652 1.368 . S
C658 C657 1.523 . S
C659 C643 1.429 . S
C659 C655 1.429 . S
C659 C660 1.523 . S
C660 C644 1.368 . S
C660 C656 1.368 . S
C660 C659 1.523 . S
H661 C636 0.950 . S
H662 C638 0.950 . S
H663 C639 0.949 . S
H664 C641 0.950 . S
H665 C643 0.950 . S
C666 C667 1.349 . S
C666 C668 1.327 . S
C666 H691 0.950 . S
C667 C666 1.349 . S
C667 C683 1.349 . S
C668 C666 1.327 . S
C668 C687 1.429 . S
C668 H692 0.950 . S
C669 C686 1.574 . S
C669 C688 1.368 . S
C669 H693 0.949 . S
H670 C674 0.949 . S
C671 C672 1.349 . S
C671 C673 1.327 . S
C671 H694 0.950 . S
C672 C671 1.349 . S
C672 C684 1.349 . S
C673 C671 1.327 . S
C673 C689 1.429 . S
C673 H695 0.950 . S
C674 H670 0.949 . S
C674 C682 1.574 . S
C674 C690 1.368 . S
H675 C683 0.950 . S
H676 C681 0.950 . S
H677 C682 0.949 . S
H678 C684 0.950 . S
H679 C685 0.950 . S
H680 C686 0.949 . S
C681 H676 0.950 . S
C681 C683 1.327 . S
C681 C687 1.429 . S
C682 C674 1.574 . S
C682 H677 0.949 . S
C682 C688 1.368 . S
C683 C667 1.349 . S
C683 H675 0.950 . S
C683 C681 1.327 . S
C684 C672 1.349 . S
C684 H678 0.950 . S
C684 C685 1.327 . S
C685 H679 0.950 . S
C685 C684 1.327 . S
C685 C689 1.429 . S
C686 C669 1.574 . S
C686 H680 0.949 . S
C686 C690 1.368 . S
C687 C668 1.429 . S
C687 C681 1.429 . S
C687 C688 1.523 . S
C688 C669 1.368 . S
C688 C682 1.368 . S
C688 C687 1.523 . S
C689 C673 1.429 . S
C689 C685 1.429 . S
C689 C690 1.523 . S
C690 C674 1.368 . S
C690 C686 1.368 . S
C690 C689 1.523 . S
H691 C666 0.950 . S
H692 C668 0.950 . S
H693 C669 0.949 . S
H694 C671 0.950 . S
H695 C673 0.950 . S
C696 C697 1.349 1_655 S
C696 C698 1.327 . S
C696 H721 0.950 . S
C697 C696 1.349 1_455 S
C697 C713 1.349 . S
C698 C696 1.327 . S
C698 C717 1.429 1_655 S
C698 H722 0.950 . S
C699 C716 1.574 . S
C699 C718 1.368 . S
C699 H723 0.949 . S
H700 C704 0.949 1_655 S
C701 C702 1.349 . S
C701 C703 1.327 1_556 S
C701 H724 0.950 . S
C702 C701 1.349 . S
C702 C714 1.349 . S
C703 C701 1.327 1_554 S
C703 C719 1.429 . S
C703 H725 0.950 . S
C704 H700 0.949 1_455 S
C704 C712 1.574 . S
C704 C720 1.368 . S
H705 C713 0.950 . S
H706 C711 0.950 . S
H707 C712 0.939 1_655 S
H708 C714 0.950 1_655 S
H709 C715 0.950 1_655 S
H710 C716 0.949 . S
C711 H706 0.950 . S
C711 C713 1.327 . S
C711 C717 1.429 . S
C712 C704 1.574 . S
C712 H707 0.939 1_455 S
C712 C718 1.380 . S
C713 C697 1.349 . S
C713 H705 0.950 . S
C713 C711 1.327 . S
C714 C702 1.349 . S
C714 H708 0.950 1_455 S
C714 C715 1.327 1_556 S
C715 H709 0.950 1_455 S
C715 C714 1.327 1_554 S
C715 C719 1.429 . S
C716 C699 1.574 . S
C716 H710 0.949 . S
C716 C720 1.368 . S
C717 C698 1.429 1_455 S
C717 C711 1.429 . S
C717 C718 1.523 . S
C718 C699 1.368 . S
C718 C712 1.380 . S
C718 C717 1.523 . S
C719 C703 1.429 . S
C719 C715 1.429 . S
C719 C720 1.523 . S
C720 C704 1.368 . S
C720 C716 1.368 . S
C720 C719 1.523 . S
H721 C696 0.950 . S
H722 C698 0.950 . S
H723 C699 0.949 . S
H724 C701 0.950 . S
H725 C703 0.950 . S
C726 C727 1.349 . S
C726 C728 1.327 . S
C726 H751 0.950 . S
C727 C726 1.349 . S
C727 C743 1.349 1_545 S
C728 C726 1.327 . S
C728 C747 1.429 . S
C728 H752 0.950 . S
C729 C746 1.574 . S
C729 C748 1.368 1_565 S
C729 H753 0.949 . S
H730 C734 0.949 . S
C731 C732 1.349 1_565 S
C731 C733 1.327 . S
C731 H754 0.950 . S
C732 C731 1.349 1_545 S
C732 C744 1.349 . S
C733 C731 1.327 . S
C733 C749 1.429 1_565 S
C733 H755 0.950 . S
C734 H730 0.949 . S
C734 C742 1.574 . S
C734 C750 1.368 . S
H735 C743 0.950 . S
H736 C741 0.950 . S
H737 C742 0.949 . S
H738 C744 0.950 . S
H739 C745 0.950 . S
H740 C746 0.949 . S
C741 H736 0.950 . S
C741 C743 1.327 . S
C741 C747 1.429 1_565 S
C742 C734 1.574 . S
C742 H737 0.949 . S
C742 C748 1.368 . S
C743 C727 1.349 1_565 S
C743 H735 0.950 . S
C743 C741 1.327 . S
C744 C732 1.349 . S
C744 H738 0.950 . S
C744 C745 1.327 . S
C745 H739 0.950 . S
C745 C744 1.327 . S
C745 C749 1.429 . S
C746 C729 1.574 . S
C746 H740 0.949 . S
C746 C750 1.368 1_565 S
C747 C728 1.429 . S
C747 C741 1.429 1_545 S
C747 C748 1.523 . S
C748 C729 1.368 1_545 S
C748 C742 1.368 . S
C748 C747 1.523 . S
C749 C733 1.429 1_545 S
C749 C745 1.429 . S
C749 C750 1.523 . S
C750 C734 1.368 . S
C750 C746 1.368 1_545 S
C750 C749 1.523 . S
H751 C726 0.950 . S
H752 C728 0.950 . S
H753 C729 0.949 . S
H754 C731 0.950 . S
H755 C733 0.950 . S
C756 C757 1.349 . S
C756 C758 1.327 . S
C756 H781 0.950 . S
C757 C756 1.349 . S
C757 C773 1.349 . S
C758 C756 1.327 . S
C758 C777 1.429 . S
C758 H782 0.950 . S
C759 C776 1.574 . S
C759 C778 1.368 . S
C759 H783 0.949 . S
H760 C764 0.949 . S
C761 C762 1.349 . S
C761 C763 1.327 . S
C761 H784 0.950 . S
C762 C761 1.349 . S
C762 C774 1.349 . S
C763 C761 1.327 . S
C763 C779 1.429 . S
C763 H785 0.950 . S
C764 H760 0.949 . S
C764 C772 1.574 . S
C764 C780 1.368 . S
H765 C773 0.950 . S
H766 C771 0.950 . S
H767 C772 0.949 . S
H768 C774 0.950 . S
H769 C775 0.950 . S
H770 C776 0.949 . S
C771 H766 0.950 . S
C771 C773 1.327 . S
C771 C777 1.429 . S
C772 C764 1.574 . S
C772 H767 0.949 . S
C772 C778 1.368 . S
C773 C757 1.349 . S
C773 H765 0.950 . S
C773 C771 1.327 . S
C774 C762 1.349 . S
C774 H768 0.950 . S
C774 C775 1.327 . S
C775 H769 0.950 . S
C775 C774 1.327 . S
C775 C779 1.429 . S
C776 C759 1.574 . S
C776 H770 0.949 . S
C776 C780 1.368 . S
C777 C758 1.429 . S
C777 C771 1.429 . S
C777 C778 1.523 . S
C778 C759 1.368 . S
C778 C772 1.368 . S
C778 C777 1.523 . S
C779 C763 1.429 . S
C779 C775 1.429 . S
C779 C780 1.523 . S
C780 C764 1.368 . S
C780 C776 1.368 . S
C780 C779 1.523 . S
H781 C756 0.950 . S
H782 C758 0.950 . S
H783 C759 0.949 . S
H784 C761 0.950 . S
H785 C763 0.950 . S
C786 C787 1.349 . S
C786 C788 1.327 . S
C786 H811 0.950 . S
C787 C786 1.349 . S
C787 C803 1.349 1_545 S
C788 C786 1.327 . S
C788 C807 1.429 . S
C788 H812 0.950 . S
C789 C806 1.574 . S
C789 C808 1.368 1_565 S
C789 H813 0.949 . S
H790 C794 0.949 . S
C791 C792 1.349 . S
C791 C793 1.327 . S
C791 H814 0.950 . S
C792 C791 1.349 . S
C792 C804 1.349 1_565 S
C793 C791 1.327 . S
C793 C809 1.421 1_565 S
C793 H815 0.950 . S
C794 H790 0.949 . S
C794 C802 1.574 . S
C794 C810 1.368 . S
H795 C803 0.950 . S
H796 C801 0.950 . S
H797 C802 0.949 . S
H798 C804 0.950 . S
H799 C805 0.950 . S
H800 C806 0.949 . S
C801 H796 0.950 . S
C801 C803 1.327 . S
C801 C807 1.429 1_565 S
C802 C794 1.574 . S
C802 H797 0.949 . S
C802 C808 1.368 . S
C803 C787 1.349 1_565 S
C803 H795 0.950 . S
C803 C801 1.327 . S
C804 C792 1.349 1_545 S
C804 H798 0.950 . S
C804 C805 1.327 . S
C805 H799 0.950 . S
C805 C804 1.327 . S
C805 C809 1.435 . S
C806 C789 1.574 . S
C806 H800 0.949 . S
C806 C810 1.368 1_565 S
C807 C788 1.429 . S
C807 C801 1.429 1_545 S
C807 C808 1.523 . S
C808 C789 1.368 1_545 S
C808 C802 1.368 . S
C808 C807 1.523 . S
C809 C793 1.421 1_545 S
C809 C805 1.435 . S
C809 C810 1.524 . S
C810 C794 1.368 . S
C810 C806 1.368 1_545 S
C810 C809 1.524 . S
H811 C786 0.950 . S
H812 C788 0.950 . S
H813 C789 0.949 . S
H814 C791 0.950 . S
H815 C793 0.950 . S
C816 C817 1.349 . S
C816 C818 1.327 . S
C816 H841 0.950 . S
C817 C816 1.349 . S
C817 C833 1.349 . S
C818 C816 1.327 . S
C818 C837 1.429 . S
C818 H842 0.950 . S
C819 C836 1.574 . S
C819 C838 1.368 . S
C819 H843 0.949 . S
H820 C824 0.949 . S
C821 C822 1.349 . S
C821 C823 1.327 1_554 S
C821 H844 0.950 . S
C822 C821 1.349 . S
C822 C834 1.349 . S
C823 C821 1.327 1_556 S
C823 C839 1.429 . S
C823 H845 0.950 . S
C824 H820 0.949 . S
C824 C832 1.574 . S
C824 C840 1.368 . S
H825 C833 0.950 . S
H826 C831 0.950 . S
H827 C832 0.949 . S
H828 C834 0.950 . S
H829 C835 0.950 . S
H830 C836 0.949 . S
C831 H826 0.950 . S
C831 C833 1.327 . S
C831 C837 1.429 . S
C832 C824 1.574 . S
C832 H827 0.949 . S
C832 C838 1.368 . S
C833 C817 1.349 . S
C833 H825 0.950 . S
C833 C831 1.327 . S
C834 C822 1.349 . S
C834 H828 0.950 . S
C834 C835 1.327 1_554 S
C835 H829 0.950 . S
C835 C834 1.327 1_556 S
C835 C839 1.429 . S
C836 C819 1.574 . S
C836 H830 0.949 . S
C836 C840 1.368 . S
C837 C818 1.429 . S
C837 C831 1.429 . S
C837 C838 1.523 . S
C838 C819 1.368 . S
C838 C832 1.368 . S
C838 C837 1.523 . S
C839 C823 1.429 . S
C839 C835 1.429 . S
C839 C840 1.523 . S
C840 C824 1.368 . S
C840 C836 1.368 . S
C840 C839 1.523 . S
H841 C816 0.950 . S
H842 C818 0.950 . S
H843 C819 0.949 . S
H844 C821 0.950 . S
H845 C823 0.950 . S
C846 C847 1.349 . S
C846 C848 1.327 . S
C846 H871 0.950 . S
C847 C846 1.349 . S
C847 C863 1.349 . S
C848 C846 1.327 . S
C848 C867 1.429 . S
C848 H872 0.950 . S
C849 C866 1.574 . S
C849 C868 1.368 . S
C849 H873 0.949 . S
H850 C854 0.949 . S
C851 C852 1.356 1_455 S
C851 C853 1.327 . S
C851 H874 0.950 . S
C852 C851 1.356 1_655 S
C852 C864 1.347 . S
C853 C851 1.327 . S
C853 C869 1.429 . S
C853 H875 0.950 . S
C854 H850 0.949 . S
C854 C862 1.574 . S
C854 C870 1.368 . S
H855 C863 0.950 . S
H856 C861 0.950 . S
H857 C862 0.949 . S
H858 C864 0.944 . S
H859 C865 0.950 . S
H860 C866 0.949 . S
C861 H856 0.950 . S
C861 C863 1.327 . S
C861 C867 1.429 . S
C862 C854 1.574 . S
C862 H857 0.949 . S
C862 C868 1.368 . S
C863 C847 1.349 . S
C863 H855 0.950 . S
C863 C861 1.327 . S
C864 C852 1.347 . S
C864 H858 0.944 . S
C864 C865 1.326 1_655 S
C865 H859 0.950 . S
C865 C864 1.326 1_455 S
C865 C869 1.429 . S
C866 C849 1.574 . S
C866 H860 0.949 . S
C866 C870 1.368 . S
C867 C848 1.429 . S
C867 C861 1.429 . S
C867 C868 1.523 . S
C868 C849 1.368 . S
C868 C862 1.368 . S
C868 C867 1.523 . S
C869 C853 1.429 . S
C869 C865 1.429 . S
C869 C870 1.523 . S
C870 C854 1.368 . S
C870 C866 1.368 . S
C870 C869 1.523 . S
H871 C846 0.950 . S
H872 C848 0.950 . S
H873 C849 0.949 . S
H874 C851 0.950 . S
H875 C853 0.950 . S
C337 C6 0.424 . S
C342 C325 0.407 . S
C367 C59 1.849 . S
C372 C253 1.801 . S
C397 C86 1.143 . S
C402 C289 1.134 . S
C427 C15 0.316 . S
C432 C301 0.207 . S
C462 C229 1.931 . S
C457 C50 1.940 . S
C492 C265 1.253 . S
C487 C95 1.250 . S
C517 C46 1.139 . S
C522 C181 1.133 . S
C547 C99 3.060 . S
C552 C193 3.032 . S
C577 C10 1.965 . S
C582 C121 1.962 . S
C612 C157 1.235 . S
C607 C55 1.228 . S
C642 C217 2.899 . S
C637 C90 2.932 . S
C667 C19 1.840 . S
C672 C145 1.798 . S
C702 C223 1.759 . S
C697 C18 1.692 . S
C727 C49 1.330 . S
C732 C151 1.374 . S
C757 C98 1.449 . S
C762 C187 1.504 . S
C792 C295 1.481 1_565 S
C787 C58 1.438 . S
C822 C331 1.106 . S
C817 C89 1.083 . S
C847 C9 1.326 . S
C852 C259 1.364 1_655 S
