# Generated by pormake.
# Topology rtl, (3,6)-cn, num edge types: 1
# Building blocks:
#     Node 0, Type 0, BuildingBlock: BETDAH_clean_linker_0, # of connection points: 3
#     Node 1, Type 0, BuildingBlock: BETDAH_clean_linker_0, # of connection points: 3
#     Node 2, Type 0, BuildingBlock: BETDAH_clean_linker_0, # of connection points: 3
#     Node 3, Type 0, BuildingBlock: BETDAH_clean_linker_0, # of connection points: 3
#     Node 4, Type 1, BuildingBlock: KUMBOL_clean_sbu_1, # of connection points: 6
#     Node 5, Type 1, BuildingBlock: KUMBOL_clean_sbu_1, # of connection points: 6
#     Edge 6, Type (0, 1), BuildingBlock: EZIPEK_clean_linker_0, # of connection points: 2
#     Edge 7, Type (0, 1), BuildingBlock: EZIPEK_clean_linker_0, # of connection points: 2
#     Edge 8, Type (0, 1), BuildingBlock: EZIPEK_clean_linker_0, # of connection points: 2
#     Edge 9, Type (0, 1), BuildingBlock: EZIPEK_clean_linker_0, # of connection points: 2
#     Edge 10, Type (0, 1), BuildingBlock: EZIPEK_clean_linker_0, # of connection points: 2
#     Edge 11, Type (0, 1), BuildingBlock: EZIPEK_clean_linker_0, # of connection points: 2
#     Edge 12, Type (0, 1), BuildingBlock: EZIPEK_clean_linker_0, # of connection points: 2
#     Edge 13, Type (0, 1), BuildingBlock: EZIPEK_clean_linker_0, # of connection points: 2
#     Edge 14, Type (0, 1), BuildingBlock: EZIPEK_clean_linker_0, # of connection points: 2
#     Edge 15, Type (0, 1), BuildingBlock: EZIPEK_clean_linker_0, # of connection points: 2
#     Edge 16, Type (0, 1), BuildingBlock: EZIPEK_clean_linker_0, # of connection points: 2
#     Edge 17, Type (0, 1), BuildingBlock: EZIPEK_clean_linker_0, # of connection points: 2
# Relax obj value: 0.051
# Max RMSD: 0.239
# Mean RMSD: 0.169
data_MOF--net-rtl--node1-KUMBOL_clean_sbu_1--node2-BETDAH_clean_linker_0--edge1-EZIPEK_clean_linker_0
_symmetry_space_group_name_H-M    P1
_symmetry_Int_Tables_number       1
_symmetry_cell_setting            triclinic
loop_
_symmetry_equiv_pos_as_xyz
'x, y, z'
_cell_length_a     26.218853
_cell_length_b     26.570571
_cell_length_c     20.614855
_cell_angle_alpha  74.736385
_cell_angle_beta   100.45481
_cell_angle_gamma 90.988321
loop_
_atom_site_label
_atom_site_type_symbol
_atom_site_fract_x
_atom_site_fract_y
_atom_site_fract_z
_atom_type_partial_charge
H0 H 0.12041 0.90184 1.00196 0.0
H1 H 0.24832 0.79269 0.10501 0.0
H2 H 0.21695 0.84836 0.88521 0.0
C3 C 0.15321 0.87825 1.00017 0.0
C4 C 0.16525 0.87822 0.93674 0.0
C5 C 0.18298 0.84776 0.0613 0.0
C6 C 0.22521 0.81632 0.05827 0.0
C7 C 0.23756 0.81689 0.99403 0.0
C8 C 0.20753 0.84805 0.93433 0.0
N9 N 0.28016 0.78851 0.98526 0.0
C10 C 0.31074 0.74848 0.03296 0.0
H11 H 0.61185 0.6338 0.68888 0.0
H12 H 0.7291 0.73706 0.61535 0.0
H13 H 0.69671 0.72256 0.81717 0.0
C14 C 0.64035 0.66279 0.69636 0.0
C15 C 0.64994 0.67641 0.75863 0.0
C16 C 0.66909 0.68422 0.64503 0.0
C17 C 0.70685 0.72101 0.65499 0.0
C18 C 0.71677 0.73528 0.71709 0.0
C19 C 0.68831 0.71261 0.76866 0.0
N20 N 0.75635 0.77029 0.73115 0.0
C21 C 0.78479 0.80069 0.68483 0.0
H22 H 0.89962 0.12102 0.1199 0.0
H23 H 0.77257 0.17226 0.19567 0.0
H24 H 0.76219 0.19177 0.97952 0.0
C25 C 0.86128 0.13918 0.11041 0.0
C26 C 0.83414 0.15706 0.0432 0.0
C27 C 0.8391 0.1438 0.16555 0.0
C28 C 0.78989 0.16859 0.15316 0.0
C29 C 0.762 0.18584 0.08579 0.0
C30 C 0.78392 0.17907 0.03132 0.0
N31 N 0.71032 0.20608 0.0719 0.0
C32 C 0.69576 0.24829 0.09331 0.0
H33 H 0.40934 0.3982 0.48434 0.0
H34 H 0.28318 0.29882 0.53542 0.0
H35 H 0.31531 0.3371 0.3308 0.0
C36 C 0.3774 0.37466 0.46947 0.0
C37 C 0.36625 0.37003 0.40226 0.0
C38 C 0.34767 0.34885 0.5177 0.0
C39 C 0.3065 0.3178 0.49846 0.0
C40 C 0.2945 0.31365 0.4307 0.0
C41 C 0.32445 0.34011 0.38308 0.0
N42 N 0.25106 0.28637 0.40659 0.0
C43 C 0.22619 0.24493 0.44436 0.0
C44 C 0.96036 0.18757 0.46899 0.0
C45 C 0.87563 0.19371 0.39635 0.0
C46 C 0.91382 0.1653 0.45033 0.0
C47 C 0.88607 0.24407 0.35942 0.0
C48 C 0.96994 0.23918 0.4344 0.0
C49 C 0.93315 0.26677 0.37842 0.0
N50 N 0.99505 0.15975 0.52324 0.0
C51 C 0.03697 0.18368 0.55066 0.0
C52 C 0.01545 0.26203 0.45846 0.0
C53 C 0.0486 0.23449 0.5177 0.0
Gd54 Gd 0.05109 0.95784 0.51912 0.0
Gd55 Gd 0.97394 0.07279 0.57174 0.0
N56 N 0.90499 0.11663 0.48694 0.0
C57 C 0.82778 0.17097 0.38195 0.0
C58 C 0.85709 0.09585 0.47656 0.0
C59 C 0.8182 0.12213 0.423 0.0
H60 H 0.84953 0.05809 0.50834 0.0
H61 H 0.7809 0.10473 0.41342 0.0
H62 H 0.15342 0.02095 0.45641 0.0
H63 H 0.06223 0.16324 0.59741 0.0
H64 H 0.24481 0.03516 0.50034 0.0
H65 H 0.79761 0.1913 0.3405 0.0
H66 H 0.85755 0.26621 0.31712 0.0
H67 H 0.02338 0.84136 0.61214 0.0
H68 H 0.02434 0.30153 0.43325 0.0
H69 H 0.08291 0.25248 0.53831 0.0
H70 H 0.28205 0.91103 0.72015 0.0
H71 H 0.94015 0.30618 0.35064 0.0
H72 H 0.15168 0.78667 0.77689 0.0
H73 H 0.06307 0.77503 0.71756 0.0
N74 N 0.08845 0.89013 0.61347 0.0
C75 C 0.13796 0.89587 0.6431 0.0
C76 C 0.06217 0.84642 0.63773 0.0
C77 C 0.13447 0.81572 0.73074 0.0
C78 C 0.08449 0.80894 0.6973 0.0
C79 C 0.16225 0.85911 0.70301 0.0
H80 H 0.23326 0.83815 0.77777 0.0
N81 N 0.14135 0.96863 0.54995 0.0
C82 C 0.16515 0.93694 0.61068 0.0
C83 C 0.2462 0.97959 0.59795 0.0
C84 C 0.218 0.94198 0.63686 0.0
C85 C 0.1704 1.00066 0.50835 0.0
C86 C 0.22262 0.00807 0.53255 0.0
O87 O 0.94329 0.03799 0.48469 0.0
O88 O 0.00986 0.02495 0.43376 0.0
O89 O 0.09363 0.91573 0.46684 0.0
O90 O 0.01048 0.91256 0.45309 0.0
O91 O 0.92937 0.9975 0.57903 0.0
O92 O 0.9759 0.93035 0.55814 0.0
O93 O 0.04159 0.95029 0.62837 0.0
O94 O 0.04874 0.03379 0.63567 0.0
O95 O 0.96193 0.04723 0.67669 0.0
O96 O 0.93508 0.12374 0.61596 0.0
O97 O 0.07096 0.04239 0.47903 0.0
O98 O 0.05873 0.08275 0.56119 0.0
C99 C 0.96415 0.04598 0.4302 0.0
C100 C 0.93545 0.9483 0.57728 0.0
C101 C 0.04926 0.914 0.35669 0.0
C102 C 0.08143 0.9017 0.25695 0.0
C103 C 0.00972 0.96301 0.24166 0.0
C104 C 0.01234 0.951 0.31227 0.0
C105 C 0.04389 0.93855 0.21415 0.0
C106 C 0.08412 0.88946 0.3286 0.0
C107 C 0.05195 0.90198 0.43191 0.0
C108 C 0.24165 0.90742 0.69885 0.0
C109 C 0.21386 0.86591 0.73173 0.0
H110 H 0.28686 0.9848 0.61621 0.0
C111 C 0.05382 0.98366 0.66534 0.0
C112 C 0.08186 0.07933 0.51067 0.0
C113 C 0.96149 0.11274 0.73392 0.0
C114 C 0.94911 0.1369 0.83618 0.0
C115 C 0.0319 0.15014 0.7981 0.0
C116 C 0.01248 0.13006 0.74268 0.0
C117 C 1.00044 0.15351 0.8448 0.0
C118 C 0.92974 0.11646 0.78054 0.0
C119 C 0.94099 0.0912 0.67611 0.0
H120 H 0.9811 0.99154 0.20807 0.0
H121 H 0.98541 0.97086 0.332 0.0
H122 H 0.04126 0.94858 0.15915 0.0
H123 H 0.11312 0.8612 0.36204 0.0
H124 H 0.07134 0.16329 0.80471 0.0
H125 H 0.03704 0.12821 0.70655 0.0
H126 H 0.01595 0.16933 0.88744 0.0
H127 H 0.89013 0.10356 0.77367 0.0
C128 C 0.693 0.56094 0.0935 0.0
C129 C 0.68738 0.65149 0.02655 0.0
C130 C 0.66567 0.60862 0.06788 0.0
C131 C 0.7364 0.64568 0.0106 0.0
C132 C 0.74284 0.55545 0.07897 0.0
C133 C 0.76406 0.59783 0.03677 0.0
N134 N 0.67118 0.52018 0.1332 0.0
C135 C 0.699 0.47464 0.16499 0.0
C136 C 0.77022 0.5077 0.10803 0.0
C137 C 0.74849 0.4674 0.15202 0.0
Gd138 Gd 0.47124 0.47864 0.02975 0.0
Gd139 Gd 0.58734 0.53647 0.14944 0.0
N140 N 0.61752 0.61278 0.0824 0.0
C141 C 0.65918 0.69904 1.00251 0.0
C142 C 0.5901 0.65908 0.05951 0.0
C143 C 0.61063 0.70298 0.01979 0.0
H144 H 0.5519 0.66202 0.07008 0.0
H145 H 0.58845 0.73955 1.00128 0.0
H146 H 0.51032 0.35363 0.09739 0.0
H147 H 0.68329 0.44371 0.20061 0.0
H148 H 0.47681 0.27157 0.16191 0.0
H149 H 0.67454 0.73289 0.97068 0.0
H150 H 0.75346 0.67809 0.97847 0.0
H151 H 0.36691 0.55782 0.95502 0.0
H152 H 0.80859 0.50196 0.09809 0.0
H153 H 0.76993 0.43081 0.17621 0.0
H154 H 0.30262 0.3181 0.17156 0.0
H155 H 0.80212 0.59417 0.02464 0.0
H156 H 0.23489 0.48606 0.03269 0.0
H157 H 0.27307 0.55978 0.95779 0.0
N158 N 0.38152 0.4839 0.02793 0.0
C159 C 0.36086 0.44208 0.067 0.0
C160 C 0.35048 0.52537 0.98774 0.0
C161 C 0.27601 0.48496 0.03162 0.0
C162 C 0.29738 0.52657 0.98908 0.0
C163 C 0.30765 0.44167 0.07055 0.0
H164 H 0.24675 0.39654 0.11466 0.0
N165 N 0.44238 0.39872 0.09039 0.0
C166 C 0.39225 0.39801 0.09927 0.0
C167 C 0.40285 0.30667 0.16008 0.0
C168 C 0.37138 0.35221 0.13551 0.0
C169 C 0.47184 0.35347 0.10915 0.0
C170 C 0.45284 0.30701 0.1453 0.0
O171 O 0.58696 0.54252 0.03695 0.0
O172 O 0.50226 0.55697 0.9835 0.0
O173 O 0.4932 0.43584 0.96135 0.0
O174 O 0.42461 0.4854 0.92891 0.0
O175 O 0.51096 0.5815 0.12788 0.0
O176 O 0.4482 0.5564 0.04695 0.0
O177 O 0.48252 0.44481 0.14438 0.0
O178 O 0.51741 0.50732 0.19686 0.0
O179 O 0.6088 0.58982 0.21334 0.0
O180 O 0.63444 0.50875 0.25047 0.0
O181 O 0.5549 0.44725 0.052 0.0
O182 O 0.58813 0.44965 0.16188 0.0
C183 C 0.55162 0.56537 0.98377 0.0
C184 C 0.46436 0.58602 0.08922 0.0
C185 C 0.42253 0.41039 0.88821 0.0
C186 C 0.38801 0.37223 0.79404 0.0
C187 C 0.36537 0.33687 0.90577 0.0
C188 C 0.39546 0.37383 0.9307 0.0
C189 C 0.36144 0.33613 0.83774 0.0
C190 C 0.41896 0.40928 0.81953 0.0
C191 C 0.45206 0.45113 0.91442 0.0
C192 C 0.31922 0.35268 0.143 0.0
C193 C 0.28738 0.39734 0.11053 0.0
H194 H 0.38822 0.27062 0.18803 0.0
C195 C 0.48659 0.46813 0.19389 0.0
C196 C 0.58564 0.42756 0.11147 0.0
C197 C 0.61214 0.54944 0.33066 0.0
C198 C 0.61407 0.57945 0.43315 0.0
C199 C 0.55788 0.50946 0.41314 0.0
C200 C 0.57547 0.5125 0.35235 0.0
C201 C 0.57715 0.54265 0.45352 0.0
C202 C 0.63121 0.58318 0.37122 0.0
C203 C 0.63028 0.55281 0.26597 0.0
H204 H 0.34462 0.30901 0.93918 0.0
H205 H 0.39692 0.37404 0.98295 0.0
H206 H 0.33754 0.30744 0.81897 0.0
H207 H 0.43924 0.43751 0.78579 0.0
H208 H 0.52956 0.48098 0.42925 0.0
H209 H 0.56068 0.4856 0.32274 0.0
H210 H 0.56355 0.53943 0.501 0.0
H211 H 0.65966 0.61165 0.3553 0.0
C212 C 0.1715 0.17549 0.41117 0.0
C213 C 0.19416 0.19953 0.46286 0.0
C214 C 0.15702 0.13295 0.54634 0.0
C215 C 0.12472 0.11642 0.49293 0.0
N216 N 0.10344 0.12325 0.37056 0.0
N217 N 0.20483 0.2035 0.5799 0.0
C218 C 0.13286 0.13756 0.42426 0.0
C219 C 0.18578 0.17906 0.53053 0.0
N220 N 0.18783 0.18787 0.34963 0.0
N221 N 0.16345 0.10232 0.61193 0.0
H222 H 0.22663 0.23687 0.57028 0.0
H223 H 0.1952 0.19293 0.6285 0.0
H224 H 0.14862 0.065 0.62372 0.0
H225 H 0.1894 0.11054 0.65223 0.0
H226 H 0.17778 0.16702 0.31314 0.0
H227 H 0.2156 0.21565 0.33749 0.0
H228 H 0.10218 0.14402 0.31978 0.0
H229 H 0.07804 0.09279 0.375 0.0
C230 C 0.33381 0.65359 0.07476 0.0
C231 C 0.34888 0.70602 0.0661 0.0
C232 C 0.44011 0.67613 0.10303 0.0
C233 C 0.42582 0.62568 0.09532 0.0
N234 N 0.36021 0.56208 0.1152 0.0
N235 N 0.41631 0.76823 0.07223 0.0
C236 C 0.37275 0.61299 0.09308 0.0
C237 C 0.40197 0.71752 0.081 0.0
N238 N 0.28237 0.64283 0.06211 0.0
N239 N 0.48771 0.68377 0.13809 0.0
H240 H 0.38946 0.79939 0.05985 0.0
H241 H 0.45468 0.77941 0.07321 0.0
H242 H 0.51353 0.65344 0.16659 0.0
H243 H 0.49824 0.71911 0.14882 0.0
H244 H 0.26895 0.60622 0.05923 0.0
H245 H 0.253 0.67143 0.05148 0.0
H246 H 0.32343 0.55047 0.12422 0.0
H247 H 0.38809 0.53175 0.13166 0.0
C248 C 0.84781 0.82815 0.60427 0.0
C249 C 0.81814 0.83925 0.65005 0.0
C250 C 0.86771 0.91737 0.65325 0.0
C251 C 0.89425 0.91047 0.6011 0.0
N252 N 0.89659 0.86396 0.51469 0.0
N253 N 0.78989 0.90236 0.70214 0.0
C254 C 0.88074 0.86707 0.57306 0.0
C255 C 0.82444 0.88676 0.66842 0.0
N256 N 0.84511 0.7804 0.59095 0.0
N257 N 0.88628 0.94926 0.69365 0.0
H258 H 0.75787 0.88068 0.71487 0.0
H259 H 0.79017 0.9393 0.71085 0.0
H260 H 0.92206 0.96607 0.693 0.0
H261 H 0.87044 0.95203 0.7355 0.0
H262 H 0.87009 0.76805 0.56382 0.0
H263 H 0.82053 0.75176 0.61165 0.0
H264 H 0.8839 0.83563 0.48935 0.0
H265 H 0.917 0.89299 0.48674 0.0
C266 C 0.67592 0.34343 0.05489 0.0
C267 C 0.67596 0.29538 0.10509 0.0
C268 C 0.63124 0.33835 0.17196 0.0
C269 C 0.62418 0.3845 0.11667 0.0
N270 N 0.66086 0.43689 0.02346 0.0
N271 N 0.65302 0.24532 0.21057 0.0
C272 C 0.65243 0.38868 0.06294 0.0
C273 C 0.65389 0.29244 0.16376 0.0
N274 N 0.69641 0.34542 0.9978 0.0
N275 N 0.62019 0.33914 0.23387 0.0
H276 H 0.67135 0.21161 0.20773 0.0
H277 H 0.63147 0.23879 0.24958 0.0
H278 H 0.61079 0.37324 0.24519 0.0
H279 H 0.62778 0.30783 0.2773 0.0
H280 H 0.69119 0.37734 0.95494 0.0
H281 H 0.7162 0.31381 0.99144 0.0
H282 H 0.68624 0.44368 0.98888 0.0
H283 H 0.64751 0.4709 0.03168 0.0
C284 C 0.18884 0.88918 0.15896 0.0
C285 C 0.16802 0.85004 0.12728 0.0
C286 C 0.10236 0.83269 0.20142 0.0
C287 C 0.11764 0.87753 0.22432 0.0
N288 N 0.17658 0.94741 0.22881 0.0
N289 N 0.10701 0.78235 0.11948 0.0
C290 C 0.16195 0.90486 0.20519 0.0
C291 C 0.12592 0.82046 0.14991 0.0
N292 N 0.23404 0.91165 0.14391 0.0
N293 N 0.06492 0.80226 0.22872 0.0
H294 H 0.12503 0.77095 0.0842 0.0
H295 H 0.07274 0.76326 0.127 0.0
H296 H 0.04694 0.81075 0.26596 0.0
H297 H 0.05449 0.76667 0.21889 0.0
H298 H 0.254 0.93745 0.16878 0.0
H299 H 0.25398 0.90119 0.10975 0.0
H300 H 0.20444 0.97313 0.21113 0.0
H301 H 0.1592 0.95818 0.26506 0.0
C302 C 0.63393 0.59517 0.84651 0.0
C303 C 0.62251 0.64894 0.81503 0.0
C304 C 0.55747 0.64762 0.88836 0.0
C305 C 0.56924 0.59359 0.919 0.0
N306 N 0.60061 0.51384 0.9041 0.0
N307 N 0.56708 0.72467 0.79661 0.0
C308 C 0.60237 0.56675 0.89149 0.0
C309 C 0.58229 0.67478 0.83322 0.0
N310 N 0.67584 0.57121 0.83499 0.0
N311 N 0.52316 0.67296 0.91238 0.0
H312 H 0.58474 0.7455 0.75667 0.0
H313 H 0.53498 0.74438 0.80242 0.0
H314 H 0.50274 0.65379 0.95019 0.0
H315 H 0.5167 0.71323 0.89769 0.0
H316 H 0.68857 0.5333 0.86226 0.0
H317 H 0.70074 0.59069 0.80321 0.0
H318 H 0.6199 0.49251 0.87954 0.0
H319 H 0.57479 0.49238 0.93265 0.0
C320 C 0.9109 0.14741 0.26254 0.0
C321 C 0.86809 0.12083 0.23607 0.0
C322 C 0.88864 0.04505 0.33601 0.0
C323 C 0.93194 0.07131 0.3623 0.0
N324 N 0.98629 0.14586 0.35093 0.0
N325 N 0.81185 0.0476 0.24885 0.0
C326 C 0.94372 0.122 0.32537 0.0
C327 C 0.85562 0.07058 0.27336 0.0
N328 N 0.91849 0.1979 0.22866 0.0
N329 N 0.88094 0.99453 0.36935 0.0
H330 H 0.78812 0.06397 0.20176 0.0
H331 H 0.79693 0.01378 0.27625 0.0
H332 H 0.90483 0.97464 0.41463 0.0
H333 H 0.85347 0.97072 0.35059 0.0
H334 H 0.94621 0.22175 0.24678 0.0
H335 H 0.89445 0.21776 0.18329 0.0
H336 H 1.00104 0.18017 0.32452 0.0
H337 H 1.00788 0.13059 0.39965 0.0
C338 C 0.33049 0.39401 0.60495 0.0
C339 C 0.35929 0.35594 0.58816 0.0
C340 C 0.41041 0.33193 0.70487 0.0
C341 C 0.3821 0.37048 0.7214 0.0
N342 N 0.32039 0.44296 0.68652 0.0
N343 N 0.43066 0.29325 0.61765 0.0
C344 C 0.34374 0.40306 0.67105 0.0
C345 C 0.40054 0.3263 0.63687 0.0
N346 N 0.28975 0.42072 0.55791 0.0
N347 N 0.4458 0.29979 0.75497 0.0
H348 H 0.42301 0.28614 0.56946 0.0
H349 H 0.46491 0.27492 0.6477 0.0
H350 H 0.45624 0.30482 0.80411 0.0
H351 H 0.46327 0.26674 0.74928 0.0
H352 H 0.26329 0.44468 0.5687 0.0
H353 H 0.28034 0.41686 0.50812 0.0
H354 H 0.29606 0.47166 0.65079 0.0
H355 H 0.328 0.44972 0.7349 0.0
C356 C 0.62281 0.68638 0.52648 0.0
C357 C 0.66208 0.6639 0.58346 0.0
C358 C 0.67914 0.59476 0.53054 0.0
C359 C 0.63504 0.61292 0.47869 0.0
N360 N 0.56454 0.6755 0.42534 0.0
N361 N 0.7277 0.59682 0.64185 0.0
C362 C 0.60715 0.65907 0.47558 0.0
C363 C 0.69083 0.61851 0.58559 0.0
N364 N 0.60073 0.73385 0.52131 0.0
N365 N 0.70968 0.55472 0.52697 0.0
H366 H 0.73883 0.61424 0.68184 0.0
H367 H 0.7455 0.5603 0.65094 0.0
H368 H 0.70151 0.53581 0.48806 0.0
H369 H 0.74521 0.54283 0.55912 0.0
H370 H 0.57517 0.75491 0.47839 0.0
H371 H 0.61114 0.75428 0.55832 0.0
H372 H 0.53871 0.7051 0.42431 0.0
H373 H 0.55357 0.65775 0.38562 0.0
C374 C 0.87514 0.19739 0.94091 0.0
C375 C 0.85892 0.15215 0.9856 0.0
C376 C 0.90234 0.0965 0.93287 0.0
C377 C 0.91561 0.14173 0.88536 0.0
N378 N 0.90475 0.23449 0.83413 0.0
N379 N 0.84711 0.05922 0.01464 0.0
C380 C 0.89888 0.192 0.88628 0.0
C381 C 0.86945 0.10182 0.97859 0.0
N382 N 0.87022 0.24527 0.95253 0.0
N383 N 0.92293 0.04873 0.93639 0.0
H384 H 0.82229 0.06179 0.04797 0.0
H385 H 0.84918 0.02224 1.00671 0.0
H386 H 0.94734 0.04317 0.90399 0.0
H387 H 0.91937 0.01529 0.97507 0.0
H388 H 0.88667 0.27867 0.92631 0.0
H389 H 0.85356 0.251 0.99238 0.0
H390 H 0.88851 0.27127 0.82833 0.0
H391 H 0.92165 0.23197 0.79296 0.0
C392 C 0.39315 0.44996 0.32072 0.0
C393 C 0.39934 0.39569 0.3521 0.0
C394 C 0.46653 0.3894 0.28547 0.0
C395 C 0.46075 0.44421 0.25391 0.0
N396 N 0.43015 0.52819 0.26053 0.0
N397 N 0.44856 0.31531 0.3758 0.0
C398 C 0.42782 0.47504 0.27744 0.0
C399 C 0.438 0.36584 0.33773 0.0
N400 N 0.35278 0.47747 0.3302 0.0
N401 N 0.50012 0.35981 0.26638 0.0
H402 H 0.42811 0.29673 0.41392 0.0
H403 H 0.47996 0.29273 0.37381 0.0
H404 H 0.5256 0.37596 0.23411 0.0
H405 H 0.50172 0.31921 0.28035 0.0
H406 H 0.3422 0.51562 0.30181 0.0
H407 H 0.32692 0.46074 0.36214 0.0
H408 H 0.41151 0.55158 0.28305 0.0
H409 H 0.45404 0.54923 0.2289 0.0
C410 C 0.09052 0.88444 0.83983 0.0
C411 C 0.13266 0.90854 0.87173 0.0
C412 C 0.11562 0.98832 0.77677 0.0
C413 C 0.07621 0.96243 0.7408 0.0
N414 N 0.01433 0.89335 0.75201 0.0
N415 N 0.18999 0.98029 0.86877 0.0
C416 C 0.06042 0.91251 0.77638 0.0
C417 C 0.1462 0.95971 0.83993 0.0
N418 N 0.08072 0.83346 0.86866 0.0
N419 N 0.12225 0.04076 0.7542 0.0
H420 H 0.21193 0.96183 0.91643 0.0
H421 H 0.20702 0.01361 0.84331 0.0
H422 H 0.09961 0.06553 0.712 0.0
H423 H 0.14617 0.06194 0.78266 0.0
H424 H 0.05602 0.81086 0.84326 0.0
H425 H 0.10028 0.81213 0.91652 0.0
H426 H 0.9976 0.86048 0.77895 0.0
H427 H 0.98948 0.91339 0.70812 0.0
loop_
_geom_bond_atom_site_label_1
_geom_bond_atom_site_label_2
_geom_bond_distance
_geom_bond_site_symmetry_2
_ccdc_geom_bond_type
H0 C3 0.929 . S
H1 C6 0.929 . S
H2 C8 0.930 . S
C3 H0 0.929 . S
C3 C4 1.398 1_554 S
C3 C5 1.396 . S
C4 C3 1.398 1_556 S
C4 C8 1.407 . S
C5 C3 1.396 . S
C5 C6 1.394 . S
C6 H1 0.929 . S
C6 C5 1.394 . S
C6 C7 1.382 . S
C7 C6 1.382 . S
C7 C8 1.392 1_554 S
C7 N9 1.420 . S
C8 H2 0.930 . S
C8 C4 1.407 . S
C8 C7 1.392 1_556 S
N9 C7 1.420 . S
N9 C10 1.244 . S
C10 N9 1.244 . S
H11 C14 0.929 . S
H12 C17 0.929 . S
H13 C19 0.930 . S
C14 H11 0.929 . S
C14 C15 1.398 . S
C14 C16 1.396 . S
C15 C14 1.398 . S
C15 C19 1.407 . S
C16 C14 1.396 . S
C16 C17 1.394 . S
C17 H12 0.929 . S
C17 C16 1.394 . S
C17 C18 1.382 . S
C18 C17 1.382 . S
C18 C19 1.392 . S
C18 N20 1.420 . S
C19 H13 0.930 . S
C19 C15 1.407 . S
C19 C18 1.392 . S
N20 C18 1.420 . S
N20 C21 1.244 . S
C21 N20 1.244 . S
H22 C25 0.929 . S
H23 C28 0.929 . S
H24 C30 0.930 1_556 S
C25 H22 0.929 . S
C25 C26 1.398 . S
C25 C27 1.396 . S
C26 C25 1.398 . S
C26 C30 1.407 . S
C27 C25 1.396 . S
C27 C28 1.394 . S
C28 H23 0.929 . S
C28 C27 1.394 . S
C28 C29 1.382 . S
C29 C28 1.382 . S
C29 C30 1.392 . S
C29 N31 1.420 . S
C30 H24 0.930 1_554 S
C30 C26 1.407 . S
C30 C29 1.392 . S
N31 C29 1.420 . S
N31 C32 1.244 . S
C32 N31 1.244 . S
H33 C36 0.929 . S
H34 C39 0.929 . S
H35 C41 0.930 . S
C36 H33 0.929 . S
C36 C37 1.398 . S
C36 C38 1.396 . S
C37 C36 1.398 . S
C37 C41 1.407 . S
C38 C36 1.396 . S
C38 C39 1.394 . S
C39 H34 0.929 . S
C39 C38 1.394 . S
C39 C40 1.382 . S
C40 C39 1.382 . S
C40 C41 1.392 . S
C40 N42 1.420 . S
C41 H35 0.930 . S
C41 C37 1.407 . S
C41 C40 1.392 . S
N42 C40 1.420 . S
N42 C43 1.244 . S
C43 N42 1.244 . S
C44 C46 1.422 . S
C44 C48 1.415 . S
C44 N50 1.369 . S
C45 C46 1.421 . S
C45 C47 1.417 . S
C45 C57 1.422 . S
C46 C44 1.422 . S
C46 C45 1.421 . S
C46 N56 1.359 . S
C47 C45 1.417 . S
C47 C49 1.329 . S
C47 H66 0.930 . S
C48 C44 1.415 . S
C48 C49 1.437 . S
C48 C52 1.413 . S
C49 C47 1.329 . S
C49 C48 1.437 . S
C49 H71 0.929 . S
N50 C44 1.369 . S
N50 C51 1.338 1_655 S
N50 Gd55 2.622 . S
C51 N50 1.338 1_455 S
C51 C53 1.378 . S
C51 H63 0.929 . S
C52 C48 1.413 . S
C52 C53 1.348 1_655 S
C52 H68 0.931 . S
C53 C51 1.378 . S
C53 C52 1.348 1_455 S
C53 H69 0.930 . S
Gd54 N74 2.622 . S
Gd54 N81 2.570 . S
Gd54 O88 2.353 1_465 S
Gd54 O89 2.468 . S
Gd54 O90 2.427 . S
Gd54 O92 2.388 1_455 S
Gd54 O93 2.386 . S
Gd54 O97 2.307 1_565 S
Gd54 C107 2.805 . S
Gd55 N50 2.622 . S
Gd55 N56 2.570 . S
Gd55 O87 2.386 . S
Gd55 O91 2.307 1_545 S
Gd55 O94 2.353 1_655 S
Gd55 O95 2.468 . S
Gd55 O96 2.427 . S
Gd55 O98 2.388 1_655 S
Gd55 C119 2.805 . S
N56 C46 1.359 . S
N56 Gd55 2.570 . S
N56 C58 1.343 . S
C57 C45 1.422 . S
C57 C59 1.321 . S
C57 H65 0.931 . S
C58 N56 1.343 . S
C58 C59 1.390 . S
C58 H60 0.931 . S
C59 C57 1.321 . S
C59 C58 1.390 . S
C59 H61 0.930 . S
H60 C58 0.931 . S
H61 C59 0.930 . S
H62 C85 0.931 . S
H63 C51 0.929 . S
H64 C86 0.930 . S
H65 C57 0.931 . S
H66 C47 0.930 . S
H67 C76 0.929 1_655 S
H68 C52 0.931 . S
H69 C53 0.930 . S
H70 C108 0.930 . S
H71 C49 0.929 . S
H72 C77 0.931 . S
H73 C78 0.930 1_655 S
N74 Gd54 2.622 . S
N74 C75 1.369 . S
N74 C76 1.338 . S
C75 N74 1.369 . S
C75 C79 1.415 . S
C75 C82 1.422 . S
C76 H67 0.929 1_455 S
C76 N74 1.338 . S
C76 C78 1.378 . S
C77 H72 0.931 . S
C77 C78 1.348 . S
C77 C79 1.413 . S
C78 H73 0.930 1_455 S
C78 C76 1.378 . S
C78 C77 1.348 . S
C79 C75 1.415 . S
C79 C77 1.413 . S
C79 C109 1.437 . S
H80 C109 0.929 . S
N81 Gd54 2.570 . S
N81 C82 1.359 . S
N81 C85 1.343 . S
C82 C75 1.422 . S
C82 N81 1.359 . S
C82 C84 1.421 . S
C83 C84 1.422 . S
C83 C86 1.321 . S
C83 H110 0.931 . S
C84 C82 1.421 . S
C84 C83 1.422 . S
C84 C108 1.417 . S
C85 H62 0.931 . S
C85 N81 1.343 . S
C85 C86 1.390 . S
C86 H64 0.930 . S
C86 C83 1.321 . S
C86 C85 1.390 . S
O87 Gd55 2.386 . S
O87 C99 1.265 . S
O88 Gd54 2.353 1_645 S
O88 C99 1.242 . S
O89 Gd54 2.468 . S
O89 C107 1.263 . S
O90 Gd54 2.427 . S
O90 C107 1.252 . S
O91 Gd55 2.307 1_565 S
O91 C100 1.261 . S
O92 Gd54 2.388 1_655 S
O92 C100 1.252 . S
O93 Gd54 2.386 . S
O93 C111 1.265 . S
O94 Gd55 2.353 1_455 S
O94 C111 1.242 1_545 S
O95 Gd55 2.468 . S
O95 C119 1.263 . S
O96 Gd55 2.427 . S
O96 C119 1.252 . S
O97 Gd54 2.307 1_545 S
O97 C112 1.261 . S
O98 Gd55 2.388 1_455 S
O98 C112 1.252 . S
C99 O87 1.265 . S
C99 O88 1.242 . S
C100 O91 1.261 . S
C100 O92 1.252 . S
C101 C104 1.394 . S
C101 C106 1.370 . S
C101 C107 1.500 . S
C102 C105 1.383 . S
C102 C106 1.395 . S
C103 C104 1.396 . S
C103 C105 1.365 . S
C103 H120 0.929 . S
C104 C101 1.394 . S
C104 C103 1.396 . S
C104 H121 0.930 . S
C105 C102 1.383 . S
C105 C103 1.365 . S
C105 H122 0.931 . S
C106 C101 1.370 . S
C106 C102 1.395 . S
C106 H123 0.930 . S
C107 Gd54 2.805 . S
C107 O89 1.263 . S
C107 O90 1.252 . S
C107 C101 1.500 . S
C108 H70 0.930 . S
C108 C84 1.417 . S
C108 C109 1.329 . S
C109 C79 1.437 . S
C109 H80 0.929 . S
C109 C108 1.329 . S
H110 C83 0.931 . S
C111 O93 1.265 . S
C111 O94 1.242 1_565 S
C112 O97 1.261 . S
C112 O98 1.252 . S
C113 C116 1.394 . S
C113 C118 1.370 . S
C113 C119 1.500 . S
C114 C117 1.383 . S
C114 C118 1.395 . S
C115 C116 1.396 . S
C115 C117 1.365 . S
C115 H124 0.929 . S
C116 C113 1.394 . S
C116 C115 1.396 . S
C116 H125 0.930 . S
C117 C114 1.383 . S
C117 C115 1.365 . S
C117 H126 0.931 . S
C118 C113 1.370 . S
C118 C114 1.395 . S
C118 H127 0.930 . S
C119 Gd55 2.805 . S
C119 O95 1.263 . S
C119 O96 1.252 . S
C119 C113 1.500 . S
H120 C103 0.929 . S
H121 C104 0.930 . S
H122 C105 0.931 . S
H123 C106 0.930 . S
H124 C115 0.929 . S
H125 C116 0.930 . S
H126 C117 0.931 . S
H127 C118 0.930 . S
C128 C130 1.422 . S
C128 C132 1.415 . S
C128 N134 1.369 . S
C129 C130 1.421 . S
C129 C131 1.417 . S
C129 C141 1.422 . S
C130 C128 1.422 . S
C130 C129 1.421 . S
C130 N140 1.359 . S
C131 C129 1.417 . S
C131 C133 1.329 . S
C131 H150 0.930 . S
C132 C128 1.415 . S
C132 C133 1.437 . S
C132 C136 1.413 . S
C133 C131 1.329 . S
C133 C132 1.437 . S
C133 H155 0.929 . S
N134 C128 1.369 . S
N134 C135 1.338 . S
N134 Gd139 2.622 . S
C135 N134 1.338 . S
C135 C137 1.378 . S
C135 H147 0.929 . S
C136 C132 1.413 . S
C136 C137 1.348 . S
C136 H152 0.931 . S
C137 C135 1.378 . S
C137 C136 1.348 . S
C137 H153 0.930 . S
Gd138 N158 2.622 . S
Gd138 N165 2.570 . S
Gd138 O172 2.353 1_554 S
Gd138 O173 2.468 1_554 S
Gd138 O174 2.427 1_554 S
Gd138 O176 2.388 . S
Gd138 O177 2.386 . S
Gd138 O181 2.307 . S
Gd138 C191 2.805 1_554 S
Gd139 N134 2.622 . S
Gd139 N140 2.570 . S
Gd139 O171 2.386 . S
Gd139 O175 2.307 . S
Gd139 O178 2.353 . S
Gd139 O179 2.468 . S
Gd139 O180 2.427 . S
Gd139 O182 2.388 . S
Gd139 C203 2.805 . S
N140 C130 1.359 . S
N140 Gd139 2.570 . S
N140 C142 1.343 . S
C141 C129 1.422 . S
C141 C143 1.321 . S
C141 H149 0.931 . S
C142 N140 1.343 . S
C142 C143 1.390 . S
C142 H144 0.931 . S
C143 C141 1.321 . S
C143 C142 1.390 . S
C143 H145 0.930 . S
H144 C142 0.931 . S
H145 C143 0.930 . S
H146 C169 0.931 . S
H147 C135 0.929 . S
H148 C170 0.930 . S
H149 C141 0.931 . S
H150 C131 0.930 . S
H151 C160 0.929 . S
H152 C136 0.931 . S
H153 C137 0.930 . S
H154 C192 0.930 . S
H155 C133 0.929 . S
H156 C161 0.931 . S
H157 C162 0.930 . S
N158 Gd138 2.622 . S
N158 C159 1.369 . S
N158 C160 1.338 1_554 S
C159 N158 1.369 . S
C159 C163 1.415 . S
C159 C166 1.422 . S
C160 H151 0.929 . S
C160 N158 1.338 1_556 S
C160 C162 1.378 . S
C161 H156 0.931 . S
C161 C162 1.348 1_554 S
C161 C163 1.413 . S
C162 H157 0.930 . S
C162 C160 1.378 . S
C162 C161 1.348 1_556 S
C163 C159 1.415 . S
C163 C161 1.413 . S
C163 C193 1.437 . S
H164 C193 0.929 . S
N165 Gd138 2.570 . S
N165 C166 1.359 . S
N165 C169 1.343 . S
C166 C159 1.422 . S
C166 N165 1.359 . S
C166 C168 1.421 . S
C167 C168 1.422 . S
C167 C170 1.321 . S
C167 H194 0.931 . S
C168 C166 1.421 . S
C168 C167 1.422 . S
C168 C192 1.417 . S
C169 H146 0.931 . S
C169 N165 1.343 . S
C169 C170 1.390 . S
C170 H148 0.930 . S
C170 C167 1.321 . S
C170 C169 1.390 . S
O171 Gd139 2.386 . S
O171 C183 1.265 1_554 S
O172 Gd138 2.353 1_556 S
O172 C183 1.242 . S
O173 Gd138 2.468 1_556 S
O173 C191 1.263 . S
O174 Gd138 2.427 1_556 S
O174 C191 1.252 . S
O175 Gd139 2.307 . S
O175 C184 1.261 . S
O176 Gd138 2.388 . S
O176 C184 1.252 . S
O177 Gd138 2.386 . S
O177 C195 1.265 . S
O178 Gd139 2.353 . S
O178 C195 1.242 . S
O179 Gd139 2.468 . S
O179 C203 1.263 . S
O180 Gd139 2.427 . S
O180 C203 1.252 . S
O181 Gd138 2.307 . S
O181 C196 1.261 . S
O182 Gd139 2.388 . S
O182 C196 1.252 . S
C183 O171 1.265 1_556 S
C183 O172 1.242 . S
C184 O175 1.261 . S
C184 O176 1.252 . S
C185 C188 1.394 . S
C185 C190 1.370 . S
C185 C191 1.500 . S
C186 C189 1.383 . S
C186 C190 1.395 . S
C187 C188 1.396 . S
C187 C189 1.365 . S
C187 H204 0.929 . S
C188 C185 1.394 . S
C188 C187 1.396 . S
C188 H205 0.930 . S
C189 C186 1.383 . S
C189 C187 1.365 . S
C189 H206 0.931 . S
C190 C185 1.370 . S
C190 C186 1.395 . S
C190 H207 0.930 . S
C191 Gd138 2.805 1_556 S
C191 O173 1.263 . S
C191 O174 1.252 . S
C191 C185 1.500 . S
C192 H154 0.930 . S
C192 C168 1.417 . S
C192 C193 1.329 . S
C193 C163 1.437 . S
C193 H164 0.929 . S
C193 C192 1.329 . S
H194 C167 0.931 . S
C195 O177 1.265 . S
C195 O178 1.242 . S
C196 O181 1.261 . S
C196 O182 1.252 . S
C197 C200 1.394 . S
C197 C202 1.370 . S
C197 C203 1.500 . S
C198 C201 1.383 . S
C198 C202 1.395 . S
C199 C200 1.396 . S
C199 C201 1.365 . S
C199 H208 0.929 . S
C200 C197 1.394 . S
C200 C199 1.396 . S
C200 H209 0.930 . S
C201 C198 1.383 . S
C201 C199 1.365 . S
C201 H210 0.931 . S
C202 C197 1.370 . S
C202 C198 1.395 . S
C202 H211 0.930 . S
C203 Gd139 2.805 . S
C203 O179 1.263 . S
C203 O180 1.252 . S
C203 C197 1.500 . S
H204 C187 0.929 . S
H205 C188 0.930 . S
H206 C189 0.931 . S
H207 C190 0.930 . S
H208 C199 0.929 . S
H209 C200 0.930 . S
H210 C201 0.931 . S
H211 C202 0.930 . S
C212 C213 1.363 . S
C212 C218 1.379 . S
C212 N220 1.356 . S
C213 C212 1.363 . S
C213 C219 1.363 . S
C214 C215 1.363 . S
C214 C219 1.379 . S
C214 N221 1.356 . S
C215 C214 1.363 . S
C215 C218 1.363 . S
N216 C218 1.356 . S
N216 H228 0.984 . S
N216 H229 0.985 . S
N217 C219 1.356 . S
N217 H222 0.984 . S
N217 H223 0.985 . S
C218 C212 1.379 . S
C218 C215 1.363 . S
C218 N216 1.356 . S
C219 C213 1.363 . S
C219 C214 1.379 . S
C219 N217 1.356 . S
N220 C212 1.356 . S
N220 H226 0.984 . S
N220 H227 0.984 . S
N221 C214 1.356 . S
N221 H224 0.984 . S
N221 H225 0.985 . S
H222 N217 0.984 . S
H223 N217 0.985 . S
H224 N221 0.984 . S
H225 N221 0.985 . S
H226 N220 0.984 . S
H227 N220 0.984 . S
H228 N216 0.984 . S
H229 N216 0.985 . S
C230 C231 1.363 . S
C230 C236 1.379 . S
C230 N238 1.356 1_554 S
C231 C230 1.363 . S
C231 C237 1.363 . S
C232 C233 1.363 . S
C232 C237 1.379 . S
C232 N239 1.356 . S
C233 C232 1.363 . S
C233 C236 1.363 . S
N234 C236 1.356 1_556 S
N234 H246 0.984 . S
N234 H247 0.985 1_556 S
N235 C237 1.356 . S
N235 H240 0.984 . S
N235 H241 0.985 . S
C236 C230 1.379 . S
C236 C233 1.363 . S
C236 N234 1.356 1_554 S
C237 C231 1.363 . S
C237 C232 1.379 . S
C237 N235 1.356 . S
N238 C230 1.356 1_556 S
N238 H244 0.984 . S
N238 H245 0.984 1_556 S
N239 C232 1.356 . S
N239 H242 0.984 . S
N239 H243 0.985 . S
H240 N235 0.984 . S
H241 N235 0.985 . S
H242 N239 0.984 . S
H243 N239 0.985 . S
H244 N238 0.984 . S
H245 N238 0.984 1_554 S
H246 N234 0.984 . S
H247 N234 0.985 1_554 S
C248 C249 1.363 . S
C248 C254 1.379 . S
C248 N256 1.356 . S
C249 C248 1.363 . S
C249 C255 1.363 . S
C250 C251 1.363 . S
C250 C255 1.379 . S
C250 N257 1.356 . S
C251 C250 1.363 . S
C251 C254 1.363 . S
N252 C254 1.356 . S
N252 H264 0.984 . S
N252 H265 0.985 . S
N253 C255 1.356 . S
N253 H258 0.984 . S
N253 H259 0.985 . S
C254 C248 1.379 . S
C254 C251 1.363 . S
C254 N252 1.356 . S
C255 C249 1.363 . S
C255 C250 1.379 . S
C255 N253 1.356 . S
N256 C248 1.356 . S
N256 H262 0.984 . S
N256 H263 0.984 . S
N257 C250 1.356 . S
N257 H260 0.984 . S
N257 H261 0.985 . S
H258 N253 0.984 . S
H259 N253 0.985 . S
H260 N257 0.984 . S
H261 N257 0.985 . S
H262 N256 0.984 . S
H263 N256 0.984 . S
H264 N252 0.984 . S
H265 N252 0.985 . S
C266 C267 1.363 . S
C266 C272 1.379 . S
C266 N274 1.356 1_554 S
C267 C266 1.363 . S
C267 C273 1.363 . S
C268 C269 1.363 . S
C268 C273 1.379 . S
C268 N275 1.356 . S
C269 C268 1.363 . S
C269 C272 1.363 . S
N270 C272 1.356 1_556 S
N270 H282 0.984 . S
N270 H283 0.994 . S
N271 C273 1.356 . S
N271 H276 0.984 . S
N271 H277 0.985 . S
C272 C266 1.379 . S
C272 C269 1.363 . S
C272 N270 1.356 1_554 S
C273 C267 1.363 . S
C273 C268 1.379 . S
C273 N271 1.356 . S
N274 C266 1.356 1_556 S
N274 H280 0.984 . S
N274 H281 0.984 1_556 S
N275 C268 1.356 . S
N275 H278 0.984 . S
N275 H279 0.985 . S
H276 N271 0.984 . S
H277 N271 0.985 . S
H278 N275 0.984 . S
H279 N275 0.985 . S
H280 N274 0.984 . S
H281 N274 0.984 1_554 S
H282 N270 0.984 . S
H283 N270 0.994 . S
C284 C285 1.363 . S
C284 C290 1.379 . S
C284 N292 1.356 . S
C285 C284 1.363 . S
C285 C291 1.363 . S
C286 C287 1.363 . S
C286 C291 1.379 . S
C286 N293 1.356 . S
C287 C286 1.363 . S
C287 C290 1.363 . S
N288 C290 1.356 1_545 S
N288 H300 0.984 . S
N288 H301 0.985 . S
N289 C291 1.356 . S
N289 H294 0.984 . S
N289 H295 0.985 . S
C290 C284 1.379 . S
C290 C287 1.363 . S
C290 N288 1.356 1_565 S
C291 C285 1.363 . S
C291 C286 1.379 . S
C291 N289 1.356 . S
N292 C284 1.356 . S
N292 H298 0.984 1_565 S
N292 H299 0.984 . S
N293 C286 1.356 . S
N293 H296 0.984 . S
N293 H297 0.985 . S
H294 N289 0.984 . S
H295 N289 0.985 . S
H296 N293 0.984 . S
H297 N293 0.985 . S
H298 N292 0.984 1_545 S
H299 N292 0.984 . S
H300 N288 0.984 . S
H301 N288 0.985 . S
C302 C303 1.363 . S
C302 C308 1.379 . S
C302 N310 1.356 . S
C303 C302 1.363 . S
C303 C309 1.363 . S
C304 C305 1.363 . S
C304 C309 1.379 . S
C304 N311 1.356 . S
C305 C304 1.363 . S
C305 C308 1.363 . S
N306 C308 1.356 . S
N306 H318 0.984 . S
N306 H319 0.985 . S
N307 C309 1.356 . S
N307 H312 0.984 . S
N307 H313 0.985 . S
C308 C302 1.379 . S
C308 C305 1.363 . S
C308 N306 1.356 . S
C309 C303 1.363 . S
C309 C304 1.379 . S
C309 N307 1.356 . S
N310 C302 1.356 . S
N310 H316 0.984 . S
N310 H317 0.984 . S
N311 C304 1.356 . S
N311 H314 0.984 . S
N311 H315 0.985 . S
H312 N307 0.984 . S
H313 N307 0.985 . S
H314 N311 0.984 . S
H315 N311 0.985 . S
H316 N310 0.984 . S
H317 N310 0.984 . S
H318 N306 0.984 . S
H319 N306 0.985 . S
C320 C321 1.363 . S
C320 C326 1.379 . S
C320 N328 1.356 . S
C321 C320 1.363 . S
C321 C327 1.363 . S
C322 C323 1.363 . S
C322 C327 1.379 . S
C322 N329 1.356 1_545 S
C323 C322 1.363 . S
C323 C326 1.363 . S
N324 C326 1.356 . S
N324 H336 0.984 . S
N324 H337 0.985 . S
N325 C327 1.356 . S
N325 H330 0.984 . S
N325 H331 0.985 1_545 S
C326 C320 1.379 . S
C326 C323 1.363 . S
C326 N324 1.356 . S
C327 C321 1.363 . S
C327 C322 1.379 . S
C327 N325 1.356 . S
N328 C320 1.356 . S
N328 H334 0.984 . S
N328 H335 0.984 . S
N329 C322 1.356 1_565 S
N329 H332 0.984 . S
N329 H333 0.985 . S
H330 N325 0.984 . S
H331 N325 0.985 1_565 S
H332 N329 0.984 . S
H333 N329 0.985 . S
H334 N328 0.984 . S
H335 N328 0.984 . S
H336 N324 0.984 . S
H337 N324 0.985 . S
C338 C339 1.363 . S
C338 C344 1.379 . S
C338 N346 1.356 . S
C339 C338 1.363 . S
C339 C345 1.363 . S
C340 C341 1.363 . S
C340 C345 1.379 . S
C340 N347 1.356 . S
C341 C340 1.363 . S
C341 C344 1.363 . S
N342 C344 1.356 . S
N342 H354 0.984 . S
N342 H355 0.985 . S
N343 C345 1.356 . S
N343 H348 0.984 . S
N343 H349 0.985 . S
C344 C338 1.379 . S
C344 C341 1.363 . S
C344 N342 1.356 . S
C345 C339 1.363 . S
C345 C340 1.379 . S
C345 N343 1.356 . S
N346 C338 1.356 . S
N346 H352 0.984 . S
N346 H353 0.984 . S
N347 C340 1.356 . S
N347 H350 0.984 . S
N347 H351 0.985 . S
H348 N343 0.984 . S
H349 N343 0.985 . S
H350 N347 0.984 . S
H351 N347 0.985 . S
H352 N346 0.984 . S
H353 N346 0.984 . S
H354 N342 0.984 . S
H355 N342 0.985 . S
C356 C357 1.363 . S
C356 C362 1.379 . S
C356 N364 1.356 . S
C357 C356 1.363 . S
C357 C363 1.363 . S
C358 C359 1.363 . S
C358 C363 1.379 . S
C358 N365 1.356 . S
C359 C358 1.363 . S
C359 C362 1.363 . S
N360 C362 1.356 . S
N360 H372 0.984 . S
N360 H373 0.985 . S
N361 C363 1.356 . S
N361 H366 0.984 . S
N361 H367 0.985 . S
C362 C356 1.379 . S
C362 C359 1.363 . S
C362 N360 1.356 . S
C363 C357 1.363 . S
C363 C358 1.379 . S
C363 N361 1.356 . S
N364 C356 1.356 . S
N364 H370 0.984 . S
N364 H371 0.984 . S
N365 C358 1.356 . S
N365 H368 0.984 . S
N365 H369 0.985 . S
H366 N361 0.984 . S
H367 N361 0.985 . S
H368 N365 0.984 . S
H369 N365 0.985 . S
H370 N364 0.984 . S
H371 N364 0.984 . S
H372 N360 0.984 . S
H373 N360 0.985 . S
C374 C375 1.363 . S
C374 C380 1.379 . S
C374 N382 1.356 . S
C375 C374 1.363 . S
C375 C381 1.363 1_556 S
C376 C377 1.363 . S
C376 C381 1.379 1_556 S
C376 N383 1.368 . S
C377 C376 1.363 . S
C377 C380 1.363 . S
N378 C380 1.356 . S
N378 H390 0.984 . S
N378 H391 0.985 . S
N379 C381 1.356 . S
N379 H384 0.984 . S
N379 H385 0.985 . S
C380 C374 1.379 . S
C380 C377 1.363 . S
C380 N378 1.356 . S
C381 C375 1.363 1_554 S
C381 C376 1.379 1_554 S
C381 N379 1.356 . S
N382 C374 1.356 . S
N382 H388 0.984 . S
N382 H389 0.984 . S
N383 C376 1.368 . S
N383 H386 0.981 1_545 S
N383 H387 0.977 1_546 S
H384 N379 0.984 . S
H385 N379 0.985 . S
H386 N383 0.981 1_565 S
H387 N383 0.977 1_564 S
H388 N382 0.984 . S
H389 N382 0.984 . S
H390 N378 0.984 . S
H391 N378 0.985 . S
C392 C393 1.363 . S
C392 C398 1.379 . S
C392 N400 1.356 . S
C393 C392 1.363 . S
C393 C399 1.363 . S
C394 C395 1.363 . S
C394 C399 1.379 . S
C394 N401 1.356 . S
C395 C394 1.363 . S
C395 C398 1.363 . S
N396 C398 1.356 . S
N396 H408 0.984 . S
N396 H409 0.985 . S
N397 C399 1.356 . S
N397 H402 0.984 . S
N397 H403 0.985 . S
C398 C392 1.379 . S
C398 C395 1.363 . S
C398 N396 1.356 . S
C399 C393 1.363 . S
C399 C394 1.379 . S
C399 N397 1.356 . S
N400 C392 1.356 . S
N400 H406 0.984 . S
N400 H407 0.984 . S
N401 C394 1.356 . S
N401 H404 0.984 . S
N401 H405 0.985 . S
H402 N397 0.984 . S
H403 N397 0.985 . S
H404 N401 0.984 . S
H405 N401 0.985 . S
H406 N400 0.984 . S
H407 N400 0.984 . S
H408 N396 0.984 . S
H409 N396 0.985 . S
C410 C411 1.363 . S
C410 C416 1.379 . S
C410 N418 1.356 . S
C411 C410 1.363 . S
C411 C417 1.363 . S
C412 C413 1.363 . S
C412 C417 1.379 . S
C412 N419 1.356 1_565 S
C413 C412 1.363 . S
C413 C416 1.363 . S
N414 C416 1.356 . S
N414 H426 0.984 . S
N414 H427 0.985 . S
N415 C417 1.356 . S
N415 H420 0.984 . S
N415 H421 0.985 1_565 S
C416 C410 1.379 . S
C416 C413 1.363 . S
C416 N414 1.356 . S
C417 C411 1.363 . S
C417 C412 1.379 . S
C417 N415 1.356 . S
N418 C410 1.356 . S
N418 H424 0.984 . S
N418 H425 0.984 . S
N419 C412 1.356 1_545 S
N419 H422 0.984 . S
N419 H423 0.985 . S
H420 N415 0.984 . S
H421 N415 0.985 1_545 S
H422 N419 0.984 . S
H423 N419 0.985 . S
H424 N418 0.984 . S
H425 N418 0.984 . S
H426 N414 0.984 . S
H427 N414 0.985 . S
C215 C112 1.627 . S
C213 C43 1.638 . S
C231 C10 1.638 . S
C233 C184 1.634 . S
C249 C21 1.635 . S
C251 C100 1.648 . S
C267 C32 1.602 . S
C269 C196 1.604 . S
C287 C102 1.408 . S
C285 C5 1.586 . S
C305 C183 1.689 . S
C303 C15 1.682 . S
C321 C27 1.624 . S
C323 C99 1.650 . S
C339 C38 1.588 . S
C341 C186 1.422 . S
C359 C198 1.388 . S
C357 C16 1.554 . S
C377 C114 1.355 . S
C375 C26 1.543 1_556 S
C395 C195 1.618 . S
C393 C37 1.605 . S
C411 C4 1.568 . S
C413 C111 1.591 . S
