# Generated by pormake.
# Topology anh, (6,3)-cn, num edge types: 1
# Building blocks:
#     Node 0, Type 0, BuildingBlock: BETGAK_clean_sbu_0, # of connection points: 6
#     Node 1, Type 0, BuildingBlock: BETGAK_clean_sbu_0, # of connection points: 6
#     Node 2, Type 0, BuildingBlock: BETGAK_clean_sbu_0, # of connection points: 6
#     Node 3, Type 1, BuildingBlock: ESEHIV_clean_linker_0, # of connection points: 3
#     Node 4, Type 1, BuildingBlock: ESEHIV_clean_linker_0, # of connection points: 3
#     Node 5, Type 1, BuildingBlock: ESEHIV_clean_linker_0, # of connection points: 3
#     Node 6, Type 1, BuildingBlock: ESEHIV_clean_linker_0, # of connection points: 3
#     Node 7, Type 1, BuildingBlock: ESEHIV_clean_linker_0, # of connection points: 3
#     Node 8, Type 1, BuildingBlock: ESEHIV_clean_linker_0, # of connection points: 3
#     Edge 9, Type (0, 1), BuildingBlock: EZIPEK_clean_linker_0, # of connection points: 2
#     Edge 10, Type (0, 1), BuildingBlock: EZIPEK_clean_linker_0, # of connection points: 2
#     Edge 11, Type (0, 1), BuildingBlock: EZIPEK_clean_linker_0, # of connection points: 2
#     Edge 12, Type (0, 1), BuildingBlock: EZIPEK_clean_linker_0, # of connection points: 2
#     Edge 13, Type (0, 1), BuildingBlock: EZIPEK_clean_linker_0, # of connection points: 2
#     Edge 14, Type (0, 1), BuildingBlock: EZIPEK_clean_linker_0, # of connection points: 2
#     Edge 15, Type (0, 1), BuildingBlock: EZIPEK_clean_linker_0, # of connection points: 2
#     Edge 16, Type (0, 1), BuildingBlock: EZIPEK_clean_linker_0, # of connection points: 2
#     Edge 17, Type (0, 1), BuildingBlock: EZIPEK_clean_linker_0, # of connection points: 2
#     Edge 18, Type (0, 1), BuildingBlock: EZIPEK_clean_linker_0, # of connection points: 2
#     Edge 19, Type (0, 1), BuildingBlock: EZIPEK_clean_linker_0, # of connection points: 2
#     Edge 20, Type (0, 1), BuildingBlock: EZIPEK_clean_linker_0, # of connection points: 2
#     Edge 21, Type (0, 1), BuildingBlock: EZIPEK_clean_linker_0, # of connection points: 2
#     Edge 22, Type (0, 1), BuildingBlock: EZIPEK_clean_linker_0, # of connection points: 2
#     Edge 23, Type (0, 1), BuildingBlock: EZIPEK_clean_linker_0, # of connection points: 2
#     Edge 24, Type (0, 1), BuildingBlock: EZIPEK_clean_linker_0, # of connection points: 2
#     Edge 25, Type (0, 1), BuildingBlock: EZIPEK_clean_linker_0, # of connection points: 2
#     Edge 26, Type (0, 1), BuildingBlock: EZIPEK_clean_linker_0, # of connection points: 2
# Relax obj value: 0.290
# Max RMSD: 0.258
# Mean RMSD: 0.181
data_MOF--net-anh--node1-BETGAK_clean_sbu_0--node2-ESEHIV_clean_linker_0--edge1-EZIPEK_clean_linker_0
_symmetry_space_group_name_H-M    P1
_symmetry_Int_Tables_number       1
_symmetry_cell_setting            triclinic
loop_
_symmetry_equiv_pos_as_xyz
'x, y, z'
_cell_length_a     20.047697
_cell_length_b     26.102329
_cell_length_c     37.787542
_cell_angle_alpha  91.559239
_cell_angle_beta   89.689839
_cell_angle_gamma 132.89771
loop_
_atom_site_label
_atom_site_type_symbol
_atom_site_fract_x
_atom_site_fract_y
_atom_site_fract_z
_atom_type_partial_charge
La0 La 0.25548 0.54216 0.14266 0.0
La1 La 1.11224 0.5441 0.1633 0.0
C2 C 0.39599 0.58073 0.1141 0.0
C3 C 0.4857 0.65291 0.11246 0.0
C4 C 0.51645 0.70074 0.14078 0.0
C5 C 0.60273 0.76759 0.14079 0.0
C6 C 0.66567 0.78526 0.11492 0.0
C7 C 0.63105 0.74059 0.08427 0.0
C8 C 0.54168 0.67489 0.08318 0.0
C9 C 0.21075 0.51903 0.20975 0.0
C10 C 0.31177 0.69008 0.16002 0.0
C11 C 1.00032 0.53624 0.19829 0.0
C12 C 0.90138 0.47853 0.20116 0.0
C13 C 0.8454 0.4452 0.17077 0.0
C14 C 0.75177 0.403 0.17368 0.0
C15 C 0.71503 0.39766 0.20683 0.0
C16 C 0.76694 0.41329 0.23726 0.0
C17 C 0.86128 0.45699 0.23455 0.0
C18 C 1.11938 0.52416 0.09483 0.0
C19 C 1.05467 0.39806 0.1487 0.0
O20 O 0.37084 0.55553 0.14585 0.0
O21 O 0.32966 0.56721 0.09606 0.0
O22 O 0.23515 0.49105 0.19187 0.0
O23 O 0.2191 0.56186 0.19058 0.0
O24 O 0.33604 0.65429 0.15463 0.0
O25 O 0.22504 0.65784 0.16281 0.0
O26 O 1.03076 0.5671 0.16767 0.0
O27 O 1.04836 0.52413 0.21167 0.0
O28 O 1.04515 0.49859 0.11075 0.0
O29 O 0.18431 0.56322 0.1166 0.0
O30 O 1.03956 0.43356 0.16639 0.0
O31 O 1.13199 0.43106 0.13129 0.0
H32 H 0.47659 0.68556 0.16428 0.0
H33 H 0.62441 0.80115 0.16402 0.0
H34 H 0.67503 0.75236 0.06274 0.0
H35 H 0.51864 0.63961 0.06057 0.0
H36 H 0.87426 0.45666 0.14463 0.0
H37 H 0.7126 0.38696 0.1494 0.0
H38 H 0.73828 0.40346 0.26329 0.0
H39 H 0.9031 0.47815 0.25845 0.0
La40 La 0.77827 0.06631 0.46605 0.0
La41 La 0.65451 0.08782 0.45724 0.0
C42 C 0.85803 1.03043 0.48967 0.0
C43 C 0.82852 0.96587 0.50364 0.0
C44 C 0.87222 0.94342 0.49265 0.0
C45 C 0.84667 0.8832 0.50642 0.0
C46 C 0.77756 0.84518 0.53151 0.0
C47 C 0.73296 0.86701 0.54218 0.0
C48 C 0.75798 0.92684 0.52824 0.0
C49 C 0.75572 0.08082 0.39904 0.0
C50 C 0.5653 0.93257 0.45433 0.0
C51 C 0.57832 0.13148 0.44241 0.0
C52 C 0.58104 0.18183 0.46229 0.0
C53 C 0.54915 0.21024 0.44703 0.0
C54 C 0.5571 0.26122 0.46578 0.0
C55 C 0.59695 0.2839 0.49986 0.0
C56 C 0.62829 0.25509 0.51509 0.0
C57 C 0.62058 0.20449 0.4964 0.0
C58 C 0.67868 0.07463 0.52405 0.0
C59 C 0.87092 0.22018 0.45956 0.0
O60 O 0.84245 1.02898 0.45595 0.0
O61 O 0.83866 0.06112 0.50893 0.0
O62 O 0.83217 0.10651 0.41347 0.0
O63 O 0.69474 0.04751 0.42212 0.0
O64 O 0.64387 0.95795 0.46814 0.0
O65 O 0.55752 0.97619 0.44351 0.0
O66 O 0.53746 0.07282 0.45811 0.0
O67 O 0.65645 0.15776 0.42969 0.0
O68 O 0.60527 0.05595 0.51135 0.0
O69 O 0.73777 0.10628 0.50048 0.0
O70 O 0.78933 0.19343 0.44915 0.0
O71 O 0.88159 0.17961 0.47226 0.0
H72 H 0.92653 0.97277 0.47364 0.0
H73 H 0.88144 0.8667 0.49791 0.0
H74 H 0.6793 0.83797 0.56146 0.0
H75 H 0.72282 0.94289 0.53701 0.0
H76 H 0.5193 0.19367 0.4206 0.0
H77 H 0.53303 0.2834 0.4537 0.0
H78 H 0.65959 0.27238 0.54128 0.0
H79 H 0.64659 0.18366 0.50837 0.0
La80 La 0.73044 0.59736 0.85097 0.0
La81 La 0.60119 0.44296 0.85974 0.0
C82 C 0.83035 0.71431 0.82243 0.0
C83 C 0.81632 0.7601 0.81043 0.0
C84 C 0.86381 0.82616 0.82681 0.0
C85 C 0.85178 0.86982 0.81479 0.0
C86 C 0.79285 0.84831 0.78597 0.0
C87 C 0.7454 0.78247 0.76964 0.0
C88 C 0.75667 0.73873 0.78175 0.0
C89 C 0.67684 0.55791 0.91697 0.0
C90 C 0.51914 0.51425 0.86064 0.0
C91 C 0.52678 0.31974 0.87285 0.0
C92 C 0.54692 0.28039 0.85549 0.0
C93 C 0.51967 0.21978 0.86998 0.0
C94 C 0.53998 0.18362 0.85262 0.0
C95 C 0.58812 0.20818 0.82077 0.0
C96 C 0.6155 0.26884 0.80649 0.0
C97 C 0.59483 0.30445 0.82361 0.0
C98 C 0.61756 0.48242 0.79422 0.0
C99 C 0.81791 0.53024 0.85615 0.0
O100 O 0.83226 0.70769 0.85664 0.0
O101 O 0.78338 0.65441 0.80495 0.0
O102 O 0.69681 0.61187 0.90317 0.0
O103 O 0.69343 0.5316 0.89446 0.0
O104 O 0.59729 0.56781 0.84572 0.0
O105 O 0.51084 0.46246 0.87296 0.0
O106 O 0.49101 0.33477 0.85195 0.0
O107 O 0.5925 0.37423 0.89236 0.0
O108 O 0.54407 0.42496 0.80647 0.0
O109 O 0.67859 0.5109 0.81756 0.0
O110 O 0.73223 0.4681 0.85466 0.0
O111 O 0.83337 0.58885 0.85631 0.0
H112 H 0.91038 0.84406 0.84879 0.0
H113 H 0.88881 0.92052 0.82776 0.0
H114 H 0.69952 0.76495 0.74743 0.0
H115 H 0.71873 0.68827 0.76837 0.0
H116 H 0.48271 0.20045 0.89453 0.0
H117 H 0.51839 0.13675 0.86394 0.0
H118 H 0.65249 0.28839 0.78194 0.0
H119 H 0.61596 0.35083 0.81179 0.0
H120 H 0.60032 0.94442 0.24524 0.0
H121 H 0.83724 0.16283 0.23838 0.0
H122 H 0.67625 0.04334 0.14423 0.0
C123 C 0.64621 0.99 0.2291 0.0
C124 C 0.62832 0.98452 0.19255 0.0
C125 C 0.71946 0.05412 0.24563 0.0
C126 C 0.78032 0.1134 0.22534 0.0
C127 C 0.76699 0.11006 0.18861 0.0
C128 C 0.6892 0.04567 0.17228 0.0
H129 H 0.68291 0.63367 0.64724 0.0
H130 H 0.62454 0.44215 0.63403 0.0
H131 H 0.67529 0.55901 0.54293 0.0
C132 C 0.67269 0.59473 0.63013 0.0
C133 C 0.68128 0.60289 0.59338 0.0
C134 C 0.65265 0.53696 0.6448 0.0
C135 C 0.63998 0.48687 0.62267 0.0
C136 C 0.64755 0.49453 0.58592 0.0
C137 C 0.66856 0.5527 0.57134 0.0
H138 H 1.06223 0.53088 0.93673 0.0
H139 H 0.27015 0.5259 0.94243 0.0
H140 H 0.17305 0.52476 0.83976 0.0
C141 C 1.10873 0.52974 0.92281 0.0
C142 C 1.1102 0.53013 0.8857 0.0
C143 C 0.16593 0.52858 0.94276 0.0
C144 C 0.22662 0.52664 0.92601 0.0
C145 C 0.23039 0.52347 0.88879 0.0
C146 C 0.17145 0.52606 0.86838 0.0
H147 H 1.12051 0.44724 0.37096 0.0
H148 H 0.32664 0.66973 0.36171 0.0
H149 H 0.21489 0.58109 0.46406 0.0
C150 C 1.16425 0.49925 0.38327 0.0
C151 C 1.15973 0.50678 0.41985 0.0
C152 C 0.22275 0.55759 0.36215 0.0
C153 C 0.28058 0.62467 0.37813 0.0
C154 C 0.27968 0.63439 0.41493 0.0
C155 C 0.21746 0.57475 0.43578 0.0
H156 H 0.67774 0.12062 0.68631 0.0
H157 H 0.74814 0.99807 0.6728 0.0
H158 H 0.70788 0.04185 0.77733 0.0
C159 C 0.69418 0.09255 0.69763 0.0
C160 C 0.69118 0.08542 0.73448 0.0
C161 C 0.71482 0.06122 0.67527 0.0
C162 C 0.73378 1.02338 0.69 0.0
C163 C 0.73199 1.01672 0.72686 0.0
C164 C 0.71083 0.04793 0.74893 0.0
H165 H 0.72857 0.67165 0.0601 0.0
H166 H 0.67444 0.48741 0.08587 0.0
H167 H 0.75366 0.63817 0.16784 0.0
C168 C 0.72439 0.64026 0.07987 0.0
C169 C 0.74579 0.66358 0.11552 0.0
C170 C 0.70249 0.57862 0.06887 0.0
C171 C 0.69257 0.53565 0.09425 0.0
C172 C 0.70477 0.55471 0.1305 0.0
C173 C 0.73649 0.62051 0.14041 0.0
C174 C 0.76883 0.80834 0.15921 0.0
C175 C 0.76384 0.83033 0.12665 0.0
C176 C 0.83261 0.7895 0.10179 0.0
C177 C 0.77789 0.73315 0.12587 0.0
N178 N 0.68736 0.69395 0.18014 0.0
N179 N 0.85518 0.88513 0.07551 0.0
C180 C 0.74818 0.74487 0.15708 0.0
C181 C 0.82225 0.83851 0.1015 0.0
N182 N 0.77162 0.83715 0.19026 0.0
N183 N 0.8914 0.79498 0.07998 0.0
H184 H 0.84249 0.91792 0.07572 0.0
H185 H 0.89163 0.88959 0.05412 0.0
H186 H 0.90205 0.76114 0.08169 0.0
H187 H 0.93418 0.83588 0.06275 0.0
H188 H 0.77177 0.81935 0.21464 0.0
H189 H 0.77937 0.88103 0.19053 0.0
H190 H 0.66389 0.7037 0.20159 0.0
H191 H 0.64962 0.64107 0.17507 0.0
C192 C 0.94316 0.34631 0.46366 0.0
C193 C 0.95184 0.29729 0.45601 0.0
C194 C 1.11143 0.3958 0.44037 0.0
C195 C 1.09557 0.44097 0.44014 0.0
N196 N 0.99274 0.45796 0.44983 0.0
N197 N 1.04504 0.27737 0.43123 0.0
C198 C 1.0107 0.41617 0.45169 0.0
C199 C 1.03672 0.32256 0.44337 0.0
N200 N 0.87207 0.32697 0.4833 0.0
N201 N 0.19811 0.42303 0.43673 0.0
H202 H 0.99177 0.22337 0.43002 0.0
H203 H 1.1028 0.29389 0.41844 0.0
H204 H 0.25391 0.47663 0.43447 0.0
H205 H 0.21534 0.39366 0.43984 0.0
H206 H 0.86639 0.36207 0.49202 0.0
H207 H 0.82472 0.27794 0.49444 0.0
H208 H 0.92829 0.43979 0.45395 0.0
H209 H 1.04096 0.50965 0.44193 0.0
C210 C 0.69395 0.87366 0.77647 0.0
C211 C 0.77967 0.89406 0.77257 0.0
C212 C 0.83721 0.99909 0.74211 0.0
C213 C 0.7486 0.97445 0.74249 0.0
N214 N 0.58852 0.88203 0.75446 0.0
N215 N 0.92864 0.97001 0.74657 0.0
C216 C 0.67574 0.90999 0.75819 0.0
C217 C 0.85036 0.95524 0.75405 0.0
N218 N 0.63074 0.82066 0.79839 0.0
N219 N 0.90929 0.06517 0.7313 0.0
H220 H 0.94082 0.93907 0.75465 0.0
H221 H 0.97813 1.00946 0.72979 0.0
H222 H 0.90244 0.09896 0.72251 0.0
H223 H 0.97678 0.08872 0.734 0.0
H224 H 0.57075 0.80818 0.80511 0.0
H225 H 0.64205 0.79335 0.81256 0.0
H226 H 0.53167 0.83177 0.76209 0.0
H227 H 0.57202 0.90636 0.74072 0.0
C228 C 0.71282 0.48775 0.2165 0.0
C229 C 0.65969 0.41664 0.2075 0.0
C230 C 0.60107 0.43404 0.1574 0.0
C231 C 0.68391 0.50636 0.15844 0.0
N232 N 0.82988 0.5965 0.18907 0.0
N233 N 0.53115 0.31722 0.17429 0.0
C234 C 0.74293 0.53268 0.18843 0.0
C235 C 0.59366 0.38778 0.18024 0.0
N236 N 0.74311 0.51269 0.25029 0.0
N237 N 0.53014 0.41024 0.13575 0.0
H238 H 0.52747 0.28439 0.19122 0.0
H239 H 0.48733 0.29281 0.15228 0.0
H240 H 0.53093 0.44379 0.12098 0.0
H241 H 0.46737 0.35885 0.13573 0.0
H242 H 0.7834 0.56557 0.2572 0.0
H243 H 0.71894 0.47888 0.27117 0.0
H244 H 0.87438 0.61384 0.21043 0.0
H245 H 0.86036 0.62732 0.16684 0.0
C246 C 0.42756 0.83019 0.41756 0.0
C247 C 0.48876 0.85473 0.44671 0.0
C248 C 0.41249 0.7319 0.45583 0.0
C249 C 0.34441 0.70821 0.43013 0.0
N250 N 0.27376 0.73707 0.39544 0.0
N251 N 0.52078 0.82231 0.4993 0.0
C252 C 0.34716 0.75821 0.41431 0.0
C253 C 0.47567 0.8037 0.46768 0.0
N254 N 0.44923 0.87325 0.39079 0.0
N255 N 0.42061 0.68742 0.46776 0.0
H256 H 0.56392 0.87271 0.5103 0.0
H257 H 0.50701 0.78574 0.51658 0.0
H258 H 0.37862 0.6354 0.45899 0.0
H259 H 0.47492 0.70427 0.48377 0.0
H260 H 0.40814 0.85531 0.36819 0.0
H261 H 0.51367 0.92285 0.38812 0.0
H262 H 0.27098 0.77246 0.38543 0.0
H263 H 0.21266 0.68473 0.39334 0.0
C264 C 0.69782 0.19483 0.80617 0.0
C265 C 0.61022 0.17091 0.80165 0.0
C266 C 0.5714 0.08388 0.75694 0.0
C267 C 0.66301 0.11432 0.75805 0.0
N268 N 0.81707 0.20477 0.78048 0.0
N269 N 0.46539 0.09712 0.77068 0.0
C270 C 0.72721 0.17121 0.78197 0.0
C271 C 0.54728 0.11644 0.77652 0.0
N272 N 0.75232 0.23927 0.834 0.0
N273 N 0.50682 1.02256 0.73814 0.0
H274 H 0.44403 0.11803 0.78537 0.0
H275 H 0.42124 0.06382 0.7498 0.0
H276 H 0.52155 0.99661 0.72386 0.0
H277 H 0.43738 0.99405 0.73926 0.0
H278 H 0.81262 0.25237 0.84106 0.0
H279 H 0.73328 0.25826 0.85197 0.0
H280 H 0.86846 0.25121 0.79457 0.0
H281 H 0.84156 0.18965 0.76282 0.0
C282 C 0.66754 0.71547 0.5387 0.0
C283 C 0.75296 0.78304 0.54726 0.0
C284 C 0.79447 0.73175 0.58344 0.0
C285 C 0.70559 0.66505 0.57783 0.0
N286 N 0.55184 0.59462 0.55545 0.0
N287 N 0.89107 0.8573 0.58292 0.0
C288 C 0.64035 0.65717 0.55695 0.0
C289 C 0.81468 0.79178 0.57111 0.0
N290 N 0.61381 0.70674 0.51235 0.0
N291 N 0.86047 0.73751 0.59941 0.0
H292 H 0.90795 0.90273 0.57477 0.0
H293 H 0.93328 0.86631 0.6032 0.0
H294 H 0.8487 0.6946 0.60848 0.0
H295 H 0.92882 0.7839 0.60075 0.0
H296 H 0.55532 0.65786 0.50244 0.0
H297 H 0.63201 0.74824 0.49811 0.0
H298 H 0.49943 0.58794 0.54365 0.0
H299 H 0.52911 0.55081 0.56878 0.0
C300 C 0.97796 0.58723 0.88026 0.0
C301 C 0.89876 0.53402 0.85895 0.0
C302 C 0.96585 0.48129 0.8491 0.0
C303 C 1.04676 0.53715 0.86854 0.0
N304 N 1.13837 0.65453 0.89228 0.0
N305 N 0.8338 0.44079 0.81508 0.0
C306 C 1.05543 0.59392 0.88023 0.0
C307 C 0.89771 0.48414 0.84099 0.0
N308 N 0.97745 0.62815 0.90331 0.0
N309 N 0.95195 0.42397 0.83923 0.0
H310 H 0.78651 0.44318 0.807 0.0
H311 H 0.83427 0.40815 0.79884 0.0
H312 H 0.99992 0.42052 0.84402 0.0
H313 H 0.89091 0.37854 0.82815 0.0
H314 H 1.02994 0.66317 0.92163 0.0
H315 H 0.92003 0.62055 0.90773 0.0
H316 H 1.15157 0.69994 0.89836 0.0
H317 H 0.19599 0.66119 0.89235 0.0
C318 C 0.46131 0.8068 0.14061 0.0
C319 C 0.38628 0.76878 0.16408 0.0
C320 C 0.45873 0.88026 0.19533 0.0
C321 C 0.54214 0.91433 0.17771 0.0
N322 N 0.62329 0.90622 0.13398 0.0
N323 N 0.32242 0.7711 0.21802 0.0
C324 C 0.54342 0.87686 0.15007 0.0
C325 C 0.38665 0.80607 0.19235 0.0
N326 N 0.45357 0.77651 0.10892 0.0
N327 N 0.44831 0.91903 0.21499 0.0
H328 H 0.27173 0.71678 0.21866 0.0
H329 H 0.32575 0.79606 0.24089 0.0
H330 H 0.49852 0.9736 0.21665 0.0
H331 H 0.3865 0.89758 0.22607 0.0
H332 H 0.50268 0.80347 0.08942 0.0
H333 H 0.39377 0.72658 0.10065 0.0
H334 H 0.62918 0.87978 0.11509 0.0
H335 H 0.6856 0.9552 0.14136 0.0
C336 C 0.69648 0.40714 0.52352 0.0
C337 C 0.60831 0.33917 0.51972 0.0
C338 C 0.54451 0.37621 0.55554 0.0
C339 C 0.63396 0.44153 0.56256 0.0
N340 N 0.79658 0.51686 0.55741 0.0
N341 N 0.44984 0.25527 0.53546 0.0
C342 C 0.7105 0.45654 0.5476 0.0
C343 C 0.53248 0.32266 0.53652 0.0
N344 N 0.76626 0.42481 0.5035 0.0
N345 N 0.47109 0.36603 0.56634 0.0
H346 H 0.43809 0.21466 0.52151 0.0
H347 H 0.39475 0.23843 0.55055 0.0
H348 H 0.47733 0.40401 0.58052 0.0
H349 H 0.40425 0.32236 0.55875 0.0
H350 H 0.8298 0.47554 0.5024 0.0
H351 H 0.75829 0.38991 0.48547 0.0
H352 H 0.85498 0.52713 0.55049 0.0
H353 H 0.80963 0.55448 0.57494 0.0
C354 C 0.36898 0.47051 0.88942 0.0
C355 C 0.44057 0.51378 0.86449 0.0
C356 C 0.37168 0.56437 0.85285 0.0
C357 C 0.29511 0.51466 0.87439 0.0
N358 N 0.21071 0.40472 0.90292 0.0
N359 N 0.48717 0.58858 0.8145 0.0
C360 C 0.29041 0.46235 0.88882 0.0
C361 C 0.43523 0.55679 0.84384 0.0
N362 N 0.37821 0.44182 0.9163 0.0
N363 N 0.38661 0.62069 0.84175 0.0
H364 H 0.52788 0.58071 0.80431 0.0
H365 H 0.48022 0.61543 0.79741 0.0
H366 H 0.34281 0.62815 0.84755 0.0
H367 H 0.44647 0.66267 0.82947 0.0
H368 H 0.33028 0.41378 0.93618 0.0
H369 H 0.43939 0.45595 0.92241 0.0
H370 H 0.20138 0.36258 0.91147 0.0
H371 H 1.15162 0.39606 0.90221 0.0
C372 C 0.99899 0.27726 0.15915 0.0
C373 C 0.98025 0.31905 0.1498 0.0
C374 C 0.81647 0.21804 0.16011 0.0
C375 C 0.83531 0.17647 0.16879 0.0
N376 N 0.93996 0.16049 0.16737 0.0
N377 N 0.86624 0.32073 0.13156 0.0
C378 C 0.92518 0.20422 0.165 0.0
C379 C 0.88735 0.28653 0.14708 0.0
N380 N 1.08658 0.3076 0.16531 0.0
N381 N 0.73193 0.19381 0.16612 0.0
H382 H 0.9151 0.37007 0.12112 0.0
H383 H 0.79978 0.29731 0.12569 0.0
H384 H 0.67768 0.14358 0.17478 0.0
H385 H 0.71735 0.22517 0.16493 0.0
H386 H 1.10314 0.28133 0.17645 0.0
H387 H 1.14302 0.36045 0.16217 0.0
H388 H 1.00191 0.17547 0.1615 0.0
H389 H 0.88735 0.10713 0.17174 0.0
C390 C 1.08149 0.46081 0.03581 0.0
C391 C 1.13008 0.52472 0.05569 0.0
C392 C 0.21243 0.59057 0.00223 0.0
C393 C 1.15864 0.52693 0.982 0.0
N394 N 1.03502 0.40164 0.97808 0.0
N395 N 0.22707 0.65025 0.05606 0.0
C396 C 1.09122 0.46207 -0.00159 0.0
C397 C 0.19211 0.58968 0.03848 0.0
N398 N 1.02854 0.39888 0.05275 0.0
N399 N 0.28316 0.65195 0.98675 0.0
H400 H 0.20963 0.65168 0.08185 0.0
H401 H 0.26561 0.69821 0.04396 0.0
H402 H 0.29834 0.65475 0.96002 0.0
H403 H 0.33135 0.69902 0.00095 0.0
H404 H 1.00074 0.35153 0.04057 0.0
H405 H 1.01746 0.39543 0.07977 0.0
H406 H 0.97698 0.35386 0.98763 0.0
H407 H 1.04305 0.39988 0.9509 0.0
C408 C 0.77823 0.04679 0.34003 0.0
C409 C 0.73708 0.06592 0.35993 0.0
C410 C 0.67997 0.07312 0.30458 0.0
C411 C 0.72746 0.05969 0.28493 0.0
N412 N 0.82974 0.04121 0.283 0.0
N413 N 0.623 0.07285 0.36123 0.0
C414 C 0.77876 0.04855 0.30241 0.0
C415 C 0.68054 0.07219 0.34225 0.0
N416 N 0.80869 1.02015 0.35691 0.0
N417 N 0.6368 0.08917 0.28713 0.0
H418 H 0.61624 0.06686 0.38836 0.0
H419 H 0.57378 0.07058 0.34997 0.0
H420 H 0.63265 0.0885 0.25959 0.0
H421 H 0.61099 0.10841 0.29967 0.0
H422 H 0.83205 0.99947 0.3438 0.0
H423 H 0.79913 1.00967 0.38381 0.0
H424 H 0.87751 0.04165 0.29416 0.0
H425 H 0.82966 0.04019 0.25538 0.0
C426 C 0.56074 0.49263 0.73831 0.0
C427 C 0.63053 0.50194 0.75651 0.0
C428 C 0.72167 0.54811 0.70268 0.0
C429 C 0.64683 0.52931 0.68363 0.0
N430 N 0.49103 0.47667 0.68181 0.0
N431 N 0.77024 0.52548 0.75313 0.0
C432 C 0.56525 0.4998 0.70103 0.0
C433 C 0.70968 0.5269 0.73811 0.0
N434 N 0.49158 0.4792 0.75669 0.0
N435 N 0.80436 0.58635 0.6869 0.0
H436 H 0.76201 0.50586 0.77793 0.0
H437 H 0.82344 0.53619 0.73934 0.0
H438 H 0.81526 0.60189 0.66074 0.0
H439 H 0.86389 0.60822 0.70076 0.0
H440 H 0.4448 0.47971 0.74532 0.0
H441 H 0.48571 0.47434 0.78403 0.0
H442 H 0.42643 0.44704 0.69239 0.0
H443 H 0.49239 0.48255 0.65453 0.0
C444 C 0.77075 0.13016 0.58165 0.0
C445 C 0.69293 0.07083 0.56229 0.0
C446 C 0.62854 1.00628 0.61752 0.0
C447 C 0.70924 0.06345 0.63613 0.0
N448 N 0.86406 0.17448 0.63518 0.0
N449 N 0.55527 0.94792 0.56106 0.0
C450 C 0.78266 0.12364 0.61789 0.0
C451 C 0.62404 1.00761 0.58005 0.0
N452 N 0.82993 0.19405 0.56646 0.0
N453 N 0.55473 0.95154 0.63579 0.0
H454 H 0.54819 0.94611 0.53367 0.0
H455 H 0.50975 0.89864 0.572 0.0
H456 H 0.55562 0.94775 0.66316 0.0
H457 H 0.49037 0.91259 0.62426 0.0
H458 H 0.88221 0.24021 0.58051 0.0
H459 H 0.82156 0.2028 0.54086 0.0
H460 H 0.92317 0.2159 0.62238 0.0
H461 H 0.8745 0.17188 0.66185 0.0
C462 C 0.7719 0.61015 0.97301 0.0
C463 C 0.6871 0.55549 0.9556 0.0
C464 C 0.6135 0.50878 0.01279 0.0
C465 C 0.69786 0.56375 0.03024 0.0
N466 N 0.86145 0.65297 0.02743 0.0
N467 N 0.53791 0.43982 0.95849 0.0
C468 C 0.7785 0.61012 0.01041 0.0
C469 C 0.61122 0.50047 0.97536 0.0
N470 N 0.84588 0.66248 0.95395 0.0
N471 N 0.53501 0.46679 0.0316 0.0
H472 H 0.53641 0.43141 0.93129 0.0
H473 H 0.48369 0.39562 0.97183 0.0
H474 H 0.53386 0.47158 0.05901 0.0
H475 H 0.47054 0.43095 0.01968 0.0
H476 H 0.90584 0.70826 0.96548 0.0
H477 H 0.84629 0.66174 0.92636 0.0
H478 H 0.92316 0.68343 0.01432 0.0
H479 H 0.8684 0.65271 0.05476 0.0
C480 C 0.29997 0.5709 0.26723 0.0
C481 C 0.21474 0.52492 0.24893 0.0
C482 C 1.13784 0.50838 0.30367 0.0
C483 C 0.22127 0.54776 0.32296 0.0
N484 N 0.37836 0.60203 0.32354 0.0
N485 N 1.05174 0.43223 0.25261 0.0
C486 C 0.3017 0.5751 0.30489 0.0
C487 C 1.13329 0.48827 0.26798 0.0
N488 N 0.37919 0.6113 0.24881 0.0
N489 N 1.06373 0.4923 0.31883 0.0
H490 H 1.04745 0.41231 0.22762 0.0
H491 H 0.99084 0.40067 0.26638 0.0
H492 H 1.0654 0.50948 0.34434 0.0
H493 H 1.00405 0.46876 0.30457 0.0
H494 H 0.44278 0.65107 0.26077 0.0
H495 H 0.38089 0.60878 0.22126 0.0
H496 H 0.43591 0.6166 0.31159 0.0
H497 H 0.38118 0.60296 0.35111 0.0
loop_
_geom_bond_atom_site_label_1
_geom_bond_atom_site_label_2
_geom_bond_distance
_geom_bond_site_symmetry_2
_ccdc_geom_bond_type
La0 C2 2.928 . S
La0 O20 2.521 . S
La0 O21 2.628 . S
La0 O22 2.554 . S
La0 O23 2.757 . S
La0 O24 2.470 . S
La0 O29 2.482 . S
La0 O31 2.503 1_455 S
La1 C11 2.928 . S
La1 O23 2.482 1_655 S
La1 O25 2.503 1_655 S
La1 O26 2.521 . S
La1 O27 2.628 . S
La1 O28 2.554 . S
La1 O29 2.757 1_655 S
La1 O30 2.470 . S
C2 La0 2.928 . S
C2 C3 1.503 . S
C2 O20 1.261 . S
C2 O21 1.243 . S
C3 C2 1.503 . S
C3 C4 1.394 . S
C3 C8 1.373 . S
C4 C3 1.394 . S
C4 C5 1.380 . S
C4 H32 0.930 . S
C5 C4 1.380 . S
C5 C6 1.376 . S
C5 H33 0.930 . S
C6 C5 1.376 . S
C6 C7 1.370 . S
C7 C6 1.370 . S
C7 C8 1.396 . S
C7 H34 0.929 . S
C8 C3 1.373 . S
C8 C7 1.396 . S
C8 H35 0.929 . S
C9 O22 1.240 . S
C9 O23 1.289 . S
C10 O24 1.258 . S
C10 O25 1.256 . S
C11 La1 2.928 . S
C11 C12 1.503 . S
C11 O26 1.261 . S
C11 O27 1.243 . S
C12 C11 1.503 . S
C12 C13 1.394 . S
C12 C17 1.373 . S
C13 C12 1.394 . S
C13 C14 1.380 . S
C13 H36 0.930 . S
C14 C13 1.380 . S
C14 C15 1.376 . S
C14 H37 0.930 . S
C15 C14 1.376 . S
C15 C16 1.370 . S
C16 C15 1.370 . S
C16 C17 1.396 . S
C16 H38 0.929 . S
C17 C12 1.373 . S
C17 C16 1.396 . S
C17 H39 0.929 . S
C18 O28 1.240 1_455 S
C18 O29 1.289 . S
C19 O30 1.258 . S
C19 O31 1.256 . S
O20 La0 2.521 . S
O20 C2 1.261 . S
O21 La0 2.628 . S
O21 C2 1.243 . S
O22 La0 2.554 . S
O22 C9 1.240 . S
O23 La0 2.757 . S
O23 La1 2.482 1_455 S
O23 C9 1.289 . S
O24 La0 2.470 . S
O24 C10 1.258 . S
O25 La1 2.503 1_455 S
O25 C10 1.256 . S
O26 La1 2.521 . S
O26 C11 1.261 . S
O27 La1 2.628 . S
O27 C11 1.243 . S
O28 La1 2.554 . S
O28 C18 1.240 1_655 S
O29 La0 2.482 . S
O29 La1 2.757 1_455 S
O29 C18 1.289 . S
O30 La1 2.470 . S
O30 C19 1.258 . S
O31 La0 2.503 1_655 S
O31 C19 1.256 . S
H32 C4 0.930 . S
H33 C5 0.930 . S
H34 C7 0.929 . S
H35 C8 0.929 . S
H36 C13 0.930 . S
H37 C14 0.930 . S
H38 C16 0.929 . S
H39 C17 0.929 . S
La40 C42 2.928 . S
La40 O60 2.521 . S
La40 O61 2.628 . S
La40 O62 2.554 . S
La40 O63 2.757 1_565 S
La40 O64 2.470 . S
La40 O69 2.482 . S
La40 O71 2.503 1_565 S
La41 C51 2.928 . S
La41 O63 2.482 . S
La41 O65 2.503 1_545 S
La41 O66 2.521 . S
La41 O67 2.628 . S
La41 O68 2.554 . S
La41 O69 2.757 1_545 S
La41 O70 2.470 . S
C42 La40 2.928 . S
C42 C43 1.503 . S
C42 O60 1.261 . S
C42 O61 1.243 . S
C43 C42 1.503 . S
C43 C44 1.394 . S
C43 C48 1.373 . S
C44 C43 1.394 . S
C44 C45 1.380 . S
C44 H72 0.930 . S
C45 C44 1.380 . S
C45 C46 1.376 . S
C45 H73 0.930 . S
C46 C45 1.376 . S
C46 C47 1.370 . S
C47 C46 1.370 . S
C47 C48 1.396 . S
C47 H74 0.929 . S
C48 C43 1.373 . S
C48 C47 1.396 . S
C48 H75 0.929 . S
C49 O62 1.240 1_545 S
C49 O63 1.289 . S
C50 O64 1.258 . S
C50 O65 1.256 . S
C51 La41 2.928 . S
C51 C52 1.503 . S
C51 O66 1.261 . S
C51 O67 1.243 . S
C52 C51 1.503 . S
C52 C53 1.394 . S
C52 C57 1.373 . S
C53 C52 1.394 . S
C53 C54 1.380 . S
C53 H76 0.930 . S
C54 C53 1.380 . S
C54 C55 1.376 . S
C54 H77 0.930 . S
C55 C54 1.376 . S
C55 C56 1.370 . S
C56 C55 1.370 . S
C56 C57 1.396 . S
C56 H78 0.929 . S
C57 C52 1.373 . S
C57 C56 1.396 . S
C57 H79 0.929 . S
C58 O68 1.240 . S
C58 O69 1.289 1_545 S
C59 O70 1.258 . S
C59 O71 1.256 . S
O60 La40 2.521 . S
O60 C42 1.261 . S
O61 La40 2.628 . S
O61 C42 1.243 . S
O62 La40 2.554 . S
O62 C49 1.240 1_565 S
O63 La40 2.757 1_545 S
O63 La41 2.482 . S
O63 C49 1.289 . S
O64 La40 2.470 . S
O64 C50 1.258 . S
O65 La41 2.503 1_565 S
O65 C50 1.256 . S
O66 La41 2.521 . S
O66 C51 1.261 . S
O67 La41 2.628 . S
O67 C51 1.243 . S
O68 La41 2.554 . S
O68 C58 1.240 . S
O69 La40 2.482 . S
O69 La41 2.757 1_565 S
O69 C58 1.289 1_565 S
O70 La41 2.470 . S
O70 C59 1.258 . S
O71 La40 2.503 1_545 S
O71 C59 1.256 . S
H72 C44 0.930 . S
H73 C45 0.930 . S
H74 C47 0.929 . S
H75 C48 0.929 . S
H76 C53 0.930 . S
H77 C54 0.930 . S
H78 C56 0.929 . S
H79 C57 0.929 . S
La80 C82 2.928 . S
La80 O100 2.521 . S
La80 O101 2.628 . S
La80 O102 2.554 . S
La80 O103 2.757 . S
La80 O104 2.470 . S
La80 O109 2.482 . S
La80 O111 2.503 . S
La81 C91 2.928 . S
La81 O103 2.482 . S
La81 O105 2.503 . S
La81 O106 2.521 . S
La81 O107 2.628 . S
La81 O108 2.554 . S
La81 O109 2.757 . S
La81 O110 2.470 . S
C82 La80 2.928 . S
C82 C83 1.503 . S
C82 O100 1.261 . S
C82 O101 1.243 . S
C83 C82 1.503 . S
C83 C84 1.394 . S
C83 C88 1.373 . S
C84 C83 1.394 . S
C84 C85 1.380 . S
C84 H112 0.930 . S
C85 C84 1.380 . S
C85 C86 1.376 . S
C85 H113 0.930 . S
C86 C85 1.376 . S
C86 C87 1.370 . S
C87 C86 1.370 . S
C87 C88 1.396 . S
C87 H114 0.929 . S
C88 C83 1.373 . S
C88 C87 1.396 . S
C88 H115 0.929 . S
C89 O102 1.240 . S
C89 O103 1.289 . S
C90 O104 1.258 . S
C90 O105 1.256 . S
C91 La81 2.928 . S
C91 C92 1.503 . S
C91 O106 1.261 . S
C91 O107 1.243 . S
C92 C91 1.503 . S
C92 C93 1.394 . S
C92 C97 1.373 . S
C93 C92 1.394 . S
C93 C94 1.380 . S
C93 H116 0.930 . S
C94 C93 1.380 . S
C94 C95 1.376 . S
C94 H117 0.930 . S
C95 C94 1.376 . S
C95 C96 1.370 . S
C96 C95 1.370 . S
C96 C97 1.396 . S
C96 H118 0.929 . S
C97 C92 1.373 . S
C97 C96 1.396 . S
C97 H119 0.929 . S
C98 O108 1.240 . S
C98 O109 1.289 . S
C99 O110 1.258 . S
C99 O111 1.256 . S
O100 La80 2.521 . S
O100 C82 1.261 . S
O101 La80 2.628 . S
O101 C82 1.243 . S
O102 La80 2.554 . S
O102 C89 1.240 . S
O103 La80 2.757 . S
O103 La81 2.482 . S
O103 C89 1.289 . S
O104 La80 2.470 . S
O104 C90 1.258 . S
O105 La81 2.503 . S
O105 C90 1.256 . S
O106 La81 2.521 . S
O106 C91 1.261 . S
O107 La81 2.628 . S
O107 C91 1.243 . S
O108 La81 2.554 . S
O108 C98 1.240 . S
O109 La80 2.482 . S
O109 La81 2.757 . S
O109 C98 1.289 . S
O110 La81 2.470 . S
O110 C99 1.258 . S
O111 La80 2.503 . S
O111 C99 1.256 . S
H112 C84 0.930 . S
H113 C85 0.930 . S
H114 C87 0.929 . S
H115 C88 0.929 . S
H116 C93 0.930 . S
H117 C94 0.930 . S
H118 C96 0.929 . S
H119 C97 0.929 . S
H120 C123 0.931 . S
H121 C126 0.928 . S
H122 C128 0.930 . S
C123 H120 0.931 . S
C123 C124 1.413 . S
C123 C125 1.360 1_565 S
C124 C123 1.413 . S
C124 C128 1.429 1_565 S
C125 C123 1.360 1_545 S
C125 C126 1.372 . S
C126 H121 0.928 . S
C126 C125 1.372 . S
C126 C127 1.404 . S
C127 C126 1.404 . S
C127 C128 1.391 . S
C128 H122 0.930 . S
C128 C124 1.429 1_545 S
C128 C127 1.391 . S
H129 C132 0.931 . S
H130 C135 0.928 . S
H131 C137 0.930 . S
C132 H129 0.931 . S
C132 C133 1.413 . S
C132 C134 1.360 . S
C133 C132 1.413 . S
C133 C137 1.429 . S
C134 C132 1.360 . S
C134 C135 1.372 . S
C135 H130 0.928 . S
C135 C134 1.372 . S
C135 C136 1.404 . S
C136 C135 1.404 . S
C136 C137 1.391 . S
C137 H131 0.930 . S
C137 C133 1.429 . S
C137 C136 1.391 . S
H138 C141 0.931 1_655 S
H139 C144 0.928 . S
H140 C146 0.930 . S
C141 H138 0.931 1_455 S
C141 C142 1.413 . S
C141 C143 1.360 . S
C142 C141 1.413 . S
C142 C146 1.429 . S
C143 C141 1.360 . S
C143 C144 1.372 . S
C144 H139 0.928 . S
C144 C143 1.372 . S
C144 C145 1.404 . S
C145 C144 1.404 . S
C145 C146 1.391 . S
C146 H140 0.930 . S
C146 C142 1.429 . S
C146 C145 1.391 . S
H147 C150 0.931 . S
H148 C153 0.928 . S
H149 C155 0.930 . S
C150 H147 0.931 . S
C150 C151 1.413 . S
C150 C152 1.360 1_655 S
C151 C150 1.413 . S
C151 C155 1.429 1_655 S
C152 C150 1.360 1_455 S
C152 C153 1.372 . S
C153 H148 0.928 . S
C153 C152 1.372 . S
C153 C154 1.404 . S
C154 C153 1.404 . S
C154 C155 1.391 . S
C155 H149 0.930 . S
C155 C151 1.429 1_455 S
C155 C154 1.391 . S
H156 C159 0.931 . S
H157 C162 0.928 . S
H158 C164 0.930 . S
C159 H156 0.931 . S
C159 C160 1.413 . S
C159 C161 1.360 1_545 S
C160 C159 1.413 . S
C160 C164 1.429 . S
C161 C159 1.360 1_565 S
C161 C162 1.372 . S
C162 H157 0.928 . S
C162 C161 1.372 . S
C162 C163 1.404 . S
C163 C162 1.404 . S
C163 C164 1.391 1_565 S
C164 H158 0.930 . S
C164 C160 1.429 . S
C164 C163 1.391 1_545 S
H165 C168 0.931 . S
H166 C171 0.928 . S
H167 C173 0.930 . S
C168 H165 0.931 . S
C168 C169 1.413 . S
C168 C170 1.360 . S
C169 C168 1.413 . S
C169 C173 1.429 . S
C170 C168 1.360 . S
C170 C171 1.372 . S
C171 H166 0.928 . S
C171 C170 1.372 . S
C171 C172 1.404 . S
C172 C171 1.404 . S
C172 C173 1.391 . S
C173 H167 0.930 . S
C173 C169 1.429 . S
C173 C172 1.391 . S
C174 C175 1.363 . S
C174 C180 1.379 . S
C174 N182 1.356 . S
C175 C174 1.363 . S
C175 C181 1.363 . S
C176 C177 1.363 . S
C176 C181 1.379 . S
C176 N183 1.356 . S
C177 C176 1.363 . S
C177 C180 1.363 . S
N178 C180 1.356 . S
N178 H190 0.984 . S
N178 H191 0.985 . S
N179 C181 1.356 . S
N179 H184 0.984 . S
N179 H185 0.985 . S
C180 C174 1.379 . S
C180 C177 1.363 . S
C180 N178 1.356 . S
C181 C175 1.363 . S
C181 C176 1.379 . S
C181 N179 1.356 . S
N182 C174 1.356 . S
N182 H188 0.984 . S
N182 H189 0.984 . S
N183 C176 1.356 . S
N183 H186 0.984 . S
N183 H187 0.985 . S
H184 N179 0.984 . S
H185 N179 0.985 . S
H186 N183 0.984 . S
H187 N183 0.985 . S
H188 N182 0.984 . S
H189 N182 0.984 . S
H190 N178 0.984 . S
H191 N178 0.985 . S
C192 C193 1.363 . S
C192 C198 1.379 . S
C192 N200 1.356 . S
C193 C192 1.363 . S
C193 C199 1.363 . S
C194 C195 1.363 . S
C194 C199 1.379 . S
C194 N201 1.356 . S
C195 C194 1.363 . S
C195 C198 1.363 . S
N196 C198 1.356 . S
N196 H208 0.984 . S
N196 H209 0.985 . S
N197 C199 1.356 . S
N197 H202 0.984 . S
N197 H203 0.985 . S
C198 C192 1.379 . S
C198 C195 1.363 . S
C198 N196 1.356 . S
C199 C193 1.363 . S
C199 C194 1.379 . S
C199 N197 1.356 . S
N200 C192 1.356 . S
N200 H206 0.984 . S
N200 H207 0.984 . S
N201 C194 1.356 . S
N201 H204 0.984 . S
N201 H205 0.985 . S
H202 N197 0.984 . S
H203 N197 0.985 . S
H204 N201 0.984 . S
H205 N201 0.985 . S
H206 N200 0.984 . S
H207 N200 0.984 . S
H208 N196 0.984 . S
H209 N196 0.985 . S
C210 C211 1.363 . S
C210 C216 1.379 . S
C210 N218 1.356 . S
C211 C210 1.363 . S
C211 C217 1.363 . S
C212 C213 1.363 . S
C212 C217 1.379 . S
C212 N219 1.356 . S
C213 C212 1.363 . S
C213 C216 1.363 . S
N214 C216 1.356 . S
N214 H226 0.984 . S
N214 H227 0.985 . S
N215 C217 1.356 . S
N215 H220 0.984 . S
N215 H221 0.985 . S
C216 C210 1.379 . S
C216 C213 1.363 . S
C216 N214 1.356 . S
C217 C211 1.363 . S
C217 C212 1.379 . S
C217 N215 1.356 . S
N218 C210 1.356 . S
N218 H224 0.984 . S
N218 H225 0.984 . S
N219 C212 1.356 . S
N219 H222 0.984 . S
N219 H223 0.985 . S
H220 N215 0.984 . S
H221 N215 0.985 . S
H222 N219 0.984 . S
H223 N219 0.985 . S
H224 N218 0.984 . S
H225 N218 0.984 . S
H226 N214 0.984 . S
H227 N214 0.985 . S
C228 C229 1.363 . S
C228 C234 1.379 . S
C228 N236 1.356 . S
C229 C228 1.363 . S
C229 C235 1.363 . S
C230 C231 1.363 . S
C230 C235 1.379 . S
C230 N237 1.356 . S
C231 C230 1.363 . S
C231 C234 1.363 . S
N232 C234 1.356 . S
N232 H244 0.984 . S
N232 H245 0.985 . S
N233 C235 1.356 . S
N233 H238 0.984 . S
N233 H239 0.985 . S
C234 C228 1.379 . S
C234 C231 1.363 . S
C234 N232 1.356 . S
C235 C229 1.363 . S
C235 C230 1.379 . S
C235 N233 1.356 . S
N236 C228 1.356 . S
N236 H242 0.984 . S
N236 H243 0.984 . S
N237 C230 1.356 . S
N237 H240 0.984 . S
N237 H241 0.985 . S
H238 N233 0.984 . S
H239 N233 0.985 . S
H240 N237 0.984 . S
H241 N237 0.985 . S
H242 N236 0.984 . S
H243 N236 0.984 . S
H244 N232 0.984 . S
H245 N232 0.985 . S
C246 C247 1.363 . S
C246 C252 1.379 . S
C246 N254 1.356 . S
C247 C246 1.363 . S
C247 C253 1.363 . S
C248 C249 1.363 . S
C248 C253 1.379 . S
C248 N255 1.356 . S
C249 C248 1.363 . S
C249 C252 1.363 . S
N250 C252 1.356 . S
N250 H262 0.984 . S
N250 H263 0.985 . S
N251 C253 1.356 . S
N251 H256 0.984 . S
N251 H257 0.985 . S
C252 C246 1.379 . S
C252 C249 1.363 . S
C252 N250 1.356 . S
C253 C247 1.363 . S
C253 C248 1.379 . S
C253 N251 1.356 . S
N254 C246 1.356 . S
N254 H260 0.984 . S
N254 H261 0.984 . S
N255 C248 1.356 . S
N255 H258 0.984 . S
N255 H259 0.985 . S
H256 N251 0.984 . S
H257 N251 0.985 . S
H258 N255 0.984 . S
H259 N255 0.985 . S
H260 N254 0.984 . S
H261 N254 0.984 . S
H262 N250 0.984 . S
H263 N250 0.985 . S
C264 C265 1.363 . S
C264 C270 1.379 . S
C264 N272 1.356 . S
C265 C264 1.363 . S
C265 C271 1.363 . S
C266 C267 1.363 . S
C266 C271 1.379 . S
C266 N273 1.356 . S
C267 C266 1.363 . S
C267 C270 1.363 . S
N268 C270 1.356 . S
N268 H280 0.984 . S
N268 H281 0.985 . S
N269 C271 1.356 . S
N269 H274 0.984 . S
N269 H275 0.985 . S
C270 C264 1.379 . S
C270 C267 1.363 . S
C270 N268 1.356 . S
C271 C265 1.363 . S
C271 C266 1.379 . S
C271 N269 1.356 . S
N272 C264 1.356 . S
N272 H278 0.984 . S
N272 H279 0.984 . S
N273 C266 1.356 . S
N273 H276 0.984 . S
N273 H277 0.985 . S
H274 N269 0.984 . S
H275 N269 0.985 . S
H276 N273 0.984 . S
H277 N273 0.985 . S
H278 N272 0.984 . S
H279 N272 0.984 . S
H280 N268 0.984 . S
H281 N268 0.985 . S
C282 C283 1.363 . S
C282 C288 1.379 . S
C282 N290 1.356 . S
C283 C282 1.363 . S
C283 C289 1.363 . S
C284 C285 1.363 . S
C284 C289 1.379 . S
C284 N291 1.356 . S
C285 C284 1.363 . S
C285 C288 1.363 . S
N286 C288 1.356 . S
N286 H298 0.984 . S
N286 H299 0.985 . S
N287 C289 1.356 . S
N287 H292 0.984 . S
N287 H293 0.985 . S
C288 C282 1.379 . S
C288 C285 1.363 . S
C288 N286 1.356 . S
C289 C283 1.363 . S
C289 C284 1.379 . S
C289 N287 1.356 . S
N290 C282 1.356 . S
N290 H296 0.984 . S
N290 H297 0.984 . S
N291 C284 1.356 . S
N291 H294 0.984 . S
N291 H295 0.985 . S
H292 N287 0.984 . S
H293 N287 0.985 . S
H294 N291 0.984 . S
H295 N291 0.985 . S
H296 N290 0.984 . S
H297 N290 0.984 . S
H298 N286 0.984 . S
H299 N286 0.985 . S
C300 C301 1.363 . S
C300 C306 1.379 . S
C300 N308 1.356 . S
C301 C300 1.363 . S
C301 C307 1.363 . S
C302 C303 1.363 . S
C302 C307 1.379 . S
C302 N309 1.356 . S
C303 C302 1.363 . S
C303 C306 1.363 . S
N304 C306 1.356 1_455 S
N304 H316 0.984 . S
N304 H317 0.985 . S
N305 C307 1.356 . S
N305 H310 0.984 . S
N305 H311 0.985 . S
C306 C300 1.379 . S
C306 C303 1.363 . S
C306 N304 1.356 1_655 S
C307 C301 1.363 . S
C307 C302 1.379 . S
C307 N305 1.356 . S
N308 C300 1.356 . S
N308 H314 0.984 . S
N308 H315 0.984 . S
N309 C302 1.356 . S
N309 H312 0.984 . S
N309 H313 0.985 . S
H310 N305 0.984 . S
H311 N305 0.985 . S
H312 N309 0.984 . S
H313 N309 0.985 . S
H314 N308 0.984 . S
H315 N308 0.984 . S
H316 N304 0.984 . S
H317 N304 0.985 . S
C318 C319 1.363 . S
C318 C324 1.379 . S
C318 N326 1.356 . S
C319 C318 1.363 . S
C319 C325 1.363 . S
C320 C321 1.363 . S
C320 C325 1.379 . S
C320 N327 1.356 . S
C321 C320 1.363 . S
C321 C324 1.363 . S
N322 C324 1.356 . S
N322 H334 0.984 . S
N322 H335 0.985 . S
N323 C325 1.356 . S
N323 H328 0.984 . S
N323 H329 0.985 . S
C324 C318 1.379 . S
C324 C321 1.363 . S
C324 N322 1.356 . S
C325 C319 1.363 . S
C325 C320 1.379 . S
C325 N323 1.356 . S
N326 C318 1.356 . S
N326 H332 0.984 . S
N326 H333 0.984 . S
N327 C320 1.356 . S
N327 H330 0.984 . S
N327 H331 0.985 . S
H328 N323 0.984 . S
H329 N323 0.985 . S
H330 N327 0.984 . S
H331 N327 0.985 . S
H332 N326 0.984 . S
H333 N326 0.984 . S
H334 N322 0.984 . S
H335 N322 0.985 . S
C336 C337 1.363 . S
C336 C342 1.379 . S
C336 N344 1.356 . S
C337 C336 1.363 . S
C337 C343 1.363 . S
C338 C339 1.363 . S
C338 C343 1.379 . S
C338 N345 1.356 . S
C339 C338 1.363 . S
C339 C342 1.363 . S
N340 C342 1.356 . S
N340 H352 0.984 . S
N340 H353 0.985 . S
N341 C343 1.356 . S
N341 H346 0.984 . S
N341 H347 0.985 . S
C342 C336 1.379 . S
C342 C339 1.363 . S
C342 N340 1.356 . S
C343 C337 1.363 . S
C343 C338 1.379 . S
C343 N341 1.356 . S
N344 C336 1.356 . S
N344 H350 0.984 . S
N344 H351 0.984 . S
N345 C338 1.356 . S
N345 H348 0.984 . S
N345 H349 0.985 . S
H346 N341 0.984 . S
H347 N341 0.985 . S
H348 N345 0.984 . S
H349 N345 0.985 . S
H350 N344 0.984 . S
H351 N344 0.984 . S
H352 N340 0.984 . S
H353 N340 0.985 . S
C354 C355 1.363 . S
C354 C360 1.379 . S
C354 N362 1.356 . S
C355 C354 1.363 . S
C355 C361 1.363 . S
C356 C357 1.363 . S
C356 C361 1.379 . S
C356 N363 1.356 . S
C357 C356 1.363 . S
C357 C360 1.363 . S
N358 C360 1.356 . S
N358 H370 0.984 . S
N358 H371 0.985 . S
N359 C361 1.356 . S
N359 H364 0.984 . S
N359 H365 0.985 . S
C360 C354 1.379 . S
C360 C357 1.363 . S
C360 N358 1.356 . S
C361 C355 1.363 . S
C361 C356 1.379 . S
C361 N359 1.356 . S
N362 C354 1.356 . S
N362 H368 0.984 . S
N362 H369 0.984 . S
N363 C356 1.356 . S
N363 H366 0.984 . S
N363 H367 0.985 . S
H364 N359 0.984 . S
H365 N359 0.985 . S
H366 N363 0.984 . S
H367 N363 0.985 . S
H368 N362 0.984 . S
H369 N362 0.984 . S
H370 N358 0.984 . S
H371 N358 0.985 . S
C372 C373 1.363 . S
C372 C378 1.379 . S
C372 N380 1.356 . S
C373 C372 1.363 . S
C373 C379 1.363 . S
C374 C375 1.363 . S
C374 C379 1.379 . S
C374 N381 1.356 . S
C375 C374 1.363 . S
C375 C378 1.363 . S
N376 C378 1.356 . S
N376 H388 0.984 . S
N376 H389 0.985 . S
N377 C379 1.356 . S
N377 H382 0.984 . S
N377 H383 0.985 . S
C378 C372 1.379 . S
C378 C375 1.363 . S
C378 N376 1.356 . S
C379 C373 1.363 . S
C379 C374 1.379 . S
C379 N377 1.356 . S
N380 C372 1.356 . S
N380 H386 0.984 . S
N380 H387 0.984 . S
N381 C374 1.356 . S
N381 H384 0.984 . S
N381 H385 0.985 . S
H382 N377 0.984 . S
H383 N377 0.985 . S
H384 N381 0.984 . S
H385 N381 0.985 . S
H386 N380 0.984 . S
H387 N380 0.984 . S
H388 N376 0.984 . S
H389 N376 0.985 . S
C390 C391 1.363 . S
C390 C396 1.379 . S
C390 N398 1.356 . S
C391 C390 1.363 . S
C391 C397 1.363 . S
C392 C393 1.363 1_554 S
C392 C397 1.379 . S
C392 N399 1.356 1_554 S
C393 C392 1.363 1_556 S
C393 C396 1.363 1_556 S
N394 C396 1.356 1_556 S
N394 H406 0.984 . S
N394 H407 0.985 . S
N395 C397 1.356 . S
N395 H400 0.984 . S
N395 H401 0.985 . S
C396 C390 1.379 . S
C396 C393 1.363 1_554 S
C396 N394 1.356 1_554 S
C397 C391 1.363 . S
C397 C392 1.379 . S
C397 N395 1.356 . S
N398 C390 1.356 . S
N398 H404 0.984 . S
N398 H405 0.984 . S
N399 C392 1.356 1_556 S
N399 H402 0.984 . S
N399 H403 0.985 . S
H400 N395 0.984 . S
H401 N395 0.985 . S
H402 N399 0.984 . S
H403 N399 0.985 . S
H404 N398 0.984 . S
H405 N398 0.984 . S
H406 N394 0.984 . S
H407 N394 0.985 . S
C408 C409 1.363 1_565 S
C408 C414 1.379 . S
C408 N416 1.356 . S
C409 C408 1.363 1_545 S
C409 C415 1.363 . S
C410 C411 1.363 . S
C410 C415 1.379 . S
C410 N417 1.356 . S
C411 C410 1.363 . S
C411 C414 1.363 1_545 S
N412 C414 1.356 . S
N412 H424 0.984 . S
N412 H425 0.985 . S
N413 C415 1.356 . S
N413 H418 0.984 . S
N413 H419 0.985 . S
C414 C408 1.379 . S
C414 C411 1.363 1_565 S
C414 N412 1.356 . S
C415 C409 1.363 . S
C415 C410 1.379 . S
C415 N413 1.356 . S
N416 C408 1.356 . S
N416 H422 0.984 . S
N416 H423 0.984 . S
N417 C410 1.356 . S
N417 H420 0.984 . S
N417 H421 0.985 . S
H418 N413 0.984 . S
H419 N413 0.985 . S
H420 N417 0.984 . S
H421 N417 0.985 . S
H422 N416 0.984 . S
H423 N416 0.984 . S
H424 N412 0.984 . S
H425 N412 0.985 . S
C426 C427 1.363 . S
C426 C432 1.379 . S
C426 N434 1.356 . S
C427 C426 1.363 . S
C427 C433 1.363 . S
C428 C429 1.363 . S
C428 C433 1.379 . S
C428 N435 1.356 . S
C429 C428 1.363 . S
C429 C432 1.363 . S
N430 C432 1.356 . S
N430 H442 0.984 . S
N430 H443 0.985 . S
N431 C433 1.356 . S
N431 H436 0.984 . S
N431 H437 0.985 . S
C432 C426 1.379 . S
C432 C429 1.363 . S
C432 N430 1.356 . S
C433 C427 1.363 . S
C433 C428 1.379 . S
C433 N431 1.356 . S
N434 C426 1.356 . S
N434 H440 0.984 . S
N434 H441 0.984 . S
N435 C428 1.356 . S
N435 H438 0.984 . S
N435 H439 0.985 . S
H436 N431 0.984 . S
H437 N431 0.985 . S
H438 N435 0.984 . S
H439 N435 0.985 . S
H440 N434 0.984 . S
H441 N434 0.984 . S
H442 N430 0.984 . S
H443 N430 0.985 . S
C444 C445 1.363 . S
C444 C450 1.379 . S
C444 N452 1.356 . S
C445 C444 1.363 . S
C445 C451 1.363 1_545 S
C446 C447 1.363 . S
C446 C451 1.379 . S
C446 N453 1.356 . S
C447 C446 1.363 . S
C447 C450 1.363 1_565 S
N448 C450 1.356 . S
N448 H460 0.984 . S
N448 H461 0.985 . S
N449 C451 1.356 . S
N449 H454 0.984 . S
N449 H455 0.985 . S
C450 C444 1.379 . S
C450 C447 1.363 1_545 S
C450 N448 1.356 . S
C451 C445 1.363 1_565 S
C451 C446 1.379 . S
C451 N449 1.356 . S
N452 C444 1.356 . S
N452 H458 0.984 . S
N452 H459 0.984 . S
N453 C446 1.356 . S
N453 H456 0.984 . S
N453 H457 0.985 . S
H454 N449 0.984 . S
H455 N449 0.985 . S
H456 N453 0.984 . S
H457 N453 0.985 . S
H458 N452 0.984 . S
H459 N452 0.984 . S
H460 N448 0.984 . S
H461 N448 0.985 . S
C462 C463 1.363 . S
C462 C468 1.379 1_556 S
C462 N470 1.356 . S
C463 C462 1.363 . S
C463 C469 1.363 . S
C464 C465 1.363 1_556 S
C464 C469 1.379 . S
C464 N471 1.356 . S
C465 C464 1.363 1_554 S
C465 C468 1.363 . S
N466 C468 1.356 . S
N466 H478 0.984 . S
N466 H479 0.985 . S
N467 C469 1.356 . S
N467 H472 0.984 . S
N467 H473 0.985 . S
C468 C462 1.379 1_554 S
C468 C465 1.363 . S
C468 N466 1.356 . S
C469 C463 1.363 . S
C469 C464 1.379 . S
C469 N467 1.356 . S
N470 C462 1.356 . S
N470 H476 0.984 . S
N470 H477 0.984 . S
N471 C464 1.356 . S
N471 H474 0.984 1_556 S
N471 H475 0.985 . S
H472 N467 0.984 . S
H473 N467 0.985 . S
H474 N471 0.984 1_554 S
H475 N471 0.985 . S
H476 N470 0.984 . S
H477 N470 0.984 . S
H478 N466 0.984 . S
H479 N466 0.985 . S
C480 C481 1.363 . S
C480 C486 1.379 . S
C480 N488 1.356 . S
C481 C480 1.363 . S
C481 C487 1.363 1_455 S
C482 C483 1.363 1_655 S
C482 C487 1.379 . S
C482 N489 1.356 . S
C483 C482 1.363 1_455 S
C483 C486 1.363 . S
N484 C486 1.356 . S
N484 H496 0.984 . S
N484 H497 0.985 . S
N485 C487 1.356 . S
N485 H490 0.984 . S
N485 H491 0.985 . S
C486 C480 1.379 . S
C486 C483 1.363 . S
C486 N484 1.356 . S
C487 C481 1.363 1_655 S
C487 C482 1.379 . S
C487 N485 1.356 . S
N488 C480 1.356 . S
N488 H494 0.984 . S
N488 H495 0.984 . S
N489 C482 1.356 . S
N489 H492 0.984 . S
N489 H493 0.985 . S
H490 N485 0.984 . S
H491 N485 0.985 . S
H492 N489 0.984 . S
H493 N489 0.985 . S
H494 N488 0.984 . S
H495 N488 0.984 . S
H496 N484 0.984 . S
H497 N484 0.985 . S
C175 C6 1.221 . S
C177 C169 1.413 . S
C193 C59 1.875 . S
C195 C151 1.853 . S
C211 C86 1.657 . S
C213 C163 1.797 . S
C229 C15 0.972 . S
C231 C172 1.135 . S
C249 C154 1.861 . S
C247 C50 1.879 . S
C267 C160 1.606 . S
C265 C95 1.504 . S
C283 C46 1.471 . S
C285 C133 1.567 . S
C301 C99 3.062 . S
C303 C142 3.029 1_655 S
C319 C10 1.914 . S
C321 C124 1.939 . S
C339 C136 1.667 . S
C337 C55 1.534 . S
C357 C145 3.013 . S
C355 C90 2.991 . S
C373 C19 1.871 . S
C375 C127 1.872 . S
C393 C143 1.816 . S
C391 C18 1.740 . S
C409 C49 1.282 . S
C411 C125 1.333 . S
C427 C98 1.423 . S
C429 C134 1.495 . S
C447 C161 1.458 . S
C445 C58 1.407 . S
C465 C170 0.979 . S
C463 C89 0.986 . S
C481 C9 1.266 . S
C483 C152 1.307 . S
