# Generated by pormake.
# Topology tsx, (6,3)-cn, num edge types: 1
# Building blocks:
#     Node 0, Type 0, BuildingBlock: VOLQOD_clean_sbu_1, # of connection points: 6
#     Node 1, Type 0, BuildingBlock: VOLQOD_clean_sbu_1, # of connection points: 6
#     Node 2, Type 1, BuildingBlock: KAKCAD_clean_linker_0, # of connection points: 3
#     Node 3, Type 1, BuildingBlock: KAKCAD_clean_linker_0, # of connection points: 3
#     Node 4, Type 1, BuildingBlock: KAKCAD_clean_linker_0, # of connection points: 3
#     Node 5, Type 1, BuildingBlock: KAKCAD_clean_linker_0, # of connection points: 3
#     Edge 6, Type (0, 1), BuildingBlock: CIFDUS_clean_linker_0, # of connection points: 2
#     Edge 7, Type (0, 1), BuildingBlock: CIFDUS_clean_linker_0, # of connection points: 2
#     Edge 8, Type (0, 1), BuildingBlock: CIFDUS_clean_linker_0, # of connection points: 2
#     Edge 9, Type (0, 1), BuildingBlock: CIFDUS_clean_linker_0, # of connection points: 2
#     Edge 10, Type (0, 1), BuildingBlock: CIFDUS_clean_linker_0, # of connection points: 2
#     Edge 11, Type (0, 1), BuildingBlock: CIFDUS_clean_linker_0, # of connection points: 2
#     Edge 12, Type (0, 1), BuildingBlock: CIFDUS_clean_linker_0, # of connection points: 2
#     Edge 13, Type (0, 1), BuildingBlock: CIFDUS_clean_linker_0, # of connection points: 2
#     Edge 14, Type (0, 1), BuildingBlock: CIFDUS_clean_linker_0, # of connection points: 2
#     Edge 15, Type (0, 1), BuildingBlock: CIFDUS_clean_linker_0, # of connection points: 2
#     Edge 16, Type (0, 1), BuildingBlock: CIFDUS_clean_linker_0, # of connection points: 2
#     Edge 17, Type (0, 1), BuildingBlock: CIFDUS_clean_linker_0, # of connection points: 2
# Relax obj value: 0.075
# Max RMSD: 0.108
# Mean RMSD: 0.083
data_MOF--net-tsx--node1-VOLQOD_clean_sbu_1--node2-KAKCAD_clean_linker_0--edge1-CIFDUS_clean_linker_0
_symmetry_space_group_name_H-M    P1
_symmetry_Int_Tables_number       1
_symmetry_cell_setting            triclinic
loop_
_symmetry_equiv_pos_as_xyz
'x, y, z'
_cell_length_a     22.586231
_cell_length_b     23.375614
_cell_length_c     44.506135
_cell_angle_alpha  90.790449
_cell_angle_beta   89.989353
_cell_angle_gamma 89.905939
loop_
_atom_site_label
_atom_site_type_symbol
_atom_site_fract_x
_atom_site_fract_y
_atom_site_fract_z
_atom_type_partial_charge
O0 O 0.0878 0.99487 0.0814 0.0
Zn1 Zn 0.10572 0.99017 0.03703 0.0
O2 O 0.03374 0.99474 0.01314 0.0
Zn3 Zn 0.02251 0.92126 0.9921 0.0
Zn4 Zn 0.96715 0.0118 0.03988 0.0
Zn5 Zn 0.04003 0.05648 0.9841 0.0
O6 O 0.02368 0.93216 0.94706 0.0
O7 O 0.04085 0.02513 0.94169 0.0
O8 O 0.15054 0.91736 0.02901 0.0
O9 O 0.08888 0.86594 0.00086 0.0
O10 O 0.94493 0.88508 0.00406 0.0
O11 O 0.90748 0.94896 0.03639 0.0
O12 O 0.92351 0.08346 0.02845 0.0
O13 O 0.15942 0.05533 0.0274 0.0
O14 O 0.96964 0.10892 0.98675 0.0
O15 O 0.11326 0.10421 0.99182 0.0
C16 C 0.0415 0.00782 0.09639 0.0
C17 C 0.03247 0.97536 0.93048 0.0
C18 C 0.90384 0.90197 0.02172 0.0
C19 C 0.13765 0.87126 0.01498 0.0
C20 C 0.92817 0.11583 0.00583 0.0
C21 C 0.15692 0.09734 0.00955 0.0
O22 O 0.99241 0.01769 0.08334 0.0
O23 O 0.50871 0.48418 0.57879 0.0
Zn24 Zn 0.53372 0.48539 0.53528 0.0
O25 O 0.46481 0.49225 0.50895 0.0
Zn26 Zn 0.45827 0.42363 0.4835 0.0
Zn27 Zn 0.39228 0.49956 0.53275 0.0
Zn28 Zn 0.47494 0.56004 0.4841 0.0
O29 O 0.45489 0.44519 0.43982 0.0
O30 O 0.47636 0.53802 0.44002 0.0
O31 O 0.58179 0.4151 0.52492 0.0
O32 O 0.52933 0.37293 0.48869 0.0
O33 O 0.38609 0.37655 0.49338 0.0
O34 O 0.33727 0.43336 0.52516 0.0
O35 O 0.34792 0.57216 0.52326 0.0
O36 O 0.58868 0.55209 0.53082 0.0
O37 O 0.4068 0.61421 0.49024 0.0
O38 O 0.54887 0.60452 0.49485 0.0
C39 C 0.45891 0.49091 0.59185 0.0
C40 C 0.46518 0.49143 0.4259 0.0
C41 C 0.34119 0.38712 0.50984 0.0
C42 C 0.57449 0.37472 0.50579 0.0
C43 C 0.35984 0.61369 0.50606 0.0
C44 C 0.58951 0.59576 0.51408 0.0
O45 O 0.41134 0.49833 0.577 0.0
C46 C 0.02033 0.99523 0.29033 0.0
C47 C 0.01275 0.0463 0.27455 0.0
C48 C 0.02234 0.99579 0.32171 0.0
C49 C 0.01774 0.0476 0.33808 0.0
C50 C 0.01046 0.09876 0.32214 0.0
C51 C 0.00756 0.09804 0.29074 0.0
C52 C 0.02015 0.04806 0.37158 0.0
C53 C 0.05693 0.00952 0.38686 0.0
C54 C 0.05811 0.00848 0.4184 0.0
C55 C 0.02258 0.04674 0.4349 0.0
C56 C 0.9857 0.08557 0.4201 0.0
C57 C 0.98477 0.08615 0.38854 0.0
C58 C 0.94596 0.1239 0.43748 0.0
C59 C 0.90762 0.10144 0.45918 0.0
C60 C 0.94417 0.18268 0.4315 0.0
C61 C 0.90383 0.21826 0.44652 0.0
C62 C 0.86396 0.19544 0.46738 0.0
C63 C 0.09569 0.96638 0.43395 0.0
C64 C 0.09259 0.90825 0.4258 0.0
C65 C 0.13567 0.98398 0.45641 0.0
C66 C 0.17351 0.94423 0.46971 0.0
C67 C 0.17096 0.8862 0.46117 0.0
C68 C 0.12958 0.86846 0.43945 0.0
C69 C 0.86655 0.13685 0.47382 0.0
H70 H 0.02368 0.95466 0.27838 0.0
H71 H 0.02663 0.95537 0.3331 0.0
H72 H 0.00773 0.13957 0.33386 0.0
H73 H 0.00224 0.13809 0.27907 0.0
H74 H 0.08553 0.98064 0.37429 0.0
H75 H 0.95469 0.11495 0.37727 0.0
H76 H 0.02305 0.0458 0.45926 0.0
H77 H 0.90802 0.05615 0.46404 0.0
H78 H 0.97353 0.20093 0.41495 0.0
H79 H 0.90227 0.26323 0.441 0.0
H80 H 0.06172 0.89366 0.40872 0.0
H81 H 0.13881 0.02866 0.46301 0.0
H82 H 0.83624 0.11838 0.48985 0.0
H83 H 0.12718 0.82403 0.4323 0.0
H84 H 0.20508 0.95881 0.48646 0.0
C85 C 0.02287 0.03132 0.73225 0.0
C86 C 0.01326 0.98398 0.75082 0.0
C87 C 0.0219 0.0253 0.70098 0.0
C88 C 0.0128 0.97145 0.68721 0.0
C89 C 0.00406 0.92391 0.70577 0.0
C90 C 0.00367 0.93018 0.73708 0.0
C91 C 0.01206 0.96516 0.65372 0.0
C92 C 0.04782 5e-05 0.63579 0.0
C93 C 0.0453 -0.00321 0.60423 0.0
C94 C 0.00912 0.95515 0.5905 0.0
C95 C 0.97406 0.91859 0.60796 0.0
C96 C 0.97487 0.92501 0.63946 0.0
C97 C 0.93607 0.87388 0.59357 0.0
C98 C 0.90605 0.88412 0.56646 0.0
C99 C 0.92886 0.82052 0.60729 0.0
C100 C 0.89143 0.77919 0.5948 0.0
C101 C 0.86086 0.78947 0.56787 0.0
C102 C 0.07915 0.03849 0.58598 0.0
C103 C 0.08312 0.09581 0.59567 0.0
C104 C 0.10792 0.02194 0.55917 0.0
C105 C 0.14107 0.06165 0.54292 0.0
C106 C 0.14618 0.11869 0.55317 0.0
C107 C 0.11647 0.13514 0.57968 0.0
C108 C 0.86915 0.84232 0.55369 0.0
H109 H 0.03154 0.07334 0.74176 0.0
H110 H 0.02773 0.06328 0.68766 0.0
H111 H -0.00218 0.88153 0.6962 0.0
H112 H 0.99514 0.89271 0.75041 0.0
H113 H 0.07822 0.02986 0.6464 0.0
H114 H 0.94526 0.89946 0.65289 0.0
H115 H 0.00793 0.95155 0.56623 0.0
H116 H 0.91003 0.92484 0.55535 0.0
H117 H 0.95204 0.81054 0.62787 0.0
H118 H 0.88563 0.73954 0.60673 0.0
H119 H 0.06059 0.11047 0.61585 0.0
H120 H 0.10596 0.97809 0.55106 0.0
H121 H 0.84705 0.8516 0.53273 0.0
H122 H 0.12009 0.17826 0.58868 0.0
H123 H 0.16295 0.04757 0.52247 0.0
C124 C 0.48293 0.44125 0.78328 0.0
C125 C 0.49594 0.49398 0.77011 0.0
C126 C 0.48348 0.43586 0.81449 0.0
C127 C 0.49582 0.48342 0.83305 0.0
C128 C 0.50766 0.53647 0.81992 0.0
C129 C 0.50838 0.54157 0.78865 0.0
C130 C 0.49773 0.47712 0.86603 0.0
C131 C 0.53499 0.43618 0.87881 0.0
C132 C 0.53763 0.42953 0.91015 0.0
C133 C 0.5011 0.4638 0.92866 0.0
C134 C 0.46393 0.5053 0.91606 0.0
C135 C 0.4629 0.51208 0.88475 0.0
C136 C 0.426 0.54209 0.93532 0.0
C137 C 0.38636 0.51803 0.95594 0.0
C138 C 0.42675 0.60161 0.93173 0.0
C139 C 0.38723 0.63642 0.94766 0.0
C140 C 0.34563 0.61232 0.96722 0.0
C141 C 0.58099 0.38891 0.92317 0.0
C142 C 0.59248 0.33617 0.90873 0.0
C143 C 0.61471 0.4044 0.9486 0.0
C144 C 0.66077 0.36918 0.95841 0.0
C145 C 0.67421 0.31822 0.94278 0.0
C146 C 0.63883 0.30142 0.91831 0.0
C147 C 0.346 0.55288 0.97157 0.0
H148 H 0.47352 0.40394 0.76938 0.0
H149 H 0.47408 0.39459 0.82419 0.0
H150 H 0.51755 0.57361 0.83385 0.0
H151 H 0.51835 0.58268 0.77893 0.0
H152 H 0.56357 0.41093 0.86421 0.0
H153 H 0.43387 0.54367 0.87486 0.0
H154 H 0.50209 0.45883 0.95283 0.0
H155 H 0.38497 0.47215 0.95902 0.0
H156 H 0.45721 0.62112 0.91611 0.0
H157 H 0.38751 0.68204 0.94368 0.0
H158 H 0.56647 0.32228 0.88954 0.0
H159 H 0.6074 0.44493 0.96009 0.0
H160 H 0.31443 0.53338 0.98661 0.0
H161 H 0.64769 0.26175 0.90624 0.0
H162 H 0.68757 0.38304 0.97732 0.0
C163 C 0.47832 0.58382 0.23169 0.0
C164 C 0.48358 0.53263 0.24779 0.0
C165 C 0.47871 0.58312 0.20029 0.0
C166 C 0.48346 0.53119 0.18425 0.0
C167 C 0.48778 0.47994 0.20017 0.0
C168 C 0.48827 0.48066 0.23158 0.0
C169 C 0.48544 0.53061 0.15097 0.0
C170 C 0.52454 0.56675 0.13585 0.0
C171 C 0.52819 0.56566 0.1043 0.0
C172 C 0.49169 0.52789 0.08793 0.0
C173 C 0.45262 0.49102 0.10272 0.0
C174 C 0.44963 0.4929 0.1343 0.0
C175 C 0.41659 0.44903 0.08533 0.0
C176 C 0.38964 0.46388 0.058 0.0
C177 C 0.40952 0.39319 0.09598 0.0
C178 C 0.37577 0.35337 0.07998 0.0
C179 C 0.34867 0.36802 0.0527 0.0
C180 C 0.57167 0.60255 0.0887 0.0
C181 C 0.58328 0.65814 0.09951 0.0
C182 C 0.60348 0.58188 0.06361 0.0
C183 C 0.64662 0.61566 0.05004 0.0
C184 C 0.65941 0.67065 0.06145 0.0
C185 C 0.62689 0.69153 0.08625 0.0
C186 C 0.356 0.42376 0.04183 0.0
H187 H 0.47344 0.62455 0.24332 0.0
H188 H 0.47476 0.6232 0.18851 0.0
H189 H 0.49225 0.43938 0.18831 0.0
H190 H 0.49353 0.44047 0.24309 0.0
H191 H 0.55372 0.59427 0.14886 0.0
H192 H 0.41893 0.46544 0.146 0.0
H193 H 0.49435 0.52652 0.06363 0.0
H194 H 0.39388 0.50671 0.04927 0.0
H195 H 0.4304 0.37999 0.11667 0.0
H196 H 0.37015 0.31121 0.08935 0.0
H197 H 0.55903 0.67584 0.11847 0.0
H198 H 0.59623 0.53901 0.05485 0.0
H199 H 0.33589 0.43631 0.02083 0.0
H200 H 0.63603 0.73324 0.09604 0.0
H201 H 0.67024 0.59844 0.03076 0.0
H202 H 0.14634 0.21141 0.99988 0.0
H203 H 0.27203 0.08106 0.02457 0.0
H204 H 0.34587 0.15422 0.03609 0.0
H205 H 0.37065 0.25472 0.04457 0.0
H206 H 0.24208 0.38564 0.02476 0.0
H207 H 0.17418 0.31303 0.00504 0.0
C208 C 0.19033 0.19912 0.00717 0.0
C209 C 0.20374 0.14108 0.01157 0.0
C210 C 0.2319 0.24154 0.0148 0.0
C211 C 0.26064 0.12558 0.02128 0.0
C212 C 0.30281 0.16735 0.0279 0.0
C213 C 0.3278 0.26744 0.0359 0.0
C214 C 0.31112 0.32541 0.03663 0.0
C215 C 0.28822 0.22541 0.02571 0.0
C216 C 0.25616 0.34133 0.02444 0.0
C217 C 0.21706 0.29976 0.01339 0.0
H218 H 0.12054 0.76055 0.99707 0.0
H219 H 0.25525 0.8778 0.0285 0.0
H220 H 0.33126 0.80552 0.01931 0.0
H221 H 0.36064 0.71252 0.99762 0.0
H222 H 0.22653 0.59498 0.96639 0.0
H223 H 0.14907 0.66336 0.98073 0.0
C224 C 0.16645 0.77008 0.0022 0.0
C225 C 0.1822 0.82481 0.01303 0.0
C226 C 0.21009 0.72829 0.99687 0.0
C227 C 0.24182 0.83616 0.02001 0.0
C228 C 0.28544 0.7949 0.01468 0.0
C229 C 0.31436 0.70172 0.99438 0.0
C230 C 0.29918 0.6492 0.98077 0.0
C231 C 0.27024 0.74138 0.00241 0.0
C232 C 0.23917 0.63514 0.97698 0.0
C233 C 0.19494 0.6744 0.98493 0.0
H234 H 0.89574 0.78619 0.01686 0.0
H235 H 0.79324 0.9382 0.03631 0.0
H236 H 0.70663 0.87983 0.04721 0.0
H237 H 0.66191 0.78605 0.05416 0.0
H238 H 0.76689 0.63351 0.03984 0.0
H239 H 0.84984 0.69154 0.02305 0.0
C240 C 0.8542 0.80641 0.02315 0.0
C241 C 0.85084 0.86628 0.02592 0.0
C242 C 0.80498 0.77253 0.03025 0.0
C243 C 0.79698 0.89209 0.03431 0.0
C244 C 0.74744 0.85879 0.04049 0.0
C245 C 0.703 0.76536 0.04758 0.0
C246 C 0.70806 0.70544 0.04858 0.0
C247 C 0.75131 0.799 0.03912 0.0
C248 C 0.76126 0.67946 0.03906 0.0
C249 C 0.80906 0.71267 0.02971 0.0
H250 H 0.90379 0.16701 0.95308 0.0
H251 H 0.847 0.16024 0.04556 0.0
H252 H 0.76476 0.22495 0.03463 0.0
H253 H 0.70584 0.27942 0.99794 0.0
H254 H 0.76071 0.28097 0.90514 0.0
H255 H 0.84682 0.22221 0.91701 0.0
C256 C 0.87392 0.1802 0.97098 0.0
C257 C 0.88162 0.15892 1.0001 0.0
C258 C 0.82602 0.21606 0.96438 0.0
C259 C 0.84201 0.17596 0.02292 0.0
C260 C 0.79492 0.21287 0.01668 0.0
C261 C 0.73702 0.26712 0.98046 0.0
C262 C 0.72696 0.28404 0.95071 0.0
C263 C 0.78598 0.23252 0.98738 0.0
C264 C 0.76729 0.26771 0.92813 0.0
C265 C 0.81659 0.23438 0.93492 0.0
H266 H 0.70034 0.57682 0.53491 0.0
H267 H 0.58526 0.71033 0.50304 0.0
H268 H 0.6603 0.78219 0.51556 0.0
H269 H 0.75508 0.80735 0.53936 0.0
H270 H 0.87256 0.67266 0.56812 0.0
H271 H 0.79962 0.60112 0.55331 0.0
C272 C 0.69189 0.62163 0.5305 0.0
C273 C 0.63716 0.63835 0.5184 0.0
C274 C 0.73531 0.66254 0.5375 0.0
C275 C 0.6271 0.6964 0.51235 0.0
C276 C 0.66987 0.73751 0.51963 0.0
C277 C 0.7655 0.76238 0.54183 0.0
C278 C 0.81907 0.7458 0.55545 0.0
C279 C 0.72374 0.72114 0.53271 0.0
C280 C 0.83112 0.68706 0.55859 0.0
C281 C 0.78957 0.64593 0.54991 0.0
H282 H 0.69184 0.3867 0.51714 0.0
H283 H 0.56218 0.26581 0.48424 0.0
H284 H 0.6407 0.19722 0.47218 0.0
H285 H 0.74647 0.17485 0.46713 0.0
H286 H 0.87654 0.2984 0.49624 0.0
H287 H 0.79771 0.36284 0.51376 0.0
C288 C 0.68077 0.34497 0.50778 0.0
C289 C 0.62137 0.33126 0.50159 0.0
C290 C 0.72625 0.30652 0.50001 0.0
C291 C 0.60765 0.27738 0.48908 0.0
C292 C 0.65248 0.2382 0.48216 0.0
C293 C 0.7574 0.2155 0.47779 0.0
C294 C 0.81694 0.23199 0.48055 0.0
C295 C 0.71196 0.25278 0.48696 0.0
C296 C 0.83083 0.28509 0.49387 0.0
C297 C 0.78586 0.32181 0.50385 0.0
H298 H 0.35142 0.27187 0.50187 0.0
H299 H 0.22619 0.40453 0.52576 0.0
H300 H 0.15189 0.33241 0.53736 0.0
H301 H 0.12563 0.23238 0.54512 0.0
H302 H 0.25392 0.09958 0.52617 0.0
H303 H 0.32291 0.17079 0.50722 0.0
C304 C 0.30753 0.28494 0.50914 0.0
C305 C 0.29442 0.34344 0.51312 0.0
C306 C 0.26555 0.24318 0.51669 0.0
C307 C 0.23753 0.35975 0.52277 0.0
C308 C 0.19502 0.31856 0.5294 0.0
C309 C 0.16872 0.21886 0.53692 0.0
C310 C 0.1847 0.16064 0.53758 0.0
C311 C 0.20911 0.26022 0.52724 0.0
C312 C 0.24008 0.14393 0.52587 0.0
C313 C 0.2799 0.18476 0.51528 0.0
H314 H 0.38387 0.72269 0.49028 0.0
H315 H 0.24048 0.61147 0.51552 0.0
H316 H 0.16901 0.68767 0.50567 0.0
H317 H 0.14703 0.7836 0.48614 0.0
H318 H 0.29075 0.89538 0.4624 0.0
H319 H 0.36257 0.82154 0.47577 0.0
C320 C 0.33699 0.7153 0.49382 0.0
C321 C 0.31735 0.66139 0.50322 0.0
C322 C 0.29632 0.75935 0.48836 0.0
C323 C 0.25663 0.65263 0.50823 0.0
C324 C 0.21576 0.69608 0.5025 0.0
C325 C 0.19414 0.79179 0.48425 0.0
C326 C 0.2138 0.84445 0.47315 0.0
C327 C 0.23505 0.74922 0.49201 0.0
C328 C 0.27479 0.85515 0.47105 0.0
C329 C 0.31577 0.81286 0.47848 0.0
H330 H 0.96471 0.06069 0.135 0.0
H331 H 0.12605 0.96145 0.13247 0.0
H332 H 0.13105 0.96426 0.18725 0.0
H333 H 0.08939 0.99435 0.236 0.0
H334 H 0.93042 0.0966 0.23868 0.0
H335 H 0.92481 0.09346 0.18374 0.0
C336 C 0.00092 0.03961 0.14644 0.0
C337 C 0.04477 0.01068 0.12963 0.0
C338 C 0.004 0.04202 0.17797 0.0
C339 C 0.09176 0.98414 0.14481 0.0
C340 C 0.09462 0.98559 0.17616 0.0
C341 C 0.05346 0.01574 0.22449 0.0
C342 C 0.01022 0.0454 0.24127 0.0
C343 C 0.05094 0.01427 0.19296 0.0
C344 C 0.96435 0.07373 0.22616 0.0
C345 C 0.96103 0.07176 0.1948 0.0
H346 H -0.00073 0.05273 0.88891 0.0
H347 H 0.06503 0.88054 0.89807 0.0
H348 H 0.06636 0.86838 0.84337 0.0
H349 H 0.05037 0.90735 0.79312 0.0
H350 H 0.97468 0.07632 0.78444 0.0
H351 H 0.9771 0.08934 0.8387 0.0
C352 C 0.01405 0.01261 0.87889 0.0
C353 C 0.03246 0.96776 0.89744 0.0
C354 C 0.01334 0.00546 0.84751 0.0
C355 C 0.05058 0.91568 0.88423 0.0
C356 C 0.05147 0.90876 0.85297 0.0
C357 C 0.03341 0.94675 0.80294 0.0
C358 C 0.013 0.99092 0.78429 0.0
C359 C 0.0329 0.95338 0.83438 0.0
C360 C 0.99224 0.04196 0.79785 0.0
C361 C 0.993 0.04936 0.82904 0.0
H362 H 0.54566 0.51967 0.63146 0.0
H363 H 0.36539 0.45951 0.62652 0.0
H364 H 0.36096 0.45485 0.68131 0.0
H365 H 0.40893 0.46664 0.73069 0.0
H366 H 0.58686 0.53225 0.73583 0.0
H367 H 0.59172 0.53636 0.68091 0.0
C368 C 0.50548 0.50547 0.64241 0.0
C369 C 0.45609 0.48954 0.62501 0.0
C370 C 0.50285 0.50401 0.67392 0.0
C371 C 0.40397 0.47207 0.63946 0.0
C372 C 0.40144 0.46927 0.67076 0.0
C373 C 0.44863 0.48185 0.71967 0.0
C374 C 0.49759 0.49884 0.73705 0.0
C375 C 0.45066 0.48494 0.68821 0.0
C376 C 0.54864 0.51917 0.72275 0.0
C377 C 0.55147 0.52131 0.69142 0.0
H378 H 0.51074 0.57091 0.38822 0.0
H379 H 0.41615 0.41058 0.38875 0.0
H380 H 0.41249 0.40981 0.33395 0.0
H381 H 0.43506 0.45499 0.28597 0.0
H382 H 0.53524 0.61223 0.28529 0.0
H383 H 0.53653 0.61433 0.34003 0.0
C384 C 0.48921 0.53584 0.37636 0.0
C385 C 0.46362 0.49098 0.39262 0.0
C386 C 0.48786 0.53525 0.3448 0.0
C387 C 0.43638 0.44561 0.37684 0.0
C388 C 0.43413 0.44516 0.34548 0.0
C389 C 0.45791 0.4894 0.29769 0.0
C390 C 0.48474 0.5335 0.2813 0.0
C391 C 0.45977 0.48973 0.32923 0.0
C392 C 0.51313 0.57822 0.29713 0.0
C393 C 0.51437 0.57927 0.32852 0.0
loop_
_geom_bond_atom_site_label_1
_geom_bond_atom_site_label_2
_geom_bond_distance
_geom_bond_site_symmetry_2
_ccdc_geom_bond_type
O0 Zn1 1.953 . S
O0 C16 1.225 1_565 S
Zn1 O0 1.953 . S
Zn1 O2 1.949 1_565 S
Zn1 O8 1.919 . S
Zn1 O13 1.924 1_565 S
O2 Zn1 1.949 1_545 S
O2 Zn3 1.923 1_444 S
O2 Zn4 1.950 1_455 S
O2 Zn5 1.945 1_554 S
Zn3 O2 1.923 1_666 S
Zn3 O6 1.933 . S
Zn3 O9 1.941 1_655 S
Zn3 O10 1.965 . S
Zn4 O2 1.950 1_655 S
Zn4 O11 1.938 1_545 S
Zn4 O12 1.906 . S
Zn4 O22 1.953 . S
Zn5 O2 1.945 1_556 S
Zn5 O7 1.932 . S
Zn5 O14 1.977 1_455 S
Zn5 O15 1.910 . S
O6 Zn3 1.933 . S
O6 C17 1.226 1_665 S
O7 Zn5 1.932 . S
O7 C17 1.307 . S
O8 Zn1 1.919 . S
O8 C19 1.282 . S
O9 Zn3 1.941 1_455 S
O9 C19 1.269 1_556 S
O10 Zn3 1.965 . S
O10 C18 1.303 1_556 S
O11 Zn4 1.938 1_565 S
O11 C18 1.247 . S
O12 Zn4 1.906 . S
O12 C20 1.296 1_554 S
O13 Zn1 1.924 1_545 S
O13 C21 1.311 . S
O14 Zn5 1.977 1_655 S
O14 C20 1.276 . S
O15 Zn5 1.910 . S
O15 C21 1.231 1_556 S
C16 O0 1.225 1_545 S
C16 O22 1.298 1_455 S
C17 O6 1.226 1_445 S
C17 O7 1.307 . S
C18 O10 1.303 1_554 S
C18 O11 1.247 . S
C19 O8 1.282 . S
C19 O9 1.269 1_554 S
C20 O12 1.296 1_556 S
C20 O14 1.276 . S
C21 O13 1.311 . S
C21 O15 1.231 1_554 S
O22 Zn4 1.953 . S
O22 C16 1.298 1_655 S
O23 Zn24 1.953 . S
O23 C39 1.225 . S
Zn24 O23 1.953 . S
Zn24 O25 1.949 . S
Zn24 O31 1.919 . S
Zn24 O36 1.924 . S
O25 Zn24 1.949 . S
O25 Zn26 1.923 . S
O25 Zn27 1.950 . S
O25 Zn28 1.945 . S
Zn26 O25 1.923 . S
Zn26 O29 1.933 . S
Zn26 O32 1.941 . S
Zn26 O33 1.965 . S
Zn27 O25 1.950 . S
Zn27 O34 1.938 . S
Zn27 O35 1.906 . S
Zn27 O45 1.953 . S
Zn28 O25 1.945 . S
Zn28 O30 1.932 . S
Zn28 O37 1.977 . S
Zn28 O38 1.910 . S
O29 Zn26 1.933 . S
O29 C40 1.226 . S
O30 Zn28 1.932 . S
O30 C40 1.307 . S
O31 Zn24 1.919 . S
O31 C42 1.253 . S
O32 Zn26 1.941 . S
O32 C42 1.283 . S
O33 Zn26 1.965 . S
O33 C41 1.303 . S
O34 Zn27 1.938 . S
O34 C41 1.247 . S
O35 Zn27 1.906 . S
O35 C43 1.304 . S
O36 Zn24 1.924 . S
O36 C44 1.311 . S
O37 Zn28 1.977 . S
O37 C43 1.272 . S
O38 Zn28 1.910 . S
O38 C44 1.231 . S
C39 O23 1.225 . S
C39 O45 1.298 . S
C40 O29 1.226 . S
C40 O30 1.307 . S
C41 O33 1.303 . S
C41 O34 1.247 . S
C42 O31 1.253 . S
C42 O32 1.283 . S
C43 O35 1.304 . S
C43 O37 1.272 . S
C44 O36 1.311 . S
C44 O38 1.231 . S
O45 Zn27 1.953 . S
O45 C39 1.298 . S
C46 C47 1.392 1_455 S
C46 C48 1.397 . S
C46 H70 0.931 . S
C47 C46 1.392 1_655 S
C47 C51 1.391 1_665 S
C48 C46 1.397 . S
C48 C49 1.384 . S
C48 H71 0.930 . S
C49 C48 1.384 . S
C49 C50 1.377 1_565 S
C49 C52 1.481 . S
C50 C49 1.377 1_545 S
C50 C51 1.389 . S
C50 H72 0.929 . S
C51 C47 1.391 1_445 S
C51 C50 1.389 . S
C51 H73 0.931 . S
C52 C49 1.481 . S
C52 C53 1.394 . S
C52 C57 1.383 1_465 S
C53 C52 1.394 . S
C53 C54 1.401 . S
C53 H74 0.930 . S
C54 C53 1.401 . S
C54 C55 1.365 1_455 S
C54 C63 1.511 . S
C55 C54 1.365 1_655 S
C55 C56 1.403 1_565 S
C55 H76 0.932 . S
C56 C55 1.403 1_545 S
C56 C57 1.361 . S
C56 C58 1.500 . S
C57 C52 1.383 1_645 S
C57 C56 1.361 . S
C57 H75 0.931 . S
C58 C56 1.500 . S
C58 C59 1.371 . S
C58 C60 1.365 . S
C59 C58 1.371 . S
C59 C69 1.386 . S
C59 H77 0.931 . S
C60 C58 1.365 . S
C60 C61 1.409 . S
C60 H78 0.929 . S
C61 C60 1.409 . S
C61 C62 1.380 . S
C61 H79 0.930 . S
C62 C61 1.380 . S
C62 C69 1.357 . S
C63 C54 1.511 . S
C63 C64 1.341 . S
C63 C65 1.371 . S
C64 C63 1.341 . S
C64 C68 1.394 . S
C64 H80 0.930 . S
C65 C63 1.371 . S
C65 C66 1.392 . S
C65 H81 0.931 . S
C66 C65 1.392 . S
C66 C67 1.331 . S
C66 H84 0.932 . S
C67 C66 1.331 . S
C67 C68 1.336 . S
C68 C64 1.394 . S
C68 C67 1.336 . S
C68 H83 0.929 . S
C69 C59 1.386 . S
C69 C62 1.357 . S
C69 H82 0.928 . S
H70 C46 0.931 . S
H71 C48 0.930 . S
H72 C50 0.929 . S
H73 C51 0.931 . S
H74 C53 0.930 . S
H75 C57 0.931 . S
H76 C55 0.932 . S
H77 C59 0.931 . S
H78 C60 0.929 . S
H79 C61 0.930 . S
H80 C64 0.930 . S
H81 C65 0.931 . S
H82 C69 0.928 . S
H83 C68 0.929 . S
H84 C66 0.932 . S
C85 C86 1.386 . S
C85 C87 1.397 . S
C85 H109 0.931 . S
C86 C85 1.386 . S
C86 C90 1.397 1_545 S
C87 C85 1.397 . S
C87 C88 1.384 . S
C87 H110 0.930 . S
C88 C87 1.384 . S
C88 C89 1.377 1_545 S
C88 C91 1.481 . S
C89 C88 1.377 1_565 S
C89 C90 1.389 . S
C89 H111 0.929 . S
C90 C86 1.397 1_565 S
C90 C89 1.389 . S
C90 H112 0.931 . S
C91 C88 1.481 . S
C91 C92 1.387 . S
C91 C96 1.390 1_445 S
C92 C91 1.387 . S
C92 C93 1.401 . S
C92 H113 0.930 . S
C93 C92 1.401 . S
C93 C94 1.376 . S
C93 C102 1.511 . S
C94 C93 1.376 . S
C94 C95 1.392 1_445 S
C94 H115 0.931 . S
C95 C94 1.392 1_665 S
C95 C96 1.361 . S
C95 C97 1.500 . S
C96 C91 1.390 1_665 S
C96 C95 1.361 . S
C96 H114 0.931 . S
C97 C95 1.500 . S
C97 C98 1.371 . S
C97 C99 1.365 . S
C98 C97 1.371 . S
C98 C108 1.386 . S
C98 H116 0.931 . S
C99 C97 1.365 . S
C99 C100 1.409 . S
C99 H117 0.929 . S
C100 C99 1.409 . S
C100 C101 1.380 . S
C100 H118 0.930 . S
C101 C100 1.380 . S
C101 C108 1.357 . S
C102 C93 1.511 . S
C102 C103 1.341 . S
C102 C104 1.371 . S
C103 C102 1.341 . S
C103 C107 1.394 . S
C103 H119 0.930 . S
C104 C102 1.371 . S
C104 C105 1.392 . S
C104 H120 0.931 . S
C105 C104 1.392 . S
C105 C106 1.331 . S
C105 H123 0.932 . S
C106 C105 1.331 . S
C106 C107 1.336 . S
C107 C103 1.394 . S
C107 C106 1.336 . S
C107 H122 0.929 . S
C108 C98 1.386 . S
C108 C101 1.357 . S
C108 H121 0.928 . S
H109 C85 0.931 . S
H110 C87 0.930 . S
H111 C89 0.929 . S
H112 C90 0.931 . S
H113 C92 0.930 . S
H114 C96 0.931 . S
H115 C94 0.931 . S
H116 C98 0.931 . S
H117 C99 0.929 . S
H118 C100 0.930 . S
H119 C103 0.930 . S
H120 C104 0.931 . S
H121 C108 0.928 . S
H122 C107 0.929 . S
H123 C105 0.932 . S
C124 C125 1.386 . S
C124 C126 1.397 . S
C124 H148 0.931 . S
C125 C124 1.386 . S
C125 C129 1.397 . S
C126 C124 1.397 . S
C126 C127 1.384 . S
C126 H149 0.930 . S
C127 C126 1.384 . S
C127 C128 1.377 . S
C127 C130 1.481 . S
C128 C127 1.377 . S
C128 C129 1.389 . S
C128 H150 0.929 . S
C129 C125 1.397 . S
C129 C128 1.389 . S
C129 H151 0.931 . S
C130 C127 1.481 . S
C130 C131 1.387 . S
C130 C135 1.390 . S
C131 C130 1.387 . S
C131 C132 1.401 . S
C131 H152 0.930 . S
C132 C131 1.401 . S
C132 C133 1.376 . S
C132 C141 1.511 . S
C133 C132 1.376 . S
C133 C134 1.392 . S
C133 H154 0.931 . S
C134 C133 1.392 . S
C134 C135 1.361 . S
C134 C136 1.500 . S
C135 C130 1.390 . S
C135 C134 1.361 . S
C135 H153 0.931 . S
C136 C134 1.500 . S
C136 C137 1.371 . S
C136 C138 1.365 . S
C137 C136 1.371 . S
C137 C147 1.386 . S
C137 H155 0.931 . S
C138 C136 1.365 . S
C138 C139 1.409 . S
C138 H156 0.929 . S
C139 C138 1.409 . S
C139 C140 1.380 . S
C139 H157 0.930 . S
C140 C139 1.380 . S
C140 C147 1.357 . S
C141 C132 1.511 . S
C141 C142 1.341 . S
C141 C143 1.371 . S
C142 C141 1.341 . S
C142 C146 1.394 . S
C142 H158 0.930 . S
C143 C141 1.371 . S
C143 C144 1.392 . S
C143 H159 0.931 . S
C144 C143 1.392 . S
C144 C145 1.331 . S
C144 H162 0.932 . S
C145 C144 1.331 . S
C145 C146 1.336 . S
C146 C142 1.394 . S
C146 C145 1.336 . S
C146 H161 0.929 . S
C147 C137 1.386 . S
C147 C140 1.357 . S
C147 H160 0.928 . S
H148 C124 0.931 . S
H149 C126 0.930 . S
H150 C128 0.929 . S
H151 C129 0.931 . S
H152 C131 0.930 . S
H153 C135 0.931 . S
H154 C133 0.931 . S
H155 C137 0.931 . S
H156 C138 0.929 . S
H157 C139 0.930 . S
H158 C142 0.930 . S
H159 C143 0.931 . S
H160 C147 0.928 . S
H161 C146 0.929 . S
H162 C144 0.932 . S
C163 C164 1.386 . S
C163 C165 1.397 . S
C163 H187 0.931 . S
C164 C163 1.386 . S
C164 C168 1.397 . S
C165 C163 1.397 . S
C165 C166 1.384 . S
C165 H188 0.930 . S
C166 C165 1.384 . S
C166 C167 1.377 . S
C166 C169 1.481 . S
C167 C166 1.377 . S
C167 C168 1.389 . S
C167 H189 0.929 . S
C168 C164 1.397 . S
C168 C167 1.389 . S
C168 H190 0.931 . S
C169 C166 1.481 . S
C169 C170 1.387 . S
C169 C174 1.390 . S
C170 C169 1.387 . S
C170 C171 1.401 . S
C170 H191 0.930 . S
C171 C170 1.401 . S
C171 C172 1.376 . S
C171 C180 1.511 . S
C172 C171 1.376 . S
C172 C173 1.392 . S
C172 H193 0.931 . S
C173 C172 1.392 . S
C173 C174 1.361 . S
C173 C175 1.500 . S
C174 C169 1.390 . S
C174 C173 1.361 . S
C174 H192 0.931 . S
C175 C173 1.500 . S
C175 C176 1.371 . S
C175 C177 1.365 . S
C176 C175 1.371 . S
C176 C186 1.386 . S
C176 H194 0.931 . S
C177 C175 1.365 . S
C177 C178 1.409 . S
C177 H195 0.929 . S
C178 C177 1.409 . S
C178 C179 1.380 . S
C178 H196 0.930 . S
C179 C178 1.380 . S
C179 C186 1.357 . S
C180 C171 1.511 . S
C180 C181 1.341 . S
C180 C182 1.371 . S
C181 C180 1.341 . S
C181 C185 1.394 . S
C181 H197 0.930 . S
C182 C180 1.371 . S
C182 C183 1.392 . S
C182 H198 0.931 . S
C183 C182 1.392 . S
C183 C184 1.331 . S
C183 H201 0.932 . S
C184 C183 1.331 . S
C184 C185 1.336 . S
C185 C181 1.394 . S
C185 C184 1.336 . S
C185 H200 0.929 . S
C186 C176 1.386 . S
C186 C179 1.357 . S
C186 H199 0.928 . S
H187 C163 0.931 . S
H188 C165 0.930 . S
H189 C167 0.929 . S
H190 C168 0.931 . S
H191 C170 0.930 . S
H192 C174 0.931 . S
H193 C172 0.931 . S
H194 C176 0.931 . S
H195 C177 0.929 . S
H196 C178 0.930 . S
H197 C181 0.930 . S
H198 C182 0.931 . S
H199 C186 0.928 . S
H200 C185 0.929 . S
H201 C183 0.932 . S
H202 C208 0.930 . S
H203 C211 0.930 . S
H204 C212 0.930 . S
H205 C213 0.930 . S
H206 C216 0.930 . S
H207 C217 0.930 . S
C208 H202 0.930 . S
C208 C209 1.355 . S
C208 C210 1.415 . S
C209 C208 1.355 . S
C209 C211 1.419 . S
C210 C208 1.415 . S
C210 C215 1.425 . S
C210 C217 1.409 . S
C211 H203 0.930 . S
C211 C209 1.419 . S
C211 C212 1.362 . S
C212 H204 0.930 . S
C212 C211 1.362 . S
C212 C215 1.409 . S
C213 H205 0.930 . S
C213 C214 1.355 . S
C213 C215 1.415 . S
C214 C213 1.355 . S
C214 C216 1.419 . S
C215 C210 1.425 . S
C215 C212 1.409 . S
C215 C213 1.415 . S
C216 H206 0.930 . S
C216 C214 1.419 . S
C216 C217 1.362 . S
C217 H207 0.930 . S
C217 C210 1.409 . S
C217 C216 1.362 . S
H218 C224 0.930 . S
H219 C227 0.930 . S
H220 C228 0.930 . S
H221 C229 0.930 . S
H222 C232 0.930 1_554 S
H223 C233 0.930 . S
C224 H218 0.930 . S
C224 C225 1.355 1_554 S
C224 C226 1.415 1_554 S
C225 C224 1.355 1_556 S
C225 C227 1.419 . S
C226 C224 1.415 1_556 S
C226 C231 1.425 . S
C226 C233 1.409 1_556 S
C227 H219 0.930 . S
C227 C225 1.419 . S
C227 C228 1.362 . S
C228 H220 0.930 . S
C228 C227 1.362 . S
C228 C231 1.409 . S
C229 H221 0.930 . S
C229 C230 1.355 . S
C229 C231 1.415 . S
C230 C229 1.355 . S
C230 C232 1.419 . S
C231 C226 1.425 . S
C231 C228 1.409 . S
C231 C229 1.415 . S
C232 H222 0.930 1_556 S
C232 C230 1.419 . S
C232 C233 1.362 1_556 S
C233 H223 0.930 . S
C233 C226 1.409 1_554 S
C233 C232 1.362 1_554 S
H234 C240 0.930 . S
H235 C243 0.930 . S
H236 C244 0.930 . S
H237 C245 0.930 . S
H238 C248 0.930 . S
H239 C249 0.930 . S
C240 H234 0.930 . S
C240 C241 1.355 . S
C240 C242 1.415 . S
C241 C240 1.355 . S
C241 C243 1.419 . S
C242 C240 1.415 . S
C242 C247 1.425 . S
C242 C249 1.409 . S
C243 H235 0.930 . S
C243 C241 1.419 . S
C243 C244 1.362 . S
C244 H236 0.930 . S
C244 C243 1.362 . S
C244 C247 1.409 . S
C245 H237 0.930 . S
C245 C246 1.355 . S
C245 C247 1.415 . S
C246 C245 1.355 . S
C246 C248 1.419 . S
C247 C242 1.425 . S
C247 C244 1.409 . S
C247 C245 1.415 . S
C248 H238 0.930 . S
C248 C246 1.419 . S
C248 C249 1.362 . S
C249 H239 0.930 . S
C249 C242 1.409 . S
C249 C248 1.362 . S
H250 C256 0.930 . S
H251 C259 0.930 . S
H252 C260 0.930 . S
H253 C261 0.930 1_554 S
H254 C264 0.930 . S
H255 C265 0.930 . S
C256 H250 0.930 . S
C256 C257 1.355 . S
C256 C258 1.415 . S
C257 C256 1.355 . S
C257 C259 1.419 1_556 S
C258 C256 1.415 . S
C258 C263 1.425 . S
C258 C265 1.409 . S
C259 H251 0.930 . S
C259 C257 1.419 1_554 S
C259 C260 1.362 . S
C260 H252 0.930 . S
C260 C259 1.362 . S
C260 C263 1.409 1_554 S
C261 H253 0.930 1_556 S
C261 C262 1.355 . S
C261 C263 1.415 . S
C262 C261 1.355 . S
C262 C264 1.419 . S
C263 C258 1.425 . S
C263 C260 1.409 1_556 S
C263 C261 1.415 . S
C264 H254 0.930 . S
C264 C262 1.419 . S
C264 C265 1.362 . S
C265 H255 0.930 . S
C265 C258 1.409 . S
C265 C264 1.362 . S
H266 C272 0.930 . S
H267 C275 0.930 . S
H268 C276 0.930 . S
H269 C277 0.930 . S
H270 C280 0.930 . S
H271 C281 0.930 . S
C272 H266 0.930 . S
C272 C273 1.355 . S
C272 C274 1.415 . S
C273 C272 1.355 . S
C273 C275 1.419 . S
C274 C272 1.415 . S
C274 C279 1.425 . S
C274 C281 1.409 . S
C275 H267 0.930 . S
C275 C273 1.419 . S
C275 C276 1.362 . S
C276 H268 0.930 . S
C276 C275 1.362 . S
C276 C279 1.409 . S
C277 H269 0.930 . S
C277 C278 1.355 . S
C277 C279 1.415 . S
C278 C277 1.355 . S
C278 C280 1.419 . S
C279 C274 1.425 . S
C279 C276 1.409 . S
C279 C277 1.415 . S
C280 H270 0.930 . S
C280 C278 1.419 . S
C280 C281 1.362 . S
C281 H271 0.930 . S
C281 C274 1.409 . S
C281 C280 1.362 . S
H282 C288 0.930 . S
H283 C291 0.930 . S
H284 C292 0.930 . S
H285 C293 0.930 . S
H286 C296 0.930 . S
H287 C297 0.930 . S
C288 H282 0.930 . S
C288 C289 1.355 . S
C288 C290 1.415 . S
C289 C288 1.355 . S
C289 C291 1.419 . S
C290 C288 1.415 . S
C290 C295 1.425 . S
C290 C297 1.409 . S
C291 H283 0.930 . S
C291 C289 1.419 . S
C291 C292 1.362 . S
C292 H284 0.930 . S
C292 C291 1.362 . S
C292 C295 1.409 . S
C293 H285 0.930 . S
C293 C294 1.355 . S
C293 C295 1.415 . S
C294 C293 1.355 . S
C294 C296 1.419 . S
C295 C290 1.425 . S
C295 C292 1.409 . S
C295 C293 1.415 . S
C296 H286 0.930 . S
C296 C294 1.419 . S
C296 C297 1.362 . S
C297 H287 0.930 . S
C297 C290 1.409 . S
C297 C296 1.362 . S
H298 C304 0.930 . S
H299 C307 0.930 . S
H300 C308 0.930 . S
H301 C309 0.930 . S
H302 C312 0.930 . S
H303 C313 0.930 . S
C304 H298 0.930 . S
C304 C305 1.355 . S
C304 C306 1.415 . S
C305 C304 1.355 . S
C305 C307 1.419 . S
C306 C304 1.415 . S
C306 C311 1.425 . S
C306 C313 1.409 . S
C307 H299 0.930 . S
C307 C305 1.419 . S
C307 C308 1.362 . S
C308 H300 0.930 . S
C308 C307 1.362 . S
C308 C311 1.409 . S
C309 H301 0.930 . S
C309 C310 1.355 . S
C309 C311 1.415 . S
C310 C309 1.355 . S
C310 C312 1.419 . S
C311 C306 1.425 . S
C311 C308 1.409 . S
C311 C309 1.415 . S
C312 H302 0.930 . S
C312 C310 1.419 . S
C312 C313 1.362 . S
C313 H303 0.930 . S
C313 C306 1.409 . S
C313 C312 1.362 . S
H314 C320 0.930 . S
H315 C323 0.930 . S
H316 C324 0.930 . S
H317 C325 0.930 . S
H318 C328 0.930 . S
H319 C329 0.930 . S
C320 H314 0.930 . S
C320 C321 1.355 . S
C320 C322 1.415 . S
C321 C320 1.355 . S
C321 C323 1.419 . S
C322 C320 1.415 . S
C322 C327 1.425 . S
C322 C329 1.409 . S
C323 H315 0.930 . S
C323 C321 1.419 . S
C323 C324 1.362 . S
C324 H316 0.930 . S
C324 C323 1.362 . S
C324 C327 1.409 . S
C325 H317 0.930 . S
C325 C326 1.355 . S
C325 C327 1.415 . S
C326 C325 1.355 . S
C326 C328 1.419 . S
C327 C322 1.425 . S
C327 C324 1.409 . S
C327 C325 1.415 . S
C328 H318 0.930 . S
C328 C326 1.419 . S
C328 C329 1.362 . S
C329 H319 0.930 . S
C329 C322 1.409 . S
C329 C328 1.362 . S
H330 C336 0.930 . S
H331 C339 0.930 . S
H332 C340 0.930 . S
H333 C341 0.930 . S
H334 C344 0.930 . S
H335 C345 0.930 . S
C336 H330 0.930 . S
C336 C337 1.355 1_655 S
C336 C338 1.415 . S
C337 C336 1.355 1_455 S
C337 C339 1.419 1_545 S
C338 C336 1.415 . S
C338 C343 1.425 1_645 S
C338 C345 1.409 . S
C339 H331 0.930 . S
C339 C337 1.419 1_565 S
C339 C340 1.362 . S
C340 H332 0.930 . S
C340 C339 1.362 . S
C340 C343 1.409 . S
C341 H333 0.930 . S
C341 C342 1.355 1_465 S
C341 C343 1.415 . S
C342 C341 1.355 1_645 S
C342 C344 1.419 . S
C343 C338 1.425 1_465 S
C343 C340 1.409 . S
C343 C341 1.415 . S
C344 H334 0.930 . S
C344 C342 1.419 . S
C344 C345 1.362 . S
C345 H335 0.930 . S
C345 C338 1.409 . S
C345 C344 1.362 . S
H346 C352 0.930 . S
H347 C355 0.930 . S
H348 C356 0.930 . S
H349 C357 0.930 . S
H350 C360 0.930 . S
H351 C361 0.930 . S
C352 H346 0.930 . S
C352 C353 1.356 1_655 S
C352 C354 1.415 . S
C353 C352 1.356 1_455 S
C353 C355 1.418 1_545 S
C354 C352 1.415 . S
C354 C359 1.425 1_645 S
C354 C361 1.409 . S
C355 H347 0.930 . S
C355 C353 1.418 1_565 S
C355 C356 1.362 . S
C356 H348 0.930 . S
C356 C355 1.362 . S
C356 C359 1.409 . S
C357 H349 0.930 . S
C357 C358 1.355 1_565 S
C357 C359 1.415 . S
C358 C357 1.355 1_545 S
C358 C360 1.419 1_455 S
C359 C354 1.425 1_465 S
C359 C356 1.409 . S
C359 C357 1.415 . S
C360 H350 0.930 . S
C360 C358 1.419 1_655 S
C360 C361 1.362 . S
C361 H351 0.930 . S
C361 C354 1.409 . S
C361 C360 1.362 . S
H362 C368 0.930 . S
H363 C371 0.930 . S
H364 C372 0.930 . S
H365 C373 0.930 . S
H366 C376 0.930 . S
H367 C377 0.930 . S
C368 H362 0.930 . S
C368 C369 1.355 . S
C368 C370 1.415 . S
C369 C368 1.355 . S
C369 C371 1.419 . S
C370 C368 1.415 . S
C370 C375 1.425 . S
C370 C377 1.409 . S
C371 H363 0.930 . S
C371 C369 1.419 . S
C371 C372 1.362 . S
C372 H364 0.930 . S
C372 C371 1.362 . S
C372 C375 1.409 . S
C373 H365 0.930 . S
C373 C374 1.355 . S
C373 C375 1.415 . S
C374 C373 1.355 . S
C374 C376 1.419 . S
C375 C370 1.425 . S
C375 C372 1.409 . S
C375 C373 1.415 . S
C376 H366 0.930 . S
C376 C374 1.419 . S
C376 C377 1.362 . S
C377 H367 0.930 . S
C377 C370 1.409 . S
C377 C376 1.362 . S
H378 C384 0.930 . S
H379 C387 0.930 . S
H380 C388 0.930 . S
H381 C389 0.930 . S
H382 C392 0.930 . S
H383 C393 0.930 . S
C384 H378 0.930 . S
C384 C385 1.355 . S
C384 C386 1.415 . S
C385 C384 1.355 . S
C385 C387 1.419 . S
C386 C384 1.415 . S
C386 C391 1.425 . S
C386 C393 1.409 . S
C387 H379 0.930 . S
C387 C385 1.419 . S
C387 C388 1.362 . S
C388 H380 0.930 . S
C388 C387 1.362 . S
C388 C391 1.409 . S
C389 H381 0.930 . S
C389 C390 1.355 . S
C389 C391 1.415 . S
C390 C389 1.355 . S
C390 C392 1.419 . S
C391 C386 1.425 . S
C391 C388 1.409 . S
C391 C389 1.415 . S
C392 H382 0.930 . S
C392 C390 1.419 . S
C392 C393 1.362 . S
C393 H383 0.930 . S
C393 C386 1.409 . S
C393 C392 1.362 . S
C214 C179 1.449 . S
C209 C21 1.446 . S
C225 C19 1.461 1_556 S
C230 C140 1.468 . S
C241 C18 1.414 . S
C246 C184 1.442 . S
C257 C20 1.436 . S
C262 C145 1.425 . S
C273 C44 1.482 . S
C278 C101 1.474 . S
C289 C42 1.434 . S
C294 C62 1.440 . S
C310 C106 1.419 . S
C305 C41 1.406 . S
C326 C67 1.434 . S
C321 C43 1.453 . S
C337 C16 1.487 . S
C342 C47 1.491 1_545 S
C353 C17 1.457 . S
C358 C86 1.453 . S
C374 C125 1.488 . S
C369 C39 1.487 . S
C385 C40 1.451 . S
C390 C164 1.452 . S
