# Generated by pormake.
# Topology apo, (3,6)-cn, num edge types: 1
# Building blocks:
#     Node 0, Type 0, BuildingBlock: CUQRIR_clean_linker_1, # of connection points: 3
#     Node 1, Type 0, BuildingBlock: CUQRIR_clean_linker_1, # of connection points: 3
#     Node 2, Type 0, BuildingBlock: CUQRIR_clean_linker_1, # of connection points: 3
#     Node 3, Type 0, BuildingBlock: CUQRIR_clean_linker_1, # of connection points: 3
#     Node 4, Type 0, BuildingBlock: CUQRIR_clean_linker_1, # of connection points: 3
#     Node 5, Type 0, BuildingBlock: CUQRIR_clean_linker_1, # of connection points: 3
#     Node 6, Type 0, BuildingBlock: CUQRIR_clean_linker_1, # of connection points: 3
#     Node 7, Type 0, BuildingBlock: CUQRIR_clean_linker_1, # of connection points: 3
#     Node 8, Type 1, BuildingBlock: KUMBUR_clean_sbu_1, # of connection points: 6
#     Node 9, Type 1, BuildingBlock: KUMBUR_clean_sbu_1, # of connection points: 6
#     Node 10, Type 1, BuildingBlock: KUMBUR_clean_sbu_1, # of connection points: 6
#     Node 11, Type 1, BuildingBlock: KUMBUR_clean_sbu_1, # of connection points: 6
#     Edge 12, Type (0, 1), BuildingBlock: UVAHIK_clean_linker_0, # of connection points: 2
#     Edge 13, Type (0, 1), BuildingBlock: UVAHIK_clean_linker_0, # of connection points: 2
#     Edge 14, Type (0, 1), BuildingBlock: UVAHIK_clean_linker_0, # of connection points: 2
#     Edge 15, Type (0, 1), BuildingBlock: UVAHIK_clean_linker_0, # of connection points: 2
#     Edge 16, Type (0, 1), BuildingBlock: UVAHIK_clean_linker_0, # of connection points: 2
#     Edge 17, Type (0, 1), BuildingBlock: UVAHIK_clean_linker_0, # of connection points: 2
#     Edge 18, Type (0, 1), BuildingBlock: UVAHIK_clean_linker_0, # of connection points: 2
#     Edge 19, Type (0, 1), BuildingBlock: UVAHIK_clean_linker_0, # of connection points: 2
#     Edge 20, Type (0, 1), BuildingBlock: UVAHIK_clean_linker_0, # of connection points: 2
#     Edge 21, Type (0, 1), BuildingBlock: UVAHIK_clean_linker_0, # of connection points: 2
#     Edge 22, Type (0, 1), BuildingBlock: UVAHIK_clean_linker_0, # of connection points: 2
#     Edge 23, Type (0, 1), BuildingBlock: UVAHIK_clean_linker_0, # of connection points: 2
#     Edge 24, Type (0, 1), BuildingBlock: UVAHIK_clean_linker_0, # of connection points: 2
#     Edge 25, Type (0, 1), BuildingBlock: UVAHIK_clean_linker_0, # of connection points: 2
#     Edge 26, Type (0, 1), BuildingBlock: UVAHIK_clean_linker_0, # of connection points: 2
#     Edge 27, Type (0, 1), BuildingBlock: UVAHIK_clean_linker_0, # of connection points: 2
#     Edge 28, Type (0, 1), BuildingBlock: UVAHIK_clean_linker_0, # of connection points: 2
#     Edge 29, Type (0, 1), BuildingBlock: UVAHIK_clean_linker_0, # of connection points: 2
#     Edge 30, Type (0, 1), BuildingBlock: UVAHIK_clean_linker_0, # of connection points: 2
#     Edge 31, Type (0, 1), BuildingBlock: UVAHIK_clean_linker_0, # of connection points: 2
#     Edge 32, Type (0, 1), BuildingBlock: UVAHIK_clean_linker_0, # of connection points: 2
#     Edge 33, Type (0, 1), BuildingBlock: UVAHIK_clean_linker_0, # of connection points: 2
#     Edge 34, Type (0, 1), BuildingBlock: UVAHIK_clean_linker_0, # of connection points: 2
#     Edge 35, Type (0, 1), BuildingBlock: UVAHIK_clean_linker_0, # of connection points: 2
# Relax obj value: 0.047
# Max RMSD: 0.213
# Mean RMSD: 0.169
data_MOF--net-apo--node1-KUMBUR_clean_sbu_1--node2-CUQRIR_clean_linker_1--edge1-UVAHIK_clean_linker_0
_symmetry_space_group_name_H-M    P1
_symmetry_Int_Tables_number       1
_symmetry_cell_setting            triclinic
loop_
_symmetry_equiv_pos_as_xyz
'x, y, z'
_cell_length_a     33.555369
_cell_length_b     52.180973
_cell_length_c     60.075799
_cell_angle_alpha  89.992285
_cell_angle_beta   89.928004
_cell_angle_gamma 90.291142
loop_
_atom_site_label
_atom_site_type_symbol
_atom_site_fract_x
_atom_site_fract_y
_atom_site_fract_z
_atom_type_partial_charge
C0 C 0.26974 0.34381 0.42422 0.0
N1 N 0.29301 0.36498 0.42658 0.0
N2 N 0.26388 0.33845 0.40239 0.0
C3 C 0.2557 0.32701 0.44305 0.0
C4 C 0.28447 0.357 0.39156 0.0
N5 N 0.3024 0.37295 0.40621 0.0
C6 C 0.28543 0.36031 0.36667 0.0
H7 H 0.25093 0.307 0.43736 0.0
H8 H 0.22698 0.33447 0.44944 0.0
H9 H 0.27758 0.32708 0.45688 0.0
H10 H 0.25829 0.35209 0.35886 0.0
H11 H 0.31185 0.35021 0.35994 0.0
H12 H 0.28799 0.38086 0.36212 0.0
C13 C 0.24981 0.16063 0.92805 0.0
N14 N 0.2234 0.14097 0.92954 0.0
N15 N 0.25497 0.16768 0.90655 0.0
C16 C 0.26867 0.17387 0.94762 0.0
C17 C 0.23077 0.15171 0.89503 0.0
N18 N 0.21119 0.13561 0.90901 0.0
C19 C 0.22847 0.15086 0.87002 0.0
H20 H 0.24686 0.17571 0.96142 0.0
H21 H 0.28021 0.19312 0.94303 0.0
H22 H 0.29384 0.16207 0.95369 0.0
H23 H 0.25586 0.15897 0.86234 0.0
H24 H 0.20269 0.16243 0.86445 0.0
H25 H 0.22426 0.1309 0.86407 0.0
C26 C 0.76985 0.16941 0.60336 0.0
N27 N 0.79445 0.14901 0.60101 0.0
N28 N 0.76532 0.17545 0.6251 0.0
C29 C 0.75248 0.1846 0.58446 0.0
C30 C 0.78798 0.15815 0.63595 0.0
N31 N 0.80619 0.14227 0.62132 0.0
C32 C 0.78931 0.15538 0.66091 0.0
H33 H 0.77315 0.18499 0.57003 0.0
H34 H 0.746 0.20454 0.58967 0.0
H35 H 0.72416 0.17543 0.57912 0.0
H36 H 0.76232 0.16358 0.6688 0.0
H37 H 0.81578 0.1658 0.66736 0.0
H38 H 0.79173 0.13494 0.66578 0.0
C39 C 0.73166 0.33934 0.10559 0.0
N40 N 0.71207 0.36172 0.10272 0.0
N41 N 0.75042 0.33905 0.12553 0.0
C42 C 0.73435 0.31842 0.08846 0.0
C43 C 0.74162 0.36206 0.13466 0.0
N44 N 0.71874 0.37599 0.12065 0.0
C45 C 0.75223 0.36991 0.15804 0.0
H46 H 0.70805 0.3056 0.09019 0.0
H47 H 0.76171 0.30688 0.09078 0.0
H48 H 0.73421 0.32656 0.07139 0.0
H49 H 0.77991 0.38162 0.15758 0.0
H50 H 0.7574 0.35297 0.16878 0.0
H51 H 0.72826 0.38168 0.16554 0.0
C52 C 0.74467 0.6663 0.60395 0.0
N53 N 0.72158 0.64511 0.60114 0.0
N54 N 0.75306 0.6699 0.62577 0.0
C55 C 0.75914 0.68342 0.58545 0.0
C56 C 0.73405 0.65039 0.63617 0.0
N57 N 0.71475 0.63543 0.62126 0.0
C58 C 0.735 0.64568 0.66087 0.0
H59 H 0.78722 0.6755 0.5786 0.0
H60 H 0.7654 0.70309 0.5915 0.0
H61 H 0.73686 0.68426 0.57183 0.0
H62 H 0.74075 0.66372 0.67013 0.0
H63 H 0.75935 0.63204 0.6646 0.0
H64 H 0.7066 0.63705 0.66672 0.0
C65 C 0.76993 0.84629 0.10209 0.0
N66 N 0.79286 0.86756 0.09936 0.0
N67 N 0.76198 0.84236 0.12394 0.0
C68 C 0.75494 0.82958 0.08348 0.0
C69 C 0.78108 0.86178 0.13441 0.0
N70 N 0.80008 0.87696 0.11952 0.0
C71 C 0.78024 0.8663 0.15913 0.0
H72 H 0.727 0.83786 0.07683 0.0
H73 H 0.74831 0.80987 0.08932 0.0
H74 H 0.77708 0.82878 0.06976 0.0
H75 H 0.77524 0.8481 0.1683 0.0
H76 H 0.75543 0.87953 0.16306 0.0
H77 H 0.8084 0.8753 0.16488 0.0
C78 C 0.24135 0.84234 0.42327 0.0
N79 N 0.2151 0.86185 0.42494 0.0
N80 N 0.24858 0.83673 0.40164 0.0
C81 C 0.25941 0.82868 0.44285 0.0
C82 C 0.22553 0.85343 0.39021 0.0
N83 N 0.20476 0.86851 0.40442 0.0
C84 C 0.22293 0.85491 0.3652 0.0
H85 H 0.27622 0.84262 0.4532 0.0
H86 H 0.27999 0.81323 0.43772 0.0
H87 H 0.23528 0.82052 0.45337 0.0
H88 H 0.24771 0.8449 0.3568 0.0
H89 H 0.22262 0.87522 0.35972 0.0
H90 H 0.1947 0.84577 0.35971 0.0
C91 C 0.27278 0.67199 0.92189 0.0
N92 N 0.29592 0.6511 0.92521 0.0
N93 N 0.26935 0.67709 0.89988 0.0
C94 C 0.25583 0.68854 0.94005 0.0
C95 C 0.29129 0.65869 0.88991 0.0
N96 N 0.30774 0.64307 0.90529 0.0
C97 C 0.29471 0.65507 0.86513 0.0
H98 H 0.2267 0.68047 0.94538 0.0
H99 H 0.25099 0.7084 0.93406 0.0
H100 H 0.27599 0.68903 0.95467 0.0
H101 H 0.32177 0.66526 0.85915 0.0
H102 H 0.26844 0.66305 0.85639 0.0
H103 H 0.29769 0.6345 0.86082 0.0
Tb104 Tb 0.05278 0.11614 0.24346 0.0
C105 C 0.89839 0.06808 0.27587 0.0
N106 N 0.9055 0.09336 0.27238 0.0
C107 C 0.84432 0.09691 0.25206 0.0
C108 C 0.86491 0.05579 0.26656 0.0
C109 C 0.87821 0.10819 0.26157 0.0
C110 C 0.838 0.0705 0.25423 0.0
C111 C 0.91698 0.02896 0.29465 0.0
C112 C 0.92411 0.05496 0.28961 0.0
C113 C 0.88497 0.01608 0.28443 0.0
C114 C 0.85893 0.02949 0.27041 0.0
Tb115 Tb 0.96207 0.10994 0.28781 0.0
N116 N 0.95407 0.06832 0.29948 0.0
C117 C 0.94106 0.01711 0.31058 0.0
C118 C 0.97468 0.05758 0.31671 0.0
C119 C 0.96945 0.03167 0.32203 0.0
H120 H 0.88318 0.12857 0.25988 0.0
H121 H 0.9869 0.02306 0.33517 0.0
H122 H 0.1189 0.0725 0.2618 0.0
H123 H 0.07486 0.2161 0.22485 0.0
H124 H 0.99511 0.06896 0.3265 0.0
H125 H 0.93666 0.99715 0.31494 0.0
H126 H 0.0415 0.17369 0.22227 0.0
H127 H 0.82321 0.10856 0.24302 0.0
H128 H 0.87927 0.99601 0.28787 0.0
H129 H 0.83365 0.01954 0.26318 0.0
H130 H 0.18039 0.07284 0.28399 0.0
H131 H 0.81181 0.0618 0.24681 0.0
H132 H 0.13499 0.22133 0.24834 0.0
N133 N 0.11263 0.11321 0.26186 0.0
C134 C 0.13161 0.13585 0.2657 0.0
C135 C 0.16659 0.09076 0.27931 0.0
C136 C 0.16776 0.13696 0.2776 0.0
C137 C 0.13111 0.09068 0.26711 0.0
C138 C 0.18457 0.11403 0.28502 0.0
N139 N 0.08188 0.15567 0.24446 0.0
C140 C 0.06777 0.17594 0.23249 0.0
C141 C 0.13608 0.18146 0.25834 0.0
C142 C 0.11617 0.15777 0.25624 0.0
C143 C 0.12058 0.20276 0.24717 0.0
C144 C 0.0866 0.19989 0.23391 0.0
H145 H 0.21231 0.11402 0.29423 0.0
H146 H 0.21422 0.16206 0.29024 0.0
H147 H 0.18638 0.20109 0.27337 0.0
O148 O 0.04162 0.11733 0.20897 0.0
O149 O 0.03665 0.14724 0.26644 0.0
O150 O 0.01834 0.12716 0.29867 0.0
O151 O 0.09918 0.10707 0.22127 0.0
O152 O 0.99613 0.13328 0.23305 0.0
O153 O 0.95873 0.14276 0.26494 0.0
O154 O 0.93229 0.10784 0.31899 0.0
O155 O 0.956 0.09575 0.25335 0.0
O156 O 0.01798 0.08067 0.24437 0.0
O157 O 0.93358 0.14311 0.29964 0.0
O158 O 0.02165 0.09632 0.29726 0.0
O159 O 0.04968 0.08158 0.26457 0.0
C160 C 0.03709 0.14571 0.2882 0.0
C161 C 0.07894 0.0884 0.18745 0.0
C162 C 0.09188 0.07396 0.14948 0.0
C163 C 0.08561 0.04852 0.1564 0.0
C164 C 0.07257 0.06293 0.19405 0.0
C165 C 0.0757 0.04311 0.17853 0.0
C166 C 0.08814 0.09388 0.16513 0.0
C167 C 0.9677 0.14591 0.24363 0.0
C168 C 0.07699 0.1094 0.20372 0.0
C169 C 0.18671 0.16076 0.28087 0.0
C170 C 0.17094 0.18298 0.27121 0.0
C171 C 0.97903 0.07948 0.24279 0.0
C172 C 0.89751 0.14477 0.33475 0.0
C173 C 0.87154 0.14789 0.37271 0.0
C174 C 0.84986 0.1697 0.36639 0.0
C175 C 0.87588 0.16674 0.32894 0.0
C176 C 0.89548 0.13547 0.35676 0.0
C177 C 0.85218 0.17907 0.34469 0.0
C178 C 0.04466 0.08032 0.28631 0.0
C179 C 0.92153 0.13164 0.31764 0.0
H180 H 0.08811 0.03286 0.14465 0.0
H181 H 0.0656 0.0584 0.21121 0.0
H182 H 0.07074 0.02348 0.1837 0.0
H183 H 0.09334 0.11357 0.16006 0.0
H184 H 0.8315 0.17973 0.37837 0.0
H185 H 0.87694 0.17426 0.31213 0.0
H186 H 0.91215 0.11857 0.36143 0.0
H187 H 0.83552 0.19595 0.34004 0.0
Tb188 Tb 0.45449 0.39623 0.74422 0.0
C189 C 0.62786 0.42311 0.76645 0.0
N190 N 0.61062 0.39953 0.76794 0.0
C191 C 0.66659 0.38081 0.7493 0.0
C192 C 0.66491 0.42654 0.75577 0.0
C193 C 0.62961 0.3784 0.75988 0.0
C194 C 0.68425 0.405 0.74713 0.0
C195 C 0.62372 0.46883 0.77319 0.0
C196 C 0.60725 0.44399 0.77486 0.0
C197 C 0.66057 0.47239 0.76246 0.0
C198 C 0.68111 0.45131 0.75378 0.0
Tb199 Tb 0.54988 0.39803 0.78499 0.0
N200 N 0.57099 0.43992 0.78453 0.0
C201 C 0.60285 0.4893 0.78256 0.0
C202 C 0.55244 0.45951 0.79537 0.0
C203 C 0.56743 0.48453 0.79407 0.0
H204 H 0.61666 0.3596 0.76198 0.0
H205 H 0.55206 0.50004 0.80234 0.0
H206 H 0.39187 0.44311 0.75676 0.0
H207 H 0.43608 0.29316 0.7412 0.0
H208 H 0.52707 0.45603 0.80581 0.0
H209 H 0.61446 0.50869 0.78165 0.0
H210 H 0.4716 0.33386 0.73551 0.0
H211 H 0.68149 0.36402 0.74287 0.0
H212 H 0.67354 0.49137 0.7609 0.0
H213 H 0.70948 0.45436 0.74554 0.0
H214 H 0.32306 0.44702 0.77088 0.0
H215 H 0.71278 0.40682 0.73881 0.0
H216 H 0.36698 0.2931 0.75559 0.0
N217 N 0.39068 0.40239 0.75617 0.0
C218 C 0.36842 0.38084 0.75912 0.0
C219 C 0.33555 0.42828 0.76779 0.0
C220 C 0.32885 0.38214 0.7669 0.0
C221 C 0.37473 0.42599 0.76009 0.0
C222 C 0.31254 0.40625 0.7713 0.0
N223 N 0.42455 0.35693 0.74804 0.0
C224 C 0.44214 0.33429 0.74245 0.0
C225 C 0.36399 0.33445 0.75789 0.0
C226 C 0.38576 0.35732 0.75468 0.0
C227 C 0.38263 0.31112 0.7533 0.0
C228 C 0.42173 0.31108 0.74532 0.0
H229 H 0.28222 0.40808 0.77729 0.0
H230 H 0.27659 0.35998 0.7762 0.0
H231 H 0.30739 0.31822 0.76834 0.0
O232 O 0.45932 0.38554 0.71055 0.0
O233 O 0.44796 0.37848 0.77723 0.0
O234 O 0.51022 0.3647 0.78868 0.0
O235 O 0.41587 0.41311 0.72088 0.0
O236 O 0.50927 0.376 0.73438 0.0
O237 O 0.54167 0.36249 0.7664 0.0
O238 O 0.55388 0.4052 0.81946 0.0
O239 O 0.5542 0.41264 0.75059 0.0
O240 O 0.49306 0.43007 0.7434 0.0
O241 O 0.59512 0.38005 0.8033 0.0
O242 O 0.49383 0.41562 0.79622 0.0
O243 O 0.46236 0.43069 0.76457 0.0
C244 C 0.471 0.36374 0.7894 0.0
C245 C 0.44262 0.41765 0.68478 0.0
C246 C 0.44033 0.42575 0.64473 0.0
C247 C 0.46516 0.44725 0.64781 0.0
C248 C 0.46668 0.43944 0.68748 0.0
C249 C 0.47809 0.45406 0.66909 0.0
C250 C 0.42921 0.41095 0.66339 0.0
C251 C 0.53406 0.36067 0.74495 0.0
C252 C 0.43206 0.40153 0.70404 0.0
C253 C 0.30702 0.35939 0.77017 0.0
C254 C 0.32455 0.33561 0.76568 0.0
C255 C 0.53192 0.43001 0.74102 0.0
C256 C 0.5772 0.37009 0.84027 0.0
C257 C 0.57917 0.35952 0.87995 0.0
C258 C 0.56744 0.33427 0.87467 0.0
C259 C 0.56567 0.34481 0.83548 0.0
C260 C 0.58373 0.3774 0.86249 0.0
C261 C 0.5606 0.32708 0.85262 0.0
C262 C 0.46822 0.43092 0.78628 0.0
C263 C 0.58267 0.38893 0.82224 0.0
H264 H 0.47395 0.45909 0.63381 0.0
H265 H 0.47646 0.44514 0.70382 0.0
H266 H 0.49685 0.4708 0.67135 0.0
H267 H 0.41059 0.39409 0.66125 0.0
H268 H 0.56437 0.31984 0.88751 0.0
H269 H 0.56099 0.33873 0.81847 0.0
H270 H 0.59221 0.39703 0.86611 0.0
H271 H 0.5518 0.30759 0.84878 0.0
Tb272 Tb 0.04398 0.90116 0.74252 0.0
C273 C 0.88533 0.8596 0.7761 0.0
N274 N 0.89604 0.88447 0.7731 0.0
C275 C 0.8352 0.89236 0.75345 0.0
C276 C 0.84985 0.84973 0.76693 0.0
C277 C 0.87097 0.90119 0.76273 0.0
C278 C 0.82484 0.86644 0.75529 0.0
C279 C 0.8999 0.8184 0.79252 0.0
C280 C 0.91011 0.84425 0.78861 0.0
C281 C 0.86547 0.80803 0.78262 0.0
C282 C 0.84044 0.82369 0.76987 0.0
Tb283 Tb 0.95536 0.89695 0.78814 0.0
N284 N 0.9429 0.85511 0.79801 0.0
C285 C 0.92384 0.80406 0.80688 0.0
C286 C 0.964 0.84184 0.81366 0.0
C287 C 0.95555 0.816 0.81785 0.0
H288 H 0.87897 0.9212 0.7613 0.0
H289 H 0.9731 0.80544 0.82982 0.0
H290 H 0.11035 0.85688 0.75856 0.0
H291 H 0.06572 1.00165 0.72556 0.0
H292 H 0.98704 0.85113 0.82329 0.0
H293 H 0.91709 0.78412 0.81033 0.0
H294 H 0.03196 0.95941 0.72264 0.0
H295 H 0.81574 0.90551 0.74483 0.0
H296 H 0.85738 0.78812 0.78522 0.0
H297 H 0.81355 0.8156 0.76271 0.0
H298 H 0.17354 0.8562 0.77931 0.0
H299 H 0.79725 0.85963 0.74798 0.0
H300 H 0.12751 0.00599 0.74781 0.0
N301 N 0.10507 0.89756 0.75941 0.0
C302 C 0.12474 0.91998 0.76315 0.0
C303 C 0.1598 0.87433 0.77522 0.0
C304 C 0.16179 0.92057 0.77417 0.0
C305 C 0.12339 0.8748 0.7639 0.0
C306 C 0.17871 0.89734 0.7808 0.0
N307 N 0.07368 0.94059 0.74353 0.0
C308 C 0.05895 0.96127 0.73231 0.0
C309 C 0.12912 0.96578 0.75673 0.0
C310 C 0.10891 0.94222 0.75451 0.0
C311 C 0.1129 0.98749 0.74651 0.0
C312 C 0.078 0.98512 0.73394 0.0
H313 H 0.20713 0.89692 0.78933 0.0
H314 H 0.20962 0.94506 0.78608 0.0
H315 H 0.18087 0.98472 0.77086 0.0
O316 O 0.0329 0.90565 0.70831 0.0
O317 O 0.03224 0.93205 0.76661 0.0
O318 O 0.01372 0.91136 0.79841 0.0
O319 O 0.08762 0.88926 0.71955 0.0
O320 O 0.98656 0.91767 0.73313 0.0
O321 O 0.955 0.93072 0.76589 0.0
O322 O 0.92776 0.89452 0.81966 0.0
O323 O 0.94691 0.88285 0.75396 0.0
O324 O 0.00731 0.8663 0.7436 0.0
O325 O 0.92924 0.92998 0.80168 0.0
O326 O 0.01383 0.88051 0.79664 0.0
O327 O 0.04092 0.86646 0.76334 0.0
C328 C 0.0328 0.92998 0.78833 0.0
C329 C 0.062 0.87467 0.68532 0.0
C330 C 0.06898 0.86143 0.64652 0.0
C331 C 0.05252 0.83741 0.65212 0.0
C332 C 0.04597 0.85056 0.6906 0.0
C333 C 0.04116 0.83206 0.67403 0.0
C334 C 0.07351 0.88002 0.66333 0.0
C335 C 0.96222 0.93277 0.74427 0.0
C336 C 0.06586 0.89469 0.70237 0.0
C337 C 0.18134 0.94417 0.77742 0.0
C338 C 0.16504 0.96675 0.7687 0.0
C339 C 0.96817 0.86538 0.74378 0.0
C340 C 0.93592 0.93217 0.84094 0.0
C341 C 0.9364 0.93623 0.88156 0.0
C342 C 0.96527 0.95575 0.87968 0.0
C343 C 0.96448 0.95192 0.83956 0.0
C344 C 0.92177 0.92454 0.86201 0.0
C345 C 0.97906 0.96354 0.85882 0.0
C346 C 0.0366 0.86479 0.78511 0.0
C347 C 0.92144 0.91901 0.82065 0.0
H348 H 0.04905 0.82259 0.63964 0.0
H349 H 0.0372 0.84606 0.70748 0.0
H350 H 0.02871 0.81349 0.67819 0.0
H351 H 0.08548 0.8988 0.65929 0.0
H352 H 0.97676 0.96532 0.89435 0.0
H353 H 0.97564 0.95839 0.82361 0.0
H354 H 0.89991 0.90923 0.86318 0.0
H355 H 0.00107 0.97872 0.85757 0.0
Tb356 Tb 0.46194 0.61639 0.24528 0.0
C357 C 0.63811 0.64053 0.265 0.0
N358 N 0.62087 0.61705 0.2672 0.0
C359 C 0.67661 0.5976 0.24893 0.0
C360 C 0.67517 0.64353 0.25423 0.0
C361 C 0.63961 0.59563 0.25955 0.0
C362 C 0.69443 0.62166 0.24619 0.0
C363 C 0.63392 0.6865 0.27026 0.0
C364 C 0.6175 0.66173 0.27275 0.0
C365 C 0.67079 0.68963 0.25946 0.0
C366 C 0.69138 0.6682 0.25148 0.0
Tb367 Tb 0.56017 0.61612 0.28421 0.0
N368 N 0.58125 0.65802 0.28252 0.0
C369 C 0.61295 0.70735 0.27889 0.0
C370 C 0.56259 0.67809 0.29266 0.0
C371 C 0.57751 0.70305 0.2905 0.0
H372 H 0.6263 0.57695 0.26188 0.0
H373 H 0.56205 0.71891 0.2982 0.0
H374 H 0.40688 0.66702 0.25779 0.0
H375 H 0.42964 0.51481 0.24474 0.0
H376 H 0.53718 0.67512 0.3032 0.0
H377 H 0.62449 0.72669 0.27731 0.0
H378 H 0.47009 0.55342 0.23737 0.0
H379 H 0.69136 0.58057 0.24287 0.0
H380 H 0.6837 0.70853 0.25726 0.0
H381 H 0.71973 0.67092 0.24314 0.0
H382 H 0.34048 0.67516 0.27411 0.0
H383 H 0.72297 0.62314 0.23781 0.0
H384 H 0.36261 0.51884 0.26157 0.0
N385 N 0.40043 0.62649 0.25875 0.0
C386 C 0.37606 0.60629 0.26338 0.0
C387 C 0.35018 0.65569 0.27124 0.0
C388 C 0.33773 0.61 0.27235 0.0
C389 C 0.38792 0.65102 0.26223 0.0
C390 C 0.32501 0.6351 0.2764 0.0
N391 N 0.42733 0.57908 0.25085 0.0
C392 C 0.44127 0.55548 0.24502 0.0
C393 C 0.36546 0.56025 0.26342 0.0
C394 C 0.38975 0.58175 0.25909 0.0
C395 C 0.38031 0.53589 0.25846 0.0
C396 C 0.41822 0.53353 0.24902 0.0
H397 H 0.29577 0.63878 0.28333 0.0
H398 H 0.2839 0.59106 0.28391 0.0
H399 H 0.30815 0.54751 0.27604 0.0
O400 O 0.46873 0.60766 0.2113 0.0
O401 O 0.45766 0.59702 0.2779 0.0
O402 O 0.52063 0.58305 0.28783 0.0
O403 O 0.42237 0.63293 0.22219 0.0
O404 O 0.51275 0.59309 0.2346 0.0
O405 O 0.55182 0.58082 0.26491 0.0
O406 O 0.56785 0.62524 0.31808 0.0
O407 O 0.56353 0.62927 0.24938 0.0
O408 O 0.50348 0.6488 0.24352 0.0
O409 O 0.60297 0.59594 0.30283 0.0
O410 O 0.50462 0.63343 0.29672 0.0
O411 O 0.47613 0.65004 0.26512 0.0
C412 C 0.48159 0.58185 0.28908 0.0
C413 C 0.40945 0.60755 0.19032 0.0
C414 C 0.38546 0.59873 0.15266 0.0
C415 C 0.35801 0.581 0.16151 0.0
C416 C 0.3814 0.59003 0.19872 0.0
C417 C 0.35597 0.57679 0.1844 0.0
C418 C 0.4112 0.61202 0.16724 0.0
C419 C 0.53971 0.57833 0.24406 0.0
C420 C 0.43759 0.62076 0.20535 0.0
C421 C 0.31345 0.58861 0.27696 0.0
C422 C 0.32727 0.5638 0.27249 0.0
C423 C 0.54184 0.64678 0.23954 0.0
C424 C 0.58492 0.59022 0.34058 0.0
C425 C 0.58642 0.58248 0.38073 0.0
C426 C 0.56431 0.55983 0.37745 0.0
C427 C 0.56353 0.56729 0.33771 0.0
C428 C 0.59662 0.59764 0.36212 0.0
C429 C 0.55314 0.55227 0.35605 0.0
C430 C 0.47922 0.64885 0.28685 0.0
C431 C 0.59347 0.60706 0.32142 0.0
H432 H 0.33749 0.57077 0.15076 0.0
H433 H 0.37898 0.58656 0.21628 0.0
H434 H 0.33446 0.5633 0.19108 0.0
H435 H 0.43278 0.62556 0.16063 0.0
H436 H 0.55628 0.54771 0.39141 0.0
H437 H 0.55485 0.56102 0.32129 0.0
H438 H 0.61303 0.6154 0.36443 0.0
H439 H 0.53644 0.53468 0.35367 0.0
C440 C 0.19063 0.9147 0.40587 0.0
C441 C 0.18047 0.89009 0.39841 0.0
C442 C 0.17247 0.93627 0.39658 0.0
C443 C 0.09088 0.9568 0.35776 0.0
H444 H 0.16317 0.01356 0.34632 0.0
C445 C 0.06311 0.0344 0.29079 0.0
C446 C 0.0638 0.0596 0.29891 0.0
C447 C 0.07655 0.01425 0.30411 0.0
C448 C 0.14266 0.99788 0.34952 0.0
H449 H 0.14102 0.86834 0.37714 0.0
H450 H 0.11058 0.9057 0.36004 0.0
H451 H 0.18538 0.97761 0.36892 0.0
H452 H 0.08053 0.0839 0.32661 0.0
H453 H 0.10562 0.04868 0.3496 0.0
H454 H 0.04891 0.97686 0.33732 0.0
C455 C 0.13211 0.90872 0.37319 0.0
C456 C 0.15515 0.97734 0.36267 0.0
C457 C 0.14983 0.88723 0.38277 0.0
C458 C 0.07975 0.06455 0.32007 0.0
C459 C 0.09402 0.04449 0.33317 0.0
C460 C 0.0787 0.97714 0.34426 0.0
C461 C 0.14412 0.9336 0.37943 0.0
C462 C 0.12953 0.9564 0.36688 0.0
C463 C 0.09178 0.01912 0.32548 0.0
C464 C 0.10458 0.99775 0.33993 0.0
H465 H 0.21418 0.91728 0.41798 0.0
H466 H 0.1817 0.95504 0.40233 0.0
H467 H 0.06997 0.94137 0.36095 0.0
H468 H 0.05058 0.03019 0.27457 0.0
H469 H 0.07482 0.99483 0.29779 0.0
C470 C 0.30856 0.59632 0.90136 0.0
C471 C 0.32877 0.61984 0.90054 0.0
C472 C 0.3253 0.57453 0.89161 0.0
C473 C 0.39837 0.55829 0.84758 0.0
H474 H 0.377 0.48861 0.8666 0.0
C475 C 0.43309 0.47305 0.7902 0.0
C476 C 0.44861 0.45081 0.80001 0.0
C477 C 0.41756 0.49266 0.80343 0.0
C478 C 0.38362 0.50794 0.86113 0.0
H479 H 0.38266 0.63921 0.89034 0.0
H480 H 0.41335 0.60095 0.87436 0.0
H481 H 0.35576 0.52423 0.88988 0.0
H482 H 0.45955 0.4316 0.83142 0.0
H483 H 0.43383 0.46607 0.85447 0.0
H484 H 0.42745 0.54214 0.81929 0.0
C485 C 0.38404 0.59925 0.88178 0.0
C486 C 0.37101 0.52842 0.87439 0.0
C487 C 0.36695 0.62106 0.89121 0.0
C488 C 0.44771 0.44847 0.82332 0.0
C489 C 0.43265 0.4682 0.83656 0.0
C490 C 0.41133 0.53787 0.83448 0.0
C491 C 0.36277 0.57591 0.88104 0.0
C492 C 0.37805 0.5539 0.86774 0.0
C493 C 0.41777 0.49071 0.82681 0.0
C494 C 0.40388 0.5124 0.84095 0.0
H495 H 0.27871 0.5953 0.90818 0.0
H496 H 0.30778 0.55706 0.89122 0.0
H497 H 0.40372 0.57757 0.84159 0.0
H498 H 0.43392 0.47568 0.77233 0.0
H499 H 0.40573 0.50948 0.79527 0.0
C500 C 0.71122 0.58893 0.62726 0.0
C501 C 0.69225 0.61276 0.62648 0.0
C502 C 0.69233 0.56792 0.63732 0.0
C503 C 0.61833 0.55532 0.68105 0.0
H504 H 0.62392 0.48478 0.6611 0.0
C505 C 0.53248 0.47442 0.72557 0.0
C506 C 0.55104 0.45052 0.72776 0.0
C507 C 0.5497 0.49366 0.71252 0.0
C508 C 0.62253 0.50435 0.66703 0.0
H509 H 0.63879 0.63354 0.6346 0.0
H510 H 0.60497 0.59677 0.65175 0.0
H511 H 0.65234 0.5189 0.638 0.0
H512 H 0.60254 0.42809 0.71836 0.0
H513 H 0.63338 0.462 0.69604 0.0
H514 H 0.58918 0.54095 0.71017 0.0
C515 C 0.63453 0.59419 0.64486 0.0
C516 C 0.63867 0.52389 0.65374 0.0
C517 C 0.65347 0.61511 0.63482 0.0
C518 C 0.58762 0.44638 0.71699 0.0
C519 C 0.60502 0.4657 0.704 0.0
C520 C 0.60239 0.53584 0.69434 0.0
C521 C 0.65426 0.57057 0.6469 0.0
C522 C 0.63654 0.54962 0.66056 0.0
C523 C 0.58613 0.48955 0.70151 0.0
C524 C 0.60409 0.51012 0.68747 0.0
H525 H 0.7415 0.58706 0.62124 0.0
H526 H 0.70845 0.55007 0.63875 0.0
H527 H 0.61705 0.57486 0.68708 0.0
H528 H 0.50439 0.47821 0.73382 0.0
H529 H 0.53406 0.51165 0.71079 0.0
C530 C 0.86034 0.89875 0.13288 0.0
C531 C 0.8214 0.90011 0.12464 0.0
C532 C 0.87856 0.92039 0.14215 0.0
C533 C 0.85137 0.97949 0.17124 0.0
H534 H 0.96404 0.99528 0.1661 0.0
C535 C 0.92375 0.06477 0.21785 0.0
C536 C 0.96108 0.06039 0.22761 0.0
C537 C 0.90689 0.0467 0.20343 0.0
C538 C 0.93258 0.99099 0.16786 0.0
H539 H 0.77103 0.92472 0.11885 0.0
H540 H 0.80287 0.963 0.13487 0.0
H541 H 0.93485 0.96168 0.14291 0.0
H542 H 0.01011 0.03367 0.22998 0.0
H543 H 0.98085 1.00212 0.20482 0.0
H544 H 0.84918 0.0083 0.19654 0.0
C545 C 0.81942 0.94525 0.13428 0.0
C546 C 0.91585 0.97179 0.15451 0.0
C547 C 0.80135 0.92357 0.12491 0.0
C548 C 0.98143 0.03768 0.22253 0.0
C549 C 0.96468 0.01964 0.20806 0.0
C550 C 0.86811 0.99862 0.18463 0.0
C551 C 0.85788 0.94373 0.14353 0.0
C552 C 0.87512 0.96563 0.15621 0.0
C553 C 0.92715 0.02389 0.19835 0.0
C554 C 0.90901 0.00441 0.18329 0.0
H555 H 0.87579 0.88058 0.13311 0.0
H556 H 0.90797 0.91844 0.14934 0.0
H557 H 0.82005 0.97492 0.17327 0.0
H558 H 0.90783 0.08237 0.22104 0.0
H559 H 0.87822 0.05079 0.19601 0.0
C560 C 0.81797 0.09566 0.62128 0.0
C561 C 0.8302 0.12051 0.62716 0.0
C562 C 0.83519 0.07433 0.6316 0.0
C563 C 0.87051 0.057 0.68523 0.0
H564 H 0.92288 0.99831 0.65899 0.0
C565 C 0.94096 0.97826 0.73992 0.0
C566 C 0.94285 0.95327 0.73149 0.0
C567 C 0.92721 0.99828 0.7265 0.0
C568 C 0.90761 0.01427 0.66663 0.0
H569 H 0.87203 0.14272 0.64661 0.0
H570 H 0.90152 0.10552 0.66512 0.0
H571 H 0.9008 0.03341 0.63517 0.0
H572 H 0.93038 0.92913 0.70303 0.0
H573 H 0.90399 0.96354 0.68009 0.0
H574 H 0.87531 0.03783 0.71647 0.0
C575 C 0.87869 0.1025 0.65264 0.0
C576 C 0.89534 0.03445 0.65292 0.0
C577 C 0.86201 0.12368 0.64206 0.0
C578 C 0.92937 0.94836 0.70981 0.0
C579 C 0.9147 0.96819 0.69659 0.0
C580 C 0.8819 0.03664 0.69887 0.0
C581 C 0.86446 0.07774 0.64807 0.0
C582 C 0.8771 0.05606 0.66217 0.0
C583 C 0.91419 0.99358 0.70453 0.0
C584 C 0.90096 0.01503 0.68983 0.0
H585 H 0.79325 0.09288 0.60995 0.0
H586 H 0.8238 0.05536 0.62785 0.0
H587 H 0.85596 0.0734 0.69266 0.0
H588 H 0.95186 0.98252 0.75649 0.0
H589 H 0.92806 0.01753 0.73318 0.0
C590 C 0.72299 0.42104 0.1322 0.0
C591 C 0.6998 0.39985 0.12593 0.0
C592 C 0.70526 0.44226 0.14224 0.0
C593 C 0.60806 0.47291 0.15524 0.0
H594 H 0.66526 0.4977 0.20709 0.0
C595 C 0.55371 0.55925 0.20672 0.0
C596 C 0.55764 0.55811 0.23001 0.0
C597 C 0.57085 0.54059 0.19318 0.0
C598 C 0.64874 0.49086 0.19278 0.0
H599 H 0.64013 0.3844 0.12392 0.0
H600 H 0.60867 0.42144 0.14158 0.0
H601 H 0.69512 0.46502 0.18361 0.0
H602 H 0.58212 0.53612 0.25734 0.0
H603 H 0.61181 0.50328 0.23365 0.0
H604 H 0.56108 0.49817 0.1649 0.0
C605 C 0.6405 0.42196 0.13859 0.0
C606 C 0.66614 0.47241 0.17908 0.0
C607 C 0.65833 0.40079 0.12843 0.0
C608 C 0.5789 0.5377 0.23946 0.0
C609 C 0.59601 0.51894 0.22587 0.0
C610 C 0.5906 0.49135 0.16899 0.0
C611 C 0.66397 0.44255 0.14633 0.0
C612 C 0.64601 0.46316 0.16015 0.0
C613 C 0.59222 0.5202 0.20255 0.0
C614 C 0.6107 0.5005 0.18797 0.0
H615 H 0.75508 0.42053 0.13032 0.0
H616 H 0.7241 0.45803 0.14751 0.0
H617 H 0.59182 0.46632 0.14075 0.0
H618 H 0.53782 0.57481 0.19883 0.0
H619 H 0.56788 0.54242 0.1753 0.0
C620 C 0.3091 0.41974 0.40293 0.0
C621 C 0.32546 0.39526 0.40052 0.0
C622 C 0.32767 0.44097 0.39301 0.0
C623 C 0.39632 0.45515 0.34623 0.0
H624 H 0.39496 0.52434 0.36971 0.0
C625 C 0.48345 0.53781 0.3052 0.0
C626 C 0.46353 0.5612 0.30259 0.0
C627 C 0.46666 0.51819 0.31797 0.0
C628 C 0.39523 0.50512 0.3629 0.0
H629 H 0.37454 0.37351 0.38728 0.0
H630 H 0.40831 0.41057 0.37079 0.0
H631 H 0.36774 0.48911 0.39201 0.0
H632 H 0.41012 0.58233 0.31092 0.0
H633 H 0.38059 0.54787 0.33334 0.0
H634 H 0.4241 0.47109 0.31727 0.0
C635 C 0.38059 0.41353 0.37964 0.0
C636 C 0.37966 0.48493 0.37566 0.0
C637 C 0.36173 0.39238 0.3893 0.0
C638 C 0.4262 0.56451 0.31278 0.0
C639 C 0.40946 0.54489 0.32571 0.0
C640 C 0.41211 0.47523 0.33362 0.0
C641 C 0.36306 0.43797 0.38064 0.0
C642 C 0.38017 0.45964 0.36751 0.0
C643 C 0.42956 0.52152 0.32842 0.0
C644 C 0.41187 0.50042 0.34182 0.0
H645 H 0.28077 0.4221 0.41131 0.0
H646 H 0.31314 0.45941 0.39403 0.0
H647 H 0.39623 0.4361 0.33908 0.0
H648 H 0.51191 0.53455 0.29718 0.0
H649 H 0.48293 0.50044 0.31984 0.0
C650 C 0.15374 0.11945 0.88769 0.0
C651 C 0.18506 0.11491 0.9026 0.0
C652 C 0.13384 0.09901 0.87756 0.0
C653 C 0.11052 0.03072 0.8792 0.0
H654 H 0.11955 0.03441 0.81491 0.0
C655 C 0.0674 0.94513 0.82267 0.0
C656 C 0.05041 0.95062 0.8019 0.0
C657 C 0.08313 0.96482 0.83584 0.0
C658 C 0.11599 0.03317 0.83279 0.0
H659 H 0.21804 0.08573 0.92014 0.0
H660 H 0.18212 0.04966 0.90295 0.0
H661 H 0.14446 0.06955 0.83762 0.0
H662 H 0.03541 0.98085 0.77877 0.0
H663 H 0.06159 0.0153 0.80185 0.0
H664 H 0.08094 0.9947 0.87445 0.0
C665 C 0.17344 0.06907 0.89887 0.0
C666 C 0.13049 0.05331 0.84579 0.0
C667 C 0.19381 0.08961 0.90876 0.0
C668 C 0.04912 0.97608 0.79454 0.0
C669 C 0.06424 0.99581 0.80781 0.0
C670 C 0.09525 0.01071 0.86615 0.0
C671 C 0.14438 0.07364 0.88253 0.0
C672 C 0.12792 0.05229 0.8691 0.0
C673 C 0.08157 0.99049 0.82865 0.0
C674 C 0.09783 0.01166 0.84273 0.0
H675 H 0.14613 0.13886 0.88303 0.0
H676 H 0.11115 0.103 0.86524 0.0
H677 H 0.10817 0.02955 0.89716 0.0
H678 H 0.06878 0.92556 0.82866 0.0
H679 H 0.09678 0.95984 0.85156 0.0
C680 C 0.16725 0.13515 0.95544 0.0
C681 C 0.20706 0.13046 0.94973 0.0
C682 C 0.15249 0.1276 0.97625 0.0
C683 C 0.16675 0.08337 0.02259 0.0
H684 H 0.12138 0.1368 0.05944 0.0
C685 C 0.13505 0.06671 0.11603 0.0
C686 C 0.10316 0.07962 0.12608 0.0
C687 C 0.14622 0.07225 0.0941 0.0
C688 C 0.13317 0.12144 0.04933 0.0
H689 H 0.26244 0.11367 0.9605 0.0
H690 H 0.23637 0.09955 0.99679 0.0
H691 H 0.14205 0.14658 0.02149 0.0
H692 H 0.05733 0.10804 0.121 0.0
H693 H 0.07544 0.11699 0.08242 0.0
H694 H 0.15698 0.05795 0.04996 0.0
C695 C 0.21667 0.10926 0.98532 0.0
C696 C 0.14521 0.12715 0.02757 0.0
C697 C 0.23159 0.1173 0.96469 0.0
C698 C 0.0823 0.09799 0.11369 0.0
C699 C 0.09294 0.10319 0.09159 0.0
C700 C 0.15398 0.07749 0.0442 0.0
C701 C 0.17719 0.11478 0.99147 0.0
C702 C 0.16248 0.10824 1.01408 0.0
C703 C 0.12526 0.09052 0.08147 0.0
C704 C 0.1374 0.09651 0.05803 0.0
H705 H 0.14811 0.14547 0.94409 0.0
H706 H 0.12192 0.13198 0.98056 0.0
H707 H 0.1797 0.0684 1.01244 0.0
H708 H 0.15192 0.05266 0.12531 0.0
H709 H 0.1718 0.06245 0.08724 0.0
C710 C 0.34914 0.37855 0.45039 0.0
C711 C 0.30803 0.37548 0.44713 0.0
C712 C 0.364 0.38587 0.47121 0.0
C713 C 0.33369 0.41232 0.52649 0.0
H714 H 0.4296 0.37827 0.5466 0.0
C715 C 0.38528 0.41357 0.61842 0.0
C716 C 0.42577 0.41913 0.62209 0.0
C717 C 0.37123 0.40879 0.59688 0.0
C718 C 0.40296 0.38809 0.54115 0.0
H719 H 0.25005 0.37869 0.46252 0.0
H720 H 0.27569 0.39066 0.4991 0.0
H721 H 0.40468 0.3702 0.50916 0.0
H722 H 0.48345 0.42332 0.60619 0.0
H723 H 0.45898 0.41472 0.5686 0.0
H724 H 0.33162 0.42968 0.55881 0.0
C725 C 0.29669 0.38785 0.48564 0.0
C726 C 0.38874 0.38359 0.51962 0.0
C727 C 0.28191 0.38076 0.46477 0.0
C728 C 0.45204 0.41927 0.60384 0.0
C729 C 0.43809 0.41419 0.58236 0.0
C730 C 0.34772 0.41661 0.5481 0.0
C731 C 0.33801 0.39007 0.48927 0.0
C732 C 0.35387 0.39562 0.51198 0.0
C733 C 0.39746 0.40915 0.57861 0.0
C734 C 0.38249 0.40452 0.55567 0.0
H735 H 0.36984 0.37435 0.43707 0.0
H736 H 0.39593 0.38786 0.47321 0.0
H737 H 0.30714 0.42227 0.52113 0.0
H738 H 0.36431 0.41351 0.63214 0.0
H739 H 0.33983 0.40472 0.59453 0.0
C740 C 0.70592 0.38984 0.07007 0.0
C741 C 0.69112 0.36959 0.08304 0.0
C742 C 0.68999 0.39459 0.04896 0.0
C743 C 0.60456 0.38145 1.01182 0.0
H744 H 0.68396 0.38088 0.96489 0.0
C745 C 0.56515 0.35619 0.92106 0.0
C746 C 0.58769 0.36675 0.90352 0.0
C747 C 0.57519 0.36114 0.94323 0.0
C748 C 0.66126 0.38167 0.97769 0.0
H749 H 0.64704 0.33942 0.08515 0.0
H750 H 0.61838 0.34793 0.04838 0.0
H751 H 0.70505 0.38242 1.00358 0.0
H752 H 0.63781 0.39167 0.89579 0.0
H753 H 0.65419 0.4012 0.93435 0.0
H754 H 0.56069 0.38063 0.98601 0.0
C755 C 0.64233 0.3601 0.05435 0.0
C756 C 0.67344 0.38249 0.99992 0.0
C757 C 0.65866 0.35515 0.0753 0.0
C758 C 0.61955 0.3833 0.90879 0.0
C759 C 0.62934 0.38848 0.93098 0.0
C760 C 0.59231 0.38096 0.98956 0.0
C761 C 0.6586 0.37938 0.04068 0.0
C762 C 0.64526 0.38184 0.01722 0.0
C763 C 0.60779 0.37707 0.94853 0.0
C764 C 0.62052 0.38047 0.97217 0.0
H765 H 0.73115 0.40102 0.07582 0.0
H766 H 0.70293 0.40967 0.03883 0.0
H767 H 0.58218 0.38118 0.02483 0.0
H768 H 0.53993 0.34376 0.91771 0.0
H769 H 0.55807 0.35174 0.95617 0.0
C770 C 0.84855 0.13756 0.57502 0.0
C771 C 0.80785 0.1381 0.5803 0.0
C772 C 0.86102 0.13134 0.55341 0.0
C773 C 0.82458 0.10617 0.49849 0.0
H774 H 0.90402 0.15274 0.47437 0.0
C775 C 0.83172 0.13551 0.4063 0.0
C776 C 0.86907 0.13864 0.39604 0.0
C777 C 0.82898 0.12954 0.42892 0.0
C778 C 0.88232 0.13925 0.48089 0.0
H779 H 0.74845 0.13084 0.56797 0.0
H780 H 0.76964 0.12058 0.53022 0.0
H781 H 0.89096 0.15242 0.51424 0.0
H782 H 0.93287 0.1373 0.40123 0.0
H783 H 0.92811 0.12718 0.44107 0.0
H784 H 0.81455 0.09407 0.46485 0.0
C785 C 0.79229 0.12464 0.54256 0.0
C786 C 0.87486 0.13899 0.50382 0.0
C787 C 0.77998 0.13073 0.56413 0.0
C788 C 0.90371 0.13486 0.40872 0.0
C789 C 0.90097 0.12924 0.4315 0.0
C790 C 0.83178 0.10662 0.47555 0.0
C791 C 0.83292 0.12558 0.53669 0.0
C792 C 0.84512 0.12294 0.51288 0.0
C793 C 0.86353 0.12687 0.4419 0.0
C794 C 0.86003 0.12362 0.46643 0.0
H795 H 0.87049 0.14323 0.58729 0.0
H796 H 0.89258 0.13182 0.54965 0.0
H797 H 0.80211 0.09313 0.50487 0.0
H798 H 0.80455 0.13821 0.39688 0.0
H799 H 0.7997 0.1281 0.43646 0.0
C800 C 0.84806 0.88086 0.0747 0.0
C801 C 0.80707 0.87803 0.07862 0.0
C802 C 0.862 0.8884 0.05371 0.0
C803 C 0.83215 0.88779 0.99468 0.0
H804 H 0.92014 0.93535 0.98689 0.0
C805 C 0.88063 0.92461 0.90778 0.0
C806 C 0.92156 0.92837 0.90391 0.0
C807 C 0.86661 0.91859 0.92912 0.0
C808 C 0.89587 0.92177 0.98875 0.0
H809 H 0.74839 0.882 0.06431 0.0
H810 H 0.77249 0.89512 0.02753 0.0
H811 H 0.89591 0.92568 0.02427 0.0
H812 H 0.97998 0.9278 0.91927 0.0
H813 H 0.95568 0.91693 0.95634 0.0
H814 H 0.83232 0.88356 0.95925 0.0
C815 C 0.794 0.89114 0.04049 0.0
C816 C 0.88192 0.91629 1.01021 0.0
C817 C 0.78016 0.88373 0.06149 0.0
C818 C 0.9482 0.92544 0.92177 0.0
C819 C 0.93423 0.91929 0.94306 0.0
C820 C 0.84621 0.89315 0.97324 0.0
C821 C 0.83512 0.89315 0.03622 0.0
C822 C 0.84984 0.89927 1.01343 0.0
C823 C 0.8932 0.91603 0.94709 0.0
C824 C 0.87825 0.91023 0.96997 0.0
H825 H 0.86928 0.87625 0.08763 0.0
H826 H 0.89386 0.88958 0.05094 0.0
H827 H 0.80783 0.87423 0.99659 0.0
H828 H 0.85931 0.92702 0.89444 0.0
H829 H 0.83479 0.91655 0.93162 0.0
C830 C 0.6664 0.63174 0.57648 0.0
C831 C 0.70737 0.63484 0.58033 0.0
C832 C 0.65251 0.62476 0.55533 0.0
C833 C 0.68086 0.62973 0.49662 0.0
H834 H 0.5996 0.57805 0.48637 0.0
C835 C 0.63877 0.59702 0.4078 0.0
C836 C 0.59911 0.5899 0.40354 0.0
C837 C 0.6513 0.60245 0.42951 0.0
C838 C 0.62186 0.59285 0.48891 0.0
H839 H 0.76605 0.6318 0.56575 0.0
H840 H 0.74197 0.62001 0.52866 0.0
H841 H 0.62234 0.58665 0.52423 0.0
H842 H 0.5411 0.58377 0.41853 0.0
H843 H 0.56247 0.59405 0.45628 0.0
H844 H 0.67992 0.63653 0.46155 0.0
C845 C 0.7205 0.62321 0.54184 0.0
C846 C 0.635 0.59765 0.51064 0.0
C847 C 0.7343 0.62988 0.563 0.0
C848 C 0.572 0.58891 0.42137 0.0
C849 C 0.58437 0.59466 0.44304 0.0
C850 C 0.66741 0.62518 0.47495 0.0
C851 C 0.67942 0.62103 0.53765 0.0
C852 C 0.66488 0.61599 0.51469 0.0
C853 C 0.62432 0.60124 0.44749 0.0
C854 C 0.63791 0.60654 0.47073 0.0
H855 H 0.64512 0.6358 0.58954 0.0
H856 H 0.62068 0.62333 0.55257 0.0
H857 H 0.70345 0.64431 0.49927 0.0
H858 H 0.66043 0.59763 0.39442 0.0
H859 H 0.68242 0.607 0.43222 0.0
C860 C 0.27974 0.63533 0.96281 0.0
C861 C 0.30818 0.64074 0.94632 0.0
C862 C 0.29165 0.62923 0.98442 0.0
C863 C 0.37534 0.6074 0.01908 0.0
H864 H 0.3212 0.64558 0.06545 0.0
C865 C 0.38407 0.58317 0.11316 0.0
C866 C 0.38587 0.60368 0.12831 0.0
C867 C 0.37964 0.58771 0.09037 0.0
C868 C 0.33689 0.63495 0.0527 0.0
H869 H 0.37118 0.64271 0.93897 0.0
H870 H 0.39235 0.63146 0.97681 0.0
H871 H 0.30247 0.65189 0.02665 0.0
H872 H 0.38595 0.64505 0.13137 0.0
H873 H 0.37811 0.65302 0.09147 0.0
H874 H 0.40955 0.59032 0.04529 0.0
C875 C 0.36081 0.63207 0.97305 0.0
C876 C 0.32581 0.63832 0.0305 0.0
C877 C 0.34879 0.63839 0.95142 0.0
C878 C 0.38481 0.62887 0.12009 0.0
C879 C 0.37997 0.63341 0.09729 0.0
C880 C 0.38615 0.60381 0.04138 0.0
C881 C 0.33233 0.62817 0.98993 0.0
C882 C 0.3447 0.62448 1.01345 0.0
C883 C 0.37656 0.61286 0.08224 0.0
C884 C 0.36694 0.61752 0.05843 0.0
H885 H 0.24826 0.63665 0.95908 0.0
H886 H 0.26902 0.62581 0.99696 0.0
H887 H 0.3904 0.59647 1.00629 0.0
H888 H 0.38518 0.56355 0.11902 0.0
H889 H 0.37691 0.57147 0.07923 0.0
C890 C 0.22059 0.88273 0.4615 0.0
C891 C 0.19714 0.87088 0.44517 0.0
C892 C 0.2051 0.8872 0.48273 0.0
C893 C 0.11161 0.88657 0.51656 0.0
H894 H 0.18363 0.86691 0.56395 0.0
C895 C 0.11815 0.87964 0.61911 0.0
C896 C 0.08189 0.86691 0.6233 0.0
C897 C 0.13117 0.88379 0.59728 0.0
C898 C 0.16327 0.87286 0.55098 0.0
H899 H 0.13895 0.8556 0.43741 0.0
H900 H 0.11154 0.86298 0.47466 0.0
H901 H 0.2078 0.86869 0.52585 0.0
H902 H 0.03021 0.84935 0.60779 0.0
H903 H 0.05319 0.85628 0.56969 0.0
H904 H 0.06677 0.88995 0.54183 0.0
C905 C 0.14173 0.86921 0.47116 0.0
C906 C 0.17717 0.87396 0.52908 0.0
C907 C 0.15727 0.86493 0.44986 0.0
C908 C 0.05852 0.85894 0.60513 0.0
C909 C 0.07146 0.86319 0.58329 0.0
C910 C 0.09765 0.88536 0.53851 0.0
C911 C 0.16589 0.87966 0.48808 0.0
C912 C 0.15147 0.8806 0.51154 0.0
C913 C 0.10816 0.8754 0.57911 0.0
C914 C 0.12326 0.87825 0.55595 0.0
H915 H 0.25136 0.88764 0.45799 0.0
H916 H 0.22425 0.89584 0.49517 0.0
H917 H 0.09112 0.89206 0.50351 0.0
H918 H 0.137 0.88586 0.63272 0.0
H919 H 0.15941 0.89347 0.59463 0.0
C920 C 0.20098 0.31439 0.39813 0.0
C921 C 0.24134 0.31773 0.39277 0.0
C922 C 0.17855 0.29507 0.38788 0.0
C923 C 0.13371 0.26453 0.35265 0.0
H924 H 0.17797 0.19698 0.3426 0.0
C925 C 0.06047 0.19066 0.29383 0.0
C926 C 0.05892 0.16516 0.30116 0.0
C927 C 0.08244 0.20896 0.30562 0.0
C928 C 0.1651 0.21569 0.34543 0.0
H929 H 0.29041 0.30344 0.37314 0.0
H930 H 0.25131 0.26968 0.35496 0.0
H931 H 0.21685 0.22909 0.36282 0.0
H932 H 0.07852 0.13864 0.32655 0.0
H933 H 0.11683 0.17068 0.34737 0.0
H934 H 0.08189 0.2511 0.33538 0.0
C935 C 0.2369 0.28181 0.36715 0.0
C936 C 0.1875 0.23416 0.35682 0.0
C937 C 0.25921 0.30119 0.37736 0.0
C938 C 0.07921 0.15825 0.32064 0.0
C939 C 0.10141 0.17651 0.33239 0.0
C940 C 0.1114 0.24611 0.34118 0.0
C941 C 0.1962 0.27868 0.37213 0.0
C942 C 0.17208 0.2588 0.36053 0.0
C943 C 0.10329 0.20207 0.32499 0.0
C944 C 0.12687 0.22151 0.33741 0.0
H945 H 0.18672 0.32708 0.40994 0.0
H946 H 0.14739 0.29297 0.39226 0.0
H947 H 0.12115 0.28341 0.35501 0.0
H948 H 0.04475 0.19645 0.27894 0.0
H949 H 0.08363 0.22841 0.29937 0.0
C950 C 0.31985 0.18778 0.89808 0.0
C951 C 0.27814 0.18856 0.89773 0.0
C952 C 0.34222 0.2069 0.88739 0.0
C953 C 0.33154 0.25728 0.84384 0.0
H954 H 0.43358 0.281 0.86626 0.0
C955 C 0.41084 0.34678 0.80921 0.0
C956 C 0.45118 0.34404 0.80337 0.0
C957 C 0.39106 0.32765 0.82119 0.0
C958 C 0.40524 0.27439 0.85976 0.0
H959 H 0.22676 0.20985 0.88692 0.0
H960 H 0.26536 0.24394 0.86903 0.0
H961 H 0.39614 0.24846 0.88695 0.0
H962 H 0.50231 0.31897 0.80562 0.0
H963 H 0.46811 0.28598 0.82754 0.0
H964 H 0.3403 0.2837 0.81698 0.0
C965 C 0.28119 0.2283 0.87682 0.0
C966 C 0.3838 0.25569 0.87155 0.0
C967 C 0.259 0.20903 0.88724 0.0
C968 C 0.47156 0.32196 0.81029 0.0
C969 C 0.45191 0.30298 0.82268 0.0
C970 C 0.3527 0.27615 0.83226 0.0
C971 C 0.32313 0.22727 0.87633 0.0
C972 C 0.34651 0.24697 0.8638 0.0
C973 C 0.41132 0.30552 0.82799 0.0
C974 C 0.38965 0.28499 0.84014 0.0
H975 H 0.33495 0.1719 0.90598 0.0
H976 H 0.37436 0.20524 0.88719 0.0
H977 H 0.30354 0.25062 0.83696 0.0
H978 H 0.39436 0.36369 0.80442 0.0
H979 H 0.35987 0.33024 0.82525 0.0
C980 C 0.70042 0.19597 0.63164 0.0
C981 C 0.74178 0.19549 0.63478 0.0
C982 C 0.67716 0.21417 0.64268 0.0
C983 C 0.68027 0.25737 0.69171 0.0
H984 H 0.58674 0.28724 0.66445 0.0
C985 C 0.57115 0.31927 0.74234 0.0
C986 C 0.55535 0.34102 0.73187 0.0
C987 C 0.59258 0.30121 0.73009 0.0
C988 C 0.61297 0.27927 0.67226 0.0
H989 H 0.79176 0.21378 0.65097 0.0
H990 H 0.75158 0.24618 0.66985 0.0
H991 H 0.62776 0.25765 0.64315 0.0
H992 H 0.54919 0.36081 0.70034 0.0
H993 H 0.58728 0.32964 0.67904 0.0
H994 H 0.66639 0.27962 0.72052 0.0
C995 C 0.7367 0.23219 0.65941 0.0
C996 C 0.63623 0.26202 0.66013 0.0
C997 C 0.75979 0.21386 0.64852 0.0
C998 C 0.56083 0.34414 0.70885 0.0
C999 C 0.58255 0.3262 0.69662 0.0
C1000 C 0.65721 0.27473 0.70377 0.0
C1001 C 0.69498 0.23233 0.65694 0.0
C1002 C 0.67021 0.25086 0.66969 0.0
C1003 C 0.59893 0.30457 0.7071 0.0
C1004 C 0.62321 0.28589 0.69423 0.0
H1005 H 0.68611 0.18173 0.62121 0.0
H1006 H 0.64513 0.21348 0.64057 0.0
H1007 H 0.70583 0.24888 0.69979 0.0
H1008 H 0.56698 0.31621 0.76003 0.0
H1009 H 0.60404 0.28455 0.73865 0.0
C1010 C 0.81162 0.32335 0.14334 0.0
C1011 C 0.77303 0.31866 0.13536 0.0
C1012 C 0.8328 0.30399 0.15408 0.0
C1013 C 0.87868 0.25583 0.16585 0.0
H1014 H 0.82236 0.21317 0.20853 0.0
C1015 C 0.95207 0.1686 0.20791 0.0
C1016 C 0.94485 0.16511 0.23079 0.0
C1017 C 0.93086 0.18685 0.19581 0.0
C1018 C 0.83855 0.22502 0.19677 0.0
H1019 H 0.72621 0.29036 0.13198 0.0
H1020 H 0.7634 0.25613 0.15047 0.0
H1021 H 0.78623 0.24602 0.18804 0.0
H1022 H 0.90942 0.17817 0.25882 0.0
H1023 H 0.87269 0.21009 0.2377 0.0
H1024 H 0.93118 0.23524 0.17495 0.0
C1025 C 0.77722 0.27482 0.14868 0.0
C1026 C 0.81776 0.24363 0.18482 0.0
C1027 C 0.75609 0.29422 0.13792 0.0
C1028 C 0.91573 0.18025 0.24123 0.0
C1029 C 0.89448 0.19848 0.2291 0.0
C1030 C 0.89945 0.23719 0.17777 0.0
C1031 C 0.8157 0.27956 0.15705 0.0
C1032 C 0.83762 0.25931 0.16928 0.0
C1033 C 0.90188 0.20204 0.20626 0.0
C1034 C 0.87965 0.22163 0.19341 0.0
H1035 H 0.8251 0.34212 0.14144 0.0
H1036 H 0.86219 0.30835 0.16053 0.0
H1037 H 0.89477 0.26744 0.15386 0.0
H1038 H 0.97411 0.15724 0.19925 0.0
H1039 H 0.93688 0.18888 0.17818 0.0
C1040 C 0.81316 0.68354 0.64598 0.0
C1041 C 0.77689 0.68965 0.63582 0.0
C1042 C 0.83543 0.70248 0.65684 0.0
C1043 C 0.84697 0.77313 0.66177 0.0
H1044 H 0.89857 0.75623 0.71757 0.0
C1045 C 0.91047 0.85012 0.72108 0.0
C1046 C 0.94772 0.84529 0.73076 0.0
C1047 C 0.89072 0.83103 0.70904 0.0
C1048 C 0.88469 0.76117 0.70189 0.0
H1049 H 0.7347 0.71974 0.62915 0.0
H1050 H 0.77317 0.75308 0.64835 0.0
H1051 H 0.86208 0.72313 0.6973 0.0
H1052 H 0.99386 0.8169 0.73531 0.0
H1053 H 0.95949 0.78347 0.71404 0.0
H1054 H 0.86912 0.81129 0.6666 0.0
C1055 C 0.78513 0.73387 0.64755 0.0
C1056 C 0.86383 0.7422 0.69023 0.0
C1057 C 0.76302 0.7149 0.63663 0.0
C1058 C 0.96514 0.8211 0.72799 0.0
C1059 C 0.94534 0.80194 0.71598 0.0
C1060 C 0.86765 0.79212 0.67349 0.0
C1061 C 0.82157 0.72789 0.65789 0.0
C1062 C 0.84458 0.74795 0.67005 0.0
C1063 C 0.90788 0.8067 0.70639 0.0
C1064 C 0.88663 0.78637 0.69371 0.0
H1065 H 0.82405 0.66404 0.64554 0.0
H1066 H 0.86356 0.69723 0.66434 0.0
H1067 H 0.83312 0.77816 0.64611 0.0
H1068 H 0.89667 0.86874 0.7227 0.0
H1069 H 0.86176 0.83522 0.70202 0.0
C1070 C 0.7022 0.82874 0.14457 0.0
C1071 C 0.73807 0.82257 0.13394 0.0
C1072 C 0.67979 0.80971 0.15527 0.0
C1073 C 0.66634 0.73913 0.15861 0.0
H1074 H 0.61618 0.75483 0.21515 0.0
C1075 C 0.59894 0.66112 0.21582 0.0
C1076 C 0.56231 0.66654 0.22608 0.0
C1077 C 0.61961 0.68017 0.20415 0.0
C1078 C 0.62964 0.75023 0.19925 0.0
H1079 H 0.77942 0.79228 0.1263 0.0
H1080 H 0.74066 0.75878 0.14519 0.0
H1081 H 0.65371 0.78804 0.19556 0.0
H1082 H 0.51831 0.69603 0.23201 0.0
H1083 H 0.55421 0.7293 0.21137 0.0
H1084 H 0.64259 0.70122 0.16248 0.0
C1085 C 0.72915 0.77813 0.1449 0.0
C1086 C 0.65112 0.76927 0.188 0.0
C1087 C 0.75141 0.79719 0.13415 0.0
C1088 C 0.54639 0.69128 0.22415 0.0
C1089 C 0.56715 0.71038 0.21255 0.0
C1090 C 0.64499 0.72007 0.16991 0.0
C1091 C 0.69309 0.78416 0.15568 0.0
C1092 C 0.66979 0.76396 0.16753 0.0
C1093 C 0.60406 0.70506 0.20248 0.0
C1094 C 0.62641 0.7254 0.19037 0.0
H1095 H 0.69169 0.84833 0.14459 0.0
H1096 H 0.65197 0.81501 0.16313 0.0
H1097 H 0.67976 0.73446 0.14273 0.0
H1098 H 0.61179 0.64217 0.21694 0.0
H1099 H 0.64816 0.67551 0.1968 0.0
C1100 C 0.26559 0.79123 0.3969 0.0
C1101 C 0.27395 0.81713 0.39277 0.0
C1102 C 0.28943 0.77212 0.38759 0.0
C1103 C 0.38674 0.7622 0.35824 0.0
H1104 H 0.33578 0.6992 0.33875 0.0
C1105 C 0.4518 0.69249 0.29302 0.0
C1106 C 0.45672 0.66721 0.30045 0.0
C1107 C 0.43068 0.71007 0.30589 0.0
C1108 C 0.35033 0.71664 0.3443 0.0
H1109 H 0.31371 0.8437 0.37634 0.0
H1110 H 0.35422 0.81058 0.35891 0.0
H1111 H 0.29661 0.73152 0.35818 0.0
H1112 H 0.44329 0.64018 0.32679 0.0
H1113 H 0.40484 0.67092 0.34909 0.0
H1114 H 0.43993 0.74762 0.3431 0.0
C1115 C 0.33016 0.80471 0.36982 0.0
C1116 C 0.32806 0.73514 0.35557 0.0
C1117 C 0.30678 0.82374 0.37953 0.0
C1118 C 0.43995 0.65966 0.32084 0.0
C1119 C 0.41794 0.67711 0.33348 0.0
C1120 C 0.40872 0.74394 0.34656 0.0
C1121 C 0.32174 0.77858 0.37363 0.0
C1122 C 0.34589 0.75828 0.36258 0.0
C1123 C 0.41344 0.70247 0.32614 0.0
C1124 C 0.39063 0.72111 0.33943 0.0
H1125 H 0.24039 0.78588 0.40721 0.0
H1126 H 0.28242 0.75232 0.39134 0.0
H1127 H 0.40187 0.77941 0.3638 0.0
H1128 H 0.46472 0.69873 0.27738 0.0
H1129 H 0.42736 0.72953 0.2999 0.0
C1130 C 0.26441 0.71438 0.87497 0.0
C1131 C 0.24617 0.69672 0.88936 0.0
C1132 C 0.24164 0.73294 0.86414 0.0
C1133 C 0.14032 0.74577 0.84472 0.0
H1134 H 0.17526 0.8167 0.84256 0.0
C1135 C 0.06863 0.82174 0.78732 0.0
C1136 C 0.05985 0.8454 0.79725 0.0
C1137 C 0.09105 0.80351 0.79878 0.0
C1138 C 0.16509 0.79698 0.84311 0.0
H1139 H 0.19044 0.68423 0.90387 0.0
H1140 H 0.15018 0.71668 0.88483 0.0
H1141 H 0.21517 0.78512 0.86259 0.0
H1142 H 0.06762 0.86873 0.82677 0.0
H1143 H 0.10714 0.83692 0.84677 0.0
H1144 H 0.09031 0.75761 0.82516 0.0
C1145 C 0.18203 0.71622 0.8819 0.0
C1146 C 0.18805 0.77889 0.85441 0.0
C1147 C 0.20492 0.69786 0.89289 0.0
C1148 C 0.07387 0.85056 0.8188 0.0
C1149 C 0.09668 0.83247 0.83015 0.0
C1150 C 0.1176 0.76379 0.83319 0.0
C1151 C 0.20016 0.73391 0.86736 0.0
C1152 C 0.17582 0.75312 0.85539 0.0
C1153 C 0.10547 0.80876 0.82027 0.0
C1154 C 0.1297 0.78959 0.83234 0.0
H1155 H 0.29625 0.7137 0.87212 0.0
H1156 H 0.25635 0.7462 0.85291 0.0
H1157 H 0.13037 0.72599 0.84504 0.0
H1158 H 0.05801 0.81731 0.77072 0.0
H1159 H 0.09762 0.78545 0.79071 0.0
loop_
_geom_bond_atom_site_label_1
_geom_bond_atom_site_label_2
_geom_bond_distance
_geom_bond_site_symmetry_2
_ccdc_geom_bond_type
C0 N1 1.317 . S
C0 N2 1.348 . S
C0 C3 1.485 . S
N1 C0 1.317 . S
N1 N5 1.370 . S
N2 C0 1.348 . S
N2 C4 1.346 . S
C3 C0 1.485 . S
C3 H7 0.960 . S
C3 H8 0.961 . S
C3 H9 0.960 . S
C4 N2 1.346 . S
C4 N5 1.307 . S
C4 C6 1.486 . S
N5 N1 1.370 . S
N5 C4 1.307 . S
C6 C4 1.486 . S
C6 H10 0.960 . S
C6 H11 0.960 . S
C6 H12 0.959 . S
H7 C3 0.960 . S
H8 C3 0.961 . S
H9 C3 0.960 . S
H10 C6 0.960 . S
H11 C6 0.960 . S
H12 C6 0.959 . S
C13 N14 1.317 . S
C13 N15 1.348 . S
C13 C16 1.485 . S
N14 C13 1.317 . S
N14 N18 1.370 . S
N15 C13 1.348 . S
N15 C17 1.346 . S
C16 C13 1.485 . S
C16 H20 0.960 . S
C16 H21 0.961 . S
C16 H22 0.960 . S
C17 N15 1.346 . S
C17 N18 1.307 . S
C17 C19 1.486 . S
N18 N14 1.370 . S
N18 C17 1.307 . S
C19 C17 1.486 . S
C19 H23 0.960 . S
C19 H24 0.960 . S
C19 H25 0.959 . S
H20 C16 0.960 . S
H21 C16 0.961 . S
H22 C16 0.960 . S
H23 C19 0.960 . S
H24 C19 0.960 . S
H25 C19 0.959 . S
C26 N27 1.317 . S
C26 N28 1.348 . S
C26 C29 1.485 . S
N27 C26 1.317 . S
N27 N31 1.370 . S
N28 C26 1.348 . S
N28 C30 1.346 . S
C29 C26 1.485 . S
C29 H33 0.960 . S
C29 H34 0.961 . S
C29 H35 0.960 . S
C30 N28 1.346 . S
C30 N31 1.307 . S
C30 C32 1.486 . S
N31 N27 1.370 . S
N31 C30 1.307 . S
C32 C30 1.486 . S
C32 H36 0.960 . S
C32 H37 0.960 . S
C32 H38 0.959 . S
H33 C29 0.960 . S
H34 C29 0.961 . S
H35 C29 0.960 . S
H36 C32 0.960 . S
H37 C32 0.960 . S
H38 C32 0.959 . S
C39 N40 1.317 . S
C39 N41 1.348 . S
C39 C42 1.485 . S
N40 C39 1.317 . S
N40 N44 1.370 . S
N41 C39 1.348 . S
N41 C43 1.346 . S
C42 C39 1.485 . S
C42 H46 0.960 . S
C42 H47 0.961 . S
C42 H48 0.960 . S
C43 N41 1.346 . S
C43 N44 1.307 . S
C43 C45 1.486 . S
N44 N40 1.370 . S
N44 C43 1.307 . S
C45 C43 1.486 . S
C45 H49 0.960 . S
C45 H50 0.960 . S
C45 H51 0.959 . S
H46 C42 0.960 . S
H47 C42 0.961 . S
H48 C42 0.960 . S
H49 C45 0.960 . S
H50 C45 0.960 . S
H51 C45 0.959 . S
C52 N53 1.317 . S
C52 N54 1.348 . S
C52 C55 1.485 . S
N53 C52 1.317 . S
N53 N57 1.370 . S
N54 C52 1.348 . S
N54 C56 1.346 . S
C55 C52 1.485 . S
C55 H59 0.960 . S
C55 H60 0.961 . S
C55 H61 0.960 . S
C56 N54 1.346 . S
C56 N57 1.307 . S
C56 C58 1.486 . S
N57 N53 1.370 . S
N57 C56 1.307 . S
C58 C56 1.486 . S
C58 H62 0.960 . S
C58 H63 0.960 . S
C58 H64 0.959 . S
H59 C55 0.960 . S
H60 C55 0.961 . S
H61 C55 0.960 . S
H62 C58 0.960 . S
H63 C58 0.960 . S
H64 C58 0.959 . S
C65 N66 1.317 . S
C65 N67 1.348 . S
C65 C68 1.485 . S
N66 C65 1.317 . S
N66 N70 1.370 . S
N67 C65 1.348 . S
N67 C69 1.346 . S
C68 C65 1.485 . S
C68 H72 0.960 . S
C68 H73 0.961 . S
C68 H74 0.960 . S
C69 N67 1.346 . S
C69 N70 1.307 . S
C69 C71 1.486 . S
N70 N66 1.370 . S
N70 C69 1.307 . S
C71 C69 1.486 . S
C71 H75 0.960 . S
C71 H76 0.960 . S
C71 H77 0.959 . S
H72 C68 0.960 . S
H73 C68 0.961 . S
H74 C68 0.960 . S
H75 C71 0.960 . S
H76 C71 0.960 . S
H77 C71 0.959 . S
C78 N79 1.317 . S
C78 N80 1.348 . S
C78 C81 1.485 . S
N79 C78 1.317 . S
N79 N83 1.370 . S
N80 C78 1.348 . S
N80 C82 1.346 . S
C81 C78 1.485 . S
C81 H85 0.960 . S
C81 H86 0.961 . S
C81 H87 0.960 . S
C82 N80 1.346 . S
C82 N83 1.307 . S
C82 C84 1.486 . S
N83 N79 1.370 . S
N83 C82 1.307 . S
C84 C82 1.486 . S
C84 H88 0.960 . S
C84 H89 0.960 . S
C84 H90 0.959 . S
H85 C81 0.960 . S
H86 C81 0.961 . S
H87 C81 0.960 . S
H88 C84 0.960 . S
H89 C84 0.960 . S
H90 C84 0.959 . S
C91 N92 1.317 . S
C91 N93 1.348 . S
C91 C94 1.485 . S
N92 C91 1.317 . S
N92 N96 1.370 . S
N93 C91 1.348 . S
N93 C95 1.346 . S
C94 C91 1.485 . S
C94 H98 0.960 . S
C94 H99 0.961 . S
C94 H100 0.960 . S
C95 N93 1.346 . S
C95 N96 1.307 . S
C95 C97 1.486 . S
N96 N92 1.370 . S
N96 C95 1.307 . S
C97 C95 1.486 . S
C97 H101 0.960 . S
C97 H102 0.960 . S
C97 H103 0.959 . S
H98 C94 0.960 . S
H99 C94 0.961 . S
H100 C94 0.960 . S
H101 C97 0.960 . S
H102 C97 0.960 . S
H103 C97 0.959 . S
Tb104 N133 2.617 . S
Tb104 N139 2.572 . S
Tb104 O148 2.465 . S
Tb104 O149 2.387 . S
Tb104 O151 2.428 . S
Tb104 O152 2.308 . S
Tb104 O156 2.349 . S
Tb104 O159 2.393 . S
Tb104 C168 2.802 . S
C105 N106 1.379 . S
C105 C108 1.416 . S
C105 C112 1.424 . S
N106 C105 1.379 . S
N106 C109 1.334 . S
N106 Tb115 2.617 . S
C107 C109 1.390 . S
C107 C110 1.339 . S
C107 H127 0.930 . S
C108 C105 1.416 . S
C108 C110 1.416 . S
C108 C114 1.448 . S
C109 N106 1.334 . S
C109 C107 1.390 . S
C109 H120 0.930 . S
C110 C107 1.339 . S
C110 C108 1.416 . S
C110 H131 0.930 . S
C111 C112 1.413 . S
C111 C113 1.427 . S
C111 C117 1.416 . S
C112 C105 1.424 . S
C112 C111 1.413 . S
C112 N116 1.361 . S
C113 C111 1.427 . S
C113 C114 1.328 . S
C113 H128 0.929 . S
C114 C108 1.448 . S
C114 C113 1.328 . S
C114 H129 0.930 . S
Tb115 N106 2.617 . S
Tb115 N116 2.572 . S
Tb115 O150 2.349 1_655 S
Tb115 O153 2.393 . S
Tb115 O154 2.465 . S
Tb115 O155 2.387 . S
Tb115 O157 2.428 . S
Tb115 O158 2.308 1_655 S
Tb115 C179 2.802 . S
N116 C112 1.361 . S
N116 Tb115 2.572 . S
N116 C118 1.340 . S
C117 C111 1.416 . S
C117 C119 1.332 . S
C117 H125 0.931 . S
C118 N116 1.340 . S
C118 C119 1.407 . S
C118 H124 0.930 . S
C119 C117 1.332 . S
C119 C118 1.407 . S
C119 H121 0.929 . S
H120 C109 0.930 . S
H121 C119 0.929 . S
H122 C137 0.930 . S
H123 C144 0.929 . S
H124 C118 0.930 . S
H125 C117 0.931 . S
H126 C140 0.930 . S
H127 C107 0.930 . S
H128 C113 0.929 . S
H129 C114 0.930 . S
H130 C135 0.930 . S
H131 C110 0.930 . S
H132 C143 0.931 . S
N133 Tb104 2.617 . S
N133 C134 1.379 . S
N133 C137 1.334 . S
C134 N133 1.379 . S
C134 C136 1.416 . S
C134 C142 1.424 . S
C135 H130 0.930 . S
C135 C137 1.390 . S
C135 C138 1.339 . S
C136 C134 1.416 . S
C136 C138 1.416 . S
C136 C169 1.448 . S
C137 H122 0.930 . S
C137 N133 1.334 . S
C137 C135 1.390 . S
C138 C135 1.339 . S
C138 C136 1.416 . S
C138 H145 0.930 . S
N139 Tb104 2.572 . S
N139 C140 1.340 . S
N139 C142 1.361 . S
C140 H126 0.930 . S
C140 N139 1.340 . S
C140 C144 1.407 . S
C141 C142 1.413 . S
C141 C143 1.416 . S
C141 C170 1.427 . S
C142 C134 1.424 . S
C142 N139 1.361 . S
C142 C141 1.413 . S
C143 H132 0.931 . S
C143 C141 1.416 . S
C143 C144 1.332 . S
C144 H123 0.929 . S
C144 C140 1.407 . S
C144 C143 1.332 . S
H145 C138 0.930 . S
H146 C169 0.930 . S
H147 C170 0.929 . S
O148 Tb104 2.465 . S
O148 C168 1.264 . S
O149 Tb104 2.387 . S
O149 C160 1.264 . S
O150 Tb115 2.349 1_455 S
O150 C160 1.243 . S
O151 Tb104 2.428 . S
O151 C168 1.256 . S
O152 Tb104 2.308 . S
O152 C167 1.266 1_455 S
O153 Tb115 2.393 . S
O153 C167 1.248 . S
O154 Tb115 2.465 . S
O154 C179 1.264 . S
O155 Tb115 2.387 . S
O155 C171 1.264 . S
O156 Tb104 2.349 . S
O156 C171 1.243 1_455 S
O157 Tb115 2.428 . S
O157 C179 1.256 . S
O158 Tb115 2.308 1_455 S
O158 C178 1.266 . S
O159 Tb104 2.393 . S
O159 C178 1.248 . S
C160 O149 1.264 . S
C160 O150 1.243 . S
C161 C164 1.399 . S
C161 C166 1.383 . S
C161 C168 1.496 . S
C162 C163 1.399 . S
C162 C166 1.389 . S
C163 C162 1.399 . S
C163 C165 1.380 . S
C163 H180 0.929 . S
C164 C161 1.399 . S
C164 C165 1.392 . S
C164 H181 0.929 . S
C165 C163 1.380 . S
C165 C164 1.392 . S
C165 H182 0.929 . S
C166 C161 1.383 . S
C166 C162 1.389 . S
C166 H183 0.931 . S
C167 O152 1.266 1_655 S
C167 O153 1.248 . S
C168 Tb104 2.802 . S
C168 O148 1.264 . S
C168 O151 1.256 . S
C168 C161 1.496 . S
C169 C136 1.448 . S
C169 H146 0.930 . S
C169 C170 1.328 . S
C170 C141 1.427 . S
C170 H147 0.929 . S
C170 C169 1.328 . S
C171 O155 1.264 . S
C171 O156 1.243 1_655 S
C172 C175 1.399 . S
C172 C176 1.383 . S
C172 C179 1.496 . S
C173 C174 1.399 . S
C173 C176 1.389 . S
C174 C173 1.399 . S
C174 C177 1.380 . S
C174 H184 0.929 . S
C175 C172 1.399 . S
C175 C177 1.392 . S
C175 H185 0.929 . S
C176 C172 1.383 . S
C176 C173 1.389 . S
C176 H186 0.931 . S
C177 C174 1.380 . S
C177 C175 1.392 . S
C177 H187 0.929 . S
C178 O158 1.266 . S
C178 O159 1.248 . S
C179 Tb115 2.802 . S
C179 O154 1.264 . S
C179 O157 1.256 . S
C179 C172 1.496 . S
H180 C163 0.929 . S
H181 C164 0.929 . S
H182 C165 0.929 . S
H183 C166 0.931 . S
H184 C174 0.929 . S
H185 C175 0.929 . S
H186 C176 0.931 . S
H187 C177 0.929 . S
Tb188 N217 2.617 . S
Tb188 N223 2.572 . S
Tb188 O232 2.465 . S
Tb188 O233 2.387 . S
Tb188 O235 2.428 . S
Tb188 O236 2.308 . S
Tb188 O240 2.349 . S
Tb188 O243 2.393 . S
Tb188 C252 2.802 . S
C189 N190 1.379 . S
C189 C192 1.416 . S
C189 C196 1.424 . S
N190 C189 1.379 . S
N190 C193 1.334 . S
N190 Tb199 2.617 . S
C191 C193 1.390 . S
C191 C194 1.339 . S
C191 H211 0.930 . S
C192 C189 1.416 . S
C192 C194 1.416 . S
C192 C198 1.448 . S
C193 N190 1.334 . S
C193 C191 1.390 . S
C193 H204 0.930 . S
C194 C191 1.339 . S
C194 C192 1.416 . S
C194 H215 0.930 . S
C195 C196 1.413 . S
C195 C197 1.427 . S
C195 C201 1.416 . S
C196 C189 1.424 . S
C196 C195 1.413 . S
C196 N200 1.361 . S
C197 C195 1.427 . S
C197 C198 1.328 . S
C197 H212 0.929 . S
C198 C192 1.448 . S
C198 C197 1.328 . S
C198 H213 0.930 . S
Tb199 N190 2.617 . S
Tb199 N200 2.572 . S
Tb199 O234 2.349 . S
Tb199 O237 2.393 . S
Tb199 O238 2.465 . S
Tb199 O239 2.387 . S
Tb199 O241 2.428 . S
Tb199 O242 2.308 . S
Tb199 C263 2.802 . S
N200 C196 1.361 . S
N200 Tb199 2.572 . S
N200 C202 1.340 . S
C201 C195 1.416 . S
C201 C203 1.332 . S
C201 H209 0.931 . S
C202 N200 1.340 . S
C202 C203 1.407 . S
C202 H208 0.930 . S
C203 C201 1.332 . S
C203 C202 1.407 . S
C203 H205 0.929 . S
H204 C193 0.930 . S
H205 C203 0.929 . S
H206 C221 0.930 . S
H207 C228 0.929 . S
H208 C202 0.930 . S
H209 C201 0.931 . S
H210 C224 0.930 . S
H211 C191 0.930 . S
H212 C197 0.929 . S
H213 C198 0.930 . S
H214 C219 0.930 . S
H215 C194 0.930 . S
H216 C227 0.931 . S
N217 Tb188 2.617 . S
N217 C218 1.379 . S
N217 C221 1.334 . S
C218 N217 1.379 . S
C218 C220 1.416 . S
C218 C226 1.424 . S
C219 H214 0.930 . S
C219 C221 1.390 . S
C219 C222 1.339 . S
C220 C218 1.416 . S
C220 C222 1.416 . S
C220 C253 1.448 . S
C221 H206 0.930 . S
C221 N217 1.334 . S
C221 C219 1.390 . S
C222 C219 1.339 . S
C222 C220 1.416 . S
C222 H229 0.930 . S
N223 Tb188 2.572 . S
N223 C224 1.340 . S
N223 C226 1.361 . S
C224 H210 0.930 . S
C224 N223 1.340 . S
C224 C228 1.407 . S
C225 C226 1.413 . S
C225 C227 1.416 . S
C225 C254 1.427 . S
C226 C218 1.424 . S
C226 N223 1.361 . S
C226 C225 1.413 . S
C227 H216 0.931 . S
C227 C225 1.416 . S
C227 C228 1.332 . S
C228 H207 0.929 . S
C228 C224 1.407 . S
C228 C227 1.332 . S
H229 C222 0.930 . S
H230 C253 0.930 . S
H231 C254 0.929 . S
O232 Tb188 2.465 . S
O232 C252 1.264 . S
O233 Tb188 2.387 . S
O233 C244 1.264 . S
O234 Tb199 2.349 . S
O234 C244 1.243 . S
O235 Tb188 2.428 . S
O235 C252 1.256 . S
O236 Tb188 2.308 . S
O236 C251 1.266 . S
O237 Tb199 2.393 . S
O237 C251 1.248 . S
O238 Tb199 2.465 . S
O238 C263 1.264 . S
O239 Tb199 2.387 . S
O239 C255 1.264 . S
O240 Tb188 2.349 . S
O240 C255 1.243 . S
O241 Tb199 2.428 . S
O241 C263 1.256 . S
O242 Tb199 2.308 . S
O242 C262 1.266 . S
O243 Tb188 2.393 . S
O243 C262 1.248 . S
C244 O233 1.264 . S
C244 O234 1.243 . S
C245 C248 1.399 . S
C245 C250 1.383 . S
C245 C252 1.496 . S
C246 C247 1.399 . S
C246 C250 1.389 . S
C247 C246 1.399 . S
C247 C249 1.380 . S
C247 H264 0.929 . S
C248 C245 1.399 . S
C248 C249 1.392 . S
C248 H265 0.929 . S
C249 C247 1.380 . S
C249 C248 1.392 . S
C249 H266 0.929 . S
C250 C245 1.383 . S
C250 C246 1.389 . S
C250 H267 0.931 . S
C251 O236 1.266 . S
C251 O237 1.248 . S
C252 Tb188 2.802 . S
C252 O232 1.264 . S
C252 O235 1.256 . S
C252 C245 1.496 . S
C253 C220 1.448 . S
C253 H230 0.930 . S
C253 C254 1.328 . S
C254 C225 1.427 . S
C254 H231 0.929 . S
C254 C253 1.328 . S
C255 O239 1.264 . S
C255 O240 1.243 . S
C256 C259 1.399 . S
C256 C260 1.383 . S
C256 C263 1.496 . S
C257 C258 1.399 . S
C257 C260 1.389 . S
C258 C257 1.399 . S
C258 C261 1.380 . S
C258 H268 0.929 . S
C259 C256 1.399 . S
C259 C261 1.392 . S
C259 H269 0.929 . S
C260 C256 1.383 . S
C260 C257 1.389 . S
C260 H270 0.931 . S
C261 C258 1.380 . S
C261 C259 1.392 . S
C261 H271 0.929 . S
C262 O242 1.266 . S
C262 O243 1.248 . S
C263 Tb199 2.802 . S
C263 O238 1.264 . S
C263 O241 1.256 . S
C263 C256 1.496 . S
H264 C247 0.929 . S
H265 C248 0.929 . S
H266 C249 0.929 . S
H267 C250 0.931 . S
H268 C258 0.929 . S
H269 C259 0.929 . S
H270 C260 0.931 . S
H271 C261 0.929 . S
Tb272 N301 2.617 . S
Tb272 N307 2.572 . S
Tb272 O316 2.465 . S
Tb272 O317 2.387 . S
Tb272 O319 2.428 . S
Tb272 O320 2.308 . S
Tb272 O324 2.349 . S
Tb272 O327 2.393 . S
Tb272 C336 2.802 . S
C273 N274 1.379 . S
C273 C276 1.416 . S
C273 C280 1.424 . S
N274 C273 1.379 . S
N274 C277 1.334 . S
N274 Tb283 2.617 . S
C275 C277 1.390 . S
C275 C278 1.339 . S
C275 H295 0.930 . S
C276 C273 1.416 . S
C276 C278 1.416 . S
C276 C282 1.448 . S
C277 N274 1.334 . S
C277 C275 1.390 . S
C277 H288 0.930 . S
C278 C275 1.339 . S
C278 C276 1.416 . S
C278 H299 0.930 . S
C279 C280 1.413 . S
C279 C281 1.427 . S
C279 C285 1.416 . S
C280 C273 1.424 . S
C280 C279 1.413 . S
C280 N284 1.361 . S
C281 C279 1.427 . S
C281 C282 1.328 . S
C281 H296 0.929 . S
C282 C276 1.448 . S
C282 C281 1.328 . S
C282 H297 0.930 . S
Tb283 N274 2.617 . S
Tb283 N284 2.572 . S
Tb283 O318 2.349 1_655 S
Tb283 O321 2.393 . S
Tb283 O322 2.465 . S
Tb283 O323 2.387 . S
Tb283 O325 2.428 . S
Tb283 O326 2.308 1_655 S
Tb283 C347 2.802 . S
N284 C280 1.361 . S
N284 Tb283 2.572 . S
N284 C286 1.340 . S
C285 C279 1.416 . S
C285 C287 1.332 . S
C285 H293 0.931 . S
C286 N284 1.340 . S
C286 C287 1.407 . S
C286 H292 0.930 . S
C287 C285 1.332 . S
C287 C286 1.407 . S
C287 H289 0.929 . S
H288 C277 0.930 . S
H289 C287 0.929 . S
H290 C305 0.930 . S
H291 C312 0.929 . S
H292 C286 0.930 . S
H293 C285 0.931 . S
H294 C308 0.930 . S
H295 C275 0.930 . S
H296 C281 0.929 . S
H297 C282 0.930 . S
H298 C303 0.930 . S
H299 C278 0.930 . S
H300 C311 0.931 . S
N301 Tb272 2.617 . S
N301 C302 1.379 . S
N301 C305 1.334 . S
C302 N301 1.379 . S
C302 C304 1.416 . S
C302 C310 1.424 . S
C303 H298 0.930 . S
C303 C305 1.390 . S
C303 C306 1.339 . S
C304 C302 1.416 . S
C304 C306 1.416 . S
C304 C337 1.448 . S
C305 H290 0.930 . S
C305 N301 1.334 . S
C305 C303 1.390 . S
C306 C303 1.339 . S
C306 C304 1.416 . S
C306 H313 0.930 . S
N307 Tb272 2.572 . S
N307 C308 1.340 . S
N307 C310 1.361 . S
C308 H294 0.930 . S
C308 N307 1.340 . S
C308 C312 1.407 . S
C309 C310 1.413 . S
C309 C311 1.416 . S
C309 C338 1.427 . S
C310 C302 1.424 . S
C310 N307 1.361 . S
C310 C309 1.413 . S
C311 H300 0.931 . S
C311 C309 1.416 . S
C311 C312 1.332 . S
C312 H291 0.929 . S
C312 C308 1.407 . S
C312 C311 1.332 . S
H313 C306 0.930 . S
H314 C337 0.930 . S
H315 C338 0.929 . S
O316 Tb272 2.465 . S
O316 C336 1.264 . S
O317 Tb272 2.387 . S
O317 C328 1.264 . S
O318 Tb283 2.349 1_455 S
O318 C328 1.243 . S
O319 Tb272 2.428 . S
O319 C336 1.256 . S
O320 Tb272 2.308 . S
O320 C335 1.266 1_455 S
O321 Tb283 2.393 . S
O321 C335 1.248 . S
O322 Tb283 2.465 . S
O322 C347 1.264 . S
O323 Tb283 2.387 . S
O323 C339 1.264 . S
O324 Tb272 2.349 . S
O324 C339 1.243 1_455 S
O325 Tb283 2.428 . S
O325 C347 1.256 . S
O326 Tb283 2.308 1_455 S
O326 C346 1.266 . S
O327 Tb272 2.393 . S
O327 C346 1.248 . S
C328 O317 1.264 . S
C328 O318 1.243 . S
C329 C332 1.399 . S
C329 C334 1.383 . S
C329 C336 1.496 . S
C330 C331 1.399 . S
C330 C334 1.389 . S
C331 C330 1.399 . S
C331 C333 1.380 . S
C331 H348 0.929 . S
C332 C329 1.399 . S
C332 C333 1.392 . S
C332 H349 0.929 . S
C333 C331 1.380 . S
C333 C332 1.392 . S
C333 H350 0.929 . S
C334 C329 1.383 . S
C334 C330 1.389 . S
C334 H351 0.931 . S
C335 O320 1.266 1_655 S
C335 O321 1.248 . S
C336 Tb272 2.802 . S
C336 O316 1.264 . S
C336 O319 1.256 . S
C336 C329 1.496 . S
C337 C304 1.448 . S
C337 H314 0.930 . S
C337 C338 1.328 . S
C338 C309 1.427 . S
C338 H315 0.929 . S
C338 C337 1.328 . S
C339 O323 1.264 . S
C339 O324 1.243 1_655 S
C340 C343 1.399 . S
C340 C344 1.383 . S
C340 C347 1.496 . S
C341 C342 1.399 . S
C341 C344 1.389 . S
C342 C341 1.399 . S
C342 C345 1.380 . S
C342 H352 0.929 . S
C343 C340 1.399 . S
C343 C345 1.392 . S
C343 H353 0.929 . S
C344 C340 1.383 . S
C344 C341 1.389 . S
C344 H354 0.931 . S
C345 C342 1.380 . S
C345 C343 1.392 . S
C345 H355 0.929 . S
C346 O326 1.266 . S
C346 O327 1.248 . S
C347 Tb283 2.802 . S
C347 O322 1.264 . S
C347 O325 1.256 . S
C347 C340 1.496 . S
H348 C331 0.929 . S
H349 C332 0.929 . S
H350 C333 0.929 . S
H351 C334 0.931 . S
H352 C342 0.929 . S
H353 C343 0.929 . S
H354 C344 0.931 . S
H355 C345 0.929 . S
Tb356 N385 2.617 . S
Tb356 N391 2.572 . S
Tb356 O400 2.465 . S
Tb356 O401 2.387 . S
Tb356 O403 2.428 . S
Tb356 O404 2.308 . S
Tb356 O408 2.349 . S
Tb356 O411 2.393 . S
Tb356 C420 2.802 . S
C357 N358 1.379 . S
C357 C360 1.416 . S
C357 C364 1.424 . S
N358 C357 1.379 . S
N358 C361 1.334 . S
N358 Tb367 2.617 . S
C359 C361 1.390 . S
C359 C362 1.339 . S
C359 H379 0.930 . S
C360 C357 1.416 . S
C360 C362 1.416 . S
C360 C366 1.448 . S
C361 N358 1.334 . S
C361 C359 1.390 . S
C361 H372 0.930 . S
C362 C359 1.339 . S
C362 C360 1.416 . S
C362 H383 0.930 . S
C363 C364 1.413 . S
C363 C365 1.427 . S
C363 C369 1.416 . S
C364 C357 1.424 . S
C364 C363 1.413 . S
C364 N368 1.361 . S
C365 C363 1.427 . S
C365 C366 1.328 . S
C365 H380 0.929 . S
C366 C360 1.448 . S
C366 C365 1.328 . S
C366 H381 0.930 . S
Tb367 N358 2.617 . S
Tb367 N368 2.572 . S
Tb367 O402 2.349 . S
Tb367 O405 2.393 . S
Tb367 O406 2.465 . S
Tb367 O407 2.387 . S
Tb367 O409 2.428 . S
Tb367 O410 2.308 . S
Tb367 C431 2.802 . S
N368 C364 1.361 . S
N368 Tb367 2.572 . S
N368 C370 1.340 . S
C369 C363 1.416 . S
C369 C371 1.332 . S
C369 H377 0.931 . S
C370 N368 1.340 . S
C370 C371 1.407 . S
C370 H376 0.930 . S
C371 C369 1.332 . S
C371 C370 1.407 . S
C371 H373 0.929 . S
H372 C361 0.930 . S
H373 C371 0.929 . S
H374 C389 0.930 . S
H375 C396 0.929 . S
H376 C370 0.930 . S
H377 C369 0.931 . S
H378 C392 0.930 . S
H379 C359 0.930 . S
H380 C365 0.929 . S
H381 C366 0.930 . S
H382 C387 0.930 . S
H383 C362 0.930 . S
H384 C395 0.931 . S
N385 Tb356 2.617 . S
N385 C386 1.379 . S
N385 C389 1.334 . S
C386 N385 1.379 . S
C386 C388 1.416 . S
C386 C394 1.424 . S
C387 H382 0.930 . S
C387 C389 1.390 . S
C387 C390 1.339 . S
C388 C386 1.416 . S
C388 C390 1.416 . S
C388 C421 1.448 . S
C389 H374 0.930 . S
C389 N385 1.334 . S
C389 C387 1.390 . S
C390 C387 1.339 . S
C390 C388 1.416 . S
C390 H397 0.930 . S
N391 Tb356 2.572 . S
N391 C392 1.340 . S
N391 C394 1.361 . S
C392 H378 0.930 . S
C392 N391 1.340 . S
C392 C396 1.407 . S
C393 C394 1.413 . S
C393 C395 1.416 . S
C393 C422 1.427 . S
C394 C386 1.424 . S
C394 N391 1.361 . S
C394 C393 1.413 . S
C395 H384 0.931 . S
C395 C393 1.416 . S
C395 C396 1.332 . S
C396 H375 0.929 . S
C396 C392 1.407 . S
C396 C395 1.332 . S
H397 C390 0.930 . S
H398 C421 0.930 . S
H399 C422 0.929 . S
O400 Tb356 2.465 . S
O400 C420 1.264 . S
O401 Tb356 2.387 . S
O401 C412 1.264 . S
O402 Tb367 2.349 . S
O402 C412 1.243 . S
O403 Tb356 2.428 . S
O403 C420 1.256 . S
O404 Tb356 2.308 . S
O404 C419 1.266 . S
O405 Tb367 2.393 . S
O405 C419 1.248 . S
O406 Tb367 2.465 . S
O406 C431 1.264 . S
O407 Tb367 2.387 . S
O407 C423 1.264 . S
O408 Tb356 2.349 . S
O408 C423 1.243 . S
O409 Tb367 2.428 . S
O409 C431 1.256 . S
O410 Tb367 2.308 . S
O410 C430 1.266 . S
O411 Tb356 2.393 . S
O411 C430 1.248 . S
C412 O401 1.264 . S
C412 O402 1.243 . S
C413 C416 1.399 . S
C413 C418 1.383 . S
C413 C420 1.496 . S
C414 C415 1.399 . S
C414 C418 1.389 . S
C415 C414 1.399 . S
C415 C417 1.380 . S
C415 H432 0.929 . S
C416 C413 1.399 . S
C416 C417 1.392 . S
C416 H433 0.929 . S
C417 C415 1.380 . S
C417 C416 1.392 . S
C417 H434 0.929 . S
C418 C413 1.383 . S
C418 C414 1.389 . S
C418 H435 0.931 . S
C419 O404 1.266 . S
C419 O405 1.248 . S
C420 Tb356 2.802 . S
C420 O400 1.264 . S
C420 O403 1.256 . S
C420 C413 1.496 . S
C421 C388 1.448 . S
C421 H398 0.930 . S
C421 C422 1.328 . S
C422 C393 1.427 . S
C422 H399 0.929 . S
C422 C421 1.328 . S
C423 O407 1.264 . S
C423 O408 1.243 . S
C424 C427 1.399 . S
C424 C428 1.383 . S
C424 C431 1.496 . S
C425 C426 1.399 . S
C425 C428 1.389 . S
C426 C425 1.399 . S
C426 C429 1.380 . S
C426 H436 0.929 . S
C427 C424 1.399 . S
C427 C429 1.392 . S
C427 H437 0.929 . S
C428 C424 1.383 . S
C428 C425 1.389 . S
C428 H438 0.931 . S
C429 C426 1.380 . S
C429 C427 1.392 . S
C429 H439 0.929 . S
C430 O410 1.266 . S
C430 O411 1.248 . S
C431 Tb367 2.802 . S
C431 O406 1.264 . S
C431 O409 1.256 . S
C431 C424 1.496 . S
H432 C415 0.929 . S
H433 C416 0.929 . S
H434 C417 0.929 . S
H435 C418 0.931 . S
H436 C426 0.929 . S
H437 C427 0.929 . S
H438 C428 0.931 . S
H439 C429 0.929 . S
C440 C441 1.349 . S
C440 C442 1.327 . S
C440 H465 0.950 . S
C441 C440 1.349 . S
C441 C457 1.349 . S
C442 C440 1.327 . S
C442 C461 1.429 . S
C442 H466 0.950 . S
C443 C460 1.574 . S
C443 C462 1.368 . S
C443 H467 0.949 . S
H444 C448 0.949 1_545 S
C445 C446 1.349 . S
C445 C447 1.327 . S
C445 H468 0.950 . S
C446 C445 1.349 . S
C446 C458 1.349 . S
C447 C445 1.327 . S
C447 C463 1.429 . S
C447 H469 0.953 . S
C448 H444 0.949 1_565 S
C448 C456 1.574 . S
C448 C464 1.368 . S
H449 C457 0.950 . S
H450 C455 0.950 . S
H451 C456 0.949 . S
H452 C458 0.950 . S
H453 C459 0.950 . S
H454 C460 0.949 . S
C455 H450 0.950 . S
C455 C457 1.327 . S
C455 C461 1.429 . S
C456 C448 1.574 . S
C456 H451 0.949 . S
C456 C462 1.368 . S
C457 C441 1.349 . S
C457 H449 0.950 . S
C457 C455 1.327 . S
C458 C446 1.349 . S
C458 H452 0.950 . S
C458 C459 1.327 . S
C459 H453 0.950 . S
C459 C458 1.327 . S
C459 C463 1.429 . S
C460 C443 1.574 . S
C460 H454 0.949 . S
C460 C464 1.368 . S
C461 C442 1.429 . S
C461 C455 1.429 . S
C461 C462 1.523 . S
C462 C443 1.368 . S
C462 C456 1.368 . S
C462 C461 1.523 . S
C463 C447 1.429 . S
C463 C459 1.429 . S
C463 C464 1.523 1_545 S
C464 C448 1.368 . S
C464 C460 1.368 . S
C464 C463 1.523 1_565 S
H465 C440 0.950 . S
H466 C442 0.950 . S
H467 C443 0.949 . S
H468 C445 0.950 . S
H469 C447 0.953 . S
C470 C471 1.349 . S
C470 C472 1.327 . S
C470 H495 0.950 . S
C471 C470 1.349 . S
C471 C487 1.349 . S
C472 C470 1.327 . S
C472 C491 1.429 . S
C472 H496 0.950 . S
C473 C490 1.574 . S
C473 C492 1.368 . S
C473 H497 0.949 . S
H474 C478 0.949 . S
C475 C476 1.349 . S
C475 C477 1.327 . S
C475 H498 0.950 . S
C476 C475 1.349 . S
C476 C488 1.349 . S
C477 C475 1.327 . S
C477 C493 1.429 . S
C477 H499 0.950 . S
C478 H474 0.949 . S
C478 C486 1.574 . S
C478 C494 1.368 . S
H479 C487 0.950 . S
H480 C485 0.950 . S
H481 C486 0.949 . S
H482 C488 0.950 . S
H483 C489 0.950 . S
H484 C490 0.949 . S
C485 H480 0.950 . S
C485 C487 1.327 . S
C485 C491 1.429 . S
C486 C478 1.574 . S
C486 H481 0.949 . S
C486 C492 1.368 . S
C487 C471 1.349 . S
C487 H479 0.950 . S
C487 C485 1.327 . S
C488 C476 1.349 . S
C488 H482 0.950 . S
C488 C489 1.327 . S
C489 H483 0.950 . S
C489 C488 1.327 . S
C489 C493 1.429 . S
C490 C473 1.574 . S
C490 H484 0.949 . S
C490 C494 1.368 . S
C491 C472 1.429 . S
C491 C485 1.429 . S
C491 C492 1.523 . S
C492 C473 1.368 . S
C492 C486 1.368 . S
C492 C491 1.523 . S
C493 C477 1.429 . S
C493 C489 1.429 . S
C493 C494 1.523 . S
C494 C478 1.368 . S
C494 C490 1.368 . S
C494 C493 1.523 . S
H495 C470 0.950 . S
H496 C472 0.950 . S
H497 C473 0.949 . S
H498 C475 0.950 . S
H499 C477 0.950 . S
C500 C501 1.349 . S
C500 C502 1.327 . S
C500 H525 0.950 . S
C501 C500 1.349 . S
C501 C517 1.349 . S
C502 C500 1.327 . S
C502 C521 1.429 . S
C502 H526 0.950 . S
C503 C520 1.574 . S
C503 C522 1.368 . S
C503 H527 0.949 . S
H504 C508 0.949 . S
C505 C506 1.349 . S
C505 C507 1.327 . S
C505 H528 0.950 . S
C506 C505 1.349 . S
C506 C518 1.349 . S
C507 C505 1.327 . S
C507 C523 1.429 . S
C507 H529 0.950 . S
C508 H504 0.949 . S
C508 C516 1.574 . S
C508 C524 1.368 . S
H509 C517 0.950 . S
H510 C515 0.950 . S
H511 C516 0.949 . S
H512 C518 0.950 . S
H513 C519 0.950 . S
H514 C520 0.949 . S
C515 H510 0.950 . S
C515 C517 1.327 . S
C515 C521 1.429 . S
C516 C508 1.574 . S
C516 H511 0.949 . S
C516 C522 1.368 . S
C517 C501 1.349 . S
C517 H509 0.950 . S
C517 C515 1.327 . S
C518 C506 1.349 . S
C518 H512 0.950 . S
C518 C519 1.327 . S
C519 H513 0.950 . S
C519 C518 1.327 . S
C519 C523 1.429 . S
C520 C503 1.574 . S
C520 H514 0.949 . S
C520 C524 1.368 . S
C521 C502 1.429 . S
C521 C515 1.429 . S
C521 C522 1.523 . S
C522 C503 1.368 . S
C522 C516 1.368 . S
C522 C521 1.523 . S
C523 C507 1.429 . S
C523 C519 1.429 . S
C523 C524 1.523 . S
C524 C508 1.368 . S
C524 C520 1.368 . S
C524 C523 1.523 . S
H525 C500 0.950 . S
H526 C502 0.950 . S
H527 C503 0.949 . S
H528 C505 0.950 . S
H529 C507 0.950 . S
C530 C531 1.349 . S
C530 C532 1.327 . S
C530 H555 0.950 . S
C531 C530 1.349 . S
C531 C547 1.349 . S
C532 C530 1.327 . S
C532 C551 1.429 . S
C532 H556 0.950 . S
C533 C550 1.574 . S
C533 C552 1.368 . S
C533 H557 0.949 . S
H534 C538 0.949 . S
C535 C536 1.349 . S
C535 C537 1.327 . S
C535 H558 0.950 . S
C536 C535 1.349 . S
C536 C548 1.349 . S
C537 C535 1.327 . S
C537 C553 1.429 . S
C537 H559 0.950 . S
C538 H534 0.949 . S
C538 C546 1.574 . S
C538 C554 1.368 . S
H539 C547 0.950 . S
H540 C545 0.950 . S
H541 C546 0.949 . S
H542 C548 0.950 . S
H543 C549 0.950 . S
H544 C550 0.949 . S
C545 H540 0.950 . S
C545 C547 1.327 . S
C545 C551 1.429 . S
C546 C538 1.574 . S
C546 H541 0.949 . S
C546 C552 1.368 . S
C547 C531 1.349 . S
C547 H539 0.950 . S
C547 C545 1.327 . S
C548 C536 1.349 . S
C548 H542 0.950 . S
C548 C549 1.327 . S
C549 H543 0.950 . S
C549 C548 1.327 . S
C549 C553 1.429 . S
C550 C533 1.574 . S
C550 H544 0.949 . S
C550 C554 1.368 . S
C551 C532 1.429 . S
C551 C545 1.429 . S
C551 C552 1.523 . S
C552 C533 1.368 . S
C552 C546 1.368 . S
C552 C551 1.523 . S
C553 C537 1.429 . S
C553 C549 1.429 . S
C553 C554 1.523 1_545 S
C554 C538 1.368 . S
C554 C550 1.368 . S
C554 C553 1.523 1_565 S
H555 C530 0.950 . S
H556 C532 0.950 . S
H557 C533 0.949 . S
H558 C535 0.950 . S
H559 C537 0.950 . S
C560 C561 1.349 . S
C560 C562 1.327 . S
C560 H585 0.950 . S
C561 C560 1.349 . S
C561 C577 1.349 . S
C562 C560 1.327 . S
C562 C581 1.429 . S
C562 H586 0.950 . S
C563 C580 1.574 . S
C563 C582 1.368 . S
C563 H587 0.949 . S
H564 C568 0.949 1_565 S
C565 C566 1.349 . S
C565 C567 1.327 . S
C565 H588 0.950 . S
C566 C565 1.349 . S
C566 C578 1.349 . S
C567 C565 1.327 . S
C567 C583 1.429 . S
C567 H589 0.950 1_565 S
C568 H564 0.949 1_545 S
C568 C576 1.574 . S
C568 C584 1.368 . S
H569 C577 0.950 . S
H570 C575 0.950 . S
H571 C576 0.949 . S
H572 C578 0.950 . S
H573 C579 0.950 . S
H574 C580 0.949 . S
C575 H570 0.950 . S
C575 C577 1.327 . S
C575 C581 1.429 . S
C576 C568 1.574 . S
C576 H571 0.949 . S
C576 C582 1.368 . S
C577 C561 1.349 . S
C577 H569 0.950 . S
C577 C575 1.327 . S
C578 C566 1.349 . S
C578 H572 0.950 . S
C578 C579 1.327 . S
C579 H573 0.950 . S
C579 C578 1.327 . S
C579 C583 1.429 . S
C580 C563 1.574 . S
C580 H574 0.949 . S
C580 C584 1.368 . S
C581 C562 1.429 . S
C581 C575 1.429 . S
C581 C582 1.523 . S
C582 C563 1.368 . S
C582 C576 1.368 . S
C582 C581 1.523 . S
C583 C567 1.429 . S
C583 C579 1.429 . S
C583 C584 1.523 1_565 S
C584 C568 1.368 . S
C584 C580 1.368 . S
C584 C583 1.523 1_545 S
H585 C560 0.950 . S
H586 C562 0.950 . S
H587 C563 0.949 . S
H588 C565 0.950 . S
H589 C567 0.950 1_545 S
C590 C591 1.349 . S
C590 C592 1.327 . S
C590 H615 0.950 . S
C591 C590 1.349 . S
C591 C607 1.349 . S
C592 C590 1.327 . S
C592 C611 1.429 . S
C592 H616 0.950 . S
C593 C610 1.574 . S
C593 C612 1.368 . S
C593 H617 0.949 . S
H594 C598 0.949 . S
C595 C596 1.349 . S
C595 C597 1.327 . S
C595 H618 0.950 . S
C596 C595 1.349 . S
C596 C608 1.349 . S
C597 C595 1.327 . S
C597 C613 1.429 . S
C597 H619 0.950 . S
C598 H594 0.949 . S
C598 C606 1.574 . S
C598 C614 1.368 . S
H599 C607 0.950 . S
H600 C605 0.950 . S
H601 C606 0.949 . S
H602 C608 0.950 . S
H603 C609 0.950 . S
H604 C610 0.949 . S
C605 H600 0.950 . S
C605 C607 1.327 . S
C605 C611 1.429 . S
C606 C598 1.574 . S
C606 H601 0.949 . S
C606 C612 1.368 . S
C607 C591 1.349 . S
C607 H599 0.950 . S
C607 C605 1.327 . S
C608 C596 1.349 . S
C608 H602 0.950 . S
C608 C609 1.327 . S
C609 H603 0.950 . S
C609 C608 1.327 . S
C609 C613 1.429 . S
C610 C593 1.574 . S
C610 H604 0.949 . S
C610 C614 1.368 . S
C611 C592 1.429 . S
C611 C605 1.429 . S
C611 C612 1.523 . S
C612 C593 1.368 . S
C612 C606 1.368 . S
C612 C611 1.523 . S
C613 C597 1.429 . S
C613 C609 1.429 . S
C613 C614 1.523 . S
C614 C598 1.368 . S
C614 C610 1.368 . S
C614 C613 1.523 . S
H615 C590 0.950 . S
H616 C592 0.950 . S
H617 C593 0.949 . S
H618 C595 0.950 . S
H619 C597 0.950 . S
C620 C621 1.349 . S
C620 C622 1.327 . S
C620 H645 0.950 . S
C621 C620 1.349 . S
C621 C637 1.349 . S
C622 C620 1.327 . S
C622 C641 1.429 . S
C622 H646 0.950 . S
C623 C640 1.574 . S
C623 C642 1.368 . S
C623 H647 0.949 . S
H624 C628 0.949 . S
C625 C626 1.349 . S
C625 C627 1.327 . S
C625 H648 0.950 . S
C626 C625 1.349 . S
C626 C638 1.349 . S
C627 C625 1.327 . S
C627 C643 1.429 . S
C627 H649 0.950 . S
C628 H624 0.949 . S
C628 C636 1.574 . S
C628 C644 1.368 . S
H629 C637 0.950 . S
H630 C635 0.950 . S
H631 C636 0.949 . S
H632 C638 0.950 . S
H633 C639 0.950 . S
H634 C640 0.949 . S
C635 H630 0.950 . S
C635 C637 1.327 . S
C635 C641 1.429 . S
C636 C628 1.574 . S
C636 H631 0.949 . S
C636 C642 1.368 . S
C637 C621 1.349 . S
C637 H629 0.950 . S
C637 C635 1.327 . S
C638 C626 1.349 . S
C638 H632 0.950 . S
C638 C639 1.327 . S
C639 H633 0.950 . S
C639 C638 1.327 . S
C639 C643 1.429 . S
C640 C623 1.574 . S
C640 H634 0.949 . S
C640 C644 1.368 . S
C641 C622 1.429 . S
C641 C635 1.429 . S
C641 C642 1.523 . S
C642 C623 1.368 . S
C642 C636 1.368 . S
C642 C641 1.523 . S
C643 C627 1.429 . S
C643 C639 1.429 . S
C643 C644 1.523 . S
C644 C628 1.368 . S
C644 C640 1.368 . S
C644 C643 1.523 . S
H645 C620 0.950 . S
H646 C622 0.950 . S
H647 C623 0.949 . S
H648 C625 0.950 . S
H649 C627 0.950 . S
C650 C651 1.349 . S
C650 C652 1.327 . S
C650 H675 0.950 . S
C651 C650 1.349 . S
C651 C667 1.349 . S
C652 C650 1.327 . S
C652 C671 1.429 . S
C652 H676 0.950 . S
C653 C670 1.574 . S
C653 C672 1.368 . S
C653 H677 0.949 . S
H654 C658 0.949 . S
C655 C656 1.349 . S
C655 C657 1.327 . S
C655 H678 0.950 . S
C656 C655 1.349 . S
C656 C668 1.349 . S
C657 C655 1.327 . S
C657 C673 1.429 . S
C657 H679 0.950 . S
C658 H654 0.949 . S
C658 C666 1.574 . S
C658 C674 1.368 . S
H659 C667 0.950 . S
H660 C665 0.950 . S
H661 C666 0.949 . S
H662 C668 0.950 . S
H663 C669 0.950 1_545 S
H664 C670 0.949 1_565 S
C665 H660 0.950 . S
C665 C667 1.327 . S
C665 C671 1.429 . S
C666 C658 1.574 . S
C666 H661 0.949 . S
C666 C672 1.368 . S
C667 C651 1.349 . S
C667 H659 0.950 . S
C667 C665 1.327 . S
C668 C656 1.349 . S
C668 H662 0.950 . S
C668 C669 1.327 . S
C669 H663 0.950 1_565 S
C669 C668 1.327 . S
C669 C673 1.429 . S
C670 C653 1.574 . S
C670 H664 0.949 1_545 S
C670 C674 1.368 . S
C671 C652 1.429 . S
C671 C665 1.429 . S
C671 C672 1.523 . S
C672 C653 1.368 . S
C672 C666 1.368 . S
C672 C671 1.523 . S
C673 C657 1.429 . S
C673 C669 1.429 . S
C673 C674 1.523 1_565 S
C674 C658 1.368 . S
C674 C670 1.368 . S
C674 C673 1.523 1_545 S
H675 C650 0.950 . S
H676 C652 0.950 . S
H677 C653 0.949 . S
H678 C655 0.950 . S
H679 C657 0.950 . S
C680 C681 1.349 . S
C680 C682 1.327 . S
C680 H705 0.950 . S
C681 C680 1.349 . S
C681 C697 1.349 . S
C682 C680 1.327 . S
C682 C701 1.429 . S
C682 H706 0.950 . S
C683 C700 1.574 . S
C683 C702 1.368 . S
C683 H707 0.949 . S
H684 C688 0.949 . S
C685 C686 1.349 . S
C685 C687 1.327 . S
C685 H708 0.950 . S
C686 C685 1.349 . S
C686 C698 1.349 . S
C687 C685 1.327 . S
C687 C703 1.429 . S
C687 H709 0.950 . S
C688 H684 0.949 . S
C688 C696 1.574 . S
C688 C704 1.368 . S
H689 C697 0.950 . S
H690 C695 0.950 . S
H691 C696 0.949 1_556 S
H692 C698 0.950 . S
H693 C699 0.950 . S
H694 C700 0.949 . S
C695 H690 0.950 . S
C695 C697 1.327 . S
C695 C701 1.429 . S
C696 C688 1.574 . S
C696 H691 0.949 1_554 S
C696 C702 1.368 . S
C697 C681 1.349 . S
C697 H689 0.950 . S
C697 C695 1.327 . S
C698 C686 1.349 . S
C698 H692 0.950 . S
C698 C699 1.327 . S
C699 H693 0.950 . S
C699 C698 1.327 . S
C699 C703 1.429 . S
C700 C683 1.574 . S
C700 H694 0.949 . S
C700 C704 1.368 . S
C701 C682 1.429 . S
C701 C695 1.429 . S
C701 C702 1.523 1_556 S
C702 C683 1.368 . S
C702 C696 1.368 . S
C702 C701 1.523 1_554 S
C703 C687 1.429 . S
C703 C699 1.429 . S
C703 C704 1.523 . S
C704 C688 1.368 . S
C704 C700 1.368 . S
C704 C703 1.523 . S
H705 C680 0.950 . S
H706 C682 0.950 . S
H707 C683 0.949 . S
H708 C685 0.950 . S
H709 C687 0.950 . S
C710 C711 1.349 . S
C710 C712 1.327 . S
C710 H735 0.950 . S
C711 C710 1.349 . S
C711 C727 1.349 . S
C712 C710 1.327 . S
C712 C731 1.429 . S
C712 H736 0.950 . S
C713 C730 1.574 . S
C713 C732 1.368 . S
C713 H737 0.949 . S
H714 C718 0.949 . S
C715 C716 1.349 . S
C715 C717 1.327 . S
C715 H738 0.950 . S
C716 C715 1.349 . S
C716 C728 1.349 . S
C717 C715 1.327 . S
C717 C733 1.429 . S
C717 H739 0.950 . S
C718 H714 0.949 . S
C718 C726 1.574 . S
C718 C734 1.368 . S
H719 C727 0.950 . S
H720 C725 0.950 . S
H721 C726 0.949 . S
H722 C728 0.950 . S
H723 C729 0.950 . S
H724 C730 0.949 . S
C725 H720 0.950 . S
C725 C727 1.327 . S
C725 C731 1.429 . S
C726 C718 1.574 . S
C726 H721 0.949 . S
C726 C732 1.368 . S
C727 C711 1.349 . S
C727 H719 0.950 . S
C727 C725 1.327 . S
C728 C716 1.349 . S
C728 H722 0.950 . S
C728 C729 1.327 . S
C729 H723 0.950 . S
C729 C728 1.327 . S
C729 C733 1.429 . S
C730 C713 1.574 . S
C730 H724 0.949 . S
C730 C734 1.368 . S
C731 C712 1.429 . S
C731 C725 1.429 . S
C731 C732 1.523 . S
C732 C713 1.368 . S
C732 C726 1.368 . S
C732 C731 1.523 . S
C733 C717 1.429 . S
C733 C729 1.429 . S
C733 C734 1.523 . S
C734 C718 1.368 . S
C734 C730 1.368 . S
C734 C733 1.523 . S
H735 C710 0.950 . S
H736 C712 0.950 . S
H737 C713 0.949 . S
H738 C715 0.950 . S
H739 C717 0.950 . S
C740 C741 1.349 . S
C740 C742 1.327 . S
C740 H765 0.950 . S
C741 C740 1.349 . S
C741 C757 1.349 . S
C742 C740 1.327 . S
C742 C761 1.429 . S
C742 H766 0.950 . S
C743 C760 1.574 . S
C743 C762 1.368 . S
C743 H767 0.949 1_556 S
H744 C748 0.949 . S
C745 C746 1.349 . S
C745 C747 1.327 . S
C745 H768 0.950 . S
C746 C745 1.349 . S
C746 C758 1.349 . S
C747 C745 1.327 . S
C747 C763 1.429 . S
C747 H769 0.950 . S
C748 H744 0.949 . S
C748 C756 1.574 . S
C748 C764 1.368 . S
H749 C757 0.950 . S
H750 C755 0.950 . S
H751 C756 0.949 . S
H752 C758 0.950 . S
H753 C759 0.950 . S
H754 C760 0.949 . S
C755 H750 0.950 . S
C755 C757 1.327 . S
C755 C761 1.429 . S
C756 C748 1.574 . S
C756 H751 0.949 . S
C756 C762 1.368 . S
C757 C741 1.349 . S
C757 H749 0.950 . S
C757 C755 1.327 . S
C758 C746 1.349 . S
C758 H752 0.950 . S
C758 C759 1.327 . S
C759 H753 0.950 . S
C759 C758 1.327 . S
C759 C763 1.429 . S
C760 C743 1.574 . S
C760 H754 0.949 . S
C760 C764 1.368 . S
C761 C742 1.429 . S
C761 C755 1.429 . S
C761 C762 1.523 1_554 S
C762 C743 1.368 . S
C762 C756 1.368 . S
C762 C761 1.523 1_556 S
C763 C747 1.429 . S
C763 C759 1.429 . S
C763 C764 1.523 . S
C764 C748 1.368 . S
C764 C760 1.368 . S
C764 C763 1.523 . S
H765 C740 0.950 . S
H766 C742 0.950 . S
H767 C743 0.949 1_554 S
H768 C745 0.950 . S
H769 C747 0.950 . S
C770 C771 1.349 . S
C770 C772 1.327 . S
C770 H795 0.950 . S
C771 C770 1.349 . S
C771 C787 1.349 . S
C772 C770 1.327 . S
C772 C791 1.429 . S
C772 H796 0.950 . S
C773 C790 1.574 . S
C773 C792 1.368 . S
C773 H797 0.949 . S
H774 C778 0.949 . S
C775 C776 1.349 . S
C775 C777 1.327 . S
C775 H798 0.950 . S
C776 C775 1.349 . S
C776 C788 1.349 . S
C777 C775 1.327 . S
C777 C793 1.429 . S
C777 H799 0.950 . S
C778 H774 0.949 . S
C778 C786 1.574 . S
C778 C794 1.368 . S
H779 C787 0.950 . S
H780 C785 0.950 . S
H781 C786 0.949 . S
H782 C788 0.950 . S
H783 C789 0.950 . S
H784 C790 0.949 . S
C785 H780 0.950 . S
C785 C787 1.327 . S
C785 C791 1.429 . S
C786 C778 1.574 . S
C786 H781 0.949 . S
C786 C792 1.368 . S
C787 C771 1.349 . S
C787 H779 0.950 . S
C787 C785 1.327 . S
C788 C776 1.349 . S
C788 H782 0.950 . S
C788 C789 1.327 . S
C789 H783 0.950 . S
C789 C788 1.327 . S
C789 C793 1.429 . S
C790 C773 1.574 . S
C790 H784 0.949 . S
C790 C794 1.368 . S
C791 C772 1.429 . S
C791 C785 1.429 . S
C791 C792 1.523 . S
C792 C773 1.368 . S
C792 C786 1.368 . S
C792 C791 1.523 . S
C793 C777 1.429 . S
C793 C789 1.429 . S
C793 C794 1.523 . S
C794 C778 1.368 . S
C794 C790 1.368 . S
C794 C793 1.523 . S
H795 C770 0.950 . S
H796 C772 0.950 . S
H797 C773 0.949 . S
H798 C775 0.950 . S
H799 C777 0.950 . S
C800 C801 1.349 . S
C800 C802 1.327 . S
C800 H825 0.950 . S
C801 C800 1.349 . S
C801 C817 1.349 . S
C802 C800 1.327 . S
C802 C821 1.429 . S
C802 H826 0.950 . S
C803 C820 1.574 . S
C803 C822 1.368 . S
C803 H827 0.949 . S
H804 C808 0.949 . S
C805 C806 1.349 . S
C805 C807 1.327 . S
C805 H828 0.950 . S
C806 C805 1.349 . S
C806 C818 1.349 . S
C807 C805 1.327 . S
C807 C823 1.429 . S
C807 H829 0.950 . S
C808 H804 0.949 . S
C808 C816 1.574 . S
C808 C824 1.368 . S
H809 C817 0.950 . S
H810 C815 0.950 . S
H811 C816 0.949 1_554 S
H812 C818 0.950 . S
H813 C819 0.950 . S
H814 C820 0.949 . S
C815 H810 0.950 . S
C815 C817 1.327 . S
C815 C821 1.429 . S
C816 C808 1.574 . S
C816 H811 0.949 1_556 S
C816 C822 1.368 . S
C817 C801 1.349 . S
C817 H809 0.950 . S
C817 C815 1.327 . S
C818 C806 1.349 . S
C818 H812 0.950 . S
C818 C819 1.327 . S
C819 H813 0.950 . S
C819 C818 1.327 . S
C819 C823 1.429 . S
C820 C803 1.574 . S
C820 H814 0.949 . S
C820 C824 1.368 . S
C821 C802 1.429 . S
C821 C815 1.429 . S
C821 C822 1.523 1_554 S
C822 C803 1.368 . S
C822 C816 1.368 . S
C822 C821 1.523 1_556 S
C823 C807 1.429 . S
C823 C819 1.429 . S
C823 C824 1.523 . S
C824 C808 1.368 . S
C824 C820 1.368 . S
C824 C823 1.523 . S
H825 C800 0.950 . S
H826 C802 0.950 . S
H827 C803 0.949 . S
H828 C805 0.950 . S
H829 C807 0.950 . S
C830 C831 1.349 . S
C830 C832 1.327 . S
C830 H855 0.950 . S
C831 C830 1.349 . S
C831 C847 1.349 . S
C832 C830 1.327 . S
C832 C851 1.429 . S
C832 H856 0.950 . S
C833 C850 1.574 . S
C833 C852 1.368 . S
C833 H857 0.949 . S
H834 C838 0.949 . S
C835 C836 1.349 . S
C835 C837 1.327 . S
C835 H858 0.950 . S
C836 C835 1.349 . S
C836 C848 1.349 . S
C837 C835 1.327 . S
C837 C853 1.429 . S
C837 H859 0.950 . S
C838 H834 0.949 . S
C838 C846 1.574 . S
C838 C854 1.368 . S
H839 C847 0.950 . S
H840 C845 0.950 . S
H841 C846 0.949 . S
H842 C848 0.950 . S
H843 C849 0.950 . S
H844 C850 0.949 . S
C845 H840 0.950 . S
C845 C847 1.327 . S
C845 C851 1.429 . S
C846 C838 1.574 . S
C846 H841 0.949 . S
C846 C852 1.368 . S
C847 C831 1.349 . S
C847 H839 0.950 . S
C847 C845 1.327 . S
C848 C836 1.349 . S
C848 H842 0.950 . S
C848 C849 1.327 . S
C849 H843 0.950 . S
C849 C848 1.327 . S
C849 C853 1.429 . S
C850 C833 1.574 . S
C850 H844 0.949 . S
C850 C854 1.368 . S
C851 C832 1.429 . S
C851 C845 1.429 . S
C851 C852 1.523 . S
C852 C833 1.368 . S
C852 C846 1.368 . S
C852 C851 1.523 . S
C853 C837 1.429 . S
C853 C849 1.429 . S
C853 C854 1.523 . S
C854 C838 1.368 . S
C854 C850 1.368 . S
C854 C853 1.523 . S
H855 C830 0.950 . S
H856 C832 0.950 . S
H857 C833 0.949 . S
H858 C835 0.950 . S
H859 C837 0.950 . S
C860 C861 1.349 . S
C860 C862 1.327 . S
C860 H885 0.950 . S
C861 C860 1.349 . S
C861 C877 1.349 . S
C862 C860 1.327 . S
C862 C881 1.429 . S
C862 H886 0.950 . S
C863 C880 1.574 . S
C863 C882 1.368 . S
C863 H887 0.949 1_554 S
H864 C868 0.949 . S
C865 C866 1.349 . S
C865 C867 1.327 . S
C865 H888 0.950 . S
C866 C865 1.349 . S
C866 C878 1.349 . S
C867 C865 1.327 . S
C867 C883 1.429 . S
C867 H889 0.950 . S
C868 H864 0.949 . S
C868 C876 1.574 . S
C868 C884 1.368 . S
H869 C877 0.950 . S
H870 C875 0.950 . S
H871 C876 0.949 . S
H872 C878 0.950 . S
H873 C879 0.950 . S
H874 C880 0.949 . S
C875 H870 0.950 . S
C875 C877 1.327 . S
C875 C881 1.429 . S
C876 C868 1.574 . S
C876 H871 0.949 . S
C876 C882 1.368 . S
C877 C861 1.349 . S
C877 H869 0.950 . S
C877 C875 1.327 . S
C878 C866 1.349 . S
C878 H872 0.950 . S
C878 C879 1.327 . S
C879 H873 0.950 . S
C879 C878 1.327 . S
C879 C883 1.429 . S
C880 C863 1.574 . S
C880 H874 0.949 . S
C880 C884 1.368 . S
C881 C862 1.429 . S
C881 C875 1.429 . S
C881 C882 1.523 1_556 S
C882 C863 1.368 . S
C882 C876 1.368 . S
C882 C881 1.523 1_554 S
C883 C867 1.429 . S
C883 C879 1.429 . S
C883 C884 1.523 . S
C884 C868 1.368 . S
C884 C880 1.368 . S
C884 C883 1.523 . S
H885 C860 0.950 . S
H886 C862 0.950 . S
H887 C863 0.949 1_556 S
H888 C865 0.950 . S
H889 C867 0.950 . S
C890 C891 1.349 . S
C890 C892 1.327 . S
C890 H915 0.950 . S
C891 C890 1.349 . S
C891 C907 1.349 . S
C892 C890 1.327 . S
C892 C911 1.429 . S
C892 H916 0.950 . S
C893 C910 1.574 . S
C893 C912 1.368 . S
C893 H917 0.949 . S
H894 C898 0.949 . S
C895 C896 1.349 . S
C895 C897 1.327 . S
C895 H918 0.950 . S
C896 C895 1.349 . S
C896 C908 1.349 . S
C897 C895 1.327 . S
C897 C913 1.429 . S
C897 H919 0.950 . S
C898 H894 0.949 . S
C898 C906 1.574 . S
C898 C914 1.368 . S
H899 C907 0.950 . S
H900 C905 0.950 . S
H901 C906 0.949 . S
H902 C908 0.950 . S
H903 C909 0.950 . S
H904 C910 0.949 . S
C905 H900 0.950 . S
C905 C907 1.327 . S
C905 C911 1.429 . S
C906 C898 1.574 . S
C906 H901 0.949 . S
C906 C912 1.368 . S
C907 C891 1.349 . S
C907 H899 0.950 . S
C907 C905 1.327 . S
C908 C896 1.349 . S
C908 H902 0.950 . S
C908 C909 1.327 . S
C909 H903 0.950 . S
C909 C908 1.327 . S
C909 C913 1.429 . S
C910 C893 1.574 . S
C910 H904 0.949 . S
C910 C914 1.368 . S
C911 C892 1.429 . S
C911 C905 1.429 . S
C911 C912 1.523 . S
C912 C893 1.368 . S
C912 C906 1.368 . S
C912 C911 1.523 . S
C913 C897 1.429 . S
C913 C909 1.429 . S
C913 C914 1.523 . S
C914 C898 1.368 . S
C914 C910 1.368 . S
C914 C913 1.523 . S
H915 C890 0.950 . S
H916 C892 0.950 . S
H917 C893 0.949 . S
H918 C895 0.950 . S
H919 C897 0.950 . S
C920 C921 1.349 . S
C920 C922 1.327 . S
C920 H945 0.950 . S
C921 C920 1.349 . S
C921 C937 1.349 . S
C922 C920 1.327 . S
C922 C941 1.429 . S
C922 H946 0.950 . S
C923 C940 1.574 . S
C923 C942 1.368 . S
C923 H947 0.949 . S
H924 C928 0.949 . S
C925 C926 1.349 . S
C925 C927 1.327 . S
C925 H948 0.950 . S
C926 C925 1.349 . S
C926 C938 1.349 . S
C927 C925 1.327 . S
C927 C943 1.429 . S
C927 H949 0.950 . S
C928 H924 0.949 . S
C928 C936 1.574 . S
C928 C944 1.368 . S
H929 C937 0.950 . S
H930 C935 0.950 . S
H931 C936 0.949 . S
H932 C938 0.950 . S
H933 C939 0.950 . S
H934 C940 0.949 . S
C935 H930 0.950 . S
C935 C937 1.327 . S
C935 C941 1.429 . S
C936 C928 1.574 . S
C936 H931 0.949 . S
C936 C942 1.368 . S
C937 C921 1.349 . S
C937 H929 0.950 . S
C937 C935 1.327 . S
C938 C926 1.349 . S
C938 H932 0.950 . S
C938 C939 1.327 . S
C939 H933 0.950 . S
C939 C938 1.327 . S
C939 C943 1.429 . S
C940 C923 1.574 . S
C940 H934 0.949 . S
C940 C944 1.368 . S
C941 C922 1.429 . S
C941 C935 1.429 . S
C941 C942 1.523 . S
C942 C923 1.368 . S
C942 C936 1.368 . S
C942 C941 1.523 . S
C943 C927 1.429 . S
C943 C939 1.429 . S
C943 C944 1.523 . S
C944 C928 1.368 . S
C944 C940 1.368 . S
C944 C943 1.523 . S
H945 C920 0.950 . S
H946 C922 0.950 . S
H947 C923 0.949 . S
H948 C925 0.950 . S
H949 C927 0.950 . S
C950 C951 1.349 . S
C950 C952 1.327 . S
C950 H975 0.950 . S
C951 C950 1.349 . S
C951 C967 1.349 . S
C952 C950 1.327 . S
C952 C971 1.429 . S
C952 H976 0.950 . S
C953 C970 1.574 . S
C953 C972 1.368 . S
C953 H977 0.949 . S
H954 C958 0.949 . S
C955 C956 1.349 . S
C955 C957 1.327 . S
C955 H978 0.950 . S
C956 C955 1.349 . S
C956 C968 1.349 . S
C957 C955 1.327 . S
C957 C973 1.429 . S
C957 H979 0.950 . S
C958 H954 0.949 . S
C958 C966 1.574 . S
C958 C974 1.368 . S
H959 C967 0.950 . S
H960 C965 0.950 . S
H961 C966 0.949 . S
H962 C968 0.950 . S
H963 C969 0.950 . S
H964 C970 0.949 . S
C965 H960 0.950 . S
C965 C967 1.327 . S
C965 C971 1.429 . S
C966 C958 1.574 . S
C966 H961 0.949 . S
C966 C972 1.368 . S
C967 C951 1.349 . S
C967 H959 0.950 . S
C967 C965 1.327 . S
C968 C956 1.349 . S
C968 H962 0.950 . S
C968 C969 1.327 . S
C969 H963 0.950 . S
C969 C968 1.327 . S
C969 C973 1.429 . S
C970 C953 1.574 . S
C970 H964 0.949 . S
C970 C974 1.368 . S
C971 C952 1.429 . S
C971 C965 1.429 . S
C971 C972 1.523 . S
C972 C953 1.368 . S
C972 C966 1.368 . S
C972 C971 1.523 . S
C973 C957 1.429 . S
C973 C969 1.429 . S
C973 C974 1.523 . S
C974 C958 1.368 . S
C974 C970 1.368 . S
C974 C973 1.523 . S
H975 C950 0.950 . S
H976 C952 0.950 . S
H977 C953 0.949 . S
H978 C955 0.950 . S
H979 C957 0.950 . S
C980 C981 1.349 . S
C980 C982 1.327 . S
C980 H1005 0.950 . S
C981 C980 1.349 . S
C981 C997 1.349 . S
C982 C980 1.327 . S
C982 C1001 1.429 . S
C982 H1006 0.950 . S
C983 C1000 1.574 . S
C983 C1002 1.368 . S
C983 H1007 0.949 . S
H984 C988 0.949 . S
C985 C986 1.349 . S
C985 C987 1.327 . S
C985 H1008 0.950 . S
C986 C985 1.349 . S
C986 C998 1.349 . S
C987 C985 1.327 . S
C987 C1003 1.429 . S
C987 H1009 0.950 . S
C988 H984 0.949 . S
C988 C996 1.574 . S
C988 C1004 1.368 . S
H989 C997 0.950 . S
H990 C995 0.950 . S
H991 C996 0.949 . S
H992 C998 0.950 . S
H993 C999 0.950 . S
H994 C1000 0.949 . S
C995 H990 0.950 . S
C995 C997 1.327 . S
C995 C1001 1.429 . S
C996 C988 1.574 . S
C996 H991 0.949 . S
C996 C1002 1.368 . S
C997 C981 1.349 . S
C997 H989 0.950 . S
C997 C995 1.327 . S
C998 C986 1.349 . S
C998 H992 0.950 . S
C998 C999 1.327 . S
C999 H993 0.950 . S
C999 C998 1.327 . S
C999 C1003 1.429 . S
C1000 C983 1.574 . S
C1000 H994 0.949 . S
C1000 C1004 1.368 . S
C1001 C982 1.429 . S
C1001 C995 1.429 . S
C1001 C1002 1.523 . S
C1002 C983 1.368 . S
C1002 C996 1.368 . S
C1002 C1001 1.523 . S
C1003 C987 1.429 . S
C1003 C999 1.429 . S
C1003 C1004 1.523 . S
C1004 C988 1.368 . S
C1004 C1000 1.368 . S
C1004 C1003 1.523 . S
H1005 C980 0.950 . S
H1006 C982 0.950 . S
H1007 C983 0.949 . S
H1008 C985 0.950 . S
H1009 C987 0.950 . S
C1010 C1011 1.349 . S
C1010 C1012 1.327 . S
C1010 H1035 0.950 . S
C1011 C1010 1.349 . S
C1011 C1027 1.349 . S
C1012 C1010 1.327 . S
C1012 C1031 1.429 . S
C1012 H1036 0.950 . S
C1013 C1030 1.574 . S
C1013 C1032 1.368 . S
C1013 H1037 0.949 . S
H1014 C1018 0.949 . S
C1015 C1016 1.349 . S
C1015 C1017 1.327 . S
C1015 H1038 0.950 . S
C1016 C1015 1.349 . S
C1016 C1028 1.349 . S
C1017 C1015 1.327 . S
C1017 C1033 1.429 . S
C1017 H1039 0.950 . S
C1018 H1014 0.949 . S
C1018 C1026 1.574 . S
C1018 C1034 1.368 . S
H1019 C1027 0.950 . S
H1020 C1025 0.950 . S
H1021 C1026 0.949 . S
H1022 C1028 0.950 . S
H1023 C1029 0.950 . S
H1024 C1030 0.949 . S
C1025 H1020 0.950 . S
C1025 C1027 1.327 . S
C1025 C1031 1.429 . S
C1026 C1018 1.574 . S
C1026 H1021 0.949 . S
C1026 C1032 1.368 . S
C1027 C1011 1.349 . S
C1027 H1019 0.950 . S
C1027 C1025 1.327 . S
C1028 C1016 1.349 . S
C1028 H1022 0.950 . S
C1028 C1029 1.327 . S
C1029 H1023 0.950 . S
C1029 C1028 1.327 . S
C1029 C1033 1.429 . S
C1030 C1013 1.574 . S
C1030 H1024 0.949 . S
C1030 C1034 1.368 . S
C1031 C1012 1.429 . S
C1031 C1025 1.429 . S
C1031 C1032 1.523 . S
C1032 C1013 1.368 . S
C1032 C1026 1.368 . S
C1032 C1031 1.523 . S
C1033 C1017 1.429 . S
C1033 C1029 1.429 . S
C1033 C1034 1.523 . S
C1034 C1018 1.368 . S
C1034 C1030 1.368 . S
C1034 C1033 1.523 . S
H1035 C1010 0.950 . S
H1036 C1012 0.950 . S
H1037 C1013 0.949 . S
H1038 C1015 0.950 . S
H1039 C1017 0.950 . S
C1040 C1041 1.349 . S
C1040 C1042 1.327 . S
C1040 H1065 0.950 . S
C1041 C1040 1.349 . S
C1041 C1057 1.349 . S
C1042 C1040 1.327 . S
C1042 C1061 1.429 . S
C1042 H1066 0.950 . S
C1043 C1060 1.574 . S
C1043 C1062 1.368 . S
C1043 H1067 0.949 . S
H1044 C1048 0.949 . S
C1045 C1046 1.349 . S
C1045 C1047 1.327 . S
C1045 H1068 0.950 . S
C1046 C1045 1.349 . S
C1046 C1058 1.349 . S
C1047 C1045 1.327 . S
C1047 C1063 1.429 . S
C1047 H1069 0.950 . S
C1048 H1044 0.949 . S
C1048 C1056 1.574 . S
C1048 C1064 1.368 . S
H1049 C1057 0.950 . S
H1050 C1055 0.950 . S
H1051 C1056 0.949 . S
H1052 C1058 0.950 . S
H1053 C1059 0.950 . S
H1054 C1060 0.949 . S
C1055 H1050 0.950 . S
C1055 C1057 1.327 . S
C1055 C1061 1.429 . S
C1056 C1048 1.574 . S
C1056 H1051 0.949 . S
C1056 C1062 1.368 . S
C1057 C1041 1.349 . S
C1057 H1049 0.950 . S
C1057 C1055 1.327 . S
C1058 C1046 1.349 . S
C1058 H1052 0.950 . S
C1058 C1059 1.327 . S
C1059 H1053 0.950 . S
C1059 C1058 1.327 . S
C1059 C1063 1.429 . S
C1060 C1043 1.574 . S
C1060 H1054 0.949 . S
C1060 C1064 1.368 . S
C1061 C1042 1.429 . S
C1061 C1055 1.429 . S
C1061 C1062 1.523 . S
C1062 C1043 1.368 . S
C1062 C1056 1.368 . S
C1062 C1061 1.523 . S
C1063 C1047 1.429 . S
C1063 C1059 1.429 . S
C1063 C1064 1.523 . S
C1064 C1048 1.368 . S
C1064 C1060 1.368 . S
C1064 C1063 1.523 . S
H1065 C1040 0.950 . S
H1066 C1042 0.950 . S
H1067 C1043 0.949 . S
H1068 C1045 0.950 . S
H1069 C1047 0.950 . S
C1070 C1071 1.349 . S
C1070 C1072 1.327 . S
C1070 H1095 0.950 . S
C1071 C1070 1.349 . S
C1071 C1087 1.349 . S
C1072 C1070 1.327 . S
C1072 C1091 1.429 . S
C1072 H1096 0.950 . S
C1073 C1090 1.574 . S
C1073 C1092 1.368 . S
C1073 H1097 0.949 . S
H1074 C1078 0.949 . S
C1075 C1076 1.349 . S
C1075 C1077 1.327 . S
C1075 H1098 0.950 . S
C1076 C1075 1.349 . S
C1076 C1088 1.349 . S
C1077 C1075 1.327 . S
C1077 C1093 1.429 . S
C1077 H1099 0.950 . S
C1078 H1074 0.949 . S
C1078 C1086 1.574 . S
C1078 C1094 1.368 . S
H1079 C1087 0.950 . S
H1080 C1085 0.950 . S
H1081 C1086 0.949 . S
H1082 C1088 0.950 . S
H1083 C1089 0.950 . S
H1084 C1090 0.949 . S
C1085 H1080 0.950 . S
C1085 C1087 1.327 . S
C1085 C1091 1.429 . S
C1086 C1078 1.574 . S
C1086 H1081 0.949 . S
C1086 C1092 1.368 . S
C1087 C1071 1.349 . S
C1087 H1079 0.950 . S
C1087 C1085 1.327 . S
C1088 C1076 1.349 . S
C1088 H1082 0.950 . S
C1088 C1089 1.327 . S
C1089 H1083 0.950 . S
C1089 C1088 1.327 . S
C1089 C1093 1.429 . S
C1090 C1073 1.574 . S
C1090 H1084 0.949 . S
C1090 C1094 1.368 . S
C1091 C1072 1.429 . S
C1091 C1085 1.429 . S
C1091 C1092 1.523 . S
C1092 C1073 1.368 . S
C1092 C1086 1.368 . S
C1092 C1091 1.523 . S
C1093 C1077 1.429 . S
C1093 C1089 1.429 . S
C1093 C1094 1.523 . S
C1094 C1078 1.368 . S
C1094 C1090 1.368 . S
C1094 C1093 1.523 . S
H1095 C1070 0.950 . S
H1096 C1072 0.950 . S
H1097 C1073 0.949 . S
H1098 C1075 0.950 . S
H1099 C1077 0.950 . S
C1100 C1101 1.349 . S
C1100 C1102 1.327 . S
C1100 H1125 0.950 . S
C1101 C1100 1.349 . S
C1101 C1117 1.349 . S
C1102 C1100 1.327 . S
C1102 C1121 1.429 . S
C1102 H1126 0.950 . S
C1103 C1120 1.574 . S
C1103 C1122 1.368 . S
C1103 H1127 0.949 . S
H1104 C1108 0.949 . S
C1105 C1106 1.349 . S
C1105 C1107 1.327 . S
C1105 H1128 0.950 . S
C1106 C1105 1.349 . S
C1106 C1118 1.349 . S
C1107 C1105 1.327 . S
C1107 C1123 1.429 . S
C1107 H1129 0.950 . S
C1108 H1104 0.949 . S
C1108 C1116 1.574 . S
C1108 C1124 1.368 . S
H1109 C1117 0.950 . S
H1110 C1115 0.950 . S
H1111 C1116 0.949 . S
H1112 C1118 0.950 . S
H1113 C1119 0.950 . S
H1114 C1120 0.949 . S
C1115 H1110 0.950 . S
C1115 C1117 1.327 . S
C1115 C1121 1.429 . S
C1116 C1108 1.574 . S
C1116 H1111 0.949 . S
C1116 C1122 1.368 . S
C1117 C1101 1.349 . S
C1117 H1109 0.950 . S
C1117 C1115 1.327 . S
C1118 C1106 1.349 . S
C1118 H1112 0.950 . S
C1118 C1119 1.327 . S
C1119 H1113 0.950 . S
C1119 C1118 1.327 . S
C1119 C1123 1.429 . S
C1120 C1103 1.574 . S
C1120 H1114 0.949 . S
C1120 C1124 1.368 . S
C1121 C1102 1.429 . S
C1121 C1115 1.429 . S
C1121 C1122 1.523 . S
C1122 C1103 1.368 . S
C1122 C1116 1.368 . S
C1122 C1121 1.523 . S
C1123 C1107 1.429 . S
C1123 C1119 1.429 . S
C1123 C1124 1.523 . S
C1124 C1108 1.368 . S
C1124 C1120 1.368 . S
C1124 C1123 1.523 . S
H1125 C1100 0.950 . S
H1126 C1102 0.950 . S
H1127 C1103 0.949 . S
H1128 C1105 0.950 . S
H1129 C1107 0.950 . S
C1130 C1131 1.349 . S
C1130 C1132 1.327 . S
C1130 H1155 0.950 . S
C1131 C1130 1.349 . S
C1131 C1147 1.349 . S
C1132 C1130 1.327 . S
C1132 C1151 1.429 . S
C1132 H1156 0.950 . S
C1133 C1150 1.574 . S
C1133 C1152 1.368 . S
C1133 H1157 0.949 . S
H1134 C1138 0.949 . S
C1135 C1136 1.349 . S
C1135 C1137 1.327 . S
C1135 H1158 0.950 . S
C1136 C1135 1.349 . S
C1136 C1148 1.349 . S
C1137 C1135 1.327 . S
C1137 C1153 1.429 . S
C1137 H1159 0.950 . S
C1138 H1134 0.949 . S
C1138 C1146 1.574 . S
C1138 C1154 1.368 . S
H1139 C1147 0.950 . S
H1140 C1145 0.950 . S
H1141 C1146 0.949 . S
H1142 C1148 0.950 . S
H1143 C1149 0.950 . S
H1144 C1150 0.949 . S
C1145 H1140 0.950 . S
C1145 C1147 1.327 . S
C1145 C1151 1.429 . S
C1146 C1138 1.574 . S
C1146 H1141 0.949 . S
C1146 C1152 1.368 . S
C1147 C1131 1.349 . S
C1147 H1139 0.950 . S
C1147 C1145 1.327 . S
C1148 C1136 1.349 . S
C1148 H1142 0.950 . S
C1148 C1149 1.327 . S
C1149 H1143 0.950 . S
C1149 C1148 1.327 . S
C1149 C1153 1.429 . S
C1150 C1133 1.574 . S
C1150 H1144 0.949 . S
C1150 C1154 1.368 . S
C1151 C1132 1.429 . S
C1151 C1145 1.429 . S
C1151 C1152 1.523 . S
C1152 C1133 1.368 . S
C1152 C1146 1.368 . S
C1152 C1151 1.523 . S
C1153 C1137 1.429 . S
C1153 C1149 1.429 . S
C1153 C1154 1.523 . S
C1154 C1138 1.368 . S
C1154 C1150 1.368 . S
C1154 C1153 1.523 . S
H1155 C1130 0.950 . S
H1156 C1132 0.950 . S
H1157 C1133 0.949 . S
H1158 C1135 0.950 . S
H1159 C1137 0.950 . S
C441 N83 1.659 . S
C446 C178 1.654 . S
C476 C262 1.654 . S
C471 N96 1.659 . S
C506 C255 1.669 . S
C501 N57 1.647 . S
C531 N70 1.647 . S
C536 C171 1.669 . S
C566 C335 1.654 . S
C561 N31 1.660 . S
C596 C419 1.654 . S
C591 N44 1.660 . S
C621 N5 1.649 . S
C626 C412 1.669 . S
C651 N18 1.649 . S
C656 C328 1.669 . S
C686 C162 1.468 . S
C681 N14 1.628 . S
C716 C246 1.468 . S
C711 N1 1.628 . S
C746 C257 1.419 . S
C741 N40 1.635 . S
C776 C173 1.419 . S
C771 N27 1.635 . S
C806 C341 1.468 . S
C801 N66 1.620 . S
C831 N53 1.620 . S
C836 C425 1.467 . S
C866 C414 1.419 . S
C861 N92 1.627 . S
C891 N79 1.627 . S
C896 C330 1.419 . S
C926 C160 1.568 . S
C921 N2 1.569 . S
C956 C244 1.568 . S
C951 N15 1.569 . S
C981 N28 1.565 . S
C986 C251 1.537 . S
C1016 C167 1.537 . S
C1011 N41 1.565 . S
C1046 C339 1.568 . S
C1041 N54 1.564 . S
C1071 N67 1.564 . S
C1076 C423 1.568 . S
C1101 N80 1.561 . S
C1106 C430 1.537 . S
C1131 N93 1.561 . S
C1136 C346 1.537 . S
