# Generated by pormake.
# Topology dag, (6,3)-cn, num edge types: 1
# Building blocks:
#     Node 0, Type 0, BuildingBlock: IZENUY_clean_sbu_0, # of connection points: 6
#     Node 1, Type 0, BuildingBlock: IZENUY_clean_sbu_0, # of connection points: 6
#     Node 2, Type 0, BuildingBlock: IZENUY_clean_sbu_0, # of connection points: 6
#     Node 3, Type 0, BuildingBlock: IZENUY_clean_sbu_0, # of connection points: 6
#     Node 4, Type 1, BuildingBlock: BETDIP_clean_linker_0, # of connection points: 3
#     Node 5, Type 1, BuildingBlock: BETDIP_clean_linker_0, # of connection points: 3
#     Node 6, Type 1, BuildingBlock: BETDIP_clean_linker_0, # of connection points: 3
#     Node 7, Type 1, BuildingBlock: BETDIP_clean_linker_0, # of connection points: 3
#     Node 8, Type 1, BuildingBlock: BETDIP_clean_linker_0, # of connection points: 3
#     Node 9, Type 1, BuildingBlock: BETDIP_clean_linker_0, # of connection points: 3
#     Node 10, Type 1, BuildingBlock: BETDIP_clean_linker_0, # of connection points: 3
#     Node 11, Type 1, BuildingBlock: BETDIP_clean_linker_0, # of connection points: 3
#     Edge 12, Type (0, 1), BuildingBlock: UVAHIK_clean_linker_0, # of connection points: 2
#     Edge 13, Type (0, 1), BuildingBlock: UVAHIK_clean_linker_0, # of connection points: 2
#     Edge 14, Type (0, 1), BuildingBlock: UVAHIK_clean_linker_0, # of connection points: 2
#     Edge 15, Type (0, 1), BuildingBlock: UVAHIK_clean_linker_0, # of connection points: 2
#     Edge 16, Type (0, 1), BuildingBlock: UVAHIK_clean_linker_0, # of connection points: 2
#     Edge 17, Type (0, 1), BuildingBlock: UVAHIK_clean_linker_0, # of connection points: 2
#     Edge 18, Type (0, 1), BuildingBlock: UVAHIK_clean_linker_0, # of connection points: 2
#     Edge 19, Type (0, 1), BuildingBlock: UVAHIK_clean_linker_0, # of connection points: 2
#     Edge 20, Type (0, 1), BuildingBlock: UVAHIK_clean_linker_0, # of connection points: 2
#     Edge 21, Type (0, 1), BuildingBlock: UVAHIK_clean_linker_0, # of connection points: 2
#     Edge 22, Type (0, 1), BuildingBlock: UVAHIK_clean_linker_0, # of connection points: 2
#     Edge 23, Type (0, 1), BuildingBlock: UVAHIK_clean_linker_0, # of connection points: 2
#     Edge 24, Type (0, 1), BuildingBlock: UVAHIK_clean_linker_0, # of connection points: 2
#     Edge 25, Type (0, 1), BuildingBlock: UVAHIK_clean_linker_0, # of connection points: 2
#     Edge 26, Type (0, 1), BuildingBlock: UVAHIK_clean_linker_0, # of connection points: 2
#     Edge 27, Type (0, 1), BuildingBlock: UVAHIK_clean_linker_0, # of connection points: 2
#     Edge 28, Type (0, 1), BuildingBlock: UVAHIK_clean_linker_0, # of connection points: 2
#     Edge 29, Type (0, 1), BuildingBlock: UVAHIK_clean_linker_0, # of connection points: 2
#     Edge 30, Type (0, 1), BuildingBlock: UVAHIK_clean_linker_0, # of connection points: 2
#     Edge 31, Type (0, 1), BuildingBlock: UVAHIK_clean_linker_0, # of connection points: 2
#     Edge 32, Type (0, 1), BuildingBlock: UVAHIK_clean_linker_0, # of connection points: 2
#     Edge 33, Type (0, 1), BuildingBlock: UVAHIK_clean_linker_0, # of connection points: 2
#     Edge 34, Type (0, 1), BuildingBlock: UVAHIK_clean_linker_0, # of connection points: 2
#     Edge 35, Type (0, 1), BuildingBlock: UVAHIK_clean_linker_0, # of connection points: 2
# Relax obj value: 0.092
# Max RMSD: 0.098
# Mean RMSD: 0.081
data_MOF--net-dag--node1-IZENUY_clean_sbu_0--node2-BETDIP_clean_linker_0--edge1-UVAHIK_clean_linker_0
_symmetry_space_group_name_H-M    P1
_symmetry_Int_Tables_number       1
_symmetry_cell_setting            triclinic
loop_
_symmetry_equiv_pos_as_xyz
'x, y, z'
_cell_length_a     51.957139
_cell_length_b     51.024758
_cell_length_c     46.127254
_cell_angle_alpha  86.003132
_cell_angle_beta   89.931925
_cell_angle_gamma 90.063849
loop_
_atom_site_label
_atom_site_type_symbol
_atom_site_fract_x
_atom_site_fract_y
_atom_site_fract_z
_atom_type_partial_charge
Fe0 Fe 0.17751 0.86208 0.98452 0.0
Fe1 Fe 0.12068 0.87119 0.99852 0.0
O2 O 0.14636 0.84944 0.99287 0.0
Fe3 Fe 0.14083 0.81507 0.9956 0.0
O4 O 0.17308 0.80663 0.0095 0.0
O5 O 0.1911 0.84465 0.01652 0.0
O6 O 0.17427 0.8907 0.00623 0.0
C7 C 0.15933 0.89493 0.02711 0.0
C8 C 0.17232 0.8201 0.94797 0.0
O9 O 0.1372 0.88473 0.0287 0.0
C10 C 0.09596 0.83549 0.96718 0.0
O11 O 0.16605 0.88035 0.95188 0.0
O12 O 0.13244 0.8973 0.97267 0.0
O13 O 0.1509 0.81228 0.95825 0.0
O14 O 0.18622 0.83574 0.96129 0.0
C15 C 0.11203 0.82959 0.0413 0.0
O16 O 0.10259 0.85911 0.96875 0.0
O17 O 0.10748 0.81727 0.98208 0.0
C18 C 0.14752 0.8963 0.95124 0.0
O19 O 0.10402 0.84896 0.02522 0.0
O20 O 0.1304 0.81564 0.03326 0.0
C21 C 0.18968 0.82012 0.02198 0.0
Fe22 Fe 0.68397 0.63288 0.55572 0.0
Fe23 Fe 0.64702 0.67931 0.5426 0.0
O24 O 0.65325 0.64505 0.54481 0.0
Fe25 Fe 0.62871 0.62289 0.53622 0.0
O26 O 0.62964 0.60686 0.57243 0.0
O27 O 0.67164 0.60226 0.57427 0.0
O28 O 0.68132 0.64726 0.59022 0.0
C29 C 0.67731 0.67119 0.59353 0.0
C30 C 0.67346 0.60078 0.5125 0.0
O31 O 0.66846 0.68627 0.57291 0.0
C32 C 0.62136 0.66164 0.49326 0.0
O33 O 0.70183 0.66136 0.53928 0.0
O34 O 0.67229 0.68532 0.51595 0.0
O35 O 0.65059 0.59876 0.52188 0.0
O36 O 0.68871 0.6174 0.52195 0.0
C37 C 0.60209 0.66055 0.56688 0.0
O38 O 0.62448 0.67848 0.51191 0.0
O39 O 0.62623 0.6377 0.49954 0.0
C40 C 0.69547 0.67857 0.51945 0.0
O41 O 0.62115 0.67559 0.56909 0.0
O42 O 0.60229 0.64281 0.54905 0.0
C43 C 0.64942 0.59673 0.58431 0.0
Fe44 Fe 0.85504 0.1817 0.0332 0.0
Fe45 Fe 0.87221 0.12452 0.0321 0.0
O46 O 0.84858 0.14775 0.04029 0.0
Fe47 Fe 0.81857 0.13718 0.05532 0.0
O48 O 0.79999 0.16406 0.03647 0.0
O49 O 0.82848 0.18502 0.0081 0.0
O50 O 0.87595 0.17759 0.00148 0.0
C51 C 0.87689 0.15901 0.98466 0.0
C52 C 0.82793 0.17969 0.08654 0.0
O53 O 0.87188 0.13581 0.99407 0.0
C54 C 0.85489 0.10282 0.08432 0.0
O55 O 0.88209 0.18017 0.05796 0.0
O56 O 0.89968 0.14571 0.03994 0.0
O57 O 0.82357 0.1554 0.08705 0.0
O58 O 0.83539 0.19226 0.06341 0.0
C59 C 0.82579 0.10063 0.01553 0.0
O60 O 0.87382 0.11165 0.06953 0.0
O61 O 0.83198 0.10847 0.07667 0.0
C62 C 0.90114 0.16523 0.05543 0.0
O63 O 0.84924 0.09916 0.02284 0.0
O64 O 0.81136 0.11805 0.0247 0.0
C65 C 0.8055 0.17869 0.01392 0.0
Fe66 Fe 0.37055 0.37923 0.49501 0.0
Fe67 Fe 0.31643 0.36263 0.47721 0.0
O68 O 0.34799 0.35419 0.48924 0.0
Fe69 Fe 0.357 0.32077 0.49564 0.0
O70 O 0.3789 0.32647 0.52596 0.0
O71 O 0.3736 0.36827 0.53296 0.0
O72 O 0.34662 0.40277 0.50644 0.0
C73 C 0.32412 0.39934 0.51656 0.0
C74 C 0.40083 0.34048 0.46991 0.0
O75 O 0.31016 0.38085 0.50886 0.0
C76 C 0.32703 0.32139 0.44432 0.0
O77 O 0.36867 0.39178 0.45741 0.0
O78 O 0.32642 0.39252 0.45539 0.0
O79 O 0.38281 0.32401 0.46923 0.0
O80 O 0.39879 0.36033 0.48476 0.0
C81 C 0.30837 0.31957 0.51843 0.0
O82 O 0.32057 0.34515 0.44479 0.0
O83 O 0.33675 0.30911 0.4665 0.0
C84 C 0.34817 0.39948 0.44495 0.0
O85 O 0.30076 0.33425 0.49684 0.0
O86 O 0.33198 0.31522 0.52253 0.0
C87 C 0.37984 0.34539 0.54234 0.0
H88 H 0.16519 0.20012 0.18541 0.0
H89 H 0.21779 0.13464 0.18762 0.0
H90 H 0.14002 0.12515 0.15931 0.0
H91 H 0.24659 0.16146 0.20201 0.0
C92 C 0.23797 0.17969 0.20784 0.0
C93 C 0.16923 0.17976 0.18182 0.0
C94 C 0.14962 0.16363 0.17219 0.0
C95 C 0.1939 0.16962 0.1877 0.0
C96 C 0.19905 0.14306 0.18314 0.0
C97 C 0.17961 0.12686 0.17304 0.0
C98 C 0.15498 0.13732 0.1678 0.0
N99 N 0.21241 0.18653 0.19935 0.0
H100 H 0.26922 0.64542 0.66569 0.0
H101 H 0.33563 0.69267 0.68208 0.0
H102 H 0.34246 0.62749 0.62856 0.0
H103 H 0.30602 0.72344 0.69003 0.0
C104 C 0.29032 0.71236 0.70052 0.0
C105 C 0.28944 0.64991 0.66227 0.0
C106 C 0.30456 0.63405 0.6454 0.0
C107 C 0.30019 0.6717 0.67467 0.0
C108 C 0.3267 0.67697 0.67112 0.0
C109 C 0.34217 0.66095 0.6547 0.0
C110 C 0.33075 0.63991 0.64142 0.0
N111 N 0.28416 0.68687 0.69202 0.0
H112 H 0.93858 0.81123 0.30236 0.0
H113 H 0.88311 0.87343 0.30701 0.0
H114 H 0.94689 0.88311 0.2483 0.0
H115 H 0.88027 0.85494 0.35471 0.0
C116 C 0.8797 0.83426 0.35048 0.0
C117 C 0.93207 0.83085 0.29545 0.0
C118 C 0.94586 0.84608 0.27411 0.0
C119 C 0.90993 0.84081 0.30815 0.0
C120 C 0.90091 0.86596 0.29859 0.0
C121 C 0.91446 0.88125 0.27728 0.0
C122 C 0.93702 0.87144 0.26545 0.0
N123 N 0.89635 0.82455 0.32926 0.0
H124 H 0.55538 0.30935 0.80048 0.0
H125 H 0.61709 0.36554 0.80275 0.0
H126 H 0.54847 0.38505 0.75422 0.0
H127 H 0.64012 0.32662 0.80189 0.0
C128 C 0.62991 0.31493 0.81884 0.0
C129 C 0.56311 0.32872 0.79453 0.0
C130 C 0.54864 0.34687 0.77711 0.0
C131 C 0.58798 0.33515 0.80344 0.0
C132 C 0.59816 0.3602 0.79536 0.0
C133 C 0.58396 0.37848 0.77775 0.0
C134 C 0.55916 0.37163 0.76895 0.0
N135 N 0.6026 0.31598 0.82004 0.0
H136 H 0.67021 0.29639 0.35969 0.0
H137 H 0.73109 0.35241 0.36966 0.0
H138 H 0.65977 0.35977 0.41528 0.0
H139 H 0.74255 0.341 0.32594 0.0
C140 C 0.73765 0.3204 0.32497 0.0
C141 C 0.67764 0.31351 0.36958 0.0
C142 C 0.66226 0.32662 0.38897 0.0
C143 C 0.70235 0.32277 0.36215 0.0
C144 C 0.71189 0.34521 0.37467 0.0
C145 C 0.69667 0.35857 0.39399 0.0
C146 C 0.67201 0.34895 0.40128 0.0
N147 N 0.71679 0.30932 0.34164 0.0
H148 H 0.06377 0.18795 0.73719 0.0
H149 H 0.12182 0.12794 0.73493 0.0
H150 H 0.05112 0.11202 0.78114 0.0
H151 H 0.14766 0.16476 0.73531 0.0
C152 C 0.13801 0.17739 0.71878 0.0
C153 C 0.07019 0.16807 0.74295 0.0
C154 C 0.05421 0.15054 0.75941 0.0
C155 C 0.09477 0.16023 0.73448 0.0
C156 C 0.10318 0.13441 0.74209 0.0
C157 C 0.08747 0.11674 0.75875 0.0
C158 C 0.06299 0.12503 0.76716 0.0
N159 N 0.1107 0.17859 0.71831 0.0
H160 H 0.43403 0.69901 0.24504 0.0
H161 H 0.37695 0.63849 0.23751 0.0
H162 H 0.42856 0.63463 0.31009 0.0
H163 H 0.37952 0.65229 0.18948 0.0
C164 C 0.37994 0.67343 0.19108 0.0
C165 C 0.42519 0.68071 0.25323 0.0
C166 C 0.43361 0.66814 0.27954 0.0
C167 C 0.40499 0.67006 0.23766 0.0
C168 C 0.39317 0.64652 0.24863 0.0
C169 C 0.40146 0.6338 0.2749 0.0
C170 C 0.4217 0.64471 0.29011 0.0
N171 N 0.3958 0.68436 0.21223 0.0
H172 H 0.7621 0.85053 0.87766 0.0
H173 H 0.82591 0.79923 0.86322 0.0
H174 H 0.83712 0.86782 0.91063 0.0
H175 H 0.79284 0.76875 0.86129 0.0
C176 C 0.77924 0.78048 0.84806 0.0
C177 C 0.7822 0.8454 0.88076 0.0
C178 C 0.7984 0.8616 0.89597 0.0
C179 C 0.79172 0.82243 0.86973 0.0
C180 C 0.81801 0.81614 0.87301 0.0
C181 C 0.83456 0.83266 0.88743 0.0
C182 C 0.82447 0.85504 0.89932 0.0
N183 N 0.7748 0.8071 0.85367 0.0
C184 C 0.14988 0.92127 0.06987 0.0
C185 C 0.16681 0.91452 0.0478 0.0
C186 C 0.1563 0.94115 0.08795 0.0
C187 C 0.19527 0.00092 0.08733 0.0
H188 H 0.17684 -0.00076 0.16891 0.0
C189 C 0.20679 0.09296 0.15068 0.0
C190 C 0.18487 0.09926 0.16664 0.0
C191 C 0.20956 0.06787 0.14066 0.0
C192 C 0.18208 2e-05 0.14614 0.0
H193 H 0.20436 0.92254 0.02842 0.0
H194 H 0.2155 0.95715 0.05997 0.0
H195 H 0.17189 0.95966 0.1425 0.0
H196 H 0.14977 0.08369 0.18665 0.0
H197 H 0.15421 0.04027 0.16864 0.0
H198 H 0.20447 0.04141 0.09046 0.0
C199 C 0.19711 0.9473 0.063 0.0
C200 C 0.17923 0.97736 0.13104 0.0
C201 C 0.19073 0.92741 0.04497 0.0
C202 C 0.16667 0.07951 0.17399 0.0
C203 C 0.16939 0.0545 0.16394 0.0
C204 C 0.19802 0.02355 0.10236 0.0
C205 C 0.17978 0.95472 0.08434 0.0
C206 C 0.18532 0.97773 0.10132 0.0
C207 C 0.19045 0.04862 0.14639 0.0
C208 C 0.19095 0.02355 0.13179 0.0
H209 H 0.13135 0.91165 0.07275 0.0
H210 H 0.14243 0.94658 0.10401 0.0
H211 H 0.19981 0.00196 0.06435 0.0
H212 H 0.22113 0.10778 0.14465 0.0
H213 H 0.22623 0.06382 0.12759 0.0
C214 C 0.56202 0.64314 0.59057 0.0
C215 C 0.57825 0.66464 0.58337 0.0
C216 C 0.53857 0.64668 0.60445 0.0
C217 C 0.48726 0.69328 0.60931 0.0
H218 H 0.46397 0.64548 0.67303 0.0
C219 C 0.3809 0.69057 0.6476 0.0
C220 C 0.37045 0.6652 0.65241 0.0
C221 C 0.40751 0.69411 0.64422 0.0
C222 C 0.47011 0.65894 0.65517 0.0
H223 H 0.58297 0.70667 0.58547 0.0
H224 H 0.54122 0.71302 0.60917 0.0
H225 H 0.50897 0.64504 0.658 0.0
H226 H 0.37987 0.6238 0.65882 0.0
H227 H 0.4258 0.62979 0.65199 0.0
H228 H 0.44814 0.7061 0.60522 0.0
C229 C 0.54697 0.69341 0.60428 0.0
C230 C 0.49591 0.65878 0.64672 0.0
C231 C 0.57081 0.68977 0.59087 0.0
C232 C 0.38722 0.64358 0.6546 0.0
C233 C 0.41368 0.64708 0.65115 0.0
C234 C 0.46132 0.69324 0.61754 0.0
C235 C 0.53062 0.67188 0.61103 0.0
C236 C 0.50456 0.6754 0.62319 0.0
C237 C 0.4242 0.67234 0.64569 0.0
C238 C 0.45228 0.67546 0.63998 0.0
H239 H 0.56737 0.62353 0.5852 0.0
H240 H 0.52623 0.62979 0.60914 0.0
H241 H 0.49343 0.70616 0.59095 0.0
H242 H 0.36847 0.70763 0.64576 0.0
H243 H 0.41498 0.71385 0.64028 0.0
C244 C 0.88346 0.07042 0.11172 0.0
C245 C 0.8596 0.08326 0.109 0.0
C246 C 0.88773 0.05105 0.13406 0.0
C247 C 0.85301 0.00531 0.18676 0.0
H248 H 0.92205 0.9938 0.21662 0.0
C249 C 0.91611 0.93019 0.27123 0.0
C250 C 0.90413 0.90658 0.2652 0.0
C251 C 0.90834 0.95388 0.25682 0.0
C252 C 0.90249 0.99689 0.20908 0.0
H253 H 0.82173 0.0864 0.12819 0.0
H254 H 0.82946 0.05319 0.16792 0.0
H255 H 0.91325 0.03193 0.18398 0.0
H256 H 0.87466 0.88879 0.24 0.0
H257 H 0.86168 0.9298 0.21384 0.0
H258 H 0.84208 0.97072 0.2127 0.0
C259 C 0.84467 0.05754 0.15226 0.0
C260 C 0.89754 0.01862 0.1898 0.0
C261 C 0.84026 0.0767 0.12958 0.0
C262 C 0.88389 0.90694 0.24517 0.0
C263 C 0.87641 0.93052 0.23034 0.0
C264 C 0.85787 0.98378 0.20645 0.0
C265 C 0.86841 0.04426 0.15466 0.0
C266 C 0.8729 0.02276 0.17772 0.0
C267 C 0.88885 0.9543 0.23555 0.0
C268 C 0.88284 0.97888 0.21734 0.0
H269 H 0.89873 0.07482 0.09612 0.0
H270 H 0.90605 0.04094 0.13464 0.0
H271 H 0.8338 0.00766 0.17788 0.0
H272 H 0.93184 0.9302 0.28664 0.0
H273 H 0.91802 0.97177 0.26196 0.0
C274 C 0.40594 0.31925 0.57984 0.0
C275 C 0.39082 0.3414 0.57187 0.0
C276 C 0.41793 0.31675 0.60704 0.0
C277 C 0.44065 0.35852 0.66377 0.0
H278 H 0.45455 0.29204 0.70681 0.0
C279 C 0.50281 0.35699 0.76482 0.0
C280 C 0.52371 0.33962 0.7644 0.0
C281 C 0.48161 0.35387 0.74686 0.0
C282 C 0.45074 0.31073 0.69503 0.0
H283 H 0.37493 0.37737 0.58683 0.0
H284 H 0.39522 0.3727 0.63439 0.0
H285 H 0.42658 0.29321 0.66405 0.0
H286 H 0.53804 0.30419 0.7468 0.0
H287 H 0.50107 0.29883 0.71506 0.0
H288 H 0.46514 0.37603 0.69404 0.0
C289 C 0.39856 0.35766 0.61938 0.0
C290 C 0.43482 0.31141 0.6705 0.0
C291 C 0.38687 0.3603 0.59214 0.0
C292 C 0.52207 0.31775 0.74763 0.0
C293 C 0.50088 0.31471 0.72946 0.0
C294 C 0.45637 0.35786 0.68824 0.0
C295 C 0.41479 0.33621 0.62691 0.0
C296 C 0.42987 0.33531 0.65436 0.0
C297 C 0.48102 0.33346 0.72791 0.0
C298 C 0.46189 0.33395 0.70398 0.0
H299 H 0.4093 0.30432 0.5647 0.0
H300 H 0.43047 0.3001 0.61198 0.0
H301 H 0.43781 0.3772 0.65156 0.0
H302 H 0.50357 0.37388 0.77781 0.0
H303 H 0.46632 0.3683 0.74663 0.0
C304 C 0.70932 0.57356 0.49402 0.0
C305 C 0.68317 0.58065 0.49378 0.0
C306 C 0.71761 0.55197 0.47937 0.0
C307 C 0.69906 0.50708 0.42352 0.0
H308 H 0.73401 0.45337 0.4724 0.0
C309 C 0.7014 0.38925 0.43375 0.0
C310 C 0.7053 0.38387 0.40463 0.0
C311 C 0.70591 0.4144 0.44278 0.0
C312 C 0.72449 0.46828 0.4584 0.0
H313 H 0.64555 0.57184 0.47662 0.0
H314 H 0.66005 0.53453 0.4508 0.0
H315 H 0.72784 0.49713 0.48978 0.0
H316 H 0.71811 0.40022 0.36241 0.0
H317 H 0.72598 0.44425 0.37822 0.0
H318 H 0.69459 0.47797 0.39273 0.0
C319 C 0.67412 0.54548 0.46237 0.0
C320 C 0.72116 0.49336 0.46822 0.0
C321 C 0.66579 0.56673 0.47732 0.0
C322 C 0.71509 0.40377 0.38504 0.0
C323 C 0.7194 0.429 0.39402 0.0
C324 C 0.70259 0.4821 0.4136 0.0
C325 C 0.69998 0.53748 0.46382 0.0
C326 C 0.70767 0.51272 0.45125 0.0
C327 C 0.71422 0.43473 0.4228 0.0
C328 C 0.71463 0.46221 0.43132 0.0
H329 H 0.72314 0.5839 0.50659 0.0
H330 H 0.73767 0.54624 0.48071 0.0
H331 H 0.68874 0.52171 0.40994 0.0
H332 H 0.69403 0.3742 0.44933 0.0
H333 H 0.70153 0.41826 0.46505 0.0
C334 C 0.88343 0.14512 0.93437 0.0
C335 C 0.88773 0.16352 0.9551 0.0
C336 C 0.89594 0.14756 0.90753 0.0
C337 C 0.93702 0.19194 0.85894 0.0
H338 H 0.96499 0.12572 0.83711 0.0
C339 C 0.02798 0.18069 0.7881 0.0
C340 C 0.02923 0.15894 0.7711 0.0
C341 C 0.00611 0.18484 0.80492 0.0
C342 C 0.95693 0.14436 0.84241 0.0
H343 H 0.90749 0.19967 0.96345 0.0
H344 H 0.93008 0.20348 0.91696 0.0
H345 H 0.93528 0.12603 0.87746 0.0
H346 H 0.0079 0.12611 0.75591 0.0
H347 H 0.96954 0.13361 0.78476 0.0
H348 H 0.9599 0.21022 0.82437 0.0
C349 C 0.91665 0.18741 0.92114 0.0
C350 C 0.93981 0.14456 0.86565 0.0
C351 C 0.90381 0.18516 0.94789 0.0
C352 C 0.00747 0.14284 0.76913 0.0
C353 C 0.98561 0.14707 0.78575 0.0
C354 C 0.95437 0.19175 0.83566 0.0
C355 C 0.91339 0.16823 0.90095 0.0
C356 C 0.92982 0.16833 0.87447 0.0
C357 C 0.98516 0.16734 0.80488 0.0
C358 C 0.9647 0.16794 0.82736 0.0
H359 H 0.87079 0.12846 0.93912 0.0
H360 H 0.89244 0.1328 0.89222 0.0
H361 H 0.92948 0.21058 0.86494 0.0
H362 H 0.04459 0.19328 0.7901 0.0
H363 H 0.00642 0.20057 0.81952 0.0
C364 C 0.37359 0.42828 0.40917 0.0
C365 C 0.34961 0.41982 0.42046 0.0
C366 C 0.37515 0.44919 0.38803 0.0
C367 C 0.33997 0.50855 0.36316 0.0
H368 H 0.39207 0.51308 0.30273 0.0
C369 C 0.38532 0.588 0.26942 0.0
C370 C 0.38913 0.60917 0.28687 0.0
C371 C 0.37618 0.56389 0.28168 0.0
C372 C 0.37712 0.51201 0.31916 0.0
H373 H 0.30833 0.42587 0.41722 0.0
H374 H 0.3111 0.46236 0.38025 0.0
H375 H 0.38445 0.47128 0.33048 0.0
H376 H 0.38504 0.62226 0.33033 0.0
H377 H 0.36924 0.58032 0.35172 0.0
H378 H 0.333 0.54939 0.35226 0.0
C379 C 0.32871 0.45299 0.38807 0.0
C380 C 0.37296 0.48815 0.33527 0.0
C381 C 0.32714 0.43201 0.40918 0.0
C382 C 0.38253 0.60617 0.31645 0.0
C383 C 0.37323 0.58222 0.32862 0.0
C384 C 0.34418 0.53241 0.34713 0.0
C385 C 0.35276 0.46214 0.37768 0.0
C386 C 0.35479 0.48632 0.35793 0.0
C387 C 0.3704 0.56066 0.31152 0.0
C388 C 0.36326 0.53457 0.32547 0.0
H389 H 0.39128 0.41926 0.41723 0.0
H390 H 0.394 0.45592 0.38073 0.0
H391 H 0.32595 0.50788 0.38059 0.0
H392 H 0.39034 0.58979 0.24657 0.0
H393 H 0.374 0.54767 0.26794 0.0
C394 C 0.0608 0.80452 0.95442 0.0
C395 C 0.07202 0.82967 0.95145 0.0
C396 C 0.03673 0.79993 0.94218 0.0
C397 C 0.98835 0.82836 0.88964 0.0
H398 H 0.93891 0.79366 0.94244 0.0
C399 C 0.88008 0.84812 0.88243 0.0
C400 C 0.86262 0.82752 0.88901 0.0
C401 C 0.90649 0.84405 0.88548 0.0
C402 C 0.95254 0.80291 0.92716 0.0
H403 H 0.06736 0.86932 0.9319 0.0
H404 H 0.02546 0.86139 0.91088 0.0
H405 H 0.98426 0.7942 0.95573 0.0
H406 H 0.85911 0.78627 0.90306 0.0
H407 H 0.90558 0.77908 0.90852 0.0
H408 H 0.95643 0.83793 0.86159 0.0
C409 C 0.03525 0.84514 0.9225 0.0
C410 C 0.97857 0.80322 0.93477 0.0
C411 C 0.05923 0.84975 0.93478 0.0
C412 C 0.87217 0.80248 0.89785 0.0
C413 C 0.8987 0.79843 0.90112 0.0
C414 C 0.96234 0.82808 0.88206 0.0
C415 C 0.02347 0.82034 0.92656 0.0
C416 C 0.99665 0.8166 0.91647 0.0
C417 C 0.91611 0.81927 0.89526 0.0
C418 C 0.94405 0.816 0.90112 0.0
H419 H 0.0702 0.78856 0.96698 0.0
H420 H 0.0283 0.78053 0.94538 0.0
H421 H 0.00188 0.8384 0.87482 0.0
H422 H 0.87327 0.86755 0.87518 0.0
H423 H 0.91932 0.8606 0.88112 0.0
C424 C 0.78855 0.07356 -0.0 0.0
C425 C 0.81487 0.07996 0.99835 0.0
C426 C 0.77894 0.05238 0.98558 0.0
C427 C 0.79334 0.00856 0.92743 0.0
H428 H 0.7603 0.95404 0.97721 0.0
C429 C 0.77696 0.90542 0.88856 0.0
C430 C 0.78882 0.88618 0.90724 0.0
C431 C 0.77198 0.93038 0.89801 0.0
C432 C 0.76916 0.96924 0.96294 0.0
H433 H 0.85144 0.07022 0.97916 0.0
H434 H 0.83464 0.03358 0.95377 0.0
H435 H 0.76775 0.99735 0.99529 0.0
H436 H 0.80309 0.87704 0.95084 0.0
H437 H 0.79422 0.92046 0.9675 0.0
H438 H 0.79601 0.98012 0.89563 0.0
C439 C 0.82146 0.04479 0.96627 0.0
C440 C 0.77327 0.99403 0.9732 0.0
C441 C 0.83112 0.0656 0.98101 0.0
C442 C 0.79403 0.89165 0.93604 0.0
C443 C 0.78876 0.91641 0.9456 0.0
C444 C 0.789 0.98388 0.91707 0.0
C445 C 0.7954 0.03766 0.96882 0.0
C446 C 0.78629 0.01357 0.95592 0.0
C447 C 0.77846 0.93629 0.92642 0.0
C448 C 0.77776 0.96368 0.93513 0.0
H449 H 0.77558 0.08431 0.01322 0.0
H450 H 0.75876 0.04726 0.98785 0.0
H451 H 0.80325 0.02338 0.91363 0.0
H452 H 0.7729 0.90165 0.86619 0.0
H453 H 0.76395 0.94534 0.88284 0.0
C454 C 0.44352 0.35556 0.45017 0.0
C455 C 0.42579 0.33508 0.45614 0.0
C456 C 0.46777 0.35041 0.43883 0.0
C457 C 0.51637 0.29973 0.43887 0.0
H458 H 0.54681 0.34443 0.3765 0.0
C459 C 0.61826 0.31604 0.37113 0.0
C460 C 0.63514 0.31879 0.39449 0.0
C461 C 0.59184 0.31299 0.37606 0.0
C462 C 0.53848 0.33152 0.39365 0.0
H463 H 0.4194 0.29318 0.45445 0.0
H464 H 0.46219 0.28414 0.43516 0.0
H465 H 0.50146 0.34977 0.38884 0.0
H466 H 0.63802 0.31887 0.44132 0.0
H467 H 0.59186 0.31316 0.45 0.0
H468 H 0.55372 0.28224 0.44447 0.0
C469 C 0.45712 0.30417 0.43913 0.0
C470 C 0.51261 0.33473 0.40085 0.0
C471 C 0.43265 0.30938 0.45002 0.0
C472 C 0.62536 0.31686 0.42295 0.0
C473 C 0.59901 0.31345 0.4279 0.0
C474 C 0.54237 0.29677 0.43194 0.0
C475 C 0.47494 0.32463 0.43361 0.0
C476 C 0.50144 0.31918 0.42384 0.0
C477 C 0.58191 0.31226 0.40445 0.0
C478 C 0.55376 0.31294 0.40957 0.0
H479 H 0.43874 0.37557 0.45452 0.0
H480 H 0.48123 0.36652 0.435 0.0
H481 H 0.50824 0.2876 0.45681 0.0
H482 H 0.6253 0.31767 0.34896 0.0
H483 H 0.57906 0.31197 0.35762 0.0
C484 C 0.11838 0.92101 0.91688 0.0
C485 C 0.14356 0.91503 0.92593 0.0
C486 C 0.11384 0.94004 0.89435 0.0
C487 C 0.14555 0.98299 0.83559 0.0
H488 H 0.08456 0.02511 0.84595 0.0
C489 C 0.12224 0.08704 0.78014 0.0
C490 C 0.09699 0.09032 0.76944 0.0
C491 C 0.12975 0.06328 0.79466 0.0
C492 C 0.10152 0.01333 0.84262 0.0
H493 H 0.18389 0.92354 0.91816 0.0
H494 H 0.17602 0.95809 0.87963 0.0
H495 H 0.09421 0.98886 0.88097 0.0
H496 H 0.06069 0.0704 0.76323 0.0
H497 H 0.0736 0.02933 0.78939 0.0
H498 H 0.15327 0.00897 0.79782 0.0
C499 C 0.15971 0.94754 0.88932 0.0
C500 C 0.10703 0.99238 0.86259 0.0
C501 C 0.16428 0.92787 0.91148 0.0
C502 C 0.08006 0.06876 0.77183 0.0
C503 C 0.08746 0.0452 0.78662 0.0
C504 C 0.14024 0.00442 0.81582 0.0
C505 C 0.13435 0.95423 0.88086 0.0
C506 C 0.12896 0.97668 0.85927 0.0
C507 C 0.11208 0.04255 0.79893 0.0
C508 C 0.11802 0.01957 0.81909 0.0
H509 H 0.1021 0.91097 0.92736 0.0
H510 H 0.09411 0.94384 0.88783 0.0
H511 H 0.16249 0.97127 0.83213 0.0
H512 H 0.13573 0.10327 0.77887 0.0
H513 H 0.1488 0.06169 0.80413 0.0
C514 C 0.60082 0.69558 0.45871 0.0
C515 C 0.6084 0.66939 0.46539 0.0
C516 C 0.58624 0.70232 0.43384 0.0
C517 C 0.56275 0.67714 0.3646 0.0
H518 H 0.50232 0.71873 0.3793 0.0
C519 C 0.45227 0.68054 0.32645 0.0
C520 C 0.45494 0.67894 0.29634 0.0
C521 C 0.47335 0.68674 0.34334 0.0
C522 C 0.51918 0.70725 0.37475 0.0
H523 H 0.60778 0.63005 0.45026 0.0
H524 H 0.58205 0.64168 0.40738 0.0
H525 H 0.53637 0.71448 0.41548 0.0
H526 H 0.48127 0.68403 0.25996 0.0
H527 H 0.51839 0.69503 0.28961 0.0
H528 H 0.5447 0.66847 0.32473 0.0
C529 C 0.58757 0.65712 0.4211 0.0
C530 C 0.53886 0.70502 0.39537 0.0
C531 C 0.60216 0.65039 0.44589 0.0
C532 C 0.47875 0.68518 0.28315 0.0
C533 C 0.49998 0.69126 0.30013 0.0
C534 C 0.54302 0.67932 0.34401 0.0
C535 C 0.57894 0.68305 0.4151 0.0
C536 C 0.56046 0.68918 0.391 0.0
C537 C 0.49763 0.69144 0.33052 0.0
C538 C 0.5206 0.69362 0.34935 0.0
H539 H 0.60553 0.71077 0.47308 0.0
H540 H 0.58022 0.72254 0.42962 0.0
H541 H 0.57935 0.66517 0.36034 0.0
H542 H 0.43404 0.67602 0.3371 0.0
H543 H 0.47087 0.68639 0.36668 0.0
C544 C 0.3303 0.43285 0.55253 0.0
C545 C 0.31355 0.41911 0.53516 0.0
C546 C 0.32118 0.45326 0.56826 0.0
C547 C 0.27414 0.50482 0.56393 0.0
H548 H 0.29813 0.51615 0.64167 0.0
C549 C 0.28162 0.59087 0.65154 0.0
C550 C 0.2938 0.61029 0.63328 0.0
C551 C 0.2757 0.56642 0.64128 0.0
C552 C 0.29077 0.51314 0.62019 0.0
H553 H 0.27397 0.41536 0.5212 0.0
H554 H 0.25806 0.45187 0.54828 0.0
H555 H 0.30387 0.47326 0.62224 0.0
H556 H 0.30761 0.62028 0.5896 0.0
H557 H 0.29712 0.57773 0.57156 0.0
H558 H 0.2624 0.54519 0.56127 0.0
C559 C 0.2782 0.4465 0.54986 0.0
C560 C 0.29423 0.48865 0.60902 0.0
C561 C 0.28727 0.42563 0.5345 0.0
C562 C 0.29832 0.60555 0.6041 0.0
C563 C 0.29213 0.58127 0.59376 0.0
C564 C 0.27093 0.52944 0.57499 0.0
C565 C 0.29517 0.46066 0.56663 0.0
C566 C 0.28673 0.48453 0.58046 0.0
C567 C 0.28156 0.56115 0.61249 0.0
C568 C 0.27998 0.53406 0.60289 0.0
H569 H 0.35062 0.4281 0.55356 0.0
H570 H 0.33475 0.46402 0.58074 0.0
H571 H 0.2683 0.5022 0.54178 0.0
H572 H 0.27807 0.59405 0.67418 0.0
H573 H 0.26746 0.55129 0.65613 0.0
C574 C 0.07196 0.83006 0.07079 0.0
C575 C 0.09769 0.82208 0.0683 0.0
C576 C 0.05835 0.82456 0.09651 0.0
C577 C 0.06652 0.81586 0.17417 0.0
H578 H 0.99451 0.79604 0.17169 0.0
C579 C 0.96713 0.80986 0.24879 0.0
C580 C 0.9683 0.83513 0.25905 0.0
C581 C 0.98637 0.80127 0.23047 0.0
C582 C 0.01471 0.80105 0.17307 0.0
H583 H 0.12929 0.80177 0.09072 0.0
H584 H 0.10539 0.79261 0.13642 0.0
H585 H 0.02132 0.79283 0.12882 0.0
H586 H 0.99159 0.87031 0.26018 0.0
H587 H 0.02487 0.85559 0.22788 0.0
H588 H 0.05959 0.82513 0.21813 0.0
C589 C 0.09585 0.80292 0.11814 0.0
C590 C 0.03001 0.79941 0.14838 0.0
C591 C 0.10944 0.80806 0.09204 0.0
C592 C 0.98999 0.85088 0.25227 0.0
C593 C 0.00922 0.84229 0.23402 0.0
C594 C 0.05115 0.81762 0.19891 0.0
C595 C 0.07017 0.81121 0.12056 0.0
C596 C 0.05579 0.80771 0.14835 0.0
C597 C 0.0072 0.81775 0.22209 0.0
C598 C 0.02484 0.81109 0.19829 0.0
H599 H 0.06231 0.84078 0.05286 0.0
H600 H 0.03873 0.83155 0.09784 0.0
H601 H 0.08633 0.82244 0.17472 0.0
H602 H 0.95064 0.79729 0.25356 0.0
H603 H 0.98441 0.78213 0.22191 0.0
C604 C 0.62258 0.57325 0.62305 0.0
C605 C 0.64638 0.57653 0.6087 0.0
C606 C 0.61942 0.55381 0.64562 0.0
C607 C 0.64421 0.48981 0.67193 0.0
H608 H 0.60588 0.50232 0.74182 0.0
C609 C 0.62109 0.40474 0.75611 0.0
C610 C 0.59555 0.40379 0.76626 0.0
C611 C 0.63076 0.42753 0.74137 0.0
C612 C 0.61651 0.49845 0.72237 0.0
H613 H 0.68566 0.56225 0.60718 0.0
H614 H 0.67994 0.52801 0.64642 0.0
H615 H 0.61593 0.53902 0.70681 0.0
H616 H 0.56081 0.42668 0.77075 0.0
H617 H 0.57727 0.46599 0.74424 0.0
H618 H 0.64388 0.44918 0.68659 0.0
C619 C 0.66379 0.54054 0.64012 0.0
C620 C 0.6223 0.51949 0.70237 0.0
C621 C 0.66705 0.56018 0.61773 0.0
C622 C 0.58042 0.42662 0.76278 0.0
C623 C 0.59001 0.44931 0.74786 0.0
C624 C 0.63822 0.46874 0.69176 0.0
C625 C 0.6399 0.53708 0.65418 0.0
C626 C 0.63584 0.5153 0.67673 0.0
C627 C 0.61508 0.44984 0.73628 0.0
C628 C 0.62391 0.47271 0.717 0.0
H629 H 0.60631 0.58562 0.61676 0.0
H630 H 0.6007 0.55142 0.65585 0.0
H631 H 0.65442 0.48594 0.65219 0.0
H632 H 0.63325 0.3875 0.75828 0.0
H633 H 0.65032 0.4274 0.73325 0.0
C634 C 0.92772 0.19078 0.08912 0.0
C635 C 0.92615 0.17199 0.06827 0.0
C636 C 0.95141 0.19672 0.1015 0.0
C637 C 0.02145 0.19251 0.08973 0.0
H638 H 0.02649 0.1886 0.1738 0.0
C639 C 0.10198 0.16006 0.17743 0.0
C640 C 0.12346 0.17391 0.16597 0.0
C641 C 0.07724 0.16697 0.16809 0.0
C642 C 0.02532 0.19004 0.1503 0.0
H643 H 0.94829 0.14501 0.04379 0.0
H644 H 0.98947 0.15543 0.06525 0.0
H645 H 0.98422 0.1866 0.15079 0.0
H646 H 0.13603 0.20669 0.13706 0.0
H647 H 0.09253 0.21877 0.12041 0.0
H648 H 0.06255 0.1947 0.08917 0.0
C649 C 0.97244 0.16568 0.07191 0.0
C650 C 0.00115 0.18905 0.13714 0.0
C651 C 0.94879 0.15954 0.0598 0.0
C652 C 0.11971 0.19578 0.14624 0.0
C653 C 0.0949 0.20255 0.13662 0.0
C654 C 0.04557 0.19369 0.10286 0.0
C655 C 0.974 0.18423 0.09296 0.0
C656 C 0.99907 0.18941 0.10675 0.0
C657 C 0.07349 0.18775 0.1469 0.0
C658 C 0.04782 0.19163 0.13329 0.0
H659 H 0.9106 0.20068 0.09615 0.0
H660 H 0.9521 0.21112 0.11766 0.0
H661 H 0.02035 0.19315 0.06624 0.0
H662 H 0.10443 0.14319 0.19279 0.0
H663 H 0.06119 0.15501 0.17621 0.0
C664 C 0.20968 0.77886 0.04399 0.0
C665 C 0.20922 0.80645 0.04085 0.0
C666 C 0.22838 0.76572 0.06108 0.0
C667 C 0.29276 0.77425 0.09296 0.0
H668 H 0.27415 0.71049 0.13892 0.0
C669 C 0.36223 0.71757 0.17362 0.0
C670 C 0.36218 0.69008 0.17289 0.0
C671 C 0.34412 0.73278 0.1576 0.0
C672 C 0.27968 0.72815 0.12601 0.0
H673 H 0.22791 0.8419 0.05366 0.0
H674 H 0.2604 0.81887 0.08396 0.0
H675 H 0.24103 0.73552 0.11197 0.0
H676 H 0.34374 0.65697 0.15455 0.0
H677 H 0.31207 0.6835 0.12659 0.0
H678 H 0.33148 0.76681 0.10731 0.0
C679 C 0.2465 0.80743 0.07274 0.0
C680 C 0.26071 0.7425 0.11054 0.0
C681 C 0.22779 0.82062 0.0555 0.0
C682 C 0.34411 0.67813 0.1555 0.0
C683 C 0.32591 0.69328 0.13968 0.0
C684 C 0.31175 0.75995 0.10862 0.0
C685 C 0.24703 0.7798 0.07567 0.0
C686 C 0.26706 0.76553 0.09351 0.0
C687 C 0.32554 0.72074 0.14081 0.0
C688 C 0.30543 0.73657 0.125 0.0
H689 H 0.19576 0.76728 0.03295 0.0
H690 H 0.22847 0.74444 0.06242 0.0
H691 H 0.29837 0.79174 0.07981 0.0
H692 H 0.37597 0.72733 0.18684 0.0
H693 H 0.3442 0.75388 0.15898 0.0
C694 C 0.69741 0.66575 0.64283 0.0
C695 C 0.68535 0.68204 0.62105 0.0
C696 C 0.70587 0.67595 0.66842 0.0
C697 C 0.69756 0.73086 0.71506 0.0
H698 H 0.76632 0.71189 0.7415 0.0
C699 C 0.75 0.78369 0.80474 0.0
C700 C 0.76581 0.76854 0.82406 0.0
C701 C 0.73869 0.77249 0.78108 0.0
C702 C 0.74693 0.71707 0.73472 0.0
H703 H 0.67212 0.72172 0.60949 0.0
H704 H 0.68701 0.73954 0.65436 0.0
H705 H 0.74925 0.69373 0.69807 0.0
H706 H 0.78167 0.72983 0.8344 0.0
H707 H 0.7615 0.71002 0.79338 0.0
H708 H 0.69522 0.75418 0.75179 0.0
C709 C 0.68981 0.71885 0.65152 0.0
C710 C 0.73718 0.70671 0.70977 0.0
C711 C 0.68143 0.70867 0.62577 0.0
C712 C 0.76963 0.7419 0.81971 0.0
C713 C 0.75822 0.73066 0.79614 0.0
C714 C 0.70726 0.74114 0.74015 0.0
C715 C 0.70237 0.70263 0.67294 0.0
C716 C 0.71243 0.71354 0.69964 0.0
C717 C 0.74288 0.74591 0.77632 0.0
C718 C 0.7321 0.73441 0.75022 0.0
H719 H 0.70059 0.6451 0.64005 0.0
H720 H 0.71515 0.6629 0.68474 0.0
H721 H 0.6783 0.73622 0.70792 0.0
H722 H 0.74677 0.80433 0.80747 0.0
H723 H 0.72727 0.78488 0.76606 0.0
C724 C 0.82853 0.22069 0.11345 0.0
C725 C 0.82198 0.19403 0.11252 0.0
C726 C 0.82225 0.23438 0.13767 0.0
C727 C 0.80222 0.22493 0.21507 0.0
H728 H 0.77527 0.29552 0.20119 0.0
C729 C 0.74515 0.27856 0.30069 0.0
C730 C 0.75037 0.30537 0.3028 0.0
C731 C 0.75644 0.26498 0.27868 0.0
C732 C 0.78308 0.27596 0.20545 0.0
H733 H 0.80406 0.16073 0.13656 0.0
H734 H 0.79261 0.18474 0.17841 0.0
H735 H 0.79027 0.27184 0.16038 0.0
H736 H 0.77186 0.33887 0.28428 0.0
H737 H 0.79155 0.31515 0.24565 0.0
H738 H 0.79432 0.22893 0.26014 0.0
C739 C 0.803 0.19499 0.16068 0.0
C740 C 0.79173 0.26239 0.18207 0.0
C741 C 0.8094 0.18126 0.13655 0.0
C742 C 0.76746 0.31822 0.28297 0.0
C743 C 0.77861 0.3047 0.26085 0.0
C744 C 0.79341 0.23847 0.23844 0.0
C745 C 0.80918 0.22177 0.16146 0.0
C746 C 0.80123 0.23663 0.18656 0.0
C747 C 0.77302 0.27801 0.25831 0.0
C748 C 0.78359 0.26405 0.23383 0.0
H749 H 0.83846 0.23103 0.09543 0.0
H750 H 0.82769 0.25487 0.13777 0.0
H751 H 0.80983 0.20529 0.21935 0.0
H752 H 0.73212 0.2681 0.31576 0.0
H753 H 0.75161 0.24448 0.2771 0.0
C754 C 0.26282 0.3092 0.53379 0.0
C755 C 0.28943 0.30572 0.53804 0.0
C756 C 0.24514 0.29578 0.55234 0.0
C757 C 0.23985 0.23733 0.60373 0.0
H758 H 0.1805 0.27275 0.63375 0.0
C759 C 0.18073 0.19147 0.69928 0.0
C760 C 0.15385 0.19332 0.6976 0.0
C761 C 0.19623 0.20559 0.679 0.0
C762 C 0.19682 0.26251 0.62526 0.0
H763 H 0.31829 0.28573 0.56548 0.0
H764 H 0.28759 0.26259 0.59771 0.0
H765 H 0.20944 0.29667 0.59941 0.0
H766 H 0.12195 0.21162 0.67362 0.0
H767 H 0.14911 0.23628 0.63795 0.0
H768 H 0.22744 0.20327 0.62958 0.0
C769 C 0.28034 0.27535 0.5798 0.0
C770 C 0.21337 0.2762 0.6056 0.0
C771 C 0.29795 0.28875 0.56138 0.0
C772 C 0.14266 0.20985 0.67546 0.0
C773 C 0.1582 0.22404 0.65512 0.0
C774 C 0.22335 0.22369 0.62331 0.0
C775 C 0.25375 0.27857 0.57542 0.0
C776 C 0.23525 0.26383 0.59495 0.0
C777 C 0.18516 0.22186 0.65654 0.0
C778 C 0.20184 0.2362 0.63461 0.0
H779 H 0.25561 0.32219 0.51606 0.0
H780 H 0.22476 0.29855 0.54832 0.0
H781 H 0.25625 0.22709 0.59544 0.0
H782 H 0.1898 0.17893 0.71623 0.0
H783 H 0.21694 0.20383 0.68101 0.0
C784 C 0.7089 0.70849 0.47673 0.0
C785 C 0.71562 0.69257 0.50168 0.0
C786 C 0.72779 0.72209 0.46018 0.0
C787 C 0.79227 0.75005 0.46543 0.0
H788 H 0.79128 0.75184 0.38121 0.0
C789 C 0.84943 0.82582 0.39196 0.0
C790 C 0.86259 0.8164 0.36823 0.0
C791 C 0.83272 0.80943 0.40864 0.0
C792 C 0.79191 0.75137 0.40472 0.0
H793 H 0.74754 0.67832 0.52866 0.0
H794 H 0.78052 0.70236 0.49984 0.0
H795 H 0.75975 0.72507 0.40936 0.0
H796 H 0.86862 0.78246 0.34321 0.0
H797 H 0.83919 0.75387 0.37223 0.0
H798 H 0.82423 0.77659 0.46077 0.0
C799 C 0.76058 0.70427 0.49319 0.0
C800 C 0.77375 0.73623 0.4208 0.0
C801 C 0.74171 0.69043 0.50959 0.0
C802 C 0.85879 0.79025 0.36144 0.0
C803 C 0.84185 0.77393 0.37795 0.0
C804 C 0.81025 0.76541 0.44933 0.0
C805 C 0.7538 0.72028 0.46835 0.0
C806 C 0.77367 0.73552 0.45131 0.0
C807 C 0.82863 0.78336 0.40169 0.0
C808 C 0.81017 0.76632 0.41881 0.0
H809 H 0.68899 0.71049 0.46996 0.0
H810 H 0.72198 0.73446 0.44129 0.0
H811 H 0.79254 0.75002 0.48891 0.0
H812 H 0.852 0.84593 0.39755 0.0
H813 H 0.82258 0.81731 0.42662 0.0
C814 C 0.79123 0.20396 0.96848 0.0
C815 C 0.78481 0.18968 0.99466 0.0
C816 C 0.77206 0.21412 0.94984 0.0
C817 C 0.70484 0.23538 0.9475 0.0
H818 H 0.71437 0.23223 0.86439 0.0
C819 C 0.63323 0.28238 0.86227 0.0
C820 C 0.64491 0.2972 0.83903 0.0
C821 C 0.64815 0.26626 0.88144 0.0
C822 C 0.71147 0.23334 0.88753 0.0
H823 H 0.75309 0.17489 0.02176 0.0
H824 H 0.71943 0.19289 0.98901 0.0
H825 H 0.74434 0.20932 0.89789 0.0
H826 H 0.68105 0.30687 0.81745 0.0
H827 H 0.70709 0.27891 0.85081 0.0
H828 H 0.67227 0.25997 0.93701 0.0
C829 C 0.73941 0.1962 0.98311 0.0
C830 C 0.72862 0.22023 0.90671 0.0
C831 C 0.75868 0.18585 0.00178 0.0
C832 C 0.6716 0.29552 0.83514 0.0
C833 C 0.68645 0.27939 0.85413 0.0
C834 C 0.68764 0.24855 0.92826 0.0
C835 C 0.74595 0.21033 0.95686 0.0
C836 C 0.72589 0.22164 0.93687 0.0
C837 C 0.67494 0.26461 0.87753 0.0
C838 C 0.69118 0.2482 0.89806 0.0
H839 H 0.81113 0.20728 0.96223 0.0
H840 H 0.77773 0.2253 0.93003 0.0
H841 H 0.70233 0.23694 0.97063 0.0
H842 H 0.61265 0.28334 0.8658 0.0
H843 H 0.63874 0.255 0.8992 0.0
C844 C 0.30556 0.31856 0.39608 0.0
C845 C 0.32152 0.30724 0.41811 0.0
C846 C 0.30009 0.30513 0.37147 0.0
C847 C 0.29966 0.23825 0.34535 0.0
H848 H 0.28967 0.27622 0.2704 0.0
C849 C 0.27386 0.18563 0.24255 0.0
C850 C 0.25204 0.19588 0.2279 0.0
C851 C 0.28586 0.19968 0.26371 0.0
C852 C 0.29243 0.2654 0.29121 0.0
H853 H 0.34484 0.27322 0.43117 0.0
H854 H 0.33577 0.25001 0.3879 0.0
H855 H 0.30439 0.29974 0.3116 0.0
H856 H 0.22638 0.2294 0.22272 0.0
H857 H 0.24748 0.25402 0.25944 0.0
H858 H 0.28764 0.20393 0.32484 0.0
C859 C 0.32696 0.26902 0.38996 0.0
C860 C 0.30073 0.27885 0.31485 0.0
C861 C 0.33223 0.28235 0.41474 0.0
C862 C 0.24309 0.22092 0.2338 0.0
C863 C 0.25526 0.2351 0.25468 0.0
C864 C 0.29163 0.22477 0.32163 0.0
C865 C 0.31067 0.28017 0.3681 0.0
C866 C 0.30397 0.26553 0.34236 0.0
C867 C 0.27644 0.22439 0.27024 0.0
C868 C 0.2875 0.23829 0.29447 0.0
H869 H 0.29693 0.33768 0.39802 0.0
H870 H 0.2871 0.31414 0.35538 0.0
H871 H 0.30158 0.2274 0.36625 0.0
H872 H 0.28114 0.16638 0.23829 0.0
H873 H 0.3023 0.19109 0.27523 0.0
C874 C 0.2044 0.82081 0.9076 0.0
C875 C 0.18251 0.8094 0.92126 0.0
C876 C 0.21471 0.81057 0.88287 0.0
C877 C 0.20008 0.76761 0.82352 0.0
H878 H 0.2745 0.76464 0.81773 0.0
C879 C 0.25458 0.7112 0.73733 0.0
C880 C 0.27597 0.72399 0.72411 0.0
C881 C 0.242 0.72198 0.76052 0.0
C882 C 0.25369 0.76559 0.81889 0.0
H883 H 0.15399 0.77851 0.9193 0.0
H884 H 0.17237 0.7602 0.87633 0.0
H885 H 0.25473 0.78228 0.86005 0.0
H886 H 0.30068 0.75817 0.72419 0.0
H887 H 0.27878 0.77701 0.76479 0.0
H888 H 0.19924 0.75045 0.78239 0.0
C889 C 0.18134 0.77734 0.88458 0.0
C890 C 0.24234 0.77573 0.84312 0.0
C891 C 0.17088 0.78774 0.90929 0.0
C892 C 0.28428 0.74791 0.73411 0.0
C893 C 0.27184 0.75859 0.75739 0.0
C894 C 0.21149 0.75728 0.7993 0.0
C895 C 0.20353 0.78851 0.87125 0.0
C896 C 0.2154 0.77707 0.84565 0.0
C897 C 0.25072 0.74562 0.77102 0.0
C898 C 0.23842 0.75634 0.79668 0.0
H899 H 0.21364 0.83776 0.91599 0.0
H900 H 0.23144 0.82005 0.8728 0.0
H901 H 0.17929 0.76862 0.82462 0.0
H902 H 0.24769 0.69273 0.73005 0.0
H903 H 0.22589 0.71147 0.77074 0.0
loop_
_geom_bond_atom_site_label_1
_geom_bond_atom_site_label_2
_geom_bond_distance
_geom_bond_site_symmetry_2
_ccdc_geom_bond_type
Fe0 O2 1.918 . S
Fe0 O5 1.997 1_556 S
Fe0 O6 2.002 1_556 S
Fe0 O11 1.976 . S
Fe0 O14 1.996 . S
Fe1 O2 1.918 1_554 S
Fe1 O9 1.997 . S
Fe1 O12 1.996 1_554 S
Fe1 O16 1.976 1_554 S
Fe1 O19 2.002 . S
O2 Fe0 1.918 . S
O2 Fe1 1.918 1_556 S
O2 Fe3 1.918 1_556 S
Fe3 O2 1.918 1_554 S
Fe3 O4 2.002 . S
Fe3 O13 1.976 1_554 S
Fe3 O17 1.996 1_554 S
Fe3 O20 1.997 . S
O4 Fe3 2.002 . S
O4 C21 1.295 . S
O5 Fe0 1.997 1_554 S
O5 C21 1.235 . S
O6 Fe0 2.002 1_554 S
O6 C7 1.295 . S
C7 O6 1.295 . S
C7 O9 1.235 . S
C8 O13 1.287 . S
C8 O14 1.255 . S
O9 Fe1 1.997 . S
O9 C7 1.235 . S
C10 O16 1.287 . S
C10 O17 1.255 . S
O11 Fe0 1.976 . S
O11 C18 1.287 . S
O12 Fe1 1.996 1_556 S
O12 C18 1.255 . S
O13 Fe3 1.976 1_556 S
O13 C8 1.287 . S
O14 Fe0 1.996 . S
O14 C8 1.255 . S
C15 O19 1.295 . S
C15 O20 1.235 . S
O16 Fe1 1.976 1_556 S
O16 C10 1.287 . S
O17 Fe3 1.996 1_556 S
O17 C10 1.255 . S
C18 O11 1.287 . S
C18 O12 1.255 . S
O19 Fe1 2.002 . S
O19 C15 1.295 . S
O20 Fe3 1.997 . S
O20 C15 1.235 . S
C21 O4 1.295 . S
C21 O5 1.235 . S
Fe22 O24 1.918 . S
Fe22 O27 1.997 . S
Fe22 O28 2.002 . S
Fe22 O33 1.976 . S
Fe22 O36 1.996 . S
Fe23 O24 1.918 . S
Fe23 O31 1.997 . S
Fe23 O34 1.996 . S
Fe23 O38 1.976 . S
Fe23 O41 2.002 . S
O24 Fe22 1.918 . S
O24 Fe23 1.918 . S
O24 Fe25 1.918 . S
Fe25 O24 1.918 . S
Fe25 O26 2.002 . S
Fe25 O35 1.976 . S
Fe25 O39 1.996 . S
Fe25 O42 1.997 . S
O26 Fe25 2.002 . S
O26 C43 1.295 . S
O27 Fe22 1.997 . S
O27 C43 1.235 . S
O28 Fe22 2.002 . S
O28 C29 1.295 . S
C29 O28 1.295 . S
C29 O31 1.235 . S
C30 O35 1.287 . S
C30 O36 1.255 . S
O31 Fe23 1.997 . S
O31 C29 1.235 . S
C32 O38 1.287 . S
C32 O39 1.255 . S
O33 Fe22 1.976 . S
O33 C40 1.287 . S
O34 Fe23 1.996 . S
O34 C40 1.255 . S
O35 Fe25 1.976 . S
O35 C30 1.287 . S
O36 Fe22 1.996 . S
O36 C30 1.255 . S
C37 O41 1.295 . S
C37 O42 1.235 . S
O38 Fe23 1.976 . S
O38 C32 1.287 . S
O39 Fe25 1.996 . S
O39 C32 1.255 . S
C40 O33 1.287 . S
C40 O34 1.255 . S
O41 Fe23 2.002 . S
O41 C37 1.295 . S
O42 Fe25 1.997 . S
O42 C37 1.235 . S
C43 O26 1.295 . S
C43 O27 1.235 . S
Fe44 O46 1.918 . S
Fe44 O49 1.997 . S
Fe44 O50 1.996 1_554 S
Fe44 O55 1.976 . S
Fe44 O58 1.996 . S
Fe45 O46 1.918 . S
Fe45 O53 1.997 . S
Fe45 O56 1.996 . S
Fe45 O60 1.976 . S
Fe45 O63 2.002 . S
O46 Fe44 1.918 . S
O46 Fe45 1.918 . S
O46 Fe47 1.918 . S
Fe47 O46 1.918 . S
Fe47 O48 2.002 . S
Fe47 O57 1.976 . S
Fe47 O61 1.996 . S
Fe47 O64 1.997 . S
O48 Fe47 2.002 . S
O48 C65 1.295 . S
O49 Fe44 1.997 . S
O49 C65 1.235 . S
O50 Fe44 1.996 1_556 S
O50 C51 1.298 . S
C51 O50 1.298 . S
C51 O53 1.235 1_556 S
C52 O57 1.287 . S
C52 O58 1.255 . S
O53 Fe45 1.997 . S
O53 C51 1.235 1_554 S
C54 O60 1.287 . S
C54 O61 1.255 . S
O55 Fe44 1.976 . S
O55 C62 1.287 . S
O56 Fe45 1.996 . S
O56 C62 1.255 . S
O57 Fe47 1.976 . S
O57 C52 1.287 . S
O58 Fe44 1.996 . S
O58 C52 1.255 . S
C59 O63 1.295 . S
C59 O64 1.235 . S
O60 Fe45 1.976 . S
O60 C54 1.287 . S
O61 Fe47 1.996 . S
O61 C54 1.255 . S
C62 O55 1.287 . S
C62 O56 1.255 . S
O63 Fe45 2.002 . S
O63 C59 1.295 . S
O64 Fe47 1.997 . S
O64 C59 1.235 . S
C65 O48 1.295 . S
C65 O49 1.235 . S
Fe66 O68 1.918 . S
Fe66 O71 1.997 . S
Fe66 O72 2.002 . S
Fe66 O77 1.976 . S
Fe66 O80 1.996 . S
Fe67 O68 1.918 . S
Fe67 O75 1.997 . S
Fe67 O78 1.996 . S
Fe67 O82 1.976 . S
Fe67 O85 2.002 . S
O68 Fe66 1.918 . S
O68 Fe67 1.918 . S
O68 Fe69 1.918 . S
Fe69 O68 1.918 . S
Fe69 O70 2.002 . S
Fe69 O79 1.976 . S
Fe69 O83 1.996 . S
Fe69 O86 1.997 . S
O70 Fe69 2.002 . S
O70 C87 1.295 . S
O71 Fe66 1.997 . S
O71 C87 1.235 . S
O72 Fe66 2.002 . S
O72 C73 1.295 . S
C73 O72 1.295 . S
C73 O75 1.235 . S
C74 O79 1.287 . S
C74 O80 1.255 . S
O75 Fe67 1.997 . S
O75 C73 1.235 . S
C76 O82 1.287 . S
C76 O83 1.255 . S
O77 Fe66 1.976 . S
O77 C84 1.287 . S
O78 Fe67 1.996 . S
O78 C84 1.255 . S
O79 Fe69 1.976 . S
O79 C74 1.287 . S
O80 Fe66 1.996 . S
O80 C74 1.255 . S
C81 O85 1.295 . S
C81 O86 1.235 . S
O82 Fe67 1.976 . S
O82 C76 1.287 . S
O83 Fe69 1.996 . S
O83 C76 1.255 . S
C84 O77 1.287 . S
C84 O78 1.255 . S
O85 Fe67 2.002 . S
O85 C81 1.295 . S
O86 Fe69 1.997 . S
O86 C81 1.235 . S
C87 O70 1.295 . S
C87 O71 1.235 . S
H88 C93 0.930 . S
H89 C96 0.930 . S
H90 C98 0.930 . S
H91 C92 1.016 . S
C92 H91 1.016 . S
C92 N99 1.286 . S
C93 H88 0.930 . S
C93 C94 1.397 . S
C93 C95 1.361 . S
C94 C93 1.397 . S
C94 C98 1.390 . S
C95 C93 1.361 . S
C95 C96 1.393 . S
C95 N99 1.413 . S
C96 H89 0.930 . S
C96 C95 1.393 . S
C96 C97 1.399 . S
C97 C96 1.399 . S
C97 C98 1.381 . S
C98 H90 0.930 . S
C98 C94 1.390 . S
C98 C97 1.381 . S
N99 C92 1.286 . S
N99 C95 1.413 . S
H100 C105 0.930 . S
H101 C108 0.930 . S
H102 C110 0.930 . S
H103 C104 1.016 . S
C104 H103 1.016 . S
C104 N111 1.286 . S
C105 H100 0.930 . S
C105 C106 1.397 . S
C105 C107 1.361 . S
C106 C105 1.397 . S
C106 C110 1.390 . S
C107 C105 1.361 . S
C107 C108 1.393 . S
C107 N111 1.413 . S
C108 H101 0.930 . S
C108 C107 1.393 . S
C108 C109 1.399 . S
C109 C108 1.399 . S
C109 C110 1.381 . S
C110 H102 0.930 . S
C110 C106 1.390 . S
C110 C109 1.381 . S
N111 C104 1.286 . S
N111 C107 1.413 . S
H112 C117 0.930 . S
H113 C120 0.930 . S
H114 C122 0.930 . S
H115 C116 1.016 . S
C116 H115 1.016 . S
C116 N123 1.286 . S
C117 H112 0.930 . S
C117 C118 1.397 . S
C117 C119 1.361 . S
C118 C117 1.397 . S
C118 C122 1.390 . S
C119 C117 1.361 . S
C119 C120 1.393 . S
C119 N123 1.413 . S
C120 H113 0.930 . S
C120 C119 1.393 . S
C120 C121 1.399 . S
C121 C120 1.399 . S
C121 C122 1.381 . S
C122 H114 0.930 . S
C122 C118 1.390 . S
C122 C121 1.381 . S
N123 C116 1.286 . S
N123 C119 1.413 . S
H124 C129 0.930 . S
H125 C132 0.930 . S
H126 C134 0.930 . S
H127 C128 1.016 . S
C128 H127 1.016 . S
C128 N135 1.286 . S
C129 H124 0.930 . S
C129 C130 1.397 . S
C129 C131 1.361 . S
C130 C129 1.397 . S
C130 C134 1.390 . S
C131 C129 1.361 . S
C131 C132 1.393 . S
C131 N135 1.413 . S
C132 H125 0.930 . S
C132 C131 1.393 . S
C132 C133 1.399 . S
C133 C132 1.399 . S
C133 C134 1.381 . S
C134 H126 0.930 . S
C134 C130 1.390 . S
C134 C133 1.381 . S
N135 C128 1.286 . S
N135 C131 1.413 . S
H136 C141 0.930 . S
H137 C144 0.930 . S
H138 C146 0.930 . S
H139 C140 1.016 . S
C140 H139 1.016 . S
C140 N147 1.286 . S
C141 H136 0.930 . S
C141 C142 1.397 . S
C141 C143 1.361 . S
C142 C141 1.397 . S
C142 C146 1.390 . S
C143 C141 1.361 . S
C143 C144 1.393 . S
C143 N147 1.413 . S
C144 H137 0.930 . S
C144 C143 1.393 . S
C144 C145 1.399 . S
C145 C144 1.399 . S
C145 C146 1.381 . S
C146 H138 0.930 . S
C146 C142 1.390 . S
C146 C145 1.381 . S
N147 C140 1.286 . S
N147 C143 1.413 . S
H148 C153 0.930 . S
H149 C156 0.930 . S
H150 C158 0.930 . S
H151 C152 1.016 . S
C152 H151 1.016 . S
C152 N159 1.286 . S
C153 H148 0.930 . S
C153 C154 1.397 . S
C153 C155 1.361 . S
C154 C153 1.397 . S
C154 C158 1.390 . S
C155 C153 1.361 . S
C155 C156 1.393 . S
C155 N159 1.413 . S
C156 H149 0.930 . S
C156 C155 1.393 . S
C156 C157 1.399 . S
C157 C156 1.399 . S
C157 C158 1.381 . S
C158 H150 0.930 . S
C158 C154 1.390 . S
C158 C157 1.381 . S
N159 C152 1.286 . S
N159 C155 1.413 . S
H160 C165 0.930 . S
H161 C168 0.930 . S
H162 C170 0.930 . S
H163 C164 1.016 . S
C164 H163 1.016 . S
C164 N171 1.286 . S
C165 H160 0.930 . S
C165 C166 1.397 . S
C165 C167 1.361 . S
C166 C165 1.397 . S
C166 C170 1.390 . S
C167 C165 1.361 . S
C167 C168 1.393 . S
C167 N171 1.413 . S
C168 H161 0.930 . S
C168 C167 1.393 . S
C168 C169 1.399 . S
C169 C168 1.399 . S
C169 C170 1.381 . S
C170 H162 0.930 . S
C170 C166 1.390 . S
C170 C169 1.381 . S
N171 C164 1.286 . S
N171 C167 1.413 . S
H172 C177 0.930 . S
H173 C180 0.930 . S
H174 C182 0.930 . S
H175 C176 1.016 . S
C176 H175 1.016 . S
C176 N183 1.286 . S
C177 H172 0.930 . S
C177 C178 1.397 . S
C177 C179 1.361 . S
C178 C177 1.397 . S
C178 C182 1.390 . S
C179 C177 1.361 . S
C179 C180 1.393 . S
C179 N183 1.413 . S
C180 H173 0.930 . S
C180 C179 1.393 . S
C180 C181 1.399 . S
C181 C180 1.399 . S
C181 C182 1.381 . S
C182 H174 0.930 . S
C182 C178 1.390 . S
C182 C181 1.381 . S
N183 C176 1.286 . S
N183 C179 1.413 . S
C184 C185 1.349 . S
C184 C186 1.327 . S
C184 H209 0.950 . S
C185 C184 1.349 . S
C185 C201 1.349 . S
C186 C184 1.327 . S
C186 C205 1.429 . S
C186 H210 0.950 . S
C187 C204 1.574 . S
C187 C206 1.368 . S
C187 H211 0.949 . S
H188 C192 0.949 . S
C189 C190 1.349 . S
C189 C191 1.327 . S
C189 H212 0.950 . S
C190 C189 1.349 . S
C190 C202 1.349 . S
C191 C189 1.327 . S
C191 C207 1.429 . S
C191 H213 0.950 . S
C192 H188 0.949 . S
C192 C200 1.574 . S
C192 C208 1.368 . S
H193 C201 0.950 . S
H194 C199 0.950 1_545 S
H195 C200 0.949 1_565 S
H196 C202 0.950 . S
H197 C203 0.950 . S
H198 C204 0.949 . S
C199 H194 0.950 1_565 S
C199 C201 1.327 . S
C199 C205 1.429 . S
C200 C192 1.574 . S
C200 H195 0.949 1_545 S
C200 C206 1.368 . S
C201 C185 1.349 . S
C201 H193 0.950 . S
C201 C199 1.327 . S
C202 C190 1.349 . S
C202 H196 0.950 . S
C202 C203 1.327 . S
C203 H197 0.950 . S
C203 C202 1.327 . S
C203 C207 1.429 . S
C204 C187 1.574 . S
C204 H198 0.949 . S
C204 C208 1.368 . S
C205 C186 1.429 . S
C205 C199 1.429 . S
C205 C206 1.523 1_565 S
C206 C187 1.368 . S
C206 C200 1.368 . S
C206 C205 1.523 1_545 S
C207 C191 1.429 . S
C207 C203 1.429 . S
C207 C208 1.523 . S
C208 C192 1.368 . S
C208 C204 1.368 . S
C208 C207 1.523 . S
H209 C184 0.950 . S
H210 C186 0.950 . S
H211 C187 0.949 . S
H212 C189 0.950 . S
H213 C191 0.950 . S
C214 C215 1.349 . S
C214 C216 1.327 . S
C214 H239 0.950 . S
C215 C214 1.349 . S
C215 C231 1.349 . S
C216 C214 1.327 . S
C216 C235 1.429 . S
C216 H240 0.950 . S
C217 C234 1.574 . S
C217 C236 1.368 . S
C217 H241 0.949 . S
H218 C222 0.949 . S
C219 C220 1.349 . S
C219 C221 1.327 . S
C219 H242 0.950 . S
C220 C219 1.349 . S
C220 C232 1.349 . S
C221 C219 1.327 . S
C221 C237 1.429 . S
C221 H243 0.950 . S
C222 H218 0.949 . S
C222 C230 1.574 . S
C222 C238 1.368 . S
H223 C231 0.950 . S
H224 C229 0.950 . S
H225 C230 0.949 . S
H226 C232 0.950 . S
H227 C233 0.950 . S
H228 C234 0.949 . S
C229 H224 0.950 . S
C229 C231 1.327 . S
C229 C235 1.429 . S
C230 C222 1.574 . S
C230 H225 0.949 . S
C230 C236 1.368 . S
C231 C215 1.349 . S
C231 H223 0.950 . S
C231 C229 1.327 . S
C232 C220 1.349 . S
C232 H226 0.950 . S
C232 C233 1.327 . S
C233 H227 0.950 . S
C233 C232 1.327 . S
C233 C237 1.429 . S
C234 C217 1.574 . S
C234 H228 0.949 . S
C234 C238 1.368 . S
C235 C216 1.429 . S
C235 C229 1.429 . S
C235 C236 1.523 . S
C236 C217 1.368 . S
C236 C230 1.368 . S
C236 C235 1.523 . S
C237 C221 1.429 . S
C237 C233 1.429 . S
C237 C238 1.523 . S
C238 C222 1.368 . S
C238 C234 1.368 . S
C238 C237 1.523 . S
H239 C214 0.950 . S
H240 C216 0.950 . S
H241 C217 0.949 . S
H242 C219 0.950 . S
H243 C221 0.950 . S
C244 C245 1.349 . S
C244 C246 1.327 . S
C244 H269 0.950 . S
C245 C244 1.349 . S
C245 C261 1.349 . S
C246 C244 1.327 . S
C246 C265 1.429 . S
C246 H270 0.950 . S
C247 C264 1.574 . S
C247 C266 1.368 . S
C247 H271 0.949 1_565 S
H248 C252 0.949 . S
C249 C250 1.349 . S
C249 C251 1.327 . S
C249 H272 0.950 . S
C250 C249 1.349 . S
C250 C262 1.349 . S
C251 C249 1.327 . S
C251 C267 1.429 . S
C251 H273 0.950 . S
C252 H248 0.949 . S
C252 C260 1.574 . S
C252 C268 1.368 . S
H253 C261 0.950 . S
H254 C259 0.950 . S
H255 C260 0.949 . S
H256 C262 0.950 . S
H257 C263 0.950 . S
H258 C264 0.949 . S
C259 H254 0.950 . S
C259 C261 1.327 . S
C259 C265 1.429 . S
C260 C252 1.574 . S
C260 H255 0.949 . S
C260 C266 1.368 . S
C261 C245 1.349 . S
C261 H253 0.950 . S
C261 C259 1.327 . S
C262 C250 1.349 . S
C262 H256 0.950 . S
C262 C263 1.327 . S
C263 H257 0.950 . S
C263 C262 1.327 . S
C263 C267 1.429 . S
C264 C247 1.574 . S
C264 H258 0.949 . S
C264 C268 1.368 . S
C265 C246 1.429 . S
C265 C259 1.429 . S
C265 C266 1.523 1_545 S
C266 C247 1.368 . S
C266 C260 1.368 . S
C266 C265 1.523 1_565 S
C267 C251 1.429 . S
C267 C263 1.429 . S
C267 C268 1.523 . S
C268 C252 1.368 . S
C268 C264 1.368 . S
C268 C267 1.523 . S
H269 C244 0.950 . S
H270 C246 0.950 . S
H271 C247 0.949 1_545 S
H272 C249 0.950 . S
H273 C251 0.950 . S
C274 C275 1.349 . S
C274 C276 1.327 . S
C274 H299 0.950 . S
C275 C274 1.349 . S
C275 C291 1.349 . S
C276 C274 1.327 . S
C276 C295 1.429 . S
C276 H300 0.950 . S
C277 C294 1.574 . S
C277 C296 1.368 . S
C277 H301 0.949 . S
H278 C282 0.949 . S
C279 C280 1.349 . S
C279 C281 1.327 . S
C279 H302 0.950 . S
C280 C279 1.349 . S
C280 C292 1.349 . S
C281 C279 1.327 . S
C281 C297 1.429 . S
C281 H303 0.950 . S
C282 H278 0.949 . S
C282 C290 1.574 . S
C282 C298 1.368 . S
H283 C291 0.950 . S
H284 C289 0.950 . S
H285 C290 0.949 . S
H286 C292 0.950 . S
H287 C293 0.950 . S
H288 C294 0.949 . S
C289 H284 0.950 . S
C289 C291 1.327 . S
C289 C295 1.429 . S
C290 C282 1.574 . S
C290 H285 0.949 . S
C290 C296 1.368 . S
C291 C275 1.349 . S
C291 H283 0.950 . S
C291 C289 1.327 . S
C292 C280 1.349 . S
C292 H286 0.950 . S
C292 C293 1.327 . S
C293 H287 0.950 . S
C293 C292 1.327 . S
C293 C297 1.429 . S
C294 C277 1.574 . S
C294 H288 0.949 . S
C294 C298 1.368 . S
C295 C276 1.429 . S
C295 C289 1.429 . S
C295 C296 1.523 . S
C296 C277 1.368 . S
C296 C290 1.368 . S
C296 C295 1.523 . S
C297 C281 1.429 . S
C297 C293 1.429 . S
C297 C298 1.523 . S
C298 C282 1.368 . S
C298 C294 1.368 . S
C298 C297 1.523 . S
H299 C274 0.950 . S
H300 C276 0.950 . S
H301 C277 0.949 . S
H302 C279 0.950 . S
H303 C281 0.950 . S
C304 C305 1.349 . S
C304 C306 1.327 . S
C304 H329 0.950 . S
C305 C304 1.349 . S
C305 C321 1.349 . S
C306 C304 1.327 . S
C306 C325 1.429 . S
C306 H330 0.950 . S
C307 C324 1.574 . S
C307 C326 1.368 . S
C307 H331 0.949 . S
H308 C312 0.949 . S
C309 C310 1.349 . S
C309 C311 1.327 . S
C309 H332 0.950 . S
C310 C309 1.349 . S
C310 C322 1.349 . S
C311 C309 1.327 . S
C311 C327 1.429 . S
C311 H333 0.950 . S
C312 H308 0.949 . S
C312 C320 1.574 . S
C312 C328 1.368 . S
H313 C321 0.950 . S
H314 C319 0.950 . S
H315 C320 0.949 . S
H316 C322 0.950 . S
H317 C323 0.950 . S
H318 C324 0.949 . S
C319 H314 0.950 . S
C319 C321 1.327 . S
C319 C325 1.429 . S
C320 C312 1.574 . S
C320 H315 0.949 . S
C320 C326 1.368 . S
C321 C305 1.349 . S
C321 H313 0.950 . S
C321 C319 1.327 . S
C322 C310 1.349 . S
C322 H316 0.950 . S
C322 C323 1.327 . S
C323 H317 0.950 . S
C323 C322 1.327 . S
C323 C327 1.429 . S
C324 C307 1.574 . S
C324 H318 0.949 . S
C324 C328 1.368 . S
C325 C306 1.429 . S
C325 C319 1.429 . S
C325 C326 1.523 . S
C326 C307 1.368 . S
C326 C320 1.368 . S
C326 C325 1.523 . S
C327 C311 1.429 . S
C327 C323 1.429 . S
C327 C328 1.523 . S
C328 C312 1.368 . S
C328 C324 1.368 . S
C328 C327 1.523 . S
H329 C304 0.950 . S
H330 C306 0.950 . S
H331 C307 0.949 . S
H332 C309 0.950 . S
H333 C311 0.950 . S
C334 C335 1.349 . S
C334 C336 1.327 . S
C334 H359 0.950 . S
C335 C334 1.349 . S
C335 C351 1.349 . S
C336 C334 1.327 . S
C336 C355 1.429 . S
C336 H360 0.950 . S
C337 C354 1.574 1_655 S
C337 C356 1.368 . S
C337 H361 0.949 . S
H338 C342 0.949 . S
C339 C340 1.349 . S
C339 C341 1.327 . S
C339 H362 0.950 . S
C340 C339 1.349 . S
C340 C352 1.349 . S
C341 C339 1.327 . S
C341 C357 1.429 . S
C341 H363 0.950 . S
C342 H338 0.949 . S
C342 C350 1.574 . S
C342 C358 1.377 . S
H343 C351 0.950 . S
H344 C349 0.950 . S
H345 C350 0.949 . S
H346 C352 0.950 . S
H347 C353 0.950 . S
H348 C354 0.949 . S
C349 H344 0.950 . S
C349 C351 1.327 . S
C349 C355 1.429 . S
C350 C342 1.574 . S
C350 H345 0.949 . S
C350 C356 1.368 . S
C351 C335 1.349 . S
C351 H343 0.950 . S
C351 C349 1.327 . S
C352 C340 1.349 . S
C352 H346 0.950 . S
C352 C353 1.327 . S
C353 H347 0.950 . S
C353 C352 1.327 . S
C353 C357 1.429 . S
C354 C337 1.574 1_455 S
C354 H348 0.949 . S
C354 C358 1.367 1_455 S
C355 C336 1.429 . S
C355 C349 1.429 . S
C355 C356 1.523 . S
C356 C337 1.368 . S
C356 C350 1.368 . S
C356 C355 1.523 . S
C357 C341 1.429 . S
C357 C353 1.429 . S
C357 C358 1.514 1_455 S
C358 C342 1.377 . S
C358 C354 1.367 1_655 S
C358 C357 1.514 1_655 S
H359 C334 0.950 . S
H360 C336 0.950 . S
H361 C337 0.949 . S
H362 C339 0.950 . S
H363 C341 0.950 . S
C364 C365 1.349 . S
C364 C366 1.327 . S
C364 H389 0.950 . S
C365 C364 1.349 . S
C365 C381 1.349 . S
C366 C364 1.327 . S
C366 C385 1.429 . S
C366 H390 0.950 . S
C367 C384 1.574 . S
C367 C386 1.368 . S
C367 H391 0.949 . S
H368 C372 0.949 . S
C369 C370 1.349 . S
C369 C371 1.327 . S
C369 H392 0.950 . S
C370 C369 1.349 . S
C370 C382 1.349 . S
C371 C369 1.327 . S
C371 C387 1.429 . S
C371 H393 0.950 . S
C372 H368 0.949 . S
C372 C380 1.574 . S
C372 C388 1.368 . S
H373 C381 0.950 . S
H374 C379 0.950 . S
H375 C380 0.949 . S
H376 C382 0.950 . S
H377 C383 0.950 . S
H378 C384 0.949 . S
C379 H374 0.950 . S
C379 C381 1.327 . S
C379 C385 1.429 . S
C380 C372 1.574 . S
C380 H375 0.949 . S
C380 C386 1.368 . S
C381 C365 1.349 . S
C381 H373 0.950 . S
C381 C379 1.327 . S
C382 C370 1.349 . S
C382 H376 0.950 . S
C382 C383 1.327 . S
C383 H377 0.950 . S
C383 C382 1.327 . S
C383 C387 1.429 . S
C384 C367 1.574 . S
C384 H378 0.949 . S
C384 C388 1.368 . S
C385 C366 1.429 . S
C385 C379 1.429 . S
C385 C386 1.523 . S
C386 C367 1.368 . S
C386 C380 1.368 . S
C386 C385 1.523 . S
C387 C371 1.429 . S
C387 C383 1.429 . S
C387 C388 1.523 . S
C388 C372 1.368 . S
C388 C384 1.368 . S
C388 C387 1.523 . S
H389 C364 0.950 . S
H390 C366 0.950 . S
H391 C367 0.949 . S
H392 C369 0.950 . S
H393 C371 0.950 . S
C394 C395 1.349 . S
C394 C396 1.327 . S
C394 H419 0.950 . S
C395 C394 1.349 . S
C395 C411 1.349 . S
C396 C394 1.327 . S
C396 C415 1.429 . S
C396 H420 0.950 . S
C397 C414 1.574 . S
C397 C416 1.368 . S
C397 H421 0.949 . S
H398 C402 0.949 . S
C399 C400 1.349 . S
C399 C401 1.327 . S
C399 H422 0.950 . S
C400 C399 1.349 . S
C400 C412 1.349 . S
C401 C399 1.327 . S
C401 C417 1.429 . S
C401 H423 0.950 . S
C402 H398 0.949 . S
C402 C410 1.574 . S
C402 C418 1.368 . S
H403 C411 0.950 . S
H404 C409 0.950 . S
H405 C410 0.949 . S
H406 C412 0.950 . S
H407 C413 0.950 . S
H408 C414 0.949 . S
C409 H404 0.950 . S
C409 C411 1.327 . S
C409 C415 1.429 . S
C410 C402 1.574 . S
C410 H405 0.949 . S
C410 C416 1.368 . S
C411 C395 1.349 . S
C411 H403 0.950 . S
C411 C409 1.327 . S
C412 C400 1.349 . S
C412 H406 0.950 . S
C412 C413 1.327 . S
C413 H407 0.950 . S
C413 C412 1.327 . S
C413 C417 1.429 . S
C414 C397 1.574 . S
C414 H408 0.949 . S
C414 C418 1.368 . S
C415 C396 1.429 . S
C415 C409 1.429 . S
C415 C416 1.523 1_455 S
C416 C397 1.368 . S
C416 C410 1.368 . S
C416 C415 1.523 1_655 S
C417 C401 1.429 . S
C417 C413 1.429 . S
C417 C418 1.523 . S
C418 C402 1.368 . S
C418 C414 1.368 . S
C418 C417 1.523 . S
H419 C394 0.950 . S
H420 C396 0.950 . S
H421 C397 0.949 . S
H422 C399 0.950 . S
H423 C401 0.950 . S
C424 C425 1.349 1_554 S
C424 C426 1.327 1_554 S
C424 H449 0.950 . S
C425 C424 1.349 1_556 S
C425 C441 1.349 . S
C426 C424 1.327 1_556 S
C426 C445 1.429 . S
C426 H450 0.943 1_556 S
C427 C444 1.574 . S
C427 C446 1.368 . S
C427 H451 0.949 . S
H428 C432 0.949 . S
C429 C430 1.349 . S
C429 C431 1.327 . S
C429 H452 0.950 . S
C430 C429 1.349 . S
C430 C442 1.349 . S
C431 C429 1.327 . S
C431 C447 1.429 . S
C431 H453 0.950 . S
C432 H428 0.949 . S
C432 C440 1.574 . S
C432 C448 1.368 . S
H433 C441 0.950 . S
H434 C439 0.950 . S
H435 C440 0.949 . S
H436 C442 0.950 . S
H437 C443 0.950 . S
H438 C444 0.949 . S
C439 H434 0.950 . S
C439 C441 1.327 . S
C439 C445 1.429 . S
C440 C432 1.574 . S
C440 H435 0.949 . S
C440 C446 1.368 . S
C441 C425 1.349 . S
C441 H433 0.950 . S
C441 C439 1.327 . S
C442 C430 1.349 . S
C442 H436 0.950 . S
C442 C443 1.327 . S
C443 H437 0.950 . S
C443 C442 1.327 . S
C443 C447 1.429 . S
C444 C427 1.574 . S
C444 H438 0.949 . S
C444 C448 1.368 . S
C445 C426 1.429 . S
C445 C439 1.429 . S
C445 C446 1.523 1_545 S
C446 C427 1.368 . S
C446 C440 1.368 . S
C446 C445 1.523 1_565 S
C447 C431 1.429 . S
C447 C443 1.429 . S
C447 C448 1.523 . S
C448 C432 1.368 . S
C448 C444 1.368 . S
C448 C447 1.523 . S
H449 C424 0.950 . S
H450 C426 0.943 1_554 S
H451 C427 0.949 . S
H452 C429 0.950 . S
H453 C431 0.950 . S
C454 C455 1.349 . S
C454 C456 1.327 . S
C454 H479 0.950 . S
C455 C454 1.349 . S
C455 C471 1.349 . S
C456 C454 1.327 . S
C456 C475 1.429 . S
C456 H480 0.950 . S
C457 C474 1.574 . S
C457 C476 1.368 . S
C457 H481 0.949 . S
H458 C462 0.949 . S
C459 C460 1.349 . S
C459 C461 1.327 . S
C459 H482 0.950 . S
C460 C459 1.349 . S
C460 C472 1.349 . S
C461 C459 1.327 . S
C461 C477 1.429 . S
C461 H483 0.950 . S
C462 H458 0.949 . S
C462 C470 1.574 . S
C462 C478 1.368 . S
H463 C471 0.950 . S
H464 C469 0.950 . S
H465 C470 0.949 . S
H466 C472 0.950 . S
H467 C473 0.950 . S
H468 C474 0.949 . S
C469 H464 0.950 . S
C469 C471 1.327 . S
C469 C475 1.429 . S
C470 C462 1.574 . S
C470 H465 0.949 . S
C470 C476 1.368 . S
C471 C455 1.349 . S
C471 H463 0.950 . S
C471 C469 1.327 . S
C472 C460 1.349 . S
C472 H466 0.950 . S
C472 C473 1.327 . S
C473 H467 0.950 . S
C473 C472 1.327 . S
C473 C477 1.429 . S
C474 C457 1.574 . S
C474 H468 0.949 . S
C474 C478 1.368 . S
C475 C456 1.429 . S
C475 C469 1.429 . S
C475 C476 1.523 . S
C476 C457 1.368 . S
C476 C470 1.368 . S
C476 C475 1.523 . S
C477 C461 1.429 . S
C477 C473 1.429 . S
C477 C478 1.523 . S
C478 C462 1.368 . S
C478 C474 1.368 . S
C478 C477 1.523 . S
H479 C454 0.950 . S
H480 C456 0.950 . S
H481 C457 0.949 . S
H482 C459 0.950 . S
H483 C461 0.950 . S
C484 C485 1.349 . S
C484 C486 1.327 . S
C484 H509 0.950 . S
C485 C484 1.349 . S
C485 C501 1.349 . S
C486 C484 1.327 . S
C486 C505 1.429 . S
C486 H510 0.950 . S
C487 C504 1.574 . S
C487 C506 1.368 . S
C487 H511 0.949 . S
H488 C492 0.949 . S
C489 C490 1.349 . S
C489 C491 1.327 . S
C489 H512 0.950 . S
C490 C489 1.349 . S
C490 C502 1.349 . S
C491 C489 1.327 . S
C491 C507 1.429 . S
C491 H513 0.950 . S
C492 H488 0.949 . S
C492 C500 1.574 . S
C492 C508 1.368 . S
H493 C501 0.950 . S
H494 C499 0.950 . S
H495 C500 0.949 1_565 S
H496 C502 0.950 . S
H497 C503 0.950 . S
H498 C504 0.949 . S
C499 H494 0.950 . S
C499 C501 1.327 . S
C499 C505 1.429 . S
C500 C492 1.574 . S
C500 H495 0.949 1_545 S
C500 C506 1.368 . S
C501 C485 1.349 . S
C501 H493 0.950 . S
C501 C499 1.327 . S
C502 C490 1.349 . S
C502 H496 0.950 . S
C502 C503 1.327 . S
C503 H497 0.950 . S
C503 C502 1.327 . S
C503 C507 1.429 . S
C504 C487 1.574 . S
C504 H498 0.949 . S
C504 C508 1.368 . S
C505 C486 1.429 . S
C505 C499 1.429 . S
C505 C506 1.523 1_565 S
C506 C487 1.368 . S
C506 C500 1.368 . S
C506 C505 1.523 1_545 S
C507 C491 1.429 . S
C507 C503 1.429 . S
C507 C508 1.523 . S
C508 C492 1.368 . S
C508 C504 1.368 . S
C508 C507 1.523 . S
H509 C484 0.950 . S
H510 C486 0.950 . S
H511 C487 0.949 . S
H512 C489 0.950 . S
H513 C491 0.950 . S
C514 C515 1.349 . S
C514 C516 1.327 . S
C514 H539 0.950 . S
C515 C514 1.349 . S
C515 C531 1.349 . S
C516 C514 1.327 . S
C516 C535 1.429 . S
C516 H540 0.950 . S
C517 C534 1.574 . S
C517 C536 1.368 . S
C517 H541 0.949 . S
H518 C522 0.949 . S
C519 C520 1.349 . S
C519 C521 1.327 . S
C519 H542 0.950 . S
C520 C519 1.349 . S
C520 C532 1.349 . S
C521 C519 1.327 . S
C521 C537 1.429 . S
C521 H543 0.950 . S
C522 H518 0.949 . S
C522 C530 1.574 . S
C522 C538 1.368 . S
H523 C531 0.950 . S
H524 C529 0.950 . S
H525 C530 0.949 . S
H526 C532 0.950 . S
H527 C533 0.950 . S
H528 C534 0.949 . S
C529 H524 0.950 . S
C529 C531 1.327 . S
C529 C535 1.429 . S
C530 C522 1.574 . S
C530 H525 0.949 . S
C530 C536 1.368 . S
C531 C515 1.349 . S
C531 H523 0.950 . S
C531 C529 1.327 . S
C532 C520 1.349 . S
C532 H526 0.950 . S
C532 C533 1.327 . S
C533 H527 0.950 . S
C533 C532 1.327 . S
C533 C537 1.429 . S
C534 C517 1.574 . S
C534 H528 0.949 . S
C534 C538 1.368 . S
C535 C516 1.429 . S
C535 C529 1.429 . S
C535 C536 1.523 . S
C536 C517 1.368 . S
C536 C530 1.368 . S
C536 C535 1.523 . S
C537 C521 1.429 . S
C537 C533 1.429 . S
C537 C538 1.523 . S
C538 C522 1.368 . S
C538 C534 1.368 . S
C538 C537 1.523 . S
H539 C514 0.950 . S
H540 C516 0.950 . S
H541 C517 0.949 . S
H542 C519 0.950 . S
H543 C521 0.950 . S
C544 C545 1.349 . S
C544 C546 1.327 . S
C544 H569 0.950 . S
C545 C544 1.349 . S
C545 C561 1.349 . S
C546 C544 1.327 . S
C546 C565 1.429 . S
C546 H570 0.950 . S
C547 C564 1.574 . S
C547 C566 1.368 . S
C547 H571 0.949 . S
H548 C552 0.949 . S
C549 C550 1.349 . S
C549 C551 1.327 . S
C549 H572 0.950 . S
C550 C549 1.349 . S
C550 C562 1.349 . S
C551 C549 1.327 . S
C551 C567 1.429 . S
C551 H573 0.950 . S
C552 H548 0.949 . S
C552 C560 1.574 . S
C552 C568 1.368 . S
H553 C561 0.950 . S
H554 C559 0.950 . S
H555 C560 0.949 . S
H556 C562 0.950 . S
H557 C563 0.950 . S
H558 C564 0.949 . S
C559 H554 0.950 . S
C559 C561 1.327 . S
C559 C565 1.429 . S
C560 C552 1.574 . S
C560 H555 0.949 . S
C560 C566 1.368 . S
C561 C545 1.349 . S
C561 H553 0.950 . S
C561 C559 1.327 . S
C562 C550 1.349 . S
C562 H556 0.950 . S
C562 C563 1.327 . S
C563 H557 0.950 . S
C563 C562 1.327 . S
C563 C567 1.429 . S
C564 C547 1.574 . S
C564 H558 0.949 . S
C564 C568 1.368 . S
C565 C546 1.429 . S
C565 C559 1.429 . S
C565 C566 1.523 . S
C566 C547 1.368 . S
C566 C560 1.368 . S
C566 C565 1.523 . S
C567 C551 1.429 . S
C567 C563 1.429 . S
C567 C568 1.523 . S
C568 C552 1.368 . S
C568 C564 1.368 . S
C568 C567 1.523 . S
H569 C544 0.950 . S
H570 C546 0.950 . S
H571 C547 0.949 . S
H572 C549 0.950 . S
H573 C551 0.950 . S
C574 C575 1.349 . S
C574 C576 1.327 . S
C574 H599 0.950 . S
C575 C574 1.349 . S
C575 C591 1.349 . S
C576 C574 1.327 . S
C576 C595 1.429 . S
C576 H600 0.950 . S
C577 C594 1.574 . S
C577 C596 1.368 . S
C577 H601 0.949 . S
H578 C582 0.949 . S
C579 C580 1.349 . S
C579 C581 1.327 . S
C579 H602 0.950 . S
C580 C579 1.349 . S
C580 C592 1.349 . S
C581 C579 1.327 . S
C581 C597 1.429 . S
C581 H603 0.950 . S
C582 H578 0.949 . S
C582 C590 1.574 1_655 S
C582 C598 1.369 . S
H583 C591 0.950 . S
H584 C589 0.950 . S
H585 C590 0.949 . S
H586 C592 0.950 . S
H587 C593 0.950 . S
H588 C594 0.949 . S
C589 H584 0.950 . S
C589 C591 1.327 . S
C589 C595 1.429 . S
C590 C582 1.574 1_455 S
C590 H585 0.949 . S
C590 C596 1.368 . S
C591 C575 1.349 . S
C591 H583 0.950 . S
C591 C589 1.327 . S
C592 C580 1.349 . S
C592 H586 0.950 . S
C592 C593 1.327 . S
C593 H587 0.950 . S
C593 C592 1.327 . S
C593 C597 1.429 . S
C594 C577 1.574 . S
C594 H588 0.949 . S
C594 C598 1.366 1_455 S
C595 C576 1.429 . S
C595 C589 1.429 . S
C595 C596 1.523 . S
C596 C577 1.368 . S
C596 C590 1.368 . S
C596 C595 1.523 . S
C597 C581 1.429 . S
C597 C593 1.429 . S
C597 C598 1.525 . S
C598 C582 1.369 . S
C598 C594 1.366 1_655 S
C598 C597 1.525 . S
H599 C574 0.950 . S
H600 C576 0.950 . S
H601 C577 0.949 . S
H602 C579 0.950 . S
H603 C581 0.950 . S
C604 C605 1.349 . S
C604 C606 1.327 . S
C604 H629 0.950 . S
C605 C604 1.349 . S
C605 C621 1.349 . S
C606 C604 1.327 . S
C606 C625 1.429 . S
C606 H630 0.950 . S
C607 C624 1.574 . S
C607 C626 1.368 . S
C607 H631 0.949 . S
H608 C612 0.949 . S
C609 C610 1.349 . S
C609 C611 1.327 . S
C609 H632 0.950 . S
C610 C609 1.349 . S
C610 C622 1.349 . S
C611 C609 1.327 . S
C611 C627 1.429 . S
C611 H633 0.950 . S
C612 H608 0.949 . S
C612 C620 1.574 . S
C612 C628 1.368 . S
H613 C621 0.950 . S
H614 C619 0.950 . S
H615 C620 0.949 . S
H616 C622 0.950 . S
H617 C623 0.950 . S
H618 C624 0.949 . S
C619 H614 0.950 . S
C619 C621 1.327 . S
C619 C625 1.429 . S
C620 C612 1.574 . S
C620 H615 0.949 . S
C620 C626 1.368 . S
C621 C605 1.349 . S
C621 H613 0.950 . S
C621 C619 1.327 . S
C622 C610 1.349 . S
C622 H616 0.950 . S
C622 C623 1.327 . S
C623 H617 0.950 . S
C623 C622 1.327 . S
C623 C627 1.429 . S
C624 C607 1.574 . S
C624 H618 0.949 . S
C624 C628 1.368 . S
C625 C606 1.429 . S
C625 C619 1.429 . S
C625 C626 1.523 . S
C626 C607 1.368 . S
C626 C620 1.368 . S
C626 C625 1.523 . S
C627 C611 1.429 . S
C627 C623 1.429 . S
C627 C628 1.523 . S
C628 C612 1.368 . S
C628 C624 1.368 . S
C628 C627 1.523 . S
H629 C604 0.950 . S
H630 C606 0.950 . S
H631 C607 0.949 . S
H632 C609 0.950 . S
H633 C611 0.950 . S
C634 C635 1.349 . S
C634 C636 1.327 . S
C634 H659 0.950 . S
C635 C634 1.349 . S
C635 C651 1.349 . S
C636 C634 1.327 . S
C636 C655 1.429 . S
C636 H660 0.950 . S
C637 C654 1.574 . S
C637 C656 1.368 . S
C637 H661 0.949 . S
H638 C642 0.949 . S
C639 C640 1.349 . S
C639 C641 1.327 . S
C639 H662 0.950 . S
C640 C639 1.349 . S
C640 C652 1.349 . S
C641 C639 1.327 . S
C641 C657 1.429 . S
C641 H663 0.950 . S
C642 H638 0.949 . S
C642 C650 1.574 . S
C642 C658 1.368 . S
H643 C651 0.950 . S
H644 C649 0.950 . S
H645 C650 0.949 . S
H646 C652 0.950 . S
H647 C653 0.950 . S
H648 C654 0.949 . S
C649 H644 0.950 . S
C649 C651 1.327 . S
C649 C655 1.429 . S
C650 C642 1.574 . S
C650 H645 0.949 . S
C650 C656 1.368 . S
C651 C635 1.349 . S
C651 H643 0.950 . S
C651 C649 1.327 . S
C652 C640 1.349 . S
C652 H646 0.950 . S
C652 C653 1.327 . S
C653 H647 0.950 . S
C653 C652 1.327 . S
C653 C657 1.429 . S
C654 C637 1.574 . S
C654 H648 0.949 . S
C654 C658 1.368 . S
C655 C636 1.429 . S
C655 C649 1.429 . S
C655 C656 1.523 1_655 S
C656 C637 1.368 . S
C656 C650 1.368 . S
C656 C655 1.523 1_455 S
C657 C641 1.429 . S
C657 C653 1.429 . S
C657 C658 1.523 . S
C658 C642 1.368 . S
C658 C654 1.368 . S
C658 C657 1.523 . S
H659 C634 0.950 . S
H660 C636 0.950 . S
H661 C637 0.949 . S
H662 C639 0.950 . S
H663 C641 0.950 . S
C664 C665 1.349 . S
C664 C666 1.327 . S
C664 H689 0.950 . S
C665 C664 1.349 . S
C665 C681 1.349 . S
C666 C664 1.327 . S
C666 C685 1.429 . S
C666 H690 0.950 . S
C667 C684 1.574 . S
C667 C686 1.368 . S
C667 H691 0.949 . S
H668 C672 0.949 . S
C669 C670 1.349 . S
C669 C671 1.327 . S
C669 H692 0.950 . S
C670 C669 1.349 . S
C670 C682 1.349 . S
C671 C669 1.327 . S
C671 C687 1.429 . S
C671 H693 0.950 . S
C672 H668 0.949 . S
C672 C680 1.574 . S
C672 C688 1.368 . S
H673 C681 0.950 . S
H674 C679 0.950 . S
H675 C680 0.949 . S
H676 C682 0.950 . S
H677 C683 0.950 . S
H678 C684 0.949 . S
C679 H674 0.950 . S
C679 C681 1.327 . S
C679 C685 1.429 . S
C680 C672 1.574 . S
C680 H675 0.949 . S
C680 C686 1.368 . S
C681 C665 1.349 . S
C681 H673 0.950 . S
C681 C679 1.327 . S
C682 C670 1.349 . S
C682 H676 0.950 . S
C682 C683 1.327 . S
C683 H677 0.950 . S
C683 C682 1.327 . S
C683 C687 1.429 . S
C684 C667 1.574 . S
C684 H678 0.949 . S
C684 C688 1.368 . S
C685 C666 1.429 . S
C685 C679 1.429 . S
C685 C686 1.523 . S
C686 C667 1.368 . S
C686 C680 1.368 . S
C686 C685 1.523 . S
C687 C671 1.429 . S
C687 C683 1.429 . S
C687 C688 1.523 . S
C688 C672 1.368 . S
C688 C684 1.368 . S
C688 C687 1.523 . S
H689 C664 0.950 . S
H690 C666 0.950 . S
H691 C667 0.949 . S
H692 C669 0.950 . S
H693 C671 0.950 . S
C694 C695 1.349 . S
C694 C696 1.327 . S
C694 H719 0.950 . S
C695 C694 1.349 . S
C695 C711 1.349 . S
C696 C694 1.327 . S
C696 C715 1.429 . S
C696 H720 0.950 . S
C697 C714 1.574 . S
C697 C716 1.368 . S
C697 H721 0.949 . S
H698 C702 0.949 . S
C699 C700 1.349 . S
C699 C701 1.327 . S
C699 H722 0.950 . S
C700 C699 1.349 . S
C700 C712 1.349 . S
C701 C699 1.327 . S
C701 C717 1.429 . S
C701 H723 0.950 . S
C702 H698 0.949 . S
C702 C710 1.574 . S
C702 C718 1.368 . S
H703 C711 0.950 . S
H704 C709 0.950 . S
H705 C710 0.949 . S
H706 C712 0.950 . S
H707 C713 0.950 . S
H708 C714 0.949 . S
C709 H704 0.950 . S
C709 C711 1.327 . S
C709 C715 1.429 . S
C710 C702 1.574 . S
C710 H705 0.949 . S
C710 C716 1.368 . S
C711 C695 1.349 . S
C711 H703 0.950 . S
C711 C709 1.327 . S
C712 C700 1.349 . S
C712 H706 0.950 . S
C712 C713 1.327 . S
C713 H707 0.950 . S
C713 C712 1.327 . S
C713 C717 1.429 . S
C714 C697 1.574 . S
C714 H708 0.949 . S
C714 C718 1.368 . S
C715 C696 1.429 . S
C715 C709 1.429 . S
C715 C716 1.523 . S
C716 C697 1.368 . S
C716 C710 1.368 . S
C716 C715 1.523 . S
C717 C701 1.429 . S
C717 C713 1.429 . S
C717 C718 1.523 . S
C718 C702 1.368 . S
C718 C714 1.368 . S
C718 C717 1.523 . S
H719 C694 0.950 . S
H720 C696 0.950 . S
H721 C697 0.949 . S
H722 C699 0.950 . S
H723 C701 0.950 . S
C724 C725 1.349 . S
C724 C726 1.327 . S
C724 H749 0.950 . S
C725 C724 1.349 . S
C725 C741 1.349 . S
C726 C724 1.327 . S
C726 C745 1.429 . S
C726 H750 0.950 . S
C727 C744 1.574 . S
C727 C746 1.368 . S
C727 H751 0.949 . S
H728 C732 0.949 . S
C729 C730 1.349 . S
C729 C731 1.327 . S
C729 H752 0.950 . S
C730 C729 1.349 . S
C730 C742 1.349 . S
C731 C729 1.327 . S
C731 C747 1.429 . S
C731 H753 0.950 . S
C732 H728 0.949 . S
C732 C740 1.574 . S
C732 C748 1.368 . S
H733 C741 0.950 . S
H734 C739 0.950 . S
H735 C740 0.949 . S
H736 C742 0.950 . S
H737 C743 0.950 . S
H738 C744 0.949 . S
C739 H734 0.950 . S
C739 C741 1.327 . S
C739 C745 1.429 . S
C740 C732 1.574 . S
C740 H735 0.949 . S
C740 C746 1.368 . S
C741 C725 1.349 . S
C741 H733 0.950 . S
C741 C739 1.327 . S
C742 C730 1.349 . S
C742 H736 0.950 . S
C742 C743 1.327 . S
C743 H737 0.950 . S
C743 C742 1.327 . S
C743 C747 1.429 . S
C744 C727 1.574 . S
C744 H738 0.949 . S
C744 C748 1.368 . S
C745 C726 1.429 . S
C745 C739 1.429 . S
C745 C746 1.523 . S
C746 C727 1.368 . S
C746 C740 1.368 . S
C746 C745 1.523 . S
C747 C731 1.429 . S
C747 C743 1.429 . S
C747 C748 1.523 . S
C748 C732 1.368 . S
C748 C744 1.368 . S
C748 C747 1.523 . S
H749 C724 0.950 . S
H750 C726 0.950 . S
H751 C727 0.949 . S
H752 C729 0.950 . S
H753 C731 0.950 . S
C754 C755 1.349 . S
C754 C756 1.327 . S
C754 H779 0.950 . S
C755 C754 1.349 . S
C755 C771 1.349 . S
C756 C754 1.327 . S
C756 C775 1.429 . S
C756 H780 0.950 . S
C757 C774 1.574 . S
C757 C776 1.368 . S
C757 H781 0.949 . S
H758 C762 0.949 . S
C759 C760 1.349 . S
C759 C761 1.327 . S
C759 H782 0.950 . S
C760 C759 1.349 . S
C760 C772 1.349 . S
C761 C759 1.327 . S
C761 C777 1.429 . S
C761 H783 0.950 . S
C762 H758 0.949 . S
C762 C770 1.574 . S
C762 C778 1.368 . S
H763 C771 0.950 . S
H764 C769 0.950 . S
H765 C770 0.949 . S
H766 C772 0.950 . S
H767 C773 0.950 . S
H768 C774 0.949 . S
C769 H764 0.950 . S
C769 C771 1.327 . S
C769 C775 1.429 . S
C770 C762 1.574 . S
C770 H765 0.949 . S
C770 C776 1.368 . S
C771 C755 1.349 . S
C771 H763 0.950 . S
C771 C769 1.327 . S
C772 C760 1.349 . S
C772 H766 0.950 . S
C772 C773 1.327 . S
C773 H767 0.950 . S
C773 C772 1.327 . S
C773 C777 1.429 . S
C774 C757 1.574 . S
C774 H768 0.949 . S
C774 C778 1.368 . S
C775 C756 1.429 . S
C775 C769 1.429 . S
C775 C776 1.523 . S
C776 C757 1.368 . S
C776 C770 1.368 . S
C776 C775 1.523 . S
C777 C761 1.429 . S
C777 C773 1.429 . S
C777 C778 1.523 . S
C778 C762 1.368 . S
C778 C774 1.368 . S
C778 C777 1.523 . S
H779 C754 0.950 . S
H780 C756 0.950 . S
H781 C757 0.949 . S
H782 C759 0.950 . S
H783 C761 0.950 . S
C784 C785 1.349 . S
C784 C786 1.327 . S
C784 H809 0.950 . S
C785 C784 1.349 . S
C785 C801 1.349 . S
C786 C784 1.327 . S
C786 C805 1.429 . S
C786 H810 0.950 . S
C787 C804 1.574 . S
C787 C806 1.368 . S
C787 H811 0.949 . S
H788 C792 0.949 . S
C789 C790 1.349 . S
C789 C791 1.327 . S
C789 H812 0.950 . S
C790 C789 1.349 . S
C790 C802 1.349 . S
C791 C789 1.327 . S
C791 C807 1.429 . S
C791 H813 0.950 . S
C792 H788 0.949 . S
C792 C800 1.574 . S
C792 C808 1.368 . S
H793 C801 0.950 . S
H794 C799 0.950 . S
H795 C800 0.949 . S
H796 C802 0.950 . S
H797 C803 0.950 . S
H798 C804 0.949 . S
C799 H794 0.950 . S
C799 C801 1.327 . S
C799 C805 1.429 . S
C800 C792 1.574 . S
C800 H795 0.949 . S
C800 C806 1.368 . S
C801 C785 1.349 . S
C801 H793 0.950 . S
C801 C799 1.327 . S
C802 C790 1.349 . S
C802 H796 0.950 . S
C802 C803 1.327 . S
C803 H797 0.950 . S
C803 C802 1.327 . S
C803 C807 1.429 . S
C804 C787 1.574 . S
C804 H798 0.949 . S
C804 C808 1.368 . S
C805 C786 1.429 . S
C805 C799 1.429 . S
C805 C806 1.523 . S
C806 C787 1.368 . S
C806 C800 1.368 . S
C806 C805 1.523 . S
C807 C791 1.429 . S
C807 C803 1.429 . S
C807 C808 1.523 . S
C808 C792 1.368 . S
C808 C804 1.368 . S
C808 C807 1.523 . S
H809 C784 0.950 . S
H810 C786 0.950 . S
H811 C787 0.949 . S
H812 C789 0.950 . S
H813 C791 0.950 . S
C814 C815 1.349 . S
C814 C816 1.327 . S
C814 H839 0.950 . S
C815 C814 1.349 . S
C815 C831 1.349 1_556 S
C816 C814 1.327 . S
C816 C835 1.429 . S
C816 H840 0.950 . S
C817 C834 1.574 . S
C817 C836 1.368 . S
C817 H841 0.949 . S
H818 C822 0.949 . S
C819 C820 1.349 . S
C819 C821 1.327 . S
C819 H842 0.950 . S
C820 C819 1.349 . S
C820 C832 1.349 . S
C821 C819 1.327 . S
C821 C837 1.429 . S
C821 H843 0.950 . S
C822 H818 0.949 . S
C822 C830 1.574 . S
C822 C838 1.368 . S
H823 C831 0.950 . S
H824 C829 0.950 . S
H825 C830 0.949 . S
H826 C832 0.950 . S
H827 C833 0.950 . S
H828 C834 0.949 . S
C829 H824 0.950 . S
C829 C831 1.327 1_556 S
C829 C835 1.429 . S
C830 C822 1.574 . S
C830 H825 0.949 . S
C830 C836 1.368 . S
C831 C815 1.349 1_554 S
C831 H823 0.950 . S
C831 C829 1.327 1_554 S
C832 C820 1.349 . S
C832 H826 0.950 . S
C832 C833 1.327 . S
C833 H827 0.950 . S
C833 C832 1.327 . S
C833 C837 1.429 . S
C834 C817 1.574 . S
C834 H828 0.949 . S
C834 C838 1.368 . S
C835 C816 1.429 . S
C835 C829 1.429 . S
C835 C836 1.523 . S
C836 C817 1.368 . S
C836 C830 1.368 . S
C836 C835 1.523 . S
C837 C821 1.429 . S
C837 C833 1.429 . S
C837 C838 1.523 . S
C838 C822 1.368 . S
C838 C834 1.368 . S
C838 C837 1.523 . S
H839 C814 0.950 . S
H840 C816 0.950 . S
H841 C817 0.949 . S
H842 C819 0.950 . S
H843 C821 0.950 . S
C844 C845 1.349 . S
C844 C846 1.327 . S
C844 H869 0.950 . S
C845 C844 1.349 . S
C845 C861 1.349 . S
C846 C844 1.327 . S
C846 C865 1.429 . S
C846 H870 0.950 . S
C847 C864 1.574 . S
C847 C866 1.368 . S
C847 H871 0.949 . S
H848 C852 0.949 . S
C849 C850 1.349 . S
C849 C851 1.327 . S
C849 H872 0.950 . S
C850 C849 1.349 . S
C850 C862 1.349 . S
C851 C849 1.327 . S
C851 C867 1.429 . S
C851 H873 0.950 . S
C852 H848 0.949 . S
C852 C860 1.574 . S
C852 C868 1.368 . S
H853 C861 0.950 . S
H854 C859 0.950 . S
H855 C860 0.949 . S
H856 C862 0.950 . S
H857 C863 0.950 . S
H858 C864 0.949 . S
C859 H854 0.950 . S
C859 C861 1.327 . S
C859 C865 1.429 . S
C860 C852 1.574 . S
C860 H855 0.949 . S
C860 C866 1.368 . S
C861 C845 1.349 . S
C861 H853 0.950 . S
C861 C859 1.327 . S
C862 C850 1.349 . S
C862 H856 0.950 . S
C862 C863 1.327 . S
C863 H857 0.950 . S
C863 C862 1.327 . S
C863 C867 1.429 . S
C864 C847 1.574 . S
C864 H858 0.949 . S
C864 C868 1.368 . S
C865 C846 1.429 . S
C865 C859 1.429 . S
C865 C866 1.523 . S
C866 C847 1.368 . S
C866 C860 1.368 . S
C866 C865 1.523 . S
C867 C851 1.429 . S
C867 C863 1.429 . S
C867 C868 1.523 . S
C868 C852 1.368 . S
C868 C864 1.368 . S
C868 C867 1.523 . S
H869 C844 0.950 . S
H870 C846 0.950 . S
H871 C847 0.949 . S
H872 C849 0.950 . S
H873 C851 0.950 . S
C874 C875 1.349 . S
C874 C876 1.327 . S
C874 H899 0.950 . S
C875 C874 1.349 . S
C875 C891 1.349 . S
C876 C874 1.327 . S
C876 C895 1.429 . S
C876 H900 0.950 . S
C877 C894 1.574 . S
C877 C896 1.368 . S
C877 H901 0.949 . S
H878 C882 0.949 . S
C879 C880 1.349 . S
C879 C881 1.327 . S
C879 H902 0.950 . S
C880 C879 1.349 . S
C880 C892 1.349 . S
C881 C879 1.327 . S
C881 C897 1.429 . S
C881 H903 0.950 . S
C882 H878 0.949 . S
C882 C890 1.574 . S
C882 C898 1.368 . S
H883 C891 0.950 . S
H884 C889 0.950 . S
H885 C890 0.949 . S
H886 C892 0.950 . S
H887 C893 0.950 . S
H888 C894 0.949 . S
C889 H884 0.950 . S
C889 C891 1.327 . S
C889 C895 1.429 . S
C890 C882 1.574 . S
C890 H885 0.949 . S
C890 C896 1.368 . S
C891 C875 1.349 . S
C891 H883 0.950 . S
C891 C889 1.327 . S
C892 C880 1.349 . S
C892 H886 0.950 . S
C892 C893 1.327 . S
C893 H887 0.950 . S
C893 C892 1.327 . S
C893 C897 1.429 . S
C894 C877 1.574 . S
C894 H888 0.949 . S
C894 C898 1.368 . S
C895 C876 1.429 . S
C895 C889 1.429 . S
C895 C896 1.523 . S
C896 C877 1.368 . S
C896 C890 1.368 . S
C896 C895 1.523 . S
C897 C881 1.429 . S
C897 C893 1.429 . S
C897 C898 1.523 . S
C898 C882 1.368 . S
C898 C894 1.368 . S
C898 C897 1.523 . S
H899 C874 0.950 . S
H900 C876 0.950 . S
H901 C877 0.949 . S
H902 C879 0.950 . S
H903 C881 0.950 . S
C185 C7 1.333 . S
C190 C97 1.278 . S
C215 C37 1.382 . S
C220 C109 1.354 . S
C245 C54 1.303 . S
C250 C121 1.261 . S
C280 C130 1.199 . S
C275 C87 1.225 . S
C310 C145 1.233 . S
C305 C30 1.295 . S
C335 C51 1.235 . S
C340 C154 1.208 . S
C365 C84 1.315 . S
C370 C169 1.275 . S
C395 C10 1.383 . S
C400 C181 1.343 . S
C425 C59 1.247 1_556 S
C430 C178 1.233 . S
C460 C142 1.206 . S
C455 C74 1.213 . S
C490 C157 1.276 . S
C485 C18 1.309 . S
C515 C32 1.208 . S
C520 C166 1.168 . S
C550 C106 1.185 . S
C545 C73 1.198 . S
C575 C15 1.247 . S
C580 C118 1.208 . S
C610 C133 1.318 . S
C605 C43 1.341 . S
C640 C94 1.196 . S
C635 C62 1.204 . S
C670 C164 1.323 . S
C665 C21 1.330 . S
C700 C176 1.375 . S
C695 C29 1.392 . S
C725 C52 1.324 . S
C730 C140 1.314 . S
C760 C152 1.330 . S
C755 C81 1.349 . S
C790 C116 1.332 . S
C785 C40 1.349 . S
C815 C65 1.350 1_556 S
C820 C128 1.332 . S
C850 C92 1.328 . S
C845 C76 1.339 . S
C880 C104 1.335 . S
C875 C8 1.354 . S
