# Generated by pormake.
# Topology tsx, (6,3)-cn, num edge types: 1
# Building blocks:
#     Node 0, Type 0, BuildingBlock: FUNLAD_clean_sbu_0, # of connection points: 6
#     Node 1, Type 0, BuildingBlock: FUNLAD_clean_sbu_0, # of connection points: 6
#     Node 2, Type 1, BuildingBlock: BELTOD_clean_linker_0, # of connection points: 3
#     Node 3, Type 1, BuildingBlock: BELTOD_clean_linker_0, # of connection points: 3
#     Node 4, Type 1, BuildingBlock: BELTOD_clean_linker_0, # of connection points: 3
#     Node 5, Type 1, BuildingBlock: BELTOD_clean_linker_0, # of connection points: 3
#     Edge 6, Type (0, 1), BuildingBlock: ZUJKAS_clean_linker_0, # of connection points: 2
#     Edge 7, Type (0, 1), BuildingBlock: ZUJKAS_clean_linker_0, # of connection points: 2
#     Edge 8, Type (0, 1), BuildingBlock: ZUJKAS_clean_linker_0, # of connection points: 2
#     Edge 9, Type (0, 1), BuildingBlock: ZUJKAS_clean_linker_0, # of connection points: 2
#     Edge 10, Type (0, 1), BuildingBlock: ZUJKAS_clean_linker_0, # of connection points: 2
#     Edge 11, Type (0, 1), BuildingBlock: ZUJKAS_clean_linker_0, # of connection points: 2
#     Edge 12, Type (0, 1), BuildingBlock: ZUJKAS_clean_linker_0, # of connection points: 2
#     Edge 13, Type (0, 1), BuildingBlock: ZUJKAS_clean_linker_0, # of connection points: 2
#     Edge 14, Type (0, 1), BuildingBlock: ZUJKAS_clean_linker_0, # of connection points: 2
#     Edge 15, Type (0, 1), BuildingBlock: ZUJKAS_clean_linker_0, # of connection points: 2
#     Edge 16, Type (0, 1), BuildingBlock: ZUJKAS_clean_linker_0, # of connection points: 2
#     Edge 17, Type (0, 1), BuildingBlock: ZUJKAS_clean_linker_0, # of connection points: 2
# Relax obj value: 0.152
# Max RMSD: 0.149
# Mean RMSD: 0.084
data_MOF--net-tsx--node1-FUNLAD_clean_sbu_0--node2-BELTOD_clean_linker_0--edge1-ZUJKAS_clean_linker_0
_symmetry_space_group_name_H-M    P1
_symmetry_Int_Tables_number       1
_symmetry_cell_setting            triclinic
loop_
_symmetry_equiv_pos_as_xyz
'x, y, z'
_cell_length_a     27.263138
_cell_length_b     30.293673
_cell_length_c     56.675812
_cell_angle_alpha  91.721676
_cell_angle_beta   92.103478
_cell_angle_gamma 89.879428
loop_
_atom_site_label
_atom_site_type_symbol
_atom_site_fract_x
_atom_site_fract_y
_atom_site_fract_z
_atom_type_partial_charge
C0 C 0.89363 0.93603 0.00177 0.0
N1 N 0.9682 -7e-05 0.05943 0.0
C2 C 0.92591 0.0029 0.07142 0.0
C3 C 0.92746 0.00441 0.09613 0.0
C4 C 0.97294 0.00249 0.10855 0.0
C5 C 0.01587 -0.00098 0.09568 0.0
C6 C 0.01266 -0.00206 0.07106 0.0
Zn7 Zn 0.96665 -0.00037 0.02331 0.0
C8 C 0.03637 0.93491 0.00337 0.0
N9 N 0.96521 -0.00033 0.94789 0.0
C10 C 0.92325 -0.00297 0.93415 0.0
C11 C 0.01002 6e-05 0.9381 0.0
C12 C 0.01402 0.9969 0.91368 0.0
C13 C 0.97153 0.99299 0.89902 0.0
C14 C 0.92557 0.9937 0.90952 0.0
Zn15 Zn 0.96417 0.00031 0.98399 0.0
O16 O 0.91085 0.95118 0.02155 0.0
C17 C 0.89472 0.0651 0.00398 0.0
O18 O 0.9097 0.95076 0.98276 0.0
H19 H 0.04299 0.00215 0.94927 0.0
H20 H 0.89094 0.00436 0.06182 0.0
H21 H 0.888 0.99667 0.94231 0.0
O22 O 0.913 0.05018 0.02311 0.0
O23 O 0.90925 0.04968 0.9843 0.0
H24 H 0.04588 0.99595 0.06123 0.0
O25 O 0.01885 0.04998 0.9858 0.0
O26 O 0.02258 0.04792 0.02445 0.0
O27 O 0.01906 0.95077 0.98432 0.0
O28 O 0.02049 0.94915 0.02295 0.0
C29 C 0.03766 0.06365 0.0055 0.0
H30 H 0.89348 0.0068 0.1054 0.0
H31 H 0.05172 -0.00186 0.10454 0.0
H32 H 0.05016 -0.00265 0.90638 0.0
H33 H 0.89189 0.99048 0.89889 0.0
C34 C 0.40955 0.43318 0.50038 0.0
N35 N 0.48046 0.49891 0.55868 0.0
C36 C 0.4381 0.4994 0.57067 0.0
C37 C 0.43961 0.49983 0.59539 0.0
C38 C 0.48515 0.49946 0.60786 0.0
C39 C 0.52817 0.49882 0.59497 0.0
C40 C 0.52498 0.49865 0.57035 0.0
Zn41 Zn 0.47932 0.49901 0.52245 0.0
C42 C 0.55281 0.43641 0.50286 0.0
N43 N 0.48057 0.49922 0.44686 0.0
C44 C 0.43847 0.4965 0.43323 0.0
C45 C 0.52518 0.50089 0.43691 0.0
C46 C 0.52877 0.49929 0.41242 0.0
C47 C 0.48609 0.49568 0.39785 0.0
C48 C 0.44039 0.4947 0.40857 0.0
Zn49 Zn 0.47921 0.49929 0.48305 0.0
O50 O 0.42555 0.44874 0.52029 0.0
C51 C 0.40621 0.56227 0.50256 0.0
O52 O 0.42601 0.44826 0.48152 0.0
H53 H 0.55826 0.50311 0.448 0.0
H54 H 0.40308 0.49953 0.56106 0.0
H55 H 0.40338 0.49514 0.44149 0.0
O56 O 0.4234 0.5477 0.522 0.0
O57 O 0.42287 0.54737 0.4832 0.0
H58 H 0.55826 0.49855 0.56054 0.0
O59 O 0.53241 0.55014 0.48522 0.0
O60 O 0.53302 0.54952 0.5239 0.0
O61 O 0.53566 0.45149 0.48358 0.0
O62 O 0.53545 0.45022 0.52223 0.0
C63 C 0.54902 0.5651 0.5051 0.0
H64 H 0.40553 0.5 0.60464 0.0
H65 H 0.56405 0.49926 0.60383 0.0
H66 H 0.56473 0.50094 0.405 0.0
H67 H 0.40655 0.49153 0.39805 0.0
P68 P 0.10368 0.09426 0.43688 0.0
H69 H 0.09874 0.1671 0.47187 0.0
H70 H 0.02953 0.20497 0.49004 0.0
H71 H 0.92926 0.11384 0.45341 0.0
H72 H 0.99853 0.07616 0.4354 0.0
H73 H 0.1962 0.04722 0.43576 0.0
H74 H 0.22336 0.97627 0.45095 0.0
H75 H 0.08257 0.95921 0.48203 0.0
H76 H 0.05576 0.03051 0.46698 0.0
H77 H 0.08727 0.15118 0.39693 0.0
H78 H 0.07652 0.01219 0.41036 0.0
O79 O 0.15041 0.12978 0.43721 0.0
H80 H 0.06258 0.13648 0.35547 0.0
H81 H 0.05159 -0.00267 0.3691 0.0
C82 C 0.05353 0.11938 0.452 0.0
C83 C 0.06189 0.15511 0.4679 0.0
C84 C 0.02237 0.17673 0.47824 0.0
C85 C 0.974 0.1625 0.47303 0.0
C86 C 0.96611 0.12535 0.45791 0.0
C87 C 0.00559 0.10402 0.44745 0.0
C88 C 0.1243 0.0444 0.4505 0.0
C89 C 0.17143 0.02852 0.44613 0.0
C90 C 0.18675 0.98785 0.45467 0.0
C91 C 0.15497 0.96215 0.46759 0.0
C92 C 0.10796 0.9785 0.4723 0.0
C93 C 0.09259 0.01923 0.46365 0.0
C94 C 0.08477 0.08275 0.40658 0.0
C95 C 0.07965 0.11752 0.39093 0.0
C96 C 0.06516 0.1091 0.36731 0.0
C97 C 0.05543 0.06568 0.35898 0.0
C98 C 0.05962 0.03102 0.37489 0.0
C99 C 0.07388 0.03953 0.39852 0.0
P100 P 0.10184 0.91758 0.57356 0.0
H101 H 0.08443 0.8446 0.53913 0.0
H102 H 0.00906 0.80851 0.5238 0.0
H103 H 0.92301 0.90405 0.56255 0.0
H104 H 0.99838 0.93978 0.57785 0.0
H105 H 0.1773 0.98198 0.58614 0.0
H106 H 0.20005 0.05231 0.56942 0.0
H107 H 0.08527 0.03559 0.51543 0.0
H108 H 0.06242 0.96519 0.53219 0.0
H109 H 0.10804 0.8593 0.61356 0.0
H110 H 0.06907 0.9949 0.60124 0.0
O111 O 0.1484 0.88225 0.5706 0.0
H112 H 0.08755 0.86933 0.65503 0.0
H113 H 0.05004 0.00567 0.64273 0.0
C114 C 0.04686 0.89409 0.56008 0.0
C115 C 0.04933 0.85792 0.54418 0.0
C116 C 0.00625 0.83753 0.5353 0.0
C117 C 0.96018 0.85314 0.54224 0.0
C118 C 0.95801 0.89081 0.55727 0.0
C119 C 0.00103 0.91124 0.566 0.0
C120 C 0.11804 0.96862 0.56054 0.0
C121 C 0.15699 0.99347 0.57072 0.0
C122 C 0.16979 0.03362 0.56125 0.0
C123 C 0.14424 0.04917 0.5412 0.0
C124 C 0.10562 0.02397 0.53079 0.0
C125 C 0.09243 0.98396 0.54047 0.0
C126 C 0.09127 0.92661 0.60449 0.0
C127 C 0.096 0.89147 0.61991 0.0
C128 C 0.08435 0.89731 0.64361 0.0
C129 C 0.06734 0.93839 0.65226 0.0
C130 C 0.06261 0.97351 0.63665 0.0
C131 C 0.07414 0.96756 0.61295 0.0
P132 P 0.58878 0.58879 0.93899 0.0
H133 H 0.57217 0.65161 0.97794 0.0
H134 H 0.4981 0.68816 0.99197 0.0
H135 H 0.41054 0.61285 0.93996 0.0
H136 H 0.48474 0.57724 0.92583 0.0
H137 H 0.68285 0.54596 0.94652 0.0
H138 H 0.70821 0.47957 0.96698 0.0
H139 H 0.55884 0.45894 0.98709 0.0
H140 H 0.53351 0.52546 0.96624 0.0
H141 H 0.57697 0.64415 0.89828 0.0
H142 H 0.57723 0.50473 0.91156 0.0
O143 O 0.63391 0.62588 0.94198 0.0
H144 H 0.56085 0.62808 0.85616 0.0
H145 H 0.56067 0.48838 0.86951 0.0
C146 C 0.53398 0.61292 0.95039 0.0
C147 C 0.537 0.64314 0.96957 0.0
C148 C 0.49459 0.66365 0.9777 0.0
C149 C 0.44851 0.65385 0.96683 0.0
C150 C 0.4456 0.62187 0.94832 0.0
C151 C 0.48798 0.60146 0.94024 0.0
C152 C 0.6066 0.54101 0.95524 0.0
C153 C 0.65564 0.52743 0.95553 0.0
C154 C 0.67009 0.48961 0.96735 0.0
C155 C 0.63561 0.46445 0.97897 0.0
C156 C 0.5862 0.47781 0.97837 0.0
C157 C 0.57179 0.51591 0.96658 0.0
C158 C 0.57906 0.57569 0.90796 0.0
C159 C 0.57383 0.61006 0.89208 0.0
C160 C 0.56417 0.60082 0.86806 0.0
C161 C 0.55947 0.55693 0.85947 0.0
C162 C 0.56472 0.5225 0.87551 0.0
C163 C 0.57415 0.53183 0.89958 0.0
P164 P 0.59219 0.41502 0.07027 0.0
H165 H 0.57651 0.3421 0.03575 0.0
H166 H 0.5023 0.3044 0.02049 0.0
H167 H 0.41382 0.3996 0.05835 0.0
H168 H 0.48828 0.43562 0.07431 0.0
H169 H 0.68728 0.45381 0.06236 0.0
H170 H 0.71227 0.51984 0.04236 0.0
H171 H 0.56048 0.54826 0.02404 0.0
H172 H 0.53562 0.48241 0.04445 0.0
H173 H 0.55212 0.36292 0.10704 0.0
H174 H 0.60698 0.49534 0.10076 0.0
O175 O 0.63763 0.37807 0.0695 0.0
H176 H 0.53379 0.37912 0.14828 0.0
H177 H 0.58851 0.51185 0.14206 0.0
C178 C 0.53776 0.39075 0.05665 0.0
C179 C 0.54111 0.35472 0.04074 0.0
C180 C 0.49856 0.33352 0.03183 0.0
C181 C 0.452 0.34855 0.03848 0.0
C182 C 0.44904 0.38641 0.05336 0.0
C183 C 0.49156 0.4072 0.06241 0.0
C184 C 0.60974 0.46278 0.05454 0.0
C185 C 0.65939 0.47401 0.05387 0.0
C186 C 0.67362 0.51164 0.04231 0.0
C187 C 0.63834 0.5389 0.03134 0.0
C188 C 0.58845 0.52784 0.03232 0.0
C189 C 0.57426 0.49005 0.04387 0.0
C190 C 0.58043 0.42798 0.10078 0.0
C191 C 0.56011 0.39553 0.11455 0.0
C192 C 0.54939 0.40492 0.13807 0.0
C193 C 0.55929 0.4469 0.14838 0.0
C194 C 0.58063 0.47916 0.13464 0.0
C195 C 0.59103 0.46979 0.11099 0.0
H196 H 0.09316 0.09199 0.04405 0.0
H197 H 0.16197 0.14378 0.04511 0.0
H198 H 0.14214 0.16109 0.97015 0.0
H199 H 0.0733 0.10902 0.96878 0.0
H200 H 0.25045 0.13215 0.01148 0.0
H201 H 0.14481 0.28977 0.00726 0.0
H202 H 0.11923 0.24072 0.01936 0.0
H203 H 0.12634 0.24359 0.98816 0.0
C204 C 0.10316 0.10698 0.0278 0.0
C205 C 0.07778 0.09642 0.00633 0.0
C206 C 0.14249 0.13645 0.02844 0.0
C207 C 0.15676 0.15614 0.00773 0.0
C208 C 0.13129 0.14623 0.98631 0.0
H209 H 0.42929 0.30673 0.9957 0.0
H210 H 0.3573 0.26067 0.98541 0.0
C211 C 0.0921 0.1165 0.98559 0.0
C212 C 0.19935 0.18609 0.00856 0.0
H213 H 0.23097 0.29508 0.01117 0.0
C214 C 0.24641 0.16776 0.01113 0.0
C215 C 0.1935 0.23238 0.00817 0.0
C216 C 0.14334 0.25315 0.00566 0.0
C217 C 0.28805 0.19478 0.01381 0.0
C218 C 0.28217 0.24113 0.01388 0.0
C219 C 0.23514 0.25946 0.0109 0.0
C220 C 0.32408 0.27092 0.0192 0.0
C221 C 0.3379 0.17382 0.01745 0.0
C222 C 0.32859 0.29215 0.04145 0.0
C223 C 0.36971 0.31791 0.04749 0.0
C224 C 0.40697 0.3233 0.03128 0.0
C225 C 0.40162 0.3028 0.0087 0.0
C226 C 0.36048 0.27672 0.00274 0.0
H227 H 0.33557 0.13748 0.01928 0.0
H228 H 0.36071 0.1806 0.00215 0.0
H229 H 0.35691 0.1884 0.0335 0.0
H230 H 0.30088 0.28773 0.05441 0.0
H231 H 0.37295 0.33244 0.06517 0.0
H232 H 0.0732 0.89364 0.9644 0.0
H233 H 0.14003 0.84 0.96299 0.0
H234 H 0.15534 0.84599 0.03902 0.0
H235 H 0.08838 0.90001 0.04066 0.0
H236 H 0.24446 0.8563 0.01483 0.0
H237 H 0.13989 0.70913 0.98145 0.0
H238 H 0.1283 0.75757 0.9646 0.0
H239 H 0.1108 0.75679 0.99487 0.0
C240 C 0.09043 0.88332 0.98086 0.0
C241 C 0.07541 0.90101 0.00265 0.0
C242 C 0.12842 0.85246 0.98002 0.0
C243 C 0.15204 0.83861 1.00092 0.0
C244 C 0.1372 0.85607 0.02272 0.0
H245 H 0.42028 0.67646 0.01161 0.0
H246 H 0.34769 0.71918 0.02271 0.0
C247 C 0.09896 0.88685 0.02361 0.0
C248 C 0.19403 0.80777 0.99971 0.0
H249 H 0.22709 0.70611 0.97814 0.0
C250 C 0.24072 0.82317 0.00718 0.0
C251 C 0.18879 0.76466 0.98973 0.0
C252 C 0.13918 0.74581 0.9824 0.0
C253 C 0.28282 0.79736 0.00374 0.0
C254 C 0.27775 0.75481 0.99296 0.0
C255 C 0.23081 0.73881 0.98634 0.0
C256 C 0.32086 0.72774 0.98672 0.0
C257 C 0.33251 0.81665 0.01058 0.0
C258 C 0.32908 0.71762 0.96289 0.0
C259 C 0.37023 0.69326 0.95653 0.0
C260 C 0.40396 0.67835 0.9739 0.0
C261 C 0.39528 0.68799 0.99783 0.0
C262 C 0.3539 0.71235 0.00419 0.0
H263 H 0.33063 0.85281 0.01434 0.0
H264 H 0.34722 0.80068 0.02672 0.0
H265 H 0.35876 0.81038 0.99632 0.0
H266 H 0.30403 0.7293 0.94915 0.0
H267 H 0.37621 0.68698 0.93794 0.0
H268 H 0.84871 0.89994 0.03887 0.0
H269 H 0.79623 0.83461 0.03795 0.0
H270 H 0.80471 0.82406 0.96217 0.0
H271 H 0.85687 0.88984 0.96282 0.0
H272 H 0.70833 0.80571 0.98056 0.0
H273 H 0.86081 0.71268 0.02374 0.0
H274 H 0.84449 0.76282 0.03928 0.0
H275 H 0.86976 0.76536 0.0105 0.0
C276 C 0.83899 0.88409 0.02196 0.0
C277 C 0.85751 0.89969 1.00095 0.0
C278 C 0.80903 0.84679 0.02148 0.0
C279 C 0.79735 0.82428 1.00003 0.0
C280 C 0.81353 0.84101 0.97889 0.0
H281 H 0.71524 0.54927 0.00254 0.0
H282 H 0.7486 0.61847 0.98913 0.0
C283 C 0.84343 0.87848 0.97932 0.0
C284 C 0.77161 0.78145 1.00001 0.0
H285 H 0.78327 0.67749 0.02075 0.0
C286 C 0.72465 0.77746 0.98917 0.0
C287 C 0.79361 0.74457 0.01083 0.0
C288 C 0.84513 0.74626 0.02156 0.0
C289 C 0.69828 0.73769 0.98965 0.0
C290 C 0.71942 0.70145 0.00151 0.0
C291 C 0.76701 0.70527 0.01168 0.0
C292 C 0.69274 0.65966 0.00478 0.0
C293 C 0.64837 0.73473 0.97735 0.0
C294 C 0.64925 0.65967 0.01728 0.0
C295 C 0.62967 0.61999 0.02466 0.0
C296 C 0.6539 0.57981 0.02007 0.0
C297 C 0.69596 0.57975 0.00648 0.0
C298 C 0.71497 0.61924 0.99875 0.0
H299 H 0.64391 0.75973 0.96348 0.0
H300 H 0.64217 0.70144 0.96911 0.0
H301 H 0.61967 0.74095 0.99043 0.0
H302 H 0.63207 0.69044 0.02263 0.0
H303 H 0.59746 0.62113 0.03529 0.0
H304 H 0.84383 0.10114 0.9668 0.0
H305 H 0.79042 0.16604 0.96777 0.0
H306 H 0.81132 0.17709 0.0435 0.0
H307 H 0.86406 0.11168 0.04281 0.0
H308 H 0.71374 0.19522 0.02719 0.0
H309 H 0.85287 0.28831 0.97976 0.0
H310 H 0.8328 0.23837 0.96454 0.0
H311 H 0.86582 0.23552 0.99252 0.0
C312 C 0.8367 0.11707 0.9837 0.0
C313 C 0.85875 0.10165 0.00469 0.0
C314 C 0.80622 0.15416 0.98421 0.0
C315 C 0.79771 0.17671 0.00566 0.0
C316 C 0.81763 0.16018 0.02677 0.0
H317 H 0.717 0.45161 0.00733 0.0
H318 H 0.75156 0.38112 0.01945 0.0
C319 C 0.8479 0.12291 0.02631 0.0
C320 C 0.77111 0.2193 0.00584 0.0
H321 H 0.77625 0.32337 0.98492 0.0
C322 C 0.72733 0.22339 0.01804 0.0
C323 C 0.78966 0.25617 0.99435 0.0
C324 C 0.8381 0.25467 0.98224 0.0
C325 C 0.70082 0.26327 0.01845 0.0
C326 C 0.71842 0.29951 0.0061 0.0
C327 C 0.76272 0.29551 0.99436 0.0
C328 C 0.69148 0.34184 0.00426 0.0
C329 C 0.65487 0.26663 0.03241 0.0
C330 C 0.64516 0.34331 0.99264 0.0
C331 C 0.62502 0.38374 0.98593 0.0
C332 C 0.6514 0.42312 0.99036 0.0
C333 C 0.69611 0.42174 0.00345 0.0
C334 C 0.71581 0.38151 0.01045 0.0
H335 H 0.65285 0.23993 0.04536 0.0
H336 H 0.65318 0.29902 0.04202 0.0
H337 H 0.62224 0.26382 0.02018 0.0
H338 H 0.62614 0.31311 0.98726 0.0
H339 H 0.59063 0.38377 0.97574 0.0
H340 H 0.5855 0.61022 0.54433 0.0
H341 H 0.65166 0.66473 0.54653 0.0
H342 H 0.66627 0.65188 0.47114 0.0
H343 H 0.59999 0.59732 0.46869 0.0
H344 H 0.75608 0.64289 0.50025 0.0
H345 H 0.65009 0.7942 0.52272 0.0
H346 H 0.63776 0.74719 0.54018 0.0
H347 H 0.62188 0.74535 0.50913 0.0
C348 C 0.60246 0.61923 0.52818 0.0
C349 C 0.58748 0.59948 0.50633 0.0
C350 C 0.64004 0.65054 0.52946 0.0
C351 C 0.66331 0.66259 0.50896 0.0
C352 C 0.6484 0.64316 0.48711 0.0
H353 H 0.93265 0.81882 0.49844 0.0
H354 H 0.85934 0.77473 0.48777 0.0
C355 C 0.61055 0.61205 0.48577 0.0
C356 C 0.70515 0.69356 0.51064 0.0
H357 H 0.73702 0.79899 0.52744 0.0
C358 C 0.75203 0.6772 0.5059 0.0
C359 C 0.69943 0.73813 0.51806 0.0
C360 C 0.64955 0.75752 0.52265 0.0
C361 C 0.79386 0.70382 0.50941 0.0
C362 C 0.78831 0.74827 0.5173 0.0
C363 C 0.74116 0.76492 0.52137 0.0
C364 C 0.83116 0.77713 0.52301 0.0
C365 C 0.84371 0.68349 0.50573 0.0
C366 C 0.83862 0.79436 0.5461 0.0
C367 C 0.88001 0.81982 0.55214 0.0
C368 C 0.9148 0.82854 0.53519 0.0
C369 C 0.90673 0.81212 0.51191 0.0
C370 C 0.86501 0.78688 0.50583 0.0
H371 H 0.84221 0.64682 0.50513 0.0
H372 H 0.85762 0.69426 0.48868 0.0
H373 H 0.87036 0.69428 0.52002 0.0
H374 H 0.81295 0.78722 0.55963 0.0
H375 H 0.88551 0.83158 0.57028 0.0
H376 H 0.59245 0.3909 0.54006 0.0
H377 H 0.66191 0.3395 0.53957 0.0
H378 H 0.67573 0.35902 0.46502 0.0
H379 H 0.60578 0.40932 0.4652 0.0
H380 H 0.68281 0.27271 0.47575 0.0
H381 H 0.80505 0.37402 0.53632 0.0
H382 H 0.74741 0.35947 0.5483 0.0
H383 H 0.74849 0.39516 0.52355 0.0
C384 C 0.61024 0.38414 0.52356 0.0
C385 C 0.59373 0.40431 0.50268 0.0
C386 C 0.65011 0.35499 0.52335 0.0
C387 C 0.67451 0.34604 0.50235 0.0
C388 C 0.65752 0.36556 0.48144 0.0
H389 H 0.96156 0.25172 0.47323 0.0
H390 H 0.88804 0.29354 0.48316 0.0
C391 C 0.61752 0.39435 0.48158 0.0
C392 C 0.71777 0.31637 0.50186 0.0
H393 H 0.83591 0.30519 0.52301 0.0
C394 C 0.71622 0.27961 0.48618 0.0
C395 C 0.76142 0.32576 0.51535 0.0
C396 C 0.76608 0.36593 0.53169 0.0
C397 C 0.75743 0.25251 0.48319 0.0
C398 C 0.80103 0.26175 0.49676 0.0
C399 C 0.80229 0.29798 0.51281 0.0
C400 C 0.84684 0.23643 0.49311 0.0
C401 C 0.7545 0.2155 0.46474 0.0
C402 C 0.84861 0.19061 0.49611 0.0
C403 C 0.89053 0.16658 0.49029 0.0
C404 C 0.93163 0.18812 0.48175 0.0
C405 C 0.93063 0.23428 0.47996 0.0
C406 C 0.88859 0.25818 0.48555 0.0
H407 H 0.72271 0.21949 0.45215 0.0
H408 H 0.78852 0.21371 0.45457 0.0
H409 H 0.7501 0.18363 0.47358 0.0
H410 H 0.81722 0.17333 0.50248 0.0
H411 H 0.8906 0.1311 0.49216 0.0
H412 H 0.36146 0.39868 0.53697 0.0
H413 H 0.30478 0.33622 0.53551 0.0
H414 H 0.31799 0.32338 0.46005 0.0
H415 H 0.37493 0.38602 0.46126 0.0
H416 H 0.21173 0.32249 0.5059 0.0
H417 H 0.36129 0.20115 0.48843 0.0
H418 H 0.37413 0.25594 0.50047 0.0
H419 H 0.35532 0.24836 0.46998 0.0
C420 C 0.35216 0.38281 0.52002 0.0
C421 C 0.37303 0.39708 0.49925 0.0
C422 C 0.31961 0.34727 0.51922 0.0
C423 C 0.30757 0.32518 0.49771 0.0
C424 C 0.32719 0.33995 0.47683 0.0
H425 H 0.16804 0.0641 0.49598 0.0
H426 H 0.19949 0.13283 0.48029 0.0
C427 C 0.35963 0.37571 0.47758 0.0
C428 C 0.27656 0.28526 0.49763 0.0
H429 H 0.28397 0.17285 0.49633 0.0
C430 C 0.2272 0.28972 0.50345 0.0
C431 C 0.29683 0.24269 0.49414 0.0
C432 C 0.34983 0.23634 0.488 0.0
C433 C 0.19803 0.2525 0.50687 0.0
C434 C 0.21931 0.20998 0.50502 0.0
C435 C 0.26782 0.20552 0.49781 0.0
C436 C 0.19429 0.17027 0.51324 0.0
C437 C 0.14502 0.25905 0.51288 0.0
C438 C 0.18114 0.16855 0.53691 0.0
C439 C 0.16344 0.12948 0.5458 0.0
C440 C 0.15856 0.09145 0.53117 0.0
C441 C 0.17053 0.09337 0.50735 0.0
C442 C 0.18864 0.13244 0.49847 0.0
H443 H 0.13008 0.29007 0.50547 0.0
H444 H 0.12191 0.23095 0.50613 0.0
H445 H 0.14234 0.26166 0.53237 0.0
H446 H 0.18647 0.19695 0.54879 0.0
H447 H 0.15453 0.12867 0.56426 0.0
H448 H 0.36258 0.60169 0.54057 0.0
H449 H 0.30473 0.66364 0.5403 0.0
H450 H 0.3085 0.66543 0.46431 0.0
H451 H 0.36538 0.60327 0.46436 0.0
H452 H 0.3224 0.74535 0.52468 0.0
H453 H 0.16289 0.67444 0.4742 0.0
H454 H 0.21115 0.64051 0.48673 0.0
H455 H 0.21834 0.66567 0.45866 0.0
C456 C 0.35051 0.61487 0.52377 0.0
C457 C 0.36861 0.59756 0.50247 0.0
C458 C 0.31742 0.65022 0.52367 0.0
C459 C 0.30163 0.66865 0.50227 0.0
C460 C 0.3191 0.65098 0.48099 0.0
H461 H 0.19957 0.89866 0.44111 0.0
H462 H 0.22819 0.82614 0.45336 0.0
C463 C 0.35201 0.61564 0.48106 0.0
C464 C 0.27065 0.7089 0.50207 0.0
H465 H 0.17083 0.75427 0.47388 0.0
C466 C 0.28858 0.74713 0.51406 0.0
C467 C 0.22634 0.71104 0.48837 0.0
C468 C 0.20331 0.67055 0.47648 0.0
C469 C 0.26539 0.78813 0.51122 0.0
C470 C 0.22315 0.79072 0.49613 0.0
C471 C 0.20347 0.7521 0.48532 0.0
C472 C 0.20281 0.83372 0.48896 0.0
C473 C 0.28787 0.82886 0.52314 0.0
C474 C 0.17855 0.86168 0.50492 0.0
C475 C 0.16221 0.90332 0.49797 0.0
C476 C 0.17029 0.91756 0.47503 0.0
C477 C 0.19365 0.88892 0.45902 0.0
C478 C 0.20962 0.84738 0.46591 0.0
H479 H 0.32334 0.8217 0.53254 0.0
H480 H 0.29405 0.8544 0.50992 0.0
H481 H 0.26221 0.84288 0.53616 0.0
H482 H 0.17278 0.85148 0.52276 0.0
H483 H 0.14436 0.92471 0.51064 0.0
H484 H 0.92312 0.05832 0.13807 0.0
H485 H 0.93341 0.06643 0.18112 0.0
H486 H 0.03974 0.96082 0.18119 0.0
H487 H 0.0299 0.95272 0.13821 0.0
H488 H 0.92148 0.00761 0.21741 0.0
H489 H 0.11521 0.06239 0.2143 0.0
H490 H 0.07473 0.05932 0.1884 0.0
H491 H 0.10332 0.01014 0.19945 0.0
C492 C 0.94828 0.03651 0.1473 0.0
C493 C 0.97611 0.00519 0.13475 0.0
C494 C 0.95424 0.04128 0.17186 0.0
C495 C 0.98808 0.01485 0.18426 0.0
C496 C 0.01437 0.98233 0.17189 0.0
H497 H 0.08982 -0.00063 0.3303 0.0
H498 H 0.07026 0.98568 0.28823 0.0
C499 C 0.00866 0.97771 0.14735 0.0
C500 C 0.99666 0.02184 0.21008 0.0
H501 H 0.0856 0.04801 0.25214 0.0
C502 C 0.95727 0.01662 0.22503 0.0
C503 C 0.0434 0.03377 0.21993 0.0
C504 C 0.0865 0.04217 0.2047 0.0
C505 C 0.96367 0.02214 0.24965 0.0
C506 C 0.01051 0.0336 0.25946 0.0
C507 C 0.0498 0.03897 0.24452 0.0
C508 C 0.01973 0.04052 0.2852 0.0
C509 C 0.9206 0.01487 0.26503 0.0
C510 C 0.99782 0.07597 0.29736 0.0
C511 C 0.0089 0.08388 0.3214 0.0
C512 C 0.04211 0.05646 0.33367 0.0
C513 C 0.0636 0.02073 0.32143 0.0
C514 C 0.05268 0.01299 0.29739 0.0
H515 H 0.89028 0.99688 0.25531 0.0
H516 H 0.93195 0.99599 0.28082 0.0
H517 H 0.90628 0.04735 0.27124 0.0
H518 H 0.97284 0.09798 0.28816 0.0
H519 H 0.99151 0.11148 0.33038 0.0
H520 H 0.03744 0.94187 0.87547 0.0
H521 H 0.04739 0.93453 0.83294 0.0
H522 H 0.92404 0.02142 0.821 0.0
H523 H 0.91485 0.03027 0.86376 0.0
H524 H 0.98195 0.9032 0.79786 0.0
H525 H 0.03199 0.07808 0.78374 0.0
H526 H 0.03149 0.0551 0.81275 0.0
H527 H 0.97487 0.07015 0.79786 0.0
C528 C 0.01273 0.95989 0.86385 0.0
C529 C 0.97574 0.98715 0.87304 0.0
C530 C 0.01825 0.95536 0.83953 0.0
C531 C 0.98697 0.97796 0.82384 0.0
C532 C 0.94917 0.00435 0.83284 0.0
H533 H 0.98921 0.98429 0.66982 0.0
H534 H 0.96713 0.99389 0.71112 0.0
C535 C 0.94364 0.00898 0.85725 0.0
C536 C 0.99423 0.97341 0.79809 0.0
H537 H 0.02581 0.0307 0.74993 0.0
C538 C 0.99139 0.93109 0.78735 0.0
C539 C 0.0065 0.00989 0.78445 0.0
C540 C 0.01185 0.05585 0.79525 0.0
C541 C 0.00079 0.92418 0.76335 0.0
C542 C 0.01398 0.96049 0.74984 0.0
C543 C 0.01574 0.00297 0.7604 0.0
C544 C 0.02754 0.95481 0.72488 0.0
C545 C 0.99639 0.87812 0.75261 0.0
C546 C 0.06926 0.93022 0.71903 0.0
C547 C 0.08226 0.92498 0.69549 0.0
C548 C 0.05383 0.94437 0.67735 0.0
C549 C 0.01226 0.96936 0.68336 0.0
C550 C -0.00061 0.97468 0.70692 0.0
H551 H 0.9742 0.85636 0.7635 0.0
H552 H 0.9794 0.87871 0.73451 0.0
H553 H 0.03356 0.86343 0.75138 0.0
H554 H 0.09202 0.91537 0.73272 0.0
H555 H 0.11496 0.90621 0.69155 0.0
H556 H 0.54667 0.45198 0.63673 0.0
H557 H 0.55549 0.45721 0.67981 0.0
H558 H 0.44022 0.55485 0.68154 0.0
H559 H 0.43109 0.54971 0.63842 0.0
H560 H 0.58135 0.53043 0.70672 0.0
H561 H 0.39875 0.47082 0.73166 0.0
H562 H 0.42111 0.46299 0.70224 0.0
H563 H 0.39572 0.5153 0.71144 0.0
C564 C 0.52305 0.47446 0.64628 0.0
C565 C 0.48819 0.50048 0.63413 0.0
C566 C 0.52801 0.47727 0.67091 0.0
C567 C 0.49813 0.506 0.68394 0.0
C568 C 0.46289 0.53167 0.67191 0.0
H569 H 0.49459 0.59896 0.82972 0.0
H570 H 0.48008 0.58502 0.78727 0.0
C571 C 0.45776 0.52875 0.64725 0.0
C572 C 0.506 0.51105 0.70995 0.0
H573 H 0.44887 0.50478 0.76241 0.0
C574 C 0.5525 0.52446 0.7189 0.0
C575 C 0.46828 0.50334 0.72583 0.0
C576 C 0.41829 0.48691 0.71736 0.0
C577 C 0.56202 0.5313 0.74325 0.0
C578 C 0.5242 0.52399 0.75909 0.0
C579 C 0.47776 0.51038 0.75019 0.0
C580 C 0.53203 0.53116 0.78494 0.0
C581 C 0.61212 0.54739 0.75179 0.0
C582 C 0.56551 0.50502 0.79775 0.0
C583 C 0.57402 0.51298 0.822 0.0
C584 C 0.54917 0.54727 0.83388 0.0
C585 C 0.5149 0.57278 0.82103 0.0
C586 C 0.5063 0.56467 0.79682 0.0
H587 H 0.63343 0.56055 0.73722 0.0
H588 H 0.60898 0.57361 0.76578 0.0
H589 H 0.63308 0.51949 0.75946 0.0
H590 H 0.58528 0.47861 0.78895 0.0
H591 H 0.6008 0.49289 0.83134 0.0
H592 H 0.42693 0.53405 0.36387 0.0
H593 H 0.43351 0.52757 0.32088 0.0
H594 H 0.56083 0.44422 0.3298 0.0
H595 H 0.55352 0.44911 0.37256 0.0
H596 H 0.51028 0.55138 0.29297 0.0
H597 H 0.47392 0.37177 0.2834 0.0
H598 H 0.46148 0.40334 0.31003 0.0
H599 H 0.52286 0.38487 0.30447 0.0
C600 C 0.45592 0.51385 0.35667 0.0
C601 C 0.48963 0.49203 0.3717 0.0
C602 C 0.45984 0.51046 0.33211 0.0
C603 C 0.49725 0.48492 0.32213 0.0
C604 C 0.53114 0.46346 0.33708 0.0
H605 H 0.61608 0.48998 0.18264 0.0
H606 H 0.59814 0.50204 0.22436 0.0
C607 C 0.52724 0.46676 0.36157 0.0
C608 C 0.50163 0.48119 0.29613 0.0
H609 H 0.50721 0.40608 0.25019 0.0
C610 C 0.50922 0.51968 0.28355 0.0
C611 C 0.4995 0.43988 0.28382 0.0
C612 C 0.4885 0.39766 0.29607 0.0
C613 C 0.51624 0.51779 0.25909 0.0
C614 C 0.51655 0.47622 0.247 0.0
C615 C 0.50751 0.43791 0.25949 0.0
C616 C 0.5264 0.4714 0.22144 0.0
C617 C 0.52278 0.56036 0.24643 0.0
C618 C 0.49246 0.44956 0.20599 0.0
C619 C 0.50282 0.44229 0.18222 0.0
C620 C 0.54744 0.45664 0.1734 0.0
C621 C 0.58112 0.47908 0.18883 0.0
C622 C 0.57084 0.48611 0.21266 0.0
H623 H 0.50721 0.58891 0.2564 0.0
H624 H 0.56254 0.56659 0.24464 0.0
H625 H 0.50505 0.55859 0.22847 0.0
H626 H 0.45798 0.43785 0.21236 0.0
H627 H 0.47588 0.42536 0.17073 0.0
loop_
_geom_bond_atom_site_label_1
_geom_bond_atom_site_label_2
_geom_bond_distance
_geom_bond_site_symmetry_2
_ccdc_geom_bond_type
C0 O16 1.251 . S
C0 O18 1.254 1_554 S
N1 C2 1.333 1_445 S
N1 C6 1.307 . S
N1 Zn7 2.020 . S
C2 N1 1.333 1_665 S
C2 C3 1.379 . S
C2 H20 0.952 . S
C3 C2 1.379 . S
C3 C4 1.390 1_665 S
C3 H30 0.949 . S
C4 C3 1.390 1_445 S
C4 C5 1.357 . S
C5 C4 1.357 . S
C5 C6 1.370 . S
C5 H31 0.950 . S
C6 N1 1.307 . S
C6 C5 1.370 . S
C6 H24 0.948 . S
Zn7 N1 2.020 . S
Zn7 O16 2.039 1_445 S
Zn7 O22 2.034 1_455 S
Zn7 O26 2.025 . S
Zn7 O28 2.024 1_545 S
C8 O27 1.246 1_554 S
C8 O28 1.249 . S
N9 C10 1.307 1_445 S
N9 C11 1.333 . S
N9 Zn15 2.020 . S
C10 N9 1.307 1_665 S
C10 C14 1.370 . S
C10 H21 0.948 . S
C11 N9 1.333 . S
C11 C12 1.379 . S
C11 H19 0.952 . S
C12 C11 1.379 . S
C12 C13 1.390 . S
C12 H32 0.949 . S
C13 C12 1.390 . S
C13 C14 1.357 1_445 S
C14 C10 1.370 . S
C14 C13 1.357 1_665 S
C14 H33 0.950 . S
Zn15 N9 2.020 . S
Zn15 O18 2.025 1_445 S
Zn15 O23 2.024 1_455 S
Zn15 O25 2.039 . S
Zn15 O27 2.034 1_545 S
O16 C0 1.251 . S
O16 Zn7 2.039 1_665 S
C17 O22 1.246 . S
C17 O23 1.249 1_554 S
O18 C0 1.254 1_556 S
O18 Zn15 2.025 1_665 S
H19 C11 0.952 . S
H20 C2 0.952 . S
H21 C10 0.948 . S
O22 Zn7 2.034 1_655 S
O22 C17 1.246 . S
O23 Zn15 2.024 1_655 S
O23 C17 1.249 1_556 S
H24 C6 0.948 . S
O25 Zn15 2.039 . S
O25 C29 1.251 1_556 S
O26 Zn7 2.025 . S
O26 C29 1.254 . S
O27 C8 1.246 1_556 S
O27 Zn15 2.034 1_565 S
O28 Zn7 2.024 1_565 S
O28 C8 1.249 . S
C29 O25 1.251 1_554 S
C29 O26 1.254 . S
H30 C3 0.949 . S
H31 C5 0.950 . S
H32 C12 0.949 . S
H33 C14 0.950 . S
C34 O50 1.251 . S
C34 O52 1.254 . S
N35 C36 1.333 . S
N35 C40 1.307 . S
N35 Zn41 2.020 . S
C36 N35 1.333 . S
C36 C37 1.379 . S
C36 H54 0.952 . S
C37 C36 1.379 . S
C37 C38 1.390 . S
C37 H64 0.949 . S
C38 C37 1.390 . S
C38 C39 1.357 . S
C39 C38 1.357 . S
C39 C40 1.370 . S
C39 H65 0.950 . S
C40 N35 1.307 . S
C40 C39 1.370 . S
C40 H58 0.948 . S
Zn41 N35 2.020 . S
Zn41 O50 2.039 . S
Zn41 O56 2.034 . S
Zn41 O60 2.025 . S
Zn41 O62 2.024 . S
C42 O61 1.246 . S
C42 O62 1.249 . S
N43 C44 1.307 . S
N43 C45 1.333 . S
N43 Zn49 2.020 . S
C44 N43 1.307 . S
C44 C48 1.370 . S
C44 H55 0.948 . S
C45 N43 1.333 . S
C45 C46 1.379 . S
C45 H53 0.952 . S
C46 C45 1.379 . S
C46 C47 1.390 . S
C46 H66 0.949 . S
C47 C46 1.390 . S
C47 C48 1.357 . S
C48 C44 1.370 . S
C48 C47 1.357 . S
C48 H67 0.950 . S
Zn49 N43 2.020 . S
Zn49 O52 2.025 . S
Zn49 O57 2.024 . S
Zn49 O59 2.039 . S
Zn49 O61 2.034 . S
O50 C34 1.251 . S
O50 Zn41 2.039 . S
C51 O56 1.246 . S
C51 O57 1.249 . S
O52 C34 1.254 . S
O52 Zn49 2.025 . S
H53 C45 0.952 . S
H54 C36 0.952 . S
H55 C44 0.948 . S
O56 Zn41 2.034 . S
O56 C51 1.246 . S
O57 Zn49 2.024 . S
O57 C51 1.249 . S
H58 C40 0.948 . S
O59 Zn49 2.039 . S
O59 C63 1.251 . S
O60 Zn41 2.025 . S
O60 C63 1.254 . S
O61 C42 1.246 . S
O61 Zn49 2.034 . S
O62 Zn41 2.024 . S
O62 C42 1.249 . S
C63 O59 1.251 . S
C63 O60 1.254 . S
H64 C37 0.949 . S
H65 C39 0.950 . S
H66 C46 0.949 . S
H67 C48 0.950 . S
P68 O79 1.490 . S
P68 C82 1.812 1_455 S
P68 C88 1.803 1_545 S
P68 C94 1.819 . S
H69 C83 0.941 . S
H70 C84 0.939 . S
H71 C86 0.940 . S
H72 C87 0.940 . S
H73 C89 0.939 . S
H74 C90 0.942 . S
H75 C92 0.940 . S
H76 C93 0.939 . S
H77 C95 0.941 . S
H78 C99 0.939 . S
O79 P68 1.490 . S
H80 C96 0.939 . S
H81 C98 0.940 . S
C82 P68 1.812 1_655 S
C82 C83 1.389 1_655 S
C82 C87 1.391 . S
C83 H69 0.941 . S
C83 C82 1.389 1_455 S
C83 C84 1.397 1_455 S
C84 H70 0.939 . S
C84 C83 1.397 1_655 S
C84 C85 1.378 . S
C85 C84 1.378 . S
C85 C86 1.378 . S
C86 H71 0.940 . S
C86 C85 1.378 . S
C86 C87 1.396 . S
C87 H72 0.940 . S
C87 C82 1.391 . S
C87 C86 1.396 . S
C88 P68 1.803 1_565 S
C88 C89 1.378 . S
C88 C93 1.400 . S
C89 H73 0.939 . S
C89 C88 1.378 . S
C89 C90 1.361 . S
C90 H74 0.942 . S
C90 C89 1.361 . S
C90 C91 1.369 . S
C91 C90 1.369 . S
C91 C92 1.404 . S
C92 H75 0.940 . S
C92 C91 1.404 . S
C92 C93 1.389 . S
C93 H76 0.939 . S
C93 C88 1.400 . S
C93 C92 1.389 . S
C94 P68 1.819 . S
C94 C95 1.391 . S
C94 C99 1.391 1_545 S
C95 H77 0.941 . S
C95 C94 1.391 . S
C95 C96 1.396 . S
C96 H80 0.939 . S
C96 C95 1.396 . S
C96 C97 1.397 . S
C97 C96 1.397 . S
C97 C98 1.385 1_545 S
C98 H81 0.940 . S
C98 C97 1.385 1_565 S
C98 C99 1.388 . S
C99 H78 0.939 . S
C99 C94 1.391 1_565 S
C99 C98 1.388 . S
P100 O111 1.490 . S
P100 C114 1.812 . S
P100 C120 1.803 1_565 S
P100 C126 1.819 . S
H101 C115 0.941 . S
H102 C116 0.939 . S
H103 C118 0.940 . S
H104 C119 0.940 . S
H105 C121 0.939 . S
H106 C122 0.942 . S
H107 C124 0.940 . S
H108 C125 0.939 . S
H109 C127 0.941 . S
H110 C131 0.939 . S
O111 P100 1.490 . S
H112 C128 0.939 . S
H113 C130 0.940 . S
C114 P100 1.812 . S
C114 C115 1.389 . S
C114 C119 1.391 1_455 S
C115 H101 0.941 . S
C115 C114 1.389 . S
C115 C116 1.397 1_455 S
C116 H102 0.939 . S
C116 C115 1.397 1_655 S
C116 C117 1.378 . S
C117 C116 1.378 . S
C117 C118 1.378 . S
C118 H103 0.940 . S
C118 C117 1.378 . S
C118 C119 1.396 . S
C119 H104 0.940 . S
C119 C114 1.391 1_655 S
C119 C118 1.396 . S
C120 P100 1.803 1_545 S
C120 C121 1.378 . S
C120 C125 1.400 . S
C121 H105 0.939 . S
C121 C120 1.378 . S
C121 C122 1.361 . S
C122 H106 0.942 . S
C122 C121 1.361 . S
C122 C123 1.369 . S
C123 C122 1.369 . S
C123 C124 1.404 . S
C124 H107 0.940 . S
C124 C123 1.404 . S
C124 C125 1.389 . S
C125 H108 0.939 . S
C125 C120 1.400 . S
C125 C124 1.389 . S
C126 P100 1.819 . S
C126 C127 1.391 . S
C126 C131 1.391 1_565 S
C127 H109 0.941 . S
C127 C126 1.391 . S
C127 C128 1.396 . S
C128 H112 0.939 . S
C128 C127 1.396 . S
C128 C129 1.406 . S
C129 C128 1.406 . S
C129 C130 1.377 1_565 S
C130 H113 0.940 . S
C130 C129 1.377 1_545 S
C130 C131 1.388 . S
C131 H110 0.939 . S
C131 C126 1.391 1_545 S
C131 C130 1.388 . S
P132 O143 1.490 . S
P132 C146 1.812 . S
P132 C152 1.803 . S
P132 C158 1.819 . S
H133 C147 0.941 . S
H134 C148 0.939 . S
H135 C150 0.940 . S
H136 C151 0.940 . S
H137 C153 0.939 . S
H138 C154 0.942 . S
H139 C156 0.940 . S
H140 C157 0.939 . S
H141 C159 0.941 . S
H142 C163 0.939 . S
O143 P132 1.490 . S
H144 C160 0.939 . S
H145 C162 0.940 . S
C146 P132 1.812 . S
C146 C147 1.389 . S
C146 C151 1.391 . S
C147 H133 0.941 . S
C147 C146 1.389 . S
C147 C148 1.397 . S
C148 H134 0.939 . S
C148 C147 1.397 . S
C148 C149 1.378 . S
C149 C148 1.378 . S
C149 C150 1.378 . S
C150 H135 0.940 . S
C150 C149 1.378 . S
C150 C151 1.396 . S
C151 H136 0.940 . S
C151 C146 1.391 . S
C151 C150 1.396 . S
C152 P132 1.803 . S
C152 C153 1.378 . S
C152 C157 1.400 . S
C153 H137 0.939 . S
C153 C152 1.378 . S
C153 C154 1.361 . S
C154 H138 0.942 . S
C154 C153 1.361 . S
C154 C155 1.369 . S
C155 C154 1.369 . S
C155 C156 1.404 . S
C156 H139 0.940 . S
C156 C155 1.404 . S
C156 C157 1.389 . S
C157 H140 0.939 . S
C157 C152 1.400 . S
C157 C156 1.389 . S
C158 P132 1.819 . S
C158 C159 1.391 . S
C158 C163 1.391 . S
C159 H141 0.941 . S
C159 C158 1.391 . S
C159 C160 1.396 . S
C160 H144 0.939 . S
C160 C159 1.396 . S
C160 C161 1.397 . S
C161 C160 1.397 . S
C161 C162 1.385 . S
C162 H145 0.940 . S
C162 C161 1.385 . S
C162 C163 1.388 . S
C163 H142 0.939 . S
C163 C158 1.391 . S
C163 C162 1.388 . S
P164 O175 1.490 . S
P164 C178 1.812 . S
P164 C184 1.803 . S
P164 C190 1.819 . S
H165 C179 0.941 . S
H166 C180 0.939 . S
H167 C182 0.940 . S
H168 C183 0.940 . S
H169 C185 0.939 . S
H170 C186 0.942 . S
H171 C188 0.940 . S
H172 C189 0.939 . S
H173 C191 0.941 . S
H174 C195 0.939 . S
O175 P164 1.490 . S
H176 C192 0.939 . S
H177 C194 0.940 . S
C178 P164 1.812 . S
C178 C179 1.389 . S
C178 C183 1.391 . S
C179 H165 0.941 . S
C179 C178 1.389 . S
C179 C180 1.397 . S
C180 H166 0.939 . S
C180 C179 1.397 . S
C180 C181 1.378 . S
C181 C180 1.378 . S
C181 C182 1.378 . S
C182 H167 0.940 . S
C182 C181 1.378 . S
C182 C183 1.396 . S
C183 H168 0.940 . S
C183 C178 1.391 . S
C183 C182 1.396 . S
C184 P164 1.803 . S
C184 C185 1.378 . S
C184 C189 1.400 . S
C185 H169 0.939 . S
C185 C184 1.378 . S
C185 C186 1.361 . S
C186 H170 0.942 . S
C186 C185 1.361 . S
C186 C187 1.369 . S
C187 C186 1.369 . S
C187 C188 1.404 . S
C188 H171 0.940 . S
C188 C187 1.404 . S
C188 C189 1.389 . S
C189 H172 0.939 . S
C189 C184 1.400 . S
C189 C188 1.389 . S
C190 P164 1.819 . S
C190 C191 1.391 . S
C190 C195 1.391 . S
C191 H173 0.941 . S
C191 C190 1.391 . S
C191 C192 1.396 . S
C192 H176 0.939 . S
C192 C191 1.396 . S
C192 C193 1.397 . S
C193 C192 1.397 . S
C193 C194 1.385 . S
C194 H177 0.940 . S
C194 C193 1.385 . S
C194 C195 1.388 . S
C195 H174 0.939 . S
C195 C190 1.391 . S
C195 C194 1.388 . S
H196 C204 0.929 . S
H197 C206 0.930 . S
H198 C208 0.930 . S
H199 C211 0.929 . S
H200 C214 0.930 . S
H201 C216 0.960 . S
H202 C216 0.960 1_554 S
H203 C216 0.960 . S
C204 H196 0.929 . S
C204 C205 1.377 . S
C204 C206 1.384 . S
C205 C204 1.377 . S
C205 C211 1.390 1_554 S
C206 H197 0.930 . S
C206 C204 1.384 . S
C206 C207 1.372 . S
C207 C206 1.372 . S
C207 C208 1.400 1_554 S
C207 C212 1.490 . S
C208 H198 0.930 . S
C208 C207 1.400 1_556 S
C208 C211 1.386 . S
H209 C225 0.930 1_556 S
H210 C226 0.931 1_556 S
C211 H199 0.929 . S
C211 C205 1.390 1_556 S
C211 C208 1.386 . S
C212 C207 1.490 . S
C212 C214 1.395 . S
C212 C215 1.403 . S
H213 C219 0.930 . S
C214 H200 0.930 . S
C214 C212 1.395 . S
C214 C217 1.403 . S
C215 C212 1.403 . S
C215 C216 1.524 1_554 S
C215 C219 1.400 . S
C216 H201 0.960 . S
C216 H202 0.960 1_556 S
C216 H203 0.960 . S
C216 C215 1.524 1_556 S
C217 C214 1.403 . S
C217 C218 1.392 . S
C217 C221 1.495 . S
C218 C217 1.392 . S
C218 C219 1.385 . S
C218 C220 1.478 . S
C219 H213 0.930 . S
C219 C215 1.400 . S
C219 C218 1.385 . S
C220 C218 1.478 . S
C220 C222 1.381 . S
C220 C226 1.383 . S
C221 C217 1.495 . S
C221 H227 0.959 . S
C221 H228 0.961 . S
C221 H229 0.960 . S
C222 C220 1.381 . S
C222 C223 1.394 . S
C222 H230 0.930 . S
C223 C222 1.394 . S
C223 C224 1.383 . S
C223 H231 0.929 . S
C224 C223 1.383 . S
C224 C225 1.377 . S
C225 H209 0.930 1_554 S
C225 C224 1.377 . S
C225 C226 1.379 . S
C226 H210 0.931 1_554 S
C226 C220 1.383 . S
C226 C225 1.379 . S
H227 C221 0.959 . S
H228 C221 0.961 . S
H229 C221 0.960 . S
H230 C222 0.930 . S
H231 C223 0.929 . S
H232 C240 0.929 . S
H233 C242 0.930 . S
H234 C244 0.930 . S
H235 C247 0.929 . S
H236 C250 0.930 . S
H237 C252 0.960 . S
H238 C252 0.960 . S
H239 C252 0.960 1_554 S
C240 H232 0.929 . S
C240 C241 1.348 1_556 S
C240 C242 1.384 . S
C241 C240 1.348 1_554 S
C241 C247 1.415 . S
C242 H233 0.930 . S
C242 C240 1.384 . S
C242 C243 1.372 . S
C243 C242 1.372 . S
C243 C244 1.400 1_556 S
C243 C248 1.490 . S
C244 H234 0.930 . S
C244 C243 1.400 1_554 S
C244 C247 1.386 . S
H245 C261 0.938 . S
H246 C262 0.931 . S
C247 H235 0.929 . S
C247 C241 1.415 . S
C247 C244 1.386 . S
C248 C243 1.490 . S
C248 C250 1.395 . S
C248 C251 1.403 . S
H249 C255 0.930 . S
C250 H236 0.930 . S
C250 C248 1.395 . S
C250 C253 1.403 . S
C251 C248 1.403 . S
C251 C252 1.524 . S
C251 C255 1.400 . S
C252 H237 0.960 . S
C252 H238 0.960 . S
C252 H239 0.960 1_556 S
C252 C251 1.524 . S
C253 C250 1.403 . S
C253 C254 1.392 . S
C253 C257 1.495 . S
C254 C253 1.392 . S
C254 C255 1.385 . S
C254 C256 1.478 . S
C255 H249 0.930 . S
C255 C251 1.400 . S
C255 C254 1.385 . S
C256 C254 1.478 . S
C256 C258 1.381 . S
C256 C262 1.383 1_556 S
C257 C253 1.495 . S
C257 H263 0.959 . S
C257 H264 0.961 . S
C257 H265 0.960 . S
C258 C256 1.381 . S
C258 C259 1.394 . S
C258 H266 0.930 . S
C259 C258 1.394 . S
C259 C260 1.383 . S
C259 H267 0.929 . S
C260 C259 1.383 . S
C260 C261 1.368 1_556 S
C261 H245 0.938 . S
C261 C260 1.368 1_554 S
C261 C262 1.380 . S
C262 H246 0.931 . S
C262 C256 1.383 1_554 S
C262 C261 1.380 . S
H263 C257 0.959 . S
H264 C257 0.961 . S
H265 C257 0.960 . S
H266 C258 0.930 . S
H267 C259 0.929 . S
H268 C276 0.929 . S
H269 C278 0.930 . S
H270 C280 0.930 . S
H271 C283 0.929 . S
H272 C286 0.921 1_556 S
H273 C288 0.960 . S
H274 C288 0.960 . S
H275 C288 0.960 . S
C276 H268 0.929 . S
C276 C277 1.377 . S
C276 C278 1.384 . S
C277 C276 1.377 . S
C277 C283 1.390 1_554 S
C278 H269 0.930 . S
C278 C276 1.384 . S
C278 C279 1.372 . S
C279 C278 1.372 . S
C279 C280 1.400 1_554 S
C279 C284 1.490 . S
C280 H270 0.930 . S
C280 C279 1.400 1_556 S
C280 C283 1.386 . S
H281 C297 0.924 1_556 S
H282 C298 0.931 1_556 S
C283 H271 0.929 . S
C283 C277 1.390 1_556 S
C283 C280 1.386 . S
C284 C279 1.490 . S
C284 C286 1.395 . S
C284 C287 1.403 . S
H285 C291 0.930 . S
C286 H272 0.921 1_554 S
C286 C284 1.395 . S
C286 C289 1.403 . S
C287 C284 1.403 . S
C287 C288 1.524 . S
C287 C291 1.400 . S
C288 H273 0.960 . S
C288 H274 0.960 . S
C288 H275 0.960 . S
C288 C287 1.524 . S
C289 C286 1.403 . S
C289 C290 1.392 . S
C289 C293 1.495 1_554 S
C290 C289 1.392 . S
C290 C291 1.385 . S
C290 C292 1.478 . S
C291 H285 0.930 . S
C291 C287 1.400 . S
C291 C290 1.385 . S
C292 C290 1.478 . S
C292 C294 1.381 . S
C292 C298 1.383 . S
C293 C289 1.495 1_556 S
C293 H299 0.959 . S
C293 H300 0.961 . S
C293 H301 0.960 1_556 S
C294 C292 1.381 . S
C294 C295 1.394 . S
C294 H302 0.930 . S
C295 C294 1.394 . S
C295 C296 1.383 . S
C295 H303 0.929 . S
C296 C295 1.383 . S
C296 C297 1.377 . S
C297 H281 0.924 1_554 S
C297 C296 1.377 . S
C297 C298 1.379 . S
C298 H282 0.931 1_554 S
C298 C292 1.383 . S
C298 C297 1.379 . S
H299 C293 0.959 . S
H300 C293 0.961 . S
H301 C293 0.960 1_554 S
H302 C294 0.930 . S
H303 C295 0.929 . S
H304 C312 0.929 . S
H305 C314 0.930 . S
H306 C316 0.930 . S
H307 C319 0.929 . S
H308 C322 0.930 . S
H309 C324 0.960 . S
H310 C324 0.959 . S
H311 C324 0.960 . S
C312 H304 0.929 . S
C312 C313 1.377 1_556 S
C312 C314 1.384 . S
C313 C312 1.377 1_554 S
C313 C319 1.390 . S
C314 H305 0.930 . S
C314 C312 1.384 . S
C314 C315 1.372 . S
C315 C314 1.372 . S
C315 C316 1.400 1_556 S
C315 C320 1.490 . S
C316 H306 0.930 . S
C316 C315 1.400 1_554 S
C316 C319 1.386 . S
H317 C333 0.930 . S
H318 C334 0.931 . S
C319 H307 0.929 . S
C319 C313 1.390 . S
C319 C316 1.386 . S
C320 C315 1.490 . S
C320 C322 1.395 . S
C320 C323 1.400 1_556 S
H321 C327 0.930 1_554 S
C322 H308 0.930 . S
C322 C320 1.395 . S
C322 C325 1.403 . S
C323 C320 1.400 1_554 S
C323 C324 1.527 . S
C323 C327 1.399 1_554 S
C324 H309 0.960 . S
C324 H310 0.959 . S
C324 H311 0.960 . S
C324 C323 1.527 . S
C325 C322 1.403 . S
C325 C326 1.392 . S
C325 C329 1.495 . S
C326 C325 1.392 . S
C326 C327 1.385 . S
C326 C328 1.478 . S
C327 H321 0.930 1_556 S
C327 C323 1.399 1_556 S
C327 C326 1.385 . S
C328 C326 1.478 . S
C328 C330 1.381 . S
C328 C334 1.383 1_556 S
C329 C325 1.495 . S
C329 H335 0.959 . S
C329 H336 0.961 . S
C329 H337 0.960 . S
C330 C328 1.381 . S
C330 C331 1.394 . S
C330 H338 0.930 . S
C331 C330 1.394 . S
C331 C332 1.383 . S
C331 H339 0.929 . S
C332 C331 1.383 . S
C332 C333 1.377 1_556 S
C333 H317 0.930 . S
C333 C332 1.377 1_554 S
C333 C334 1.379 . S
C334 H318 0.931 . S
C334 C328 1.383 1_554 S
C334 C333 1.379 . S
H335 C329 0.959 . S
H336 C329 0.961 . S
H337 C329 0.960 . S
H338 C330 0.930 . S
H339 C331 0.929 . S
H340 C348 0.929 . S
H341 C350 0.930 . S
H342 C352 0.930 . S
H343 C355 0.929 . S
H344 C358 0.930 . S
H345 C360 0.960 . S
H346 C360 0.960 . S
H347 C360 0.960 . S
C348 H340 0.929 . S
C348 C349 1.377 . S
C348 C350 1.384 . S
C349 C348 1.377 . S
C349 C355 1.390 . S
C350 H341 0.930 . S
C350 C348 1.384 . S
C350 C351 1.372 . S
C351 C350 1.372 . S
C351 C352 1.400 . S
C351 C356 1.490 . S
C352 H342 0.930 . S
C352 C351 1.400 . S
C352 C355 1.386 . S
H353 C369 0.930 . S
H354 C370 0.931 . S
C355 H343 0.929 . S
C355 C349 1.390 . S
C355 C352 1.386 . S
C356 C351 1.490 . S
C356 C358 1.395 . S
C356 C359 1.403 . S
H357 C363 0.930 . S
C358 H344 0.930 . S
C358 C356 1.395 . S
C358 C361 1.403 . S
C359 C356 1.403 . S
C359 C360 1.524 . S
C359 C363 1.400 . S
C360 H345 0.960 . S
C360 H346 0.960 . S
C360 H347 0.960 . S
C360 C359 1.524 . S
C361 C358 1.403 . S
C361 C362 1.392 . S
C361 C365 1.495 . S
C362 C361 1.392 . S
C362 C363 1.385 . S
C362 C364 1.478 . S
C363 H357 0.930 . S
C363 C359 1.400 . S
C363 C362 1.385 . S
C364 C362 1.478 . S
C364 C366 1.381 . S
C364 C370 1.383 . S
C365 C361 1.495 . S
C365 H371 0.959 . S
C365 H372 0.961 . S
C365 H373 0.960 . S
C366 C364 1.381 . S
C366 C367 1.394 . S
C366 H374 0.930 . S
C367 C366 1.394 . S
C367 C368 1.383 . S
C367 H375 0.929 . S
C368 C367 1.383 . S
C368 C369 1.377 . S
C369 H353 0.930 . S
C369 C368 1.377 . S
C369 C370 1.379 . S
C370 H354 0.931 . S
C370 C364 1.383 . S
C370 C369 1.379 . S
H371 C365 0.959 . S
H372 C365 0.961 . S
H373 C365 0.960 . S
H374 C366 0.930 . S
H375 C367 0.929 . S
H376 C384 0.929 . S
H377 C386 0.930 . S
H378 C388 0.930 . S
H379 C391 0.929 . S
H380 C394 0.930 . S
H381 C396 0.960 . S
H382 C396 0.960 . S
H383 C396 0.960 . S
C384 H376 0.929 . S
C384 C385 1.377 . S
C384 C386 1.384 . S
C385 C384 1.377 . S
C385 C391 1.390 . S
C386 H377 0.930 . S
C386 C384 1.384 . S
C386 C387 1.372 . S
C387 C386 1.372 . S
C387 C388 1.400 . S
C387 C392 1.490 . S
C388 H378 0.930 . S
C388 C387 1.400 . S
C388 C391 1.386 . S
H389 C405 0.930 . S
H390 C406 0.931 . S
C391 H379 0.929 . S
C391 C385 1.390 . S
C391 C388 1.386 . S
C392 C387 1.490 . S
C392 C394 1.395 . S
C392 C395 1.403 . S
H393 C399 0.930 . S
C394 H380 0.930 . S
C394 C392 1.395 . S
C394 C397 1.403 . S
C395 C392 1.403 . S
C395 C396 1.524 . S
C395 C399 1.400 . S
C396 H381 0.960 . S
C396 H382 0.960 . S
C396 H383 0.960 . S
C396 C395 1.524 . S
C397 C394 1.403 . S
C397 C398 1.392 . S
C397 C401 1.495 . S
C398 C397 1.392 . S
C398 C399 1.385 . S
C398 C400 1.478 . S
C399 H393 0.930 . S
C399 C395 1.400 . S
C399 C398 1.385 . S
C400 C398 1.478 . S
C400 C402 1.381 . S
C400 C406 1.383 . S
C401 C397 1.495 . S
C401 H407 0.959 . S
C401 H408 0.961 . S
C401 H409 0.960 . S
C402 C400 1.381 . S
C402 C403 1.394 . S
C402 H410 0.930 . S
C403 C402 1.394 . S
C403 C404 1.383 . S
C403 H411 0.929 . S
C404 C403 1.383 . S
C404 C405 1.377 . S
C405 H389 0.930 . S
C405 C404 1.377 . S
C405 C406 1.379 . S
C406 H390 0.931 . S
C406 C400 1.383 . S
C406 C405 1.379 . S
H407 C401 0.959 . S
H408 C401 0.961 . S
H409 C401 0.960 . S
H410 C402 0.930 . S
H411 C403 0.929 . S
H412 C420 0.929 . S
H413 C422 0.930 . S
H414 C424 0.930 . S
H415 C427 0.929 . S
H416 C430 0.930 . S
H417 C432 0.960 . S
H418 C432 0.960 . S
H419 C432 0.960 . S
C420 H412 0.929 . S
C420 C421 1.377 . S
C420 C422 1.384 . S
C421 C420 1.377 . S
C421 C427 1.390 . S
C422 H413 0.930 . S
C422 C420 1.384 . S
C422 C423 1.372 . S
C423 C422 1.372 . S
C423 C424 1.400 . S
C423 C428 1.490 . S
C424 H414 0.930 . S
C424 C423 1.400 . S
C424 C427 1.386 . S
H425 C441 0.930 . S
H426 C442 0.931 . S
C427 H415 0.929 . S
C427 C421 1.390 . S
C427 C424 1.386 . S
C428 C423 1.490 . S
C428 C430 1.395 . S
C428 C431 1.403 . S
H429 C435 0.930 . S
C430 H416 0.930 . S
C430 C428 1.395 . S
C430 C433 1.403 . S
C431 C428 1.403 . S
C431 C432 1.524 . S
C431 C435 1.400 . S
C432 H417 0.960 . S
C432 H418 0.960 . S
C432 H419 0.960 . S
C432 C431 1.524 . S
C433 C430 1.403 . S
C433 C434 1.392 . S
C433 C437 1.495 . S
C434 C433 1.392 . S
C434 C435 1.385 . S
C434 C436 1.478 . S
C435 H429 0.930 . S
C435 C431 1.400 . S
C435 C434 1.385 . S
C436 C434 1.478 . S
C436 C438 1.381 . S
C436 C442 1.383 . S
C437 C433 1.495 . S
C437 H443 0.959 . S
C437 H444 0.961 . S
C437 H445 0.960 . S
C438 C436 1.381 . S
C438 C439 1.394 . S
C438 H446 0.930 . S
C439 C438 1.394 . S
C439 C440 1.383 . S
C439 H447 0.929 . S
C440 C439 1.383 . S
C440 C441 1.377 . S
C441 H425 0.930 . S
C441 C440 1.377 . S
C441 C442 1.379 . S
C442 H426 0.931 . S
C442 C436 1.383 . S
C442 C441 1.379 . S
H443 C437 0.959 . S
H444 C437 0.961 . S
H445 C437 0.960 . S
H446 C438 0.930 . S
H447 C439 0.929 . S
H448 C456 0.929 . S
H449 C458 0.930 . S
H450 C460 0.930 . S
H451 C463 0.929 . S
H452 C466 0.930 . S
H453 C468 0.960 . S
H454 C468 0.960 . S
H455 C468 0.960 . S
C456 H448 0.929 . S
C456 C457 1.377 . S
C456 C458 1.384 . S
C457 C456 1.377 . S
C457 C463 1.390 . S
C458 H449 0.930 . S
C458 C456 1.384 . S
C458 C459 1.372 . S
C459 C458 1.372 . S
C459 C460 1.400 . S
C459 C464 1.490 . S
C460 H450 0.930 . S
C460 C459 1.400 . S
C460 C463 1.386 . S
H461 C477 0.930 . S
H462 C478 0.931 . S
C463 H451 0.929 . S
C463 C457 1.390 . S
C463 C460 1.386 . S
C464 C459 1.490 . S
C464 C466 1.395 . S
C464 C467 1.403 . S
H465 C471 0.930 . S
C466 H452 0.930 . S
C466 C464 1.395 . S
C466 C469 1.403 . S
C467 C464 1.403 . S
C467 C468 1.524 . S
C467 C471 1.400 . S
C468 H453 0.960 . S
C468 H454 0.960 . S
C468 H455 0.960 . S
C468 C467 1.524 . S
C469 C466 1.403 . S
C469 C470 1.392 . S
C469 C473 1.495 . S
C470 C469 1.392 . S
C470 C471 1.385 . S
C470 C472 1.478 . S
C471 H465 0.930 . S
C471 C467 1.400 . S
C471 C470 1.385 . S
C472 C470 1.478 . S
C472 C474 1.381 . S
C472 C478 1.383 . S
C473 C469 1.495 . S
C473 H479 0.959 . S
C473 H480 0.961 . S
C473 H481 0.960 . S
C474 C472 1.381 . S
C474 C475 1.394 . S
C474 H482 0.930 . S
C475 C474 1.394 . S
C475 C476 1.383 . S
C475 H483 0.929 . S
C476 C475 1.383 . S
C476 C477 1.377 . S
C477 H461 0.930 . S
C477 C476 1.377 . S
C477 C478 1.379 . S
C478 H462 0.931 . S
C478 C472 1.383 . S
C478 C477 1.379 . S
H479 C473 0.959 . S
H480 C473 0.961 . S
H481 C473 0.960 . S
H482 C474 0.930 . S
H483 C475 0.929 . S
H484 C492 0.929 . S
H485 C494 0.930 . S
H486 C496 0.930 . S
H487 C499 0.929 . S
H488 C502 0.930 . S
H489 C504 0.960 . S
H490 C504 0.960 . S
H491 C504 0.960 . S
C492 H484 0.929 . S
C492 C493 1.377 1_655 S
C492 C494 1.384 . S
C493 C492 1.377 1_455 S
C493 C499 1.390 1_545 S
C494 H485 0.930 . S
C494 C492 1.384 . S
C494 C495 1.372 1_655 S
C495 C494 1.372 1_455 S
C495 C496 1.400 1_545 S
C495 C500 1.489 1_455 S
C496 H486 0.930 . S
C496 C495 1.400 1_565 S
C496 C499 1.386 . S
H497 C513 0.930 . S
H498 C514 0.931 . S
C499 H487 0.929 . S
C499 C493 1.390 1_565 S
C499 C496 1.386 . S
C500 C495 1.489 1_655 S
C500 C502 1.407 1_545 S
C500 C503 1.392 1_655 S
H501 C507 0.930 . S
C502 H488 0.930 . S
C502 C500 1.407 1_565 S
C502 C505 1.403 . S
C503 C500 1.392 1_455 S
C503 C504 1.524 . S
C503 C507 1.400 . S
C504 H489 0.960 . S
C504 H490 0.960 . S
C504 H491 0.960 . S
C504 C503 1.524 . S
C505 C502 1.403 . S
C505 C506 1.392 1_565 S
C505 C509 1.495 . S
C506 C505 1.392 1_545 S
C506 C507 1.385 1_655 S
C506 C508 1.478 . S
C507 H501 0.930 . S
C507 C503 1.400 . S
C507 C506 1.385 1_455 S
C508 C506 1.478 . S
C508 C510 1.387 . S
C508 C514 1.376 1_645 S
C509 C505 1.495 . S
C509 H515 0.959 . S
C509 H516 0.961 . S
C509 H517 0.966 . S
C510 C508 1.387 . S
C510 C511 1.394 . S
C510 H518 0.930 . S
C511 C510 1.394 . S
C511 C512 1.383 . S
C511 H519 0.929 . S
C512 C511 1.383 . S
C512 C513 1.377 1_645 S
C513 H497 0.930 . S
C513 C512 1.377 1_465 S
C513 C514 1.379 . S
C514 H498 0.931 . S
C514 C508 1.376 1_465 S
C514 C513 1.379 . S
H515 C509 0.959 . S
H516 C509 0.961 . S
H517 C509 0.966 . S
H518 C510 0.930 . S
H519 C511 0.929 . S
H520 C528 0.929 . S
H521 C530 0.930 . S
H522 C532 0.930 . S
H523 C535 0.929 . S
H524 C538 0.930 . S
H525 C540 0.960 . S
H526 C540 0.960 . S
H527 C540 0.960 . S
C528 H520 0.929 . S
C528 C529 1.377 1_565 S
C528 C530 1.384 . S
C529 C528 1.377 1_545 S
C529 C535 1.390 1_455 S
C530 H521 0.930 . S
C530 C528 1.384 . S
C530 C531 1.372 1_565 S
C531 C530 1.372 1_545 S
C531 C532 1.400 1_455 S
C531 C536 1.490 . S
C532 H522 0.930 . S
C532 C531 1.400 1_655 S
C532 C535 1.386 . S
H533 C549 0.930 . S
H534 C550 0.931 . S
C535 H523 0.929 . S
C535 C529 1.390 1_655 S
C535 C532 1.386 . S
C536 C531 1.490 . S
C536 C538 1.395 1_445 S
C536 C539 1.403 . S
H537 C543 0.930 . S
C538 H524 0.930 . S
C538 C536 1.395 1_665 S
C538 C541 1.403 . S
C539 C536 1.403 . S
C539 C540 1.524 . S
C539 C543 1.400 . S
C540 H525 0.960 . S
C540 H526 0.960 . S
C540 H527 0.960 . S
C540 C539 1.524 . S
C541 C538 1.403 . S
C541 C542 1.392 1_655 S
C541 C545 1.495 . S
C542 C541 1.392 1_455 S
C542 C543 1.385 1_565 S
C542 C544 1.478 . S
C543 H537 0.930 . S
C543 C539 1.400 . S
C543 C542 1.385 1_545 S
C544 C542 1.478 . S
C544 C546 1.381 . S
C544 C550 1.383 1_465 S
C545 C541 1.495 . S
C545 H551 0.959 . S
C545 H552 0.961 . S
C545 H553 0.960 . S
C546 C544 1.381 . S
C546 C547 1.394 . S
C546 H554 0.930 . S
C547 C546 1.394 . S
C547 C548 1.383 1_565 S
C547 H555 0.929 . S
C548 C547 1.383 1_545 S
C548 C549 1.377 1_455 S
C549 H533 0.930 . S
C549 C548 1.377 1_655 S
C549 C550 1.379 . S
C550 H534 0.931 . S
C550 C544 1.383 1_645 S
C550 C549 1.379 . S
H551 C545 0.959 . S
H552 C545 0.961 . S
H553 C545 0.960 . S
H554 C546 0.930 . S
H555 C547 0.929 . S
H556 C564 0.929 . S
H557 C566 0.930 . S
H558 C568 0.930 . S
H559 C571 0.929 . S
H560 C574 0.930 . S
H561 C576 0.960 . S
H562 C576 0.960 . S
H563 C576 0.960 . S
C564 H556 0.929 . S
C564 C565 1.377 . S
C564 C566 1.384 . S
C565 C564 1.377 . S
C565 C571 1.390 . S
C566 H557 0.930 . S
C566 C564 1.384 . S
C566 C567 1.372 . S
C567 C566 1.372 . S
C567 C568 1.400 . S
C567 C572 1.490 . S
C568 H558 0.930 . S
C568 C567 1.400 . S
C568 C571 1.386 . S
H569 C585 0.930 . S
H570 C586 0.931 . S
C571 H559 0.929 . S
C571 C565 1.390 . S
C571 C568 1.386 . S
C572 C567 1.490 . S
C572 C574 1.395 . S
C572 C575 1.403 . S
H573 C579 0.930 . S
C574 H560 0.930 . S
C574 C572 1.395 . S
C574 C577 1.403 . S
C575 C572 1.403 . S
C575 C576 1.524 . S
C575 C579 1.400 . S
C576 H561 0.960 . S
C576 H562 0.960 . S
C576 H563 0.960 . S
C576 C575 1.524 . S
C577 C574 1.403 . S
C577 C578 1.392 . S
C577 C581 1.495 . S
C578 C577 1.392 . S
C578 C579 1.385 . S
C578 C580 1.478 . S
C579 H573 0.930 . S
C579 C575 1.400 . S
C579 C578 1.385 . S
C580 C578 1.478 . S
C580 C582 1.381 . S
C580 C586 1.383 . S
C581 C577 1.495 . S
C581 H587 0.959 . S
C581 H588 0.961 . S
C581 H589 0.960 . S
C582 C580 1.381 . S
C582 C583 1.394 . S
C582 H590 0.930 . S
C583 C582 1.394 . S
C583 C584 1.383 . S
C583 H591 0.929 . S
C584 C583 1.383 . S
C584 C585 1.377 . S
C585 H569 0.930 . S
C585 C584 1.377 . S
C585 C586 1.379 . S
C586 H570 0.931 . S
C586 C580 1.383 . S
C586 C585 1.379 . S
H587 C581 0.959 . S
H588 C581 0.961 . S
H589 C581 0.960 . S
H590 C582 0.930 . S
H591 C583 0.929 . S
H592 C600 0.929 . S
H593 C602 0.930 . S
H594 C604 0.930 . S
H595 C607 0.929 . S
H596 C610 0.930 . S
H597 C612 0.960 . S
H598 C612 0.960 . S
H599 C612 0.960 . S
C600 H592 0.929 . S
C600 C601 1.377 . S
C600 C602 1.384 . S
C601 C600 1.377 . S
C601 C607 1.390 . S
C602 H593 0.930 . S
C602 C600 1.384 . S
C602 C603 1.372 . S
C603 C602 1.372 . S
C603 C604 1.400 . S
C603 C608 1.490 . S
C604 H594 0.930 . S
C604 C603 1.400 . S
C604 C607 1.386 . S
H605 C621 0.930 . S
H606 C622 0.931 . S
C607 H595 0.929 . S
C607 C601 1.390 . S
C607 C604 1.386 . S
C608 C603 1.490 . S
C608 C610 1.395 . S
C608 C611 1.403 . S
H609 C615 0.930 . S
C610 H596 0.930 . S
C610 C608 1.395 . S
C610 C613 1.403 . S
C611 C608 1.403 . S
C611 C612 1.524 . S
C611 C615 1.400 . S
C612 H597 0.960 . S
C612 H598 0.960 . S
C612 H599 0.960 . S
C612 C611 1.524 . S
C613 C610 1.403 . S
C613 C614 1.392 . S
C613 C617 1.495 . S
C614 C613 1.392 . S
C614 C615 1.385 . S
C614 C616 1.478 . S
C615 H609 0.930 . S
C615 C611 1.400 . S
C615 C614 1.385 . S
C616 C614 1.478 . S
C616 C618 1.381 . S
C616 C622 1.383 . S
C617 C613 1.495 . S
C617 H623 0.959 . S
C617 H624 0.961 . S
C617 H625 0.960 . S
C618 C616 1.381 . S
C618 C619 1.394 . S
C618 H626 0.930 . S
C619 C618 1.394 . S
C619 C620 1.383 . S
C619 H627 0.929 . S
C620 C619 1.383 . S
C620 C621 1.377 . S
C621 H605 0.930 . S
C621 C620 1.377 . S
C621 C622 1.379 . S
C622 H606 0.931 . S
C622 C616 1.383 . S
C622 C621 1.379 . S
H623 C617 0.959 . S
H624 C617 0.961 . S
H625 C617 0.960 . S
H626 C618 0.930 . S
H627 C619 0.929 . S
C224 C181 1.317 . S
C205 C29 1.374 . S
C241 C8 1.375 . S
C260 C149 1.311 . S
C277 C0 1.367 . S
C296 C187 1.354 . S
C313 C17 1.370 . S
C332 C155 1.343 . S
C349 C63 1.374 . S
C368 C117 1.328 . S
C385 C42 1.373 . S
C404 C85 1.333 . S
C440 C123 1.342 . S
C421 C34 1.367 . S
C476 C91 1.318 . S
C457 C51 1.370 . S
C493 C4 1.483 . S
C512 C97 1.470 1_655 S
C529 C13 1.482 . S
C548 C129 1.452 1_545 S
C584 C161 1.426 . S
C565 C38 1.484 . S
C601 C47 1.480 . S
C620 C193 1.469 . S
